# Generated by pormake.
# Topology smu, (6)-cn, num edge types: 1
# Building blocks:
#     Node 0, Type 0, BuildingBlock: GEDQOX_clean_sbu_0, # of connection points: 6
#     Node 1, Type 0, BuildingBlock: GEDQOX_clean_sbu_0, # of connection points: 6
#     Node 2, Type 0, BuildingBlock: GEDQOX_clean_sbu_0, # of connection points: 6
#     Node 3, Type 0, BuildingBlock: GEDQOX_clean_sbu_0, # of connection points: 6
#     Node 4, Type 0, BuildingBlock: GEDQOX_clean_sbu_0, # of connection points: 6
#     Node 5, Type 0, BuildingBlock: GEDQOX_clean_sbu_0, # of connection points: 6
#     Edge 6, Type (0, 0), BuildingBlock: MIFKUJ_clean_linker_0, # of connection points: 2
#     Edge 7, Type (0, 0), BuildingBlock: MIFKUJ_clean_linker_0, # of connection points: 2
#     Edge 8, Type (0, 0), BuildingBlock: MIFKUJ_clean_linker_0, # of connection points: 2
#     Edge 9, Type (0, 0), BuildingBlock: MIFKUJ_clean_linker_0, # of connection points: 2
#     Edge 10, Type (0, 0), BuildingBlock: MIFKUJ_clean_linker_0, # of connection points: 2
#     Edge 11, Type (0, 0), BuildingBlock: MIFKUJ_clean_linker_0, # of connection points: 2
#     Edge 12, Type (0, 0), BuildingBlock: MIFKUJ_clean_linker_0, # of connection points: 2
#     Edge 13, Type (0, 0), BuildingBlock: MIFKUJ_clean_linker_0, # of connection points: 2
#     Edge 14, Type (0, 0), BuildingBlock: MIFKUJ_clean_linker_0, # of connection points: 2
#     Edge 15, Type (0, 0), BuildingBlock: MIFKUJ_clean_linker_0, # of connection points: 2
#     Edge 16, Type (0, 0), BuildingBlock: MIFKUJ_clean_linker_0, # of connection points: 2
#     Edge 17, Type (0, 0), BuildingBlock: MIFKUJ_clean_linker_0, # of connection points: 2
#     Edge 18, Type (0, 0), BuildingBlock: MIFKUJ_clean_linker_0, # of connection points: 2
#     Edge 19, Type (0, 0), BuildingBlock: MIFKUJ_clean_linker_0, # of connection points: 2
#     Edge 20, Type (0, 0), BuildingBlock: MIFKUJ_clean_linker_0, # of connection points: 2
#     Edge 21, Type (0, 0), BuildingBlock: MIFKUJ_clean_linker_0, # of connection points: 2
#     Edge 22, Type (0, 0), BuildingBlock: MIFKUJ_clean_linker_0, # of connection points: 2
#     Edge 23, Type (0, 0), BuildingBlock: MIFKUJ_clean_linker_0, # of connection points: 2
# Relax obj value: 0.208
# Max RMSD: 0.300
# Mean RMSD: 0.300
data_MOF--net-smu--node1-GEDQOX_clean_sbu_0--edge1-MIFKUJ_clean_linker_0
_symmetry_space_group_name_H-M    P1
_symmetry_Int_Tables_number       1
_symmetry_cell_setting            triclinic
loop_
_symmetry_equiv_pos_as_xyz
'x, y, z'
_cell_length_a     48.226978
_cell_length_b     48.076225
_cell_length_c     35.768577
_cell_angle_alpha  90.063347
_cell_angle_beta   90.396739
_cell_angle_gamma 119.80976
loop_
_atom_site_label
_atom_site_type_symbol
_atom_site_fract_x
_atom_site_fract_y
_atom_site_fract_z
_atom_type_partial_charge
Nd0 Nd 0.3598 0.12671 0.26974 0.0
Nd1 Nd 0.32514 0.05786 0.27644 0.0
C2 C 0.39584 0.18955 0.25723 0.0
C3 C 0.42326 0.22263 0.26386 0.0
C4 C 0.44458 0.2387 0.2346 0.0
C5 C 0.46765 0.27133 0.23769 0.0
C6 C 0.4702 0.2891 0.27022 0.0
C7 C 0.44931 0.2727 0.29995 0.0
C8 C 0.42613 0.24 0.29678 0.0
C9 C 0.34587 0.10323 0.34315 0.0
C10 C 0.40179 0.09023 0.27205 0.0
C11 C 0.28014 0.99913 0.29525 0.0
C12 C 0.24467 0.98283 0.29528 0.0
C13 C 0.22703 0.95655 0.31872 0.0
C14 C 0.19354 0.94129 0.31932 0.0
C15 C 0.17674 0.95189 0.29639 0.0
C16 C 0.19463 0.97852 0.27315 0.0
C17 C 0.22815 0.9938 0.27264 0.0
C18 C 0.33909 0.0746 0.20251 0.0
C19 C 0.28678 0.09779 0.26342 0.0
O20 O 0.40024 0.16793 0.2403 0.0
O21 O 0.37224 0.17714 0.2809 0.0
O22 O 0.34005 0.12497 0.33018 0.0
O23 O 0.35744 0.0944 0.31768 0.0
O24 O 0.39987 0.11506 0.25969 0.0
O25 O 0.37614 0.06486 0.28575 0.0
O26 O 0.29491 0.0224 0.31947 0.0
O27 O 0.29391 1.00625 0.2626 0.0
O28 O 0.3426 0.05272 0.21947 0.0
O29 O 0.32936 0.0883 0.22536 0.0
O30 O 0.28731 0.07479 0.28304 0.0
O31 O 0.31277 0.11847 0.24631 0.0
H32 H 0.44266 0.22627 0.20859 0.0
H33 H 0.4827 0.28286 0.21384 0.0
H34 H 0.45065 0.28518 0.3257 0.0
H35 H 0.40995 0.22856 0.31981 0.0
H36 H 0.23912 0.94778 0.33669 0.0
H37 H 0.18085 0.92132 0.33813 0.0
H38 H 0.18275 0.98729 0.2548 0.0
H39 H 0.24117 0.01414 0.25438 0.0
Nd40 Nd 0.7912 0.66656 0.27129 0.0
Nd41 Nd 0.7583 0.70272 0.27157 0.0
C42 C 0.8144 0.62675 0.26815 0.0
C43 C 0.82725 0.60419 0.26741 0.0
C44 C 0.84084 0.5998 0.23485 0.0
C45 C 0.85403 0.57947 0.23487 0.0
C46 C 0.8541 0.56307 0.26751 0.0
C47 C 0.84019 0.56733 0.29994 0.0
C48 C 0.82696 0.58755 0.29987 0.0
C49 C 0.78141 0.68526 0.34186 0.0
C50 C 0.71395 0.6259 0.26675 0.0
C51 C 0.74125 0.74636 0.2852 0.0
C52 C 0.7583 0.78188 0.28557 0.0
C53 C 0.78888 0.79984 0.30182 0.0
C54 C 0.80495 0.83343 0.30116 0.0
C55 C 0.79094 0.84989 0.28404 0.0
C56 C 0.76039 0.83171 0.26759 0.0
C57 C 0.74428 0.79815 0.26843 0.0
C58 C 0.76251 0.68585 0.1995 0.0
C59 C 0.83866 0.7405 0.27027 0.0
O60 O 0.81489 0.64383 0.23947 0.0
O61 O 0.801 0.63049 0.29783 0.0
O62 O 0.80893 0.69 0.33059 0.0
O63 O 0.7612 0.67244 0.31604 0.0
O64 O 0.74054 0.62812 0.25408 0.0
O65 O 0.71446 0.65168 0.28096 0.0
O66 O 0.74885 0.73237 0.31143 0.0
O67 O 0.73759 0.73268 0.2526 0.0
O68 O 0.73672 0.68234 0.21486 0.0
O69 O 0.78544 0.69613 0.22346 0.0
O70 O 0.81276 0.74216 0.27877 0.0
O71 O 0.83608 0.71304 0.26075 0.0
H72 H 0.84161 0.61233 0.2094 0.0
H73 H 0.86476 0.57714 0.20944 0.0
H74 H 0.83925 0.5548 0.32545 0.0
H75 H 0.81668 0.5903 0.32548 0.0
H76 H 0.8004 0.78798 0.31513 0.0
H77 H 0.82818 0.84645 0.31459 0.0
H78 H 0.749 0.84337 0.25352 0.0
H79 H 0.72089 0.78484 0.25539 0.0
Nd80 Nd 0.9018 0.24603 0.26649 0.0
Nd81 Nd 0.97071 0.26817 0.26888 0.0
C82 C 0.83838 0.21586 0.2576 0.0
C83 C 0.80527 0.21042 0.26229 0.0
C84 C 0.78696 0.20801 0.23044 0.0
C85 C 0.75426 0.19791 0.23324 0.0
C86 C 0.73872 0.18975 0.26806 0.0
C87 C 0.75736 0.19308 0.30014 0.0
C88 C 0.79012 0.20316 0.29729 0.0
C89 C 0.93012 0.26201 0.33753 0.0
C90 C 0.94525 0.32122 0.26431 0.0
C91 C 0.03178 0.28767 0.28176 0.0
C92 C 0.05038 0.27059 0.2806 0.0
C93 C 0.06042 0.26274 0.31399 0.0
C94 C 0.07615 0.24485 0.31329 0.0
C95 C 0.08245 0.23456 0.27916 0.0
C96 C 0.07278 0.2428 0.24574 0.0
C97 C 0.05693 0.26053 0.24645 0.0
C98 C 0.94773 0.25374 0.19639 0.0
C99 C 0.92357 0.19226 0.26511 0.0
O100 O 0.85813 0.23716 0.23401 0.0
O101 O 0.85294 0.21134 0.28587 0.0
O102 O 0.90997 0.27051 0.32541 0.0
O103 O 0.93403 0.24572 0.31283 0.0
O104 O 0.91738 0.29748 0.25362 0.0
O105 O 0.96841 0.31589 0.27637 0.0
O106 O 1.01077 0.27943 0.30843 0.0
O107 O 0.02106 0.29204 0.24991 0.0
O108 O 0.9653 0.24378 0.21249 0.0
O109 O 0.94004 0.2685 0.22013 0.0
O110 O 0.95125 0.21437 0.27894 0.0
O111 O 0.90328 0.20039 0.25123 0.0
H112 H 0.79768 0.2128 0.20299 0.0
H113 H 0.74094 0.1953 0.20775 0.0
H114 H 0.7466 0.18759 0.32755 0.0
H115 H 0.80334 0.20444 0.32244 0.0
H116 H 0.05579 0.27016 0.34074 0.0
H117 H 0.08368 0.23935 0.33952 0.0
H118 H 0.07695 0.23505 0.21896 0.0
H119 H 0.04944 0.26596 0.22016 0.0
Nd120 Nd 0.06918 0.31542 0.77215 0.0
Nd121 Nd 0.13742 0.36021 0.76865 0.0
C122 C 1.00841 0.27473 0.78691 0.0
C123 C 0.98973 0.2391 0.78934 0.0
C124 C 0.99131 0.22285 0.82131 0.0
C125 C 0.97504 0.18924 0.82236 0.0
C126 C 0.95672 0.17095 0.7915 0.0
C127 C 0.95492 0.1873 0.75974 0.0
C128 C 0.97104 0.22084 0.75877 0.0
C129 C 0.08931 0.32334 0.69888 0.0
C130 C 0.11495 0.28512 0.76462 0.0
C131 C 0.20065 0.39276 0.75942 0.0
C132 C 0.23311 0.42093 0.76617 0.0
C133 C 0.24887 0.44273 0.73711 0.0
C134 C 0.28126 0.46613 0.74044 0.0
C135 C 0.299 0.46839 0.77292 0.0
C136 C 0.28288 0.44723 0.80253 0.0
C137 C 0.25045 0.42379 0.79917 0.0
C138 C 0.11137 0.34803 0.8405 0.0
C139 C 0.09613 0.39443 0.76807 0.0
O140 O 0.0299 0.29009 0.81292 0.0
O141 O 1.0185 0.28674 0.75376 0.0
O142 O 0.07177 0.29599 0.7149 0.0
O143 O 0.09836 0.34596 0.72282 0.0
O144 O 0.08873 0.28064 0.78124 0.0
O145 O 0.13429 0.31311 0.74967 0.0
O146 O 0.18051 0.39549 0.7372 0.0
O147 O 0.18645 0.37216 0.78623 0.0
O148 O 0.13095 0.37659 0.82826 0.0
O149 O 0.10667 0.32788 0.81537 0.0
O150 O 0.12341 0.39746 0.75726 0.0
O151 O 0.07255 0.36618 0.7797 0.0
H152 H 1.00534 0.23606 0.84551 0.0
H153 H 0.9766 0.17761 0.84755 0.0
H154 H 0.94147 0.17421 0.7352 0.0
H155 H 0.96924 0.23251 0.73371 0.0
H156 H 0.23649 0.44087 0.71103 0.0
H157 H 0.2927 0.48156 0.71678 0.0
H158 H 0.29544 0.44844 0.82823 0.0
H159 H 0.23928 0.40726 0.82204 0.0
Nd160 Nd 0.27527 0.96174 0.77439 0.0
Nd161 Nd 0.24177 0.89188 0.76875 0.0
C162 C 0.30075 0.02282 0.79291 0.0
C163 C 0.28813 0.04544 0.79017 0.0
C164 C 0.27979 0.05578 0.82285 0.0
C165 C 0.26443 0.07402 0.8208 0.0
C166 C 0.25747 0.08281 0.78599 0.0
C167 C 0.26672 0.07333 0.75332 0.0
C168 C 0.28165 0.05469 0.75534 0.0
C169 C 0.25155 0.94316 0.70247 0.0
C170 C 0.19812 0.92227 0.77377 0.0
C171 C 0.21445 0.82908 0.75399 0.0
C172 C 0.20895 0.79608 0.76112 0.0
C173 C 0.21134 0.77829 0.73137 0.0
C174 C 0.20157 0.74562 0.73541 0.0
C175 C 0.18898 0.72958 0.76942 0.0
C176 C 0.18747 0.74774 0.79959 0.0
C177 C 0.19722 0.78046 0.79547 0.0
C178 C 0.25211 0.9167 0.84185 0.0
C179 C 0.31935 0.92649 0.77128 0.0
O180 O 0.28611 0.99946 0.81682 0.0
O181 O 0.30771 0.01329 0.76174 0.0
O182 O 0.24856 0.96378 0.72267 0.0
O183 O 0.26444 0.93029 0.72188 0.0
O184 O 0.22294 0.94513 0.79193 0.0
O185 O 0.2017 0.90165 0.75338 0.0
O186 O 0.24054 0.85057 0.7377 0.0
O187 O 0.20335 0.8417 0.77769 0.0
O188 O 0.22516 0.89292 0.83039 0.0
O189 O 0.27154 0.92563 0.81555 0.0
O190 O 0.29208 0.89921 0.77256 0.0
O191 O 0.31991 0.95448 0.7702 0.0
H192 H 0.28446 0.04907 0.85009 0.0
H193 H 0.25797 0.08122 0.8465 0.0
H194 H 0.26148 0.07949 0.7261 0.0
H195 H 0.28736 0.04688 0.72959 0.0
H196 H 0.21971 0.78939 0.70435 0.0
H197 H 0.20279 0.73269 0.71126 0.0
H198 H 0.17848 0.73663 0.82643 0.0
H199 H 0.19479 0.79329 0.81898 0.0
Nd200 Nd 0.71084 0.75276 0.77519 0.0
Nd201 Nd 0.67821 0.789 0.76981 0.0
C202 C 0.75391 0.73594 0.79282 0.0
C203 C 0.78939 0.75345 0.79229 0.0
C204 C 0.80663 0.75413 0.82437 0.0
C205 C 0.84012 0.77162 0.82487 0.0
C206 C 0.8573 0.78878 0.79317 0.0
C207 C 0.83986 0.78813 0.76108 0.0
C208 C 0.80637 0.77082 0.7607 0.0
C209 C 0.69726 0.75767 0.70144 0.0
C210 C 0.75167 0.83148 0.76641 0.0
C211 C 0.64417 0.81795 0.75678 0.0
C212 C 0.61716 0.82448 0.75981 0.0
C213 C 0.60891 0.83637 0.72836 0.0
C214 C 0.58611 0.84628 0.73071 0.0
C215 C 0.57066 0.84443 0.76463 0.0
C216 C 0.57826 0.8316 0.79599 0.0
C217 C 0.60144 0.82195 0.79368 0.0
C218 C 0.6925 0.77805 0.84277 0.0
C219 C 0.63398 0.71074 0.77156 0.0
O220 O 0.74079 0.74572 0.81754 0.0
O221 O 0.73902 0.72927 0.76057 0.0
O222 O 0.69237 0.73151 0.71756 0.0
O223 O 0.70783 0.78071 0.72508 0.0
O224 O 0.75047 0.80671 0.78392 0.0
O225 O 0.72598 0.82781 0.74945 0.0
O226 O 0.64141 0.79405 0.73646 0.0
O227 O 0.66434 0.82532 0.78464 0.0
O228 O 0.69869 0.80596 0.83069 0.0
O229 O 0.67992 0.75802 0.81683 0.0
O230 O 0.6365 0.73797 0.76012 0.0
O231 O 0.65954 0.70996 0.78416 0.0
H232 H 0.79414 0.74135 0.84927 0.0
H233 H 0.85251 0.77194 0.85037 0.0
H234 H 0.85205 0.80061 0.73594 0.0
H235 H 0.7938 0.77114 0.73562 0.0
H236 H 0.62077 0.83876 0.70195 0.0
H237 H 0.58062 0.85553 0.70584 0.0
H238 H 0.56701 0.82993 0.82262 0.0
H239 H 0.60748 0.81311 0.81849 0.0
H240 H 0.21077 0.90864 0.8995 0.0
H241 H 0.22381 0.93799 0.95942 0.0
H242 H 0.3228 0.99202 0.92756 0.0
H243 H 0.30994 0.96288 0.86819 0.0
H244 H 0.31818 0.97265 0.99858 0.0
H245 H 0.27278 0.02405 0.92459 0.0
H246 H 0.23082 0.0258 0.88652 0.0
H247 H 0.16622 0.98985 0.97891 0.0
H248 H 0.20755 0.98728 1.01738 0.0
H249 H 0.37795 0.08691 0.14266 0.0
H250 H 0.36213 0.06414 0.07962 0.0
H251 H 0.26289 0.02114 0.11019 0.0
H252 H 0.27893 0.04571 0.17252 0.0
H253 H 0.26598 0.03385 0.04 0.0
H254 H 0.30891 0.98008 0.11321 0.0
H255 H 0.34946 0.97672 0.15235 0.0
H256 H 0.41671 0.01448 0.06254 0.0
H257 H 0.37665 0.01839 1.02298 0.0
C258 C 0.2353 0.9267 0.9054 0.0
C259 C 0.25928 0.93332 0.87899 0.0
C260 C 0.24276 0.94366 0.93961 0.0
C261 C 0.27437 0.96759 0.94823 0.0
C262 C 0.29827 0.9738 0.92192 0.0
C263 C 0.29083 0.95707 0.88782 0.0
C264 C 0.28296 0.98606 0.98453 0.0
C265 C 0.30695 0.9863 1.00733 0.0
C266 C 0.26793 1.00337 0.99683 0.0
C267 C 0.24318 1.00517 0.97378 0.0
C268 C 0.24955 0.01627 0.93672 0.0
C269 C 0.22591 0.01746 0.91507 0.0
C270 C 0.1959 1.00792 0.93026 0.0
C271 C 0.18947 0.9972 0.96717 0.0
C272 C 0.213 0.99588 0.98891 0.0
C273 C 0.35278 0.07369 0.13537 0.0
C274 C 0.32973 0.06872 0.16232 0.0
C275 C 0.34364 0.06006 0.09946 0.0
C276 C 0.31117 0.0398 0.09003 0.0
C277 C 0.28809 0.0364 0.11637 0.0
C278 C 0.29726 0.05071 0.15204 0.0
C279 C 0.30145 0.02068 0.05399 0.0
C280 C 0.27721 0.02021 0.03129 0.0
C281 C 0.31601 1.00281 0.04186 0.0
C282 C 0.33988 0.99978 0.06527 0.0
C283 C 0.33238 0.98775 0.10186 0.0
C284 C 0.35528 0.98576 0.12411 0.0
C285 C 0.38567 0.99546 0.10997 0.0
C286 C 0.39317 1.00701 0.07346 0.0
C287 C 0.37037 1.00908 0.0511 0.0
H288 H 0.40339 0.99398 0.12727 0.0
H289 H 0.17767 1.0089 0.91347 0.0
H290 H 0.65797 0.72951 0.64176 0.0
H291 H 0.67341 0.72261 0.57886 0.0
H292 H 0.77275 0.78259 0.60889 0.0
H293 H 0.75701 0.79092 0.67126 0.0
H294 H 0.76712 0.79054 0.53775 0.0
H295 H 0.73127 0.6966 0.61339 0.0
H296 H 0.69364 0.65271 0.65393 0.0
H297 H 0.62346 0.61734 0.56563 0.0
H298 H 0.66055 0.66127 0.52471 0.0
H299 H 0.82353 0.72209 0.39792 0.0
H300 H 0.81095 0.739 0.4574 0.0
H301 H 0.71087 0.68866 0.42775 0.0
H302 H 0.7233 0.67182 0.36865 0.0
H303 H 0.71895 0.67659 0.49909 0.0
H304 H 0.75542 0.77131 0.42379 0.0
H305 H 0.79369 0.81497 0.38354 0.0
H306 H 0.86429 0.84766 0.47129 0.0
H307 H 0.82639 0.80409 0.51211 0.0
C308 C 0.68303 0.74228 0.6344 0.0
C309 C 0.70618 0.76129 0.66126 0.0
C310 C 0.69197 0.73785 0.59855 0.0
C311 C 0.72443 0.75115 0.58903 0.0
C312 C 0.74757 0.77181 0.61519 0.0
C313 C 0.73854 0.77684 0.65086 0.0
C314 C 0.73409 0.74174 0.55316 0.0
C315 C 0.7568 0.76557 0.52966 0.0
C316 C 0.72069 0.70918 0.54182 0.0
C317 C 0.69858 0.68237 0.56611 0.0
C318 C 0.70776 0.67953 0.60268 0.0
C319 C 0.68654 0.65465 0.62572 0.0
C320 C 0.65616 0.63229 0.61239 0.0
C321 C 0.64699 0.63469 0.57593 0.0
C322 C 0.66811 0.65955 0.55278 0.0
C323 C 0.79886 0.71462 0.40415 0.0
C324 C 0.77445 0.69552 0.37846 0.0
C325 C 0.79167 0.72446 0.43813 0.0
C326 C 0.75987 0.71537 0.44729 0.0
C327 C 0.73555 0.69607 0.42166 0.0
C328 C 0.74273 0.68646 0.38772 0.0
C329 C 0.75161 0.72534 0.48358 0.0
C330 C 0.72925 0.70155 0.50724 0.0
C331 C 0.76551 0.75784 0.4951 0.0
C332 C 0.78818 0.78429 0.47087 0.0
C333 C 0.77916 0.78771 0.43443 0.0
C334 C 0.80077 0.81245 0.41152 0.0
C335 C 0.83146 0.83398 0.42476 0.0
C336 C 0.84052 0.83093 0.46105 0.0
C337 C 0.81896 0.80627 0.48412 0.0
H338 H 0.84817 0.85308 0.40694 0.0
H339 H 0.63973 0.61308 0.6303 0.0
H340 H 0.94162 0.21563 0.1371 0.0
H341 H 0.96588 0.23237 0.07542 0.0
H342 H 0.99939 0.33112 0.10503 0.0
H343 H 0.97333 0.31401 0.16604 0.0
H344 H 0.98851 0.32621 0.03428 0.0
H345 H 0.04776 0.29225 0.11151 0.0
H346 H 0.0556 0.25525 0.15215 0.0
H347 H 0.02413 0.18576 0.06331 0.0
H348 H 1.01591 0.22226 1.02218 0.0
H349 H 0.11272 0.38873 0.89601 0.0
H350 H 0.08329 0.37431 0.95521 0.0
H351 H 0.0413 0.27412 0.9268 0.0
H352 H 0.07121 0.28843 0.86838 0.0
H353 H 0.05775 0.28173 0.99764 0.0
H354 H 1.00006 0.31833 0.92002 0.0
H355 H 0.99508 0.35754 0.88027 0.0
H356 H 0.02683 0.42478 0.97155 0.0
H357 H 0.03246 0.38614 1.01168 0.0
C358 C 0.95318 0.24081 0.12993 0.0
C359 C 0.95506 0.26337 0.15638 0.0
C360 C 0.96768 0.25053 0.09478 0.0
C361 C 0.98571 0.28328 0.0855 0.0
C362 C 0.98598 0.30574 0.11114 0.0
C363 C 0.97078 0.29591 0.14608 0.0
C364 C 1.00543 0.294 0.0502 0.0
C365 C 1.0039 0.31668 0.02664 0.0
C366 C 0.02562 0.28169 0.0394 0.0
C367 C 0.03097 0.25988 0.06389 0.0
C368 C 0.04239 0.26902 0.1007 0.0
C369 C 0.0469 0.24814 0.12382 0.0
C370 C 0.04025 0.21813 0.11038 0.0
C371 C 0.02923 0.209 0.0737 0.0
C372 C 0.0247 0.22979 0.05045 0.0
C373 C 0.0973 0.36364 0.90248 0.0
C374 C 0.09431 0.3398 0.87721 0.0
C375 C 0.08021 0.35535 0.93632 0.0
C376 C 0.05945 0.32298 0.94571 0.0
C377 C 0.05694 0.29924 0.92062 0.0
C378 C 0.07405 0.3075 0.88697 0.0
C379 C 0.04052 0.31359 0.98153 0.0
C380 C 0.04232 0.29121 1.00527 0.0
C381 C 0.02094 0.32647 0.99263 0.0
C382 C 1.01695 0.34945 0.96874 0.0
C383 C 1.00614 0.34154 0.93155 0.0
C384 C 1.00319 0.36366 0.90895 0.0
C385 C 1.01071 0.39366 0.92335 0.0
C386 C 0.02106 0.40155 0.96042 0.0
C387 C 0.02411 0.37954 0.98311 0.0
H388 H 1.00846 0.41077 0.9058 0.0
H389 H 0.04371 0.20199 0.12835 0.0
H390 H 0.37343 0.0745 0.38201 0.0
H391 H 0.3569 0.04578 0.44125 0.0
H392 H 0.27763 0.06357 0.44587 0.0
H393 H 0.2959 0.09462 0.38786 0.0
H394 H 0.29622 0.06726 0.51135 0.0
H395 H 0.27548 0.98707 0.41818 0.0
H396 H 0.28925 0.96226 0.36644 0.0
H397 H 0.35733 0.95436 0.4369 0.0
H398 H 0.34471 0.97991 0.48881 0.0
H399 H 0.21564 0.95705 0.65584 0.0
H400 H 0.22935 0.98075 0.59356 0.0
H401 H 0.31415 0.97208 0.595 0.0
H402 H 0.29971 0.94719 0.65713 0.0
H403 H 0.29164 0.96253 0.52618 0.0
H404 H 0.31381 0.04594 0.61747 0.0
H405 H 0.30149 0.07327 0.66767 0.0
H406 H 0.22805 0.07333 0.5992 0.0
H407 H 0.24001 0.04609 0.54854 0.0
C408 C 0.35261 0.07251 0.39586 0.0
C409 C 0.33605 0.08695 0.3802 0.0
C410 C 0.34281 0.0556 0.42968 0.0
C411 C 0.3152 0.05125 0.44813 0.0
C412 C 0.29889 0.06616 0.4326 0.0
C413 C 0.30934 0.08401 0.3993 0.0
C414 C 0.30367 0.03174 0.48368 0.0
C415 C 0.29475 0.0441 0.51409 0.0
C416 C 0.30222 1.00162 0.48839 0.0
C417 C 0.3093 0.98565 0.45735 0.0
C418 C 0.29349 0.98018 0.42262 0.0
C419 C 0.30109 0.96601 0.39325 0.0
C420 C 0.32408 0.95672 0.39839 0.0
C421 C 0.33953 0.96158 0.43295 0.0
C422 C 0.33219 0.97594 0.46235 0.0
C423 C 0.23675 0.95933 0.64244 0.0
C424 C 0.25636 0.94988 0.66147 0.0
C425 C 0.24492 0.97345 0.60693 0.0
C426 C 0.27345 0.97938 0.58958 0.0
C427 C 0.29215 0.96817 0.60758 0.0
C428 C 0.28372 0.9536 0.64309 0.0
C429 C 0.28416 0.9981 0.55353 0.0
C430 C 0.29295 0.9856 0.52314 0.0
C431 C 0.28519 0.02794 0.54863 0.0
C432 C 0.27762 0.04373 0.57938 0.0
C433 C 0.29488 0.05156 0.61326 0.0
C434 C 0.28798 0.06707 0.64177 0.0
C435 C 0.26389 0.07487 0.6367 0.0
C436 C 0.24667 0.06722 0.6031 0.0
C437 C 0.25355 0.05184 0.57446 0.0
H438 H 0.25865 0.087 0.65869 0.0
H439 H 0.3299 0.94575 0.3756 0.0
H440 H 0.67369 0.71921 0.87239 0.0
H441 H 0.69042 0.70588 0.93123 0.0
H442 H 0.75173 0.8064 0.95501 0.0
H443 H 0.7346 0.81994 0.89593 0.0
H444 H 0.78133 0.76795 0.97012 0.0
H445 H 0.6852 0.76891 1.00111 0.0
H446 H 0.6288 0.75461 0.99327 0.0
H447 H 0.59947 0.65498 1.00631 0.0
H448 H 0.65577 0.66866 1.0137 0.0
H449 H 0.80482 0.74246 0.16523 0.0
H450 H 0.79776 0.76005 0.1032 0.0
H451 H 0.71877 0.66528 0.08078 0.0
H452 H 0.72519 0.64826 0.14305 0.0
H453 H 0.69993 0.70454 0.06519 0.0
H454 H 0.79474 0.70183 0.03267 0.0
H455 H 0.85081 0.71452 0.03848 0.0
H456 H 0.88258 0.8148 0.02668 0.0
H457 H 0.82664 0.80274 1.02129 0.0
C458 C 0.69062 0.73857 0.89017 0.0
C459 C 0.70254 0.77069 0.87947 0.0
C460 C 0.70024 0.73088 0.92391 0.0
C461 C 0.72233 0.75505 0.94794 0.0
C462 C 0.7347 0.78723 0.93711 0.0
C463 C 0.72471 0.79498 0.90342 0.0
C464 C 0.73166 0.74636 0.98454 0.0
C465 C 0.76363 0.7545 0.99119 0.0
C466 C 0.70862 0.7281 1.01186 0.0
C467 C 0.67473 0.7198 1.00762 0.0
C468 C 0.66674 0.74393 1.00201 0.0
C469 C 0.63479 0.73594 0.9977 0.0
C470 C 0.61057 0.7039 0.9992 0.0
C471 C 0.61826 0.67979 1.00511 0.0
C472 C 0.65019 0.68765 1.0094 0.0
C473 C 0.78688 0.72505 0.1464 0.0
C474 C 0.76604 0.69368 0.15884 0.0
C475 C 0.7826 0.7352 0.11086 0.0
C476 C 0.75758 0.71414 0.08672 0.0
C477 C 0.73812 0.68228 0.09851 0.0
C478 C 0.74213 0.67232 0.13404 0.0
C479 C 0.74968 0.72553 0.05087 0.0
C480 C 0.71784 0.71798 0.04432 0.0
C481 C 0.77285 0.74406 1.0236 0.0
C482 C 0.80648 0.75141 0.02701 0.0
C483 C 0.81367 0.72661 0.03165 0.0
C484 C 0.84543 0.73369 0.0348 0.0
C485 C 0.87024 0.76545 0.03307 0.0
C486 C 0.86333 0.79021 0.02809 0.0
C487 C 0.83161 0.78327 0.02496 0.0
H488 H 0.89481 0.77088 0.03549 0.0
H489 H 0.58584 0.69776 0.99586 0.0
H490 H 0.96945 0.24151 0.36628 0.0
H491 H 0.99885 0.25611 0.4256 0.0
H492 H 0.95996 0.31729 0.45228 0.0
H493 H 0.93072 0.30302 0.39221 0.0
H494 H 0.02319 0.34629 0.47193 0.0
H495 H 0.93114 0.24305 0.49348 0.0
H496 H 0.89349 0.18596 0.48029 0.0
H497 H 0.96986 0.16481 0.49064 0.0
H498 H 1.00804 0.22186 0.50342 0.0
H499 H 0.06934 0.36262 0.66693 0.0
H500 H 0.0444 0.356 0.60513 0.0
H501 H 0.06682 0.28186 0.57843 0.0
H502 H 0.09001 0.28735 0.64088 0.0
H503 H 1.01027 0.26056 0.55897 0.0
H504 H 0.10302 0.36298 0.53585 0.0
H505 H 0.14175 0.42003 0.54769 0.0
H506 H 0.06654 0.44298 0.539 0.0
H507 H 0.02728 0.38599 0.52756 0.0
C508 C 0.9671 0.25812 0.38469 0.0
C509 C 0.94751 0.27095 0.37437 0.0
C510 C 0.98391 0.26639 0.41886 0.0
C511 C 0.98153 0.2876 0.44408 0.0
C512 C 0.96231 0.30085 0.43361 0.0
C513 C 0.9454 0.29252 0.39928 0.0
C514 C 0.99876 0.2954 0.48134 0.0
C515 C 0.02005 0.32754 0.49118 0.0
C516 C 0.99546 0.27114 0.50645 0.0
C517 C 0.97248 0.23677 0.4991 0.0
C518 C 0.93993 0.22626 0.49271 0.0
C519 C 0.9185 0.1939 0.48534 0.0
C520 C 0.92929 0.17178 0.48455 0.0
C521 C 0.96153 0.18197 0.49123 0.0
C522 C 0.98307 0.21431 0.49858 0.0
C523 C 0.06986 0.34566 0.64739 0.0
C524 C 0.08223 0.3259 0.65868 0.0
C525 C 0.05542 0.34174 0.61186 0.0
C526 C 0.05359 0.31844 0.5863 0.0
C527 C 0.06748 0.29989 0.59719 0.0
C528 C 0.08124 0.30333 0.63287 0.0
C529 C 0.03544 0.31157 0.54956 0.0
C530 C 1.0137 0.27947 0.53983 0.0
C531 C 0.03861 0.33591 0.52449 0.0
C532 C 0.06217 0.37017 0.53123 0.0
C533 C 0.09471 0.38016 0.53672 0.0
C534 C 0.11676 0.41249 0.54332 0.0
C535 C 0.1066 0.4351 0.5442 0.0
C536 C 0.07437 0.42544 0.53837 0.0
C537 C 0.05221 0.39313 0.53179 0.0
H538 H 0.1237 0.46012 0.54932 0.0
H539 H 0.91266 0.14675 0.47882 0.0
H540 H 0.45146 0.12932 0.22787 0.0
H541 H 0.50607 0.13959 0.22931 0.0
H542 H 0.48142 0.06857 0.31536 0.0
H543 H 0.42587 0.05826 0.31436 0.0
H544 H 0.53785 0.12392 0.33189 0.0
H545 H 0.49673 0.05365 0.22729 0.0
H546 H 0.46726 0.03261 0.16791 0.0
H547 H 0.53208 0.12036 0.1129 0.0
H548 H 0.56164 0.14217 0.1721 0.0
H549 H 0.69508 0.14277 0.31471 0.0
H550 H 0.63723 0.12079 0.31717 0.0
H551 H 0.64321 0.18458 0.22908 0.0
H552 H 0.70107 0.20703 0.22678 0.0
H553 H 0.59434 0.1255 0.21584 0.0
H554 H 0.63163 0.19723 0.32199 0.0
H555 H 0.66022 0.2188 0.38178 0.0
H556 H 0.60208 0.12756 0.43388 0.0
H557 H 0.57341 0.10532 0.37423 0.0
C558 C 0.45734 0.11552 0.24699 0.0
C559 C 0.43402 0.09285 0.271 0.0
C560 C 0.48878 0.1214 0.24764 0.0
C561 C 0.49813 0.10475 0.27217 0.0
C562 C 0.4749 0.08173 0.29604 0.0
C563 C 0.44306 0.07563 0.29525 0.0
C564 C 0.53242 0.11257 0.27312 0.0
C565 C 0.55002 0.12356 0.30666 0.0
C566 C 0.54872 0.11282 0.24013 0.0
C567 C 0.53131 0.09963 0.20426 0.0
C568 C 0.5046 0.06855 0.2026 0.0
C569 C 0.48788 0.05647 0.16895 0.0
C570 C 0.49776 0.07515 0.13667 0.0
C571 C 0.52444 0.10592 0.13794 0.0
C572 C 0.54123 0.11814 0.17153 0.0
C573 C 0.68429 0.15257 0.29619 0.0
C574 C 0.70318 0.17689 0.27057 0.0
C575 C 0.65099 0.1398 0.29755 0.0
C576 C 0.63555 0.15102 0.27345 0.0
C577 C 0.6543 0.17527 0.24789 0.0
C578 C 0.68757 0.18808 0.24655 0.0
C579 C 0.59994 0.13745 0.27445 0.0
C580 C 0.58211 0.12544 0.2412 0.0
C581 C 0.58345 0.13618 0.30771 0.0
C582 C 0.60064 0.14951 0.34355 0.0
C583 C 0.62513 0.18169 0.34612 0.0
C584 C 0.64131 0.19405 0.38 0.0
C585 C 0.63304 0.17453 0.41158 0.0
C586 C 0.6085 0.14263 0.40938 0.0
C587 C 0.59227 0.13014 0.37555 0.0
H588 H 0.64559 0.18415 0.43778 0.0
H589 H 0.48475 0.06577 0.11066 0.0
H590 H 0.65556 0.6045 0.30228 0.0
H591 H 0.6102 0.5492 0.30398 0.0
H592 H 0.66135 0.51839 0.23213 0.0
H593 H 0.7057 0.57286 0.22961 0.0
H594 H 0.6025 0.48935 0.21072 0.0
H595 H 0.65531 0.50727 0.33099 0.0
H596 H 0.67566 0.53465 0.39166 0.0
H597 H 0.58093 0.51264 0.42208 0.0
H598 H 0.56009 0.48547 0.36135 0.0
H599 H 0.53091 0.32249 0.24069 0.0
H600 H 0.5677 0.38023 0.24098 0.0
H601 H 0.50082 0.39481 0.30545 0.0
H602 H 0.46343 0.33699 0.3047 0.0
H603 H 0.56195 0.43323 0.33126 0.0
H604 H 0.50882 0.41087 0.21253 0.0
H605 H 0.48907 0.38296 0.15207 0.0
H606 H 0.58528 0.41322 0.11871 0.0
H607 H 0.60559 0.44095 0.17922 0.0
C608 C 0.65689 0.58598 0.28649 0.0
C609 C 0.68452 0.59339 0.26593 0.0
C610 C 0.63103 0.55421 0.28773 0.0
C611 C 0.63226 0.52914 0.26857 0.0
C612 C 0.65947 0.53692 0.24723 0.0
C613 C 0.68506 0.56837 0.24595 0.0
C614 C 0.60593 0.49468 0.27065 0.0
C615 C 0.5939 0.47715 0.23718 0.0
C616 C 0.59376 0.47849 0.30497 0.0
C617 C 0.60622 0.49469 0.34148 0.0
C618 C 0.63887 0.50848 0.35052 0.0
C619 C 0.65048 0.52393 0.38492 0.0
C620 C 0.62962 0.52548 0.41066 0.0
C621 C 0.59707 0.51149 0.40208 0.0
C622 C 0.58535 0.49605 0.36768 0.0
C623 C 0.52371 0.33783 0.25471 0.0
C624 C 0.49376 0.32462 0.27239 0.0
C625 C 0.54497 0.37104 0.25496 0.0
C626 C 0.53706 0.39223 0.27281 0.0
C627 C 0.50765 0.37916 0.29144 0.0
C628 C 0.48626 0.34589 0.2911 0.0
C629 C 0.55928 0.42789 0.27136 0.0
C630 C 0.57042 0.44557 0.30485 0.0
C631 C 0.5708 0.44427 0.23705 0.0
C632 C 0.5587 0.42777 0.20054 0.0
C633 C 0.52575 0.41139 0.19241 0.0
C634 C 0.51446 0.39562 0.15811 0.0
C635 C 0.5359 0.39626 0.1316 0.0
C636 C 0.56869 0.41273 0.13929 0.0
C637 C 0.58011 0.4285 0.17357 0.0
H638 H 0.52711 0.38404 0.10506 0.0
H639 H 0.63865 0.53744 0.43728 0.0
H640 H 0.92466 0.34511 0.20957 0.0
H641 H 0.91799 0.39206 0.21211 0.0
H642 H 0.96441 0.41704 0.32021 0.0
H643 H 0.97102 0.36934 0.31771 0.0
H644 H 0.9081 0.41727 0.32093 0.0
H645 H 1.00005 0.46452 0.24361 0.0
H646 H 0.03424 0.4678 0.19094 0.0
H647 H 0.96262 0.46013 0.113 0.0
H648 H 0.92777 0.45633 0.1652 0.0
H649 H 0.88984 0.5561 0.32325 0.0
H650 H 0.91267 0.52069 0.32435 0.0
H651 H 0.87459 0.48627 0.21387 0.0
H652 H 0.85167 0.52165 0.21258 0.0
H653 H 0.93348 0.49572 0.21867 0.0
H654 H 0.83952 0.44215 0.2949 0.0
H655 H 0.80396 0.43713 0.34683 0.0
H656 H 0.87852 0.45545 0.42605 0.0
H657 H 0.91467 0.461 0.37452 0.0
C658 C 0.93429 0.36108 0.23348 0.0
C659 C 0.94867 0.35368 0.26327 0.0
C660 C 0.93045 0.38802 0.2349 0.0
C661 C 0.94082 0.40843 0.26624 0.0
C662 C 0.9563 0.4018 0.29562 0.0
C663 C 0.96045 0.37477 0.29402 0.0
C664 C 0.93297 0.43488 0.26897 0.0
C665 C 0.91434 0.43492 0.29899 0.0
C666 C 0.94024 0.45747 0.23991 0.0
C667 C 0.9612 0.45994 0.20837 0.0
C668 C 0.99148 0.46331 0.21524 0.0
C669 C 1.011 0.4653 0.18546 0.0
C670 C 1.00059 0.46412 0.14865 0.0
C671 C 0.97065 0.46103 0.14154 0.0
C672 C 0.95103 0.45901 0.17122 0.0
C673 C 0.88604 0.54082 0.29926 0.0
C674 C 0.86863 0.54174 0.2679 0.0
C675 C 0.89921 0.52054 0.29991 0.0
C676 C 0.89512 0.50034 0.26939 0.0
C677 C 0.87822 0.50157 0.23781 0.0
C678 C 0.86513 0.52194 0.23708 0.0
C679 C 0.90819 0.47778 0.27032 0.0
C680 C 0.92768 0.47841 0.24091 0.0
C681 C 0.9016 0.45572 0.29986 0.0
C682 C 0.87991 0.45236 0.33085 0.0
C683 C 0.84841 0.44537 0.32338 0.0
C684 C 0.82813 0.44238 0.35274 0.0
C685 C 0.83901 0.44607 0.38971 0.0
C686 C 0.87015 0.45266 0.3974 0.0
C687 C 0.89054 0.45572 0.36813 0.0
H688 H 0.82327 0.44374 0.4124 0.0
H689 H 1.01573 0.46566 0.12563 0.0
H690 H 0.12356 0.4423 0.71807 0.0
H691 H 0.13313 0.49683 0.72347 0.0
H692 H 0.07576 0.47113 0.82283 0.0
H693 H 0.06632 0.41572 0.81785 0.0
H694 H 0.07052 0.51767 0.76527 0.0
H695 H 0.14613 0.50472 0.84165 0.0
H696 H 0.18432 0.48563 0.8533 0.0
H697 H 0.24286 0.54372 0.76331 0.0
H698 H 0.20469 0.56274 0.75069 0.0
H699 H 0.13715 0.68446 0.80941 0.0
H700 H 0.11664 0.62676 0.81367 0.0
H701 H 0.19105 0.63549 0.74025 0.0
H702 H 0.21259 0.69335 0.73729 0.0
H703 H 0.1845 0.59565 0.79224 0.0
H704 H 0.1102 0.60558 0.71151 0.0
H705 H 0.07158 0.62261 0.69289 0.0
H706 H 1.0109 0.56971 0.78416 0.0
H707 H 0.0494 0.5527 0.80362 0.0
C708 C 0.1123 0.44788 0.74074 0.0
C709 C 0.09424 0.42452 0.76763 0.0
C710 C 0.11789 0.47923 0.74377 0.0
C711 C 0.10557 0.48836 0.77376 0.0
C712 C 0.08556 0.46467 0.7994 0.0
C713 C 0.07998 0.43294 0.79643 0.0
C714 C 0.11641 0.52322 0.7793 0.0
C715 C 0.09524 0.53471 0.77209 0.0
C716 C 0.14894 0.54566 0.78688 0.0
C717 C 0.17241 0.53498 0.79506 0.0
C718 C 0.16704 0.51328 0.82419 0.0
C719 C 0.18869 0.50248 0.83099 0.0
C720 C 0.21597 0.5134 0.80901 0.0
C721 C 0.22171 0.53526 0.7803 0.0
C722 C 0.20009 0.54609 0.77335 0.0
C723 C 0.14953 0.67431 0.79453 0.0
C724 C 0.17666 0.69402 0.77287 0.0
C725 C 0.13742 0.64101 0.79661 0.0
C726 C 0.15183 0.62626 0.77682 0.0
C727 C 0.17922 0.64594 0.75573 0.0
C728 C 0.19141 0.67921 0.75376 0.0
C729 C 0.13868 0.59052 0.77803 0.0
C730 C 0.15958 0.57878 0.78618 0.0
C731 C 0.10597 0.56794 0.77083 0.0
C732 C 0.08286 0.57821 0.7593 0.0
C733 C 0.08875 0.59782 0.72781 0.0
C734 C 0.06687 0.60741 0.71706 0.0
C735 C 0.03886 0.59734 0.7374 0.0
C736 C 0.03264 0.57756 0.76848 0.0
C737 C 0.05448 0.56792 0.77937 0.0
H738 H 0.02193 0.60478 0.72903 0.0
H739 H 0.23267 0.50497 0.81425 0.0
H740 H 0.32494 0.87629 0.79659 0.0
H741 H 0.37128 0.86908 0.79682 0.0
H742 H 0.42843 0.96321 0.7499 0.0
H743 H 0.38135 0.97079 0.74958 0.0
H744 H 0.43706 0.91526 0.71399 0.0
H745 H 0.44024 0.95188 0.83892 0.0
H746 H 0.41822 0.95331 0.90044 0.0
H747 H 0.39369 0.85562 0.91985 0.0
H748 H 0.41513 0.85343 0.8582 0.0
H749 H 0.57593 0.89953 0.73495 0.0
H750 H 0.53767 0.91878 0.7376 0.0
H751 H 0.4738 0.83588 0.80205 0.0
H752 H 0.51247 0.81692 0.80021 0.0
H753 H 0.47267 0.88486 0.82965 0.0
H754 H 0.46355 0.84559 0.70391 0.0
H755 H 0.48289 0.84172 0.64154 0.0
H756 H 0.51604 0.94157 0.62281 0.0
H757 H 0.49724 0.94613 0.6853 0.0
C758 C 0.34729 0.89572 0.78637 0.0
C759 C 0.3492 0.92421 0.77298 0.0
C760 C 0.37396 0.89152 0.78672 0.0
C761 C 0.40359 0.9156 0.77367 0.0
C762 C 0.40586 0.94424 0.76025 0.0
C763 C 0.37899 0.94866 0.76026 0.0
C764 C 0.4315 0.90989 0.77359 0.0
C765 C 0.44536 0.90932 0.7394 0.0
C766 C 0.44181 0.90115 0.80652 0.0
C767 C 0.42912 0.90244 0.84379 0.0
C768 C 0.42995 0.93063 0.85619 0.0
C769 C 0.4176 0.93159 0.89111 0.0
C770 C 0.40452 0.90456 0.91402 0.0
C771 C 0.40383 0.87654 0.90208 0.0
C772 C 0.41612 0.87544 0.86716 0.0
C773 C 0.55366 0.88525 0.74954 0.0
C774 C 0.54729 0.85645 0.76709 0.0
C775 C 0.53165 0.8963 0.75097 0.0
C776 C 0.50228 0.87861 0.7694 0.0
C777 C 0.49613 0.85011 0.78755 0.0
C778 C 0.51833 0.83924 0.78651 0.0
C779 C 0.47805 0.8897 0.7699 0.0
C780 C 0.46476 0.89118 0.80423 0.0
C781 C 0.46806 0.89898 0.73702 0.0
C782 C 0.47931 0.89628 0.69943 0.0
C783 C 0.47517 0.86678 0.6866 0.0
C784 C 0.48601 0.86445 0.65121 0.0
C785 C 0.50077 0.89141 0.62827 0.0
C786 C 0.50465 0.92073 0.64064 0.0
C787 C 0.4939 0.92319 0.67602 0.0
H788 H 0.50914 0.88956 0.60088 0.0
H789 H 0.39496 0.90535 0.94104 0.0
H790 H 0.34645 0.45987 0.80497 0.0
H791 H 0.40408 0.49702 0.80609 0.0
H792 H 0.38983 0.56672 0.74618 0.0
H793 H 0.33217 0.52994 0.74537 0.0
H794 H 0.43784 0.56136 0.71612 0.0
H795 H 0.40813 0.57412 0.841 0.0
H796 H 0.3844 0.55551 0.90321 0.0
H797 H 0.44823 0.51909 0.92425 0.0
H798 H 0.47206 0.53712 0.86193 0.0
H799 H 0.57988 0.70576 0.74103 0.0
H800 H 0.52574 0.66106 0.74257 0.0
H801 H 0.55815 0.60467 0.80261 0.0
H802 H 0.61332 0.6503 0.80182 0.0
H803 H 0.50307 0.59769 0.8325 0.0
H804 H 0.53619 0.58885 0.71049 0.0
H805 H 0.56059 0.60758 0.64863 0.0
H806 H 0.49082 0.63529 0.62175 0.0
H807 H 0.46629 0.6172 0.68369 0.0
C808 C 0.35541 0.48329 0.79254 0.0
C809 C 0.33431 0.49173 0.77512 0.0
C810 C 0.38855 0.50454 0.7931 0.0
C811 C 0.40155 0.5349 0.77639 0.0
C812 C 0.38057 0.54345 0.75913 0.0
C813 C 0.34747 0.52225 0.75861 0.0
C814 C 0.43693 0.55759 0.7761 0.0
C815 C 0.45199 0.56949 0.74164 0.0
C816 C 0.45589 0.56742 0.80918 0.0
C817 C 0.44162 0.55664 0.84665 0.0
C818 C 0.41692 0.5619 0.85877 0.0
C819 C 0.40349 0.55151 0.89407 0.0
C820 C 0.41473 0.53604 0.91762 0.0
C821 C 0.4395 0.53102 0.90595 0.0
C822 C 0.45299 0.54134 0.87066 0.0
C823 C 0.57586 0.68392 0.75451 0.0
C824 C 0.6013 0.6818 0.77122 0.0
C825 C 0.54463 0.65814 0.75517 0.0
C826 C 0.53764 0.62913 0.7722 0.0
C827 C 0.56286 0.62672 0.7891 0.0
C828 C 0.59445 0.65276 0.78845 0.0
C829 C 0.50378 0.60201 0.77257 0.0
C830 C 0.489 0.58926 0.80695 0.0
C831 C 0.48504 0.59119 0.73937 0.0
C832 C 0.49951 0.60183 0.70188 0.0
C833 C 0.52616 0.59912 0.69149 0.0
C834 C 0.54001 0.6096 0.65639 0.0
C835 C 0.52729 0.62266 0.6313 0.0
C836 C 0.50065 0.62518 0.64122 0.0
C837 C 0.48673 0.61477 0.67631 0.0
H838 H 0.53805 0.63077 0.60414 0.0
H839 H 0.40431 0.52801 0.94494 0.0
H840 H 0.23345 0.07094 0.30858 0.0
H841 H 0.1928 0.08758 0.3131 0.0
H842 H 0.23732 0.15351 0.22214 0.0
H843 H 0.27747 0.13723 0.21745 0.0
H844 H 0.23072 0.18286 0.28394 0.0
H845 H 0.1664 0.08812 0.20952 0.0
H846 H 0.13982 0.03019 0.19575 0.0
H847 H 0.08421 1.01026 0.2955 0.0
H848 H 0.11075 0.06814 0.31013 0.0
H849 H 0.12957 0.24144 0.23144 0.0
H850 H 0.15846 0.21172 0.2309 0.0
H851 H 0.10333 0.15553 0.32453 0.0
H852 H 0.07377 0.1849 0.32485 0.0
H853 H 0.11286 0.11838 0.26975 0.0
H854 H 0.17525 0.21388 0.34177 0.0
H855 H 0.20247 0.2719 0.35515 0.0
H856 H 0.26272 0.29011 0.25987 0.0
H857 H 0.23552 0.23222 0.24558 0.0
C858 C 0.23412 0.08851 0.28913 0.0
C859 C 0.25895 0.10306 0.263 0.0
C860 C 0.21092 0.09802 0.29175 0.0
C861 C 0.21224 0.12208 0.26819 0.0
C862 C 0.236 0.1352 0.24087 0.0
C863 C 0.25896 0.12577 0.23823 0.0
C864 C 0.19076 0.13574 0.27327 0.0
C865 C 0.20496 0.16875 0.28056 0.0
C866 C 0.15708 0.11719 0.27005 0.0
C867 C 0.14084 0.08244 0.26115 0.0
C868 C 0.14869 0.07138 0.22869 0.0
C869 C 0.1336 0.03857 0.22069 0.0
C870 C 0.11043 0.01658 0.24479 0.0
C871 C 0.1022 0.02735 0.27689 0.0
C872 C 0.11724 0.06016 0.28503 0.0
C873 C 0.12324 0.2225 0.25164 0.0
C874 C 0.09943 0.21571 0.27831 0.0
C875 C 0.13991 0.2056 0.25142 0.0
C876 C 0.13325 0.18153 0.27786 0.0
C877 C 0.10889 0.174 0.30389 0.0
C878 C 0.09227 0.19105 0.30426 0.0
C879 C 0.15304 0.16566 0.27926 0.0
C880 C 0.13858 0.13236 0.27345 0.0
C881 C 0.18662 0.18387 0.28383 0.0
C882 C 0.20316 0.21872 0.29243 0.0
C883 C 0.19414 0.23028 0.3235 0.0
C884 C 0.20959 0.26314 0.33128 0.0
C885 C 0.23426 0.28468 0.30833 0.0
C886 C 0.24358 0.2734 0.2776 0.0
C887 C 0.22818 0.24056 0.26967 0.0
H888 H 0.2462 0.31011 0.3144 0.0
H889 H 0.09887 0.99122 0.23856 0.0
H890 H 0.89407 0.73889 0.27153 0.0
H891 H 0.94831 0.78257 0.27964 0.0
H892 H 0.91425 0.85002 0.28594 0.0
H893 H 0.85865 0.80555 0.27835 0.0
H894 H 0.97305 0.86681 0.23605 0.0
H895 H 0.93649 0.84189 0.36072 0.0
H896 H 0.90813 0.80679 0.41381 0.0
H897 H 0.97047 0.76699 0.41015 0.0
H898 H 0.99885 0.80145 0.35652 0.0
H899 H 0.13686 0.9777 0.29008 0.0
H900 H 0.07827 0.94931 0.28904 0.0
H901 H 0.0764 0.85931 0.30193 0.0
H902 H 0.13468 0.88722 0.30249 0.0
H903 H 0.03299 0.86311 0.3475 0.0
H904 H 0.06416 0.88386 0.21721 0.0
H905 H 0.0919 0.91892 0.16379 0.0
H906 H 0.03914 0.96829 0.17929 0.0
H907 H 1.01145 0.93384 0.23325 0.0
C908 C 0.89773 0.76292 0.2744 0.0
C909 C 0.87169 0.76853 0.27416 0.0
C910 C 0.929 0.78796 0.27913 0.0
C911 C 0.93548 0.81959 0.28345 0.0
C912 C 0.9098 0.82575 0.28257 0.0
C913 C 0.87806 0.80034 0.27836 0.0
C914 C 0.96932 0.84528 0.28984 0.0
C915 C 0.98604 0.86669 0.26088 0.0
C916 C 0.98644 0.8448 0.32193 0.0
C917 C 0.96967 0.82413 0.35438 0.0
C918 C 0.94399 0.82546 0.371 0.0
C919 C 0.92793 0.8057 0.40124 0.0
C920 C 0.93746 0.78463 0.4153 0.0
C921 C 0.96311 0.78332 0.3992 0.0
C922 C 0.97921 0.80299 0.3689 0.0
C923 C 0.12406 0.95183 0.29236 0.0
C924 C 0.14082 0.93488 0.29631 0.0
C925 C 0.09047 0.93563 0.29187 0.0
C926 C 0.07276 0.90208 0.29512 0.0
C927 C 0.08939 0.88519 0.29955 0.0
C928 C 0.12288 0.90129 0.3 0.0
C929 C 0.03699 0.88422 0.29334 0.0
C930 C 0.01996 0.86398 0.32311 0.0
C931 C 0.01963 0.88608 0.26215 0.0
C932 C 0.03601 0.90653 0.22951 0.0
C933 C 0.05865 0.90236 0.2094 0.0
C934 C 0.07434 0.92209 0.17901 0.0
C935 C 0.06734 0.94587 0.16821 0.0
C936 C 0.04454 0.94986 0.18769 0.0
C937 C 0.02886 0.93026 0.2182 0.0
H938 H 0.07955 0.96115 0.14471 0.0
H939 H 0.925 0.76936 0.43872 0.0
H940 H 0.96163 0.16498 0.27541 0.0
H941 H 0.94412 0.10746 0.27997 0.0
H942 H 0.84625 0.08443 0.26451 0.0
H943 H 0.86339 0.14129 0.25912 0.0
H944 H 0.8586 0.05352 0.32782 0.0
H945 H 0.87933 0.07341 0.19465 0.0
H946 H 0.91385 0.10112 0.14095 0.0
H947 H 0.9793 0.06977 0.1755 0.0
H948 H 0.94536 0.04226 0.22977 0.0
H949 H 0.76514 0.8893 0.29112 0.0
H950 H 0.79244 0.94759 0.28906 0.0
H951 H 0.88279 0.95082 0.27553 0.0
H952 H 0.85535 0.89219 0.27554 0.0
H953 H 0.88128 0.99338 0.23143 0.0
H954 H 0.86116 0.96983 0.36006 0.0
H955 H 0.83026 0.94343 0.41651 0.0
H956 H 0.76913 0.98309 0.39578 0.0
H957 H 0.79937 1.00935 0.33884 0.0
C958 C 0.93642 0.14761 0.27277 0.0
C959 C 0.91394 0.15774 0.26673 0.0
C960 C 0.92647 0.1148 0.27538 0.0
C961 C 0.89386 0.0917 0.27265 0.0
C962 C 0.87149 0.10183 0.26677 0.0
C963 C 0.88141 0.1344 0.26348 0.0
C964 C 0.88257 0.05686 0.27615 0.0
C965 C 0.86336 0.04028 0.30667 0.0
C966 C 0.88982 0.03986 0.24929 0.0
C967 C 0.91002 0.05612 0.2165 0.0
C968 C 0.90123 0.07268 0.19099 0.0
C969 C 0.92066 0.0883 0.16041 0.0
C970 C 0.94881 0.0873 0.15488 0.0
C971 C 0.95752 0.07058 0.17986 0.0
C972 C 0.93819 0.05496 0.21052 0.0
C973 C 0.79077 0.90225 0.28724 0.0
C974 C 0.80792 0.88577 0.2835 0.0
C975 C 0.80648 0.93576 0.28658 0.0
C976 C 0.83984 0.95383 0.28279 0.0
C977 C 0.85707 0.93753 0.27871 0.0
C978 C 0.84133 0.90392 0.27911 0.0
C979 C 0.85643 0.98964 0.28274 0.0
C980 C 0.87671 1.0065 0.25292 0.0
C981 C 0.85069 1.00705 0.31071 0.0
C982 C 0.83239 0.99136 0.34498 0.0
C983 C 0.84098 0.97273 0.36736 0.0
C984 C 0.8236 0.95782 0.39948 0.0
C985 C 0.79771 0.96153 0.40968 0.0
C986 C 0.78918 0.98022 0.38782 0.0
C987 C 0.80645 0.99515 0.35563 0.0
H988 H 0.78429 0.94997 0.43457 0.0
H989 H 0.96383 0.09942 0.1312 0.0
H990 H 0.08624 0.22647 0.80012 0.0
H991 H 0.10503 0.18745 0.80264 0.0
H992 H 0.18369 0.24779 0.73093 0.0
H993 H 0.16498 0.28637 0.72789 0.0
H994 H 0.1595 0.18628 0.71132 0.0
H995 H 0.19227 0.24709 0.82743 0.0
H996 H 0.18266 0.26744 0.88643 0.0
H997 H 0.122 0.17096 0.92384 0.0
H998 H 0.13095 0.15005 0.86482 0.0
H999 H 0.27172 0.13512 0.74266 0.0
H1000 H 0.24326 0.16525 0.73865 0.0
H1001 H 0.17486 0.10188 0.81919 0.0
H1002 H 0.204 0.07233 0.82417 0.0
H1003 H 0.18794 0.15964 0.83447 0.0
H1004 H 0.15826 0.09807 0.72183 0.0
H1005 H 0.16754 0.07673 0.66343 0.0
H1006 H 0.21988 0.172 0.61916 0.0
H1007 H 0.21136 0.19399 0.67754 0.0
C1008 C 0.10733 0.23123 0.78457 0.0
C1009 C 0.12414 0.25972 0.76398 0.0
C1010 C 0.11818 0.20898 0.7862 0.0
C1011 C 0.1461 0.21478 0.76736 0.0
C1012 C 0.16216 0.24265 0.74576 0.0
C1013 C 0.15141 0.26483 0.74417 0.0
C1014 C 0.15954 0.19273 0.77089 0.0
C1015 C 0.16589 0.18062 0.73825 0.0
C1016 C 0.16713 0.18446 0.80601 0.0
C1017 C 0.162 0.19703 0.84158 0.0
C1018 C 0.17672 0.23023 0.84815 0.0
C1019 C 0.17142 0.24186 0.8816 0.0
C1020 C 0.15166 0.2205 0.90882 0.0
C1021 C 0.13725 0.18747 0.9027 0.0
C1022 C 0.14244 0.17572 0.86928 0.0
C1023 C 0.25055 0.12754 0.75942 0.0
C1024 C 0.24013 0.10128 0.78368 0.0
C1025 C 0.23415 0.14472 0.757 0.0
C1026 C 0.2064 0.13561 0.77806 0.0
C1027 C 0.19612 0.10951 0.80257 0.0
C1028 C 0.21282 0.09261 0.80544 0.0
C1029 C 0.18846 0.15358 0.77482 0.0
C1030 C 0.18125 0.16492 0.80751 0.0
C1031 C 0.17981 0.1609 0.73972 0.0
C1032 C 0.18436 0.1477 0.7042 0.0
C1033 C 0.17188 0.11449 0.69971 0.0
C1034 C 0.17701 0.10227 0.66661 0.0
C1035 C 0.19435 0.123 0.63764 0.0
C1036 C 0.20648 0.15598 0.64164 0.0
C1037 C 0.20147 0.16833 0.67472 0.0
H1038 H 0.19836 0.1135 0.61207 0.0
H1039 H 0.14757 0.22955 0.9347 0.0
H1040 H 0.16806 0.9538 0.74662 0.0
H1041 H 0.11066 0.93595 0.7508 0.0
H1042 H 0.09731 0.85712 0.82067 0.0
H1043 H 0.15414 0.87437 0.81534 0.0
H1044 H 0.05517 0.83579 0.767 0.0
H1045 H 0.09359 0.92529 0.85346 0.0
H1046 H 0.12667 0.98219 0.87136 0.0
H1047 H 0.08223 1.00884 0.78494 0.0
H1048 H 0.04913 0.95209 0.76623 0.0
H1049 H 0.89794 0.77187 0.82737 0.0
H1050 H 0.95606 0.79976 0.8261 0.0
H1051 H 0.95675 0.87326 0.75648 0.0
H1052 H 0.89838 0.8464 0.75937 0.0
H1053 H 1.00519 0.89993 0.80506 0.0
H1054 H 0.96649 0.81213 0.71909 0.0
H1055 H 0.93436 0.75596 0.698 0.0
H1056 H 0.98047 0.72711 0.77992 0.0
H1057 H 1.01258 0.78307 0.80185 0.0
C1058 C 0.15283 0.93312 0.76349 0.0
C1059 C 0.16533 0.91557 0.78101 0.0
C1060 C 0.12006 0.92289 0.7659 0.0
C1061 C 0.09947 0.89517 0.78623 0.0
C1062 C 0.1125 0.87846 0.80473 0.0
C1063 C 0.145 0.88842 0.80194 0.0
C1064 C 0.0641 0.88198 0.78641 0.0
C1065 C 0.04433 0.84978 0.77588 0.0
C1066 C 0.04974 0.90045 0.79641 0.0
C1067 C 0.06911 0.93447 0.80821 0.0
C1068 C 0.09099 0.9433 0.83815 0.0
C1069 C 0.10974 0.97553 0.84845 0.0
C1070 C 0.10664 0.99913 0.82922 0.0
C1071 C 0.08464 0.99053 0.79978 0.0
C1072 C 0.06585 0.95834 0.78934 0.0
C1073 C 0.91029 0.79425 0.8123 0.0
C1074 C 0.89313 0.8066 0.79325 0.0
C1075 C 0.94369 0.81005 0.81122 0.0
C1076 C 0.96095 0.83833 0.7905 0.0
C1077 C 0.94407 0.85135 0.7724 0.0
C1078 C 0.91058 0.83569 0.77373 0.0
C1079 C 0.99641 0.85346 0.78688 0.0
C1080 C 1.01612 0.886 0.79633 0.0
C1081 C 1.01089 0.83542 0.7756 0.0
C1082 C 0.99176 0.80176 0.7623 0.0
C1083 C 0.96963 0.79378 0.73276 0.0
C1084 C 0.95144 0.76198 0.72064 0.0
C1085 C 0.95532 0.73797 0.73766 0.0
C1086 C 0.97747 0.74573 0.76678 0.0
C1087 C 0.9957 0.77749 0.77904 0.0
H1088 H 0.9412 0.71337 0.72825 0.0
H1089 H 0.12124 0.02408 0.83717 0.0
H1090 H 0.89771 0.12921 0.76175 0.0
H1091 H 0.86946 0.07092 0.76229 0.0
H1092 H 0.94672 0.07219 0.82511 0.0
H1093 H 0.97612 0.13092 0.82302 0.0
H1094 H 0.92537 0.02521 0.77467 0.0
H1095 H 0.87695 0.05535 0.86839 0.0
H1096 H 0.85242 0.08424 0.89769 0.0
H1097 H 0.7746 0.04188 0.8188 0.0
H1098 H 0.79891 1.01308 0.78863 0.0
H1099 H 0.80618 0.85398 0.81057 0.0
H1100 H 0.84762 0.91055 0.82018 0.0
H1101 H 0.80109 0.93942 0.73818 0.0
H1102 H 0.7605 0.88384 0.72803 0.0
H1103 H 0.81133 0.96937 0.81142 0.0
H1104 H 0.86699 0.9434 0.71521 0.0
H1105 H 0.8916 0.91231 0.6924 0.0
H1106 H 0.95638 0.94458 0.78616 0.0
H1107 H 0.93183 0.97556 0.80979 0.0
C1108 C 0.90905 0.11727 0.77529 0.0
C1109 C 0.93931 0.13505 0.7924 0.0
C1110 C 0.89261 0.08377 0.77597 0.0
C1111 C 0.90562 0.06697 0.79432 0.0
C1112 C 0.93603 0.0845 0.81096 0.0
C1113 C 0.95267 0.11816 0.81009 0.0
C1114 C 0.88696 0.0312 0.79624 0.0
C1115 C 0.9006 1.01302 0.78334 0.0
C1116 C 0.85472 0.01498 0.80806 0.0
C1117 C 0.83989 0.03221 0.82608 0.0
C1118 C 0.85472 0.05236 0.85711 0.0
C1119 C 0.84084 0.0687 0.8739 0.0
C1120 C 0.812 0.06494 0.86008 0.0
C1121 C 0.79695 0.04478 0.82947 0.0
C1122 C 0.81075 0.0284 0.81253 0.0
C1123 C 0.80524 0.87238 0.7941 0.0
C1124 C 0.7798 0.86434 0.76882 0.0
C1125 C 0.82883 0.90466 0.79969 0.0
C1126 C 0.82717 0.92919 0.78016 0.0
C1127 C 0.80268 0.92094 0.75379 0.0
C1128 C 0.77946 0.88901 0.74801 0.0
C1129 C 0.84928 0.96372 0.78824 0.0
C1130 C 0.83625 0.98163 0.80329 0.0
C1131 C 0.88211 0.97943 0.77925 0.0
C1132 C 0.89735 0.9615 0.76448 0.0
C1133 C 0.88633 0.94369 0.7311 0.0
C1134 C 0.9003 0.92612 0.718 0.0
C1135 C 0.92546 0.92637 0.73789 0.0
C1136 C 0.93684 0.94436 0.77082 0.0
C1137 C 0.92294 0.96195 0.78405 0.0
H1138 H 0.93619 0.9127 0.72775 0.0
H1139 H 0.80128 0.07761 0.87312 0.0
loop_
_geom_bond_atom_site_label_1
_geom_bond_atom_site_label_2
_geom_bond_distance
_geom_bond_site_symmetry_2
_ccdc_geom_bond_type
Nd0 C2 2.836 . S
Nd0 O20 2.500 . S
Nd0 O21 2.492 . S
Nd0 O22 2.487 . S
Nd0 O23 2.682 . S
Nd0 O24 2.410 . S
Nd0 O29 2.414 . S
Nd0 O31 2.424 . S
Nd1 C11 2.836 . S
Nd1 O23 2.414 . S
Nd1 O25 2.424 . S
Nd1 O26 2.500 . S
Nd1 O27 2.492 . S
Nd1 O28 2.487 . S
Nd1 O29 2.682 . S
Nd1 O30 2.410 . S
C2 Nd0 2.836 . S
C2 C3 1.498 . S
C2 O20 1.258 . S
C2 O21 1.239 . S
C3 C2 1.498 . S
C3 C4 1.366 . S
C3 C8 1.407 . S
C4 C3 1.366 . S
C4 C5 1.392 . S
C4 H32 0.930 . S
C5 C4 1.392 . S
C5 C6 1.398 . S
C5 H33 0.929 . S
C6 C5 1.398 . S
C6 C7 1.352 . S
C7 C6 1.352 . S
C7 C8 1.384 . S
C7 H34 0.930 . S
C8 C3 1.407 . S
C8 C7 1.384 . S
C8 H35 0.929 . S
C9 O22 1.241 . S
C9 O23 1.273 . S
C10 O24 1.251 . S
C10 O25 1.268 . S
C11 Nd1 2.836 . S
C11 C12 1.498 1_545 S
C11 O26 1.258 . S
C11 O27 1.239 . S
C12 C11 1.498 1_565 S
C12 C13 1.366 . S
C12 C17 1.407 . S
C13 C12 1.366 . S
C13 C14 1.392 . S
C13 H36 0.930 . S
C14 C13 1.392 . S
C14 C15 1.398 . S
C14 H37 0.929 . S
C15 C14 1.398 . S
C15 C16 1.352 . S
C16 C15 1.352 . S
C16 C17 1.384 . S
C16 H38 0.930 . S
C17 C12 1.407 . S
C17 C16 1.384 . S
C17 H39 0.929 . S
C18 O28 1.241 . S
C18 O29 1.273 . S
C19 O30 1.251 . S
C19 O31 1.268 . S
O20 Nd0 2.500 . S
O20 C2 1.258 . S
O21 Nd0 2.492 . S
O21 C2 1.239 . S
O22 Nd0 2.487 . S
O22 C9 1.241 . S
O23 Nd0 2.682 . S
O23 Nd1 2.414 . S
O23 C9 1.273 . S
O24 Nd0 2.410 . S
O24 C10 1.251 . S
O25 Nd1 2.424 . S
O25 C10 1.268 . S
O26 Nd1 2.500 . S
O26 C11 1.258 . S
O27 Nd1 2.492 . S
O27 C11 1.239 . S
O28 Nd1 2.487 . S
O28 C18 1.241 . S
O29 Nd0 2.414 . S
O29 Nd1 2.682 . S
O29 C18 1.273 . S
O30 Nd1 2.410 . S
O30 C19 1.251 . S
O31 Nd0 2.424 . S
O31 C19 1.268 . S
H32 C4 0.930 . S
H33 C5 0.929 . S
H34 C7 0.930 . S
H35 C8 0.929 . S
H36 C13 0.930 . S
H37 C14 0.929 . S
H38 C16 0.930 . S
H39 C17 0.929 . S
Nd40 C42 2.836 . S
Nd40 O60 2.500 . S
Nd40 O61 2.492 . S
Nd40 O62 2.487 . S
Nd40 O63 2.682 . S
Nd40 O64 2.410 . S
Nd40 O69 2.414 . S
Nd40 O71 2.424 . S
Nd41 C51 2.836 . S
Nd41 O63 2.414 . S
Nd41 O65 2.424 . S
Nd41 O66 2.500 . S
Nd41 O67 2.492 . S
Nd41 O68 2.487 . S
Nd41 O69 2.682 . S
Nd41 O70 2.410 . S
C42 Nd40 2.836 . S
C42 C43 1.498 . S
C42 O60 1.258 . S
C42 O61 1.239 . S
C43 C42 1.498 . S
C43 C44 1.366 . S
C43 C48 1.407 . S
C44 C43 1.366 . S
C44 C45 1.392 . S
C44 H72 0.930 . S
C45 C44 1.392 . S
C45 C46 1.398 . S
C45 H73 0.929 . S
C46 C45 1.398 . S
C46 C47 1.352 . S
C47 C46 1.352 . S
C47 C48 1.384 . S
C47 H74 0.930 . S
C48 C43 1.407 . S
C48 C47 1.384 . S
C48 H75 0.929 . S
C49 O62 1.241 . S
C49 O63 1.273 . S
C50 O64 1.251 . S
C50 O65 1.268 . S
C51 Nd41 2.836 . S
C51 C52 1.498 . S
C51 O66 1.258 . S
C51 O67 1.239 . S
C52 C51 1.498 . S
C52 C53 1.366 . S
C52 C57 1.407 . S
C53 C52 1.366 . S
C53 C54 1.392 . S
C53 H76 0.930 . S
C54 C53 1.392 . S
C54 C55 1.398 . S
C54 H77 0.929 . S
C55 C54 1.398 . S
C55 C56 1.352 . S
C56 C55 1.352 . S
C56 C57 1.384 . S
C56 H78 0.930 . S
C57 C52 1.407 . S
C57 C56 1.384 . S
C57 H79 0.929 . S
C58 O68 1.241 . S
C58 O69 1.273 . S
C59 O70 1.251 . S
C59 O71 1.268 . S
O60 Nd40 2.500 . S
O60 C42 1.258 . S
O61 Nd40 2.492 . S
O61 C42 1.239 . S
O62 Nd40 2.487 . S
O62 C49 1.241 . S
O63 Nd40 2.682 . S
O63 Nd41 2.414 . S
O63 C49 1.273 . S
O64 Nd40 2.410 . S
O64 C50 1.251 . S
O65 Nd41 2.424 . S
O65 C50 1.268 . S
O66 Nd41 2.500 . S
O66 C51 1.258 . S
O67 Nd41 2.492 . S
O67 C51 1.239 . S
O68 Nd41 2.487 . S
O68 C58 1.241 . S
O69 Nd40 2.414 . S
O69 Nd41 2.682 . S
O69 C58 1.273 . S
O70 Nd41 2.410 . S
O70 C59 1.251 . S
O71 Nd40 2.424 . S
O71 C59 1.268 . S
H72 C44 0.930 . S
H73 C45 0.929 . S
H74 C47 0.930 . S
H75 C48 0.929 . S
H76 C53 0.930 . S
H77 C54 0.929 . S
H78 C56 0.930 . S
H79 C57 0.929 . S
Nd80 C82 2.836 . S
Nd80 O100 2.500 . S
Nd80 O101 2.492 . S
Nd80 O102 2.487 . S
Nd80 O103 2.682 . S
Nd80 O104 2.410 . S
Nd80 O109 2.414 . S
Nd80 O111 2.424 . S
Nd81 C91 2.836 . S
Nd81 O103 2.414 . S
Nd81 O105 2.424 . S
Nd81 O106 2.500 . S
Nd81 O107 2.492 . S
Nd81 O108 2.487 . S
Nd81 O109 2.682 . S
Nd81 O110 2.410 . S
C82 Nd80 2.836 . S
C82 C83 1.498 . S
C82 O100 1.258 . S
C82 O101 1.239 . S
C83 C82 1.498 . S
C83 C84 1.366 . S
C83 C88 1.407 . S
C84 C83 1.366 . S
C84 C85 1.392 . S
C84 H112 0.930 . S
C85 C84 1.392 . S
C85 C86 1.398 . S
C85 H113 0.929 . S
C86 C85 1.398 . S
C86 C87 1.352 . S
C87 C86 1.352 . S
C87 C88 1.384 . S
C87 H114 0.930 . S
C88 C83 1.407 . S
C88 C87 1.384 . S
C88 H115 0.929 . S
C89 O102 1.241 . S
C89 O103 1.273 . S
C90 O104 1.251 . S
C90 O105 1.268 . S
C91 Nd81 2.836 . S
C91 C92 1.498 1_655 S
C91 O106 1.258 . S
C91 O107 1.239 . S
C92 C91 1.498 1_455 S
C92 C93 1.366 . S
C92 C97 1.407 . S
C93 C92 1.366 . S
C93 C94 1.392 . S
C93 H116 0.930 . S
C94 C93 1.392 . S
C94 C95 1.398 . S
C94 H117 0.929 . S
C95 C94 1.398 . S
C95 C96 1.352 . S
C96 C95 1.352 . S
C96 C97 1.384 . S
C96 H118 0.930 . S
C97 C92 1.407 . S
C97 C96 1.384 . S
C97 H119 0.929 . S
C98 O108 1.241 . S
C98 O109 1.273 . S
C99 O110 1.251 . S
C99 O111 1.268 . S
O100 Nd80 2.500 . S
O100 C82 1.258 . S
O101 Nd80 2.492 . S
O101 C82 1.239 . S
O102 Nd80 2.487 . S
O102 C89 1.241 . S
O103 Nd80 2.682 . S
O103 Nd81 2.414 . S
O103 C89 1.273 . S
O104 Nd80 2.410 . S
O104 C90 1.251 . S
O105 Nd81 2.424 . S
O105 C90 1.268 . S
O106 Nd81 2.500 . S
O106 C91 1.258 . S
O107 Nd81 2.492 . S
O107 C91 1.239 . S
O108 Nd81 2.487 . S
O108 C98 1.241 . S
O109 Nd80 2.414 . S
O109 Nd81 2.682 . S
O109 C98 1.273 . S
O110 Nd81 2.410 . S
O110 C99 1.251 . S
O111 Nd80 2.424 . S
O111 C99 1.268 . S
H112 C84 0.930 . S
H113 C85 0.929 . S
H114 C87 0.930 . S
H115 C88 0.929 . S
H116 C93 0.930 . S
H117 C94 0.929 . S
H118 C96 0.930 . S
H119 C97 0.929 . S
Nd120 C122 2.836 . S
Nd120 O140 2.500 . S
Nd120 O141 2.492 . S
Nd120 O142 2.487 . S
Nd120 O143 2.682 . S
Nd120 O144 2.410 . S
Nd120 O149 2.414 . S
Nd120 O151 2.424 . S
Nd121 C131 2.836 . S
Nd121 O143 2.414 . S
Nd121 O145 2.424 . S
Nd121 O146 2.500 . S
Nd121 O147 2.492 . S
Nd121 O148 2.487 . S
Nd121 O149 2.682 . S
Nd121 O150 2.410 . S
C122 Nd120 2.836 . S
C122 C123 1.498 1_455 S
C122 O140 1.258 . S
C122 O141 1.239 . S
C123 C122 1.498 1_655 S
C123 C124 1.366 . S
C123 C128 1.407 . S
C124 C123 1.366 . S
C124 C125 1.392 . S
C124 H152 0.930 . S
C125 C124 1.392 . S
C125 C126 1.398 . S
C125 H153 0.929 . S
C126 C125 1.398 . S
C126 C127 1.352 . S
C127 C126 1.352 . S
C127 C128 1.384 . S
C127 H154 0.930 . S
C128 C123 1.407 . S
C128 C127 1.384 . S
C128 H155 0.929 . S
C129 O142 1.241 . S
C129 O143 1.273 . S
C130 O144 1.251 . S
C130 O145 1.268 . S
C131 Nd121 2.836 . S
C131 C132 1.498 . S
C131 O146 1.258 . S
C131 O147 1.239 . S
C132 C131 1.498 . S
C132 C133 1.366 . S
C132 C137 1.407 . S
C133 C132 1.366 . S
C133 C134 1.392 . S
C133 H156 0.930 . S
C134 C133 1.392 . S
C134 C135 1.398 . S
C134 H157 0.929 . S
C135 C134 1.398 . S
C135 C136 1.352 . S
C136 C135 1.352 . S
C136 C137 1.384 . S
C136 H158 0.930 . S
C137 C132 1.407 . S
C137 C136 1.384 . S
C137 H159 0.929 . S
C138 O148 1.241 . S
C138 O149 1.273 . S
C139 O150 1.251 . S
C139 O151 1.268 . S
O140 Nd120 2.500 . S
O140 C122 1.258 . S
O141 Nd120 2.492 . S
O141 C122 1.239 . S
O142 Nd120 2.487 . S
O142 C129 1.241 . S
O143 Nd120 2.682 . S
O143 Nd121 2.414 . S
O143 C129 1.273 . S
O144 Nd120 2.410 . S
O144 C130 1.251 . S
O145 Nd121 2.424 . S
O145 C130 1.268 . S
O146 Nd121 2.500 . S
O146 C131 1.258 . S
O147 Nd121 2.492 . S
O147 C131 1.239 . S
O148 Nd121 2.487 . S
O148 C138 1.241 . S
O149 Nd120 2.414 . S
O149 Nd121 2.682 . S
O149 C138 1.273 . S
O150 Nd121 2.410 . S
O150 C139 1.251 . S
O151 Nd120 2.424 . S
O151 C139 1.268 . S
H152 C124 0.930 . S
H153 C125 0.929 . S
H154 C127 0.930 . S
H155 C128 0.929 . S
H156 C133 0.930 . S
H157 C134 0.929 . S
H158 C136 0.930 . S
H159 C137 0.929 . S
Nd160 C162 2.836 . S
Nd160 O180 2.500 . S
Nd160 O181 2.492 . S
Nd160 O182 2.487 . S
Nd160 O183 2.682 . S
Nd160 O184 2.410 . S
Nd160 O189 2.414 . S
Nd160 O191 2.424 . S
Nd161 C171 2.836 . S
Nd161 O183 2.414 . S
Nd161 O185 2.424 . S
Nd161 O186 2.500 . S
Nd161 O187 2.492 . S
Nd161 O188 2.487 . S
Nd161 O189 2.682 . S
Nd161 O190 2.410 . S
C162 Nd160 2.836 . S
C162 C163 1.498 1_565 S
C162 O180 1.258 . S
C162 O181 1.239 . S
C163 C162 1.498 1_545 S
C163 C164 1.366 . S
C163 C168 1.407 . S
C164 C163 1.366 . S
C164 C165 1.392 . S
C164 H192 0.930 . S
C165 C164 1.392 . S
C165 C166 1.398 . S
C165 H193 0.929 . S
C166 C165 1.398 . S
C166 C167 1.352 . S
C167 C166 1.352 . S
C167 C168 1.384 . S
C167 H194 0.930 . S
C168 C163 1.407 . S
C168 C167 1.384 . S
C168 H195 0.929 . S
C169 O182 1.241 . S
C169 O183 1.273 . S
C170 O184 1.251 . S
C170 O185 1.268 . S
C171 Nd161 2.836 . S
C171 C172 1.498 . S
C171 O186 1.258 . S
C171 O187 1.239 . S
C172 C171 1.498 . S
C172 C173 1.366 . S
C172 C177 1.407 . S
C173 C172 1.366 . S
C173 C174 1.392 . S
C173 H196 0.930 . S
C174 C173 1.392 . S
C174 C175 1.398 . S
C174 H197 0.929 . S
C175 C174 1.398 . S
C175 C176 1.352 . S
C176 C175 1.352 . S
C176 C177 1.384 . S
C176 H198 0.930 . S
C177 C172 1.407 . S
C177 C176 1.384 . S
C177 H199 0.929 . S
C178 O188 1.241 . S
C178 O189 1.273 . S
C179 O190 1.251 . S
C179 O191 1.268 . S
O180 Nd160 2.500 . S
O180 C162 1.258 . S
O181 Nd160 2.492 . S
O181 C162 1.239 . S
O182 Nd160 2.487 . S
O182 C169 1.241 . S
O183 Nd160 2.682 . S
O183 Nd161 2.414 . S
O183 C169 1.273 . S
O184 Nd160 2.410 . S
O184 C170 1.251 . S
O185 Nd161 2.424 . S
O185 C170 1.268 . S
O186 Nd161 2.500 . S
O186 C171 1.258 . S
O187 Nd161 2.492 . S
O187 C171 1.239 . S
O188 Nd161 2.487 . S
O188 C178 1.241 . S
O189 Nd160 2.414 . S
O189 Nd161 2.682 . S
O189 C178 1.273 . S
O190 Nd161 2.410 . S
O190 C179 1.251 . S
O191 Nd160 2.424 . S
O191 C179 1.268 . S
H192 C164 0.930 . S
H193 C165 0.929 . S
H194 C167 0.930 . S
H195 C168 0.929 . S
H196 C173 0.930 . S
H197 C174 0.929 . S
H198 C176 0.930 . S
H199 C177 0.929 . S
Nd200 C202 2.836 . S
Nd200 O220 2.500 . S
Nd200 O221 2.492 . S
Nd200 O222 2.487 . S
Nd200 O223 2.682 . S
Nd200 O224 2.410 . S
Nd200 O229 2.414 . S
Nd200 O231 2.424 . S
Nd201 C211 2.836 . S
Nd201 O223 2.414 . S
Nd201 O225 2.424 . S
Nd201 O226 2.500 . S
Nd201 O227 2.492 . S
Nd201 O228 2.487 . S
Nd201 O229 2.682 . S
Nd201 O230 2.410 . S
C202 Nd200 2.836 . S
C202 C203 1.498 . S
C202 O220 1.258 . S
C202 O221 1.239 . S
C203 C202 1.498 . S
C203 C204 1.366 . S
C203 C208 1.407 . S
C204 C203 1.366 . S
C204 C205 1.392 . S
C204 H232 0.930 . S
C205 C204 1.392 . S
C205 C206 1.398 . S
C205 H233 0.929 . S
C206 C205 1.398 . S
C206 C207 1.352 . S
C207 C206 1.352 . S
C207 C208 1.384 . S
C207 H234 0.930 . S
C208 C203 1.407 . S
C208 C207 1.384 . S
C208 H235 0.929 . S
C209 O222 1.241 . S
C209 O223 1.273 . S
C210 O224 1.251 . S
C210 O225 1.268 . S
C211 Nd201 2.836 . S
C211 C212 1.498 . S
C211 O226 1.258 . S
C211 O227 1.239 . S
C212 C211 1.498 . S
C212 C213 1.366 . S
C212 C217 1.407 . S
C213 C212 1.366 . S
C213 C214 1.392 . S
C213 H236 0.930 . S
C214 C213 1.392 . S
C214 C215 1.398 . S
C214 H237 0.929 . S
C215 C214 1.398 . S
C215 C216 1.352 . S
C216 C215 1.352 . S
C216 C217 1.384 . S
C216 H238 0.930 . S
C217 C212 1.407 . S
C217 C216 1.384 . S
C217 H239 0.929 . S
C218 O228 1.241 . S
C218 O229 1.273 . S
C219 O230 1.251 . S
C219 O231 1.268 . S
O220 Nd200 2.500 . S
O220 C202 1.258 . S
O221 Nd200 2.492 . S
O221 C202 1.239 . S
O222 Nd200 2.487 . S
O222 C209 1.241 . S
O223 Nd200 2.682 . S
O223 Nd201 2.414 . S
O223 C209 1.273 . S
O224 Nd200 2.410 . S
O224 C210 1.251 . S
O225 Nd201 2.424 . S
O225 C210 1.268 . S
O226 Nd201 2.500 . S
O226 C211 1.258 . S
O227 Nd201 2.492 . S
O227 C211 1.239 . S
O228 Nd201 2.487 . S
O228 C218 1.241 . S
O229 Nd200 2.414 . S
O229 Nd201 2.682 . S
O229 C218 1.273 . S
O230 Nd201 2.410 . S
O230 C219 1.251 . S
O231 Nd200 2.424 . S
O231 C219 1.268 . S
H232 C204 0.930 . S
H233 C205 0.929 . S
H234 C207 0.930 . S
H235 C208 0.929 . S
H236 C213 0.930 . S
H237 C214 0.929 . S
H238 C216 0.930 . S
H239 C217 0.929 . S
H240 C258 0.951 . S
H241 C260 0.951 . S
H242 C262 0.950 . S
H243 C263 0.950 . S
H244 C265 0.950 . S
H245 C268 0.950 . S
H246 C269 0.950 . S
H247 C271 0.950 . S
H248 C272 0.950 1_554 S
H249 C273 0.951 . S
H250 C275 0.951 . S
H251 C277 0.950 . S
H252 C278 0.950 . S
H253 C280 0.950 . S
H254 C283 0.950 . S
H255 C284 0.950 . S
H256 C286 0.950 . S
H257 C287 0.950 1_556 S
C258 H240 0.951 . S
C258 C259 1.366 . S
C258 C260 1.388 . S
C259 C258 1.366 . S
C259 C263 1.385 . S
C260 H241 0.951 . S
C260 C258 1.388 . S
C260 C261 1.366 . S
C261 C260 1.366 . S
C261 C262 1.414 . S
C261 C264 1.499 . S
C262 H242 0.950 . S
C262 C261 1.414 . S
C262 C263 1.374 . S
C263 H243 0.950 . S
C263 C259 1.385 . S
C263 C262 1.374 . S
C264 C261 1.499 . S
C264 C265 1.373 . S
C264 C266 1.396 . S
C265 H244 0.950 . S
C265 C264 1.373 . S
C265 C281 1.377 1_566 S
C266 C264 1.396 . S
C266 C267 1.519 1_565 S
C266 C280 1.373 1_566 S
C267 C266 1.519 1_545 S
C267 C268 1.398 . S
C267 C272 1.364 1_545 S
C268 H245 0.950 . S
C268 C267 1.398 . S
C268 C269 1.334 . S
C269 H246 0.950 . S
C269 C268 1.334 . S
C269 C270 1.287 . S
C270 C269 1.287 . S
C270 C271 1.524 1_545 S
C270 H289 0.913 . S
C271 H247 0.950 . S
C271 C270 1.524 1_565 S
C271 C272 1.415 . S
C272 H248 0.950 1_556 S
C272 C267 1.364 1_565 S
C272 C271 1.415 . S
C273 H249 0.951 . S
C273 C274 1.366 . S
C273 C275 1.388 . S
C274 C273 1.366 . S
C274 C278 1.385 . S
C275 H250 0.951 . S
C275 C273 1.388 . S
C275 C276 1.366 . S
C276 C275 1.366 . S
C276 C277 1.414 . S
C276 C279 1.499 . S
C277 H251 0.950 . S
C277 C276 1.414 . S
C277 C278 1.374 . S
C278 H252 0.950 . S
C278 C274 1.385 . S
C278 C277 1.374 . S
C279 C276 1.499 . S
C279 C280 1.373 . S
C279 C281 1.389 . S
C280 H253 0.950 . S
C280 C266 1.373 1_544 S
C280 C279 1.373 . S
C281 C265 1.377 1_544 S
C281 C279 1.389 . S
C281 C282 1.524 . S
C282 C281 1.524 . S
C282 C283 1.397 1_545 S
C282 C287 1.363 . S
C283 H254 0.950 . S
C283 C282 1.397 1_565 S
C283 C284 1.334 . S
C284 H255 0.950 . S
C284 C283 1.334 . S
C284 C285 1.287 . S
C285 C284 1.287 . S
C285 C286 1.524 1_565 S
C285 H288 0.999 . S
C286 H256 0.950 . S
C286 C285 1.524 1_545 S
C286 C287 1.415 . S
C287 H257 0.950 1_554 S
C287 C282 1.363 . S
C287 C286 1.415 . S
H288 C285 0.999 . S
H289 C270 0.913 . S
H290 C308 0.951 . S
H291 C310 0.951 . S
H292 C312 0.950 . S
H293 C313 0.950 . S
H294 C315 0.950 . S
H295 C318 0.950 . S
H296 C319 0.950 . S
H297 C321 0.950 . S
H298 C322 0.950 . S
H299 C323 0.951 . S
H300 C325 0.951 . S
H301 C327 0.950 . S
H302 C328 0.950 . S
H303 C330 0.950 . S
H304 C333 0.950 . S
H305 C334 0.950 . S
H306 C336 0.950 . S
H307 C337 0.950 . S
C308 H290 0.951 . S
C308 C309 1.366 . S
C308 C310 1.388 . S
C309 C308 1.366 . S
C309 C313 1.385 . S
C310 H291 0.951 . S
C310 C308 1.388 . S
C310 C311 1.366 . S
C311 C310 1.366 . S
C311 C312 1.414 . S
C311 C314 1.499 . S
C312 H292 0.950 . S
C312 C311 1.414 . S
C312 C313 1.374 . S
C313 H293 0.950 . S
C313 C309 1.385 . S
C313 C312 1.374 . S
C314 C311 1.499 . S
C314 C315 1.373 . S
C314 C316 1.389 . S
C315 H294 0.950 . S
C315 C314 1.373 . S
C315 C331 1.377 . S
C316 C314 1.389 . S
C316 C317 1.524 . S
C316 C330 1.377 . S
C317 C316 1.524 . S
C317 C318 1.397 . S
C317 C322 1.363 . S
C318 H295 0.950 . S
C318 C317 1.397 . S
C318 C319 1.334 . S
C319 H296 0.950 . S
C319 C318 1.334 . S
C319 C320 1.287 . S
C320 C319 1.287 . S
C320 C321 1.524 . S
C320 H339 0.913 . S
C321 H297 0.950 . S
C321 C320 1.524 . S
C321 C322 1.415 . S
C322 H298 0.950 . S
C322 C317 1.363 . S
C322 C321 1.415 . S
C323 H299 0.951 . S
C323 C324 1.366 . S
C323 C325 1.388 . S
C324 C323 1.366 . S
C324 C328 1.385 . S
C325 H300 0.951 . S
C325 C323 1.388 . S
C325 C326 1.366 . S
C326 C325 1.366 . S
C326 C327 1.414 . S
C326 C329 1.499 . S
C327 H301 0.950 . S
C327 C326 1.414 . S
C327 C328 1.374 . S
C328 H302 0.950 . S
C328 C324 1.385 . S
C328 C327 1.374 . S
C329 C326 1.499 . S
C329 C330 1.373 . S
C329 C331 1.389 . S
C330 H303 0.950 . S
C330 C316 1.377 . S
C330 C329 1.373 . S
C331 C315 1.377 . S
C331 C329 1.389 . S
C331 C332 1.524 . S
C332 C331 1.524 . S
C332 C333 1.397 . S
C332 C337 1.363 . S
C333 H304 0.950 . S
C333 C332 1.397 . S
C333 C334 1.334 . S
C334 H305 0.950 . S
C334 C333 1.334 . S
C334 C335 1.287 . S
C335 C334 1.287 . S
C335 C336 1.524 . S
C335 H338 0.999 . S
C336 H306 0.950 . S
C336 C335 1.524 . S
C336 C337 1.415 . S
C337 H307 0.950 . S
C337 C332 1.363 . S
C337 C336 1.415 . S
H338 C335 0.999 . S
H339 C320 0.913 . S
H340 C358 0.951 . S
H341 C360 0.951 . S
H342 C362 0.950 . S
H343 C363 0.950 . S
H344 C365 0.950 . S
H345 C368 0.950 . S
H346 C369 0.950 . S
H347 C371 0.950 . S
H348 C372 0.950 . S
H349 C373 0.951 . S
H350 C375 0.951 . S
H351 C377 0.950 . S
H352 C378 0.950 . S
H353 C380 0.950 . S
H354 C383 0.950 . S
H355 C384 0.950 . S
H356 C386 0.950 . S
H357 C387 0.950 . S
C358 H340 0.951 . S
C358 C359 1.366 . S
C358 C360 1.388 . S
C359 C358 1.366 . S
C359 C363 1.385 . S
C360 H341 0.951 . S
C360 C358 1.388 . S
C360 C361 1.366 . S
C361 C360 1.366 . S
C361 C362 1.414 . S
C361 C364 1.499 . S
C362 H342 0.950 . S
C362 C361 1.414 . S
C362 C363 1.374 . S
C363 H343 0.950 . S
C363 C359 1.385 . S
C363 C362 1.374 . S
C364 C361 1.499 . S
C364 C365 1.373 1_655 S
C364 C366 1.389 . S
C365 H344 0.950 . S
C365 C364 1.373 1_455 S
C365 C381 1.377 1_554 S
C366 C364 1.389 . S
C366 C367 1.524 . S
C366 C380 1.377 1_554 S
C367 C366 1.524 . S
C367 C368 1.397 . S
C367 C372 1.363 1_554 S
C368 H345 0.950 . S
C368 C367 1.397 . S
C368 C369 1.334 . S
C369 H346 0.950 . S
C369 C368 1.334 . S
C369 C370 1.287 . S
C370 C369 1.287 . S
C370 C371 1.524 1_554 S
C370 H389 0.913 . S
C371 H347 0.950 . S
C371 C370 1.524 1_556 S
C371 C372 1.415 . S
C372 H348 0.950 . S
C372 C367 1.363 1_556 S
C372 C371 1.415 . S
C373 H349 0.951 . S
C373 C374 1.366 . S
C373 C375 1.388 . S
C374 C373 1.366 . S
C374 C378 1.385 . S
C375 H350 0.951 . S
C375 C373 1.388 . S
C375 C376 1.366 . S
C376 C375 1.366 . S
C376 C377 1.414 . S
C376 C379 1.499 . S
C377 H351 0.950 . S
C377 C376 1.414 . S
C377 C378 1.374 . S
C378 H352 0.950 . S
C378 C374 1.385 . S
C378 C377 1.374 . S
C379 C376 1.499 . S
C379 C380 1.373 1_455 S
C379 C381 1.389 . S
C380 H353 0.950 . S
C380 C366 1.377 1_556 S
C380 C379 1.373 1_655 S
C381 C365 1.377 1_556 S
C381 C379 1.389 . S
C381 C382 1.524 . S
C382 C381 1.524 . S
C382 C383 1.397 . S
C382 C387 1.363 1_556 S
C383 H354 0.950 . S
C383 C382 1.397 . S
C383 C384 1.334 . S
C384 H355 0.950 . S
C384 C383 1.334 . S
C384 C385 1.287 . S
C385 C384 1.287 . S
C385 C386 1.524 1_556 S
C385 H388 0.999 . S
C386 H356 0.950 . S
C386 C385 1.524 1_554 S
C386 C387 1.415 . S
C387 H357 0.950 . S
C387 C382 1.363 1_554 S
C387 C386 1.415 . S
H388 C385 0.999 . S
H389 C370 0.913 . S
H390 C408 0.951 . S
H391 C410 0.951 . S
H392 C412 0.950 . S
H393 C413 0.950 . S
H394 C415 0.950 . S
H395 C418 0.950 . S
H396 C419 0.950 . S
H397 C421 0.950 . S
H398 C422 0.950 . S
H399 C423 0.951 . S
H400 C425 0.951 . S
H401 C427 0.950 . S
H402 C428 0.950 . S
H403 C430 0.950 . S
H404 C433 0.950 . S
H405 C434 0.950 . S
H406 C436 0.950 . S
H407 C437 0.950 . S
C408 H390 0.951 . S
C408 C409 1.366 . S
C408 C410 1.388 . S
C409 C408 1.366 . S
C409 C413 1.385 . S
C410 H391 0.951 . S
C410 C408 1.388 . S
C410 C411 1.366 . S
C411 C410 1.366 . S
C411 C412 1.414 . S
C411 C414 1.499 . S
C412 H392 0.950 . S
C412 C411 1.414 . S
C412 C413 1.374 . S
C413 H393 0.950 . S
C413 C409 1.385 . S
C413 C412 1.374 . S
C414 C411 1.499 . S
C414 C415 1.373 . S
C414 C416 1.389 . S
C415 H394 0.950 . S
C415 C414 1.373 . S
C415 C431 1.377 1_545 S
C416 C414 1.389 . S
C416 C417 1.524 . S
C416 C430 1.377 1_545 S
C417 C416 1.524 . S
C417 C418 1.397 . S
C417 C422 1.363 . S
C418 H395 0.950 . S
C418 C417 1.397 . S
C418 C419 1.334 . S
C419 H396 0.950 . S
C419 C418 1.334 . S
C419 C420 1.287 . S
C420 C419 1.287 . S
C420 C421 1.524 . S
C420 H439 0.913 . S
C421 H397 0.950 . S
C421 C420 1.524 . S
C421 C422 1.415 . S
C422 H398 0.950 . S
C422 C417 1.363 . S
C422 C421 1.415 . S
C423 H399 0.951 . S
C423 C424 1.366 . S
C423 C425 1.388 . S
C424 C423 1.366 . S
C424 C428 1.385 . S
C425 H400 0.951 . S
C425 C423 1.388 . S
C425 C426 1.366 . S
C426 C425 1.366 . S
C426 C427 1.414 . S
C426 C429 1.499 . S
C427 H401 0.950 . S
C427 C426 1.414 . S
C427 C428 1.374 . S
C428 H402 0.950 . S
C428 C424 1.385 . S
C428 C427 1.374 . S
C429 C426 1.499 . S
C429 C430 1.373 . S
C429 C431 1.389 . S
C430 H403 0.950 . S
C430 C416 1.377 1_565 S
C430 C429 1.373 . S
C431 C415 1.377 1_565 S
C431 C429 1.389 . S
C431 C432 1.524 . S
C432 C431 1.524 . S
C432 C433 1.397 . S
C432 C437 1.363 . S
C433 H404 0.950 . S
C433 C432 1.397 . S
C433 C434 1.334 . S
C434 H405 0.950 . S
C434 C433 1.334 . S
C434 C435 1.287 . S
C435 C434 1.287 . S
C435 C436 1.524 . S
C435 H438 0.999 . S
C436 H406 0.950 . S
C436 C435 1.524 . S
C436 C437 1.415 . S
C437 H407 0.950 . S
C437 C432 1.363 . S
C437 C436 1.415 . S
H438 C435 0.999 . S
H439 C420 0.913 . S
H440 C458 0.951 . S
H441 C460 0.951 . S
H442 C462 0.950 . S
H443 C463 0.950 . S
H444 C465 0.950 . S
H445 C468 0.950 1_556 S
H446 C469 0.950 . S
H447 C471 0.950 . S
H448 C472 0.950 . S
H449 C473 0.951 . S
H450 C475 0.951 . S
H451 C477 0.950 . S
H452 C478 0.950 . S
H453 C480 0.950 . S
H454 C483 0.950 1_554 S
H455 C484 0.950 . S
H456 C486 0.950 . S
H457 C487 0.950 . S
C458 H440 0.951 . S
C458 C459 1.366 . S
C458 C460 1.388 . S
C459 C458 1.366 . S
C459 C463 1.385 . S
C460 H441 0.951 . S
C460 C458 1.388 . S
C460 C461 1.366 . S
C461 C460 1.366 . S
C461 C462 1.414 . S
C461 C464 1.499 . S
C462 H442 0.950 . S
C462 C461 1.414 . S
C462 C463 1.374 . S
C463 H443 0.950 . S
C463 C459 1.385 . S
C463 C462 1.374 . S
C464 C461 1.499 . S
C464 C465 1.373 . S
C464 C466 1.389 1_556 S
C465 H444 0.950 . S
C465 C464 1.373 . S
C465 C481 1.377 . S
C466 C464 1.389 1_554 S
C466 C467 1.524 . S
C466 C480 1.377 . S
C467 C466 1.524 . S
C467 C468 1.397 . S
C467 C472 1.363 . S
C468 H445 0.950 1_554 S
C468 C467 1.397 . S
C468 C469 1.334 . S
C469 H446 0.950 . S
C469 C468 1.334 . S
C469 C470 1.287 . S
C470 C469 1.287 . S
C470 C471 1.524 . S
C470 H489 0.913 . S
C471 H447 0.950 . S
C471 C470 1.524 . S
C471 C472 1.415 . S
C472 H448 0.950 . S
C472 C467 1.363 . S
C472 C471 1.415 . S
C473 H449 0.951 . S
C473 C474 1.366 . S
C473 C475 1.388 . S
C474 C473 1.366 . S
C474 C478 1.385 . S
C475 H450 0.951 . S
C475 C473 1.388 . S
C475 C476 1.366 . S
C476 C475 1.366 . S
C476 C477 1.414 . S
C476 C479 1.499 . S
C477 H451 0.950 . S
C477 C476 1.414 . S
C477 C478 1.374 . S
C478 H452 0.950 . S
C478 C474 1.385 . S
C478 C477 1.374 . S
C479 C476 1.499 . S
C479 C480 1.373 . S
C479 C481 1.389 1_554 S
C480 H453 0.950 . S
C480 C466 1.377 . S
C480 C479 1.373 . S
C481 C465 1.377 . S
C481 C479 1.389 1_556 S
C481 C482 1.524 . S
C482 C481 1.524 . S
C482 C483 1.397 . S
C482 C487 1.363 . S
C483 H454 0.950 1_556 S
C483 C482 1.397 . S
C483 C484 1.334 . S
C484 H455 0.950 . S
C484 C483 1.334 . S
C484 C485 1.287 . S
C485 C484 1.287 . S
C485 C486 1.524 . S
C485 H488 0.999 . S
C486 H456 0.950 . S
C486 C485 1.524 . S
C486 C487 1.415 . S
C487 H457 0.950 . S
C487 C482 1.363 . S
C487 C486 1.415 . S
H488 C485 0.999 . S
H489 C470 0.913 . S
H490 C508 0.951 . S
H491 C510 0.951 . S
H492 C512 0.950 . S
H493 C513 0.950 . S
H494 C515 0.950 . S
H495 C518 0.950 . S
H496 C519 0.950 . S
H497 C521 0.950 . S
H498 C522 0.950 . S
H499 C523 0.951 . S
H500 C525 0.951 . S
H501 C527 0.950 . S
H502 C528 0.950 . S
H503 C530 0.950 . S
H504 C533 0.950 . S
H505 C534 0.950 . S
H506 C536 0.950 1_655 S
H507 C537 0.950 . S
C508 H490 0.951 . S
C508 C509 1.366 . S
C508 C510 1.388 . S
C509 C508 1.366 . S
C509 C513 1.385 . S
C510 H491 0.951 . S
C510 C508 1.388 . S
C510 C511 1.366 . S
C511 C510 1.366 . S
C511 C512 1.414 . S
C511 C514 1.499 . S
C512 H492 0.950 . S
C512 C511 1.414 . S
C512 C513 1.374 . S
C513 H493 0.950 . S
C513 C509 1.385 . S
C513 C512 1.374 . S
C514 C511 1.499 . S
C514 C515 1.373 . S
C514 C516 1.389 . S
C515 H494 0.950 . S
C515 C514 1.373 . S
C515 C531 1.377 1_655 S
C516 C514 1.389 . S
C516 C517 1.524 . S
C516 C530 1.377 1_655 S
C517 C516 1.524 . S
C517 C518 1.397 . S
C517 C522 1.363 1_655 S
C518 H495 0.950 . S
C518 C517 1.397 . S
C518 C519 1.334 . S
C519 H496 0.950 . S
C519 C518 1.334 . S
C519 C520 1.287 . S
C520 C519 1.287 . S
C520 C521 1.524 1_655 S
C520 H539 0.913 . S
C521 H497 0.950 . S
C521 C520 1.524 1_455 S
C521 C522 1.415 . S
C522 H498 0.950 . S
C522 C517 1.363 1_455 S
C522 C521 1.415 . S
C523 H499 0.951 . S
C523 C524 1.366 . S
C523 C525 1.388 . S
C524 C523 1.366 . S
C524 C528 1.385 . S
C525 H500 0.951 . S
C525 C523 1.388 . S
C525 C526 1.366 . S
C526 C525 1.366 . S
C526 C527 1.414 . S
C526 C529 1.499 . S
C527 H501 0.950 . S
C527 C526 1.414 . S
C527 C528 1.374 . S
C528 H502 0.950 . S
C528 C524 1.385 . S
C528 C527 1.374 . S
C529 C526 1.499 . S
C529 C530 1.373 . S
C529 C531 1.389 . S
C530 H503 0.950 . S
C530 C516 1.377 1_455 S
C530 C529 1.373 . S
C531 C515 1.377 1_455 S
C531 C529 1.389 . S
C531 C532 1.524 . S
C532 C531 1.524 . S
C532 C533 1.397 . S
C532 C537 1.363 1_455 S
C533 H504 0.950 . S
C533 C532 1.397 . S
C533 C534 1.334 . S
C534 H505 0.950 . S
C534 C533 1.334 . S
C534 C535 1.287 . S
C535 C534 1.287 . S
C535 C536 1.524 . S
C535 H538 0.999 . S
C536 H506 0.950 1_455 S
C536 C535 1.524 . S
C536 C537 1.415 1_455 S
C537 H507 0.950 . S
C537 C532 1.363 1_655 S
C537 C536 1.415 1_655 S
H538 C535 0.999 . S
H539 C520 0.913 . S
H540 C558 0.951 . S
H541 C560 0.951 . S
H542 C562 0.950 . S
H543 C563 0.950 . S
H544 C565 0.950 . S
H545 C568 0.950 . S
H546 C569 0.950 . S
H547 C571 0.950 . S
H548 C572 0.950 . S
H549 C573 0.951 . S
H550 C575 0.951 . S
H551 C577 0.950 . S
H552 C578 0.950 . S
H553 C580 0.950 . S
H554 C583 0.950 . S
H555 C584 0.950 . S
H556 C586 0.950 . S
H557 C587 0.950 . S
C558 H540 0.951 . S
C558 C559 1.366 . S
C558 C560 1.388 . S
C559 C558 1.366 . S
C559 C563 1.385 . S
C560 H541 0.951 . S
C560 C558 1.388 . S
C560 C561 1.366 . S
C561 C560 1.366 . S
C561 C562 1.414 . S
C561 C564 1.499 . S
C562 H542 0.950 . S
C562 C561 1.414 . S
C562 C563 1.374 . S
C563 H543 0.950 . S
C563 C559 1.385 . S
C563 C562 1.374 . S
C564 C561 1.499 . S
C564 C565 1.373 . S
C564 C566 1.389 . S
C565 H544 0.950 . S
C565 C564 1.373 . S
C565 C581 1.377 . S
C566 C564 1.389 . S
C566 C567 1.524 . S
C566 C580 1.377 . S
C567 C566 1.524 . S
C567 C568 1.397 . S
C567 C572 1.363 . S
C568 H545 0.950 . S
C568 C567 1.397 . S
C568 C569 1.334 . S
C569 H546 0.950 . S
C569 C568 1.334 . S
C569 C570 1.287 . S
C570 C569 1.287 . S
C570 C571 1.524 . S
C570 H589 0.913 . S
C571 H547 0.950 . S
C571 C570 1.524 . S
C571 C572 1.415 . S
C572 H548 0.950 . S
C572 C567 1.363 . S
C572 C571 1.415 . S
C573 H549 0.951 . S
C573 C574 1.366 . S
C573 C575 1.388 . S
C574 C573 1.366 . S
C574 C578 1.385 . S
C575 H550 0.951 . S
C575 C573 1.388 . S
C575 C576 1.366 . S
C576 C575 1.366 . S
C576 C577 1.414 . S
C576 C579 1.499 . S
C577 H551 0.950 . S
C577 C576 1.414 . S
C577 C578 1.374 . S
C578 H552 0.950 . S
C578 C574 1.385 . S
C578 C577 1.374 . S
C579 C576 1.499 . S
C579 C580 1.373 . S
C579 C581 1.389 . S
C580 H553 0.950 . S
C580 C566 1.377 . S
C580 C579 1.373 . S
C581 C565 1.377 . S
C581 C579 1.389 . S
C581 C582 1.524 . S
C582 C581 1.524 . S
C582 C583 1.397 . S
C582 C587 1.363 . S
C583 H554 0.950 . S
C583 C582 1.397 . S
C583 C584 1.334 . S
C584 H555 0.950 . S
C584 C583 1.334 . S
C584 C585 1.287 . S
C585 C584 1.287 . S
C585 C586 1.524 . S
C585 H588 0.999 . S
C586 H556 0.950 . S
C586 C585 1.524 . S
C586 C587 1.415 . S
C587 H557 0.950 . S
C587 C582 1.363 . S
C587 C586 1.415 . S
H588 C585 0.999 . S
H589 C570 0.913 . S
H590 C608 0.951 . S
H591 C610 0.951 . S
H592 C612 0.950 . S
H593 C613 0.950 . S
H594 C615 0.950 . S
H595 C618 0.950 . S
H596 C619 0.950 . S
H597 C621 0.950 . S
H598 C622 0.950 . S
H599 C623 0.951 . S
H600 C625 0.951 . S
H601 C627 0.950 . S
H602 C628 0.950 . S
H603 C630 0.950 . S
H604 C633 0.950 . S
H605 C634 0.950 . S
H606 C636 0.950 . S
H607 C637 0.950 . S
C608 H590 0.951 . S
C608 C609 1.366 . S
C608 C610 1.388 . S
C609 C608 1.366 . S
C609 C613 1.385 . S
C610 H591 0.951 . S
C610 C608 1.388 . S
C610 C611 1.366 . S
C611 C610 1.366 . S
C611 C612 1.414 . S
C611 C614 1.499 . S
C612 H592 0.950 . S
C612 C611 1.414 . S
C612 C613 1.374 . S
C613 H593 0.950 . S
C613 C609 1.385 . S
C613 C612 1.374 . S
C614 C611 1.499 . S
C614 C615 1.373 . S
C614 C616 1.389 . S
C615 H594 0.950 . S
C615 C614 1.373 . S
C615 C631 1.377 . S
C616 C614 1.389 . S
C616 C617 1.524 . S
C616 C630 1.377 . S
C617 C616 1.524 . S
C617 C618 1.397 . S
C617 C622 1.363 . S
C618 H595 0.950 . S
C618 C617 1.397 . S
C618 C619 1.334 . S
C619 H596 0.950 . S
C619 C618 1.334 . S
C619 C620 1.287 . S
C620 C619 1.287 . S
C620 C621 1.524 . S
C620 H639 0.913 . S
C621 H597 0.950 . S
C621 C620 1.524 . S
C621 C622 1.415 . S
C622 H598 0.950 . S
C622 C617 1.363 . S
C622 C621 1.415 . S
C623 H599 0.951 . S
C623 C624 1.366 . S
C623 C625 1.388 . S
C624 C623 1.366 . S
C624 C628 1.385 . S
C625 H600 0.951 . S
C625 C623 1.388 . S
C625 C626 1.366 . S
C626 C625 1.366 . S
C626 C627 1.414 . S
C626 C629 1.499 . S
C627 H601 0.950 . S
C627 C626 1.414 . S
C627 C628 1.374 . S
C628 H602 0.950 . S
C628 C624 1.385 . S
C628 C627 1.374 . S
C629 C626 1.499 . S
C629 C630 1.373 . S
C629 C631 1.389 . S
C630 H603 0.950 . S
C630 C616 1.377 . S
C630 C629 1.373 . S
C631 C615 1.377 . S
C631 C629 1.389 . S
C631 C632 1.524 . S
C632 C631 1.524 . S
C632 C633 1.397 . S
C632 C637 1.363 . S
C633 H604 0.950 . S
C633 C632 1.397 . S
C633 C634 1.334 . S
C634 H605 0.950 . S
C634 C633 1.334 . S
C634 C635 1.287 . S
C635 C634 1.287 . S
C635 C636 1.524 . S
C635 H638 0.999 . S
C636 H606 0.950 . S
C636 C635 1.524 . S
C636 C637 1.415 . S
C637 H607 0.950 . S
C637 C632 1.363 . S
C637 C636 1.415 . S
H638 C635 0.999 . S
H639 C620 0.913 . S
H640 C658 0.951 . S
H641 C660 0.951 . S
H642 C662 0.950 . S
H643 C663 0.950 . S
H644 C665 0.950 . S
H645 C668 0.950 . S
H646 C669 0.950 . S
H647 C671 0.950 . S
H648 C672 0.950 . S
H649 C673 0.951 . S
H650 C675 0.951 . S
H651 C677 0.950 . S
H652 C678 0.950 . S
H653 C680 0.950 . S
H654 C683 0.950 . S
H655 C684 0.950 . S
H656 C686 0.950 . S
H657 C687 0.950 . S
C658 H640 0.951 . S
C658 C659 1.366 . S
C658 C660 1.388 . S
C659 C658 1.366 . S
C659 C663 1.385 . S
C660 H641 0.951 . S
C660 C658 1.388 . S
C660 C661 1.366 . S
C661 C660 1.366 . S
C661 C662 1.414 . S
C661 C664 1.499 . S
C662 H642 0.950 . S
C662 C661 1.414 . S
C662 C663 1.374 . S
C663 H643 0.950 . S
C663 C659 1.385 . S
C663 C662 1.374 . S
C664 C661 1.499 . S
C664 C665 1.373 . S
C664 C666 1.389 . S
C665 H644 0.950 . S
C665 C664 1.373 . S
C665 C681 1.377 . S
C666 C664 1.389 . S
C666 C667 1.524 . S
C666 C680 1.377 . S
C667 C666 1.524 . S
C667 C668 1.397 . S
C667 C672 1.363 . S
C668 H645 0.950 . S
C668 C667 1.397 . S
C668 C669 1.334 . S
C669 H646 0.950 . S
C669 C668 1.334 . S
C669 C670 1.287 . S
C670 C669 1.287 . S
C670 C671 1.524 . S
C670 H689 0.913 . S
C671 H647 0.950 . S
C671 C670 1.524 . S
C671 C672 1.415 . S
C672 H648 0.950 . S
C672 C667 1.363 . S
C672 C671 1.415 . S
C673 H649 0.951 . S
C673 C674 1.366 . S
C673 C675 1.388 . S
C674 C673 1.366 . S
C674 C678 1.385 . S
C675 H650 0.951 . S
C675 C673 1.388 . S
C675 C676 1.366 . S
C676 C675 1.366 . S
C676 C677 1.414 . S
C676 C679 1.499 . S
C677 H651 0.950 . S
C677 C676 1.414 . S
C677 C678 1.374 . S
C678 H652 0.950 . S
C678 C674 1.385 . S
C678 C677 1.374 . S
C679 C676 1.499 . S
C679 C680 1.373 . S
C679 C681 1.389 . S
C680 H653 0.950 . S
C680 C666 1.377 . S
C680 C679 1.373 . S
C681 C665 1.377 . S
C681 C679 1.389 . S
C681 C682 1.524 . S
C682 C681 1.524 . S
C682 C683 1.397 . S
C682 C687 1.363 . S
C683 H654 0.950 . S
C683 C682 1.397 . S
C683 C684 1.334 . S
C684 H655 0.950 . S
C684 C683 1.334 . S
C684 C685 1.287 . S
C685 C684 1.287 . S
C685 C686 1.524 . S
C685 H688 0.999 . S
C686 H656 0.950 . S
C686 C685 1.524 . S
C686 C687 1.415 . S
C687 H657 0.950 . S
C687 C682 1.363 . S
C687 C686 1.415 . S
H688 C685 0.999 . S
H689 C670 0.913 . S
H690 C708 0.951 . S
H691 C710 0.951 . S
H692 C712 0.950 . S
H693 C713 0.950 . S
H694 C715 0.950 . S
H695 C718 0.950 . S
H696 C719 0.950 . S
H697 C721 0.950 . S
H698 C722 0.950 . S
H699 C723 0.951 . S
H700 C725 0.951 . S
H701 C727 0.950 . S
H702 C728 0.950 . S
H703 C730 0.950 . S
H704 C733 0.950 . S
H705 C734 0.950 . S
H706 C736 0.950 . S
H707 C737 0.950 . S
C708 H690 0.951 . S
C708 C709 1.366 . S
C708 C710 1.388 . S
C709 C708 1.366 . S
C709 C713 1.385 . S
C710 H691 0.951 . S
C710 C708 1.388 . S
C710 C711 1.366 . S
C711 C710 1.366 . S
C711 C712 1.414 . S
C711 C714 1.499 . S
C712 H692 0.950 . S
C712 C711 1.414 . S
C712 C713 1.374 . S
C713 H693 0.950 . S
C713 C709 1.385 . S
C713 C712 1.374 . S
C714 C711 1.499 . S
C714 C715 1.373 . S
C714 C716 1.389 . S
C715 H694 0.950 . S
C715 C714 1.373 . S
C715 C731 1.377 . S
C716 C714 1.389 . S
C716 C717 1.524 . S
C716 C730 1.377 . S
C717 C716 1.524 . S
C717 C718 1.397 . S
C717 C722 1.363 . S
C718 H695 0.950 . S
C718 C717 1.397 . S
C718 C719 1.334 . S
C719 H696 0.950 . S
C719 C718 1.334 . S
C719 C720 1.287 . S
C720 C719 1.287 . S
C720 C721 1.524 . S
C720 H739 0.913 . S
C721 H697 0.950 . S
C721 C720 1.524 . S
C721 C722 1.415 . S
C722 H698 0.950 . S
C722 C717 1.363 . S
C722 C721 1.415 . S
C723 H699 0.951 . S
C723 C724 1.366 . S
C723 C725 1.388 . S
C724 C723 1.366 . S
C724 C728 1.385 . S
C725 H700 0.951 . S
C725 C723 1.388 . S
C725 C726 1.366 . S
C726 C725 1.366 . S
C726 C727 1.414 . S
C726 C729 1.499 . S
C727 H701 0.950 . S
C727 C726 1.414 . S
C727 C728 1.374 . S
C728 H702 0.950 . S
C728 C724 1.385 . S
C728 C727 1.374 . S
C729 C726 1.499 . S
C729 C730 1.373 . S
C729 C731 1.389 . S
C730 H703 0.950 . S
C730 C716 1.377 . S
C730 C729 1.373 . S
C731 C715 1.377 . S
C731 C729 1.389 . S
C731 C732 1.524 . S
C732 C731 1.524 . S
C732 C733 1.397 . S
C732 C737 1.363 . S
C733 H704 0.950 . S
C733 C732 1.397 . S
C733 C734 1.334 . S
C734 H705 0.950 . S
C734 C733 1.334 . S
C734 C735 1.287 . S
C735 C734 1.287 . S
C735 C736 1.524 . S
C735 H738 0.999 . S
C736 H706 0.950 . S
C736 C735 1.524 . S
C736 C737 1.415 . S
C737 H707 0.950 . S
C737 C732 1.363 . S
C737 C736 1.415 . S
H738 C735 0.999 . S
H739 C720 0.913 . S
H740 C758 0.951 . S
H741 C760 0.951 . S
H742 C762 0.950 . S
H743 C763 0.950 . S
H744 C765 0.950 . S
H745 C768 0.950 . S
H746 C769 0.950 . S
H747 C771 0.950 . S
H748 C772 0.950 . S
H749 C773 0.951 . S
H750 C775 0.951 . S
H751 C777 0.950 . S
H752 C778 0.950 . S
H753 C780 0.950 . S
H754 C783 0.950 . S
H755 C784 0.950 . S
H756 C786 0.950 . S
H757 C787 0.950 . S
C758 H740 0.951 . S
C758 C759 1.366 . S
C758 C760 1.388 . S
C759 C758 1.366 . S
C759 C763 1.385 . S
C760 H741 0.951 . S
C760 C758 1.388 . S
C760 C761 1.366 . S
C761 C760 1.366 . S
C761 C762 1.414 . S
C761 C764 1.499 . S
C762 H742 0.950 . S
C762 C761 1.414 . S
C762 C763 1.374 . S
C763 H743 0.950 . S
C763 C759 1.385 . S
C763 C762 1.374 . S
C764 C761 1.499 . S
C764 C765 1.373 . S
C764 C766 1.389 . S
C765 H744 0.950 . S
C765 C764 1.373 . S
C765 C781 1.377 . S
C766 C764 1.389 . S
C766 C767 1.524 . S
C766 C780 1.377 . S
C767 C766 1.524 . S
C767 C768 1.397 . S
C767 C772 1.363 . S
C768 H745 0.950 . S
C768 C767 1.397 . S
C768 C769 1.334 . S
C769 H746 0.950 . S
C769 C768 1.334 . S
C769 C770 1.287 . S
C770 C769 1.287 . S
C770 C771 1.524 . S
C770 H789 0.913 . S
C771 H747 0.950 . S
C771 C770 1.524 . S
C771 C772 1.415 . S
C772 H748 0.950 . S
C772 C767 1.363 . S
C772 C771 1.415 . S
C773 H749 0.951 . S
C773 C774 1.366 . S
C773 C775 1.388 . S
C774 C773 1.366 . S
C774 C778 1.385 . S
C775 H750 0.951 . S
C775 C773 1.388 . S
C775 C776 1.366 . S
C776 C775 1.366 . S
C776 C777 1.414 . S
C776 C779 1.499 . S
C777 H751 0.950 . S
C777 C776 1.414 . S
C777 C778 1.374 . S
C778 H752 0.950 . S
C778 C774 1.385 . S
C778 C777 1.374 . S
C779 C776 1.499 . S
C779 C780 1.373 . S
C779 C781 1.389 . S
C780 H753 0.950 . S
C780 C766 1.377 . S
C780 C779 1.373 . S
C781 C765 1.377 . S
C781 C779 1.389 . S
C781 C782 1.524 . S
C782 C781 1.524 . S
C782 C783 1.397 . S
C782 C787 1.363 . S
C783 H754 0.950 . S
C783 C782 1.397 . S
C783 C784 1.334 . S
C784 H755 0.950 . S
C784 C783 1.334 . S
C784 C785 1.287 . S
C785 C784 1.287 . S
C785 C786 1.524 . S
C785 H788 0.999 . S
C786 H756 0.950 . S
C786 C785 1.524 . S
C786 C787 1.415 . S
C787 H757 0.950 . S
C787 C782 1.363 . S
C787 C786 1.415 . S
H788 C785 0.999 . S
H789 C770 0.913 . S
H790 C808 0.951 . S
H791 C810 0.951 . S
H792 C812 0.950 . S
H793 C813 0.950 . S
H794 C815 0.950 . S
H795 C818 0.950 . S
H796 C819 0.950 . S
H797 C821 0.950 . S
H798 C822 0.950 . S
H799 C823 0.951 . S
H800 C825 0.951 . S
H801 C827 0.950 . S
H802 C828 0.950 . S
H803 C830 0.950 . S
H804 C833 0.950 . S
H805 C834 0.950 . S
H806 C836 0.950 . S
H807 C837 0.950 . S
C808 H790 0.951 . S
C808 C809 1.366 . S
C808 C810 1.388 . S
C809 C808 1.366 . S
C809 C813 1.385 . S
C810 H791 0.951 . S
C810 C808 1.388 . S
C810 C811 1.366 . S
C811 C810 1.366 . S
C811 C812 1.414 . S
C811 C814 1.499 . S
C812 H792 0.950 . S
C812 C811 1.414 . S
C812 C813 1.374 . S
C813 H793 0.950 . S
C813 C809 1.385 . S
C813 C812 1.374 . S
C814 C811 1.499 . S
C814 C815 1.373 . S
C814 C816 1.389 . S
C815 H794 0.950 . S
C815 C814 1.373 . S
C815 C831 1.377 . S
C816 C814 1.389 . S
C816 C817 1.524 . S
C816 C830 1.377 . S
C817 C816 1.524 . S
C817 C818 1.397 . S
C817 C822 1.363 . S
C818 H795 0.950 . S
C818 C817 1.397 . S
C818 C819 1.334 . S
C819 H796 0.950 . S
C819 C818 1.334 . S
C819 C820 1.287 . S
C820 C819 1.287 . S
C820 C821 1.524 . S
C820 H839 0.913 . S
C821 H797 0.950 . S
C821 C820 1.524 . S
C821 C822 1.415 . S
C822 H798 0.950 . S
C822 C817 1.363 . S
C822 C821 1.415 . S
C823 H799 0.951 . S
C823 C824 1.366 . S
C823 C825 1.388 . S
C824 C823 1.366 . S
C824 C828 1.385 . S
C825 H800 0.951 . S
C825 C823 1.388 . S
C825 C826 1.366 . S
C826 C825 1.366 . S
C826 C827 1.414 . S
C826 C829 1.499 . S
C827 H801 0.950 . S
C827 C826 1.414 . S
C827 C828 1.374 . S
C828 H802 0.950 . S
C828 C824 1.385 . S
C828 C827 1.374 . S
C829 C826 1.499 . S
C829 C830 1.373 . S
C829 C831 1.389 . S
C830 H803 0.950 . S
C830 C816 1.377 . S
C830 C829 1.373 . S
C831 C815 1.377 . S
C831 C829 1.389 . S
C831 C832 1.524 . S
C832 C831 1.524 . S
C832 C833 1.397 . S
C832 C837 1.363 . S
C833 H804 0.950 . S
C833 C832 1.397 . S
C833 C834 1.334 . S
C834 H805 0.950 . S
C834 C833 1.334 . S
C834 C835 1.287 . S
C835 C834 1.287 . S
C835 C836 1.524 . S
C835 H838 0.999 . S
C836 H806 0.950 . S
C836 C835 1.524 . S
C836 C837 1.415 . S
C837 H807 0.950 . S
C837 C832 1.363 . S
C837 C836 1.415 . S
H838 C835 0.999 . S
H839 C820 0.913 . S
H840 C858 0.951 . S
H841 C860 0.951 . S
H842 C862 0.950 . S
H843 C863 0.950 . S
H844 C865 0.950 . S
H845 C868 0.950 . S
H846 C869 0.950 . S
H847 C871 0.950 . S
H848 C872 0.950 . S
H849 C873 0.951 . S
H850 C875 0.951 . S
H851 C877 0.950 . S
H852 C878 0.950 . S
H853 C880 0.950 . S
H854 C883 0.950 . S
H855 C884 0.950 . S
H856 C886 0.950 . S
H857 C887 0.950 . S
C858 H840 0.951 . S
C858 C859 1.366 . S
C858 C860 1.388 . S
C859 C858 1.366 . S
C859 C863 1.385 . S
C860 H841 0.951 . S
C860 C858 1.388 . S
C860 C861 1.366 . S
C861 C860 1.366 . S
C861 C862 1.414 . S
C861 C864 1.499 . S
C862 H842 0.950 . S
C862 C861 1.414 . S
C862 C863 1.374 . S
C863 H843 0.950 . S
C863 C859 1.385 . S
C863 C862 1.374 . S
C864 C861 1.499 . S
C864 C865 1.373 . S
C864 C866 1.389 . S
C865 H844 0.950 . S
C865 C864 1.373 . S
C865 C881 1.377 . S
C866 C864 1.389 . S
C866 C867 1.524 . S
C866 C880 1.377 . S
C867 C866 1.524 . S
C867 C868 1.397 . S
C867 C872 1.363 . S
C868 H845 0.950 . S
C868 C867 1.397 . S
C868 C869 1.334 . S
C869 H846 0.950 . S
C869 C868 1.334 . S
C869 C870 1.287 . S
C870 C869 1.287 . S
C870 C871 1.524 . S
C870 H889 0.913 . S
C871 H847 0.950 . S
C871 C870 1.524 . S
C871 C872 1.415 . S
C872 H848 0.950 . S
C872 C867 1.363 . S
C872 C871 1.415 . S
C873 H849 0.951 . S
C873 C874 1.366 . S
C873 C875 1.388 . S
C874 C873 1.366 . S
C874 C878 1.385 . S
C875 H850 0.951 . S
C875 C873 1.388 . S
C875 C876 1.366 . S
C876 C875 1.366 . S
C876 C877 1.414 . S
C876 C879 1.499 . S
C877 H851 0.950 . S
C877 C876 1.414 . S
C877 C878 1.374 . S
C878 H852 0.950 . S
C878 C874 1.385 . S
C878 C877 1.374 . S
C879 C876 1.499 . S
C879 C880 1.373 . S
C879 C881 1.389 . S
C880 H853 0.950 . S
C880 C866 1.377 . S
C880 C879 1.373 . S
C881 C865 1.377 . S
C881 C879 1.389 . S
C881 C882 1.524 . S
C882 C881 1.524 . S
C882 C883 1.397 . S
C882 C887 1.363 . S
C883 H854 0.950 . S
C883 C882 1.397 . S
C883 C884 1.334 . S
C884 H855 0.950 . S
C884 C883 1.334 . S
C884 C885 1.287 . S
C885 C884 1.287 . S
C885 C886 1.524 . S
C885 H888 0.999 . S
C886 H856 0.950 . S
C886 C885 1.524 . S
C886 C887 1.415 . S
C887 H857 0.950 . S
C887 C882 1.363 . S
C887 C886 1.415 . S
H888 C885 0.999 . S
H889 C870 0.913 . S
H890 C908 0.951 . S
H891 C910 0.951 . S
H892 C912 0.950 . S
H893 C913 0.950 . S
H894 C915 0.950 . S
H895 C918 0.950 . S
H896 C919 0.950 . S
H897 C921 0.950 . S
H898 C922 0.950 . S
H899 C923 0.951 . S
H900 C925 0.951 . S
H901 C927 0.950 . S
H902 C928 0.950 . S
H903 C930 0.950 . S
H904 C933 0.950 . S
H905 C934 0.950 . S
H906 C936 0.950 . S
H907 C937 0.950 1_655 S
C908 H890 0.951 . S
C908 C909 1.366 . S
C908 C910 1.388 . S
C909 C908 1.366 . S
C909 C913 1.385 . S
C910 H891 0.951 . S
C910 C908 1.388 . S
C910 C911 1.366 . S
C911 C910 1.366 . S
C911 C912 1.414 . S
C911 C914 1.499 . S
C912 H892 0.950 . S
C912 C911 1.414 . S
C912 C913 1.374 . S
C913 H893 0.950 . S
C913 C909 1.385 . S
C913 C912 1.374 . S
C914 C911 1.499 . S
C914 C915 1.373 . S
C914 C916 1.389 . S
C915 H894 0.950 . S
C915 C914 1.373 . S
C915 C931 1.377 1_655 S
C916 C914 1.389 . S
C916 C917 1.524 . S
C916 C930 1.377 1_655 S
C917 C916 1.524 . S
C917 C918 1.397 . S
C917 C922 1.363 . S
C918 H895 0.950 . S
C918 C917 1.397 . S
C918 C919 1.334 . S
C919 H896 0.950 . S
C919 C918 1.334 . S
C919 C920 1.287 . S
C920 C919 1.287 . S
C920 C921 1.524 . S
C920 H939 0.913 . S
C921 H897 0.950 . S
C921 C920 1.524 . S
C921 C922 1.415 . S
C922 H898 0.950 . S
C922 C917 1.363 . S
C922 C921 1.415 . S
C923 H899 0.951 . S
C923 C924 1.366 . S
C923 C925 1.388 . S
C924 C923 1.366 . S
C924 C928 1.385 . S
C925 H900 0.951 . S
C925 C923 1.388 . S
C925 C926 1.366 . S
C926 C925 1.366 . S
C926 C927 1.414 . S
C926 C929 1.499 . S
C927 H901 0.950 . S
C927 C926 1.414 . S
C927 C928 1.374 . S
C928 H902 0.950 . S
C928 C924 1.385 . S
C928 C927 1.374 . S
C929 C926 1.499 . S
C929 C930 1.373 . S
C929 C931 1.389 . S
C930 H903 0.950 . S
C930 C916 1.377 1_455 S
C930 C929 1.373 . S
C931 C915 1.377 1_455 S
C931 C929 1.389 . S
C931 C932 1.524 . S
C932 C931 1.524 . S
C932 C933 1.397 . S
C932 C937 1.363 . S
C933 H904 0.950 . S
C933 C932 1.397 . S
C933 C934 1.334 . S
C934 H905 0.950 . S
C934 C933 1.334 . S
C934 C935 1.287 . S
C935 C934 1.287 . S
C935 C936 1.524 . S
C935 H938 0.999 . S
C936 H906 0.950 . S
C936 C935 1.524 . S
C936 C937 1.415 . S
C937 H907 0.950 1_455 S
C937 C932 1.363 . S
C937 C936 1.415 . S
H938 C935 0.999 . S
H939 C920 0.913 . S
H940 C958 0.951 . S
H941 C960 0.951 . S
H942 C962 0.950 . S
H943 C963 0.950 . S
H944 C965 0.950 . S
H945 C968 0.950 . S
H946 C969 0.950 . S
H947 C971 0.950 . S
H948 C972 0.950 . S
H949 C973 0.951 . S
H950 C975 0.951 . S
H951 C977 0.950 . S
H952 C978 0.950 . S
H953 C980 0.950 . S
H954 C983 0.950 . S
H955 C984 0.950 . S
H956 C986 0.950 . S
H957 C987 0.950 . S
C958 H940 0.951 . S
C958 C959 1.366 . S
C958 C960 1.388 . S
C959 C958 1.366 . S
C959 C963 1.385 . S
C960 H941 0.951 . S
C960 C958 1.388 . S
C960 C961 1.366 . S
C961 C960 1.366 . S
C961 C962 1.414 . S
C961 C964 1.499 . S
C962 H942 0.950 . S
C962 C961 1.414 . S
C962 C963 1.374 . S
C963 H943 0.950 . S
C963 C959 1.385 . S
C963 C962 1.374 . S
C964 C961 1.499 . S
C964 C965 1.373 . S
C964 C966 1.389 . S
C965 H944 0.950 . S
C965 C964 1.373 . S
C965 C981 1.377 1_545 S
C966 C964 1.389 . S
C966 C967 1.524 . S
C966 C980 1.377 1_545 S
C967 C966 1.524 . S
C967 C968 1.397 . S
C967 C972 1.363 . S
C968 H945 0.950 . S
C968 C967 1.397 . S
C968 C969 1.334 . S
C969 H946 0.950 . S
C969 C968 1.334 . S
C969 C970 1.287 . S
C970 C969 1.287 . S
C970 C971 1.524 . S
C970 H989 0.913 . S
C971 H947 0.950 . S
C971 C970 1.524 . S
C971 C972 1.415 . S
C972 H948 0.950 . S
C972 C967 1.363 . S
C972 C971 1.415 . S
C973 H949 0.951 . S
C973 C974 1.366 . S
C973 C975 1.388 . S
C974 C973 1.366 . S
C974 C978 1.385 . S
C975 H950 0.951 . S
C975 C973 1.388 . S
C975 C976 1.366 . S
C976 C975 1.366 . S
C976 C977 1.414 . S
C976 C979 1.499 . S
C977 H951 0.950 . S
C977 C976 1.414 . S
C977 C978 1.374 . S
C978 H952 0.950 . S
C978 C974 1.385 . S
C978 C977 1.374 . S
C979 C976 1.499 . S
C979 C980 1.373 . S
C979 C981 1.389 . S
C980 H953 0.950 . S
C980 C966 1.377 1_565 S
C980 C979 1.373 . S
C981 C965 1.377 1_565 S
C981 C979 1.389 . S
C981 C982 1.524 . S
C982 C981 1.524 . S
C982 C983 1.397 . S
C982 C987 1.363 . S
C983 H954 0.950 . S
C983 C982 1.397 . S
C983 C984 1.334 . S
C984 H955 0.950 . S
C984 C983 1.334 . S
C984 C985 1.287 . S
C985 C984 1.287 . S
C985 C986 1.524 . S
C985 H988 0.999 . S
C986 H956 0.950 . S
C986 C985 1.524 . S
C986 C987 1.415 . S
C987 H957 0.950 . S
C987 C982 1.363 . S
C987 C986 1.415 . S
H988 C985 0.999 . S
H989 C970 0.913 . S
H990 C1008 0.951 . S
H991 C1010 0.951 . S
H992 C1012 0.950 . S
H993 C1013 0.950 . S
H994 C1015 0.950 . S
H995 C1018 0.950 . S
H996 C1019 0.950 . S
H997 C1021 0.950 . S
H998 C1022 0.950 . S
H999 C1023 0.951 . S
H1000 C1025 0.951 . S
H1001 C1027 0.950 . S
H1002 C1028 0.950 . S
H1003 C1030 0.950 . S
H1004 C1033 0.950 . S
H1005 C1034 0.950 . S
H1006 C1036 0.950 . S
H1007 C1037 0.950 . S
C1008 H990 0.951 . S
C1008 C1009 1.366 . S
C1008 C1010 1.388 . S
C1009 C1008 1.366 . S
C1009 C1013 1.385 . S
C1010 H991 0.951 . S
C1010 C1008 1.388 . S
C1010 C1011 1.366 . S
C1011 C1010 1.366 . S
C1011 C1012 1.414 . S
C1011 C1014 1.499 . S
C1012 H992 0.950 . S
C1012 C1011 1.414 . S
C1012 C1013 1.374 . S
C1013 H993 0.950 . S
C1013 C1009 1.385 . S
C1013 C1012 1.374 . S
C1014 C1011 1.499 . S
C1014 C1015 1.373 . S
C1014 C1016 1.389 . S
C1015 H994 0.950 . S
C1015 C1014 1.373 . S
C1015 C1031 1.377 . S
C1016 C1014 1.389 . S
C1016 C1017 1.524 . S
C1016 C1030 1.377 . S
C1017 C1016 1.524 . S
C1017 C1018 1.397 . S
C1017 C1022 1.363 . S
C1018 H995 0.950 . S
C1018 C1017 1.397 . S
C1018 C1019 1.334 . S
C1019 H996 0.950 . S
C1019 C1018 1.334 . S
C1019 C1020 1.287 . S
C1020 C1019 1.287 . S
C1020 C1021 1.524 . S
C1020 H1039 0.913 . S
C1021 H997 0.950 . S
C1021 C1020 1.524 . S
C1021 C1022 1.415 . S
C1022 H998 0.950 . S
C1022 C1017 1.363 . S
C1022 C1021 1.415 . S
C1023 H999 0.951 . S
C1023 C1024 1.366 . S
C1023 C1025 1.388 . S
C1024 C1023 1.366 . S
C1024 C1028 1.385 . S
C1025 H1000 0.951 . S
C1025 C1023 1.388 . S
C1025 C1026 1.366 . S
C1026 C1025 1.366 . S
C1026 C1027 1.414 . S
C1026 C1029 1.499 . S
C1027 H1001 0.950 . S
C1027 C1026 1.414 . S
C1027 C1028 1.374 . S
C1028 H1002 0.950 . S
C1028 C1024 1.385 . S
C1028 C1027 1.374 . S
C1029 C1026 1.499 . S
C1029 C1030 1.373 . S
C1029 C1031 1.389 . S
C1030 H1003 0.950 . S
C1030 C1016 1.377 . S
C1030 C1029 1.373 . S
C1031 C1015 1.377 . S
C1031 C1029 1.389 . S
C1031 C1032 1.524 . S
C1032 C1031 1.524 . S
C1032 C1033 1.397 . S
C1032 C1037 1.363 . S
C1033 H1004 0.950 . S
C1033 C1032 1.397 . S
C1033 C1034 1.334 . S
C1034 H1005 0.950 . S
C1034 C1033 1.334 . S
C1034 C1035 1.287 . S
C1035 C1034 1.287 . S
C1035 C1036 1.524 . S
C1035 H1038 0.999 . S
C1036 H1006 0.950 . S
C1036 C1035 1.524 . S
C1036 C1037 1.415 . S
C1037 H1007 0.950 . S
C1037 C1032 1.363 . S
C1037 C1036 1.415 . S
H1038 C1035 0.999 . S
H1039 C1020 0.913 . S
H1040 C1058 0.951 . S
H1041 C1060 0.951 . S
H1042 C1062 0.950 . S
H1043 C1063 0.950 . S
H1044 C1065 0.950 . S
H1045 C1068 0.950 . S
H1046 C1069 0.950 . S
H1047 C1071 0.950 . S
H1048 C1072 0.950 . S
H1049 C1073 0.951 . S
H1050 C1075 0.951 . S
H1051 C1077 0.950 . S
H1052 C1078 0.950 . S
H1053 C1080 0.946 . S
H1054 C1083 0.950 . S
H1055 C1084 0.950 . S
H1056 C1086 0.950 . S
H1057 C1087 0.950 . S
C1058 H1040 0.951 . S
C1058 C1059 1.366 . S
C1058 C1060 1.388 . S
C1059 C1058 1.366 . S
C1059 C1063 1.385 . S
C1060 H1041 0.951 . S
C1060 C1058 1.388 . S
C1060 C1061 1.366 . S
C1061 C1060 1.366 . S
C1061 C1062 1.414 . S
C1061 C1064 1.499 . S
C1062 H1042 0.950 . S
C1062 C1061 1.414 . S
C1062 C1063 1.374 . S
C1063 H1043 0.950 . S
C1063 C1059 1.385 . S
C1063 C1062 1.374 . S
C1064 C1061 1.499 . S
C1064 C1065 1.373 . S
C1064 C1066 1.389 . S
C1065 H1044 0.950 . S
C1065 C1064 1.373 . S
C1065 C1081 1.377 1_455 S
C1066 C1064 1.389 . S
C1066 C1067 1.524 . S
C1066 C1080 1.381 1_455 S
C1067 C1066 1.524 . S
C1067 C1068 1.397 . S
C1067 C1072 1.363 . S
C1068 H1045 0.950 . S
C1068 C1067 1.397 . S
C1068 C1069 1.334 . S
C1069 H1046 0.950 . S
C1069 C1068 1.334 . S
C1069 C1070 1.287 . S
C1070 C1069 1.287 . S
C1070 C1071 1.524 . S
C1070 H1089 0.913 . S
C1071 H1047 0.950 . S
C1071 C1070 1.524 . S
C1071 C1072 1.415 . S
C1072 H1048 0.950 . S
C1072 C1067 1.363 . S
C1072 C1071 1.415 . S
C1073 H1049 0.951 . S
C1073 C1074 1.366 . S
C1073 C1075 1.388 . S
C1074 C1073 1.366 . S
C1074 C1078 1.385 . S
C1075 H1050 0.951 . S
C1075 C1073 1.388 . S
C1075 C1076 1.366 . S
C1076 C1075 1.366 . S
C1076 C1077 1.414 . S
C1076 C1079 1.499 . S
C1077 H1051 0.950 . S
C1077 C1076 1.414 . S
C1077 C1078 1.374 . S
C1078 H1052 0.950 . S
C1078 C1074 1.385 . S
C1078 C1077 1.374 . S
C1079 C1076 1.499 . S
C1079 C1080 1.373 . S
C1079 C1081 1.389 . S
C1080 H1053 0.946 . S
C1080 C1066 1.381 1_655 S
C1080 C1079 1.373 . S
C1081 C1065 1.377 1_655 S
C1081 C1079 1.389 . S
C1081 C1082 1.524 . S
C1082 C1081 1.524 . S
C1082 C1083 1.397 . S
C1082 C1087 1.363 . S
C1083 H1054 0.950 . S
C1083 C1082 1.397 . S
C1083 C1084 1.334 . S
C1084 H1055 0.950 . S
C1084 C1083 1.334 . S
C1084 C1085 1.287 . S
C1085 C1084 1.287 . S
C1085 C1086 1.524 . S
C1085 H1088 0.999 . S
C1086 H1056 0.950 . S
C1086 C1085 1.524 . S
C1086 C1087 1.415 . S
C1087 H1057 0.950 . S
C1087 C1082 1.363 . S
C1087 C1086 1.415 . S
H1088 C1085 0.999 . S
H1089 C1070 0.913 . S
H1090 C1108 0.951 . S
H1091 C1110 0.951 . S
H1092 C1112 0.950 . S
H1093 C1113 0.950 . S
H1094 C1115 0.949 . S
H1095 C1118 0.950 . S
H1096 C1119 0.950 . S
H1097 C1121 0.950 . S
H1098 C1122 0.950 . S
H1099 C1123 0.951 . S
H1100 C1125 0.951 . S
H1101 C1127 0.950 . S
H1102 C1128 0.950 . S
H1103 C1130 0.950 . S
H1104 C1133 0.950 . S
H1105 C1134 0.950 . S
H1106 C1136 0.950 . S
H1107 C1137 0.950 . S
C1108 H1090 0.951 . S
C1108 C1109 1.366 . S
C1108 C1110 1.388 . S
C1109 C1108 1.366 . S
C1109 C1113 1.385 . S
C1110 H1091 0.951 . S
C1110 C1108 1.388 . S
C1110 C1111 1.366 . S
C1111 C1110 1.366 . S
C1111 C1112 1.414 . S
C1111 C1114 1.499 . S
C1112 H1092 0.950 . S
C1112 C1111 1.414 . S
C1112 C1113 1.374 . S
C1113 H1093 0.950 . S
C1113 C1109 1.385 . S
C1113 C1112 1.374 . S
C1114 C1111 1.499 . S
C1114 C1115 1.397 . S
C1114 C1116 1.389 . S
C1115 H1094 0.949 . S
C1115 C1114 1.397 . S
C1115 C1131 1.354 1_545 S
C1116 C1114 1.389 . S
C1116 C1117 1.524 . S
C1116 C1130 1.377 1_545 S
C1117 C1116 1.524 . S
C1117 C1118 1.397 . S
C1117 C1122 1.363 . S
C1118 H1095 0.950 . S
C1118 C1117 1.397 . S
C1118 C1119 1.334 . S
C1119 H1096 0.950 . S
C1119 C1118 1.334 . S
C1119 C1120 1.287 . S
C1120 C1119 1.287 . S
C1120 C1121 1.524 . S
C1120 H1139 0.913 . S
C1121 H1097 0.950 . S
C1121 C1120 1.524 . S
C1121 C1122 1.415 . S
C1122 H1098 0.950 . S
C1122 C1117 1.363 . S
C1122 C1121 1.415 . S
C1123 H1099 0.951 . S
C1123 C1124 1.366 . S
C1123 C1125 1.388 . S
C1124 C1123 1.366 . S
C1124 C1128 1.385 . S
C1125 H1100 0.951 . S
C1125 C1123 1.388 . S
C1125 C1126 1.366 . S
C1126 C1125 1.366 . S
C1126 C1127 1.414 . S
C1126 C1129 1.499 . S
C1127 H1101 0.950 . S
C1127 C1126 1.414 . S
C1127 C1128 1.374 . S
C1128 H1102 0.950 . S
C1128 C1124 1.385 . S
C1128 C1127 1.374 . S
C1129 C1126 1.499 . S
C1129 C1130 1.373 . S
C1129 C1131 1.389 . S
C1130 H1103 0.950 . S
C1130 C1116 1.377 1_565 S
C1130 C1129 1.373 . S
C1131 C1115 1.354 1_565 S
C1131 C1129 1.389 . S
C1131 C1132 1.524 . S
C1132 C1131 1.524 . S
C1132 C1133 1.397 . S
C1132 C1137 1.363 . S
C1133 H1104 0.950 . S
C1133 C1132 1.397 . S
C1133 C1134 1.334 . S
C1134 H1105 0.950 . S
C1134 C1133 1.334 . S
C1134 C1135 1.287 . S
C1135 C1134 1.287 . S
C1135 C1136 1.524 . S
C1135 H1138 0.999 . S
C1136 H1106 0.950 . S
C1136 C1135 1.524 . S
C1136 C1137 1.415 . S
C1137 H1107 0.950 . S
C1137 C1132 1.363 . S
C1137 C1136 1.415 . S
H1138 C1135 0.999 . S
H1139 C1120 0.913 . S
C259 C178 2.579 . S
C274 C18 2.241 . S
C309 C209 2.240 . S
C324 C49 2.579 . S
C359 C98 2.240 . S
C374 C138 2.579 . S
C409 C9 2.579 . S
C424 C169 2.240 . S
C459 C218 2.579 . S
C474 C58 2.240 . S
C509 C89 2.579 . S
C524 C129 2.240 . S
C559 C10 2.032 . S
C574 C86 1.981 . S
C609 C50 2.033 . S
C624 C6 1.981 . S
C659 C90 2.032 . S
C674 C46 1.981 . S
C709 C139 2.033 . S
C724 C175 1.981 . S
C759 C179 2.033 . S
C774 C215 1.981 . S
C809 C135 1.981 . S
C824 C219 2.032 . S
C859 C19 0.914 . S
C874 C95 0.934 . S
C909 C59 0.914 . S
C924 C15 0.935 . S
C959 C99 0.915 . S
C974 C55 0.935 . S
C1009 C130 0.914 . S
C1024 C166 0.935 . S
C1059 C170 0.913 . S
C1074 C206 0.934 . S
C1109 C126 0.934 . S
C1124 C210 0.914 . S
