# Generated by pormake.
# Topology vmg, (6)-cn, num edge types: 1
# Building blocks:
#     Node 0, Type 0, BuildingBlock: VOLQOD_clean_sbu_1, # of connection points: 6
#     Node 1, Type 0, BuildingBlock: VOLQOD_clean_sbu_1, # of connection points: 6
#     Node 2, Type 0, BuildingBlock: VOLQOD_clean_sbu_1, # of connection points: 6
#     Node 3, Type 0, BuildingBlock: VOLQOD_clean_sbu_1, # of connection points: 6
#     Node 4, Type 0, BuildingBlock: VOLQOD_clean_sbu_1, # of connection points: 6
#     Node 5, Type 0, BuildingBlock: VOLQOD_clean_sbu_1, # of connection points: 6
#     Node 6, Type 0, BuildingBlock: VOLQOD_clean_sbu_1, # of connection points: 6
#     Node 7, Type 0, BuildingBlock: VOLQOD_clean_sbu_1, # of connection points: 6
#     Edge 8, Type (0, 0), BuildingBlock: EZIPEK_clean_linker_0, # of connection points: 2
#     Edge 9, Type (0, 0), BuildingBlock: EZIPEK_clean_linker_0, # of connection points: 2
#     Edge 10, Type (0, 0), BuildingBlock: EZIPEK_clean_linker_0, # of connection points: 2
#     Edge 11, Type (0, 0), BuildingBlock: EZIPEK_clean_linker_0, # of connection points: 2
#     Edge 12, Type (0, 0), BuildingBlock: EZIPEK_clean_linker_0, # of connection points: 2
#     Edge 13, Type (0, 0), BuildingBlock: EZIPEK_clean_linker_0, # of connection points: 2
#     Edge 14, Type (0, 0), BuildingBlock: EZIPEK_clean_linker_0, # of connection points: 2
#     Edge 15, Type (0, 0), BuildingBlock: EZIPEK_clean_linker_0, # of connection points: 2
#     Edge 16, Type (0, 0), BuildingBlock: EZIPEK_clean_linker_0, # of connection points: 2
#     Edge 17, Type (0, 0), BuildingBlock: EZIPEK_clean_linker_0, # of connection points: 2
#     Edge 18, Type (0, 0), BuildingBlock: EZIPEK_clean_linker_0, # of connection points: 2
#     Edge 19, Type (0, 0), BuildingBlock: EZIPEK_clean_linker_0, # of connection points: 2
#     Edge 20, Type (0, 0), BuildingBlock: EZIPEK_clean_linker_0, # of connection points: 2
#     Edge 21, Type (0, 0), BuildingBlock: EZIPEK_clean_linker_0, # of connection points: 2
#     Edge 22, Type (0, 0), BuildingBlock: EZIPEK_clean_linker_0, # of connection points: 2
#     Edge 23, Type (0, 0), BuildingBlock: EZIPEK_clean_linker_0, # of connection points: 2
#     Edge 24, Type (0, 0), BuildingBlock: EZIPEK_clean_linker_0, # of connection points: 2
#     Edge 25, Type (0, 0), BuildingBlock: EZIPEK_clean_linker_0, # of connection points: 2
#     Edge 26, Type (0, 0), BuildingBlock: EZIPEK_clean_linker_0, # of connection points: 2
#     Edge 27, Type (0, 0), BuildingBlock: EZIPEK_clean_linker_0, # of connection points: 2
#     Edge 28, Type (0, 0), BuildingBlock: EZIPEK_clean_linker_0, # of connection points: 2
#     Edge 29, Type (0, 0), BuildingBlock: EZIPEK_clean_linker_0, # of connection points: 2
#     Edge 30, Type (0, 0), BuildingBlock: EZIPEK_clean_linker_0, # of connection points: 2
#     Edge 31, Type (0, 0), BuildingBlock: EZIPEK_clean_linker_0, # of connection points: 2
# Relax obj value: 0.363
# Max RMSD: 0.272
# Mean RMSD: 0.272
data_MOF--net-vmg--node1-VOLQOD_clean_sbu_1--edge1-EZIPEK_clean_linker_0
_symmetry_space_group_name_H-M    P1
_symmetry_Int_Tables_number       1
_symmetry_cell_setting            triclinic
loop_
_symmetry_equiv_pos_as_xyz
'x, y, z'
_cell_length_a     21.94282
_cell_length_b     36.458755
_cell_length_c     21.153556
_cell_angle_alpha  90.104028
_cell_angle_beta   96.575088
_cell_angle_gamma 89.460052
loop_
_atom_site_label
_atom_site_type_symbol
_atom_site_fract_x
_atom_site_fract_y
_atom_site_fract_z
_atom_type_partial_charge
O0 O 0.14152 0.46433 0.09907 0.0
Zn1 Zn 0.22745 0.4479 0.13114 0.0
O2 O 0.22851 0.39515 0.12787 0.0
Zn3 Zn 0.25281 0.37255 0.20825 0.0
Zn4 Zn 0.15302 0.37546 0.09005 0.0
Zn5 Zn 0.2852 0.38241 0.07123 0.0
O6 O 0.33858 0.34988 0.20772 0.0
O7 O 0.36598 0.37818 0.12175 0.0
O8 O 0.25439 0.46635 0.22183 0.0
O9 O 0.26826 0.41291 0.27257 0.0
O10 O 0.1808 0.34174 0.23531 0.0
O11 O 0.10746 0.35772 0.15842 0.0
O12 O 0.16692 0.32976 0.03967 0.0
O13 O 0.27752 0.46941 0.06473 0.0
O14 O 0.26753 0.333 0.03655 0.0
O15 O 0.28089 0.42044 0.00283 0.0
C16 C 0.10065 0.44947 0.05954 0.0
C17 C 0.37968 0.36089 0.17383 0.0
C18 C 0.12427 0.34248 0.21155 0.0
C19 C 0.26882 0.44788 0.27281 0.0
C20 C 0.21742 0.31582 0.02666 0.0
C21 C 0.28169 0.45511 0.01025 0.0
O22 O 0.10225 0.41549 0.04503 0.0
O23 O 0.86969 0.45593 0.40803 0.0
Zn24 Zn 0.78123 0.44805 0.37687 0.0
O25 O 0.7695 0.39638 0.37093 0.0
Zn26 Zn 0.76287 0.37917 0.28492 0.0
Zn27 Zn 0.83498 0.37284 0.42258 0.0
Zn28 Zn 0.69718 0.38502 0.40641 0.0
O29 O 0.6799 0.35372 0.26376 0.0
O30 O 0.63013 0.3829 0.33608 0.0
O31 O 0.75831 0.47296 0.29074 0.0
O32 O 0.75443 0.42329 0.2288 0.0
O33 O 0.84411 0.3537 0.26731 0.0
O34 O 0.89346 0.35464 0.36529 0.0
O35 O 0.80567 0.32838 0.46597 0.0
O36 O 0.73843 0.46787 0.44956 0.0
O37 O 0.70488 0.33465 0.44043 0.0
O38 O 0.68543 0.42004 0.47787 0.0
C39 C 0.8996 0.44057 0.4563 0.0
C40 C 0.63012 0.36421 0.28505 0.0
C41 C 0.89268 0.34836 0.30609 0.0
C42 C 0.75103 0.45791 0.2358 0.0
C43 C 0.75127 0.31619 0.46387 0.0
C44 C 0.70552 0.45248 0.48758 0.0
O45 O 0.88278 0.41012 0.47815 0.0
O46 O 0.86279 0.52195 0.90135 0.0
Zn47 Zn 0.77531 0.53529 0.86991 0.0
O48 O 0.77084 0.5878 0.86506 0.0
Zn49 Zn 0.74644 0.60537 0.78043 0.0
Zn50 Zn 0.84589 0.60984 0.89866 0.0
Zn51 Zn 0.71401 0.6023 0.92066 0.0
O52 O 0.66008 0.62721 0.77706 0.0
O53 O 0.63294 0.60649 0.86936 0.0
O54 O 0.74927 0.51241 0.78325 0.0
O55 O 0.73431 0.56213 0.72215 0.0
O56 O 0.81716 0.63392 0.74679 0.0
O57 O 0.89028 0.62225 0.8265 0.0
O58 O 0.83092 0.6579 0.94161 0.0
O59 O 0.72729 0.51553 0.93944 0.0
O60 O 0.73174 0.6523 0.95151 0.0
O61 O 0.7199 0.56688 0.99415 0.0
C62 C 0.90266 0.53884 0.9391 0.0
C63 C 0.61917 0.62002 0.81385 0.0
C64 C 0.87364 0.63351 0.77044 0.0
C65 C 0.73553 0.52747 0.72893 0.0
C66 C 0.78058 0.67082 0.95693 0.0
C67 C 0.72222 0.53198 0.99187 0.0
O68 O 0.89868 0.57315 0.95017 0.0
O69 O 0.14213 0.51627 0.599 0.0
Zn70 Zn 0.22952 0.52889 0.62501 0.0
O71 O 0.23488 0.58054 0.62003 0.0
Zn72 Zn 0.23794 0.60298 0.70221 0.0
Zn73 Zn 0.16671 0.59748 0.56376 0.0
Zn74 Zn 0.30569 0.59208 0.58187 0.0
O75 O 0.31889 0.63073 0.72055 0.0
O76 O 0.37193 0.60036 0.65226 0.0
O77 O 0.25435 0.51026 0.71468 0.0
O78 O 0.24727 0.56288 0.7671 0.0
O79 O 0.15484 0.62798 0.71294 0.0
O80 O 0.10546 0.61616 0.61726 0.0
O81 O 0.19019 0.64119 0.51374 0.0
O82 O 0.27598 0.5063 0.55757 0.0
O83 O 0.2914 0.64022 0.53994 0.0
O84 O 0.32296 0.5528 0.51813 0.0
C85 C 0.11014 0.52628 0.54778 0.0
C86 C 0.36976 0.62065 0.70118 0.0
C87 C 0.1057 0.62777 0.67388 0.0
C88 C 0.25602 0.52832 0.76657 0.0
C89 C 0.24281 0.65585 0.51444 0.0
C90 C 0.30871 0.51894 0.51661 0.0
O91 O 0.1237 0.55472 0.51712 0.0
O92 O 0.62487 0.96042 0.09375 0.0
Zn93 Zn 0.71303 0.94916 0.12253 0.0
O94 O 0.72346 0.8973 0.11929 0.0
Zn95 Zn 0.73842 0.87606 0.20289 0.0
Zn96 Zn 0.65336 0.87603 0.07252 0.0
Zn97 Zn 0.78955 0.88736 0.07187 0.0
O98 O 0.82392 0.85244 0.21334 0.0
O99 O 0.863 0.88041 0.13303 0.0
O100 O 0.73734 0.96864 0.21209 0.0
O101 O 0.74648 0.91663 0.26754 0.0
O102 O 0.66258 0.84738 0.22353 0.0
O103 O 0.60012 0.85889 0.13507 0.0
O104 O 0.67718 0.83143 0.02394 0.0
O105 O 0.7569 0.9734 0.05507 0.0
O106 O 0.77796 0.83954 0.02993 0.0
O107 O 0.79778 0.92693 0.00754 0.0
C108 C 0.59158 0.94648 0.04659 0.0
C109 C 0.86967 0.86252 0.18512 0.0
C110 C 0.60926 0.84701 0.19173 0.0
C111 C 0.74724 0.95148 0.26496 0.0
C112 C 0.73061 0.82059 0.01396 0.0
C113 C 0.78493 0.96101 0.00986 0.0
O114 O 0.60338 0.91518 0.02342 0.0
O115 O 0.34846 0.95903 0.4045 0.0
Zn116 Zn 0.26224 0.9446 0.3771 0.0
O117 O 0.26062 0.89204 0.37462 0.0
Zn118 Zn 0.24622 0.87279 0.29013 0.0
Zn119 Zn 0.33431 0.87235 0.41809 0.0
Zn120 Zn 0.19723 0.87609 0.42035 0.0
O121 O 0.16418 0.84591 0.27866 0.0
O122 O 0.12281 0.87232 0.35934 0.0
O123 O 0.23531 0.96693 0.28905 0.0
O124 O 0.23023 0.91554 0.23189 0.0
O125 O 0.32502 0.8483 0.26406 0.0
O126 O 0.38714 0.85815 0.35316 0.0
O127 O 0.31881 0.82543 0.46373 0.0
O128 O 0.21872 0.96296 0.45141 0.0
O129 O 0.21674 0.82575 0.45115 0.0
O130 O 0.18962 0.91069 0.49301 0.0
C131 C 0.38629 0.94486 0.448 0.0
C132 C 0.11747 0.8551 0.30657 0.0
C133 C 0.37852 0.84796 0.2955 0.0
C134 C 0.22629 0.95032 0.23549 0.0
C135 C 0.2677 0.80972 0.46741 0.0
C136 C 0.19868 0.94515 0.49662 0.0
O137 O 0.38118 0.91207 0.46779 0.0
O138 O 0.34443 0.01751 0.9031 0.0
Zn139 Zn 0.25664 0.03097 0.87673 0.0
O140 O 0.25075 0.08302 0.87664 0.0
Zn141 Zn 0.23623 0.10192 0.79127 0.0
Zn142 Zn 0.32315 0.10326 0.92072 0.0
Zn143 Zn 0.18646 0.09617 0.92494 0.0
O144 O 0.15115 0.12595 0.77947 0.0
O145 O 0.11237 0.10247 0.86401 0.0
O146 O 0.22799 0.00957 0.7897 0.0
O147 O 0.22866 0.05953 0.72954 0.0
O148 O 0.31131 0.13044 0.76867 0.0
O149 O 0.3752 0.11906 0.85617 0.0
O150 O 0.30393 0.14915 0.96836 0.0
O151 O 0.21327 0.01018 0.94714 0.0
O152 O 0.20226 0.14548 0.96115 0.0
O153 O 0.17728 0.05857 0.99367 0.0
C154 C 0.38091 0.03166 0.94754 0.0
C155 C 0.10565 0.11828 0.80991 0.0
C156 C 0.36503 0.13083 0.79952 0.0
C157 C 0.22292 0.025 0.73516 0.0
C158 C 0.25162 0.16286 0.97592 0.0
C159 C 0.1875 0.0241 0.99267 0.0
O160 O 0.37252 0.06376 0.96938 0.0
O161 O 0.621 0.02175 0.59823 0.0
Zn162 Zn 0.70847 0.03439 0.62412 0.0
O163 O 0.71429 0.08669 0.62255 0.0
Zn164 Zn 0.72793 0.10781 0.70561 0.0
Zn165 Zn 0.64222 0.10631 0.57628 0.0
Zn166 Zn 0.77928 0.09978 0.5768 0.0
O167 O 0.8105 0.13421 0.71618 0.0
O168 O 0.85262 0.10478 0.63884 0.0
O169 O 0.73532 0.01386 0.71324 0.0
O170 O 0.74271 0.0665 0.76693 0.0
O171 O 0.64867 0.13289 0.72885 0.0
O172 O 0.58824 0.12205 0.63898 0.0
O173 O 0.66024 0.15163 0.52826 0.0
O174 O 0.75003 0.01299 0.55109 0.0
O175 O 0.76226 0.14893 0.5396 0.0
O176 O 0.78673 0.06276 0.5081 0.0
C177 C 0.58656 0.03491 0.55097 0.0
C178 C 0.85751 0.12362 0.68995 0.0
C179 C 0.59569 0.13285 0.69635 0.0
C180 C 0.74546 0.03164 0.76552 0.0
C181 C 0.71218 0.16559 0.52205 0.0
C182 C 0.77341 0.02882 0.50587 0.0
O183 O 0.59577 0.06629 0.52732 0.0
C184 C 0.53809 0.32678 0.24439 0.0
C185 C 0.57061 0.36024 0.24586 0.0
C186 C 0.47726 0.39343 0.20621 0.0
C187 C 0.44499 0.35981 0.20016 0.0
N188 N 0.44645 0.29366 0.20297 0.0
N189 N 0.57571 0.42293 0.21165 0.0
C190 C 0.47589 0.3261 0.21615 0.0
C191 C 0.54158 0.3927 0.22105 0.0
N192 N 0.56592 0.29615 0.27183 0.0
N193 N 0.4462 0.42623 0.2019 0.0
H194 H 0.6234 0.42306 0.22153 0.0
H195 H 0.5574 0.4462 0.18771 0.0
H196 H 0.39845 0.42828 0.19521 0.0
H197 H 0.46743 0.45132 0.21228 0.0
H198 H 0.54266 0.27197 0.27874 0.0
H199 H 0.61195 0.29566 0.29087 0.0
H200 H 0.46835 0.2682 0.20795 0.0
H201 H 0.40102 0.29235 0.18227 0.0
C202 C 0.52882 0.65565 0.75864 0.0
C203 C 0.55331 0.62317 0.78935 0.0
C204 C 0.45035 0.59758 0.78217 0.0
C205 C 0.4281 0.62655 0.74158 0.0
N206 N 0.44569 0.6828 0.68757 0.0
N207 N 0.53792 0.5594 0.8156 0.0
C208 C 0.46715 0.65569 0.72894 0.0
C209 C 0.5142 0.59315 0.79778 0.0
N210 N 0.56356 0.68658 0.7595 0.0
N211 N 0.41045 0.57387 0.80504 0.0
H212 H 0.58478 0.55345 0.82147 0.0
H213 H 0.51088 0.53609 0.81663 0.0
H214 H 0.3631 0.57665 0.7945 0.0
H215 H 0.42429 0.55448 0.84005 0.0
H216 H 0.54622 0.71185 0.7426 0.0
H217 H 0.60811 0.68784 0.78258 0.0
H218 H 0.47381 0.70256 0.67079 0.0
H219 H 0.39995 0.68424 0.66764 0.0
C220 C 0.03054 0.889 0.24882 0.0
C221 C 0.05602 0.85485 0.27053 0.0
C222 C 0.95963 0.82425 0.23302 0.0
C223 C 0.93256 0.85912 0.21767 0.0
N224 N 0.93889 0.92535 0.22291 0.0
N225 N 0.04494 0.79034 0.28964 0.0
C226 C 0.96712 0.89168 0.22879 0.0
C227 C 0.02068 0.82244 0.26431 0.0
N228 N 0.06734 0.91889 0.24617 0.0
N229 N 0.92796 0.79304 0.21562 0.0
H230 H 0.0901 0.78812 0.31104 0.0
H231 H 0.01945 0.7666 0.29285 0.0
H232 H 0.88329 0.79347 0.19262 0.0
H233 H 0.94736 0.76687 0.21969 0.0
H234 H 0.05256 0.94321 0.22335 0.0
H235 H 0.1142 0.91829 0.26132 0.0
H236 H 0.96065 0.94966 0.23781 0.0
H237 H 0.89203 0.92898 0.20943 0.0
C238 C 0.0154 0.15585 0.76079 0.0
C239 C 0.04267 0.12124 0.77766 0.0
C240 C 0.94465 0.09098 0.74968 0.0
C241 C 0.91877 0.1247 0.72633 0.0
N242 N 0.92933 0.18884 0.70356 0.0
N243 N 0.03682 0.05501 0.7755 0.0
C244 C 0.954 0.15718 0.73032 0.0
C245 C 0.00826 0.08856 0.76862 0.0
N246 N 0.04738 0.18726 0.77568 0.0
N247 N 0.90804 0.06127 0.755 0.0
H248 H 0.08391 0.05171 0.78801 0.0
H249 H 0.01495 0.03047 0.76229 0.0
H250 H 0.86089 0.06183 0.74137 0.0
H251 H 0.92348 0.03737 0.7788 0.0
H252 H 0.028 0.21341 0.77046 0.0
H253 H 0.09249 0.18708 0.79754 0.0
H254 H 0.95461 0.21249 0.69876 0.0
H255 H 0.88394 0.19072 0.68271 0.0
C256 C 0.23458 0.26529 0.95131 0.0
C257 C 0.22109 0.27649 0.01223 0.0
C258 C 0.22783 0.21292 0.05002 0.0
C259 C 0.24605 0.20207 0.99067 0.0
N260 N 0.27143 0.21726 0.88559 0.0
N261 N 0.21347 0.26272 0.12282 0.0
C262 C 0.25104 0.22812 0.94154 0.0
C263 C 0.21964 0.25078 0.06248 0.0
N264 N 0.22962 0.2901 0.9025 0.0
N265 N 0.21774 0.18695 0.09415 0.0
H266 H 0.20666 0.29018 0.13418 0.0
H267 H 0.21944 0.24586 0.16275 0.0
H268 H 0.22679 0.15909 0.08809 0.0
H269 H 0.19704 0.19264 0.13501 0.0
H270 H 0.23272 0.28321 0.85522 0.0
H271 H 0.21733 0.3175 0.90848 0.0
H272 H 0.28275 0.23538 0.85093 0.0
H273 H 0.28083 0.19002 0.87488 0.0
C274 C 0.75138 0.25028 0.43386 0.0
C275 C 0.74169 0.27769 0.47962 0.0
C276 C 0.70845 0.23154 0.55145 0.0
C277 C 0.71573 0.20434 0.50464 0.0
N278 N 0.73444 0.18734 0.39868 0.0
N279 N 0.70272 0.29628 0.57682 0.0
C280 C 0.73448 0.21358 0.44499 0.0
C281 C 0.71751 0.26889 0.53685 0.0
N282 N 0.77712 0.25937 0.3801 0.0
N283 N 0.69576 0.22146 0.61085 0.0
H284 H 0.71168 0.32388 0.56913 0.0
H285 H 0.67817 0.29204 0.61542 0.0
H286 H 0.68751 0.19444 0.62332 0.0
H287 H 0.69729 0.23943 0.64927 0.0
H288 H 0.79158 0.24021 0.34836 0.0
H289 H 0.78768 0.28622 0.3687 0.0
H290 H 0.74183 0.19276 0.35191 0.0
H291 H 0.72197 0.16022 0.40575 0.0
C292 C 0.75354 0.75665 0.04863 0.0
C293 C 0.74087 0.7821 -0.00212 0.0
C294 C 0.75959 0.73486 0.92037 0.0
C295 C 0.77492 0.70992 0.97139 0.0
N296 N 0.79642 0.6974 0.08325 0.0
N297 N 0.73981 0.798 0.88738 0.0
C298 C 0.77487 0.72095 0.0354 0.0
C299 C 0.74627 0.77198 0.9342 0.0
N300 N 0.74416 0.76657 0.10926 0.0
N301 N 0.75573 0.72268 0.85882 0.0
H302 H 0.7275 0.82515 0.89576 0.0
H303 H 0.75007 0.79336 0.84117 0.0
H304 H 0.76764 0.69603 0.84661 0.0
H305 H 0.73757 0.73827 0.81985 0.0
H306 H 0.7465 0.74831 0.14721 0.0
H307 H 0.7296 0.79274 0.12121 0.0
H308 H 0.80343 0.70478 0.13105 0.0
H309 H 0.81234 0.67101 0.07453 0.0
C310 C 0.27296 0.70655 0.44563 0.0
C311 C 0.24668 0.69517 0.50032 0.0
C312 C 0.24145 0.75883 0.53747 0.0
C313 C 0.26639 0.77031 0.48197 0.0
N314 N 0.29802 0.75678 0.37857 0.0
N315 N 0.21431 0.70855 0.60346 0.0
C316 C 0.28072 0.7446 0.43502 0.0
C317 C 0.23268 0.72083 0.5475 0.0
N318 N 0.29181 0.68079 0.40475 0.0
N319 N 0.22494 0.78455 0.57975 0.0
H320 H 0.2065 0.68101 0.61269 0.0
H321 H 0.20996 0.72508 0.64281 0.0
H322 H 0.23485 0.81236 0.57617 0.0
H323 H 0.19935 0.77896 0.61698 0.0
H324 H 0.31833 0.68663 0.36835 0.0
H325 H 0.28376 0.65281 0.40939 0.0
H326 H 0.30202 0.73999 0.33942 0.0
H327 H 0.30476 0.78435 0.36872 0.0
C328 C 0.96178 0.51323 0.03771 0.0
C329 C 0.95511 0.5176 0.97053 0.0
C330 C 0.04447 0.47778 0.96175 0.0
C331 C 0.05044 0.47279 0.02883 0.0
N332 N 0.01305 0.48184 0.13061 0.0
N333 N 0.99314 0.50928 0.86896 0.0
C334 C 0.00905 0.48984 0.06699 0.0
C335 C -0.00294 0.50105 0.93251 0.0
N336 N 0.92246 0.53125 0.07322 0.0
N337 N 0.0844 0.46027 0.92628 0.0
H338 H 0.96055 0.52742 0.84654 0.0
H339 H 0.02386 0.50022 0.83831 0.0
H340 H 0.12297 0.44572 0.9462 0.0
H341 H 0.07931 0.45915 0.87687 0.0
H342 H 0.92785 0.53259 0.12261 0.0
H343 H 0.88438 0.54625 0.05336 0.0
H344 H 0.98275 0.49135 0.16134 0.0
H345 H 0.04533 0.46358 0.15316 0.0
C346 C -0.00344 0.51972 0.52131 0.0
C347 C 0.05627 0.50396 0.52465 0.0
C348 C 0.01255 0.44383 0.49348 0.0
C349 C 0.95315 0.4601 0.48853 0.0
N350 N 0.88719 0.50924 0.51615 0.0
N351 N 0.12255 0.45107 0.5195 0.0
C352 C 0.94478 0.49688 0.50766 0.0
C353 C 0.06458 0.46585 0.51307 0.0
N354 N 0.98912 0.55651 0.53111 0.0
N355 N 0.01928 0.40779 0.47716 0.0
H356 H 0.16206 0.46692 0.52548 0.0
H357 H 0.1324 0.42313 0.52031 0.0
H358 H 0.98265 0.39068 0.46265 0.0
H359 H 0.06109 0.39438 0.47609 0.0
H360 H 0.94735 0.5703 0.52146 0.0
H361 H 0.0252 0.57403 0.54561 0.0
H362 H 0.87813 0.53447 0.53635 0.0
H363 H 0.84864 0.49256 0.50924 0.0
C364 C 0.53692 0.98509 0.96035 0.0
C365 C 0.53684 0.96707 0.01971 0.0
C366 C 0.43518 -0.00772 0.03252 0.0
C367 C 0.43511 0.01024 0.97317 0.0
N368 N 0.48642 0.02815 0.88335 0.0
N369 N 0.48393 0.94778 0.10756 0.0
C370 C 0.48594 0.00759 0.93743 0.0
C371 C 0.48557 0.96927 0.0548 0.0
N372 N 0.58534 0.98006 0.92571 0.0
N373 N 0.38767 -0.002 0.06813 0.0
H374 H 0.51993 0.93035 0.12497 0.0
H375 H 0.44534 0.94479 0.13136 0.0
H376 H 0.34844 0.01318 0.05195 0.0
H377 H 0.38846 -0.01021 0.1153 0.0
H378 H 0.5856 0.98864 0.8789 0.0
H379 H 0.62487 0.96537 0.94259 0.0
H380 H 0.52411 0.0306 0.85808 0.0
H381 H 0.4498 0.04496 0.86533 0.0
C382 C 0.49761 0.95939 0.45988 0.0
C383 C 0.43777 0.96739 0.4754 0.0
C384 C 0.47472 0.02195 0.53507 0.0
C385 C 0.53511 0.01263 0.5228 0.0
N386 N 0.60648 0.97166 0.47897 0.0
N387 N 0.36847 0.00353 0.53137 0.0
C388 C 0.54729 0.98105 0.48682 0.0
C389 C 0.42597 -0.00196 0.5138 0.0
N390 N 0.50636 0.93207 0.41727 0.0
N391 N 0.46412 0.05377 0.56666 0.0
H392 H 0.33114 0.98735 0.51472 0.0
H393 H 0.35803 0.02253 0.56536 0.0
H394 H 0.49907 0.0712 0.58532 0.0
H395 H 0.42064 0.06426 0.57152 0.0
H396 H 0.54738 0.92752 0.39811 0.0
H397 H 0.47117 0.91518 0.39734 0.0
H398 H 0.6193 0.94683 0.4598 0.0
H399 H 0.64382 0.988 0.49481 0.0
C400 C 0.02508 0.30998 0.22037 0.0
C401 C 0.07389 0.33202 0.24908 0.0
C402 C 0.00232 0.3656 0.30703 0.0
C403 C 0.95356 0.34233 0.2828 0.0
N404 N 0.92152 0.28744 0.22505 0.0
N405 N 0.11079 0.36889 0.33938 0.0
C406 C 0.96573 0.3128 0.24206 0.0
C407 C 0.06316 0.35549 0.29945 0.0
N408 N 0.03544 0.28713 0.17151 0.0
N409 N 0.99066 0.39894 0.33285 0.0
H410 H 0.15602 0.36052 0.33709 0.0
H411 H 0.10379 0.38434 0.37942 0.0
H412 H 0.94637 0.40934 0.33423 0.0
H413 H 0.02516 0.41798 0.34545 0.0
H414 H 0.00066 0.27333 0.1437 0.0
H415 H 0.07927 0.28321 0.15776 0.0
H416 H 0.92951 0.26363 0.19986 0.0
H417 H 0.87806 0.28891 0.24043 0.0
C418 C 0.02297 0.66611 0.71756 0.0
C419 C 0.04469 0.63185 0.69702 0.0
C420 C 0.94287 0.6054 0.70048 0.0
C421 C 0.92371 0.63768 0.72992 0.0
N422 N 0.94514 0.69853 0.76981 0.0
N423 N 0.029 0.56664 0.68273 0.0
C424 C 0.96359 0.66817 0.73898 0.0
C425 C 0.00548 0.6009 0.69184 0.0
N426 N 0.0585 0.69655 0.71565 0.0
N427 N 0.90145 0.57851 0.68242 0.0
H428 H 0.07547 0.56165 0.67977 0.0
H429 H 0.00378 0.5427 0.68488 0.0
H430 H 0.85509 0.5809 0.68846 0.0
H431 H 0.91177 0.55574 0.65564 0.0
H432 H 0.04302 0.72297 0.72428 0.0
H433 H 0.10241 0.69555 0.70123 0.0
H434 H 0.97416 0.72011 0.78453 0.0
H435 H 0.90081 0.70125 0.7828 0.0
C436 C 0.46078 0.812 0.24714 0.0
C437 C 0.43428 0.84605 0.26235 0.0
C438 C 0.52887 0.87782 0.24553 0.0
C439 C 0.55381 0.8444 0.22507 0.0
N440 N 0.54223 0.78041 0.19902 0.0
N441 N 0.43747 0.91217 0.26315 0.0
C442 C 0.51936 0.8116 0.22371 0.0
C443 C 0.46677 0.8792 0.25759 0.0
N444 N 0.43071 0.78021 0.25662 0.0
N445 N 0.56485 0.90831 0.25385 0.0
H446 H 0.39156 0.91434 0.27126 0.0
H447 H 0.45669 0.93734 0.25399 0.0
H448 H 0.61061 0.90863 0.24496 0.0
H449 H 0.55117 0.93242 0.27487 0.0
H450 H 0.45013 0.75425 0.25282 0.0
H451 H 0.38701 0.78 0.2716 0.0
H452 H 0.51696 0.75653 0.19041 0.0
H453 H 0.58599 0.77914 0.18422 0.0
C454 C 0.51241 0.16773 0.74506 0.0
C455 C 0.5393 0.13408 0.72845 0.0
C456 C 0.44493 0.10153 0.7432 0.0
C457 C 0.41975 0.1344 0.76544 0.0
N458 N 0.43061 0.19803 0.79454 0.0
N459 N 0.5368 0.0679 0.72516 0.0
C460 C 0.45383 0.16739 0.76839 0.0
C461 C 0.50711 0.10067 0.73155 0.0
N462 N 0.54214 0.19983 0.73706 0.0
N463 N 0.4092 0.07105 0.73298 0.0
H464 H 0.58297 0.06603 0.71787 0.0
H465 H 0.51763 0.04256 0.73325 0.0
H466 H 0.36339 0.07035 0.74169 0.0
H467 H 0.42311 0.04753 0.71033 0.0
H468 H 0.52242 0.2256 0.74207 0.0
H469 H 0.58577 0.20054 0.72198 0.0
H470 H 0.45562 0.2219 0.80435 0.0
H471 H 0.38679 0.19881 0.80924 0.0
C472 C 0.32571 0.47194 0.90958 0.0
C473 C 0.2814 0.47855 0.95254 0.0
C474 C 0.21871 0.51413 0.87047 0.0
C475 C 0.26417 0.50912 0.8287 0.0
N476 N 0.36525 0.48812 0.81067 0.0
N477 N 0.19344 0.51429 0.97829 0.0
C478 C 0.3189 0.48924 0.84871 0.0
C479 C 0.23062 0.50245 0.93464 0.0
N480 N 0.37453 0.44916 0.92728 0.0
N481 N 0.16249 0.52839 0.84782 0.0
H482 H 0.19834 0.50649 0.0257 0.0
H483 H 0.16069 0.53503 0.96896 0.0
H484 H 0.15062 0.53569 0.80031 0.0
H485 H 0.12533 0.52948 0.87427 0.0
H486 H 0.4039 0.43912 0.89587 0.0
H487 H 0.38469 0.4393 0.9736 0.0
H488 H 0.40887 0.47763 0.82513 0.0
H489 H 0.36181 0.50031 0.76584 0.0
C490 C 0.66181 0.49309 0.56833 0.0
C491 C 0.70727 0.46803 0.55243 0.0
C492 C 0.77043 0.48095 0.65303 0.0
C493 C 0.72369 0.50461 0.67087 0.0
N494 N 0.61988 0.52784 0.65168 0.0
N495 N 0.79678 0.43085 0.58602 0.0
C496 C 0.66772 0.50908 0.63029 0.0
C497 C 0.75886 0.45956 0.59701 0.0
N498 N 0.61391 0.50213 0.52387 0.0
N499 N 0.82738 0.48063 0.68698 0.0
H500 H 0.78965 0.41421 0.54578 0.0
H501 H 0.83159 0.42126 0.61974 0.0
H502 H 0.83876 0.4965 0.72758 0.0
H503 H 0.86514 0.46732 0.67137 0.0
H504 H 0.58275 0.5232 0.52992 0.0
H505 H 0.60753 0.48979 0.47907 0.0
H506 H 0.57617 0.52934 0.62676 0.0
H507 H 0.62235 0.53923 0.6972 0.0
C508 C 0.69071 0.50107 0.15825 0.0
C509 C 0.74477 0.48036 0.17698 0.0
C510 C 0.77786 0.48764 0.07101 0.0
C511 C 0.72609 0.51091 0.05286 0.0
N512 N 0.63352 0.54052 0.0796 0.0
N513 N 0.84617 0.46135 0.15749 0.0
C514 C 0.68279 0.51801 0.09691 0.0
C515 C 0.79003 0.47582 0.13506 0.0
N516 N 0.64595 0.50327 0.19808 0.0
N517 N 0.81557 0.47616 0.0276 0.0
H518 H 0.85762 0.45351 0.20482 0.0
H519 H 0.88349 0.4606 0.13127 0.0
H520 H 0.81218 0.48477 0.98076 0.0
H521 H 0.8481 0.45528 0.03672 0.0
H522 H 0.60244 0.51432 0.18515 0.0
H523 H 0.65114 0.49211 0.24376 0.0
H524 H 0.6048 0.55086 0.11137 0.0
H525 H 0.62199 0.54976 0.0331 0.0
C526 C 0.25867 0.45295 0.38883 0.0
C527 C 0.28478 0.46649 0.33541 0.0
C528 C 0.34561 0.50968 0.40642 0.0
C529 C 0.31759 0.49578 0.45903 0.0
N530 N 0.27926 0.44 0.50068 0.0
N531 N 0.36594 0.50114 0.29644 0.0
C532 C 0.28441 0.46277 0.4505 0.0
C533 C 0.33202 0.49315 0.34485 0.0
N534 N 0.20722 0.43203 0.38102 0.0
N535 N 0.38667 0.53758 0.41563 0.0
H536 H 0.35843 0.48891 0.2517 0.0
H537 H 0.40468 0.51761 0.30181 0.0
H538 H 0.40696 0.54495 0.4608 0.0
H539 H 0.40147 0.55273 0.37869 0.0
H540 H 0.18483 0.42371 0.41935 0.0
H541 H 0.18313 0.42725 0.33641 0.0
H542 H 0.2579 0.41456 0.49528 0.0
H543 H 0.30398 0.44427 0.54521 0.0
C544 C 0.75153 0.01579 0.94201 0.0
C545 C 0.79046 0.98469 0.95252 0.0
C546 C 0.80895 0.98733 0.83955 0.0
C547 C 0.75897 0.01253 0.82777 0.0
N548 N 0.67477 0.045 0.86814 0.0
N549 N 0.86838 0.94634 0.9141 0.0
C550 C 0.72794 0.02502 0.87915 0.0
C551 C 0.82286 0.97201 0.90189 0.0
N552 N 0.73987 0.03798 0.99134 0.0
N553 N 0.84476 0.97942 0.7924 0.0
H554 H 0.88752 0.94015 0.96034 0.0
H555 H 0.88767 0.93167 0.879 0.0
H556 H 0.8365 -0.00979 0.74665 0.0
H557 H 0.88527 0.96418 0.79925 0.0
H558 H 0.71425 0.06219 0.98477 0.0
H559 H 0.76408 0.03556 0.03654 0.0
H560 H 0.64838 0.05219 0.90433 0.0
H561 H 0.65337 0.0505 0.82249 0.0
C562 C 0.25797 0.97519 0.66487 0.0
C563 C 0.21349 0.00233 0.67623 0.0
C564 C 0.15453 0.98837 0.57268 0.0
C565 C 0.20084 0.96304 0.55992 0.0
N566 N 0.29774 0.93253 0.59108 0.0
N567 N 0.12035 0.03598 0.64137 0.0
C568 C 0.25234 0.95606 0.60576 0.0
C569 C 0.16193 0.00922 0.6302 0.0
N570 N 0.30651 0.96829 0.71011 0.0
N571 N 0.10271 -0.00845 0.53038 0.0
H572 H 0.12158 0.05 0.68441 0.0
H573 H 0.08577 0.04553 0.60753 0.0
H574 H 0.09647 0.97667 0.48797 0.0
H575 H 0.06413 0.00682 0.53856 0.0
H576 H 0.33559 0.94564 0.70956 0.0
H577 H 0.31737 0.98464 0.75017 0.0
H578 H 0.34017 0.92946 0.61799 0.0
H579 H 0.295 0.91719 0.54928 0.0
C580 C 0.24187 0.95821 0.12146 0.0
C581 C 0.21299 0.97074 0.17426 0.0
C582 C 0.15267 0.01471 0.10331 0.0
C583 C 0.18173 0.00107 0.05091 0.0
N584 N 0.22408 0.9456 0.00954 0.0
N585 N 0.12973 0.00528 0.21193 0.0
C586 C 0.21706 0.96836 0.05954 0.0
C587 C 0.16527 -0.00238 0.16448 0.0
N588 N 0.29404 0.93718 0.13003 0.0
N589 N 0.11124 0.04289 0.09415 0.0
H590 H 0.13629 -0.00714 0.2565 0.0
H591 H 0.09043 0.02168 0.20575 0.0
H592 H 0.09163 0.05082 0.04895 0.0
H593 H 0.09582 0.05793 0.13117 0.0
H594 H 0.31833 0.92958 0.09239 0.0
H595 H 0.31694 0.93132 0.17488 0.0
H596 H 0.24724 0.92049 0.01519 0.0
H597 H 0.19824 0.94874 0.96531 0.0
C598 C 0.71913 0.01835 0.39715 0.0
C599 C 0.76962 0.01005 0.44342 0.0
C600 C 0.80908 0.96605 0.36999 0.0
C601 C 0.75597 0.97228 0.32577 0.0
N602 N 0.65375 -0.00222 0.30429 0.0
N603 N 0.85873 0.97331 0.47807 0.0
C604 C 0.7093 -0.00319 0.34103 0.0
C605 C 0.81347 0.98304 0.43109 0.0
N606 N 0.68015 0.04682 0.40675 0.0
N607 N 0.85612 0.94479 0.35286 0.0
H608 H 0.86444 0.98629 0.52234 0.0
H609 H 0.8881 0.95096 0.47487 0.0
H610 H 0.85428 0.93151 0.30911 0.0
H611 H 0.89872 0.94242 0.37983 0.0
H612 H 0.64729 0.05686 0.37142 0.0
H613 H 0.68329 0.06236 0.44834 0.0
H614 H 0.61546 0.01163 0.31754 0.0
H615 H 0.64361 0.98174 0.26367 0.0
loop_
_geom_bond_atom_site_label_1
_geom_bond_atom_site_label_2
_geom_bond_distance
_geom_bond_site_symmetry_2
_ccdc_geom_bond_type
O0 Zn1 1.953 . S
O0 C16 1.225 . S
Zn1 O0 1.953 . S
Zn1 O2 1.949 . S
Zn1 O8 1.919 . S
Zn1 O13 1.924 . S
O2 Zn1 1.949 . S
O2 Zn3 1.923 . S
O2 Zn4 1.950 . S
O2 Zn5 1.945 . S
Zn3 O2 1.923 . S
Zn3 O6 1.933 . S
Zn3 O9 1.941 . S
Zn3 O10 1.965 . S
Zn4 O2 1.950 . S
Zn4 O11 1.938 . S
Zn4 O12 1.906 . S
Zn4 O22 1.953 . S
Zn5 O2 1.945 . S
Zn5 O7 1.932 . S
Zn5 O14 1.977 . S
Zn5 O15 1.910 . S
O6 Zn3 1.933 . S
O6 C17 1.226 . S
O7 Zn5 1.932 . S
O7 C17 1.307 . S
O8 Zn1 1.919 . S
O8 C19 1.253 . S
O9 Zn3 1.941 . S
O9 C19 1.283 . S
O10 Zn3 1.965 . S
O10 C18 1.303 . S
O11 Zn4 1.938 . S
O11 C18 1.247 . S
O12 Zn4 1.906 . S
O12 C20 1.304 . S
O13 Zn1 1.924 . S
O13 C21 1.302 1_554 S
O14 Zn5 1.977 . S
O14 C20 1.272 . S
O15 Zn5 1.910 . S
O15 C21 1.228 1_554 S
C16 O0 1.225 . S
C16 O22 1.298 . S
C17 O6 1.226 . S
C17 O7 1.307 . S
C18 O10 1.303 . S
C18 O11 1.247 . S
C19 O8 1.253 . S
C19 O9 1.283 . S
C20 O12 1.304 . S
C20 O14 1.272 . S
C21 O13 1.302 1_556 S
C21 O15 1.228 1_556 S
O22 Zn4 1.953 . S
O22 C16 1.298 . S
O23 Zn24 1.953 . S
O23 C39 1.225 . S
Zn24 O23 1.953 . S
Zn24 O25 1.949 . S
Zn24 O31 1.919 . S
Zn24 O36 1.924 . S
O25 Zn24 1.949 . S
O25 Zn26 1.923 . S
O25 Zn27 1.950 . S
O25 Zn28 1.945 . S
Zn26 O25 1.923 . S
Zn26 O29 1.933 . S
Zn26 O32 1.941 . S
Zn26 O33 1.965 . S
Zn27 O25 1.950 . S
Zn27 O34 1.938 . S
Zn27 O35 1.906 . S
Zn27 O45 1.953 . S
Zn28 O25 1.945 . S
Zn28 O30 1.932 . S
Zn28 O37 1.977 . S
Zn28 O38 1.910 . S
O29 Zn26 1.933 . S
O29 C40 1.226 . S
O30 Zn28 1.932 . S
O30 C40 1.307 . S
O31 Zn24 1.919 . S
O31 C42 1.253 . S
O32 Zn26 1.941 . S
O32 C42 1.283 . S
O33 Zn26 1.965 . S
O33 C41 1.303 . S
O34 Zn27 1.938 . S
O34 C41 1.247 . S
O35 Zn27 1.906 . S
O35 C43 1.304 . S
O36 Zn24 1.924 . S
O36 C44 1.311 . S
O37 Zn28 1.977 . S
O37 C43 1.272 . S
O38 Zn28 1.910 . S
O38 C44 1.231 . S
C39 O23 1.225 . S
C39 O45 1.298 . S
C40 O29 1.226 . S
C40 O30 1.307 . S
C41 O33 1.303 . S
C41 O34 1.247 . S
C42 O31 1.253 . S
C42 O32 1.283 . S
C43 O35 1.304 . S
C43 O37 1.272 . S
C44 O36 1.311 . S
C44 O38 1.231 . S
O45 Zn27 1.953 . S
O45 C39 1.298 . S
O46 Zn47 1.953 . S
O46 C62 1.225 . S
Zn47 O46 1.953 . S
Zn47 O48 1.949 . S
Zn47 O54 1.919 . S
Zn47 O59 1.924 . S
O48 Zn47 1.949 . S
O48 Zn49 1.923 . S
O48 Zn50 1.950 . S
O48 Zn51 1.945 . S
Zn49 O48 1.923 . S
Zn49 O52 1.933 . S
Zn49 O55 1.941 . S
Zn49 O56 1.965 . S
Zn50 O48 1.950 . S
Zn50 O57 1.938 . S
Zn50 O58 1.906 . S
Zn50 O68 1.953 . S
Zn51 O48 1.945 . S
Zn51 O53 1.932 . S
Zn51 O60 1.977 . S
Zn51 O61 1.910 . S
O52 Zn49 1.933 . S
O52 C63 1.226 . S
O53 Zn51 1.932 . S
O53 C63 1.307 . S
O54 Zn47 1.919 . S
O54 C65 1.253 . S
O55 Zn49 1.941 . S
O55 C65 1.283 . S
O56 Zn49 1.965 . S
O56 C64 1.303 . S
O57 Zn50 1.938 . S
O57 C64 1.247 . S
O58 Zn50 1.906 . S
O58 C66 1.304 . S
O59 Zn47 1.924 . S
O59 C67 1.302 1_556 S
O60 Zn51 1.977 . S
O60 C66 1.272 . S
O61 Zn51 1.910 . S
O61 C67 1.228 1_556 S
C62 O46 1.225 . S
C62 O68 1.298 . S
C63 O52 1.226 . S
C63 O53 1.307 . S
C64 O56 1.303 . S
C64 O57 1.247 . S
C65 O54 1.253 . S
C65 O55 1.283 . S
C66 O58 1.304 . S
C66 O60 1.272 . S
C67 O59 1.302 1_554 S
C67 O61 1.228 1_554 S
O68 Zn50 1.953 . S
O68 C62 1.298 . S
O69 Zn70 1.953 . S
O69 C85 1.225 . S
Zn70 O69 1.953 . S
Zn70 O71 1.949 . S
Zn70 O77 1.919 . S
Zn70 O82 1.924 . S
O71 Zn70 1.949 . S
O71 Zn72 1.923 . S
O71 Zn73 1.950 . S
O71 Zn74 1.945 . S
Zn72 O71 1.923 . S
Zn72 O75 1.933 . S
Zn72 O78 1.941 . S
Zn72 O79 1.965 . S
Zn73 O71 1.950 . S
Zn73 O80 1.938 . S
Zn73 O81 1.906 . S
Zn73 O91 1.953 . S
Zn74 O71 1.945 . S
Zn74 O76 1.932 . S
Zn74 O83 1.977 . S
Zn74 O84 1.910 . S
O75 Zn72 1.933 . S
O75 C86 1.226 . S
O76 Zn74 1.932 . S
O76 C86 1.307 . S
O77 Zn70 1.919 . S
O77 C88 1.253 . S
O78 Zn72 1.941 . S
O78 C88 1.283 . S
O79 Zn72 1.965 . S
O79 C87 1.303 . S
O80 Zn73 1.938 . S
O80 C87 1.247 . S
O81 Zn73 1.906 . S
O81 C89 1.304 . S
O82 Zn70 1.924 . S
O82 C90 1.311 . S
O83 Zn74 1.977 . S
O83 C89 1.272 . S
O84 Zn74 1.910 . S
O84 C90 1.231 . S
C85 O69 1.225 . S
C85 O91 1.298 . S
C86 O75 1.226 . S
C86 O76 1.307 . S
C87 O79 1.303 . S
C87 O80 1.247 . S
C88 O77 1.253 . S
C88 O78 1.283 . S
C89 O81 1.304 . S
C89 O83 1.272 . S
C90 O82 1.311 . S
C90 O84 1.231 . S
O91 Zn73 1.953 . S
O91 C85 1.298 . S
O92 Zn93 1.953 . S
O92 C108 1.225 . S
Zn93 O92 1.953 . S
Zn93 O94 1.949 . S
Zn93 O100 1.919 . S
Zn93 O105 1.924 . S
O94 Zn93 1.949 . S
O94 Zn95 1.923 . S
O94 Zn96 1.950 . S
O94 Zn97 1.945 . S
Zn95 O94 1.923 . S
Zn95 O98 1.933 . S
Zn95 O101 1.941 . S
Zn95 O102 1.965 . S
Zn96 O94 1.950 . S
Zn96 O103 1.938 . S
Zn96 O104 1.906 . S
Zn96 O114 1.953 . S
Zn97 O94 1.945 . S
Zn97 O99 1.932 . S
Zn97 O106 1.977 . S
Zn97 O107 1.910 . S
O98 Zn95 1.933 . S
O98 C109 1.226 . S
O99 Zn97 1.932 . S
O99 C109 1.307 . S
O100 Zn93 1.919 . S
O100 C111 1.253 . S
O101 Zn95 1.941 . S
O101 C111 1.283 . S
O102 Zn95 1.965 . S
O102 C110 1.303 . S
O103 Zn96 1.938 . S
O103 C110 1.247 . S
O104 Zn96 1.906 . S
O104 C112 1.304 . S
O105 Zn93 1.924 . S
O105 C113 1.302 1_554 S
O106 Zn97 1.977 . S
O106 C112 1.272 . S
O107 Zn97 1.910 . S
O107 C113 1.228 1_554 S
C108 O92 1.225 . S
C108 O114 1.298 . S
C109 O98 1.226 . S
C109 O99 1.307 . S
C110 O102 1.303 . S
C110 O103 1.247 . S
C111 O100 1.253 . S
C111 O101 1.283 . S
C112 O104 1.304 . S
C112 O106 1.272 . S
C113 O105 1.302 1_556 S
C113 O107 1.228 1_556 S
O114 Zn96 1.953 . S
O114 C108 1.298 . S
O115 Zn116 1.953 . S
O115 C131 1.225 . S
Zn116 O115 1.953 . S
Zn116 O117 1.949 . S
Zn116 O123 1.919 . S
Zn116 O128 1.924 . S
O117 Zn116 1.949 . S
O117 Zn118 1.923 . S
O117 Zn119 1.950 . S
O117 Zn120 1.945 . S
Zn118 O117 1.923 . S
Zn118 O121 1.933 . S
Zn118 O124 1.941 . S
Zn118 O125 1.965 . S
Zn119 O117 1.950 . S
Zn119 O126 1.938 . S
Zn119 O127 1.906 . S
Zn119 O137 1.953 . S
Zn120 O117 1.945 . S
Zn120 O122 1.932 . S
Zn120 O129 1.977 . S
Zn120 O130 1.910 . S
O121 Zn118 1.933 . S
O121 C132 1.226 . S
O122 Zn120 1.932 . S
O122 C132 1.307 . S
O123 Zn116 1.919 . S
O123 C134 1.253 . S
O124 Zn118 1.941 . S
O124 C134 1.283 . S
O125 Zn118 1.965 . S
O125 C133 1.303 . S
O126 Zn119 1.938 . S
O126 C133 1.247 . S
O127 Zn119 1.906 . S
O127 C135 1.304 . S
O128 Zn116 1.924 . S
O128 C136 1.311 . S
O129 Zn120 1.977 . S
O129 C135 1.272 . S
O130 Zn120 1.910 . S
O130 C136 1.231 . S
C131 O115 1.225 . S
C131 O137 1.298 . S
C132 O121 1.226 . S
C132 O122 1.307 . S
C133 O125 1.303 . S
C133 O126 1.247 . S
C134 O123 1.253 . S
C134 O124 1.283 . S
C135 O127 1.304 . S
C135 O129 1.272 . S
C136 O128 1.311 . S
C136 O130 1.231 . S
O137 Zn119 1.953 . S
O137 C131 1.298 . S
O138 Zn139 1.953 . S
O138 C154 1.225 . S
Zn139 O138 1.953 . S
Zn139 O140 1.949 . S
Zn139 O146 1.919 . S
Zn139 O151 1.924 . S
O140 Zn139 1.949 . S
O140 Zn141 1.923 . S
O140 Zn142 1.950 . S
O140 Zn143 1.945 . S
Zn141 O140 1.923 . S
Zn141 O144 1.933 . S
Zn141 O147 1.941 . S
Zn141 O148 1.965 . S
Zn142 O140 1.950 . S
Zn142 O149 1.938 . S
Zn142 O150 1.906 . S
Zn142 O160 1.953 . S
Zn143 O140 1.945 . S
Zn143 O145 1.932 . S
Zn143 O152 1.977 . S
Zn143 O153 1.910 . S
O144 Zn141 1.933 . S
O144 C155 1.226 . S
O145 Zn143 1.932 . S
O145 C155 1.307 . S
O146 Zn139 1.919 . S
O146 C157 1.253 . S
O147 Zn141 1.941 . S
O147 C157 1.283 . S
O148 Zn141 1.965 . S
O148 C156 1.303 . S
O149 Zn142 1.938 . S
O149 C156 1.247 . S
O150 Zn142 1.906 . S
O150 C158 1.304 . S
O151 Zn139 1.924 . S
O151 C159 1.302 1_556 S
O152 Zn143 1.977 . S
O152 C158 1.272 . S
O153 Zn143 1.910 . S
O153 C159 1.228 1_556 S
C154 O138 1.225 . S
C154 O160 1.298 . S
C155 O144 1.226 . S
C155 O145 1.307 . S
C156 O148 1.303 . S
C156 O149 1.247 . S
C157 O146 1.253 . S
C157 O147 1.283 . S
C158 O150 1.304 . S
C158 O152 1.272 . S
C159 O151 1.302 1_554 S
C159 O153 1.228 1_554 S
O160 Zn142 1.953 . S
O160 C154 1.298 . S
O161 Zn162 1.953 . S
O161 C177 1.225 . S
Zn162 O161 1.953 . S
Zn162 O163 1.949 . S
Zn162 O169 1.919 . S
Zn162 O174 1.924 . S
O163 Zn162 1.949 . S
O163 Zn164 1.923 . S
O163 Zn165 1.950 . S
O163 Zn166 1.945 . S
Zn164 O163 1.923 . S
Zn164 O167 1.933 . S
Zn164 O170 1.941 . S
Zn164 O171 1.965 . S
Zn165 O163 1.950 . S
Zn165 O172 1.938 . S
Zn165 O173 1.906 . S
Zn165 O183 1.953 . S
Zn166 O163 1.945 . S
Zn166 O168 1.932 . S
Zn166 O175 1.977 . S
Zn166 O176 1.910 . S
O167 Zn164 1.933 . S
O167 C178 1.226 . S
O168 Zn166 1.932 . S
O168 C178 1.307 . S
O169 Zn162 1.919 . S
O169 C180 1.253 . S
O170 Zn164 1.941 . S
O170 C180 1.283 . S
O171 Zn164 1.965 . S
O171 C179 1.303 . S
O172 Zn165 1.938 . S
O172 C179 1.247 . S
O173 Zn165 1.906 . S
O173 C181 1.304 . S
O174 Zn162 1.924 . S
O174 C182 1.311 . S
O175 Zn166 1.977 . S
O175 C181 1.272 . S
O176 Zn166 1.910 . S
O176 C182 1.231 . S
C177 O161 1.225 . S
C177 O183 1.298 . S
C178 O167 1.226 . S
C178 O168 1.307 . S
C179 O171 1.303 . S
C179 O172 1.247 . S
C180 O169 1.253 . S
C180 O170 1.283 . S
C181 O173 1.304 . S
C181 O175 1.272 . S
C182 O174 1.311 . S
C182 O176 1.231 . S
O183 Zn165 1.953 . S
O183 C177 1.298 . S
C184 C185 1.363 . S
C184 C190 1.379 . S
C184 N192 1.356 . S
C185 C184 1.363 . S
C185 C191 1.363 . S
C186 C187 1.363 . S
C186 C191 1.379 . S
C186 N193 1.356 . S
C187 C186 1.363 . S
C187 C190 1.363 . S
N188 C190 1.356 . S
N188 H200 0.984 . S
N188 H201 0.985 . S
N189 C191 1.356 . S
N189 H194 0.984 . S
N189 H195 0.985 . S
C190 C184 1.379 . S
C190 C187 1.363 . S
C190 N188 1.356 . S
C191 C185 1.363 . S
C191 C186 1.379 . S
C191 N189 1.356 . S
N192 C184 1.356 . S
N192 H198 0.984 . S
N192 H199 0.984 . S
N193 C186 1.356 . S
N193 H196 0.984 . S
N193 H197 0.985 . S
H194 N189 0.984 . S
H195 N189 0.985 . S
H196 N193 0.984 . S
H197 N193 0.985 . S
H198 N192 0.984 . S
H199 N192 0.984 . S
H200 N188 0.984 . S
H201 N188 0.985 . S
C202 C203 1.363 . S
C202 C208 1.379 . S
C202 N210 1.356 . S
C203 C202 1.363 . S
C203 C209 1.363 . S
C204 C205 1.363 . S
C204 C209 1.379 . S
C204 N211 1.356 . S
C205 C204 1.363 . S
C205 C208 1.363 . S
N206 C208 1.356 . S
N206 H218 0.984 . S
N206 H219 0.985 . S
N207 C209 1.356 . S
N207 H212 0.984 . S
N207 H213 0.985 . S
C208 C202 1.379 . S
C208 C205 1.363 . S
C208 N206 1.356 . S
C209 C203 1.363 . S
C209 C204 1.379 . S
C209 N207 1.356 . S
N210 C202 1.356 . S
N210 H216 0.984 . S
N210 H217 0.984 . S
N211 C204 1.356 . S
N211 H214 0.984 . S
N211 H215 0.985 . S
H212 N207 0.984 . S
H213 N207 0.985 . S
H214 N211 0.984 . S
H215 N211 0.985 . S
H216 N210 0.984 . S
H217 N210 0.984 . S
H218 N206 0.984 . S
H219 N206 0.985 . S
C220 C221 1.363 . S
C220 C226 1.379 1_455 S
C220 N228 1.356 . S
C221 C220 1.363 . S
C221 C227 1.363 . S
C222 C223 1.363 . S
C222 C227 1.379 1_655 S
C222 N229 1.356 . S
C223 C222 1.363 . S
C223 C226 1.363 . S
N224 C226 1.356 . S
N224 H236 0.984 . S
N224 H237 0.985 . S
N225 C227 1.356 . S
N225 H230 0.984 . S
N225 H231 0.985 . S
C226 C220 1.379 1_655 S
C226 C223 1.363 . S
C226 N224 1.356 . S
C227 C221 1.363 . S
C227 C222 1.379 1_455 S
C227 N225 1.356 . S
N228 C220 1.356 . S
N228 H234 0.984 . S
N228 H235 0.984 . S
N229 C222 1.356 . S
N229 H232 0.984 . S
N229 H233 0.985 . S
H230 N225 0.984 . S
H231 N225 0.985 . S
H232 N229 0.984 . S
H233 N229 0.985 . S
H234 N228 0.984 . S
H235 N228 0.984 . S
H236 N224 0.984 . S
H237 N224 0.985 . S
C238 C239 1.363 . S
C238 C244 1.379 1_455 S
C238 N246 1.356 . S
C239 C238 1.363 . S
C239 C245 1.363 . S
C240 C241 1.363 . S
C240 C245 1.379 1_655 S
C240 N247 1.356 . S
C241 C240 1.363 . S
C241 C244 1.363 . S
N242 C244 1.356 . S
N242 H254 0.984 . S
N242 H255 0.985 . S
N243 C245 1.356 . S
N243 H248 0.984 . S
N243 H249 0.985 . S
C244 C238 1.379 1_655 S
C244 C241 1.363 . S
C244 N242 1.356 . S
C245 C239 1.363 . S
C245 C240 1.379 1_455 S
C245 N243 1.356 . S
N246 C238 1.356 . S
N246 H252 0.984 . S
N246 H253 0.984 . S
N247 C240 1.356 . S
N247 H250 0.984 . S
N247 H251 0.985 . S
H248 N243 0.984 . S
H249 N243 0.985 . S
H250 N247 0.984 . S
H251 N247 0.985 . S
H252 N246 0.984 . S
H253 N246 0.984 . S
H254 N242 0.984 . S
H255 N242 0.985 . S
C256 C257 1.363 1_556 S
C256 C262 1.379 . S
C256 N264 1.356 . S
C257 C256 1.363 1_554 S
C257 C263 1.363 . S
C258 C259 1.363 1_554 S
C258 C263 1.379 . S
C258 N265 1.356 . S
C259 C258 1.363 1_556 S
C259 C262 1.363 . S
N260 C262 1.356 . S
N260 H272 0.984 . S
N260 H273 0.985 . S
N261 C263 1.356 . S
N261 H266 0.984 . S
N261 H267 0.985 . S
C262 C256 1.379 . S
C262 C259 1.363 . S
C262 N260 1.356 . S
C263 C257 1.363 . S
C263 C258 1.379 . S
C263 N261 1.356 . S
N264 C256 1.356 . S
N264 H270 0.984 . S
N264 H271 0.984 . S
N265 C258 1.356 . S
N265 H268 0.984 . S
N265 H269 0.985 . S
H266 N261 0.984 . S
H267 N261 0.985 . S
H268 N265 0.984 . S
H269 N265 0.985 . S
H270 N264 0.984 . S
H271 N264 0.984 . S
H272 N260 0.984 . S
H273 N260 0.985 . S
C274 C275 1.363 . S
C274 C280 1.379 . S
C274 N282 1.356 . S
C275 C274 1.363 . S
C275 C281 1.363 . S
C276 C277 1.363 . S
C276 C281 1.379 . S
C276 N283 1.356 . S
C277 C276 1.363 . S
C277 C280 1.363 . S
N278 C280 1.356 . S
N278 H290 0.984 . S
N278 H291 0.985 . S
N279 C281 1.356 . S
N279 H284 0.984 . S
N279 H285 0.985 . S
C280 C274 1.379 . S
C280 C277 1.363 . S
C280 N278 1.356 . S
C281 C275 1.363 . S
C281 C276 1.379 . S
C281 N279 1.356 . S
N282 C274 1.356 . S
N282 H288 0.984 . S
N282 H289 0.984 . S
N283 C276 1.356 . S
N283 H286 0.984 . S
N283 H287 0.985 . S
H284 N279 0.984 . S
H285 N279 0.985 . S
H286 N283 0.984 . S
H287 N283 0.985 . S
H288 N282 0.984 . S
H289 N282 0.984 . S
H290 N278 0.984 . S
H291 N278 0.985 . S
C292 C293 1.363 . S
C292 C298 1.379 . S
C292 N300 1.356 . S
C293 C292 1.363 . S
C293 C299 1.363 1_554 S
C294 C295 1.363 . S
C294 C299 1.379 . S
C294 N301 1.356 . S
C295 C294 1.363 . S
C295 C298 1.363 1_556 S
N296 C298 1.356 . S
N296 H308 0.984 . S
N296 H309 0.985 . S
N297 C299 1.356 . S
N297 H302 0.984 . S
N297 H303 0.985 . S
C298 C292 1.379 . S
C298 C295 1.363 1_554 S
C298 N296 1.356 . S
C299 C293 1.363 1_556 S
C299 C294 1.379 . S
C299 N297 1.356 . S
N300 C292 1.356 . S
N300 H306 0.984 . S
N300 H307 0.984 . S
N301 C294 1.356 . S
N301 H304 0.984 . S
N301 H305 0.985 . S
H302 N297 0.984 . S
H303 N297 0.985 . S
H304 N301 0.984 . S
H305 N301 0.985 . S
H306 N300 0.984 . S
H307 N300 0.984 . S
H308 N296 0.984 . S
H309 N296 0.985 . S
C310 C311 1.363 . S
C310 C316 1.379 . S
C310 N318 1.356 . S
C311 C310 1.363 . S
C311 C317 1.363 . S
C312 C313 1.363 . S
C312 C317 1.379 . S
C312 N319 1.356 . S
C313 C312 1.363 . S
C313 C316 1.363 . S
N314 C316 1.356 . S
N314 H326 0.984 . S
N314 H327 0.985 . S
N315 C317 1.356 . S
N315 H320 0.984 . S
N315 H321 0.985 . S
C316 C310 1.379 . S
C316 C313 1.363 . S
C316 N314 1.356 . S
C317 C311 1.363 . S
C317 C312 1.379 . S
C317 N315 1.356 . S
N318 C310 1.356 . S
N318 H324 0.984 . S
N318 H325 0.984 . S
N319 C312 1.356 . S
N319 H322 0.984 . S
N319 H323 0.985 . S
H320 N315 0.984 . S
H321 N315 0.985 . S
H322 N319 0.984 . S
H323 N319 0.985 . S
H324 N318 0.984 . S
H325 N318 0.984 . S
H326 N314 0.984 . S
H327 N314 0.985 . S
C328 C329 1.363 1_454 S
C328 C334 1.379 . S
C328 N336 1.356 . S
C329 C328 1.363 1_656 S
C329 C335 1.363 . S
C330 C331 1.363 1_656 S
C330 C335 1.379 . S
C330 N337 1.356 . S
C331 C330 1.363 1_454 S
C331 C334 1.363 . S
N332 C334 1.356 . S
N332 H344 0.984 . S
N332 H345 0.985 . S
N333 C335 1.356 . S
N333 H338 0.984 . S
N333 H339 0.985 . S
C334 C328 1.379 . S
C334 C331 1.363 . S
C334 N332 1.356 . S
C335 C329 1.363 . S
C335 C330 1.379 . S
C335 N333 1.356 . S
N336 C328 1.356 . S
N336 H342 0.984 . S
N336 H343 0.984 1_455 S
N337 C330 1.356 . S
N337 H340 0.984 1_655 S
N337 H341 0.985 . S
H338 N333 0.984 . S
H339 N333 0.985 . S
H340 N337 0.984 1_455 S
H341 N337 0.985 . S
H342 N336 0.984 . S
H343 N336 0.984 1_655 S
H344 N332 0.984 . S
H345 N332 0.985 . S
C346 C347 1.363 1_655 S
C346 C352 1.379 . S
C346 N354 1.356 . S
C347 C346 1.363 1_455 S
C347 C353 1.363 . S
C348 C349 1.363 1_455 S
C348 C353 1.379 . S
C348 N355 1.356 . S
C349 C348 1.363 1_655 S
C349 C352 1.363 . S
N350 C352 1.356 . S
N350 H362 0.984 . S
N350 H363 0.985 . S
N351 C353 1.356 . S
N351 H356 0.984 . S
N351 H357 0.985 . S
C352 C346 1.379 . S
C352 C349 1.363 . S
C352 N350 1.356 . S
C353 C347 1.363 . S
C353 C348 1.379 . S
C353 N351 1.356 . S
N354 C346 1.356 . S
N354 H360 0.984 . S
N354 H361 0.984 . S
N355 C348 1.356 . S
N355 H358 0.984 . S
N355 H359 0.985 . S
H356 N351 0.984 . S
H357 N351 0.985 . S
H358 N355 0.984 . S
H359 N355 0.985 . S
H360 N354 0.984 . S
H361 N354 0.984 . S
H362 N350 0.984 . S
H363 N350 0.985 . S
C364 C365 1.363 1_556 S
C364 C370 1.379 1_565 S
C364 N372 1.356 . S
C365 C364 1.363 1_554 S
C365 C371 1.363 . S
C366 C367 1.363 1_554 S
C366 C371 1.379 1_545 S
C366 N373 1.356 . S
C367 C366 1.363 1_556 S
C367 C370 1.363 . S
N368 C370 1.356 . S
N368 H380 0.984 . S
N368 H381 0.985 . S
N369 C371 1.356 . S
N369 H374 0.984 . S
N369 H375 0.985 . S
C370 C364 1.379 1_545 S
C370 C367 1.363 . S
C370 N368 1.356 . S
C371 C365 1.363 . S
C371 C366 1.379 1_565 S
C371 N369 1.356 . S
N372 C364 1.356 . S
N372 H378 0.984 . S
N372 H379 0.984 . S
N373 C366 1.356 . S
N373 H376 0.984 . S
N373 H377 0.985 . S
H374 N369 0.984 . S
H375 N369 0.985 . S
H376 N373 0.984 . S
H377 N373 0.985 . S
H378 N372 0.984 . S
H379 N372 0.984 . S
H380 N368 0.984 . S
H381 N368 0.985 . S
C382 C383 1.363 . S
C382 C388 1.379 1_565 S
C382 N390 1.356 . S
C383 C382 1.363 . S
C383 C389 1.363 . S
C384 C385 1.363 . S
C384 C389 1.379 1_545 S
C384 N391 1.356 . S
C385 C384 1.363 . S
C385 C388 1.363 . S
N386 C388 1.356 . S
N386 H398 0.984 . S
N386 H399 0.985 . S
N387 C389 1.356 . S
N387 H392 0.984 . S
N387 H393 0.985 . S
C388 C382 1.379 1_545 S
C388 C385 1.363 . S
C388 N386 1.356 . S
C389 C383 1.363 . S
C389 C384 1.379 1_565 S
C389 N387 1.356 . S
N390 C382 1.356 . S
N390 H396 0.984 . S
N390 H397 0.984 . S
N391 C384 1.356 . S
N391 H394 0.984 . S
N391 H395 0.985 . S
H392 N387 0.984 . S
H393 N387 0.985 . S
H394 N391 0.984 . S
H395 N391 0.985 . S
H396 N390 0.984 . S
H397 N390 0.984 . S
H398 N386 0.984 . S
H399 N386 0.985 . S
C400 C401 1.363 . S
C400 C406 1.379 1_455 S
C400 N408 1.356 . S
C401 C400 1.363 . S
C401 C407 1.363 . S
C402 C403 1.363 . S
C402 C407 1.379 1_655 S
C402 N409 1.356 . S
C403 C402 1.363 . S
C403 C406 1.363 . S
N404 C406 1.356 . S
N404 H416 0.984 . S
N404 H417 0.985 . S
N405 C407 1.356 . S
N405 H410 0.984 . S
N405 H411 0.985 . S
C406 C400 1.379 1_655 S
C406 C403 1.363 . S
C406 N404 1.356 . S
C407 C401 1.363 . S
C407 C402 1.379 1_455 S
C407 N405 1.356 . S
N408 C400 1.356 . S
N408 H414 0.984 . S
N408 H415 0.984 . S
N409 C402 1.356 . S
N409 H412 0.984 . S
N409 H413 0.985 . S
H410 N405 0.984 . S
H411 N405 0.985 . S
H412 N409 0.984 . S
H413 N409 0.985 . S
H414 N408 0.984 . S
H415 N408 0.984 . S
H416 N404 0.984 . S
H417 N404 0.985 . S
C418 C419 1.363 . S
C418 C424 1.379 1_455 S
C418 N426 1.356 . S
C419 C418 1.363 . S
C419 C425 1.363 . S
C420 C421 1.363 . S
C420 C425 1.379 1_655 S
C420 N427 1.356 . S
C421 C420 1.363 . S
C421 C424 1.363 . S
N422 C424 1.356 . S
N422 H434 0.984 . S
N422 H435 0.985 . S
N423 C425 1.356 . S
N423 H428 0.984 . S
N423 H429 0.985 . S
C424 C418 1.379 1_655 S
C424 C421 1.363 . S
C424 N422 1.356 . S
C425 C419 1.363 . S
C425 C420 1.379 1_455 S
C425 N423 1.356 . S
N426 C418 1.356 . S
N426 H432 0.984 . S
N426 H433 0.984 . S
N427 C420 1.356 . S
N427 H430 0.984 . S
N427 H431 0.985 . S
H428 N423 0.984 . S
H429 N423 0.985 . S
H430 N427 0.984 . S
H431 N427 0.985 . S
H432 N426 0.984 . S
H433 N426 0.984 . S
H434 N422 0.984 . S
H435 N422 0.985 . S
C436 C437 1.363 . S
C436 C442 1.379 . S
C436 N444 1.356 . S
C437 C436 1.363 . S
C437 C443 1.363 . S
C438 C439 1.363 . S
C438 C443 1.379 . S
C438 N445 1.356 . S
C439 C438 1.363 . S
C439 C442 1.363 . S
N440 C442 1.356 . S
N440 H452 0.984 . S
N440 H453 0.985 . S
N441 C443 1.356 . S
N441 H446 0.984 . S
N441 H447 0.985 . S
C442 C436 1.379 . S
C442 C439 1.363 . S
C442 N440 1.356 . S
C443 C437 1.363 . S
C443 C438 1.379 . S
C443 N441 1.356 . S
N444 C436 1.356 . S
N444 H450 0.984 . S
N444 H451 0.984 . S
N445 C438 1.356 . S
N445 H448 0.984 . S
N445 H449 0.985 . S
H446 N441 0.984 . S
H447 N441 0.985 . S
H448 N445 0.984 . S
H449 N445 0.985 . S
H450 N444 0.984 . S
H451 N444 0.984 . S
H452 N440 0.984 . S
H453 N440 0.985 . S
C454 C455 1.363 . S
C454 C460 1.379 . S
C454 N462 1.356 . S
C455 C454 1.363 . S
C455 C461 1.363 . S
C456 C457 1.363 . S
C456 C461 1.379 . S
C456 N463 1.356 . S
C457 C456 1.363 . S
C457 C460 1.363 . S
N458 C460 1.356 . S
N458 H470 0.984 . S
N458 H471 0.985 . S
N459 C461 1.356 . S
N459 H464 0.984 . S
N459 H465 0.985 . S
C460 C454 1.379 . S
C460 C457 1.363 . S
C460 N458 1.356 . S
C461 C455 1.363 . S
C461 C456 1.379 . S
C461 N459 1.356 . S
N462 C454 1.356 . S
N462 H468 0.984 . S
N462 H469 0.984 . S
N463 C456 1.356 . S
N463 H466 0.984 . S
N463 H467 0.985 . S
H464 N459 0.984 . S
H465 N459 0.985 . S
H466 N463 0.984 . S
H467 N463 0.985 . S
H468 N462 0.984 . S
H469 N462 0.984 . S
H470 N458 0.984 . S
H471 N458 0.985 . S
C472 C473 1.363 . S
C472 C478 1.379 . S
C472 N480 1.356 . S
C473 C472 1.363 . S
C473 C479 1.363 . S
C474 C475 1.363 . S
C474 C479 1.379 . S
C474 N481 1.356 . S
C475 C474 1.363 . S
C475 C478 1.363 . S
N476 C478 1.356 . S
N476 H488 0.984 . S
N476 H489 0.985 . S
N477 C479 1.356 . S
N477 H482 0.984 . S
N477 H483 0.985 . S
C478 C472 1.379 . S
C478 C475 1.363 . S
C478 N476 1.356 . S
C479 C473 1.363 . S
C479 C474 1.379 . S
C479 N477 1.356 . S
N480 C472 1.356 . S
N480 H486 0.984 . S
N480 H487 0.984 . S
N481 C474 1.356 . S
N481 H484 0.984 . S
N481 H485 0.985 . S
H482 N477 0.984 . S
H483 N477 0.985 . S
H484 N481 0.984 . S
H485 N481 0.985 . S
H486 N480 0.984 . S
H487 N480 0.984 . S
H488 N476 0.984 . S
H489 N476 0.985 . S
C490 C491 1.363 . S
C490 C496 1.379 . S
C490 N498 1.356 . S
C491 C490 1.363 . S
C491 C497 1.363 . S
C492 C493 1.363 . S
C492 C497 1.379 . S
C492 N499 1.356 . S
C493 C492 1.363 . S
C493 C496 1.363 . S
N494 C496 1.356 . S
N494 H506 0.984 . S
N494 H507 0.985 . S
N495 C497 1.356 . S
N495 H500 0.984 . S
N495 H501 0.985 . S
C496 C490 1.379 . S
C496 C493 1.363 . S
C496 N494 1.356 . S
C497 C491 1.363 . S
C497 C492 1.379 . S
C497 N495 1.356 . S
N498 C490 1.356 . S
N498 H504 0.984 . S
N498 H505 0.984 . S
N499 C492 1.356 . S
N499 H502 0.984 . S
N499 H503 0.985 . S
H500 N495 0.984 . S
H501 N495 0.985 . S
H502 N499 0.984 . S
H503 N499 0.985 . S
H504 N498 0.984 . S
H505 N498 0.984 . S
H506 N494 0.984 . S
H507 N494 0.985 . S
C508 C509 1.363 . S
C508 C514 1.379 . S
C508 N516 1.356 . S
C509 C508 1.363 . S
C509 C515 1.363 . S
C510 C511 1.363 . S
C510 C515 1.379 . S
C510 N517 1.356 . S
C511 C510 1.363 . S
C511 C514 1.363 . S
N512 C514 1.356 . S
N512 H524 0.984 . S
N512 H525 0.985 . S
N513 C515 1.356 . S
N513 H518 0.984 . S
N513 H519 0.985 . S
C514 C508 1.379 . S
C514 C511 1.363 . S
C514 N512 1.356 . S
C515 C509 1.363 . S
C515 C510 1.379 . S
C515 N513 1.356 . S
N516 C508 1.356 . S
N516 H522 0.984 . S
N516 H523 0.984 . S
N517 C510 1.356 . S
N517 H520 0.984 . S
N517 H521 0.985 . S
H518 N513 0.984 . S
H519 N513 0.985 . S
H520 N517 0.984 . S
H521 N517 0.985 . S
H522 N516 0.984 . S
H523 N516 0.984 . S
H524 N512 0.984 . S
H525 N512 0.985 . S
C526 C527 1.363 . S
C526 C532 1.379 . S
C526 N534 1.356 . S
C527 C526 1.363 . S
C527 C533 1.363 . S
C528 C529 1.363 . S
C528 C533 1.379 . S
C528 N535 1.356 . S
C529 C528 1.363 . S
C529 C532 1.363 . S
N530 C532 1.356 . S
N530 H542 0.984 . S
N530 H543 0.985 . S
N531 C533 1.356 . S
N531 H536 0.984 . S
N531 H537 0.985 . S
C532 C526 1.379 . S
C532 C529 1.363 . S
C532 N530 1.356 . S
C533 C527 1.363 . S
C533 C528 1.379 . S
C533 N531 1.356 . S
N534 C526 1.356 . S
N534 H540 0.984 . S
N534 H541 0.984 . S
N535 C528 1.356 . S
N535 H538 0.984 . S
N535 H539 0.985 . S
H536 N531 0.984 . S
H537 N531 0.985 . S
H538 N535 0.984 . S
H539 N535 0.985 . S
H540 N534 0.984 . S
H541 N534 0.984 . S
H542 N530 0.984 . S
H543 N530 0.985 . S
C544 C545 1.363 1_545 S
C544 C550 1.379 . S
C544 N552 1.356 . S
C545 C544 1.363 1_565 S
C545 C551 1.363 . S
C546 C547 1.363 . S
C546 C551 1.379 . S
C546 N553 1.356 . S
C547 C546 1.363 . S
C547 C550 1.363 1_565 S
N548 C550 1.356 . S
N548 H560 0.984 . S
N548 H561 0.985 . S
N549 C551 1.356 . S
N549 H554 0.984 . S
N549 H555 0.985 . S
C550 C544 1.379 . S
C550 C547 1.363 1_545 S
C550 N548 1.356 . S
C551 C545 1.363 . S
C551 C546 1.379 . S
C551 N549 1.356 . S
N552 C544 1.356 . S
N552 H558 0.984 . S
N552 H559 0.984 . S
N553 C546 1.356 . S
N553 H556 0.984 . S
N553 H557 0.985 . S
H554 N549 0.984 . S
H555 N549 0.985 . S
H556 N553 0.984 . S
H557 N553 0.985 . S
H558 N552 0.984 . S
H559 N552 0.984 . S
H560 N548 0.984 . S
H561 N548 0.985 . S
C562 C563 1.363 . S
C562 C568 1.379 . S
C562 N570 1.356 . S
C563 C562 1.363 . S
C563 C569 1.363 1_565 S
C564 C565 1.363 1_545 S
C564 C569 1.379 . S
C564 N571 1.356 . S
C565 C564 1.363 1_565 S
C565 C568 1.363 . S
N566 C568 1.356 . S
N566 H578 0.984 . S
N566 H579 0.985 . S
N567 C569 1.356 . S
N567 H572 0.984 . S
N567 H573 0.985 . S
C568 C562 1.379 . S
C568 C565 1.363 . S
C568 N566 1.356 . S
C569 C563 1.363 1_545 S
C569 C564 1.379 . S
C569 N567 1.356 . S
N570 C562 1.356 . S
N570 H576 0.984 . S
N570 H577 0.984 . S
N571 C564 1.356 . S
N571 H574 0.984 . S
N571 H575 0.985 . S
H572 N567 0.984 . S
H573 N567 0.985 . S
H574 N571 0.984 . S
H575 N571 0.985 . S
H576 N570 0.984 . S
H577 N570 0.984 . S
H578 N566 0.984 . S
H579 N566 0.985 . S
C580 C581 1.363 1_565 S
C580 C586 1.379 . S
C580 N588 1.356 . S
C581 C580 1.363 1_545 S
C581 C587 1.363 . S
C582 C583 1.363 . S
C582 C587 1.379 . S
C582 N589 1.356 . S
C583 C582 1.363 . S
C583 C586 1.363 1_545 S
N584 C586 1.356 . S
N584 H596 0.984 . S
N584 H597 0.985 . S
N585 C587 1.356 . S
N585 H590 0.984 . S
N585 H591 0.985 . S
C586 C580 1.379 . S
C586 C583 1.363 1_565 S
C586 N584 1.356 . S
C587 C581 1.363 . S
C587 C582 1.379 . S
C587 N585 1.356 . S
N588 C580 1.356 . S
N588 H594 0.984 . S
N588 H595 0.984 . S
N589 C582 1.356 . S
N589 H592 0.984 . S
N589 H593 0.985 . S
H590 N585 0.984 . S
H591 N585 0.985 . S
H592 N589 0.984 . S
H593 N589 0.985 . S
H594 N588 0.984 . S
H595 N588 0.984 . S
H596 N584 0.984 . S
H597 N584 0.985 . S
C598 C599 1.363 . S
C598 C604 1.379 . S
C598 N606 1.356 . S
C599 C598 1.363 . S
C599 C605 1.363 1_545 S
C600 C601 1.363 1_565 S
C600 C605 1.379 . S
C600 N607 1.356 . S
C601 C600 1.363 1_545 S
C601 C604 1.363 . S
N602 C604 1.356 . S
N602 H614 0.984 . S
N602 H615 0.985 . S
N603 C605 1.356 . S
N603 H608 0.984 . S
N603 H609 0.985 . S
C604 C598 1.379 . S
C604 C601 1.363 . S
C604 N602 1.356 . S
C605 C599 1.363 1_565 S
C605 C600 1.379 . S
C605 N603 1.356 . S
N606 C598 1.356 . S
N606 H612 0.984 . S
N606 H613 0.984 . S
N607 C600 1.356 . S
N607 H610 0.984 . S
N607 H611 0.985 . S
H608 N603 0.984 . S
H609 N603 0.985 . S
H610 N607 0.984 . S
H611 N607 0.985 . S
H612 N606 0.984 . S
H613 N606 0.984 . S
H614 N602 0.984 . S
H615 N602 0.985 . S
C185 C40 1.507 . S
C187 C17 1.507 . S
C203 C63 1.507 . S
C205 C86 1.507 . S
C221 C132 1.507 . S
C223 C109 1.507 . S
C239 C155 1.507 . S
C241 C178 1.507 . S
C257 C20 1.430 . S
C259 C158 1.430 . S
C275 C43 1.430 . S
C277 C181 1.430 . S
C293 C112 1.430 . S
C295 C66 1.430 . S
C311 C89 1.430 . S
C313 C135 1.430 . S
C329 C62 1.331 . S
C331 C16 1.331 . S
C347 C85 1.331 . S
C349 C39 1.331 . S
C365 C108 1.331 . S
C367 C154 1.331 . S
C383 C131 1.331 . S
C385 C177 1.331 . S
C401 C18 1.502 . S
C403 C41 1.502 . S
C419 C87 1.502 . S
C421 C64 1.502 . S
C437 C133 1.502 . S
C439 C110 1.502 . S
C455 C179 1.502 . S
C457 C156 1.502 . S
C473 C21 1.675 . S
C475 C88 1.576 . S
C491 C44 1.660 . S
C493 C65 1.576 . S
C509 C42 1.576 . S
C511 C67 1.675 . S
C527 C19 1.576 . S
C529 C90 1.660 . S
C545 C113 1.675 . S
C547 C180 1.576 1_565 S
C563 C157 1.576 1_565 S
C565 C136 1.660 . S
C581 C134 1.576 1_545 S
C583 C159 1.675 . S
C599 C182 1.660 . S
C601 C111 1.576 1_545 S
