# Generated by pormake.
# Topology vmm, (7)-cn, num edge types: 1
# Building blocks:
#     Node 0, Type 0, BuildingBlock: HICVOG_clean_sbu_0, # of connection points: 7
#     Node 1, Type 0, BuildingBlock: HICVOG_clean_sbu_0, # of connection points: 7
#     Node 2, Type 0, BuildingBlock: HICVOG_clean_sbu_0, # of connection points: 7
#     Node 3, Type 0, BuildingBlock: HICVOG_clean_sbu_0, # of connection points: 7
#     Edge 4, Type (0, 0), BuildingBlock: FUNLAD_clean_linker_1, # of connection points: 2
#     Edge 5, Type (0, 0), BuildingBlock: FUNLAD_clean_linker_1, # of connection points: 2
#     Edge 6, Type (0, 0), BuildingBlock: FUNLAD_clean_linker_1, # of connection points: 2
#     Edge 7, Type (0, 0), BuildingBlock: FUNLAD_clean_linker_1, # of connection points: 2
#     Edge 8, Type (0, 0), BuildingBlock: FUNLAD_clean_linker_1, # of connection points: 2
#     Edge 9, Type (0, 0), BuildingBlock: FUNLAD_clean_linker_1, # of connection points: 2
#     Edge 10, Type (0, 0), BuildingBlock: FUNLAD_clean_linker_1, # of connection points: 2
#     Edge 11, Type (0, 0), BuildingBlock: FUNLAD_clean_linker_1, # of connection points: 2
#     Edge 12, Type (0, 0), BuildingBlock: FUNLAD_clean_linker_1, # of connection points: 2
#     Edge 13, Type (0, 0), BuildingBlock: FUNLAD_clean_linker_1, # of connection points: 2
#     Edge 14, Type (0, 0), BuildingBlock: FUNLAD_clean_linker_1, # of connection points: 2
#     Edge 15, Type (0, 0), BuildingBlock: FUNLAD_clean_linker_1, # of connection points: 2
#     Edge 16, Type (0, 0), BuildingBlock: FUNLAD_clean_linker_1, # of connection points: 2
#     Edge 17, Type (0, 0), BuildingBlock: FUNLAD_clean_linker_1, # of connection points: 2
# Relax obj value: 0.084
# Max RMSD: 0.163
# Mean RMSD: 0.163
data_MOF--net-vmm--node1-HICVOG_clean_sbu_0--edge1-FUNLAD_clean_linker_1
_symmetry_space_group_name_H-M    P1
_symmetry_Int_Tables_number       1
_symmetry_cell_setting            triclinic
loop_
_symmetry_equiv_pos_as_xyz
'x, y, z'
_cell_length_a     18.572566
_cell_length_b     45.785019
_cell_length_c     22.907149
_cell_angle_alpha  90.646353
_cell_angle_beta   81.642729
_cell_angle_gamma 90.28878
loop_
_atom_site_label
_atom_site_type_symbol
_atom_site_fract_x
_atom_site_fract_y
_atom_site_fract_z
_atom_type_partial_charge
Zn0 Zn 0.31395 0.11612 0.22516 0.0
C1 C 0.18319 0.08112 0.11825 0.0
N2 N 0.22881 0.05864 0.12033 0.0
C3 C 0.27999 0.06969 0.14961 0.0
N4 N 0.26547 0.09754 0.16614 0.0
N5 N 0.20557 0.10534 0.1453 0.0
C6 C 0.02456 0.13813 0.15625 0.0
O7 O 0.0396 0.12356 0.20207 0.0
O8 O 0.42256 0.11243 0.2054 0.0
Zn9 Zn 0.18029 0.14624 0.13487 0.0
N10 N 0.28536 0.09434 0.29669 0.0
C11 C 0.19014 0.07413 0.36525 0.0
C12 C 0.21312 0.08972 0.31392 0.0
C13 C 0.3358 0.084 0.32874 0.0
N14 N 0.24038 0.06383 0.39733 0.0
C15 C 0.31296 0.06833 0.38053 0.0
O16 O 0.19491 0.17431 0.20224 0.0
C17 C 0.24002 0.17729 0.2389 0.0
O18 O 0.28603 0.15766 0.24589 0.0
H19 H 0.17384 0.09812 0.28787 0.0
H20 H 0.39302 0.08801 0.31409 0.0
C21 C 0.22641 0.18537 0.03758 0.0
C22 C 0.27497 0.19563 0.98887 0.0
C23 C 0.35259 0.1554 0.99821 0.0
C24 C 0.30462 0.14537 0.04617 0.0
N25 N 0.24259 0.16047 0.0651 0.0
N26 N 0.33687 0.18023 0.97104 0.0
H27 H 0.17744 0.19719 0.05455 0.0
C28 C 0.46432 0.13 0.17415 0.0
O29 O 0.43695 0.15284 0.15109 0.0
O30 O 0.07591 0.14965 0.12131 0.0
H31 H 0.31745 0.12586 0.06847 0.0
H32 H 0.13282 0.07026 0.37955 0.0
H33 H 0.40231 0.14368 0.98293 0.0
Zn34 Zn 0.79447 0.63875 0.40918 0.0
C35 C 0.69753 0.56314 0.38223 0.0
N36 N 0.75441 0.55131 0.40322 0.0
C37 C 0.79987 0.57401 0.40562 0.0
N38 N 0.77208 0.59892 0.38726 0.0
N39 N 0.7093 0.59164 0.37014 0.0
C40 C 0.51439 0.62061 0.36079 0.0
O41 O 0.54096 0.63847 0.39766 0.0
O42 O 0.89981 0.64278 0.42072 0.0
Zn43 Zn 0.66626 0.61043 0.30855 0.0
N44 N 0.73412 0.64819 0.48403 0.0
C45 C 0.63766 0.6346 0.55907 0.0
C46 C 0.683 0.62837 0.5066 0.0
C47 C 0.74236 0.67403 0.51267 0.0
N48 N 0.64535 0.66037 0.58729 0.0
C49 C 0.69674 0.68036 0.56612 0.0
O50 O 0.69614 0.65259 0.29234 0.0
C51 C 0.73776 0.67252 0.30796 0.0
O52 O 0.77573 0.66889 0.34929 0.0
H53 H 0.6769 0.6079 0.48405 0.0
H54 H 0.78289 0.68946 0.49322 0.0
C55 C 0.65472 0.57737 0.2014 0.0
C56 C 0.68331 0.56131 0.15041 0.0
C57 C 0.8025 0.56929 0.17364 0.0
C58 C 0.77404 0.58528 0.22369 0.0
N59 N 0.70093 0.58891 0.23673 0.0
N60 N 0.75667 0.55765 0.13849 0.0
H61 H 0.59683 0.58029 0.21383 0.0
C62 C 0.95135 0.63248 0.38388 0.0
O63 O 0.93643 0.61866 0.33646 0.0
O64 O 0.55714 0.60691 0.32177 0.0
H65 H 0.80976 0.59458 0.25236 0.0
H66 H 0.59643 0.61911 0.5772 0.0
H67 H 0.86059 0.56604 0.16286 0.0
Zn68 Zn 0.65737 0.9254 0.82346 0.0
C69 C 0.793 0.97482 0.90432 0.0
N70 N 0.74014 0.99452 0.90278 0.0
C71 C 0.68672 0.97886 0.88407 0.0
N72 N 0.70632 0.95075 0.87367 0.0
N73 N 0.77279 0.94791 0.88753 0.0
C74 C 0.96836 0.91295 0.84767 0.0
O75 O 0.94003 0.907 0.79963 0.0
O76 O 0.54938 0.92094 0.85052 0.0
Zn77 Zn 0.81792 0.9108 0.90177 0.0
N78 N 0.6684 0.94496 0.74846 0.0
C79 C 0.75012 0.96224 0.66643 0.0
C80 C 0.73762 0.9481 0.72049 0.0
C81 C 0.61075 0.95545 0.72467 0.0
N82 N 0.69279 0.97265 0.64252 0.0
C83 C 0.62306 0.96969 0.67008 0.0
O84 O 0.80116 0.87775 0.84536 0.0
C85 C 0.75538 0.86975 0.81207 0.0
O86 O 0.70154 0.88561 0.80447 0.0
H87 H 0.78264 0.93969 0.74029 0.0
H88 H 0.55613 0.95274 0.74797 0.0
C89 C 0.77977 0.86989 0.99684 0.0
C90 C 0.75341 0.86184 0.05517 0.0
C91 C 0.72939 0.91173 0.07967 0.0
C92 C 0.75583 0.9196 0.02193 0.0
N93 N 0.78047 0.89861 0.98157 0.0
N94 N 0.72887 0.88318 0.09494 0.0
H95 H 0.79994 0.85359 0.96399 0.0
C96 C 0.51597 0.91805 0.90264 0.0
O97 O 0.55267 0.91807 0.94748 0.0
O98 O 0.92681 0.91577 0.89661 0.0
H99 H 0.75686 0.9423 1.00952 0.0
H100 H 0.80492 0.96492 0.64359 0.0
H101 H 0.70962 0.92821 0.11222 0.0
Zn102 Zn 0.29106 0.43788 0.74584 0.0
C103 C 0.17795 0.48117 0.64045 0.0
N104 N 0.22864 0.50157 0.64559 0.0
C105 C 0.27872 0.48732 0.67074 0.0
N106 N 0.25775 0.45951 0.68288 0.0
N107 N 0.19539 0.45525 0.66228 0.0
C108 C 0.00099 0.42126 0.67129 0.0
O109 O 0.01311 0.42061 0.72636 0.0
O110 O 0.39948 0.43372 0.73593 0.0
Zn111 Zn 0.15794 0.41685 0.64425 0.0
N112 N 0.26225 0.46089 0.8167 0.0
C113 C 0.16491 0.48317 0.88023 0.0
C114 C 0.1899 0.46615 0.83077 0.0
C115 C 0.31111 0.47186 0.85032 0.0
N116 N 0.21335 0.49418 0.91377 0.0
C117 C 0.28603 0.48897 0.90074 0.0
O118 O 0.16118 0.38616 0.70706 0.0
C119 C 0.19772 0.38061 0.74847 0.0
O120 O 0.24602 0.39808 0.76252 0.0
H121 H 0.15211 0.45731 0.80334 0.0
H122 H 0.36833 0.46759 0.83706 0.0
C123 C 0.19054 0.37839 0.54377 0.0
C124 C 0.23149 0.36781 0.49139 0.0
C125 C 0.31713 0.4061 0.49677 0.0
C126 C 0.27643 0.41643 0.54877 0.0
N127 N 0.21413 0.40236 0.57145 0.0
N128 N 0.29394 0.38209 0.46943 0.0
H129 H 0.14065 0.36763 0.56263 0.0
C130 C 0.44203 0.42708 0.68929 0.0
O131 O 0.41613 0.42238 0.63959 0.0
O132 O 0.0541 0.41982 0.62977 0.0
H133 H 0.29452 0.43552 0.57077 0.0
H134 H 0.10747 0.48768 0.89186 0.0
H135 H 0.36682 0.41708 0.47825 0.0
H136 H 0.56237 0.1057 0.1876 0.0
C137 C 0.54341 0.12536 0.16846 0.0
H138 H 0.57463 0.16571 0.12818 0.0
H139 H 0.85302 0.1603 0.26477 0.0
H140 H 0.77355 0.19052 0.33376 0.0
H141 H 0.64607 0.1989 0.3198 0.0
H142 H 0.59729 0.17708 0.23674 0.0
C143 C 0.5921 0.14531 0.14535 0.0
C144 C 0.67021 0.14171 0.15095 0.0
C145 C 0.69794 0.15478 0.19948 0.0
C146 C 0.77131 0.1499 0.20756 0.0
C147 C 0.79754 0.16312 0.25664 0.0
C148 C 0.75255 0.18057 0.29656 0.0
C149 C 0.68079 0.18529 0.28869 0.0
C150 C 0.65349 0.17261 0.24084 0.0
H151 H 0.93904 0.15456 0.10772 0.0
C152 C 0.94919 0.14077 0.14398 0.0
H153 H 0.90222 0.11375 0.21356 0.0
H154 H 0.63446 0.11469 0.05207 0.0
H155 H 0.7147 0.08543 0.98136 0.0
H156 H 0.84232 0.07722 0.99484 0.0
H157 H 0.89046 0.09777 0.07939 0.0
C158 C 0.89332 0.12706 0.17631 0.0
C159 C 0.81707 0.13231 0.16662 0.0
C160 C 0.78977 0.11975 0.11728 0.0
C161 C 0.71609 0.12445 0.10952 0.0
C162 C 0.68997 0.11171 0.06002 0.0
C163 C 0.73542 0.09492 1.01913 0.0
C164 C 0.80727 0.09023 0.0268 0.0
C165 C 0.83431 0.10228 0.0754 0.0
H166 H 0.41726 0.60304 0.32786 0.0
C167 C 0.43542 0.61762 0.36064 0.0
H168 H 0.40241 0.6476 0.43018 0.0
H169 H 0.13038 0.64744 0.26989 0.0
H170 H 0.2162 0.67176 0.19619 0.0
H171 H 0.34399 0.679 0.21108 0.0
H172 H 0.38685 0.66165 0.29937 0.0
C173 C 0.38598 0.63333 0.39624 0.0
C174 C 0.30741 0.63151 0.38983 0.0
C175 C 0.28284 0.6424 0.33843 0.0
C176 C 0.20882 0.63878 0.33043 0.0
C177 C 0.18603 0.64951 0.27828 0.0
C178 C 0.23466 0.66364 0.23565 0.0
C179 C 0.30661 0.66768 0.24399 0.0
C180 C 0.33064 0.65736 0.29475 0.0
H181 H 0.0374 0.64976 0.43198 0.0
C182 C 0.02689 0.63547 0.39592 0.0
H183 H 0.0724 0.6069 0.32771 0.0
H184 H 0.33642 0.60914 0.49407 0.0
H185 H 0.24948 0.58683 0.57016 0.0
H186 H 0.11998 0.58239 0.55827 0.0
H187 H 0.07726 0.59882 0.46936 0.0
C188 C 0.08214 0.62082 0.36452 0.0
C189 C 0.15885 0.62522 0.37471 0.0
C190 C 0.18275 0.61545 0.4273 0.0
C191 C 0.25727 0.61846 0.43463 0.0
C192 C 0.28028 0.60773 0.48663 0.0
C193 C 0.231 0.59487 0.53063 0.0
C194 C 0.15813 0.59232 0.5239 0.0
C195 C 0.13415 0.60211 0.4727 0.0
H196 H 0.08115 0.9087 0.80298 0.0
C197 C 0.04815 0.91466 0.84452 0.0
H198 H 0.04859 0.92813 0.93294 0.0
H199 H 0.35668 0.87139 0.94457 0.0
H200 H 0.27733 0.84196 1.01376 0.0
H201 H 0.14427 0.8486 0.02671 0.0
H202 H 0.08988 0.88454 0.96999 0.0
C203 C 0.08096 0.92269 0.89084 0.0
C204 C 0.16173 0.92139 0.88758 0.0
C205 C 0.19299 0.90109 0.92288 0.0
C206 C 0.26997 0.89784 0.91664 0.0
C207 C 0.29907 0.87588 0.94945 0.0
C208 C 0.25399 0.85853 0.98892 0.0
C209 C 0.17908 0.86222 0.9961 0.0
C210 C 0.1486 0.88304 0.96332 0.0
H211 H 0.40812 0.92274 0.95724 0.0
C212 C 0.43565 0.91794 0.91302 0.0
H213 H 0.42455 0.908 0.82475 0.0
H214 H 0.12026 0.96489 0.81854 0.0
H215 H 0.19931 0.9938 0.74772 0.0
H216 H 0.33235 0.98724 0.73459 0.0
H217 H 0.38725 0.95237 0.79313 0.0
C218 C 0.39659 0.91263 0.86891 0.0
C219 C 0.31578 0.91563 0.87642 0.0
C220 C 0.28441 0.93601 0.84127 0.0
C221 C 0.20749 0.93925 0.84759 0.0
C222 C 0.17805 0.96072 0.81389 0.0
C223 C 0.22284 0.97764 0.77339 0.0
C224 C 0.29772 0.97395 0.76598 0.0
C225 C 0.3285 0.95365 0.79976 0.0
H226 H 0.9202 0.42599 0.61049 0.0
C227 C 0.92663 0.42344 0.65659 0.0
H228 H 0.87281 0.41952 0.74392 0.0
H229 H 0.58407 0.47957 0.68901 0.0
H230 H 0.62964 0.51607 0.752 0.0
H231 H 0.74994 0.5106 0.78398 0.0
H232 H 0.82615 0.46884 0.75205 0.0
C233 C 0.86735 0.42149 0.69753 0.0
C234 C 0.79283 0.42359 0.68124 0.0
C235 C 0.74848 0.44781 0.70144 0.0
C236 C 0.67787 0.4504 0.68512 0.0
C237 C 0.63654 0.47576 0.70272 0.0
C238 C 0.66239 0.49707 0.7383 0.0
C239 C 0.73014 0.49397 0.75627 0.0
C240 C 0.77324 0.46984 0.7377 0.0
H241 H 0.53695 0.42601 0.73584 0.0
C242 C 0.5204 0.42626 0.6922 0.0
H243 H 0.55642 0.42781 0.60038 0.0
H244 H 0.86114 0.37296 0.63882 0.0
H245 H 0.81376 0.33597 0.57819 0.0
H246 H 0.69111 0.34057 0.55006 0.0
H247 H 0.61505 0.38223 0.58269 0.0
C248 C 0.5715 0.42764 0.64446 0.0
C249 C 0.64989 0.42784 0.65175 0.0
C250 C 0.69459 0.4039 0.63055 0.0
C251 C 0.76593 0.40158 0.64579 0.0
C252 C 0.80773 0.37651 0.62684 0.0
C253 C 0.78088 0.35491 0.59242 0.0
C254 C 0.71177 0.35746 0.5767 0.0
C255 C 0.66871 0.38152 0.59571 0.0
H256 H 0.42438 0.06078 0.40117 0.0
C257 C 0.36688 0.05695 0.4163 0.0
H258 H 0.29037 0.03734 0.48183 0.0
H259 H 0.517 0.94719 0.55672 0.0
H260 H 0.4392 0.9152 0.50833 0.0
H261 H 0.34359 0.93535 0.45625 0.0
H262 H 0.32546 0.98765 0.45204 0.0
C263 C 0.34728 0.0422 0.46665 0.0
C264 C 0.40256 0.03023 0.50097 0.0
C265 C 0.41138 0.99956 0.50419 0.0
C266 C 0.46609 0.98792 0.53475 0.0
C267 C 0.47546 0.95724 0.53522 0.0
C268 C 0.43135 0.9386 0.50735 0.0
C269 C 0.37755 0.94994 0.478 0.0
C270 C 0.36762 0.98003 0.47607 0.0
H271 H 0.5063 0.97779 0.66457 0.0
C272 C 0.56159 0.98113 0.64247 0.0
H273 H 0.62723 0.99965 0.56882 0.0
H274 H 0.39366 0.08989 0.51026 0.0
H275 H 0.4705 0.12186 0.55974 0.0
H276 H 0.56692 0.10173 0.61096 0.0
H277 H 0.58667 0.04943 0.61339 0.0
C278 C 0.57241 0.99525 0.5907 0.0
C279 C 0.51123 1.00699 0.56272 0.0
C280 C 0.5011 0.03761 0.56084 0.0
C281 C 0.44627 0.04925 0.53047 0.0
C282 C 0.43581 0.07989 0.53116 0.0
C283 C 0.47923 0.0985 0.55977 0.0
C284 C 0.53346 0.08716 0.58867 0.0
C285 C 0.54437 0.0571 0.58952 0.0
H286 H 0.31 0.51865 0.97164 0.0
C287 C 0.33426 0.50223 0.94021 0.0
H288 H 0.43067 0.47832 0.91139 0.0
H289 H 0.63221 0.57507 1.00689 0.0
H290 H 0.66417 0.58059 0.90121 0.0
H291 H 0.59768 0.55351 0.83211 0.0
H292 H 0.49875 0.52064 0.86826 0.0
C293 C 0.40383 0.49456 0.94172 0.0
C294 C 0.44728 0.50912 0.98384 0.0
C295 C 0.50639 0.52759 0.962 0.0
C296 C 0.54558 0.54288 1.00193 0.0
C297 C 0.6021 0.56221 0.97873 0.0
C298 C 0.62068 0.56577 0.91809 0.0
C299 C 0.58321 0.55052 0.87917 0.0
C300 C 0.52654 0.53171 0.90057 0.0
H301 H 0.66404 0.53104 0.07888 0.0
C302 C 0.63784 0.5474 0.10952 0.0
H303 H 0.53997 0.57076 0.13553 0.0
H304 H 0.34264 0.4728 0.04062 0.0
H305 H 0.31081 0.46719 0.14631 0.0
H306 H 0.37693 0.49449 0.21547 0.0
H307 H 0.4757 0.52738 0.17929 0.0
C308 C 0.56835 0.5545 0.10612 0.0
C309 C 0.52668 0.53915 0.06375 0.0
C310 C 0.46794 0.5205 0.08556 0.0
C311 C 0.42882 0.50519 0.04564 0.0
C312 C 0.37259 0.48572 0.06881 0.0
C313 C 0.35412 0.4821 0.12945 0.0
C314 C 0.39142 0.49743 0.16839 0.0
C315 C 0.44792 0.5163 0.14698 0.0
H316 H 0.899 0.9658 0.93568 0.0
C317 C 0.85948 0.98238 0.92975 0.0
H318 H 0.82893 0.02679 0.94297 0.0
H319 H 0.00267 0.05592 0.1496 0.0
H320 H 0.88563 0.04467 0.20633 0.0
H321 H 0.78882 1.02117 0.1592 0.0
H322 H 0.808 1.00944 0.05433 0.0
C323 C 0.86935 1.01016 0.9472 0.0
C324 C 0.93142 1.01983 0.97652 0.0
C325 C 0.91937 0.02648 0.03774 0.0
C326 C 0.97557 0.03957 0.06512 0.0
C327 C 0.96209 0.04591 0.12642 0.0
C328 C 0.89506 0.03954 0.1596 0.0
C329 C 0.84045 0.02642 0.13298 0.0
C330 C 0.85211 1.0199 0.07279 0.0
H331 H 0.08577 0.09675 0.08057 0.0
C332 C 0.121 0.07843 0.08494 0.0
H333 H 0.14373 0.03384 0.06422 0.0
H334 H 0.97096 1.01111 0.85769 0.0
H335 H 0.08828 1.02228 0.8009 0.0
H336 H 0.18743 0.0434 0.84907 0.0
H337 H 0.16863 0.05459 0.95413 0.0
C338 C 0.10742 0.05215 0.0615 0.0
C339 C 0.04411 0.0454 0.03131 0.0
C340 C 0.05605 0.03884 0.97007 0.0
C341 C -0.00058 0.02623 0.94249 0.0
C342 C 0.0123 1.02049 0.881 0.0
C343 C 0.07947 0.02677 0.84788 0.0
C344 C 0.13523 0.0387 0.87498 0.0
C345 C 0.12389 0.04482 0.93532 0.0
H346 H 0.08035 0.46963 0.59852 0.0
C347 C 0.11846 0.4867 0.60589 0.0
H348 H 0.15179 0.53042 0.58801 0.0
H349 H 0.00953 0.55208 0.3632 0.0
H350 H 0.13709 0.54857 0.32096 0.0
H351 H 0.22872 0.53168 0.38088 0.0
H352 H 0.19344 0.51837 0.48333 0.0
C353 C 0.11244 0.51332 0.58261 0.0
C354 C 0.05603 0.5207 0.54584 0.0
C355 C 0.07747 0.52769 0.48567 0.0
C356 C 0.02471 0.53706 0.45096 0.0
C357 C 0.0475 0.54445 0.39125 0.0
C358 C 0.12049 0.54258 0.36653 0.0
C359 C 0.17208 0.53312 0.40027 0.0
C360 C 0.15111 0.5256 0.45907 0.0
H361 H 0.8834 0.59002 0.45883 0.0
C362 C 0.86434 0.57144 0.43559 0.0
H363 H 0.87598 0.52642 0.4148 0.0
H364 H -0.00132 0.51311 0.66204 0.0
H365 H 0.87234 0.51762 0.70436 0.0
H366 H 0.77878 0.52967 0.64235 0.0
H367 H 0.81254 0.53964 0.53803 0.0
C368 C 0.89472 0.54501 0.43851 0.0
C369 C 0.95076 0.539 0.47637 0.0
C370 C 0.92929 0.53219 0.53662 0.0
C371 C 0.98237 0.5236 0.57176 0.0
C372 C 0.96037 0.51865 0.63266 0.0
C373 C 0.88775 0.52114 0.65762 0.0
C374 C 0.83528 0.52821 0.62276 0.0
C375 C 0.85545 0.5338 0.56295 0.0
H376 H 0.31175 0.23113 0.92804 0.0
C377 C 0.26431 0.22285 0.95664 0.0
H378 H 0.15187 0.22965 0.98548 0.0
H379 H 0.17343 0.36503 0.92468 0.0
H380 H 0.13786 0.36625 0.03085 0.0
H381 H 0.12913 0.32086 0.08841 0.0
H382 H 0.15632 0.27392 0.0403 0.0
C383 C 0.20079 0.23703 0.95778 0.0
C384 C 0.19719 0.26404 0.92211 0.0
C385 C 0.18141 0.29131 0.95091 0.0
C386 C 0.18722 0.31756 0.9177 0.0
C387 C 0.17094 0.34447 0.94775 0.0
C388 C 0.15024 0.34549 1.00867 0.0
C389 C 0.14537 0.31992 0.0411 0.0
C390 C 0.16099 0.29311 1.01287 0.0
H391 H 0.14043 0.33863 0.76948 0.0
C392 C 0.18347 0.35285 0.78085 0.0
H393 H 0.26464 0.35897 0.83552 0.0
H394 H 0.21431 0.21519 0.85166 0.0
H395 H 0.25095 0.21371 0.74561 0.0
H396 H 0.27261 0.25923 0.68906 0.0
H397 H 0.25608 0.30637 0.73781 0.0
C398 C 0.22293 0.34452 0.82267 0.0
C399 C 0.20921 0.3166 0.85569 0.0
C400 C 0.22233 0.28917 0.82656 0.0
C401 C 0.21407 0.26289 0.85962 0.0
C402 C 0.22331 0.23579 0.82907 0.0
C403 C 0.24378 0.23463 0.76815 0.0
C404 C 0.25566 0.26025 0.7363 0.0
C405 C 0.24537 0.28724 0.7649 0.0
H406 H 0.65238 0.71304 0.6325 0.0
C407 C 0.69978 0.70798 0.60025 0.0
H408 H 0.80633 0.72178 0.56554 0.0
H409 H 0.748 0.85446 0.64058 0.0
H410 H 0.76678 0.85743 0.53386 0.0
H411 H 0.77991 0.8128 0.47198 0.0
H412 H 0.7749 0.76489 0.51645 0.0
C413 C 0.75766 0.72603 0.59676 0.0
C414 C 0.75522 0.75301 0.6345 0.0
C415 C 0.75815 0.78088 0.60791 0.0
C416 C 0.74931 0.80664 0.64369 0.0
C417 C 0.75311 0.83416 0.6157 0.0
C418 C 0.76411 0.83621 0.55442 0.0
C419 C 0.77159 0.81108 0.51959 0.0
C420 C 0.76864 0.7837 0.54573 0.0
H421 H 0.81513 0.82893 0.78497 0.0
C422 C 0.76726 0.84161 0.77955 0.0
H423 H 0.6755 0.84477 0.73542 0.0
H424 H 0.76125 0.70362 0.6999 0.0
H425 H 0.73934 0.70037 0.8066 0.0
H426 H 0.71256 0.74451 0.86853 0.0
H427 H 0.70928 0.79216 0.8243 0.0
C428 C 0.72204 0.83173 0.74271 0.0
C429 C 0.73692 0.80457 0.70615 0.0
C430 C 0.73553 0.77669 0.73283 0.0
C431 C 0.74682 0.751 0.69699 0.0
C432 C 0.74946 0.72365 0.72486 0.0
C433 C 0.73754 0.72149 0.7861 0.0
C434 C 0.72278 0.74635 0.82097 0.0
C435 C 0.72159 0.77366 0.79492 0.0
H436 H 0.77007 0.81405 0.04064 0.0
C437 C 0.7525 0.83079 0.07361 0.0
H438 H 0.71151 0.83929 0.16311 0.0
H439 H 0.57912 0.71776 0.23748 0.0
H440 H 0.46976 0.7455 0.2314 0.0
H441 H 0.47681 0.79448 0.18712 0.0
H442 H 0.59342 0.81608 0.14888 0.0
C443 C 0.73114 0.8229 0.13001 0.0
C444 C 0.72763 0.79183 0.14945 0.0
C445 C 0.65902 0.77922 0.17074 0.0
C446 C 0.65489 0.75074 0.19541 0.0
C447 C 0.58557 0.73909 0.21755 0.0
C448 C 0.52225 0.75481 0.21446 0.0
C449 C 0.52622 0.7824 0.18961 0.0
C450 C 0.59358 0.79458 0.16799 0.0
H451 H 0.77331 0.71842 0.29549 0.0
C452 C 0.74336 0.7009 0.27727 0.0
H453 H 0.68358 0.68842 0.20928 0.0
H454 H 0.86853 0.80964 0.11499 0.0
H455 H 0.97721 0.78065 0.115 0.0
H456 H 0.96922 0.72988 0.1503 0.0
H457 H 0.85246 0.70804 0.18704 0.0
C458 C 0.71454 0.70558 0.22755 0.0
C459 C 0.71939 0.73473 0.19846 0.0
C460 C 0.78783 0.74672 0.1743 0.0
C461 C 0.79213 0.77554 0.15111 0.0
C462 C 0.86162 0.78754 0.13096 0.0
C463 C 0.92462 0.77117 0.13099 0.0
C464 C 0.92014 0.74262 0.15107 0.0
C465 C 0.85275 0.73042 0.17248 0.0
H466 H 0.15348 0.3327 0.47493 0.0
C467 C 0.20735 0.34164 0.46033 0.0
H468 H 0.30398 0.33755 0.3998 0.0
H469 H 0.15775 0.20496 0.38351 0.0
H470 H 0.16083 0.20115 0.48866 0.0
H471 H 0.19821 0.24316 0.54574 0.0
H472 H 0.23066 0.28933 0.49857 0.0
C473 C 0.2506 0.32845 0.41543 0.0
C474 C 0.22705 0.30262 0.38223 0.0
C475 C 0.21143 0.27532 0.4103 0.0
C476 C 0.19432 0.2505 0.37668 0.0
C477 C 0.17461 0.22404 0.40638 0.0
C478 C 0.17563 0.22162 0.46679 0.0
C479 C 0.19633 0.2453 0.49897 0.0
C480 C 0.21427 0.27184 0.4713 0.0
H481 H 0.28408 0.20619 0.30252 0.0
C482 C 0.24069 0.20408 0.27553 0.0
H483 H 0.14817 0.22429 0.25023 0.0
H484 H 0.24814 0.35189 0.31519 0.0
H485 H 0.24985 0.35495 0.2094 0.0
H486 H 0.2288 0.31117 0.15042 0.0
H487 H 0.20415 0.26421 0.19692 0.0
C488 C 0.19109 0.22552 0.27774 0.0
C489 C 0.19758 0.2524 0.31449 0.0
C490 C 0.21152 0.27977 0.28671 0.0
C491 C 0.22563 0.30489 0.32061 0.0
C492 C 0.23866 0.33198 0.29155 0.0
C493 C 0.23949 0.33409 0.23084 0.0
C494 C 0.22739 0.30946 0.19765 0.0
C495 C 0.2134 0.2826 0.22497 0.0
H496 H 0.3981 0.07335 0.13271 0.0
C497 C 0.35392 0.05763 0.1396 0.0
H498 H 0.31979 1.01487 0.1239 0.0
H499 H 0.48416 1.01215 0.86499 0.0
H500 H 0.35768 1.00787 0.85153 0.0
H501 H 0.26006 1.00916 0.9367 0.0
H502 H 0.28784 1.01707 0.03532 0.0
C503 C 0.36457 0.03042 0.11742 0.0
C504 C 0.42431 1.02483 0.06782 0.0
C505 C 0.40658 1.01889 1.01039 0.0
C506 C 0.46276 1.01689 0.9612 0.0
C507 C 0.44366 1.01282 0.90403 0.0
C508 C 0.37122 1.0103 0.89561 0.0
C509 C 0.31628 1.01139 0.94354 0.0
C510 C 0.33329 1.01583 1.00023 0.0
H511 H 0.56872 0.97222 0.90296 0.0
C512 C 0.61068 0.98877 0.89671 0.0
H513 H 0.63824 0.0324 0.91302 0.0
H514 H 0.47684 0.0343 0.17205 0.0
H515 H 0.60282 0.04244 0.18435 0.0
H516 H 0.69986 0.03999 0.09897 0.0
H517 H 0.67267 0.02848 1.00153 0.0
C518 C 0.59618 1.01568 0.91947 0.0
C519 C 0.53638 1.02003 0.96954 0.0
C520 C 0.55409 0.02615 0.02685 0.0
C521 C 0.49798 0.02825 0.07603 0.0
C522 C 0.51713 0.03353 0.1329 0.0
C523 C 0.58928 0.03791 0.14074 0.0
C524 C 0.64401 0.03633 0.09273 0.0
C525 C 0.62724 0.03001 0.03664 0.0
H526 H 0.39735 0.48028 0.66102 0.0
C527 C 0.35584 0.49644 0.65802 0.0
H528 H 0.33139 0.53639 0.62023 0.0
H529 H 0.67547 0.54901 0.51842 0.0
H530 H 0.68926 0.56521 0.61718 0.0
H531 H 0.58844 0.56021 0.69936 0.0
H532 H 0.47253 0.53922 0.68286 0.0
C533 C 0.37301 0.52032 0.6249 0.0
C534 C 0.43644 0.52041 0.57735 0.0
C535 C 0.50432 0.53158 0.58816 0.0
C536 C 0.56253 0.53416 0.5408 0.0
C537 C 0.62943 0.54622 0.55263 0.0
C538 C 0.6382 0.55558 0.60925 0.0
C539 C 0.58133 0.55286 0.65547 0.0
C540 C 0.51511 0.54088 0.64539 0.0
H541 H 0.57777 0.56556 0.39795 0.0
C542 C 0.62363 0.55117 0.39968 0.0
H543 H 0.66093 0.51356 0.43849 0.0
H544 H 0.31269 0.49783 0.54094 0.0
H545 H 0.29782 0.48286 0.44176 0.0
H546 H 0.39921 0.48733 0.35986 0.0
H547 H 0.51649 0.50659 0.37717 0.0
C548 C 0.61471 0.52746 0.43433 0.0
C549 C 0.55253 0.52539 0.48274 0.0
C550 C 0.48473 0.51415 0.47192 0.0
C551 C 0.42644 0.51166 0.51923 0.0
C552 C 0.35899 0.50031 0.507 0.0
C553 C 0.34965 0.49162 0.4501 0.0
C554 C 0.40676 0.49409 0.40401 0.0
C555 C 0.4737 0.50518 0.41453 0.0
loop_
_geom_bond_atom_site_label_1
_geom_bond_atom_site_label_2
_geom_bond_distance
_geom_bond_site_symmetry_2
_ccdc_geom_bond_type
Zn0 N4 2.020 . S
Zn0 O8 2.019 . S
Zn0 N10 2.119 . S
Zn0 O18 1.975 . S
C1 N2 1.334 . S
C1 N5 1.336 . S
N2 C1 1.334 . S
N2 C3 1.334 . S
C3 N2 1.334 . S
C3 N4 1.336 . S
N4 Zn0 2.020 . S
N4 C3 1.336 . S
N4 N5 1.354 . S
N5 C1 1.336 . S
N5 N4 1.354 . S
N5 Zn9 2.020 . S
C6 O7 1.244 1_655 S
C6 O30 1.257 1_655 S
O7 C6 1.244 1_455 S
O8 Zn0 2.019 . S
O8 C28 1.257 . S
Zn9 N5 2.020 . S
Zn9 O16 1.975 . S
Zn9 N25 2.119 . S
Zn9 O30 2.019 . S
N10 Zn0 2.119 . S
N10 C12 1.334 . S
N10 C13 1.328 . S
C11 C12 1.391 . S
C11 N14 1.329 . S
C11 H32 0.930 . S
C12 N10 1.334 . S
C12 C11 1.391 . S
C12 H19 0.930 . S
C13 N10 1.328 . S
C13 C15 1.392 . S
C13 H20 0.930 . S
N14 C11 1.329 . S
N14 C15 1.331 . S
C15 C13 1.392 . S
C15 N14 1.331 . S
O16 Zn9 1.975 . S
O16 C17 1.252 . S
C17 O16 1.252 . S
C17 O18 1.252 . S
O18 Zn0 1.975 . S
O18 C17 1.252 . S
H19 C12 0.930 . S
H20 C13 0.930 . S
C21 C22 1.392 . S
C21 N25 1.328 . S
C21 H27 0.930 . S
C22 C21 1.392 . S
C22 N26 1.331 . S
C23 C24 1.391 . S
C23 N26 1.329 . S
C23 H33 0.930 . S
C24 C23 1.391 . S
C24 N25 1.334 . S
C24 H31 0.930 . S
N25 Zn9 2.119 . S
N25 C21 1.328 . S
N25 C24 1.334 . S
N26 C22 1.331 . S
N26 C23 1.329 . S
H27 C21 0.930 . S
C28 O8 1.257 . S
C28 O29 1.244 . S
O29 C28 1.244 . S
O30 C6 1.257 1_455 S
O30 Zn9 2.019 . S
H31 C24 0.930 . S
H32 C11 0.930 . S
H33 C23 0.930 . S
Zn34 N38 2.020 . S
Zn34 O42 2.019 . S
Zn34 N44 2.119 . S
Zn34 O52 1.975 . S
C35 N36 1.334 . S
C35 N39 1.336 . S
N36 C35 1.334 . S
N36 C37 1.334 . S
C37 N36 1.334 . S
C37 N38 1.336 . S
N38 Zn34 2.020 . S
N38 C37 1.336 . S
N38 N39 1.354 . S
N39 C35 1.336 . S
N39 N38 1.354 . S
N39 Zn43 2.020 . S
C40 O41 1.244 . S
C40 O64 1.257 . S
O41 C40 1.244 . S
O42 Zn34 2.019 . S
O42 C62 1.257 1_655 S
Zn43 N39 2.020 . S
Zn43 O50 1.975 . S
Zn43 N59 2.119 . S
Zn43 O64 2.019 . S
N44 Zn34 2.119 . S
N44 C46 1.334 . S
N44 C47 1.328 . S
C45 C46 1.391 . S
C45 N48 1.329 . S
C45 H66 0.930 . S
C46 N44 1.334 . S
C46 C45 1.391 . S
C46 H53 0.930 . S
C47 N44 1.328 . S
C47 C49 1.392 . S
C47 H54 0.930 . S
N48 C45 1.329 . S
N48 C49 1.331 . S
C49 C47 1.392 . S
C49 N48 1.331 . S
O50 Zn43 1.975 . S
O50 C51 1.252 . S
C51 O50 1.252 . S
C51 O52 1.252 . S
O52 Zn34 1.975 . S
O52 C51 1.252 . S
H53 C46 0.930 . S
H54 C47 0.930 . S
C55 C56 1.392 . S
C55 N59 1.328 . S
C55 H61 0.930 . S
C56 C55 1.392 . S
C56 N60 1.331 . S
C57 C58 1.391 . S
C57 N60 1.329 . S
C57 H67 0.930 . S
C58 C57 1.391 . S
C58 N59 1.334 . S
C58 H65 0.930 . S
N59 Zn43 2.119 . S
N59 C55 1.328 . S
N59 C58 1.334 . S
N60 C56 1.331 . S
N60 C57 1.329 . S
H61 C55 0.930 . S
C62 O42 1.257 1_455 S
C62 O63 1.244 1_455 S
O63 C62 1.244 1_655 S
O64 C40 1.257 . S
O64 Zn43 2.019 . S
H65 C58 0.930 . S
H66 C45 0.930 . S
H67 C57 0.930 . S
Zn68 N72 2.020 . S
Zn68 O76 2.019 . S
Zn68 N78 2.119 . S
Zn68 O86 1.975 . S
C69 N70 1.334 . S
C69 N73 1.336 . S
N70 C69 1.334 . S
N70 C71 1.334 . S
C71 N70 1.334 . S
C71 N72 1.336 . S
N72 Zn68 2.020 . S
N72 C71 1.336 . S
N72 N73 1.354 . S
N73 C69 1.336 . S
N73 N72 1.354 . S
N73 Zn77 2.020 . S
C74 O75 1.244 1_455 S
C74 O98 1.257 1_455 S
O75 C74 1.244 1_655 S
O76 Zn68 2.019 . S
O76 C96 1.257 . S
Zn77 N73 2.020 . S
Zn77 O84 1.975 . S
Zn77 N93 2.119 . S
Zn77 O98 2.019 . S
N78 Zn68 2.119 . S
N78 C80 1.334 . S
N78 C81 1.328 . S
C79 C80 1.391 . S
C79 N82 1.329 . S
C79 H100 0.930 . S
C80 N78 1.334 . S
C80 C79 1.391 . S
C80 H87 0.930 . S
C81 N78 1.328 . S
C81 C83 1.392 . S
C81 H88 0.930 . S
N82 C79 1.329 . S
N82 C83 1.331 . S
C83 C81 1.392 . S
C83 N82 1.331 . S
O84 Zn77 1.975 . S
O84 C85 1.252 . S
C85 O84 1.252 . S
C85 O86 1.252 . S
O86 Zn68 1.975 . S
O86 C85 1.252 . S
H87 C80 0.930 . S
H88 C81 0.930 . S
C89 C90 1.392 . S
C89 N93 1.328 . S
C89 H95 0.930 . S
C90 C89 1.392 . S
C90 N94 1.331 . S
C91 C92 1.391 . S
C91 N94 1.329 . S
C91 H101 0.930 . S
C92 C91 1.391 . S
C92 N93 1.334 . S
C92 H99 0.930 . S
N93 Zn77 2.119 . S
N93 C89 1.328 . S
N93 C92 1.334 . S
N94 C90 1.331 . S
N94 C91 1.329 . S
H95 C89 0.930 . S
C96 O76 1.257 . S
C96 O97 1.244 . S
O97 C96 1.244 . S
O98 C74 1.257 1_655 S
O98 Zn77 2.019 . S
H99 C92 0.930 . S
H100 C79 0.930 . S
H101 C91 0.930 . S
Zn102 N106 2.020 . S
Zn102 O110 2.019 . S
Zn102 N112 2.119 . S
Zn102 O120 1.975 . S
C103 N104 1.334 . S
C103 N107 1.336 . S
N104 C103 1.334 . S
N104 C105 1.334 . S
C105 N104 1.334 . S
C105 N106 1.336 . S
N106 Zn102 2.020 . S
N106 C105 1.336 . S
N106 N107 1.354 . S
N107 C103 1.336 . S
N107 N106 1.354 . S
N107 Zn111 2.020 . S
C108 O109 1.244 1_655 S
C108 O132 1.257 1_655 S
O109 C108 1.244 1_455 S
O110 Zn102 2.019 . S
O110 C130 1.257 . S
Zn111 N107 2.020 . S
Zn111 O118 1.975 . S
Zn111 N127 2.119 . S
Zn111 O132 2.019 . S
N112 Zn102 2.119 . S
N112 C114 1.334 . S
N112 C115 1.328 . S
C113 C114 1.391 . S
C113 N116 1.329 . S
C113 H134 0.930 . S
C114 N112 1.334 . S
C114 C113 1.391 . S
C114 H121 0.930 . S
C115 N112 1.328 . S
C115 C117 1.392 . S
C115 H122 0.930 . S
N116 C113 1.329 . S
N116 C117 1.331 . S
C117 C115 1.392 . S
C117 N116 1.331 . S
O118 Zn111 1.975 . S
O118 C119 1.252 . S
C119 O118 1.252 . S
C119 O120 1.252 . S
O120 Zn102 1.975 . S
O120 C119 1.252 . S
H121 C114 0.930 . S
H122 C115 0.930 . S
C123 C124 1.392 . S
C123 N127 1.328 . S
C123 H129 0.930 . S
C124 C123 1.392 . S
C124 N128 1.331 . S
C125 C126 1.391 . S
C125 N128 1.329 . S
C125 H135 0.930 . S
C126 C125 1.391 . S
C126 N127 1.334 . S
C126 H133 0.930 . S
N127 Zn111 2.119 . S
N127 C123 1.328 . S
N127 C126 1.334 . S
N128 C124 1.331 . S
N128 C125 1.329 . S
H129 C123 0.930 . S
C130 O110 1.257 . S
C130 O131 1.244 . S
O131 C130 1.244 . S
O132 C108 1.257 1_455 S
O132 Zn111 2.019 . S
H133 C126 0.930 . S
H134 C113 0.930 . S
H135 C125 0.930 . S
H136 C137 0.951 . S
C137 H136 0.951 . S
C137 C143 1.265 . S
H138 C143 0.950 . S
H139 C147 0.949 . S
H140 C148 0.950 . S
H141 C149 0.951 . S
H142 C150 0.951 . S
C143 C137 1.265 . S
C143 H138 0.950 . S
C143 C144 1.478 . S
C144 C143 1.478 . S
C144 C145 1.397 . S
C144 C161 1.394 . S
C145 C144 1.397 . S
C145 C146 1.438 . S
C145 C150 1.429 . S
C146 C145 1.438 . S
C146 C147 1.428 . S
C146 C159 1.394 . S
C147 H139 0.949 . S
C147 C146 1.428 . S
C147 C148 1.345 . S
C148 H140 0.950 . S
C148 C147 1.345 . S
C148 C149 1.424 . S
C149 H141 0.951 . S
C149 C148 1.424 . S
C149 C150 1.347 . S
C150 H142 0.951 . S
C150 C145 1.429 . S
C150 C149 1.347 . S
H151 C152 0.951 . S
C152 H151 0.951 . S
C152 C158 1.265 . S
H153 C158 0.950 . S
H154 C162 0.949 . S
H155 C163 0.950 . S
H156 C164 0.951 . S
H157 C165 0.951 . S
C158 C152 1.265 . S
C158 H153 0.950 . S
C158 C159 1.478 . S
C159 C146 1.394 . S
C159 C158 1.478 . S
C159 C160 1.397 . S
C160 C159 1.397 . S
C160 C161 1.438 . S
C160 C165 1.429 . S
C161 C144 1.394 . S
C161 C160 1.438 . S
C161 C162 1.428 . S
C162 H154 0.949 . S
C162 C161 1.428 . S
C162 C163 1.345 . S
C163 H155 0.950 . S
C163 C162 1.345 . S
C163 C164 1.424 . S
C164 H156 0.951 . S
C164 C163 1.424 . S
C164 C165 1.347 . S
C165 H157 0.951 . S
C165 C160 1.429 . S
C165 C164 1.347 . S
H166 C167 0.951 . S
C167 H166 0.951 . S
C167 C173 1.265 . S
H168 C173 0.950 . S
H169 C177 0.949 . S
H170 C178 0.950 . S
H171 C179 0.951 . S
H172 C180 0.951 . S
C173 C167 1.265 . S
C173 H168 0.950 . S
C173 C174 1.478 . S
C174 C173 1.478 . S
C174 C175 1.397 . S
C174 C191 1.394 . S
C175 C174 1.397 . S
C175 C176 1.438 . S
C175 C180 1.429 . S
C176 C175 1.438 . S
C176 C177 1.428 . S
C176 C189 1.394 . S
C177 H169 0.949 . S
C177 C176 1.428 . S
C177 C178 1.345 . S
C178 H170 0.950 . S
C178 C177 1.345 . S
C178 C179 1.424 . S
C179 H171 0.951 . S
C179 C178 1.424 . S
C179 C180 1.347 . S
C180 H172 0.951 . S
C180 C175 1.429 . S
C180 C179 1.347 . S
H181 C182 0.951 . S
C182 H181 0.951 . S
C182 C188 1.265 . S
H183 C188 0.950 . S
H184 C192 0.949 . S
H185 C193 0.950 . S
H186 C194 0.951 . S
H187 C195 0.951 . S
C188 C182 1.265 . S
C188 H183 0.950 . S
C188 C189 1.478 . S
C189 C176 1.394 . S
C189 C188 1.478 . S
C189 C190 1.397 . S
C190 C189 1.397 . S
C190 C191 1.438 . S
C190 C195 1.429 . S
C191 C174 1.394 . S
C191 C190 1.438 . S
C191 C192 1.428 . S
C192 H184 0.949 . S
C192 C191 1.428 . S
C192 C193 1.345 . S
C193 H185 0.950 . S
C193 C192 1.345 . S
C193 C194 1.424 . S
C194 H186 0.951 . S
C194 C193 1.424 . S
C194 C195 1.347 . S
C195 H187 0.951 . S
C195 C190 1.429 . S
C195 C194 1.347 . S
H196 C197 0.951 . S
C197 H196 0.951 . S
C197 C203 1.265 . S
H198 C203 0.950 . S
H199 C207 0.949 . S
H200 C208 0.950 . S
H201 C209 0.951 . S
H202 C210 0.951 . S
C203 C197 1.265 . S
C203 H198 0.950 . S
C203 C204 1.478 . S
C204 C203 1.478 . S
C204 C205 1.397 . S
C204 C221 1.394 . S
C205 C204 1.397 . S
C205 C206 1.438 . S
C205 C210 1.429 . S
C206 C205 1.438 . S
C206 C207 1.428 . S
C206 C219 1.394 . S
C207 H199 0.949 . S
C207 C206 1.428 . S
C207 C208 1.345 . S
C208 H200 0.950 . S
C208 C207 1.345 . S
C208 C209 1.424 . S
C209 H201 0.951 . S
C209 C208 1.424 . S
C209 C210 1.347 . S
C210 H202 0.951 . S
C210 C205 1.429 . S
C210 C209 1.347 . S
H211 C212 0.951 . S
C212 H211 0.951 . S
C212 C218 1.265 . S
H213 C218 0.950 . S
H214 C222 0.949 . S
H215 C223 0.950 . S
H216 C224 0.951 . S
H217 C225 0.951 . S
C218 C212 1.265 . S
C218 H213 0.950 . S
C218 C219 1.478 . S
C219 C206 1.394 . S
C219 C218 1.478 . S
C219 C220 1.397 . S
C220 C219 1.397 . S
C220 C221 1.438 . S
C220 C225 1.429 . S
C221 C204 1.394 . S
C221 C220 1.438 . S
C221 C222 1.428 . S
C222 H214 0.949 . S
C222 C221 1.428 . S
C222 C223 1.345 . S
C223 H215 0.950 . S
C223 C222 1.345 . S
C223 C224 1.424 . S
C224 H216 0.951 . S
C224 C223 1.424 . S
C224 C225 1.347 . S
C225 H217 0.951 . S
C225 C220 1.429 . S
C225 C224 1.347 . S
H226 C227 0.951 . S
C227 H226 0.951 . S
C227 C233 1.265 . S
H228 C233 0.950 . S
H229 C237 0.949 . S
H230 C238 0.950 . S
H231 C239 0.951 . S
H232 C240 0.951 . S
C233 C227 1.265 . S
C233 H228 0.950 . S
C233 C234 1.478 . S
C234 C233 1.478 . S
C234 C235 1.397 . S
C234 C251 1.394 . S
C235 C234 1.397 . S
C235 C236 1.438 . S
C235 C240 1.429 . S
C236 C235 1.438 . S
C236 C237 1.428 . S
C236 C249 1.394 . S
C237 H229 0.949 . S
C237 C236 1.428 . S
C237 C238 1.345 . S
C238 H230 0.950 . S
C238 C237 1.345 . S
C238 C239 1.424 . S
C239 H231 0.951 . S
C239 C238 1.424 . S
C239 C240 1.347 . S
C240 H232 0.951 . S
C240 C235 1.429 . S
C240 C239 1.347 . S
H241 C242 0.951 . S
C242 H241 0.951 . S
C242 C248 1.265 . S
H243 C248 0.950 . S
H244 C252 0.949 . S
H245 C253 0.950 . S
H246 C254 0.951 . S
H247 C255 0.951 . S
C248 C242 1.265 . S
C248 H243 0.950 . S
C248 C249 1.478 . S
C249 C236 1.394 . S
C249 C248 1.478 . S
C249 C250 1.397 . S
C250 C249 1.397 . S
C250 C251 1.438 . S
C250 C255 1.429 . S
C251 C234 1.394 . S
C251 C250 1.438 . S
C251 C252 1.428 . S
C252 H244 0.949 . S
C252 C251 1.428 . S
C252 C253 1.345 . S
C253 H245 0.950 . S
C253 C252 1.345 . S
C253 C254 1.424 . S
C254 H246 0.951 . S
C254 C253 1.424 . S
C254 C255 1.347 . S
C255 H247 0.951 . S
C255 C250 1.429 . S
C255 C254 1.347 . S
H256 C257 0.951 . S
C257 H256 0.951 . S
C257 C263 1.265 . S
H258 C263 0.950 . S
H259 C267 0.949 . S
H260 C268 0.950 . S
H261 C269 0.951 . S
H262 C270 0.951 . S
C263 C257 1.265 . S
C263 H258 0.950 . S
C263 C264 1.478 . S
C264 C263 1.478 . S
C264 C265 1.397 1_545 S
C264 C281 1.394 . S
C265 C264 1.397 1_565 S
C265 C266 1.438 . S
C265 C270 1.429 . S
C266 C265 1.438 . S
C266 C267 1.428 . S
C266 C279 1.394 . S
C267 H259 0.949 . S
C267 C266 1.428 . S
C267 C268 1.345 . S
C268 H260 0.950 . S
C268 C267 1.345 . S
C268 C269 1.424 . S
C269 H261 0.951 . S
C269 C268 1.424 . S
C269 C270 1.347 . S
C270 H262 0.951 . S
C270 C265 1.429 . S
C270 C269 1.347 . S
H271 C272 0.951 . S
C272 H271 0.951 . S
C272 C278 1.265 . S
H273 C278 0.950 . S
H274 C282 0.949 . S
H275 C283 0.950 . S
H276 C284 0.951 . S
H277 C285 0.951 . S
C278 C272 1.265 . S
C278 H273 0.950 . S
C278 C279 1.478 . S
C279 C266 1.394 . S
C279 C278 1.478 . S
C279 C280 1.397 1_565 S
C280 C279 1.397 1_545 S
C280 C281 1.438 . S
C280 C285 1.429 . S
C281 C264 1.394 . S
C281 C280 1.438 . S
C281 C282 1.428 . S
C282 H274 0.949 . S
C282 C281 1.428 . S
C282 C283 1.345 . S
C283 H275 0.950 . S
C283 C282 1.345 . S
C283 C284 1.424 . S
C284 H276 0.951 . S
C284 C283 1.424 . S
C284 C285 1.347 . S
C285 H277 0.951 . S
C285 C280 1.429 . S
C285 C284 1.347 . S
H286 C287 0.951 . S
C287 H286 0.951 . S
C287 C293 1.265 . S
H288 C293 0.950 . S
H289 C297 0.933 1_554 S
H290 C298 0.950 . S
H291 C299 0.951 . S
H292 C300 0.951 . S
C293 C287 1.265 . S
C293 H288 0.950 . S
C293 C294 1.478 . S
C294 C293 1.478 . S
C294 C295 1.397 . S
C294 C311 1.394 1_556 S
C295 C294 1.397 . S
C295 C296 1.438 . S
C295 C300 1.429 . S
C296 C295 1.438 . S
C296 C297 1.428 . S
C296 C309 1.394 1_556 S
C297 H289 0.933 1_556 S
C297 C296 1.428 . S
C297 C298 1.345 . S
C298 H290 0.950 . S
C298 C297 1.345 . S
C298 C299 1.424 . S
C299 H291 0.951 . S
C299 C298 1.424 . S
C299 C300 1.347 . S
C300 H292 0.951 . S
C300 C295 1.429 . S
C300 C299 1.347 . S
H301 C302 0.951 . S
C302 H301 0.951 . S
C302 C308 1.265 . S
H303 C308 0.950 . S
H304 C312 0.933 1_556 S
H305 C313 0.950 . S
H306 C314 0.951 . S
H307 C315 0.951 . S
C308 C302 1.265 . S
C308 H303 0.950 . S
C308 C309 1.478 . S
C309 C296 1.394 1_554 S
C309 C308 1.478 . S
C309 C310 1.397 . S
C310 C309 1.397 . S
C310 C311 1.438 . S
C310 C315 1.429 . S
C311 C294 1.394 1_554 S
C311 C310 1.438 . S
C311 C312 1.428 . S
C312 H304 0.933 1_554 S
C312 C311 1.428 . S
C312 C313 1.345 . S
C313 H305 0.950 . S
C313 C312 1.345 . S
C313 C314 1.424 . S
C314 H306 0.951 . S
C314 C313 1.424 . S
C314 C315 1.347 . S
C315 H307 0.951 . S
C315 C310 1.429 . S
C315 C314 1.347 . S
H316 C317 0.951 . S
C317 H316 0.951 . S
C317 C323 1.265 . S
H318 C323 0.950 . S
H319 C327 0.949 1_455 S
H320 C328 0.950 . S
H321 C329 0.951 . S
H322 C330 0.951 . S
C323 C317 1.265 . S
C323 H318 0.950 . S
C323 C324 1.478 . S
C324 C323 1.478 . S
C324 C325 1.397 1_556 S
C324 C341 1.394 1_655 S
C325 C324 1.397 1_554 S
C325 C326 1.438 1_565 S
C325 C330 1.429 . S
C326 C325 1.438 1_545 S
C326 C327 1.428 . S
C326 C339 1.394 1_655 S
C327 H319 0.949 1_655 S
C327 C326 1.428 . S
C327 C328 1.345 1_545 S
C328 H320 0.950 . S
C328 C327 1.345 1_565 S
C328 C329 1.424 . S
C329 H321 0.951 . S
C329 C328 1.424 . S
C329 C330 1.347 . S
C330 H322 0.951 . S
C330 C325 1.429 . S
C330 C329 1.347 . S
H331 C332 0.951 . S
C332 H331 0.951 . S
C332 C338 1.265 . S
H333 C338 0.950 . S
H334 C342 0.949 1_655 S
H335 C343 0.950 . S
H336 C344 0.951 . S
H337 C345 0.951 . S
C338 C332 1.265 . S
C338 H333 0.950 . S
C338 C339 1.478 . S
C339 C326 1.394 1_455 S
C339 C338 1.478 . S
C339 C340 1.397 1_554 S
C340 C339 1.397 1_556 S
C340 C341 1.438 1_545 S
C340 C345 1.429 . S
C341 C324 1.394 1_455 S
C341 C340 1.438 1_565 S
C341 C342 1.428 . S
C342 H334 0.949 1_455 S
C342 C341 1.428 . S
C342 C343 1.345 1_565 S
C343 H335 0.950 . S
C343 C342 1.345 1_545 S
C343 C344 1.424 . S
C344 H336 0.951 . S
C344 C343 1.424 . S
C344 C345 1.347 . S
C345 H337 0.951 . S
C345 C340 1.429 . S
C345 C344 1.347 . S
H346 C347 0.951 . S
C347 H346 0.951 . S
C347 C353 1.265 . S
H348 C353 0.950 . S
H349 C357 0.949 1_655 S
H350 C358 0.950 . S
H351 C359 0.951 . S
H352 C360 0.951 . S
C353 C347 1.265 . S
C353 H348 0.950 . S
C353 C354 1.478 . S
C354 C353 1.478 . S
C354 C355 1.397 . S
C354 C371 1.394 1_455 S
C355 C354 1.397 . S
C355 C356 1.438 . S
C355 C360 1.429 . S
C356 C355 1.438 . S
C356 C357 1.428 . S
C356 C369 1.394 1_455 S
C357 H349 0.949 1_455 S
C357 C356 1.428 . S
C357 C358 1.345 . S
C358 H350 0.950 . S
C358 C357 1.345 . S
C358 C359 1.424 . S
C359 H351 0.951 . S
C359 C358 1.424 . S
C359 C360 1.347 . S
C360 H352 0.951 . S
C360 C355 1.429 . S
C360 C359 1.347 . S
H361 C362 0.951 . S
C362 H361 0.951 . S
C362 C368 1.265 . S
H363 C368 0.950 . S
H364 C372 0.949 1_455 S
H365 C373 0.950 . S
H366 C374 0.951 . S
H367 C375 0.951 . S
C368 C362 1.265 . S
C368 H363 0.950 . S
C368 C369 1.478 . S
C369 C356 1.394 1_655 S
C369 C368 1.478 . S
C369 C370 1.397 . S
C370 C369 1.397 . S
C370 C371 1.438 . S
C370 C375 1.429 . S
C371 C354 1.394 1_655 S
C371 C370 1.438 . S
C371 C372 1.428 . S
C372 H364 0.949 1_655 S
C372 C371 1.428 . S
C372 C373 1.345 . S
C373 H365 0.950 . S
C373 C372 1.345 . S
C373 C374 1.424 . S
C374 H366 0.951 . S
C374 C373 1.424 . S
C374 C375 1.347 . S
C375 H367 0.951 . S
C375 C370 1.429 . S
C375 C374 1.347 . S
H376 C377 0.951 1_556 S
C377 H376 0.951 1_554 S
C377 C383 1.265 1_554 S
H378 C383 0.950 1_554 S
H379 C387 0.949 . S
H380 C388 0.950 . S
H381 C389 0.951 . S
H382 C390 0.951 . S
C383 C377 1.265 1_556 S
C383 H378 0.950 1_556 S
C383 C384 1.478 . S
C384 C383 1.478 . S
C384 C385 1.397 . S
C384 C401 1.394 . S
C385 C384 1.397 . S
C385 C386 1.438 . S
C385 C390 1.429 1_556 S
C386 C385 1.438 . S
C386 C387 1.428 . S
C386 C399 1.394 . S
C387 H379 0.949 . S
C387 C386 1.428 . S
C387 C388 1.345 . S
C388 H380 0.950 . S
C388 C387 1.345 . S
C388 C389 1.424 1_556 S
C389 H381 0.951 . S
C389 C388 1.424 1_554 S
C389 C390 1.347 . S
C390 H382 0.951 . S
C390 C385 1.429 1_554 S
C390 C389 1.347 . S
H391 C392 0.951 . S
C392 H391 0.951 . S
C392 C398 1.265 . S
H393 C398 0.950 . S
H394 C402 0.949 . S
H395 C403 0.950 . S
H396 C404 0.951 . S
H397 C405 0.951 . S
C398 C392 1.265 . S
C398 H393 0.950 . S
C398 C399 1.478 . S
C399 C386 1.394 . S
C399 C398 1.478 . S
C399 C400 1.397 . S
C400 C399 1.397 . S
C400 C401 1.438 . S
C400 C405 1.429 . S
C401 C384 1.394 . S
C401 C400 1.438 . S
C401 C402 1.428 . S
C402 H394 0.949 . S
C402 C401 1.428 . S
C402 C403 1.345 . S
C403 H395 0.950 . S
C403 C402 1.345 . S
C403 C404 1.424 . S
C404 H396 0.951 . S
C404 C403 1.424 . S
C404 C405 1.347 . S
C405 H397 0.951 . S
C405 C400 1.429 . S
C405 C404 1.347 . S
H406 C407 0.951 . S
C407 H406 0.951 . S
C407 C413 1.265 . S
H408 C413 0.950 . S
H409 C417 0.949 . S
H410 C418 0.950 . S
H411 C419 0.951 . S
H412 C420 0.951 . S
C413 C407 1.265 . S
C413 H408 0.950 . S
C413 C414 1.478 . S
C414 C413 1.478 . S
C414 C415 1.397 . S
C414 C431 1.394 . S
C415 C414 1.397 . S
C415 C416 1.438 . S
C415 C420 1.429 . S
C416 C415 1.438 . S
C416 C417 1.428 . S
C416 C429 1.394 . S
C417 H409 0.949 . S
C417 C416 1.428 . S
C417 C418 1.345 . S
C418 H410 0.950 . S
C418 C417 1.345 . S
C418 C419 1.424 . S
C419 H411 0.951 . S
C419 C418 1.424 . S
C419 C420 1.347 . S
C420 H412 0.951 . S
C420 C415 1.429 . S
C420 C419 1.347 . S
H421 C422 0.951 . S
C422 H421 0.951 . S
C422 C428 1.265 . S
H423 C428 0.950 . S
H424 C432 0.949 . S
H425 C433 0.950 . S
H426 C434 0.951 . S
H427 C435 0.951 . S
C428 C422 1.265 . S
C428 H423 0.950 . S
C428 C429 1.478 . S
C429 C416 1.394 . S
C429 C428 1.478 . S
C429 C430 1.397 . S
C430 C429 1.397 . S
C430 C431 1.438 . S
C430 C435 1.429 . S
C431 C414 1.394 . S
C431 C430 1.438 . S
C431 C432 1.428 . S
C432 H424 0.949 . S
C432 C431 1.428 . S
C432 C433 1.345 . S
C433 H425 0.950 . S
C433 C432 1.345 . S
C433 C434 1.424 . S
C434 H426 0.951 . S
C434 C433 1.424 . S
C434 C435 1.347 . S
C435 H427 0.951 . S
C435 C430 1.429 . S
C435 C434 1.347 . S
H436 C437 0.951 . S
C437 H436 0.951 . S
C437 C443 1.265 1_556 S
H438 C443 0.950 . S
H439 C447 0.949 . S
H440 C448 0.950 . S
H441 C449 0.951 . S
H442 C450 0.951 . S
C443 C437 1.265 1_554 S
C443 H438 0.950 . S
C443 C444 1.478 . S
C444 C443 1.478 . S
C444 C445 1.397 . S
C444 C461 1.394 . S
C445 C444 1.397 . S
C445 C446 1.438 . S
C445 C450 1.429 . S
C446 C445 1.438 . S
C446 C447 1.428 . S
C446 C459 1.394 . S
C447 H439 0.949 . S
C447 C446 1.428 . S
C447 C448 1.345 . S
C448 H440 0.950 . S
C448 C447 1.345 . S
C448 C449 1.424 . S
C449 H441 0.951 . S
C449 C448 1.424 . S
C449 C450 1.347 . S
C450 H442 0.951 . S
C450 C445 1.429 . S
C450 C449 1.347 . S
H451 C452 0.951 . S
C452 H451 0.951 . S
C452 C458 1.265 . S
H453 C458 0.950 . S
H454 C462 0.949 . S
H455 C463 0.950 . S
H456 C464 0.951 . S
H457 C465 0.951 . S
C458 C452 1.265 . S
C458 H453 0.950 . S
C458 C459 1.478 . S
C459 C446 1.394 . S
C459 C458 1.478 . S
C459 C460 1.397 . S
C460 C459 1.397 . S
C460 C461 1.438 . S
C460 C465 1.429 . S
C461 C444 1.394 . S
C461 C460 1.438 . S
C461 C462 1.428 1_554 S
C462 H454 0.949 . S
C462 C461 1.428 1_556 S
C462 C463 1.345 . S
C463 H455 0.950 . S
C463 C462 1.345 . S
C463 C464 1.424 . S
C464 H456 0.951 . S
C464 C463 1.424 . S
C464 C465 1.347 1_556 S
C465 H457 0.951 . S
C465 C460 1.429 . S
C465 C464 1.347 1_554 S
H466 C467 0.951 . S
C467 H466 0.951 . S
C467 C473 1.265 . S
H468 C473 0.950 . S
H469 C477 0.949 . S
H470 C478 0.950 . S
H471 C479 0.951 . S
H472 C480 0.951 . S
C473 C467 1.265 . S
C473 H468 0.950 . S
C473 C474 1.478 . S
C474 C473 1.478 . S
C474 C475 1.397 . S
C474 C491 1.394 . S
C475 C474 1.397 . S
C475 C476 1.438 . S
C475 C480 1.429 . S
C476 C475 1.438 . S
C476 C477 1.428 . S
C476 C489 1.394 . S
C477 H469 0.949 . S
C477 C476 1.428 . S
C477 C478 1.345 . S
C478 H470 0.950 . S
C478 C477 1.345 . S
C478 C479 1.424 . S
C479 H471 0.951 . S
C479 C478 1.424 . S
C479 C480 1.347 . S
C480 H472 0.951 . S
C480 C475 1.429 . S
C480 C479 1.347 . S
H481 C482 0.951 . S
C482 H481 0.951 . S
C482 C488 1.265 . S
H483 C488 0.950 . S
H484 C492 0.949 . S
H485 C493 0.950 . S
H486 C494 0.951 . S
H487 C495 0.951 . S
C488 C482 1.265 . S
C488 H483 0.950 . S
C488 C489 1.478 . S
C489 C476 1.394 . S
C489 C488 1.478 . S
C489 C490 1.397 . S
C490 C489 1.397 . S
C490 C491 1.438 . S
C490 C495 1.429 . S
C491 C474 1.394 . S
C491 C490 1.438 . S
C491 C492 1.428 . S
C492 H484 0.949 . S
C492 C491 1.428 . S
C492 C493 1.345 . S
C493 H485 0.950 . S
C493 C492 1.345 . S
C493 C494 1.424 . S
C494 H486 0.951 . S
C494 C493 1.424 . S
C494 C495 1.347 . S
C495 H487 0.951 . S
C495 C490 1.429 . S
C495 C494 1.347 . S
H496 C497 0.951 . S
C497 H496 0.951 . S
C497 C503 1.265 . S
H498 C503 0.950 . S
H499 C507 0.949 . S
H500 C508 0.950 . S
H501 C509 0.951 . S
H502 C510 0.951 . S
C503 C497 1.265 . S
C503 H498 0.950 . S
C503 C504 1.478 . S
C504 C503 1.478 . S
C504 C505 1.397 1_554 S
C504 C521 1.394 1_545 S
C505 C504 1.397 1_556 S
C505 C506 1.438 . S
C505 C510 1.429 . S
C506 C505 1.438 . S
C506 C507 1.428 . S
C506 C519 1.394 1_545 S
C507 H499 0.949 . S
C507 C506 1.428 . S
C507 C508 1.345 . S
C508 H500 0.950 . S
C508 C507 1.345 . S
C508 C509 1.424 . S
C509 H501 0.951 . S
C509 C508 1.424 . S
C509 C510 1.347 . S
C510 H502 0.951 . S
C510 C505 1.429 . S
C510 C509 1.347 . S
H511 C512 0.951 . S
C512 H511 0.951 . S
C512 C518 1.265 . S
H513 C518 0.950 . S
H514 C522 0.949 . S
H515 C523 0.950 . S
H516 C524 0.951 . S
H517 C525 0.951 . S
C518 C512 1.265 . S
C518 H513 0.950 . S
C518 C519 1.478 . S
C519 C506 1.394 1_565 S
C519 C518 1.478 . S
C519 C520 1.397 1_556 S
C520 C519 1.397 1_554 S
C520 C521 1.438 . S
C520 C525 1.429 . S
C521 C504 1.394 1_565 S
C521 C520 1.438 . S
C521 C522 1.428 . S
C522 H514 0.949 . S
C522 C521 1.428 . S
C522 C523 1.345 . S
C523 H515 0.950 . S
C523 C522 1.345 . S
C523 C524 1.424 . S
C524 H516 0.951 . S
C524 C523 1.424 . S
C524 C525 1.347 . S
C525 H517 0.951 . S
C525 C520 1.429 . S
C525 C524 1.347 . S
H526 C527 0.951 . S
C527 H526 0.951 . S
C527 C533 1.265 . S
H528 C533 0.950 . S
H529 C537 0.949 . S
H530 C538 0.950 . S
H531 C539 0.951 . S
H532 C540 0.951 . S
C533 C527 1.265 . S
C533 H528 0.950 . S
C533 C534 1.478 . S
C534 C533 1.478 . S
C534 C535 1.397 . S
C534 C551 1.394 . S
C535 C534 1.397 . S
C535 C536 1.438 . S
C535 C540 1.429 . S
C536 C535 1.438 . S
C536 C537 1.428 . S
C536 C549 1.394 . S
C537 H529 0.949 . S
C537 C536 1.428 . S
C537 C538 1.345 . S
C538 H530 0.950 . S
C538 C537 1.345 . S
C538 C539 1.424 . S
C539 H531 0.951 . S
C539 C538 1.424 . S
C539 C540 1.347 . S
C540 H532 0.951 . S
C540 C535 1.429 . S
C540 C539 1.347 . S
H541 C542 0.951 . S
C542 H541 0.951 . S
C542 C548 1.265 . S
H543 C548 0.950 . S
H544 C552 0.949 . S
H545 C553 0.950 . S
H546 C554 0.951 . S
H547 C555 0.951 . S
C548 C542 1.265 . S
C548 H543 0.950 . S
C548 C549 1.478 . S
C549 C536 1.394 . S
C549 C548 1.478 . S
C549 C550 1.397 . S
C550 C549 1.397 . S
C550 C551 1.438 . S
C550 C555 1.429 . S
C551 C534 1.394 . S
C551 C550 1.438 . S
C551 C552 1.428 . S
C552 H544 0.949 . S
C552 C551 1.428 . S
C552 C553 1.345 . S
C553 H545 0.950 . S
C553 C552 1.345 . S
C553 C554 1.424 . S
C554 H546 0.951 . S
C554 C553 1.424 . S
C554 C555 1.347 . S
C555 H547 0.951 . S
C555 C550 1.429 . S
C555 C554 1.347 . S
C137 C28 1.046 . S
C152 C6 1.057 . S
C167 C40 1.052 . S
C182 C62 1.068 . S
C197 C74 1.085 . S
C212 C96 1.074 . S
C227 C108 1.014 . S
C242 C130 1.042 . S
C257 C15 1.829 . S
C272 C83 1.829 . S
C287 C117 1.810 . S
C302 C56 1.810 . S
C317 C69 1.991 . S
C332 C1 1.991 . S
C347 C103 1.996 . S
C362 C37 1.996 . S
C377 C22 1.519 . S
C392 C119 1.749 . S
C407 C49 1.510 . S
C422 C85 1.747 . S
C437 C90 1.520 . S
C452 C51 1.749 . S
C467 C124 1.642 . S
C482 C17 1.768 . S
C497 C3 1.507 . S
C512 C71 1.507 . S
C527 C105 1.498 . S
C542 C35 1.498 . S
