# Generated by pormake.
# Topology yfw, (5)-cn, num edge types: 1
# Building blocks:
#     Node 0, Type 0, BuildingBlock: XOMCOT_clean_sbu_1, # of connection points: 5
#     Node 1, Type 0, BuildingBlock: XOMCOT_clean_sbu_1, # of connection points: 5
#     Node 2, Type 0, BuildingBlock: XOMCOT_clean_sbu_1, # of connection points: 5
#     Node 3, Type 0, BuildingBlock: XOMCOT_clean_sbu_1, # of connection points: 5
#     Node 4, Type 0, BuildingBlock: XOMCOT_clean_sbu_1, # of connection points: 5
#     Node 5, Type 0, BuildingBlock: XOMCOT_clean_sbu_1, # of connection points: 5
#     Node 6, Type 0, BuildingBlock: XOMCOT_clean_sbu_1, # of connection points: 5
#     Node 7, Type 0, BuildingBlock: XOMCOT_clean_sbu_1, # of connection points: 5
#     Node 8, Type 0, BuildingBlock: XOMCOT_clean_sbu_1, # of connection points: 5
#     Node 9, Type 0, BuildingBlock: XOMCOT_clean_sbu_1, # of connection points: 5
#     Node 10, Type 0, BuildingBlock: XOMCOT_clean_sbu_1, # of connection points: 5
#     Node 11, Type 0, BuildingBlock: XOMCOT_clean_sbu_1, # of connection points: 5
#     Node 12, Type 0, BuildingBlock: XOMCOT_clean_sbu_1, # of connection points: 5
#     Node 13, Type 0, BuildingBlock: XOMCOT_clean_sbu_1, # of connection points: 5
#     Node 14, Type 0, BuildingBlock: XOMCOT_clean_sbu_1, # of connection points: 5
#     Node 15, Type 0, BuildingBlock: XOMCOT_clean_sbu_1, # of connection points: 5
#     Edge 16, Type (0, 0), BuildingBlock: XIVTED_clean_linker_0, # of connection points: 2
#     Edge 17, Type (0, 0), BuildingBlock: XIVTED_clean_linker_0, # of connection points: 2
#     Edge 18, Type (0, 0), BuildingBlock: XIVTED_clean_linker_0, # of connection points: 2
#     Edge 19, Type (0, 0), BuildingBlock: XIVTED_clean_linker_0, # of connection points: 2
#     Edge 20, Type (0, 0), BuildingBlock: XIVTED_clean_linker_0, # of connection points: 2
#     Edge 21, Type (0, 0), BuildingBlock: XIVTED_clean_linker_0, # of connection points: 2
#     Edge 22, Type (0, 0), BuildingBlock: XIVTED_clean_linker_0, # of connection points: 2
#     Edge 23, Type (0, 0), BuildingBlock: XIVTED_clean_linker_0, # of connection points: 2
#     Edge 24, Type (0, 0), BuildingBlock: XIVTED_clean_linker_0, # of connection points: 2
#     Edge 25, Type (0, 0), BuildingBlock: XIVTED_clean_linker_0, # of connection points: 2
#     Edge 26, Type (0, 0), BuildingBlock: XIVTED_clean_linker_0, # of connection points: 2
#     Edge 27, Type (0, 0), BuildingBlock: XIVTED_clean_linker_0, # of connection points: 2
#     Edge 28, Type (0, 0), BuildingBlock: XIVTED_clean_linker_0, # of connection points: 2
#     Edge 29, Type (0, 0), BuildingBlock: XIVTED_clean_linker_0, # of connection points: 2
#     Edge 30, Type (0, 0), BuildingBlock: XIVTED_clean_linker_0, # of connection points: 2
#     Edge 31, Type (0, 0), BuildingBlock: XIVTED_clean_linker_0, # of connection points: 2
#     Edge 32, Type (0, 0), BuildingBlock: XIVTED_clean_linker_0, # of connection points: 2
#     Edge 33, Type (0, 0), BuildingBlock: XIVTED_clean_linker_0, # of connection points: 2
#     Edge 34, Type (0, 0), BuildingBlock: XIVTED_clean_linker_0, # of connection points: 2
#     Edge 35, Type (0, 0), BuildingBlock: XIVTED_clean_linker_0, # of connection points: 2
#     Edge 36, Type (0, 0), BuildingBlock: XIVTED_clean_linker_0, # of connection points: 2
#     Edge 37, Type (0, 0), BuildingBlock: XIVTED_clean_linker_0, # of connection points: 2
#     Edge 38, Type (0, 0), BuildingBlock: XIVTED_clean_linker_0, # of connection points: 2
#     Edge 39, Type (0, 0), BuildingBlock: XIVTED_clean_linker_0, # of connection points: 2
#     Edge 40, Type (0, 0), BuildingBlock: XIVTED_clean_linker_0, # of connection points: 2
#     Edge 41, Type (0, 0), BuildingBlock: XIVTED_clean_linker_0, # of connection points: 2
#     Edge 42, Type (0, 0), BuildingBlock: XIVTED_clean_linker_0, # of connection points: 2
#     Edge 43, Type (0, 0), BuildingBlock: XIVTED_clean_linker_0, # of connection points: 2
#     Edge 44, Type (0, 0), BuildingBlock: XIVTED_clean_linker_0, # of connection points: 2
#     Edge 45, Type (0, 0), BuildingBlock: XIVTED_clean_linker_0, # of connection points: 2
#     Edge 46, Type (0, 0), BuildingBlock: XIVTED_clean_linker_0, # of connection points: 2
#     Edge 47, Type (0, 0), BuildingBlock: XIVTED_clean_linker_0, # of connection points: 2
#     Edge 48, Type (0, 0), BuildingBlock: XIVTED_clean_linker_0, # of connection points: 2
#     Edge 49, Type (0, 0), BuildingBlock: XIVTED_clean_linker_0, # of connection points: 2
#     Edge 50, Type (0, 0), BuildingBlock: XIVTED_clean_linker_0, # of connection points: 2
#     Edge 51, Type (0, 0), BuildingBlock: XIVTED_clean_linker_0, # of connection points: 2
#     Edge 52, Type (0, 0), BuildingBlock: XIVTED_clean_linker_0, # of connection points: 2
#     Edge 53, Type (0, 0), BuildingBlock: XIVTED_clean_linker_0, # of connection points: 2
#     Edge 54, Type (0, 0), BuildingBlock: XIVTED_clean_linker_0, # of connection points: 2
#     Edge 55, Type (0, 0), BuildingBlock: XIVTED_clean_linker_0, # of connection points: 2
# Relax obj value: 0.116
# Max RMSD: 0.159
# Mean RMSD: 0.159
data_MOF--net-yfw--node1-XOMCOT_clean_sbu_1--edge1-XIVTED_clean_linker_0
_symmetry_space_group_name_H-M    P1
_symmetry_Int_Tables_number       1
_symmetry_cell_setting            triclinic
loop_
_symmetry_equiv_pos_as_xyz
'x, y, z'
_cell_length_a     57.697803
_cell_length_b     57.608021
_cell_length_c     25.113158
_cell_angle_alpha  89.973462
_cell_angle_beta   89.995981
_cell_angle_gamma 89.98846
loop_
_atom_site_label
_atom_site_type_symbol
_atom_site_fract_x
_atom_site_fract_y
_atom_site_fract_z
_atom_type_partial_charge
C0 C 0.09787 0.08951 0.97228 0.0
C1 C 0.07574 0.08063 0.96849 0.0
N2 N 0.07582 0.05881 0.98809 0.0
N3 N 0.11175 0.07346 0.99472 0.0
C4 C 0.09791 0.05497 1.00363 0.0
H5 H 0.1036 0.10636 0.95857 0.0
Co6 Co 0.14366 0.07495 1.00472 0.0
C7 C 0.14882 0.0586 0.11571 0.0
O8 O 0.16165 0.07701 0.12518 0.0
N9 N 0.17645 0.07539 0.0123 0.0
C10 C 0.21202 0.06117 0.02426 0.0
C11 C 0.18903 0.05835 0.03559 0.0
C12 C 0.19249 0.08767 0.98442 0.0
N13 N 0.21427 0.07948 0.99149 0.0
O14 O 0.14687 0.04846 0.95962 0.0
H15 H 0.18205 0.04334 0.05566 0.0
H16 H 0.18817 0.10078 0.95528 0.0
O17 O 0.14069 0.05522 0.06883 0.0
C18 C 0.14938 0.05579 0.9121 0.0
O19 O 0.1501 0.07833 0.90416 0.0
N20 N 0.13967 0.10255 0.04531 0.0
C21 C 0.12744 0.14558 0.0891 0.0
C22 C 0.11733 0.12499 0.10774 0.0
C23 C 0.12335 0.10378 0.08476 0.0
C24 C 0.14969 0.12244 0.02685 0.0
C25 C 0.14415 0.14406 0.04876 0.0
H26 H 0.11394 0.08847 0.09699 0.0
H27 H 0.16081 0.12199 0.99253 0.0
H28 H 0.1041 0.03885 0.02052 0.0
H29 H 0.06098 0.08933 0.95094 0.0
H30 H 0.22583 0.04972 0.03686 0.0
H31 H 0.10419 0.1253 0.13853 0.0
H32 H 0.15178 0.15957 0.0318 0.0
C33 C 0.89869 0.59402 0.2227 0.0
C34 C 0.90746 0.57187 0.21797 0.0
N35 N 0.92924 0.57171 0.23752 0.0
N36 N 0.91476 0.60768 0.24569 0.0
C37 C 0.93316 0.59368 0.25408 0.0
H38 H 0.88195 0.59998 0.20887 0.0
Co39 Co 0.91355 0.63968 0.25548 0.0
C40 C 0.92849 0.64369 0.36837 0.0
O41 O 0.90983 0.65609 0.37811 0.0
N42 N 0.91323 0.67246 0.26256 0.0
C43 C 0.92403 0.70881 0.28046 0.0
C44 C 0.92792 0.68583 0.29131 0.0
C45 C 0.90179 0.68798 0.23156 0.0
N46 N 0.90756 0.71019 0.24283 0.0
O47 O 0.94073 0.64252 0.21241 0.0
H48 H 0.94193 0.67959 0.31583 0.0
H49 H 0.89019 0.68311 0.19964 0.0
O50 O 0.93249 0.63649 0.3209 0.0
C51 C 0.93573 0.64131 0.16305 0.0
O52 O 0.91378 0.63981 0.14946 0.0
N53 N 0.88543 0.63609 0.29468 0.0
C54 C 0.84225 0.62703 0.34188 0.0
C55 C 0.8621 0.61463 0.35721 0.0
C56 C 0.88337 0.61924 0.33286 0.0
C57 C 0.86615 0.64778 0.27823 0.0
C58 C 0.84459 0.64391 0.30196 0.0
H59 H 0.89814 0.60872 0.34378 0.0
H60 H 0.86697 0.6595 0.24504 0.0
H61 H 0.94933 0.59971 0.27091 0.0
H62 H 0.89879 0.5573 0.19948 0.0
H63 H 0.93367 0.72335 0.29646 0.0
H64 H 0.86116 0.60081 0.38635 0.0
H65 H 0.82982 0.65384 0.28825 0.0
C66 C 0.39514 0.41259 0.45281 0.0
C67 C 0.41708 0.42178 0.45279 0.0
N68 N 0.41665 0.44196 0.47992 0.0
N69 N 0.38088 0.42679 0.48007 0.0
C70 C 0.3944 0.44468 0.49578 0.0
H71 H 0.38982 0.39652 0.43423 0.0
Co72 Co 0.34957 0.42056 0.48996 0.0
C73 C 0.34255 0.4376 0.60252 0.0
O74 O 0.33586 0.41683 0.61709 0.0
N75 N 0.31718 0.41381 0.49839 0.0
C76 C 0.28371 0.39829 0.52544 0.0
C77 C 0.30698 0.39977 0.53486 0.0
C78 C 0.29928 0.42016 0.4663 0.0
N79 N 0.27879 0.41104 0.48222 0.0
O80 O 0.34248 0.44657 0.44422 0.0
H81 H 0.31576 0.38968 0.56482 0.0
H82 H 0.30115 0.43083 0.43119 0.0
O83 O 0.34874 0.44125 0.55409 0.0
C84 C 0.34485 0.44082 0.39534 0.0
O85 O 0.34921 0.41894 0.38439 0.0
N86 N 0.35802 0.39388 0.52902 0.0
C87 C 0.37301 0.35157 0.57173 0.0
C88 C 0.38115 0.37278 0.5922 0.0
C89 C 0.3737 0.39373 0.56977 0.0
C90 C 0.35107 0.37349 0.50659 0.0
C91 C 0.35775 0.35222 0.5282 0.0
H92 H 0.38095 0.40983 0.58431 0.0
H93 H 0.34007 0.37375 0.4717 0.0
H94 H 0.38813 0.45925 0.51885 0.0
H95 H 0.4321 0.41432 0.43347 0.0
H96 H 0.27157 0.38742 0.54689 0.0
H97 H 0.39371 0.37325 0.62419 0.0
H98 H 0.35097 0.33648 0.51064 0.0
C99 C 0.58439 0.90441 0.69137 0.0
C100 C 0.57418 0.92577 0.68444 0.0
N101 N 0.55528 0.9268 0.7158 0.0
N102 N 0.5719 0.892 0.72672 0.0
C103 C 0.55425 0.90612 0.74103 0.0
H104 H 0.59964 0.89804 0.67101 0.0
Co105 Co 0.57739 0.86092 0.74316 0.0
C106 C 0.56273 0.86434 0.8596 0.0
O107 O 0.58427 0.86468 0.87609 0.0
N108 N 0.58251 0.82901 0.7582 0.0
C109 C 0.59214 0.79574 0.79763 0.0
C110 C 0.58954 0.81918 0.80433 0.0
C111 C 0.58112 0.81089 0.7239 0.0
N112 N 0.58682 0.79042 0.74695 0.0
O113 O 0.55033 0.85314 0.7019 0.0
H114 H 0.59394 0.82829 0.84016 0.0
H115 H 0.57628 0.81268 0.68258 0.0
O116 O 0.55818 0.86326 0.80953 0.0
C117 C 0.55584 0.85327 0.65257 0.0
O118 O 0.57782 0.85595 0.6402 0.0
N119 N 0.60559 0.86943 0.7773 0.0
C120 C 0.64943 0.88295 0.81368 0.0
C121 C 0.62976 0.89642 0.82481 0.0
C122 C 0.60813 0.88963 0.80536 0.0
C123 C 0.6248 0.85688 0.76368 0.0
C124 C 0.64674 0.863 0.78242 0.0
H125 H 0.59328 0.90046 0.81382 0.0
H126 H 0.62333 0.84224 0.73701 0.0
H127 H 0.54038 0.90104 0.7676 0.0
H128 H 0.58003 0.93943 0.65802 0.0
H129 H 0.59851 0.78376 0.82742 0.0
H130 H 0.63101 0.91209 0.84843 0.0
H131 H 0.66157 0.85262 0.77095 0.0
C132 C 0.9271 0.09385 0.45286 0.0
C133 C 0.94807 0.08263 0.45382 0.0
N134 N 0.94524 0.06213 0.47884 0.0
N135 N 0.91115 0.08059 0.47753 0.0
C136 C 0.92263 0.06127 0.49262 0.0
H137 H 0.92356 0.11042 0.43436 0.0
Co138 Co 0.88024 0.08831 0.48302 0.0
C139 C 0.86386 0.06915 0.58621 0.0
O140 O 0.8508 0.08758 0.59271 0.0
N141 N 0.8483 0.09649 0.48676 0.0
C142 C 0.81457 0.11448 0.50047 0.0
C143 C 0.83818 0.11625 0.50469 0.0
C144 C 0.83013 0.08311 0.47154 0.0
N145 N 0.80955 0.09365 0.47953 0.0
O146 O 0.87311 0.06343 0.43525 0.0
H147 H 0.84691 0.13104 0.52151 0.0
H148 H 0.83179 0.06578 0.4555 0.0
O149 O 0.87655 0.06732 0.54453 0.0
C150 C 0.8758 0.06897 0.38652 0.0
O151 O 0.88181 0.09041 0.37513 0.0
N152 N 0.88885 0.11351 0.52581 0.0
C153 C 0.9029 0.1541 0.57654 0.0
C154 C 0.90401 0.1327 0.60306 0.0
C155 C 0.89747 0.11245 0.57644 0.0
C156 C 0.88951 0.13386 0.49817 0.0
C157 C 0.89608 0.15444 0.52297 0.0
H158 H 0.89982 0.09605 0.59641 0.0
H159 H 0.8841 0.13414 0.45692 0.0
H160 H 0.91453 0.04682 0.51288 0.0
H161 H 0.96398 0.0888 0.43593 0.0
H162 H 0.80207 0.12771 0.51109 0.0
H163 H 0.91011 0.13161 0.64377 0.0
H164 H 0.89513 0.17054 0.5008 0.0
C165 C 0.90471 0.4277 0.67448 0.0
C166 C 0.91822 0.44731 0.67268 0.0
N167 N 0.93651 0.44399 0.70505 0.0
N168 N 0.91459 0.41215 0.70753 0.0
C169 C 0.93394 0.42258 0.7258 0.0
H170 H 0.88906 0.4246 0.65187 0.0
Co171 Co 0.90391 0.38233 0.71578 0.0
C172 C 0.92159 0.36538 0.81965 0.0
O173 O 0.90167 0.35489 0.8274 0.0
N174 N 0.89275 0.35144 0.72216 0.0
C175 C 0.87178 0.31944 0.73571 0.0
C176 C 0.87172 0.34324 0.73722 0.0
C177 C 0.90516 0.332 0.71166 0.0
N178 N 0.89281 0.31242 0.71947 0.0
O179 O 0.92759 0.37215 0.66753 0.0
H180 H 0.85705 0.35343 0.74954 0.0
H181 H 0.92307 0.33207 0.69903 0.0
O182 O 0.92484 0.37715 0.77695 0.0
C183 C 0.92167 0.37347 0.61873 0.0
O184 O 0.90031 0.37968 0.60741 0.0
N185 N 0.88013 0.3941 0.75888 0.0
C186 C 0.84178 0.41214 0.81211 0.0
C187 C 0.86375 0.41226 0.8361 0.0
C188 C 0.88285 0.40362 0.80829 0.0
C189 C 0.85956 0.39637 0.73279 0.0
C190 C 0.83999 0.40475 0.75903 0.0
H191 H 0.89973 0.40495 0.82646 0.0
H192 H 0.85813 0.39051 0.69199 0.0
H193 H 0.94649 0.41432 0.75162 0.0
H194 H 0.9151 0.46266 0.64884 0.0
H195 H 0.85724 0.30821 0.74455 0.0
H196 H 0.86619 0.41896 0.87599 0.0
H197 H 0.82351 0.40457 0.73844 0.0
C198 C 0.57295 0.39828 0.97285 0.0
C199 C 0.55119 0.40772 0.97749 0.0
N200 N 0.55308 0.42809 1.00347 0.0
N201 N 0.58842 0.41256 0.99609 0.0
C202 C 0.57587 0.43066 0.01408 0.0
H203 H 0.5773 0.38212 0.9534 0.0
Co204 Co 0.61983 0.40688 1.00007 0.0
C205 C 0.63444 0.42576 0.10538 0.0
O206 O 0.6474 0.40737 0.1131 0.0
N207 N 0.65232 0.40066 1.00272 0.0
C208 C 0.68701 0.38492 0.0184 0.0
C209 C 0.66363 0.38262 0.02578 0.0
C210 C 0.66962 0.41353 0.98108 0.0
N211 N 0.69077 0.40435 0.99024 0.0
O212 O 0.62507 0.43274 0.95313 0.0
H213 H 0.65583 0.3688 0.04853 0.0
H214 H 0.66698 0.4295 0.95932 0.0
O215 O 0.62254 0.4276 0.0625 0.0
C216 C 0.62162 0.42795 0.90418 0.0
O217 O 0.61599 0.40654 0.89154 0.0
N218 N 0.61301 0.38078 0.04173 0.0
C219 C 0.59988 0.33927 0.09001 0.0
C220 C 0.59662 0.36052 0.11621 0.0
C221 C 0.60281 0.38118 0.09082 0.0
C222 C 0.61482 0.36044 0.01434 0.0
C223 C 0.60878 0.33943 0.03806 0.0
H224 H 0.59871 0.3974 0.11009 0.0
H225 H 0.62143 0.36059 0.97402 0.0
H226 H 0.5833 0.44542 0.03449 0.0
H227 H 0.53534 0.40049 0.96153 0.0
H228 H 0.70022 0.37295 0.03198 0.0
H229 H 0.58889 0.36121 0.15548 0.0
H230 H 0.61145 0.32347 0.01615 0.0
C231 C 0.59257 0.0647 0.19197 0.0
C232 C 0.58034 0.04441 0.18738 0.0
N233 N 0.56075 0.04653 0.21604 0.0
N234 N 0.5807 0.07954 0.22322 0.0
C235 C 0.56134 0.06798 0.23758 0.0
H236 H 0.60874 0.06876 0.17226 0.0
Co237 Co 0.59001 0.10979 0.23291 0.0
C238 C 0.57295 0.12426 0.33917 0.0
O239 O 0.59306 0.13426 0.34738 0.0
N240 N 0.60005 0.1412 0.24059 0.0
C241 C 0.62011 0.17344 0.25819 0.0
C242 C 0.61997 0.14972 0.26161 0.0
C243 C 0.58851 0.16048 0.22451 0.0
N244 N 0.60034 0.1802 0.23469 0.0
O245 O 0.56542 0.11945 0.18641 0.0
H246 H 0.63357 0.13977 0.2801 0.0
H247 H 0.57163 0.16027 0.20588 0.0
O248 O 0.56932 0.11335 0.29543 0.0
C249 C 0.5707 0.11804 0.1372 0.0
O250 O 0.59191 0.11185 0.12445 0.0
N251 N 0.61476 0.0986 0.27388 0.0
C252 C 0.65453 0.08168 0.32324 0.0
C253 C 0.63286 0.07981 0.34826 0.0
C254 C 0.61302 0.08784 0.32221 0.0
C255 C 0.63523 0.09831 0.24683 0.0
C256 C 0.65544 0.0904 0.27114 0.0
H257 H 0.59639 0.08519 0.34084 0.0
H258 H 0.63597 0.10528 0.20685 0.0
H259 H 0.54745 0.07548 0.26088 0.0
H260 H 0.58517 0.02941 0.16389 0.0
H261 H 0.63397 0.18481 0.27099 0.0
H262 H 0.63126 0.07219 0.38752 0.0
H263 H 0.67172 0.09196 0.24998 0.0
C264 C 0.57461 0.57867 0.47781 0.0
C265 C 0.55202 0.57102 0.47896 0.0
N266 N 0.55182 0.54903 0.49742 0.0
N267 N 0.58859 0.56168 0.49594 0.0
C268 C 0.57426 0.54384 0.50739 0.0
H269 H 0.58053 0.59532 0.46331 0.0
Co270 Co 0.62078 0.56222 0.49818 0.0
C271 C 0.63241 0.54411 0.60555 0.0
O272 O 0.64722 0.5613 0.61082 0.0
N273 N 0.65361 0.56208 0.4986 0.0
C274 C 0.68937 0.54743 0.50264 0.0
C275 C 0.66625 0.5429 0.50982 0.0
C276 C 0.66964 0.57776 0.48223 0.0
N277 N 0.69147 0.56936 0.48514 0.0
O278 O 0.62162 0.53545 0.45293 0.0
H279 H 0.65904 0.52627 0.52103 0.0
H280 H 0.66567 0.59475 0.46684 0.0
O281 O 0.62045 0.54236 0.56267 0.0
C282 C 0.61907 0.54092 0.40408 0.0
O283 O 0.6161 0.56292 0.39197 0.0
N284 N 0.61914 0.58988 0.53844 0.0
C285 C 0.61154 0.63382 0.58293 0.0
C286 C 0.60449 0.6136 0.60968 0.0
C287 C 0.608 0.59186 0.58629 0.0
C288 C 0.62485 0.60938 0.51069 0.0
C289 C 0.62185 0.63142 0.53265 0.0
H290 H 0.60063 0.57682 0.60554 0.0
H291 H 0.6305 0.60797 0.46987 0.0
H292 H 0.58032 0.52721 0.52182 0.0
H293 H 0.53706 0.58061 0.46513 0.0
H294 H 0.70346 0.53519 0.50741 0.0
H295 H 0.59535 0.61456 0.64728 0.0
H296 H 0.62713 0.64643 0.5097 0.0
C297 C 0.41911 0.08585 0.70436 0.0
C298 C 0.42608 0.06304 0.70114 0.0
N299 N 0.44726 0.06126 0.72329 0.0
N300 N 0.43587 0.09835 0.72828 0.0
C301 C 0.4528 0.0829 0.73953 0.0
H302 H 0.4033 0.09308 0.6882 0.0
Co303 Co 0.43639 0.13049 0.73292 0.0
C304 C 0.45585 0.14 0.83994 0.0
O305 O 0.43902 0.15506 0.84724 0.0
N306 N 0.43753 0.16333 0.73517 0.0
C307 C 0.45269 0.19888 0.74079 0.0
C308 C 0.45664 0.17564 0.74852 0.0
C309 C 0.42266 0.17963 0.71643 0.0
N310 N 0.43132 0.20135 0.72043 0.0
O311 O 0.46252 0.13094 0.68585 0.0
H312 H 0.47294 0.16817 0.76102 0.0
H313 H 0.40625 0.17587 0.6979 0.0
O314 O 0.45706 0.12874 0.79593 0.0
C315 C 0.45648 0.12963 0.63709 0.0
O316 O 0.43424 0.12892 0.62583 0.0
N317 N 0.40928 0.12911 0.77562 0.0
C318 C 0.36651 0.12148 0.82554 0.0
C319 C 0.38714 0.11317 0.84812 0.0
C320 C 0.4082 0.11663 0.82193 0.0
C321 C 0.38925 0.13638 0.75205 0.0
C322 C 0.36778 0.13331 0.77688 0.0
H323 H 0.42341 0.1082 0.83778 0.0
H324 H 0.38961 0.14303 0.71197 0.0
H325 H 0.46945 0.08766 0.75612 0.0
H326 H 0.41662 0.04899 0.68256 0.0
H327 H 0.46505 0.21278 0.74675 0.0
H328 H 0.38697 0.10339 0.88496 0.0
H329 H 0.35219 0.13891 0.75653 0.0
C330 C 0.92029 0.91782 0.96905 0.0
C331 C 0.94268 0.92619 0.97033 0.0
N332 N 0.94208 0.94862 0.98575 0.0
N333 N 0.90568 0.93484 0.9841 0.0
C334 C 0.91942 0.9533 0.99403 0.0
H335 H 0.91493 0.90073 0.95615 0.0
Co336 Co 0.87346 0.93514 0.98297 0.0
C337 C 0.86089 0.95298 0.08968 0.0
O338 O 0.84549 0.93623 0.09344 0.0
N339 N 0.84069 0.93671 0.98005 0.0
C340 C 0.80639 0.95451 0.97794 0.0
C341 C 0.82925 0.95662 0.9913 0.0
C342 C 0.82421 0.92299 0.95775 0.0
N343 N 0.80319 0.93341 0.95644 0.0
O344 O 0.87434 0.96189 0.93779 0.0
H345 H 0.83725 0.97238 1.0057 0.0
H346 H 0.82761 0.90653 0.93892 0.0
O347 O 0.87337 0.95471 0.04761 0.0
C348 C 0.87759 0.95619 0.88933 0.0
O349 O 0.88038 0.9341 0.8779 0.0
N350 N 0.87324 0.90738 0.02345 0.0
C351 C 0.87628 0.86362 0.07185 0.0
C352 C 0.88537 0.88343 0.09685 0.0
C353 C 0.88411 0.90502 0.07155 0.0
C354 C 0.8657 0.88811 0.9972 0.0
C355 C 0.86647 0.86622 0.02108 0.0
H356 H 0.89268 0.91964 0.08988 0.0
H357 H 0.86014 0.88944 0.95637 0.0
H358 H 0.91272 0.97007 1.0057 0.0
H359 H 0.95804 0.91675 0.95841 0.0
H360 H 0.79331 0.96786 0.98208 0.0
H361 H 0.89422 0.88219 0.13475 0.0
H362 H 0.85975 0.85145 0.99937 0.0
C363 C 0.07087 0.41779 0.1962 0.0
C364 C 0.06195 0.43997 0.19769 0.0
N365 N 0.03998 0.43888 0.21596 0.0
N366 N 0.05467 0.40283 0.21395 0.0
C367 C 0.03608 0.41613 0.22546 0.0
H368 H 0.08785 0.41281 0.18202 0.0
Co369 Co 0.05641 0.37066 0.21628 0.0
C370 C 0.03836 0.35857 0.32309 0.0
O371 O 0.05612 0.34448 0.32875 0.0
N372 N 0.05715 0.33775 0.21683 0.0
C373 C 0.04181 0.30228 0.21841 0.0
C374 C 0.03775 0.32534 0.22693 0.0
C375 C 0.07266 0.32154 0.20025 0.0
N376 N 0.06372 0.29979 0.20112 0.0
O377 O 0.03013 0.36905 0.16976 0.0
H378 H 0.02118 0.33269 0.23789 0.0
H379 H 0.08958 0.32548 0.18449 0.0
O380 O 0.03617 0.37034 0.28002 0.0
C381 C 0.03617 0.37123 0.12118 0.0
O382 O 0.05829 0.37399 0.11038 0.0
N383 N 0.08359 0.37326 0.25802 0.0
C384 C 0.12639 0.38351 0.30531 0.0
C385 C 0.10553 0.39036 0.3294 0.0
C386 C 0.0844 0.38551 0.30464 0.0
C387 C 0.10371 0.36741 0.23293 0.0
C388 C 0.12524 0.37187 0.25632 0.0
H389 H 0.06884 0.39279 0.32167 0.0
H390 H 0.10321 0.3606 0.19297 0.0
H391 H 0.01986 0.40911 0.23987 0.0
H392 H 0.07073 0.45555 0.18455 0.0
H393 H 0.02927 0.28848 0.22338 0.0
H394 H 0.10551 0.40039 0.36586 0.0
H395 H 0.14082 0.36667 0.23548 0.0
C396 C 0.40882 0.57071 0.94433 0.0
C397 C 0.4295 0.55915 0.94765 0.0
N398 N 0.4273 0.54228 0.9844 0.0
N399 N 0.39367 0.56123 0.97885 0.0
C400 C 0.40533 0.54374 1.00256 0.0
H401 H 0.4052 0.58563 0.91953 0.0
Co402 Co 0.36516 0.5746 0.98981 0.0
C403 C 0.34957 0.55815 0.09726 0.0
O404 O 0.34287 0.57933 0.10825 0.0
N405 N 0.33574 0.5895 0.99871 0.0
C406 C 0.30867 0.6159 0.0182 0.0
C407 C 0.33089 0.60882 0.02757 0.0
C408 C 0.31569 0.58533 0.9721 0.0
N409 N 0.29917 0.60125 0.98297 0.0
O410 O 0.35193 0.55197 0.94216 0.0
H411 H 0.34257 0.61762 0.05435 0.0
H412 H 0.3134 0.57159 0.9433 0.0
O413 O 0.35895 0.5538 0.05196 0.0
C414 C 0.35369 0.55766 0.89313 0.0
O415 O 0.36121 0.5786 0.8816 0.0
N416 N 0.38006 0.59706 0.03131 0.0
C417 C 0.40399 0.63319 0.08033 0.0
C418 C 0.40309 0.61111 0.10391 0.0
C419 C 0.39141 0.5931 0.07816 0.0
C420 C 0.38245 0.61779 1.00575 0.0
C421 C 0.3939 0.63625 0.02998 0.0
H422 H 0.39189 0.57597 0.09554 0.0
H423 H 0.37471 0.62014 0.96686 0.0
H424 H 0.39827 0.53295 0.0339 0.0
H425 H 0.44503 0.56292 0.92502 0.0
H426 H 0.30025 0.63091 0.03545 0.0
H427 H 0.41149 0.60773 0.14169 0.0
H428 H 0.39421 0.65291 0.01001 0.0
C429 C 0.414 0.8986 0.19482 0.0
C430 C 0.42307 0.92042 0.18815 0.0
N431 N 0.44267 0.92185 0.21703 0.0
N432 N 0.42786 0.88636 0.22765 0.0
C433 C 0.44523 0.90096 0.24069 0.0
H434 H 0.39855 0.89182 0.17607 0.0
Co435 Co 0.42286 0.85547 0.24279 0.0
C436 C 0.43917 0.84975 0.35457 0.0
O437 O 0.41891 0.84078 0.36607 0.0
N438 N 0.41739 0.82318 0.25636 0.0
C439 C 0.40275 0.78936 0.28401 0.0
C440 C 0.40093 0.81299 0.28705 0.0
C441 C 0.42882 0.80488 0.23472 0.0
N442 N 0.42026 0.78424 0.25092 0.0
O443 O 0.44903 0.84825 0.19856 0.0
H444 H 0.38808 0.82183 0.31076 0.0
H445 H 0.44307 0.80642 0.20708 0.0
O446 O 0.44325 0.85693 0.30704 0.0
C447 C 0.4435 0.84712 0.14938 0.0
O448 O 0.42142 0.848 0.13672 0.0
N449 N 0.39631 0.86437 0.28054 0.0
C450 C 0.35478 0.88041 0.32357 0.0
C451 C 0.37613 0.88828 0.34335 0.0
C452 C 0.39669 0.88037 0.32064 0.0
C453 C 0.3758 0.85812 0.2578 0.0
C454 C 0.3548 0.86537 0.27962 0.0
H455 H 0.41291 0.88752 0.33452 0.0
H456 H 0.37579 0.84702 0.22304 0.0
H457 H 0.45991 0.8961 0.26507 0.0
H458 H 0.41598 0.93409 0.16344 0.0
H459 H 0.39138 0.7769 0.30298 0.0
H460 H 0.37698 0.90084 0.37537 0.0
H461 H 0.3388 0.85903 0.26245 0.0
C462 C 0.08772 0.90854 0.48645 0.0
C463 C 0.06586 0.91811 0.48352 0.0
N464 N 0.06734 0.94066 0.49745 0.0
N465 N 0.10275 0.925 0.50255 0.0
C466 C 0.0899 0.9443 0.50884 0.0
H467 H 0.09245 0.89089 0.4766 0.0
Co468 Co 0.13449 0.92258 0.51013 0.0
C469 C 0.14553 0.96311 0.57423 0.0
O470 O 0.15924 0.96971 0.53529 0.0
N471 N 0.16641 0.92016 0.51782 0.0
C472 C 0.20131 0.91593 0.55338 0.0
C473 C 0.17812 0.91811 0.56407 0.0
C474 C 0.18276 0.91907 0.47956 0.0
N475 N 0.20426 0.91656 0.50014 0.0
O476 O 0.13817 0.94718 0.45958 0.0
H477 H 0.17021 0.91781 0.60313 0.0
H478 H 0.17886 0.92001 0.43751 0.0
O479 O 0.13387 0.94437 0.56966 0.0
C480 C 0.13477 0.94193 0.41095 0.0
O481 O 0.12964 0.92033 0.39889 0.0
N482 N 0.13051 0.8975 0.55568 0.0
C483 C 0.12216 0.85605 0.60935 0.0
C484 C 0.11306 0.87711 0.62852 0.0
C485 C 0.1175 0.89776 0.60103 0.0
C486 C 0.1397 0.87736 0.53692 0.0
C487 C 0.13619 0.85656 0.5637 0.0
H488 H 0.10961 0.91371 0.61465 0.0
H489 H 0.14951 0.87741 0.5002 0.0
H490 H 0.0971 0.96078 0.52104 0.0
H491 H 0.05028 0.90931 0.47051 0.0
H492 H 0.21481 0.91336 0.58269 0.0
H493 H 0.10182 0.87755 0.66301 0.0
H494 H 0.14406 0.84096 0.54792 0.0
C495 C 0.08531 0.58886 0.72035 0.0
C496 C 0.07876 0.56602 0.71549 0.0
N497 N 0.05805 0.56344 0.73949 0.0
N498 N 0.06875 0.6005 0.74719 0.0
C499 C 0.05238 0.58458 0.75845 0.0
H500 H 0.10062 0.59673 0.70331 0.0
Co501 Co 0.06773 0.63224 0.75599 0.0
C502 C 0.05186 0.63966 0.86615 0.0
O503 O 0.06921 0.65427 0.87163 0.0
N504 N 0.06616 0.66479 0.76283 0.0
C505 C 0.05066 0.69993 0.77405 0.0
C506 C 0.04697 0.67648 0.77849 0.0
C507 C 0.08084 0.68168 0.74669 0.0
N508 N 0.07196 0.70311 0.75383 0.0
O509 O 0.04027 0.63337 0.71332 0.0
H510 H 0.03086 0.66844 0.79047 0.0
H511 H 0.0973 0.67863 0.72777 0.0
O512 O 0.04905 0.62895 0.8218 0.0
C513 C 0.04517 0.63344 0.66383 0.0
O514 O 0.06713 0.6333 0.64982 0.0
N515 N 0.09594 0.63022 0.79359 0.0
C516 C 0.14034 0.62238 0.83383 0.0
C517 C 0.12087 0.61317 0.85961 0.0
C518 C 0.09886 0.61684 0.83816 0.0
C519 C 0.11487 0.63777 0.76616 0.0
C520 C 0.13716 0.63467 0.78628 0.0
H521 H 0.08435 0.60803 0.85624 0.0
H522 H 0.11285 0.64479 0.72664 0.0
H523 H 0.03591 0.58873 0.77681 0.0
H524 H 0.08804 0.55258 0.69422 0.0
H525 H 0.03815 0.71351 0.78193 0.0
H526 H 0.12265 0.6029 0.89552 0.0
H527 H 0.15185 0.64089 0.76351 0.0
H528 H 0.94029 0.99585 0.97929 0.0
H529 H 0.07794 0.01153 0.99227 0.0
H530 H 0.98796 0.9386 0.99743 0.0
H531 H 0.02969 0.06879 0.9872 0.0
H532 H 0.04537 0.98459 0.99407 0.0
H533 H 0.97282 0.02268 0.98209 0.0
C534 C 0.95753 0.98884 0.98438 0.0
C535 C 0.96124 0.96477 0.98829 0.0
C536 C 0.0419 0.00306 0.99268 0.0
C537 C -0.00115 0.99567 0.99064 0.0
C538 C 0.06054 0.01853 0.99196 0.0
C539 C 0.05668 0.04261 0.98965 0.0
C540 C 0.01913 0.01163 0.99095 0.0
C541 C 0.03362 0.05045 0.98832 0.0
C542 C 0.97619 0.00425 0.98562 0.0
C543 C 0.98419 0.95691 0.99369 0.0
N544 N 0.01577 0.03503 0.98895 0.0
N545 N 0.00209 0.97229 0.99464 0.0
H546 H 0.97642 0.57405 0.2387 0.0
H547 H 0.99281 0.43649 0.21576 0.0
H548 H 0.91943 0.52553 0.23477 0.0
H549 H 0.04976 0.48477 0.22839 0.0
H550 H 0.96573 0.46877 0.22369 0.0
H551 H 0.00347 0.54159 0.23604 0.0
C552 C 0.96952 0.5566 0.23778 0.0
C553 C 0.94549 0.55262 0.23704 0.0
C554 C 0.98416 0.47231 0.22485 0.0
C555 C 0.97657 0.51521 0.23317 0.0
C556 C -0.00031 0.45382 0.22064 0.0
C557 C 0.02372 0.45781 0.22141 0.0
C558 C 0.99262 0.49506 0.22982 0.0
C559 C 0.03145 0.48082 0.22688 0.0
C560 C 0.98504 0.53803 0.2359 0.0
C561 C 0.93774 0.52952 0.23477 0.0
N562 N 0.01597 0.49854 0.23082 0.0
N563 N 0.95322 0.51172 0.23286 0.0
H564 H 0.50649 0.56124 0.50838 0.0
H565 H 0.46201 0.43003 0.48594 0.0
H566 H 0.55166 0.50179 0.49472 0.0
H567 H 0.41581 0.4888 0.49481 0.0
H568 H 0.49495 0.45615 0.49505 0.0
H569 H 0.47308 0.53516 0.50907 0.0
C570 C 0.50943 0.54273 0.50553 0.0
C571 C 0.53202 0.53378 0.50116 0.0
C572 C 0.47763 0.46339 0.49519 0.0
C573 C 0.49375 0.50376 0.50238 0.0
C574 C 0.45878 0.44846 0.48969 0.0
C575 C 0.43607 0.45723 0.48896 0.0
C576 C 0.47388 0.48738 0.49988 0.0
C577 C 0.43298 0.48126 0.49532 0.0
C578 C 0.49032 0.52784 0.5062 0.0
C579 C 0.53469 0.50957 0.49861 0.0
N580 N 0.45169 0.49552 0.50013 0.0
N581 N 0.51582 0.49547 0.49898 0.0
H582 H 0.5343 0.94379 0.80405 0.0
H583 H 0.45199 0.0298 0.64435 0.0
H584 H 0.53901 0.95243 0.634 0.0
H585 H 0.47632 0.0471 0.80162 0.0
H586 H 0.47798 0.99614 0.64355 0.0
H587 H 0.50713 0.97681 0.80775 0.0
C588 C 0.52946 0.95258 0.76759 0.0
C589 C 0.53889 0.94557 0.7187 0.0
C590 C 0.47757 0.00727 0.67829 0.0
C591 C 0.50784 0.98279 0.72243 0.0
C592 C 0.46267 0.02634 0.6789 0.0
C593 C 0.46206 0.04116 0.72316 0.0
C594 C 0.4916 0.00269 0.7227 0.0
C595 C 0.47645 0.0361 0.7667 0.0
C596 C 0.51415 0.9714 0.76973 0.0
C597 C 0.53225 0.95751 0.67248 0.0
N598 N 0.49056 0.01714 0.76561 0.0
N599 N 0.517 0.97543 0.67539 0.0
H600 H 0.02094 0.93323 0.50762 0.0
H601 H 0.99151 0.06866 0.48733 0.0
H602 H 0.07194 0.98733 0.48677 0.0
H603 H 0.93885 0.01547 0.48821 0.0
H604 H 0.02113 0.03877 0.49445 0.0
H605 H 0.99044 0.96279 0.50667 0.0
C606 C 0.02575 0.95126 0.50275 0.0
C607 C 0.04911 0.95775 0.49746 0.0
C608 C 0.0031 0.03358 0.49317 0.0
C609 C 0.01436 0.99162 0.49692 0.0
C610 C 0.98617 0.05067 0.48888 0.0
C611 C 0.96266 0.04457 0.48658 0.0
C612 C 0.99656 0.01012 0.49518 0.0
C613 C 0.95675 0.02097 0.4901 0.0
C614 C 0.00834 0.96812 0.50249 0.0
C615 C 0.05431 0.98144 0.49193 0.0
N616 N 0.97361 0.00456 0.49394 0.0
N617 N 0.03709 0.99745 0.49177 0.0
H618 H 0.95863 0.45382 0.79712 0.0
H619 H 0.05303 0.53392 0.65685 0.0
H620 H 0.95816 0.46878 0.629 0.0
H621 H 0.02893 0.54805 0.81606 0.0
H622 H 0.02482 0.50232 0.65004 0.0
H623 H 0.99088 0.48143 0.80842 0.0
C624 C 0.96549 0.46283 0.7627 0.0
C625 C 0.95577 0.45935 0.7122 0.0
C626 C 0.02589 0.51222 0.68662 0.0
C627 C 0.99248 0.49024 0.72445 0.0
C628 C 0.04205 0.53007 0.69068 0.0
C629 C 0.04316 0.54354 0.73705 0.0
C630 C 0.01104 0.50763 0.72955 0.0
C631 C 0.02836 0.5381 0.77956 0.0
C632 C 0.98371 0.47853 0.76913 0.0
C633 C 0.96507 0.47133 0.66863 0.0
N634 N 0.01284 0.52048 0.77486 0.0
N635 N 0.98301 0.48621 0.67569 0.0
H636 H 0.50742 0.41866 0.01753 0.0
H637 H 0.47281 0.55183 0.9941 0.0
H638 H 0.55683 0.47485 0.01279 0.0
H639 H 0.42253 0.4971 0.01229 0.0
H640 H 0.50378 0.52403 0.01103 0.0
H641 H 0.47608 0.447 0.02514 0.0
C642 C 0.51168 0.43695 0.01834 0.0
C643 C 0.53475 0.44441 0.01371 0.0
C644 C 0.486 0.51805 0.01189 0.0
C645 C 0.49904 0.4769 0.02274 0.0
C646 C 0.46835 0.5339 1.00197 0.0
C647 C 0.4452 0.52658 1.00092 0.0
C648 C 0.48048 0.49459 0.02014 0.0
C649 C 0.44022 0.50332 0.0126 0.0
C650 C 0.4938 0.45311 0.02306 0.0
C651 C 0.53934 0.46829 0.01629 0.0
N652 N 0.45778 0.48801 0.02095 0.0
N653 N 0.52162 0.48368 0.02 0.0
H654 H 0.45329 0.95028 0.13532 0.0
H655 H 0.53546 0.03408 0.30226 0.0
H656 H 0.46824 0.9369 0.3007 0.0
H657 H 0.54395 0.02162 0.13424 0.0
H658 H 0.50505 0.00398 0.30472 0.0
H659 H 0.48089 0.98244 0.13657 0.0
C660 C 0.46226 0.95429 0.17203 0.0
C661 C 0.45858 0.94099 0.21798 0.0
C662 C 0.5136 0.00794 0.26742 0.0
C663 C 0.49006 0.97768 0.21975 0.0
C664 C 0.53073 0.02511 0.26598 0.0
C665 C 0.54218 0.03004 0.21808 0.0
C666 C 0.50768 0.99621 0.22033 0.0
C667 C 0.53566 0.01801 0.172 0.0
C668 C 0.47808 0.97251 0.17264 0.0
C669 C 0.47084 0.94669 0.2644 0.0
N670 N 0.51876 0.00171 0.17419 0.0
N671 N 0.48604 0.96475 0.26425 0.0
H672 H 0.14764 0.98764 0.41969 0.0
H673 H 0.12837 0.01552 0.10971 0.0
H674 H 0.12478 0.93664 0.30528 0.0
H675 H 0.16074 0.06282 0.22033 0.0
H676 H 0.12399 0.98728 0.18209 0.0
H677 H 0.14981 0.0164 0.34813 0.0
C678 C 0.14307 0.98249 0.37957 0.0
C679 C 0.13612 0.95967 0.36845 0.0
C680 C 0.13202 0.00387 0.19045 0.0
C681 C 0.13846 0.9925 0.28636 0.0
C682 C 0.13448 0.02 0.14918 0.0
C683 C 0.14506 0.04152 0.15888 0.0
C684 C 0.14009 0.00937 0.24178 0.0
C685 C 0.15261 0.04641 0.21086 0.0
C686 C 0.14432 -0.00109 0.3387 0.0
C687 C 0.13034 0.954 0.31568 0.0
N688 N 0.15 0.03048 0.25025 0.0
N689 N 0.13163 0.97029 0.27664 0.0
H690 H -0.00195 0.63961 0.67493 0.0
H691 H 0.97269 0.62591 0.36199 0.0
H692 H 0.05105 0.62662 0.55735 0.0
H693 H 0.9226 0.65234 0.47438 0.0
H694 H 0.0006 0.62166 0.43492 0.0
H695 H 0.96901 0.64014 0.60348 0.0
C696 C 0.00356 0.6368 0.63421 0.0
C697 C 0.02702 0.63323 0.62211 0.0
C698 C 0.98346 0.62833 0.44358 0.0
C699 C 0.99397 0.63368 0.54031 0.0
C700 C 0.96752 0.6307 0.40197 0.0
C701 C 0.94534 0.63968 0.41196 0.0
C702 C 0.97713 0.63482 0.49561 0.0
C703 C 0.93957 0.64554 0.46466 0.0
C704 C 0.98701 0.63713 0.59344 0.0
C705 C 0.03319 0.62962 0.56859 0.0
N706 N 0.95536 0.64305 0.50442 0.0
N707 N 0.0168 0.62995 0.52978 0.0
H708 H 0.33135 0.43324 0.70735 0.0
H709 H 0.35806 0.56504 0.78603 0.0
H710 H 0.35553 0.48391 0.59341 0.0
H711 H 0.34083 0.51163 0.89992 0.0
H712 H 0.35479 0.53661 0.71434 0.0
H713 H 0.33262 0.4625 0.77662 0.0
C714 C 0.33695 0.45057 0.69665 0.0
C715 C 0.34339 0.45601 0.64406 0.0
C716 C 0.35163 0.53111 0.75493 0.0
C717 C 0.34482 0.48995 0.72437 0.0
C718 C 0.3534 0.54735 0.79606 0.0
C719 C 0.34974 0.54075 0.84936 0.0
C720 C 0.34608 0.50799 0.7669 0.0
C721 C 0.34379 0.51756 0.85958 0.0
C722 C 0.33766 0.46733 0.73657 0.0
C723 C 0.35043 0.47887 0.63325 0.0
N724 N 0.3422 0.50205 0.8188 0.0
N725 N 0.35096 0.49501 0.67308 0.0
H726 H 0.43655 0.84142 0.04254 0.0
H727 H 0.56756 0.87189 0.96587 0.0
H728 H 0.49052 0.85436 0.15771 0.0
H729 H 0.51603 0.85389 0.84829 0.0
H730 H 0.53895 0.86665 0.03562 0.0
H731 H 0.46484 0.84607 0.97092 0.0
C732 C 0.45441 0.84505 0.05287 0.0
C733 C 0.46115 0.84751 0.1064 0.0
C734 C 0.53378 0.86385 0.99466 0.0
C735 C 0.49363 0.85312 0.02416 0.0
C736 C 0.55014 0.86691 0.95452 0.0
C737 C 0.54429 0.8632 0.90084 0.0
C738 C 0.51118 0.85703 0.98154 0.0
C739 C 0.52133 0.85696 0.88902 0.0
C740 C 0.47053 0.84777 0.01181 0.0
C741 C 0.48453 0.85221 0.11716 0.0
N742 N 0.50562 0.85398 0.92911 0.0
N743 N 0.49987 0.85498 0.07643 0.0
H744 H 0.84484 0.07245 0.68547 0.0
H745 H 0.892 0.95006 0.78701 0.0
H746 H 0.88808 0.02792 0.58928 0.0
H747 H 0.86254 0.00152 0.89192 0.0
H748 H 0.88937 0.97754 0.71333 0.0
H749 H 0.84939 0.04576 0.75997 0.0
C750 C 0.85525 0.05701 0.67984 0.0
C751 C 0.86608 0.05243 0.63081 0.0
C752 C 0.88359 0.9829 0.75248 0.0
C753 C 0.87137 0.02172 0.71652 0.0
C754 C 0.88505 0.96721 0.79464 0.0
C755 C 0.8774 0.97349 0.84575 0.0
C756 C 0.87418 0.00502 0.76117 0.0
C757 C 0.86867 0.99597 0.85323 0.0
C758 C 0.85793 0.04182 0.72264 0.0
C759 C 0.87941 0.03215 0.62624 0.0
N760 N 0.86714 0.01088 0.81128 0.0
N761 N 0.88162 0.0175 0.66852 0.0
H762 H 0.91663 0.34754 0.9198 0.0
H763 H 0.0437 0.38231 0.0171 0.0
H764 H 0.96547 0.38436 0.82057 0.0
H765 H 0.9899 0.35937 0.12431 0.0
H766 H 0.01612 0.38099 0.94363 0.0
H767 H 0.94409 0.34933 0.99338 0.0
C768 C 0.93318 0.35595 0.9133 0.0
C769 C 0.93872 0.36583 0.8637 0.0
C770 C 0.0103 0.3763 0.98319 0.0
C771 C 0.97033 0.36791 0.94836 0.0
C772 C 0.02605 0.37698 0.02527 0.0
C773 C 0.01912 0.37089 0.07707 0.0
C774 C 0.98739 0.36926 0.99264 0.0
C775 C 0.99599 0.36424 0.0851 0.0
C776 C 0.94882 0.35704 0.95557 0.0
C777 C 0.96043 0.37653 0.85801 0.0
N778 N 0.98098 0.3635 0.04326 0.0
N779 N 0.97547 0.37723 0.8998 0.0
H780 H 0.6064 0.54673 0.30038 0.0
H781 H 0.65179 0.42253 0.20625 0.0
H782 H 0.6335 0.49536 0.40895 0.0
H783 H 0.61093 0.46748 0.10563 0.0
H784 H 0.64697 0.4498 0.27949 0.0
H785 H 0.60934 0.51872 0.22788 0.0
C786 C 0.61293 0.52951 0.30907 0.0
C787 C 0.61979 0.52341 0.36091 0.0
C788 C 0.639 0.45371 0.24148 0.0
C789 C 0.62333 0.49123 0.27761 0.0
C790 C 0.64182 0.43818 0.19939 0.0
C791 C 0.63178 0.4427 0.14945 0.0
C792 C 0.6262 0.47413 0.23375 0.0
C793 C 0.61899 0.46326 0.14334 0.0
C794 C 0.61454 0.5135 0.26755 0.0
C795 C 0.62799 0.5008 0.36967 0.0
N796 N 0.61665 0.47826 0.18493 0.0
N797 N 0.62968 0.48558 0.32835 0.0
H798 H 0.57937 0.13912 0.44111 0.0
H799 H 0.44828 0.12018 0.5323 0.0
H800 H 0.52741 0.10934 0.33802 0.0
H801 H 0.50383 0.13549 0.64188 0.0
H802 H 0.47638 0.11792 0.45988 0.0
H803 H 0.55144 0.13967 0.51359 0.0
C804 C 0.56205 0.13268 0.43356 0.0
C805 C 0.55574 0.12422 0.3831 0.0
C806 C 0.48245 0.12171 0.49974 0.0
C807 C 0.52349 0.12489 0.46665 0.0
C808 C 0.46641 0.12309 0.54121 0.0
C809 C 0.47369 0.12811 0.59338 0.0
C810 C 0.50601 0.12557 0.51019 0.0
C811 C 0.49743 0.13159 0.60236 0.0
C812 C 0.5461 0.13295 0.47524 0.0
C813 C 0.53303 0.11603 0.37616 0.0
N814 N 0.51272 0.13037 0.56114 0.0
N815 N 0.51768 0.11668 0.41742 0.0
H816 H 0.63811 0.47281 0.91086 0.0
H817 H 0.60783 0.50317 0.60642 0.0
H818 H 0.60813 0.42386 0.80056 0.0
H819 H 0.65077 0.54658 0.70578 0.0
H820 H 0.60467 0.47532 0.6799 0.0
H821 H 0.64002 0.50158 0.83874 0.0
C822 C 0.63191 0.46813 0.8716 0.0
C823 C 0.62302 0.44586 0.86179 0.0
C824 C 0.61478 0.49096 0.68559 0.0
C825 C 0.625 0.47867 0.77923 0.0
C826 C 0.61653 0.50689 0.64366 0.0
C827 C 0.62966 0.52721 0.64976 0.0
C828 C 0.62607 0.49546 0.73418 0.0
C829 C 0.64056 0.5311 0.69906 0.0
C830 C 0.63303 0.48452 0.83043 0.0
C831 C 0.61523 0.44075 0.81005 0.0
N832 N 0.6385 0.51542 0.73929 0.0
N833 N 0.61635 0.457 0.77089 0.0
H834 H 0.5263 0.13535 0.14568 0.0
H835 H 0.49637 0.11478 0.83716 0.0
H836 H 0.57545 0.10886 0.03127 0.0
H837 H 0.45384 0.15608 0.94215 0.0
H838 H 0.52415 0.10933 0.91 0.0
H839 H 0.49802 0.14027 0.07348 0.0
C840 C 0.53115 0.1306 0.10547 0.0
C841 C 0.5533 0.12174 0.09456 0.0
C842 C 0.50873 0.1196 0.91702 0.0
C843 C 0.52103 0.12711 0.01191 0.0
C844 C 0.49284 0.12266 0.87547 0.0
C845 C 0.47279 0.13599 0.88341 0.0
C846 C 0.50442 0.12975 0.96702 0.0
C847 C 0.46912 0.14577 0.93402 0.0
C848 C 0.51503 0.13342 0.06427 0.0
C849 C 0.55864 0.11585 0.04163 0.0
N850 N 0.48473 0.14242 0.97384 0.0
N851 N 0.54263 0.11855 1.00243 0.0
H852 H 0.88772 0.07438 0.28226 0.0
H853 H 0.8421 0.95003 0.18937 0.0
H854 H 0.85891 0.02427 0.39162 0.0
H855 H 0.88574 0.99366 0.09198 0.0
H856 H 0.84584 0.97782 0.26228 0.0
H857 H 0.88467 0.046 0.2107 0.0
C858 C 0.88067 0.0574 0.29128 0.0
C859 C 0.87353 0.05171 0.34313 0.0
C860 C 0.85466 0.98129 0.22504 0.0
C861 C 0.86999 0.01904 0.26094 0.0
C862 C 0.85249 0.96546 0.18325 0.0
C863 C 0.86358 0.96955 0.13433 0.0
C864 C 0.86783 0.00151 0.21782 0.0
C865 C 0.87689 0.9898 0.12895 0.0
C866 C 0.87904 0.04116 0.25032 0.0
C867 C 0.86464 0.02939 0.35229 0.0
N868 N 0.87854 0.00508 0.17009 0.0
N869 N 0.86304 0.01388 0.31152 0.0
H870 H 0.04194 0.34143 0.42425 0.0
H871 H 0.91522 0.38175 0.51282 0.0
H872 H 0.99608 0.38069 0.32256 0.0
H873 H 0.96688 0.35812 0.62476 0.0
H874 H 0.94351 0.37827 0.44118 0.0
H875 H 0.01373 0.34453 0.49637 0.0
C876 C 0.02592 0.35071 0.41699 0.0
C877 C 0.02137 0.36079 0.36711 0.0
C878 C 0.94869 0.37383 0.48136 0.0
C879 C 0.9889 0.36429 0.44978 0.0
C880 C 0.9325 0.3757 0.5224 0.0
C881 C 0.93866 0.37022 0.57505 0.0
C882 C 0.97125 0.36624 0.49272 0.0
C883 C 0.96137 0.36255 0.58482 0.0
C884 C 0.00985 0.35251 0.45834 0.0
C885 C 0.00034 0.37267 0.3603 0.0
N886 N 0.97683 0.36074 0.54402 0.0
N887 N 0.98484 0.37399 0.40109 0.0
H888 H 0.33367 0.56425 0.19858 0.0
H889 H 0.35268 0.43271 0.28989 0.0
H890 H 0.36201 0.51165 0.0949 0.0
H891 H 0.33596 0.48802 0.39922 0.0
H892 H 0.35348 0.46065 0.21708 0.0
H893 H 0.33185 0.53602 0.27043 0.0
C894 C 0.33949 0.54671 0.19069 0.0
C895 C 0.34805 0.5404 0.14024 0.0
C896 C 0.3496 0.46672 0.2569 0.0
C897 C 0.34591 0.50775 0.22332 0.0
C898 C 0.34905 0.45075 0.29871 0.0
C899 C 0.34422 0.45798 0.35107 0.0
C900 C 0.34516 0.49023 0.26708 0.0
C901 C 0.33973 0.48163 0.35964 0.0
C902 C 0.33846 0.53058 0.23206 0.0
C903 C 0.35529 0.51734 0.13296 0.0
N904 N 0.3403 0.49688 0.31809 0.0
N905 N 0.35403 0.50186 0.17402 0.0
H906 H 0.43122 0.84475 0.46074 0.0
H907 H 0.5641 0.85479 0.54587 0.0
H908 H 0.48613 0.85954 0.34899 0.0
H909 H 0.50807 0.84984 0.65922 0.0
H910 H 0.53605 0.85519 0.47356 0.0
H911 H 0.45913 0.84574 0.53315 0.0
C912 C 0.4492 0.84827 0.45128 0.0
C913 C 0.45633 0.85194 0.39836 0.0
C914 C 0.52983 0.85401 0.51415 0.0
C915 C 0.48858 0.85298 0.48197 0.0
C916 C 0.54586 0.85367 0.55571 0.0
C917 C 0.53847 0.85223 0.609 0.0
C918 C 0.5061 0.85278 0.52557 0.0
C919 C 0.51458 0.85089 0.61887 0.0
C920 C 0.46514 0.84885 0.49292 0.0
C921 C 0.47984 0.85661 0.38905 0.0
N922 N 0.49925 0.85118 0.57753 0.0
N923 N 0.49516 0.85685 0.43043 0.0
H924 H 0.16517 0.00525 0.5926 0.0
H925 H 0.13514 0.01007 0.90416 0.0
H926 H 0.12631 0.95109 0.67106 0.0
H927 H 0.16537 0.06611 0.8137 0.0
H928 H 0.13396 0.98647 0.82231 0.0
H929 H 0.16715 0.02636 0.67609 0.0
C930 C 0.15696 0.9978 0.62743 0.0
C931 C 0.14552 0.97637 0.6247 0.0
C932 C 0.14092 0.00391 0.82067 0.0
C933 C 0.14784 0.00055 0.72125 0.0
C934 C 0.14175 0.01728 0.86733 0.0
C935 C 0.1503 0.04009 0.86562 0.0
C936 C 0.14888 0.01345 0.77241 0.0
C937 C 0.15848 0.04869 0.81687 0.0
C938 C 0.15811 0.00989 0.67528 0.0
C939 C 0.13521 0.96763 0.67133 0.0
N940 N 0.15753 0.03541 0.77243 0.0
N941 N 0.13665 0.97974 0.71784 0.0
H942 H 0.98286 0.64787 0.17275 0.0
H943 H 0.00847 0.61986 0.86508 0.0
H944 H 0.92973 0.63099 0.05813 0.0
H945 H 0.05784 0.65306 0.9693 0.0
H946 H 0.98066 0.61861 0.93895 0.0
H947 H 0.01193 0.64513 0.1016 0.0
C948 C 0.97732 0.64359 0.13274 0.0
C949 C 0.95382 0.63985 0.12134 0.0
C950 C -0.00236 0.62607 0.94563 0.0
C951 C 0.98691 0.63642 0.04004 0.0
C952 C 0.01353 0.62668 0.90355 0.0
C953 C 0.03542 0.63675 0.9109 0.0
C954 C 0.00378 0.6354 0.99545 0.0
C955 C 0.04106 0.64534 0.96165 0.0
C956 C 0.99389 0.64202 0.09217 0.0
C957 C 0.94762 0.63423 0.06876 0.0
N958 N 0.02535 0.64451 1.0019 0.0
N959 N 0.96403 0.63267 0.03018 0.0
H960 H 0.10974 0.28868 0.19796 0.0
H961 H 0.08256 0.15831 0.10669 0.0
H962 H 0.04164 0.26187 0.16232 0.0
H963 H 0.15229 0.18532 0.11197 0.0
H964 H 0.06793 0.19604 0.13368 0.0
H965 H 0.12642 0.25118 0.17081 0.0
C966 C 0.09832 0.27503 0.18426 0.0
C967 C 0.0742 0.27841 0.18317 0.0
C968 C 0.08646 0.19381 0.1291 0.0
C969 C 0.09308 0.23554 0.1527 0.0
C970 C 0.09486 0.17212 0.11418 0.0
C971 C 0.11873 0.16853 0.10749 0.0
C972 C 0.10195 0.21224 0.13759 0.0
C973 C 0.13374 0.18736 0.11649 0.0
C974 C 0.10783 0.25362 0.16902 0.0
C975 C 0.06023 0.26003 0.16526 0.0
N976 N 0.12511 0.20843 0.13123 0.0
N977 N 0.06985 0.23949 0.15104 0.0
H978 H 0.79962 0.6271 0.29234 0.0
H979 H 0.73374 0.56457 0.52994 0.0
H980 H 0.8319 0.61374 0.44456 0.0
H981 H 0.69754 0.59911 0.4024 0.0
H982 H 0.77024 0.58098 0.49752 0.0
H983 H 0.76234 0.6159 0.33015 0.0
C984 C 0.79892 0.62214 0.33389 0.0
C985 C 0.81913 0.62137 0.36516 0.0
C986 C 0.7543 0.58516 0.47687 0.0
C987 C 0.77635 0.60791 0.40828 0.0
C988 C 0.73352 0.57571 0.49521 0.0
C989 C 0.71265 0.58045 0.46868 0.0
C990 C 0.7543 0.59915 0.43108 0.0
C991 C 0.71323 0.59518 0.42418 0.0
C992 C 0.77757 0.61561 0.35534 0.0
C993 C 0.81698 0.61422 0.41848 0.0
N994 N 0.73377 0.60381 0.40637 0.0
N995 N 0.79605 0.6076 0.43817 0.0
H996 H 0.38082 0.3103 0.51911 0.0
H997 H 0.43489 0.24362 0.76609 0.0
H998 H 0.38345 0.34088 0.67613 0.0
H999 H 0.40494 0.20773 0.63222 0.0
H1000 H 0.41967 0.28034 0.73114 0.0
H1001 H 0.39305 0.27336 0.55709 0.0
C1002 C 0.3837 0.30931 0.56164 0.0
C1003 C 0.38086 0.32892 0.59438 0.0
C1004 C 0.41628 0.26441 0.70964 0.0
C1005 C 0.39559 0.28655 0.63781 0.0
C1006 C 0.42503 0.24352 0.72941 0.0
C1007 C 0.42114 0.22269 0.70195 0.0
C1008 C 0.40394 0.26451 0.66148 0.0
C1009 C 0.40812 0.2234 0.6548 0.0
C1010 C 0.39082 0.28816 0.58319 0.0
C1011 C 0.38566 0.32646 0.64902 0.0
N1012 N 0.40019 0.24403 0.63572 0.0
N1013 N 0.39289 0.30572 0.66893 0.0
H1014 H 0.66767 0.92677 0.81656 0.0
H1015 H 0.78858 0.88867 0.94756 0.0
H1016 H 0.68435 0.85554 0.8537 0.0
H1017 H 0.76962 0.95921 0.90976 0.0
H1018 H 0.75145 0.8755 0.91031 0.0
H1019 H 0.7057 0.93848 0.84882 0.0
C1020 C 0.67928 0.91359 0.83185 0.0
C1021 C 0.67271 0.89015 0.83278 0.0
C1022 C 0.75549 0.89385 0.91018 0.0
C1023 C 0.7166 0.90343 0.86931 0.0
C1024 C 0.7767 0.90133 0.93116 0.0
C1025 C 0.78209 0.92508 0.93238 0.0
C1026 C 0.73969 0.91027 0.89011 0.0
C1027 C 0.76602 0.9408 0.91083 0.0
C1028 C 0.70111 0.92027 0.84996 0.0
C1029 C 0.68875 0.87379 0.85195 0.0
N1030 N 0.7456 0.93313 0.89079 0.0
N1031 N 0.70993 0.88074 0.86964 0.0
H1032 H 0.87845 0.27345 0.76972 0.0
H1033 H 0.92764 0.19171 0.54121 0.0
H1034 H 0.92257 0.29783 0.64289 0.0
H1035 H 0.88862 0.16669 0.67611 0.0
H1036 H 0.9301 0.22986 0.58338 0.0
H1037 H 0.88598 0.23353 0.74206 0.0
C1038 C 0.88988 0.27035 0.73628 0.0
C1039 C 0.89964 0.28894 0.70806 0.0
C1040 C 0.92127 0.21595 0.60412 0.0
C1041 C 0.90831 0.24335 0.67598 0.0
C1042 C 0.91979 0.19421 0.57997 0.0
C1043 C 0.90763 0.17612 0.60489 0.0
C1044 C 0.91031 0.21969 0.65331 0.0
C1045 C 0.89817 0.18015 0.65551 0.0
C1046 C 0.89427 0.24757 0.72063 0.0
C1047 C 0.91471 0.28399 0.66572 0.0
N1048 N 0.89942 0.2016 0.67772 0.0
N1049 N 0.91832 0.26166 0.65044 0.0
H1050 H 0.80266 0.43548 0.77862 0.0
H1051 H 0.73215 0.40003 0.03944 0.0
H1052 H 0.83254 0.402 0.91637 0.0
H1053 H 0.6998 0.42667 0.89725 0.0
H1054 H 0.77011 0.40798 1.00084 0.0
H1055 H 0.76606 0.43935 0.82695 0.0
C1056 C 0.80162 0.42912 0.81913 0.0
C1057 C 0.82066 0.41806 0.84312 0.0
C1058 C 0.75475 0.41235 0.97819 0.0
C1059 C 0.77889 0.42265 0.89872 0.0
C1060 C 0.73309 0.40774 1.00018 0.0
C1061 C 0.71287 0.4123 0.97106 0.0
C1062 C 0.75624 0.42141 0.9264 0.0
C1063 C 0.71499 0.42283 0.92091 0.0
C1064 C 0.78074 0.43145 0.84676 0.0
C1065 C 0.81844 0.41072 0.89619 0.0
N1066 N 0.73635 0.42671 0.89975 0.0
N1067 N 0.79788 0.41291 0.92191 0.0
H1068 H 0.57537 0.19394 0.14866 0.0
H1069 H 0.60884 0.32711 0.19328 0.0
H1070 H 0.61197 0.21975 0.28615 0.0
H1071 H 0.57893 0.30062 0.04796 0.0
H1072 H 0.60375 0.28901 0.23421 0.0
H1073 H 0.57015 0.23391 0.11777 0.0
C1074 C 0.58194 0.20804 0.1728 0.0
C1075 C 0.59441 0.20354 0.21963 0.0
C1076 C 0.59811 0.29157 0.1935 0.0
C1077 C 0.58876 0.2492 0.18437 0.0
C1078 C 0.60088 0.31337 0.17022 0.0
C1079 C 0.59458 0.31697 0.1169 0.0
C1080 C 0.58899 0.27321 0.16326 0.0
C1081 C 0.5845 0.29847 0.08882 0.0
C1082 C 0.57911 0.23083 0.155 0.0
C1083 C 0.6027 0.22245 0.24923 0.0
N1084 N 0.5822 0.27733 0.11219 0.0
N1085 N 0.5999 0.24443 0.23089 0.0
H1086 H 0.69344 0.05948 0.28575 0.0
H1087 H 0.76935 0.10216 0.53101 0.0
H1088 H 0.6652 0.09173 0.42665 0.0
H1089 H 0.79805 0.06674 0.39498 0.0
H1090 H 0.73042 0.09319 0.49907 0.0
H1091 H 0.73105 0.05669 0.33015 0.0
C1092 C 0.69509 0.06574 0.32624 0.0
C1093 C 0.67623 0.07618 0.35224 0.0
C1094 C 0.74519 0.0871 0.47643 0.0
C1095 C 0.71919 0.07304 0.40325 0.0
C1096 C 0.76739 0.0923 0.49459 0.0
C1097 C 0.78687 0.08549 0.46511 0.0
C1098 C 0.74241 0.07525 0.42799 0.0
C1099 C 0.78345 0.07233 0.41879 0.0
C1100 C 0.71654 0.06405 0.35164 0.0
C1101 C 0.67922 0.08353 0.40506 0.0
N1102 N 0.76161 0.06795 0.40115 0.0
N1103 N 0.70037 0.08212 0.42851 0.0
H1104 H 0.58585 0.74856 0.79695 0.0
H1105 H 0.59909 0.6741 0.53086 0.0
H1106 H 0.59135 0.77998 0.64128 0.0
H1107 H 0.61354 0.64715 0.68795 0.0
H1108 H 0.59218 0.7123 0.56981 0.0
H1109 H 0.5914 0.71058 0.75672 0.0
C1110 C 0.58831 0.74758 0.75432 0.0
C1111 C 0.58843 0.76772 0.7227 0.0
C1112 C 0.5969 0.69801 0.59567 0.0
C1113 C 0.59443 0.72392 0.67612 0.0
C1114 C 0.60103 0.67617 0.57346 0.0
C1115 C 0.6071 0.65725 0.60605 0.0
C1116 C 0.59858 0.70099 0.65096 0.0
C1117 C 0.60866 0.66104 0.66119 0.0
C1118 C 0.5914 0.72579 0.73134 0.0
C1119 C 0.59104 0.76506 0.66737 0.0
N1120 N 0.60441 0.68243 0.68184 0.0
N1121 N 0.59399 0.74357 0.64586 0.0
H1122 H 0.35289 0.08029 0.86938 0.0
H1123 H 0.22563 0.12237 0.95358 0.0
H1124 H 0.32795 0.14942 0.83605 0.0
H1125 H 0.25091 0.05209 0.96648 0.0
H1126 H 0.26254 0.13351 0.91146 0.0
H1127 H 0.3155 0.07065 0.90801 0.0
C1128 C 0.33961 0.09356 0.87069 0.0
C1129 C 0.34369 0.11578 0.84988 0.0
C1130 C 0.2599 0.11567 0.92359 0.0
C1131 C 0.30038 0.10469 0.89353 0.0
C1132 C 0.23884 0.1093 0.94739 0.0
C1133 C 0.23525 0.08634 0.96439 0.0
C1134 C 0.2774 0.09892 0.91677 0.0
C1135 C 0.253 0.07011 0.95547 0.0
C1136 C 0.31811 0.08797 0.89237 0.0
C1137 C 0.32552 0.13205 0.85152 0.0
N1138 N 0.27321 0.07672 0.93257 0.0
N1139 N 0.30465 0.12621 0.87315 0.0
H1140 H 0.87223 0.85257 0.17793 0.0
H1141 H 0.89559 0.71646 0.13898 0.0
H1142 H 0.88469 0.82127 0.0243 0.0
H1143 H 0.90172 0.75196 0.28936 0.0
H1144 H 0.88542 0.75351 0.09642 0.0
H1145 H 0.87734 0.81462 0.21953 0.0
C1146 C 0.87607 0.83778 0.15285 0.0
C1147 C 0.87817 0.8403 0.09742 0.0
C1148 C 0.88887 0.75313 0.1388 0.0
C1149 C 0.88366 0.79656 0.14497 0.0
C1150 C 0.8945 0.73199 0.16309 0.0
C1151 C 0.89965 0.73122 0.21767 0.0
C1152 C 0.88813 0.77353 0.16951 0.0
C1153 C 0.89819 0.75189 0.24705 0.0
C1154 C 0.87886 0.81606 0.17667 0.0
C1155 C 0.88263 0.82025 0.06706 0.0
N1156 N 0.8926 0.77217 0.22264 0.0
N1157 N 0.88529 0.79928 0.09122 0.0
H1158 H 0.23684 0.4098 0.52947 0.0
H1159 H 0.1668 0.39734 0.25585 0.0
H1160 H 0.26989 0.41368 0.37578 0.0
H1161 H 0.13789 0.38364 0.41133 0.0
H1162 H 0.2038 0.40704 0.29787 0.0
H1163 H 0.19945 0.40503 0.48573 0.0
C1164 C 0.23617 0.4098 0.48638 0.0
C1165 C 0.25654 0.41185 0.45623 0.0
C1166 C 0.18933 0.40195 0.32271 0.0
C1167 C 0.21367 0.40628 0.4056 0.0
C1168 C 0.16821 0.39621 0.29876 0.0
C1169 C 0.14911 0.3895 0.33001 0.0
C1170 C 0.19139 0.4011 0.37837 0.0
C1171 C 0.15196 0.38893 0.38553 0.0
C1172 C 0.21481 0.40706 0.46139 0.0
C1173 C 0.25461 0.4122 0.4005 0.0
N1174 N 0.17265 0.3946 0.40781 0.0
N1175 N 0.23355 0.4092 0.3769 0.0
H1176 H 0.41699 0.74376 0.30486 0.0
H1177 H 0.4301 0.66901 0.03959 0.0
H1178 H 0.43643 0.77266 0.15285 0.0
H1179 H 0.40085 0.64335 0.18652 0.0
H1180 H 0.44092 0.70489 0.08517 0.0
H1181 H 0.41982 0.70485 0.26695 0.0
C1182 C 0.42211 0.74187 0.26362 0.0
C1183 C 0.42602 0.76145 0.23166 0.0
C1184 C 0.43243 0.69126 0.10756 0.0
C1185 C 0.42925 0.71703 0.1879 0.0
C1186 C 0.42613 0.67082 0.08153 0.0
C1187 C 0.41413 0.65329 0.10901 0.0
C1188 C 0.42667 0.69421 0.16144 0.0
C1189 C 0.41005 0.65634 0.16366 0.0
C1190 C 0.42378 0.71967 0.24202 0.0
C1191 C 0.43318 0.75804 0.17884 0.0
N1192 N 0.41604 0.67652 0.18788 0.0
N1193 N 0.4342 0.73624 0.15832 0.0
H1194 H 0.21032 0.90342 0.39669 0.0
H1195 H 0.34614 0.88754 0.42953 0.0
H1196 H 0.24777 0.9236 0.53828 0.0
H1197 H 0.31297 0.89007 0.27536 0.0
H1198 H 0.30967 0.89882 0.47076 0.0
H1199 H 0.2472 0.89674 0.3517 0.0
C1200 C 0.22619 0.90668 0.41829 0.0
C1201 C 0.22581 0.91386 0.47175 0.0
C1202 C 0.31042 0.89704 0.42786 0.0
C1203 C 0.26808 0.90585 0.42057 0.0
C1204 C 0.33129 0.8907 0.40419 0.0
C1205 C 0.33272 0.88782 0.34878 0.0
C1206 C 0.29068 0.90027 0.39609 0.0
C1207 C 0.31265 0.89166 0.31828 0.0
C1208 C 0.24727 0.90277 0.39254 0.0
C1209 C 0.24708 0.91755 0.49759 0.0
N1210 N 0.29241 0.89756 0.34239 0.0
N1211 N 0.26732 0.91332 0.47191 0.0
H1212 H 0.11496 0.84609 0.71577 0.0
H1213 H 0.09837 0.71048 0.66649 0.0
H1214 H 0.11489 0.81432 0.55983 0.0
H1215 H 0.0675 0.74503 0.80128 0.0
H1216 H 0.11247 0.74791 0.63415 0.0
H1217 H 0.10418 0.80849 0.75439 0.0
C1218 C 0.11271 0.83133 0.68961 0.0
C1219 C 0.11606 0.83346 0.63438 0.0
C1220 C 0.10272 0.74727 0.67099 0.0
C1221 C 0.10432 0.79047 0.67852 0.0
C1222 C 0.09486 0.72593 0.68965 0.0
C1223 C 0.08172 0.72476 0.73651 0.0
C1224 C 0.09763 0.76754 0.69968 0.0
C1225 C 0.07737 0.74534 0.76466 0.0
C1226 C 0.10669 0.80989 0.71177 0.0
C1227 C 0.11316 0.81356 0.60268 0.0
N1228 N 0.08533 0.76598 0.74582 0.0
N1229 N 0.10758 0.79294 0.62523 0.0
H1230 H 0.27793 0.64148 0.95796 0.0
H1231 H 0.15897 0.58186 0.87224 0.0
H1232 H 0.26962 0.56715 0.9518 0.0
H1233 H 0.17543 0.6538 0.84281 0.0
H1234 H 0.19834 0.57594 0.90646 0.0
H1235 H 0.23935 0.64619 0.92033 0.0
C1236 C 0.26788 0.62612 0.9488 0.0
C1237 C 0.27683 0.60389 0.95843 0.0
C1238 C 0.19332 0.59298 0.89234 0.0
C1239 C 0.23261 0.60912 0.91503 0.0
C1240 C 0.17084 0.59642 0.87326 0.0
C1241 C 0.16396 0.61839 0.8549 0.0
C1242 C 0.20887 0.61171 0.89354 0.0
C1243 C 0.18009 0.63656 0.85628 0.0
C1244 C 0.24592 0.62881 0.92697 0.0
C1245 C 0.26329 0.58457 0.9448 0.0
N1246 N 0.20174 0.63284 0.87552 0.0
N1247 N 0.2417 0.58762 0.92411 0.0
loop_
_geom_bond_atom_site_label_1
_geom_bond_atom_site_label_2
_geom_bond_distance
_geom_bond_site_symmetry_2
_ccdc_geom_bond_type
C0 C1 1.351 . S
C0 N3 1.368 . S
C0 H5 0.931 . S
C1 C0 1.351 . S
C1 N2 1.373 1_556 S
C1 H29 0.930 . S
N2 C1 1.373 1_554 S
N2 C4 1.340 . S
N3 C0 1.368 . S
N3 C4 1.321 1_556 S
N3 Co6 2.135 . S
C4 N2 1.340 . S
C4 N3 1.321 1_554 S
C4 H28 0.930 . S
H5 C0 0.931 . S
Co6 N3 2.135 . S
Co6 N9 2.121 . S
Co6 O14 2.055 . S
Co6 O17 2.039 1_556 S
Co6 N20 2.140 1_556 S
C7 O8 1.227 . S
C7 O17 1.265 . S
O8 C7 1.227 . S
N9 Co6 2.121 . S
N9 C11 1.375 1_556 S
N9 C12 1.313 . S
C10 C11 1.338 . S
C10 N13 1.377 1_554 S
C10 H30 0.930 . S
C11 N9 1.375 1_554 S
C11 C10 1.338 . S
C11 H15 0.931 . S
C12 N9 1.313 . S
C12 N13 1.344 . S
C12 H16 0.930 . S
N13 C10 1.377 1_556 S
N13 C12 1.344 . S
O14 Co6 2.055 . S
O14 C18 1.253 . S
H15 C11 0.931 . S
H16 C12 0.930 . S
O17 Co6 2.039 1_554 S
O17 C7 1.265 . S
C18 O14 1.253 . S
C18 O19 1.227 . S
O19 C18 1.227 . S
N20 Co6 2.140 1_554 S
N20 C23 1.346 . S
N20 C24 1.345 1_554 S
C21 C22 1.387 . S
C21 C25 1.391 1_554 S
C22 C21 1.387 . S
C22 C23 1.369 . S
C22 H31 0.929 . S
C23 N20 1.346 . S
C23 C22 1.369 . S
C23 H26 0.928 . S
C24 N20 1.345 1_556 S
C24 C25 1.371 . S
C24 H27 0.931 . S
C25 C21 1.391 1_556 S
C25 C24 1.371 . S
C25 H32 0.930 . S
H26 C23 0.928 . S
H27 C24 0.931 . S
H28 C4 0.930 . S
H29 C1 0.930 . S
H30 C10 0.930 . S
H31 C22 0.929 . S
H32 C25 0.930 . S
C33 C34 1.351 . S
C33 N36 1.368 . S
C33 H38 0.931 . S
C34 C33 1.351 . S
C34 N35 1.373 . S
C34 H62 0.930 . S
N35 C34 1.373 . S
N35 C37 1.340 . S
N36 C33 1.368 . S
N36 C37 1.321 . S
N36 Co39 2.135 . S
C37 N35 1.340 . S
C37 N36 1.321 . S
C37 H61 0.930 . S
H38 C33 0.931 . S
Co39 N36 2.135 . S
Co39 N42 2.121 . S
Co39 O47 2.055 . S
Co39 O50 2.039 . S
Co39 N53 2.140 . S
C40 O41 1.227 . S
C40 O50 1.265 . S
O41 C40 1.227 . S
N42 Co39 2.121 . S
N42 C44 1.375 . S
N42 C45 1.313 . S
C43 C44 1.338 . S
C43 N46 1.377 . S
C43 H63 0.930 . S
C44 N42 1.375 . S
C44 C43 1.338 . S
C44 H48 0.931 . S
C45 N42 1.313 . S
C45 N46 1.344 . S
C45 H49 0.930 . S
N46 C43 1.377 . S
N46 C45 1.344 . S
O47 Co39 2.055 . S
O47 C51 1.253 . S
H48 C44 0.931 . S
H49 C45 0.930 . S
O50 Co39 2.039 . S
O50 C40 1.265 . S
C51 O47 1.253 . S
C51 O52 1.227 . S
O52 C51 1.227 . S
N53 Co39 2.140 . S
N53 C56 1.346 . S
N53 C57 1.345 . S
C54 C55 1.387 . S
C54 C58 1.391 . S
C55 C54 1.387 . S
C55 C56 1.369 . S
C55 H64 0.929 . S
C56 N53 1.346 . S
C56 C55 1.369 . S
C56 H59 0.928 . S
C57 N53 1.345 . S
C57 C58 1.371 . S
C57 H60 0.931 . S
C58 C54 1.391 . S
C58 C57 1.371 . S
C58 H65 0.930 . S
H59 C56 0.928 . S
H60 C57 0.931 . S
H61 C37 0.930 . S
H62 C34 0.930 . S
H63 C43 0.930 . S
H64 C55 0.929 . S
H65 C58 0.930 . S
C66 C67 1.351 . S
C66 N69 1.368 . S
C66 H71 0.931 . S
C67 C66 1.351 . S
C67 N68 1.373 . S
C67 H95 0.930 . S
N68 C67 1.373 . S
N68 C70 1.340 . S
N69 C66 1.368 . S
N69 C70 1.321 . S
N69 Co72 2.135 . S
C70 N68 1.340 . S
C70 N69 1.321 . S
C70 H94 0.930 . S
H71 C66 0.931 . S
Co72 N69 2.135 . S
Co72 N75 2.121 . S
Co72 O80 2.055 . S
Co72 O83 2.039 . S
Co72 N86 2.140 . S
C73 O74 1.227 . S
C73 O83 1.265 . S
O74 C73 1.227 . S
N75 Co72 2.121 . S
N75 C77 1.375 . S
N75 C78 1.313 . S
C76 C77 1.338 . S
C76 N79 1.377 . S
C76 H96 0.930 . S
C77 N75 1.375 . S
C77 C76 1.338 . S
C77 H81 0.931 . S
C78 N75 1.313 . S
C78 N79 1.344 . S
C78 H82 0.930 . S
N79 C76 1.377 . S
N79 C78 1.344 . S
O80 Co72 2.055 . S
O80 C84 1.253 . S
H81 C77 0.931 . S
H82 C78 0.930 . S
O83 Co72 2.039 . S
O83 C73 1.265 . S
C84 O80 1.253 . S
C84 O85 1.227 . S
O85 C84 1.227 . S
N86 Co72 2.140 . S
N86 C89 1.346 . S
N86 C90 1.345 . S
C87 C88 1.387 . S
C87 C91 1.391 . S
C88 C87 1.387 . S
C88 C89 1.369 . S
C88 H97 0.929 . S
C89 N86 1.346 . S
C89 C88 1.369 . S
C89 H92 0.928 . S
C90 N86 1.345 . S
C90 C91 1.371 . S
C90 H93 0.931 . S
C91 C87 1.391 . S
C91 C90 1.371 . S
C91 H98 0.930 . S
H92 C89 0.928 . S
H93 C90 0.931 . S
H94 C70 0.930 . S
H95 C67 0.930 . S
H96 C76 0.930 . S
H97 C88 0.929 . S
H98 C91 0.930 . S
C99 C100 1.351 . S
C99 N102 1.368 . S
C99 H104 0.931 . S
C100 C99 1.351 . S
C100 N101 1.373 . S
C100 H128 0.930 . S
N101 C100 1.373 . S
N101 C103 1.340 . S
N102 C99 1.368 . S
N102 C103 1.321 . S
N102 Co105 2.135 . S
C103 N101 1.340 . S
C103 N102 1.321 . S
C103 H127 0.930 . S
H104 C99 0.931 . S
Co105 N102 2.135 . S
Co105 N108 2.121 . S
Co105 O113 2.055 . S
Co105 O116 2.039 . S
Co105 N119 2.140 . S
C106 O107 1.227 . S
C106 O116 1.265 . S
O107 C106 1.227 . S
N108 Co105 2.121 . S
N108 C110 1.375 . S
N108 C111 1.313 . S
C109 C110 1.338 . S
C109 N112 1.377 . S
C109 H129 0.930 . S
C110 N108 1.375 . S
C110 C109 1.338 . S
C110 H114 0.931 . S
C111 N108 1.313 . S
C111 N112 1.344 . S
C111 H115 0.930 . S
N112 C109 1.377 . S
N112 C111 1.344 . S
O113 Co105 2.055 . S
O113 C117 1.253 . S
H114 C110 0.931 . S
H115 C111 0.930 . S
O116 Co105 2.039 . S
O116 C106 1.265 . S
C117 O113 1.253 . S
C117 O118 1.227 . S
O118 C117 1.227 . S
N119 Co105 2.140 . S
N119 C122 1.346 . S
N119 C123 1.345 . S
C120 C121 1.387 . S
C120 C124 1.391 . S
C121 C120 1.387 . S
C121 C122 1.369 . S
C121 H130 0.929 . S
C122 N119 1.346 . S
C122 C121 1.369 . S
C122 H125 0.928 . S
C123 N119 1.345 . S
C123 C124 1.371 . S
C123 H126 0.931 . S
C124 C120 1.391 . S
C124 C123 1.371 . S
C124 H131 0.930 . S
H125 C122 0.928 . S
H126 C123 0.931 . S
H127 C103 0.930 . S
H128 C100 0.930 . S
H129 C109 0.930 . S
H130 C121 0.929 . S
H131 C124 0.930 . S
C132 C133 1.351 . S
C132 N135 1.368 . S
C132 H137 0.931 . S
C133 C132 1.351 . S
C133 N134 1.373 . S
C133 H161 0.930 . S
N134 C133 1.373 . S
N134 C136 1.340 . S
N135 C132 1.368 . S
N135 C136 1.321 . S
N135 Co138 2.135 . S
C136 N134 1.340 . S
C136 N135 1.321 . S
C136 H160 0.930 . S
H137 C132 0.931 . S
Co138 N135 2.135 . S
Co138 N141 2.121 . S
Co138 O146 2.055 . S
Co138 O149 2.039 . S
Co138 N152 2.140 . S
C139 O140 1.227 . S
C139 O149 1.265 . S
O140 C139 1.227 . S
N141 Co138 2.121 . S
N141 C143 1.375 . S
N141 C144 1.313 . S
C142 C143 1.338 . S
C142 N145 1.377 . S
C142 H162 0.930 . S
C143 N141 1.375 . S
C143 C142 1.338 . S
C143 H147 0.931 . S
C144 N141 1.313 . S
C144 N145 1.344 . S
C144 H148 0.930 . S
N145 C142 1.377 . S
N145 C144 1.344 . S
O146 Co138 2.055 . S
O146 C150 1.253 . S
H147 C143 0.931 . S
H148 C144 0.930 . S
O149 Co138 2.039 . S
O149 C139 1.265 . S
C150 O146 1.253 . S
C150 O151 1.227 . S
O151 C150 1.227 . S
N152 Co138 2.140 . S
N152 C155 1.346 . S
N152 C156 1.345 . S
C153 C154 1.387 . S
C153 C157 1.391 . S
C154 C153 1.387 . S
C154 C155 1.369 . S
C154 H163 0.929 . S
C155 N152 1.346 . S
C155 C154 1.369 . S
C155 H158 0.928 . S
C156 N152 1.345 . S
C156 C157 1.371 . S
C156 H159 0.931 . S
C157 C153 1.391 . S
C157 C156 1.371 . S
C157 H164 0.930 . S
H158 C155 0.928 . S
H159 C156 0.931 . S
H160 C136 0.930 . S
H161 C133 0.930 . S
H162 C142 0.930 . S
H163 C154 0.929 . S
H164 C157 0.930 . S
C165 C166 1.351 . S
C165 N168 1.368 . S
C165 H170 0.931 . S
C166 C165 1.351 . S
C166 N167 1.373 . S
C166 H194 0.930 . S
N167 C166 1.373 . S
N167 C169 1.340 . S
N168 C165 1.368 . S
N168 C169 1.321 . S
N168 Co171 2.135 . S
C169 N167 1.340 . S
C169 N168 1.321 . S
C169 H193 0.930 . S
H170 C165 0.931 . S
Co171 N168 2.135 . S
Co171 N174 2.121 . S
Co171 O179 2.055 . S
Co171 O182 2.039 . S
Co171 N185 2.140 . S
C172 O173 1.227 . S
C172 O182 1.265 . S
O173 C172 1.227 . S
N174 Co171 2.121 . S
N174 C176 1.375 . S
N174 C177 1.313 . S
C175 C176 1.338 . S
C175 N178 1.377 . S
C175 H195 0.930 . S
C176 N174 1.375 . S
C176 C175 1.338 . S
C176 H180 0.931 . S
C177 N174 1.313 . S
C177 N178 1.344 . S
C177 H181 0.930 . S
N178 C175 1.377 . S
N178 C177 1.344 . S
O179 Co171 2.055 . S
O179 C183 1.253 . S
H180 C176 0.931 . S
H181 C177 0.930 . S
O182 Co171 2.039 . S
O182 C172 1.265 . S
C183 O179 1.253 . S
C183 O184 1.227 . S
O184 C183 1.227 . S
N185 Co171 2.140 . S
N185 C188 1.346 . S
N185 C189 1.345 . S
C186 C187 1.387 . S
C186 C190 1.391 . S
C187 C186 1.387 . S
C187 C188 1.369 . S
C187 H196 0.929 . S
C188 N185 1.346 . S
C188 C187 1.369 . S
C188 H191 0.928 . S
C189 N185 1.345 . S
C189 C190 1.371 . S
C189 H192 0.931 . S
C190 C186 1.391 . S
C190 C189 1.371 . S
C190 H197 0.930 . S
H191 C188 0.928 . S
H192 C189 0.931 . S
H193 C169 0.930 . S
H194 C166 0.930 . S
H195 C175 0.930 . S
H196 C187 0.929 . S
H197 C190 0.930 . S
C198 C199 1.351 . S
C198 N201 1.368 . S
C198 H203 0.931 . S
C199 C198 1.351 . S
C199 N200 1.373 1_556 S
C199 H227 0.930 . S
N200 C199 1.373 1_554 S
N200 C202 1.340 . S
N201 C198 1.368 . S
N201 C202 1.321 1_556 S
N201 Co204 2.135 . S
C202 N200 1.340 . S
C202 N201 1.321 1_554 S
C202 H226 0.930 . S
H203 C198 0.931 . S
Co204 N201 2.135 . S
Co204 N207 2.121 . S
Co204 O212 2.055 . S
Co204 O215 2.039 1_556 S
Co204 N218 2.140 1_556 S
C205 O206 1.227 . S
C205 O215 1.265 . S
O206 C205 1.227 . S
N207 Co204 2.121 . S
N207 C209 1.375 1_556 S
N207 C210 1.313 . S
C208 C209 1.338 . S
C208 N211 1.377 1_554 S
C208 H228 0.930 . S
C209 N207 1.375 1_554 S
C209 C208 1.338 . S
C209 H213 0.931 . S
C210 N207 1.313 . S
C210 N211 1.344 . S
C210 H214 0.930 . S
N211 C208 1.377 1_556 S
N211 C210 1.344 . S
O212 Co204 2.055 . S
O212 C216 1.253 . S
H213 C209 0.931 . S
H214 C210 0.930 . S
O215 Co204 2.039 1_554 S
O215 C205 1.265 . S
C216 O212 1.253 . S
C216 O217 1.227 . S
O217 C216 1.227 . S
N218 Co204 2.140 1_554 S
N218 C221 1.346 . S
N218 C222 1.345 1_554 S
C219 C220 1.387 . S
C219 C223 1.391 1_554 S
C220 C219 1.387 . S
C220 C221 1.369 . S
C220 H229 0.929 . S
C221 N218 1.346 . S
C221 C220 1.369 . S
C221 H224 0.928 . S
C222 N218 1.345 1_556 S
C222 C223 1.371 . S
C222 H225 0.931 . S
C223 C219 1.391 1_556 S
C223 C222 1.371 . S
C223 H230 0.930 . S
H224 C221 0.928 . S
H225 C222 0.931 . S
H226 C202 0.930 . S
H227 C199 0.930 . S
H228 C208 0.930 . S
H229 C220 0.929 . S
H230 C223 0.930 . S
C231 C232 1.351 . S
C231 N234 1.368 . S
C231 H236 0.931 . S
C232 C231 1.351 . S
C232 N233 1.373 . S
C232 H260 0.930 . S
N233 C232 1.373 . S
N233 C235 1.340 . S
N234 C231 1.368 . S
N234 C235 1.321 . S
N234 Co237 2.135 . S
C235 N233 1.340 . S
C235 N234 1.321 . S
C235 H259 0.930 . S
H236 C231 0.931 . S
Co237 N234 2.135 . S
Co237 N240 2.121 . S
Co237 O245 2.055 . S
Co237 O248 2.039 . S
Co237 N251 2.140 . S
C238 O239 1.227 . S
C238 O248 1.265 . S
O239 C238 1.227 . S
N240 Co237 2.121 . S
N240 C242 1.375 . S
N240 C243 1.313 . S
C241 C242 1.338 . S
C241 N244 1.377 . S
C241 H261 0.930 . S
C242 N240 1.375 . S
C242 C241 1.338 . S
C242 H246 0.931 . S
C243 N240 1.313 . S
C243 N244 1.344 . S
C243 H247 0.930 . S
N244 C241 1.377 . S
N244 C243 1.344 . S
O245 Co237 2.055 . S
O245 C249 1.253 . S
H246 C242 0.931 . S
H247 C243 0.930 . S
O248 Co237 2.039 . S
O248 C238 1.265 . S
C249 O245 1.253 . S
C249 O250 1.227 . S
O250 C249 1.227 . S
N251 Co237 2.140 . S
N251 C254 1.346 . S
N251 C255 1.345 . S
C252 C253 1.387 . S
C252 C256 1.391 . S
C253 C252 1.387 . S
C253 C254 1.369 . S
C253 H262 0.929 . S
C254 N251 1.346 . S
C254 C253 1.369 . S
C254 H257 0.928 . S
C255 N251 1.345 . S
C255 C256 1.371 . S
C255 H258 0.931 . S
C256 C252 1.391 . S
C256 C255 1.371 . S
C256 H263 0.930 . S
H257 C254 0.928 . S
H258 C255 0.931 . S
H259 C235 0.930 . S
H260 C232 0.930 . S
H261 C241 0.930 . S
H262 C253 0.929 . S
H263 C256 0.930 . S
C264 C265 1.351 . S
C264 N267 1.368 . S
C264 H269 0.931 . S
C265 C264 1.351 . S
C265 N266 1.373 . S
C265 H293 0.930 . S
N266 C265 1.373 . S
N266 C268 1.340 . S
N267 C264 1.368 . S
N267 C268 1.321 . S
N267 Co270 2.135 . S
C268 N266 1.340 . S
C268 N267 1.321 . S
C268 H292 0.930 . S
H269 C264 0.931 . S
Co270 N267 2.135 . S
Co270 N273 2.121 . S
Co270 O278 2.055 . S
Co270 O281 2.039 . S
Co270 N284 2.140 . S
C271 O272 1.227 . S
C271 O281 1.265 . S
O272 C271 1.227 . S
N273 Co270 2.121 . S
N273 C275 1.375 . S
N273 C276 1.313 . S
C274 C275 1.338 . S
C274 N277 1.377 . S
C274 H294 0.930 . S
C275 N273 1.375 . S
C275 C274 1.338 . S
C275 H279 0.931 . S
C276 N273 1.313 . S
C276 N277 1.344 . S
C276 H280 0.930 . S
N277 C274 1.377 . S
N277 C276 1.344 . S
O278 Co270 2.055 . S
O278 C282 1.253 . S
H279 C275 0.931 . S
H280 C276 0.930 . S
O281 Co270 2.039 . S
O281 C271 1.265 . S
C282 O278 1.253 . S
C282 O283 1.227 . S
O283 C282 1.227 . S
N284 Co270 2.140 . S
N284 C287 1.346 . S
N284 C288 1.345 . S
C285 C286 1.387 . S
C285 C289 1.391 . S
C286 C285 1.387 . S
C286 C287 1.369 . S
C286 H295 0.929 . S
C287 N284 1.346 . S
C287 C286 1.369 . S
C287 H290 0.928 . S
C288 N284 1.345 . S
C288 C289 1.371 . S
C288 H291 0.931 . S
C289 C285 1.391 . S
C289 C288 1.371 . S
C289 H296 0.930 . S
H290 C287 0.928 . S
H291 C288 0.931 . S
H292 C268 0.930 . S
H293 C265 0.930 . S
H294 C274 0.930 . S
H295 C286 0.929 . S
H296 C289 0.930 . S
C297 C298 1.351 . S
C297 N300 1.368 . S
C297 H302 0.931 . S
C298 C297 1.351 . S
C298 N299 1.373 . S
C298 H326 0.930 . S
N299 C298 1.373 . S
N299 C301 1.340 . S
N300 C297 1.368 . S
N300 C301 1.321 . S
N300 Co303 2.135 . S
C301 N299 1.340 . S
C301 N300 1.321 . S
C301 H325 0.930 . S
H302 C297 0.931 . S
Co303 N300 2.135 . S
Co303 N306 2.121 . S
Co303 O311 2.055 . S
Co303 O314 2.039 . S
Co303 N317 2.140 . S
C304 O305 1.227 . S
C304 O314 1.265 . S
O305 C304 1.227 . S
N306 Co303 2.121 . S
N306 C308 1.375 . S
N306 C309 1.313 . S
C307 C308 1.338 . S
C307 N310 1.377 . S
C307 H327 0.930 . S
C308 N306 1.375 . S
C308 C307 1.338 . S
C308 H312 0.931 . S
C309 N306 1.313 . S
C309 N310 1.344 . S
C309 H313 0.930 . S
N310 C307 1.377 . S
N310 C309 1.344 . S
O311 Co303 2.055 . S
O311 C315 1.253 . S
H312 C308 0.931 . S
H313 C309 0.930 . S
O314 Co303 2.039 . S
O314 C304 1.265 . S
C315 O311 1.253 . S
C315 O316 1.227 . S
O316 C315 1.227 . S
N317 Co303 2.140 . S
N317 C320 1.346 . S
N317 C321 1.345 . S
C318 C319 1.387 . S
C318 C322 1.391 . S
C319 C318 1.387 . S
C319 C320 1.369 . S
C319 H328 0.929 . S
C320 N317 1.346 . S
C320 C319 1.369 . S
C320 H323 0.928 . S
C321 N317 1.345 . S
C321 C322 1.371 . S
C321 H324 0.931 . S
C322 C318 1.391 . S
C322 C321 1.371 . S
C322 H329 0.930 . S
H323 C320 0.928 . S
H324 C321 0.931 . S
H325 C301 0.930 . S
H326 C298 0.930 . S
H327 C307 0.930 . S
H328 C319 0.929 . S
H329 C322 0.930 . S
C330 C331 1.351 . S
C330 N333 1.368 . S
C330 H335 0.931 . S
C331 C330 1.351 . S
C331 N332 1.373 1_556 S
C331 H359 0.930 . S
N332 C331 1.373 1_554 S
N332 C334 1.340 . S
N333 C330 1.368 . S
N333 C334 1.321 1_556 S
N333 Co336 2.135 . S
C334 N332 1.340 . S
C334 N333 1.321 1_554 S
C334 H358 0.930 . S
H335 C330 0.931 . S
Co336 N333 2.135 . S
Co336 N339 2.121 . S
Co336 O344 2.055 . S
Co336 O347 2.039 1_556 S
Co336 N350 2.140 1_556 S
C337 O338 1.227 . S
C337 O347 1.265 . S
O338 C337 1.227 . S
N339 Co336 2.121 . S
N339 C341 1.375 1_556 S
N339 C342 1.313 . S
C340 C341 1.338 . S
C340 N343 1.377 1_554 S
C340 H360 0.930 . S
C341 N339 1.375 1_554 S
C341 C340 1.338 . S
C341 H345 0.931 . S
C342 N339 1.313 . S
C342 N343 1.344 . S
C342 H346 0.930 . S
N343 C340 1.377 1_556 S
N343 C342 1.344 . S
O344 Co336 2.055 . S
O344 C348 1.253 . S
H345 C341 0.931 . S
H346 C342 0.930 . S
O347 Co336 2.039 1_554 S
O347 C337 1.265 . S
C348 O344 1.253 . S
C348 O349 1.227 . S
O349 C348 1.227 . S
N350 Co336 2.140 1_554 S
N350 C353 1.346 . S
N350 C354 1.345 1_554 S
C351 C352 1.387 . S
C351 C355 1.391 1_554 S
C352 C351 1.387 . S
C352 C353 1.369 . S
C352 H361 0.929 . S
C353 N350 1.346 . S
C353 C352 1.369 . S
C353 H356 0.928 . S
C354 N350 1.345 1_556 S
C354 C355 1.371 . S
C354 H357 0.931 . S
C355 C351 1.391 1_556 S
C355 C354 1.371 . S
C355 H362 0.930 . S
H356 C353 0.928 . S
H357 C354 0.931 . S
H358 C334 0.930 . S
H359 C331 0.930 . S
H360 C340 0.930 . S
H361 C352 0.929 . S
H362 C355 0.930 . S
C363 C364 1.351 . S
C363 N366 1.368 . S
C363 H368 0.931 . S
C364 C363 1.351 . S
C364 N365 1.373 . S
C364 H392 0.930 . S
N365 C364 1.373 . S
N365 C367 1.340 . S
N366 C363 1.368 . S
N366 C367 1.321 . S
N366 Co369 2.135 . S
C367 N365 1.340 . S
C367 N366 1.321 . S
C367 H391 0.930 . S
H368 C363 0.931 . S
Co369 N366 2.135 . S
Co369 N372 2.121 . S
Co369 O377 2.055 . S
Co369 O380 2.039 . S
Co369 N383 2.140 . S
C370 O371 1.227 . S
C370 O380 1.265 . S
O371 C370 1.227 . S
N372 Co369 2.121 . S
N372 C374 1.375 . S
N372 C375 1.313 . S
C373 C374 1.338 . S
C373 N376 1.377 . S
C373 H393 0.930 . S
C374 N372 1.375 . S
C374 C373 1.338 . S
C374 H378 0.931 . S
C375 N372 1.313 . S
C375 N376 1.344 . S
C375 H379 0.930 . S
N376 C373 1.377 . S
N376 C375 1.344 . S
O377 Co369 2.055 . S
O377 C381 1.253 . S
H378 C374 0.931 . S
H379 C375 0.930 . S
O380 Co369 2.039 . S
O380 C370 1.265 . S
C381 O377 1.253 . S
C381 O382 1.227 . S
O382 C381 1.227 . S
N383 Co369 2.140 . S
N383 C386 1.346 . S
N383 C387 1.345 . S
C384 C385 1.387 . S
C384 C388 1.391 . S
C385 C384 1.387 . S
C385 C386 1.369 . S
C385 H394 0.929 . S
C386 N383 1.346 . S
C386 C385 1.369 . S
C386 H389 0.928 . S
C387 N383 1.345 . S
C387 C388 1.371 . S
C387 H390 0.931 . S
C388 C384 1.391 . S
C388 C387 1.371 . S
C388 H395 0.930 . S
H389 C386 0.928 . S
H390 C387 0.931 . S
H391 C367 0.930 . S
H392 C364 0.930 . S
H393 C373 0.930 . S
H394 C385 0.929 . S
H395 C388 0.930 . S
C396 C397 1.351 . S
C396 N399 1.368 . S
C396 H401 0.931 . S
C397 C396 1.351 . S
C397 N398 1.373 1_556 S
C397 H425 0.930 . S
N398 C397 1.373 1_554 S
N398 C400 1.340 . S
N399 C396 1.368 . S
N399 C400 1.321 1_556 S
N399 Co402 2.135 . S
C400 N398 1.340 . S
C400 N399 1.321 1_554 S
C400 H424 0.930 . S
H401 C396 0.931 . S
Co402 N399 2.135 . S
Co402 N405 2.121 . S
Co402 O410 2.055 . S
Co402 O413 2.039 1_556 S
Co402 N416 2.140 1_556 S
C403 O404 1.227 . S
C403 O413 1.265 . S
O404 C403 1.227 . S
N405 Co402 2.121 . S
N405 C407 1.375 1_556 S
N405 C408 1.313 . S
C406 C407 1.338 . S
C406 N409 1.377 1_554 S
C406 H426 0.930 . S
C407 N405 1.375 1_554 S
C407 C406 1.338 . S
C407 H411 0.931 . S
C408 N405 1.313 . S
C408 N409 1.344 . S
C408 H412 0.930 . S
N409 C406 1.377 1_556 S
N409 C408 1.344 . S
O410 Co402 2.055 . S
O410 C414 1.253 . S
H411 C407 0.931 . S
H412 C408 0.930 . S
O413 Co402 2.039 1_554 S
O413 C403 1.265 . S
C414 O410 1.253 . S
C414 O415 1.227 . S
O415 C414 1.227 . S
N416 Co402 2.140 1_554 S
N416 C419 1.346 . S
N416 C420 1.345 1_554 S
C417 C418 1.387 . S
C417 C421 1.391 1_554 S
C418 C417 1.387 . S
C418 C419 1.369 . S
C418 H427 0.929 . S
C419 N416 1.346 . S
C419 C418 1.369 . S
C419 H422 0.928 . S
C420 N416 1.345 1_556 S
C420 C421 1.371 . S
C420 H423 0.931 . S
C421 C417 1.391 1_556 S
C421 C420 1.371 . S
C421 H428 0.930 . S
H422 C419 0.928 . S
H423 C420 0.931 . S
H424 C400 0.930 . S
H425 C397 0.930 . S
H426 C406 0.930 . S
H427 C418 0.929 . S
H428 C421 0.930 . S
C429 C430 1.351 . S
C429 N432 1.368 . S
C429 H434 0.931 . S
C430 C429 1.351 . S
C430 N431 1.373 . S
C430 H458 0.930 . S
N431 C430 1.373 . S
N431 C433 1.340 . S
N432 C429 1.368 . S
N432 C433 1.321 . S
N432 Co435 2.135 . S
C433 N431 1.340 . S
C433 N432 1.321 . S
C433 H457 0.930 . S
H434 C429 0.931 . S
Co435 N432 2.135 . S
Co435 N438 2.121 . S
Co435 O443 2.055 . S
Co435 O446 2.039 . S
Co435 N449 2.140 . S
C436 O437 1.227 . S
C436 O446 1.265 . S
O437 C436 1.227 . S
N438 Co435 2.121 . S
N438 C440 1.375 . S
N438 C441 1.313 . S
C439 C440 1.338 . S
C439 N442 1.377 . S
C439 H459 0.930 . S
C440 N438 1.375 . S
C440 C439 1.338 . S
C440 H444 0.931 . S
C441 N438 1.313 . S
C441 N442 1.344 . S
C441 H445 0.930 . S
N442 C439 1.377 . S
N442 C441 1.344 . S
O443 Co435 2.055 . S
O443 C447 1.253 . S
H444 C440 0.931 . S
H445 C441 0.930 . S
O446 Co435 2.039 . S
O446 C436 1.265 . S
C447 O443 1.253 . S
C447 O448 1.227 . S
O448 C447 1.227 . S
N449 Co435 2.140 . S
N449 C452 1.346 . S
N449 C453 1.345 . S
C450 C451 1.387 . S
C450 C454 1.391 . S
C451 C450 1.387 . S
C451 C452 1.369 . S
C451 H460 0.929 . S
C452 N449 1.346 . S
C452 C451 1.369 . S
C452 H455 0.928 . S
C453 N449 1.345 . S
C453 C454 1.371 . S
C453 H456 0.931 . S
C454 C450 1.391 . S
C454 C453 1.371 . S
C454 H461 0.930 . S
H455 C452 0.928 . S
H456 C453 0.931 . S
H457 C433 0.930 . S
H458 C430 0.930 . S
H459 C439 0.930 . S
H460 C451 0.929 . S
H461 C454 0.930 . S
C462 C463 1.351 . S
C462 N465 1.368 . S
C462 H467 0.931 . S
C463 C462 1.351 . S
C463 N464 1.373 . S
C463 H491 0.930 . S
N464 C463 1.373 . S
N464 C466 1.340 . S
N465 C462 1.368 . S
N465 C466 1.321 . S
N465 Co468 2.135 . S
C466 N464 1.340 . S
C466 N465 1.321 . S
C466 H490 0.930 . S
H467 C462 0.931 . S
Co468 N465 2.135 . S
Co468 N471 2.121 . S
Co468 O476 2.055 . S
Co468 O479 2.039 . S
Co468 N482 2.140 . S
C469 O470 1.227 . S
C469 O479 1.265 . S
O470 C469 1.227 . S
N471 Co468 2.121 . S
N471 C473 1.375 . S
N471 C474 1.313 . S
C472 C473 1.338 . S
C472 N475 1.377 . S
C472 H492 0.930 . S
C473 N471 1.375 . S
C473 C472 1.338 . S
C473 H477 0.931 . S
C474 N471 1.313 . S
C474 N475 1.344 . S
C474 H478 0.930 . S
N475 C472 1.377 . S
N475 C474 1.344 . S
O476 Co468 2.055 . S
O476 C480 1.253 . S
H477 C473 0.931 . S
H478 C474 0.930 . S
O479 Co468 2.039 . S
O479 C469 1.265 . S
C480 O476 1.253 . S
C480 O481 1.227 . S
O481 C480 1.227 . S
N482 Co468 2.140 . S
N482 C485 1.346 . S
N482 C486 1.345 . S
C483 C484 1.387 . S
C483 C487 1.391 . S
C484 C483 1.387 . S
C484 C485 1.369 . S
C484 H493 0.929 . S
C485 N482 1.346 . S
C485 C484 1.369 . S
C485 H488 0.928 . S
C486 N482 1.345 . S
C486 C487 1.371 . S
C486 H489 0.931 . S
C487 C483 1.391 . S
C487 C486 1.371 . S
C487 H494 0.930 . S
H488 C485 0.928 . S
H489 C486 0.931 . S
H490 C466 0.930 . S
H491 C463 0.930 . S
H492 C472 0.930 . S
H493 C484 0.929 . S
H494 C487 0.930 . S
C495 C496 1.351 . S
C495 N498 1.368 . S
C495 H500 0.931 . S
C496 C495 1.351 . S
C496 N497 1.373 . S
C496 H524 0.930 . S
N497 C496 1.373 . S
N497 C499 1.340 . S
N498 C495 1.368 . S
N498 C499 1.321 . S
N498 Co501 2.135 . S
C499 N497 1.340 . S
C499 N498 1.321 . S
C499 H523 0.930 . S
H500 C495 0.931 . S
Co501 N498 2.135 . S
Co501 N504 2.121 . S
Co501 O509 2.055 . S
Co501 O512 2.039 . S
Co501 N515 2.140 . S
C502 O503 1.227 . S
C502 O512 1.265 . S
O503 C502 1.227 . S
N504 Co501 2.121 . S
N504 C506 1.375 . S
N504 C507 1.313 . S
C505 C506 1.338 . S
C505 N508 1.377 . S
C505 H525 0.930 . S
C506 N504 1.375 . S
C506 C505 1.338 . S
C506 H510 0.931 . S
C507 N504 1.313 . S
C507 N508 1.344 . S
C507 H511 0.930 . S
N508 C505 1.377 . S
N508 C507 1.344 . S
O509 Co501 2.055 . S
O509 C513 1.253 . S
H510 C506 0.931 . S
H511 C507 0.930 . S
O512 Co501 2.039 . S
O512 C502 1.265 . S
C513 O509 1.253 . S
C513 O514 1.227 . S
O514 C513 1.227 . S
N515 Co501 2.140 . S
N515 C518 1.346 . S
N515 C519 1.345 . S
C516 C517 1.387 . S
C516 C520 1.391 . S
C517 C516 1.387 . S
C517 C518 1.369 . S
C517 H526 0.929 . S
C518 N515 1.346 . S
C518 C517 1.369 . S
C518 H521 0.928 . S
C519 N515 1.345 . S
C519 C520 1.371 . S
C519 H522 0.931 . S
C520 C516 1.391 . S
C520 C519 1.371 . S
C520 H527 0.930 . S
H521 C518 0.928 . S
H522 C519 0.931 . S
H523 C499 0.930 . S
H524 C496 0.930 . S
H525 C505 0.930 . S
H526 C517 0.929 . S
H527 C520 0.930 . S
H528 C534 0.930 . S
H529 C538 0.930 . S
H530 C543 0.929 . S
H531 C541 0.929 . S
H532 C536 0.929 1_565 S
H533 C542 0.929 1_545 S
C534 H528 0.930 . S
C534 C535 1.367 . S
C534 C542 1.378 . S
C535 C534 1.367 . S
C535 C543 1.433 1_554 S
C536 H532 0.929 1_545 S
C536 C538 1.378 . S
C536 C540 1.350 1_556 S
C537 C540 1.463 1_665 S
C537 C542 1.350 . S
C537 N545 1.427 1_554 S
C538 H529 0.930 . S
C538 C536 1.378 . S
C538 C539 1.367 1_556 S
C539 C538 1.367 1_554 S
C539 C541 1.433 . S
C540 C536 1.350 1_554 S
C540 C537 1.463 1_445 S
C540 N544 1.427 . S
C541 H531 0.929 . S
C541 C539 1.433 . S
C541 N544 1.384 . S
C542 H533 0.929 1_565 S
C542 C534 1.378 . S
C542 C537 1.350 . S
C543 H530 0.929 . S
C543 C535 1.433 1_556 S
C543 N545 1.384 . S
N544 C540 1.427 . S
N544 C541 1.384 . S
N545 C537 1.427 1_556 S
N545 C543 1.384 . S
H546 C552 0.930 1_455 S
H547 C556 0.930 1_655 S
H548 C561 0.929 . S
H549 C559 0.929 . S
H550 C554 0.929 . S
H551 C560 0.929 . S
C552 H546 0.930 1_655 S
C552 C553 1.367 . S
C552 C560 1.378 1_655 S
C553 C552 1.367 . S
C553 C561 1.433 . S
C554 H550 0.929 . S
C554 C556 1.378 1_655 S
C554 C558 1.350 1_655 S
C555 C558 1.463 1_655 S
C555 C560 1.350 1_655 S
C555 N563 1.427 . S
C556 H547 0.930 1_455 S
C556 C554 1.378 1_455 S
C556 C557 1.367 . S
C557 C556 1.367 . S
C557 C559 1.433 . S
C558 C554 1.350 1_455 S
C558 C555 1.463 1_455 S
C558 N562 1.427 . S
C559 H549 0.929 . S
C559 C557 1.433 . S
C559 N562 1.384 . S
C560 H551 0.929 . S
C560 C552 1.378 1_455 S
C560 C555 1.350 1_455 S
C561 H548 0.929 . S
C561 C553 1.433 . S
C561 N563 1.384 . S
N562 C558 1.427 . S
N562 C559 1.384 . S
N563 C555 1.427 . S
N563 C561 1.384 . S
H564 C570 0.930 . S
H565 C574 0.930 . S
H566 C579 0.929 . S
H567 C577 0.929 . S
H568 C572 0.929 . S
H569 C578 0.929 . S
C570 H564 0.930 . S
C570 C571 1.367 . S
C570 C578 1.378 . S
C571 C570 1.367 . S
C571 C579 1.433 . S
C572 H568 0.929 . S
C572 C574 1.378 . S
C572 C576 1.350 . S
C573 C576 1.463 . S
C573 C578 1.350 . S
C573 N581 1.427 . S
C574 H565 0.930 . S
C574 C572 1.378 . S
C574 C575 1.367 . S
C575 C574 1.367 . S
C575 C577 1.433 . S
C576 C572 1.350 . S
C576 C573 1.463 . S
C576 N580 1.427 . S
C577 H567 0.929 . S
C577 C575 1.433 . S
C577 N580 1.384 . S
C578 H569 0.929 . S
C578 C570 1.378 . S
C578 C573 1.350 . S
C579 H566 0.929 . S
C579 C571 1.433 . S
C579 N581 1.384 . S
N580 C576 1.427 . S
N580 C577 1.384 . S
N581 C573 1.427 . S
N581 C579 1.384 . S
H582 C588 0.930 . S
H583 C592 0.930 . S
H584 C597 0.929 . S
H585 C595 0.929 . S
H586 C590 0.929 . S
H587 C596 0.929 . S
C588 H582 0.930 . S
C588 C589 1.367 . S
C588 C596 1.378 . S
C589 C588 1.367 . S
C589 C597 1.433 . S
C590 H586 0.929 . S
C590 C592 1.378 . S
C590 C594 1.350 . S
C591 C594 1.463 1_565 S
C591 C596 1.350 . S
C591 N599 1.427 . S
C592 H583 0.930 . S
C592 C590 1.378 . S
C592 C593 1.367 . S
C593 C592 1.367 . S
C593 C595 1.433 . S
C594 C590 1.350 . S
C594 C591 1.463 1_545 S
C594 N598 1.427 . S
C595 H585 0.929 . S
C595 C593 1.433 . S
C595 N598 1.384 . S
C596 H587 0.929 . S
C596 C588 1.378 . S
C596 C591 1.350 . S
C597 H584 0.929 . S
C597 C589 1.433 . S
C597 N599 1.384 . S
N598 C594 1.427 . S
N598 C595 1.384 . S
N599 C591 1.427 . S
N599 C597 1.384 . S
H600 C606 0.930 . S
H601 C610 0.930 . S
H602 C615 0.929 . S
H603 C613 0.929 . S
H604 C608 0.929 . S
H605 C614 0.929 . S
C606 H600 0.930 . S
C606 C607 1.367 . S
C606 C614 1.378 . S
C607 C606 1.367 . S
C607 C615 1.433 . S
C608 H604 0.929 . S
C608 C610 1.378 . S
C608 C612 1.350 . S
C609 C612 1.463 1_465 S
C609 C614 1.350 . S
C609 N617 1.427 1_565 S
C610 H601 0.930 . S
C610 C608 1.378 . S
C610 C611 1.367 . S
C611 C610 1.367 . S
C611 C613 1.433 . S
C612 C608 1.350 . S
C612 C609 1.463 1_645 S
C612 N616 1.427 1_545 S
C613 H603 0.929 . S
C613 C611 1.433 . S
C613 N616 1.384 1_545 S
C614 H605 0.929 . S
C614 C606 1.378 . S
C614 C609 1.350 . S
C615 H602 0.929 . S
C615 C607 1.433 . S
C615 N617 1.384 1_565 S
N616 C612 1.427 1_565 S
N616 C613 1.384 1_565 S
N617 C609 1.427 1_545 S
N617 C615 1.384 1_545 S
H618 C624 0.930 . S
H619 C628 0.930 . S
H620 C633 0.929 . S
H621 C631 0.929 . S
H622 C626 0.929 . S
H623 C632 0.929 . S
C624 H618 0.930 . S
C624 C625 1.367 . S
C624 C632 1.378 . S
C625 C624 1.367 . S
C625 C633 1.433 . S
C626 H622 0.929 . S
C626 C628 1.378 . S
C626 C630 1.350 . S
C627 C630 1.463 1_655 S
C627 C632 1.350 . S
C627 N635 1.427 . S
C628 H619 0.930 . S
C628 C626 1.378 . S
C628 C629 1.367 . S
C629 C628 1.367 . S
C629 C631 1.433 . S
C630 C626 1.350 . S
C630 C627 1.463 1_455 S
C630 N634 1.427 . S
C631 H621 0.929 . S
C631 C629 1.433 . S
C631 N634 1.384 . S
C632 H623 0.929 . S
C632 C624 1.378 . S
C632 C627 1.350 . S
C633 H620 0.929 . S
C633 C625 1.433 . S
C633 N635 1.384 . S
N634 C630 1.427 . S
N634 C631 1.384 . S
N635 C627 1.427 . S
N635 C633 1.384 . S
H636 C642 0.930 . S
H637 C646 0.930 . S
H638 C651 0.929 . S
H639 C649 0.929 . S
H640 C644 0.929 . S
H641 C650 0.929 . S
C642 H636 0.930 . S
C642 C643 1.367 1_556 S
C642 C650 1.378 . S
C643 C642 1.367 1_554 S
C643 C651 1.433 . S
C644 H640 0.929 . S
C644 C646 1.378 . S
C644 C648 1.350 . S
C645 C648 1.463 . S
C645 C650 1.350 1_554 S
C645 N653 1.427 . S
C646 H637 0.930 . S
C646 C644 1.378 . S
C646 C647 1.367 . S
C647 C646 1.367 . S
C647 C649 1.433 1_554 S
C648 C644 1.350 . S
C648 C645 1.463 . S
C648 N652 1.427 1_554 S
C649 H639 0.929 . S
C649 C647 1.433 1_556 S
C649 N652 1.384 . S
C650 H641 0.929 . S
C650 C642 1.378 . S
C650 C645 1.350 1_556 S
C651 H638 0.929 . S
C651 C643 1.433 . S
C651 N653 1.384 . S
N652 C648 1.427 1_556 S
N652 C649 1.384 . S
N653 C645 1.427 . S
N653 C651 1.384 . S
H654 C660 0.930 . S
H655 C664 0.930 . S
H656 C669 0.929 . S
H657 C667 0.929 . S
H658 C662 0.929 . S
H659 C668 0.929 . S
C660 H654 0.930 . S
C660 C661 1.367 . S
C660 C668 1.378 . S
C661 C660 1.367 . S
C661 C669 1.433 . S
C662 H658 0.929 . S
C662 C664 1.378 . S
C662 C666 1.350 . S
C663 C666 1.463 1_565 S
C663 C668 1.350 . S
C663 N671 1.427 . S
C664 H655 0.930 . S
C664 C662 1.378 . S
C664 C665 1.367 . S
C665 C664 1.367 . S
C665 C667 1.433 . S
C666 C662 1.350 . S
C666 C663 1.463 1_545 S
C666 N670 1.427 . S
C667 H657 0.929 . S
C667 C665 1.433 . S
C667 N670 1.384 . S
C668 H659 0.929 . S
C668 C660 1.378 . S
C668 C663 1.350 . S
C669 H656 0.929 . S
C669 C661 1.433 . S
C669 N671 1.384 . S
N670 C666 1.427 . S
N670 C667 1.384 . S
N671 C663 1.427 . S
N671 C669 1.384 . S
H672 C678 0.930 . S
H673 C682 0.930 1_565 S
H674 C687 0.929 . S
H675 C685 0.929 . S
H676 C680 0.929 . S
H677 C686 0.929 1_545 S
C678 H672 0.930 . S
C678 C679 1.367 . S
C678 C686 1.378 . S
C679 C678 1.367 . S
C679 C687 1.433 . S
C680 H676 0.929 . S
C680 C682 1.378 1_565 S
C680 C684 1.354 . S
C681 C684 1.466 . S
C681 C686 1.350 . S
C681 N689 1.427 . S
C682 H673 0.930 1_545 S
C682 C680 1.378 1_545 S
C682 C683 1.367 . S
C683 C682 1.367 . S
C683 C685 1.433 . S
C684 C680 1.354 . S
C684 C681 1.466 . S
C684 N688 1.420 1_565 S
C685 H675 0.929 . S
C685 C683 1.433 . S
C685 N688 1.384 . S
C686 H677 0.929 1_565 S
C686 C678 1.378 . S
C686 C681 1.350 . S
C687 H674 0.929 . S
C687 C679 1.433 . S
C687 N689 1.384 . S
N688 C684 1.420 1_545 S
N688 C685 1.384 . S
N689 C681 1.427 . S
N689 C687 1.384 . S
H690 C696 0.930 . S
H691 C700 0.930 . S
H692 C705 0.929 . S
H693 C703 0.929 . S
H694 C698 0.906 1_455 S
H695 C704 0.929 . S
C696 H690 0.930 . S
C696 C697 1.367 . S
C696 C704 1.378 . S
C697 C696 1.367 . S
C697 C705 1.433 . S
C698 H694 0.906 1_655 S
C698 C700 1.404 . S
C698 C702 1.349 . S
C699 C702 1.460 1_455 S
C699 C704 1.350 . S
C699 N707 1.427 . S
C700 H691 0.930 . S
C700 C698 1.404 . S
C700 C701 1.367 . S
C701 C700 1.367 . S
C701 C703 1.433 . S
C702 C698 1.349 . S
C702 C699 1.460 1_655 S
C702 N706 1.429 . S
C703 H693 0.929 . S
C703 C701 1.433 . S
C703 N706 1.384 . S
C704 H695 0.929 . S
C704 C696 1.378 . S
C704 C699 1.350 . S
C705 H692 0.929 . S
C705 C697 1.433 . S
C705 N707 1.384 . S
N706 C702 1.429 . S
N706 C703 1.384 . S
N707 C699 1.427 . S
N707 C705 1.384 . S
H708 C714 0.930 . S
H709 C718 0.930 . S
H710 C723 0.929 . S
H711 C721 0.929 . S
H712 C716 0.929 . S
H713 C722 0.929 . S
C714 H708 0.930 . S
C714 C715 1.367 . S
C714 C722 1.378 . S
C715 C714 1.367 . S
C715 C723 1.433 . S
C716 H712 0.929 . S
C716 C718 1.378 . S
C716 C720 1.350 . S
C717 C720 1.463 . S
C717 C722 1.350 . S
C717 N725 1.427 . S
C718 H709 0.930 . S
C718 C716 1.378 . S
C718 C719 1.367 . S
C719 C718 1.367 . S
C719 C721 1.433 . S
C720 C716 1.350 . S
C720 C717 1.463 . S
C720 N724 1.427 . S
C721 H711 0.929 . S
C721 C719 1.433 . S
C721 N724 1.384 . S
C722 H713 0.929 . S
C722 C714 1.378 . S
C722 C717 1.350 . S
C723 H710 0.929 . S
C723 C715 1.433 . S
C723 N725 1.384 . S
N724 C720 1.427 . S
N724 C721 1.384 . S
N725 C717 1.427 . S
N725 C723 1.384 . S
H726 C732 0.930 . S
H727 C736 0.930 . S
H728 C741 0.929 . S
H729 C739 0.929 . S
H730 C734 0.929 . S
H731 C740 0.929 1_556 S
C732 H726 0.930 . S
C732 C733 1.367 . S
C732 C740 1.378 . S
C733 C732 1.367 . S
C733 C741 1.433 . S
C734 H730 0.929 . S
C734 C736 1.378 . S
C734 C738 1.350 . S
C735 C738 1.463 1_554 S
C735 C740 1.350 . S
C735 N743 1.427 . S
C736 H727 0.930 . S
C736 C734 1.378 . S
C736 C737 1.367 . S
C737 C736 1.367 . S
C737 C739 1.433 . S
C738 C734 1.350 . S
C738 C735 1.463 1_556 S
C738 N742 1.427 . S
C739 H729 0.929 . S
C739 C737 1.433 . S
C739 N742 1.384 . S
C740 H731 0.929 1_554 S
C740 C732 1.378 . S
C740 C735 1.350 . S
C741 H728 0.929 . S
C741 C733 1.433 . S
C741 N743 1.384 . S
N742 C738 1.427 . S
N742 C739 1.384 . S
N743 C735 1.427 . S
N743 C741 1.384 . S
H744 C750 0.930 . S
H745 C754 0.930 . S
H746 C759 0.929 . S
H747 C757 0.929 . S
H748 C752 0.929 . S
H749 C758 0.929 . S
C750 H744 0.930 . S
C750 C751 1.367 . S
C750 C758 1.378 . S
C751 C750 1.367 . S
C751 C759 1.433 . S
C752 H748 0.929 . S
C752 C754 1.378 . S
C752 C756 1.350 . S
C753 C756 1.445 1_545 S
C753 C758 1.370 . S
C753 N761 1.424 1_545 S
C754 H745 0.930 . S
C754 C752 1.378 . S
C754 C755 1.367 . S
C755 C754 1.367 . S
C755 C757 1.433 . S
C756 C752 1.350 . S
C756 C753 1.445 1_565 S
C756 N760 1.427 . S
C757 H747 0.929 . S
C757 C755 1.433 . S
C757 N760 1.384 . S
C758 H749 0.929 . S
C758 C750 1.378 . S
C758 C753 1.370 . S
C759 H746 0.929 . S
C759 C751 1.433 . S
C759 N761 1.384 1_545 S
N760 C756 1.427 . S
N760 C757 1.384 . S
N761 C753 1.424 1_565 S
N761 C759 1.384 1_565 S
H762 C768 0.930 . S
H763 C772 0.930 . S
H764 C777 0.929 1_455 S
H765 C775 0.929 . S
H766 C770 0.929 1_556 S
H767 C776 0.929 . S
C768 H762 0.930 . S
C768 C769 1.367 . S
C768 C776 1.378 . S
C769 C768 1.367 . S
C769 C777 1.433 . S
C770 H766 0.929 1_554 S
C770 C772 1.378 . S
C770 C774 1.350 . S
C771 C774 1.436 1_656 S
C771 C776 1.394 . S
C771 N779 1.407 1_655 S
C772 H763 0.930 . S
C772 C770 1.378 . S
C772 C773 1.367 . S
C773 C772 1.367 . S
C773 C775 1.433 . S
C774 C770 1.350 . S
C774 C771 1.436 1_454 S
C774 N778 1.427 . S
C775 H765 0.929 . S
C775 C773 1.433 . S
C775 N778 1.384 . S
C776 H767 0.929 . S
C776 C768 1.378 . S
C776 C771 1.394 . S
C777 H764 0.929 1_655 S
C777 C769 1.433 . S
C777 N779 1.384 1_655 S
N778 C774 1.427 . S
N778 C775 1.384 . S
N779 C771 1.407 1_455 S
N779 C777 1.384 1_455 S
H780 C786 0.930 . S
H781 C790 0.930 . S
H782 C795 0.929 . S
H783 C793 0.929 . S
H784 C788 0.929 . S
H785 C794 0.929 . S
C786 H780 0.930 . S
C786 C787 1.367 . S
C786 C794 1.378 . S
C787 C786 1.367 . S
C787 C795 1.433 . S
C788 H784 0.929 . S
C788 C790 1.378 . S
C788 C792 1.350 . S
C789 C792 1.463 . S
C789 C794 1.350 . S
C789 N797 1.427 . S
C790 H781 0.930 . S
C790 C788 1.378 . S
C790 C791 1.367 . S
C791 C790 1.367 . S
C791 C793 1.433 . S
C792 C788 1.350 . S
C792 C789 1.463 . S
C792 N796 1.427 . S
C793 H783 0.929 . S
C793 C791 1.433 . S
C793 N796 1.384 . S
C794 H785 0.929 . S
C794 C786 1.378 . S
C794 C789 1.350 . S
C795 H782 0.929 . S
C795 C787 1.433 . S
C795 N797 1.384 . S
N796 C792 1.427 . S
N796 C793 1.384 . S
N797 C789 1.427 . S
N797 C795 1.384 . S
H798 C804 0.930 . S
H799 C808 0.930 . S
H800 C813 0.929 . S
H801 C811 0.929 . S
H802 C806 0.929 . S
H803 C812 0.929 . S
C804 H798 0.930 . S
C804 C805 1.367 . S
C804 C812 1.378 . S
C805 C804 1.367 . S
C805 C813 1.433 . S
C806 H802 0.929 . S
C806 C808 1.378 . S
C806 C810 1.350 . S
C807 C810 1.463 . S
C807 C812 1.350 . S
C807 N815 1.427 . S
C808 H799 0.930 . S
C808 C806 1.378 . S
C808 C809 1.367 . S
C809 C808 1.367 . S
C809 C811 1.433 . S
C810 C806 1.350 . S
C810 C807 1.463 . S
C810 N814 1.427 . S
C811 H801 0.929 . S
C811 C809 1.433 . S
C811 N814 1.384 . S
C812 H803 0.929 . S
C812 C804 1.378 . S
C812 C807 1.350 . S
C813 H800 0.929 . S
C813 C805 1.433 . S
C813 N815 1.384 . S
N814 C810 1.427 . S
N814 C811 1.384 . S
N815 C807 1.427 . S
N815 C813 1.384 . S
H816 C822 0.930 . S
H817 C826 0.930 . S
H818 C831 0.929 . S
H819 C829 0.929 . S
H820 C824 0.929 . S
H821 C830 0.929 . S
C822 H816 0.930 . S
C822 C823 1.367 . S
C822 C830 1.378 . S
C823 C822 1.367 . S
C823 C831 1.433 . S
C824 H820 0.929 . S
C824 C826 1.378 . S
C824 C828 1.350 . S
C825 C828 1.463 . S
C825 C830 1.350 . S
C825 N833 1.427 . S
C826 H817 0.930 . S
C826 C824 1.378 . S
C826 C827 1.367 . S
C827 C826 1.367 . S
C827 C829 1.433 . S
C828 C824 1.350 . S
C828 C825 1.463 . S
C828 N832 1.427 . S
C829 H819 0.929 . S
C829 C827 1.433 . S
C829 N832 1.384 . S
C830 H821 0.929 . S
C830 C822 1.378 . S
C830 C825 1.350 . S
C831 H818 0.929 . S
C831 C823 1.433 . S
C831 N833 1.384 . S
N832 C828 1.427 . S
N832 C829 1.384 . S
N833 C825 1.427 . S
N833 C831 1.384 . S
H834 C840 0.930 . S
H835 C844 0.930 . S
H836 C849 0.929 . S
H837 C847 0.929 . S
H838 C842 0.929 . S
H839 C848 0.929 . S
C840 H834 0.930 . S
C840 C841 1.367 . S
C840 C848 1.378 . S
C841 C840 1.367 . S
C841 C849 1.433 . S
C842 H838 0.929 . S
C842 C844 1.378 . S
C842 C846 1.350 . S
C843 C846 1.463 1_554 S
C843 C848 1.350 . S
C843 N851 1.427 . S
C844 H835 0.930 . S
C844 C842 1.378 . S
C844 C845 1.367 . S
C845 C844 1.367 . S
C845 C847 1.433 . S
C846 C842 1.350 . S
C846 C843 1.463 1_556 S
C846 N850 1.427 . S
C847 H837 0.929 . S
C847 C845 1.433 . S
C847 N850 1.384 . S
C848 H839 0.929 . S
C848 C840 1.378 . S
C848 C843 1.350 . S
C849 H836 0.929 . S
C849 C841 1.433 . S
C849 N851 1.384 . S
N850 C846 1.427 . S
N850 C847 1.384 . S
N851 C843 1.427 . S
N851 C849 1.384 . S
H852 C858 0.930 . S
H853 C862 0.930 . S
H854 C867 0.929 . S
H855 C865 0.929 . S
H856 C860 0.929 . S
H857 C866 0.929 . S
C858 H852 0.930 . S
C858 C859 1.367 . S
C858 C866 1.378 . S
C859 C858 1.367 . S
C859 C867 1.433 . S
C860 H856 0.929 . S
C860 C862 1.378 . S
C860 C864 1.377 . S
C861 C864 1.442 1_545 S
C861 C866 1.350 . S
C861 N869 1.427 . S
C862 H853 0.930 . S
C862 C860 1.378 . S
C862 C863 1.367 . S
C863 C862 1.367 . S
C863 C865 1.433 . S
C864 C860 1.377 . S
C864 C861 1.442 1_565 S
C864 N868 1.419 1_565 S
C865 H855 0.929 . S
C865 C863 1.433 . S
C865 N868 1.384 1_565 S
C866 H857 0.929 . S
C866 C858 1.378 . S
C866 C861 1.350 . S
C867 H854 0.929 . S
C867 C859 1.433 . S
C867 N869 1.384 . S
N868 C864 1.419 1_545 S
N868 C865 1.384 1_545 S
N869 C861 1.427 . S
N869 C867 1.384 . S
H870 C876 0.930 . S
H871 C880 0.930 . S
H872 C885 0.929 . S
H873 C883 0.929 . S
H874 C878 0.929 . S
H875 C884 0.929 . S
C876 H870 0.930 . S
C876 C877 1.367 . S
C876 C884 1.378 . S
C877 C876 1.367 . S
C877 C885 1.433 . S
C878 H874 0.929 . S
C878 C880 1.378 . S
C878 C882 1.350 . S
C879 C882 1.441 1_455 S
C879 C884 1.379 . S
C879 N887 1.417 1_455 S
C880 H871 0.930 . S
C880 C878 1.378 . S
C880 C881 1.367 . S
C881 C880 1.367 . S
C881 C883 1.433 . S
C882 C878 1.350 . S
C882 C879 1.441 1_655 S
C882 N886 1.427 . S
C883 H873 0.929 . S
C883 C881 1.433 . S
C883 N886 1.384 . S
C884 H875 0.929 . S
C884 C876 1.378 . S
C884 C879 1.379 . S
C885 H872 0.929 . S
C885 C877 1.433 . S
C885 N887 1.384 1_455 S
N886 C882 1.427 . S
N886 C883 1.384 . S
N887 C879 1.417 1_655 S
N887 C885 1.384 1_655 S
H888 C894 0.930 . S
H889 C898 0.930 . S
H890 C903 0.929 . S
H891 C901 0.929 . S
H892 C896 0.929 . S
H893 C902 0.929 . S
C894 H888 0.930 . S
C894 C895 1.367 . S
C894 C902 1.378 . S
C895 C894 1.367 . S
C895 C903 1.433 . S
C896 H892 0.929 . S
C896 C898 1.378 . S
C896 C900 1.350 . S
C897 C900 1.463 . S
C897 C902 1.350 . S
C897 N905 1.427 . S
C898 H889 0.930 . S
C898 C896 1.378 . S
C898 C899 1.367 . S
C899 C898 1.367 . S
C899 C901 1.433 . S
C900 C896 1.350 . S
C900 C897 1.463 . S
C900 N904 1.427 . S
C901 H891 0.929 . S
C901 C899 1.433 . S
C901 N904 1.384 . S
C902 H893 0.929 . S
C902 C894 1.378 . S
C902 C897 1.350 . S
C903 H890 0.929 . S
C903 C895 1.433 . S
C903 N905 1.384 . S
N904 C900 1.427 . S
N904 C901 1.384 . S
N905 C897 1.427 . S
N905 C903 1.384 . S
H906 C912 0.930 . S
H907 C916 0.930 . S
H908 C921 0.929 . S
H909 C919 0.929 . S
H910 C914 0.929 . S
H911 C920 0.929 . S
C912 H906 0.930 . S
C912 C913 1.367 . S
C912 C920 1.378 . S
C913 C912 1.367 . S
C913 C921 1.433 . S
C914 H910 0.929 . S
C914 C916 1.378 . S
C914 C918 1.350 . S
C915 C918 1.463 . S
C915 C920 1.350 . S
C915 N923 1.427 . S
C916 H907 0.930 . S
C916 C914 1.378 . S
C916 C917 1.367 . S
C917 C916 1.367 . S
C917 C919 1.433 . S
C918 C914 1.350 . S
C918 C915 1.463 . S
C918 N922 1.427 . S
C919 H909 0.929 . S
C919 C917 1.433 . S
C919 N922 1.384 . S
C920 H911 0.929 . S
C920 C912 1.378 . S
C920 C915 1.350 . S
C921 H908 0.929 . S
C921 C913 1.433 . S
C921 N923 1.384 . S
N922 C918 1.427 . S
N922 C919 1.384 . S
N923 C915 1.427 . S
N923 C921 1.384 . S
H924 C930 0.930 . S
H925 C934 0.930 . S
H926 C939 0.929 . S
H927 C937 0.929 . S
H928 C932 0.929 . S
H929 C938 0.929 1_545 S
C930 H924 0.930 . S
C930 C931 1.367 . S
C930 C938 1.378 . S
C931 C930 1.367 . S
C931 C939 1.433 . S
C932 H928 0.929 . S
C932 C934 1.378 . S
C932 C936 1.350 . S
C933 C936 1.459 1_565 S
C933 C938 1.350 . S
C933 N941 1.430 . S
C934 H925 0.930 . S
C934 C932 1.378 . S
C934 C935 1.367 . S
C935 C934 1.367 . S
C935 C937 1.433 . S
C936 C932 1.350 . S
C936 C933 1.459 1_545 S
C936 N940 1.427 . S
C937 H927 0.929 . S
C937 C935 1.433 . S
C937 N940 1.384 . S
C938 H929 0.929 1_565 S
C938 C930 1.378 . S
C938 C933 1.350 . S
C939 H926 0.929 . S
C939 C931 1.433 . S
C939 N941 1.384 . S
N940 C936 1.427 . S
N940 C937 1.384 . S
N941 C933 1.430 . S
N941 C939 1.384 . S
H942 C948 0.930 . S
H943 C952 0.930 . S
H944 C957 0.929 . S
H945 C955 0.929 . S
H946 C950 0.929 1_655 S
H947 C956 0.929 . S
C948 H942 0.930 . S
C948 C949 1.367 . S
C948 C956 1.378 . S
C949 C948 1.367 . S
C949 C957 1.433 . S
C950 H946 0.929 1_455 S
C950 C952 1.378 . S
C950 C954 1.351 . S
C951 C954 1.458 1_654 S
C951 C956 1.350 . S
C951 N959 1.427 . S
C952 H943 0.930 . S
C952 C950 1.378 . S
C952 C953 1.367 . S
C953 C952 1.367 . S
C953 C955 1.433 . S
C954 C950 1.351 . S
C954 C951 1.458 1_456 S
C954 N958 1.431 . S
C955 H945 0.929 . S
C955 C953 1.433 . S
C955 N958 1.384 . S
C956 H947 0.929 . S
C956 C948 1.378 . S
C956 C951 1.350 . S
C957 H944 0.929 . S
C957 C949 1.433 . S
C957 N959 1.384 . S
N958 C954 1.431 . S
N958 C955 1.384 . S
N959 C951 1.427 . S
N959 C957 1.384 . S
H960 C966 0.930 . S
H961 C970 0.930 . S
H962 C975 0.929 . S
H963 C973 0.929 . S
H964 C968 0.929 . S
H965 C974 0.929 . S
C966 H960 0.930 . S
C966 C967 1.367 . S
C966 C974 1.378 . S
C967 C966 1.367 . S
C967 C975 1.433 . S
C968 H964 0.929 . S
C968 C970 1.378 . S
C968 C972 1.350 . S
C969 C972 1.463 . S
C969 C974 1.350 . S
C969 N977 1.427 . S
C970 H961 0.930 . S
C970 C968 1.378 . S
C970 C971 1.367 . S
C971 C970 1.367 . S
C971 C973 1.433 . S
C972 C968 1.350 . S
C972 C969 1.463 . S
C972 N976 1.427 . S
C973 H963 0.929 . S
C973 C971 1.433 . S
C973 N976 1.384 . S
C974 H965 0.929 . S
C974 C966 1.378 . S
C974 C969 1.350 . S
C975 H962 0.929 . S
C975 C967 1.433 . S
C975 N977 1.384 . S
N976 C972 1.427 . S
N976 C973 1.384 . S
N977 C969 1.427 . S
N977 C975 1.384 . S
H978 C984 0.930 . S
H979 C988 0.930 . S
H980 C993 0.929 . S
H981 C991 0.929 . S
H982 C986 0.929 . S
H983 C992 0.929 . S
C984 H978 0.930 . S
C984 C985 1.367 . S
C984 C992 1.378 . S
C985 C984 1.367 . S
C985 C993 1.433 . S
C986 H982 0.929 . S
C986 C988 1.378 . S
C986 C990 1.350 . S
C987 C990 1.463 . S
C987 C992 1.350 . S
C987 N995 1.427 . S
C988 H979 0.930 . S
C988 C986 1.378 . S
C988 C989 1.367 . S
C989 C988 1.367 . S
C989 C991 1.433 . S
C990 C986 1.350 . S
C990 C987 1.463 . S
C990 N994 1.427 . S
C991 H981 0.929 . S
C991 C989 1.433 . S
C991 N994 1.384 . S
C992 H983 0.929 . S
C992 C984 1.378 . S
C992 C987 1.350 . S
C993 H980 0.929 . S
C993 C985 1.433 . S
C993 N995 1.384 . S
N994 C990 1.427 . S
N994 C991 1.384 . S
N995 C987 1.427 . S
N995 C993 1.384 . S
H996 C1002 0.930 . S
H997 C1006 0.930 . S
H998 C1011 0.929 . S
H999 C1009 0.929 . S
H1000 C1004 0.929 . S
H1001 C1010 0.929 . S
C1002 H996 0.930 . S
C1002 C1003 1.367 . S
C1002 C1010 1.378 . S
C1003 C1002 1.367 . S
C1003 C1011 1.433 . S
C1004 H1000 0.929 . S
C1004 C1006 1.378 . S
C1004 C1008 1.350 . S
C1005 C1008 1.463 . S
C1005 C1010 1.350 . S
C1005 N1013 1.427 . S
C1006 H997 0.930 . S
C1006 C1004 1.378 . S
C1006 C1007 1.367 . S
C1007 C1006 1.367 . S
C1007 C1009 1.433 . S
C1008 C1004 1.350 . S
C1008 C1005 1.463 . S
C1008 N1012 1.427 . S
C1009 H999 0.929 . S
C1009 C1007 1.433 . S
C1009 N1012 1.384 . S
C1010 H1001 0.929 . S
C1010 C1002 1.378 . S
C1010 C1005 1.350 . S
C1011 H998 0.929 . S
C1011 C1003 1.433 . S
C1011 N1013 1.384 . S
N1012 C1008 1.427 . S
N1012 C1009 1.384 . S
N1013 C1005 1.427 . S
N1013 C1011 1.384 . S
H1014 C1020 0.930 . S
H1015 C1024 0.930 . S
H1016 C1029 0.929 . S
H1017 C1027 0.929 . S
H1018 C1022 0.929 . S
H1019 C1028 0.929 . S
C1020 H1014 0.930 . S
C1020 C1021 1.367 . S
C1020 C1028 1.378 . S
C1021 C1020 1.367 . S
C1021 C1029 1.433 . S
C1022 H1018 0.929 . S
C1022 C1024 1.378 . S
C1022 C1026 1.350 . S
C1023 C1026 1.463 . S
C1023 C1028 1.350 . S
C1023 N1031 1.427 . S
C1024 H1015 0.930 . S
C1024 C1022 1.378 . S
C1024 C1025 1.367 . S
C1025 C1024 1.367 . S
C1025 C1027 1.433 . S
C1026 C1022 1.350 . S
C1026 C1023 1.463 . S
C1026 N1030 1.427 . S
C1027 H1017 0.929 . S
C1027 C1025 1.433 . S
C1027 N1030 1.384 . S
C1028 H1019 0.929 . S
C1028 C1020 1.378 . S
C1028 C1023 1.350 . S
C1029 H1016 0.929 . S
C1029 C1021 1.433 . S
C1029 N1031 1.384 . S
N1030 C1026 1.427 . S
N1030 C1027 1.384 . S
N1031 C1023 1.427 . S
N1031 C1029 1.384 . S
H1032 C1038 0.930 . S
H1033 C1042 0.930 . S
H1034 C1047 0.929 . S
H1035 C1045 0.929 . S
H1036 C1040 0.929 . S
H1037 C1046 0.929 . S
C1038 H1032 0.930 . S
C1038 C1039 1.367 . S
C1038 C1046 1.378 . S
C1039 C1038 1.367 . S
C1039 C1047 1.433 . S
C1040 H1036 0.929 . S
C1040 C1042 1.378 . S
C1040 C1044 1.350 . S
C1041 C1044 1.463 . S
C1041 C1046 1.350 . S
C1041 N1049 1.427 . S
C1042 H1033 0.930 . S
C1042 C1040 1.378 . S
C1042 C1043 1.367 . S
C1043 C1042 1.367 . S
C1043 C1045 1.433 . S
C1044 C1040 1.350 . S
C1044 C1041 1.463 . S
C1044 N1048 1.427 . S
C1045 H1035 0.929 . S
C1045 C1043 1.433 . S
C1045 N1048 1.384 . S
C1046 H1037 0.929 . S
C1046 C1038 1.378 . S
C1046 C1041 1.350 . S
C1047 H1034 0.929 . S
C1047 C1039 1.433 . S
C1047 N1049 1.384 . S
N1048 C1044 1.427 . S
N1048 C1045 1.384 . S
N1049 C1041 1.427 . S
N1049 C1047 1.384 . S
H1050 C1056 0.930 . S
H1051 C1060 0.930 1_554 S
H1052 C1065 0.929 . S
H1053 C1063 0.929 . S
H1054 C1058 0.929 . S
H1055 C1064 0.929 . S
C1056 H1050 0.930 . S
C1056 C1057 1.367 . S
C1056 C1064 1.378 . S
C1057 C1056 1.367 . S
C1057 C1065 1.433 . S
C1058 H1054 0.929 . S
C1058 C1060 1.378 . S
C1058 C1062 1.350 . S
C1059 C1062 1.463 . S
C1059 C1064 1.350 . S
C1059 N1067 1.427 . S
C1060 H1051 0.930 1_556 S
C1060 C1058 1.378 . S
C1060 C1061 1.367 . S
C1061 C1060 1.367 . S
C1061 C1063 1.433 . S
C1062 C1058 1.350 . S
C1062 C1059 1.463 . S
C1062 N1066 1.427 . S
C1063 H1053 0.929 . S
C1063 C1061 1.433 . S
C1063 N1066 1.384 . S
C1064 H1055 0.929 . S
C1064 C1056 1.378 . S
C1064 C1059 1.350 . S
C1065 H1052 0.929 . S
C1065 C1057 1.433 . S
C1065 N1067 1.384 . S
N1066 C1062 1.427 . S
N1066 C1063 1.384 . S
N1067 C1059 1.427 . S
N1067 C1065 1.384 . S
H1068 C1074 0.930 . S
H1069 C1078 0.930 . S
H1070 C1083 0.929 . S
H1071 C1081 0.929 1_556 S
H1072 C1076 0.929 . S
H1073 C1082 0.929 . S
C1074 H1068 0.930 . S
C1074 C1075 1.367 . S
C1074 C1082 1.378 . S
C1075 C1074 1.367 . S
C1075 C1083 1.433 . S
C1076 H1072 0.929 . S
C1076 C1078 1.378 . S
C1076 C1080 1.350 . S
C1077 C1080 1.463 . S
C1077 C1082 1.350 . S
C1077 N1085 1.427 . S
C1078 H1069 0.930 . S
C1078 C1076 1.378 . S
C1078 C1079 1.367 . S
C1079 C1078 1.367 . S
C1079 C1081 1.433 . S
C1080 C1076 1.350 . S
C1080 C1077 1.463 . S
C1080 N1084 1.427 . S
C1081 H1071 0.929 1_554 S
C1081 C1079 1.433 . S
C1081 N1084 1.384 . S
C1082 H1073 0.929 . S
C1082 C1074 1.378 . S
C1082 C1077 1.350 . S
C1083 H1070 0.929 . S
C1083 C1075 1.433 . S
C1083 N1085 1.384 . S
N1084 C1080 1.427 . S
N1084 C1081 1.384 . S
N1085 C1077 1.427 . S
N1085 C1083 1.384 . S
H1086 C1092 0.930 . S
H1087 C1096 0.930 . S
H1088 C1101 0.929 . S
H1089 C1099 0.929 . S
H1090 C1094 0.929 . S
H1091 C1100 0.929 . S
C1092 H1086 0.930 . S
C1092 C1093 1.367 . S
C1092 C1100 1.378 . S
C1093 C1092 1.367 . S
C1093 C1101 1.433 . S
C1094 H1090 0.929 . S
C1094 C1096 1.378 . S
C1094 C1098 1.350 . S
C1095 C1098 1.463 . S
C1095 C1100 1.350 . S
C1095 N1103 1.427 . S
C1096 H1087 0.930 . S
C1096 C1094 1.378 . S
C1096 C1097 1.367 . S
C1097 C1096 1.367 . S
C1097 C1099 1.433 . S
C1098 C1094 1.350 . S
C1098 C1095 1.463 . S
C1098 N1102 1.427 . S
C1099 H1089 0.929 . S
C1099 C1097 1.433 . S
C1099 N1102 1.384 . S
C1100 H1091 0.929 . S
C1100 C1092 1.378 . S
C1100 C1095 1.350 . S
C1101 H1088 0.929 . S
C1101 C1093 1.433 . S
C1101 N1103 1.384 . S
N1102 C1098 1.427 . S
N1102 C1099 1.384 . S
N1103 C1095 1.427 . S
N1103 C1101 1.384 . S
H1104 C1110 0.930 . S
H1105 C1114 0.930 . S
H1106 C1119 0.929 . S
H1107 C1117 0.929 . S
H1108 C1112 0.929 . S
H1109 C1118 0.929 . S
C1110 H1104 0.930 . S
C1110 C1111 1.367 . S
C1110 C1118 1.378 . S
C1111 C1110 1.367 . S
C1111 C1119 1.433 . S
C1112 H1108 0.929 . S
C1112 C1114 1.378 . S
C1112 C1116 1.350 . S
C1113 C1116 1.463 . S
C1113 C1118 1.350 . S
C1113 N1121 1.427 . S
C1114 H1105 0.930 . S
C1114 C1112 1.378 . S
C1114 C1115 1.367 . S
C1115 C1114 1.367 . S
C1115 C1117 1.433 . S
C1116 C1112 1.350 . S
C1116 C1113 1.463 . S
C1116 N1120 1.427 . S
C1117 H1107 0.929 . S
C1117 C1115 1.433 . S
C1117 N1120 1.384 . S
C1118 H1109 0.929 . S
C1118 C1110 1.378 . S
C1118 C1113 1.350 . S
C1119 H1106 0.929 . S
C1119 C1111 1.433 . S
C1119 N1121 1.384 . S
N1120 C1116 1.427 . S
N1120 C1117 1.384 . S
N1121 C1113 1.427 . S
N1121 C1119 1.384 . S
H1122 C1128 0.930 . S
H1123 C1132 0.930 . S
H1124 C1137 0.929 . S
H1125 C1135 0.929 . S
H1126 C1130 0.929 . S
H1127 C1136 0.929 . S
C1128 H1122 0.930 . S
C1128 C1129 1.367 . S
C1128 C1136 1.378 . S
C1129 C1128 1.367 . S
C1129 C1137 1.433 . S
C1130 H1126 0.929 . S
C1130 C1132 1.378 . S
C1130 C1134 1.350 . S
C1131 C1134 1.463 . S
C1131 C1136 1.350 . S
C1131 N1139 1.427 . S
C1132 H1123 0.930 . S
C1132 C1130 1.378 . S
C1132 C1133 1.367 . S
C1133 C1132 1.367 . S
C1133 C1135 1.433 . S
C1134 C1130 1.350 . S
C1134 C1131 1.463 . S
C1134 N1138 1.427 . S
C1135 H1125 0.929 . S
C1135 C1133 1.433 . S
C1135 N1138 1.384 . S
C1136 H1127 0.929 . S
C1136 C1128 1.378 . S
C1136 C1131 1.350 . S
C1137 H1124 0.929 . S
C1137 C1129 1.433 . S
C1137 N1139 1.384 . S
N1138 C1134 1.427 . S
N1138 C1135 1.384 . S
N1139 C1131 1.427 . S
N1139 C1137 1.384 . S
H1140 C1146 0.930 . S
H1141 C1150 0.930 . S
H1142 C1155 0.929 . S
H1143 C1153 0.929 . S
H1144 C1148 0.929 . S
H1145 C1154 0.929 . S
C1146 H1140 0.930 . S
C1146 C1147 1.367 . S
C1146 C1154 1.378 . S
C1147 C1146 1.367 . S
C1147 C1155 1.433 . S
C1148 H1144 0.929 . S
C1148 C1150 1.378 . S
C1148 C1152 1.350 . S
C1149 C1152 1.463 . S
C1149 C1154 1.350 . S
C1149 N1157 1.427 . S
C1150 H1141 0.930 . S
C1150 C1148 1.378 . S
C1150 C1151 1.367 . S
C1151 C1150 1.367 . S
C1151 C1153 1.433 . S
C1152 C1148 1.350 . S
C1152 C1149 1.463 . S
C1152 N1156 1.427 . S
C1153 H1143 0.929 . S
C1153 C1151 1.433 . S
C1153 N1156 1.384 . S
C1154 H1145 0.929 . S
C1154 C1146 1.378 . S
C1154 C1149 1.350 . S
C1155 H1142 0.929 . S
C1155 C1147 1.433 . S
C1155 N1157 1.384 . S
N1156 C1152 1.427 . S
N1156 C1153 1.384 . S
N1157 C1149 1.427 . S
N1157 C1155 1.384 . S
H1158 C1164 0.930 . S
H1159 C1168 0.930 . S
H1160 C1173 0.929 . S
H1161 C1171 0.929 . S
H1162 C1166 0.929 . S
H1163 C1172 0.929 . S
C1164 H1158 0.930 . S
C1164 C1165 1.367 . S
C1164 C1172 1.378 . S
C1165 C1164 1.367 . S
C1165 C1173 1.433 . S
C1166 H1162 0.929 . S
C1166 C1168 1.378 . S
C1166 C1170 1.350 . S
C1167 C1170 1.463 . S
C1167 C1172 1.350 . S
C1167 N1175 1.427 . S
C1168 H1159 0.930 . S
C1168 C1166 1.378 . S
C1168 C1169 1.367 . S
C1169 C1168 1.367 . S
C1169 C1171 1.433 . S
C1170 C1166 1.350 . S
C1170 C1167 1.463 . S
C1170 N1174 1.427 . S
C1171 H1161 0.929 . S
C1171 C1169 1.433 . S
C1171 N1174 1.384 . S
C1172 H1163 0.929 . S
C1172 C1164 1.378 . S
C1172 C1167 1.350 . S
C1173 H1160 0.929 . S
C1173 C1165 1.433 . S
C1173 N1175 1.384 . S
N1174 C1170 1.427 . S
N1174 C1171 1.384 . S
N1175 C1167 1.427 . S
N1175 C1173 1.384 . S
H1176 C1182 0.930 . S
H1177 C1186 0.930 1_556 S
H1178 C1191 0.929 . S
H1179 C1189 0.929 . S
H1180 C1184 0.929 . S
H1181 C1190 0.929 . S
C1182 H1176 0.930 . S
C1182 C1183 1.367 . S
C1182 C1190 1.378 . S
C1183 C1182 1.367 . S
C1183 C1191 1.433 . S
C1184 H1180 0.929 . S
C1184 C1186 1.378 . S
C1184 C1188 1.350 . S
C1185 C1188 1.463 . S
C1185 C1190 1.350 . S
C1185 N1193 1.427 . S
C1186 H1177 0.930 1_554 S
C1186 C1184 1.378 . S
C1186 C1187 1.367 . S
C1187 C1186 1.367 . S
C1187 C1189 1.433 . S
C1188 C1184 1.350 . S
C1188 C1185 1.463 . S
C1188 N1192 1.427 . S
C1189 H1179 0.929 . S
C1189 C1187 1.433 . S
C1189 N1192 1.384 . S
C1190 H1181 0.929 . S
C1190 C1182 1.378 . S
C1190 C1185 1.350 . S
C1191 H1178 0.929 . S
C1191 C1183 1.433 . S
C1191 N1193 1.384 . S
N1192 C1188 1.427 . S
N1192 C1189 1.384 . S
N1193 C1185 1.427 . S
N1193 C1191 1.384 . S
H1194 C1200 0.930 . S
H1195 C1204 0.930 . S
H1196 C1209 0.929 . S
H1197 C1207 0.929 . S
H1198 C1202 0.929 . S
H1199 C1208 0.929 . S
C1200 H1194 0.930 . S
C1200 C1201 1.367 . S
C1200 C1208 1.378 . S
C1201 C1200 1.367 . S
C1201 C1209 1.433 . S
C1202 H1198 0.929 . S
C1202 C1204 1.378 . S
C1202 C1206 1.350 . S
C1203 C1206 1.463 . S
C1203 C1208 1.350 . S
C1203 N1211 1.427 . S
C1204 H1195 0.930 . S
C1204 C1202 1.378 . S
C1204 C1205 1.367 . S
C1205 C1204 1.367 . S
C1205 C1207 1.433 . S
C1206 C1202 1.350 . S
C1206 C1203 1.463 . S
C1206 N1210 1.427 . S
C1207 H1197 0.929 . S
C1207 C1205 1.433 . S
C1207 N1210 1.384 . S
C1208 H1199 0.929 . S
C1208 C1200 1.378 . S
C1208 C1203 1.350 . S
C1209 H1196 0.929 . S
C1209 C1201 1.433 . S
C1209 N1211 1.384 . S
N1210 C1206 1.427 . S
N1210 C1207 1.384 . S
N1211 C1203 1.427 . S
N1211 C1209 1.384 . S
H1212 C1218 0.930 . S
H1213 C1222 0.930 . S
H1214 C1227 0.929 . S
H1215 C1225 0.929 . S
H1216 C1220 0.929 . S
H1217 C1226 0.929 . S
C1218 H1212 0.930 . S
C1218 C1219 1.367 . S
C1218 C1226 1.378 . S
C1219 C1218 1.367 . S
C1219 C1227 1.433 . S
C1220 H1216 0.929 . S
C1220 C1222 1.378 . S
C1220 C1224 1.350 . S
C1221 C1224 1.463 . S
C1221 C1226 1.350 . S
C1221 N1229 1.427 . S
C1222 H1213 0.930 . S
C1222 C1220 1.378 . S
C1222 C1223 1.367 . S
C1223 C1222 1.367 . S
C1223 C1225 1.433 . S
C1224 C1220 1.350 . S
C1224 C1221 1.463 . S
C1224 N1228 1.427 . S
C1225 H1215 0.929 . S
C1225 C1223 1.433 . S
C1225 N1228 1.384 . S
C1226 H1217 0.929 . S
C1226 C1218 1.378 . S
C1226 C1221 1.350 . S
C1227 H1214 0.929 . S
C1227 C1219 1.433 . S
C1227 N1229 1.384 . S
N1228 C1224 1.427 . S
N1228 C1225 1.384 . S
N1229 C1221 1.427 . S
N1229 C1227 1.384 . S
H1230 C1236 0.930 . S
H1231 C1240 0.930 . S
H1232 C1245 0.929 . S
H1233 C1243 0.929 . S
H1234 C1238 0.929 . S
H1235 C1244 0.929 . S
C1236 H1230 0.930 . S
C1236 C1237 1.367 . S
C1236 C1244 1.378 . S
C1237 C1236 1.367 . S
C1237 C1245 1.433 . S
C1238 H1234 0.929 . S
C1238 C1240 1.378 . S
C1238 C1242 1.350 . S
C1239 C1242 1.463 . S
C1239 C1244 1.350 . S
C1239 N1247 1.427 . S
C1240 H1231 0.930 . S
C1240 C1238 1.378 . S
C1240 C1241 1.367 . S
C1241 C1240 1.367 . S
C1241 C1243 1.433 . S
C1242 C1238 1.350 . S
C1242 C1239 1.463 . S
C1242 N1246 1.427 . S
C1243 H1233 0.929 . S
C1243 C1241 1.433 . S
C1243 N1246 1.384 . S
C1244 H1235 0.929 . S
C1244 C1236 1.378 . S
C1244 C1239 1.350 . S
C1245 H1232 0.929 . S
C1245 C1237 1.433 . S
C1245 N1247 1.384 . S
N1246 C1242 1.427 . S
N1246 C1243 1.384 . S
N1247 C1239 1.427 . S
N1247 C1245 1.384 . S
C535 N332 1.425 . S
C539 N2 1.409 . S
C553 N35 1.411 . S
C557 N365 1.422 . S
C571 N266 1.423 . S
C575 N68 1.415 . S
C589 N101 1.426 . S
C593 N299 1.410 . S
C607 N464 1.412 . S
C611 N134 1.425 . S
C625 N167 1.426 . S
C629 N497 1.409 . S
C643 N200 1.411 . S
C647 N398 1.426 . S
C661 N431 1.409 . S
C665 N233 1.426 . S
C679 C480 0.956 . S
C683 C7 0.949 . S
C697 C513 0.958 . S
C701 C40 0.959 . S
C715 C73 0.944 . S
C719 C414 0.965 . S
C733 C447 0.963 . S
C737 C106 0.945 . S
C751 C139 0.956 . S
C755 C348 0.963 . S
C769 C172 0.951 . S
C773 C381 0.963 . S
C787 C282 0.963 . S
C791 C205 0.944 . S
C805 C238 0.942 . S
C809 C315 0.962 . S
C823 C216 0.958 . S
C827 C271 0.947 . S
C841 C249 0.956 . S
C845 C304 0.957 . S
C859 C150 0.961 . S
C863 C337 0.953 . S
C877 C370 0.955 . S
C881 C183 0.962 . S
C895 C403 0.954 . S
C899 C84 0.960 . S
C913 C436 0.945 . S
C917 C117 0.963 . S
C931 C469 0.959 . S
C935 C18 0.960 . S
C949 C51 0.960 . S
C953 C502 0.943 . S
C967 N376 1.742 . S
C971 C21 1.713 . S
C985 C54 1.719 . S
C989 N277 1.741 . S
C1003 C87 1.719 . S
C1007 N310 1.741 . S
C1021 C120 1.714 . S
C1025 N343 1.743 . S
C1039 N178 1.742 . S
C1043 C153 1.720 . S
C1057 C186 1.720 . S
C1061 N211 1.743 . S
C1075 N244 1.743 . S
C1079 C219 1.711 . S
C1093 C252 1.720 . S
C1097 N145 1.741 . S
C1111 N112 1.742 . S
C1115 C285 1.720 . S
C1129 C318 1.717 . S
C1133 N13 1.743 . S
C1147 C351 1.713 . S
C1151 N46 1.742 . S
C1165 N79 1.742 . S
C1169 C384 1.720 . S
C1183 N442 1.742 . S
C1187 C417 1.719 . S
C1201 N475 1.743 . S
C1205 C450 1.712 . S
C1219 C483 1.713 . S
C1223 N508 1.744 . S
C1237 N409 1.742 . S
C1241 C516 1.717 . S
