# Generated by pormake.
# Topology vmq, (7)-cn, num edge types: 1
# Building blocks:
#     Node 0, Type 0, BuildingBlock: HICVOG_clean_sbu_0, # of connection points: 7
#     Node 1, Type 0, BuildingBlock: HICVOG_clean_sbu_0, # of connection points: 7
#     Node 2, Type 0, BuildingBlock: HICVOG_clean_sbu_0, # of connection points: 7
#     Node 3, Type 0, BuildingBlock: HICVOG_clean_sbu_0, # of connection points: 7
#     Node 4, Type 0, BuildingBlock: HICVOG_clean_sbu_0, # of connection points: 7
#     Node 5, Type 0, BuildingBlock: HICVOG_clean_sbu_0, # of connection points: 7
#     Node 6, Type 0, BuildingBlock: HICVOG_clean_sbu_0, # of connection points: 7
#     Node 7, Type 0, BuildingBlock: HICVOG_clean_sbu_0, # of connection points: 7
#     Edge 8, Type (0, 0), BuildingBlock: EZIPEK_clean_linker_0, # of connection points: 2
#     Edge 9, Type (0, 0), BuildingBlock: EZIPEK_clean_linker_0, # of connection points: 2
#     Edge 10, Type (0, 0), BuildingBlock: EZIPEK_clean_linker_0, # of connection points: 2
#     Edge 11, Type (0, 0), BuildingBlock: EZIPEK_clean_linker_0, # of connection points: 2
#     Edge 12, Type (0, 0), BuildingBlock: EZIPEK_clean_linker_0, # of connection points: 2
#     Edge 13, Type (0, 0), BuildingBlock: EZIPEK_clean_linker_0, # of connection points: 2
#     Edge 14, Type (0, 0), BuildingBlock: EZIPEK_clean_linker_0, # of connection points: 2
#     Edge 15, Type (0, 0), BuildingBlock: EZIPEK_clean_linker_0, # of connection points: 2
#     Edge 16, Type (0, 0), BuildingBlock: EZIPEK_clean_linker_0, # of connection points: 2
#     Edge 17, Type (0, 0), BuildingBlock: EZIPEK_clean_linker_0, # of connection points: 2
#     Edge 18, Type (0, 0), BuildingBlock: EZIPEK_clean_linker_0, # of connection points: 2
#     Edge 19, Type (0, 0), BuildingBlock: EZIPEK_clean_linker_0, # of connection points: 2
#     Edge 20, Type (0, 0), BuildingBlock: EZIPEK_clean_linker_0, # of connection points: 2
#     Edge 21, Type (0, 0), BuildingBlock: EZIPEK_clean_linker_0, # of connection points: 2
#     Edge 22, Type (0, 0), BuildingBlock: EZIPEK_clean_linker_0, # of connection points: 2
#     Edge 23, Type (0, 0), BuildingBlock: EZIPEK_clean_linker_0, # of connection points: 2
#     Edge 24, Type (0, 0), BuildingBlock: EZIPEK_clean_linker_0, # of connection points: 2
#     Edge 25, Type (0, 0), BuildingBlock: EZIPEK_clean_linker_0, # of connection points: 2
#     Edge 26, Type (0, 0), BuildingBlock: EZIPEK_clean_linker_0, # of connection points: 2
#     Edge 27, Type (0, 0), BuildingBlock: EZIPEK_clean_linker_0, # of connection points: 2
#     Edge 28, Type (0, 0), BuildingBlock: EZIPEK_clean_linker_0, # of connection points: 2
#     Edge 29, Type (0, 0), BuildingBlock: EZIPEK_clean_linker_0, # of connection points: 2
#     Edge 30, Type (0, 0), BuildingBlock: EZIPEK_clean_linker_0, # of connection points: 2
#     Edge 31, Type (0, 0), BuildingBlock: EZIPEK_clean_linker_0, # of connection points: 2
#     Edge 32, Type (0, 0), BuildingBlock: EZIPEK_clean_linker_0, # of connection points: 2
#     Edge 33, Type (0, 0), BuildingBlock: EZIPEK_clean_linker_0, # of connection points: 2
#     Edge 34, Type (0, 0), BuildingBlock: EZIPEK_clean_linker_0, # of connection points: 2
#     Edge 35, Type (0, 0), BuildingBlock: EZIPEK_clean_linker_0, # of connection points: 2
# Relax obj value: 0.332
# Max RMSD: 0.280
# Mean RMSD: 0.280
data_MOF--net-vmq--node1-HICVOG_clean_sbu_0--edge1-EZIPEK_clean_linker_0
_symmetry_space_group_name_H-M    P1
_symmetry_Int_Tables_number       1
_symmetry_cell_setting            triclinic
loop_
_symmetry_equiv_pos_as_xyz
'x, y, z'
_cell_length_a     37.366333
_cell_length_b     15.808573
_cell_length_c     26.798749
_cell_angle_alpha  90.293314
_cell_angle_beta   107.53637
_cell_angle_gamma 89.891502
loop_
_atom_site_label
_atom_site_type_symbol
_atom_site_fract_x
_atom_site_fract_y
_atom_site_fract_z
_atom_type_partial_charge
Zn0 Zn 0.41932 0.18457 0.1298 0.0
C1 C 0.49146 0.06172 0.07263 0.0
N2 N 0.51618 0.09052 0.11665 0.0
C3 C 0.494 0.12108 0.14344 0.0
N4 N 0.45739 0.11043 0.11747 0.0
N5 N 0.45544 0.0714 0.07294 0.0
C6 C 0.41909 0.99468 0.92931 0.0
O7 O 0.42494 0.07671 0.93224 0.0
O8 O 0.4206 0.18871 0.2072 0.0
Zn9 Zn 0.40869 0.01778 0.03324 0.0
N10 N 0.42882 0.29085 0.10099 0.0
C11 C 0.4396 0.34965 0.02506 0.0
C12 C 0.43433 0.28008 0.05343 0.0
C13 C 0.42637 0.36963 0.12031 0.0
N14 N 0.43685 0.42813 0.04382 0.0
C15 C 0.42995 0.4401 0.09031 0.0
O16 O 0.36294 0.09753 0.01336 0.0
C17 C 0.34791 0.14414 0.0407 0.0
O18 O 0.36556 0.1674 0.08704 0.0
H19 H 0.43323 0.21778 0.03669 0.0
H20 H 0.41987 0.37727 0.1568 0.0
C21 C 0.40807 0.85049 0.07653 0.0
C22 C 0.39969 0.79144 0.11038 0.0
C23 C 0.37195 0.89921 0.14753 0.0
C24 C 0.38068 0.95805 0.11449 0.0
N25 N 0.39819 0.93287 0.07922 0.0
N26 N 0.3816 0.81724 0.14473 0.0
H27 H 0.42191 0.8311 0.0482 0.0
C28 C 0.42443 0.11848 0.23141 0.0
O29 O 0.42944 0.04961 0.2069 0.0
O30 O 0.4122 0.95712 0.96727 0.0
H31 H 0.37389 0.02334 0.11762 0.0
H32 H 0.44433 0.34148 0.98743 0.0
H33 H 0.35746 0.91813 0.17502 0.0
Zn34 Zn 0.64967 0.03909 0.47815 0.0
C35 C 0.56272 0.13379 0.36492 0.0
N36 N 0.54134 0.10085 0.39204 0.0
C37 C 0.5667 0.07644 0.4367 0.0
N38 N 0.6024 0.09043 0.43651 0.0
N39 N 0.59954 0.12871 0.39156 0.0
C40 C 0.63714 0.1277 0.28034 0.0
O41 O 0.63379 0.06016 0.30669 0.0
O42 O 0.64637 0.9743 0.54369 0.0
Zn43 Zn 0.63529 0.20787 0.37816 0.0
N44 N 0.66342 0.95652 0.43272 0.0
C45 C 0.69511 0.92692 0.36953 0.0
C46 C 0.6842 0.98372 0.40211 0.0
C47 C 0.65286 0.87393 0.4316 0.0
N48 N 0.68429 0.84504 0.36793 0.0
C49 C 0.66335 0.81688 0.39799 0.0
O50 O 0.68723 0.20304 0.42885 0.0
C51 C 0.70622 0.17703 0.47389 0.0
O52 O 0.69357 0.1229 0.49959 0.0
H53 H 0.692 0.0492 0.40235 0.0
H54 H 0.63648 0.85298 0.45633 0.0
C55 C 0.62962 0.39375 0.37983 0.0
C56 C 0.62104 0.46943 0.40184 0.0
C57 C 0.59116 0.39123 0.45291 0.0
C58 C 0.60114 0.31653 0.43308 0.0
N59 N 0.61929 0.31856 0.396 0.0
N60 N 0.60161 0.46588 0.43723 0.0
H61 H 0.64578 0.39455 0.35243 0.0
C62 C 0.64117 0.00746 0.58443 0.0
O63 O 0.63664 0.08971 0.58594 0.0
O64 O 0.63817 0.20006 0.30207 0.0
H65 H 0.59444 0.25727 0.4474 0.0
H66 H 0.71212 0.9475 0.34571 0.0
H67 H 0.57615 0.3899 0.48168 0.0
Zn68 Zn 0.63609 0.7903 0.87853 0.0
C69 C 0.56773 0.92562 0.93628 0.0
N70 N 0.54251 0.90167 0.89125 0.0
C71 C 0.56401 0.86741 0.86456 0.0
N72 N 0.60074 0.87137 0.8916 0.0
N73 N 0.6035 0.90988 0.93662 0.0
C74 C 0.64527 0.99136 0.0855 0.0
O75 O 0.64452 0.90859 0.08894 0.0
O76 O 0.63746 0.79707 0.8015 0.0
Zn77 Zn 0.65122 0.95843 0.9782 0.0
N78 N 0.61986 0.68048 0.89904 0.0
C79 C 0.58725 0.61531 0.95297 0.0
C80 C 0.59951 0.68713 0.93342 0.0
C81 C 0.63077 0.6028 0.88649 0.0
N82 N 0.59783 0.53841 0.94034 0.0
C83 C 0.61962 0.52986 0.90821 0.0
O84 O 0.69492 0.8732 0.99931 0.0
C85 C 0.70835 0.82318 0.97177 0.0
O86 O 0.68928 0.79945 0.92598 0.0
H87 H 0.59211 0.74779 0.94525 0.0
H88 H 0.64895 0.59794 0.86189 0.0
C89 C 0.65245 0.12196 0.93152 0.0
C90 C 0.66481 0.1824 0.90205 0.0
C91 C 0.70108 0.07765 0.87656 0.0
C92 C 0.68892 0.01784 0.90587 0.0
N93 N 0.66525 0.04102 0.93344 0.0
N94 N 0.68897 0.1586 0.87552 0.0
H95 H 0.63385 0.13971 0.95393 0.0
C96 C 0.63761 0.87027 0.78154 0.0
O97 O 0.63622 0.93684 0.8103 0.0
O98 O 0.64776 0.02434 0.04339 0.0
H99 H 0.69862 0.9537 0.90658 0.0
H100 H 0.57028 0.62069 0.97919 0.0
H101 H 0.7205 0.06028 0.85545 0.0
Zn102 Zn 0.42441 0.7967 0.63081 0.0
C103 C 0.49324 0.92713 0.57141 0.0
N104 N 0.51877 0.90109 0.61538 0.0
C105 C 0.49749 0.86803 0.64257 0.0
N106 N 0.46065 0.8742 0.61673 0.0
N107 N 0.45757 0.91369 0.57218 0.0
C108 C 0.4203 0.99439 0.4292 0.0
O109 O 0.42752 0.91296 0.43035 0.0
O110 O 0.42307 0.80248 0.70707 0.0
Zn111 Zn 0.40989 0.96417 0.5326 0.0
N112 N 0.43799 0.68608 0.61019 0.0
C113 C 0.45778 0.61663 0.54383 0.0
C114 C 0.45055 0.69015 0.56764 0.0
C115 C 0.43064 0.61003 0.6287 0.0
N116 N 0.44999 0.54105 0.56154 0.0
C117 C 0.43608 0.53549 0.60277 0.0
O118 O 0.36651 0.87911 0.51074 0.0
C119 C 0.35342 0.82692 0.53704 0.0
O120 O 0.37184 0.80333 0.58284 0.0
H121 H 0.45363 0.75034 0.55118 0.0
H122 H 0.41871 0.60775 0.66079 0.0
C123 C 0.40723 0.12899 0.57907 0.0
C124 C 0.39606 0.18744 0.61119 0.0
C125 C 0.3627 0.07959 0.63872 0.0
C126 C 0.37458 0.02113 0.60797 0.0
N127 N 0.39629 0.04671 0.57824 0.0
N128 N 0.37378 0.16123 0.63983 0.0
H129 H 0.42395 0.14896 0.55457 0.0
C130 C 0.42552 0.87421 0.72978 0.0
O131 O 0.42948 0.94206 0.70395 0.0
O132 O 0.41264 0.02852 0.46783 0.0
H133 H 0.3663 0.95602 0.60784 0.0
H134 H 0.46809 0.61962 0.51024 0.0
H135 H 0.34446 0.06069 0.66113 0.0
Zn136 Zn 0.93186 0.71443 0.13387 0.0
C137 C 0.99843 0.57293 0.07574 0.0
N138 N 1.02415 0.59355 0.12097 0.0
C139 C 1.00324 0.63045 0.14759 0.0
N140 N 0.96647 0.63151 0.12031 0.0
N141 N 0.96316 0.59356 0.07507 0.0
C142 C 0.91213 0.5157 0.9203 0.0
O143 O 0.8974 0.59178 0.91216 0.0
O144 O 0.9285 0.70514 0.2099 0.0
Zn145 Zn 0.91592 0.54794 0.03125 0.0
N146 N 0.95046 0.82488 0.11807 0.0
C147 C 0.98974 0.89437 0.07521 0.0
C148 C 0.97599 0.82094 0.09099 0.0
C149 C 0.93602 0.90118 0.12649 0.0
N150 N 0.97575 0.96992 0.08402 0.0
C151 C 0.94893 0.97564 0.1086 0.0
O152 O 0.87309 0.63511 0.01042 0.0
C153 C 0.86013 0.68664 0.03768 0.0
O154 O 0.87925 0.70997 0.08357 0.0
H155 H 0.98598 0.7613 0.08138 0.0
H156 H 0.91398 0.90374 0.14498 0.0
C157 C 0.91138 0.38081 0.07342 0.0
C158 C 0.89913 0.32126 0.10356 0.0
C159 C 0.8644 0.42794 0.13033 0.0
C160 C 0.87711 0.48727 0.10131 0.0
N161 N 0.90007 0.46285 0.07294 0.0
N162 N 0.8758 0.34647 0.13104 0.0
H163 H 0.92957 0.36207 0.0506 0.0
C164 C 0.92668 0.63201 0.22905 0.0
O165 O 0.92735 0.56545 0.19994 0.0
O166 O 0.92272 0.48648 0.96668 0.0
H167 H 0.86863 0.55229 0.10168 0.0
H168 H 1.01063 0.89121 0.05474 0.0
H169 H 0.84553 0.44634 0.15208 0.0
Zn170 Zn 0.1376 0.69765 0.37718 0.0
C171 C 0.06951 0.57587 0.44128 0.0
N172 N 0.04378 0.60379 0.39801 0.0
C173 C 0.06492 0.63477 0.3701 0.0
N174 N 0.1017 0.62584 0.39505 0.0
N175 N 0.10508 0.58648 0.43965 0.0
C176 C 0.14095 0.49525 0.57952 0.0
O177 O 0.13235 0.57599 0.57761 0.0
O178 O 0.13233 0.68265 0.29843 0.0
Zn179 Zn 0.1516 0.52779 0.47516 0.0
N180 N 0.12604 0.81047 0.39776 0.0
C181 C 0.10571 0.88507 0.46199 0.0
C182 C 0.11311 0.80972 0.44018 0.0
C183 C 0.13381 0.88505 0.37788 0.0
N184 N 0.11328 0.95911 0.4423 0.0
C185 C 0.12755 0.96146 0.40132 0.0
O186 O 0.19744 0.60671 0.49357 0.0
C187 C 0.21019 0.65907 0.46686 0.0
O188 O 0.19066 0.687 0.42267 0.0
H189 H 0.10907 0.75095 0.45774 0.0
H190 H 0.14577 0.8849 0.34578 0.0
C191 C 0.15465 0.36331 0.42552 0.0
C192 C 0.15855 0.31178 0.38451 0.0
C193 C 0.17267 0.43225 0.34211 0.0
C194 C 0.16786 0.48347 0.38204 0.0
N195 N 0.15928 0.44847 0.42324 0.0
N196 N 0.16761 0.34763 0.34397 0.0
H197 H 0.14711 0.33632 0.45802 0.0
C198 C 0.1593 0.65745 0.28208 0.0
O199 O 0.19289 0.64859 0.31562 0.0
O200 O 0.14976 0.4621 0.54131 0.0
H201 H 0.17038 0.55083 0.37978 0.0
H202 H 0.09494 0.88476 0.49521 0.0
H203 H 0.17982 0.45964 0.30947 0.0
Zn204 Zn 0.12825 0.28255 0.87152 0.0
C205 C 0.06574 0.43034 0.93212 0.0
N206 N 0.03927 0.41213 0.88706 0.0
C207 C 0.05912 0.37301 0.85972 0.0
N208 N 0.09597 0.36877 0.88634 0.0
N209 N 0.10043 0.4065 0.93193 0.0
C210 C 0.16535 0.52943 0.08207 0.0
O211 O 0.19955 0.53328 0.07824 0.0
O212 O 0.13155 0.29215 0.79577 0.0
Zn213 Zn 0.14799 0.44785 0.97761 0.0
N214 N 0.10819 0.17515 0.88795 0.0
C215 C 0.07149 0.10862 0.93579 0.0
C216 C 0.08429 0.18109 0.91752 0.0
C217 C 0.12187 0.0983 0.87918 0.0
N218 N 0.08497 0.03243 0.92701 0.0
C219 C 0.11024 0.02518 0.89992 0.0
O220 O 0.19137 0.36055 0.99281 0.0
C221 C 0.20172 0.30481 0.96508 0.0
O222 O 0.18049 0.28031 0.92083 0.0
H223 H 0.07526 0.24156 0.92772 0.0
H224 H 0.14276 0.0945 0.85871 0.0
C225 C 0.15121 0.6207 0.9403 0.0
C226 C 0.16257 0.68153 0.90999 0.0
C227 C 0.19807 0.5775 0.88225 0.0
C228 C 0.18634 0.51709 0.91156 0.0
N229 N 0.1633 0.53938 0.94014 0.0
N230 N 0.1858 0.65822 0.8819 0.0
H231 H 0.13268 0.6375 0.963 0.0
C232 C 0.13509 0.36566 0.77828 0.0
O233 O 0.13616 0.43104 0.80907 0.0
O234 O 0.13952 0.49597 0.04482 0.0
H235 H 0.19505 0.45255 0.91089 0.0
H236 H 0.05193 0.11311 0.95836 0.0
H237 H 0.21653 0.56027 0.85958 0.0
Zn238 Zn 0.90936 0.4701 0.53168 0.0
C239 C 0.99643 0.36402 0.63703 0.0
N240 N 1.01752 0.39345 0.60864 0.0
C241 C 0.99179 0.42143 0.56541 0.0
N242 N 0.95622 0.41232 0.56747 0.0
N243 N 0.95964 0.37356 0.61225 0.0
C244 C 0.90434 0.34249 0.7263 0.0
O245 O 0.86991 0.34673 0.69459 0.0
O246 O 0.91109 0.53537 0.46524 0.0
Zn247 Zn 0.92399 0.30118 0.62999 0.0
N248 N 0.90077 0.55042 0.58275 0.0
C249 C 0.88253 0.5693 0.66013 0.0
C250 C 0.88962 0.51685 0.62227 0.0
C251 C 0.90613 0.63536 0.5806 0.0
N252 N 0.88821 0.65366 0.65834 0.0
C253 C 0.90015 0.68806 0.61982 0.0
O254 O 0.87062 0.31194 0.58559 0.0
C255 C 0.8509 0.33915 0.54129 0.0
O256 O 0.86356 0.39051 0.51388 0.0
H257 H 0.88659 0.44976 0.62483 0.0
H258 H 0.91538 0.66145 0.54931 0.0
C259 C 0.92755 0.11389 0.62865 0.0
C260 C 0.93277 0.03778 0.60408 0.0
C261 C 0.95404 0.11469 0.54307 0.0
C262 C 0.94754 0.18981 0.56594 0.0
N263 N 0.93529 0.1886 0.60894 0.0
N264 N 0.94624 0.04049 0.56236 0.0
H265 H 0.91611 0.11377 0.66126 0.0
C266 C 0.92101 0.50334 0.42763 0.0
O267 O 0.93087 0.42333 0.42998 0.0
O268 O 0.93066 0.31783 0.70854 0.0
H269 H 0.95142 0.24881 0.54852 0.0
H270 H 0.87325 0.54295 0.6913 0.0
H271 H 0.96414 0.11535 0.50924 0.0
C272 C 0.54258 0.05727 0.28086 0.0
C273 C 0.54834 0.13609 0.30744 0.0
C274 C 0.51813 0.20867 0.22501 0.0
C275 C 0.50862 0.12892 0.20044 0.0
N276 N 0.50462 0.97705 0.20732 0.0
N277 N 0.53643 0.28607 0.30696 0.0
C278 C 0.51861 0.05314 0.22915 0.0
C279 C 0.53482 0.21196 0.28015 0.0
N280 N 0.56078 0.98633 0.30456 0.0
N281 N 0.51236 0.28054 0.19561 0.0
H282 H 0.54635 0.28885 0.34754 0.0
H283 H 0.52423 0.34218 0.28968 0.0
H284 H 0.50086 0.27933 0.15502 0.0
H285 H 0.522 0.3399 0.21077 0.0
H286 H 0.56046 0.9293 0.28479 0.0
H287 H 0.58002 0.98706 0.34185 0.0
H288 H 0.50787 0.92105 0.22856 0.0
H289 H 0.48616 0.97111 0.1696 0.0
C290 C 0.5208 0.94077 0.72754 0.0
C291 C 0.5122 0.86339 0.69968 0.0
C292 C 0.53739 0.78505 0.78084 0.0
C293 C 0.54996 0.8624 0.80726 0.0
N294 N 0.56136 0.01233 0.80289 0.0
N295 N 0.51867 0.71188 0.6974 0.0
C296 C 0.54412 0.9398 0.77965 0.0
C297 C 0.52224 0.7852 0.72555 0.0
N298 N 0.50588 0.01521 0.70468 0.0
N299 N 0.5383 0.71252 0.80845 0.0
H300 H 0.50959 0.71119 0.65668 0.0
H301 H 0.52859 0.65369 0.714 0.0
H302 H 0.54618 0.71249 0.84903 0.0
H303 H 0.52684 0.65546 0.79141 0.0
H304 H 0.50845 0.07218 0.72518 0.0
H305 H 0.48721 0.01844 0.66702 0.0
H306 H 0.56085 0.0686 0.7826 0.0
H307 H 0.57988 0.01393 0.84072 0.0
C308 C 0.03384 0.71095 0.23009 0.0
C309 C 1.01727 0.63583 0.20453 0.0
C310 C 0.03973 0.559 0.28616 0.0
C311 C 0.05015 0.63686 0.313 0.0
N312 N 0.04904 0.78931 0.31127 0.0
N313 N 1.00025 0.48897 0.20936 0.0
C314 C 0.04493 0.7139 0.28532 0.0
C315 C 1.01861 0.56014 0.23301 0.0
N316 N 0.04097 0.77728 0.20225 0.0
N317 N 0.05179 0.48391 0.31052 0.0
H318 H 0.98464 0.4862 0.16997 0.0
H319 H 0.99738 0.4352 0.23015 0.0
H320 H 0.0699 0.48049 0.34844 0.0
H321 H 0.04792 0.42592 0.29099 0.0
H322 H 0.05539 0.83126 0.21995 0.0
H323 H 0.03702 0.77296 0.1622 0.0
H324 H 0.04285 0.84717 0.29207 0.0
H325 H 0.05401 0.79266 0.35161 0.0
C326 C 1.02709 0.29176 0.77794 0.0
C327 C 0.04435 0.36679 0.80277 0.0
C328 C 1.02288 0.44165 0.72018 0.0
C329 C 1.01148 0.36343 0.69418 0.0
N330 N 1.0112 0.21111 0.69755 0.0
N331 N 0.06318 0.51172 0.79632 0.0
C332 C 1.01597 0.28726 0.72273 0.0
C333 C 0.04385 0.44121 0.77345 0.0
N334 N 1.01947 0.22699 0.80651 0.0
N335 N 1.01213 0.51662 0.69482 0.0
H336 H 0.07882 0.51477 0.83569 0.0
H337 H 0.06688 0.56406 0.77492 0.0
H338 H 0.99459 0.5201 0.65654 0.0
H339 H 1.01666 0.57518 0.71369 0.0
H340 H 1.00456 0.17322 0.78939 0.0
H341 H 1.02361 0.2326 0.84656 0.0
H342 H 1.01677 0.15365 0.71732 0.0
H343 H 1.00632 0.20645 0.65726 0.0
C344 C 0.44433 0.66948 0.13275 0.0
C345 C 0.4078 0.7008 0.10736 0.0
C346 C 0.38457 0.55713 0.08349 0.0
C347 C 0.42183 0.52673 0.10396 0.0
N348 N 0.48769 0.55117 0.14559 0.0
N349 N 0.34381 0.67806 0.05427 0.0
C350 C 0.45189 0.58209 0.12825 0.0
C351 C 0.37799 0.64554 0.08187 0.0
N352 N 0.47141 0.72304 0.16191 0.0
N353 N 0.35555 0.50119 0.06563 0.0
H354 H 0.33785 0.74267 0.05229 0.0
H355 H 0.32214 0.64213 0.02996 0.0
H356 H 0.35941 0.43589 0.06502 0.0
H357 H 0.32738 0.51844 0.05531 0.0
H358 H 0.49746 0.70296 0.18577 0.0
H359 H 0.46699 0.78779 0.16502 0.0
H360 H 0.51147 0.58916 0.15811 0.0
H361 H 0.49379 0.48674 0.14527 0.0
C362 C 0.61634 0.70017 0.36737 0.0
C363 C 0.65327 0.72619 0.39563 0.0
C364 C 0.67149 0.57908 0.41893 0.0
C365 C 0.63445 0.55329 0.39112 0.0
N366 N 0.57409 0.58374 0.33023 0.0
N367 N 0.71775 0.69152 0.44137 0.0
C368 C 0.60764 0.6124 0.36257 0.0
C369 C 0.68146 0.6658 0.41897 0.0
N370 N 0.58951 0.75953 0.34597 0.0
N371 N 0.6965 0.52124 0.44754 0.0
H372 H 0.72578 0.75493 0.44574 0.0
H373 H 0.74043 0.65023 0.45323 0.0
H374 H 0.69095 0.45661 0.44606 0.0
H375 H 0.72214 0.53701 0.47443 0.0
H376 H 0.56111 0.74593 0.32996 0.0
H377 H 0.59534 0.82402 0.34671 0.0
H378 H 0.55426 0.62204 0.30464 0.0
H379 H 0.56743 0.51947 0.3257 0.0
C380 C 0.66199 0.41001 0.94704 0.0
C381 C 0.63443 0.44454 0.90305 0.0
C382 C 0.62846 0.30834 0.85701 0.0
C383 C 0.65427 0.27261 0.90225 0.0
N384 N 0.69618 0.28648 0.9901 0.0
N385 N 0.58909 0.42802 0.81807 0.0
C386 C 0.67134 0.32281 0.94716 0.0
C387 C 0.61731 0.39435 0.85822 0.0
N388 N 0.67937 0.4614 0.98852 0.0
N389 N 0.61469 0.25974 0.81299 0.0
H390 H 0.58097 0.49131 0.81722 0.0
H391 H 0.57233 0.39306 0.78676 0.0
H392 H 0.62045 0.19531 0.81169 0.0
H393 H 0.59904 0.28345 0.77686 0.0
H394 H 0.70233 0.44386 0.01967 0.0
H395 H 0.67211 0.52465 0.99084 0.0
H396 H 0.70651 0.31581 0.0264 0.0
H397 H 0.70593 0.2246 0.99039 0.0
C398 C 0.37825 0.33758 0.58759 0.0
C399 C 0.40622 0.27791 0.61259 0.0
C400 C 0.45287 0.39115 0.63979 0.0
C401 C 0.42468 0.45088 0.61556 0.0
N402 N 0.35932 0.4847 0.57594 0.0
N403 N 0.46801 0.2473 0.67039 0.0
C404 C 0.38689 0.42522 0.59278 0.0
C405 C 0.44297 0.30453 0.64114 0.0
N406 N 0.34396 0.31013 0.55673 0.0
N407 N 0.48925 0.41731 0.66023 0.0
H408 H 0.46174 0.18325 0.67174 0.0
H409 H 0.49399 0.26378 0.69619 0.0
H410 H 0.49692 0.48103 0.66283 0.0
H411 H 0.51197 0.37623 0.67264 0.0
H412 H 0.32382 0.34964 0.53262 0.0
H413 H 0.33658 0.24634 0.55172 0.0
H414 H 0.33079 0.47062 0.56359 0.0
H415 H 0.36465 0.54945 0.57866 0.0
C416 C 0.93718 0.19971 0.1516 0.0
C417 C 0.91061 0.2314 0.10571 0.0
C418 C 0.90658 0.09251 0.06364 0.0
C419 C 0.93187 0.05967 0.11032 0.0
N420 N 0.96738 0.07696 0.20102 0.0
N421 N 0.86431 0.20564 0.02235 0.0
C422 C 0.9458 0.11174 0.15519 0.0
C423 C 0.89359 0.17706 0.06296 0.0
N424 N 0.95524 0.25445 0.19076 0.0
N425 N 0.89605 0.04376 0.01929 0.0
H426 H 0.85426 0.26755 0.02014 0.0
H427 H 0.84794 0.16643 0.99297 0.0
H428 H 0.90376 0.98046 0.0185 0.0
H429 H 0.8816 0.0673 0.9825 0.0
H430 H 0.97776 0.23739 0.22275 0.0
H431 H 0.94949 0.31914 0.18948 0.0
H432 H 0.97557 0.10934 0.23657 0.0
H433 H 0.97483 0.01313 0.20445 0.0
C434 C 0.1821 0.16372 0.40447 0.0
C435 C 0.15165 0.21972 0.38347 0.0
C436 C 0.10852 0.09964 0.35785 0.0
C437 C 0.13778 0.04514 0.38557 0.0
N438 N 0.2022 0.02299 0.43675 0.0
N439 N 0.08577 0.24377 0.34086 0.0
C440 C 0.17471 0.07627 0.40861 0.0
C441 C 0.11482 0.18841 0.35984 0.0
N442 N 0.21801 0.19428 0.42026 0.0
N443 N 0.07483 0.06583 0.32951 0.0
H444 H 0.08955 0.30909 0.34051 0.0
H445 H 0.05767 0.22591 0.3283 0.0
H446 H 0.06984 0.00076 0.32735 0.0
H447 H 0.05312 0.10074 0.30463 0.0
H448 H 0.24175 0.1559 0.43071 0.0
H449 H 0.2243 0.25843 0.41938 0.0
H450 H 0.22842 0.04343 0.45989 0.0
H451 H 0.1982 0.95802 0.439 0.0
C452 C 0.16056 0.91796 0.9359 0.0
C453 C 0.12666 0.94084 0.89733 0.0
C454 C 0.11506 0.79282 0.86976 0.0
C455 C 0.14957 0.77027 0.90709 0.0
N456 N 0.20801 0.81069 0.97037 0.0
N457 N 0.07468 0.90508 0.82215 0.0
C458 C 0.17325 0.83279 0.93847 0.0
C459 C 0.10482 0.87959 0.86257 0.0
N460 N 0.17969 0.97691 0.97153 0.0
N461 N 0.09183 0.73098 0.84197 0.0
H462 H 0.06674 0.96843 0.81592 0.0
H463 H 0.05942 0.86516 0.79236 0.0
H464 H 0.09902 0.6671 0.84515 0.0
H465 H 0.06451 0.74182 0.81837 0.0
H466 H 0.20195 0.96235 0.00448 0.0
H467 H 0.17201 0.04053 0.96994 0.0
H468 H 0.22838 0.85437 0.98956 0.0
H469 H 0.21751 0.74828 0.97529 0.0
C470 C 0.87848 0.83525 0.59255 0.0
C471 C 0.90734 0.77998 0.62083 0.0
C472 C 0.95073 0.89927 0.64867 0.0
C473 C 0.92214 0.95418 0.61938 0.0
N474 N 0.85721 0.97998 0.57254 0.0
N475 N 0.96824 0.75849 0.6836 0.0
C476 C 0.88538 0.9238 0.59443 0.0
C477 C 0.94264 0.81187 0.65159 0.0
N478 N 0.84497 0.80257 0.56254 0.0
N479 N 0.98594 0.93062 0.67195 0.0
H480 H 0.96373 0.69359 0.68528 0.0
H481 H 0.99296 0.77865 0.71093 0.0
H482 H 0.99203 0.99514 0.67293 0.0
H483 H 1.00939 0.89318 0.68863 0.0
H484 H 0.82422 0.83789 0.53627 0.0
H485 H 0.83855 0.73827 0.5616 0.0
H486 H 0.82902 0.96336 0.55814 0.0
H487 H 0.86156 0.04512 0.57262 0.0
C488 C 0.28089 0.15874 0.04058 0.0
C489 C 0.30949 0.17902 0.0177 0.0
C490 C 0.26642 0.27649 0.95751 0.0
C491 C 0.23934 0.264 0.98453 0.0
N492 N 0.22138 0.19632 0.05387 0.0
N493 N 0.33171 0.26777 0.96031 0.0
C494 C 0.24686 0.2063 0.02692 0.0
C495 C 0.30282 0.24047 0.97759 0.0
N496 N 0.28572 0.09147 0.07381 0.0
N497 N 0.25735 0.32149 0.91199 0.0
H498 H 0.35872 0.24258 0.9733 0.0
H499 H 0.32973 0.32023 0.93626 0.0
H500 H 0.23148 0.35052 0.89595 0.0
H501 H 0.27438 0.3239 0.88758 0.0
H502 H 0.2647 0.06749 0.08786 0.0
H503 H 0.3098 0.05411 0.08338 0.0
H504 H 0.22701 0.16309 0.08883 0.0
H505 H 0.19515 0.22558 0.04313 0.0
C506 C 0.7466 0.29905 0.51708 0.0
C507 C 0.74384 0.21526 0.49684 0.0
C508 C 0.80992 0.21866 0.49909 0.0
C509 C 0.81302 0.30176 0.52027 0.0
N510 N 0.78645 0.42006 0.55353 0.0
N511 N 0.77357 0.08901 0.47816 0.0
C512 C 0.78187 0.34181 0.53041 0.0
C513 C 0.77577 0.17317 0.49068 0.0
N514 N 0.71535 0.337 0.52358 0.0
N515 N 0.83961 0.18406 0.48627 0.0
H516 H 0.74937 0.05354 0.47398 0.0
H517 H 0.79632 0.05222 0.47664 0.0
H518 H 0.86498 0.21583 0.49191 0.0
H519 H 0.83845 0.12695 0.4664 0.0
H520 H 0.7142 0.39931 0.53551 0.0
H521 H 0.68969 0.30577 0.51632 0.0
H522 H 0.7662 0.45118 0.56615 0.0
H523 H 0.81147 0.45402 0.56154 0.0
C524 C 0.77872 0.84465 0.00457 0.0
C525 C 0.74734 0.78905 0.99272 0.0
C526 C 0.78986 0.66594 0.00467 0.0
C527 C 0.82126 0.72138 0.01659 0.0
N528 N 0.84636 0.86283 0.03003 0.0
N529 N 0.72244 0.64756 0.97747 0.0
C530 C 0.81578 0.81055 0.01702 0.0
C531 C 0.75289 0.70003 0.99179 0.0
N532 N 0.77301 0.93019 1.00038 0.0
N533 N 0.79533 0.58036 0.00927 0.0
H534 H 0.69546 0.66732 0.97577 0.0
H535 H 0.72365 0.5855 0.96496 0.0
H536 H 0.82136 0.55162 0.01577 0.0
H537 H 0.77437 0.53713 0.0093 0.0
H538 H 0.79384 0.97419 1.00123 0.0
H539 H 0.74679 0.95826 0.99348 0.0
H540 H 0.84549 0.92612 0.04037 0.0
H541 H 0.87328 0.84198 0.03221 0.0
C542 C 0.27968 0.65774 0.48167 0.0
C543 C 0.24766 0.69784 0.48907 0.0
C544 C 0.28368 0.82832 0.51808 0.0
C545 C 0.31627 0.78681 0.51375 0.0
N546 N 0.34672 0.66323 0.49266 0.0
N547 N 0.21912 0.81616 0.51946 0.0
C548 C 0.31464 0.70167 0.49584 0.0
C549 C 0.2497 0.7818 0.50883 0.0
N550 N 0.27621 0.57854 0.4599 0.0
N551 N 0.28527 0.91264 0.53013 0.0
H552 H 0.19397 0.78331 0.51348 0.0
H553 H 0.21914 0.87434 0.53774 0.0
H554 H 0.30938 0.94874 0.53491 0.0
H555 H 0.26231 0.94883 0.5314 0.0
H556 H 0.29721 0.54778 0.44874 0.0
H557 H 0.25136 0.54378 0.45119 0.0
H558 H 0.34884 0.59941 0.48446 0.0
H559 H 0.37209 0.69547 0.49947 0.0
C560 C 0.38868 0.97518 0.8327 0.0
C561 C 0.41607 0.94875 0.87936 0.0
C562 C 0.44229 0.84973 0.828 0.0
C563 C 0.41831 0.88535 0.78137 0.0
N564 N 0.35922 0.95172 0.73978 0.0
N565 N 0.46624 0.85414 0.92317 0.0
C566 C 0.3887 0.93948 0.7839 0.0
C567 C 0.44163 0.88264 0.8776 0.0
N568 N 0.36289 0.03543 0.83496 0.0
N569 N 0.46469 0.78302 0.82468 0.0
H570 H 0.46517 0.87368 0.95981 0.0
H571 H 0.48818 0.81241 0.92542 0.0
H572 H 0.46456 0.75635 0.78905 0.0
H573 H 0.48106 0.74924 0.8566 0.0
H574 H 0.34571 0.06618 0.80218 0.0
H575 H 0.35946 0.05704 0.87008 0.0
H576 H 0.33468 0.98341 0.7393 0.0
H577 H 0.35766 0.92181 0.70436 0.0
C578 C 0.62006 0.88829 0.63302 0.0
C579 C 0.64506 0.95632 0.6329 0.0
C580 C 0.67363 0.93949 0.72792 0.0
C581 C 0.6442 0.88424 0.72954 0.0
N582 N 0.59448 0.79054 0.68383 0.0
N583 N 0.69843 0.04105 0.67948 0.0
C584 C 0.61917 0.85305 0.68196 0.0
C585 C 0.67283 0.97969 0.68016 0.0
N586 N 0.59691 0.85869 0.58647 0.0
N587 N 0.70351 0.94962 0.77193 0.0
H588 H 0.70168 0.06521 0.64496 0.0
H589 H 0.71573 0.06998 0.71308 0.0
H590 H 0.7056 0.91724 0.80656 0.0
H591 H 0.72785 0.98232 0.77286 0.0
H592 H 0.57855 0.80809 0.58241 0.0
H593 H 0.59693 0.88297 0.5505 0.0
H594 H 0.57402 0.76629 0.65159 0.0
H595 H 0.59489 0.76072 0.7185 0.0
C596 C 0.6761 0.06722 0.2277 0.0
C597 C 0.64453 0.11579 0.22888 0.0
C598 C 0.62004 0.10676 0.13271 0.0
C599 C 0.64776 0.04439 0.13305 0.0
N600 N 0.70514 0.97295 0.17955 0.0
N601 N 0.59142 0.19982 0.18316 0.0
C602 C 0.67687 0.02762 0.18018 0.0
C603 C 0.61816 0.14193 0.18135 0.0
N604 N 0.70617 0.06283 0.27187 0.0
N605 N 0.5952 0.13068 0.08615 0.0
H606 H 0.59102 0.22894 0.21793 0.0
H607 H 0.57035 0.22165 0.15091 0.0
H608 H 0.59606 0.10683 0.05032 0.0
H609 H 0.57442 0.17612 0.08195 0.0
H610 H 0.73174 0.03521 0.27327 0.0
H611 H 0.70666 0.09445 0.30638 0.0
H612 H 0.7242 0.94849 0.21314 0.0
H613 H 0.70907 0.95004 0.145 0.0
C614 C 0.38842 0.01648 0.33337 0.0
C615 C 0.41597 0.04281 0.38003 0.0
C616 C 0.44103 0.14432 0.32941 0.0
C617 C 0.41686 0.109 0.28269 0.0
N618 N 0.35799 0.0416 0.24096 0.0
N619 N 0.46361 0.1427 0.42483 0.0
C620 C 0.38761 0.054 0.28497 0.0
C621 C 0.44046 0.11126 0.37885 0.0
N622 N 0.36337 0.95451 0.33521 0.0
N623 N 0.46387 0.2099 0.3261 0.0
H624 H 0.46239 0.12253 0.46114 0.0
H625 H 0.4836 0.1896 0.42789 0.0
H626 H 0.46276 0.23757 0.2905 0.0
H627 H 0.48239 0.24028 0.35792 0.0
H628 H 0.34609 0.92426 0.30212 0.0
H629 H 0.36068 0.93107 0.37023 0.0
H630 H 0.33372 0.00895 0.24045 0.0
H631 H 0.35618 0.07166 0.20566 0.0
C632 C 0.89583 0.34099 0.81586 0.0
C633 C 0.91263 0.37811 0.78035 0.0
C634 C 0.93639 0.49449 0.84296 0.0
C635 C 0.91505 0.46377 0.87486 0.0
N636 N 0.87191 0.36052 0.88988 0.0
N637 N 0.94759 0.49301 0.75847 0.0
C638 C 0.89451 0.387 0.86127 0.0
C639 C 0.93312 0.45492 0.79384 0.0
N640 N 0.88165 0.26084 0.80645 0.0
N641 N 0.9602 0.56121 0.85998 0.0
H642 H 0.94623 0.46634 0.72236 0.0
H643 H 0.95856 0.55402 0.76295 0.0
H644 H 0.96247 0.59325 0.89485 0.0
H645 H 0.97989 0.58046 0.84195 0.0
H646 H 0.87242 0.22632 0.83318 0.0
H647 H 0.88247 0.22566 0.77374 0.0
H648 H 0.85294 0.31074 0.87857 0.0
H649 H 0.86986 0.39216 0.92312 0.0
C650 C 0.17028 0.47574 0.67663 0.0
C651 C 0.14452 0.44709 0.62896 0.0
C652 C 0.11757 0.34694 0.67847 0.0
C653 C 0.14173 0.38025 0.72626 0.0
N654 N 0.20013 0.45015 0.76902 0.0
N655 N 0.10082 0.34028 0.58325 0.0
C656 C 0.17081 0.43692 0.72469 0.0
C657 C 0.12062 0.37727 0.6295 0.0
N658 N 0.19432 0.5406 0.67611 0.0
N659 N 0.09095 0.2886 0.67971 0.0
H660 H 0.10249 0.36081 0.54721 0.0
H661 H 0.08513 0.28522 0.58028 0.0
H662 H 0.08864 0.26279 0.71417 0.0
H663 H 0.07022 0.26691 0.64685 0.0
H664 H 0.20989 0.57246 0.70973 0.0
H665 H 0.19766 0.56504 0.6417 0.0
H666 H 0.22406 0.48445 0.76985 0.0
H667 H 0.2025 0.41853 0.80396 0.0
C668 C 0.13471 0.55646 0.2061 0.0
C669 C 0.15333 0.63333 0.22612 0.0
C670 C 0.16944 0.65155 0.14431 0.0
C671 C 0.15715 0.56773 0.12877 0.0
N672 N 0.12995 0.43734 0.14707 0.0
N673 N 0.18874 0.75486 0.21464 0.0
C674 C 0.13955 0.51988 0.15967 0.0
C675 C 0.17063 0.68127 0.19514 0.0
N676 N 0.11298 0.51742 0.23195 0.0
N677 N 0.17862 0.70394 0.10959 0.0
H678 H 0.18798 0.78151 0.25001 0.0
H679 H 0.20598 0.78721 0.19707 0.0
H680 H 0.17651 0.68549 0.07137 0.0
H681 H 0.18443 0.76805 0.1166 0.0
H682 H 0.09515 0.46701 0.21632 0.0
H683 H 0.11046 0.53969 0.26736 0.0
H684 H 0.12093 0.39647 0.17116 0.0
H685 H 0.13393 0.40692 0.11459 0.0
C686 C 0.89066 0.56224 0.28262 0.0
C687 C 0.91972 0.61868 0.28092 0.0
C688 C 0.94101 0.62168 0.37759 0.0
C689 C 0.91721 0.55167 0.37821 0.0
N690 N 0.86751 0.45787 0.33115 0.0
N691 N 0.9701 0.71124 0.32701 0.0
C692 C 0.89136 0.5231 0.33063 0.0
C693 C 0.94387 0.65218 0.32856 0.0
N694 N 0.8612 0.54965 0.23843 0.0
N695 N 0.96077 0.65872 0.42381 0.0
H696 H 0.97182 0.73748 0.29232 0.0
H697 H 0.99085 0.73333 0.35972 0.0
H698 H 0.95863 0.63872 0.4597 0.0
H699 H 0.97681 0.71326 0.42684 0.0
H700 H 0.83721 0.51567 0.23776 0.0
H701 H 0.8589 0.5816 0.2036 0.0
H702 H 0.85175 0.42648 0.29744 0.0
H703 H 0.8646 0.43258 0.3656 0.0
C704 C 0.52102 0.94153 0.04104 0.0
C705 C 0.5052 0.02349 0.03162 0.0
C706 C 0.53754 0.04771 0.96577 0.0
C707 C 0.5549 0.9674 0.97717 0.0
N708 N 0.56827 0.84308 0.03079 0.0
N709 N 0.50265 0.16025 0.99137 0.0
C710 C 0.54828 0.91606 0.01666 0.0
C711 C 0.5144 0.07797 0.99537 0.0
N712 N 0.50913 0.88766 0.07251 0.0
N713 N 0.54322 0.09492 0.92627 0.0
H714 H 0.48458 0.18367 0.01102 0.0
H715 H 0.5123 0.20635 0.97098 0.0
H716 H 0.56327 0.07873 0.90799 0.0
H717 H 0.52751 0.14829 0.91075 0.0
H718 H 0.51694 0.82436 0.07797 0.0
H719 H 0.48838 0.90462 0.08941 0.0
H720 H 0.56693 0.80501 0.06172 0.0
H721 H 0.58941 0.82545 0.01488 0.0
C722 C 0.54519 0.08343 0.51537 0.0
C723 C 0.55427 0.033 0.47704 0.0
C724 C 0.51679 0.91627 0.49442 0.0
C725 C 0.50581 0.96852 0.5305 0.0
N726 N 0.50554 0.10358 0.57163 0.0
N727 N 0.54861 0.90339 0.42813 0.0
C728 C 0.51898 0.05276 0.53993 0.0
C729 C 0.54002 0.94985 0.46611 0.0
N730 N 0.56195 0.16055 0.52822 0.0
N731 N 0.50637 0.83317 0.48912 0.0
H732 H 0.56899 0.92268 0.41134 0.0
H733 H 0.53532 0.84715 0.41263 0.0
H734 H 0.48717 0.80845 0.50624 0.0
H735 H 0.51745 0.78822 0.4694 0.0
H736 H 0.55871 0.19927 0.55805 0.0
H737 H 0.58227 0.18234 0.51204 0.0
H738 H 0.5114 0.16777 0.57761 0.0
H739 H 0.4855 0.08256 0.58859 0.0
C740 C 1.01775 0.58626 0.99566 0.0
C741 C 1.01007 0.53298 0.03357 0.0
C742 C 0.04987 0.42172 0.01488 0.0
C743 C 0.05566 0.47278 0.97483 0.0
N744 N 0.04817 0.60372 0.92784 0.0
N745 N 1.01432 0.39825 0.07596 0.0
C746 C 0.04067 0.55558 0.96577 0.0
C747 C 1.02492 0.45004 0.04222 0.0
N748 N 1.00335 0.66642 0.98901 0.0
N749 N 0.0687 0.34673 0.02695 0.0
H750 H 0.99535 0.41757 0.09542 0.0
H751 H 1.02153 0.33465 0.08147 0.0
H752 H 0.08798 0.32612 0.00837 0.0
H753 H 0.06812 0.30876 0.05827 0.0
H754 H 1.01048 0.7125 0.96616 0.0
H755 H 0.98336 0.68688 0.00634 0.0
H756 H 0.0361 0.66219 0.9154 0.0
H757 H 0.067 0.58417 0.90823 0.0
C758 C 0.04622 0.4462 0.47111 0.0
C759 C 0.05707 0.53177 0.48093 0.0
C760 C 1.01465 0.54986 0.53409 0.0
C761 C 1.00445 0.46378 0.52537 0.0
N762 N 1.01014 0.32797 0.4877 0.0
N763 N 0.05616 0.66335 0.52561 0.0
C764 C 1.01988 0.41157 0.4939 0.0
C765 C 0.04269 0.58297 0.51392 0.0
N766 N 0.06112 0.39887 0.43948 0.0
N767 N 0.99688 0.59953 0.56116 0.0
H768 H 0.07748 0.68745 0.51209 0.0
H769 H 0.04868 0.70388 0.55147 0.0
H770 H 0.97501 0.57641 0.57373 0.0
H771 H 1.00115 0.66418 0.56734 0.0
H772 H 0.05179 0.33902 0.42513 0.0
H773 H 0.08364 0.42058 0.42782 0.0
H774 H 1.02304 0.28317 0.47034 0.0
H775 H 0.98886 0.30293 0.50092 0.0
loop_
_geom_bond_atom_site_label_1
_geom_bond_atom_site_label_2
_geom_bond_distance
_geom_bond_site_symmetry_2
_ccdc_geom_bond_type
Zn0 N4 2.020 . S
Zn0 O8 2.019 . S
Zn0 N10 2.119 . S
Zn0 O18 1.975 . S
C1 N2 1.334 . S
C1 N5 1.336 . S
N2 C1 1.334 . S
N2 C3 1.334 . S
C3 N2 1.334 . S
C3 N4 1.336 . S
N4 Zn0 2.020 . S
N4 C3 1.336 . S
N4 N5 1.354 . S
N5 C1 1.336 . S
N5 N4 1.354 . S
N5 Zn9 2.015 1_554 S
C6 O7 1.244 . S
C6 O30 1.257 1_545 S
O7 C6 1.244 . S
O8 Zn0 2.019 . S
O8 C28 1.257 . S
Zn9 N5 2.015 1_556 S
Zn9 O16 1.971 1_556 S
Zn9 N25 2.116 1_546 S
Zn9 O30 2.026 1_545 S
N10 Zn0 2.119 . S
N10 C12 1.334 . S
N10 C13 1.328 . S
C11 C12 1.391 . S
C11 N14 1.329 . S
C11 H32 0.930 1_554 S
C12 N10 1.334 . S
C12 C11 1.391 . S
C12 H19 0.930 . S
C13 N10 1.328 . S
C13 C15 1.392 . S
C13 H20 0.930 . S
N14 C11 1.329 . S
N14 C15 1.331 . S
C15 C13 1.392 . S
C15 N14 1.331 . S
O16 Zn9 1.971 1_554 S
O16 C17 1.257 . S
C17 O16 1.257 . S
C17 O18 1.252 . S
O18 Zn0 1.975 . S
O18 C17 1.252 . S
H19 C12 0.930 . S
H20 C13 0.930 . S
C21 C22 1.392 1_556 S
C21 N25 1.328 1_556 S
C21 H27 0.930 . S
C22 C21 1.392 1_554 S
C22 N26 1.331 . S
C23 C24 1.391 . S
C23 N26 1.329 . S
C23 H33 0.930 . S
C24 C23 1.391 . S
C24 N25 1.334 . S
C24 H31 0.930 . S
N25 Zn9 2.116 1_564 S
N25 C21 1.328 1_554 S
N25 C24 1.334 . S
N26 C22 1.331 . S
N26 C23 1.329 . S
H27 C21 0.930 . S
C28 O8 1.257 . S
C28 O29 1.244 . S
O29 C28 1.244 . S
O30 C6 1.257 1_565 S
O30 Zn9 2.026 1_565 S
H31 C24 0.930 . S
H32 C11 0.930 1_556 S
H33 C23 0.930 . S
Zn34 N38 2.020 . S
Zn34 O42 2.019 1_545 S
Zn34 N44 2.119 1_545 S
Zn34 O52 1.975 . S
C35 N36 1.334 . S
C35 N39 1.336 . S
N36 C35 1.334 . S
N36 C37 1.334 . S
C37 N36 1.334 . S
C37 N38 1.336 . S
N38 Zn34 2.020 . S
N38 C37 1.336 . S
N38 N39 1.354 . S
N39 C35 1.336 . S
N39 N38 1.354 . S
N39 Zn43 2.020 . S
C40 O41 1.244 . S
C40 O64 1.257 . S
O41 C40 1.244 . S
O42 Zn34 2.019 1_565 S
O42 C62 1.257 1_565 S
Zn43 N39 2.020 . S
Zn43 O50 1.975 . S
Zn43 N59 2.119 . S
Zn43 O64 2.019 . S
N44 Zn34 2.119 1_565 S
N44 C46 1.334 . S
N44 C47 1.328 . S
C45 C46 1.391 . S
C45 N48 1.329 . S
C45 H66 0.930 . S
C46 N44 1.334 . S
C46 C45 1.391 . S
C46 H53 0.930 . S
C47 N44 1.328 . S
C47 C49 1.392 . S
C47 H54 0.930 . S
N48 C45 1.329 . S
N48 C49 1.331 . S
C49 C47 1.392 . S
C49 N48 1.331 . S
O50 Zn43 1.975 . S
O50 C51 1.252 . S
C51 O50 1.252 . S
C51 O52 1.252 . S
O52 Zn34 1.975 . S
O52 C51 1.252 . S
H53 C46 0.930 . S
H54 C47 0.930 . S
C55 C56 1.392 . S
C55 N59 1.328 . S
C55 H61 0.930 . S
C56 C55 1.392 . S
C56 N60 1.331 . S
C57 C58 1.391 . S
C57 N60 1.329 . S
C57 H67 0.930 . S
C58 C57 1.391 . S
C58 N59 1.334 . S
C58 H65 0.930 . S
N59 Zn43 2.119 . S
N59 C55 1.328 . S
N59 C58 1.334 . S
N60 C56 1.331 . S
N60 C57 1.329 . S
H61 C55 0.930 . S
C62 O42 1.257 1_545 S
C62 O63 1.244 . S
O63 C62 1.244 . S
O64 C40 1.257 . S
O64 Zn43 2.019 . S
H65 C58 0.930 . S
H66 C45 0.930 . S
H67 C57 0.930 . S
Zn68 N72 2.020 . S
Zn68 O76 2.019 . S
Zn68 N78 2.119 . S
Zn68 O86 1.975 . S
C69 N70 1.334 . S
C69 N73 1.336 . S
N70 C69 1.334 . S
N70 C71 1.334 . S
C71 N70 1.334 . S
C71 N72 1.336 . S
N72 Zn68 2.020 . S
N72 C71 1.336 . S
N72 N73 1.354 . S
N73 C69 1.336 . S
N73 N72 1.354 . S
N73 Zn77 2.015 1_556 S
C74 O75 1.244 . S
C74 O98 1.257 1_565 S
O75 C74 1.244 . S
O76 Zn68 2.019 . S
O76 C96 1.257 . S
Zn77 N73 2.015 1_554 S
Zn77 O84 1.971 1_554 S
Zn77 N93 2.116 1_564 S
Zn77 O98 2.026 1_565 S
N78 Zn68 2.119 . S
N78 C80 1.334 . S
N78 C81 1.328 . S
C79 C80 1.391 . S
C79 N82 1.329 . S
C79 H100 0.930 1_556 S
C80 N78 1.334 . S
C80 C79 1.391 . S
C80 H87 0.930 . S
C81 N78 1.328 . S
C81 C83 1.392 . S
C81 H88 0.930 . S
N82 C79 1.329 . S
N82 C83 1.331 . S
C83 C81 1.392 . S
C83 N82 1.331 . S
O84 Zn77 1.971 1_556 S
O84 C85 1.257 . S
C85 O84 1.257 . S
C85 O86 1.252 . S
O86 Zn68 1.975 . S
O86 C85 1.252 . S
H87 C80 0.930 . S
H88 C81 0.930 . S
C89 C90 1.392 1_554 S
C89 N93 1.328 1_554 S
C89 H95 0.930 . S
C90 C89 1.392 1_556 S
C90 N94 1.331 . S
C91 C92 1.391 . S
C91 N94 1.329 . S
C91 H101 0.930 . S
C92 C91 1.391 . S
C92 N93 1.334 . S
C92 H99 0.930 . S
N93 Zn77 2.116 1_546 S
N93 C89 1.328 1_556 S
N93 C92 1.334 . S
N94 C90 1.331 . S
N94 C91 1.329 . S
H95 C89 0.930 . S
C96 O76 1.257 . S
C96 O97 1.244 . S
O97 C96 1.244 . S
O98 C74 1.257 1_545 S
O98 Zn77 2.026 1_545 S
H99 C92 0.930 . S
H100 C79 0.930 1_554 S
H101 C91 0.930 . S
Zn102 N106 2.020 . S
Zn102 O110 2.019 . S
Zn102 N112 2.119 . S
Zn102 O120 1.975 . S
C103 N104 1.334 . S
C103 N107 1.336 . S
N104 C103 1.334 . S
N104 C105 1.334 . S
C105 N104 1.334 . S
C105 N106 1.336 . S
N106 Zn102 2.020 . S
N106 C105 1.336 . S
N106 N107 1.354 . S
N107 C103 1.336 . S
N107 N106 1.354 . S
N107 Zn111 2.020 . S
C108 O109 1.244 . S
C108 O132 1.257 1_565 S
O109 C108 1.244 . S
O110 Zn102 2.019 . S
O110 C130 1.257 . S
Zn111 N107 2.020 . S
Zn111 O118 1.975 . S
Zn111 N127 2.119 1_565 S
Zn111 O132 2.019 1_565 S
N112 Zn102 2.119 . S
N112 C114 1.334 . S
N112 C115 1.328 . S
C113 C114 1.391 . S
C113 N116 1.329 . S
C113 H134 0.930 . S
C114 N112 1.334 . S
C114 C113 1.391 . S
C114 H121 0.930 . S
C115 N112 1.328 . S
C115 C117 1.392 . S
C115 H122 0.930 . S
N116 C113 1.329 . S
N116 C117 1.331 . S
C117 C115 1.392 . S
C117 N116 1.331 . S
O118 Zn111 1.975 . S
O118 C119 1.252 . S
C119 O118 1.252 . S
C119 O120 1.252 . S
O120 Zn102 1.975 . S
O120 C119 1.252 . S
H121 C114 0.930 . S
H122 C115 0.930 . S
C123 C124 1.392 . S
C123 N127 1.328 . S
C123 H129 0.930 . S
C124 C123 1.392 . S
C124 N128 1.331 . S
C125 C126 1.391 . S
C125 N128 1.329 . S
C125 H135 0.930 . S
C126 C125 1.391 . S
C126 N127 1.334 . S
C126 H133 0.930 . S
N127 Zn111 2.119 1_545 S
N127 C123 1.328 . S
N127 C126 1.334 . S
N128 C124 1.331 . S
N128 C125 1.329 . S
H129 C123 0.930 . S
C130 O110 1.257 . S
C130 O131 1.244 . S
O131 C130 1.244 . S
O132 C108 1.257 1_545 S
O132 Zn111 2.019 1_545 S
H133 C126 0.930 . S
H134 C113 0.930 . S
H135 C125 0.930 . S
Zn136 N140 2.020 . S
Zn136 O144 2.019 . S
Zn136 N146 2.119 . S
Zn136 O154 1.975 . S
C137 N138 1.334 . S
C137 N141 1.336 . S
N138 C137 1.334 . S
N138 C139 1.334 . S
C139 N138 1.334 . S
C139 N140 1.336 . S
N140 Zn136 2.020 . S
N140 C139 1.336 . S
N140 N141 1.354 . S
N141 C137 1.336 . S
N141 N140 1.354 . S
N141 Zn145 2.015 1_554 S
C142 O143 1.244 . S
C142 O166 1.257 . S
O143 C142 1.244 . S
O144 Zn136 2.019 . S
O144 C164 1.257 . S
Zn145 N141 2.015 1_556 S
Zn145 O152 1.971 1_556 S
Zn145 N161 2.116 1_556 S
Zn145 O166 2.026 . S
N146 Zn136 2.119 . S
N146 C148 1.334 . S
N146 C149 1.328 . S
C147 C148 1.391 . S
C147 N150 1.329 . S
C147 H168 0.930 1_554 S
C148 N146 1.334 . S
C148 C147 1.391 . S
C148 H155 0.930 . S
C149 N146 1.328 . S
C149 C151 1.392 . S
C149 H156 0.930 . S
N150 C147 1.329 . S
N150 C151 1.331 . S
C151 C149 1.392 . S
C151 N150 1.331 . S
O152 Zn145 1.971 1_554 S
O152 C153 1.257 . S
C153 O152 1.257 . S
C153 O154 1.252 . S
O154 Zn136 1.975 . S
O154 C153 1.252 . S
H155 C148 0.930 . S
H156 C149 0.930 . S
C157 C158 1.392 1_556 S
C157 N161 1.328 1_556 S
C157 H163 0.930 . S
C158 C157 1.392 1_554 S
C158 N162 1.331 . S
C159 C160 1.391 . S
C159 N162 1.329 . S
C159 H169 0.930 . S
C160 C159 1.391 . S
C160 N161 1.334 . S
C160 H167 0.930 . S
N161 Zn145 2.116 1_554 S
N161 C157 1.328 1_554 S
N161 C160 1.334 . S
N162 C158 1.331 . S
N162 C159 1.329 . S
H163 C157 0.930 . S
C164 O144 1.257 . S
C164 O165 1.244 . S
O165 C164 1.244 . S
O166 C142 1.257 . S
O166 Zn145 2.026 . S
H167 C160 0.930 . S
H168 C147 0.930 1_556 S
H169 C159 0.930 . S
Zn170 N174 2.020 . S
Zn170 O178 2.019 . S
Zn170 N180 2.119 . S
Zn170 O188 1.975 . S
C171 N172 1.334 . S
C171 N175 1.336 . S
N172 C171 1.334 . S
N172 C173 1.334 . S
C173 N172 1.334 . S
C173 N174 1.336 . S
N174 Zn170 2.020 . S
N174 C173 1.336 . S
N174 N175 1.354 . S
N175 C171 1.336 . S
N175 N174 1.354 . S
N175 Zn179 2.020 . S
C176 O177 1.244 . S
C176 O200 1.257 . S
O177 C176 1.244 . S
O178 Zn170 2.019 . S
O178 C198 1.257 . S
Zn179 N175 2.020 . S
Zn179 O186 1.975 . S
Zn179 N195 2.119 . S
Zn179 O200 2.019 . S
N180 Zn170 2.119 . S
N180 C182 1.334 . S
N180 C183 1.328 . S
C181 C182 1.391 . S
C181 N184 1.329 . S
C181 H202 0.930 . S
C182 N180 1.334 . S
C182 C181 1.391 . S
C182 H189 0.930 . S
C183 N180 1.328 . S
C183 C185 1.392 . S
C183 H190 0.930 . S
N184 C181 1.329 . S
N184 C185 1.331 . S
C185 C183 1.392 . S
C185 N184 1.331 . S
O186 Zn179 1.975 . S
O186 C187 1.252 . S
C187 O186 1.252 . S
C187 O188 1.252 . S
O188 Zn170 1.975 . S
O188 C187 1.252 . S
H189 C182 0.930 . S
H190 C183 0.930 . S
C191 C192 1.392 . S
C191 N195 1.328 . S
C191 H197 0.930 . S
C192 C191 1.392 . S
C192 N196 1.331 . S
C193 C194 1.391 . S
C193 N196 1.329 . S
C193 H203 0.930 . S
C194 C193 1.391 . S
C194 N195 1.334 . S
C194 H201 0.930 . S
N195 Zn179 2.119 . S
N195 C191 1.328 . S
N195 C194 1.334 . S
N196 C192 1.331 . S
N196 C193 1.329 . S
H197 C191 0.930 . S
C198 O178 1.257 . S
C198 O199 1.244 . S
O199 C198 1.244 . S
O200 C176 1.257 . S
O200 Zn179 2.019 . S
H201 C194 0.930 . S
H202 C181 0.930 . S
H203 C193 0.930 . S
Zn204 N208 2.020 . S
Zn204 O212 2.019 . S
Zn204 N214 2.119 . S
Zn204 O222 1.975 . S
C205 N206 1.334 . S
C205 N209 1.336 . S
N206 C205 1.334 . S
N206 C207 1.334 . S
C207 N206 1.334 . S
C207 N208 1.336 . S
N208 Zn204 2.020 . S
N208 C207 1.336 . S
N208 N209 1.354 . S
N209 C205 1.336 . S
N209 N208 1.354 . S
N209 Zn213 2.015 1_556 S
C210 O211 1.244 . S
C210 O234 1.257 . S
O211 C210 1.244 . S
O212 Zn204 2.019 . S
O212 C232 1.257 . S
Zn213 N209 2.015 1_554 S
Zn213 O220 1.971 1_554 S
Zn213 N229 2.116 1_554 S
Zn213 O234 2.026 . S
N214 Zn204 2.119 . S
N214 C216 1.334 . S
N214 C217 1.328 . S
C215 C216 1.391 . S
C215 N218 1.329 . S
C215 H236 0.930 1_556 S
C216 N214 1.334 . S
C216 C215 1.391 . S
C216 H223 0.930 . S
C217 N214 1.328 . S
C217 C219 1.392 . S
C217 H224 0.930 . S
N218 C215 1.329 . S
N218 C219 1.331 . S
C219 C217 1.392 . S
C219 N218 1.331 . S
O220 Zn213 1.971 1_556 S
O220 C221 1.257 . S
C221 O220 1.257 . S
C221 O222 1.252 . S
O222 Zn204 1.975 . S
O222 C221 1.252 . S
H223 C216 0.930 . S
H224 C217 0.930 . S
C225 C226 1.392 1_554 S
C225 N229 1.328 1_554 S
C225 H231 0.930 . S
C226 C225 1.392 1_556 S
C226 N230 1.331 . S
C227 C228 1.391 . S
C227 N230 1.329 . S
C227 H237 0.930 . S
C228 C227 1.391 . S
C228 N229 1.334 . S
C228 H235 0.930 . S
N229 Zn213 2.116 1_556 S
N229 C225 1.328 1_556 S
N229 C228 1.334 . S
N230 C226 1.331 . S
N230 C227 1.329 . S
H231 C225 0.930 . S
C232 O212 1.257 . S
C232 O233 1.244 . S
O233 C232 1.244 . S
O234 C210 1.257 . S
O234 Zn213 2.026 . S
H235 C228 0.930 . S
H236 C215 0.930 1_554 S
H237 C227 0.930 . S
Zn238 N242 2.020 . S
Zn238 O246 2.019 . S
Zn238 N248 2.119 . S
Zn238 O256 1.975 . S
C239 N240 1.334 . S
C239 N243 1.336 . S
N240 C239 1.334 . S
N240 C241 1.334 . S
C241 N240 1.334 . S
C241 N242 1.336 . S
N242 Zn238 2.020 . S
N242 C241 1.336 . S
N242 N243 1.354 . S
N243 C239 1.336 . S
N243 N242 1.354 . S
N243 Zn247 2.020 . S
C244 O245 1.244 . S
C244 O268 1.257 . S
O245 C244 1.244 . S
O246 Zn238 2.019 . S
O246 C266 1.257 . S
Zn247 N243 2.020 . S
Zn247 O254 1.975 . S
Zn247 N263 2.119 . S
Zn247 O268 2.019 . S
N248 Zn238 2.119 . S
N248 C250 1.334 . S
N248 C251 1.328 . S
C249 C250 1.391 . S
C249 N252 1.329 . S
C249 H270 0.930 . S
C250 N248 1.334 . S
C250 C249 1.391 . S
C250 H257 0.930 . S
C251 N248 1.328 . S
C251 C253 1.392 . S
C251 H258 0.930 . S
N252 C249 1.329 . S
N252 C253 1.331 . S
C253 C251 1.392 . S
C253 N252 1.331 . S
O254 Zn247 1.975 . S
O254 C255 1.252 . S
C255 O254 1.252 . S
C255 O256 1.252 . S
O256 Zn238 1.975 . S
O256 C255 1.252 . S
H257 C250 0.930 . S
H258 C251 0.930 . S
C259 C260 1.392 . S
C259 N263 1.328 . S
C259 H265 0.930 . S
C260 C259 1.392 . S
C260 N264 1.331 . S
C261 C262 1.391 . S
C261 N264 1.329 . S
C261 H271 0.930 . S
C262 C261 1.391 . S
C262 N263 1.334 . S
C262 H269 0.930 . S
N263 Zn247 2.119 . S
N263 C259 1.328 . S
N263 C262 1.334 . S
N264 C260 1.331 . S
N264 C261 1.329 . S
H265 C259 0.930 . S
C266 O246 1.257 . S
C266 O267 1.244 . S
O267 C266 1.244 . S
O268 C244 1.257 . S
O268 Zn247 2.019 . S
H269 C262 0.930 . S
H270 C249 0.930 . S
H271 C261 0.930 . S
C272 C273 1.363 . S
C272 C278 1.379 . S
C272 N280 1.356 . S
C273 C272 1.363 . S
C273 C279 1.363 . S
C274 C275 1.363 . S
C274 C279 1.379 . S
C274 N281 1.356 . S
C275 C274 1.363 . S
C275 C278 1.363 . S
N276 C278 1.356 . S
N276 H288 0.984 1_545 S
N276 H289 0.985 . S
N277 C279 1.356 . S
N277 H282 0.984 . S
N277 H283 0.985 . S
C278 C272 1.379 . S
C278 C275 1.363 . S
C278 N276 1.356 . S
C279 C273 1.363 . S
C279 C274 1.379 . S
C279 N277 1.356 . S
N280 C272 1.356 . S
N280 H286 0.984 1_545 S
N280 H287 0.984 . S
N281 C274 1.356 . S
N281 H284 0.984 . S
N281 H285 0.985 . S
H282 N277 0.984 . S
H283 N277 0.985 . S
H284 N281 0.984 . S
H285 N281 0.985 . S
H286 N280 0.984 1_565 S
H287 N280 0.984 . S
H288 N276 0.984 1_565 S
H289 N276 0.985 . S
C290 C291 1.363 . S
C290 C296 1.379 . S
C290 N298 1.356 . S
C291 C290 1.363 . S
C291 C297 1.363 . S
C292 C293 1.363 . S
C292 C297 1.379 . S
C292 N299 1.356 . S
C293 C292 1.363 . S
C293 C296 1.363 . S
N294 C296 1.356 . S
N294 H306 0.984 1_565 S
N294 H307 0.985 . S
N295 C297 1.356 . S
N295 H300 0.984 . S
N295 H301 0.985 . S
C296 C290 1.379 . S
C296 C293 1.363 . S
C296 N294 1.356 . S
C297 C291 1.363 . S
C297 C292 1.379 . S
C297 N295 1.356 . S
N298 C290 1.356 . S
N298 H304 0.984 1_565 S
N298 H305 0.984 . S
N299 C292 1.356 . S
N299 H302 0.984 . S
N299 H303 0.985 . S
H300 N295 0.984 . S
H301 N295 0.985 . S
H302 N299 0.984 . S
H303 N299 0.985 . S
H304 N298 0.984 1_545 S
H305 N298 0.984 . S
H306 N294 0.984 1_545 S
H307 N294 0.985 . S
C308 C309 1.363 1_455 S
C308 C314 1.379 . S
C308 N316 1.356 1_455 S
C309 C308 1.363 1_655 S
C309 C315 1.363 . S
C310 C311 1.363 1_655 S
C310 C315 1.379 . S
C310 N317 1.356 1_655 S
C311 C310 1.363 1_455 S
C311 C314 1.363 . S
N312 C314 1.356 . S
N312 H324 0.984 . S
N312 H325 0.985 . S
N313 C315 1.356 . S
N313 H318 0.984 . S
N313 H319 0.985 . S
C314 C308 1.379 . S
C314 C311 1.363 . S
C314 N312 1.356 . S
C315 C309 1.363 . S
C315 C310 1.379 . S
C315 N313 1.356 . S
N316 C308 1.356 1_655 S
N316 H322 0.984 1_655 S
N316 H323 0.984 . S
N317 C310 1.356 1_455 S
N317 H320 0.984 . S
N317 H321 0.985 1_455 S
H318 N313 0.984 . S
H319 N313 0.985 . S
H320 N317 0.984 . S
H321 N317 0.985 1_655 S
H322 N316 0.984 1_455 S
H323 N316 0.984 . S
H324 N312 0.984 . S
H325 N312 0.985 . S
C326 C327 1.363 . S
C326 C332 1.379 . S
C326 N334 1.356 . S
C327 C326 1.363 . S
C327 C333 1.363 1_455 S
C328 C329 1.363 . S
C328 C333 1.379 . S
C328 N335 1.356 . S
C329 C328 1.363 . S
C329 C332 1.363 1_655 S
N330 C332 1.356 1_655 S
N330 H342 0.984 1_655 S
N330 H343 0.985 . S
N331 C333 1.356 1_455 S
N331 H336 0.984 . S
N331 H337 0.985 1_455 S
C332 C326 1.379 . S
C332 C329 1.363 1_455 S
C332 N330 1.356 1_455 S
C333 C327 1.363 1_655 S
C333 C328 1.379 . S
C333 N331 1.356 1_655 S
N334 C326 1.356 . S
N334 H340 0.984 . S
N334 H341 0.984 . S
N335 C328 1.356 . S
N335 H338 0.984 . S
N335 H339 0.985 . S
H336 N331 0.984 . S
H337 N331 0.985 1_655 S
H338 N335 0.984 . S
H339 N335 0.985 . S
H340 N334 0.984 . S
H341 N334 0.984 . S
H342 N330 0.984 1_455 S
H343 N330 0.985 . S
C344 C345 1.363 . S
C344 C350 1.379 . S
C344 N352 1.356 . S
C345 C344 1.363 . S
C345 C351 1.363 . S
C346 C347 1.363 . S
C346 C351 1.379 . S
C346 N353 1.356 . S
C347 C346 1.363 . S
C347 C350 1.363 . S
N348 C350 1.356 . S
N348 H360 0.984 . S
N348 H361 0.985 . S
N349 C351 1.356 1_556 S
N349 H354 0.984 . S
N349 H355 0.985 . S
C350 C344 1.379 . S
C350 C347 1.363 . S
C350 N348 1.356 . S
C351 C345 1.363 . S
C351 C346 1.379 . S
C351 N349 1.356 1_554 S
N352 C344 1.356 . S
N352 H358 0.984 . S
N352 H359 0.984 . S
N353 C346 1.356 . S
N353 H356 0.984 . S
N353 H357 0.985 . S
H354 N349 0.984 . S
H355 N349 0.985 . S
H356 N353 0.984 . S
H357 N353 0.985 . S
H358 N352 0.984 . S
H359 N352 0.984 . S
H360 N348 0.984 . S
H361 N348 0.985 . S
C362 C363 1.363 . S
C362 C368 1.379 . S
C362 N370 1.356 . S
C363 C362 1.363 . S
C363 C369 1.363 . S
C364 C365 1.363 . S
C364 C369 1.379 . S
C364 N371 1.356 . S
C365 C364 1.363 . S
C365 C368 1.363 . S
N366 C368 1.356 . S
N366 H378 0.984 . S
N366 H379 0.985 . S
N367 C369 1.356 . S
N367 H372 0.984 . S
N367 H373 0.985 . S
C368 C362 1.379 . S
C368 C365 1.363 . S
C368 N366 1.356 . S
C369 C363 1.363 . S
C369 C364 1.379 . S
C369 N367 1.356 . S
N370 C362 1.356 . S
N370 H376 0.984 . S
N370 H377 0.984 . S
N371 C364 1.356 . S
N371 H374 0.984 . S
N371 H375 0.985 . S
H372 N367 0.984 . S
H373 N367 0.985 . S
H374 N371 0.984 . S
H375 N371 0.985 . S
H376 N370 0.984 . S
H377 N370 0.984 . S
H378 N366 0.984 . S
H379 N366 0.985 . S
C380 C381 1.363 . S
C380 C386 1.379 . S
C380 N388 1.356 . S
C381 C380 1.363 . S
C381 C387 1.363 . S
C382 C383 1.363 . S
C382 C387 1.379 . S
C382 N389 1.356 . S
C383 C382 1.363 . S
C383 C386 1.363 . S
N384 C386 1.356 1_554 S
N384 H396 0.984 . S
N384 H397 0.985 . S
N385 C387 1.356 . S
N385 H390 0.984 . S
N385 H391 0.985 . S
C386 C380 1.379 . S
C386 C383 1.363 . S
C386 N384 1.356 1_556 S
C387 C381 1.363 . S
C387 C382 1.379 . S
C387 N385 1.356 . S
N388 C380 1.356 . S
N388 H394 0.984 . S
N388 H395 0.984 . S
N389 C382 1.356 . S
N389 H392 0.984 . S
N389 H393 0.985 . S
H390 N385 0.984 . S
H391 N385 0.985 . S
H392 N389 0.984 . S
H393 N389 0.985 . S
H394 N388 0.984 . S
H395 N388 0.984 . S
H396 N384 0.984 . S
H397 N384 0.985 . S
C398 C399 1.363 . S
C398 C404 1.379 . S
C398 N406 1.356 . S
C399 C398 1.363 . S
C399 C405 1.363 . S
C400 C401 1.363 . S
C400 C405 1.379 . S
C400 N407 1.356 . S
C401 C400 1.363 . S
C401 C404 1.363 . S
N402 C404 1.356 . S
N402 H414 0.984 . S
N402 H415 0.985 . S
N403 C405 1.356 . S
N403 H408 0.984 . S
N403 H409 0.985 . S
C404 C398 1.379 . S
C404 C401 1.363 . S
C404 N402 1.356 . S
C405 C399 1.363 . S
C405 C400 1.379 . S
C405 N403 1.356 . S
N406 C398 1.356 . S
N406 H412 0.984 . S
N406 H413 0.984 . S
N407 C400 1.356 . S
N407 H410 0.984 . S
N407 H411 0.985 . S
H408 N403 0.984 . S
H409 N403 0.985 . S
H410 N407 0.984 . S
H411 N407 0.985 . S
H412 N406 0.984 . S
H413 N406 0.984 . S
H414 N402 0.984 . S
H415 N402 0.985 . S
C416 C417 1.363 . S
C416 C422 1.379 . S
C416 N424 1.356 . S
C417 C416 1.363 . S
C417 C423 1.363 . S
C418 C419 1.363 . S
C418 C423 1.379 . S
C418 N425 1.356 1_545 S
C419 C418 1.363 . S
C419 C422 1.363 . S
N420 C422 1.356 . S
N420 H432 0.984 . S
N420 H433 0.985 . S
N421 C423 1.356 1_556 S
N421 H426 0.984 . S
N421 H427 0.985 . S
C422 C416 1.379 . S
C422 C419 1.363 . S
C422 N420 1.356 . S
C423 C417 1.363 . S
C423 C418 1.379 . S
C423 N421 1.356 1_554 S
N424 C416 1.356 . S
N424 H430 0.984 . S
N424 H431 0.984 . S
N425 C418 1.356 1_565 S
N425 H428 0.984 . S
N425 H429 0.985 . S
H426 N421 0.984 . S
H427 N421 0.985 . S
H428 N425 0.984 . S
H429 N425 0.985 . S
H430 N424 0.984 . S
H431 N424 0.984 . S
H432 N420 0.984 . S
H433 N420 0.985 . S
C434 C435 1.363 . S
C434 C440 1.379 . S
C434 N442 1.356 . S
C435 C434 1.363 . S
C435 C441 1.363 . S
C436 C437 1.363 . S
C436 C441 1.379 . S
C436 N443 1.356 . S
C437 C436 1.363 . S
C437 C440 1.363 . S
N438 C440 1.356 1_565 S
N438 H450 0.984 . S
N438 H451 0.985 . S
N439 C441 1.356 . S
N439 H444 0.984 . S
N439 H445 0.985 . S
C440 C434 1.379 . S
C440 C437 1.363 . S
C440 N438 1.356 1_545 S
C441 C435 1.363 . S
C441 C436 1.379 . S
C441 N439 1.356 . S
N442 C434 1.356 . S
N442 H448 0.984 . S
N442 H449 0.984 . S
N443 C436 1.356 . S
N443 H446 0.984 . S
N443 H447 0.985 . S
H444 N439 0.984 . S
H445 N439 0.985 . S
H446 N443 0.984 . S
H447 N443 0.985 . S
H448 N442 0.984 . S
H449 N442 0.984 . S
H450 N438 0.984 . S
H451 N438 0.985 . S
C452 C453 1.363 . S
C452 C458 1.379 . S
C452 N460 1.356 1_565 S
C453 C452 1.363 . S
C453 C459 1.363 . S
C454 C455 1.363 . S
C454 C459 1.379 . S
C454 N461 1.356 . S
C455 C454 1.363 . S
C455 C458 1.363 . S
N456 C458 1.356 1_554 S
N456 H468 0.984 . S
N456 H469 0.985 . S
N457 C459 1.356 . S
N457 H462 0.984 . S
N457 H463 0.985 . S
C458 C452 1.379 . S
C458 C455 1.363 . S
C458 N456 1.356 1_556 S
C459 C453 1.363 . S
C459 C454 1.379 . S
C459 N457 1.356 . S
N460 C452 1.356 1_545 S
N460 H466 0.984 . S
N460 H467 0.984 . S
N461 C454 1.356 . S
N461 H464 0.984 . S
N461 H465 0.985 . S
H462 N457 0.984 . S
H463 N457 0.985 . S
H464 N461 0.984 . S
H465 N461 0.985 . S
H466 N460 0.984 . S
H467 N460 0.984 . S
H468 N456 0.984 . S
H469 N456 0.985 . S
C470 C471 1.363 . S
C470 C476 1.379 . S
C470 N478 1.356 . S
C471 C470 1.363 . S
C471 C477 1.363 . S
C472 C473 1.363 . S
C472 C477 1.379 . S
C472 N479 1.356 . S
C473 C472 1.363 . S
C473 C476 1.363 . S
N474 C476 1.356 . S
N474 H486 0.984 . S
N474 H487 0.985 1_565 S
N475 C477 1.356 . S
N475 H480 0.984 . S
N475 H481 0.985 . S
C476 C470 1.379 . S
C476 C473 1.363 . S
C476 N474 1.356 . S
C477 C471 1.363 . S
C477 C472 1.379 . S
C477 N475 1.356 . S
N478 C470 1.356 . S
N478 H484 0.984 . S
N478 H485 0.984 . S
N479 C472 1.356 . S
N479 H482 0.984 1_565 S
N479 H483 0.985 . S
H480 N475 0.984 . S
H481 N475 0.985 . S
H482 N479 0.984 1_545 S
H483 N479 0.985 . S
H484 N478 0.984 . S
H485 N478 0.984 . S
H486 N474 0.984 . S
H487 N474 0.985 1_545 S
C488 C489 1.363 . S
C488 C494 1.379 . S
C488 N496 1.356 . S
C489 C488 1.363 . S
C489 C495 1.363 1_554 S
C490 C491 1.363 . S
C490 C495 1.379 . S
C490 N497 1.356 . S
C491 C490 1.363 . S
C491 C494 1.363 1_556 S
N492 C494 1.356 . S
N492 H504 0.984 . S
N492 H505 0.985 . S
N493 C495 1.356 . S
N493 H498 0.984 . S
N493 H499 0.985 . S
C494 C488 1.379 . S
C494 C491 1.363 1_554 S
C494 N492 1.356 . S
C495 C489 1.363 1_556 S
C495 C490 1.379 . S
C495 N493 1.356 . S
N496 C488 1.356 . S
N496 H502 0.984 . S
N496 H503 0.984 . S
N497 C490 1.356 . S
N497 H500 0.984 . S
N497 H501 0.985 . S
H498 N493 0.984 . S
H499 N493 0.985 . S
H500 N497 0.984 . S
H501 N497 0.985 . S
H502 N496 0.984 . S
H503 N496 0.984 . S
H504 N492 0.984 . S
H505 N492 0.985 . S
C506 C507 1.363 . S
C506 C512 1.379 . S
C506 N514 1.356 . S
C507 C506 1.363 . S
C507 C513 1.363 . S
C508 C509 1.363 . S
C508 C513 1.379 . S
C508 N515 1.356 . S
C509 C508 1.363 . S
C509 C512 1.363 . S
N510 C512 1.356 . S
N510 H522 0.984 . S
N510 H523 0.985 . S
N511 C513 1.356 . S
N511 H516 0.984 . S
N511 H517 0.985 . S
C512 C506 1.379 . S
C512 C509 1.363 . S
C512 N510 1.356 . S
C513 C507 1.363 . S
C513 C508 1.379 . S
C513 N511 1.356 . S
N514 C506 1.356 . S
N514 H520 0.984 . S
N514 H521 0.984 . S
N515 C508 1.356 . S
N515 H518 0.984 . S
N515 H519 0.985 . S
H516 N511 0.984 . S
H517 N511 0.985 . S
H518 N515 0.984 . S
H519 N515 0.985 . S
H520 N514 0.984 . S
H521 N514 0.984 . S
H522 N510 0.984 . S
H523 N510 0.985 . S
C524 C525 1.363 1_554 S
C524 C530 1.379 . S
C524 N532 1.356 . S
C525 C524 1.363 1_556 S
C525 C531 1.363 . S
C526 C527 1.363 1_556 S
C526 C531 1.379 . S
C526 N533 1.356 . S
C527 C526 1.363 1_554 S
C527 C530 1.363 . S
N528 C530 1.356 . S
N528 H540 0.984 . S
N528 H541 0.985 . S
N529 C531 1.356 . S
N529 H534 0.984 . S
N529 H535 0.985 . S
C530 C524 1.379 . S
C530 C527 1.363 . S
C530 N528 1.356 . S
C531 C525 1.363 . S
C531 C526 1.379 . S
C531 N529 1.356 . S
N532 C524 1.356 . S
N532 H538 0.984 . S
N532 H539 0.984 . S
N533 C526 1.356 . S
N533 H536 0.984 . S
N533 H537 0.985 . S
H534 N529 0.984 . S
H535 N529 0.985 . S
H536 N533 0.984 . S
H537 N533 0.985 . S
H538 N532 0.984 . S
H539 N532 0.984 . S
H540 N528 0.984 . S
H541 N528 0.985 . S
C542 C543 1.363 . S
C542 C548 1.379 . S
C542 N550 1.356 . S
C543 C542 1.363 . S
C543 C549 1.363 . S
C544 C545 1.363 . S
C544 C549 1.379 . S
C544 N551 1.356 . S
C545 C544 1.363 . S
C545 C548 1.363 . S
N546 C548 1.356 . S
N546 H558 0.984 . S
N546 H559 0.985 . S
N547 C549 1.356 . S
N547 H552 0.984 . S
N547 H553 0.985 . S
C548 C542 1.379 . S
C548 C545 1.363 . S
C548 N546 1.356 . S
C549 C543 1.363 . S
C549 C544 1.379 . S
C549 N547 1.356 . S
N550 C542 1.356 . S
N550 H556 0.984 . S
N550 H557 0.984 . S
N551 C544 1.356 . S
N551 H554 0.984 . S
N551 H555 0.985 . S
H552 N547 0.984 . S
H553 N547 0.985 . S
H554 N551 0.984 . S
H555 N551 0.985 . S
H556 N550 0.984 . S
H557 N550 0.984 . S
H558 N546 0.984 . S
H559 N546 0.985 . S
C560 C561 1.363 . S
C560 C566 1.379 1_545 S
C560 N568 1.356 . S
C561 C560 1.363 . S
C561 C567 1.363 1_545 S
C562 C563 1.363 . S
C562 C567 1.379 . S
C562 N569 1.356 . S
C563 C562 1.363 . S
C563 C566 1.363 . S
N564 C566 1.356 . S
N564 H576 0.984 . S
N564 H577 0.985 . S
N565 C567 1.356 . S
N565 H570 0.984 1_565 S
N565 H571 0.985 . S
C566 C560 1.379 1_565 S
C566 C563 1.363 . S
C566 N564 1.356 . S
C567 C561 1.363 1_565 S
C567 C562 1.379 . S
C567 N565 1.356 . S
N568 C560 1.356 . S
N568 H574 0.984 . S
N568 H575 0.984 . S
N569 C562 1.356 . S
N569 H572 0.984 . S
N569 H573 0.985 . S
H570 N565 0.984 1_545 S
H571 N565 0.985 . S
H572 N569 0.984 . S
H573 N569 0.985 . S
H574 N568 0.984 . S
H575 N568 0.984 . S
H576 N564 0.984 . S
H577 N564 0.985 . S
C578 C579 1.363 1_565 S
C578 C584 1.379 . S
C578 N586 1.356 . S
C579 C578 1.363 1_545 S
C579 C585 1.363 . S
C580 C581 1.363 . S
C580 C585 1.379 1_565 S
C580 N587 1.356 . S
C581 C580 1.363 . S
C581 C584 1.363 . S
N582 C584 1.356 . S
N582 H594 0.984 . S
N582 H595 0.985 . S
N583 C585 1.356 . S
N583 H588 0.984 . S
N583 H589 0.985 . S
C584 C578 1.379 . S
C584 C581 1.363 . S
C584 N582 1.356 . S
C585 C579 1.363 . S
C585 C580 1.379 1_545 S
C585 N583 1.356 . S
N586 C578 1.356 . S
N586 H592 0.984 . S
N586 H593 0.984 . S
N587 C580 1.356 . S
N587 H590 0.984 . S
N587 H591 0.985 1_565 S
H588 N583 0.984 . S
H589 N583 0.985 . S
H590 N587 0.984 . S
H591 N587 0.985 1_545 S
H592 N586 0.984 . S
H593 N586 0.984 . S
H594 N582 0.984 . S
H595 N582 0.985 . S
C596 C597 1.363 . S
C596 C602 1.379 1_545 S
C596 N604 1.356 . S
C597 C596 1.363 . S
C597 C603 1.363 . S
C598 C599 1.363 1_545 S
C598 C603 1.379 . S
C598 N605 1.356 . S
C599 C598 1.363 1_565 S
C599 C602 1.363 . S
N600 C602 1.356 . S
N600 H612 0.984 . S
N600 H613 0.985 . S
N601 C603 1.356 . S
N601 H606 0.984 . S
N601 H607 0.985 . S
C602 C596 1.379 1_565 S
C602 C599 1.363 . S
C602 N600 1.356 . S
C603 C597 1.363 . S
C603 C598 1.379 . S
C603 N601 1.356 . S
N604 C596 1.356 . S
N604 H610 0.984 1_545 S
N604 H611 0.984 . S
N605 C598 1.356 . S
N605 H608 0.984 . S
N605 H609 0.985 . S
H606 N601 0.984 . S
H607 N601 0.985 . S
H608 N605 0.984 . S
H609 N605 0.985 . S
H610 N604 0.984 1_565 S
H611 N604 0.984 . S
H612 N600 0.984 . S
H613 N600 0.985 . S
C614 C615 1.363 . S
C614 C620 1.379 1_565 S
C614 N622 1.356 . S
C615 C614 1.363 . S
C615 C621 1.363 1_565 S
C616 C617 1.363 . S
C616 C621 1.379 . S
C616 N623 1.356 . S
C617 C616 1.363 . S
C617 C620 1.363 . S
N618 C620 1.356 . S
N618 H630 0.984 1_545 S
N618 H631 0.985 . S
N619 C621 1.356 . S
N619 H624 0.984 . S
N619 H625 0.985 . S
C620 C614 1.379 1_545 S
C620 C617 1.363 . S
C620 N618 1.356 . S
C621 C615 1.363 1_545 S
C621 C616 1.379 . S
C621 N619 1.356 . S
N622 C614 1.356 . S
N622 H628 0.984 . S
N622 H629 0.984 . S
N623 C616 1.356 . S
N623 H626 0.984 . S
N623 H627 0.985 . S
H624 N619 0.984 . S
H625 N619 0.985 . S
H626 N623 0.984 . S
H627 N623 0.985 . S
H628 N622 0.984 . S
H629 N622 0.984 . S
H630 N618 0.984 1_565 S
H631 N618 0.985 . S
C632 C633 1.363 . S
C632 C638 1.379 . S
C632 N640 1.356 . S
C633 C632 1.363 . S
C633 C639 1.363 . S
C634 C635 1.363 . S
C634 C639 1.379 . S
C634 N641 1.356 . S
C635 C634 1.363 . S
C635 C638 1.363 . S
N636 C638 1.356 . S
N636 H648 0.984 . S
N636 H649 0.985 . S
N637 C639 1.356 . S
N637 H642 0.984 . S
N637 H643 0.985 . S
C638 C632 1.379 . S
C638 C635 1.363 . S
C638 N636 1.356 . S
C639 C633 1.363 . S
C639 C634 1.379 . S
C639 N637 1.356 . S
N640 C632 1.356 . S
N640 H646 0.984 . S
N640 H647 0.984 . S
N641 C634 1.356 . S
N641 H644 0.984 . S
N641 H645 0.985 . S
H642 N637 0.984 . S
H643 N637 0.985 . S
H644 N641 0.984 . S
H645 N641 0.985 . S
H646 N640 0.984 . S
H647 N640 0.984 . S
H648 N636 0.984 . S
H649 N636 0.985 . S
C650 C651 1.363 . S
C650 C656 1.379 . S
C650 N658 1.356 . S
C651 C650 1.363 . S
C651 C657 1.363 . S
C652 C653 1.363 . S
C652 C657 1.379 . S
C652 N659 1.356 . S
C653 C652 1.363 . S
C653 C656 1.363 . S
N654 C656 1.356 . S
N654 H666 0.984 . S
N654 H667 0.985 . S
N655 C657 1.356 . S
N655 H660 0.984 . S
N655 H661 0.985 . S
C656 C650 1.379 . S
C656 C653 1.363 . S
C656 N654 1.356 . S
C657 C651 1.363 . S
C657 C652 1.379 . S
C657 N655 1.356 . S
N658 C650 1.356 . S
N658 H664 0.984 . S
N658 H665 0.984 . S
N659 C652 1.356 . S
N659 H662 0.984 . S
N659 H663 0.985 . S
H660 N655 0.984 . S
H661 N655 0.985 . S
H662 N659 0.984 . S
H663 N659 0.985 . S
H664 N658 0.984 . S
H665 N658 0.984 . S
H666 N654 0.984 . S
H667 N654 0.985 . S
C668 C669 1.363 . S
C668 C674 1.379 . S
C668 N676 1.356 . S
C669 C668 1.363 . S
C669 C675 1.363 . S
C670 C671 1.363 . S
C670 C675 1.379 . S
C670 N677 1.356 . S
C671 C670 1.363 . S
C671 C674 1.363 . S
N672 C674 1.356 . S
N672 H684 0.984 . S
N672 H685 0.985 . S
N673 C675 1.356 . S
N673 H678 0.984 . S
N673 H679 0.985 . S
C674 C668 1.379 . S
C674 C671 1.363 . S
C674 N672 1.356 . S
C675 C669 1.363 . S
C675 C670 1.379 . S
C675 N673 1.356 . S
N676 C668 1.356 . S
N676 H682 0.984 . S
N676 H683 0.984 . S
N677 C670 1.356 . S
N677 H680 0.984 . S
N677 H681 0.985 . S
H678 N673 0.984 . S
H679 N673 0.985 . S
H680 N677 0.984 . S
H681 N677 0.985 . S
H682 N676 0.984 . S
H683 N676 0.984 . S
H684 N672 0.984 . S
H685 N672 0.985 . S
C686 C687 1.363 . S
C686 C692 1.379 . S
C686 N694 1.356 . S
C687 C686 1.363 . S
C687 C693 1.363 . S
C688 C689 1.363 . S
C688 C693 1.379 . S
C688 N695 1.356 . S
C689 C688 1.363 . S
C689 C692 1.363 . S
N690 C692 1.356 . S
N690 H702 0.984 . S
N690 H703 0.985 . S
N691 C693 1.356 . S
N691 H696 0.984 . S
N691 H697 0.985 . S
C692 C686 1.379 . S
C692 C689 1.363 . S
C692 N690 1.356 . S
C693 C687 1.363 . S
C693 C688 1.379 . S
C693 N691 1.356 . S
N694 C686 1.356 . S
N694 H700 0.984 . S
N694 H701 0.984 . S
N695 C688 1.356 . S
N695 H698 0.984 . S
N695 H699 0.985 . S
H696 N691 0.984 . S
H697 N691 0.985 . S
H698 N695 0.984 . S
H699 N695 0.985 . S
H700 N694 0.984 . S
H701 N694 0.984 . S
H702 N690 0.984 . S
H703 N690 0.985 . S
C704 C705 1.363 1_565 S
C704 C710 1.379 . S
C704 N712 1.356 . S
C705 C704 1.363 1_545 S
C705 C711 1.363 1_554 S
C706 C707 1.363 1_545 S
C706 C711 1.379 . S
C706 N713 1.356 . S
C707 C706 1.363 1_565 S
C707 C710 1.363 1_556 S
N708 C710 1.356 . S
N708 H720 0.984 . S
N708 H721 0.985 1_554 S
N709 C711 1.356 . S
N709 H714 0.984 1_556 S
N709 H715 0.985 . S
C710 C704 1.379 . S
C710 C707 1.363 1_554 S
C710 N708 1.356 . S
C711 C705 1.363 1_556 S
C711 C706 1.379 . S
C711 N709 1.356 . S
N712 C704 1.356 . S
N712 H718 0.984 . S
N712 H719 0.984 . S
N713 C706 1.356 . S
N713 H716 0.984 . S
N713 H717 0.985 . S
H714 N709 0.984 1_554 S
H715 N709 0.985 . S
H716 N713 0.984 . S
H717 N713 0.985 . S
H718 N712 0.984 . S
H719 N712 0.984 . S
H720 N708 0.984 . S
H721 N708 0.985 1_556 S
C722 C723 1.363 . S
C722 C728 1.379 . S
C722 N730 1.356 . S
C723 C722 1.363 . S
C723 C729 1.363 1_545 S
C724 C725 1.363 . S
C724 C729 1.379 . S
C724 N731 1.356 . S
C725 C724 1.363 . S
C725 C728 1.363 1_565 S
N726 C728 1.356 . S
N726 H738 0.984 . S
N726 H739 0.985 . S
N727 C729 1.356 . S
N727 H732 0.984 . S
N727 H733 0.985 . S
C728 C722 1.379 . S
C728 C725 1.363 1_545 S
C728 N726 1.356 . S
C729 C723 1.363 1_565 S
C729 C724 1.379 . S
C729 N727 1.356 . S
N730 C722 1.356 . S
N730 H736 0.984 . S
N730 H737 0.984 . S
N731 C724 1.356 . S
N731 H734 0.984 . S
N731 H735 0.985 . S
H732 N727 0.984 . S
H733 N727 0.985 . S
H734 N731 0.984 . S
H735 N731 0.985 . S
H736 N730 0.984 . S
H737 N730 0.984 . S
H738 N726 0.984 . S
H739 N726 0.985 . S
C740 C741 1.363 1_556 S
C740 C746 1.379 . S
C740 N748 1.356 . S
C741 C740 1.363 1_554 S
C741 C747 1.363 1_655 S
C742 C743 1.363 1_554 S
C742 C747 1.379 . S
C742 N749 1.356 . S
C743 C742 1.363 1_556 S
C743 C746 1.363 1_455 S
N744 C746 1.356 1_455 S
N744 H756 0.984 1_455 S
N744 H757 0.985 . S
N745 C747 1.356 1_655 S
N745 H750 0.984 . S
N745 H751 0.985 1_655 S
C746 C740 1.379 . S
C746 C743 1.363 1_655 S
C746 N744 1.356 1_655 S
C747 C741 1.363 1_455 S
C747 C742 1.379 . S
C747 N745 1.356 1_455 S
N748 C740 1.356 . S
N748 H754 0.984 . S
N748 H755 0.984 1_556 S
N749 C742 1.356 . S
N749 H752 0.984 1_554 S
N749 H753 0.985 . S
H750 N745 0.984 . S
H751 N745 0.985 1_455 S
H752 N749 0.984 1_556 S
H753 N749 0.985 . S
H754 N748 0.984 . S
H755 N748 0.984 1_554 S
H756 N744 0.984 1_655 S
H757 N744 0.985 . S
C758 C759 1.363 1_655 S
C758 C764 1.378 . S
C758 N766 1.356 1_655 S
C759 C758 1.363 1_455 S
C759 C765 1.363 . S
C760 C761 1.363 1_455 S
C760 C765 1.378 . S
C760 N767 1.356 1_455 S
C761 C760 1.363 1_655 S
C761 C764 1.363 . S
N762 C764 1.356 . S
N762 H774 0.984 . S
N762 H775 0.985 . S
N763 C765 1.356 . S
N763 H768 0.984 . S
N763 H769 0.985 . S
C764 C758 1.378 . S
C764 C761 1.363 . S
C764 N762 1.356 . S
C765 C759 1.363 . S
C765 C760 1.378 . S
C765 N763 1.356 . S
N766 C758 1.356 1_455 S
N766 H772 0.984 1_455 S
N766 H773 0.984 . S
N767 C760 1.356 1_655 S
N767 H770 0.984 . S
N767 H771 0.985 1_655 S
H768 N763 0.984 . S
H769 N763 0.985 . S
H770 N767 0.984 . S
H771 N767 0.985 1_455 S
H772 N766 0.984 1_655 S
H773 N766 0.984 . S
H774 N762 0.984 . S
H775 N762 0.985 . S
C273 C35 1.768 . S
C275 C3 1.768 . S
C291 C105 1.768 . S
C293 C71 1.768 . S
C309 C139 1.768 . S
C311 C173 1.768 . S
C327 C207 1.768 . S
C329 C239 1.768 . S
C345 C22 1.613 . S
C347 C15 1.628 . S
C363 C49 1.613 . S
C365 C56 1.628 . S
C381 C83 1.628 . S
C383 C90 1.613 . S
C399 C124 1.613 . S
C401 C117 1.628 . S
C417 C158 1.613 . S
C419 C151 1.628 1_545 S
C435 C192 1.613 . S
C437 C185 1.628 1_545 S
C453 C219 1.628 1_565 S
C455 C226 1.613 . S
C471 C253 1.613 . S
C473 C260 1.628 1_565 S
C489 C17 1.883 . S
C491 C221 1.883 . S
C507 C51 1.883 . S
C509 C255 1.883 . S
C525 C85 1.883 . S
C527 C153 1.883 . S
C543 C187 1.883 . S
C545 C119 1.883 . S
C561 C6 1.680 . S
C563 C130 1.644 . S
C579 C62 1.680 . S
C581 C96 1.644 . S
C597 C40 1.644 . S
C599 C74 1.680 . S
C615 C108 1.680 . S
C617 C28 1.644 . S
C633 C244 1.644 . S
C635 C142 1.680 . S
C651 C176 1.680 . S
C653 C232 1.644 . S
C669 C198 1.644 . S
C671 C210 1.680 . S
C687 C164 1.644 . S
C689 C266 1.680 . S
C705 C1 1.890 . S
C707 C69 1.890 . S
C723 C37 1.890 . S
C725 C103 1.890 . S
C741 C137 1.890 . S
C743 C205 1.890 . S
C759 C171 1.890 . S
C761 C241 1.890 . S
