# Generated by pormake.
# Topology sml, (6)-cn, num edge types: 1
# Building blocks:
#     Node 0, Type 0, BuildingBlock: UKALOJ_clean_sbu_0, # of connection points: 6
#     Node 1, Type 0, BuildingBlock: UKALOJ_clean_sbu_0, # of connection points: 6
#     Node 2, Type 0, BuildingBlock: UKALOJ_clean_sbu_0, # of connection points: 6
#     Node 3, Type 0, BuildingBlock: UKALOJ_clean_sbu_0, # of connection points: 6
#     Node 4, Type 0, BuildingBlock: UKALOJ_clean_sbu_0, # of connection points: 6
#     Node 5, Type 0, BuildingBlock: UKALOJ_clean_sbu_0, # of connection points: 6
#     Edge 6, Type (0, 0), BuildingBlock: EZIPEK_clean_linker_0, # of connection points: 2
#     Edge 7, Type (0, 0), BuildingBlock: EZIPEK_clean_linker_0, # of connection points: 2
#     Edge 8, Type (0, 0), BuildingBlock: EZIPEK_clean_linker_0, # of connection points: 2
#     Edge 9, Type (0, 0), BuildingBlock: EZIPEK_clean_linker_0, # of connection points: 2
#     Edge 10, Type (0, 0), BuildingBlock: EZIPEK_clean_linker_0, # of connection points: 2
#     Edge 11, Type (0, 0), BuildingBlock: EZIPEK_clean_linker_0, # of connection points: 2
#     Edge 12, Type (0, 0), BuildingBlock: EZIPEK_clean_linker_0, # of connection points: 2
#     Edge 13, Type (0, 0), BuildingBlock: EZIPEK_clean_linker_0, # of connection points: 2
#     Edge 14, Type (0, 0), BuildingBlock: EZIPEK_clean_linker_0, # of connection points: 2
#     Edge 15, Type (0, 0), BuildingBlock: EZIPEK_clean_linker_0, # of connection points: 2
#     Edge 16, Type (0, 0), BuildingBlock: EZIPEK_clean_linker_0, # of connection points: 2
#     Edge 17, Type (0, 0), BuildingBlock: EZIPEK_clean_linker_0, # of connection points: 2
#     Edge 18, Type (0, 0), BuildingBlock: EZIPEK_clean_linker_0, # of connection points: 2
#     Edge 19, Type (0, 0), BuildingBlock: EZIPEK_clean_linker_0, # of connection points: 2
#     Edge 20, Type (0, 0), BuildingBlock: EZIPEK_clean_linker_0, # of connection points: 2
#     Edge 21, Type (0, 0), BuildingBlock: EZIPEK_clean_linker_0, # of connection points: 2
#     Edge 22, Type (0, 0), BuildingBlock: EZIPEK_clean_linker_0, # of connection points: 2
#     Edge 23, Type (0, 0), BuildingBlock: EZIPEK_clean_linker_0, # of connection points: 2
# Relax obj value: 0.388
# Max RMSD: 0.245
# Mean RMSD: 0.245
data_MOF--net-sml--node1-UKALOJ_clean_sbu_0--edge1-EZIPEK_clean_linker_0
_symmetry_space_group_name_H-M    P1
_symmetry_Int_Tables_number       1
_symmetry_cell_setting            triclinic
loop_
_symmetry_equiv_pos_as_xyz
'x, y, z'
_cell_length_a     26.469298
_cell_length_b     26.592294
_cell_length_c     15.106479
_cell_angle_alpha  90.238999
_cell_angle_beta   89.887743
_cell_angle_gamma 120.3359
loop_
_atom_site_label
_atom_site_type_symbol
_atom_site_fract_x
_atom_site_fract_y
_atom_site_fract_z
_atom_type_partial_charge
Zn0 Zn 0.2115 0.41188 0.08407 0.0
O1 O 0.19795 0.48194 0.10166 0.0
C2 C 0.07862 0.33073 0.09927 0.0
Zn3 Zn 0.1587 0.39709 0.96132 0.0
C4 C 0.16654 0.49536 0.05575 0.0
O5 O 0.14245 0.46696 0.98559 0.0
C6 C 0.20439 0.3142 0.98938 0.0
O7 O 0.24348 0.45736 0.90962 0.0
O8 O 0.29532 0.46867 0.02919 0.0
N9 N 0.12705 0.38794 0.83458 0.0
C10 C 0.15297 0.38646 0.75827 0.0
C11 C 0.08138 0.39777 0.72334 0.0
N12 N 0.08225 0.39456 0.81264 0.0
N13 N 0.12554 0.39285 0.68838 0.0
C14 C 0.2322 0.44329 0.28391 0.0
C15 C 0.25409 0.38093 0.32884 0.0
N16 N 0.24379 0.42094 0.21126 0.0
N17 N 0.25866 0.38313 0.23986 0.0
N18 N 0.23664 0.41772 0.35784 0.0
H19 H 0.17084 0.47211 0.26087 0.0
H20 H 0.24656 0.52641 0.24092 0.0
H21 H 0.21889 0.50792 0.35146 0.0
C22 C 0.21616 0.48997 0.28422 0.0
C23 C 0.20851 0.38452 0.7495 0.0
H24 H 0.24498 0.42889 0.73423 0.0
H25 H 0.20481 0.35596 0.69311 0.0
H26 H 0.21986 0.36904 0.80908 0.0
O27 O 0.17387 0.32702 0.93989 0.0
O28 O 0.22418 0.34149 0.06159 0.0
C29 C 0.29288 0.4797 0.948 0.0
O30 O 0.12819 0.35519 0.13736 0.0
O31 O 0.07542 0.33857 0.01681 0.0
Zn32 Zn 0.74104 0.17903 0.30608 0.0
O33 O 0.75929 0.2602 0.26932 0.0
C34 C 0.87318 0.22345 0.3158 0.0
Zn35 Zn 0.78656 0.22247 0.42886 0.0
C36 C 0.7853 0.30758 0.31123 0.0
O37 O 0.80438 0.30856 0.389 0.0
C38 C 0.73904 0.09158 0.41761 0.0
O39 O 0.70382 0.20256 0.46778 0.0
O40 O 0.65541 0.16304 0.34659 0.0
N41 N 0.81253 0.24832 0.55537 0.0
C42 C 0.78325 0.22178 0.62997 0.0
C43 C 0.86312 0.29723 0.66916 0.0
N44 N 0.86223 0.29519 0.57965 0.0
N45 N 0.81383 0.25156 0.70118 0.0
C46 C 0.74709 0.18305 0.1059 0.0
C47 C 0.66332 0.11538 0.06228 0.0
N48 N 0.71591 0.15556 0.17877 0.0
N49 N 0.66375 0.1136 0.15177 0.0
N50 N 0.71523 0.15872 0.03305 0.0
H51 H 0.8236 0.26025 0.16318 0.0
H52 H 0.81545 0.26275 0.04678 0.0
H53 H 0.83897 0.2159 0.09114 0.0
C54 C 0.80934 0.2334 0.10283 0.0
C55 C 0.72325 0.16813 0.63613 0.0
H56 H 0.70998 0.14037 0.57677 0.0
H57 H 0.69068 0.18196 0.64836 0.0
H58 H 0.72094 0.14089 0.6931 0.0
O59 O 0.76884 0.13714 0.46413 0.0
O60 O 0.72031 0.09565 0.34221 0.0
C61 C 0.65603 0.17965 0.42606 0.0
O62 O 0.82662 0.19582 0.2704 0.0
O63 O 0.86985 0.24319 0.39062 0.0
Zn64 Zn 0.56053 0.7897 0.7208 0.0
O65 O 0.49614 0.70824 0.77113 0.0
C66 C 0.6383 0.73567 0.71578 0.0
Zn67 Zn 0.55476 0.73908 0.59843 0.0
C68 C 0.46938 0.6602 0.72881 0.0
O69 O 0.48375 0.65855 0.64863 0.0
C70 C 0.64167 0.86848 0.58837 0.0
O71 O 0.49459 0.76315 0.56295 0.0
O72 O 0.49426 0.80941 0.68392 0.0
N73 N 0.55306 0.70662 0.47235 0.0
C74 C 0.53087 0.71369 0.39575 0.0
C75 C 0.60428 0.7053 0.36139 0.0
N76 N 0.59798 0.70026 0.45004 0.0
N77 N 0.56308 0.71451 0.32583 0.0
C78 C 0.54864 0.805 0.92138 0.0
C79 C 0.63892 0.85809 0.95265 0.0
N80 N 0.57676 0.82811 0.84455 0.0
N81 N 0.63279 0.86229 0.86491 0.0
N82 N 0.58669 0.82142 0.9894 0.0
H83 H 0.46174 0.77168 0.8732 0.0
H84 H 0.46899 0.77662 0.99268 0.0
H85 H 0.47428 0.72038 0.93613 0.0
C86 C 0.48429 0.76601 0.93069 0.0
C87 C 0.47858 0.72109 0.38761 0.0
H88 H 0.4455 0.69489 0.43854 0.0
H89 H 0.45842 0.70663 0.32114 0.0
H90 H 0.49211 0.7677 0.39474 0.0
O91 O 0.62336 0.81999 0.54921 0.0
O92 O 0.62347 0.86956 0.66567 0.0
C93 C 0.47562 0.7913 0.60576 0.0
O94 O 0.62462 0.76874 0.75659 0.0
O95 O 0.61576 0.71508 0.64064 0.0
Zn96 Zn 0.78606 0.55626 0.95109 0.0
O97 O 0.70206 0.49259 0.91413 0.0
C98 C 0.7415 0.64299 0.94912 0.0
Zn99 Zn 0.74641 0.56751 0.07497 0.0
C100 C 0.65578 0.47952 0.95657 0.0
O101 O 0.65984 0.50352 0.03131 0.0
C102 C 0.87618 0.64569 0.06504 0.0
O103 O 0.7625 0.50215 0.11737 0.0
O104 O 0.80374 0.49062 0.99894 0.0
N105 N 0.71629 0.56528 0.20204 0.0
C106 C 0.74474 0.5714 0.2792 0.0
C107 C 0.65386 0.53113 0.30968 0.0
N108 N 0.6598 0.5403 0.22135 0.0
N109 N 0.70666 0.55018 0.34709 0.0
C110 C 0.78662 0.52377 0.7547 0.0
C111 C 0.85124 0.60638 0.70537 0.0
N112 N 0.81627 0.55681 0.82528 0.0
N113 N 0.85734 0.60769 0.79396 0.0
N114 N 0.80638 0.55443 0.67907 0.0
H115 H 0.73959 0.44129 0.82294 0.0
H116 H 0.74642 0.43622 0.70507 0.0
H117 H 0.69655 0.45686 0.74559 0.0
C118 C 0.73953 0.46094 0.75835 0.0
C119 C 0.80956 0.59557 0.28868 0.0
H120 H 0.82421 0.5722 0.24419 0.0
H121 H 0.8224 0.59235 0.35719 0.0
H122 H 0.83303 0.64253 0.27182 0.0
O123 O 0.83131 0.63141 0.11202 0.0
O124 O 0.87032 0.62221 0.98953 0.0
C125 C 0.78659 0.47726 0.07876 0.0
O126 O 0.76536 0.61919 0.90636 0.0
O127 O 0.73032 0.63246 0.03112 0.0
Zn128 Zn 0.17461 0.76206 0.38058 0.0
O129 O 0.25593 0.7817 0.42932 0.0
C130 C 0.2234 0.89348 0.38645 0.0
Zn131 Zn 0.22688 0.81344 0.26237 0.0
C132 C 0.30506 0.80605 0.39029 0.0
O133 O 0.30906 0.82563 0.31186 0.0
C134 C 0.09564 0.76498 0.2514 0.0
O135 O 0.20546 0.73047 0.22012 0.0
O136 O 0.1588 0.67868 0.33715 0.0
N137 N 0.2576 0.84796 0.13595 0.0
C138 C 0.25355 0.82023 0.05844 0.0
C139 C 0.25126 0.89672 0.02603 0.0
N140 N 0.25714 0.89607 0.11472 0.0
N141 N 0.2483 0.84912 0.98914 0.0
C142 C 0.16563 0.73564 0.58071 0.0
C143 C 0.10615 0.76424 0.61485 0.0
N144 N 0.13803 0.73537 0.50518 0.0
N145 N 0.10017 0.75194 0.52758 0.0
N146 N 0.14796 0.75562 0.64955 0.0
H147 H 0.20525 0.68785 0.5306 0.0
H148 H 0.2009 0.6902 0.65016 0.0
H149 H 0.25404 0.75343 0.59253 0.0
C150 C 0.209 0.71548 0.58823 0.0
C151 C 0.25363 0.76438 0.04878 0.0
H152 H 0.20833 0.72703 0.05464 0.0
H153 H 0.28232 0.76233 0.09993 0.0
H154 H 0.27029 0.76169 0.98247 0.0
O155 O 0.14476 0.79829 0.21531 0.0
O156 O 0.09364 0.74243 0.32618 0.0
C157 C 0.17836 0.68159 0.25896 0.0
O158 O 0.19127 0.84443 0.42223 0.0
O159 O 0.24746 0.89634 0.31227 0.0
Zn160 Zn 0.38084 0.20937 0.64114 0.0
O161 O 0.44704 0.19468 0.5996 0.0
C162 C 0.30166 0.07954 0.63599 0.0
Zn163 Zn 0.38371 0.16324 0.76321 0.0
C164 C 0.46736 0.16637 0.63764 0.0
O165 O 0.44898 0.145 0.71435 0.0
C166 C 0.29861 0.20844 0.7671 0.0
O167 O 0.44911 0.24603 0.80731 0.0
O168 O 0.44386 0.29328 0.69178 0.0
N169 N 0.37692 0.12662 0.8864 0.0
C170 C 0.40513 0.15146 0.96282 0.0
C171 C 0.31957 0.08394 0.99755 0.0
N172 N 0.32416 0.08381 0.90875 0.0
N173 N 0.36962 0.12659 0.03319 0.0
C174 C 0.40349 0.23738 0.44107 0.0
C175 C 0.31801 0.21813 0.40386 0.0
N176 N 0.3758 0.23806 0.51616 0.0
N177 N 0.3231 0.22723 0.49201 0.0
N178 N 0.36756 0.22323 0.37052 0.0
H179 H 0.4916 0.27714 0.49197 0.0
H180 H 0.48544 0.27292 0.37254 0.0
H181 H 0.46563 0.20832 0.4338 0.0
C182 C 0.46528 0.24984 0.43529 0.0
C183 C 0.46802 0.19815 0.97016 0.0
H184 H 0.47117 0.2397 0.98949 0.0
H185 H 0.49183 0.203 0.90737 0.0
H186 H 0.48899 0.18684 0.024 0.0
O187 O 0.32051 0.18299 0.80954 0.0
O188 O 0.31354 0.22331 0.68727 0.0
C189 C 0.46553 0.29391 0.76751 0.0
O190 O 0.3201 0.12637 0.59302 0.0
O191 O 0.31802 0.08187 0.71538 0.0
C192 C 0.21182 0.19938 0.84998 0.0
C193 C 0.26999 0.23412 0.81898 0.0
C194 C 0.28826 0.30774 0.93052 0.0
C195 C 0.22775 0.27882 0.95082 0.0
N196 N 0.13062 0.19698 0.92924 0.0
N197 N 0.35826 0.32828 0.81424 0.0
C198 C 0.18901 0.22432 0.91036 0.0
C199 C 0.30649 0.2905 0.85433 0.0
N200 N 0.1788 0.143 0.82194 0.0
N201 N 0.32866 0.35142 0.98325 0.0
H202 H 0.37114 0.31893 0.75432 0.0
H203 H 0.38539 0.37106 0.83541 0.0
H204 H 0.31854 0.3634 0.04331 0.0
H205 H 0.37361 0.37048 0.97329 0.0
H206 H 0.13811 0.11367 0.84874 0.0
H207 H 0.19375 0.12487 0.77456 0.0
H208 H 0.09914 0.16053 0.89488 0.0
H209 H 0.11371 0.2124 0.97788 0.0
C210 C -0.0162 0.23962 0.14012 0.0
C211 C 0.02569 0.29916 0.15544 0.0
C212 C -0.01982 0.29489 0.2982 0.0
C213 C 0.93107 0.24084 0.27424 0.0
N214 N 0.89084 0.15513 0.18165 0.0
N215 N 0.05668 0.38632 0.24274 0.0
C216 C 0.93435 0.21106 0.19771 0.0
C217 C 0.02185 0.32752 0.2328 0.0
N218 N -0.00747 0.21003 0.07326 0.0
N219 N -0.01111 0.3142 0.38382 0.0
H220 H 0.08582 0.41237 0.19396 0.0
H221 H 0.05156 0.40962 0.29422 0.0
H222 H 0.96513 0.28736 0.43639 0.0
H223 H 0.02588 0.35268 0.4042 0.0
H224 H 0.96661 0.16533 0.06312 0.0
H225 H 0.02838 0.22968 0.03068 0.0
H226 H 0.88557 0.1335 0.1218 0.0
H227 H 0.85975 0.13024 0.2295 0.0
C228 C 0.65589 -0.00642 0.45533 0.0
C229 C 0.71686 0.03354 0.45781 0.0
C230 C 0.73048 0.96455 0.54778 0.0
C231 C 0.67036 0.92285 0.53638 0.0
N232 N 0.58 0.89321 0.45752 0.0
N233 N 0.8142 0.05407 0.49441 0.0
C234 C 0.6346 0.93581 0.48262 0.0
C235 C 0.75498 0.01829 0.50078 0.0
N236 N 0.61749 0.01168 0.43362 0.0
N237 N 0.76377 0.95298 0.60373 0.0
H238 H 0.83336 0.0929 0.45874 0.0
H239 H 0.8442 0.04287 0.51775 0.0
H240 H 0.74738 0.91303 0.6358 0.0
H241 H 0.80628 -0.01604 0.6221 0.0
H242 H 0.57225 -0.0151 0.43788 0.0
H243 H 0.63045 0.05517 0.42279 0.0
H244 H 0.55516 0.89983 0.4105 0.0
H245 H 0.56239 0.84995 0.47533 0.0
C246 C 0.63224 0.65678 0.80969 0.0
C247 C 0.66786 0.71086 0.76705 0.0
C248 C 0.75331 0.72332 0.84908 0.0
C249 C 0.7162 0.67192 0.89747 0.0
N250 N 0.61799 0.59618 0.93622 0.0
N251 N 0.76069 0.79933 0.75169 0.0
C252 C 0.65496 0.64084 0.88192 0.0
C253 C 0.72807 0.74536 0.78845 0.0
N254 N 0.5767 0.6198 0.78016 0.0
N255 N 0.81256 0.7506 0.86068 0.0
H256 H 0.74397 0.81514 0.70369 0.0
H257 H 0.80313 0.82937 0.77167 0.0
H258 H 0.83197 0.73759 0.90856 0.0
H259 H 0.84247 0.78428 0.8205 0.0
H260 H 0.55128 0.57692 0.80158 0.0
H261 H 0.55819 0.62963 0.72736 0.0
H262 H 0.5726 0.57681 0.93379 0.0
H263 H 0.63188 0.58178 0.98962 0.0
C264 C 0.002 0.76022 0.20425 0.0
C265 C 0.04237 0.74035 0.19643 0.0
C266 C 0.97366 0.65881 0.10475 0.0
C267 C 0.93485 0.6809 0.10535 0.0
N268 N 0.91657 0.75867 0.1424 0.0
N269 N 0.07308 0.68088 0.11783 0.0
C270 C 0.95029 0.73352 0.15135 0.0
C271 C 0.03036 0.69315 0.13949 0.0
N272 N 0.01278 0.8039 0.26259 0.0
N273 N 0.95533 0.60315 0.07757 0.0
H274 H 0.11593 0.70601 0.13938 0.0
H275 H 0.06775 0.65051 0.06942 0.0
H276 H 0.91264 0.57416 0.05815 0.0
H277 H -0.01952 0.58338 0.08489 0.0
H278 H -0.01777 0.81625 0.27815 0.0
H279 H 0.05131 0.82541 0.29958 0.0
H280 H 0.9282 0.79948 0.1682 0.0
H281 H 0.87954 0.74109 0.10199 0.0
C282 C 0.22507 0.01276 0.52803 0.0
C283 C 0.27194 0.02398 0.58602 0.0
C284 C 0.29292 0.95954 0.49852 0.0
C285 C 0.24401 0.94505 0.444 0.0
N286 N 0.15791 0.95066 0.41318 0.0
N287 N 0.33756 -0.00735 0.64175 0.0
C288 C 0.20817 0.96943 0.46077 0.0
C289 C 0.30139 -0.00788 0.57671 0.0
N290 N 0.19726 0.04398 0.53713 0.0
N291 N 0.3319 0.94259 0.47498 0.0
H292 H 0.34276 0.01234 0.70316 0.0
H293 H 0.35721 0.96723 0.63944 0.0
H294 H 0.32753 0.91961 0.41699 0.0
H295 H 0.37166 0.95696 0.50718 0.0
H296 H 0.16763 0.0431 0.49103 0.0
H297 H 0.20548 0.07237 0.59022 0.0
H298 H 0.12657 0.96205 0.42824 0.0
H299 H 0.14632 0.92117 0.36072 0.0
C300 C 0.19935 0.45531 0.57919 0.0
C301 C 0.14676 0.40295 0.59878 0.0
C302 C 0.14976 0.36346 0.45379 0.0
C303 C 0.20646 0.41247 0.43972 0.0
N304 N 0.28771 0.50291 0.48999 0.0
N305 N 0.0732 0.30552 0.55987 0.0
C306 C 0.23189 0.45801 0.50276 0.0
C307 C 0.12201 0.35664 0.53705 0.0
N308 N 0.21784 0.50204 0.63463 0.0
N309 N 0.1221 0.32437 0.38676 0.0
H310 H 0.05137 0.30033 0.61971 0.0
H311 H 0.05624 0.26753 0.52224 0.0
H312 H 0.14007 0.32929 0.32379 0.0
H313 H 0.07944 0.28948 0.39091 0.0
H314 H 0.25352 0.54312 0.62147 0.0
H315 H 0.19418 0.5006 0.69088 0.0
H316 H 0.31121 0.5351 0.53706 0.0
H317 H 0.31197 0.50558 0.43381 0.0
C318 C 0.77252 0.16147 0.90456 0.0
C319 C 0.73446 0.17769 0.94447 0.0
C320 C 0.75647 0.2502 0.82925 0.0
C321 C 0.79594 0.23524 0.79097 0.0
N322 N 0.84674 0.18198 0.79279 0.0
N323 N 0.6952 0.24154 0.95472 0.0
C324 C 0.80584 0.19263 0.82957 0.0
C325 C 0.72755 0.22309 0.90919 0.0
N326 N 0.77633 0.11619 0.93952 0.0
N327 N 0.74551 0.28895 0.78681 0.0
H328 H 0.67219 0.22101 0.01218 0.0
H329 H 0.69342 0.27862 0.93855 0.0
H330 H 0.76787 0.31074 0.72957 0.0
H331 H 0.71302 0.29787 0.80583 0.0
H332 H 0.80087 0.0994 0.91234 0.0
H333 H 0.75178 0.09293 0.99444 0.0
H334 H 0.85899 0.15362 0.81897 0.0
H335 H 0.87125 0.20458 0.73746 0.0
C336 C 0.55228 0.70655 0.16307 0.0
C337 C 0.56764 0.74092 0.2407 0.0
C338 C 0.58891 0.82661 0.15237 0.0
C339 C 0.57834 0.7935 0.07419 0.0
N340 N 0.56456 0.70553 1.00433 0.0
N341 N 0.61532 0.83655 0.3071 0.0
C342 C 0.56379 0.73422 0.07908 0.0
C343 C 0.58995 0.80186 0.2349 0.0
N344 N 0.52647 0.6475 0.16998 0.0
N345 N 0.59725 0.88154 0.14758 0.0
H346 H 0.61923 0.82023 0.36764 0.0
H347 H 0.63789 0.88189 0.30419 0.0
H348 H 0.59658 0.9005 0.08757 0.0
H349 H 0.59962 0.90591 0.20327 0.0
H350 H 0.50896 0.61933 0.11603 0.0
H351 H 0.51846 0.62664 0.23111 0.0
H352 H 0.5593 0.664 1.00508 0.0
H353 H 0.57636 0.72542 0.9425 0.0
C354 C 0.74222 0.57689 0.58932 0.0
C355 C 0.77259 0.54588 0.59991 0.0
C356 C 0.73988 0.50269 0.45301 0.0
C357 C 0.71928 0.54175 0.43675 0.0
N358 N 0.70242 0.61787 0.48663 0.0
N359 N 0.80316 0.48137 0.54182 0.0
C360 C 0.72001 0.57877 0.50468 0.0
C361 C 0.77149 0.50859 0.53209 0.0
N362 N 0.73431 0.60402 0.6605 0.0
N363 N 0.72993 0.46092 0.39152 0.0
H364 H 0.82713 0.48585 0.59907 0.0
H365 H 0.80889 0.45781 0.49153 0.0
H366 H 0.70684 0.45625 0.33318 0.0
H367 H 0.73988 0.42818 0.40171 0.0
H368 H 0.70808 0.62285 0.659 0.0
H369 H 0.74926 0.60269 0.72369 0.0
H370 H 0.70804 0.65075 0.53023 0.0
H371 H 0.68537 0.61964 0.4253 0.0
C372 C 0.14177 0.75296 0.81268 0.0
C373 C 0.17519 0.7771 0.73503 0.0
C374 C 0.2585 0.8469 0.82632 0.0
C375 C 0.22378 0.82514 0.90315 0.0
N376 N 0.1277 0.7683 0.96651 0.0
N377 N 0.26445 0.85516 0.66937 0.0
C378 C 0.16407 0.78091 0.89563 0.0
C379 C 0.23306 0.82588 0.74194 0.0
N380 N 0.08906 0.70249 0.80714 0.0
N381 N 0.31585 0.88937 0.83338 0.0
H382 H 0.24841 0.84592 0.60477 0.0
H383 H 0.24841 0.84592 0.60477 0.0
H384 H 0.33591 0.90604 0.89443 0.0
H385 H 0.34313 0.90644 0.77828 0.0
H386 H 0.06504 0.67953 0.86249 0.0
H387 H 0.07215 0.68088 0.74714 0.0
H388 H 0.08242 0.7417 0.96193 0.0
H389 H 0.14207 0.78942 0.02734 0.0
C390 C 0.37082 0.22918 0.20761 0.0
C391 C 0.37225 0.20083 0.28557 0.0
C392 C 0.37923 0.12728 0.19583 0.0
C393 C 0.37301 0.15305 0.11822 0.0
N394 N 0.34579 0.2184 0.05228 0.0
N395 N 0.36143 0.11388 0.35348 0.0
C396 C 0.36428 0.20145 0.12447 0.0
C397 C 0.37231 0.14743 0.27985 0.0
N398 N 0.37591 0.28278 0.21328 0.0
N399 N 0.39141 0.08332 0.18892 0.0
H400 H 0.35328 0.1257 0.41538 0.0
H401 H 0.35425 0.0716 0.35117 0.0
H402 H 0.39564 0.06742 0.12772 0.0
H403 H 0.40179 0.06619 0.24323 0.0
H404 H 0.38035 0.30805 0.15804 0.0
H405 H 0.38076 0.30388 0.27377 0.0
H406 H 0.3324 0.24908 0.05558 0.0
H407 H 0.33856 0.198 0.99083 0.0
C408 C 0.11079 0.53607 0.13368 0.0
C409 C 0.16093 0.54512 0.08642 0.0
C410 C 0.22103 0.63664 0.16294 0.0
C411 C 0.17138 0.63015 0.20928 0.0
N412 N 0.06601 0.57784 0.22647 0.0
N413 N 0.25417 0.61445 0.02779 0.0
C414 C 0.1151 0.58086 0.19147 0.0
C415 C 0.213 0.59877 0.09228 0.0
N416 N 0.05947 0.48481 0.12313 0.0
N417 N 0.27639 0.67775 0.18784 0.0
H418 H 0.24761 0.58746 0.97331 0.0
H419 H 0.29013 0.65656 0.02348 0.0
H420 H 0.31361 0.67985 0.16039 0.0
H421 H 0.28509 0.70683 0.23982 0.0
H422 H 0.0231 0.472 0.16326 0.0
H423 H 0.0545 0.45384 0.07598 0.0
H424 H 0.02367 0.54607 0.20894 0.0
H425 H 0.06728 0.60951 0.2687 0.0
C426 C 0.61518 0.21846 0.54007 0.0
C427 C 0.60426 0.17549 0.47374 0.0
C428 C 0.5005 0.12459 0.51687 0.0
C429 C 0.5143 0.16228 0.59106 0.0
N430 N 0.58685 0.23938 0.68173 0.0
N431 N 0.53478 0.08226 0.40751 0.0
C432 C 0.57248 0.20688 0.6058 0.0
C433 C 0.54641 0.12697 0.4642 0.0
N434 N 0.66485 0.27215 0.53745 0.0
N435 N 0.44332 0.08779 0.4947 0.0
H436 H 0.56536 0.08159 0.36524 0.0
H437 H 0.49484 0.04334 0.40656 0.0
H438 H 0.40875 0.08468 0.53202 0.0
H439 H 0.4304 0.06417 0.43573 0.0
H440 H 0.67193 0.30637 0.5793 0.0
H441 H 0.69566 0.28537 0.48689 0.0
H442 H 0.62992 0.26905 0.69956 0.0
H443 H 0.55628 0.2326 0.73084 0.0
C444 C 0.36314 0.58221 0.91125 0.0
C445 C 0.34533 0.52326 0.89882 0.0
C446 C 0.40979 0.55063 0.76798 0.0
C447 C 0.42062 0.60882 0.77538 0.0
N448 N 0.38085 0.66693 0.83128 0.0
N449 N 0.34709 0.44919 0.80934 0.0
C450 C 0.38941 0.62081 0.84032 0.0
C451 C 0.3672 0.50673 0.82506 0.0
N452 N 0.35545 0.60202 0.99045 0.0
N453 N 0.44008 0.53689 0.70895 0.0
H454 H 0.31928 0.41697 0.85339 0.0
H455 H 0.35505 0.43358 0.75072 0.0
H456 H 0.46856 0.56562 0.66191 0.0
H457 H 0.43901 0.49719 0.70958 0.0
H458 H 0.37348 0.64647 1.00303 0.0
H459 H 0.33676 0.57496 0.0451 0.0
H460 H 0.35443 0.67416 0.87477 0.0
H461 H 0.39549 0.69411 0.77619 0.0
C462 C 0.7355 0.35452 0.24101 0.0
C463 C 0.78908 0.35845 0.26565 0.0
C464 C 0.84051 0.43163 0.14998 0.0
C465 C 0.78725 0.42923 0.12795 0.0
N466 N 0.68212 0.37733 0.13362 0.0
N467 N 0.89356 0.40503 0.25328 0.0
C468 C 0.73416 0.38761 0.16867 0.0
C469 C 0.84199 0.39857 0.22315 0.0
N470 N 0.68589 0.31938 0.28825 0.0
N471 N 0.88825 0.46177 0.09694 0.0
H472 H 0.89561 0.38065 0.30559 0.0
H473 H 0.93434 0.43808 0.23254 0.0
H474 H 0.88608 0.48026 0.03755 0.0
H475 H 0.92756 0.46238 0.10524 0.0
H476 H 0.64661 0.31899 0.28092 0.0
H477 H 0.6854 0.29382 0.34059 0.0
H478 H 0.64127 0.34418 0.15432 0.0
H479 H 0.67996 0.39831 0.07674 0.0
C480 C 0.34139 0.74855 0.46957 0.0
C481 C 0.35344 0.80346 0.43615 0.0
C482 C 0.44155 0.85251 0.52909 0.0
C483 C 0.42913 0.7977 0.5624 0.0
N484 N 0.36297 0.69456 0.57685 0.0
N485 N 0.42378 0.90495 0.41393 0.0
C486 C 0.37782 0.74602 0.53585 0.0
C487 C 0.4059 0.85486 0.4604 0.0
N488 N 0.29671 0.6984 0.43387 0.0
N489 N 0.4866 0.90235 0.56451 0.0
H490 H 0.40088 0.90717 0.35959 0.0
H491 H 0.46442 0.9423 0.42263 0.0
H492 H 0.51401 0.90197 0.61365 0.0
H493 H 0.49353 0.94373 0.551 0.0
H494 H 0.28988 0.65697 0.44642 0.0
H495 H 0.26869 0.6982 0.38557 0.0
H496 H 0.32282 0.65642 0.56915 0.0
H497 H 0.38912 0.69103 0.62497 0.0
C498 C 0.59427 0.44599 0.82012 0.0
C499 C 0.59874 0.44007 0.91278 0.0
C500 C 0.50213 0.35283 0.90735 0.0
C501 C 0.50723 0.3492 0.814 0.0
N502 N 0.56404 0.39409 0.68137 0.0
N503 N 0.5546 0.38404 0.04566 0.0
C504 C 0.55435 0.39671 0.76965 0.0
C505 C 0.55164 0.39298 0.95735 0.0
N506 N 0.62781 0.49876 0.78049 0.0
N507 N 0.44964 0.31929 0.94821 0.0
H508 H 0.58996 0.41158 0.08556 0.0
H509 H 0.52336 0.34634 0.07769 0.0
H510 H 0.41203 0.28992 0.91381 0.0
H511 H 0.44276 0.32512 0.01451 0.0
H512 H 0.6225 0.50616 0.71433 0.0
H513 H 0.65621 0.53611 0.81636 0.0
H514 H 0.60136 0.42622 0.64942 0.0
H515 H 0.53846 0.35784 0.64183 0.0
loop_
_geom_bond_atom_site_label_1
_geom_bond_atom_site_label_2
_geom_bond_distance
_geom_bond_site_symmetry_2
_ccdc_geom_bond_type
Zn0 O1 2.055 . S
Zn0 O8 2.046 . S
Zn0 N16 2.036 . S
Zn0 O28 2.053 . S
Zn0 O30 2.066 . S
O1 Zn0 2.055 . S
O1 C4 1.259 . S
C2 O30 1.256 . S
C2 O31 1.244 1_554 S
Zn3 O5 2.046 . S
Zn3 O7 2.055 . S
Zn3 N9 2.036 . S
Zn3 O27 2.066 . S
Zn3 O31 2.053 . S
C4 O1 1.259 . S
C4 O5 1.254 1_554 S
O5 Zn3 2.046 . S
O5 C4 1.254 1_556 S
C6 O27 1.256 . S
C6 O28 1.244 1_556 S
O7 Zn3 2.055 . S
O7 C29 1.259 . S
O8 Zn0 2.046 . S
O8 C29 1.254 1_554 S
N9 Zn3 2.036 . S
N9 C10 1.298 . S
N9 N12 1.398 . S
C10 N9 1.298 . S
C10 N13 1.367 . S
C10 C23 1.481 . S
C11 N12 1.299 . S
C11 N13 1.379 . S
N12 N9 1.398 . S
N12 C11 1.299 . S
N13 C10 1.367 . S
N13 C11 1.379 . S
C14 N16 1.298 . S
C14 N18 1.367 . S
C14 C22 1.481 . S
C15 N17 1.299 . S
C15 N18 1.379 . S
N16 Zn0 2.036 . S
N16 C14 1.298 . S
N16 N17 1.398 . S
N17 C15 1.299 . S
N17 N16 1.398 . S
N18 C14 1.367 . S
N18 C15 1.379 . S
H19 C22 0.980 . S
H20 C22 0.981 . S
H21 C22 0.981 . S
C22 C14 1.481 . S
C22 H19 0.980 . S
C22 H20 0.981 . S
C22 H21 0.981 . S
C23 C10 1.481 . S
C23 H24 0.980 . S
C23 H25 0.981 . S
C23 H26 0.981 . S
H24 C23 0.980 . S
H25 C23 0.981 . S
H26 C23 0.981 . S
O27 Zn3 2.066 . S
O27 C6 1.256 . S
O28 Zn0 2.053 . S
O28 C6 1.244 1_554 S
C29 O7 1.259 . S
C29 O8 1.254 1_556 S
O30 Zn0 2.066 . S
O30 C2 1.256 . S
O31 C2 1.244 1_556 S
O31 Zn3 2.053 . S
Zn32 O33 2.055 . S
Zn32 O40 2.046 . S
Zn32 N48 2.036 . S
Zn32 O60 2.053 . S
Zn32 O62 2.066 . S
O33 Zn32 2.055 . S
O33 C36 1.259 . S
C34 O62 1.256 . S
C34 O63 1.244 . S
Zn35 O37 2.046 . S
Zn35 O39 2.055 . S
Zn35 N41 2.036 . S
Zn35 O59 2.066 . S
Zn35 O63 2.053 . S
C36 O33 1.259 . S
C36 O37 1.254 . S
O37 Zn35 2.046 . S
O37 C36 1.254 . S
C38 O59 1.256 . S
C38 O60 1.244 . S
O39 Zn35 2.055 . S
O39 C61 1.259 . S
O40 Zn32 2.046 . S
O40 C61 1.254 . S
N41 Zn35 2.036 . S
N41 C42 1.298 . S
N41 N44 1.398 . S
C42 N41 1.298 . S
C42 N45 1.367 . S
C42 C55 1.481 . S
C43 N44 1.299 . S
C43 N45 1.379 . S
N44 N41 1.398 . S
N44 C43 1.299 . S
N45 C42 1.367 . S
N45 C43 1.379 . S
C46 N48 1.298 . S
C46 N50 1.367 1_554 S
C46 C54 1.481 . S
C47 N49 1.299 . S
C47 N50 1.379 1_554 S
N48 Zn32 2.036 . S
N48 C46 1.298 . S
N48 N49 1.398 . S
N49 C47 1.299 . S
N49 N48 1.398 . S
N50 C46 1.367 1_556 S
N50 C47 1.379 1_556 S
H51 C54 0.980 . S
H52 C54 0.981 1_556 S
H53 C54 0.981 . S
C54 C46 1.481 . S
C54 H51 0.980 . S
C54 H52 0.981 1_554 S
C54 H53 0.981 . S
C55 C42 1.481 . S
C55 H56 0.980 . S
C55 H57 0.981 . S
C55 H58 0.981 . S
H56 C55 0.980 . S
H57 C55 0.981 . S
H58 C55 0.981 . S
O59 Zn35 2.066 . S
O59 C38 1.256 . S
O60 Zn32 2.053 . S
O60 C38 1.244 . S
C61 O39 1.259 . S
C61 O40 1.254 . S
O62 Zn32 2.066 . S
O62 C34 1.256 . S
O63 C34 1.244 . S
O63 Zn35 2.053 . S
Zn64 O65 2.055 . S
Zn64 O72 2.046 . S
Zn64 N80 2.036 . S
Zn64 O92 2.053 . S
Zn64 O94 2.066 . S
O65 Zn64 2.055 . S
O65 C68 1.259 . S
C66 O94 1.256 . S
C66 O95 1.244 . S
Zn67 O69 2.046 . S
Zn67 O71 2.055 . S
Zn67 N73 2.036 . S
Zn67 O91 2.066 . S
Zn67 O95 2.053 . S
C68 O65 1.259 . S
C68 O69 1.254 . S
O69 Zn67 2.046 . S
O69 C68 1.254 . S
C70 O91 1.256 . S
C70 O92 1.244 . S
O71 Zn67 2.055 . S
O71 C93 1.259 . S
O72 Zn64 2.046 . S
O72 C93 1.254 . S
N73 Zn67 2.036 . S
N73 C74 1.298 . S
N73 N76 1.398 . S
C74 N73 1.298 . S
C74 N77 1.367 . S
C74 C87 1.481 . S
C75 N76 1.299 . S
C75 N77 1.379 . S
N76 N73 1.398 . S
N76 C75 1.299 . S
N77 C74 1.367 . S
N77 C75 1.379 . S
C78 N80 1.298 . S
C78 N82 1.367 1_556 S
C78 C86 1.481 . S
C79 N81 1.299 . S
C79 N82 1.379 1_556 S
N80 Zn64 2.036 . S
N80 C78 1.298 . S
N80 N81 1.398 . S
N81 C79 1.299 . S
N81 N80 1.398 . S
N82 C78 1.367 1_554 S
N82 C79 1.379 1_554 S
H83 C86 0.980 . S
H84 C86 0.981 1_554 S
H85 C86 0.981 . S
C86 C78 1.481 . S
C86 H83 0.980 . S
C86 H84 0.981 1_556 S
C86 H85 0.981 . S
C87 C74 1.481 . S
C87 H88 0.980 . S
C87 H89 0.981 . S
C87 H90 0.981 . S
H88 C87 0.980 . S
H89 C87 0.981 . S
H90 C87 0.981 . S
O91 Zn67 2.066 . S
O91 C70 1.256 . S
O92 Zn64 2.053 . S
O92 C70 1.244 . S
C93 O71 1.259 . S
C93 O72 1.254 . S
O94 Zn64 2.066 . S
O94 C66 1.256 . S
O95 C66 1.244 . S
O95 Zn67 2.053 . S
Zn96 O97 2.055 . S
Zn96 O104 2.046 . S
Zn96 N112 2.036 . S
Zn96 O124 2.053 . S
Zn96 O126 2.066 . S
O97 Zn96 2.055 . S
O97 C100 1.259 . S
C98 O126 1.256 . S
C98 O127 1.244 1_556 S
Zn99 O101 2.046 . S
Zn99 O103 2.055 . S
Zn99 N105 2.036 . S
Zn99 O123 2.066 . S
Zn99 O127 2.053 . S
C100 O97 1.259 . S
C100 O101 1.254 1_556 S
O101 Zn99 2.046 . S
O101 C100 1.254 1_554 S
C102 O123 1.256 . S
C102 O124 1.244 1_554 S
O103 Zn99 2.055 . S
O103 C125 1.259 . S
O104 Zn96 2.046 . S
O104 C125 1.254 1_556 S
N105 Zn99 2.036 . S
N105 C106 1.298 . S
N105 N108 1.398 . S
C106 N105 1.298 . S
C106 N109 1.367 . S
C106 C119 1.481 . S
C107 N108 1.299 . S
C107 N109 1.379 . S
N108 N105 1.398 . S
N108 C107 1.299 . S
N109 C106 1.367 . S
N109 C107 1.379 . S
C110 N112 1.298 . S
C110 N114 1.367 . S
C110 C118 1.481 . S
C111 N113 1.299 . S
C111 N114 1.379 . S
N112 Zn96 2.036 . S
N112 C110 1.298 . S
N112 N113 1.398 . S
N113 C111 1.299 . S
N113 N112 1.398 . S
N114 C110 1.367 . S
N114 C111 1.379 . S
H115 C118 0.980 . S
H116 C118 0.981 . S
H117 C118 0.981 . S
C118 C110 1.481 . S
C118 H115 0.980 . S
C118 H116 0.981 . S
C118 H117 0.981 . S
C119 C106 1.481 . S
C119 H120 0.980 . S
C119 H121 0.981 . S
C119 H122 0.981 . S
H120 C119 0.980 . S
H121 C119 0.981 . S
H122 C119 0.981 . S
O123 Zn99 2.066 . S
O123 C102 1.256 . S
O124 Zn96 2.053 . S
O124 C102 1.244 1_556 S
C125 O103 1.259 . S
C125 O104 1.254 1_554 S
O126 Zn96 2.066 . S
O126 C98 1.256 . S
O127 C98 1.244 1_554 S
O127 Zn99 2.053 . S
Zn128 O129 2.055 . S
Zn128 O136 2.046 . S
Zn128 N144 2.036 . S
Zn128 O156 2.053 . S
Zn128 O158 2.066 . S
O129 Zn128 2.055 . S
O129 C132 1.259 . S
C130 O158 1.256 . S
C130 O159 1.244 . S
Zn131 O133 2.046 . S
Zn131 O135 2.055 . S
Zn131 N137 2.036 . S
Zn131 O155 2.066 . S
Zn131 O159 2.053 . S
C132 O129 1.259 . S
C132 O133 1.254 . S
O133 Zn131 2.046 . S
O133 C132 1.254 . S
C134 O155 1.256 . S
C134 O156 1.244 . S
O135 Zn131 2.055 . S
O135 C157 1.259 . S
O136 Zn128 2.046 . S
O136 C157 1.254 . S
N137 Zn131 2.036 . S
N137 C138 1.298 . S
N137 N140 1.398 . S
C138 N137 1.298 . S
C138 N141 1.367 1_554 S
C138 C151 1.481 . S
C139 N140 1.299 . S
C139 N141 1.379 1_554 S
N140 N137 1.398 . S
N140 C139 1.299 . S
N141 C138 1.367 1_556 S
N141 C139 1.379 1_556 S
C142 N144 1.298 . S
C142 N146 1.367 . S
C142 C150 1.481 . S
C143 N145 1.299 . S
C143 N146 1.379 . S
N144 Zn128 2.036 . S
N144 C142 1.298 . S
N144 N145 1.398 . S
N145 C143 1.299 . S
N145 N144 1.398 . S
N146 C142 1.367 . S
N146 C143 1.379 . S
H147 C150 0.980 . S
H148 C150 0.981 . S
H149 C150 0.981 . S
C150 C142 1.481 . S
C150 H147 0.980 . S
C150 H148 0.981 . S
C150 H149 0.981 . S
C151 C138 1.481 . S
C151 H152 0.980 . S
C151 H153 0.981 1_554 S
C151 H154 0.981 . S
H152 C151 0.980 . S
H153 C151 0.981 1_556 S
H154 C151 0.981 . S
O155 Zn131 2.066 . S
O155 C134 1.256 . S
O156 Zn128 2.053 . S
O156 C134 1.244 . S
C157 O135 1.259 . S
C157 O136 1.254 . S
O158 Zn128 2.066 . S
O158 C130 1.256 . S
O159 C130 1.244 . S
O159 Zn131 2.053 . S
Zn160 O161 2.055 . S
Zn160 O168 2.046 . S
Zn160 N176 2.036 . S
Zn160 O188 2.053 . S
Zn160 O190 2.066 . S
O161 Zn160 2.055 . S
O161 C164 1.259 . S
C162 O190 1.256 . S
C162 O191 1.244 . S
Zn163 O165 2.046 . S
Zn163 O167 2.055 . S
Zn163 N169 2.036 . S
Zn163 O187 2.066 . S
Zn163 O191 2.053 . S
C164 O161 1.259 . S
C164 O165 1.254 . S
O165 Zn163 2.046 . S
O165 C164 1.254 . S
C166 O187 1.256 . S
C166 O188 1.244 . S
O167 Zn163 2.055 . S
O167 C189 1.259 . S
O168 Zn160 2.046 . S
O168 C189 1.254 . S
N169 Zn163 2.036 . S
N169 C170 1.298 . S
N169 N172 1.398 . S
C170 N169 1.298 . S
C170 N173 1.367 1_556 S
C170 C183 1.481 . S
C171 N172 1.299 . S
C171 N173 1.379 1_556 S
N172 N169 1.398 . S
N172 C171 1.299 . S
N173 C170 1.367 1_554 S
N173 C171 1.379 1_554 S
C174 N176 1.298 . S
C174 N178 1.367 . S
C174 C182 1.481 . S
C175 N177 1.299 . S
C175 N178 1.379 . S
N176 Zn160 2.036 . S
N176 C174 1.298 . S
N176 N177 1.398 . S
N177 C175 1.299 . S
N177 N176 1.398 . S
N178 C174 1.367 . S
N178 C175 1.379 . S
H179 C182 0.980 . S
H180 C182 0.981 . S
H181 C182 0.981 . S
C182 C174 1.481 . S
C182 H179 0.980 . S
C182 H180 0.981 . S
C182 H181 0.981 . S
C183 C170 1.481 . S
C183 H184 0.980 . S
C183 H185 0.981 1_556 S
C183 H186 0.981 . S
H184 C183 0.980 . S
H185 C183 0.981 1_554 S
H186 C183 0.981 . S
O187 Zn163 2.066 . S
O187 C166 1.256 . S
O188 Zn160 2.053 . S
O188 C166 1.244 . S
C189 O167 1.259 . S
C189 O168 1.254 . S
O190 Zn160 2.066 . S
O190 C162 1.256 . S
O191 C162 1.244 . S
O191 Zn163 2.053 . S
C192 C193 1.363 . S
C192 C198 1.379 . S
C192 N200 1.356 . S
C193 C192 1.363 . S
C193 C199 1.363 . S
C194 C195 1.363 . S
C194 C199 1.379 . S
C194 N201 1.356 . S
C195 C194 1.363 . S
C195 C198 1.363 . S
N196 C198 1.356 . S
N196 H208 0.984 . S
N196 H209 0.985 . S
N197 C199 1.356 . S
N197 H202 0.984 . S
N197 H203 0.985 . S
C198 C192 1.379 . S
C198 C195 1.363 . S
C198 N196 1.356 . S
C199 C193 1.363 . S
C199 C194 1.379 . S
C199 N197 1.356 . S
N200 C192 1.356 . S
N200 H206 0.984 . S
N200 H207 0.984 . S
N201 C194 1.356 . S
N201 H204 0.984 . S
N201 H205 0.985 . S
H202 N197 0.984 . S
H203 N197 0.985 . S
H204 N201 0.984 . S
H205 N201 0.985 . S
H206 N200 0.984 . S
H207 N200 0.984 . S
H208 N196 0.984 . S
H209 N196 0.985 . S
C210 C211 1.363 . S
C210 C216 1.379 1_455 S
C210 N218 1.356 . S
C211 C210 1.363 . S
C211 C217 1.363 . S
C212 C213 1.363 . S
C212 C217 1.379 1_655 S
C212 N219 1.356 . S
C213 C212 1.363 . S
C213 C216 1.363 . S
N214 C216 1.356 . S
N214 H226 0.984 . S
N214 H227 0.985 . S
N215 C217 1.356 . S
N215 H220 0.984 . S
N215 H221 0.985 . S
C216 C210 1.379 1_655 S
C216 C213 1.363 . S
C216 N214 1.356 . S
C217 C211 1.363 . S
C217 C212 1.379 1_455 S
C217 N215 1.356 . S
N218 C210 1.356 . S
N218 H224 0.984 1_455 S
N218 H225 0.984 . S
N219 C212 1.356 . S
N219 H222 0.984 . S
N219 H223 0.985 1_655 S
H220 N215 0.984 . S
H221 N215 0.985 . S
H222 N219 0.984 . S
H223 N219 0.985 1_455 S
H224 N218 0.984 1_655 S
H225 N218 0.984 . S
H226 N214 0.984 . S
H227 N214 0.985 . S
C228 C229 1.363 1_565 S
C228 C234 1.379 . S
C228 N236 1.356 1_565 S
C229 C228 1.363 1_545 S
C229 C235 1.363 . S
C230 C231 1.363 1_545 S
C230 C235 1.379 . S
C230 N237 1.356 1_545 S
C231 C230 1.363 1_565 S
C231 C234 1.363 . S
N232 C234 1.356 . S
N232 H244 0.984 . S
N232 H245 0.985 . S
N233 C235 1.356 . S
N233 H238 0.984 . S
N233 H239 0.985 . S
C234 C228 1.379 . S
C234 C231 1.363 . S
C234 N232 1.356 . S
C235 C229 1.363 . S
C235 C230 1.379 . S
C235 N233 1.356 . S
N236 C228 1.356 1_545 S
N236 H242 0.984 1_545 S
N236 H243 0.984 . S
N237 C230 1.356 1_565 S
N237 H240 0.984 . S
N237 H241 0.985 1_565 S
H238 N233 0.984 . S
H239 N233 0.985 . S
H240 N237 0.984 . S
H241 N237 0.985 1_545 S
H242 N236 0.984 1_565 S
H243 N236 0.984 . S
H244 N232 0.984 . S
H245 N232 0.985 . S
C246 C247 1.363 . S
C246 C252 1.379 . S
C246 N254 1.356 . S
C247 C246 1.363 . S
C247 C253 1.363 . S
C248 C249 1.363 . S
C248 C253 1.379 . S
C248 N255 1.356 . S
C249 C248 1.363 . S
C249 C252 1.363 . S
N250 C252 1.356 . S
N250 H262 0.984 . S
N250 H263 0.985 . S
N251 C253 1.356 . S
N251 H256 0.984 . S
N251 H257 0.985 . S
C252 C246 1.379 . S
C252 C249 1.363 . S
C252 N250 1.356 . S
C253 C247 1.363 . S
C253 C248 1.379 . S
C253 N251 1.356 . S
N254 C246 1.356 . S
N254 H260 0.984 . S
N254 H261 0.984 . S
N255 C248 1.356 . S
N255 H258 0.984 . S
N255 H259 0.985 . S
H256 N251 0.984 . S
H257 N251 0.985 . S
H258 N255 0.984 . S
H259 N255 0.985 . S
H260 N254 0.984 . S
H261 N254 0.984 . S
H262 N250 0.984 . S
H263 N250 0.985 . S
C264 C265 1.363 . S
C264 C270 1.379 1_455 S
C264 N272 1.356 . S
C265 C264 1.363 . S
C265 C271 1.363 . S
C266 C267 1.363 . S
C266 C271 1.379 1_655 S
C266 N273 1.356 . S
C267 C266 1.363 . S
C267 C270 1.363 . S
N268 C270 1.356 . S
N268 H280 0.984 . S
N268 H281 0.985 . S
N269 C271 1.356 . S
N269 H274 0.984 . S
N269 H275 0.985 . S
C270 C264 1.379 1_655 S
C270 C267 1.363 . S
C270 N268 1.356 . S
C271 C265 1.363 . S
C271 C266 1.379 1_455 S
C271 N269 1.356 . S
N272 C264 1.356 . S
N272 H278 0.984 . S
N272 H279 0.984 . S
N273 C266 1.356 . S
N273 H276 0.984 . S
N273 H277 0.985 . S
H274 N269 0.984 . S
H275 N269 0.985 . S
H276 N273 0.984 . S
H277 N273 0.985 . S
H278 N272 0.984 . S
H279 N272 0.984 . S
H280 N268 0.984 . S
H281 N268 0.985 . S
C282 C283 1.363 . S
C282 C288 1.379 . S
C282 N290 1.356 . S
C283 C282 1.363 . S
C283 C289 1.363 1_545 S
C284 C285 1.363 . S
C284 C289 1.379 . S
C284 N291 1.356 . S
C285 C284 1.363 . S
C285 C288 1.363 1_565 S
N286 C288 1.356 1_565 S
N286 H298 0.984 1_565 S
N286 H299 0.985 . S
N287 C289 1.356 1_545 S
N287 H292 0.984 . S
N287 H293 0.985 1_545 S
C288 C282 1.379 . S
C288 C285 1.363 1_545 S
C288 N286 1.356 1_545 S
C289 C283 1.363 1_565 S
C289 C284 1.379 . S
C289 N287 1.356 1_565 S
N290 C282 1.356 . S
N290 H296 0.984 . S
N290 H297 0.984 . S
N291 C284 1.356 . S
N291 H294 0.984 . S
N291 H295 0.985 . S
H292 N287 0.984 . S
H293 N287 0.985 1_565 S
H294 N291 0.984 . S
H295 N291 0.985 . S
H296 N290 0.984 . S
H297 N290 0.984 . S
H298 N286 0.984 1_545 S
H299 N286 0.985 . S
C300 C301 1.363 . S
C300 C306 1.379 . S
C300 N308 1.356 . S
C301 C300 1.363 . S
C301 C307 1.363 . S
C302 C303 1.363 . S
C302 C307 1.379 . S
C302 N309 1.356 . S
C303 C302 1.363 . S
C303 C306 1.363 . S
N304 C306 1.356 . S
N304 H316 0.984 . S
N304 H317 0.985 . S
N305 C307 1.356 . S
N305 H310 0.984 . S
N305 H311 0.985 . S
C306 C300 1.379 . S
C306 C303 1.363 . S
C306 N304 1.356 . S
C307 C301 1.363 . S
C307 C302 1.379 . S
C307 N305 1.356 . S
N308 C300 1.356 . S
N308 H314 0.984 . S
N308 H315 0.984 . S
N309 C302 1.356 . S
N309 H312 0.984 . S
N309 H313 0.985 . S
H310 N305 0.984 . S
H311 N305 0.985 . S
H312 N309 0.984 . S
H313 N309 0.985 . S
H314 N308 0.984 . S
H315 N308 0.984 . S
H316 N304 0.984 . S
H317 N304 0.985 . S
C318 C319 1.363 . S
C318 C324 1.379 . S
C318 N326 1.356 . S
C319 C318 1.363 . S
C319 C325 1.363 . S
C320 C321 1.363 . S
C320 C325 1.379 . S
C320 N327 1.356 . S
C321 C320 1.363 . S
C321 C324 1.363 . S
N322 C324 1.356 . S
N322 H334 0.984 . S
N322 H335 0.985 . S
N323 C325 1.356 . S
N323 H328 0.984 1_556 S
N323 H329 0.985 . S
C324 C318 1.379 . S
C324 C321 1.363 . S
C324 N322 1.356 . S
C325 C319 1.363 . S
C325 C320 1.379 . S
C325 N323 1.356 . S
N326 C318 1.356 . S
N326 H332 0.984 . S
N326 H333 0.984 . S
N327 C320 1.356 . S
N327 H330 0.984 . S
N327 H331 0.985 . S
H328 N323 0.984 1_554 S
H329 N323 0.985 . S
H330 N327 0.984 . S
H331 N327 0.985 . S
H332 N326 0.984 . S
H333 N326 0.984 . S
H334 N322 0.984 . S
H335 N322 0.985 . S
C336 C337 1.363 . S
C336 C342 1.379 . S
C336 N344 1.356 . S
C337 C336 1.363 . S
C337 C343 1.363 . S
C338 C339 1.363 . S
C338 C343 1.379 . S
C338 N345 1.356 . S
C339 C338 1.363 . S
C339 C342 1.363 . S
N340 C342 1.356 . S
N340 H352 0.984 1_554 S
N340 H353 0.985 1_554 S
N341 C343 1.356 . S
N341 H346 0.984 . S
N341 H347 0.985 . S
C342 C336 1.379 . S
C342 C339 1.363 . S
C342 N340 1.356 . S
C343 C337 1.363 . S
C343 C338 1.379 . S
C343 N341 1.356 . S
N344 C336 1.356 . S
N344 H350 0.984 . S
N344 H351 0.984 . S
N345 C338 1.356 . S
N345 H348 0.984 . S
N345 H349 0.985 . S
H346 N341 0.984 . S
H347 N341 0.985 . S
H348 N345 0.984 . S
H349 N345 0.985 . S
H350 N344 0.984 . S
H351 N344 0.984 . S
H352 N340 0.984 1_556 S
H353 N340 0.985 1_556 S
C354 C355 1.363 . S
C354 C360 1.379 . S
C354 N362 1.356 . S
C355 C354 1.363 . S
C355 C361 1.363 . S
C356 C357 1.363 . S
C356 C361 1.379 . S
C356 N363 1.356 . S
C357 C356 1.363 . S
C357 C360 1.363 . S
N358 C360 1.356 . S
N358 H370 0.984 . S
N358 H371 0.985 . S
N359 C361 1.356 . S
N359 H364 0.984 . S
N359 H365 0.985 . S
C360 C354 1.379 . S
C360 C357 1.363 . S
C360 N358 1.356 . S
C361 C355 1.363 . S
C361 C356 1.379 . S
C361 N359 1.356 . S
N362 C354 1.356 . S
N362 H368 0.984 . S
N362 H369 0.984 . S
N363 C356 1.356 . S
N363 H366 0.984 . S
N363 H367 0.985 . S
H364 N359 0.984 . S
H365 N359 0.985 . S
H366 N363 0.984 . S
H367 N363 0.985 . S
H368 N362 0.984 . S
H369 N362 0.984 . S
H370 N358 0.984 . S
H371 N358 0.985 . S
C372 C373 1.363 . S
C372 C378 1.379 . S
C372 N380 1.356 . S
C373 C372 1.363 . S
C373 C379 1.363 . S
C374 C375 1.363 . S
C374 C379 1.379 . S
C374 N381 1.356 . S
C375 C374 1.363 . S
C375 C378 1.363 . S
N376 C378 1.356 1_554 S
N376 H388 0.984 . S
N376 H389 0.985 . S
N377 C379 1.356 . S
N377 H382 0.984 . S
N377 H383 0.985 . S
C378 C372 1.379 . S
C378 C375 1.363 . S
C378 N376 1.356 1_556 S
C379 C373 1.363 . S
C379 C374 1.379 . S
C379 N377 1.356 . S
N380 C372 1.356 . S
N380 H386 0.984 . S
N380 H387 0.984 . S
N381 C374 1.356 . S
N381 H384 0.984 . S
N381 H385 0.985 . S
H382 N377 0.984 . S
H383 N377 0.985 . S
H384 N381 0.984 . S
H385 N381 0.985 . S
H386 N380 0.984 . S
H387 N380 0.984 . S
H388 N376 0.984 . S
H389 N376 0.985 . S
C390 C391 1.363 . S
C390 C396 1.379 . S
C390 N398 1.356 . S
C391 C390 1.363 . S
C391 C397 1.363 . S
C392 C393 1.363 . S
C392 C397 1.379 . S
C392 N399 1.356 . S
C393 C392 1.363 . S
C393 C396 1.363 . S
N394 C396 1.356 1_556 S
N394 H406 0.984 . S
N394 H407 0.985 . S
N395 C397 1.356 . S
N395 H400 0.984 . S
N395 H401 0.985 . S
C396 C390 1.379 . S
C396 C393 1.363 . S
C396 N394 1.356 1_554 S
C397 C391 1.363 . S
C397 C392 1.379 . S
C397 N395 1.356 . S
N398 C390 1.356 . S
N398 H404 0.984 . S
N398 H405 0.984 . S
N399 C392 1.356 . S
N399 H402 0.984 . S
N399 H403 0.985 . S
H400 N395 0.984 . S
H401 N395 0.985 . S
H402 N399 0.984 . S
H403 N399 0.985 . S
H404 N398 0.984 . S
H405 N398 0.984 . S
H406 N394 0.984 . S
H407 N394 0.985 . S
C408 C409 1.363 . S
C408 C414 1.379 . S
C408 N416 1.356 . S
C409 C408 1.363 . S
C409 C415 1.363 . S
C410 C411 1.363 . S
C410 C415 1.379 . S
C410 N417 1.356 . S
C411 C410 1.363 . S
C411 C414 1.363 . S
N412 C414 1.356 . S
N412 H424 0.984 . S
N412 H425 0.985 . S
N413 C415 1.356 . S
N413 H418 0.984 1_554 S
N413 H419 0.985 1_554 S
C414 C408 1.379 . S
C414 C411 1.363 . S
C414 N412 1.356 . S
C415 C409 1.363 . S
C415 C410 1.379 . S
C415 N413 1.356 . S
N416 C408 1.356 . S
N416 H422 0.984 . S
N416 H423 0.984 . S
N417 C410 1.356 . S
N417 H420 0.984 . S
N417 H421 0.985 . S
H418 N413 0.984 1_556 S
H419 N413 0.985 1_556 S
H420 N417 0.984 . S
H421 N417 0.985 . S
H422 N416 0.984 . S
H423 N416 0.984 . S
H424 N412 0.984 . S
H425 N412 0.985 . S
C426 C427 1.363 . S
C426 C432 1.379 . S
C426 N434 1.356 . S
C427 C426 1.363 . S
C427 C433 1.363 . S
C428 C429 1.363 . S
C428 C433 1.379 . S
C428 N435 1.356 . S
C429 C428 1.363 . S
C429 C432 1.363 . S
N430 C432 1.356 . S
N430 H442 0.984 . S
N430 H443 0.985 . S
N431 C433 1.356 . S
N431 H436 0.984 . S
N431 H437 0.985 . S
C432 C426 1.379 . S
C432 C429 1.363 . S
C432 N430 1.356 . S
C433 C427 1.363 . S
C433 C428 1.379 . S
C433 N431 1.356 . S
N434 C426 1.356 . S
N434 H440 0.984 . S
N434 H441 0.984 . S
N435 C428 1.356 . S
N435 H438 0.984 . S
N435 H439 0.985 . S
H436 N431 0.984 . S
H437 N431 0.985 . S
H438 N435 0.984 . S
H439 N435 0.985 . S
H440 N434 0.984 . S
H441 N434 0.984 . S
H442 N430 0.984 . S
H443 N430 0.985 . S
C444 C445 1.363 . S
C444 C450 1.379 . S
C444 N452 1.356 . S
C445 C444 1.363 . S
C445 C451 1.363 . S
C446 C447 1.363 . S
C446 C451 1.379 . S
C446 N453 1.356 . S
C447 C446 1.363 . S
C447 C450 1.363 . S
N448 C450 1.356 . S
N448 H460 0.984 . S
N448 H461 0.985 . S
N449 C451 1.356 . S
N449 H454 0.984 . S
N449 H455 0.985 . S
C450 C444 1.379 . S
C450 C447 1.363 . S
C450 N448 1.356 . S
C451 C445 1.363 . S
C451 C446 1.379 . S
C451 N449 1.356 . S
N452 C444 1.356 . S
N452 H458 0.984 . S
N452 H459 0.984 . S
N453 C446 1.356 . S
N453 H456 0.984 . S
N453 H457 0.985 . S
H454 N449 0.984 . S
H455 N449 0.985 . S
H456 N453 0.984 . S
H457 N453 0.985 . S
H458 N452 0.984 . S
H459 N452 0.984 . S
H460 N448 0.984 . S
H461 N448 0.985 . S
C462 C463 1.363 . S
C462 C468 1.379 . S
C462 N470 1.356 . S
C463 C462 1.363 . S
C463 C469 1.363 . S
C464 C465 1.363 . S
C464 C469 1.379 . S
C464 N471 1.356 . S
C465 C464 1.363 . S
C465 C468 1.363 . S
N466 C468 1.356 . S
N466 H478 0.984 . S
N466 H479 0.985 . S
N467 C469 1.356 . S
N467 H472 0.984 . S
N467 H473 0.985 . S
C468 C462 1.379 . S
C468 C465 1.363 . S
C468 N466 1.356 . S
C469 C463 1.363 . S
C469 C464 1.379 . S
C469 N467 1.356 . S
N470 C462 1.356 . S
N470 H476 0.984 . S
N470 H477 0.984 . S
N471 C464 1.356 . S
N471 H474 0.984 . S
N471 H475 0.985 . S
H472 N467 0.984 . S
H473 N467 0.985 . S
H474 N471 0.984 . S
H475 N471 0.985 . S
H476 N470 0.984 . S
H477 N470 0.984 . S
H478 N466 0.984 . S
H479 N466 0.985 . S
C480 C481 1.363 . S
C480 C486 1.379 . S
C480 N488 1.356 . S
C481 C480 1.363 . S
C481 C487 1.363 . S
C482 C483 1.363 . S
C482 C487 1.379 . S
C482 N489 1.356 . S
C483 C482 1.363 . S
C483 C486 1.363 . S
N484 C486 1.356 . S
N484 H496 0.984 . S
N484 H497 0.985 . S
N485 C487 1.356 . S
N485 H490 0.984 . S
N485 H491 0.985 . S
C486 C480 1.379 . S
C486 C483 1.363 . S
C486 N484 1.356 . S
C487 C481 1.363 . S
C487 C482 1.379 . S
C487 N485 1.356 . S
N488 C480 1.356 . S
N488 H494 0.984 . S
N488 H495 0.984 . S
N489 C482 1.356 . S
N489 H492 0.984 . S
N489 H493 0.985 . S
H490 N485 0.984 . S
H491 N485 0.985 . S
H492 N489 0.984 . S
H493 N489 0.985 . S
H494 N488 0.984 . S
H495 N488 0.984 . S
H496 N484 0.984 . S
H497 N484 0.985 . S
C498 C499 1.363 . S
C498 C504 1.379 . S
C498 N506 1.356 . S
C499 C498 1.363 . S
C499 C505 1.363 . S
C500 C501 1.363 . S
C500 C505 1.379 . S
C500 N507 1.356 . S
C501 C500 1.363 . S
C501 C504 1.363 . S
N502 C504 1.356 . S
N502 H514 0.984 . S
N502 H515 0.985 . S
N503 C505 1.356 1_554 S
N503 H508 0.984 . S
N503 H509 0.985 . S
C504 C498 1.379 . S
C504 C501 1.363 . S
C504 N502 1.356 . S
C505 C499 1.363 . S
C505 C500 1.379 . S
C505 N503 1.356 1_556 S
N506 C498 1.356 . S
N506 H512 0.984 . S
N506 H513 0.984 . S
N507 C500 1.356 . S
N507 H510 0.984 . S
N507 H511 0.985 . S
H508 N503 0.984 . S
H509 N503 0.985 . S
H510 N507 0.984 . S
H511 N507 0.985 . S
H512 N506 0.984 . S
H513 N506 0.984 . S
H514 N502 0.984 . S
H515 N502 0.985 . S
C193 C166 1.509 . S
C195 C6 1.509 . S
C211 C2 1.509 . S
C213 C34 1.509 . S
C229 C38 1.509 . S
C231 C70 1.509 . S
C247 C66 1.509 . S
C249 C98 1.509 . S
C265 C134 1.509 . S
C267 C102 1.509 . S
C283 C162 1.509 . S
C285 C130 1.509 . S
C301 N13 1.625 . S
C303 N18 1.625 . S
C319 N50 1.625 . S
C321 N45 1.625 . S
C337 N77 1.625 . S
C339 N82 1.625 . S
C355 N114 1.625 . S
C357 N109 1.625 . S
C373 N146 1.625 . S
C375 N141 1.625 . S
C391 N178 1.625 . S
C393 N173 1.625 . S
C409 C4 1.625 . S
C411 C157 1.625 . S
C427 C61 1.625 . S
C429 C164 1.625 . S
C445 C29 1.625 . S
C447 C68 1.625 . S
C463 C36 1.625 . S
C465 C125 1.625 . S
C481 C132 1.625 . S
C483 C93 1.625 . S
C499 C100 1.625 . S
C501 C189 1.625 . S
