# Generated by pormake.
# Topology cag, (4)-cn, num edge types: 1
# Building blocks:
#     Node 0, Type 0, BuildingBlock: UXUYUI_clean_sbu_0, # of connection points: 4
#     Node 1, Type 0, BuildingBlock: UXUYUI_clean_sbu_0, # of connection points: 4
#     Node 2, Type 0, BuildingBlock: UXUYUI_clean_sbu_0, # of connection points: 4
#     Node 3, Type 0, BuildingBlock: UXUYUI_clean_sbu_0, # of connection points: 4
#     Node 4, Type 0, BuildingBlock: UXUYUI_clean_sbu_0, # of connection points: 4
#     Node 5, Type 0, BuildingBlock: UXUYUI_clean_sbu_0, # of connection points: 4
#     Node 6, Type 0, BuildingBlock: UXUYUI_clean_sbu_0, # of connection points: 4
#     Node 7, Type 0, BuildingBlock: UXUYUI_clean_sbu_0, # of connection points: 4
#     Node 8, Type 0, BuildingBlock: UXUYUI_clean_sbu_0, # of connection points: 4
#     Node 9, Type 0, BuildingBlock: UXUYUI_clean_sbu_0, # of connection points: 4
#     Node 10, Type 0, BuildingBlock: UXUYUI_clean_sbu_0, # of connection points: 4
#     Node 11, Type 0, BuildingBlock: UXUYUI_clean_sbu_0, # of connection points: 4
#     Node 12, Type 0, BuildingBlock: UXUYUI_clean_sbu_0, # of connection points: 4
#     Node 13, Type 0, BuildingBlock: UXUYUI_clean_sbu_0, # of connection points: 4
#     Node 14, Type 0, BuildingBlock: UXUYUI_clean_sbu_0, # of connection points: 4
#     Node 15, Type 0, BuildingBlock: UXUYUI_clean_sbu_0, # of connection points: 4
#     Edge 16, Type (0, 0), BuildingBlock: UVAHIK_clean_linker_0, # of connection points: 2
#     Edge 17, Type (0, 0), BuildingBlock: UVAHIK_clean_linker_0, # of connection points: 2
#     Edge 18, Type (0, 0), BuildingBlock: UVAHIK_clean_linker_0, # of connection points: 2
#     Edge 19, Type (0, 0), BuildingBlock: UVAHIK_clean_linker_0, # of connection points: 2
#     Edge 20, Type (0, 0), BuildingBlock: UVAHIK_clean_linker_0, # of connection points: 2
#     Edge 21, Type (0, 0), BuildingBlock: UVAHIK_clean_linker_0, # of connection points: 2
#     Edge 22, Type (0, 0), BuildingBlock: UVAHIK_clean_linker_0, # of connection points: 2
#     Edge 23, Type (0, 0), BuildingBlock: UVAHIK_clean_linker_0, # of connection points: 2
#     Edge 24, Type (0, 0), BuildingBlock: UVAHIK_clean_linker_0, # of connection points: 2
#     Edge 25, Type (0, 0), BuildingBlock: UVAHIK_clean_linker_0, # of connection points: 2
#     Edge 26, Type (0, 0), BuildingBlock: UVAHIK_clean_linker_0, # of connection points: 2
#     Edge 27, Type (0, 0), BuildingBlock: UVAHIK_clean_linker_0, # of connection points: 2
#     Edge 28, Type (0, 0), BuildingBlock: UVAHIK_clean_linker_0, # of connection points: 2
#     Edge 29, Type (0, 0), BuildingBlock: UVAHIK_clean_linker_0, # of connection points: 2
#     Edge 30, Type (0, 0), BuildingBlock: UVAHIK_clean_linker_0, # of connection points: 2
#     Edge 31, Type (0, 0), BuildingBlock: UVAHIK_clean_linker_0, # of connection points: 2
#     Edge 32, Type (0, 0), BuildingBlock: UVAHIK_clean_linker_0, # of connection points: 2
#     Edge 33, Type (0, 0), BuildingBlock: UVAHIK_clean_linker_0, # of connection points: 2
#     Edge 34, Type (0, 0), BuildingBlock: UVAHIK_clean_linker_0, # of connection points: 2
#     Edge 35, Type (0, 0), BuildingBlock: UVAHIK_clean_linker_0, # of connection points: 2
#     Edge 36, Type (0, 0), BuildingBlock: UVAHIK_clean_linker_0, # of connection points: 2
#     Edge 37, Type (0, 0), BuildingBlock: UVAHIK_clean_linker_0, # of connection points: 2
#     Edge 38, Type (0, 0), BuildingBlock: UVAHIK_clean_linker_0, # of connection points: 2
#     Edge 39, Type (0, 0), BuildingBlock: UVAHIK_clean_linker_0, # of connection points: 2
#     Edge 40, Type (0, 0), BuildingBlock: UVAHIK_clean_linker_0, # of connection points: 2
#     Edge 41, Type (0, 0), BuildingBlock: UVAHIK_clean_linker_0, # of connection points: 2
#     Edge 42, Type (0, 0), BuildingBlock: UVAHIK_clean_linker_0, # of connection points: 2
#     Edge 43, Type (0, 0), BuildingBlock: UVAHIK_clean_linker_0, # of connection points: 2
#     Edge 44, Type (0, 0), BuildingBlock: UVAHIK_clean_linker_0, # of connection points: 2
#     Edge 45, Type (0, 0), BuildingBlock: UVAHIK_clean_linker_0, # of connection points: 2
#     Edge 46, Type (0, 0), BuildingBlock: UVAHIK_clean_linker_0, # of connection points: 2
#     Edge 47, Type (0, 0), BuildingBlock: UVAHIK_clean_linker_0, # of connection points: 2
# Relax obj value: 0.065
# Max RMSD: 0.090
# Mean RMSD: 0.089
data_MOF--net-cag--node1-UXUYUI_clean_sbu_0--edge1-UVAHIK_clean_linker_0
_symmetry_space_group_name_H-M    P1
_symmetry_Int_Tables_number       1
_symmetry_cell_setting            triclinic
loop_
_symmetry_equiv_pos_as_xyz
'x, y, z'
_cell_length_a     73.626587
_cell_length_b     87.347475
_cell_length_c     76.782194
_cell_angle_alpha  90.000653
_cell_angle_beta   90.001522
_cell_angle_gamma 90.000108
loop_
_atom_site_label
_atom_site_type_symbol
_atom_site_fract_x
_atom_site_fract_y
_atom_site_fract_z
_atom_type_partial_charge
Li0 Li 0.30941 0.14378 0.07676 0.0
Li1 Li 0.33799 0.13171 0.08899 0.0
Li2 Li 0.31343 0.11672 0.07886 0.0
Li3 Li 0.30949 0.12962 0.10598 0.0
C4 C 0.33141 0.12286 0.05047 0.0
N5 N 0.33705 0.10462 0.02157 0.0
C6 C 0.34594 0.11257 0.05009 0.0
C7 C 0.31979 0.12393 0.03612 0.0
C8 C 0.34854 0.10343 0.03537 0.0
C9 C 0.32288 0.11461 0.02163 0.0
C10 C 0.32965 0.16231 0.1038 0.0
C11 C 0.33947 0.18001 0.12601 0.0
N12 N 0.34331 0.19053 0.11348 0.0
C13 C 0.33359 0.17335 0.09116 0.0
C14 C 0.3325 0.1657 0.12139 0.0
C15 C 0.34054 0.18752 0.09631 0.0
C16 C 0.28651 0.16937 0.07224 0.0
N17 N 0.29969 0.16078 0.0646 0.0
C18 C 0.29947 0.17681 0.03941 0.0
C19 C 0.30635 0.16432 0.04859 0.0
C20 C 0.28582 0.18589 0.04692 0.0
C21 C 0.2794 0.18212 0.0636 0.0
H22 H 0.2816 0.16632 0.08506 0.0
H23 H 0.31717 0.15753 0.04304 0.0
C24 C 0.3737 0.12042 0.09228 0.0
N25 N 0.36391 0.13352 0.09042 0.0
C26 C 0.39262 0.12093 0.09325 0.0
C27 C 0.39117 0.14842 0.09006 0.0
C28 C 0.37226 0.14735 0.08915 0.0
C29 C 0.40161 0.13508 0.09217 0.0
H30 H 0.36682 0.10949 0.09282 0.0
H31 H 0.36434 0.15758 0.08727 0.0
C32 C 0.27718 0.11972 0.08396 0.0
N33 N 0.24751 0.10096 0.07871 0.0
C34 C 0.27521 0.10633 0.09372 0.0
C35 C 0.26402 0.12367 0.07164 0.0
C36 C 0.26013 0.09696 0.09083 0.0
C37 C 0.24913 0.114 0.06915 0.0
C38 C 0.33692 0.10997 0.11543 0.0
C39 C 0.33934 0.0948 0.12072 0.0
C40 C 0.34408 0.12182 0.12554 0.0
C41 C 0.34891 0.09174 0.13604 0.0
C42 C 0.35358 0.11831 0.14077 0.0
N43 N 0.35578 0.10346 0.14566 0.0
C44 C 0.31838 0.08558 0.07128 0.0
C45 C 0.29565 0.09719 0.05388 0.0
C46 C 0.31616 0.07171 0.06253 0.0
N47 N 0.30821 0.09796 0.06685 0.0
C48 C 0.29296 0.08353 0.04478 0.0
C49 C 0.30335 0.07056 0.04902 0.0
H50 H 0.32855 0.08659 0.08136 0.0
H51 H 0.288 0.10726 0.05031 0.0
C52 C 0.29282 0.14301 0.13538 0.0
N53 N 0.29908 0.12962 0.12865 0.0
C54 C 0.28551 0.14341 0.15217 0.0
C55 C 0.29101 0.11621 0.15464 0.0
C56 C 0.29811 0.11632 0.13779 0.0
C57 C 0.28467 0.1299 0.16208 0.0
H58 H 0.29362 0.15339 0.12774 0.0
H59 H 0.30285 0.10578 0.13202 0.0
O60 O 0.32841 0.13164 0.06495 0.0
O61 O 0.32248 0.14847 0.09904 0.0
O62 O 0.29191 0.12897 0.08647 0.0
O63 O 0.32737 0.11308 0.10052 0.0
H64 H 0.35498 0.11153 0.06111 0.0
H65 H 0.30829 0.13163 0.03629 0.0
H66 H 0.35967 0.09535 0.03494 0.0
H67 H 0.31392 0.11523 0.01049 0.0
H68 H 0.34178 0.18277 0.13957 0.0
H69 H 0.33161 0.17091 0.07749 0.0
H70 H 0.32933 0.1574 0.13139 0.0
H71 H 0.34376 0.19612 0.08665 0.0
H72 H 0.30496 0.17951 0.02669 0.0
H73 H 0.26884 0.18883 0.06979 0.0
H74 H 0.40011 0.11033 0.0945 0.0
H75 H 0.39751 0.15958 0.08924 0.0
H76 H 0.28534 0.10311 0.10325 0.0
H77 H 0.26539 0.13403 0.06401 0.0
H78 H 0.25847 0.0865 0.0982 0.0
H79 H 0.23886 0.11686 0.05961 0.0
H80 H 0.33378 0.08547 0.11313 0.0
H81 H 0.34245 0.1336 0.12164 0.0
H82 H 0.35086 0.08005 0.1403 0.0
H83 H 0.35922 0.12738 0.14868 0.0
H84 H 0.32472 0.06211 0.06601 0.0
H85 H 0.28288 0.08315 0.03452 0.0
H86 H 0.28086 0.15422 0.15745 0.0
H87 H 0.29033 0.1055 0.16171 0.0
Li88 Li 0.18418 0.88388 0.57841 0.0
Li89 Li 0.18816 0.87014 0.60608 0.0
Li90 Li 0.18673 0.85588 0.57818 0.0
Li91 Li 0.15983 0.86793 0.59003 0.0
C92 C 0.22238 0.87572 0.58408 0.0
N93 N 0.25803 0.88513 0.58048 0.0
C94 C 0.23017 0.88549 0.59641 0.0
C95 C 0.23283 0.87055 0.57005 0.0
C96 C 0.24818 0.89017 0.59432 0.0
C97 C 0.25079 0.87549 0.56842 0.0
C98 C 0.16044 0.89132 0.61442 0.0
C99 C 0.14606 0.8859 0.64196 0.0
N100 N 0.13978 0.90053 0.64256 0.0
C101 C 0.15383 0.90629 0.61529 0.0
C102 C 0.15653 0.88102 0.62784 0.0
C103 C 0.14341 0.91073 0.62964 0.0
C104 C 0.17567 0.90692 0.55449 0.0
N105 N 0.18862 0.90255 0.56609 0.0
C106 C 0.20579 0.92521 0.56019 0.0
C107 C 0.20344 0.91142 0.56916 0.0
C108 C 0.1927 0.92995 0.54799 0.0
C109 C 0.17753 0.92051 0.54514 0.0
H110 H 0.16377 0.89986 0.55256 0.0
H111 H 0.21329 0.90801 0.57878 0.0
C112 C 0.2053 0.85741 0.63543 0.0
N113 N 0.19929 0.87076 0.62843 0.0
C114 C 0.21302 0.85723 0.65205 0.0
C115 C 0.20833 0.88458 0.65385 0.0
C116 C 0.20075 0.88422 0.63719 0.0
C117 C 0.21452 0.87094 0.66155 0.0
H118 H 0.20402 0.84688 0.62811 0.0
H119 H 0.19588 0.89469 0.63127 0.0
C120 C 0.17159 0.86868 0.54811 0.0
N121 N 0.17751 0.86815 0.51259 0.0
C122 C 0.15732 0.86535 0.53673 0.0
C123 C 0.18885 0.87178 0.54144 0.0
C124 C 0.16059 0.86512 0.51881 0.0
C125 C 0.19158 0.87146 0.52344 0.0
C126 C 0.16546 0.83735 0.59918 0.0
C127 C 0.15488 0.83424 0.58448 0.0
C128 C 0.16706 0.82634 0.61229 0.0
C129 C 0.14609 0.82012 0.58314 0.0
C130 C 0.15804 0.81235 0.61046 0.0
N131 N 0.14784 0.80956 0.59604 0.0
C132 C 0.21208 0.83238 0.57178 0.0
C133 C 0.18717 0.83256 0.55222 0.0
C134 C 0.21968 0.81981 0.5632 0.0
N135 N 0.19621 0.83856 0.56609 0.0
C136 C 0.19438 0.82014 0.54314 0.0
C137 C 0.21086 0.81365 0.54856 0.0
H138 H 0.21889 0.83731 0.58294 0.0
H139 H 0.17433 0.83734 0.54821 0.0
C140 C 0.12419 0.87255 0.57871 0.0
N141 N 0.13414 0.86651 0.59192 0.0
C142 C 0.10527 0.8717 0.57904 0.0
C143 C 0.10717 0.85868 0.60678 0.0
C144 C 0.12608 0.85961 0.6058 0.0
C145 C 0.09654 0.86471 0.59322 0.0
H146 H 0.13099 0.87803 0.56789 0.0
H147 H 0.13433 0.85475 0.61605 0.0
O148 O 0.20486 0.87078 0.58606 0.0
O149 O 0.17058 0.88681 0.60041 0.0
O150 O 0.16858 0.8688 0.5657 0.0
O151 O 0.17424 0.85107 0.60085 0.0
H152 H 0.22232 0.88959 0.60735 0.0
H153 H 0.22717 0.86275 0.56055 0.0
H154 H 0.25432 0.89783 0.6037 0.0
H155 H 0.259 0.87162 0.55759 0.0
H156 H 0.14293 0.87805 0.65244 0.0
H157 H 0.15672 0.91438 0.60498 0.0
H158 H 0.16148 0.86937 0.62737 0.0
H159 H 0.1382 0.92229 0.63049 0.0
H160 H 0.21752 0.93224 0.5631 0.0
H161 H 0.16717 0.92355 0.53576 0.0
H162 H 0.21785 0.84648 0.65734 0.0
H163 H 0.209 0.89538 0.66074 0.0
H164 H 0.14388 0.86286 0.5417 0.0
H165 H 0.19997 0.87452 0.55004 0.0
H166 H 0.14968 0.86252 0.50984 0.0
H167 H 0.20487 0.87386 0.5181 0.0
H168 H 0.1534 0.84262 0.57423 0.0
H169 H 0.17517 0.82859 0.62377 0.0
H170 H 0.13786 0.81756 0.57183 0.0
H171 H 0.15916 0.80372 0.62051 0.0
H172 H 0.23245 0.81512 0.56775 0.0
H173 H 0.18702 0.81553 0.5321 0.0
H174 H 0.09754 0.87661 0.56842 0.0
H175 H 0.10092 0.85308 0.61785 0.0
Li176 Li 0.31102 0.87059 0.89276 0.0
Li177 Li 0.31397 0.88432 0.92044 0.0
Li178 Li 0.33931 0.86765 0.90887 0.0
Li179 Li 0.31155 0.85611 0.92129 0.0
C180 C 0.33066 0.89587 0.88471 0.0
N181 N 0.33395 0.91408 0.85546 0.0
C182 C 0.32229 0.91021 0.88416 0.0
C183 C 0.34093 0.89088 0.8705 0.0
C184 C 0.32406 0.91923 0.86923 0.0
C185 C 0.34237 0.90022 0.8558 0.0
C186 C 0.2774 0.87673 0.9189 0.0
C187 C 0.25603 0.87949 0.94249 0.0
N188 N 0.24507 0.88795 0.93197 0.0
C189 C 0.26582 0.88528 0.90825 0.0
C190 C 0.27239 0.87365 0.93609 0.0
C191 C 0.24957 0.89092 0.91513 0.0
C192 C 0.30127 0.85821 0.86019 0.0
N193 N 0.30064 0.87116 0.86999 0.0
C194 C 0.28563 0.88463 0.84702 0.0
C195 C 0.29282 0.88419 0.86384 0.0
C196 C 0.28626 0.87147 0.83652 0.0
C197 C 0.29414 0.85811 0.84335 0.0
H198 H 0.30732 0.84793 0.86546 0.0
H199 H 0.29212 0.89424 0.87201 0.0
C200 C 0.32051 0.90613 0.94638 0.0
N201 N 0.30919 0.9028 0.93293 0.0
C202 C 0.31807 0.91944 0.95612 0.0
C203 C 0.29272 0.92606 0.93759 0.0
C204 C 0.29559 0.91251 0.92827 0.0
C205 C 0.304 0.9296 0.9518 0.0
H206 H 0.33162 0.89852 0.94946 0.0
H207 H 0.28714 0.9099 0.91718 0.0
C208 C 0.33513 0.84022 0.89232 0.0
N209 N 0.35831 0.81815 0.87929 0.0
C210 C 0.33718 0.82627 0.90101 0.0
C211 C 0.34467 0.84287 0.87688 0.0
C212 C 0.34902 0.81527 0.89424 0.0
C213 C 0.35639 0.83159 0.87054 0.0
C214 C 0.33269 0.86597 0.95 0.0
C215 C 0.3491 0.85933 0.95516 0.0
C216 C 0.3194 0.86919 0.96247 0.0
C217 C 0.35181 0.85577 0.97271 0.0
C218 C 0.32263 0.86546 0.97988 0.0
N219 N 0.33862 0.85887 0.9846 0.0
C220 C 0.37453 0.8788 0.90322 0.0
C221 C 0.37369 0.85263 0.91133 0.0
C222 C 0.39347 0.87853 0.90276 0.0
N223 N 0.36506 0.86596 0.90742 0.0
C224 C 0.39263 0.85179 0.91083 0.0
C225 C 0.40274 0.86491 0.90663 0.0
H226 H 0.36736 0.88932 0.90047 0.0
H227 H 0.36593 0.84272 0.91524 0.0
C228 C 0.28473 0.83454 0.93066 0.0
N229 N 0.30208 0.83903 0.93384 0.0
C230 C 0.27729 0.82208 0.93959 0.0
C231 C 0.30574 0.81911 0.95489 0.0
C232 C 0.31269 0.83145 0.94547 0.0
C233 C 0.28779 0.81421 0.95202 0.0
H234 H 0.27668 0.8406 0.9211 0.0
H235 H 0.32661 0.83487 0.94739 0.0
O236 O 0.32897 0.88683 0.89917 0.0
O237 O 0.29338 0.87115 0.91238 0.0
O238 O 0.32363 0.85113 0.89878 0.0
O239 O 0.32978 0.86945 0.93284 0.0
H240 H 0.3144 0.9143 0.89509 0.0
H241 H 0.34775 0.87992 0.87084 0.0
H242 H 0.31755 0.93032 0.86857 0.0
H243 H 0.3502 0.89647 0.84467 0.0
H244 H 0.25202 0.87723 0.9558 0.0
H245 H 0.26939 0.88764 0.89486 0.0
H246 H 0.28094 0.86672 0.94437 0.0
H247 H 0.24055 0.89766 0.90708 0.0
H248 H 0.27942 0.8951 0.84236 0.0
H249 H 0.29501 0.84773 0.83567 0.0
H250 H 0.32735 0.92191 0.96669 0.0
H251 H 0.28176 0.93361 0.93379 0.0
H252 H 0.32979 0.82398 0.91289 0.0
H253 H 0.34303 0.85349 0.86985 0.0
H254 H 0.35081 0.80446 0.90088 0.0
H255 H 0.36392 0.83351 0.85864 0.0
H256 H 0.35959 0.85688 0.94572 0.0
H257 H 0.30681 0.87464 0.95877 0.0
H258 H 0.36441 0.85055 0.97687 0.0
H259 H 0.31244 0.86786 0.98966 0.0
H260 H 0.4008 0.88888 0.89941 0.0
H261 H 0.3993 0.84114 0.91418 0.0
H262 H 0.26354 0.81858 0.93659 0.0
H263 H 0.31437 0.81359 0.96442 0.0
Li264 Li 0.18827 0.14522 0.42199 0.0
Li265 Li 0.16062 0.1335 0.40955 0.0
Li266 Li 0.18595 0.1169 0.42104 0.0
Li267 Li 0.18867 0.1308 0.3935 0.0
C268 C 0.16786 0.13387 0.45107 0.0
N269 N 0.16314 0.13813 0.48644 0.0
C270 C 0.15147 0.13968 0.45747 0.0
C271 C 0.18176 0.13006 0.46269 0.0
C272 C 0.14938 0.1418 0.47539 0.0
C273 C 0.17913 0.13234 0.48051 0.0
C274 C 0.16376 0.16101 0.39429 0.0
C275 C 0.14077 0.16976 0.37426 0.0
N276 N 0.13876 0.18274 0.38386 0.0
C277 C 0.16158 0.17449 0.40389 0.0
C278 C 0.1534 0.15867 0.37928 0.0
C279 C 0.14883 0.18532 0.39842 0.0
C280 C 0.21414 0.16809 0.42917 0.0
N281 N 0.1979 0.16229 0.43445 0.0
C282 C 0.1961 0.18073 0.45739 0.0
C283 C 0.18869 0.16852 0.44807 0.0
C284 C 0.21291 0.18683 0.45234 0.0
C285 C 0.2219 0.1805 0.43793 0.0
H286 H 0.22108 0.16301 0.41818 0.0
H287 H 0.17553 0.16416 0.45166 0.0
C288 C 0.12536 0.12333 0.40132 0.0
N289 N 0.13487 0.13528 0.40806 0.0
C290 C 0.10644 0.12394 0.40037 0.0
C291 C 0.10742 0.14919 0.41323 0.0
C292 C 0.12631 0.14801 0.41413 0.0
C293 C 0.09726 0.137 0.40636 0.0
H294 H 0.13246 0.11325 0.39683 0.0
H295 H 0.13413 0.15717 0.41988 0.0
C296 C 0.22274 0.12562 0.41972 0.0
N297 N 0.25591 0.11663 0.43312 0.0
C298 C 0.23482 0.11717 0.40949 0.0
C299 C 0.22769 0.12975 0.43665 0.0
C300 C 0.25148 0.11265 0.41653 0.0
C301 C 0.24447 0.12503 0.44322 0.0
C302 C 0.17052 0.10533 0.38522 0.0
C303 C 0.17917 0.09108 0.38527 0.0
C304 C 0.16145 0.11028 0.37026 0.0
C305 C 0.17883 0.08211 0.3702 0.0
C306 C 0.16145 0.10099 0.35545 0.0
N307 N 0.17008 0.08722 0.35572 0.0
C308 C 0.17896 0.09457 0.44628 0.0
C309 C 0.20529 0.08929 0.42959 0.0
C310 C 0.18163 0.08138 0.45617 0.0
N311 N 0.1909 0.09844 0.43351 0.0
C312 C 0.20834 0.07582 0.43901 0.0
C313 C 0.1965 0.07184 0.45261 0.0
H314 H 0.16725 0.1017 0.44874 0.0
H315 H 0.21425 0.0923 0.41901 0.0
C316 C 0.19709 0.14297 0.3605 0.0
N317 N 0.19902 0.13037 0.37071 0.0
C318 C 0.20403 0.1431 0.34358 0.0
C319 C 0.21501 0.11733 0.34804 0.0
C320 C 0.20795 0.11774 0.36491 0.0
C321 C 0.21305 0.13012 0.33707 0.0
H322 H 0.19019 0.15296 0.3655 0.0
H323 H 0.20945 0.10792 0.37333 0.0
O324 O 0.17015 0.13181 0.43354 0.0
O325 O 0.17609 0.15024 0.39951 0.0
O326 O 0.2064 0.13017 0.41299 0.0
O327 O 0.17087 0.11433 0.39979 0.0
H328 H 0.14052 0.14258 0.44869 0.0
H329 H 0.19434 0.12522 0.45802 0.0
H330 H 0.1368 0.14636 0.48051 0.0
H331 H 0.18978 0.12945 0.48964 0.0
H332 H 0.13258 0.16805 0.36272 0.0
H333 H 0.16955 0.17653 0.41548 0.0
H334 H 0.15503 0.14837 0.37163 0.0
H335 H 0.14692 0.19576 0.40576 0.0
H336 H 0.18863 0.18552 0.46826 0.0
H337 H 0.2349 0.18493 0.43368 0.0
H338 H 0.09907 0.11432 0.39496 0.0
H339 H 0.1008 0.15935 0.41823 0.0
H340 H 0.23132 0.11402 0.39629 0.0
H341 H 0.21877 0.13666 0.44459 0.0
H342 H 0.26088 0.10599 0.4088 0.0
H343 H 0.24844 0.12811 0.45633 0.0
H344 H 0.18615 0.08704 0.39676 0.0
H345 H 0.15457 0.12121 0.37007 0.0
H346 H 0.18555 0.0711 0.37001 0.0
H347 H 0.15458 0.10473 0.34374 0.0
H348 H 0.17195 0.07851 0.46628 0.0
H349 H 0.21988 0.06868 0.43579 0.0
H350 H 0.20251 0.15334 0.33577 0.0
H351 H 0.22168 0.10701 0.34356 0.0
Li352 Li 0.68546 0.88369 0.92234 0.0
Li353 Li 0.68914 0.85567 0.92275 0.0
Li354 Li 0.68933 0.86977 0.89535 0.0
Li355 Li 0.66203 0.86728 0.91146 0.0
C356 C 0.72106 0.87214 0.92634 0.0
N357 N 0.74943 0.87349 0.94984 0.0
C358 C 0.71753 0.87271 0.94423 0.0
C359 C 0.73899 0.87222 0.92041 0.0
C360 C 0.73207 0.87339 0.95589 0.0
C361 C 0.75316 0.87293 0.9325 0.0
C362 C 0.65699 0.86284 0.94494 0.0
C363 C 0.63729 0.84194 0.95304 0.0
N364 N 0.62701 0.85179 0.96258 0.0
C365 C 0.64626 0.87274 0.95486 0.0
C366 C 0.65249 0.8473 0.94403 0.0
C367 C 0.63114 0.86694 0.96367 0.0
C368 C 0.67472 0.9097 0.94044 0.0
N369 N 0.68972 0.90263 0.93401 0.0
C370 C 0.7086 0.92316 0.94384 0.0
C371 C 0.70644 0.90916 0.93528 0.0
C372 C 0.69337 0.93059 0.95095 0.0
C373 C 0.67624 0.92369 0.94907 0.0
H374 H 0.66153 0.9045 0.9387 0.0
H375 H 0.7181 0.90363 0.9295 0.0
C376 C 0.7104 0.82904 0.92627 0.0
N377 N 0.69964 0.83902 0.93508 0.0
C378 C 0.71846 0.81674 0.93497 0.0
C379 C 0.70414 0.82524 0.96159 0.0
C380 C 0.69659 0.83748 0.95244 0.0
C381 C 0.71528 0.81462 0.95289 0.0
H382 H 0.71277 0.8307 0.91249 0.0
H383 H 0.68824 0.84574 0.9592 0.0
C384 C 0.67644 0.89963 0.89292 0.0
N385 N 0.68652 0.92699 0.87765 0.0
C386 C 0.66323 0.90959 0.88643 0.0
C387 C 0.6948 0.9036 0.89167 0.0
C388 C 0.66859 0.92336 0.87875 0.0
C389 C 0.69961 0.91747 0.8839 0.0
C390 C 0.66826 0.84491 0.88613 0.0
C391 C 0.65804 0.85464 0.87549 0.0
C392 C 0.67037 0.82955 0.8815 0.0
C393 C 0.6501 0.8488 0.86036 0.0
C394 C 0.6622 0.82415 0.86626 0.0
N395 N 0.65232 0.83381 0.8561 0.0
C396 C 0.71532 0.8621 0.8699 0.0
C397 C 0.69118 0.87748 0.85936 0.0
C398 C 0.72315 0.8616 0.85333 0.0
N399 N 0.69965 0.86998 0.87259 0.0
C400 C 0.69862 0.87743 0.84266 0.0
C401 C 0.7148 0.8694 0.83947 0.0
H402 H 0.72167 0.85613 0.88065 0.0
H403 H 0.67854 0.88341 0.86172 0.0
C404 C 0.62668 0.87878 0.91092 0.0
N405 N 0.63629 0.86554 0.91011 0.0
C406 C 0.60774 0.87848 0.91058 0.0
C407 C 0.60895 0.85087 0.90866 0.0
C408 C 0.62789 0.85172 0.90892 0.0
C409 C 0.59859 0.86438 0.90955 0.0
H410 H 0.63377 0.88959 0.91193 0.0
H411 H 0.63589 0.84135 0.90845 0.0
O412 O 0.70711 0.8713 0.91461 0.0
O413 O 0.6716 0.86833 0.93586 0.0
O414 O 0.67126 0.88619 0.90063 0.0
O415 O 0.67631 0.85031 0.90097 0.0
H416 H 0.70376 0.87269 0.94908 0.0
H417 H 0.74193 0.87175 0.90661 0.0
H418 H 0.72954 0.87385 0.96976 0.0
H419 H 0.76711 0.87301 0.92809 0.0
H420 H 0.6336 0.82997 0.95236 0.0
H421 H 0.64954 0.88477 0.9558 0.0
H422 H 0.66047 0.83951 0.93619 0.0
H423 H 0.6227 0.87448 0.97137 0.0
H424 H 0.722 0.92822 0.94464 0.0
H425 H 0.66413 0.92896 0.95438 0.0
H426 H 0.72723 0.80909 0.92774 0.0
H427 H 0.70103 0.82404 0.9753 0.0
H428 H 0.64896 0.90669 0.88732 0.0
H429 H 0.70525 0.89608 0.8966 0.0
H430 H 0.6585 0.93118 0.87367 0.0
H431 H 0.71376 0.92068 0.88284 0.0
H432 H 0.65624 0.86656 0.87884 0.0
H433 H 0.67827 0.82188 0.88959 0.0
H434 H 0.64216 0.8562 0.85201 0.0
H435 H 0.66373 0.81228 0.86252 0.0
H436 H 0.73569 0.85534 0.85141 0.0
H437 H 0.69161 0.88339 0.83227 0.0
H438 H 0.60038 0.8892 0.911 0.0
H439 H 0.60251 0.83973 0.90811 0.0
Li440 Li 0.81048 0.14329 0.42254 0.0
Li441 Li 0.81397 0.11535 0.42125 0.0
Li442 Li 0.83855 0.13307 0.41052 0.0
Li443 Li 0.81046 0.12954 0.3935 0.0
C444 C 0.83114 0.13603 0.45082 0.0
N445 N 0.83524 0.14789 0.48395 0.0
C446 C 0.82475 0.1279 0.46524 0.0
C447 C 0.83983 0.1501 0.45326 0.0
C448 C 0.82691 0.13411 0.48189 0.0
C449 C 0.8417 0.15593 0.4701 0.0
C450 C 0.77656 0.12101 0.41523 0.0
C451 C 0.7535 0.10357 0.40503 0.0
N452 N 0.74308 0.10714 0.41908 0.0
C453 C 0.76551 0.12467 0.42943 0.0
C454 C 0.77043 0.11052 0.40281 0.0
C455 C 0.74868 0.11746 0.43121 0.0
C456 C 0.79867 0.17366 0.42753 0.0
N457 N 0.79996 0.15974 0.43534 0.0
C458 C 0.78702 0.16969 0.46156 0.0
C459 C 0.79398 0.15748 0.45191 0.0
C460 C 0.78572 0.18421 0.45387 0.0
C461 C 0.79143 0.18612 0.43658 0.0
H462 H 0.80333 0.1751 0.41427 0.0
H463 H 0.79466 0.14622 0.45766 0.0
C464 C 0.82157 0.08485 0.43033 0.0
N465 N 0.80973 0.09652 0.43319 0.0
C466 C 0.81963 0.071 0.43918 0.0
C467 C 0.79361 0.08151 0.45417 0.0
C468 C 0.796 0.09515 0.44493 0.0
C469 C 0.80553 0.0692 0.45133 0.0
H470 H 0.83275 0.08639 0.42138 0.0
H471 H 0.78715 0.10474 0.44745 0.0
C472 C 0.83387 0.1594 0.39258 0.0
N473 N 0.85727 0.18001 0.37704 0.0
C474 C 0.83643 0.15916 0.37454 0.0
C475 C 0.84299 0.17026 0.40268 0.0
C476 C 0.84837 0.16964 0.36694 0.0
C477 C 0.85483 0.18053 0.39459 0.0
C478 C 0.83061 0.10195 0.3886 0.0
C479 C 0.84645 0.09994 0.37883 0.0
C480 C 0.81639 0.09145 0.38697 0.0
C481 C 0.84769 0.08755 0.36739 0.0
C482 C 0.81815 0.0792 0.3754 0.0
N483 N 0.83363 0.07753 0.36591 0.0
C484 C 0.87417 0.13445 0.4237 0.0
C485 C 0.87226 0.13792 0.39316 0.0
C486 C 0.89303 0.13588 0.42314 0.0
N487 N 0.8642 0.13559 0.40887 0.0
C488 C 0.89109 0.13958 0.39201 0.0
C489 C 0.90179 0.13854 0.40715 0.0
H490 H 0.86751 0.13217 0.43596 0.0
H491 H 0.86409 0.13835 0.38149 0.0
C492 C 0.78374 0.13602 0.36838 0.0
N493 N 0.80023 0.1293 0.37069 0.0
C494 C 0.77581 0.13651 0.35185 0.0
C495 C 0.80191 0.12307 0.34042 0.0
C496 C 0.80945 0.12305 0.35709 0.0
C497 C 0.7849 0.1299 0.33765 0.0
H498 H 0.77681 0.14107 0.3794 0.0
H499 H 0.82278 0.11826 0.35907 0.0
O500 O 0.82901 0.13019 0.43442 0.0
O501 O 0.79303 0.12805 0.41324 0.0
O502 O 0.82232 0.14917 0.40026 0.0
O503 O 0.82917 0.11406 0.3998 0.0
H504 H 0.81812 0.11695 0.46361 0.0
H505 H 0.84503 0.15645 0.44226 0.0
H506 H 0.82194 0.12798 0.49316 0.0
H507 H 0.8483 0.16684 0.47217 0.0
H508 H 0.74861 0.0954 0.39554 0.0
H509 H 0.76996 0.1329 0.43906 0.0
H510 H 0.77855 0.10789 0.39147 0.0
H511 H 0.74005 0.12009 0.44222 0.0
H512 H 0.78251 0.16778 0.47481 0.0
H513 H 0.7906 0.19719 0.43026 0.0
H514 H 0.82937 0.06193 0.43687 0.0
H515 H 0.78257 0.08062 0.46344 0.0
H516 H 0.8294 0.15089 0.36652 0.0
H517 H 0.84094 0.17075 0.41661 0.0
H518 H 0.85059 0.16952 0.35301 0.0
H519 H 0.86206 0.18895 0.40227 0.0
H520 H 0.85762 0.10792 0.38001 0.0
H521 H 0.80421 0.09265 0.3947 0.0
H522 H 0.85983 0.0859 0.35968 0.0
H523 H 0.80724 0.071 0.37401 0.0
H524 H 0.90068 0.13458 0.4351 0.0
H525 H 0.89716 0.14169 0.3794 0.0
H526 H 0.76265 0.14187 0.35022 0.0
H527 H 0.80947 0.1181 0.32972 0.0
Li528 Li 0.66085 0.13325 0.09011 0.0
Li529 Li 0.68762 0.13113 0.10712 0.0
Li530 Li 0.68763 0.14547 0.07927 0.0
Li531 Li 0.68433 0.1169 0.07935 0.0
C532 C 0.66589 0.15583 0.11556 0.0
N533 N 0.64866 0.16699 0.1449 0.0
C534 C 0.65636 0.1459 0.12653 0.0
C535 C 0.66664 0.17143 0.1195 0.0
C536 C 0.64775 0.15176 0.1413 0.0
C537 C 0.65784 0.17686 0.13439 0.0
C538 C 0.67539 0.10109 0.10915 0.0
C539 C 0.69877 0.08328 0.11776 0.0
N540 N 0.68592 0.07418 0.12516 0.0
C541 C 0.66242 0.09155 0.11682 0.0
C542 C 0.69373 0.09692 0.10959 0.0
C543 C 0.66801 0.078 0.12486 0.0
C544 C 0.62546 0.12157 0.09184 0.0
N545 N 0.63508 0.13484 0.09157 0.0
C546 C 0.60777 0.14957 0.09273 0.0
C547 C 0.62669 0.1487 0.09207 0.0
C548 C 0.59745 0.13604 0.09302 0.0
C549 C 0.60654 0.12191 0.0926 0.0
H550 H 0.63253 0.11073 0.09129 0.0
H551 H 0.6347 0.15908 0.09177 0.0
C552 C 0.71258 0.13994 0.13313 0.0
N553 N 0.69778 0.13106 0.12999 0.0
C554 C 0.72027 0.14042 0.14977 0.0
C555 C 0.69734 0.1226 0.15959 0.0
C556 C 0.68995 0.12264 0.14287 0.0
C557 C 0.7127 0.13156 0.1632 0.0
H558 H 0.71836 0.14669 0.1227 0.0
H559 H 0.67786 0.11604 0.14025 0.0
C560 C 0.65481 0.13345 0.05683 0.0
N561 N 0.62183 0.13558 0.0398 0.0
C562 C 0.64631 0.12028 0.05048 0.0
C563 C 0.64659 0.14772 0.05441 0.0
C564 C 0.62963 0.12159 0.04194 0.0
C565 C 0.62991 0.14856 0.04579 0.0
C566 C 0.7223 0.12947 0.08143 0.0
C567 C 0.72557 0.13316 0.06399 0.0
C568 C 0.73684 0.12578 0.09234 0.0
C569 C 0.7434 0.13306 0.05775 0.0
C570 C 0.75446 0.12579 0.0856 0.0
N571 N 0.75735 0.12941 0.06859 0.0
C572 C 0.7118 0.17031 0.07505 0.0
C573 C 0.69244 0.16569 0.05097 0.0
C574 C 0.72013 0.18244 0.06626 0.0
N575 N 0.69824 0.16226 0.0673 0.0
C576 C 0.70014 0.17788 0.04184 0.0
C577 C 0.71427 0.18644 0.04941 0.0
H578 H 0.71629 0.16716 0.08798 0.0
H579 H 0.6819 0.15891 0.04496 0.0
C580 C 0.67587 0.08746 0.06775 0.0
N581 N 0.68931 0.09813 0.06744 0.0
C582 C 0.67794 0.07359 0.05896 0.0
C583 C 0.7078 0.08179 0.04984 0.0
C584 C 0.70515 0.0955 0.05885 0.0
C585 C 0.69404 0.07065 0.04972 0.0
H586 H 0.66337 0.08984 0.07465 0.0
H587 H 0.71572 0.10402 0.05885 0.0
O588 O 0.67439 0.15044 0.10096 0.0
O589 O 0.66997 0.11437 0.10123 0.0
O590 O 0.67094 0.13235 0.06561 0.0
O591 O 0.70502 0.12973 0.08793 0.0
H592 H 0.65553 0.1338 0.12366 0.0
H593 H 0.67394 0.17927 0.11111 0.0
H594 H 0.64033 0.1442 0.1499 0.0
H595 H 0.6583 0.18891 0.1376 0.0
H596 H 0.7129 0.07993 0.11821 0.0
H597 H 0.64818 0.09462 0.11659 0.0
H598 H 0.70399 0.10409 0.10374 0.0
H599 H 0.65812 0.07053 0.13087 0.0
H600 H 0.60129 0.1607 0.09318 0.0
H601 H 0.59909 0.11121 0.09256 0.0
H602 H 0.73214 0.14747 0.15207 0.0
H603 H 0.69091 0.11584 0.16969 0.0
H604 H 0.65248 0.10916 0.05218 0.0
H605 H 0.65282 0.15802 0.05949 0.0
H606 H 0.62287 0.11148 0.03703 0.0
H607 H 0.62332 0.15951 0.04398 0.0
H608 H 0.71445 0.13589 0.05532 0.0
H609 H 0.73452 0.12289 0.10587 0.0
H610 H 0.74613 0.13586 0.04428 0.0
H611 H 0.76585 0.12292 0.09389 0.0
H612 H 0.73119 0.18845 0.07255 0.0
H613 H 0.6949 0.18059 0.02904 0.0
H614 H 0.66688 0.06543 0.05905 0.0
H615 H 0.72052 0.07991 0.04308 0.0
Li616 Li 0.80864 0.86911 0.60773 0.0
Li617 Li 0.83723 0.86592 0.58999 0.0
Li618 Li 0.81275 0.88218 0.58001 0.0
Li619 Li 0.80942 0.85513 0.57882 0.0
C620 C 0.83153 0.89947 0.60151 0.0
N621 N 0.83917 0.93037 0.59949 0.0
C622 C 0.84671 0.90455 0.59223 0.0
C623 C 0.82028 0.91008 0.60983 0.0
C624 C 0.85032 0.92023 0.59135 0.0
C625 C 0.82437 0.92566 0.60865 0.0
C626 C 0.83396 0.84076 0.60966 0.0
C627 C 0.85804 0.82204 0.60936 0.0
N628 N 0.85915 0.82293 0.62701 0.0
C629 C 0.83526 0.84143 0.62781 0.0
C630 C 0.84536 0.83092 0.60036 0.0
C631 C 0.8481 0.83234 0.63634 0.0
C632 C 0.78547 0.85934 0.63467 0.0
N633 N 0.7989 0.86938 0.63056 0.0
C634 C 0.79906 0.87929 0.65955 0.0
C635 C 0.80583 0.8792 0.64257 0.0
C636 C 0.78518 0.86904 0.66423 0.0
C637 C 0.77838 0.85895 0.65155 0.0
H638 H 0.78032 0.85161 0.62483 0.0
H639 H 0.81678 0.88683 0.63901 0.0
C640 C 0.87281 0.86493 0.57664 0.0
N641 N 0.86298 0.86413 0.59159 0.0
C642 C 0.89173 0.86413 0.57715 0.0
C643 C 0.89013 0.86183 0.60848 0.0
C644 C 0.87123 0.86288 0.60736 0.0
C645 C 0.90069 0.86247 0.59322 0.0
H646 H 0.86597 0.86647 0.56432 0.0
H647 H 0.86314 0.86273 0.6191 0.0
C648 C 0.77667 0.87925 0.58456 0.0
N649 N 0.747 0.89771 0.57785 0.0
C650 C 0.77108 0.88185 0.56741 0.0
C651 C 0.76712 0.88599 0.5983 0.0
C652 C 0.75608 0.89125 0.56429 0.0
C653 C 0.75216 0.89529 0.59464 0.0
C654 C 0.82764 0.86038 0.5506 0.0
C655 C 0.81702 0.86574 0.5368 0.0
C656 C 0.83808 0.84715 0.54841 0.0
C657 C 0.81696 0.85773 0.52105 0.0
C658 C 0.83762 0.83944 0.53248 0.0
N659 N 0.82716 0.84485 0.51924 0.0
C660 C 0.81999 0.90396 0.55423 0.0
C661 C 0.79674 0.91205 0.57344 0.0
C662 C 0.81862 0.91754 0.54479 0.0
N663 N 0.80891 0.90131 0.56807 0.0
C664 C 0.79487 0.92582 0.56434 0.0
C665 C 0.80582 0.92865 0.54969 0.0
H666 H 0.83011 0.89557 0.55064 0.0
H667 H 0.78859 0.91004 0.5849 0.0
C668 C 0.80354 0.82362 0.5719 0.0
N669 N 0.79923 0.83803 0.56664 0.0
C670 C 0.79673 0.81092 0.56297 0.0
C671 C 0.78099 0.82811 0.54349 0.0
C672 C 0.78798 0.84045 0.55288 0.0
C673 C 0.78535 0.81307 0.54847 0.0
H674 H 0.81224 0.82196 0.58306 0.0
H675 H 0.78463 0.85197 0.549 0.0
O676 O 0.8275 0.8842 0.6021 0.0
O677 O 0.82155 0.84965 0.60107 0.0
O678 O 0.79122 0.86998 0.58793 0.0
O679 O 0.82767 0.86792 0.56623 0.0
H680 H 0.85547 0.89648 0.58562 0.0
H681 H 0.80833 0.90634 0.61685 0.0
H682 H 0.86196 0.92434 0.58413 0.0
H683 H 0.81571 0.93401 0.61491 0.0
H684 H 0.86702 0.81444 0.60231 0.0
H685 H 0.82655 0.84895 0.63525 0.0
H686 H 0.84453 0.83022 0.58633 0.0
H687 H 0.84931 0.8328 0.65037 0.0
H688 H 0.80486 0.88708 0.66901 0.0
H689 H 0.7676 0.85095 0.6546 0.0
H690 H 0.89923 0.86512 0.56508 0.0
H691 H 0.89636 0.86048 0.62116 0.0
H692 H 0.77847 0.87695 0.55661 0.0
H693 H 0.77124 0.88411 0.61165 0.0
H694 H 0.7517 0.89346 0.55108 0.0
H695 H 0.74467 0.90061 0.60514 0.0
H696 H 0.80866 0.87584 0.5383 0.0
H697 H 0.84637 0.84283 0.55894 0.0
H698 H 0.80871 0.86171 0.5103 0.0
H699 H 0.84557 0.82915 0.53064 0.0
H700 H 0.82772 0.91941 0.53391 0.0
H701 H 0.78487 0.93407 0.56864 0.0
H702 H 0.80019 0.79956 0.56753 0.0
H703 H 0.77248 0.83037 0.53228 0.0
Li704 Li 0.81241 0.64389 0.07745 0.0
Li705 Li 0.8399 0.63206 0.08982 0.0
Li706 Li 0.81447 0.61558 0.07843 0.0
Li707 Li 0.81189 0.62955 0.10602 0.0
C708 C 0.83213 0.63216 0.04821 0.0
N709 N 0.83578 0.63595 0.01265 0.0
C710 C 0.84828 0.63797 0.04127 0.0
C711 C 0.81794 0.62809 0.03705 0.0
C712 C 0.84983 0.63986 0.02326 0.0
C713 C 0.82002 0.63013 0.01912 0.0
C714 C 0.83716 0.65943 0.10526 0.0
C715 C 0.85993 0.66785 0.12571 0.0
N716 N 0.86264 0.68066 0.11597 0.0
C717 C 0.84005 0.67273 0.09553 0.0
C718 C 0.84705 0.65701 0.12055 0.0
C719 C 0.85303 0.68331 0.10114 0.0
C720 C 0.78655 0.66668 0.07013 0.0
N721 N 0.80288 0.66096 0.065 0.0
C722 C 0.80503 0.67965 0.04237 0.0
C723 C 0.81228 0.66733 0.05159 0.0
C724 C 0.78812 0.68569 0.04726 0.0
C725 C 0.7789 0.67916 0.06143 0.0
H726 H 0.77946 0.66149 0.08096 0.0
H727 H 0.8255 0.66298 0.04813 0.0
C728 C 0.87508 0.62204 0.0986 0.0
N729 N 0.86565 0.63374 0.09124 0.0
C730 C 0.89401 0.62255 0.09942 0.0
C731 C 0.89321 0.64719 0.08512 0.0
C732 C 0.87429 0.64614 0.08445 0.0
C733 C 0.90331 0.63523 0.09258 0.0
H734 H 0.86793 0.6122 0.10366 0.0
H735 H 0.86652 0.65512 0.07827 0.0
C736 C 0.77752 0.62475 0.08039 0.0
N737 N 0.74363 0.61638 0.06821 0.0
C738 C 0.76545 0.61687 0.09122 0.0
C739 C 0.77221 0.62863 0.06349 0.0
C740 C 0.74842 0.61266 0.08478 0.0
C741 C 0.75506 0.62423 0.05754 0.0
C742 C 0.83003 0.60375 0.11405 0.0
C743 C 0.82182 0.58933 0.11362 0.0
C744 C 0.83887 0.60861 0.12917 0.0
C745 C 0.82235 0.58009 0.12847 0.0
C746 C 0.83908 0.59905 0.14376 0.0
N747 N 0.83088 0.58511 0.14311 0.0
C748 C 0.82136 0.59256 0.0539 0.0
C749 C 0.79425 0.58855 0.06987 0.0
C750 C 0.81847 0.57917 0.0444 0.0
N751 N 0.8092 0.5971 0.06617 0.0
C752 C 0.79086 0.57501 0.06075 0.0
C753 C 0.80302 0.57021 0.04774 0.0
H754 H 0.83342 0.59931 0.05155 0.0
H755 H 0.78509 0.5921 0.08006 0.0
C756 C 0.80241 0.64204 0.13861 0.0
N757 N 0.80143 0.62917 0.12873 0.0
C758 C 0.79517 0.64223 0.15542 0.0
C759 C 0.78598 0.61589 0.15157 0.0
C760 C 0.7932 0.61629 0.13476 0.0
C761 C 0.78692 0.62898 0.1622 0.0
H762 H 0.80876 0.65222 0.13341 0.0
H763 H 0.79233 0.60626 0.12657 0.0
O764 O 0.83038 0.63034 0.06583 0.0
O765 O 0.82462 0.64889 0.09991 0.0
O766 O 0.79423 0.629 0.08653 0.0
O767 O 0.82954 0.61299 0.09967 0.0
H768 H 0.85945 0.64107 0.0497 0.0
H769 H 0.80555 0.62323 0.04214 0.0
H770 H 0.8622 0.64443 0.01772 0.0
H771 H 0.80914 0.62704 0.01033 0.0
H772 H 0.86776 0.66608 0.13746 0.0
H773 H 0.83245 0.67482 0.08372 0.0
H774 H 0.84485 0.64686 0.12832 0.0
H775 H 0.85549 0.69361 0.09369 0.0
H776 H 0.81268 0.68458 0.0317 0.0
H777 H 0.76582 0.68352 0.06555 0.0
H778 H 0.90128 0.61313 0.10537 0.0
H779 H 0.89988 0.65706 0.07946 0.0
H780 H 0.76925 0.61393 0.1044 0.0
H781 H 0.78113 0.63512 0.0551 0.0
H782 H 0.73901 0.60644 0.09297 0.0
H783 H 0.7508 0.62712 0.04446 0.0
H784 H 0.81503 0.58534 0.10198 0.0
H785 H 0.84541 0.61968 0.12967 0.0
H786 H 0.81597 0.56894 0.12835 0.0
H787 H 0.84577 0.60272 0.15559 0.0
H788 H 0.82841 0.57572 0.03477 0.0
H789 H 0.7788 0.56842 0.06377 0.0
H790 H 0.79588 0.65271 0.16291 0.0
H791 H 0.77997 0.60535 0.15623 0.0
Li792 Li 0.68536 0.38258 0.57994 0.0
Li793 Li 0.68954 0.36971 0.60698 0.0
Li794 Li 0.68986 0.35546 0.57837 0.0
Li795 Li 0.66121 0.36709 0.59036 0.0
C796 C 0.72217 0.37953 0.58586 0.0
N797 N 0.75275 0.39754 0.58222 0.0
C798 C 0.72383 0.39309 0.59538 0.0
C799 C 0.73607 0.37507 0.57455 0.0
C800 C 0.73939 0.40206 0.59333 0.0
C801 C 0.75143 0.38435 0.57288 0.0
C802 C 0.66156 0.38867 0.61638 0.0
C803 C 0.64609 0.3799 0.64223 0.0
N804 N 0.64192 0.39464 0.6463 0.0
C805 C 0.65711 0.40373 0.62084 0.0
C806 C 0.65601 0.37664 0.62717 0.0
C807 C 0.64718 0.40651 0.63601 0.0
C808 C 0.67758 0.41286 0.57093 0.0
N809 N 0.68987 0.40153 0.56807 0.0
C810 C 0.70602 0.41731 0.54786 0.0
C811 C 0.70395 0.4035 0.55682 0.0
C812 C 0.69348 0.4292 0.55051 0.0
C813 C 0.67915 0.42686 0.5623 0.0
H814 H 0.66632 0.4109 0.5797 0.0
H815 H 0.71335 0.39426 0.55443 0.0
C816 C 0.70558 0.35682 0.63687 0.0
N817 N 0.69997 0.37018 0.6296 0.0
C818 C 0.7129 0.35668 0.65365 0.0
C819 C 0.70874 0.38411 0.65502 0.0
C820 C 0.70147 0.3837 0.63824 0.0
C821 C 0.71451 0.37046 0.663 0.0
H822 H 0.70426 0.34625 0.62964 0.0
H823 H 0.69697 0.39419 0.63213 0.0
C824 C 0.66971 0.37505 0.55075 0.0
N825 N 0.66791 0.39123 0.51986 0.0
C826 C 0.65409 0.38334 0.54653 0.0
C827 C 0.68437 0.3749 0.53918 0.0
C828 C 0.65346 0.39149 0.53088 0.0
C829 C 0.6832 0.38315 0.52363 0.0
C830 C 0.66945 0.33608 0.60098 0.0
C831 C 0.66288 0.32946 0.58565 0.0
C832 C 0.66868 0.32788 0.61659 0.0
C833 C 0.65567 0.31467 0.5862 0.0
C834 C 0.66132 0.31314 0.6166 0.0
N835 N 0.65504 0.30689 0.60153 0.0
C836 C 0.71188 0.32918 0.57524 0.0
C837 C 0.69543 0.33556 0.5497 0.0
C838 C 0.71947 0.31643 0.56698 0.0
N839 N 0.70017 0.33844 0.56649 0.0
C840 C 0.70298 0.32315 0.54084 0.0
C841 C 0.71513 0.31343 0.54952 0.0
H842 H 0.71522 0.33168 0.58867 0.0
H843 H 0.68564 0.34278 0.54321 0.0
C844 C 0.62608 0.37871 0.58832 0.0
N845 N 0.63529 0.3657 0.59236 0.0
C846 C 0.60714 0.37903 0.58893 0.0
C847 C 0.60742 0.35271 0.59854 0.0
C848 C 0.62637 0.3529 0.59774 0.0
C849 C 0.59753 0.36585 0.59393 0.0
H850 H 0.63351 0.38889 0.58462 0.0
H851 H 0.63379 0.34281 0.60145 0.0
O852 O 0.70699 0.37066 0.58749 0.0
O853 O 0.6713 0.38588 0.60152 0.0
O854 O 0.67072 0.36724 0.56618 0.0
O855 O 0.67683 0.35044 0.60075 0.0
H856 H 0.71308 0.39676 0.60402 0.0
H857 H 0.73494 0.3646 0.56708 0.0
H858 H 0.74082 0.41263 0.60054 0.0
H859 H 0.76228 0.38109 0.56414 0.0
H860 H 0.64172 0.3707 0.65068 0.0
H861 H 0.66133 0.41317 0.61266 0.0
H862 H 0.65929 0.36492 0.62403 0.0
H863 H 0.64366 0.41811 0.63961 0.0
H864 H 0.71731 0.41864 0.53895 0.0
H865 H 0.66899 0.43561 0.56451 0.0
H866 H 0.71697 0.34587 0.65933 0.0
H867 H 0.70997 0.39502 0.66161 0.0
H868 H 0.64256 0.38351 0.55522 0.0
H869 H 0.69671 0.36878 0.54236 0.0
H870 H 0.64148 0.39801 0.5275 0.0
H871 H 0.69452 0.38325 0.51465 0.0
H872 H 0.66315 0.33573 0.5735 0.0
H873 H 0.67365 0.33288 0.62857 0.0
H874 H 0.65052 0.3094 0.57444 0.0
H875 H 0.66061 0.30667 0.62859 0.0
H876 H 0.72879 0.30913 0.57406 0.0
H877 H 0.69912 0.32101 0.52744 0.0
H878 H 0.6001 0.38953 0.58565 0.0
H879 H 0.60059 0.34228 0.60245 0.0
Li880 Li 0.81099 0.37031 0.89415 0.0
Li881 Li 0.81356 0.38343 0.92219 0.0
Li882 Li 0.83947 0.36745 0.91092 0.0
Li883 Li 0.81157 0.35574 0.92263 0.0
C884 C 0.83476 0.39463 0.88697 0.0
N885 N 0.84714 0.41107 0.85859 0.0
C886 C 0.82922 0.40978 0.88449 0.0
C887 C 0.84683 0.38794 0.87517 0.0
C888 C 0.83556 0.41787 0.87002 0.0
C889 C 0.85288 0.3964 0.86087 0.0
C890 C 0.77823 0.37863 0.91873 0.0
C891 C 0.75729 0.38675 0.94105 0.0
N892 N 0.74859 0.39571 0.9292 0.0
C893 C 0.76898 0.38779 0.90674 0.0
C894 C 0.77226 0.37798 0.93599 0.0
C895 C 0.75406 0.39638 0.9123 0.0
C896 C 0.79773 0.35742 0.86305 0.0
N897 N 0.8009 0.37092 0.8713 0.0
C898 C 0.78976 0.3849 0.84675 0.0
C899 C 0.79686 0.38453 0.86361 0.0
C900 C 0.78673 0.37113 0.83775 0.0
C901 C 0.79072 0.35725 0.84616 0.0
H902 H 0.80064 0.34674 0.86962 0.0
H903 H 0.79905 0.3951 0.87059 0.0
C904 C 0.81369 0.40324 0.95116 0.0
N905 N 0.80778 0.40178 0.93448 0.0
C906 C 0.81022 0.41661 0.96053 0.0
C907 C 0.79477 0.42686 0.93532 0.0
C908 C 0.7985 0.41324 0.92645 0.0
C909 C 0.80071 0.42868 0.95259 0.0
H910 H 0.82139 0.39413 0.95713 0.0
H911 H 0.7941 0.41186 0.91312 0.0
C912 C 0.83354 0.34029 0.89121 0.0
N913 N 0.8524 0.31827 0.87273 0.0
C914 C 0.83642 0.3258 0.89842 0.0
C915 C 0.83997 0.34349 0.87447 0.0
C916 C 0.84607 0.31485 0.8889 0.0
C917 C 0.84954 0.33223 0.86537 0.0
C918 C 0.83273 0.36236 0.95075 0.0
C919 C 0.84951 0.35553 0.95424 0.0
C920 C 0.81924 0.3624 0.96357 0.0
C921 C 0.85242 0.34864 0.97043 0.0
C922 C 0.82267 0.35537 0.97958 0.0
N923 N 0.83904 0.34869 0.98264 0.0
C924 C 0.87489 0.37922 0.90932 0.0
C925 C 0.87376 0.35212 0.90973 0.0
C926 C 0.89384 0.37893 0.90885 0.0
N927 N 0.86527 0.36594 0.90962 0.0
C928 C 0.89269 0.35128 0.90921 0.0
C929 C 0.90298 0.36481 0.90881 0.0
H930 H 0.86781 0.39007 0.90953 0.0
H931 H 0.86591 0.34173 0.91065 0.0
C932 C 0.78396 0.33588 0.93453 0.0
N933 N 0.80219 0.33838 0.93474 0.0
C934 C 0.77655 0.32348 0.94358 0.0
C935 C 0.8068 0.31652 0.95293 0.0
C936 C 0.81365 0.32884 0.94342 0.0
C937 C 0.78804 0.31377 0.95309 0.0
H938 H 0.77517 0.34354 0.92737 0.0
H939 H 0.82812 0.33079 0.94299 0.0
O940 O 0.82862 0.38653 0.90105 0.0
O941 O 0.79303 0.37032 0.9136 0.0
O942 O 0.82409 0.35113 0.90037 0.0
O943 O 0.82961 0.36906 0.93493 0.0
H944 H 0.82005 0.41521 0.89358 0.0
H945 H 0.85166 0.3764 0.87714 0.0
H946 H 0.83127 0.42957 0.86787 0.0
H947 H 0.86219 0.39134 0.85163 0.0
H948 H 0.75259 0.38643 0.95439 0.0
H949 H 0.77336 0.38837 0.89331 0.0
H950 H 0.77912 0.3708 0.94538 0.0
H951 H 0.74685 0.40361 0.90318 0.0
H952 H 0.78691 0.39586 0.84074 0.0
H953 H 0.78826 0.34636 0.83984 0.0
H954 H 0.81536 0.41763 0.97369 0.0
H955 H 0.78732 0.43585 0.92874 0.0
H956 H 0.83138 0.32305 0.91125 0.0
H957 H 0.83741 0.35445 0.86846 0.0
H958 H 0.84851 0.30363 0.89438 0.0
H959 H 0.85462 0.33458 0.85243 0.0
H960 H 0.86016 0.3555 0.94455 0.0
H961 H 0.80623 0.36771 0.96114 0.0
H962 H 0.86531 0.34325 0.97327 0.0
H963 H 0.8123 0.35523 0.98956 0.0
H964 H 0.90125 0.38963 0.90845 0.0
H965 H 0.8992 0.34016 0.90957 0.0
H966 H 0.762 0.32166 0.94342 0.0
H967 H 0.81607 0.30911 0.95993 0.0
Li968 Li 0.68866 0.64345 0.42117 0.0
Li969 Li 0.66065 0.63255 0.40897 0.0
Li970 Li 0.68539 0.61543 0.42075 0.0
Li971 Li 0.68887 0.62884 0.39273 0.0
C972 C 0.66864 0.63492 0.45012 0.0
N973 N 0.66586 0.64347 0.48466 0.0
C974 C 0.65342 0.64301 0.45593 0.0
C975 C 0.6823 0.63097 0.46193 0.0
C976 C 0.65231 0.64729 0.47343 0.0
C977 C 0.68068 0.63545 0.47932 0.0
C978 C 0.6654 0.65884 0.39077 0.0
C979 C 0.6455 0.66581 0.36712 0.0
N980 N 0.64227 0.67951 0.37496 0.0
C981 C 0.66205 0.67304 0.3985 0.0
C982 C 0.65721 0.65524 0.37487 0.0
C983 C 0.65025 0.68332 0.39034 0.0
C984 C 0.71673 0.66302 0.43277 0.0
N985 N 0.69856 0.66037 0.43358 0.0
C986 C 0.69443 0.68206 0.45213 0.0
C987 C 0.68737 0.66969 0.44283 0.0
C988 C 0.71319 0.68504 0.4517 0.0
C989 C 0.72438 0.67533 0.44177 0.0
H990 H 0.72529 0.65562 0.42502 0.0
H991 H 0.67292 0.66759 0.44292 0.0
C992 C 0.62517 0.62239 0.40244 0.0
N993 N 0.63498 0.63482 0.40742 0.0
C994 C 0.60625 0.62309 0.40182 0.0
C995 C 0.60781 0.6494 0.41147 0.0
C996 C 0.62672 0.64815 0.41202 0.0
C997 C 0.59733 0.63671 0.40644 0.0
H998 H 0.63201 0.61183 0.39921 0.0
H999 H 0.63478 0.65772 0.41647 0.0
C1000 C 0.72232 0.62121 0.41739 0.0
N1001 N 0.75458 0.60755 0.42724 0.0
C1002 C 0.73249 0.61288 0.40528 0.0
C1003 C 0.72872 0.62279 0.43443 0.0
C1004 C 0.74873 0.60601 0.41053 0.0
C1005 C 0.74501 0.61574 0.43918 0.0
C1006 C 0.66825 0.60315 0.38584 0.0
C1007 C 0.67576 0.58847 0.38671 0.0
C1008 C 0.65827 0.60748 0.37116 0.0
C1009 C 0.67345 0.57846 0.37269 0.0
C1010 C 0.65628 0.59714 0.35741 0.0
N1011 N 0.66386 0.58297 0.35845 0.0
C1012 C 0.67671 0.59378 0.44602 0.0
C1013 C 0.70301 0.58706 0.42997 0.0
C1014 C 0.67787 0.58031 0.4557 0.0
N1015 N 0.68922 0.59695 0.43352 0.0
C1016 C 0.7047 0.57342 0.43936 0.0
C1017 C 0.69195 0.56987 0.45237 0.0
H1018 H 0.66567 0.60167 0.44836 0.0
H1019 H 0.71243 0.58951 0.41959 0.0
C1020 C 0.70149 0.64165 0.36144 0.0
N1021 N 0.69926 0.62813 0.36995 0.0
C1022 C 0.7088 0.64194 0.34466 0.0
C1023 C 0.71152 0.61438 0.34572 0.0
C1024 C 0.70436 0.61465 0.36256 0.0
C1025 C 0.71378 0.62815 0.33656 0.0
H1026 H 0.69757 0.65224 0.36769 0.0
H1027 H 0.70305 0.6041 0.36976 0.0
O1028 O 0.67 0.63071 0.43301 0.0
O1029 O 0.67678 0.64858 0.39865 0.0
O1030 O 0.70641 0.62803 0.41246 0.0
O1031 O 0.67043 0.61312 0.39943 0.0
H1032 H 0.64266 0.64605 0.44699 0.0
H1033 H 0.69395 0.62443 0.45773 0.0
H1034 H 0.64067 0.65365 0.47808 0.0
H1035 H 0.69119 0.63251 0.48859 0.0
H1036 H 0.639 0.66314 0.35486 0.0
H1037 H 0.6684 0.67607 0.41072 0.0
H1038 H 0.65993 0.64442 0.36857 0.0
H1039 H 0.64744 0.69431 0.39623 0.0
H1040 H 0.68527 0.68912 0.45969 0.0
H1041 H 0.73885 0.67734 0.44075 0.0
H1042 H 0.59868 0.61307 0.39778 0.0
H1043 H 0.60144 0.66003 0.4154 0.0
H1044 H 0.72784 0.61165 0.392 0.0
H1045 H 0.72126 0.62949 0.44386 0.0
H1046 H 0.75667 0.59945 0.40132 0.0
H1047 H 0.75008 0.61683 0.45234 0.0
H1048 H 0.6834 0.58489 0.39801 0.0
H1049 H 0.65208 0.61867 0.37041 0.0
H1050 H 0.67929 0.5671 0.37314 0.0
H1051 H 0.64867 0.60037 0.34594 0.0
H1052 H 0.66783 0.57812 0.4657 0.0
H1053 H 0.71557 0.56556 0.43615 0.0
H1054 H 0.71029 0.65279 0.338 0.0
H1055 H 0.7155 0.60354 0.34003 0.0
Li1056 Li 0.18603 0.38415 0.92104 0.0
Li1057 Li 0.19014 0.35689 0.92173 0.0
Li1058 Li 0.18969 0.3703 0.89415 0.0
Li1059 Li 0.16219 0.36743 0.91059 0.0
C1060 C 0.22163 0.37385 0.92496 0.0
N1061 N 0.24969 0.37653 0.94865 0.0
C1062 C 0.21788 0.37534 0.94273 0.0
C1063 C 0.23964 0.37373 0.91924 0.0
C1064 C 0.23225 0.37668 0.9545 0.0
C1065 C 0.25364 0.3751 0.93143 0.0
C1066 C 0.16154 0.3601 0.94542 0.0
C1067 C 0.14701 0.33604 0.95201 0.0
N1068 N 0.14077 0.34202 0.96722 0.0
C1069 C 0.155 0.36601 0.96113 0.0
C1070 C 0.15753 0.34499 0.94081 0.0
C1071 C 0.14452 0.35669 0.97197 0.0
C1072 C 0.17621 0.40738 0.9438 0.0
N1073 N 0.18992 0.40286 0.93316 0.0
C1074 C 0.20749 0.42485 0.94091 0.0
C1075 C 0.20536 0.41128 0.93146 0.0
C1076 C 0.19362 0.42969 0.95222 0.0
C1077 C 0.17779 0.42079 0.95354 0.0
H1078 H 0.16401 0.40053 0.94471 0.0
H1079 H 0.21607 0.40742 0.92288 0.0
C1080 C 0.20898 0.32897 0.92497 0.0
N1081 N 0.20103 0.34041 0.93422 0.0
C1082 C 0.21691 0.31655 0.93357 0.0
C1083 C 0.2083 0.32795 0.96103 0.0
C1084 C 0.20074 0.34021 0.95192 0.0
C1085 C 0.21652 0.31585 0.95188 0.0
H1086 H 0.20916 0.32951 0.91089 0.0
H1087 H 0.19449 0.3495 0.95901 0.0
C1088 C 0.17571 0.39998 0.89171 0.0
N1089 N 0.18435 0.42752 0.87604 0.0
C1090 C 0.16194 0.40983 0.88611 0.0
C1091 C 0.19388 0.40414 0.88933 0.0
C1092 C 0.16658 0.4237 0.87822 0.0
C1093 C 0.19797 0.4181 0.88139 0.0
C1094 C 0.16906 0.34498 0.8856 0.0
C1095 C 0.15842 0.35435 0.87492 0.0
C1096 C 0.17149 0.32959 0.88125 0.0
C1097 C 0.15038 0.34813 0.86004 0.0
C1098 C 0.16321 0.3238 0.86626 0.0
N1099 N 0.15292 0.33311 0.85605 0.0
C1100 C 0.21515 0.36259 0.86817 0.0
C1101 C 0.19052 0.37762 0.85803 0.0
C1102 C 0.2225 0.36194 0.8514 0.0
N1103 N 0.19947 0.37037 0.87115 0.0
C1104 C 0.19746 0.37741 0.84114 0.0
C1105 C 0.21364 0.36948 0.83765 0.0
H1106 H 0.22189 0.35682 0.87884 0.0
H1107 H 0.17787 0.38346 0.86063 0.0
C1108 C 0.12674 0.37844 0.91104 0.0
N1109 N 0.13651 0.36532 0.90961 0.0
C1110 C 0.1078 0.37798 0.91088 0.0
C1111 C 0.10932 0.35046 0.90782 0.0
C1112 C 0.12826 0.35147 0.90799 0.0
C1113 C 0.09882 0.36384 0.90934 0.0
H1114 H 0.1337 0.38928 0.91237 0.0
H1115 H 0.13636 0.34118 0.90699 0.0
O1116 O 0.20784 0.37247 0.91311 0.0
O1117 O 0.17176 0.36917 0.93468 0.0
O1118 O 0.17128 0.3864 0.89951 0.0
O1119 O 0.17719 0.35076 0.90021 0.0
H1120 H 0.20404 0.3755 0.94741 0.0
H1121 H 0.24276 0.37259 0.90552 0.0
H1122 H 0.22954 0.37784 0.96828 0.0
H1123 H 0.26766 0.37503 0.92718 0.0
H1124 H 0.1438 0.32433 0.9486 0.0
H1125 H 0.15801 0.37767 0.96491 0.0
H1126 H 0.16252 0.34017 0.92876 0.0
H1127 H 0.13937 0.36111 0.98417 0.0
H1128 H 0.21995 0.43133 0.9396 0.0
H1129 H 0.16665 0.42424 0.96187 0.0
H1130 H 0.22337 0.30767 0.92594 0.0
H1131 H 0.2074 0.32788 0.9751 0.0
H1132 H 0.14781 0.40677 0.88784 0.0
H1133 H 0.20474 0.39667 0.89351 0.0
H1134 H 0.15606 0.43143 0.87382 0.0
H1135 H 0.21197 0.42145 0.87947 0.0
H1136 H 0.15635 0.36628 0.87807 0.0
H1137 H 0.17969 0.3222 0.88939 0.0
H1138 H 0.14211 0.35525 0.85167 0.0
H1139 H 0.16498 0.3119 0.86273 0.0
H1140 H 0.23505 0.35575 0.84924 0.0
H1141 H 0.19008 0.38317 0.83084 0.0
H1142 H 0.10029 0.3886 0.91184 0.0
H1143 H 0.10299 0.33931 0.90683 0.0
Li1144 Li 0.31147 0.64512 0.4226 0.0
Li1145 Li 0.31514 0.61656 0.4218 0.0
Li1146 Li 0.33825 0.63327 0.41115 0.0
Li1147 Li 0.31131 0.63115 0.39442 0.0
C1148 C 0.34469 0.63326 0.44433 0.0
N1149 N 0.37783 0.63599 0.46095 0.0
C1150 C 0.35434 0.62018 0.44924 0.0
C1151 C 0.35184 0.64774 0.44796 0.0
C1152 C 0.37108 0.62179 0.4576 0.0
C1153 C 0.36863 0.64888 0.45636 0.0
C1154 C 0.2769 0.62835 0.4202 0.0
C1155 C 0.24507 0.62305 0.41588 0.0
N1156 N 0.24182 0.6267 0.43282 0.0
C1157 C 0.27324 0.63207 0.43756 0.0
C1158 C 0.26272 0.62384 0.40925 0.0
C1159 C 0.25541 0.63116 0.44369 0.0
C1160 C 0.28911 0.6711 0.42673 0.0
N1161 N 0.30103 0.66171 0.43501 0.0
C1162 C 0.29815 0.67608 0.46132 0.0
C1163 C 0.30549 0.66384 0.45201 0.0
C1164 C 0.28588 0.68605 0.45311 0.0
C1165 C 0.28124 0.68338 0.43562 0.0
H1166 H 0.28575 0.66903 0.41321 0.0
H1167 H 0.31469 0.65599 0.45838 0.0
C1168 C 0.32408 0.58698 0.43247 0.0
N1169 N 0.31062 0.5976 0.43349 0.0
C1170 C 0.32236 0.57292 0.44093 0.0
C1171 C 0.29284 0.58085 0.4513 0.0
C1172 C 0.29514 0.59477 0.44259 0.0
C1173 C 0.3066 0.56972 0.45058 0.0
H1174 H 0.33632 0.58953 0.42524 0.0
H1175 H 0.28459 0.60329 0.44324 0.0
C1176 C 0.33261 0.65621 0.38626 0.0
N1177 N 0.34932 0.66803 0.35699 0.0
C1178 C 0.34217 0.64656 0.37499 0.0
C1179 C 0.33157 0.67186 0.38267 0.0
C1180 C 0.35051 0.65276 0.36025 0.0
C1181 C 0.34011 0.67763 0.3678 0.0
C1182 C 0.32386 0.6013 0.39155 0.0
C1183 C 0.33677 0.59211 0.38325 0.0
C1184 C 0.3056 0.5969 0.39146 0.0
C1185 C 0.33118 0.57867 0.37496 0.0
C1186 C 0.30056 0.58338 0.38303 0.0
N1187 N 0.31335 0.57462 0.37503 0.0
C1188 C 0.37389 0.62232 0.40758 0.0
C1189 C 0.37198 0.64933 0.41017 0.0
C1190 C 0.39277 0.62309 0.40644 0.0
N1191 N 0.36395 0.63533 0.40942 0.0
C1192 C 0.39086 0.65062 0.40927 0.0
C1193 C 0.40149 0.63737 0.40734 0.0
H1194 H 0.36711 0.61135 0.40715 0.0
H1195 H 0.3637 0.65948 0.41164 0.0
C1196 C 0.28573 0.63999 0.36896 0.0
N1197 N 0.30081 0.63133 0.37168 0.0
C1198 C 0.27776 0.64063 0.35244 0.0
C1199 C 0.301 0.62343 0.34188 0.0
C1200 C 0.30864 0.62329 0.3585 0.0
C1201 C 0.28536 0.63217 0.3387 0.0
H1202 H 0.27992 0.64642 0.37964 0.0
H1203 H 0.32093 0.61686 0.3608 0.0
O1204 O 0.3285 0.63191 0.43572 0.0
O1205 O 0.29419 0.62941 0.41381 0.0
O1206 O 0.32437 0.65048 0.40084 0.0
O1207 O 0.32927 0.61448 0.3997 0.0
H1208 H 0.34903 0.6089 0.44652 0.0
H1209 H 0.3447 0.65799 0.44402 0.0
H1210 H 0.37874 0.61176 0.46139 0.0
H1211 H 0.37439 0.66 0.45912 0.0
H1212 H 0.23397 0.61955 0.40756 0.0
H1213 H 0.28409 0.63542 0.44626 0.0
H1214 H 0.26533 0.62095 0.39577 0.0
H1215 H 0.25239 0.63395 0.4571 0.0
H1216 H 0.30184 0.67763 0.47486 0.0
H1217 H 0.27187 0.69086 0.42884 0.0
H1218 H 0.33343 0.56479 0.44021 0.0
H1219 H 0.28039 0.5788 0.45844 0.0
H1220 H 0.34321 0.63443 0.37759 0.0
H1221 H 0.32425 0.67948 0.3913 0.0
H1222 H 0.35794 0.64543 0.35141 0.0
H1223 H 0.33942 0.68972 0.36486 0.0
H1224 H 0.35096 0.59536 0.38318 0.0
H1225 H 0.29539 0.6038 0.3978 0.0
H1226 H 0.34103 0.57147 0.36847 0.0
H1227 H 0.28648 0.57985 0.38287 0.0
H1228 H 0.4005 0.61259 0.40517 0.0
H1229 H 0.39707 0.66184 0.40989 0.0
H1230 H 0.26568 0.6475 0.35048 0.0
H1231 H 0.30745 0.61697 0.33154 0.0
Li1232 Li 0.16283 0.6333 0.09037 0.0
Li1233 Li 0.18951 0.63094 0.10768 0.0
Li1234 Li 0.1892 0.64556 0.07883 0.0
Li1235 Li 0.18578 0.61675 0.07991 0.0
C1236 C 0.1651 0.65882 0.11038 0.0
N1237 N 0.14051 0.67621 0.12896 0.0
C1238 C 0.1563 0.6526 0.12487 0.0
C1239 C 0.16154 0.67391 0.10541 0.0
C1240 C 0.14387 0.66157 0.13406 0.0
C1241 C 0.14903 0.68251 0.11496 0.0
C1242 C 0.17725 0.60136 0.11026 0.0
C1243 C 0.2009 0.58359 0.11833 0.0
N1244 N 0.18846 0.57497 0.12698 0.0
C1245 C 0.1647 0.5923 0.11924 0.0
C1246 C 0.19551 0.59697 0.10981 0.0
C1247 C 0.17063 0.57901 0.12761 0.0
C1248 C 0.1275 0.62245 0.09618 0.0
N1249 N 0.13694 0.63528 0.09191 0.0
C1250 C 0.10932 0.64941 0.08863 0.0
C1251 C 0.12826 0.64864 0.08821 0.0
C1252 C 0.0992 0.6363 0.09291 0.0
C1253 C 0.10857 0.62271 0.09683 0.0
H1254 H 0.1347 0.61193 0.09885 0.0
H1255 H 0.13601 0.65862 0.08449 0.0
C1256 C 0.21554 0.63866 0.13327 0.0
N1257 N 0.19975 0.63099 0.13044 0.0
C1258 C 0.22313 0.63915 0.14996 0.0
C1259 C 0.1981 0.62377 0.16041 0.0
C1260 C 0.19089 0.62375 0.14361 0.0
C1261 C 0.2144 0.63156 0.16375 0.0
H1262 H 0.22219 0.64445 0.12257 0.0
H1263 H 0.17812 0.61807 0.14114 0.0
C1264 C 0.15632 0.63264 0.057 0.0
N1265 N 0.12343 0.63384 0.0397 0.0
C1266 C 0.14665 0.6192 0.05364 0.0
C1267 C 0.14928 0.6467 0.0515 0.0
C1268 C 0.13003 0.62004 0.04491 0.0
C1269 C 0.13264 0.64707 0.04277 0.0
C1270 C 0.2239 0.62797 0.08163 0.0
C1271 C 0.22815 0.63237 0.06461 0.0
C1272 C 0.23751 0.6221 0.09242 0.0
C1273 C 0.24595 0.63068 0.0586 0.0
C1274 C 0.25514 0.62058 0.08593 0.0
N1275 N 0.25896 0.62487 0.0693 0.0
C1276 C 0.21118 0.67183 0.07527 0.0
C1277 C 0.19535 0.66456 0.04967 0.0
C1278 C 0.21896 0.68429 0.06662 0.0
N1279 N 0.19956 0.66235 0.06672 0.0
C1280 C 0.20254 0.67701 0.04062 0.0
C1281 C 0.21447 0.68705 0.04913 0.0
H1282 H 0.21438 0.66968 0.0888 0.0
H1283 H 0.1865 0.65659 0.04305 0.0
C1284 C 0.17776 0.58672 0.06987 0.0
N1285 N 0.19052 0.59785 0.06803 0.0
C1286 C 0.17968 0.57273 0.06131 0.0
C1287 C 0.2079 0.58181 0.04904 0.0
C1288 C 0.20542 0.59565 0.05786 0.0
C1289 C 0.19488 0.57013 0.05066 0.0
H1290 H 0.16589 0.58879 0.07781 0.0
H1291 H 0.21532 0.60463 0.05641 0.0
O1292 O 0.17718 0.6502 0.10111 0.0
O1293 O 0.17154 0.61445 0.10207 0.0
O1294 O 0.17245 0.63205 0.06583 0.0
O1295 O 0.20665 0.62983 0.0879 0.0
H1296 H 0.15888 0.6409 0.12881 0.0
H1297 H 0.1683 0.67887 0.09422 0.0
H1298 H 0.13685 0.65688 0.14523 0.0
H1299 H 0.14606 0.69419 0.11123 0.0
H1300 H 0.21498 0.58007 0.11805 0.0
H1301 H 0.15053 0.59554 0.11982 0.0
H1302 H 0.20542 0.60373 0.10292 0.0
H1303 H 0.16106 0.57192 0.13462 0.0
H1304 H 0.1027 0.66006 0.08522 0.0
H1305 H 0.10138 0.61237 0.10041 0.0
H1306 H 0.23575 0.64525 0.15203 0.0
H1307 H 0.19081 0.618 0.17076 0.0
H1308 H 0.15183 0.60824 0.05785 0.0
H1309 H 0.15636 0.65727 0.05429 0.0
H1310 H 0.12237 0.60973 0.04231 0.0
H1311 H 0.12697 0.65788 0.03856 0.0
H1312 H 0.21776 0.63681 0.05603 0.0
H1313 H 0.2345 0.61877 0.10569 0.0
H1314 H 0.2494 0.63396 0.04543 0.0
H1315 H 0.2658 0.61603 0.09413 0.0
H1316 H 0.22812 0.69182 0.07357 0.0
H1317 H 0.199 0.67868 0.02706 0.0
H1318 H 0.16912 0.56418 0.06271 0.0
H1319 H 0.2199 0.58027 0.04108 0.0
Li1320 Li 0.30901 0.36998 0.60652 0.0
Li1321 Li 0.33807 0.36759 0.59085 0.0
Li1322 Li 0.31419 0.38336 0.5797 0.0
Li1323 Li 0.31062 0.3564 0.57881 0.0
C1324 C 0.32501 0.40125 0.60492 0.0
N1325 N 0.31952 0.43229 0.60947 0.0
C1326 C 0.33935 0.41152 0.60251 0.0
C1327 C 0.30789 0.40677 0.60969 0.0
C1328 C 0.33629 0.42717 0.60486 0.0
C1329 C 0.30539 0.4225 0.61193 0.0
C1330 C 0.32981 0.34485 0.61591 0.0
C1331 C 0.33473 0.32343 0.63513 0.0
N1332 N 0.34379 0.33277 0.64633 0.0
C1333 C 0.33914 0.35426 0.62762 0.0
C1334 C 0.32754 0.32933 0.61968 0.0
C1335 C 0.34612 0.34792 0.64292 0.0
C1336 C 0.28431 0.3602 0.6323 0.0
N1337 N 0.29832 0.36991 0.62904 0.0
C1338 C 0.29794 0.37884 0.65844 0.0
C1339 C 0.3053 0.37906 0.6417 0.0
C1340 C 0.28343 0.36895 0.66223 0.0
C1341 C 0.27665 0.35949 0.64894 0.0
H1342 H 0.27918 0.35295 0.62199 0.0
H1343 H 0.31673 0.38641 0.63886 0.0
C1344 C 0.3734 0.37814 0.5869 0.0
N1345 N 0.36382 0.36576 0.59239 0.0
C1346 C 0.39234 0.3779 0.58697 0.0
C1347 C 0.39129 0.35197 0.5979 0.0
C1348 C 0.37233 0.35272 0.59763 0.0
C1349 C 0.40156 0.36469 0.59254 0.0
H1350 H 0.36627 0.38814 0.58224 0.0
H1351 H 0.36445 0.34281 0.60132 0.0
C1352 C 0.27892 0.37281 0.57405 0.0
N1353 N 0.25212 0.37495 0.54898 0.0
C1354 C 0.28359 0.37392 0.55644 0.0
C1355 C 0.26064 0.37278 0.5789 0.0
C1356 C 0.26984 0.37499 0.54397 0.0
C1357 C 0.24728 0.37388 0.56603 0.0
C1358 C 0.34015 0.35964 0.55646 0.0
C1359 C 0.34653 0.36499 0.54044 0.0
C1360 C 0.34493 0.34495 0.56209 0.0
C1361 C 0.35757 0.35554 0.53027 0.0
C1362 C 0.35601 0.33585 0.55155 0.0
N1363 N 0.36204 0.34129 0.53599 0.0
C1364 C 0.32449 0.40667 0.55713 0.0
C1365 C 0.29481 0.41019 0.56844 0.0
C1366 C 0.32309 0.42013 0.54746 0.0
N1367 N 0.31044 0.40196 0.56726 0.0
C1368 C 0.29285 0.42379 0.55902 0.0
C1369 C 0.30709 0.42886 0.54827 0.0
H1370 H 0.33682 0.39996 0.55664 0.0
H1371 H 0.28388 0.40622 0.57669 0.0
C1372 C 0.29159 0.32862 0.57523 0.0
N1373 N 0.30065 0.33959 0.56616 0.0
C1374 C 0.28406 0.31606 0.56656 0.0
C1375 C 0.29545 0.32629 0.53941 0.0
C1376 C 0.30245 0.33877 0.54855 0.0
C1377 C 0.28615 0.31475 0.54845 0.0
H1378 H 0.29023 0.32965 0.58921 0.0
H1379 H 0.3093 0.3478 0.54153 0.0
O1380 O 0.32756 0.3859 0.60226 0.0
O1381 O 0.32262 0.35078 0.60093 0.0
O1382 O 0.29208 0.37171 0.58657 0.0
O1383 O 0.32941 0.36887 0.56653 0.0
H1384 H 0.35269 0.40749 0.59888 0.0
H1385 H 0.29657 0.399 0.61136 0.0
H1386 H 0.34725 0.43525 0.603 0.0
H1387 H 0.29219 0.42692 0.61551 0.0
H1388 H 0.3331 0.31142 0.63822 0.0
H1389 H 0.34104 0.3663 0.62492 0.0
H1390 H 0.32029 0.32192 0.61077 0.0
H1391 H 0.35338 0.35506 0.65209 0.0
H1392 H 0.30374 0.38614 0.6684 0.0
H1393 H 0.26543 0.35175 0.65135 0.0
H1394 H 0.39967 0.38801 0.5828 0.0
H1395 H 0.39781 0.34144 0.60194 0.0
H1396 H 0.29765 0.37401 0.55241 0.0
H1397 H 0.25682 0.37191 0.59248 0.0
H1398 H 0.27325 0.37587 0.5303 0.0
H1399 H 0.23307 0.37387 0.56961 0.0
H1400 H 0.34296 0.37633 0.5359 0.0
H1401 H 0.34014 0.34056 0.57441 0.0
H1402 H 0.36259 0.35953 0.51784 0.0
H1403 H 0.35979 0.32447 0.55574 0.0
H1404 H 0.33451 0.42374 0.53958 0.0
H1405 H 0.28026 0.43014 0.55994 0.0
H1406 H 0.27696 0.30735 0.57393 0.0
H1407 H 0.29709 0.32575 0.52541 0.0
C1408 C 0.27668 0.21352 0.04563 0.0
C1409 C 0.27843 0.19924 0.03737 0.0
C1410 C 0.27015 0.22619 0.03643 0.0
C1411 C 0.24225 0.23698 0.99899 0.0
H1412 H 0.26879 0.27529 0.00051 0.0
C1413 C 0.22299 0.28764 0.95455 0.0
C1414 C 0.22437 0.30253 0.9614 0.0
C1415 C 0.22991 0.2751 0.9637 0.0
C1416 C 0.26103 0.26477 1.00013 0.0
H1417 H 0.27441 0.18693 0.01317 0.0
H1418 H 0.26275 0.20904 0.99715 0.0
H1419 H 0.27974 0.25337 0.01715 0.0
H1420 H 0.23456 0.31583 0.9832 0.0
H1421 H 0.24581 0.29397 0.99947 0.0
H1422 H 0.22327 0.24834 0.98238 0.0
C1423 C 0.26652 0.21044 0.0107 0.0
C1424 C 0.26737 0.2522 0.00963 0.0
C1425 C 0.2733 0.19783 0.01981 0.0
C1426 C 0.23297 0.30453 0.9776 0.0
C1427 C 0.2397 0.29198 0.98685 0.0
C1428 C 0.23577 0.24959 0.98968 0.0
C1429 C 0.26498 0.22476 0.01888 0.0
C1430 C 0.25808 0.23817 0.00908 0.0
C1431 C 0.23821 0.27707 0.98005 0.0
C1432 C 0.24511 0.26364 0.99005 0.0
H1433 H 0.28065 0.21494 0.05912 0.0
H1434 H 0.26898 0.23709 0.04307 0.0
H1435 H 0.23471 0.22633 0.99851 0.0
H1436 H 0.21628 0.28559 0.94222 0.0
H1437 H 0.22876 0.26385 0.95789 0.0
C1438 C 0.28933 0.70873 0.47276 0.0
C1439 C 0.27807 0.69918 0.46278 0.0
C1440 C 0.28202 0.72107 0.48198 0.0
C1441 C 0.24086 0.74566 0.4849 0.0
H1442 H 0.26161 0.75659 0.5296 0.0
C1443 C 0.21988 0.80091 0.52067 0.0
C1444 C 0.21879 0.80056 0.53892 0.0
C1445 C 0.22717 0.78855 0.5115 0.0
C1446 C 0.25548 0.75361 0.51724 0.0
H1447 H 0.25034 0.69488 0.45476 0.0
H1448 H 0.23744 0.71614 0.47124 0.0
H1449 H 0.27363 0.73477 0.51373 0.0
H1450 H 0.22427 0.78695 0.5619 0.0
H1451 H 0.23653 0.76514 0.54592 0.0
H1452 H 0.2222 0.76409 0.48874 0.0
C1453 C 0.25199 0.7144 0.47161 0.0
C1454 C 0.26259 0.74121 0.50797 0.0
C1455 C 0.25935 0.70218 0.46221 0.0
C1456 C 0.22513 0.78759 0.54784 0.0
C1457 C 0.23222 0.77512 0.53865 0.0
C1458 C 0.23362 0.75795 0.49425 0.0
C1459 C 0.26324 0.72403 0.48162 0.0
C1460 C 0.25545 0.73711 0.49163 0.0
C1461 C 0.23334 0.77543 0.52035 0.0
C1462 C 0.24089 0.76216 0.51051 0.0
H1463 H 0.30385 0.70679 0.47325 0.0
H1464 H 0.29118 0.72839 0.48922 0.0
H1465 H 0.23512 0.743 0.47227 0.0
H1466 H 0.2153 0.81087 0.51349 0.0
H1467 H 0.22816 0.78938 0.49746 0.0
C1468 C 0.26173 0.80069 0.96677 0.0
C1469 C 0.28016 0.80099 0.96191 0.0
C1470 C 0.25465 0.78836 0.97618 0.0
C1471 C 0.26492 0.74804 0.98907 0.0
H1472 H 0.227 0.75541 0.0231 0.0
C1473 C 0.24095 0.70295 0.03951 0.0
C1474 C 0.22213 0.70036 0.03973 0.0
C1475 C 0.24817 0.71526 0.03015 0.0
C1476 C 0.23755 0.75321 0.01359 0.0
H1477 H 0.30545 0.78822 0.96304 0.0
H1478 H 0.29342 0.7673 0.98024 0.0
H1479 H 0.23949 0.77683 0.00664 0.0
H1480 H 0.19605 0.70869 0.03074 0.0
H1481 H 0.20866 0.73048 0.0147 0.0
H1482 H 0.26327 0.72443 0.99658 0.0
C1483 C 0.28427 0.7764 0.97641 0.0
C1484 C 0.24464 0.76545 0.00404 0.0
C1485 C 0.29128 0.7886 0.96676 0.0
C1486 C 0.21062 0.71042 0.03069 0.0
C1487 C 0.2178 0.7229 0.02161 0.0
C1488 C 0.25805 0.73586 0.99885 0.0
C1489 C 0.26584 0.77608 0.98125 0.0
C1490 C 0.25837 0.76304 0.99156 0.0
C1491 C 0.23664 0.72535 0.02115 0.0
C1492 C 0.24423 0.73832 0.01112 0.0
H1493 H 0.25275 0.81007 0.9635 0.0
H1494 H 0.24033 0.78845 0.97937 0.0
H1495 H 0.2752 0.74562 0.97936 0.0
H1496 H 0.25009 0.69529 0.04632 0.0
H1497 H 0.26274 0.71698 0.03003 0.0
C1498 C 0.28989 0.293 0.52762 0.0
C1499 C 0.27875 0.3014 0.53895 0.0
C1500 C 0.28293 0.28048 0.51847 0.0
C1501 C 0.24348 0.25364 0.51729 0.0
H1502 H 0.26211 0.245 0.47112 0.0
C1503 C 0.22266 0.19897 0.48029 0.0
C1504 C 0.22094 0.19976 0.46212 0.0
C1505 C 0.22999 0.21124 0.48961 0.0
C1506 C 0.25653 0.24732 0.48389 0.0
H1507 H 0.25162 0.30354 0.54949 0.0
H1508 H 0.23916 0.2821 0.533 0.0
H1509 H 0.2736 0.26688 0.4871 0.0
H1510 H 0.22527 0.21394 0.43939 0.0
H1511 H 0.23737 0.23566 0.45564 0.0
H1512 H 0.22569 0.2346 0.51369 0.0
C1513 C 0.25343 0.28477 0.53155 0.0
C1514 C 0.2634 0.25977 0.49324 0.0
C1515 C 0.26051 0.29712 0.54095 0.0
C1516 C 0.22664 0.21303 0.4534 0.0
C1517 C 0.23366 0.22543 0.46274 0.0
C1518 C 0.2364 0.24134 0.50782 0.0
C1519 C 0.26455 0.27625 0.52018 0.0
C1520 C 0.25705 0.26307 0.51012 0.0
C1521 C 0.23545 0.22471 0.481 0.0
C1522 C 0.24289 0.23795 0.49102 0.0
H1523 H 0.30407 0.296 0.52601 0.0
H1524 H 0.29205 0.27404 0.51019 0.0
H1525 H 0.23839 0.25562 0.53032 0.0
H1526 H 0.21852 0.18877 0.48727 0.0
H1527 H 0.23151 0.21006 0.50357 0.0
C1528 C 0.77378 0.71169 0.04663 0.0
C1529 C 0.78026 0.6988 0.03764 0.0
C1530 C 0.76685 0.72424 0.03747 0.0
C1531 C 0.74546 0.73523 0.99657 0.0
H1532 H 0.76415 0.77583 0.00632 0.0
C1533 C 0.72554 0.78712 0.95423 0.0
C1534 C 0.72336 0.8014 0.96244 0.0
C1535 C 0.73279 0.77466 0.9633 0.0
C1536 C 0.75853 0.76463 0.00359 0.0
H1537 H 0.78426 0.68871 0.01214 0.0
H1538 H 0.77178 0.71056 0.99613 0.0
H1539 H 0.77555 0.75395 0.02272 0.0
H1540 H 0.72755 0.81372 0.98668 0.0
H1541 H 0.73915 0.79188 0.00268 0.0
H1542 H 0.72802 0.7458 0.97788 0.0
C1543 C 0.77222 0.71099 0.01023 0.0
C1544 C 0.76515 0.7521 0.01296 0.0
C1545 C 0.77944 0.69857 0.01936 0.0
C1546 C 0.7287 0.80287 0.97996 0.0
C1547 C 0.73568 0.79035 0.9891 0.0
C1548 C 0.73861 0.74778 0.9874 0.0
C1549 C 0.76599 0.72398 0.0192 0.0
C1550 C 0.75874 0.73728 0.00948 0.0
C1551 C 0.73781 0.77606 0.98091 0.0
C1552 C 0.7451 0.76266 0.99072 0.0
H1553 H 0.77437 0.71217 0.06071 0.0
H1554 H 0.76202 0.7341 0.04468 0.0
H1555 H 0.74017 0.72392 0.99377 0.0
H1556 H 0.7214 0.78544 0.94084 0.0
H1557 H 0.73449 0.76393 0.95642 0.0
C1558 C 0.78604 0.20115 0.4801 0.0
C1559 C 0.77851 0.19732 0.46389 0.0
C1560 C 0.77944 0.21369 0.48947 0.0
C1561 C 0.75108 0.24888 0.48434 0.0
H1562 H 0.75185 0.24802 0.53479 0.0
C1563 C 0.73207 0.30228 0.52436 0.0
C1564 C 0.72313 0.30018 0.54031 0.0
C1565 C 0.73926 0.28976 0.51538 0.0
C1566 C 0.75128 0.24842 0.52071 0.0
H1567 H 0.75798 0.20323 0.44489 0.0
H1568 H 0.7458 0.22466 0.46154 0.0
H1569 H 0.76249 0.22595 0.51858 0.0
H1570 H 0.7145 0.28349 0.55939 0.0
H1571 H 0.72627 0.26147 0.54341 0.0
H1572 H 0.73888 0.27095 0.48645 0.0
C1573 C 0.75725 0.21843 0.46683 0.0
C1574 C 0.75772 0.23581 0.51136 0.0
C1575 C 0.76412 0.20609 0.4573 0.0
C1576 C 0.7215 0.28537 0.54717 0.0
C1577 C 0.72836 0.27279 0.53802 0.0
C1578 C 0.74433 0.26136 0.49369 0.0
C1579 C 0.7649 0.2225 0.48301 0.0
C1580 C 0.7578 0.23587 0.49303 0.0
C1581 C 0.73732 0.27479 0.52196 0.0
C1582 C 0.74441 0.26137 0.51202 0.0
H1583 H 0.79729 0.19461 0.48535 0.0
H1584 H 0.78598 0.21658 0.50166 0.0
H1585 H 0.75116 0.24955 0.47027 0.0
H1586 H 0.73364 0.31364 0.51891 0.0
H1587 H 0.74644 0.29188 0.50332 0.0
C1588 C 0.78476 0.29915 0.98089 0.0
C1589 C 0.78054 0.30081 0.96315 0.0
C1590 C 0.77772 0.28689 0.99043 0.0
C1591 C 0.76239 0.24776 0.98644 0.0
H1592 H 0.73484 0.25509 0.02866 0.0
C1593 C 0.72455 0.1989 0.0215 0.0
C1594 C 0.72277 0.19942 0.03974 0.0
C1595 C 0.73189 0.21125 0.01235 0.0
C1596 C 0.74279 0.25276 0.0171 0.0
H1597 H 0.76592 0.29099 0.94138 0.0
H1598 H 0.75399 0.26921 0.95802 0.0
H1599 H 0.7473 0.27668 0.01247 0.0
H1600 H 0.72764 0.21349 0.06259 0.0
H1601 H 0.74143 0.23455 0.04679 0.0
H1602 H 0.75858 0.2239 0.99123 0.0
C1603 C 0.76256 0.27751 0.96453 0.0
C1604 C 0.7498 0.26517 0.00778 0.0
C1605 C 0.76928 0.28996 0.95507 0.0
C1606 C 0.72895 0.21253 0.04859 0.0
C1607 C 0.73659 0.22478 0.03945 0.0
C1608 C 0.7557 0.23533 0.99593 0.0
C1609 C 0.76668 0.27591 0.9823 0.0
C1610 C 0.75952 0.26277 0.99231 0.0
C1611 C 0.73803 0.22439 0.02118 0.0
C1612 C 0.74566 0.23764 0.01133 0.0
H1613 H 0.79337 0.30743 0.98739 0.0
H1614 H 0.78113 0.28584 0.00411 0.0
H1615 H 0.77004 0.24564 0.97464 0.0
H1616 H 0.72031 0.18893 0.0142 0.0
H1617 H 0.73248 0.21053 0.99829 0.0
C1618 C 0.76039 0.80003 0.5317 0.0
C1619 C 0.77811 0.79974 0.53857 0.0
C1620 C 0.75368 0.78762 0.52219 0.0
C1621 C 0.7597 0.74636 0.51528 0.0
H1622 H 0.73416 0.75379 0.47193 0.0
C1623 C 0.73794 0.69699 0.46977 0.0
C1624 C 0.72099 0.69823 0.46144 0.0
C1625 C 0.7452 0.70936 0.47899 0.0
C1626 C 0.74105 0.75151 0.48412 0.0
H1627 H 0.80268 0.78611 0.54061 0.0
H1628 H 0.79078 0.76435 0.52429 0.0
H1629 H 0.74607 0.77534 0.48856 0.0
H1630 H 0.69854 0.71364 0.45612 0.0
H1631 H 0.71086 0.73496 0.47268 0.0
H1632 H 0.75443 0.72257 0.51107 0.0
C1633 C 0.78209 0.77419 0.52639 0.0
C1634 C 0.74791 0.76386 0.49362 0.0
C1635 C 0.78887 0.78665 0.53579 0.0
C1636 C 0.71151 0.71218 0.46256 0.0
C1637 C 0.71871 0.72451 0.47186 0.0
C1638 C 0.75271 0.734 0.50586 0.0
C1639 C 0.76445 0.77458 0.51943 0.0
C1640 C 0.75729 0.76143 0.5093 0.0
C1641 C 0.73566 0.72327 0.4802 0.0
C1642 C 0.74327 0.73641 0.49016 0.0
H1643 H 0.75158 0.80977 0.53385 0.0
H1644 H 0.73993 0.78815 0.51719 0.0
H1645 H 0.7667 0.74415 0.52744 0.0
H1646 H 0.74554 0.68638 0.46937 0.0
H1647 H 0.75839 0.70804 0.48506 0.0
C1648 C 0.29907 0.05616 0.02096 0.0
C1649 C 0.30126 0.05602 0.03916 0.0
C1650 C 0.29794 0.04245 0.01163 0.0
C1651 C 0.31086 0.00185 0.01458 0.0
H1652 H 0.27694 0.9965 0.97642 0.0
C1653 C 0.3029 0.94381 0.98014 0.0
C1654 C 0.30149 0.94395 0.96189 0.0
C1655 C 0.30162 0.95739 0.98964 0.0
C1656 C 0.28661 0.99787 0.98693 0.0
H1657 H 0.30331 0.04134 0.06186 0.0
H1658 H 0.30143 0.01744 0.04556 0.0
H1659 H 0.27702 0.02045 0.99287 0.0
H1660 H 0.2974 0.95843 0.93931 0.0
H1661 H 0.29532 0.98222 0.95589 0.0
H1662 H 0.32065 0.97944 0.00858 0.0
C1663 C 0.30087 0.02816 0.03849 0.0
C1664 C 0.28664 0.01158 0.99636 0.0
C1665 C 0.30196 0.04185 0.04782 0.0
C1666 C 0.29835 0.95794 0.95337 0.0
C1667 C 0.29715 0.97157 0.96289 0.0
C1668 C 0.31087 0.98819 0.00515 0.0
C1669 C 0.29902 0.02829 0.02027 0.0
C1670 C 0.29876 0.01371 0.01031 0.0
C1671 C 0.29899 0.97147 0.98112 0.0
C1672 C 0.29874 0.98601 0.99122 0.0
H1673 H 0.29874 0.06687 0.01386 0.0
H1674 H 0.29674 0.04294 0.99758 0.0
H1675 H 0.32059 0.00324 0.02504 0.0
H1676 H 0.30501 0.93316 0.98709 0.0
H1677 H 0.30271 0.95686 0.00369 0.0
C1678 C 0.17919 0.95383 0.53517 0.0
C1679 C 0.19457 0.94478 0.53858 0.0
C1680 C 0.1808 0.9677 0.52626 0.0
C1681 C 0.21157 0.98956 0.49723 0.0
H1682 H 0.18028 0.02327 0.51053 0.0
C1683 C 0.20239 0.0436 0.45449 0.0
C1684 C 0.19923 0.05765 0.46285 0.0
C1685 C 0.20344 0.03005 0.46414 0.0
C1686 C 0.18933 0.01408 0.50676 0.0
H1687 H 0.22378 0.94329 0.53519 0.0
H1688 H 0.22668 0.96776 0.52018 0.0
H1689 H 0.17922 0.99955 0.52691 0.0
H1690 H 0.19567 0.06869 0.48788 0.0
H1691 H 0.19801 0.04516 0.50479 0.0
H1692 H 0.22203 0.00431 0.47734 0.0
C1693 C 0.21329 0.96398 0.52414 0.0
C1694 C 0.18851 0.00035 0.51601 0.0
C1695 C 0.21166 0.95003 0.53296 0.0
C1696 C 0.19783 0.05797 0.48109 0.0
C1697 C 0.19909 0.04447 0.49075 0.0
C1698 C 0.2125 0.00337 0.48803 0.0
C1699 C 0.19787 0.97299 0.52068 0.0
C1700 C 0.19945 0.98784 0.51126 0.0
C1701 C 0.20154 0.03028 0.48239 0.0
C1702 C 0.20127 0.01577 0.49259 0.0
H1703 H 0.16584 0.95031 0.53952 0.0
H1704 H 0.16858 0.97419 0.52362 0.0
H1705 H 0.2201 0.98014 0.49309 0.0
H1706 H 0.20337 0.04303 0.44043 0.0
H1707 H 0.2051 0.01934 0.45722 0.0
C1708 C 0.68229 0.95705 0.95804 0.0
C1709 C 0.69527 0.94541 0.96027 0.0
C1710 C 0.68368 0.97078 0.96727 0.0
C1711 C 0.70391 0.98724 0.00697 0.0
H1712 H 0.69124 0.02586 0.98521 0.0
C1713 C 0.69001 0.04223 0.04649 0.0
C1714 C 0.6962 0.05622 0.03967 0.0
C1715 C 0.69132 0.02878 0.03673 0.0
C1716 C 0.69501 0.0152 0.99145 0.0
H1717 H 0.72 0.93916 0.97387 0.0
H1718 H 0.72261 0.96326 0.98975 0.0
H1719 H 0.69129 0.00247 0.9679 0.0
H1720 H 0.70876 0.06701 0.01725 0.0
H1721 H 0.71136 0.04348 0.00034 0.0
H1722 H 0.70778 0.0 0.03049 0.0
C1723 C 0.71123 0.96167 0.981 0.0
C1724 C 0.69483 0.00177 0.98157 0.0
C1725 C 0.70985 0.94793 0.97175 0.0
C1726 C 0.70401 0.0564 0.02296 0.0
C1727 C 0.70531 0.04295 0.01319 0.0
C1728 C 0.70407 0.00068 0.01686 0.0
C1729 C 0.6981 0.97322 0.97895 0.0
C1730 C 0.69913 0.98761 0.98925 0.0
C1731 C 0.69885 0.029 0.0199 0.0
C1732 C 0.69948 0.0148 0.00924 0.0
H1733 H 0.67102 0.95557 0.94913 0.0
H1734 H 0.67323 0.97937 0.96551 0.0
H1735 H 0.70713 0.97652 0.01333 0.0
H1736 H 0.6841 0.04167 0.0594 0.0
H1737 H 0.68606 0.01826 0.04224 0.0
C1738 C 0.80602 0.04052 0.453 0.0
C1739 C 0.80369 0.05472 0.4613 0.0
C1740 C 0.80514 0.02691 0.4625 0.0
C1741 C 0.78943 0.01041 0.50442 0.0
H1742 H 0.82468 0.97883 0.49359 0.0
C1743 C 0.80152 0.95721 0.54814 0.0
C1744 C 0.80412 0.94313 0.53962 0.0
C1745 C 0.8006 0.97085 0.53861 0.0
C1746 C 0.81461 0.98746 0.49665 0.0
H1747 H 0.79852 0.06575 0.48611 0.0
H1748 H 0.79712 0.04199 0.50275 0.0
H1749 H 0.8246 0.00252 0.47691 0.0
H1750 H 0.80709 0.93229 0.51435 0.0
H1751 H 0.80562 0.95604 0.49779 0.0
H1752 H 0.77962 0.99532 0.52432 0.0
C1753 C 0.79934 0.04136 0.48882 0.0
C1754 C 0.81454 0.00105 0.48707 0.0
C1755 C 0.80015 0.05498 0.47929 0.0
C1756 C 0.80545 0.94297 0.52135 0.0
C1757 C 0.80459 0.95658 0.51185 0.0
C1758 C 0.78955 0.99682 0.51405 0.0
C1759 C 0.80199 0.02716 0.48057 0.0
C1760 C 0.80192 0.01268 0.49079 0.0
C1761 C 0.80231 0.97069 0.52037 0.0
C1762 C 0.80212 0.98517 0.51024 0.0
H1763 H 0.80848 0.03993 0.43911 0.0
H1764 H 0.80688 0.01616 0.45566 0.0
H1765 H 0.77938 0.01905 0.50749 0.0
H1766 H 0.80066 0.95777 0.5622 0.0
H1767 H 0.79903 0.98155 0.54556 0.0
C1768 C 0.79279 0.4431 0.97984 0.0
C1769 C 0.79767 0.44324 0.96214 0.0
C1770 C 0.79111 0.45677 0.98914 0.0
C1771 C 0.78647 0.49885 0.98387 0.0
H1772 H 0.80765 0.49993 0.0301 0.0
C1773 C 0.80318 0.55515 0.01991 0.0
C1774 C 0.79991 0.55579 0.03794 0.0
C1775 C 0.80105 0.54143 0.01079 0.0
C1776 C 0.80143 0.49978 0.01731 0.0
H1777 H 0.80441 0.45789 0.94028 0.0
H1778 H 0.8016 0.48175 0.95651 0.0
H1779 H 0.80717 0.47597 0.01391 0.0
H1780 H 0.79165 0.54255 0.06048 0.0
H1781 H 0.78775 0.51861 0.0445 0.0
H1782 H 0.78107 0.52277 0.98721 0.0
C1783 C 0.79878 0.47108 0.96315 0.0
C1784 C 0.80114 0.48603 0.00802 0.0
C1785 C 0.80041 0.4574 0.95384 0.0
C1786 C 0.79415 0.54246 0.04658 0.0
C1787 C 0.79209 0.52871 0.03746 0.0
C1788 C 0.78681 0.51262 0.99315 0.0
C1789 C 0.79433 0.47093 0.98097 0.0
C1790 C 0.79378 0.48542 0.99113 0.0
C1791 C 0.79566 0.52801 0.01948 0.0
C1792 C 0.79442 0.51326 0.00993 0.0
H1793 H 0.7903 0.43238 0.98653 0.0
H1794 H 0.78734 0.45625 0.00276 0.0
H1795 H 0.78045 0.49873 0.971 0.0
H1796 H 0.80744 0.56526 0.01285 0.0
H1797 H 0.80406 0.54125 0.99698 0.0
C1798 C 0.69166 0.45787 0.54908 0.0
C1799 C 0.69501 0.44382 0.54075 0.0
C1800 C 0.69239 0.47158 0.53975 0.0
C1801 C 0.70958 0.48897 0.49896 0.0
H1802 H 0.6718 0.51894 0.50768 0.0
C1803 C 0.70983 0.54954 0.46803 0.0
C1804 C 0.69303 0.55524 0.46221 0.0
C1805 C 0.71069 0.53593 0.47762 0.0
C1806 C 0.68239 0.51065 0.50501 0.0
H1807 H 0.70177 0.43318 0.51607 0.0
H1808 H 0.70298 0.45712 0.49976 0.0
H1809 H 0.67228 0.49523 0.52433 0.0
H1810 H 0.66405 0.55084 0.4614 0.0
H1811 H 0.66555 0.52718 0.47808 0.0
H1812 H 0.71941 0.5043 0.47933 0.0
C1813 C 0.70007 0.45755 0.51358 0.0
C1814 C 0.68279 0.49714 0.51471 0.0
C1815 C 0.69937 0.44382 0.52292 0.0
C1816 C 0.67717 0.54693 0.46599 0.0
C1817 C 0.67802 0.53336 0.47555 0.0
C1818 C 0.70918 0.50252 0.48926 0.0
C1819 C 0.69643 0.47158 0.52185 0.0
C1820 C 0.69635 0.48611 0.51177 0.0
C1821 C 0.69477 0.52775 0.48159 0.0
C1822 C 0.69552 0.51348 0.49211 0.0
H1823 H 0.68855 0.45827 0.56286 0.0
H1824 H 0.68983 0.48221 0.54658 0.0
H1825 H 0.7203 0.48077 0.49648 0.0
H1826 H 0.72228 0.55575 0.46548 0.0
H1827 H 0.72378 0.532 0.48223 0.0
C1828 C 0.19189 0.54153 0.04886 0.0
C1829 C 0.19681 0.55546 0.041 0.0
C1830 C 0.19272 0.52783 0.0395 0.0
C1831 C 0.21291 0.50962 0.00062 0.0
H1832 H 0.17194 0.48198 0.00483 0.0
C1833 C 0.20256 0.45735 0.95515 0.0
C1834 C 0.19554 0.44392 0.96265 0.0
C1835 C 0.20359 0.47089 0.96485 0.0
C1836 C 0.18361 0.48945 0.00367 0.0
H1837 H 0.20668 0.56586 0.01715 0.0
H1838 H 0.20822 0.54191 0.00084 0.0
H1839 H 0.17236 0.50561 0.02159 0.0
H1840 H 0.18483 0.43398 0.9864 0.0
H1841 H 0.18678 0.45748 0.00334 0.0
H1842 H 0.22416 0.49342 0.98267 0.0
C1843 C 0.20388 0.54159 0.01431 0.0
C1844 C 0.18384 0.50302 0.01328 0.0
C1845 C 0.20301 0.55531 0.02367 0.0
C1846 C 0.18998 0.44422 0.98015 0.0
C1847 C 0.19108 0.4577 0.98985 0.0
C1848 C 0.21271 0.49601 0.99102 0.0
C1849 C 0.19853 0.52772 0.02207 0.0
C1850 C 0.19849 0.51325 0.01189 0.0
C1851 C 0.1977 0.47125 0.98228 0.0
C1852 C 0.19806 0.48574 0.99245 0.0
H1853 H 0.18739 0.54119 0.06228 0.0
H1854 H 0.18883 0.5173 0.04595 0.0
H1855 H 0.22448 0.51721 0.9994 0.0
H1856 H 0.20679 0.45752 0.94164 0.0
H1857 H 0.20858 0.48115 0.95855 0.0
C1858 C 0.3108 0.54125 0.45256 0.0
C1859 C 0.3048 0.555 0.46013 0.0
C1860 C 0.30997 0.52752 0.46183 0.0
C1861 C 0.28819 0.50871 0.4996 0.0
H1862 H 0.33012 0.48193 0.49723 0.0
C1863 C 0.29778 0.45642 0.54522 0.0
C1864 C 0.30537 0.44314 0.5379 0.0
C1865 C 0.29688 0.47 0.5356 0.0
C1866 C 0.31819 0.48916 0.49787 0.0
H1867 H 0.29304 0.56504 0.48338 0.0
H1868 H 0.29156 0.54104 0.49957 0.0
H1869 H 0.3299 0.50564 0.4806 0.0
H1870 H 0.31732 0.43352 0.51452 0.0
H1871 H 0.31566 0.45712 0.49772 0.0
H1872 H 0.27651 0.49219 0.51694 0.0
C1873 C 0.29673 0.54087 0.48637 0.0
C1874 C 0.31807 0.50277 0.48833 0.0
C1875 C 0.29757 0.55463 0.47708 0.0
C1876 C 0.3117 0.44364 0.52065 0.0
C1877 C 0.31077 0.45717 0.51102 0.0
C1878 C 0.2883 0.49506 0.50915 0.0
C1879 C 0.3031 0.52719 0.47892 0.0
C1880 C 0.30306 0.51269 0.48905 0.0
C1881 C 0.30353 0.47057 0.51843 0.0
C1882 C 0.30329 0.48511 0.50836 0.0
H1883 H 0.31614 0.54109 0.43941 0.0
H1884 H 0.31467 0.51712 0.4556 0.0
H1885 H 0.27634 0.51603 0.50029 0.0
H1886 H 0.29295 0.45644 0.55855 0.0
H1887 H 0.29141 0.48016 0.54176 0.0
C1888 C 0.56761 0.12665 0.10457 0.0
C1889 C 0.57731 0.13662 0.09364 0.0
C1890 C 0.54864 0.12693 0.1049 0.0
C1891 C 0.50892 0.15091 0.09332 0.0
H1892 H 0.48311 0.11225 0.09544 0.0
C1893 C 0.43146 0.14583 0.08198 0.0
C1894 C 0.42177 0.13586 0.09297 0.0
C1895 C 0.45043 0.14629 0.08247 0.0
C1896 C 0.49011 0.12315 0.09504 0.0
H1897 H 0.57475 0.15466 0.07441 0.0
H1898 H 0.54161 0.15507 0.07484 0.0
H1899 H 0.51619 0.11239 0.09548 0.0
H1900 H 0.42445 0.11887 0.11341 0.0
H1901 H 0.45754 0.11962 0.11418 0.0
H1902 H 0.48277 0.16164 0.09272 0.0
C1903 C 0.54866 0.14721 0.0834 0.0
C1904 C 0.50908 0.12324 0.09508 0.0
C1905 C 0.56764 0.14697 0.08313 0.0
C1906 C 0.4315 0.12648 0.10456 0.0
C1907 C 0.45046 0.12692 0.10502 0.0
C1908 C 0.48993 0.15082 0.09323 0.0
C1909 C 0.53893 0.13714 0.09423 0.0
C1910 C 0.51872 0.13711 0.09424 0.0
C1911 C 0.46014 0.13677 0.09392 0.0
C1912 C 0.48032 0.13693 0.09411 0.0
H1913 H 0.57469 0.11871 0.11302 0.0
H1914 H 0.5416 0.11922 0.11363 0.0
H1915 H 0.51591 0.16181 0.09291 0.0
H1916 H 0.42441 0.15305 0.07272 0.0
H1917 H 0.45751 0.15386 0.07359 0.0
C1918 C 0.93048 0.86869 0.60778 0.0
C1919 C 0.9209 0.86175 0.59401 0.0
C1920 C 0.94946 0.86839 0.60819 0.0
C1921 C 0.98896 0.8657 0.57965 0.0
H1922 H 0.01537 0.85456 0.62146 0.0
C1923 C 0.06672 0.85882 0.57908 0.0
C1924 C 0.07646 0.8637 0.59378 0.0
C1925 C 0.04777 0.8581 0.57944 0.0
C1926 C 0.00823 0.85792 0.60974 0.0
H1927 H 0.92395 0.84863 0.57016 0.0
H1928 H 0.95704 0.84853 0.57068 0.0
H1929 H 0.98221 0.85435 0.62162 0.0
H1930 H 0.07407 0.87172 0.62037 0.0
H1931 H 0.04095 0.8709 0.62092 0.0
H1932 H 0.01479 0.86969 0.56783 0.0
C1933 C 0.94979 0.85425 0.58109 0.0
C1934 C 0.98924 0.85773 0.60983 0.0
C1935 C 0.93082 0.85438 0.58077 0.0
C1936 C 0.06689 0.86778 0.60891 0.0
C1937 C 0.04791 0.86724 0.60922 0.0
C1938 C 0.00793 0.86607 0.5796 0.0
C1939 C 0.9593 0.86131 0.59475 0.0
C1940 C 0.97943 0.86155 0.59476 0.0
C1941 C 0.03808 0.86244 0.59446 0.0
C1942 C 0.01784 0.86212 0.59462 0.0
H1943 H 0.92336 0.87469 0.61806 0.0
H1944 H 0.95647 0.87404 0.6188 0.0
H1945 H 0.98173 0.86891 0.56792 0.0
H1946 H 0.07378 0.8554 0.56733 0.0
H1947 H 0.04074 0.85402 0.56796 0.0
C1948 C 0.43234 0.8525 0.89869 0.0
C1949 C 0.42287 0.86451 0.90678 0.0
C1950 C 0.45133 0.85222 0.89882 0.0
C1951 C 0.49141 0.87734 0.90602 0.0
H1952 H 0.51703 0.83878 0.91078 0.0
C1953 C 0.56825 0.87406 0.91976 0.0
C1954 C 0.57838 0.86382 0.90948 0.0
C1955 C 0.54929 0.87385 0.91937 0.0
C1956 C 0.51004 0.84961 0.90931 0.0
H1957 H 0.42576 0.8854 0.92172 0.0
H1958 H 0.45881 0.88476 0.92234 0.0
H1959 H 0.48388 0.83899 0.91033 0.0
H1960 H 0.57638 0.84526 0.89077 0.0
H1961 H 0.54323 0.84472 0.8904 0.0
H1962 H 0.51761 0.88796 0.90536 0.0
C1963 C 0.45168 0.87578 0.91544 0.0
C1964 C 0.49105 0.84975 0.90899 0.0
C1965 C 0.43272 0.87614 0.91514 0.0
C1966 C 0.56904 0.85317 0.89903 0.0
C1967 C 0.55005 0.85288 0.89877 0.0
C1968 C 0.51036 0.87721 0.90652 0.0
C1969 C 0.46125 0.86386 0.9072 0.0
C1970 C 0.48148 0.86363 0.90737 0.0
C1971 C 0.54 0.86331 0.90883 0.0
C1972 C 0.51987 0.86335 0.90819 0.0
H1973 H 0.42506 0.84346 0.89201 0.0
H1974 H 0.45822 0.84299 0.89211 0.0
H1975 H 0.48455 0.88821 0.90438 0.0
H1976 H 0.57496 0.88219 0.92825 0.0
H1977 H 0.54188 0.88186 0.92746 0.0
C1978 C 0.06674 0.12532 0.41185 0.0
C1979 C 0.07715 0.13774 0.40589 0.0
C1980 C 0.04779 0.12608 0.41176 0.0
C1981 C 0.00925 0.14483 0.39067 0.0
H1982 H 0.98275 0.13272 0.43211 0.0
C1983 C 0.93165 0.1336 0.39215 0.0
C1984 C 0.92194 0.1398 0.40628 0.0
C1985 C 0.95062 0.13424 0.39173 0.0
C1986 C 0.98998 0.13621 0.42048 0.0
H1987 H 0.07596 0.16056 0.3949 0.0
H1988 H 0.04272 0.16182 0.39455 0.0
H1989 H 0.01594 0.132 0.43213 0.0
H1990 H 0.92472 0.15207 0.43074 0.0
H1991 H 0.95781 0.15279 0.43017 0.0
H1992 H 0.98324 0.14888 0.37897 0.0
C1993 C 0.04927 0.15155 0.39935 0.0
C1994 C 0.00894 0.13568 0.42045 0.0
C1995 C 0.06825 0.15087 0.39966 0.0
C1996 C 0.93171 0.14687 0.41984 0.0
C1997 C 0.95067 0.14735 0.4195 0.0
C1998 C 0.99026 0.14517 0.39062 0.0
C1999 C 0.03887 0.13919 0.4055 0.0
C2000 C 0.01876 0.13997 0.40554 0.0
C2001 C 0.96032 0.14096 0.4055 0.0
C2002 C 0.98045 0.14087 0.40554 0.0
H2003 H 0.07326 0.11511 0.41685 0.0
H2004 H 0.04009 0.11635 0.41646 0.0
H2005 H 0.0165 0.14812 0.37897 0.0
H2006 H 0.92465 0.12785 0.38161 0.0
H2007 H 0.95773 0.12908 0.38086 0.0
C2008 C 0.06897 0.62411 0.08676 0.0
C2009 C 0.079 0.63667 0.09299 0.0
C2010 C 0.05001 0.62432 0.08701 0.0
C2011 C 0.01065 0.65013 0.08822 0.0
H2012 H 0.98498 0.61406 0.10438 0.0
C2013 C 0.93263 0.64925 0.09759 0.0
C2014 C 0.92345 0.63578 0.09286 0.0
C2015 C 0.95162 0.64966 0.09793 0.0
C2016 C 0.99191 0.62416 0.09962 0.0
H2017 H 0.07684 0.65934 0.10439 0.0
H2018 H 0.04368 0.65976 0.10458 0.0
H2019 H 0.01806 0.61424 0.10418 0.0
H2020 H 0.92693 0.6123 0.08434 0.0
H2021 H 0.95998 0.61306 0.08466 0.0
H2022 H 0.98451 0.65998 0.08339 0.0
C2023 C 0.05057 0.64979 0.09943 0.0
C2024 C 0.01087 0.62427 0.09954 0.0
C2025 C 0.06956 0.64954 0.09928 0.0
C2026 C 0.93363 0.62278 0.08833 0.0
C2027 C 0.95258 0.62321 0.08855 0.0
C2028 C 0.99165 0.64999 0.08818 0.0
C2029 C 0.0406 0.63714 0.09339 0.0
C2030 C 0.02045 0.63722 0.09378 0.0
C2031 C 0.96184 0.63663 0.09343 0.0
C2032 C 0.98204 0.63697 0.09381 0.0
H2033 H 0.07577 0.61414 0.08147 0.0
H2034 H 0.0427 0.6145 0.08199 0.0
H2035 H 0.01767 0.66022 0.08353 0.0
H2036 H 0.92513 0.65941 0.10131 0.0
H2037 H 0.95828 0.66013 0.10198 0.0
C2038 C 0.56778 0.3584 0.6076 0.0
C2039 C 0.57734 0.36576 0.59414 0.0
C2040 C 0.54879 0.35817 0.60763 0.0
C2041 C 0.5088 0.37803 0.5892 0.0
H2042 H 0.48332 0.34086 0.60212 0.0
C2043 C 0.43172 0.37099 0.57903 0.0
C2044 C 0.42175 0.36422 0.59262 0.0
C2045 C 0.45068 0.37095 0.57931 0.0
C2046 C 0.49024 0.35138 0.59865 0.0
H2047 H 0.57442 0.37845 0.57002 0.0
H2048 H 0.54134 0.37803 0.57006 0.0
H2049 H 0.51646 0.34135 0.60253 0.0
H2050 H 0.42397 0.35204 0.61715 0.0
H2051 H 0.45712 0.3519 0.61758 0.0
H2052 H 0.48259 0.38804 0.58525 0.0
C2053 C 0.5485 0.37266 0.58076 0.0
C2054 C 0.50923 0.35167 0.59891 0.0
C2055 C 0.56748 0.3729 0.58074 0.0
C2056 C 0.43123 0.3572 0.60637 0.0
C2057 C 0.45022 0.35713 0.60663 0.0
C2058 C 0.48983 0.37773 0.58892 0.0
C2059 C 0.53893 0.36528 0.59419 0.0
C2060 C 0.51873 0.36499 0.59414 0.0
C2061 C 0.46016 0.3641 0.59315 0.0
C2062 C 0.48033 0.36439 0.59359 0.0
H2063 H 0.57496 0.35298 0.61825 0.0
H2064 H 0.54184 0.35258 0.61831 0.0
H2065 H 0.51568 0.38857 0.58575 0.0
H2066 H 0.42486 0.37622 0.56806 0.0
H2067 H 0.45794 0.37617 0.56857 0.0
C2068 C 0.06856 0.37255 0.92072 0.0
C2069 C 0.07864 0.3631 0.90948 0.0
C2070 C 0.04961 0.37207 0.92072 0.0
C2071 C 0.01043 0.36062 0.8936 0.0
H2072 H 0.98405 0.36404 0.93715 0.0
C2073 C 0.93239 0.35355 0.89825 0.0
C2074 C 0.92314 0.3642 0.90873 0.0
C2075 C 0.95136 0.35293 0.89831 0.0
C2076 C 0.99123 0.36321 0.92487 0.0
H2077 H 0.07662 0.34571 0.88941 0.0
H2078 H 0.04352 0.34461 0.88969 0.0
H2079 H 0.01715 0.36359 0.93743 0.0
H2080 H 0.92654 0.38241 0.92765 0.0
H2081 H 0.95965 0.38144 0.92761 0.0
H2082 H 0.98444 0.36021 0.88108 0.0
C2083 C 0.05031 0.35255 0.89835 0.0
C2084 C 0.0102 0.36296 0.92502 0.0
C2085 C 0.06929 0.35305 0.89834 0.0
C2086 C 0.93327 0.37419 0.91929 0.0
C2087 C 0.95223 0.37352 0.91942 0.0
C2088 C 0.99144 0.36081 0.89346 0.0
C2089 C 0.04024 0.36208 0.90951 0.0
C2090 C 0.02004 0.36179 0.90938 0.0
C2091 C 0.96149 0.36288 0.90893 0.0
C2092 C 0.98164 0.36222 0.90909 0.0
H2093 H 0.07532 0.38028 0.92965 0.0
H2094 H 0.04229 0.3797 0.92935 0.0
H2095 H 0.01757 0.35992 0.8813 0.0
H2096 H 0.92496 0.34578 0.88988 0.0
H2097 H 0.9581 0.34454 0.89019 0.0
C2098 C 0.56809 0.65024 0.39951 0.0
C2099 C 0.5772 0.63748 0.40644 0.0
C2100 C 0.5491 0.65075 0.39928 0.0
C2101 C 0.50871 0.62549 0.40209 0.0
H2102 H 0.4831 0.66347 0.41107 0.0
C2103 C 0.43119 0.62986 0.39392 0.0
C2104 C 0.42157 0.63836 0.40641 0.0
C2105 C 0.45014 0.63039 0.39336 0.0
C2106 C 0.49003 0.65274 0.40867 0.0
H2107 H 0.57358 0.61551 0.41909 0.0
H2108 H 0.54054 0.61648 0.41896 0.0
H2109 H 0.5162 0.66306 0.41181 0.0
H2110 H 0.4242 0.6541 0.42808 0.0
H2111 H 0.45733 0.65481 0.42734 0.0
H2112 H 0.48262 0.61503 0.39955 0.0
C2113 C 0.54799 0.62592 0.41325 0.0
C2114 C 0.50903 0.65255 0.40887 0.0
C2115 C 0.56694 0.62537 0.41337 0.0
C2116 C 0.43127 0.64755 0.41819 0.0
C2117 C 0.45025 0.64798 0.41773 0.0
C2118 C 0.48975 0.62567 0.40198 0.0
C2119 C 0.53881 0.63856 0.40609 0.0
C2120 C 0.5186 0.6389 0.40564 0.0
C2121 C 0.45993 0.63932 0.40538 0.0
C2122 C 0.48015 0.63928 0.40528 0.0
H2123 H 0.57564 0.65968 0.39394 0.0
H2124 H 0.54249 0.66058 0.39347 0.0
H2125 H 0.51561 0.61482 0.39929 0.0
H2126 H 0.42404 0.62286 0.3845 0.0
H2127 H 0.45711 0.62382 0.38344 0.0
C2128 C 0.28607 0.12188 0.19342 0.0
C2129 C 0.2773 0.13005 0.18008 0.0
C2130 C 0.27913 0.12193 0.21036 0.0
C2131 C 0.24813 0.14336 0.23959 0.0
H2132 H 0.24968 0.10604 0.26691 0.0
C2133 C 0.21071 0.13698 0.30534 0.0
C2134 C 0.22035 0.12995 0.31899 0.0
C2135 C 0.21764 0.13698 0.28839 0.0
C2136 C 0.2493 0.11658 0.2595 0.0
H2137 H 0.25425 0.14452 0.17401 0.0
H2138 H 0.24198 0.14446 0.20351 0.0
H2139 H 0.26166 0.10606 0.23731 0.0
H2140 H 0.24498 0.11753 0.32546 0.0
H2141 H 0.2569 0.11735 0.29583 0.0
H2142 H 0.23556 0.1538 0.26176 0.0
C2143 C 0.25444 0.13826 0.20098 0.0
C2144 C 0.2562 0.11662 0.24254 0.0
C2145 C 0.26144 0.13828 0.18406 0.0
C2146 C 0.23704 0.12283 0.31523 0.0
C2147 C 0.2439 0.12276 0.29826 0.0
C2148 C 0.24113 0.14329 0.25651 0.0
C2149 C 0.26319 0.13008 0.21435 0.0
C2150 C 0.25574 0.13002 0.23237 0.0
C2151 C 0.23431 0.12987 0.28466 0.0
C2152 C 0.24167 0.12991 0.26666 0.0
H2153 H 0.29848 0.11561 0.19082 0.0
H2154 H 0.28643 0.11573 0.22037 0.0
H2155 H 0.24782 0.15395 0.23226 0.0
H2156 H 0.19767 0.14232 0.30767 0.0
H2157 H 0.2098 0.14236 0.27814 0.0
C2158 C 0.282 0.88411 0.80743 0.0
C2159 C 0.27875 0.87164 0.81857 0.0
C2160 C 0.27519 0.88413 0.79043 0.0
C2161 C 0.25775 0.85808 0.75617 0.0
H2162 H 0.23864 0.89551 0.73612 0.0
C2163 C 0.21831 0.85906 0.69116 0.0
C2164 C 0.22228 0.87099 0.67945 0.0
C2165 C 0.22541 0.85918 0.70804 0.0
C2166 C 0.2441 0.885 0.74147 0.0
H2167 H 0.26545 0.84958 0.82074 0.0
H2168 H 0.2534 0.84967 0.79118 0.0
H2169 H 0.25041 0.8957 0.76581 0.0
H2170 H 0.23712 0.89227 0.67631 0.0
H2171 H 0.24937 0.89253 0.70582 0.0
H2172 H 0.25128 0.84737 0.73187 0.0
C2173 C 0.26155 0.8593 0.79542 0.0
C2174 C 0.25087 0.88511 0.75849 0.0
C2175 C 0.26842 0.85925 0.81238 0.0
C2176 C 0.23354 0.88303 0.68506 0.0
C2177 C 0.24059 0.88317 0.70197 0.0
C2178 C 0.25092 0.85797 0.73919 0.0
C2179 C 0.2649 0.8717 0.7842 0.0
C2180 C 0.25776 0.87164 0.76606 0.0
C2181 C 0.23659 0.87125 0.71365 0.0
C2182 C 0.244 0.87142 0.73165 0.0
H2183 H 0.29011 0.89373 0.81174 0.0
H2184 H 0.27827 0.89377 0.78207 0.0
H2185 H 0.26325 0.84757 0.76146 0.0
H2186 H 0.20943 0.84975 0.6874 0.0
H2187 H 0.22186 0.84994 0.71681 0.0
C2188 C 0.72403 0.88265 0.81191 0.0
C2189 C 0.72279 0.86912 0.82174 0.0
C2190 C 0.73126 0.8824 0.79509 0.0
C2191 C 0.73894 0.85705 0.75779 0.0
H2192 H 0.77354 0.88806 0.74345 0.0
C2193 C 0.77502 0.85486 0.69095 0.0
C2194 C 0.77797 0.86881 0.68228 0.0
C2195 C 0.76855 0.85468 0.70806 0.0
C2196 C 0.7637 0.87943 0.74715 0.0
H2197 H 0.72804 0.84471 0.82165 0.0
H2198 H 0.74064 0.84425 0.79216 0.0
H2199 H 0.76182 0.88818 0.77314 0.0
H2200 H 0.77607 0.89348 0.6846 0.0
H2201 H 0.76445 0.89319 0.71431 0.0
H2202 H 0.7405 0.84845 0.73175 0.0
C2203 C 0.73602 0.85504 0.79751 0.0
C2204 C 0.75705 0.87948 0.76419 0.0
C2205 C 0.72896 0.85533 0.81441 0.0
C2206 C 0.77416 0.88256 0.69103 0.0
C2207 C 0.76756 0.88238 0.70809 0.0
C2208 C 0.74548 0.85707 0.74069 0.0
C2209 C 0.73724 0.86858 0.78768 0.0
C2210 C 0.74457 0.86831 0.76968 0.0
C2211 C 0.76475 0.86844 0.71687 0.0
C2212 C 0.75792 0.86828 0.73513 0.0
H2213 H 0.71951 0.89347 0.81728 0.0
H2214 H 0.7319 0.89299 0.78778 0.0
H2215 H 0.72916 0.84841 0.7616 0.0
H2216 H 0.77805 0.84409 0.68461 0.0
H2217 H 0.76682 0.84374 0.71449 0.0
C2218 C 0.77003 0.14399 0.31304 0.0
C2219 C 0.77686 0.13026 0.31997 0.0
C2220 C 0.763 0.1444 0.29612 0.0
C2221 C 0.74235 0.12045 0.26253 0.0
H2222 H 0.7594 0.15132 0.23013 0.0
C2223 C 0.72373 0.11786 0.18978 0.0
C2224 C 0.72062 0.13167 0.18094 0.0
C2225 C 0.73073 0.11789 0.20668 0.0
C2226 C 0.75425 0.14277 0.23905 0.0
H2227 H 0.78139 0.10617 0.31486 0.0
H2228 H 0.76879 0.10683 0.28537 0.0
H2229 H 0.77076 0.15117 0.25998 0.0
H2230 H 0.72227 0.15637 0.18282 0.0
H2231 H 0.73398 0.15652 0.21255 0.0
H2232 H 0.72549 0.11222 0.24192 0.0
C2233 C 0.769 0.11727 0.29298 0.0
C2234 C 0.76083 0.14266 0.25614 0.0
C2235 C 0.77629 0.11691 0.30978 0.0
C2236 C 0.72472 0.14554 0.18929 0.0
C2237 C 0.7315 0.1456 0.20631 0.0
C2238 C 0.73557 0.12068 0.24554 0.0
C2239 C 0.7624 0.13104 0.28595 0.0
C2240 C 0.75504 0.13144 0.26799 0.0
C2241 C 0.73454 0.13176 0.21527 0.0
C2242 C 0.74153 0.13176 0.23351 0.0
H2243 H 0.77043 0.15446 0.32059 0.0
H2244 H 0.7579 0.15514 0.29103 0.0
H2245 H 0.73749 0.11179 0.27149 0.0
H2246 H 0.72089 0.10699 0.18354 0.0
H2247 H 0.73328 0.107 0.21295 0.0
C2248 C 0.7149 0.61776 0.30616 0.0
C2249 C 0.72135 0.62815 0.31867 0.0
C2250 C 0.72189 0.61786 0.28924 0.0
C2251 C 0.74817 0.64216 0.25839 0.0
H2252 H 0.75404 0.60388 0.23342 0.0
C2253 C 0.78792 0.63703 0.19369 0.0
C2254 C 0.77934 0.62884 0.1802 0.0
C2255 C 0.78075 0.63698 0.21054 0.0
C2256 C 0.75235 0.61466 0.24021 0.0
H2257 H 0.7404 0.64658 0.32343 0.0
H2258 H 0.753 0.6465 0.29408 0.0
H2259 H 0.74202 0.60365 0.26301 0.0
H2260 H 0.75629 0.61429 0.17402 0.0
H2261 H 0.74416 0.61388 0.20356 0.0
H2262 H 0.75896 0.65307 0.23564 0.0
C2263 C 0.74218 0.63855 0.29712 0.0
C2264 C 0.74539 0.61456 0.25715 0.0
C2265 C 0.73502 0.63856 0.31397 0.0
C2266 C 0.76348 0.6205 0.18409 0.0
C2267 C 0.75646 0.62031 0.201 0.0
C2268 C 0.75534 0.64223 0.24154 0.0
C2269 C 0.73566 0.62823 0.28449 0.0
C2270 C 0.74316 0.62832 0.26646 0.0
C2271 C 0.76499 0.62859 0.21437 0.0
C2272 C 0.75745 0.62849 0.23227 0.0
H2273 H 0.70421 0.60973 0.30939 0.0
H2274 H 0.71628 0.60994 0.27982 0.0
H2275 H 0.74634 0.65301 0.26499 0.0
H2276 H 0.80033 0.64333 0.19132 0.0
H2277 H 0.78772 0.64331 0.22066 0.0
C2278 C 0.71452 0.38014 0.69383 0.0
C2279 C 0.72207 0.3706 0.68097 0.0
C2280 C 0.72161 0.38029 0.71072 0.0
C2281 C 0.7486 0.3572 0.74143 0.0
H2282 H 0.75519 0.39582 0.76553 0.0
C2283 C 0.78649 0.36124 0.80705 0.0
C2284 C 0.77941 0.37121 0.81972 0.0
C2285 C 0.77959 0.36126 0.7901 0.0
C2286 C 0.75323 0.38492 0.75907 0.0
H2287 H 0.7432 0.3539 0.67577 0.0
H2288 H 0.75547 0.35409 0.70527 0.0
H2289 H 0.74292 0.39565 0.73603 0.0
H2290 H 0.75936 0.38889 0.82455 0.0
H2291 H 0.74722 0.38885 0.795 0.0
H2292 H 0.75877 0.34644 0.76448 0.0
C2293 C 0.74392 0.36132 0.70232 0.0
C2294 C 0.74622 0.38483 0.74215 0.0
C2295 C 0.73687 0.3612 0.68542 0.0
C2296 C 0.76528 0.38122 0.81503 0.0
C2297 C 0.75834 0.3812 0.79808 0.0
C2298 C 0.75555 0.35728 0.75836 0.0
C2299 C 0.73638 0.37087 0.71516 0.0
C2300 C 0.74384 0.37097 0.73313 0.0
C2301 C 0.7654 0.37122 0.78541 0.0
C2302 C 0.75797 0.37114 0.76739 0.0
H2303 H 0.70293 0.38733 0.69095 0.0
H2304 H 0.71533 0.3876 0.72038 0.0
H2305 H 0.74668 0.34631 0.73492 0.0
H2306 H 0.79757 0.35356 0.81018 0.0
H2307 H 0.78557 0.35361 0.7806 0.0
C2308 C 0.27167 0.38218 0.68889 0.0
C2309 C 0.27556 0.3685 0.68 0.0
C2310 C 0.26453 0.38182 0.70574 0.0
C2311 C 0.26196 0.35801 0.74487 0.0
H2312 H 0.22143 0.38425 0.75704 0.0
C2313 C 0.22715 0.3552 0.8124 0.0
C2314 C 0.22109 0.36904 0.8197 0.0
C2315 C 0.2336 0.35475 0.79527 0.0
C2316 C 0.23292 0.377 0.75396 0.0
H2317 H 0.27515 0.34374 0.6818 0.0
H2318 H 0.26275 0.34312 0.71139 0.0
H2319 H 0.23295 0.38421 0.72729 0.0
H2320 H 0.21754 0.39331 0.81503 0.0
H2321 H 0.22919 0.39265 0.78535 0.0
H2322 H 0.26227 0.35105 0.77158 0.0
C2323 C 0.26521 0.3541 0.70526 0.0
C2324 C 0.23946 0.37695 0.73688 0.0
C2325 C 0.27215 0.35446 0.68831 0.0
C2326 C 0.22188 0.38244 0.80964 0.0
C2327 C 0.22849 0.38203 0.7926 0.0
C2328 C 0.25554 0.35818 0.76201 0.0
C2329 C 0.26132 0.36779 0.71414 0.0
C2330 C 0.25408 0.3675 0.73217 0.0
C2331 C 0.2343 0.36816 0.78512 0.0
C2332 C 0.24098 0.36773 0.7668 0.0
H2333 H 0.27404 0.39317 0.68276 0.0
H2334 H 0.2618 0.39255 0.71232 0.0
H2335 H 0.27339 0.35073 0.74164 0.0
H2336 H 0.2265 0.34466 0.8198 0.0
H2337 H 0.2377 0.34383 0.78989 0.0
C2338 C 0.27434 0.61877 0.31189 0.0
C2339 C 0.27717 0.63247 0.32107 0.0
C2340 C 0.26704 0.61901 0.2951 0.0
C2341 C 0.26281 0.64307 0.25649 0.0
H2342 H 0.22355 0.61561 0.24398 0.0
C2343 C 0.22787 0.64572 0.18907 0.0
C2344 C 0.22206 0.63188 0.18161 0.0
C2345 C 0.23441 0.64607 0.20617 0.0
C2346 C 0.2347 0.6232 0.24714 0.0
H2347 H 0.27469 0.65717 0.31991 0.0
H2348 H 0.2621 0.6576 0.29037 0.0
H2349 H 0.23518 0.61566 0.27369 0.0
H2350 H 0.21904 0.60751 0.18592 0.0
H2351 H 0.23097 0.60799 0.21551 0.0
H2352 H 0.26278 0.65033 0.2299 0.0
C2353 C 0.26546 0.64669 0.29624 0.0
C2354 C 0.24128 0.62327 0.2642 0.0
C2355 C 0.27252 0.64643 0.31315 0.0
C2356 C 0.22321 0.61837 0.19145 0.0
C2357 C 0.22996 0.61868 0.20845 0.0
C2358 C 0.2564 0.64287 0.23935 0.0
C2359 C 0.26266 0.63297 0.28706 0.0
C2360 C 0.25541 0.63318 0.26904 0.0
C2361 C 0.2355 0.63256 0.21612 0.0
C2362 C 0.24227 0.63291 0.23442 0.0
H2363 H 0.2777 0.60784 0.31774 0.0
H2364 H 0.26513 0.60827 0.28827 0.0
H2365 H 0.27387 0.6507 0.25983 0.0
H2366 H 0.22693 0.65633 0.18183 0.0
H2367 H 0.23826 0.65701 0.21168 0.0
loop_
_geom_bond_atom_site_label_1
_geom_bond_atom_site_label_2
_geom_bond_distance
_geom_bond_site_symmetry_2
_ccdc_geom_bond_type
Li0 N17 1.990 . S
Li0 O60 1.956 . S
Li0 O61 1.970 . S
Li0 O62 1.961 . S
Li1 N25 1.990 . S
Li1 O60 1.970 . S
Li1 O61 1.956 . S
Li1 O63 1.961 . S
Li2 N47 1.990 . S
Li2 O60 1.961 . S
Li2 O62 1.956 . S
Li2 O63 1.970 . S
Li3 N53 1.990 . S
Li3 O61 1.961 . S
Li3 O62 1.970 . S
Li3 O63 1.956 . S
C4 C6 1.348 . S
C4 C7 1.356 . S
C4 O60 1.325 . S
N5 C8 1.314 . S
N5 C9 1.279 . S
C6 C4 1.348 . S
C6 C8 1.353 . S
C6 H64 0.929 . S
C7 C4 1.356 . S
C7 C9 1.358 . S
C7 H65 0.930 . S
C8 N5 1.314 . S
C8 C6 1.353 . S
C8 H66 0.930 . S
C9 N5 1.279 . S
C9 C7 1.358 . S
C9 H67 0.930 . S
C10 C13 1.348 . S
C10 C14 1.356 . S
C10 O61 1.325 . S
C11 N12 1.279 . S
C11 C14 1.358 . S
C11 H68 0.930 . S
N12 C11 1.279 . S
N12 C15 1.314 . S
C13 C10 1.348 . S
C13 C15 1.353 . S
C13 H69 0.929 . S
C14 C10 1.356 . S
C14 C11 1.358 . S
C14 H70 0.930 . S
C15 N12 1.314 . S
C15 C13 1.353 . S
C15 H71 0.930 . S
C16 N17 1.314 . S
C16 C21 1.353 . S
C16 H22 0.930 . S
N17 Li0 1.990 . S
N17 C16 1.314 . S
N17 C19 1.279 . S
C18 C19 1.358 . S
C18 C20 1.356 . S
C18 H72 0.930 . S
C19 N17 1.279 . S
C19 C18 1.358 . S
C19 H23 0.930 . S
C20 C18 1.356 . S
C20 C21 1.348 . S
C21 C16 1.353 . S
C21 C20 1.348 . S
C21 H73 0.929 . S
H22 C16 0.930 . S
H23 C19 0.930 . S
C24 N25 1.314 . S
C24 C26 1.353 . S
C24 H30 0.930 . S
N25 Li1 1.990 . S
N25 C24 1.314 . S
N25 C28 1.279 . S
C26 C24 1.353 . S
C26 C29 1.348 . S
C26 H74 0.929 . S
C27 C28 1.358 . S
C27 C29 1.356 . S
C27 H75 0.930 . S
C28 N25 1.279 . S
C28 C27 1.358 . S
C28 H31 0.930 . S
C29 C26 1.348 . S
C29 C27 1.356 . S
H30 C24 0.930 . S
H31 C28 0.930 . S
C32 C34 1.348 . S
C32 C35 1.356 . S
C32 O62 1.325 . S
N33 C36 1.314 . S
N33 C37 1.279 . S
C34 C32 1.348 . S
C34 C36 1.353 . S
C34 H76 0.929 . S
C35 C32 1.356 . S
C35 C37 1.358 . S
C35 H77 0.930 . S
C36 N33 1.314 . S
C36 C34 1.353 . S
C36 H78 0.930 . S
C37 N33 1.279 . S
C37 C35 1.358 . S
C37 H79 0.930 . S
C38 C39 1.348 . S
C38 C40 1.356 . S
C38 O63 1.325 . S
C39 C38 1.348 . S
C39 C41 1.353 . S
C39 H80 0.929 . S
C40 C38 1.356 . S
C40 C42 1.358 . S
C40 H81 0.930 . S
C41 C39 1.353 . S
C41 N43 1.314 . S
C41 H82 0.930 . S
C42 C40 1.358 . S
C42 N43 1.279 . S
C42 H83 0.930 . S
N43 C41 1.314 . S
N43 C42 1.279 . S
C44 C46 1.353 . S
C44 N47 1.314 . S
C44 H50 0.930 . S
C45 N47 1.279 . S
C45 C48 1.358 . S
C45 H51 0.930 . S
C46 C44 1.353 . S
C46 C49 1.348 . S
C46 H84 0.929 . S
N47 Li2 1.990 . S
N47 C44 1.314 . S
N47 C45 1.279 . S
C48 C45 1.358 . S
C48 C49 1.356 . S
C48 H85 0.930 . S
C49 C46 1.348 . S
C49 C48 1.356 . S
H50 C44 0.930 . S
H51 C45 0.930 . S
C52 N53 1.314 . S
C52 C54 1.353 . S
C52 H58 0.930 . S
N53 Li3 1.990 . S
N53 C52 1.314 . S
N53 C56 1.279 . S
C54 C52 1.353 . S
C54 C57 1.348 . S
C54 H86 0.929 . S
C55 C56 1.358 . S
C55 C57 1.356 . S
C55 H87 0.930 . S
C56 N53 1.279 . S
C56 C55 1.358 . S
C56 H59 0.930 . S
C57 C54 1.348 . S
C57 C55 1.356 . S
H58 C52 0.930 . S
H59 C56 0.930 . S
O60 Li0 1.956 . S
O60 Li1 1.970 . S
O60 Li2 1.961 . S
O60 C4 1.325 . S
O61 Li0 1.970 . S
O61 Li1 1.956 . S
O61 Li3 1.961 . S
O61 C10 1.325 . S
O62 Li0 1.961 . S
O62 Li2 1.956 . S
O62 Li3 1.970 . S
O62 C32 1.325 . S
O63 Li1 1.961 . S
O63 Li2 1.970 . S
O63 Li3 1.956 . S
O63 C38 1.325 . S
H64 C6 0.929 . S
H65 C7 0.930 . S
H66 C8 0.930 . S
H67 C9 0.930 . S
H68 C11 0.930 . S
H69 C13 0.929 . S
H70 C14 0.930 . S
H71 C15 0.930 . S
H72 C18 0.930 . S
H73 C21 0.929 . S
H74 C26 0.929 . S
H75 C27 0.930 . S
H76 C34 0.929 . S
H77 C35 0.930 . S
H78 C36 0.930 . S
H79 C37 0.930 . S
H80 C39 0.929 . S
H81 C40 0.930 . S
H82 C41 0.930 . S
H83 C42 0.930 . S
H84 C46 0.929 . S
H85 C48 0.930 . S
H86 C54 0.929 . S
H87 C55 0.930 . S
Li88 N105 1.990 . S
Li88 O148 1.956 . S
Li88 O149 1.970 . S
Li88 O150 1.961 . S
Li89 N113 1.990 . S
Li89 O148 1.970 . S
Li89 O149 1.956 . S
Li89 O151 1.961 . S
Li90 N135 1.990 . S
Li90 O148 1.961 . S
Li90 O150 1.956 . S
Li90 O151 1.970 . S
Li91 N141 1.990 . S
Li91 O149 1.961 . S
Li91 O150 1.970 . S
Li91 O151 1.956 . S
C92 C94 1.348 . S
C92 C95 1.356 . S
C92 O148 1.325 . S
N93 C96 1.314 . S
N93 C97 1.279 . S
C94 C92 1.348 . S
C94 C96 1.353 . S
C94 H152 0.929 . S
C95 C92 1.356 . S
C95 C97 1.358 . S
C95 H153 0.930 . S
C96 N93 1.314 . S
C96 C94 1.353 . S
C96 H154 0.930 . S
C97 N93 1.279 . S
C97 C95 1.358 . S
C97 H155 0.930 . S
C98 C101 1.348 . S
C98 C102 1.356 . S
C98 O149 1.325 . S
C99 N100 1.279 . S
C99 C102 1.358 . S
C99 H156 0.930 . S
N100 C99 1.279 . S
N100 C103 1.314 . S
C101 C98 1.348 . S
C101 C103 1.353 . S
C101 H157 0.929 . S
C102 C98 1.356 . S
C102 C99 1.358 . S
C102 H158 0.930 . S
C103 N100 1.314 . S
C103 C101 1.353 . S
C103 H159 0.930 . S
C104 N105 1.314 . S
C104 C109 1.353 . S
C104 H110 0.930 . S
N105 Li88 1.990 . S
N105 C104 1.314 . S
N105 C107 1.279 . S
C106 C107 1.358 . S
C106 C108 1.356 . S
C106 H160 0.930 . S
C107 N105 1.279 . S
C107 C106 1.358 . S
C107 H111 0.930 . S
C108 C106 1.356 . S
C108 C109 1.348 . S
C109 C104 1.353 . S
C109 C108 1.348 . S
C109 H161 0.929 . S
H110 C104 0.930 . S
H111 C107 0.930 . S
C112 N113 1.314 . S
C112 C114 1.353 . S
C112 H118 0.930 . S
N113 Li89 1.990 . S
N113 C112 1.314 . S
N113 C116 1.279 . S
C114 C112 1.353 . S
C114 C117 1.348 . S
C114 H162 0.929 . S
C115 C116 1.358 . S
C115 C117 1.356 . S
C115 H163 0.930 . S
C116 N113 1.279 . S
C116 C115 1.358 . S
C116 H119 0.930 . S
C117 C114 1.348 . S
C117 C115 1.356 . S
H118 C112 0.930 . S
H119 C116 0.930 . S
C120 C122 1.348 . S
C120 C123 1.356 . S
C120 O150 1.325 . S
N121 C124 1.314 . S
N121 C125 1.279 . S
C122 C120 1.348 . S
C122 C124 1.353 . S
C122 H164 0.929 . S
C123 C120 1.356 . S
C123 C125 1.358 . S
C123 H165 0.930 . S
C124 N121 1.314 . S
C124 C122 1.353 . S
C124 H166 0.930 . S
C125 N121 1.279 . S
C125 C123 1.358 . S
C125 H167 0.930 . S
C126 C127 1.348 . S
C126 C128 1.356 . S
C126 O151 1.325 . S
C127 C126 1.348 . S
C127 C129 1.353 . S
C127 H168 0.929 . S
C128 C126 1.356 . S
C128 C130 1.358 . S
C128 H169 0.930 . S
C129 C127 1.353 . S
C129 N131 1.314 . S
C129 H170 0.930 . S
C130 C128 1.358 . S
C130 N131 1.279 . S
C130 H171 0.930 . S
N131 C129 1.314 . S
N131 C130 1.279 . S
C132 C134 1.353 . S
C132 N135 1.314 . S
C132 H138 0.930 . S
C133 N135 1.279 . S
C133 C136 1.358 . S
C133 H139 0.930 . S
C134 C132 1.353 . S
C134 C137 1.348 . S
C134 H172 0.929 . S
N135 Li90 1.990 . S
N135 C132 1.314 . S
N135 C133 1.279 . S
C136 C133 1.358 . S
C136 C137 1.356 . S
C136 H173 0.930 . S
C137 C134 1.348 . S
C137 C136 1.356 . S
H138 C132 0.930 . S
H139 C133 0.930 . S
C140 N141 1.314 . S
C140 C142 1.353 . S
C140 H146 0.930 . S
N141 Li91 1.990 . S
N141 C140 1.314 . S
N141 C144 1.279 . S
C142 C140 1.353 . S
C142 C145 1.348 . S
C142 H174 0.929 . S
C143 C144 1.358 . S
C143 C145 1.356 . S
C143 H175 0.930 . S
C144 N141 1.279 . S
C144 C143 1.358 . S
C144 H147 0.930 . S
C145 C142 1.348 . S
C145 C143 1.356 . S
H146 C140 0.930 . S
H147 C144 0.930 . S
O148 Li88 1.956 . S
O148 Li89 1.970 . S
O148 Li90 1.961 . S
O148 C92 1.325 . S
O149 Li88 1.970 . S
O149 Li89 1.956 . S
O149 Li91 1.961 . S
O149 C98 1.325 . S
O150 Li88 1.961 . S
O150 Li90 1.956 . S
O150 Li91 1.970 . S
O150 C120 1.325 . S
O151 Li89 1.961 . S
O151 Li90 1.970 . S
O151 Li91 1.956 . S
O151 C126 1.325 . S
H152 C94 0.929 . S
H153 C95 0.930 . S
H154 C96 0.930 . S
H155 C97 0.930 . S
H156 C99 0.930 . S
H157 C101 0.929 . S
H158 C102 0.930 . S
H159 C103 0.930 . S
H160 C106 0.930 . S
H161 C109 0.929 . S
H162 C114 0.929 . S
H163 C115 0.930 . S
H164 C122 0.929 . S
H165 C123 0.930 . S
H166 C124 0.930 . S
H167 C125 0.930 . S
H168 C127 0.929 . S
H169 C128 0.930 . S
H170 C129 0.930 . S
H171 C130 0.930 . S
H172 C134 0.929 . S
H173 C136 0.930 . S
H174 C142 0.929 . S
H175 C143 0.930 . S
Li176 N193 1.990 . S
Li176 O236 1.956 . S
Li176 O237 1.970 . S
Li176 O238 1.961 . S
Li177 N201 1.990 . S
Li177 O236 1.970 . S
Li177 O237 1.956 . S
Li177 O239 1.961 . S
Li178 N223 1.990 . S
Li178 O236 1.961 . S
Li178 O238 1.956 . S
Li178 O239 1.970 . S
Li179 N229 1.990 . S
Li179 O237 1.961 . S
Li179 O238 1.970 . S
Li179 O239 1.956 . S
C180 C182 1.348 . S
C180 C183 1.356 . S
C180 O236 1.325 . S
N181 C184 1.314 . S
N181 C185 1.279 . S
C182 C180 1.348 . S
C182 C184 1.353 . S
C182 H240 0.929 . S
C183 C180 1.356 . S
C183 C185 1.358 . S
C183 H241 0.930 . S
C184 N181 1.314 . S
C184 C182 1.353 . S
C184 H242 0.930 . S
C185 N181 1.279 . S
C185 C183 1.358 . S
C185 H243 0.930 . S
C186 C189 1.348 . S
C186 C190 1.356 . S
C186 O237 1.325 . S
C187 N188 1.279 . S
C187 C190 1.358 . S
C187 H244 0.930 . S
N188 C187 1.279 . S
N188 C191 1.314 . S
C189 C186 1.348 . S
C189 C191 1.353 . S
C189 H245 0.929 . S
C190 C186 1.356 . S
C190 C187 1.358 . S
C190 H246 0.930 . S
C191 N188 1.314 . S
C191 C189 1.353 . S
C191 H247 0.930 . S
C192 N193 1.314 . S
C192 C197 1.353 . S
C192 H198 0.930 . S
N193 Li176 1.990 . S
N193 C192 1.314 . S
N193 C195 1.279 . S
C194 C195 1.358 . S
C194 C196 1.356 . S
C194 H248 0.930 . S
C195 N193 1.279 . S
C195 C194 1.358 . S
C195 H199 0.930 . S
C196 C194 1.356 . S
C196 C197 1.348 . S
C197 C192 1.353 . S
C197 C196 1.348 . S
C197 H249 0.929 . S
H198 C192 0.930 . S
H199 C195 0.930 . S
C200 N201 1.314 . S
C200 C202 1.353 . S
C200 H206 0.930 . S
N201 Li177 1.990 . S
N201 C200 1.314 . S
N201 C204 1.279 . S
C202 C200 1.353 . S
C202 C205 1.348 . S
C202 H250 0.929 . S
C203 C204 1.358 . S
C203 C205 1.356 . S
C203 H251 0.930 . S
C204 N201 1.279 . S
C204 C203 1.358 . S
C204 H207 0.930 . S
C205 C202 1.348 . S
C205 C203 1.356 . S
H206 C200 0.930 . S
H207 C204 0.930 . S
C208 C210 1.348 . S
C208 C211 1.356 . S
C208 O238 1.325 . S
N209 C212 1.314 . S
N209 C213 1.279 . S
C210 C208 1.348 . S
C210 C212 1.353 . S
C210 H252 0.929 . S
C211 C208 1.356 . S
C211 C213 1.358 . S
C211 H253 0.930 . S
C212 N209 1.314 . S
C212 C210 1.353 . S
C212 H254 0.930 . S
C213 N209 1.279 . S
C213 C211 1.358 . S
C213 H255 0.930 . S
C214 C215 1.348 . S
C214 C216 1.356 . S
C214 O239 1.325 . S
C215 C214 1.348 . S
C215 C217 1.353 . S
C215 H256 0.929 . S
C216 C214 1.356 . S
C216 C218 1.358 . S
C216 H257 0.930 . S
C217 C215 1.353 . S
C217 N219 1.314 . S
C217 H258 0.930 . S
C218 C216 1.358 . S
C218 N219 1.279 . S
C218 H259 0.930 . S
N219 C217 1.314 . S
N219 C218 1.279 . S
C220 C222 1.353 . S
C220 N223 1.314 . S
C220 H226 0.930 . S
C221 N223 1.279 . S
C221 C224 1.358 . S
C221 H227 0.930 . S
C222 C220 1.353 . S
C222 C225 1.348 . S
C222 H260 0.929 . S
N223 Li178 1.990 . S
N223 C220 1.314 . S
N223 C221 1.279 . S
C224 C221 1.358 . S
C224 C225 1.356 . S
C224 H261 0.930 . S
C225 C222 1.348 . S
C225 C224 1.356 . S
H226 C220 0.930 . S
H227 C221 0.930 . S
C228 N229 1.314 . S
C228 C230 1.353 . S
C228 H234 0.930 . S
N229 Li179 1.990 . S
N229 C228 1.314 . S
N229 C232 1.279 . S
C230 C228 1.353 . S
C230 C233 1.348 . S
C230 H262 0.929 . S
C231 C232 1.358 . S
C231 C233 1.356 . S
C231 H263 0.930 . S
C232 N229 1.279 . S
C232 C231 1.358 . S
C232 H235 0.930 . S
C233 C230 1.348 . S
C233 C231 1.356 . S
H234 C228 0.930 . S
H235 C232 0.930 . S
O236 Li176 1.956 . S
O236 Li177 1.970 . S
O236 Li178 1.961 . S
O236 C180 1.325 . S
O237 Li176 1.970 . S
O237 Li177 1.956 . S
O237 Li179 1.961 . S
O237 C186 1.325 . S
O238 Li176 1.961 . S
O238 Li178 1.956 . S
O238 Li179 1.970 . S
O238 C208 1.325 . S
O239 Li177 1.961 . S
O239 Li178 1.970 . S
O239 Li179 1.956 . S
O239 C214 1.325 . S
H240 C182 0.929 . S
H241 C183 0.930 . S
H242 C184 0.930 . S
H243 C185 0.930 . S
H244 C187 0.930 . S
H245 C189 0.929 . S
H246 C190 0.930 . S
H247 C191 0.930 . S
H248 C194 0.930 . S
H249 C197 0.929 . S
H250 C202 0.929 . S
H251 C203 0.930 . S
H252 C210 0.929 . S
H253 C211 0.930 . S
H254 C212 0.930 . S
H255 C213 0.930 . S
H256 C215 0.929 . S
H257 C216 0.930 . S
H258 C217 0.930 . S
H259 C218 0.930 . S
H260 C222 0.929 . S
H261 C224 0.930 . S
H262 C230 0.929 . S
H263 C231 0.930 . S
Li264 N281 1.990 . S
Li264 O324 1.956 . S
Li264 O325 1.970 . S
Li264 O326 1.961 . S
Li265 N289 1.990 . S
Li265 O324 1.970 . S
Li265 O325 1.956 . S
Li265 O327 1.961 . S
Li266 N311 1.990 . S
Li266 O324 1.961 . S
Li266 O326 1.956 . S
Li266 O327 1.970 . S
Li267 N317 1.990 . S
Li267 O325 1.961 . S
Li267 O326 1.970 . S
Li267 O327 1.956 . S
C268 C270 1.348 . S
C268 C271 1.356 . S
C268 O324 1.325 . S
N269 C272 1.314 . S
N269 C273 1.279 . S
C270 C268 1.348 . S
C270 C272 1.353 . S
C270 H328 0.929 . S
C271 C268 1.356 . S
C271 C273 1.358 . S
C271 H329 0.930 . S
C272 N269 1.314 . S
C272 C270 1.353 . S
C272 H330 0.930 . S
C273 N269 1.279 . S
C273 C271 1.358 . S
C273 H331 0.930 . S
C274 C277 1.348 . S
C274 C278 1.356 . S
C274 O325 1.325 . S
C275 N276 1.279 . S
C275 C278 1.358 . S
C275 H332 0.930 . S
N276 C275 1.279 . S
N276 C279 1.314 . S
C277 C274 1.348 . S
C277 C279 1.353 . S
C277 H333 0.929 . S
C278 C274 1.356 . S
C278 C275 1.358 . S
C278 H334 0.930 . S
C279 N276 1.314 . S
C279 C277 1.353 . S
C279 H335 0.930 . S
C280 N281 1.314 . S
C280 C285 1.353 . S
C280 H286 0.930 . S
N281 Li264 1.990 . S
N281 C280 1.314 . S
N281 C283 1.279 . S
C282 C283 1.358 . S
C282 C284 1.356 . S
C282 H336 0.930 . S
C283 N281 1.279 . S
C283 C282 1.358 . S
C283 H287 0.930 . S
C284 C282 1.356 . S
C284 C285 1.348 . S
C285 C280 1.353 . S
C285 C284 1.348 . S
C285 H337 0.929 . S
H286 C280 0.930 . S
H287 C283 0.930 . S
C288 N289 1.314 . S
C288 C290 1.353 . S
C288 H294 0.930 . S
N289 Li265 1.990 . S
N289 C288 1.314 . S
N289 C292 1.279 . S
C290 C288 1.353 . S
C290 C293 1.348 . S
C290 H338 0.929 . S
C291 C292 1.358 . S
C291 C293 1.356 . S
C291 H339 0.930 . S
C292 N289 1.279 . S
C292 C291 1.358 . S
C292 H295 0.930 . S
C293 C290 1.348 . S
C293 C291 1.356 . S
H294 C288 0.930 . S
H295 C292 0.930 . S
C296 C298 1.348 . S
C296 C299 1.356 . S
C296 O326 1.325 . S
N297 C300 1.314 . S
N297 C301 1.279 . S
C298 C296 1.348 . S
C298 C300 1.353 . S
C298 H340 0.929 . S
C299 C296 1.356 . S
C299 C301 1.358 . S
C299 H341 0.930 . S
C300 N297 1.314 . S
C300 C298 1.353 . S
C300 H342 0.930 . S
C301 N297 1.279 . S
C301 C299 1.358 . S
C301 H343 0.930 . S
C302 C303 1.348 . S
C302 C304 1.356 . S
C302 O327 1.325 . S
C303 C302 1.348 . S
C303 C305 1.353 . S
C303 H344 0.929 . S
C304 C302 1.356 . S
C304 C306 1.358 . S
C304 H345 0.930 . S
C305 C303 1.353 . S
C305 N307 1.314 . S
C305 H346 0.930 . S
C306 C304 1.358 . S
C306 N307 1.279 . S
C306 H347 0.930 . S
N307 C305 1.314 . S
N307 C306 1.279 . S
C308 C310 1.353 . S
C308 N311 1.314 . S
C308 H314 0.930 . S
C309 N311 1.279 . S
C309 C312 1.358 . S
C309 H315 0.930 . S
C310 C308 1.353 . S
C310 C313 1.348 . S
C310 H348 0.929 . S
N311 Li266 1.990 . S
N311 C308 1.314 . S
N311 C309 1.279 . S
C312 C309 1.358 . S
C312 C313 1.356 . S
C312 H349 0.930 . S
C313 C310 1.348 . S
C313 C312 1.356 . S
H314 C308 0.930 . S
H315 C309 0.930 . S
C316 N317 1.314 . S
C316 C318 1.353 . S
C316 H322 0.930 . S
N317 Li267 1.990 . S
N317 C316 1.314 . S
N317 C320 1.279 . S
C318 C316 1.353 . S
C318 C321 1.348 . S
C318 H350 0.929 . S
C319 C320 1.358 . S
C319 C321 1.356 . S
C319 H351 0.930 . S
C320 N317 1.279 . S
C320 C319 1.358 . S
C320 H323 0.930 . S
C321 C318 1.348 . S
C321 C319 1.356 . S
H322 C316 0.930 . S
H323 C320 0.930 . S
O324 Li264 1.956 . S
O324 Li265 1.970 . S
O324 Li266 1.961 . S
O324 C268 1.325 . S
O325 Li264 1.970 . S
O325 Li265 1.956 . S
O325 Li267 1.961 . S
O325 C274 1.325 . S
O326 Li264 1.961 . S
O326 Li266 1.956 . S
O326 Li267 1.970 . S
O326 C296 1.325 . S
O327 Li265 1.961 . S
O327 Li266 1.970 . S
O327 Li267 1.956 . S
O327 C302 1.325 . S
H328 C270 0.929 . S
H329 C271 0.930 . S
H330 C272 0.930 . S
H331 C273 0.930 . S
H332 C275 0.930 . S
H333 C277 0.929 . S
H334 C278 0.930 . S
H335 C279 0.930 . S
H336 C282 0.930 . S
H337 C285 0.929 . S
H338 C290 0.929 . S
H339 C291 0.930 . S
H340 C298 0.929 . S
H341 C299 0.930 . S
H342 C300 0.930 . S
H343 C301 0.930 . S
H344 C303 0.929 . S
H345 C304 0.930 . S
H346 C305 0.930 . S
H347 C306 0.930 . S
H348 C310 0.929 . S
H349 C312 0.930 . S
H350 C318 0.929 . S
H351 C319 0.930 . S
Li352 N369 1.990 . S
Li352 O412 1.956 . S
Li352 O413 1.970 . S
Li352 O414 1.961 . S
Li353 N377 1.990 . S
Li353 O412 1.970 . S
Li353 O413 1.956 . S
Li353 O415 1.961 . S
Li354 N399 1.990 . S
Li354 O412 1.961 . S
Li354 O414 1.956 . S
Li354 O415 1.970 . S
Li355 N405 1.990 . S
Li355 O413 1.961 . S
Li355 O414 1.970 . S
Li355 O415 1.956 . S
C356 C358 1.348 . S
C356 C359 1.356 . S
C356 O412 1.325 . S
N357 C360 1.314 . S
N357 C361 1.279 . S
C358 C356 1.348 . S
C358 C360 1.353 . S
C358 H416 0.929 . S
C359 C356 1.356 . S
C359 C361 1.358 . S
C359 H417 0.930 . S
C360 N357 1.314 . S
C360 C358 1.353 . S
C360 H418 0.930 . S
C361 N357 1.279 . S
C361 C359 1.358 . S
C361 H419 0.930 . S
C362 C365 1.348 . S
C362 C366 1.356 . S
C362 O413 1.325 . S
C363 N364 1.279 . S
C363 C366 1.358 . S
C363 H420 0.930 . S
N364 C363 1.279 . S
N364 C367 1.314 . S
C365 C362 1.348 . S
C365 C367 1.353 . S
C365 H421 0.929 . S
C366 C362 1.356 . S
C366 C363 1.358 . S
C366 H422 0.930 . S
C367 N364 1.314 . S
C367 C365 1.353 . S
C367 H423 0.930 . S
C368 N369 1.314 . S
C368 C373 1.353 . S
C368 H374 0.930 . S
N369 Li352 1.990 . S
N369 C368 1.314 . S
N369 C371 1.279 . S
C370 C371 1.358 . S
C370 C372 1.356 . S
C370 H424 0.930 . S
C371 N369 1.279 . S
C371 C370 1.358 . S
C371 H375 0.930 . S
C372 C370 1.356 . S
C372 C373 1.348 . S
C373 C368 1.353 . S
C373 C372 1.348 . S
C373 H425 0.929 . S
H374 C368 0.930 . S
H375 C371 0.930 . S
C376 N377 1.314 . S
C376 C378 1.353 . S
C376 H382 0.930 . S
N377 Li353 1.990 . S
N377 C376 1.314 . S
N377 C380 1.279 . S
C378 C376 1.353 . S
C378 C381 1.348 . S
C378 H426 0.929 . S
C379 C380 1.358 . S
C379 C381 1.356 . S
C379 H427 0.930 . S
C380 N377 1.279 . S
C380 C379 1.358 . S
C380 H383 0.930 . S
C381 C378 1.348 . S
C381 C379 1.356 . S
H382 C376 0.930 . S
H383 C380 0.930 . S
C384 C386 1.348 . S
C384 C387 1.356 . S
C384 O414 1.325 . S
N385 C388 1.314 . S
N385 C389 1.279 . S
C386 C384 1.348 . S
C386 C388 1.353 . S
C386 H428 0.929 . S
C387 C384 1.356 . S
C387 C389 1.358 . S
C387 H429 0.930 . S
C388 N385 1.314 . S
C388 C386 1.353 . S
C388 H430 0.930 . S
C389 N385 1.279 . S
C389 C387 1.358 . S
C389 H431 0.930 . S
C390 C391 1.348 . S
C390 C392 1.356 . S
C390 O415 1.325 . S
C391 C390 1.348 . S
C391 C393 1.353 . S
C391 H432 0.929 . S
C392 C390 1.356 . S
C392 C394 1.358 . S
C392 H433 0.930 . S
C393 C391 1.353 . S
C393 N395 1.314 . S
C393 H434 0.930 . S
C394 C392 1.358 . S
C394 N395 1.279 . S
C394 H435 0.930 . S
N395 C393 1.314 . S
N395 C394 1.279 . S
C396 C398 1.353 . S
C396 N399 1.314 . S
C396 H402 0.930 . S
C397 N399 1.279 . S
C397 C400 1.358 . S
C397 H403 0.930 . S
C398 C396 1.353 . S
C398 C401 1.348 . S
C398 H436 0.929 . S
N399 Li354 1.990 . S
N399 C396 1.314 . S
N399 C397 1.279 . S
C400 C397 1.358 . S
C400 C401 1.356 . S
C400 H437 0.930 . S
C401 C398 1.348 . S
C401 C400 1.356 . S
H402 C396 0.930 . S
H403 C397 0.930 . S
C404 N405 1.314 . S
C404 C406 1.353 . S
C404 H410 0.930 . S
N405 Li355 1.990 . S
N405 C404 1.314 . S
N405 C408 1.279 . S
C406 C404 1.353 . S
C406 C409 1.348 . S
C406 H438 0.929 . S
C407 C408 1.358 . S
C407 C409 1.356 . S
C407 H439 0.930 . S
C408 N405 1.279 . S
C408 C407 1.358 . S
C408 H411 0.930 . S
C409 C406 1.348 . S
C409 C407 1.356 . S
H410 C404 0.930 . S
H411 C408 0.930 . S
O412 Li352 1.956 . S
O412 Li353 1.970 . S
O412 Li354 1.961 . S
O412 C356 1.325 . S
O413 Li352 1.970 . S
O413 Li353 1.956 . S
O413 Li355 1.961 . S
O413 C362 1.325 . S
O414 Li352 1.961 . S
O414 Li354 1.956 . S
O414 Li355 1.970 . S
O414 C384 1.325 . S
O415 Li353 1.961 . S
O415 Li354 1.970 . S
O415 Li355 1.956 . S
O415 C390 1.325 . S
H416 C358 0.929 . S
H417 C359 0.930 . S
H418 C360 0.930 . S
H419 C361 0.930 . S
H420 C363 0.930 . S
H421 C365 0.929 . S
H422 C366 0.930 . S
H423 C367 0.930 . S
H424 C370 0.930 . S
H425 C373 0.929 . S
H426 C378 0.929 . S
H427 C379 0.930 . S
H428 C386 0.929 . S
H429 C387 0.930 . S
H430 C388 0.930 . S
H431 C389 0.930 . S
H432 C391 0.929 . S
H433 C392 0.930 . S
H434 C393 0.930 . S
H435 C394 0.930 . S
H436 C398 0.929 . S
H437 C400 0.930 . S
H438 C406 0.929 . S
H439 C407 0.930 . S
Li440 N457 1.990 . S
Li440 O500 1.956 . S
Li440 O501 1.970 . S
Li440 O502 1.961 . S
Li441 N465 1.990 . S
Li441 O500 1.970 . S
Li441 O501 1.956 . S
Li441 O503 1.961 . S
Li442 N487 1.990 . S
Li442 O500 1.961 . S
Li442 O502 1.956 . S
Li442 O503 1.970 . S
Li443 N493 1.990 . S
Li443 O501 1.961 . S
Li443 O502 1.970 . S
Li443 O503 1.956 . S
C444 C446 1.348 . S
C444 C447 1.356 . S
C444 O500 1.325 . S
N445 C448 1.314 . S
N445 C449 1.279 . S
C446 C444 1.348 . S
C446 C448 1.353 . S
C446 H504 0.929 . S
C447 C444 1.356 . S
C447 C449 1.358 . S
C447 H505 0.930 . S
C448 N445 1.314 . S
C448 C446 1.353 . S
C448 H506 0.930 . S
C449 N445 1.279 . S
C449 C447 1.358 . S
C449 H507 0.930 . S
C450 C453 1.348 . S
C450 C454 1.356 . S
C450 O501 1.325 . S
C451 N452 1.279 . S
C451 C454 1.358 . S
C451 H508 0.930 . S
N452 C451 1.279 . S
N452 C455 1.314 . S
C453 C450 1.348 . S
C453 C455 1.353 . S
C453 H509 0.929 . S
C454 C450 1.356 . S
C454 C451 1.358 . S
C454 H510 0.930 . S
C455 N452 1.314 . S
C455 C453 1.353 . S
C455 H511 0.930 . S
C456 N457 1.314 . S
C456 C461 1.353 . S
C456 H462 0.930 . S
N457 Li440 1.990 . S
N457 C456 1.314 . S
N457 C459 1.279 . S
C458 C459 1.358 . S
C458 C460 1.356 . S
C458 H512 0.930 . S
C459 N457 1.279 . S
C459 C458 1.358 . S
C459 H463 0.930 . S
C460 C458 1.356 . S
C460 C461 1.348 . S
C461 C456 1.353 . S
C461 C460 1.348 . S
C461 H513 0.929 . S
H462 C456 0.930 . S
H463 C459 0.930 . S
C464 N465 1.314 . S
C464 C466 1.353 . S
C464 H470 0.930 . S
N465 Li441 1.990 . S
N465 C464 1.314 . S
N465 C468 1.279 . S
C466 C464 1.353 . S
C466 C469 1.348 . S
C466 H514 0.929 . S
C467 C468 1.358 . S
C467 C469 1.356 . S
C467 H515 0.930 . S
C468 N465 1.279 . S
C468 C467 1.358 . S
C468 H471 0.930 . S
C469 C466 1.348 . S
C469 C467 1.356 . S
H470 C464 0.930 . S
H471 C468 0.930 . S
C472 C474 1.348 . S
C472 C475 1.356 . S
C472 O502 1.325 . S
N473 C476 1.314 . S
N473 C477 1.279 . S
C474 C472 1.348 . S
C474 C476 1.353 . S
C474 H516 0.929 . S
C475 C472 1.356 . S
C475 C477 1.358 . S
C475 H517 0.930 . S
C476 N473 1.314 . S
C476 C474 1.353 . S
C476 H518 0.930 . S
C477 N473 1.279 . S
C477 C475 1.358 . S
C477 H519 0.930 . S
C478 C479 1.348 . S
C478 C480 1.356 . S
C478 O503 1.325 . S
C479 C478 1.348 . S
C479 C481 1.353 . S
C479 H520 0.929 . S
C480 C478 1.356 . S
C480 C482 1.358 . S
C480 H521 0.930 . S
C481 C479 1.353 . S
C481 N483 1.314 . S
C481 H522 0.930 . S
C482 C480 1.358 . S
C482 N483 1.279 . S
C482 H523 0.930 . S
N483 C481 1.314 . S
N483 C482 1.279 . S
C484 C486 1.353 . S
C484 N487 1.314 . S
C484 H490 0.930 . S
C485 N487 1.279 . S
C485 C488 1.358 . S
C485 H491 0.930 . S
C486 C484 1.353 . S
C486 C489 1.348 . S
C486 H524 0.929 . S
N487 Li442 1.990 . S
N487 C484 1.314 . S
N487 C485 1.279 . S
C488 C485 1.358 . S
C488 C489 1.356 . S
C488 H525 0.930 . S
C489 C486 1.348 . S
C489 C488 1.356 . S
H490 C484 0.930 . S
H491 C485 0.930 . S
C492 N493 1.314 . S
C492 C494 1.353 . S
C492 H498 0.930 . S
N493 Li443 1.990 . S
N493 C492 1.314 . S
N493 C496 1.279 . S
C494 C492 1.353 . S
C494 C497 1.348 . S
C494 H526 0.929 . S
C495 C496 1.358 . S
C495 C497 1.356 . S
C495 H527 0.930 . S
C496 N493 1.279 . S
C496 C495 1.358 . S
C496 H499 0.930 . S
C497 C494 1.348 . S
C497 C495 1.356 . S
H498 C492 0.930 . S
H499 C496 0.930 . S
O500 Li440 1.956 . S
O500 Li441 1.970 . S
O500 Li442 1.961 . S
O500 C444 1.325 . S
O501 Li440 1.970 . S
O501 Li441 1.956 . S
O501 Li443 1.961 . S
O501 C450 1.325 . S
O502 Li440 1.961 . S
O502 Li442 1.956 . S
O502 Li443 1.970 . S
O502 C472 1.325 . S
O503 Li441 1.961 . S
O503 Li442 1.970 . S
O503 Li443 1.956 . S
O503 C478 1.325 . S
H504 C446 0.929 . S
H505 C447 0.930 . S
H506 C448 0.930 . S
H507 C449 0.930 . S
H508 C451 0.930 . S
H509 C453 0.929 . S
H510 C454 0.930 . S
H511 C455 0.930 . S
H512 C458 0.930 . S
H513 C461 0.929 . S
H514 C466 0.929 . S
H515 C467 0.930 . S
H516 C474 0.929 . S
H517 C475 0.930 . S
H518 C476 0.930 . S
H519 C477 0.930 . S
H520 C479 0.929 . S
H521 C480 0.930 . S
H522 C481 0.930 . S
H523 C482 0.930 . S
H524 C486 0.929 . S
H525 C488 0.930 . S
H526 C494 0.929 . S
H527 C495 0.930 . S
Li528 N545 1.990 . S
Li528 O588 1.956 . S
Li528 O589 1.970 . S
Li528 O590 1.961 . S
Li529 N553 1.990 . S
Li529 O588 1.970 . S
Li529 O589 1.956 . S
Li529 O591 1.961 . S
Li530 N575 1.990 . S
Li530 O588 1.961 . S
Li530 O590 1.956 . S
Li530 O591 1.970 . S
Li531 N581 1.990 . S
Li531 O589 1.961 . S
Li531 O590 1.970 . S
Li531 O591 1.956 . S
C532 C534 1.348 . S
C532 C535 1.356 . S
C532 O588 1.325 . S
N533 C536 1.314 . S
N533 C537 1.279 . S
C534 C532 1.348 . S
C534 C536 1.353 . S
C534 H592 0.929 . S
C535 C532 1.356 . S
C535 C537 1.358 . S
C535 H593 0.930 . S
C536 N533 1.314 . S
C536 C534 1.353 . S
C536 H594 0.930 . S
C537 N533 1.279 . S
C537 C535 1.358 . S
C537 H595 0.930 . S
C538 C541 1.348 . S
C538 C542 1.356 . S
C538 O589 1.325 . S
C539 N540 1.279 . S
C539 C542 1.358 . S
C539 H596 0.930 . S
N540 C539 1.279 . S
N540 C543 1.314 . S
C541 C538 1.348 . S
C541 C543 1.353 . S
C541 H597 0.929 . S
C542 C538 1.356 . S
C542 C539 1.358 . S
C542 H598 0.930 . S
C543 N540 1.314 . S
C543 C541 1.353 . S
C543 H599 0.930 . S
C544 N545 1.314 . S
C544 C549 1.353 . S
C544 H550 0.930 . S
N545 Li528 1.990 . S
N545 C544 1.314 . S
N545 C547 1.279 . S
C546 C547 1.358 . S
C546 C548 1.356 . S
C546 H600 0.930 . S
C547 N545 1.279 . S
C547 C546 1.358 . S
C547 H551 0.930 . S
C548 C546 1.356 . S
C548 C549 1.348 . S
C549 C544 1.353 . S
C549 C548 1.348 . S
C549 H601 0.929 . S
H550 C544 0.930 . S
H551 C547 0.930 . S
C552 N553 1.314 . S
C552 C554 1.353 . S
C552 H558 0.930 . S
N553 Li529 1.990 . S
N553 C552 1.314 . S
N553 C556 1.279 . S
C554 C552 1.353 . S
C554 C557 1.348 . S
C554 H602 0.929 . S
C555 C556 1.358 . S
C555 C557 1.356 . S
C555 H603 0.930 . S
C556 N553 1.279 . S
C556 C555 1.358 . S
C556 H559 0.930 . S
C557 C554 1.348 . S
C557 C555 1.356 . S
H558 C552 0.930 . S
H559 C556 0.930 . S
C560 C562 1.348 . S
C560 C563 1.356 . S
C560 O590 1.325 . S
N561 C564 1.314 . S
N561 C565 1.279 . S
C562 C560 1.348 . S
C562 C564 1.353 . S
C562 H604 0.929 . S
C563 C560 1.356 . S
C563 C565 1.358 . S
C563 H605 0.930 . S
C564 N561 1.314 . S
C564 C562 1.353 . S
C564 H606 0.930 . S
C565 N561 1.279 . S
C565 C563 1.358 . S
C565 H607 0.930 . S
C566 C567 1.348 . S
C566 C568 1.356 . S
C566 O591 1.325 . S
C567 C566 1.348 . S
C567 C569 1.353 . S
C567 H608 0.929 . S
C568 C566 1.356 . S
C568 C570 1.358 . S
C568 H609 0.930 . S
C569 C567 1.353 . S
C569 N571 1.314 . S
C569 H610 0.930 . S
C570 C568 1.358 . S
C570 N571 1.279 . S
C570 H611 0.930 . S
N571 C569 1.314 . S
N571 C570 1.279 . S
C572 C574 1.353 . S
C572 N575 1.314 . S
C572 H578 0.930 . S
C573 N575 1.279 . S
C573 C576 1.358 . S
C573 H579 0.930 . S
C574 C572 1.353 . S
C574 C577 1.348 . S
C574 H612 0.929 . S
N575 Li530 1.990 . S
N575 C572 1.314 . S
N575 C573 1.279 . S
C576 C573 1.358 . S
C576 C577 1.356 . S
C576 H613 0.930 . S
C577 C574 1.348 . S
C577 C576 1.356 . S
H578 C572 0.930 . S
H579 C573 0.930 . S
C580 N581 1.314 . S
C580 C582 1.353 . S
C580 H586 0.930 . S
N581 Li531 1.990 . S
N581 C580 1.314 . S
N581 C584 1.279 . S
C582 C580 1.353 . S
C582 C585 1.348 . S
C582 H614 0.929 . S
C583 C584 1.358 . S
C583 C585 1.356 . S
C583 H615 0.930 . S
C584 N581 1.279 . S
C584 C583 1.358 . S
C584 H587 0.930 . S
C585 C582 1.348 . S
C585 C583 1.356 . S
H586 C580 0.930 . S
H587 C584 0.930 . S
O588 Li528 1.956 . S
O588 Li529 1.970 . S
O588 Li530 1.961 . S
O588 C532 1.325 . S
O589 Li528 1.970 . S
O589 Li529 1.956 . S
O589 Li531 1.961 . S
O589 C538 1.325 . S
O590 Li528 1.961 . S
O590 Li530 1.956 . S
O590 Li531 1.970 . S
O590 C560 1.325 . S
O591 Li529 1.961 . S
O591 Li530 1.970 . S
O591 Li531 1.956 . S
O591 C566 1.325 . S
H592 C534 0.929 . S
H593 C535 0.930 . S
H594 C536 0.930 . S
H595 C537 0.930 . S
H596 C539 0.930 . S
H597 C541 0.929 . S
H598 C542 0.930 . S
H599 C543 0.930 . S
H600 C546 0.930 . S
H601 C549 0.929 . S
H602 C554 0.929 . S
H603 C555 0.930 . S
H604 C562 0.929 . S
H605 C563 0.930 . S
H606 C564 0.930 . S
H607 C565 0.930 . S
H608 C567 0.929 . S
H609 C568 0.930 . S
H610 C569 0.930 . S
H611 C570 0.930 . S
H612 C574 0.929 . S
H613 C576 0.930 . S
H614 C582 0.929 . S
H615 C583 0.930 . S
Li616 N633 1.990 . S
Li616 O676 1.956 . S
Li616 O677 1.970 . S
Li616 O678 1.961 . S
Li617 N641 1.990 . S
Li617 O676 1.970 . S
Li617 O677 1.956 . S
Li617 O679 1.961 . S
Li618 N663 1.990 . S
Li618 O676 1.961 . S
Li618 O678 1.956 . S
Li618 O679 1.970 . S
Li619 N669 1.990 . S
Li619 O677 1.961 . S
Li619 O678 1.970 . S
Li619 O679 1.956 . S
C620 C622 1.348 . S
C620 C623 1.356 . S
C620 O676 1.325 . S
N621 C624 1.314 . S
N621 C625 1.279 . S
C622 C620 1.348 . S
C622 C624 1.353 . S
C622 H680 0.929 . S
C623 C620 1.356 . S
C623 C625 1.358 . S
C623 H681 0.930 . S
C624 N621 1.314 . S
C624 C622 1.353 . S
C624 H682 0.930 . S
C625 N621 1.279 . S
C625 C623 1.358 . S
C625 H683 0.930 . S
C626 C629 1.348 . S
C626 C630 1.356 . S
C626 O677 1.325 . S
C627 N628 1.279 . S
C627 C630 1.358 . S
C627 H684 0.930 . S
N628 C627 1.279 . S
N628 C631 1.314 . S
C629 C626 1.348 . S
C629 C631 1.353 . S
C629 H685 0.929 . S
C630 C626 1.356 . S
C630 C627 1.358 . S
C630 H686 0.930 . S
C631 N628 1.314 . S
C631 C629 1.353 . S
C631 H687 0.930 . S
C632 N633 1.314 . S
C632 C637 1.353 . S
C632 H638 0.930 . S
N633 Li616 1.990 . S
N633 C632 1.314 . S
N633 C635 1.279 . S
C634 C635 1.358 . S
C634 C636 1.356 . S
C634 H688 0.930 . S
C635 N633 1.279 . S
C635 C634 1.358 . S
C635 H639 0.930 . S
C636 C634 1.356 . S
C636 C637 1.348 . S
C637 C632 1.353 . S
C637 C636 1.348 . S
C637 H689 0.929 . S
H638 C632 0.930 . S
H639 C635 0.930 . S
C640 N641 1.314 . S
C640 C642 1.353 . S
C640 H646 0.930 . S
N641 Li617 1.990 . S
N641 C640 1.314 . S
N641 C644 1.279 . S
C642 C640 1.353 . S
C642 C645 1.348 . S
C642 H690 0.929 . S
C643 C644 1.358 . S
C643 C645 1.356 . S
C643 H691 0.930 . S
C644 N641 1.279 . S
C644 C643 1.358 . S
C644 H647 0.930 . S
C645 C642 1.348 . S
C645 C643 1.356 . S
H646 C640 0.930 . S
H647 C644 0.930 . S
C648 C650 1.348 . S
C648 C651 1.356 . S
C648 O678 1.325 . S
N649 C652 1.314 . S
N649 C653 1.279 . S
C650 C648 1.348 . S
C650 C652 1.353 . S
C650 H692 0.929 . S
C651 C648 1.356 . S
C651 C653 1.358 . S
C651 H693 0.930 . S
C652 N649 1.314 . S
C652 C650 1.353 . S
C652 H694 0.930 . S
C653 N649 1.279 . S
C653 C651 1.358 . S
C653 H695 0.930 . S
C654 C655 1.348 . S
C654 C656 1.356 . S
C654 O679 1.325 . S
C655 C654 1.348 . S
C655 C657 1.353 . S
C655 H696 0.929 . S
C656 C654 1.356 . S
C656 C658 1.358 . S
C656 H697 0.930 . S
C657 C655 1.353 . S
C657 N659 1.314 . S
C657 H698 0.930 . S
C658 C656 1.358 . S
C658 N659 1.279 . S
C658 H699 0.930 . S
N659 C657 1.314 . S
N659 C658 1.279 . S
C660 C662 1.353 . S
C660 N663 1.314 . S
C660 H666 0.930 . S
C661 N663 1.279 . S
C661 C664 1.358 . S
C661 H667 0.930 . S
C662 C660 1.353 . S
C662 C665 1.348 . S
C662 H700 0.929 . S
N663 Li618 1.990 . S
N663 C660 1.314 . S
N663 C661 1.279 . S
C664 C661 1.358 . S
C664 C665 1.356 . S
C664 H701 0.930 . S
C665 C662 1.348 . S
C665 C664 1.356 . S
H666 C660 0.930 . S
H667 C661 0.930 . S
C668 N669 1.314 . S
C668 C670 1.353 . S
C668 H674 0.930 . S
N669 Li619 1.990 . S
N669 C668 1.314 . S
N669 C672 1.279 . S
C670 C668 1.353 . S
C670 C673 1.348 . S
C670 H702 0.929 . S
C671 C672 1.358 . S
C671 C673 1.356 . S
C671 H703 0.930 . S
C672 N669 1.279 . S
C672 C671 1.358 . S
C672 H675 0.930 . S
C673 C670 1.348 . S
C673 C671 1.356 . S
H674 C668 0.930 . S
H675 C672 0.930 . S
O676 Li616 1.956 . S
O676 Li617 1.970 . S
O676 Li618 1.961 . S
O676 C620 1.325 . S
O677 Li616 1.970 . S
O677 Li617 1.956 . S
O677 Li619 1.961 . S
O677 C626 1.325 . S
O678 Li616 1.961 . S
O678 Li618 1.956 . S
O678 Li619 1.970 . S
O678 C648 1.325 . S
O679 Li617 1.961 . S
O679 Li618 1.970 . S
O679 Li619 1.956 . S
O679 C654 1.325 . S
H680 C622 0.929 . S
H681 C623 0.930 . S
H682 C624 0.930 . S
H683 C625 0.930 . S
H684 C627 0.930 . S
H685 C629 0.929 . S
H686 C630 0.930 . S
H687 C631 0.930 . S
H688 C634 0.930 . S
H689 C637 0.929 . S
H690 C642 0.929 . S
H691 C643 0.930 . S
H692 C650 0.929 . S
H693 C651 0.930 . S
H694 C652 0.930 . S
H695 C653 0.930 . S
H696 C655 0.929 . S
H697 C656 0.930 . S
H698 C657 0.930 . S
H699 C658 0.930 . S
H700 C662 0.929 . S
H701 C664 0.930 . S
H702 C670 0.929 . S
H703 C671 0.930 . S
Li704 N721 1.990 . S
Li704 O764 1.956 . S
Li704 O765 1.970 . S
Li704 O766 1.961 . S
Li705 N729 1.990 . S
Li705 O764 1.970 . S
Li705 O765 1.956 . S
Li705 O767 1.961 . S
Li706 N751 1.990 . S
Li706 O764 1.961 . S
Li706 O766 1.956 . S
Li706 O767 1.970 . S
Li707 N757 1.990 . S
Li707 O765 1.961 . S
Li707 O766 1.970 . S
Li707 O767 1.956 . S
C708 C710 1.348 . S
C708 C711 1.356 . S
C708 O764 1.325 . S
N709 C712 1.314 . S
N709 C713 1.279 . S
C710 C708 1.348 . S
C710 C712 1.353 . S
C710 H768 0.929 . S
C711 C708 1.356 . S
C711 C713 1.358 . S
C711 H769 0.930 . S
C712 N709 1.314 . S
C712 C710 1.353 . S
C712 H770 0.930 . S
C713 N709 1.279 . S
C713 C711 1.358 . S
C713 H771 0.930 . S
C714 C717 1.348 . S
C714 C718 1.356 . S
C714 O765 1.325 . S
C715 N716 1.279 . S
C715 C718 1.358 . S
C715 H772 0.930 . S
N716 C715 1.279 . S
N716 C719 1.314 . S
C717 C714 1.348 . S
C717 C719 1.353 . S
C717 H773 0.929 . S
C718 C714 1.356 . S
C718 C715 1.358 . S
C718 H774 0.930 . S
C719 N716 1.314 . S
C719 C717 1.353 . S
C719 H775 0.930 . S
C720 N721 1.314 . S
C720 C725 1.353 . S
C720 H726 0.930 . S
N721 Li704 1.990 . S
N721 C720 1.314 . S
N721 C723 1.279 . S
C722 C723 1.358 . S
C722 C724 1.356 . S
C722 H776 0.930 . S
C723 N721 1.279 . S
C723 C722 1.358 . S
C723 H727 0.930 . S
C724 C722 1.356 . S
C724 C725 1.348 . S
C725 C720 1.353 . S
C725 C724 1.348 . S
C725 H777 0.929 . S
H726 C720 0.930 . S
H727 C723 0.930 . S
C728 N729 1.314 . S
C728 C730 1.353 . S
C728 H734 0.930 . S
N729 Li705 1.990 . S
N729 C728 1.314 . S
N729 C732 1.279 . S
C730 C728 1.353 . S
C730 C733 1.348 . S
C730 H778 0.929 . S
C731 C732 1.358 . S
C731 C733 1.356 . S
C731 H779 0.930 . S
C732 N729 1.279 . S
C732 C731 1.358 . S
C732 H735 0.930 . S
C733 C730 1.348 . S
C733 C731 1.356 . S
H734 C728 0.930 . S
H735 C732 0.930 . S
C736 C738 1.348 . S
C736 C739 1.356 . S
C736 O766 1.325 . S
N737 C740 1.314 . S
N737 C741 1.279 . S
C738 C736 1.348 . S
C738 C740 1.353 . S
C738 H780 0.929 . S
C739 C736 1.356 . S
C739 C741 1.358 . S
C739 H781 0.930 . S
C740 N737 1.314 . S
C740 C738 1.353 . S
C740 H782 0.930 . S
C741 N737 1.279 . S
C741 C739 1.358 . S
C741 H783 0.930 . S
C742 C743 1.348 . S
C742 C744 1.356 . S
C742 O767 1.325 . S
C743 C742 1.348 . S
C743 C745 1.353 . S
C743 H784 0.929 . S
C744 C742 1.356 . S
C744 C746 1.358 . S
C744 H785 0.930 . S
C745 C743 1.353 . S
C745 N747 1.314 . S
C745 H786 0.930 . S
C746 C744 1.358 . S
C746 N747 1.279 . S
C746 H787 0.930 . S
N747 C745 1.314 . S
N747 C746 1.279 . S
C748 C750 1.353 . S
C748 N751 1.314 . S
C748 H754 0.930 . S
C749 N751 1.279 . S
C749 C752 1.358 . S
C749 H755 0.930 . S
C750 C748 1.353 . S
C750 C753 1.348 . S
C750 H788 0.929 . S
N751 Li706 1.990 . S
N751 C748 1.314 . S
N751 C749 1.279 . S
C752 C749 1.358 . S
C752 C753 1.356 . S
C752 H789 0.930 . S
C753 C750 1.348 . S
C753 C752 1.356 . S
H754 C748 0.930 . S
H755 C749 0.930 . S
C756 N757 1.314 . S
C756 C758 1.353 . S
C756 H762 0.930 . S
N757 Li707 1.990 . S
N757 C756 1.314 . S
N757 C760 1.279 . S
C758 C756 1.353 . S
C758 C761 1.348 . S
C758 H790 0.929 . S
C759 C760 1.358 . S
C759 C761 1.356 . S
C759 H791 0.930 . S
C760 N757 1.279 . S
C760 C759 1.358 . S
C760 H763 0.930 . S
C761 C758 1.348 . S
C761 C759 1.356 . S
H762 C756 0.930 . S
H763 C760 0.930 . S
O764 Li704 1.956 . S
O764 Li705 1.970 . S
O764 Li706 1.961 . S
O764 C708 1.325 . S
O765 Li704 1.970 . S
O765 Li705 1.956 . S
O765 Li707 1.961 . S
O765 C714 1.325 . S
O766 Li704 1.961 . S
O766 Li706 1.956 . S
O766 Li707 1.970 . S
O766 C736 1.325 . S
O767 Li705 1.961 . S
O767 Li706 1.970 . S
O767 Li707 1.956 . S
O767 C742 1.325 . S
H768 C710 0.929 . S
H769 C711 0.930 . S
H770 C712 0.930 . S
H771 C713 0.930 . S
H772 C715 0.930 . S
H773 C717 0.929 . S
H774 C718 0.930 . S
H775 C719 0.930 . S
H776 C722 0.930 . S
H777 C725 0.929 . S
H778 C730 0.929 . S
H779 C731 0.930 . S
H780 C738 0.929 . S
H781 C739 0.930 . S
H782 C740 0.930 . S
H783 C741 0.930 . S
H784 C743 0.929 . S
H785 C744 0.930 . S
H786 C745 0.930 . S
H787 C746 0.930 . S
H788 C750 0.929 . S
H789 C752 0.930 . S
H790 C758 0.929 . S
H791 C759 0.930 . S
Li792 N809 1.990 . S
Li792 O852 1.956 . S
Li792 O853 1.970 . S
Li792 O854 1.961 . S
Li793 N817 1.990 . S
Li793 O852 1.970 . S
Li793 O853 1.956 . S
Li793 O855 1.961 . S
Li794 N839 1.990 . S
Li794 O852 1.961 . S
Li794 O854 1.956 . S
Li794 O855 1.970 . S
Li795 N845 1.990 . S
Li795 O853 1.961 . S
Li795 O854 1.970 . S
Li795 O855 1.956 . S
C796 C798 1.348 . S
C796 C799 1.356 . S
C796 O852 1.325 . S
N797 C800 1.314 . S
N797 C801 1.279 . S
C798 C796 1.348 . S
C798 C800 1.353 . S
C798 H856 0.929 . S
C799 C796 1.356 . S
C799 C801 1.358 . S
C799 H857 0.930 . S
C800 N797 1.314 . S
C800 C798 1.353 . S
C800 H858 0.930 . S
C801 N797 1.279 . S
C801 C799 1.358 . S
C801 H859 0.930 . S
C802 C805 1.348 . S
C802 C806 1.356 . S
C802 O853 1.325 . S
C803 N804 1.279 . S
C803 C806 1.358 . S
C803 H860 0.930 . S
N804 C803 1.279 . S
N804 C807 1.314 . S
C805 C802 1.348 . S
C805 C807 1.353 . S
C805 H861 0.929 . S
C806 C802 1.356 . S
C806 C803 1.358 . S
C806 H862 0.930 . S
C807 N804 1.314 . S
C807 C805 1.353 . S
C807 H863 0.930 . S
C808 N809 1.314 . S
C808 C813 1.353 . S
C808 H814 0.930 . S
N809 Li792 1.990 . S
N809 C808 1.314 . S
N809 C811 1.279 . S
C810 C811 1.358 . S
C810 C812 1.356 . S
C810 H864 0.930 . S
C811 N809 1.279 . S
C811 C810 1.358 . S
C811 H815 0.930 . S
C812 C810 1.356 . S
C812 C813 1.348 . S
C813 C808 1.353 . S
C813 C812 1.348 . S
C813 H865 0.929 . S
H814 C808 0.930 . S
H815 C811 0.930 . S
C816 N817 1.314 . S
C816 C818 1.353 . S
C816 H822 0.930 . S
N817 Li793 1.990 . S
N817 C816 1.314 . S
N817 C820 1.279 . S
C818 C816 1.353 . S
C818 C821 1.348 . S
C818 H866 0.929 . S
C819 C820 1.358 . S
C819 C821 1.356 . S
C819 H867 0.930 . S
C820 N817 1.279 . S
C820 C819 1.358 . S
C820 H823 0.930 . S
C821 C818 1.348 . S
C821 C819 1.356 . S
H822 C816 0.930 . S
H823 C820 0.930 . S
C824 C826 1.348 . S
C824 C827 1.356 . S
C824 O854 1.325 . S
N825 C828 1.314 . S
N825 C829 1.279 . S
C826 C824 1.348 . S
C826 C828 1.353 . S
C826 H868 0.929 . S
C827 C824 1.356 . S
C827 C829 1.358 . S
C827 H869 0.930 . S
C828 N825 1.314 . S
C828 C826 1.353 . S
C828 H870 0.930 . S
C829 N825 1.279 . S
C829 C827 1.358 . S
C829 H871 0.930 . S
C830 C831 1.348 . S
C830 C832 1.356 . S
C830 O855 1.325 . S
C831 C830 1.348 . S
C831 C833 1.353 . S
C831 H872 0.929 . S
C832 C830 1.356 . S
C832 C834 1.358 . S
C832 H873 0.930 . S
C833 C831 1.353 . S
C833 N835 1.314 . S
C833 H874 0.930 . S
C834 C832 1.358 . S
C834 N835 1.279 . S
C834 H875 0.930 . S
N835 C833 1.314 . S
N835 C834 1.279 . S
C836 C838 1.353 . S
C836 N839 1.314 . S
C836 H842 0.930 . S
C837 N839 1.279 . S
C837 C840 1.358 . S
C837 H843 0.930 . S
C838 C836 1.353 . S
C838 C841 1.348 . S
C838 H876 0.929 . S
N839 Li794 1.990 . S
N839 C836 1.314 . S
N839 C837 1.279 . S
C840 C837 1.358 . S
C840 C841 1.356 . S
C840 H877 0.930 . S
C841 C838 1.348 . S
C841 C840 1.356 . S
H842 C836 0.930 . S
H843 C837 0.930 . S
C844 N845 1.314 . S
C844 C846 1.353 . S
C844 H850 0.930 . S
N845 Li795 1.990 . S
N845 C844 1.314 . S
N845 C848 1.279 . S
C846 C844 1.353 . S
C846 C849 1.348 . S
C846 H878 0.929 . S
C847 C848 1.358 . S
C847 C849 1.356 . S
C847 H879 0.930 . S
C848 N845 1.279 . S
C848 C847 1.358 . S
C848 H851 0.930 . S
C849 C846 1.348 . S
C849 C847 1.356 . S
H850 C844 0.930 . S
H851 C848 0.930 . S
O852 Li792 1.956 . S
O852 Li793 1.970 . S
O852 Li794 1.961 . S
O852 C796 1.325 . S
O853 Li792 1.970 . S
O853 Li793 1.956 . S
O853 Li795 1.961 . S
O853 C802 1.325 . S
O854 Li792 1.961 . S
O854 Li794 1.956 . S
O854 Li795 1.970 . S
O854 C824 1.325 . S
O855 Li793 1.961 . S
O855 Li794 1.970 . S
O855 Li795 1.956 . S
O855 C830 1.325 . S
H856 C798 0.929 . S
H857 C799 0.930 . S
H858 C800 0.930 . S
H859 C801 0.930 . S
H860 C803 0.930 . S
H861 C805 0.929 . S
H862 C806 0.930 . S
H863 C807 0.930 . S
H864 C810 0.930 . S
H865 C813 0.929 . S
H866 C818 0.929 . S
H867 C819 0.930 . S
H868 C826 0.929 . S
H869 C827 0.930 . S
H870 C828 0.930 . S
H871 C829 0.930 . S
H872 C831 0.929 . S
H873 C832 0.930 . S
H874 C833 0.930 . S
H875 C834 0.930 . S
H876 C838 0.929 . S
H877 C840 0.930 . S
H878 C846 0.929 . S
H879 C847 0.930 . S
Li880 N897 1.990 . S
Li880 O940 1.956 . S
Li880 O941 1.970 . S
Li880 O942 1.961 . S
Li881 N905 1.990 . S
Li881 O940 1.970 . S
Li881 O941 1.956 . S
Li881 O943 1.961 . S
Li882 N927 1.990 . S
Li882 O940 1.961 . S
Li882 O942 1.956 . S
Li882 O943 1.970 . S
Li883 N933 1.990 . S
Li883 O941 1.961 . S
Li883 O942 1.970 . S
Li883 O943 1.956 . S
C884 C886 1.348 . S
C884 C887 1.356 . S
C884 O940 1.325 . S
N885 C888 1.314 . S
N885 C889 1.279 . S
C886 C884 1.348 . S
C886 C888 1.353 . S
C886 H944 0.929 . S
C887 C884 1.356 . S
C887 C889 1.358 . S
C887 H945 0.930 . S
C888 N885 1.314 . S
C888 C886 1.353 . S
C888 H946 0.930 . S
C889 N885 1.279 . S
C889 C887 1.358 . S
C889 H947 0.930 . S
C890 C893 1.348 . S
C890 C894 1.356 . S
C890 O941 1.325 . S
C891 N892 1.279 . S
C891 C894 1.358 . S
C891 H948 0.930 . S
N892 C891 1.279 . S
N892 C895 1.314 . S
C893 C890 1.348 . S
C893 C895 1.353 . S
C893 H949 0.929 . S
C894 C890 1.356 . S
C894 C891 1.358 . S
C894 H950 0.930 . S
C895 N892 1.314 . S
C895 C893 1.353 . S
C895 H951 0.930 . S
C896 N897 1.314 . S
C896 C901 1.353 . S
C896 H902 0.930 . S
N897 Li880 1.990 . S
N897 C896 1.314 . S
N897 C899 1.279 . S
C898 C899 1.358 . S
C898 C900 1.356 . S
C898 H952 0.930 . S
C899 N897 1.279 . S
C899 C898 1.358 . S
C899 H903 0.930 . S
C900 C898 1.356 . S
C900 C901 1.348 . S
C901 C896 1.353 . S
C901 C900 1.348 . S
C901 H953 0.929 . S
H902 C896 0.930 . S
H903 C899 0.930 . S
C904 N905 1.314 . S
C904 C906 1.353 . S
C904 H910 0.930 . S
N905 Li881 1.990 . S
N905 C904 1.314 . S
N905 C908 1.279 . S
C906 C904 1.353 . S
C906 C909 1.348 . S
C906 H954 0.929 . S
C907 C908 1.358 . S
C907 C909 1.356 . S
C907 H955 0.930 . S
C908 N905 1.279 . S
C908 C907 1.358 . S
C908 H911 0.930 . S
C909 C906 1.348 . S
C909 C907 1.356 . S
H910 C904 0.930 . S
H911 C908 0.930 . S
C912 C914 1.348 . S
C912 C915 1.356 . S
C912 O942 1.325 . S
N913 C916 1.314 . S
N913 C917 1.279 . S
C914 C912 1.348 . S
C914 C916 1.353 . S
C914 H956 0.929 . S
C915 C912 1.356 . S
C915 C917 1.358 . S
C915 H957 0.930 . S
C916 N913 1.314 . S
C916 C914 1.353 . S
C916 H958 0.930 . S
C917 N913 1.279 . S
C917 C915 1.358 . S
C917 H959 0.930 . S
C918 C919 1.348 . S
C918 C920 1.356 . S
C918 O943 1.325 . S
C919 C918 1.348 . S
C919 C921 1.353 . S
C919 H960 0.929 . S
C920 C918 1.356 . S
C920 C922 1.358 . S
C920 H961 0.930 . S
C921 C919 1.353 . S
C921 N923 1.314 . S
C921 H962 0.930 . S
C922 C920 1.358 . S
C922 N923 1.279 . S
C922 H963 0.930 . S
N923 C921 1.314 . S
N923 C922 1.279 . S
C924 C926 1.353 . S
C924 N927 1.314 . S
C924 H930 0.930 . S
C925 N927 1.279 . S
C925 C928 1.358 . S
C925 H931 0.930 . S
C926 C924 1.353 . S
C926 C929 1.348 . S
C926 H964 0.929 . S
N927 Li882 1.990 . S
N927 C924 1.314 . S
N927 C925 1.279 . S
C928 C925 1.358 . S
C928 C929 1.356 . S
C928 H965 0.930 . S
C929 C926 1.348 . S
C929 C928 1.356 . S
H930 C924 0.930 . S
H931 C925 0.930 . S
C932 N933 1.314 . S
C932 C934 1.353 . S
C932 H938 0.930 . S
N933 Li883 1.990 . S
N933 C932 1.314 . S
N933 C936 1.279 . S
C934 C932 1.353 . S
C934 C937 1.348 . S
C934 H966 0.929 . S
C935 C936 1.358 . S
C935 C937 1.356 . S
C935 H967 0.930 . S
C936 N933 1.279 . S
C936 C935 1.358 . S
C936 H939 0.930 . S
C937 C934 1.348 . S
C937 C935 1.356 . S
H938 C932 0.930 . S
H939 C936 0.930 . S
O940 Li880 1.956 . S
O940 Li881 1.970 . S
O940 Li882 1.961 . S
O940 C884 1.325 . S
O941 Li880 1.970 . S
O941 Li881 1.956 . S
O941 Li883 1.961 . S
O941 C890 1.325 . S
O942 Li880 1.961 . S
O942 Li882 1.956 . S
O942 Li883 1.970 . S
O942 C912 1.325 . S
O943 Li881 1.961 . S
O943 Li882 1.970 . S
O943 Li883 1.956 . S
O943 C918 1.325 . S
H944 C886 0.929 . S
H945 C887 0.930 . S
H946 C888 0.930 . S
H947 C889 0.930 . S
H948 C891 0.930 . S
H949 C893 0.929 . S
H950 C894 0.930 . S
H951 C895 0.930 . S
H952 C898 0.930 . S
H953 C901 0.929 . S
H954 C906 0.929 . S
H955 C907 0.930 . S
H956 C914 0.929 . S
H957 C915 0.930 . S
H958 C916 0.930 . S
H959 C917 0.930 . S
H960 C919 0.929 . S
H961 C920 0.930 . S
H962 C921 0.930 . S
H963 C922 0.930 . S
H964 C926 0.929 . S
H965 C928 0.930 . S
H966 C934 0.929 . S
H967 C935 0.930 . S
Li968 N985 1.990 . S
Li968 O1028 1.956 . S
Li968 O1029 1.970 . S
Li968 O1030 1.961 . S
Li969 N993 1.990 . S
Li969 O1028 1.970 . S
Li969 O1029 1.956 . S
Li969 O1031 1.961 . S
Li970 N1015 1.990 . S
Li970 O1028 1.961 . S
Li970 O1030 1.956 . S
Li970 O1031 1.970 . S
Li971 N1021 1.990 . S
Li971 O1029 1.961 . S
Li971 O1030 1.970 . S
Li971 O1031 1.956 . S
C972 C974 1.348 . S
C972 C975 1.356 . S
C972 O1028 1.325 . S
N973 C976 1.314 . S
N973 C977 1.279 . S
C974 C972 1.348 . S
C974 C976 1.353 . S
C974 H1032 0.929 . S
C975 C972 1.356 . S
C975 C977 1.358 . S
C975 H1033 0.930 . S
C976 N973 1.314 . S
C976 C974 1.353 . S
C976 H1034 0.930 . S
C977 N973 1.279 . S
C977 C975 1.358 . S
C977 H1035 0.930 . S
C978 C981 1.348 . S
C978 C982 1.356 . S
C978 O1029 1.325 . S
C979 N980 1.279 . S
C979 C982 1.358 . S
C979 H1036 0.930 . S
N980 C979 1.279 . S
N980 C983 1.314 . S
C981 C978 1.348 . S
C981 C983 1.353 . S
C981 H1037 0.929 . S
C982 C978 1.356 . S
C982 C979 1.358 . S
C982 H1038 0.930 . S
C983 N980 1.314 . S
C983 C981 1.353 . S
C983 H1039 0.930 . S
C984 N985 1.314 . S
C984 C989 1.353 . S
C984 H990 0.930 . S
N985 Li968 1.990 . S
N985 C984 1.314 . S
N985 C987 1.279 . S
C986 C987 1.358 . S
C986 C988 1.356 . S
C986 H1040 0.930 . S
C987 N985 1.279 . S
C987 C986 1.358 . S
C987 H991 0.930 . S
C988 C986 1.356 . S
C988 C989 1.348 . S
C989 C984 1.353 . S
C989 C988 1.348 . S
C989 H1041 0.929 . S
H990 C984 0.930 . S
H991 C987 0.930 . S
C992 N993 1.314 . S
C992 C994 1.353 . S
C992 H998 0.930 . S
N993 Li969 1.990 . S
N993 C992 1.314 . S
N993 C996 1.279 . S
C994 C992 1.353 . S
C994 C997 1.348 . S
C994 H1042 0.929 . S
C995 C996 1.358 . S
C995 C997 1.356 . S
C995 H1043 0.930 . S
C996 N993 1.279 . S
C996 C995 1.358 . S
C996 H999 0.930 . S
C997 C994 1.348 . S
C997 C995 1.356 . S
H998 C992 0.930 . S
H999 C996 0.930 . S
C1000 C1002 1.348 . S
C1000 C1003 1.356 . S
C1000 O1030 1.325 . S
N1001 C1004 1.314 . S
N1001 C1005 1.279 . S
C1002 C1000 1.348 . S
C1002 C1004 1.353 . S
C1002 H1044 0.929 . S
C1003 C1000 1.356 . S
C1003 C1005 1.358 . S
C1003 H1045 0.930 . S
C1004 N1001 1.314 . S
C1004 C1002 1.353 . S
C1004 H1046 0.930 . S
C1005 N1001 1.279 . S
C1005 C1003 1.358 . S
C1005 H1047 0.930 . S
C1006 C1007 1.348 . S
C1006 C1008 1.356 . S
C1006 O1031 1.325 . S
C1007 C1006 1.348 . S
C1007 C1009 1.353 . S
C1007 H1048 0.929 . S
C1008 C1006 1.356 . S
C1008 C1010 1.358 . S
C1008 H1049 0.930 . S
C1009 C1007 1.353 . S
C1009 N1011 1.314 . S
C1009 H1050 0.930 . S
C1010 C1008 1.358 . S
C1010 N1011 1.279 . S
C1010 H1051 0.930 . S
N1011 C1009 1.314 . S
N1011 C1010 1.279 . S
C1012 C1014 1.353 . S
C1012 N1015 1.314 . S
C1012 H1018 0.930 . S
C1013 N1015 1.279 . S
C1013 C1016 1.358 . S
C1013 H1019 0.930 . S
C1014 C1012 1.353 . S
C1014 C1017 1.348 . S
C1014 H1052 0.929 . S
N1015 Li970 1.990 . S
N1015 C1012 1.314 . S
N1015 C1013 1.279 . S
C1016 C1013 1.358 . S
C1016 C1017 1.356 . S
C1016 H1053 0.930 . S
C1017 C1014 1.348 . S
C1017 C1016 1.356 . S
H1018 C1012 0.930 . S
H1019 C1013 0.930 . S
C1020 N1021 1.314 . S
C1020 C1022 1.353 . S
C1020 H1026 0.930 . S
N1021 Li971 1.990 . S
N1021 C1020 1.314 . S
N1021 C1024 1.279 . S
C1022 C1020 1.353 . S
C1022 C1025 1.348 . S
C1022 H1054 0.929 . S
C1023 C1024 1.358 . S
C1023 C1025 1.356 . S
C1023 H1055 0.930 . S
C1024 N1021 1.279 . S
C1024 C1023 1.358 . S
C1024 H1027 0.930 . S
C1025 C1022 1.348 . S
C1025 C1023 1.356 . S
H1026 C1020 0.930 . S
H1027 C1024 0.930 . S
O1028 Li968 1.956 . S
O1028 Li969 1.970 . S
O1028 Li970 1.961 . S
O1028 C972 1.325 . S
O1029 Li968 1.970 . S
O1029 Li969 1.956 . S
O1029 Li971 1.961 . S
O1029 C978 1.325 . S
O1030 Li968 1.961 . S
O1030 Li970 1.956 . S
O1030 Li971 1.970 . S
O1030 C1000 1.325 . S
O1031 Li969 1.961 . S
O1031 Li970 1.970 . S
O1031 Li971 1.956 . S
O1031 C1006 1.325 . S
H1032 C974 0.929 . S
H1033 C975 0.930 . S
H1034 C976 0.930 . S
H1035 C977 0.930 . S
H1036 C979 0.930 . S
H1037 C981 0.929 . S
H1038 C982 0.930 . S
H1039 C983 0.930 . S
H1040 C986 0.930 . S
H1041 C989 0.929 . S
H1042 C994 0.929 . S
H1043 C995 0.930 . S
H1044 C1002 0.929 . S
H1045 C1003 0.930 . S
H1046 C1004 0.930 . S
H1047 C1005 0.930 . S
H1048 C1007 0.929 . S
H1049 C1008 0.930 . S
H1050 C1009 0.930 . S
H1051 C1010 0.930 . S
H1052 C1014 0.929 . S
H1053 C1016 0.930 . S
H1054 C1022 0.929 . S
H1055 C1023 0.930 . S
Li1056 N1073 1.990 . S
Li1056 O1116 1.956 . S
Li1056 O1117 1.970 . S
Li1056 O1118 1.961 . S
Li1057 N1081 1.990 . S
Li1057 O1116 1.970 . S
Li1057 O1117 1.956 . S
Li1057 O1119 1.961 . S
Li1058 N1103 1.990 . S
Li1058 O1116 1.961 . S
Li1058 O1118 1.956 . S
Li1058 O1119 1.970 . S
Li1059 N1109 1.990 . S
Li1059 O1117 1.961 . S
Li1059 O1118 1.970 . S
Li1059 O1119 1.956 . S
C1060 C1062 1.348 . S
C1060 C1063 1.356 . S
C1060 O1116 1.325 . S
N1061 C1064 1.314 . S
N1061 C1065 1.279 . S
C1062 C1060 1.348 . S
C1062 C1064 1.353 . S
C1062 H1120 0.929 . S
C1063 C1060 1.356 . S
C1063 C1065 1.358 . S
C1063 H1121 0.930 . S
C1064 N1061 1.314 . S
C1064 C1062 1.353 . S
C1064 H1122 0.930 . S
C1065 N1061 1.279 . S
C1065 C1063 1.358 . S
C1065 H1123 0.930 . S
C1066 C1069 1.348 . S
C1066 C1070 1.356 . S
C1066 O1117 1.325 . S
C1067 N1068 1.279 . S
C1067 C1070 1.358 . S
C1067 H1124 0.930 . S
N1068 C1067 1.279 . S
N1068 C1071 1.314 . S
C1069 C1066 1.348 . S
C1069 C1071 1.353 . S
C1069 H1125 0.929 . S
C1070 C1066 1.356 . S
C1070 C1067 1.358 . S
C1070 H1126 0.930 . S
C1071 N1068 1.314 . S
C1071 C1069 1.353 . S
C1071 H1127 0.930 . S
C1072 N1073 1.314 . S
C1072 C1077 1.353 . S
C1072 H1078 0.930 . S
N1073 Li1056 1.990 . S
N1073 C1072 1.314 . S
N1073 C1075 1.279 . S
C1074 C1075 1.358 . S
C1074 C1076 1.356 . S
C1074 H1128 0.930 . S
C1075 N1073 1.279 . S
C1075 C1074 1.358 . S
C1075 H1079 0.930 . S
C1076 C1074 1.356 . S
C1076 C1077 1.348 . S
C1077 C1072 1.353 . S
C1077 C1076 1.348 . S
C1077 H1129 0.929 . S
H1078 C1072 0.930 . S
H1079 C1075 0.930 . S
C1080 N1081 1.314 . S
C1080 C1082 1.353 . S
C1080 H1086 0.930 . S
N1081 Li1057 1.990 . S
N1081 C1080 1.314 . S
N1081 C1084 1.279 . S
C1082 C1080 1.353 . S
C1082 C1085 1.348 . S
C1082 H1130 0.929 . S
C1083 C1084 1.358 . S
C1083 C1085 1.356 . S
C1083 H1131 0.930 . S
C1084 N1081 1.279 . S
C1084 C1083 1.358 . S
C1084 H1087 0.930 . S
C1085 C1082 1.348 . S
C1085 C1083 1.356 . S
H1086 C1080 0.930 . S
H1087 C1084 0.930 . S
C1088 C1090 1.348 . S
C1088 C1091 1.356 . S
C1088 O1118 1.325 . S
N1089 C1092 1.314 . S
N1089 C1093 1.279 . S
C1090 C1088 1.348 . S
C1090 C1092 1.353 . S
C1090 H1132 0.929 . S
C1091 C1088 1.356 . S
C1091 C1093 1.358 . S
C1091 H1133 0.930 . S
C1092 N1089 1.314 . S
C1092 C1090 1.353 . S
C1092 H1134 0.930 . S
C1093 N1089 1.279 . S
C1093 C1091 1.358 . S
C1093 H1135 0.930 . S
C1094 C1095 1.348 . S
C1094 C1096 1.356 . S
C1094 O1119 1.325 . S
C1095 C1094 1.348 . S
C1095 C1097 1.353 . S
C1095 H1136 0.929 . S
C1096 C1094 1.356 . S
C1096 C1098 1.358 . S
C1096 H1137 0.930 . S
C1097 C1095 1.353 . S
C1097 N1099 1.314 . S
C1097 H1138 0.930 . S
C1098 C1096 1.358 . S
C1098 N1099 1.279 . S
C1098 H1139 0.930 . S
N1099 C1097 1.314 . S
N1099 C1098 1.279 . S
C1100 C1102 1.353 . S
C1100 N1103 1.314 . S
C1100 H1106 0.930 . S
C1101 N1103 1.279 . S
C1101 C1104 1.358 . S
C1101 H1107 0.930 . S
C1102 C1100 1.353 . S
C1102 C1105 1.348 . S
C1102 H1140 0.929 . S
N1103 Li1058 1.990 . S
N1103 C1100 1.314 . S
N1103 C1101 1.279 . S
C1104 C1101 1.358 . S
C1104 C1105 1.356 . S
C1104 H1141 0.930 . S
C1105 C1102 1.348 . S
C1105 C1104 1.356 . S
H1106 C1100 0.930 . S
H1107 C1101 0.930 . S
C1108 N1109 1.314 . S
C1108 C1110 1.353 . S
C1108 H1114 0.930 . S
N1109 Li1059 1.990 . S
N1109 C1108 1.314 . S
N1109 C1112 1.279 . S
C1110 C1108 1.353 . S
C1110 C1113 1.348 . S
C1110 H1142 0.929 . S
C1111 C1112 1.358 . S
C1111 C1113 1.356 . S
C1111 H1143 0.930 . S
C1112 N1109 1.279 . S
C1112 C1111 1.358 . S
C1112 H1115 0.930 . S
C1113 C1110 1.348 . S
C1113 C1111 1.356 . S
H1114 C1108 0.930 . S
H1115 C1112 0.930 . S
O1116 Li1056 1.956 . S
O1116 Li1057 1.970 . S
O1116 Li1058 1.961 . S
O1116 C1060 1.325 . S
O1117 Li1056 1.970 . S
O1117 Li1057 1.956 . S
O1117 Li1059 1.961 . S
O1117 C1066 1.325 . S
O1118 Li1056 1.961 . S
O1118 Li1058 1.956 . S
O1118 Li1059 1.970 . S
O1118 C1088 1.325 . S
O1119 Li1057 1.961 . S
O1119 Li1058 1.970 . S
O1119 Li1059 1.956 . S
O1119 C1094 1.325 . S
H1120 C1062 0.929 . S
H1121 C1063 0.930 . S
H1122 C1064 0.930 . S
H1123 C1065 0.930 . S
H1124 C1067 0.930 . S
H1125 C1069 0.929 . S
H1126 C1070 0.930 . S
H1127 C1071 0.930 . S
H1128 C1074 0.930 . S
H1129 C1077 0.929 . S
H1130 C1082 0.929 . S
H1131 C1083 0.930 . S
H1132 C1090 0.929 . S
H1133 C1091 0.930 . S
H1134 C1092 0.930 . S
H1135 C1093 0.930 . S
H1136 C1095 0.929 . S
H1137 C1096 0.930 . S
H1138 C1097 0.930 . S
H1139 C1098 0.930 . S
H1140 C1102 0.929 . S
H1141 C1104 0.930 . S
H1142 C1110 0.929 . S
H1143 C1111 0.930 . S
Li1144 N1161 1.990 . S
Li1144 O1204 1.956 . S
Li1144 O1205 1.970 . S
Li1144 O1206 1.961 . S
Li1145 N1169 1.990 . S
Li1145 O1204 1.970 . S
Li1145 O1205 1.956 . S
Li1145 O1207 1.961 . S
Li1146 N1191 1.990 . S
Li1146 O1204 1.961 . S
Li1146 O1206 1.956 . S
Li1146 O1207 1.970 . S
Li1147 N1197 1.990 . S
Li1147 O1205 1.961 . S
Li1147 O1206 1.970 . S
Li1147 O1207 1.956 . S
C1148 C1150 1.348 . S
C1148 C1151 1.356 . S
C1148 O1204 1.325 . S
N1149 C1152 1.314 . S
N1149 C1153 1.279 . S
C1150 C1148 1.348 . S
C1150 C1152 1.353 . S
C1150 H1208 0.929 . S
C1151 C1148 1.356 . S
C1151 C1153 1.358 . S
C1151 H1209 0.930 . S
C1152 N1149 1.314 . S
C1152 C1150 1.353 . S
C1152 H1210 0.930 . S
C1153 N1149 1.279 . S
C1153 C1151 1.358 . S
C1153 H1211 0.930 . S
C1154 C1157 1.348 . S
C1154 C1158 1.356 . S
C1154 O1205 1.325 . S
C1155 N1156 1.279 . S
C1155 C1158 1.358 . S
C1155 H1212 0.930 . S
N1156 C1155 1.279 . S
N1156 C1159 1.314 . S
C1157 C1154 1.348 . S
C1157 C1159 1.353 . S
C1157 H1213 0.929 . S
C1158 C1154 1.356 . S
C1158 C1155 1.358 . S
C1158 H1214 0.930 . S
C1159 N1156 1.314 . S
C1159 C1157 1.353 . S
C1159 H1215 0.930 . S
C1160 N1161 1.314 . S
C1160 C1165 1.353 . S
C1160 H1166 0.930 . S
N1161 Li1144 1.990 . S
N1161 C1160 1.314 . S
N1161 C1163 1.279 . S
C1162 C1163 1.358 . S
C1162 C1164 1.356 . S
C1162 H1216 0.930 . S
C1163 N1161 1.279 . S
C1163 C1162 1.358 . S
C1163 H1167 0.930 . S
C1164 C1162 1.356 . S
C1164 C1165 1.348 . S
C1165 C1160 1.353 . S
C1165 C1164 1.348 . S
C1165 H1217 0.929 . S
H1166 C1160 0.930 . S
H1167 C1163 0.930 . S
C1168 N1169 1.314 . S
C1168 C1170 1.353 . S
C1168 H1174 0.930 . S
N1169 Li1145 1.990 . S
N1169 C1168 1.314 . S
N1169 C1172 1.279 . S
C1170 C1168 1.353 . S
C1170 C1173 1.348 . S
C1170 H1218 0.929 . S
C1171 C1172 1.358 . S
C1171 C1173 1.356 . S
C1171 H1219 0.930 . S
C1172 N1169 1.279 . S
C1172 C1171 1.358 . S
C1172 H1175 0.930 . S
C1173 C1170 1.348 . S
C1173 C1171 1.356 . S
H1174 C1168 0.930 . S
H1175 C1172 0.930 . S
C1176 C1178 1.348 . S
C1176 C1179 1.356 . S
C1176 O1206 1.325 . S
N1177 C1180 1.314 . S
N1177 C1181 1.279 . S
C1178 C1176 1.348 . S
C1178 C1180 1.353 . S
C1178 H1220 0.929 . S
C1179 C1176 1.356 . S
C1179 C1181 1.358 . S
C1179 H1221 0.930 . S
C1180 N1177 1.314 . S
C1180 C1178 1.353 . S
C1180 H1222 0.930 . S
C1181 N1177 1.279 . S
C1181 C1179 1.358 . S
C1181 H1223 0.930 . S
C1182 C1183 1.348 . S
C1182 C1184 1.356 . S
C1182 O1207 1.325 . S
C1183 C1182 1.348 . S
C1183 C1185 1.353 . S
C1183 H1224 0.929 . S
C1184 C1182 1.356 . S
C1184 C1186 1.358 . S
C1184 H1225 0.930 . S
C1185 C1183 1.353 . S
C1185 N1187 1.314 . S
C1185 H1226 0.930 . S
C1186 C1184 1.358 . S
C1186 N1187 1.279 . S
C1186 H1227 0.930 . S
N1187 C1185 1.314 . S
N1187 C1186 1.279 . S
C1188 C1190 1.353 . S
C1188 N1191 1.314 . S
C1188 H1194 0.930 . S
C1189 N1191 1.279 . S
C1189 C1192 1.358 . S
C1189 H1195 0.930 . S
C1190 C1188 1.353 . S
C1190 C1193 1.348 . S
C1190 H1228 0.929 . S
N1191 Li1146 1.990 . S
N1191 C1188 1.314 . S
N1191 C1189 1.279 . S
C1192 C1189 1.358 . S
C1192 C1193 1.356 . S
C1192 H1229 0.930 . S
C1193 C1190 1.348 . S
C1193 C1192 1.356 . S
H1194 C1188 0.930 . S
H1195 C1189 0.930 . S
C1196 N1197 1.314 . S
C1196 C1198 1.353 . S
C1196 H1202 0.930 . S
N1197 Li1147 1.990 . S
N1197 C1196 1.314 . S
N1197 C1200 1.279 . S
C1198 C1196 1.353 . S
C1198 C1201 1.348 . S
C1198 H1230 0.929 . S
C1199 C1200 1.358 . S
C1199 C1201 1.356 . S
C1199 H1231 0.930 . S
C1200 N1197 1.279 . S
C1200 C1199 1.358 . S
C1200 H1203 0.930 . S
C1201 C1198 1.348 . S
C1201 C1199 1.356 . S
H1202 C1196 0.930 . S
H1203 C1200 0.930 . S
O1204 Li1144 1.956 . S
O1204 Li1145 1.970 . S
O1204 Li1146 1.961 . S
O1204 C1148 1.325 . S
O1205 Li1144 1.970 . S
O1205 Li1145 1.956 . S
O1205 Li1147 1.961 . S
O1205 C1154 1.325 . S
O1206 Li1144 1.961 . S
O1206 Li1146 1.956 . S
O1206 Li1147 1.970 . S
O1206 C1176 1.325 . S
O1207 Li1145 1.961 . S
O1207 Li1146 1.970 . S
O1207 Li1147 1.956 . S
O1207 C1182 1.325 . S
H1208 C1150 0.929 . S
H1209 C1151 0.930 . S
H1210 C1152 0.930 . S
H1211 C1153 0.930 . S
H1212 C1155 0.930 . S
H1213 C1157 0.929 . S
H1214 C1158 0.930 . S
H1215 C1159 0.930 . S
H1216 C1162 0.930 . S
H1217 C1165 0.929 . S
H1218 C1170 0.929 . S
H1219 C1171 0.930 . S
H1220 C1178 0.929 . S
H1221 C1179 0.930 . S
H1222 C1180 0.930 . S
H1223 C1181 0.930 . S
H1224 C1183 0.929 . S
H1225 C1184 0.930 . S
H1226 C1185 0.930 . S
H1227 C1186 0.930 . S
H1228 C1190 0.929 . S
H1229 C1192 0.930 . S
H1230 C1198 0.929 . S
H1231 C1199 0.930 . S
Li1232 N1249 1.990 . S
Li1232 O1292 1.956 . S
Li1232 O1293 1.970 . S
Li1232 O1294 1.961 . S
Li1233 N1257 1.990 . S
Li1233 O1292 1.970 . S
Li1233 O1293 1.956 . S
Li1233 O1295 1.961 . S
Li1234 N1279 1.990 . S
Li1234 O1292 1.961 . S
Li1234 O1294 1.956 . S
Li1234 O1295 1.970 . S
Li1235 N1285 1.990 . S
Li1235 O1293 1.961 . S
Li1235 O1294 1.970 . S
Li1235 O1295 1.956 . S
C1236 C1238 1.348 . S
C1236 C1239 1.356 . S
C1236 O1292 1.325 . S
N1237 C1240 1.314 . S
N1237 C1241 1.279 . S
C1238 C1236 1.348 . S
C1238 C1240 1.353 . S
C1238 H1296 0.929 . S
C1239 C1236 1.356 . S
C1239 C1241 1.358 . S
C1239 H1297 0.930 . S
C1240 N1237 1.314 . S
C1240 C1238 1.353 . S
C1240 H1298 0.930 . S
C1241 N1237 1.279 . S
C1241 C1239 1.358 . S
C1241 H1299 0.930 . S
C1242 C1245 1.348 . S
C1242 C1246 1.356 . S
C1242 O1293 1.325 . S
C1243 N1244 1.279 . S
C1243 C1246 1.358 . S
C1243 H1300 0.930 . S
N1244 C1243 1.279 . S
N1244 C1247 1.314 . S
C1245 C1242 1.348 . S
C1245 C1247 1.353 . S
C1245 H1301 0.929 . S
C1246 C1242 1.356 . S
C1246 C1243 1.358 . S
C1246 H1302 0.930 . S
C1247 N1244 1.314 . S
C1247 C1245 1.353 . S
C1247 H1303 0.930 . S
C1248 N1249 1.314 . S
C1248 C1253 1.353 . S
C1248 H1254 0.930 . S
N1249 Li1232 1.990 . S
N1249 C1248 1.314 . S
N1249 C1251 1.279 . S
C1250 C1251 1.358 . S
C1250 C1252 1.356 . S
C1250 H1304 0.930 . S
C1251 N1249 1.279 . S
C1251 C1250 1.358 . S
C1251 H1255 0.930 . S
C1252 C1250 1.356 . S
C1252 C1253 1.348 . S
C1253 C1248 1.353 . S
C1253 C1252 1.348 . S
C1253 H1305 0.929 . S
H1254 C1248 0.930 . S
H1255 C1251 0.930 . S
C1256 N1257 1.314 . S
C1256 C1258 1.353 . S
C1256 H1262 0.930 . S
N1257 Li1233 1.990 . S
N1257 C1256 1.314 . S
N1257 C1260 1.279 . S
C1258 C1256 1.353 . S
C1258 C1261 1.348 . S
C1258 H1306 0.929 . S
C1259 C1260 1.358 . S
C1259 C1261 1.356 . S
C1259 H1307 0.930 . S
C1260 N1257 1.279 . S
C1260 C1259 1.358 . S
C1260 H1263 0.930 . S
C1261 C1258 1.348 . S
C1261 C1259 1.356 . S
H1262 C1256 0.930 . S
H1263 C1260 0.930 . S
C1264 C1266 1.348 . S
C1264 C1267 1.356 . S
C1264 O1294 1.325 . S
N1265 C1268 1.314 . S
N1265 C1269 1.279 . S
C1266 C1264 1.348 . S
C1266 C1268 1.353 . S
C1266 H1308 0.929 . S
C1267 C1264 1.356 . S
C1267 C1269 1.358 . S
C1267 H1309 0.930 . S
C1268 N1265 1.314 . S
C1268 C1266 1.353 . S
C1268 H1310 0.930 . S
C1269 N1265 1.279 . S
C1269 C1267 1.358 . S
C1269 H1311 0.930 . S
C1270 C1271 1.348 . S
C1270 C1272 1.356 . S
C1270 O1295 1.325 . S
C1271 C1270 1.348 . S
C1271 C1273 1.353 . S
C1271 H1312 0.929 . S
C1272 C1270 1.356 . S
C1272 C1274 1.358 . S
C1272 H1313 0.930 . S
C1273 C1271 1.353 . S
C1273 N1275 1.314 . S
C1273 H1314 0.930 . S
C1274 C1272 1.358 . S
C1274 N1275 1.279 . S
C1274 H1315 0.930 . S
N1275 C1273 1.314 . S
N1275 C1274 1.279 . S
C1276 C1278 1.353 . S
C1276 N1279 1.314 . S
C1276 H1282 0.930 . S
C1277 N1279 1.279 . S
C1277 C1280 1.358 . S
C1277 H1283 0.930 . S
C1278 C1276 1.353 . S
C1278 C1281 1.348 . S
C1278 H1316 0.929 . S
N1279 Li1234 1.990 . S
N1279 C1276 1.314 . S
N1279 C1277 1.279 . S
C1280 C1277 1.358 . S
C1280 C1281 1.356 . S
C1280 H1317 0.930 . S
C1281 C1278 1.348 . S
C1281 C1280 1.356 . S
H1282 C1276 0.930 . S
H1283 C1277 0.930 . S
C1284 N1285 1.314 . S
C1284 C1286 1.353 . S
C1284 H1290 0.930 . S
N1285 Li1235 1.990 . S
N1285 C1284 1.314 . S
N1285 C1288 1.279 . S
C1286 C1284 1.353 . S
C1286 C1289 1.348 . S
C1286 H1318 0.929 . S
C1287 C1288 1.358 . S
C1287 C1289 1.356 . S
C1287 H1319 0.930 . S
C1288 N1285 1.279 . S
C1288 C1287 1.358 . S
C1288 H1291 0.930 . S
C1289 C1286 1.348 . S
C1289 C1287 1.356 . S
H1290 C1284 0.930 . S
H1291 C1288 0.930 . S
O1292 Li1232 1.956 . S
O1292 Li1233 1.970 . S
O1292 Li1234 1.961 . S
O1292 C1236 1.325 . S
O1293 Li1232 1.970 . S
O1293 Li1233 1.956 . S
O1293 Li1235 1.961 . S
O1293 C1242 1.325 . S
O1294 Li1232 1.961 . S
O1294 Li1234 1.956 . S
O1294 Li1235 1.970 . S
O1294 C1264 1.325 . S
O1295 Li1233 1.961 . S
O1295 Li1234 1.970 . S
O1295 Li1235 1.956 . S
O1295 C1270 1.325 . S
H1296 C1238 0.929 . S
H1297 C1239 0.930 . S
H1298 C1240 0.930 . S
H1299 C1241 0.930 . S
H1300 C1243 0.930 . S
H1301 C1245 0.929 . S
H1302 C1246 0.930 . S
H1303 C1247 0.930 . S
H1304 C1250 0.930 . S
H1305 C1253 0.929 . S
H1306 C1258 0.929 . S
H1307 C1259 0.930 . S
H1308 C1266 0.929 . S
H1309 C1267 0.930 . S
H1310 C1268 0.930 . S
H1311 C1269 0.930 . S
H1312 C1271 0.929 . S
H1313 C1272 0.930 . S
H1314 C1273 0.930 . S
H1315 C1274 0.930 . S
H1316 C1278 0.929 . S
H1317 C1280 0.930 . S
H1318 C1286 0.929 . S
H1319 C1287 0.930 . S
Li1320 N1337 1.990 . S
Li1320 O1380 1.956 . S
Li1320 O1381 1.970 . S
Li1320 O1382 1.961 . S
Li1321 N1345 1.990 . S
Li1321 O1380 1.970 . S
Li1321 O1381 1.956 . S
Li1321 O1383 1.961 . S
Li1322 N1367 1.990 . S
Li1322 O1380 1.961 . S
Li1322 O1382 1.956 . S
Li1322 O1383 1.970 . S
Li1323 N1373 1.990 . S
Li1323 O1381 1.961 . S
Li1323 O1382 1.970 . S
Li1323 O1383 1.956 . S
C1324 C1326 1.348 . S
C1324 C1327 1.356 . S
C1324 O1380 1.325 . S
N1325 C1328 1.314 . S
N1325 C1329 1.279 . S
C1326 C1324 1.348 . S
C1326 C1328 1.353 . S
C1326 H1384 0.929 . S
C1327 C1324 1.356 . S
C1327 C1329 1.358 . S
C1327 H1385 0.930 . S
C1328 N1325 1.314 . S
C1328 C1326 1.353 . S
C1328 H1386 0.930 . S
C1329 N1325 1.279 . S
C1329 C1327 1.358 . S
C1329 H1387 0.930 . S
C1330 C1333 1.348 . S
C1330 C1334 1.356 . S
C1330 O1381 1.325 . S
C1331 N1332 1.279 . S
C1331 C1334 1.358 . S
C1331 H1388 0.930 . S
N1332 C1331 1.279 . S
N1332 C1335 1.314 . S
C1333 C1330 1.348 . S
C1333 C1335 1.353 . S
C1333 H1389 0.929 . S
C1334 C1330 1.356 . S
C1334 C1331 1.358 . S
C1334 H1390 0.930 . S
C1335 N1332 1.314 . S
C1335 C1333 1.353 . S
C1335 H1391 0.930 . S
C1336 N1337 1.314 . S
C1336 C1341 1.353 . S
C1336 H1342 0.930 . S
N1337 Li1320 1.990 . S
N1337 C1336 1.314 . S
N1337 C1339 1.279 . S
C1338 C1339 1.358 . S
C1338 C1340 1.356 . S
C1338 H1392 0.930 . S
C1339 N1337 1.279 . S
C1339 C1338 1.358 . S
C1339 H1343 0.930 . S
C1340 C1338 1.356 . S
C1340 C1341 1.348 . S
C1341 C1336 1.353 . S
C1341 C1340 1.348 . S
C1341 H1393 0.929 . S
H1342 C1336 0.930 . S
H1343 C1339 0.930 . S
C1344 N1345 1.314 . S
C1344 C1346 1.353 . S
C1344 H1350 0.930 . S
N1345 Li1321 1.990 . S
N1345 C1344 1.314 . S
N1345 C1348 1.279 . S
C1346 C1344 1.353 . S
C1346 C1349 1.348 . S
C1346 H1394 0.929 . S
C1347 C1348 1.358 . S
C1347 C1349 1.356 . S
C1347 H1395 0.930 . S
C1348 N1345 1.279 . S
C1348 C1347 1.358 . S
C1348 H1351 0.930 . S
C1349 C1346 1.348 . S
C1349 C1347 1.356 . S
H1350 C1344 0.930 . S
H1351 C1348 0.930 . S
C1352 C1354 1.348 . S
C1352 C1355 1.356 . S
C1352 O1382 1.325 . S
N1353 C1356 1.314 . S
N1353 C1357 1.279 . S
C1354 C1352 1.348 . S
C1354 C1356 1.353 . S
C1354 H1396 0.929 . S
C1355 C1352 1.356 . S
C1355 C1357 1.358 . S
C1355 H1397 0.930 . S
C1356 N1353 1.314 . S
C1356 C1354 1.353 . S
C1356 H1398 0.930 . S
C1357 N1353 1.279 . S
C1357 C1355 1.358 . S
C1357 H1399 0.930 . S
C1358 C1359 1.348 . S
C1358 C1360 1.356 . S
C1358 O1383 1.325 . S
C1359 C1358 1.348 . S
C1359 C1361 1.353 . S
C1359 H1400 0.929 . S
C1360 C1358 1.356 . S
C1360 C1362 1.358 . S
C1360 H1401 0.930 . S
C1361 C1359 1.353 . S
C1361 N1363 1.314 . S
C1361 H1402 0.930 . S
C1362 C1360 1.358 . S
C1362 N1363 1.279 . S
C1362 H1403 0.930 . S
N1363 C1361 1.314 . S
N1363 C1362 1.279 . S
C1364 C1366 1.353 . S
C1364 N1367 1.314 . S
C1364 H1370 0.930 . S
C1365 N1367 1.279 . S
C1365 C1368 1.358 . S
C1365 H1371 0.930 . S
C1366 C1364 1.353 . S
C1366 C1369 1.348 . S
C1366 H1404 0.929 . S
N1367 Li1322 1.990 . S
N1367 C1364 1.314 . S
N1367 C1365 1.279 . S
C1368 C1365 1.358 . S
C1368 C1369 1.356 . S
C1368 H1405 0.930 . S
C1369 C1366 1.348 . S
C1369 C1368 1.356 . S
H1370 C1364 0.930 . S
H1371 C1365 0.930 . S
C1372 N1373 1.314 . S
C1372 C1374 1.353 . S
C1372 H1378 0.930 . S
N1373 Li1323 1.990 . S
N1373 C1372 1.314 . S
N1373 C1376 1.279 . S
C1374 C1372 1.353 . S
C1374 C1377 1.348 . S
C1374 H1406 0.929 . S
C1375 C1376 1.358 . S
C1375 C1377 1.356 . S
C1375 H1407 0.930 . S
C1376 N1373 1.279 . S
C1376 C1375 1.358 . S
C1376 H1379 0.930 . S
C1377 C1374 1.348 . S
C1377 C1375 1.356 . S
H1378 C1372 0.930 . S
H1379 C1376 0.930 . S
O1380 Li1320 1.956 . S
O1380 Li1321 1.970 . S
O1380 Li1322 1.961 . S
O1380 C1324 1.325 . S
O1381 Li1320 1.970 . S
O1381 Li1321 1.956 . S
O1381 Li1323 1.961 . S
O1381 C1330 1.325 . S
O1382 Li1320 1.961 . S
O1382 Li1322 1.956 . S
O1382 Li1323 1.970 . S
O1382 C1352 1.325 . S
O1383 Li1321 1.961 . S
O1383 Li1322 1.970 . S
O1383 Li1323 1.956 . S
O1383 C1358 1.325 . S
H1384 C1326 0.929 . S
H1385 C1327 0.930 . S
H1386 C1328 0.930 . S
H1387 C1329 0.930 . S
H1388 C1331 0.930 . S
H1389 C1333 0.929 . S
H1390 C1334 0.930 . S
H1391 C1335 0.930 . S
H1392 C1338 0.930 . S
H1393 C1341 0.929 . S
H1394 C1346 0.929 . S
H1395 C1347 0.930 . S
H1396 C1354 0.929 . S
H1397 C1355 0.930 . S
H1398 C1356 0.930 . S
H1399 C1357 0.930 . S
H1400 C1359 0.929 . S
H1401 C1360 0.930 . S
H1402 C1361 0.930 . S
H1403 C1362 0.930 . S
H1404 C1366 0.929 . S
H1405 C1368 0.930 . S
H1406 C1374 0.929 . S
H1407 C1375 0.930 . S
C1408 C1409 1.349 . S
C1408 C1410 1.327 . S
C1408 H1433 0.950 . S
C1409 C1408 1.349 . S
C1409 C1425 1.349 . S
C1410 C1408 1.327 . S
C1410 C1429 1.429 . S
C1410 H1434 0.950 . S
C1411 C1428 1.574 . S
C1411 C1430 1.368 1_556 S
C1411 H1435 0.949 . S
H1412 C1416 0.949 . S
C1413 C1414 1.349 . S
C1413 C1415 1.327 . S
C1413 H1436 0.950 . S
C1414 C1413 1.349 . S
C1414 C1426 1.349 . S
C1415 C1413 1.327 . S
C1415 C1431 1.429 . S
C1415 H1437 0.950 . S
C1416 H1412 0.949 . S
C1416 C1424 1.574 . S
C1416 C1432 1.368 1_554 S
H1417 C1425 0.950 . S
H1418 C1423 0.950 . S
H1419 C1424 0.949 . S
H1420 C1426 0.950 . S
H1421 C1427 0.950 . S
H1422 C1428 0.949 . S
C1423 H1418 0.950 . S
C1423 C1425 1.327 . S
C1423 C1429 1.429 . S
C1424 C1416 1.574 . S
C1424 H1419 0.949 . S
C1424 C1430 1.368 . S
C1425 C1409 1.349 . S
C1425 H1417 0.950 . S
C1425 C1423 1.327 . S
C1426 C1414 1.349 . S
C1426 H1420 0.950 . S
C1426 C1427 1.327 . S
C1427 H1421 0.950 . S
C1427 C1426 1.327 . S
C1427 C1431 1.429 . S
C1428 C1411 1.574 . S
C1428 H1422 0.949 . S
C1428 C1432 1.368 . S
C1429 C1410 1.429 . S
C1429 C1423 1.429 . S
C1429 C1430 1.523 . S
C1430 C1411 1.368 1_554 S
C1430 C1424 1.368 . S
C1430 C1429 1.523 . S
C1431 C1415 1.429 . S
C1431 C1427 1.429 . S
C1431 C1432 1.523 . S
C1432 C1416 1.368 1_556 S
C1432 C1428 1.368 . S
C1432 C1431 1.523 . S
H1433 C1408 0.950 . S
H1434 C1410 0.950 . S
H1435 C1411 0.949 . S
H1436 C1413 0.950 . S
H1437 C1415 0.950 . S
C1438 C1439 1.349 . S
C1438 C1440 1.327 . S
C1438 H1463 0.950 . S
C1439 C1438 1.349 . S
C1439 C1455 1.349 . S
C1440 C1438 1.327 . S
C1440 C1459 1.429 . S
C1440 H1464 0.950 . S
C1441 C1458 1.574 . S
C1441 C1460 1.368 . S
C1441 H1465 0.949 . S
H1442 C1446 0.949 . S
C1443 C1444 1.349 . S
C1443 C1445 1.327 . S
C1443 H1466 0.950 . S
C1444 C1443 1.349 . S
C1444 C1456 1.349 . S
C1445 C1443 1.327 . S
C1445 C1461 1.429 . S
C1445 H1467 0.950 . S
C1446 H1442 0.949 . S
C1446 C1454 1.574 . S
C1446 C1462 1.368 . S
H1447 C1455 0.950 . S
H1448 C1453 0.950 . S
H1449 C1454 0.949 . S
H1450 C1456 0.950 . S
H1451 C1457 0.950 . S
H1452 C1458 0.949 . S
C1453 H1448 0.950 . S
C1453 C1455 1.327 . S
C1453 C1459 1.429 . S
C1454 C1446 1.574 . S
C1454 H1449 0.949 . S
C1454 C1460 1.368 . S
C1455 C1439 1.349 . S
C1455 H1447 0.950 . S
C1455 C1453 1.327 . S
C1456 C1444 1.349 . S
C1456 H1450 0.950 . S
C1456 C1457 1.327 . S
C1457 H1451 0.950 . S
C1457 C1456 1.327 . S
C1457 C1461 1.429 . S
C1458 C1441 1.574 . S
C1458 H1452 0.949 . S
C1458 C1462 1.368 . S
C1459 C1440 1.429 . S
C1459 C1453 1.429 . S
C1459 C1460 1.523 . S
C1460 C1441 1.368 . S
C1460 C1454 1.368 . S
C1460 C1459 1.523 . S
C1461 C1445 1.429 . S
C1461 C1457 1.429 . S
C1461 C1462 1.523 . S
C1462 C1446 1.368 . S
C1462 C1458 1.368 . S
C1462 C1461 1.523 . S
H1463 C1438 0.950 . S
H1464 C1440 0.950 . S
H1465 C1441 0.949 . S
H1466 C1443 0.950 . S
H1467 C1445 0.950 . S
C1468 C1469 1.349 . S
C1468 C1470 1.327 . S
C1468 H1493 0.950 . S
C1469 C1468 1.349 . S
C1469 C1485 1.349 . S
C1470 C1468 1.327 . S
C1470 C1489 1.429 . S
C1470 H1494 0.950 . S
C1471 C1488 1.574 1_556 S
C1471 C1490 1.368 . S
C1471 H1495 0.949 . S
H1472 C1476 0.949 . S
C1473 C1474 1.349 . S
C1473 C1475 1.327 . S
C1473 H1496 0.950 . S
C1474 C1473 1.349 . S
C1474 C1486 1.349 . S
C1475 C1473 1.327 . S
C1475 C1491 1.429 . S
C1475 H1497 0.950 . S
C1476 H1472 0.949 . S
C1476 C1484 1.574 1_554 S
C1476 C1492 1.368 . S
H1477 C1485 0.950 . S
H1478 C1483 0.950 . S
H1479 C1484 0.949 . S
H1480 C1486 0.950 . S
H1481 C1487 0.950 . S
H1482 C1488 0.949 . S
C1483 H1478 0.950 . S
C1483 C1485 1.327 . S
C1483 C1489 1.429 . S
C1484 C1476 1.574 1_556 S
C1484 H1479 0.949 . S
C1484 C1490 1.368 . S
C1485 C1469 1.349 . S
C1485 H1477 0.950 . S
C1485 C1483 1.327 . S
C1486 C1474 1.349 . S
C1486 H1480 0.950 . S
C1486 C1487 1.327 . S
C1487 H1481 0.950 . S
C1487 C1486 1.327 . S
C1487 C1491 1.429 . S
C1488 C1471 1.574 1_554 S
C1488 H1482 0.949 . S
C1488 C1492 1.368 . S
C1489 C1470 1.429 . S
C1489 C1483 1.429 . S
C1489 C1490 1.523 . S
C1490 C1471 1.368 . S
C1490 C1484 1.368 . S
C1490 C1489 1.523 . S
C1491 C1475 1.429 . S
C1491 C1487 1.429 . S
C1491 C1492 1.523 . S
C1492 C1476 1.368 . S
C1492 C1488 1.368 . S
C1492 C1491 1.523 . S
H1493 C1468 0.950 . S
H1494 C1470 0.950 . S
H1495 C1471 0.949 . S
H1496 C1473 0.950 . S
H1497 C1475 0.950 . S
C1498 C1499 1.349 . S
C1498 C1500 1.327 . S
C1498 H1523 0.950 . S
C1499 C1498 1.349 . S
C1499 C1515 1.349 . S
C1500 C1498 1.327 . S
C1500 C1519 1.429 . S
C1500 H1524 0.950 . S
C1501 C1518 1.574 . S
C1501 C1520 1.368 . S
C1501 H1525 0.949 . S
H1502 C1506 0.949 . S
C1503 C1504 1.349 . S
C1503 C1505 1.327 . S
C1503 H1526 0.950 . S
C1504 C1503 1.349 . S
C1504 C1516 1.349 . S
C1505 C1503 1.327 . S
C1505 C1521 1.429 . S
C1505 H1527 0.950 . S
C1506 H1502 0.949 . S
C1506 C1514 1.574 . S
C1506 C1522 1.368 . S
H1507 C1515 0.950 . S
H1508 C1513 0.950 . S
H1509 C1514 0.949 . S
H1510 C1516 0.950 . S
H1511 C1517 0.950 . S
H1512 C1518 0.949 . S
C1513 H1508 0.950 . S
C1513 C1515 1.327 . S
C1513 C1519 1.429 . S
C1514 C1506 1.574 . S
C1514 H1509 0.949 . S
C1514 C1520 1.368 . S
C1515 C1499 1.349 . S
C1515 H1507 0.950 . S
C1515 C1513 1.327 . S
C1516 C1504 1.349 . S
C1516 H1510 0.950 . S
C1516 C1517 1.327 . S
C1517 H1511 0.950 . S
C1517 C1516 1.327 . S
C1517 C1521 1.429 . S
C1518 C1501 1.574 . S
C1518 H1512 0.949 . S
C1518 C1522 1.368 . S
C1519 C1500 1.429 . S
C1519 C1513 1.429 . S
C1519 C1520 1.523 . S
C1520 C1501 1.368 . S
C1520 C1514 1.368 . S
C1520 C1519 1.523 . S
C1521 C1505 1.429 . S
C1521 C1517 1.429 . S
C1521 C1522 1.523 . S
C1522 C1506 1.368 . S
C1522 C1518 1.368 . S
C1522 C1521 1.523 . S
H1523 C1498 0.950 . S
H1524 C1500 0.950 . S
H1525 C1501 0.949 . S
H1526 C1503 0.950 . S
H1527 C1505 0.950 . S
C1528 C1529 1.349 . S
C1528 C1530 1.327 . S
C1528 H1553 0.950 . S
C1529 C1528 1.349 . S
C1529 C1545 1.349 . S
C1530 C1528 1.327 . S
C1530 C1549 1.429 . S
C1530 H1554 0.950 . S
C1531 C1548 1.574 . S
C1531 C1550 1.368 1_556 S
C1531 H1555 0.949 . S
H1532 C1536 0.949 . S
C1533 C1534 1.349 . S
C1533 C1535 1.327 . S
C1533 H1556 0.950 . S
C1534 C1533 1.349 . S
C1534 C1546 1.349 . S
C1535 C1533 1.327 . S
C1535 C1551 1.429 . S
C1535 H1557 0.950 . S
C1536 H1532 0.949 . S
C1536 C1544 1.574 . S
C1536 C1552 1.368 1_554 S
H1537 C1545 0.950 . S
H1538 C1543 0.950 . S
H1539 C1544 0.949 . S
H1540 C1546 0.950 . S
H1541 C1547 0.950 . S
H1542 C1548 0.949 . S
C1543 H1538 0.950 . S
C1543 C1545 1.327 . S
C1543 C1549 1.429 . S
C1544 C1536 1.574 . S
C1544 H1539 0.949 . S
C1544 C1550 1.368 . S
C1545 C1529 1.349 . S
C1545 H1537 0.950 . S
C1545 C1543 1.327 . S
C1546 C1534 1.349 . S
C1546 H1540 0.950 . S
C1546 C1547 1.327 . S
C1547 H1541 0.950 . S
C1547 C1546 1.327 . S
C1547 C1551 1.429 . S
C1548 C1531 1.574 . S
C1548 H1542 0.949 . S
C1548 C1552 1.368 . S
C1549 C1530 1.429 . S
C1549 C1543 1.429 . S
C1549 C1550 1.523 . S
C1550 C1531 1.368 1_554 S
C1550 C1544 1.368 . S
C1550 C1549 1.523 . S
C1551 C1535 1.429 . S
C1551 C1547 1.429 . S
C1551 C1552 1.523 . S
C1552 C1536 1.368 1_556 S
C1552 C1548 1.368 . S
C1552 C1551 1.523 . S
H1553 C1528 0.950 . S
H1554 C1530 0.950 . S
H1555 C1531 0.949 . S
H1556 C1533 0.950 . S
H1557 C1535 0.950 . S
C1558 C1559 1.349 . S
C1558 C1560 1.327 . S
C1558 H1583 0.950 . S
C1559 C1558 1.349 . S
C1559 C1575 1.349 . S
C1560 C1558 1.327 . S
C1560 C1579 1.429 . S
C1560 H1584 0.950 . S
C1561 C1578 1.574 . S
C1561 C1580 1.368 . S
C1561 H1585 0.949 . S
H1562 C1566 0.949 . S
C1563 C1564 1.349 . S
C1563 C1565 1.327 . S
C1563 H1586 0.950 . S
C1564 C1563 1.349 . S
C1564 C1576 1.349 . S
C1565 C1563 1.327 . S
C1565 C1581 1.429 . S
C1565 H1587 0.950 . S
C1566 H1562 0.949 . S
C1566 C1574 1.574 . S
C1566 C1582 1.368 . S
H1567 C1575 0.950 . S
H1568 C1573 0.950 . S
H1569 C1574 0.949 . S
H1570 C1576 0.950 . S
H1571 C1577 0.950 . S
H1572 C1578 0.949 . S
C1573 H1568 0.950 . S
C1573 C1575 1.327 . S
C1573 C1579 1.429 . S
C1574 C1566 1.574 . S
C1574 H1569 0.949 . S
C1574 C1580 1.368 . S
C1575 C1559 1.349 . S
C1575 H1567 0.950 . S
C1575 C1573 1.327 . S
C1576 C1564 1.349 . S
C1576 H1570 0.950 . S
C1576 C1577 1.327 . S
C1577 H1571 0.950 . S
C1577 C1576 1.327 . S
C1577 C1581 1.429 . S
C1578 C1561 1.574 . S
C1578 H1572 0.949 . S
C1578 C1582 1.368 . S
C1579 C1560 1.429 . S
C1579 C1573 1.429 . S
C1579 C1580 1.523 . S
C1580 C1561 1.368 . S
C1580 C1574 1.368 . S
C1580 C1579 1.523 . S
C1581 C1565 1.429 . S
C1581 C1577 1.429 . S
C1581 C1582 1.523 . S
C1582 C1566 1.368 . S
C1582 C1578 1.368 . S
C1582 C1581 1.523 . S
H1583 C1558 0.950 . S
H1584 C1560 0.950 . S
H1585 C1561 0.949 . S
H1586 C1563 0.950 . S
H1587 C1565 0.950 . S
C1588 C1589 1.349 . S
C1588 C1590 1.327 . S
C1588 H1613 0.950 . S
C1589 C1588 1.349 . S
C1589 C1605 1.349 . S
C1590 C1588 1.327 . S
C1590 C1609 1.429 . S
C1590 H1614 0.950 . S
C1591 C1608 1.574 . S
C1591 C1610 1.368 . S
C1591 H1615 0.949 . S
H1592 C1596 0.949 . S
C1593 C1594 1.349 . S
C1593 C1595 1.327 . S
C1593 H1616 0.950 . S
C1594 C1593 1.349 . S
C1594 C1606 1.349 . S
C1595 C1593 1.327 . S
C1595 C1611 1.429 . S
C1595 H1617 0.950 . S
C1596 H1592 0.949 . S
C1596 C1604 1.574 . S
C1596 C1612 1.368 . S
H1597 C1605 0.950 . S
H1598 C1603 0.950 . S
H1599 C1604 0.949 . S
H1600 C1606 0.950 . S
H1601 C1607 0.950 . S
H1602 C1608 0.949 . S
C1603 H1598 0.950 . S
C1603 C1605 1.327 . S
C1603 C1609 1.429 . S
C1604 C1596 1.574 . S
C1604 H1599 0.949 . S
C1604 C1610 1.368 1_554 S
C1605 C1589 1.349 . S
C1605 H1597 0.950 . S
C1605 C1603 1.327 . S
C1606 C1594 1.349 . S
C1606 H1600 0.950 . S
C1606 C1607 1.327 . S
C1607 H1601 0.950 . S
C1607 C1606 1.327 . S
C1607 C1611 1.429 . S
C1608 C1591 1.574 . S
C1608 H1602 0.949 . S
C1608 C1612 1.368 1_556 S
C1609 C1590 1.429 . S
C1609 C1603 1.429 . S
C1609 C1610 1.523 . S
C1610 C1591 1.368 . S
C1610 C1604 1.368 1_556 S
C1610 C1609 1.523 . S
C1611 C1595 1.429 . S
C1611 C1607 1.429 . S
C1611 C1612 1.523 . S
C1612 C1596 1.368 . S
C1612 C1608 1.368 1_554 S
C1612 C1611 1.523 . S
H1613 C1588 0.950 . S
H1614 C1590 0.950 . S
H1615 C1591 0.949 . S
H1616 C1593 0.950 . S
H1617 C1595 0.950 . S
C1618 C1619 1.349 . S
C1618 C1620 1.327 . S
C1618 H1643 0.950 . S
C1619 C1618 1.349 . S
C1619 C1635 1.349 . S
C1620 C1618 1.327 . S
C1620 C1639 1.429 . S
C1620 H1644 0.950 . S
C1621 C1638 1.574 . S
C1621 C1640 1.368 . S
C1621 H1645 0.949 . S
H1622 C1626 0.949 . S
C1623 C1624 1.349 . S
C1623 C1625 1.327 . S
C1623 H1646 0.950 . S
C1624 C1623 1.349 . S
C1624 C1636 1.349 . S
C1625 C1623 1.327 . S
C1625 C1641 1.429 . S
C1625 H1647 0.950 . S
C1626 H1622 0.949 . S
C1626 C1634 1.574 . S
C1626 C1642 1.368 . S
H1627 C1635 0.950 . S
H1628 C1633 0.950 . S
H1629 C1634 0.949 . S
H1630 C1636 0.950 . S
H1631 C1637 0.950 . S
H1632 C1638 0.949 . S
C1633 H1628 0.950 . S
C1633 C1635 1.327 . S
C1633 C1639 1.429 . S
C1634 C1626 1.574 . S
C1634 H1629 0.949 . S
C1634 C1640 1.368 . S
C1635 C1619 1.349 . S
C1635 H1627 0.950 . S
C1635 C1633 1.327 . S
C1636 C1624 1.349 . S
C1636 H1630 0.950 . S
C1636 C1637 1.327 . S
C1637 H1631 0.950 . S
C1637 C1636 1.327 . S
C1637 C1641 1.429 . S
C1638 C1621 1.574 . S
C1638 H1632 0.949 . S
C1638 C1642 1.368 . S
C1639 C1620 1.429 . S
C1639 C1633 1.429 . S
C1639 C1640 1.523 . S
C1640 C1621 1.368 . S
C1640 C1634 1.368 . S
C1640 C1639 1.523 . S
C1641 C1625 1.429 . S
C1641 C1637 1.429 . S
C1641 C1642 1.523 . S
C1642 C1626 1.368 . S
C1642 C1638 1.368 . S
C1642 C1641 1.523 . S
H1643 C1618 0.950 . S
H1644 C1620 0.950 . S
H1645 C1621 0.949 . S
H1646 C1623 0.950 . S
H1647 C1625 0.950 . S
C1648 C1649 1.349 . S
C1648 C1650 1.327 . S
C1648 H1673 0.950 . S
C1649 C1648 1.349 . S
C1649 C1665 1.349 . S
C1650 C1648 1.327 . S
C1650 C1669 1.429 . S
C1650 H1674 0.950 . S
C1651 C1668 1.574 1_545 S
C1651 C1670 1.368 . S
C1651 H1675 0.949 . S
H1652 C1656 0.949 . S
C1653 C1654 1.349 . S
C1653 C1655 1.327 . S
C1653 H1676 0.950 . S
C1654 C1653 1.349 . S
C1654 C1666 1.349 . S
C1655 C1653 1.327 . S
C1655 C1671 1.429 . S
C1655 H1677 0.950 . S
C1656 H1652 0.949 . S
C1656 C1664 1.574 1_565 S
C1656 C1672 1.368 . S
H1657 C1665 0.950 . S
H1658 C1663 0.950 . S
H1659 C1664 0.949 . S
H1660 C1666 0.950 . S
H1661 C1667 0.950 . S
H1662 C1668 0.949 . S
C1663 H1658 0.950 . S
C1663 C1665 1.327 . S
C1663 C1669 1.429 . S
C1664 C1656 1.574 1_545 S
C1664 H1659 0.949 . S
C1664 C1670 1.368 1_556 S
C1665 C1649 1.349 . S
C1665 H1657 0.950 . S
C1665 C1663 1.327 . S
C1666 C1654 1.349 . S
C1666 H1660 0.950 . S
C1666 C1667 1.327 . S
C1667 H1661 0.950 . S
C1667 C1666 1.327 . S
C1667 C1671 1.429 . S
C1668 C1651 1.574 1_565 S
C1668 H1662 0.949 . S
C1668 C1672 1.368 1_554 S
C1669 C1650 1.429 . S
C1669 C1663 1.429 . S
C1669 C1670 1.523 . S
C1670 C1651 1.368 . S
C1670 C1664 1.368 1_554 S
C1670 C1669 1.523 . S
C1671 C1655 1.429 . S
C1671 C1667 1.429 . S
C1671 C1672 1.523 . S
C1672 C1656 1.368 . S
C1672 C1668 1.368 1_556 S
C1672 C1671 1.523 . S
H1673 C1648 0.950 . S
H1674 C1650 0.950 . S
H1675 C1651 0.949 . S
H1676 C1653 0.950 . S
H1677 C1655 0.950 . S
C1678 C1679 1.349 . S
C1678 C1680 1.327 . S
C1678 H1703 0.950 . S
C1679 C1678 1.349 . S
C1679 C1695 1.349 . S
C1680 C1678 1.327 . S
C1680 C1699 1.429 . S
C1680 H1704 0.950 . S
C1681 C1698 1.524 1_565 S
C1681 C1700 1.368 . S
C1681 H1705 0.949 . S
H1682 C1686 0.949 . S
C1683 C1684 1.349 . S
C1683 C1685 1.327 . S
C1683 H1706 0.950 . S
C1684 C1683 1.349 . S
C1684 C1696 1.349 . S
C1685 C1683 1.327 . S
C1685 C1701 1.429 . S
C1685 H1707 0.950 . S
C1686 H1682 0.949 . S
C1686 C1694 1.524 1_545 S
C1686 C1702 1.368 . S
H1687 C1695 0.950 . S
H1688 C1693 0.950 . S
H1689 C1694 0.955 . S
H1690 C1696 0.950 . S
H1691 C1697 0.950 . S
H1692 C1698 0.955 . S
C1693 H1688 0.950 . S
C1693 C1695 1.327 . S
C1693 C1699 1.429 . S
C1694 C1686 1.524 1_565 S
C1694 H1689 0.955 . S
C1694 C1700 1.414 . S
C1695 C1679 1.349 . S
C1695 H1687 0.950 . S
C1695 C1693 1.327 . S
C1696 C1684 1.349 . S
C1696 H1690 0.950 . S
C1696 C1697 1.327 . S
C1697 H1691 0.950 . S
C1697 C1696 1.327 . S
C1697 C1701 1.429 . S
C1698 C1681 1.524 1_545 S
C1698 H1692 0.955 . S
C1698 C1702 1.414 . S
C1699 C1680 1.429 . S
C1699 C1693 1.429 . S
C1699 C1700 1.523 . S
C1700 C1681 1.368 . S
C1700 C1694 1.414 . S
C1700 C1699 1.523 . S
C1701 C1685 1.429 . S
C1701 C1697 1.429 . S
C1701 C1702 1.523 . S
C1702 C1686 1.368 . S
C1702 C1698 1.414 . S
C1702 C1701 1.523 . S
H1703 C1678 0.950 . S
H1704 C1680 0.950 . S
H1705 C1681 0.949 . S
H1706 C1683 0.950 . S
H1707 C1685 0.950 . S
C1708 C1709 1.349 . S
C1708 C1710 1.327 . S
C1708 H1733 0.950 . S
C1709 C1708 1.349 . S
C1709 C1725 1.349 . S
C1710 C1708 1.327 . S
C1710 C1729 1.429 . S
C1710 H1734 0.950 . S
C1711 C1728 1.570 . S
C1711 C1730 1.368 1_554 S
C1711 H1735 0.949 . S
H1712 C1716 0.949 . S
C1713 C1714 1.349 . S
C1713 C1715 1.327 . S
C1713 H1736 0.950 . S
C1714 C1713 1.349 . S
C1714 C1726 1.349 . S
C1715 C1713 1.327 . S
C1715 C1731 1.429 . S
C1715 H1737 0.950 . S
C1716 H1712 0.949 . S
C1716 C1724 1.570 . S
C1716 C1732 1.368 1_556 S
H1717 C1725 0.950 . S
H1718 C1723 0.915 1_554 S
H1719 C1724 0.949 1_565 S
H1720 C1726 0.950 . S
H1721 C1727 0.915 1_556 S
H1722 C1728 0.949 1_545 S
C1723 H1718 0.915 1_556 S
C1723 C1725 1.327 . S
C1723 C1729 1.429 . S
C1724 C1716 1.570 . S
C1724 H1719 0.949 1_545 S
C1724 C1730 1.372 1_545 S
C1725 C1709 1.349 . S
C1725 H1717 0.950 . S
C1725 C1723 1.327 . S
C1726 C1714 1.349 . S
C1726 H1720 0.950 . S
C1726 C1727 1.327 . S
C1727 H1721 0.915 1_554 S
C1727 C1726 1.327 . S
C1727 C1731 1.429 . S
C1728 C1711 1.570 . S
C1728 H1722 0.949 1_565 S
C1728 C1732 1.372 1_565 S
C1729 C1710 1.429 . S
C1729 C1723 1.429 . S
C1729 C1730 1.523 . S
C1730 C1711 1.368 1_556 S
C1730 C1724 1.372 1_565 S
C1730 C1729 1.523 . S
C1731 C1715 1.429 . S
C1731 C1727 1.429 . S
C1731 C1732 1.523 . S
C1732 C1716 1.368 1_554 S
C1732 C1728 1.372 1_545 S
C1732 C1731 1.523 . S
H1733 C1708 0.950 . S
H1734 C1710 0.950 . S
H1735 C1711 0.949 . S
H1736 C1713 0.950 . S
H1737 C1715 0.950 . S
C1738 C1739 1.349 . S
C1738 C1740 1.327 . S
C1738 H1763 0.950 . S
C1739 C1738 1.349 . S
C1739 C1755 1.349 . S
C1740 C1738 1.327 . S
C1740 C1759 1.429 . S
C1740 H1764 0.950 . S
C1741 C1758 1.574 1_545 S
C1741 C1760 1.368 . S
C1741 H1765 0.949 . S
H1742 C1746 0.949 . S
C1743 C1744 1.349 . S
C1743 C1745 1.327 . S
C1743 H1766 0.950 . S
C1744 C1743 1.349 . S
C1744 C1756 1.349 . S
C1745 C1743 1.327 . S
C1745 C1761 1.429 . S
C1745 H1767 0.950 . S
C1746 H1742 0.949 . S
C1746 C1754 1.574 1_565 S
C1746 C1762 1.368 . S
H1747 C1755 0.950 . S
H1748 C1753 0.950 . S
H1749 C1754 0.949 . S
H1750 C1756 0.950 . S
H1751 C1757 0.950 . S
H1752 C1758 0.949 . S
C1753 H1748 0.950 . S
C1753 C1755 1.327 . S
C1753 C1759 1.429 . S
C1754 C1746 1.574 1_545 S
C1754 H1749 0.949 . S
C1754 C1760 1.368 . S
C1755 C1739 1.349 . S
C1755 H1747 0.950 . S
C1755 C1753 1.327 . S
C1756 C1744 1.349 . S
C1756 H1750 0.950 . S
C1756 C1757 1.327 . S
C1757 H1751 0.950 . S
C1757 C1756 1.327 . S
C1757 C1761 1.429 . S
C1758 C1741 1.574 1_565 S
C1758 H1752 0.949 . S
C1758 C1762 1.368 . S
C1759 C1740 1.429 . S
C1759 C1753 1.429 . S
C1759 C1760 1.523 . S
C1760 C1741 1.368 . S
C1760 C1754 1.368 . S
C1760 C1759 1.523 . S
C1761 C1745 1.429 . S
C1761 C1757 1.429 . S
C1761 C1762 1.523 . S
C1762 C1746 1.368 . S
C1762 C1758 1.368 . S
C1762 C1761 1.523 . S
H1763 C1738 0.950 . S
H1764 C1740 0.950 . S
H1765 C1741 0.949 . S
H1766 C1743 0.950 . S
H1767 C1745 0.950 . S
C1768 C1769 1.349 . S
C1768 C1770 1.327 . S
C1768 H1793 0.950 . S
C1769 C1768 1.349 . S
C1769 C1785 1.349 . S
C1770 C1768 1.327 . S
C1770 C1789 1.429 . S
C1770 H1794 1.005 . S
C1771 C1788 1.574 . S
C1771 C1790 1.368 . S
C1771 H1795 0.949 . S
H1772 C1776 0.949 . S
C1773 C1774 1.349 . S
C1773 C1775 1.327 . S
C1773 H1796 0.950 . S
C1774 C1773 1.349 . S
C1774 C1786 1.349 . S
C1775 C1773 1.327 . S
C1775 C1791 1.429 . S
C1775 H1797 1.005 . S
C1776 H1772 0.949 . S
C1776 C1784 1.574 . S
C1776 C1792 1.368 . S
H1777 C1785 0.950 . S
H1778 C1783 0.950 . S
H1779 C1784 0.949 . S
H1780 C1786 0.950 . S
H1781 C1787 0.950 . S
H1782 C1788 0.949 . S
C1783 H1778 0.950 . S
C1783 C1785 1.327 . S
C1783 C1789 1.429 . S
C1784 C1776 1.574 . S
C1784 H1779 0.949 . S
C1784 C1790 1.368 1_554 S
C1785 C1769 1.349 . S
C1785 H1777 0.950 . S
C1785 C1783 1.327 . S
C1786 C1774 1.349 . S
C1786 H1780 0.950 . S
C1786 C1787 1.327 . S
C1787 H1781 0.950 . S
C1787 C1786 1.327 . S
C1787 C1791 1.429 . S
C1788 C1771 1.574 . S
C1788 H1782 0.949 . S
C1788 C1792 1.368 1_556 S
C1789 C1770 1.429 . S
C1789 C1783 1.429 . S
C1789 C1790 1.523 . S
C1790 C1771 1.368 . S
C1790 C1784 1.368 1_556 S
C1790 C1789 1.523 . S
C1791 C1775 1.429 . S
C1791 C1787 1.429 . S
C1791 C1792 1.523 . S
C1792 C1776 1.368 . S
C1792 C1788 1.368 1_554 S
C1792 C1791 1.523 . S
H1793 C1768 0.950 . S
H1794 C1770 1.005 . S
H1795 C1771 0.949 . S
H1796 C1773 0.950 . S
H1797 C1775 1.005 . S
C1798 C1799 1.349 . S
C1798 C1800 1.327 . S
C1798 H1823 0.950 . S
C1799 C1798 1.349 . S
C1799 C1815 1.349 . S
C1800 C1798 1.327 . S
C1800 C1819 1.429 . S
C1800 H1824 0.950 . S
C1801 C1818 1.574 . S
C1801 C1820 1.368 . S
C1801 H1825 0.949 . S
H1802 C1806 0.949 . S
C1803 C1804 1.349 . S
C1803 C1805 1.327 . S
C1803 H1826 0.950 . S
C1804 C1803 1.349 . S
C1804 C1816 1.349 . S
C1805 C1803 1.327 . S
C1805 C1821 1.429 . S
C1805 H1827 0.950 . S
C1806 H1802 0.949 . S
C1806 C1814 1.574 . S
C1806 C1822 1.368 . S
H1807 C1815 0.950 . S
H1808 C1813 0.950 . S
H1809 C1814 0.949 . S
H1810 C1816 0.950 . S
H1811 C1817 0.950 . S
H1812 C1818 0.949 . S
C1813 H1808 0.950 . S
C1813 C1815 1.327 . S
C1813 C1819 1.429 . S
C1814 C1806 1.574 . S
C1814 H1809 0.949 . S
C1814 C1820 1.368 . S
C1815 C1799 1.349 . S
C1815 H1807 0.950 . S
C1815 C1813 1.327 . S
C1816 C1804 1.349 . S
C1816 H1810 0.950 . S
C1816 C1817 1.327 . S
C1817 H1811 0.950 . S
C1817 C1816 1.327 . S
C1817 C1821 1.429 . S
C1818 C1801 1.574 . S
C1818 H1812 0.949 . S
C1818 C1822 1.368 . S
C1819 C1800 1.429 . S
C1819 C1813 1.429 . S
C1819 C1820 1.523 . S
C1820 C1801 1.368 . S
C1820 C1814 1.368 . S
C1820 C1819 1.523 . S
C1821 C1805 1.429 . S
C1821 C1817 1.429 . S
C1821 C1822 1.523 . S
C1822 C1806 1.368 . S
C1822 C1818 1.368 . S
C1822 C1821 1.523 . S
H1823 C1798 0.950 . S
H1824 C1800 0.950 . S
H1825 C1801 0.949 . S
H1826 C1803 0.950 . S
H1827 C1805 0.950 . S
C1828 C1829 1.349 . S
C1828 C1830 1.327 . S
C1828 H1853 0.950 . S
C1829 C1828 1.349 . S
C1829 C1845 1.349 . S
C1830 C1828 1.327 . S
C1830 C1849 1.429 . S
C1830 H1854 0.950 . S
C1831 C1848 1.574 . S
C1831 C1850 1.368 1_556 S
C1831 H1855 0.949 . S
H1832 C1836 0.949 . S
C1833 C1834 1.349 . S
C1833 C1835 1.327 . S
C1833 H1856 0.950 . S
C1834 C1833 1.349 . S
C1834 C1846 1.349 . S
C1835 C1833 1.327 . S
C1835 C1851 1.429 . S
C1835 H1857 0.950 . S
C1836 H1832 0.949 . S
C1836 C1844 1.574 . S
C1836 C1852 1.368 1_554 S
H1837 C1845 0.950 . S
H1838 C1843 0.950 . S
H1839 C1844 0.949 . S
H1840 C1846 0.950 . S
H1841 C1847 0.950 . S
H1842 C1848 0.949 . S
C1843 H1838 0.950 . S
C1843 C1845 1.327 . S
C1843 C1849 1.429 . S
C1844 C1836 1.574 . S
C1844 H1839 0.949 . S
C1844 C1850 1.368 . S
C1845 C1829 1.349 . S
C1845 H1837 0.950 . S
C1845 C1843 1.327 . S
C1846 C1834 1.349 . S
C1846 H1840 0.950 . S
C1846 C1847 1.327 . S
C1847 H1841 0.950 . S
C1847 C1846 1.327 . S
C1847 C1851 1.429 . S
C1848 C1831 1.574 . S
C1848 H1842 0.949 . S
C1848 C1852 1.368 . S
C1849 C1830 1.429 . S
C1849 C1843 1.429 . S
C1849 C1850 1.523 . S
C1850 C1831 1.368 1_554 S
C1850 C1844 1.368 . S
C1850 C1849 1.523 . S
C1851 C1835 1.429 . S
C1851 C1847 1.429 . S
C1851 C1852 1.523 . S
C1852 C1836 1.368 1_556 S
C1852 C1848 1.368 . S
C1852 C1851 1.523 . S
H1853 C1828 0.950 . S
H1854 C1830 0.950 . S
H1855 C1831 0.949 . S
H1856 C1833 0.950 . S
H1857 C1835 0.950 . S
C1858 C1859 1.349 . S
C1858 C1860 1.327 . S
C1858 H1883 0.950 . S
C1859 C1858 1.349 . S
C1859 C1875 1.349 . S
C1860 C1858 1.327 . S
C1860 C1879 1.429 . S
C1860 H1884 0.950 . S
C1861 C1878 1.574 . S
C1861 C1880 1.368 . S
C1861 H1885 0.949 . S
H1862 C1866 0.949 . S
C1863 C1864 1.349 . S
C1863 C1865 1.327 . S
C1863 H1886 0.950 . S
C1864 C1863 1.349 . S
C1864 C1876 1.349 . S
C1865 C1863 1.327 . S
C1865 C1881 1.429 . S
C1865 H1887 0.950 . S
C1866 H1862 0.949 . S
C1866 C1874 1.574 . S
C1866 C1882 1.368 . S
H1867 C1875 0.950 . S
H1868 C1873 0.950 . S
H1869 C1874 0.949 . S
H1870 C1876 0.950 . S
H1871 C1877 0.950 . S
H1872 C1878 0.949 . S
C1873 H1868 0.950 . S
C1873 C1875 1.327 . S
C1873 C1879 1.429 . S
C1874 C1866 1.574 . S
C1874 H1869 0.949 . S
C1874 C1880 1.368 . S
C1875 C1859 1.349 . S
C1875 H1867 0.950 . S
C1875 C1873 1.327 . S
C1876 C1864 1.349 . S
C1876 H1870 0.950 . S
C1876 C1877 1.327 . S
C1877 H1871 0.950 . S
C1877 C1876 1.327 . S
C1877 C1881 1.429 . S
C1878 C1861 1.574 . S
C1878 H1872 0.949 . S
C1878 C1882 1.368 . S
C1879 C1860 1.429 . S
C1879 C1873 1.429 . S
C1879 C1880 1.523 . S
C1880 C1861 1.368 . S
C1880 C1874 1.368 . S
C1880 C1879 1.523 . S
C1881 C1865 1.429 . S
C1881 C1877 1.429 . S
C1881 C1882 1.523 . S
C1882 C1866 1.368 . S
C1882 C1878 1.368 . S
C1882 C1881 1.523 . S
H1883 C1858 0.950 . S
H1884 C1860 0.950 . S
H1885 C1861 0.949 . S
H1886 C1863 0.950 . S
H1887 C1865 0.950 . S
C1888 C1889 1.349 . S
C1888 C1890 1.327 . S
C1888 H1913 0.950 . S
C1889 C1888 1.349 . S
C1889 C1905 1.349 . S
C1890 C1888 1.327 . S
C1890 C1909 1.429 . S
C1890 H1914 0.950 . S
C1891 C1908 1.574 . S
C1891 C1910 1.368 . S
C1891 H1915 0.949 . S
H1892 C1896 0.949 . S
C1893 C1894 1.349 . S
C1893 C1895 1.327 . S
C1893 H1916 0.950 . S
C1894 C1893 1.349 . S
C1894 C1906 1.349 . S
C1895 C1893 1.327 . S
C1895 C1911 1.429 . S
C1895 H1917 0.950 . S
C1896 H1892 0.949 . S
C1896 C1904 1.574 . S
C1896 C1912 1.368 . S
H1897 C1905 0.950 . S
H1898 C1903 0.950 . S
H1899 C1904 0.949 . S
H1900 C1906 0.950 . S
H1901 C1907 0.950 . S
H1902 C1908 0.949 . S
C1903 H1898 0.950 . S
C1903 C1905 1.327 . S
C1903 C1909 1.429 . S
C1904 C1896 1.574 . S
C1904 H1899 0.949 . S
C1904 C1910 1.368 . S
C1905 C1889 1.349 . S
C1905 H1897 0.950 . S
C1905 C1903 1.327 . S
C1906 C1894 1.349 . S
C1906 H1900 0.950 . S
C1906 C1907 1.327 . S
C1907 H1901 0.950 . S
C1907 C1906 1.327 . S
C1907 C1911 1.429 . S
C1908 C1891 1.574 . S
C1908 H1902 0.949 . S
C1908 C1912 1.368 . S
C1909 C1890 1.429 . S
C1909 C1903 1.429 . S
C1909 C1910 1.523 . S
C1910 C1891 1.368 . S
C1910 C1904 1.368 . S
C1910 C1909 1.523 . S
C1911 C1895 1.429 . S
C1911 C1907 1.429 . S
C1911 C1912 1.523 . S
C1912 C1896 1.368 . S
C1912 C1908 1.368 . S
C1912 C1911 1.523 . S
H1913 C1888 0.950 . S
H1914 C1890 0.950 . S
H1915 C1891 0.949 . S
H1916 C1893 0.950 . S
H1917 C1895 0.950 . S
C1918 C1919 1.349 . S
C1918 C1920 1.327 . S
C1918 H1943 0.950 . S
C1919 C1918 1.349 . S
C1919 C1935 1.349 . S
C1920 C1918 1.327 . S
C1920 C1939 1.429 . S
C1920 H1944 0.950 . S
C1921 C1938 1.574 1_655 S
C1921 C1940 1.368 . S
C1921 H1945 0.949 . S
H1922 C1926 0.949 . S
C1923 C1924 1.349 . S
C1923 C1925 1.327 . S
C1923 H1946 0.950 . S
C1924 C1923 1.349 . S
C1924 C1936 1.349 . S
C1925 C1923 1.327 . S
C1925 C1941 1.429 . S
C1925 H1947 0.950 . S
C1926 H1922 0.949 . S
C1926 C1934 1.574 1_455 S
C1926 C1942 1.368 . S
H1927 C1935 0.950 . S
H1928 C1933 0.950 . S
H1929 C1934 0.949 . S
H1930 C1936 0.950 . S
H1931 C1937 0.950 . S
H1932 C1938 0.949 . S
C1933 H1928 0.950 . S
C1933 C1935 1.327 . S
C1933 C1939 1.429 . S
C1934 C1926 1.574 1_655 S
C1934 H1929 0.949 . S
C1934 C1940 1.368 . S
C1935 C1919 1.349 . S
C1935 H1927 0.950 . S
C1935 C1933 1.327 . S
C1936 C1924 1.349 . S
C1936 H1930 0.950 . S
C1936 C1937 1.327 . S
C1937 H1931 0.950 . S
C1937 C1936 1.327 . S
C1937 C1941 1.429 . S
C1938 C1921 1.574 1_455 S
C1938 H1932 0.949 . S
C1938 C1942 1.368 . S
C1939 C1920 1.429 . S
C1939 C1933 1.429 . S
C1939 C1940 1.523 . S
C1940 C1921 1.368 . S
C1940 C1934 1.368 . S
C1940 C1939 1.523 . S
C1941 C1925 1.429 . S
C1941 C1937 1.429 . S
C1941 C1942 1.523 . S
C1942 C1926 1.368 . S
C1942 C1938 1.368 . S
C1942 C1941 1.523 . S
H1943 C1918 0.950 . S
H1944 C1920 0.950 . S
H1945 C1921 0.949 . S
H1946 C1923 0.950 . S
H1947 C1925 0.950 . S
C1948 C1949 1.349 . S
C1948 C1950 1.327 . S
C1948 H1973 0.950 . S
C1949 C1948 1.349 . S
C1949 C1965 1.349 . S
C1950 C1948 1.327 . S
C1950 C1969 1.429 . S
C1950 H1974 0.950 . S
C1951 C1968 1.574 . S
C1951 C1970 1.368 . S
C1951 H1975 0.949 . S
H1952 C1956 0.949 . S
C1953 C1954 1.349 . S
C1953 C1955 1.327 . S
C1953 H1976 0.950 . S
C1954 C1953 1.349 . S
C1954 C1966 1.349 . S
C1955 C1953 1.327 . S
C1955 C1971 1.429 . S
C1955 H1977 0.950 . S
C1956 H1952 0.949 . S
C1956 C1964 1.574 . S
C1956 C1972 1.368 . S
H1957 C1965 0.950 . S
H1958 C1963 0.950 . S
H1959 C1964 0.949 . S
H1960 C1966 0.950 . S
H1961 C1967 0.950 . S
H1962 C1968 0.949 . S
C1963 H1958 0.950 . S
C1963 C1965 1.327 . S
C1963 C1969 1.429 . S
C1964 C1956 1.574 . S
C1964 H1959 0.949 . S
C1964 C1970 1.368 . S
C1965 C1949 1.349 . S
C1965 H1957 0.950 . S
C1965 C1963 1.327 . S
C1966 C1954 1.349 . S
C1966 H1960 0.950 . S
C1966 C1967 1.327 . S
C1967 H1961 0.950 . S
C1967 C1966 1.327 . S
C1967 C1971 1.429 . S
C1968 C1951 1.574 . S
C1968 H1962 0.949 . S
C1968 C1972 1.368 . S
C1969 C1950 1.429 . S
C1969 C1963 1.429 . S
C1969 C1970 1.523 . S
C1970 C1951 1.368 . S
C1970 C1964 1.368 . S
C1970 C1969 1.523 . S
C1971 C1955 1.429 . S
C1971 C1967 1.429 . S
C1971 C1972 1.523 . S
C1972 C1956 1.368 . S
C1972 C1968 1.368 . S
C1972 C1971 1.523 . S
H1973 C1948 0.950 . S
H1974 C1950 0.950 . S
H1975 C1951 0.949 . S
H1976 C1953 0.950 . S
H1977 C1955 0.950 . S
C1978 C1979 1.349 . S
C1978 C1980 1.327 . S
C1978 H2003 0.950 . S
C1979 C1978 1.349 . S
C1979 C1995 1.349 . S
C1980 C1978 1.327 . S
C1980 C1999 1.429 . S
C1980 H2004 0.950 . S
C1981 C1998 1.574 1_455 S
C1981 C2000 1.368 . S
C1981 H2005 0.949 . S
H1982 C1986 0.949 . S
C1983 C1984 1.349 . S
C1983 C1985 1.327 . S
C1983 H2006 0.950 . S
C1984 C1983 1.349 . S
C1984 C1996 1.349 . S
C1985 C1983 1.327 . S
C1985 C2001 1.429 . S
C1985 H2007 0.950 . S
C1986 H1982 0.949 . S
C1986 C1994 1.574 1_655 S
C1986 C2002 1.368 . S
H1987 C1995 0.950 . S
H1988 C1993 0.950 . S
H1989 C1994 0.949 . S
H1990 C1996 0.950 . S
H1991 C1997 0.950 . S
H1992 C1998 0.949 . S
C1993 H1988 0.950 . S
C1993 C1995 1.327 . S
C1993 C1999 1.429 . S
C1994 C1986 1.574 1_455 S
C1994 H1989 0.949 . S
C1994 C2000 1.368 . S
C1995 C1979 1.349 . S
C1995 H1987 0.950 . S
C1995 C1993 1.327 . S
C1996 C1984 1.349 . S
C1996 H1990 0.950 . S
C1996 C1997 1.327 . S
C1997 H1991 0.950 . S
C1997 C1996 1.327 . S
C1997 C2001 1.429 . S
C1998 C1981 1.574 1_655 S
C1998 H1992 0.949 . S
C1998 C2002 1.368 . S
C1999 C1980 1.429 . S
C1999 C1993 1.429 . S
C1999 C2000 1.523 . S
C2000 C1981 1.368 . S
C2000 C1994 1.368 . S
C2000 C1999 1.523 . S
C2001 C1985 1.429 . S
C2001 C1997 1.429 . S
C2001 C2002 1.523 . S
C2002 C1986 1.368 . S
C2002 C1998 1.368 . S
C2002 C2001 1.523 . S
H2003 C1978 0.950 . S
H2004 C1980 0.950 . S
H2005 C1981 0.949 . S
H2006 C1983 0.950 . S
H2007 C1985 0.950 . S
C2008 C2009 1.349 . S
C2008 C2010 1.327 . S
C2008 H2033 0.950 . S
C2009 C2008 1.349 . S
C2009 C2025 1.349 . S
C2010 C2008 1.327 . S
C2010 C2029 1.429 . S
C2010 H2034 0.950 . S
C2011 C2028 1.574 1_455 S
C2011 C2030 1.368 . S
C2011 H2035 0.949 . S
H2012 C2016 0.949 . S
C2013 C2014 1.349 . S
C2013 C2015 1.327 . S
C2013 H2036 0.950 . S
C2014 C2013 1.349 . S
C2014 C2026 1.349 . S
C2015 C2013 1.327 . S
C2015 C2031 1.429 . S
C2015 H2037 0.950 . S
C2016 H2012 0.949 . S
C2016 C2024 1.574 1_655 S
C2016 C2032 1.368 . S
H2017 C2025 0.950 . S
H2018 C2023 0.950 . S
H2019 C2024 0.949 . S
H2020 C2026 0.950 . S
H2021 C2027 0.950 . S
H2022 C2028 0.949 . S
C2023 H2018 0.950 . S
C2023 C2025 1.327 . S
C2023 C2029 1.429 . S
C2024 C2016 1.574 1_455 S
C2024 H2019 0.949 . S
C2024 C2030 1.368 . S
C2025 C2009 1.349 . S
C2025 H2017 0.950 . S
C2025 C2023 1.327 . S
C2026 C2014 1.349 . S
C2026 H2020 0.950 . S
C2026 C2027 1.327 . S
C2027 H2021 0.950 . S
C2027 C2026 1.327 . S
C2027 C2031 1.429 . S
C2028 C2011 1.574 1_655 S
C2028 H2022 0.949 . S
C2028 C2032 1.368 . S
C2029 C2010 1.429 . S
C2029 C2023 1.429 . S
C2029 C2030 1.523 . S
C2030 C2011 1.368 . S
C2030 C2024 1.368 . S
C2030 C2029 1.523 . S
C2031 C2015 1.429 . S
C2031 C2027 1.429 . S
C2031 C2032 1.523 . S
C2032 C2016 1.368 . S
C2032 C2028 1.368 . S
C2032 C2031 1.523 . S
H2033 C2008 0.950 . S
H2034 C2010 0.950 . S
H2035 C2011 0.949 . S
H2036 C2013 0.950 . S
H2037 C2015 0.950 . S
C2038 C2039 1.349 . S
C2038 C2040 1.327 . S
C2038 H2063 0.950 . S
C2039 C2038 1.349 . S
C2039 C2055 1.349 . S
C2040 C2038 1.327 . S
C2040 C2059 1.429 . S
C2040 H2064 0.950 . S
C2041 C2058 1.574 . S
C2041 C2060 1.368 . S
C2041 H2065 0.949 . S
H2042 C2046 0.949 . S
C2043 C2044 1.349 . S
C2043 C2045 1.327 . S
C2043 H2066 0.950 . S
C2044 C2043 1.349 . S
C2044 C2056 1.349 . S
C2045 C2043 1.327 . S
C2045 C2061 1.429 . S
C2045 H2067 0.950 . S
C2046 H2042 0.949 . S
C2046 C2054 1.574 . S
C2046 C2062 1.368 . S
H2047 C2055 0.950 . S
H2048 C2053 0.950 . S
H2049 C2054 0.949 . S
H2050 C2056 0.950 . S
H2051 C2057 0.950 . S
H2052 C2058 0.949 . S
C2053 H2048 0.950 . S
C2053 C2055 1.327 . S
C2053 C2059 1.429 . S
C2054 C2046 1.574 . S
C2054 H2049 0.949 . S
C2054 C2060 1.368 . S
C2055 C2039 1.349 . S
C2055 H2047 0.950 . S
C2055 C2053 1.327 . S
C2056 C2044 1.349 . S
C2056 H2050 0.950 . S
C2056 C2057 1.327 . S
C2057 H2051 0.950 . S
C2057 C2056 1.327 . S
C2057 C2061 1.429 . S
C2058 C2041 1.574 . S
C2058 H2052 0.949 . S
C2058 C2062 1.368 . S
C2059 C2040 1.429 . S
C2059 C2053 1.429 . S
C2059 C2060 1.523 . S
C2060 C2041 1.368 . S
C2060 C2054 1.368 . S
C2060 C2059 1.523 . S
C2061 C2045 1.429 . S
C2061 C2057 1.429 . S
C2061 C2062 1.523 . S
C2062 C2046 1.368 . S
C2062 C2058 1.368 . S
C2062 C2061 1.523 . S
H2063 C2038 0.950 . S
H2064 C2040 0.950 . S
H2065 C2041 0.949 . S
H2066 C2043 0.950 . S
H2067 C2045 0.950 . S
C2068 C2069 1.349 . S
C2068 C2070 1.327 . S
C2068 H2093 0.950 . S
C2069 C2068 1.349 . S
C2069 C2085 1.349 . S
C2070 C2068 1.327 . S
C2070 C2089 1.429 . S
C2070 H2094 0.950 . S
C2071 C2088 1.574 1_455 S
C2071 C2090 1.368 . S
C2071 H2095 0.949 . S
H2072 C2076 0.949 . S
C2073 C2074 1.349 . S
C2073 C2075 1.327 . S
C2073 H2096 0.950 . S
C2074 C2073 1.349 . S
C2074 C2086 1.349 . S
C2075 C2073 1.327 . S
C2075 C2091 1.429 . S
C2075 H2097 0.950 . S
C2076 H2072 0.949 . S
C2076 C2084 1.574 1_655 S
C2076 C2092 1.368 . S
H2077 C2085 0.950 . S
H2078 C2083 0.950 . S
H2079 C2084 0.949 . S
H2080 C2086 0.950 . S
H2081 C2087 0.950 . S
H2082 C2088 0.949 . S
C2083 H2078 0.950 . S
C2083 C2085 1.327 . S
C2083 C2089 1.429 . S
C2084 C2076 1.574 1_455 S
C2084 H2079 0.949 . S
C2084 C2090 1.368 . S
C2085 C2069 1.349 . S
C2085 H2077 0.950 . S
C2085 C2083 1.327 . S
C2086 C2074 1.349 . S
C2086 H2080 0.950 . S
C2086 C2087 1.327 . S
C2087 H2081 0.950 . S
C2087 C2086 1.327 . S
C2087 C2091 1.429 . S
C2088 C2071 1.574 1_655 S
C2088 H2082 0.949 . S
C2088 C2092 1.368 . S
C2089 C2070 1.429 . S
C2089 C2083 1.429 . S
C2089 C2090 1.523 . S
C2090 C2071 1.368 . S
C2090 C2084 1.368 . S
C2090 C2089 1.523 . S
C2091 C2075 1.429 . S
C2091 C2087 1.429 . S
C2091 C2092 1.523 . S
C2092 C2076 1.368 . S
C2092 C2088 1.368 . S
C2092 C2091 1.523 . S
H2093 C2068 0.950 . S
H2094 C2070 0.950 . S
H2095 C2071 0.949 . S
H2096 C2073 0.950 . S
H2097 C2075 0.950 . S
C2098 C2099 1.349 . S
C2098 C2100 1.327 . S
C2098 H2123 0.950 . S
C2099 C2098 1.349 . S
C2099 C2115 1.349 . S
C2100 C2098 1.327 . S
C2100 C2119 1.429 . S
C2100 H2124 0.950 . S
C2101 C2118 1.574 . S
C2101 C2120 1.368 . S
C2101 H2125 0.949 . S
H2102 C2106 0.949 . S
C2103 C2104 1.349 . S
C2103 C2105 1.327 . S
C2103 H2126 0.950 . S
C2104 C2103 1.349 . S
C2104 C2116 1.349 . S
C2105 C2103 1.327 . S
C2105 C2121 1.429 . S
C2105 H2127 0.950 . S
C2106 H2102 0.949 . S
C2106 C2114 1.574 . S
C2106 C2122 1.368 . S
H2107 C2115 0.950 . S
H2108 C2113 0.950 . S
H2109 C2114 0.949 . S
H2110 C2116 0.950 . S
H2111 C2117 0.950 . S
H2112 C2118 0.949 . S
C2113 H2108 0.950 . S
C2113 C2115 1.327 . S
C2113 C2119 1.429 . S
C2114 C2106 1.574 . S
C2114 H2109 0.949 . S
C2114 C2120 1.368 . S
C2115 C2099 1.349 . S
C2115 H2107 0.950 . S
C2115 C2113 1.327 . S
C2116 C2104 1.349 . S
C2116 H2110 0.950 . S
C2116 C2117 1.327 . S
C2117 H2111 0.950 . S
C2117 C2116 1.327 . S
C2117 C2121 1.429 . S
C2118 C2101 1.574 . S
C2118 H2112 0.949 . S
C2118 C2122 1.368 . S
C2119 C2100 1.429 . S
C2119 C2113 1.429 . S
C2119 C2120 1.523 . S
C2120 C2101 1.368 . S
C2120 C2114 1.368 . S
C2120 C2119 1.523 . S
C2121 C2105 1.429 . S
C2121 C2117 1.429 . S
C2121 C2122 1.523 . S
C2122 C2106 1.368 . S
C2122 C2118 1.368 . S
C2122 C2121 1.523 . S
H2123 C2098 0.950 . S
H2124 C2100 0.950 . S
H2125 C2101 0.949 . S
H2126 C2103 0.950 . S
H2127 C2105 0.950 . S
C2128 C2129 1.349 . S
C2128 C2130 1.327 . S
C2128 H2153 0.950 . S
C2129 C2128 1.349 . S
C2129 C2145 1.349 . S
C2130 C2128 1.327 . S
C2130 C2149 1.429 . S
C2130 H2154 0.950 . S
C2131 C2148 1.574 . S
C2131 C2150 1.368 . S
C2131 H2155 0.949 . S
H2132 C2136 0.949 . S
C2133 C2134 1.349 . S
C2133 C2135 1.327 . S
C2133 H2156 0.950 . S
C2134 C2133 1.349 . S
C2134 C2146 1.349 . S
C2135 C2133 1.327 . S
C2135 C2151 1.429 . S
C2135 H2157 0.950 . S
C2136 H2132 0.949 . S
C2136 C2144 1.574 . S
C2136 C2152 1.368 . S
H2137 C2145 0.950 . S
H2138 C2143 0.950 . S
H2139 C2144 0.949 . S
H2140 C2146 0.950 . S
H2141 C2147 0.950 . S
H2142 C2148 0.949 . S
C2143 H2138 0.950 . S
C2143 C2145 1.327 . S
C2143 C2149 1.429 . S
C2144 C2136 1.574 . S
C2144 H2139 0.949 . S
C2144 C2150 1.368 . S
C2145 C2129 1.349 . S
C2145 H2137 0.950 . S
C2145 C2143 1.327 . S
C2146 C2134 1.349 . S
C2146 H2140 0.950 . S
C2146 C2147 1.327 . S
C2147 H2141 0.950 . S
C2147 C2146 1.327 . S
C2147 C2151 1.429 . S
C2148 C2131 1.574 . S
C2148 H2142 0.949 . S
C2148 C2152 1.368 . S
C2149 C2130 1.429 . S
C2149 C2143 1.429 . S
C2149 C2150 1.523 . S
C2150 C2131 1.368 . S
C2150 C2144 1.368 . S
C2150 C2149 1.523 . S
C2151 C2135 1.429 . S
C2151 C2147 1.429 . S
C2151 C2152 1.523 . S
C2152 C2136 1.368 . S
C2152 C2148 1.368 . S
C2152 C2151 1.523 . S
H2153 C2128 0.950 . S
H2154 C2130 0.950 . S
H2155 C2131 0.949 . S
H2156 C2133 0.950 . S
H2157 C2135 0.950 . S
C2158 C2159 1.349 . S
C2158 C2160 1.327 . S
C2158 H2183 0.950 . S
C2159 C2158 1.349 . S
C2159 C2175 1.349 . S
C2160 C2158 1.327 . S
C2160 C2179 1.429 . S
C2160 H2184 0.950 . S
C2161 C2178 1.574 . S
C2161 C2180 1.368 . S
C2161 H2185 0.949 . S
H2162 C2166 0.949 . S
C2163 C2164 1.349 . S
C2163 C2165 1.327 . S
C2163 H2186 0.950 . S
C2164 C2163 1.349 . S
C2164 C2176 1.349 . S
C2165 C2163 1.327 . S
C2165 C2181 1.429 . S
C2165 H2187 0.950 . S
C2166 H2162 0.949 . S
C2166 C2174 1.574 . S
C2166 C2182 1.368 . S
H2167 C2175 0.950 . S
H2168 C2173 0.950 . S
H2169 C2174 0.949 . S
H2170 C2176 0.950 . S
H2171 C2177 0.950 . S
H2172 C2178 0.949 . S
C2173 H2168 0.950 . S
C2173 C2175 1.327 . S
C2173 C2179 1.429 . S
C2174 C2166 1.574 . S
C2174 H2169 0.949 . S
C2174 C2180 1.368 . S
C2175 C2159 1.349 . S
C2175 H2167 0.950 . S
C2175 C2173 1.327 . S
C2176 C2164 1.349 . S
C2176 H2170 0.950 . S
C2176 C2177 1.327 . S
C2177 H2171 0.950 . S
C2177 C2176 1.327 . S
C2177 C2181 1.429 . S
C2178 C2161 1.574 . S
C2178 H2172 0.949 . S
C2178 C2182 1.368 . S
C2179 C2160 1.429 . S
C2179 C2173 1.429 . S
C2179 C2180 1.523 . S
C2180 C2161 1.368 . S
C2180 C2174 1.368 . S
C2180 C2179 1.523 . S
C2181 C2165 1.429 . S
C2181 C2177 1.429 . S
C2181 C2182 1.523 . S
C2182 C2166 1.368 . S
C2182 C2178 1.368 . S
C2182 C2181 1.523 . S
H2183 C2158 0.950 . S
H2184 C2160 0.950 . S
H2185 C2161 0.949 . S
H2186 C2163 0.950 . S
H2187 C2165 0.950 . S
C2188 C2189 1.349 . S
C2188 C2190 1.327 . S
C2188 H2213 0.950 . S
C2189 C2188 1.349 . S
C2189 C2205 1.349 . S
C2190 C2188 1.327 . S
C2190 C2209 1.429 . S
C2190 H2214 0.950 . S
C2191 C2208 1.574 . S
C2191 C2210 1.368 . S
C2191 H2215 0.949 . S
H2192 C2196 0.949 . S
C2193 C2194 1.349 . S
C2193 C2195 1.327 . S
C2193 H2216 0.950 . S
C2194 C2193 1.349 . S
C2194 C2206 1.349 . S
C2195 C2193 1.327 . S
C2195 C2211 1.429 . S
C2195 H2217 0.950 . S
C2196 H2192 0.949 . S
C2196 C2204 1.574 . S
C2196 C2212 1.368 . S
H2197 C2205 0.950 . S
H2198 C2203 0.950 . S
H2199 C2204 0.949 . S
H2200 C2206 0.950 . S
H2201 C2207 0.950 . S
H2202 C2208 0.949 . S
C2203 H2198 0.950 . S
C2203 C2205 1.327 . S
C2203 C2209 1.429 . S
C2204 C2196 1.574 . S
C2204 H2199 0.949 . S
C2204 C2210 1.368 . S
C2205 C2189 1.349 . S
C2205 H2197 0.950 . S
C2205 C2203 1.327 . S
C2206 C2194 1.349 . S
C2206 H2200 0.950 . S
C2206 C2207 1.327 . S
C2207 H2201 0.950 . S
C2207 C2206 1.327 . S
C2207 C2211 1.429 . S
C2208 C2191 1.574 . S
C2208 H2202 0.949 . S
C2208 C2212 1.368 . S
C2209 C2190 1.429 . S
C2209 C2203 1.429 . S
C2209 C2210 1.523 . S
C2210 C2191 1.368 . S
C2210 C2204 1.368 . S
C2210 C2209 1.523 . S
C2211 C2195 1.429 . S
C2211 C2207 1.429 . S
C2211 C2212 1.523 . S
C2212 C2196 1.368 . S
C2212 C2208 1.368 . S
C2212 C2211 1.523 . S
H2213 C2188 0.950 . S
H2214 C2190 0.950 . S
H2215 C2191 0.949 . S
H2216 C2193 0.950 . S
H2217 C2195 0.950 . S
C2218 C2219 1.349 . S
C2218 C2220 1.327 . S
C2218 H2243 0.950 . S
C2219 C2218 1.349 . S
C2219 C2235 1.349 . S
C2220 C2218 1.327 . S
C2220 C2239 1.429 . S
C2220 H2244 0.950 . S
C2221 C2238 1.574 . S
C2221 C2240 1.368 . S
C2221 H2245 0.949 . S
H2222 C2226 0.949 . S
C2223 C2224 1.349 . S
C2223 C2225 1.327 . S
C2223 H2246 0.950 . S
C2224 C2223 1.349 . S
C2224 C2236 1.349 . S
C2225 C2223 1.327 . S
C2225 C2241 1.429 . S
C2225 H2247 0.950 . S
C2226 H2222 0.949 . S
C2226 C2234 1.574 . S
C2226 C2242 1.368 . S
H2227 C2235 0.950 . S
H2228 C2233 0.950 . S
H2229 C2234 0.949 . S
H2230 C2236 0.950 . S
H2231 C2237 0.950 . S
H2232 C2238 0.949 . S
C2233 H2228 0.950 . S
C2233 C2235 1.327 . S
C2233 C2239 1.429 . S
C2234 C2226 1.574 . S
C2234 H2229 0.949 . S
C2234 C2240 1.368 . S
C2235 C2219 1.349 . S
C2235 H2227 0.950 . S
C2235 C2233 1.327 . S
C2236 C2224 1.349 . S
C2236 H2230 0.950 . S
C2236 C2237 1.327 . S
C2237 H2231 0.950 . S
C2237 C2236 1.327 . S
C2237 C2241 1.429 . S
C2238 C2221 1.574 . S
C2238 H2232 0.949 . S
C2238 C2242 1.368 . S
C2239 C2220 1.429 . S
C2239 C2233 1.429 . S
C2239 C2240 1.523 . S
C2240 C2221 1.368 . S
C2240 C2234 1.368 . S
C2240 C2239 1.523 . S
C2241 C2225 1.429 . S
C2241 C2237 1.429 . S
C2241 C2242 1.523 . S
C2242 C2226 1.368 . S
C2242 C2238 1.368 . S
C2242 C2241 1.523 . S
H2243 C2218 0.950 . S
H2244 C2220 0.950 . S
H2245 C2221 0.949 . S
H2246 C2223 0.950 . S
H2247 C2225 0.950 . S
C2248 C2249 1.349 . S
C2248 C2250 1.327 . S
C2248 H2273 0.950 . S
C2249 C2248 1.349 . S
C2249 C2265 1.349 . S
C2250 C2248 1.327 . S
C2250 C2269 1.429 . S
C2250 H2274 0.950 . S
C2251 C2268 1.574 . S
C2251 C2270 1.368 . S
C2251 H2275 0.949 . S
H2252 C2256 0.949 . S
C2253 C2254 1.349 . S
C2253 C2255 1.327 . S
C2253 H2276 0.950 . S
C2254 C2253 1.349 . S
C2254 C2266 1.349 . S
C2255 C2253 1.327 . S
C2255 C2271 1.429 . S
C2255 H2277 0.950 . S
C2256 H2252 0.949 . S
C2256 C2264 1.574 . S
C2256 C2272 1.368 . S
H2257 C2265 0.950 . S
H2258 C2263 0.950 . S
H2259 C2264 0.949 . S
H2260 C2266 0.950 . S
H2261 C2267 0.950 . S
H2262 C2268 0.949 . S
C2263 H2258 0.950 . S
C2263 C2265 1.327 . S
C2263 C2269 1.429 . S
C2264 C2256 1.574 . S
C2264 H2259 0.949 . S
C2264 C2270 1.368 . S
C2265 C2249 1.349 . S
C2265 H2257 0.950 . S
C2265 C2263 1.327 . S
C2266 C2254 1.349 . S
C2266 H2260 0.950 . S
C2266 C2267 1.327 . S
C2267 H2261 0.950 . S
C2267 C2266 1.327 . S
C2267 C2271 1.429 . S
C2268 C2251 1.574 . S
C2268 H2262 0.949 . S
C2268 C2272 1.368 . S
C2269 C2250 1.429 . S
C2269 C2263 1.429 . S
C2269 C2270 1.523 . S
C2270 C2251 1.368 . S
C2270 C2264 1.368 . S
C2270 C2269 1.523 . S
C2271 C2255 1.429 . S
C2271 C2267 1.429 . S
C2271 C2272 1.523 . S
C2272 C2256 1.368 . S
C2272 C2268 1.368 . S
C2272 C2271 1.523 . S
H2273 C2248 0.950 . S
H2274 C2250 0.950 . S
H2275 C2251 0.949 . S
H2276 C2253 0.950 . S
H2277 C2255 0.950 . S
C2278 C2279 1.349 . S
C2278 C2280 1.327 . S
C2278 H2303 0.950 . S
C2279 C2278 1.349 . S
C2279 C2295 1.349 . S
C2280 C2278 1.327 . S
C2280 C2299 1.429 . S
C2280 H2304 0.950 . S
C2281 C2298 1.574 . S
C2281 C2300 1.368 . S
C2281 H2305 0.949 . S
H2282 C2286 0.949 . S
C2283 C2284 1.349 . S
C2283 C2285 1.327 . S
C2283 H2306 0.950 . S
C2284 C2283 1.349 . S
C2284 C2296 1.349 . S
C2285 C2283 1.327 . S
C2285 C2301 1.429 . S
C2285 H2307 0.950 . S
C2286 H2282 0.949 . S
C2286 C2294 1.574 . S
C2286 C2302 1.368 . S
H2287 C2295 0.950 . S
H2288 C2293 0.950 . S
H2289 C2294 0.949 . S
H2290 C2296 0.950 . S
H2291 C2297 0.950 . S
H2292 C2298 0.949 . S
C2293 H2288 0.950 . S
C2293 C2295 1.327 . S
C2293 C2299 1.429 . S
C2294 C2286 1.574 . S
C2294 H2289 0.949 . S
C2294 C2300 1.368 . S
C2295 C2279 1.349 . S
C2295 H2287 0.950 . S
C2295 C2293 1.327 . S
C2296 C2284 1.349 . S
C2296 H2290 0.950 . S
C2296 C2297 1.327 . S
C2297 H2291 0.950 . S
C2297 C2296 1.327 . S
C2297 C2301 1.429 . S
C2298 C2281 1.574 . S
C2298 H2292 0.949 . S
C2298 C2302 1.368 . S
C2299 C2280 1.429 . S
C2299 C2293 1.429 . S
C2299 C2300 1.523 . S
C2300 C2281 1.368 . S
C2300 C2294 1.368 . S
C2300 C2299 1.523 . S
C2301 C2285 1.429 . S
C2301 C2297 1.429 . S
C2301 C2302 1.523 . S
C2302 C2286 1.368 . S
C2302 C2298 1.368 . S
C2302 C2301 1.523 . S
H2303 C2278 0.950 . S
H2304 C2280 0.950 . S
H2305 C2281 0.949 . S
H2306 C2283 0.950 . S
H2307 C2285 0.950 . S
C2308 C2309 1.349 . S
C2308 C2310 1.327 . S
C2308 H2333 0.950 . S
C2309 C2308 1.349 . S
C2309 C2325 1.349 . S
C2310 C2308 1.327 . S
C2310 C2329 1.429 . S
C2310 H2334 0.950 . S
C2311 C2328 1.574 . S
C2311 C2330 1.368 . S
C2311 H2335 0.949 . S
H2312 C2316 0.949 . S
C2313 C2314 1.349 . S
C2313 C2315 1.327 . S
C2313 H2336 0.950 . S
C2314 C2313 1.349 . S
C2314 C2326 1.349 . S
C2315 C2313 1.327 . S
C2315 C2331 1.429 . S
C2315 H2337 0.950 . S
C2316 H2312 0.949 . S
C2316 C2324 1.574 . S
C2316 C2332 1.368 . S
H2317 C2325 0.950 . S
H2318 C2323 0.950 . S
H2319 C2324 0.949 . S
H2320 C2326 0.950 . S
H2321 C2327 0.950 . S
H2322 C2328 0.949 . S
C2323 H2318 0.950 . S
C2323 C2325 1.327 . S
C2323 C2329 1.429 . S
C2324 C2316 1.574 . S
C2324 H2319 0.949 . S
C2324 C2330 1.368 . S
C2325 C2309 1.349 . S
C2325 H2317 0.950 . S
C2325 C2323 1.327 . S
C2326 C2314 1.349 . S
C2326 H2320 0.950 . S
C2326 C2327 1.327 . S
C2327 H2321 0.950 . S
C2327 C2326 1.327 . S
C2327 C2331 1.429 . S
C2328 C2311 1.574 . S
C2328 H2322 0.949 . S
C2328 C2332 1.368 . S
C2329 C2310 1.429 . S
C2329 C2323 1.429 . S
C2329 C2330 1.523 . S
C2330 C2311 1.368 . S
C2330 C2324 1.368 . S
C2330 C2329 1.523 . S
C2331 C2315 1.429 . S
C2331 C2327 1.429 . S
C2331 C2332 1.523 . S
C2332 C2316 1.368 . S
C2332 C2328 1.368 . S
C2332 C2331 1.523 . S
H2333 C2308 0.950 . S
H2334 C2310 0.950 . S
H2335 C2311 0.949 . S
H2336 C2313 0.950 . S
H2337 C2315 0.950 . S
C2338 C2339 1.349 . S
C2338 C2340 1.327 . S
C2338 H2363 0.950 . S
C2339 C2338 1.349 . S
C2339 C2355 1.349 . S
C2340 C2338 1.327 . S
C2340 C2359 1.429 . S
C2340 H2364 0.950 . S
C2341 C2358 1.574 . S
C2341 C2360 1.368 . S
C2341 H2365 0.949 . S
H2342 C2346 0.949 . S
C2343 C2344 1.349 . S
C2343 C2345 1.327 . S
C2343 H2366 0.950 . S
C2344 C2343 1.349 . S
C2344 C2356 1.349 . S
C2345 C2343 1.327 . S
C2345 C2361 1.429 . S
C2345 H2367 0.950 . S
C2346 H2342 0.949 . S
C2346 C2354 1.574 . S
C2346 C2362 1.368 . S
H2347 C2355 0.950 . S
H2348 C2353 0.950 . S
H2349 C2354 0.949 . S
H2350 C2356 0.950 . S
H2351 C2357 0.950 . S
H2352 C2358 0.949 . S
C2353 H2348 0.950 . S
C2353 C2355 1.327 . S
C2353 C2359 1.429 . S
C2354 C2346 1.574 . S
C2354 H2349 0.949 . S
C2354 C2360 1.368 . S
C2355 C2339 1.349 . S
C2355 H2347 0.950 . S
C2355 C2353 1.327 . S
C2356 C2344 1.349 . S
C2356 H2350 0.950 . S
C2356 C2357 1.327 . S
C2357 H2351 0.950 . S
C2357 C2356 1.327 . S
C2357 C2361 1.429 . S
C2358 C2341 1.574 . S
C2358 H2352 0.949 . S
C2358 C2362 1.368 . S
C2359 C2340 1.429 . S
C2359 C2353 1.429 . S
C2359 C2360 1.523 . S
C2360 C2341 1.368 . S
C2360 C2354 1.368 . S
C2360 C2359 1.523 . S
C2361 C2345 1.429 . S
C2361 C2357 1.429 . S
C2361 C2362 1.523 . S
C2362 C2346 1.368 . S
C2362 C2358 1.368 . S
C2362 C2361 1.523 . S
H2363 C2338 0.950 . S
H2364 C2340 0.950 . S
H2365 C2341 0.949 . S
H2366 C2343 0.950 . S
H2367 C2345 0.950 . S
C1409 C20 1.291 . S
C1414 C1085 1.290 . S
C1439 C1164 1.290 . S
C1444 C137 1.291 . S
C1469 C233 1.291 . S
C1474 C1281 1.290 . S
C1499 C1377 1.290 . S
C1504 C284 1.291 . S
C1529 C724 1.291 . S
C1534 C381 1.290 . S
C1559 C460 1.290 . S
C1564 C841 1.291 . S
C1589 C937 1.291 . S
C1594 C577 1.290 . S
C1619 C673 1.290 . S
C1624 C988 1.291 . S
C1649 C49 1.457 . S
C1654 C205 1.457 . S
C1679 C108 1.457 . S
C1684 C313 1.457 . S
C1709 C372 1.453 . S
C1714 C585 1.453 . S
C1739 C469 1.453 . S
C1744 C665 1.453 . S
C1769 C909 1.457 . S
C1774 C753 1.457 . S
C1799 C812 1.457 . S
C1804 C1017 1.457 . S
C1829 C1289 1.453 . S
C1834 C1076 1.453 . S
C1859 C1173 1.453 . S
C1864 C1369 1.453 . S
C1889 C548 1.510 . S
C1894 C29 1.510 . S
C1919 C645 1.510 . S
C1924 C145 1.510 . S
C1949 C225 1.510 . S
C1954 C409 1.510 . S
C1979 C293 1.510 . S
C1984 C489 1.510 . S
C2009 C1252 1.510 . S
C2014 C733 1.510 . S
C2039 C849 1.510 . S
C2044 C1349 1.510 . S
C2069 C1113 1.510 . S
C2074 C929 1.510 . S
C2099 C997 1.510 . S
C2104 C1193 1.510 . S
C2129 C57 1.285 . S
C2134 C321 1.285 . S
C2159 C196 1.285 . S
C2164 C117 1.285 . S
C2189 C401 1.265 . S
C2194 C636 1.265 . S
C2219 C497 1.265 . S
C2224 C557 1.265 . S
C2249 C1025 1.285 . S
C2254 C761 1.285 . S
C2279 C821 1.285 . S
C2284 C900 1.285 . S
C2309 C1340 1.265 . S
C2314 C1105 1.265 . S
C2339 C1201 1.265 . S
C2344 C1261 1.265 . S
