# Generated by pormake.
# Topology umv, (4)-cn, num edge types: 1
# Building blocks:
#     Node 0, Type 0, BuildingBlock: GALJAG_clean_sbu_0, # of connection points: 4
#     Node 1, Type 0, BuildingBlock: GALJAG_clean_sbu_0, # of connection points: 4
#     Node 2, Type 0, BuildingBlock: GALJAG_clean_sbu_0, # of connection points: 4
#     Node 3, Type 0, BuildingBlock: GALJAG_clean_sbu_0, # of connection points: 4
#     Node 4, Type 0, BuildingBlock: GALJAG_clean_sbu_0, # of connection points: 4
#     Node 5, Type 0, BuildingBlock: GALJAG_clean_sbu_0, # of connection points: 4
#     Node 6, Type 0, BuildingBlock: GALJAG_clean_sbu_0, # of connection points: 4
#     Node 7, Type 0, BuildingBlock: GALJAG_clean_sbu_0, # of connection points: 4
#     Node 8, Type 0, BuildingBlock: GALJAG_clean_sbu_0, # of connection points: 4
#     Node 9, Type 0, BuildingBlock: GALJAG_clean_sbu_0, # of connection points: 4
#     Node 10, Type 0, BuildingBlock: GALJAG_clean_sbu_0, # of connection points: 4
#     Node 11, Type 0, BuildingBlock: GALJAG_clean_sbu_0, # of connection points: 4
#     Node 12, Type 0, BuildingBlock: GALJAG_clean_sbu_0, # of connection points: 4
#     Node 13, Type 0, BuildingBlock: GALJAG_clean_sbu_0, # of connection points: 4
#     Node 14, Type 0, BuildingBlock: GALJAG_clean_sbu_0, # of connection points: 4
#     Node 15, Type 0, BuildingBlock: GALJAG_clean_sbu_0, # of connection points: 4
#     Node 16, Type 0, BuildingBlock: GALJAG_clean_sbu_0, # of connection points: 4
#     Node 17, Type 0, BuildingBlock: GALJAG_clean_sbu_0, # of connection points: 4
#     Node 18, Type 0, BuildingBlock: GALJAG_clean_sbu_0, # of connection points: 4
#     Node 19, Type 0, BuildingBlock: GALJAG_clean_sbu_0, # of connection points: 4
#     Node 20, Type 0, BuildingBlock: GALJAG_clean_sbu_0, # of connection points: 4
#     Node 21, Type 0, BuildingBlock: GALJAG_clean_sbu_0, # of connection points: 4
#     Node 22, Type 0, BuildingBlock: GALJAG_clean_sbu_0, # of connection points: 4
#     Node 23, Type 0, BuildingBlock: GALJAG_clean_sbu_0, # of connection points: 4
#     Node 24, Type 0, BuildingBlock: GALJAG_clean_sbu_0, # of connection points: 4
#     Node 25, Type 0, BuildingBlock: GALJAG_clean_sbu_0, # of connection points: 4
#     Node 26, Type 0, BuildingBlock: GALJAG_clean_sbu_0, # of connection points: 4
#     Node 27, Type 0, BuildingBlock: GALJAG_clean_sbu_0, # of connection points: 4
#     Node 28, Type 0, BuildingBlock: GALJAG_clean_sbu_0, # of connection points: 4
#     Node 29, Type 0, BuildingBlock: GALJAG_clean_sbu_0, # of connection points: 4
#     Node 30, Type 0, BuildingBlock: GALJAG_clean_sbu_0, # of connection points: 4
#     Node 31, Type 0, BuildingBlock: GALJAG_clean_sbu_0, # of connection points: 4
#     Edge 32, Type (0, 0), BuildingBlock: XUDNAN_clean_linker_2, # of connection points: 2
#     Edge 33, Type (0, 0), BuildingBlock: XUDNAN_clean_linker_2, # of connection points: 2
#     Edge 34, Type (0, 0), BuildingBlock: XUDNAN_clean_linker_2, # of connection points: 2
#     Edge 35, Type (0, 0), BuildingBlock: XUDNAN_clean_linker_2, # of connection points: 2
#     Edge 36, Type (0, 0), BuildingBlock: XUDNAN_clean_linker_2, # of connection points: 2
#     Edge 37, Type (0, 0), BuildingBlock: XUDNAN_clean_linker_2, # of connection points: 2
#     Edge 38, Type (0, 0), BuildingBlock: XUDNAN_clean_linker_2, # of connection points: 2
#     Edge 39, Type (0, 0), BuildingBlock: XUDNAN_clean_linker_2, # of connection points: 2
#     Edge 40, Type (0, 0), BuildingBlock: XUDNAN_clean_linker_2, # of connection points: 2
#     Edge 41, Type (0, 0), BuildingBlock: XUDNAN_clean_linker_2, # of connection points: 2
#     Edge 42, Type (0, 0), BuildingBlock: XUDNAN_clean_linker_2, # of connection points: 2
#     Edge 43, Type (0, 0), BuildingBlock: XUDNAN_clean_linker_2, # of connection points: 2
#     Edge 44, Type (0, 0), BuildingBlock: XUDNAN_clean_linker_2, # of connection points: 2
#     Edge 45, Type (0, 0), BuildingBlock: XUDNAN_clean_linker_2, # of connection points: 2
#     Edge 46, Type (0, 0), BuildingBlock: XUDNAN_clean_linker_2, # of connection points: 2
#     Edge 47, Type (0, 0), BuildingBlock: XUDNAN_clean_linker_2, # of connection points: 2
#     Edge 48, Type (0, 0), BuildingBlock: XUDNAN_clean_linker_2, # of connection points: 2
#     Edge 49, Type (0, 0), BuildingBlock: XUDNAN_clean_linker_2, # of connection points: 2
#     Edge 50, Type (0, 0), BuildingBlock: XUDNAN_clean_linker_2, # of connection points: 2
#     Edge 51, Type (0, 0), BuildingBlock: XUDNAN_clean_linker_2, # of connection points: 2
#     Edge 52, Type (0, 0), BuildingBlock: XUDNAN_clean_linker_2, # of connection points: 2
#     Edge 53, Type (0, 0), BuildingBlock: XUDNAN_clean_linker_2, # of connection points: 2
#     Edge 54, Type (0, 0), BuildingBlock: XUDNAN_clean_linker_2, # of connection points: 2
#     Edge 55, Type (0, 0), BuildingBlock: XUDNAN_clean_linker_2, # of connection points: 2
#     Edge 56, Type (0, 0), BuildingBlock: XUDNAN_clean_linker_2, # of connection points: 2
#     Edge 57, Type (0, 0), BuildingBlock: XUDNAN_clean_linker_2, # of connection points: 2
#     Edge 58, Type (0, 0), BuildingBlock: XUDNAN_clean_linker_2, # of connection points: 2
#     Edge 59, Type (0, 0), BuildingBlock: XUDNAN_clean_linker_2, # of connection points: 2
#     Edge 60, Type (0, 0), BuildingBlock: XUDNAN_clean_linker_2, # of connection points: 2
#     Edge 61, Type (0, 0), BuildingBlock: XUDNAN_clean_linker_2, # of connection points: 2
#     Edge 62, Type (0, 0), BuildingBlock: XUDNAN_clean_linker_2, # of connection points: 2
#     Edge 63, Type (0, 0), BuildingBlock: XUDNAN_clean_linker_2, # of connection points: 2
#     Edge 64, Type (0, 0), BuildingBlock: XUDNAN_clean_linker_2, # of connection points: 2
#     Edge 65, Type (0, 0), BuildingBlock: XUDNAN_clean_linker_2, # of connection points: 2
#     Edge 66, Type (0, 0), BuildingBlock: XUDNAN_clean_linker_2, # of connection points: 2
#     Edge 67, Type (0, 0), BuildingBlock: XUDNAN_clean_linker_2, # of connection points: 2
#     Edge 68, Type (0, 0), BuildingBlock: XUDNAN_clean_linker_2, # of connection points: 2
#     Edge 69, Type (0, 0), BuildingBlock: XUDNAN_clean_linker_2, # of connection points: 2
#     Edge 70, Type (0, 0), BuildingBlock: XUDNAN_clean_linker_2, # of connection points: 2
#     Edge 71, Type (0, 0), BuildingBlock: XUDNAN_clean_linker_2, # of connection points: 2
#     Edge 72, Type (0, 0), BuildingBlock: XUDNAN_clean_linker_2, # of connection points: 2
#     Edge 73, Type (0, 0), BuildingBlock: XUDNAN_clean_linker_2, # of connection points: 2
#     Edge 74, Type (0, 0), BuildingBlock: XUDNAN_clean_linker_2, # of connection points: 2
#     Edge 75, Type (0, 0), BuildingBlock: XUDNAN_clean_linker_2, # of connection points: 2
#     Edge 76, Type (0, 0), BuildingBlock: XUDNAN_clean_linker_2, # of connection points: 2
#     Edge 77, Type (0, 0), BuildingBlock: XUDNAN_clean_linker_2, # of connection points: 2
#     Edge 78, Type (0, 0), BuildingBlock: XUDNAN_clean_linker_2, # of connection points: 2
#     Edge 79, Type (0, 0), BuildingBlock: XUDNAN_clean_linker_2, # of connection points: 2
#     Edge 80, Type (0, 0), BuildingBlock: XUDNAN_clean_linker_2, # of connection points: 2
#     Edge 81, Type (0, 0), BuildingBlock: XUDNAN_clean_linker_2, # of connection points: 2
#     Edge 82, Type (0, 0), BuildingBlock: XUDNAN_clean_linker_2, # of connection points: 2
#     Edge 83, Type (0, 0), BuildingBlock: XUDNAN_clean_linker_2, # of connection points: 2
#     Edge 84, Type (0, 0), BuildingBlock: XUDNAN_clean_linker_2, # of connection points: 2
#     Edge 85, Type (0, 0), BuildingBlock: XUDNAN_clean_linker_2, # of connection points: 2
#     Edge 86, Type (0, 0), BuildingBlock: XUDNAN_clean_linker_2, # of connection points: 2
#     Edge 87, Type (0, 0), BuildingBlock: XUDNAN_clean_linker_2, # of connection points: 2
#     Edge 88, Type (0, 0), BuildingBlock: XUDNAN_clean_linker_2, # of connection points: 2
#     Edge 89, Type (0, 0), BuildingBlock: XUDNAN_clean_linker_2, # of connection points: 2
#     Edge 90, Type (0, 0), BuildingBlock: XUDNAN_clean_linker_2, # of connection points: 2
#     Edge 91, Type (0, 0), BuildingBlock: XUDNAN_clean_linker_2, # of connection points: 2
#     Edge 92, Type (0, 0), BuildingBlock: XUDNAN_clean_linker_2, # of connection points: 2
#     Edge 93, Type (0, 0), BuildingBlock: XUDNAN_clean_linker_2, # of connection points: 2
#     Edge 94, Type (0, 0), BuildingBlock: XUDNAN_clean_linker_2, # of connection points: 2
#     Edge 95, Type (0, 0), BuildingBlock: XUDNAN_clean_linker_2, # of connection points: 2
# Relax obj value: 0.083
# Max RMSD: 0.091
# Mean RMSD: 0.091
data_MOF--net-umv--node1-GALJAG_clean_sbu_0--edge1-XUDNAN_clean_linker_2
_symmetry_space_group_name_H-M    P1
_symmetry_Int_Tables_number       1
_symmetry_cell_setting            triclinic
loop_
_symmetry_equiv_pos_as_xyz
'x, y, z'
_cell_length_a     106.06269
_cell_length_b     27.258506
_cell_length_c     50.554721
_cell_angle_alpha  90.006316
_cell_angle_beta   89.993609
_cell_angle_gamma 90.007195
loop_
_atom_site_label
_atom_site_type_symbol
_atom_site_fract_x
_atom_site_fract_y
_atom_site_fract_z
_atom_type_partial_charge
In0 In 0.0587 0.125 0.30853 0.0
O1 O 0.06034 0.1599 0.34942 0.0
O2 O 0.06293 0.20506 0.31542 0.0
C3 C 0.05389 0.03061 0.3209 0.0
C4 C 0.03656 0.16007 0.29033 0.0
C5 C 0.08263 0.11917 0.29072 0.0
O6 O 0.05561 0.0635 0.33811 0.0
O7 O 0.05438 0.04546 0.29721 0.0
O8 O 0.07362 0.12887 0.27508 0.0
O9 O 0.07935 0.1113 0.31429 0.0
C10 C 0.06251 0.20228 0.3403 0.0
O11 O 0.04599 0.15503 0.27516 0.0
O12 O 0.03821 0.14447 0.31355 0.0
In13 In 0.19874 0.12115 0.31101 0.0
O14 O 0.21255 0.11153 0.27612 0.0
O15 O 0.21979 0.11596 0.31535 0.0
C16 C 0.17483 0.13243 0.29426 0.0
C17 C 0.19656 0.02642 0.32425 0.0
C18 C 0.20105 0.20182 0.34123 0.0
O19 O 0.18401 0.14156 0.2789 0.0
O20 O 0.17793 0.1194 0.31728 0.0
O21 O 0.20043 0.15899 0.35077 0.0
O22 O 0.20059 0.20405 0.31622 0.0
C23 C 0.22209 0.10896 0.29118 0.0
O24 O 0.1974 0.05988 0.34153 0.0
O25 O 0.19678 0.04103 0.30058 0.0
In26 In 0.05587 0.13133 0.92966 0.0
O27 O 0.06156 0.08923 0.89265 0.0
O28 O 0.05928 0.04901 0.92837 0.0
C29 C 0.05015 0.21742 0.90632 0.0
C30 C 0.03349 0.10276 0.94979 0.0
C31 C 0.07906 0.14594 0.94996 0.0
O32 O 0.05025 0.17686 0.8943 0.0
O33 O 0.05275 0.21491 0.93073 0.0
O34 O 0.06973 0.13729 0.96491 0.0
O35 O 0.07641 0.14907 0.92574 0.0
C36 C 0.06203 0.04818 0.90413 0.0
O37 O 0.0429 0.11048 0.96465 0.0
O38 O 0.03534 0.11197 0.92569 0.0
In39 In 0.19563 0.12889 0.94231 0.0
O40 O 0.20252 0.15139 0.98348 0.0
O41 O 0.21594 0.14925 0.9524 0.0
C42 C 0.17092 0.12216 0.95487 0.0
C43 C 0.19389 0.21047 0.91248 0.0
C44 C 0.20277 0.04228 0.92033 0.0
O45 O 0.17943 0.11326 0.97171 0.0
O46 O 0.17494 0.13241 0.9321 0.0
O47 O 0.20537 0.08358 0.91062 0.0
O48 O 0.19682 0.04412 0.94194 0.0
C49 C 0.21369 0.15991 0.9762 0.0
O50 O 0.19378 0.16791 0.90263 0.0
O51 O 0.19484 0.21182 0.93732 0.0
In52 In 0.94671 0.88814 0.69151 0.0
O53 O 0.94661 0.83116 0.65769 0.0
O54 O 0.93769 0.81388 0.69422 0.0
C55 C 0.9554 0.97302 0.67093 0.0
C56 C 0.96638 0.85636 0.72044 0.0
C57 C 0.92336 0.91675 0.70569 0.0
O58 O 0.95107 0.939 0.65646 0.0
O59 O 0.95557 0.96352 0.6954 0.0
O60 O 0.9308 0.89692 0.72203 0.0
O61 O 0.9278 0.9231 0.68281 0.0
C62 C 0.94075 0.79965 0.67143 0.0
O63 O 0.95681 0.87635 0.73087 0.0
O64 O 0.96621 0.85455 0.69549 0.0
In65 In 0.80923 0.86667 0.68817 0.0
O66 O 0.79748 0.895 0.72335 0.0
O67 O 0.788 0.87074 0.68867 0.0
C68 C 0.83331 0.8834 0.70275 0.0
C69 C 0.80678 0.943 0.6553 0.0
C70 C 0.80813 0.77049 0.67559 0.0
O71 O 0.82504 0.87192 0.71971 0.0
O72 O 0.82951 0.88422 0.67919 0.0
O73 O 0.80903 0.80399 0.65847 0.0
O74 O 0.80792 0.7854 0.69926 0.0
C75 C 0.78713 0.89094 0.71103 0.0
O76 O 0.80686 0.89929 0.64681 0.0
O77 O 0.80816 0.94753 0.67997 0.0
In78 In 0.94689 0.87029 0.05841 0.0
O79 O 0.94989 0.90656 0.09871 0.0
O80 O 0.94384 0.95107 0.06654 0.0
C81 C 0.95192 0.77607 0.07221 0.0
C82 C 0.96562 0.90317 0.02683 0.0
C83 C 0.9221 0.86851 0.04562 0.0
O84 O 0.95072 0.8101 0.0889 0.0
O85 O 0.95088 0.78965 0.04845 0.0
O86 O 0.93065 0.87093 0.02831 0.0
O87 O 0.92608 0.86555 0.06904 0.0
C88 C 0.94688 0.94882 0.09061 0.0
O89 O 0.95475 0.89286 0.01833 0.0
O90 O 0.96732 0.89395 0.05104 0.0
In91 In 0.80547 0.87268 0.05727 0.0
O92 O 0.7953 0.86791 0.01749 0.0
O93 O 0.78487 0.85169 0.05238 0.0
C94 C 0.82985 0.88965 0.04551 0.0
C95 C 0.80897 0.77882 0.07122 0.0
C96 C 0.7997 0.95284 0.08608 0.0
O97 O 0.82127 0.89361 0.02821 0.0
O98 O 0.82598 0.87906 0.0684 0.0
O99 O 0.80012 0.91026 0.09592 0.0
O100 O 0.80187 0.95482 0.06152 0.0
C101 C 0.78504 0.85296 0.02744 0.0
O102 O 0.80597 0.81126 0.08802 0.0
O103 O 0.81023 0.79407 0.04785 0.0
In104 In 0.06007 0.63398 0.80864 0.0
O105 O 0.06305 0.68601 0.84364 0.0
O106 O 0.06718 0.71077 0.80442 0.0
C107 C 0.05389 0.54407 0.82594 0.0
C108 C 0.03754 0.66837 0.79304 0.0
C109 C 0.08342 0.61555 0.79088 0.0
O110 O 0.0574 0.57773 0.84158 0.0
O111 O 0.05344 0.55613 0.80177 0.0
O112 O 0.07456 0.62581 0.77488 0.0
O113 O 0.08016 0.61246 0.81485 0.0
C114 C 0.06682 0.7206 0.8288 0.0
O115 O 0.04589 0.65617 0.77624 0.0
O116 O 0.0405 0.66092 0.81689 0.0
In117 In 0.1989 0.62881 0.81487 0.0
O118 O 0.19718 0.57258 0.84845 0.0
O119 O 0.19433 0.54967 0.80842 0.0
C120 C 0.2032 0.71881 0.83482 0.0
C121 C 0.2218 0.60223 0.7974 0.0
C122 C 0.17522 0.63953 0.79705 0.0
O123 O 0.20009 0.683 0.8494 0.0
O124 O 0.20413 0.70894 0.81044 0.0
O125 O 0.18449 0.6399 0.78114 0.0
O126 O 0.17814 0.63643 0.8212 0.0
C127 C 0.19473 0.5378 0.83253 0.0
O128 O 0.21286 0.61129 0.78141 0.0
O129 O 0.21924 0.6095 0.82149 0.0
In130 In 0.05642 0.62335 0.43226 0.0
O131 O 0.043 0.61413 0.46781 0.0
O132 O 0.03561 0.60884 0.42874 0.0
C133 C 0.08018 0.63993 0.44857 0.0
C134 C 0.06032 0.52942 0.41887 0.0
C135 C 0.05264 0.70416 0.40271 0.0
O136 O 0.07101 0.64325 0.4646 0.0
O137 O 0.07714 0.62999 0.42506 0.0
O138 O 0.05367 0.66171 0.39287 0.0
O139 O 0.05334 0.7059 0.4277 0.0
C140 C 0.03355 0.60519 0.45321 0.0
O141 O 0.05856 0.56242 0.40165 0.0
O142 O 0.06017 0.54411 0.44252 0.0
In143 In 0.19662 0.62272 0.43648 0.0
O144 O 0.2086 0.65234 0.47104 0.0
O145 O 0.21746 0.63851 0.43404 0.0
C146 C 0.17234 0.62196 0.45244 0.0
C147 C 0.19447 0.69991 0.40403 0.0
C148 C 0.20042 0.52759 0.42415 0.0
O149 O 0.18124 0.62607 0.46902 0.0
O150 O 0.17585 0.61689 0.42879 0.0
O151 O 0.1994 0.56089 0.40694 0.0
O152 O 0.19974 0.54233 0.44783 0.0
C153 C 0.21853 0.65511 0.4572 0.0
O154 O 0.19648 0.6571 0.39535 0.0
O155 O 0.19342 0.70323 0.42882 0.0
In156 In 0.9469 0.37046 0.18583 0.0
O157 O 0.95662 0.36733 0.22616 0.0
O158 O 0.96784 0.356 0.19185 0.0
C159 C 0.92229 0.38022 0.19865 0.0
C160 C 0.94611 0.27578 0.17115 0.0
C161 C 0.95148 0.45096 0.15593 0.0
O162 O 0.93095 0.39228 0.21458 0.0
O163 O 0.92612 0.365 0.17652 0.0
O164 O 0.95126 0.40805 0.14655 0.0
O165 O 0.9496 0.45333 0.18057 0.0
C166 C 0.96729 0.35604 0.21677 0.0
O167 O 0.94773 0.30991 0.15451 0.0
O168 O 0.94471 0.28973 0.19474 0.0
In169 In 0.80644 0.373 0.17969 0.0
O170 O 0.79392 0.40288 0.2132 0.0
O171 O 0.786 0.39432 0.17478 0.0
C172 C 0.83016 0.36495 0.1985 0.0
C173 C 0.81073 0.45052 0.14839 0.0
C174 C 0.80103 0.2793 0.1671 0.0
O175 O 0.82109 0.37695 0.21347 0.0
O176 O 0.82707 0.35582 0.17494 0.0
O177 O 0.80322 0.31192 0.14996 0.0
O178 O 0.80137 0.2941 0.19081 0.0
C179 C 0.78449 0.40914 0.1982 0.0
O180 O 0.80851 0.40842 0.13897 0.0
O181 O 0.81099 0.45283 0.17329 0.0
In182 In 0.94821 0.38364 0.57138 0.0
O183 O 0.95585 0.39745 0.52971 0.0
O184 O 0.96794 0.4116 0.56242 0.0
C185 C 0.92403 0.35909 0.5609 0.0
C186 C 0.94385 0.46672 0.59901 0.0
C187 C 0.95771 0.29922 0.59114 0.0
O188 O 0.93065 0.38205 0.54423 0.0
O189 O 0.9296 0.34874 0.58216 0.0
O190 O 0.95842 0.33976 0.60318 0.0
O191 O 0.9527 0.30158 0.56847 0.0
C192 C 0.96637 0.41361 0.53771 0.0
O193 O 0.94542 0.4258 0.6102 0.0
O194 O 0.9444 0.46554 0.57418 0.0
In195 In 0.80709 0.36312 0.56288 0.0
O196 O 0.79916 0.36264 0.52078 0.0
O197 O 0.78627 0.36061 0.55302 0.0
C198 C 0.83232 0.35604 0.55789 0.0
C199 C 0.80378 0.26887 0.57596 0.0
C200 C 0.80431 0.44495 0.59234 0.0
O201 O 0.82578 0.37695 0.5402 0.0
O202 O 0.82619 0.34131 0.57769 0.0
O203 O 0.80245 0.40237 0.60137 0.0
O204 O 0.8073 0.44644 0.56814 0.0
C205 C 0.78784 0.35766 0.52833 0.0
O206 O 0.80233 0.30305 0.59269 0.0
O207 O 0.80693 0.28257 0.55306 0.0
In208 In 0.55912 0.14513 0.80993 0.0
O209 O 0.5505 0.16924 0.77075 0.0
O210 O 0.53933 0.17643 0.80555 0.0
C211 C 0.58282 0.12137 0.79602 0.0
C212 C 0.56488 0.23084 0.83305 0.0
C213 C 0.55111 0.05786 0.82856 0.0
O214 O 0.57438 0.12958 0.77886 0.0
O215 O 0.57906 0.12294 0.8197 0.0
O216 O 0.55474 0.09193 0.84375 0.0
O217 O 0.55125 0.06844 0.80423 0.0
C218 C 0.54033 0.18421 0.78103 0.0
O219 O 0.55835 0.19889 0.84503 0.0
O220 O 0.5685 0.21866 0.81028 0.0
In221 In 0.69933 0.11504 0.81363 0.0
O222 O 0.69948 0.05382 0.84463 0.0
O223 O 0.6952 0.03566 0.80464 0.0
C224 C 0.70394 0.19563 0.84324 0.0
C225 C 0.71965 0.09736 0.78309 0.0
C226 C 0.67497 0.12838 0.80042 0.0
O227 O 0.7039 0.15278 0.85273 0.0
O228 O 0.70206 0.19776 0.81858 0.0
O229 O 0.68377 0.13537 0.78393 0.0
O230 O 0.67858 0.11664 0.82333 0.0
C231 C 0.69669 0.02081 0.82802 0.0
O232 O 0.7092 0.11115 0.77363 0.0
O233 O 0.72012 0.09672 0.80802 0.0
In234 In 0.55681 0.12858 0.4379 0.0
O235 O 0.55824 0.07063 0.4053 0.0
O236 O 0.56066 0.0494 0.44573 0.0
C237 C 0.55165 0.21666 0.417 0.0
C238 C 0.53383 0.10397 0.45563 0.0
C239 C 0.58074 0.14283 0.4537 0.0
O240 O 0.55508 0.18074 0.4028 0.0
O241 O 0.55096 0.20803 0.44157 0.0
O242 O 0.57178 0.14174 0.47038 0.0
O243 O 0.57739 0.1386 0.42984 0.0
C244 C 0.56011 0.03631 0.42182 0.0
O245 O 0.54293 0.11116 0.47154 0.0
O246 O 0.53631 0.11195 0.43157 0.0
In247 In 0.69719 0.12476 0.43626 0.0
O248 O 0.70943 0.15698 0.46977 0.0
O249 O 0.71802 0.13982 0.43286 0.0
C250 C 0.67302 0.12258 0.45319 0.0
C251 C 0.69521 0.20255 0.40431 0.0
C252 C 0.7018 0.03066 0.42303 0.0
O253 O 0.68208 0.12479 0.4695 0.0
O254 O 0.67632 0.11998 0.42931 0.0
O255 O 0.69951 0.06368 0.40621 0.0
O256 O 0.70178 0.04501 0.44683 0.0
C257 C 0.71927 0.15847 0.45553 0.0
O258 O 0.69652 0.15957 0.39528 0.0
O259 O 0.69462 0.20565 0.42917 0.0
In260 In 0.45235 0.87238 0.17047 0.0
O261 O 0.46562 0.86409 0.20606 0.0
O262 O 0.47343 0.86165 0.16726 0.0
C263 C 0.42875 0.88619 0.18869 0.0
C264 C 0.44945 0.77774 0.15735 0.0
C265 C 0.45524 0.95314 0.14039 0.0
O266 O 0.43825 0.89276 0.20352 0.0
O267 O 0.43134 0.87431 0.16521 0.0
O268 O 0.45444 0.91045 0.13075 0.0
O269 O 0.45477 0.9551 0.16538 0.0
C270 C 0.47528 0.85717 0.19178 0.0
O271 O 0.45031 0.81101 0.13998 0.0
O272 O 0.44993 0.79253 0.18095 0.0
In273 In 0.31177 0.87495 0.19681 0.0
O274 O 0.30406 0.90466 0.23588 0.0
O275 O 0.29128 0.89673 0.2038 0.0
C276 C 0.33681 0.87083 0.2067 0.0
C277 C 0.31181 0.95204 0.16384 0.0
C278 C 0.30619 0.78068 0.18495 0.0
O279 O 0.32882 0.87487 0.22514 0.0
O280 O 0.3321 0.86754 0.18389 0.0
O281 O 0.30682 0.81409 0.16775 0.0
O282 O 0.30809 0.79493 0.20839 0.0
C283 C 0.29304 0.91161 0.22714 0.0
O284 O 0.30847 0.90978 0.15629 0.0
O285 O 0.31526 0.95479 0.18764 0.0
In286 In 0.44651 0.8777 0.55984 0.0
O287 O 0.45252 0.90356 0.51862 0.0
O288 O 0.46683 0.8876 0.54683 0.0
C289 C 0.42126 0.89011 0.55988 0.0
C290 C 0.45195 0.95566 0.58992 0.0
C291 C 0.44898 0.78145 0.57147 0.0
O292 O 0.42715 0.88128 0.53862 0.0
O293 O 0.42802 0.89073 0.58034 0.0
O294 O 0.45063 0.81494 0.58835 0.0
O295 O 0.44639 0.79651 0.54847 0.0
C296 C 0.46415 0.90433 0.52425 0.0
O297 O 0.45423 0.9124 0.59773 0.0
O298 O 0.4469 0.95886 0.56739 0.0
In299 In 0.30508 0.87178 0.57107 0.0
O300 O 0.30488 0.8093 0.6015 0.0
O301 O 0.31117 0.79421 0.56232 0.0
C302 C 0.29724 0.95237 0.59729 0.0
C303 C 0.28591 0.85152 0.53795 0.0
C304 C 0.32944 0.89736 0.56591 0.0
O305 O 0.29755 0.9103 0.60788 0.0
O306 O 0.30039 0.95332 0.57316 0.0
O307 O 0.32251 0.89107 0.54579 0.0
O308 O 0.32406 0.89089 0.58786 0.0
C309 C 0.3089 0.77782 0.58512 0.0
O310 O 0.29646 0.86711 0.52967 0.0
O311 O 0.28487 0.84964 0.5628 0.0
In312 In 0.55648 0.62601 0.31443 0.0
O313 O 0.55185 0.64735 0.27148 0.0
O314 O 0.5371 0.64747 0.29996 0.0
C315 C 0.58178 0.6169 0.31638 0.0
C316 C 0.55624 0.7081 0.34374 0.0
C317 C 0.54819 0.53767 0.33121 0.0
O318 O 0.57611 0.61932 0.29435 0.0
O319 O 0.57465 0.61742 0.3363 0.0
O320 O 0.54511 0.57776 0.3418 0.0
O321 O 0.55514 0.54184 0.31099 0.0
C322 C 0.54043 0.65704 0.2766 0.0
O323 O 0.55329 0.66673 0.35308 0.0
O324 O 0.55919 0.7081 0.31958 0.0
In325 In 0.69964 0.62504 0.31318 0.0
O326 O 0.70292 0.56229 0.34211 0.0
O327 O 0.69546 0.54598 0.30384 0.0
C328 C 0.70624 0.70675 0.33948 0.0
C329 C 0.71799 0.61082 0.27748 0.0
C330 C 0.67449 0.63564 0.31594 0.0
O331 O 0.70767 0.66419 0.34899 0.0
O332 O 0.70193 0.70799 0.31612 0.0
O333 O 0.68018 0.64083 0.29401 0.0
O334 O 0.68154 0.62647 0.3354 0.0
C335 C 0.69902 0.53002 0.32603 0.0
O336 O 0.70685 0.62173 0.27045 0.0
O337 O 0.71989 0.61147 0.30212 0.0
In338 In 0.55505 0.64511 0.93236 0.0
O339 O 0.54188 0.62223 0.96667 0.0
O340 O 0.53428 0.63112 0.92799 0.0
C341 C 0.57854 0.65678 0.95185 0.0
C342 C 0.56011 0.56052 0.90728 0.0
C343 C 0.54969 0.73149 0.90899 0.0
O344 O 0.56917 0.65274 0.9673 0.0
O345 O 0.57578 0.657 0.92763 0.0
O346 O 0.5499 0.69102 0.89688 0.0
O347 O 0.55217 0.72887 0.93346 0.0
C348 C 0.53234 0.61867 0.95164 0.0
O349 O 0.56053 0.60153 0.89574 0.0
O350 O 0.55704 0.56213 0.93134 0.0
In351 In 0.69433 0.61539 0.93887 0.0
O352 O 0.69355 0.65053 0.89793 0.0
O353 O 0.69195 0.69652 0.93193 0.0
C354 C 0.69844 0.52047 0.92632 0.0
C355 C 0.71655 0.64811 0.95778 0.0
C356 C 0.67015 0.61633 0.95555 0.0
O357 O 0.69679 0.55353 0.90919 0.0
O358 O 0.69804 0.53522 0.95003 0.0
O359 O 0.67917 0.61752 0.972 0.0
O360 O 0.67349 0.61267 0.93172 0.0
C361 C 0.69236 0.69353 0.90704 0.0
O362 O 0.70684 0.64617 0.97237 0.0
O363 O 0.71511 0.63026 0.93497 0.0
In364 In 0.44823 0.37388 0.68427 0.0
O365 O 0.46016 0.37001 0.72218 0.0
O366 O 0.46923 0.38631 0.6857 0.0
C367 C 0.42413 0.36202 0.70009 0.0
C368 C 0.45305 0.28182 0.66872 0.0
C369 C 0.44765 0.45466 0.65353 0.0
O370 O 0.43163 0.38887 0.71315 0.0
O371 O 0.42872 0.34329 0.6795 0.0
O372 O 0.44831 0.41174 0.6442 0.0
O373 O 0.44713 0.4569 0.6785 0.0
C374 C 0.47045 0.37668 0.70996 0.0
O375 O 0.45126 0.31607 0.6522 0.0
O376 O 0.45226 0.29421 0.6927 0.0
In377 In 0.30902 0.36844 0.69167 0.0
O378 O 0.30854 0.40515 0.65074 0.0
O379 O 0.31439 0.44736 0.68384 0.0
C380 C 0.30042 0.27916 0.67709 0.0
C381 C 0.29029 0.40336 0.72254 0.0
C382 C 0.33319 0.34929 0.70587 0.0
O383 O 0.30348 0.31182 0.66051 0.0
O384 O 0.30136 0.29208 0.70105 0.0
O385 O 0.32659 0.38065 0.71786 0.0
O386 O 0.3276 0.32753 0.68734 0.0
C387 C 0.3121 0.44632 0.65944 0.0
O388 O 0.30045 0.38652 0.73202 0.0
O389 O 0.28935 0.39991 0.69774 0.0
In390 In 0.44481 0.37271 0.04655 0.0
O391 O 0.45283 0.39953 0.00722 0.0
O392 O 0.46516 0.39737 0.04034 0.0
C393 C 0.4199 0.36702 0.03558 0.0
C394 C 0.44407 0.45004 0.0794 0.0
C395 C 0.45088 0.27896 0.05855 0.0
O396 O 0.42798 0.37521 0.01776 0.0
O397 O 0.42446 0.3604 0.05831 0.0
O398 O 0.44997 0.3123 0.07573 0.0
O399 O 0.44902 0.29306 0.03507 0.0
C400 C 0.46362 0.40924 0.01644 0.0
O401 O 0.44746 0.40802 0.08719 0.0
O402 O 0.44092 0.45247 0.05541 0.0
In403 In 0.30444 0.3742 0.07219 0.0
O404 O 0.2909 0.36564 0.03696 0.0
O405 O 0.28333 0.36704 0.07598 0.0
C406 C 0.32806 0.38476 0.05361 0.0
C407 C 0.30648 0.27936 0.08541 0.0
C408 C 0.30228 0.45494 0.10257 0.0
O409 O 0.3186 0.39476 0.03924 0.0
O410 O 0.32543 0.37125 0.0768 0.0
O411 O 0.30296 0.41211 0.11206 0.0
O412 O 0.30256 0.45711 0.07756 0.0
C413 C 0.28128 0.36108 0.05162 0.0
O414 O 0.30612 0.31288 0.10273 0.0
O415 O 0.30593 0.29399 0.06178 0.0
H416 H 0.10224 0.09556 0.32227 0.0
H417 H 0.0936 0.14635 0.24305 0.0
H418 H 0.11656 0.15447 0.23386 0.0
H419 H 0.12707 0.17722 0.33442 0.0
H420 H 0.13615 0.13372 0.35333 0.0
H421 H 0.11925 0.12884 0.35235 0.0
H422 H 0.12101 0.03917 0.33552 0.0
H423 H 0.13794 0.0436 0.33669 0.0
H424 H 0.13021 0.02622 0.30635 0.0
H425 H 0.14124 0.15976 0.23505 0.0
H426 H 0.16411 0.16006 0.24629 0.0
H427 H 0.15504 0.10773 0.32504 0.0
C428 C 0.1051 0.10786 0.30281 0.0
C429 C 0.09614 0.12015 0.28333 0.0
C430 C 0.10034 0.13639 0.25821 0.0
C431 C 0.11335 0.14124 0.25288 0.0
C432 C 0.12195 0.12965 0.2729 0.0
C433 C 0.11789 0.11307 0.29731 0.0
C434 C 0.12871 0.1045 0.31606 0.0
C435 C 0.12773 0.13808 0.34046 0.0
C436 C 0.12952 0.05015 0.32411 0.0
C437 C 0.1396 0.11903 0.29859 0.0
C438 C 0.13567 0.13333 0.2737 0.0
C439 C 0.14435 0.1485 0.25451 0.0
C440 C 0.1573 0.1487 0.26104 0.0
C441 C 0.16136 0.1341 0.28655 0.0
C442 C 0.15231 0.11929 0.30536 0.0
H443 H 0.15215 0.15029 0.9219 0.0
H444 H 0.15891 0.09842 0.00174 0.0
H445 H 0.13594 0.10396 0.01109 0.0
H446 H 0.1279 0.23734 0.93811 0.0
H447 H 0.11911 0.22529 0.90829 0.0
H448 H 0.13598 0.21777 0.90857 0.0
H449 H 0.13354 0.12791 0.89244 0.0
H450 H 0.1167 0.13532 0.89184 0.0
H451 H 0.12364 0.08629 0.9108 0.0
H452 H 0.11159 0.11307 0.01033 0.0
H453 H 0.08889 0.12207 0.99903 0.0
H454 H 0.0993 0.17033 0.92027 0.0
C455 C 0.14885 0.14 0.9414 0.0
C456 C 0.15729 0.12371 0.96107 0.0
C457 C 0.15257 0.11086 0.98635 0.0
C458 C 0.13956 0.11409 0.99184 0.0
C459 C 0.13149 0.13063 0.97189 0.0
C460 C 0.13604 0.14336 0.94719 0.0
C461 C 0.12562 0.1592 0.9288 0.0
C462 C 0.12725 0.2131 0.92046 0.0
C463 C 0.12483 0.12514 0.90455 0.0
C464 C 0.11438 0.15285 0.94677 0.0
C465 C 0.11785 0.13657 0.97162 0.0
C466 C 0.10882 0.12624 0.99099 0.0
C467 C 0.09596 0.13166 0.98448 0.0
C468 C 0.09234 0.14713 0.95884 0.0
C469 C 0.10174 0.15876 0.94012 0.0
H470 H 0.90645 0.85932 0.73231 0.0
H471 H 0.9103 0.99677 0.69008 0.0
H472 H 0.88728 0.00914 0.69235 0.0
H473 H 0.88083 0.81992 0.69761 0.0
H474 H 0.87276 0.78972 0.72445 0.0
H475 H 0.88961 0.79667 0.72546 0.0
H476 H 0.88794 0.84092 0.77065 0.0
H477 H 0.87104 0.8338 0.76988 0.0
H478 H 0.87788 0.89388 0.7739 0.0
H479 H 0.86433 1.00045 0.692 0.0
H480 H 0.84246 0.97081 0.68837 0.0
H481 H 0.85257 0.83765 0.73006 0.0
C482 C 0.90243 0.89298 0.72466 0.0
C483 C 0.91008 0.92784 0.71161 0.0
C484 C 0.90455 0.97025 0.70055 0.0
C485 C 0.89151 0.97757 0.70182 0.0
C486 C 0.88411 0.94184 0.71401 0.0
C487 C 0.88933 0.90033 0.72531 0.0
C488 C 0.87911 0.86438 0.73363 0.0
C489 C 0.88068 0.81477 0.71943 0.0
C490 C 0.87899 0.85787 0.76381 0.0
C491 C 0.8674 0.89126 0.72421 0.0
C492 C 0.87056 0.93631 0.71344 0.0
C493 C 0.86168 0.96591 0.70096 0.0
C494 C 0.84931 0.94875 0.69893 0.0
C495 C 0.84588 0.90256 0.70939 0.0
C496 C 0.85494 0.8738 0.72271 0.0
H497 H 0.90251 0.86487 0.08041 0.0
H498 H 0.91102 0.88083 0.99692 0.0
H499 H 0.88824 0.89104 0.9874 0.0
H500 H 0.87393 0.79589 0.07247 0.0
H501 H 0.86623 0.82513 0.10007 0.0
H502 H 0.88312 0.81895 0.09977 0.0
H503 H 0.88538 0.91292 0.10625 0.0
H504 H 0.86849 0.91944 0.10631 0.0
H505 H 0.87788 0.95404 0.08318 0.0
H506 H 0.86421 0.8999 0.98751 0.0
H507 H 0.84128 0.90284 0.99708 0.0
H508 H 0.84918 0.88175 0.08051 0.0
C509 C 0.8996 0.87027 0.06008 0.0
C510 C 0.90851 0.87197 0.03938 0.0
C511 C 0.90432 0.87924 0.01307 0.0
C512 C 0.89142 0.88524 0.0075 0.0
C513 C 0.88288 0.8839 0.02848 0.0
C514 C 0.88684 0.87634 0.05422 0.0
C515 C 0.87587 0.87604 0.07329 0.0
C516 C 0.87472 0.82603 0.08721 0.0
C517 C 0.87698 0.91812 0.09344 0.0
C518 C 0.86508 0.88452 0.05432 0.0
C519 C 0.86925 0.88914 0.02855 0.0
C520 C 0.86086 0.89643 0.00764 0.0
C521 C 0.84787 0.89824 0.01325 0.0
C522 C 0.84346 0.8927 0.03952 0.0
C523 C 0.85225 0.88636 0.06022 0.0
H524 H 0.10283 0.59347 0.82332 0.0
H525 H 0.09457 0.63536 0.74242 0.0
H526 H 0.11755 0.64333 0.73359 0.0
H527 H 0.1265 0.67881 0.83356 0.0
H528 H 0.13594 0.63947 0.85427 0.0
H529 H 0.11914 0.63105 0.85279 0.0
H530 H 0.12219 0.54016 0.839 0.0
H531 H 0.13903 0.54805 0.84084 0.0
H532 H 0.13191 0.52573 0.81079 0.0
H533 H 0.14208 0.6513 0.73541 0.0
H534 H 0.16477 0.6578 0.74765 0.0
H535 H 0.15545 0.61514 0.82793 0.0
C536 C 0.10579 0.60333 0.80351 0.0
C537 C 0.09691 0.61344 0.78349 0.0
C538 C 0.10124 0.62688 0.75798 0.0
C539 C 0.11426 0.63168 0.75285 0.0
C540 C 0.12276 0.62294 0.77347 0.0
C541 C 0.1186 0.60877 0.79825 0.0
C542 C 0.1293 0.60456 0.81776 0.0
C543 C 0.12761 0.64063 0.84095 0.0
C544 C 0.13069 0.55147 0.82767 0.0
C545 C 0.1402 0.61917 0.80034 0.0
C546 C 0.1364 0.62918 0.77476 0.0
C547 C 0.1451 0.64345 0.75541 0.0
C548 C 0.15794 0.64722 0.76251 0.0
C549 C 0.16184 0.6375 0.78879 0.0
C550 C 0.15278 0.62342 0.80774 0.0
H551 H 0.10012 0.63685 0.41541 0.0
H552 H 0.09069 0.64963 0.49859 0.0
H553 H 0.11354 0.64765 0.50976 0.0
H554 H 0.12461 0.55162 0.42289 0.0
H555 H 0.13406 0.57709 0.39662 0.0
H556 H 0.11717 0.58311 0.3957 0.0
H557 H 0.11928 0.67769 0.39196 0.0
H558 H 0.13619 0.67194 0.39259 0.0
H559 H 0.12834 0.71068 0.41634 0.0
H560 H 0.13813 0.64096 0.51087 0.0
H561 H 0.16108 0.63195 0.50171 0.0
H562 H 0.15293 0.62125 0.41785 0.0
C563 C 0.10279 0.63982 0.43603 0.0
C564 C 0.09363 0.64357 0.45615 0.0
C565 C 0.09758 0.64708 0.48285 0.0
C566 C 0.11053 0.64581 0.48933 0.0
C567 C 0.11931 0.64104 0.46886 0.0
C568 C 0.11551 0.63835 0.44274 0.0
C569 C 0.12651 0.63179 0.42418 0.0
C570 C 0.12552 0.58301 0.40897 0.0
C571 C 0.12765 0.67564 0.40516 0.0
C572 C 0.1372 0.63085 0.4438 0.0
C573 C 0.13301 0.63642 0.46952 0.0
C574 C 0.14145 0.63662 0.49077 0.0
C575 C 0.15445 0.63136 0.48543 0.0
C576 C 0.15878 0.62567 0.4591 0.0
C577 C 0.14996 0.62527 0.43823 0.0
H578 H 0.90313 0.34361 0.1691 0.0
H579 H 0.91075 0.41826 0.24315 0.0
H580 H 0.88783 0.41812 0.25332 0.0
H581 H 0.87513 0.40631 0.1528 0.0
H582 H 0.86759 0.35304 0.13877 0.0
H583 H 0.8845 0.35801 0.1384 0.0
H584 H 0.88623 0.27437 0.16261 0.0
H585 H 0.8693 0.26933 0.16323 0.0
H586 H 0.87813 0.26568 0.19361 0.0
H587 H 0.86351 0.41175 0.25395 0.0
H588 H 0.84068 0.40223 0.24428 0.0
H589 H 0.84997 0.33047 0.17025 0.0
C590 C 0.90002 0.35996 0.1875 0.0
C591 C 0.9087 0.38115 0.2053 0.0
C592 C 0.90423 0.40189 0.22922 0.0
C593 C 0.89125 0.40181 0.23517 0.0
C594 C 0.88294 0.38043 0.2171 0.0
C595 C 0.88722 0.35984 0.19377 0.0
C596 C 0.87652 0.33998 0.17724 0.0
C597 C 0.8759 0.3659 0.15022 0.0
C598 C 0.87761 0.28402 0.17399 0.0
C599 C 0.86545 0.35351 0.19452 0.0
C600 C 0.86925 0.37643 0.21757 0.0
C601 C 0.86048 0.3935 0.23604 0.0
C602 C 0.84754 0.38779 0.23046 0.0
C603 C 0.84356 0.36549 0.20657 0.0
C604 C 0.85269 0.34749 0.18875 0.0
H605 H 0.90564 0.40996 0.53372 0.0
H606 H 0.91242 0.27883 0.58017 0.0
H607 H 0.88975 0.25967 0.57931 0.0
H608 H 0.87847 0.44484 0.56698 0.0
H609 H 0.86999 0.46794 0.5387 0.0
H610 H 0.88695 0.46776 0.53865 0.0
H611 H 0.88704 0.41727 0.49527 0.0
H612 H 0.87004 0.41759 0.49506 0.0
H613 H 0.87847 0.36023 0.49374 0.0
H614 H 0.86681 0.2597 0.57898 0.0
H615 H 0.84414 0.278 0.5787 0.0
H616 H 0.85109 0.40946 0.5325 0.0
C617 C 0.90233 0.37645 0.5429 0.0
C618 C 0.91074 0.34543 0.55674 0.0
C619 C 0.90611 0.30279 0.56935 0.0
C620 C 0.89327 0.29153 0.56889 0.0
C621 C 0.88514 0.32341 0.5558 0.0
C622 C 0.88941 0.36493 0.54291 0.0
C623 C 0.87839 0.39533 0.53276 0.0
C624 C 0.87846 0.44701 0.54501 0.0
C625 C 0.87849 0.39773 0.5024 0.0
C626 C 0.86733 0.36515 0.54278 0.0
C627 C 0.87154 0.32357 0.55572 0.0
C628 C 0.86336 0.29162 0.56852 0.0
C629 C 0.8505 0.30253 0.56838 0.0
C630 C 0.84589 0.34496 0.55548 0.0
C631 C 0.85438 0.37633 0.54209 0.0
H632 H 0.65519 0.11375 0.83357 0.0
H633 H 0.66423 0.14544 0.75164 0.0
H634 H 0.64145 0.14238 0.74046 0.0
H635 H 0.63024 0.02866 0.82104 0.0
H636 H 0.62087 0.04915 0.84866 0.0
H637 H 0.6378 0.05404 0.8499 0.0
H638 H 0.63604 0.14736 0.85927 0.0
H639 H 0.61912 0.14261 0.85841 0.0
H640 H 0.62707 0.18555 0.83704 0.0
H641 H 0.61733 0.13592 0.73886 0.0
H642 H 0.59433 0.13182 0.74753 0.0
H643 H 0.60191 0.10306 0.83041 0.0
C644 C 0.65241 0.12027 0.81326 0.0
C645 C 0.66145 0.12993 0.79346 0.0
C646 C 0.65742 0.13818 0.76713 0.0
C647 C 0.64453 0.13625 0.76059 0.0
C648 C 0.63587 0.12591 0.78063 0.0
C649 C 0.63969 0.11836 0.80645 0.0
C650 C 0.62864 0.10866 0.82455 0.0
C651 C 0.62944 0.05706 0.83675 0.0
C652 C 0.62766 0.14842 0.84607 0.0
C653 C 0.61793 0.11224 0.80498 0.0
C654 C 0.62222 0.12193 0.7797 0.0
C655 C 0.61389 0.12811 0.75857 0.0
C656 C 0.60086 0.12547 0.76363 0.0
C657 C 0.59635 0.11688 0.7896 0.0
C658 C 0.60505 0.1093 0.8103 0.0
H659 H 0.6533 0.12725 0.41939 0.0
H660 H 0.66215 0.1258 0.50313 0.0
H661 H 0.63929 0.13359 0.51348 0.0
H662 H 0.62883 0.21674 0.4225 0.0
H663 H 0.61956 0.18749 0.39711 0.0
H664 H 0.63646 0.18129 0.397 0.0
H665 H 0.63429 0.08649 0.39716 0.0
H666 H 0.61739 0.09239 0.39707 0.0
H667 H 0.62506 0.05725 0.42262 0.0
H668 H 0.6147 0.14041 0.5136 0.0
H669 H 0.59176 0.14447 0.50349 0.0
H670 H 0.60042 0.14392 0.41965 0.0
C671 C 0.6505 0.12836 0.43999 0.0
C672 C 0.6595 0.12566 0.46048 0.0
C673 C 0.65538 0.12762 0.48711 0.0
C674 C 0.64243 0.13216 0.49313 0.0
C675 C 0.6338 0.13502 0.47226 0.0
C676 C 0.63777 0.13321 0.44623 0.0
C677 C 0.62689 0.13704 0.42714 0.0
C678 C 0.62801 0.1834 0.40994 0.0
C679 C 0.62585 0.09052 0.41 0.0
C680 C 0.61606 0.14097 0.44634 0.0
C681 C 0.6201 0.13978 0.47233 0.0
C682 C 0.6115 0.14163 0.49329 0.0
C683 C 0.5985 0.14409 0.4874 0.0
C684 C 0.59429 0.14477 0.4608 0.0
C685 C 0.60328 0.14378 0.44022 0.0
H686 H 0.35492 0.86198 0.16907 0.0
H687 H 0.34988 0.88521 0.25328 0.0
H688 H 0.37306 0.89346 0.25853 0.0
H689 H 0.38335 0.79081 0.17329 0.0
H690 H 0.38994 0.81743 0.14373 0.0
H691 H 0.37311 0.81253 0.14736 0.0
H692 H 0.37095 0.90612 0.13926 0.0
H693 H 0.38779 0.91138 0.13584 0.0
H694 H 0.37959 0.94833 0.15989 0.0
H695 H 0.39727 0.9004 0.25361 0.0
H696 H 0.41969 0.90212 0.23928 0.0
H697 H 0.40785 0.87518 0.15845 0.0
C698 C 0.35866 0.86848 0.1887 0.0
C699 C 0.35061 0.87284 0.21079 0.0
C700 C 0.3559 0.88153 0.23609 0.0
C701 C 0.36904 0.88642 0.23923 0.0
C702 C 0.3767 0.88251 0.21685 0.0
C703 C 0.37164 0.87349 0.19212 0.0
C704 C 0.38171 0.87098 0.17107 0.0
C705 C 0.38205 0.8199 0.15811 0.0
C706 C 0.3799 0.91163 0.1503 0.0
C707 C 0.3933 0.88002 0.1877 0.0
C708 C 0.39032 0.88668 0.21407 0.0
C709 C 0.39967 0.89523 0.23299 0.0
C710 C 0.41236 0.89632 0.2247 0.0
C711 C 0.41551 0.8889 0.19777 0.0
C712 C 0.40579 0.88112 0.17919 0.0
H713 H 0.3473 0.86916 0.52912 0.0
H714 H 0.3419 0.95352 0.60099 0.0
H715 H 0.36477 0.9676 0.60394 0.0
H716 H 0.37403 0.80726 0.55068 0.0
H717 H 0.3823 0.80692 0.51953 0.0
H718 H 0.36535 0.80973 0.52005 0.0
H719 H 0.36586 0.8892 0.49203 0.0
H720 H 0.38284 0.88643 0.49121 0.0
H721 H 0.37506 0.94082 0.50322 0.0
H722 H 0.38771 0.96401 0.60298 0.0
H723 H 0.41019 0.94506 0.5975 0.0
H724 H 0.40183 0.86274 0.5261 0.0
C725 C 0.35096 0.8919 0.54491 0.0
C726 C 0.34288 0.91082 0.5647 0.0
C727 C 0.34796 0.93901 0.58561 0.0
C728 C 0.36093 0.94731 0.5874 0.0
C729 C 0.36871 0.92702 0.56816 0.0
C730 C 0.36401 0.90011 0.54719 0.0
C731 C 0.37469 0.8787 0.53075 0.0
C732 C 0.37405 0.82231 0.53024 0.0
C733 C 0.37461 0.90008 0.50263 0.0
C734 C 0.38606 0.8966 0.54631 0.0
C735 C 0.3823 0.92478 0.56763 0.0
C736 C 0.39082 0.94272 0.58613 0.0
C737 C 0.40356 0.93145 0.58293 0.0
C738 C 0.40774 0.90261 0.56135 0.0
C739 C 0.39889 0.88549 0.54254 0.0
H740 H 0.65548 0.63721 0.27771 0.0
H741 H 0.66221 0.6368 0.36254 0.0
H742 H 0.63954 0.63075 0.37066 0.0
H743 H 0.6262 0.71026 0.28096 0.0
H744 H 0.61852 0.67653 0.25487 0.0
H745 H 0.63544 0.68251 0.25504 0.0
H746 H 0.6376 0.58796 0.25323 0.0
H747 H 0.62068 0.58167 0.25335 0.0
H748 H 0.63 0.55106 0.27817 0.0
H749 H 0.61693 0.61974 0.37069 0.0
H750 H 0.59427 0.61255 0.36275 0.0
H751 H 0.60065 0.6225 0.27796 0.0
C752 C 0.65212 0.63655 0.29793 0.0
C753 C 0.66066 0.63729 0.31949 0.0
C754 C 0.65591 0.63604 0.34568 0.0
C755 C 0.64302 0.63254 0.35056 0.0
C756 C 0.63489 0.63063 0.32908 0.0
C757 C 0.63911 0.63324 0.30327 0.0
C758 C 0.62805 0.63037 0.28412 0.0
C759 C 0.62699 0.67775 0.26778 0.0
C760 C 0.62916 0.58506 0.26615 0.0
C761 C 0.61708 0.62529 0.30336 0.0
C762 C 0.6214 0.62527 0.32912 0.0
C763 C 0.61337 0.62015 0.35063 0.0
C764 C 0.60048 0.61591 0.34584 0.0
C765 C 0.59564 0.61712 0.31973 0.0
C766 C 0.60408 0.62143 0.29812 0.0
H767 H 0.65117 0.63513 0.92157 0.0
H768 H 0.6587 0.61285 0.005 0.0
H769 H 0.63587 0.62481 0.01467 0.0
H770 H 0.62817 0.73024 0.9295 0.0
H771 H 0.61891 0.70941 0.9018 0.0
H772 H 0.63568 0.69915 0.90226 0.0
H773 H 0.63206 0.60575 0.8958 0.0
H774 H 0.6153 0.61576 0.89512 0.0
H775 H 0.62198 0.57319 0.91852 0.0
H776 H 0.61129 0.63626 0.01373 0.0
H777 H 0.58859 0.64609 0.00235 0.0
H778 H 0.59882 0.66452 0.9199 0.0
C779 C 0.64808 0.63256 0.94196 0.0
C780 C 0.65668 0.62262 0.96253 0.0
C781 C 0.65223 0.62023 0.98892 0.0
C782 C 0.6393 0.62708 0.99455 0.0
C783 C 0.63106 0.63691 0.97359 0.0
C784 C 0.6354 0.63986 0.94785 0.0
C785 C 0.62494 0.65072 0.92855 0.0
C786 C 0.62705 0.70033 0.91473 0.0
C787 C 0.62348 0.60886 0.90832 0.0
C788 C 0.61389 0.65285 0.94724 0.0
C789 C 0.61745 0.64483 0.97318 0.0
C790 C 0.60848 0.64306 0.99349 0.0
C791 C 0.59562 0.64884 0.9869 0.0
C792 C 0.59193 0.65641 0.96028 0.0
C793 C 0.60128 0.65923 0.9405 0.0
H794 H 0.35118 0.41521 0.72223 0.0
H795 H 0.3454 0.26276 0.70103 0.0
H796 H 0.36825 0.24769 0.70474 0.0
H797 H 0.37757 0.43132 0.68345 0.0
H798 H 0.38596 0.4717 0.70554 0.0
H799 H 0.36903 0.46898 0.70666 0.0
H800 H 0.36989 0.44788 0.75657 0.0
H801 H 0.38687 0.45069 0.75563 0.0
H802 H 0.3791 0.3962 0.76757 0.0
H803 H 0.39127 0.251 0.70406 0.0
H804 H 0.4136 0.27274 0.69788 0.0
H805 H 0.40543 0.42361 0.71893 0.0
C806 C 0.35474 0.37836 0.71935 0.0
C807 C 0.34657 0.33982 0.71181 0.0
C808 C 0.35153 0.29251 0.70709 0.0
C809 C 0.36448 0.2836 0.70927 0.0
C810 C 0.37236 0.32251 0.71602 0.0
C811 C 0.36774 0.36903 0.72101 0.0
C812 C 0.37847 0.40548 0.72451 0.0
C813 C 0.37771 0.44679 0.7038 0.0
C814 C 0.37859 0.42629 0.75276 0.0
C815 C 0.38979 0.37249 0.7197 0.0
C816 C 0.38597 0.32462 0.71533 0.0
C817 C 0.39442 0.28805 0.70801 0.0
C818 C 0.40706 0.30077 0.70448 0.0
C819 C 0.4112 0.34957 0.70833 0.0
C820 C 0.40253 0.38576 0.71665 0.0
H821 H 0.34868 0.35878 0.08188 0.0
H822 H 0.33739 0.41242 0.00466 0.0
H823 H 0.3598 0.4109 0.99025 0.0
H824 H 0.37711 0.42661 0.08748 0.0
H825 H 0.38541 0.37776 0.10403 0.0
H826 H 0.36858 0.38298 0.10743 0.0
H827 H 0.36599 0.29357 0.09072 0.0
H828 H 0.38282 0.28818 0.08708 0.0
H829 H 0.37264 0.27625 0.05926 0.0
H830 H 0.384 0.40365 0.98516 0.0
H831 H 0.40715 0.39424 0.99036 0.0
H832 H 0.40155 0.34463 0.07102 0.0
C833 C 0.35086 0.37038 0.0619 0.0
C834 C 0.3413 0.38589 0.04438 0.0
C835 C 0.34459 0.40053 0.01841 0.0
C836 C 0.35728 0.39962 0.01008 0.0
C837 C 0.36647 0.38374 0.02795 0.0
C838 C 0.36334 0.36947 0.05334 0.0
C839 C 0.37479 0.35425 0.06906 0.0
C840 C 0.37658 0.38739 0.09342 0.0
C841 C 0.37401 0.29983 0.07698 0.0
C842 C 0.38498 0.3627 0.04874 0.0
C843 C 0.38008 0.37942 0.02505 0.0
C844 C 0.38789 0.3904 0.00361 0.0
C845 C 0.40101 0.38481 0.0067 0.0
C846 C 0.40613 0.3686 0.03107 0.0
C847 C 0.39794 0.35695 0.05211 0.0
H848 H 0.03011 0.20092 0.24202 0.0
H849 H 0.01706 0.18296 0.32287 0.0
H850 H 0.9989 0.23627 0.31355 0.0
H851 H 0.02113 0.32722 0.2344 0.0
H852 H 0.01584 0.32067 0.2007 0.0
H853 H 0.02801 0.28101 0.21337 0.0
H854 H 0.01486 0.20447 0.20056 0.0
H855 H 0.00276 0.2439 0.18745 0.0
H856 H 0.99887 0.19899 0.21231 0.0
H857 H 0.98242 0.29295 0.29627 0.0
H858 H 0.96713 0.34118 0.27021 0.0
H859 H 0.99028 0.32151 0.20019 0.0
C860 C 0.02336 0.20788 0.25764 0.0
C861 C 0.02503 0.18774 0.28318 0.0
C862 C 0.01599 0.19779 0.30312 0.0
C863 C 0.00566 0.22835 0.2981 0.0
C864 C 0.00441 0.24846 0.27297 0.0
C865 C 0.01287 0.2381 0.2529 0.0
C866 C 0.00901 0.26333 0.22741 0.0
C867 C 0.0191 0.30025 0.21845 0.0
C868 C 0.00621 0.22541 0.20565 0.0
C869 C 0.99709 0.28931 0.23636 0.0
C870 C 0.99471 0.28066 0.2628 0.0
C871 C 0.98416 0.30002 0.27552 0.0
C872 C 0.97557 0.32765 0.26061 0.0
C873 C 0.97753 0.33534 0.23322 0.0
C874 C 0.98859 0.31673 0.22115 0.0
H875 H 0.22812 0.05741 0.246 0.0
H876 H 0.24408 0.11689 0.31823 0.0
H877 H 0.26391 0.07259 0.30966 0.0
H878 H 0.24081 0.93983 0.25225 0.0
H879 H 0.24419 0.93071 0.21765 0.0
H880 H 0.23162 0.9712 0.22747 0.0
H881 H 0.24172 0.04251 0.20103 0.0
H882 H 0.25417 0.00193 0.19061 0.0
H883 H 0.25794 0.05875 0.20704 0.0
H884 H 0.28116 0.01583 0.29593 0.0
H885 H 0.29585 0.9575 0.2748 0.0
H886 H 0.26898 0.93457 0.21123 0.0
C887 C 0.23594 0.06234 0.25951 0.0
C888 C 0.2346 0.09092 0.28268 0.0
C889 C 0.24493 0.09545 0.30027 0.0
C890 C 0.25622 0.07023 0.29565 0.0
C891 C 0.25707 0.0407 0.27327 0.0
C892 C 0.24732 0.03724 0.2552 0.0
C893 C 0.25058 0.00142 0.23327 0.0
C894 C 0.24124 0.95824 0.23264 0.0
C895 C 0.25114 0.02773 0.20639 0.0
C896 C 0.26357 0.98483 0.24211 0.0
C897 C 0.2671 0.00789 0.26527 0.0
C898 C 0.27856 0.99786 0.27763 0.0
C899 C 0.28681 0.96438 0.2656 0.0
C900 C 0.28356 0.94139 0.24143 0.0
C901 C 0.27171 0.95141 0.22977 0.0
H902 H 0.02819 0.0596 0.99811 0.0
H903 H 0.01218 0.09082 0.92087 0.0
H904 H 0.99349 0.04159 0.93201 0.0
H905 H 0.01796 0.93607 0.00219 0.0
H906 H 0.01418 0.93756 0.03694 0.0
H907 H 0.02616 0.97768 0.02393 0.0
H908 H 0.01438 0.05331 0.04272 0.0
H909 H 1.00247 0.01333 0.05619 0.0
H910 H 0.99803 0.06271 0.03439 0.0
H911 H 0.97723 0.98522 0.94981 0.0
H912 H 0.96305 0.93167 0.97548 0.0
H913 H 0.98905 0.93695 0.04177 0.0
C914 C 0.02063 0.05684 0.9838 0.0
C915 C 0.02165 0.07915 0.95862 0.0
C916 C 0.01162 0.07415 0.94029 0.0
C917 C 1.00097 0.04609 0.94637 0.0
C918 C 1.00041 0.02334 0.97096 0.0
C919 C 0.00984 0.0289 0.98959 0.0
C920 C 0.00682 0.99995 0.01446 0.0
C921 C 0.01688 0.96048 0.01967 0.0
C922 C 0.00534 0.03438 0.03835 0.0
C923 C 0.99431 0.97704 0.00669 0.0
C924 C 0.99086 0.99091 0.98144 0.0
C925 C 0.97978 0.9743 0.96968 0.0
C926 C 0.97182 0.94365 0.98437 0.0
C927 C 0.97495 0.93003 0.01059 0.0
C928 C 0.98644 0.9465 0.02172 0.0
H929 H 0.23759 0.18929 0.9628 0.0
H930 H 0.20998 0.19581 0.02608 0.0
H931 H 0.22376 0.25283 0.05072 0.0
H932 H 0.26537 0.19333 0.00505 0.0
H933 H 0.27423 0.23042 0.98211 0.0
H934 H 0.26229 0.18911 0.97005 0.0
H935 H 0.25142 0.26174 0.94609 0.0
H936 H 0.26317 0.30347 0.95858 0.0
H937 H 0.2467 0.31491 0.96485 0.0
H938 H 0.24011 0.31103 0.06774 0.0
H939 H 0.25913 0.35896 0.07868 0.0
H940 H 0.27621 0.3151 0.00435 0.0
C941 C 0.23453 0.2021 0.98203 0.0
C942 C 0.22272 0.18796 0.99259 0.0
C943 C 0.21901 0.20588 0.0177 0.0
C944 C 0.22673 0.23858 0.03174 0.0
C945 C 0.23813 0.25294 0.0204 0.0
C946 C 0.24212 0.23474 0.99632 0.0
C947 C 0.25487 0.25568 0.98871 0.0
C948 C 0.26477 0.2147 0.98636 0.0
C949 C 0.25398 0.28573 0.96303 0.0
C950 C 0.25743 0.28846 0.01232 0.0
C951 C 0.24759 0.2866 0.03024 0.0
C952 C 0.24787 0.31279 0.05387 0.0
C953 C 0.25869 0.34015 0.05983 0.0
C954 C 0.26911 0.34108 0.04228 0.0
C955 C 0.26831 0.31583 0.01792 0.0
H956 H 0.98794 0.81228 0.70206 0.0
H957 H 0.9674 0.84569 0.77414 0.0
H958 H 0.98314 0.79924 0.80001 0.0
H959 H 0.99666 0.69004 0.7191 0.0
H960 H 0.01214 0.69335 0.7045 0.0
H961 H 0.99952 0.7304 0.69149 0.0
H962 H 0.01289 0.80891 0.69842 0.0
H963 H 0.02561 0.77205 0.71115 0.0
H964 H 0.01936 0.82178 0.73066 0.0
H965 H 1.00039 0.7467 0.81772 0.0
H966 H 0.01922 0.69713 0.82717 0.0
H967 H 0.02908 0.69837 0.74379 0.0
C968 C 0.98683 0.81026 0.72333 0.0
C969 C 0.97645 0.83266 0.73614 0.0
C970 C 0.9753 0.82903 0.76395 0.0
C971 C 0.98416 0.80253 0.77878 0.0
C972 C 0.99413 0.78012 0.7655 0.0
C973 C 0.99562 0.78414 0.73846 0.0
C974 C 0.00725 0.75662 0.72914 0.0
C975 C 0.00367 0.71514 0.70992 0.0
C976 C 0.01685 0.79195 0.71661 0.0
C977 C 0.01203 0.73631 0.75519 0.0
C978 C 0.00425 0.75015 0.77583 0.0
C979 C 0.00659 0.73584 0.80176 0.0
C980 C 0.01731 0.70748 0.80688 0.0
C981 C 0.02564 0.69381 0.78621 0.0
C982 C 0.02287 0.70803 0.75996 0.0
H983 H 0.74325 0.06694 0.79848 0.0
H984 H 0.71792 0.072 0.73108 0.0
H985 H 0.73225 0.01765 0.70625 0.0
H986 H 0.77273 0.06544 0.75892 0.0
H987 H 0.78057 0.02491 0.78179 0.0
H988 H 0.7687 0.06687 0.79356 0.0
H989 H 0.75652 0.99384 0.81412 0.0
H990 H 0.76818 0.95151 0.80188 0.0
H991 H 0.75182 0.9433 0.79334 0.0
H992 H 0.74782 0.95584 0.69072 0.0
H993 H 0.7659 0.90196 0.68167 0.0
H994 H 0.7821 0.93971 0.7579 0.0
C995 C 0.74089 0.05759 0.77826 0.0
C996 C 0.72947 0.07376 0.76668 0.0
C997 C 0.72665 0.06041 0.74028 0.0
C998 C 0.73468 0.02919 0.72609 0.0
C999 C 0.74558 0.01227 0.73844 0.0
C1000 C 0.7489 0.02695 0.76364 0.0
C1001 C 0.76121 0.00333 0.7722 0.0
C1002 C 0.77141 0.04247 0.77688 0.0
C1003 C 0.75931 0.97109 0.79685 0.0
C1004 C 0.76415 0.9724 0.74803 0.0
C1005 C 0.7549 0.97778 0.72898 0.0
C1006 C 0.75522 0.95185 0.70531 0.0
C1007 C 0.7655 0.92095 0.70048 0.0
C1008 C 0.77544 0.91661 0.71906 0.0
C1009 C 0.77464 0.94217 0.74335 0.0
H1010 H 0.72274 0.69292 0.00524 0.0
H1011 H 0.73635 0.66738 0.92539 0.0
H1012 H 0.75437 0.72195 0.93369 0.0
H1013 H 0.73146 0.81963 0.00965 0.0
H1014 H 0.73659 0.81655 0.04361 0.0
H1015 H 0.72458 0.77525 0.03181 0.0
H1016 H 0.73784 0.70053 0.04699 0.0
H1017 H 0.74977 0.74164 0.05927 0.0
H1018 H 0.7539 0.69457 0.03578 0.0
H1019 H 0.77046 0.78167 0.94956 0.0
H1020 H 0.78542 0.83339 0.97447 0.0
H1021 H 0.76215 0.81846 0.04466 0.0
C1022 C 0.7296 0.69839 0.98965 0.0
C1023 C 0.7281 0.67585 0.96466 0.0
C1024 C 0.73728 0.68404 0.94474 0.0
C1025 C 0.74753 0.71531 0.94917 0.0
C1026 C 0.74858 0.73791 0.97372 0.0
C1027 C 0.74003 0.72919 0.99384 0.0
C1028 C 0.7437 0.75697 0.01868 0.0
C1029 C 0.73347 0.79431 0.02638 0.0
C1030 C 0.74647 0.7213 0.04153 0.0
C1031 C 0.7556 0.78253 0.00929 0.0
C1032 C 0.75813 0.77154 0.98317 0.0
C1033 C 0.76862 0.79049 0.97007 0.0
C1034 C 0.77702 0.82014 0.98432 0.0
C1035 C 0.77494 0.83008 0.01146 0.0
C1036 C 0.76394 0.8118 0.02388 0.0
H1037 H 0.22848 0.56476 0.74861 0.0
H1038 H 0.24207 0.58468 0.82889 0.0
H1039 H 0.26082 0.53502 0.81859 0.0
H1040 H 0.23795 0.44125 0.74157 0.0
H1041 H 0.24281 0.44642 0.70752 0.0
H1042 H 0.23074 0.48636 0.72032 0.0
H1043 H 0.24362 0.5626 0.70591 0.0
H1044 H 0.25563 0.52287 0.69265 0.0
H1045 H 0.25973 0.56896 0.71672 0.0
H1046 H 0.27735 0.47867 0.80085 0.0
H1047 H 0.29179 0.42595 0.77512 0.0
H1048 H 0.26783 0.44299 0.70611 0.0
C1049 C 0.23554 0.55952 0.76382 0.0
C1050 C 0.23382 0.57875 0.78954 0.0
C1051 C 0.24319 0.57046 0.80902 0.0
C1052 C 0.25387 0.54212 0.80341 0.0
C1053 C 0.2551 0.52243 0.77816 0.0
C1054 C 0.24632 0.53129 0.75852 0.0
C1055 C 0.24989 0.50507 0.73314 0.0
C1056 C 0.23974 0.46755 0.72518 0.0
C1057 C 0.25237 0.54209 0.71079 0.0
C1058 C 0.26195 0.47977 0.74173 0.0
C1059 C 0.26475 0.49015 0.76781 0.0
C1060 C 0.27532 0.47052 0.78034 0.0
C1061 C 0.28342 0.44036 0.76562 0.0
C1062 C 0.28093 0.43029 0.73866 0.0
C1063 C 0.26997 0.4499 0.72672 0.0
H1064 H 0.02815 0.56934 0.50301 0.0
H1065 H 0.01202 0.59181 0.42505 0.0
H1066 H 0.99328 0.54416 0.43801 0.0
H1067 H 0.01823 0.4472 0.5109 0.0
H1068 H 0.01454 0.45193 0.54561 0.0
H1069 H 0.02635 0.49128 0.53132 0.0
H1070 H 0.01438 0.56818 0.54798 0.0
H1071 H 0.00266 0.52902 0.5628 0.0
H1072 H 0.99797 0.57588 0.53966 0.0
H1073 H 0.97713 0.48846 0.45785 0.0
H1074 H 0.96332 0.43635 0.48543 0.0
H1075 H 0.98961 0.45051 0.55079 0.0
C1076 C 0.02053 0.5653 0.48894 0.0
C1077 C 0.02153 0.58448 0.46305 0.0
C1078 C 0.01144 0.57762 0.44503 0.0
C1079 C 1.00078 0.5504 0.45215 0.0
C1080 C 1.00027 0.53041 0.47744 0.0
C1081 C 0.00975 0.53817 0.49576 0.0
C1082 C 0.00692 0.51166 0.52145 0.0
C1083 C 0.01712 0.47324 0.52767 0.0
C1084 C 0.00539 0.54838 0.54433 0.0
C1085 C 0.99447 0.48742 0.51454 0.0
C1086 C 0.99085 0.49854 0.48901 0.0
C1087 C 0.97981 0.47978 0.47797 0.0
C1088 C 0.97207 0.44991 0.49371 0.0
C1089 C 0.97539 0.43929 0.52021 0.0
C1090 C 0.98683 0.45785 0.53056 0.0
H1091 H 0.22373 0.69711 0.50578 0.0
H1092 H 0.23919 0.67469 0.42718 0.0
H1093 H 0.25733 0.72699 0.43843 0.0
H1094 H 0.23299 0.82271 0.51306 0.0
H1095 H 0.23714 0.81744 0.54751 0.0
H1096 H 0.22525 0.77786 0.53364 0.0
H1097 H 0.23764 0.70124 0.54928 0.0
H1098 H 0.24945 0.74061 0.5636 0.0
H1099 H 0.25395 0.69435 0.53994 0.0
H1100 H 0.27345 0.78404 0.45735 0.0
H1101 H 0.28791 0.83348 0.48489 0.0
H1102 H 0.2625 0.81739 0.55164 0.0
C1103 C 0.23101 0.7028 0.49108 0.0
C1104 C 0.23002 0.68177 0.4656 0.0
C1105 C 0.23974 0.69021 0.44687 0.0
C1106 C 0.25006 0.72017 0.45299 0.0
C1107 C 0.25062 0.74125 0.47801 0.0
C1108 C 0.24148 0.73235 0.49694 0.0
C1109 C 0.2446 0.75852 0.52259 0.0
C1110 C 0.23438 0.79638 0.5296 0.0
C1111 C 0.24653 0.72147 0.54518 0.0
C1112 C 0.25688 0.78342 0.51505 0.0
C1113 C 0.26009 0.77344 0.48914 0.0
C1114 C 0.27106 0.79207 0.47771 0.0
C1115 C 0.27917 0.8204 0.49344 0.0
C1116 C 0.27632 0.82943 0.52035 0.0
C1117 C 0.2649 0.8114 0.53106 0.0
H1118 H 0.77963 0.45515 0.24567 0.0
H1119 H 0.76379 0.42771 0.1679 0.0
H1120 H 0.74581 0.48165 0.1784 0.0
H1121 H 0.74983 0.45694 0.2807 0.0
H1122 H 0.7547 0.5049 0.30303 0.0
H1123 H 0.76625 0.46385 0.28921 0.0
H1124 H 0.7787 0.53859 0.27123 0.0
H1125 H 0.76705 0.57981 0.28457 0.0
H1126 H 0.7709 0.58198 0.24987 0.0
H1127 H 0.72957 0.53946 0.19715 0.0
H1128 H 0.71529 0.59002 0.22463 0.0
H1129 H 0.74177 0.58025 0.28985 0.0
C1130 C 0.77231 0.46008 0.23098 0.0
C1131 C 0.77311 0.43711 0.20599 0.0
C1132 C 0.76337 0.44477 0.18723 0.0
C1133 C 0.75315 0.47562 0.19293 0.0
C1134 C 0.75277 0.4986 0.2175 0.0
C1135 C 0.76201 0.49078 0.23635 0.0
C1136 C 0.75921 0.51917 0.26142 0.0
C1137 C 0.75738 0.48412 0.28498 0.0
C1138 C 0.76959 0.55714 0.26709 0.0
C1139 C 0.74694 0.5439 0.25375 0.0
C1140 C 0.74343 0.53193 0.22826 0.0
C1141 C 0.73225 0.54926 0.21712 0.0
C1142 C 0.72423 0.57825 0.23279 0.0
C1143 C 0.72744 0.58939 0.25929 0.0
C1144 C 0.73911 0.57289 0.26955 0.0
H1145 H 0.76366 0.33342 0.54209 0.0
H1146 H 0.78972 0.3338 0.47589 0.0
H1147 H 0.77478 0.28334 0.4501 0.0
H1148 H 0.75441 0.21195 0.53657 0.0
H1149 H 0.73808 0.2214 0.54506 0.0
H1150 H 0.74993 0.26277 0.55738 0.0
H1151 H 0.73818 0.33682 0.5368 0.0
H1152 H 0.7261 0.29584 0.52495 0.0
H1153 H 0.73417 0.33581 0.50215 0.0
H1154 H 0.75834 0.22503 0.43369 0.0
H1155 H 0.74012 0.17144 0.42505 0.0
H1156 H 0.72441 0.20919 0.5017 0.0
C1157 C 0.76606 0.32425 0.52186 0.0
C1158 C 0.77784 0.33788 0.51091 0.0
C1159 C 0.78071 0.32429 0.48457 0.0
C1160 C 0.77231 0.29532 0.46985 0.0
C1161 C 0.76106 0.28059 0.4817 0.0
C1162 C 0.75778 0.29538 0.5069 0.0
C1163 C 0.74535 0.27275 0.51542 0.0
C1164 C 0.74705 0.2403 0.54006 0.0
C1165 C 0.73536 0.31269 0.5201 0.0
C1166 C 0.74225 0.24216 0.49124 0.0
C1167 C 0.75147 0.24717 0.4721 0.0
C1168 C 0.75098 0.22135 0.44839 0.0
C1169 C 0.74062 0.19066 0.44377 0.0
C1170 C 0.73082 0.18606 0.4627 0.0
C1171 C 0.73175 0.21183 0.48689 0.0
H1172 H 0.47546 0.32634 0.75597 0.0
H1173 H 0.49336 0.39172 0.68729 0.0
H1174 H 0.51324 0.34996 0.69847 0.0
H1175 H 0.50409 0.33011 0.79962 0.0
H1176 H 0.50016 0.27218 0.81471 0.0
H1177 H 0.48781 0.31218 0.80312 0.0
H1178 H 0.47902 0.24121 0.77448 0.0
H1179 H 0.49152 0.20138 0.78536 0.0
H1180 H 0.48914 0.212 0.75053 0.0
H1181 H 0.53006 0.29202 0.71291 0.0
H1182 H 0.5442 0.23229 0.73452 0.0
H1183 H 0.51597 0.20662 0.7951 0.0
C1184 C 0.4837 0.33337 0.7439 0.0
C1185 C 0.48287 0.36249 0.72082 0.0
C1186 C 0.49379 0.36981 0.70514 0.0
C1187 C 0.50512 0.34601 0.71124 0.0
C1188 C 0.50544 0.31545 0.73327 0.0
C1189 C 0.49515 0.31002 0.7498 0.0
C1190 C 0.49792 0.27344 0.77166 0.0
C1191 C 0.49748 0.29848 0.79889 0.0
C1192 C 0.48886 0.22942 0.77041 0.0
C1193 C 0.51126 0.25845 0.76443 0.0
C1194 C 0.51535 0.28288 0.74209 0.0
C1195 C 0.52706 0.27329 0.7307 0.0
C1196 C 0.53497 0.23892 0.74294 0.0
C1197 C 0.53119 0.21495 0.76648 0.0
C1198 C 0.51912 0.22459 0.77718 0.0
H1199 H 0.48843 0.92701 0.53786 0.0
H1200 H 0.4609 0.94459 0.47506 0.0
H1201 H 0.47555 1.00016 0.45155 0.0
H1202 H 0.49869 0.05043 0.539 0.0
H1203 H 0.51501 0.03628 0.54538 0.0
H1204 H 0.50283 0.99509 0.55648 0.0
H1205 H 0.51323 0.92327 0.53093 0.0
H1206 H 0.52558 0.96399 0.52019 0.0
H1207 H 0.51655 0.9301 0.49615 0.0
H1208 H 0.4928 0.05608 0.43584 0.0
H1209 H 0.51213 0.1037 0.42709 0.0
H1210 H 0.52827 0.05175 0.50082 0.0
C1211 C 0.48557 0.94169 0.51888 0.0
C1212 C 0.47356 0.9311 0.50813 0.0
C1213 C 0.4701 0.95182 0.48351 0.0
C1214 C 0.47832 0.98365 0.47012 0.0
C1215 C 0.48994 0.9945 0.48169 0.0
C1216 C 0.49362 0.97378 0.50538 0.0
C1217 C 0.50649 0.99232 0.51383 0.0
C1218 C 0.5057 0.02018 0.54024 0.0
C1219 C 0.51602 0.94989 0.51535 0.0
C1220 C 0.5095 0.02675 0.49117 0.0
C1221 C 0.4998 0.0275 0.47289 0.0
C1222 C 0.50045 0.05578 0.45001 0.0
C1223 C 0.51145 0.08288 0.44529 0.0
C1224 C 0.52165 0.08176 0.46338 0.0
C1225 C 0.52054 0.05401 0.48687 0.0
H1226 H 0.47943 0.81347 0.23985 0.0
H1227 H 0.4978 0.85143 0.16597 0.0
H1228 H 0.51651 0.80344 0.17923 0.0
H1229 H 0.50802 0.81433 0.28147 0.0
H1230 H 0.50271 0.76271 0.30076 0.0
H1231 H 0.49139 0.80412 0.28638 0.0
H1232 H 0.48054 0.73051 0.26323 0.0
H1233 H 0.49199 0.68904 0.27703 0.0
H1234 H 0.48966 0.69144 0.24174 0.0
H1235 H 0.5327 0.74645 0.19933 0.0
H1236 H 0.54576 0.69049 0.22654 0.0
H1237 H 0.51644 0.68821 0.28643 0.0
C1238 C 0.48753 0.81287 0.22682 0.0
C1239 C 0.48722 0.8366 0.20201 0.0
C1240 C 0.49789 0.83386 0.18519 0.0
C1241 C 0.50854 0.80649 0.19248 0.0
C1242 C 0.50836 0.78195 0.21664 0.0
C1243 C 0.4982 0.78537 0.23371 0.0
C1244 C 0.50017 0.75386 0.25802 0.0
C1245 C 0.5006 0.78566 0.28314 0.0
C1246 C 0.48999 0.71385 0.26011 0.0
C1247 C 0.51296 0.73194 0.25186 0.0
C1248 C 0.51755 0.74856 0.22793 0.0
C1249 C 0.52922 0.73331 0.21816 0.0
C1250 C 0.53653 0.70125 0.23363 0.0
C1251 C 0.5321 0.68474 0.2585 0.0
C1252 C 0.52007 0.69982 0.2674 0.0
H1253 H 0.48719 0.43791 0.03299 0.0
H1254 H 0.46106 0.44878 0.96716 0.0
H1255 H 0.47539 0.50704 0.945 0.0
H1256 H 0.4966 0.56343 0.03395 0.0
H1257 H 0.51291 0.5512 0.04148 0.0
H1258 H 0.50086 0.50904 0.05216 0.0
H1259 H 0.51214 0.4377 0.02793 0.0
H1260 H 0.52435 0.47944 0.01759 0.0
H1261 H 0.5159 0.44387 0.99331 0.0
H1262 H 0.49185 0.56648 0.93094 0.0
H1263 H 0.51081 0.61622 0.9228 0.0
H1264 H 0.52681 0.56647 0.99716 0.0
C1265 C 0.48458 0.45202 0.01373 0.0
C1266 C 0.47301 0.43872 0.00174 0.0
C1267 C 0.46989 0.45821 0.97663 0.0
C1268 C 0.47793 0.49159 0.96398 0.0
C1269 C 0.48908 0.50494 0.97664 0.0
C1270 C 0.49254 0.48526 0.00073 0.0
C1271 C 0.50516 0.50547 0.0098 0.0
C1272 C 0.50379 0.53398 0.0359 0.0
C1273 C 0.51497 0.46416 0.0123 0.0
C1274 C 0.50825 0.53962 0.98701 0.0
C1275 C 0.49875 0.53899 0.96828 0.0
C1276 C 0.49938 0.56713 0.94539 0.0
C1277 C 0.51018 0.59546 0.94102 0.0
C1278 C 0.52029 0.59533 0.95936 0.0
C1279 C 0.51918 0.56775 0.98294 0.0
H1280 H 0.06159 0.48835 0.36954 0.0
H1281 H 0.06281 0.4529 0.4532 0.0
H1282 H 0.06472 0.36496 0.44228 0.0
H1283 H 0.04289 0.38767 0.34994 0.0
H1284 H 0.051 0.37795 0.31905 0.0
H1285 H 0.05051 0.43828 0.33346 0.0
H1286 H 0.07494 0.44242 0.33241 0.0
H1287 H 0.07549 0.38204 0.31795 0.0
H1288 H 0.084 0.3946 0.34807 0.0
H1289 H 0.06504 0.28059 0.42229 0.0
H1290 H 0.0642 0.20602 0.39436 0.0
H1291 H 0.06328 0.29732 0.32406 0.0
C1292 C 0.06239 0.46211 0.38554 0.0
C1293 C 0.06206 0.4773 0.41218 0.0
C1294 C 0.06307 0.44195 0.43262 0.0
C1295 C 0.06417 0.39196 0.42663 0.0
C1296 C 0.06434 0.3781 0.40014 0.0
C1297 C 0.06354 0.41214 0.37992 0.0
C1298 C 0.06353 0.38753 0.35313 0.0
C1299 C 0.05125 0.39851 0.33802 0.0
C1300 C 0.07519 0.40254 0.33694 0.0
C1301 C 0.06423 0.33434 0.36147 0.0
C1302 C 0.06472 0.32958 0.38865 0.0
C1303 C 0.06481 0.28381 0.40096 0.0
C1304 C 0.06431 0.24175 0.38499 0.0
C1305 C 0.06377 0.24604 0.35713 0.0
C1306 C 0.06385 0.29293 0.34532 0.0
H1307 H 0.19303 0.7952 0.41964 0.0
H1308 H 0.19481 0.70275 0.34984 0.0
H1309 H 0.19471 0.77682 0.32149 0.0
H1310 H 0.17266 0.88938 0.39229 0.0
H1311 H 0.18079 0.93837 0.4091 0.0
H1312 H 0.18027 0.87803 0.42358 0.0
H1313 H 0.20469 0.8768 0.42605 0.0
H1314 H 0.20529 0.93702 0.41151 0.0
H1315 H 0.21376 0.88701 0.39639 0.0
H1316 H 0.19511 0.86098 0.30112 0.0
H1317 H 0.19629 0.94907 0.29003 0.0
H1318 H 0.19463 0.98568 0.37353 0.0
C1319 C 0.19326 0.79046 0.39838 0.0
C1320 C 0.19387 0.74339 0.38684 0.0
C1321 C 0.19431 0.73862 0.35899 0.0
C1322 C 0.19423 0.78039 0.34278 0.0
C1323 C 0.19374 0.82635 0.35484 0.0
C1324 C 0.19326 0.83158 0.382 0.0
C1325 C 0.19329 0.88496 0.39013 0.0
C1326 C 0.18102 0.89847 0.40463 0.0
C1327 C 0.20495 0.89714 0.40701 0.0
C1328 C 0.19398 0.90909 0.36328 0.0
C1329 C 0.19415 0.8747 0.34317 0.0
C1330 C 0.19493 0.88824 0.31668 0.0
C1331 C 0.1956 0.9383 0.3106 0.0
C1332 C 0.19555 0.97404 0.33095 0.0
C1333 C 0.19468 0.95913 0.35758 0.0
H1334 H 0.05816 0.95415 0.92088 0.0
H1335 H 0.07343 0.03991 0.85604 0.0
H1336 H 0.07865 0.96355 0.83213 0.0
H1337 H 0.08044 0.85042 0.91659 0.0
H1338 H 0.06841 0.80562 0.92376 0.0
H1339 H 0.06722 0.86668 0.93723 0.0
H1340 H 0.04507 0.87638 0.91622 0.0
H1341 H 0.04617 0.81542 0.9028 0.0
H1342 H 0.04315 0.86665 0.88117 0.0
H1343 H 0.08077 0.8796 0.81405 0.0
H1344 H 0.07844 0.79297 0.80125 0.0
H1345 H 0.06135 0.76082 0.87733 0.0
C1346 C 0.0628 0.95674 0.90184 0.0
C1347 C 0.06549 0.00271 0.8903 0.0
C1348 C 0.07132 0.00491 0.86517 0.0
C1349 C 0.07439 0.96181 0.85156 0.0
C1350 C 0.07153 0.91701 0.86338 0.0
C1351 C 0.0658 0.91408 0.88788 0.0
C1352 C 0.06272 0.86147 0.89505 0.0
C1353 C 0.07014 0.84509 0.91962 0.0
C1354 C 0.04843 0.8546 0.89903 0.0
C1355 C 0.06731 0.83539 0.87044 0.0
C1356 C 0.07255 0.86814 0.85266 0.0
C1357 C 0.07682 0.85349 0.82789 0.0
C1358 C 0.07543 0.80424 0.8208 0.0
C1359 C 0.06974 0.77031 0.83836 0.0
C1360 C 0.0659 0.78588 0.86371 0.0
H1361 H 0.19732 0.49774 0.88234 0.0
H1362 H 0.1882 0.46155 0.80089 0.0
H1363 H 0.18639 0.37442 0.81288 0.0
H1364 H 0.21631 0.39308 0.89485 0.0
H1365 H 0.21098 0.38444 0.92839 0.0
H1366 H 0.2109 0.44482 0.91395 0.0
H1367 H 0.18708 0.45342 0.92447 0.0
H1368 H 0.18711 0.39312 0.93907 0.0
H1369 H 0.17623 0.40734 0.91278 0.0
H1370 H 0.18676 0.29114 0.83262 0.0
H1371 H 0.18848 0.21622 0.85984 0.0
H1372 H 0.19701 0.30549 0.92868 0.0
C1373 C 0.19479 0.47149 0.86716 0.0
C1374 C 0.19289 0.48638 0.84071 0.0
C1375 C 0.1897 0.45097 0.8213 0.0
C1376 C 0.18864 0.40136 0.82788 0.0
C1377 C 0.19075 0.3877 0.85399 0.0
C1378 C 0.19367 0.4216 0.8734 0.0
C1379 C 0.19578 0.39666 0.89981 0.0
C1380 C 0.2093 0.40527 0.90983 0.0
C1381 C 0.18596 0.41365 0.92023 0.0
C1382 C 0.19372 0.34357 0.89204 0.0
C1383 C 0.19083 0.3393 0.86551 0.0
C1384 C 0.18891 0.29392 0.85349 0.0
C1385 C 0.18994 0.25163 0.86906 0.0
C1386 C 0.19282 0.25518 0.89631 0.0
C1387 C 0.1947 0.30177 0.90791 0.0
H1388 H 0.9466 0.75573 0.62371 0.0
H1389 H 0.93034 0.72722 0.70104 0.0
H1390 H 0.92876 0.63948 0.69035 0.0
H1391 H 0.9272 0.66458 0.58796 0.0
H1392 H 0.93991 0.64746 0.56617 0.0
H1393 H 0.93912 0.70889 0.57924 0.0
H1394 H 0.96172 0.69939 0.59803 0.0
H1395 H 0.96254 0.63784 0.58523 0.0
H1396 H 0.9652 0.64897 0.61993 0.0
H1397 H 0.93091 0.55415 0.67349 0.0
H1398 H 0.93468 0.47676 0.64915 0.0
H1399 H 0.94831 0.55999 0.58182 0.0
C1400 C 0.94252 0.73109 0.63816 0.0
C1401 C 0.93861 0.74833 0.66319 0.0
C1402 C 0.93338 0.71492 0.68169 0.0
C1403 C 0.93246 0.66493 0.67586 0.0
C1404 C 0.93664 0.64887 0.65129 0.0
C1405 C 0.94138 0.6809 0.63253 0.0
C1406 C 0.94537 0.6536 0.6078 0.0
C1407 C 0.93742 0.66958 0.58388 0.0
C1408 C 0.95955 0.66036 0.60245 0.0
C1409 C 0.94238 0.60134 0.6159 0.0
C1410 C 0.93741 0.59944 0.64112 0.0
C1411 C 0.9346 0.5551 0.65354 0.0
C1412 C 0.93682 0.51141 0.63967 0.0
C1413 C 0.94165 0.51262 0.61362 0.0
C1414 C 0.94442 0.55817 0.6016 0.0
H1415 H 0.80424 0.0377 0.67102 0.0
H1416 H 0.80573 0.94557 0.60106 0.0
H1417 H 0.80365 0.01943 0.57283 0.0
H1418 H 0.78142 0.12589 0.64569 0.0
H1419 H 0.78899 0.177 0.66182 0.0
H1420 H 0.78984 0.11666 0.67626 0.0
H1421 H 0.81426 0.12195 0.67657 0.0
H1422 H 0.81348 0.18222 0.66217 0.0
H1423 H 0.82251 0.1347 0.64617 0.0
H1424 H 0.80282 0.10367 0.55261 0.0
H1425 H 0.80322 0.19189 0.54163 0.0
H1426 H 0.80188 0.228 0.62519 0.0
C1427 C 0.80404 0.03293 0.64976 0.0
C1428 C 0.80516 0.98608 0.63813 0.0
C1429 C 0.80487 0.98128 0.61028 0.0
C1430 C 0.80366 0.02292 0.59415 0.0
C1431 C 0.80266 0.0687 0.60631 0.0
C1432 C 0.80278 0.07385 0.63348 0.0
C1433 C 0.80202 0.1271 0.64171 0.0
C1434 C 0.78984 0.13724 0.65729 0.0
C1435 C 0.81377 0.14237 0.65758 0.0
C1436 C 0.80173 0.15137 0.61487 0.0
C1437 C 0.80203 0.11707 0.5947 0.0
C1438 C 0.80245 0.13082 0.56821 0.0
C1439 C 0.8027 0.18095 0.5622 0.0
C1440 C 0.80253 0.21658 0.5826 0.0
C1441 C 0.80187 0.20151 0.60922 0.0
H1442 H 0.94536 0.23535 0.12148 0.0
H1443 H 0.94706 0.19803 0.20487 0.0
H1444 H 0.94759 0.11005 0.19344 0.0
H1445 H 0.92495 0.13562 0.10253 0.0
H1446 H 0.93261 0.12597 0.07113 0.0
H1447 H 0.93254 0.18611 0.08589 0.0
H1448 H 0.95695 0.18885 0.08332 0.0
H1449 H 0.95709 0.12869 0.06859 0.0
H1450 H 0.96603 0.14029 0.09826 0.0
H1451 H 0.9485 0.02622 0.17294 0.0
H1452 H 0.94859 0.95214 0.14461 0.0
H1453 H 0.94549 0.04427 0.0749 0.0
C1454 C 0.94584 0.20862 0.1373 0.0
C1455 C 0.94619 0.22337 0.16403 0.0
C1456 C 0.94676 0.18742 0.18423 0.0
C1457 C 0.9471 0.1374 0.17796 0.0
C1458 C 0.94677 0.124 0.15141 0.0
C1459 C 0.94606 0.1585 0.1314 0.0
C1460 C 0.94561 0.13428 0.10449 0.0
C1461 C 0.93319 0.1462 0.09018 0.0
C1462 C 0.9571 0.1489 0.08768 0.0
C1463 C 0.9462 0.08086 0.11252 0.0
C1464 C 0.94695 0.07567 0.13965 0.0
C1465 C 0.94785 0.02976 0.15167 0.0
C1466 C 0.94792 0.98797 0.13546 0.0
C1467 C 0.94698 0.9926 0.10766 0.0
C1468 C 0.94612 0.03966 0.09614 0.0
H1469 H 0.81055 0.54518 0.16516 0.0
H1470 H 0.81368 0.45532 0.0946 0.0
H1471 H 0.81477 0.53048 0.06717 0.0
H1472 H 0.79025 0.63347 0.13768 0.0
H1473 H 0.79706 0.68459 0.15521 0.0
H1474 H 0.7977 0.62404 0.16932 0.0
H1475 H 0.82203 0.63046 0.17301 0.0
H1476 H 0.82146 0.69119 0.159 0.0
H1477 H 0.83119 0.64467 0.14397 0.0
H1478 H 0.81464 0.61513 0.04764 0.0
H1479 H 0.81266 0.7031 0.03695 0.0
H1480 H 0.80886 0.73694 0.12048 0.0
C1481 C 0.81166 0.54127 0.14396 0.0
C1482 C 0.81214 0.49461 0.13191 0.0
C1483 C 0.81336 0.49088 0.10413 0.0
C1484 C 0.81401 0.53327 0.08846 0.0
C1485 C 0.81336 0.57879 0.10098 0.0
C1486 C 0.81219 0.58302 0.1281 0.0
C1487 C 0.81093 0.636 0.13659 0.0
C1488 C 0.79823 0.64503 0.15051 0.0
C1489 C 0.82207 0.65148 0.15418 0.0
C1490 C 0.81143 0.66104 0.10996 0.0
C1491 C 0.81296 0.62745 0.08971 0.0
C1492 C 0.81349 0.64178 0.06332 0.0
C1493 C 0.81235 0.69178 0.05748 0.0
C1494 C 0.8106 0.72668 0.07793 0.0
C1495 C 0.81019 0.71104 0.10448 0.0
H1496 H 0.55578 0.27361 0.87864 0.0
H1497 H 0.57944 0.30047 0.81003 0.0
H1498 H 0.58173 0.38681 0.82313 0.0
H1499 H 0.53916 0.38377 0.87628 0.0
H1500 H 0.53848 0.39354 0.91152 0.0
H1501 H 0.53966 0.3322 0.89859 0.0
H1502 H 0.55976 0.31703 0.92656 0.0
H1503 H 0.55856 0.37824 0.93983 0.0
H1504 H 0.57289 0.35872 0.92379 0.0
H1505 H 0.57939 0.47141 0.84001 0.0
H1506 H 0.57414 0.54909 0.86266 0.0
H1507 H 0.55286 0.46812 0.92157 0.0
C1508 C 0.56167 0.29747 0.86677 0.0
C1509 C 0.56742 0.28042 0.84334 0.0
C1510 C 0.57494 0.31278 0.82808 0.0
C1511 C 0.57631 0.36191 0.83534 0.0
C1512 C 0.57024 0.37802 0.85808 0.0
C1513 C 0.56322 0.34679 0.87385 0.0
C1514 C 0.55726 0.37433 0.89667 0.0
C1515 C 0.54278 0.37074 0.89568 0.0
C1516 C 0.56243 0.35599 0.92329 0.0
C1517 C 0.56174 0.42595 0.89073 0.0
C1518 C 0.5692 0.42717 0.86836 0.0
C1519 C 0.57375 0.47096 0.85784 0.0
C1520 C 0.57066 0.51482 0.87069 0.0
C1521 C 0.56321 0.51429 0.89387 0.0
C1522 C 0.55875 0.4693 0.90407 0.0
H1523 H 0.69396 0.78851 0.92319 0.0
H1524 H 0.69027 0.69776 0.85307 0.0
H1525 H 0.69045 0.77239 0.82514 0.0
H1526 H 0.67456 0.88946 0.90103 0.0
H1527 H 0.68451 0.93534 0.91598 0.0
H1528 H 0.68351 0.87496 0.93031 0.0
H1529 H 0.7078 0.86612 0.92705 0.0
H1530 H 0.70888 0.92639 0.91265 0.0
H1531 H 0.71544 0.87435 0.8955 0.0
H1532 H 0.69133 0.8566 0.80515 0.0
H1533 H 0.69333 0.94438 0.79408 0.0
H1534 H 0.69706 0.97951 0.87748 0.0
C1535 C 0.69307 0.78431 0.90197 0.0
C1536 C 0.69202 0.73753 0.89021 0.0
C1537 C 0.69104 0.73341 0.86239 0.0
C1538 C 0.69112 0.7755 0.84643 0.0
C1539 C 0.69225 0.82112 0.85869 0.0
C1540 C 0.69324 0.82575 0.88581 0.0
C1541 C 0.69479 0.87877 0.89405 0.0
C1542 C 0.68368 0.89561 0.91136 0.0
C1543 C 0.70748 0.88686 0.90814 0.0
C1544 C 0.69456 0.90339 0.86727 0.0
C1545 C 0.69302 0.86951 0.84716 0.0
C1546 C 0.69253 0.88345 0.82071 0.0
C1547 C 0.69367 0.93337 0.81465 0.0
C1548 C 0.69536 0.96861 0.83496 0.0
C1549 C 0.6958 0.95333 0.86158 0.0
H1550 H 0.55761 0.80298 0.32655 0.0
H1551 H 0.55605 0.71357 0.39753 0.0
H1552 H 0.55777 0.78821 0.42498 0.0
H1553 H 0.57977 0.89259 0.35034 0.0
H1554 H 0.57206 0.94365 0.33448 0.0
H1555 H 0.57098 0.8832 0.32025 0.0
H1556 H 0.54658 0.88846 0.32127 0.0
H1557 H 0.54759 0.94904 0.33533 0.0
H1558 H 0.53871 0.90192 0.35203 0.0
H1559 H 0.56005 0.87119 0.44449 0.0
H1560 H 0.56092 0.95897 0.45553 0.0
H1561 H 0.56017 0.99567 0.37193 0.0
C1562 C 0.55764 0.7992 0.34787 0.0
C1563 C 0.55676 0.75269 0.36002 0.0
C1564 C 0.5567 0.74899 0.38792 0.0
C1565 C 0.55773 0.79107 0.40363 0.0
C1566 C 0.55869 0.83637 0.39106 0.0
C1567 C 0.55851 0.84086 0.36385 0.0
C1568 C 0.55923 0.89411 0.35541 0.0
C1569 C 0.57123 0.90395 0.33916 0.0
C1570 C 0.54731 0.90926 0.34012 0.0
C1571 C 0.55985 0.91886 0.38218 0.0
C1572 C 0.55966 0.88472 0.4024 0.0
C1573 C 0.56018 0.89832 0.42887 0.0
C1574 C 0.56071 0.94829 0.4349 0.0
C1575 C 0.56061 0.98406 0.41455 0.0
C1576 C 0.56028 0.96909 0.38784 0.0
H1577 H 0.69785 0.29703 0.42032 0.0
H1578 H 0.6926 0.20685 0.35043 0.0
H1579 H 0.69307 0.28148 0.32247 0.0
H1580 H 0.67901 0.3994 0.39966 0.0
H1581 H 0.68945 0.4443 0.414 0.0
H1582 H 0.68835 0.38392 0.42826 0.0
H1583 H 0.71253 0.3731 0.42323 0.0
H1584 H 0.7137 0.43336 0.40885 0.0
H1585 H 0.71969 0.38089 0.39116 0.0
H1586 H 0.69386 0.366 0.30257 0.0
H1587 H 0.69545 0.45415 0.29178 0.0
H1588 H 0.70108 0.48779 0.37487 0.0
C1589 C 0.6967 0.29297 0.39914 0.0
C1590 C 0.69509 0.24642 0.38744 0.0
C1591 C 0.6938 0.24239 0.35968 0.0
C1592 C 0.69405 0.28445 0.34371 0.0
C1593 C 0.69573 0.32987 0.35591 0.0
C1594 C 0.69708 0.33431 0.38298 0.0
C1595 C 0.69906 0.38707 0.39121 0.0
C1596 C 0.68833 0.4047 0.40934 0.0
C1597 C 0.71201 0.39399 0.40438 0.0
C1598 C 0.69854 0.41183 0.36451 0.0
C1599 C 0.69656 0.37825 0.34442 0.0
C1600 C 0.69547 0.3926 0.31811 0.0
C1601 C 0.69637 0.44266 0.31221 0.0
C1602 C 0.69843 0.47753 0.33253 0.0
C1603 C 0.6996 0.46181 0.35895 0.0
H1604 H 0.44187 0.54506 0.06376 0.0
H1605 H 0.4471 0.4537 0.13319 0.0
H1606 H 0.44826 0.52821 0.16114 0.0
H1607 H 0.46365 0.63735 0.08242 0.0
H1608 H 0.45453 0.68712 0.06884 0.0
H1609 H 0.45329 0.62668 0.05473 0.0
H1610 H 0.4291 0.62792 0.06199 0.0
H1611 H 0.43024 0.68847 0.07607 0.0
H1612 H 0.42291 0.6397 0.0946 0.0
H1613 H 0.44923 0.61258 0.18106 0.0
H1614 H 0.45069 0.70079 0.19162 0.0
H1615 H 0.44553 0.73644 0.10864 0.0
C1616 C 0.44312 0.54067 0.08489 0.0
C1617 C 0.44431 0.49377 0.09644 0.0
C1618 C 0.44613 0.48944 0.12406 0.0
C1619 C 0.44677 0.53145 0.14003 0.0
C1620 C 0.44565 0.57723 0.12795 0.0
C1621 C 0.44391 0.58206 0.101 0.0
C1622 C 0.44355 0.63535 0.0927 0.0
C1623 C 0.4544 0.64731 0.07354 0.0
C1624 C 0.43068 0.64863 0.08063 0.0
C1625 C 0.44543 0.6599 0.1192 0.0
C1626 C 0.44652 0.62576 0.1393 0.0
C1627 C 0.44837 0.63964 0.1655 0.0
C1628 C 0.44918 0.68979 0.17128 0.0
C1629 C 0.44823 0.72529 0.15091 0.0
C1630 C 0.44631 0.71006 0.12458 0.0
H1631 H 0.31442 0.04711 0.17907 0.0
H1632 H 0.30768 0.95534 0.11035 0.0
H1633 H 0.30613 0.02967 0.08236 0.0
H1634 H 0.29256 0.14055 0.16192 0.0
H1635 H 0.30213 0.18986 0.17463 0.0
H1636 H 0.30336 0.12947 0.18881 0.0
H1637 H 0.32741 0.12912 0.17965 0.0
H1638 H 0.32627 0.18959 0.16549 0.0
H1639 H 0.33305 0.14019 0.14654 0.0
H1640 H 0.3051 0.11397 0.06228 0.0
H1641 H 0.30403 0.20221 0.05153 0.0
H1642 H 0.31079 0.2382 0.13396 0.0
C1643 C 0.31274 0.04258 0.15808 0.0
C1644 C 0.31125 0.99563 0.14675 0.0
C1645 C 0.30888 0.99113 0.11932 0.0
C1646 C 0.30801 0.03303 0.10332 0.0
C1647 C 0.30945 0.07887 0.11519 0.0
C1648 C 0.31172 0.08385 0.14196 0.0
C1649 C 0.31245 0.13718 0.15008 0.0
C1650 C 0.302 0.15 0.17003 0.0
C1651 C 0.32558 0.14974 0.16108 0.0
C1652 C 0.3102 0.16158 0.12368 0.0
C1653 C 0.30857 0.12734 0.10378 0.0
C1654 C 0.30637 0.14111 0.07768 0.0
C1655 C 0.30579 0.19126 0.07179 0.0
C1656 C 0.30732 0.22687 0.09196 0.0
C1657 C 0.30956 0.21173 0.11819 0.0
H1658 H 0.45057 0.24121 0.61954 0.0
H1659 H 0.46061 0.20688 0.70066 0.0
H1660 H 0.46313 0.11965 0.68861 0.0
H1661 H 0.43193 0.13742 0.60896 0.0
H1662 H 0.43659 0.12862 0.575 0.0
H1663 H 0.43697 0.18902 0.58931 0.0
H1664 H 0.46058 0.19745 0.57674 0.0
H1665 H 0.46026 0.13702 0.56229 0.0
H1666 H 0.47164 0.15144 0.58759 0.0
H1667 H 0.46306 0.03529 0.66839 0.0
H1668 H 0.46001 0.96024 0.64148 0.0
H1669 H 0.4497 0.05044 0.57413 0.0
C1670 C 0.45352 0.21546 0.63462 0.0
C1671 C 0.45544 0.23063 0.66095 0.0
C1672 C 0.4591 0.19585 0.68031 0.0
C1673 C 0.4606 0.14631 0.67366 0.0
C1674 C 0.45842 0.13229 0.64759 0.0
C1675 C 0.45499 0.16586 0.62836 0.0
C1676 C 0.45236 0.14091 0.60225 0.0
C1677 C 0.43865 0.1495 0.59338 0.0
C1678 C 0.46177 0.15771 0.58097 0.0
C1679 C 0.45457 0.08804 0.60996 0.0
C1680 C 0.45821 0.08375 0.63608 0.0
C1681 C 0.46033 0.03818 0.64783 0.0
C1682 C 0.45857 0.99584 0.63246 0.0
C1683 C 0.45462 0.99967 0.60581 0.0
C1684 C 0.45275 0.0464 0.59446 0.0
H1685 H 0.31184 0.54051 0.67691 0.0
H1686 H 0.31325 0.45283 0.60535 0.0
H1687 H 0.31347 0.52891 0.57848 0.0
H1688 H 0.29058 0.6298 0.65188 0.0
H1689 H 0.29773 0.68031 0.66934 0.0
H1690 H 0.29862 0.61926 0.68278 0.0
H1691 H 0.32299 0.62568 0.68453 0.0
H1692 H 0.32218 0.68682 0.67113 0.0
H1693 H 0.3316 0.64078 0.65487 0.0
H1694 H 0.31346 0.61448 0.55977 0.0
H1695 H 0.31182 0.70296 0.55009 0.0
H1696 H 0.30913 0.73416 0.63408 0.0
C1697 C 0.31236 0.53731 0.65558 0.0
C1698 C 0.31269 0.49098 0.64311 0.0
C1699 C 0.31308 0.48812 0.61519 0.0
C1700 C 0.31323 0.53104 0.59984 0.0
C1701 C 0.31283 0.57622 0.6128 0.0
C1702 C 0.3123 0.57959 0.64004 0.0
C1703 C 0.31122 0.63235 0.64911 0.0
C1704 C 0.2988 0.64091 0.66416 0.0
C1705 C 0.32268 0.64727 0.6659 0.0
C1706 C 0.31121 0.65834 0.62269 0.0
C1707 C 0.31229 0.62533 0.60203 0.0
C1708 C 0.31259 0.64062 0.57578 0.0
C1709 C 0.31168 0.69094 0.57051 0.0
C1710 C 0.31033 0.72529 0.59136 0.0
C1711 C 0.31011 0.70868 0.61777 0.0
H1712 H 0.0531 0.80057 0.41845 0.0
H1713 H 0.04925 0.70772 0.34919 0.0
H1714 H 0.04802 0.78132 0.32081 0.0
H1715 H 0.03204 0.89847 0.39628 0.0
H1716 H 0.04171 0.94633 0.41021 0.0
H1717 H 0.04148 0.88638 0.42521 0.0
H1718 H 0.06579 0.881 0.42073 0.0
H1719 H 0.06609 0.94083 0.40569 0.0
H1720 H 0.07295 0.88921 0.3887 0.0
H1721 H 0.04826 0.86506 0.29971 0.0
H1722 H 0.05009 0.9527 0.28757 0.0
H1723 H 0.05386 0.99066 0.37056 0.0
C1724 C 0.05184 0.79575 0.39736 0.0
C1725 C 0.05121 0.74843 0.38603 0.0
C1726 C 0.04972 0.74364 0.3583 0.0
C1727 C 0.04899 0.78522 0.34202 0.0
C1728 C 0.04977 0.83136 0.35376 0.0
C1729 C 0.05114 0.83687 0.3808 0.0
C1730 C 0.05227 0.89049 0.38832 0.0
C1731 C 0.04121 0.90634 0.40605 0.0
C1732 C 0.06503 0.90098 0.40164 0.0
C1733 C 0.05147 0.9142 0.36128 0.0
C1734 C 0.04996 0.87952 0.3416 0.0
C1735 C 0.04935 0.89259 0.31496 0.0
C1736 C 0.0504 0.94241 0.30825 0.0
C1737 C 0.05207 0.97847 0.3281 0.0
C1738 C 0.0525 0.964 0.35494 0.0
H1739 H 0.20067 0.48811 0.3744 0.0
H1740 H 0.20293 0.44892 0.45747 0.0
H1741 H 0.20411 0.36118 0.44517 0.0
H1742 H 0.18096 0.38945 0.35483 0.0
H1743 H 0.18848 0.38073 0.32321 0.0
H1744 H 0.1885 0.44039 0.33849 0.0
H1745 H 0.21289 0.44317 0.33562 0.0
H1746 H 0.21294 0.38353 0.32026 0.0
H1747 H 0.22201 0.39404 0.34987 0.0
H1748 H 0.20416 0.2777 0.4238 0.0
H1749 H 0.20321 0.20454 0.39504 0.0
H1750 H 0.2009 0.29848 0.3259 0.0
C1751 C 0.20154 0.46112 0.39001 0.0
C1752 C 0.20176 0.47528 0.41691 0.0
C1753 C 0.20279 0.43885 0.43674 0.0
C1754 C 0.20347 0.38898 0.42994 0.0
C1755 C 0.20311 0.37624 0.40323 0.0
C1756 C 0.20221 0.41128 0.38358 0.0
C1757 C 0.20163 0.3879 0.35641 0.0
C1758 C 0.18915 0.40036 0.34242 0.0
C1759 C 0.21305 0.40306 0.33955 0.0
C1760 C 0.20224 0.33415 0.36384 0.0
C1761 C 0.20313 0.32822 0.39094 0.0
C1762 C 0.20353 0.28191 0.40255 0.0
C1763 C 0.20297 0.24059 0.38605 0.0
C1764 C 0.20201 0.24583 0.35824 0.0
C1765 C 0.2017 0.29331 0.34707 0.0
H1766 H 0.05802 0.50325 0.875 0.0
H1767 H 0.04312 0.47111 0.79693 0.0
H1768 H 0.03896 0.38582 0.81061 0.0
H1769 H 0.07407 0.39079 0.88323 0.0
H1770 H 0.07082 0.38505 0.91809 0.0
H1771 H 0.0716 0.44486 0.9031 0.0
H1772 H 0.04916 0.46444 0.92041 0.0
H1773 H 0.04831 0.40458 0.93546 0.0
H1774 H 0.03631 0.42376 0.91244 0.0
H1775 H 0.03776 0.30343 0.83124 0.0
H1776 H 0.03989 0.22774 0.85747 0.0
H1777 H 0.05554 0.31173 0.92261 0.0
C1778 C 0.0537 0.47841 0.86095 0.0
C1779 C 0.05082 0.49384 0.83492 0.0
C1780 C 0.04537 0.46011 0.81696 0.0
C1781 C 0.04294 0.41163 0.82457 0.0
C1782 C 0.046 0.3974 0.85024 0.0
C1783 C 0.05126 0.42966 0.8682 0.0
C1784 C 0.05433 0.40394 0.89405 0.0
C1785 C 0.06855 0.4063 0.89995 0.0
C1786 C 0.04656 0.42547 0.91695 0.0
C1787 C 0.05017 0.35204 0.88759 0.0
C1788 C 0.04531 0.34934 0.86226 0.0
C1789 C 0.04142 0.30512 0.8512 0.0
C1790 C 0.04269 0.26231 0.86625 0.0
C1791 C 0.0478 0.26392 0.89212 0.0
C1792 C 0.05141 0.30954 0.90305 0.0
H1793 H 0.19556 0.94769 0.93305 0.0
H1794 H 0.2163 0.03283 0.87496 0.0
H1795 H 0.21958 0.95836 0.84829 0.0
H1796 H 0.2148 0.83491 0.92713 0.0
H1797 H 0.20138 0.79493 0.9308 0.0
H1798 H 0.20145 0.85423 0.94658 0.0
H1799 H 0.18047 0.87602 0.92311 0.0
H1800 H 0.18038 0.81697 0.90716 0.0
H1801 H 0.17953 0.87211 0.88756 0.0
H1802 H 0.21904 0.87738 0.82586 0.0
H1803 H 0.21563 0.79286 0.80999 0.0
H1804 H 0.1958 0.7579 0.88269 0.0
C1805 C 0.20099 0.95039 0.91498 0.0
C1806 C 0.20571 0.99611 0.90614 0.0
C1807 C 0.21262 0.99827 0.88218 0.0
C1808 C 0.21455 0.95613 0.86687 0.0
C1809 C 0.20958 0.91188 0.87581 0.0
C1810 C 0.20304 0.90846 0.89939 0.0
C1811 C 0.19829 0.85652 0.90379 0.0
C1812 C 0.20434 0.83381 0.92854 0.0
C1813 C 0.18381 0.85537 0.9055 0.0
C1814 C 0.20297 0.83171 0.87875 0.0
C1815 C 0.20947 0.86445 0.86295 0.0
C1816 C 0.21413 0.85118 0.83821 0.0
C1817 C 0.2121 0.80314 0.82932 0.0
C1818 C 0.20554 0.76877 0.84517 0.0
C1819 C 0.20101 0.78323 0.87032 0.0
H1820 H 0.95122 0.2059 0.57567 0.0
H1821 H 0.97142 0.28666 0.63627 0.0
H1822 H 0.97486 0.20973 0.66099 0.0
H1823 H 0.93487 0.12936 0.61876 0.0
H1824 H 0.93548 0.07536 0.59821 0.0
H1825 H 0.93608 0.13526 0.58333 0.0
H1826 H 0.95706 0.11276 0.5601 0.0
H1827 H 0.9565 0.05257 0.57483 0.0
H1828 H 0.97016 0.09092 0.57955 0.0
H1829 H 0.97405 0.12661 0.68156 0.0
H1830 H 0.96932 0.04237 0.69639 0.0
H1831 H 0.9497 0.01423 0.62263 0.0
C1832 C 0.95668 0.20712 0.59376 0.0
C1833 C 0.96118 0.25221 0.60392 0.0
C1834 C 0.96797 0.25252 0.62802 0.0
C1835 C 0.96998 0.20898 0.64219 0.0
C1836 C 0.96516 0.16533 0.632 0.0
C1837 C 0.95871 0.16393 0.60826 0.0
C1838 C 0.95364 0.11282 0.60281 0.0
C1839 C 0.93916 0.11325 0.60066 0.0
C1840 C 0.9597 0.09098 0.57784 0.0
C1841 C 0.95798 0.08605 0.62749 0.0
C1842 C 0.9647 0.11701 0.64394 0.0
C1843 C 0.96898 0.1018 0.66867 0.0
C1844 C 0.96622 0.05391 0.67695 0.0
C1845 C 0.95925 0.02161 0.66058 0.0
C1846 C 0.95525 0.03779 0.63535 0.0
H1847 H 0.80764 0.54093 0.57741 0.0
H1848 H 0.7997 0.44894 0.64546 0.0
H1849 H 0.79975 0.52216 0.67425 0.0
H1850 H 0.82865 0.62337 0.6099 0.0
H1851 H 0.82318 0.67699 0.59248 0.0
H1852 H 0.82218 0.61756 0.57707 0.0
H1853 H 0.79818 0.62958 0.56992 0.0
H1854 H 0.79912 0.68919 0.58517 0.0
H1855 H 0.78826 0.64404 0.59781 0.0
H1856 H 0.80143 0.6052 0.69591 0.0
H1857 H 0.80368 0.6925 0.70844 0.0
H1858 H 0.81019 0.73022 0.62616 0.0
C1859 C 0.80582 0.53624 0.59834 0.0
C1860 C 0.80366 0.48924 0.60921 0.0
C1861 C 0.80135 0.48461 0.6367 0.0
C1862 C 0.80138 0.52597 0.65322 0.0
C1863 C 0.80368 0.57173 0.64193 0.0
C1864 C 0.80577 0.57716 0.6151 0.0
C1865 C 0.80806 0.63039 0.60798 0.0
C1866 C 0.82131 0.63747 0.59616 0.0
C1867 C 0.79779 0.64941 0.58911 0.0
C1868 C 0.80701 0.654 0.63501 0.0
C1869 C 0.80451 0.61954 0.65435 0.0
C1870 C 0.80333 0.63255 0.68091 0.0
C1871 C 0.80465 0.68216 0.68785 0.0
C1872 C 0.80709 0.7181 0.66829 0.0
C1873 C 0.8083 0.70361 0.64156 0.0
H1874 H 0.95096 0.54773 0.17114 0.0
H1875 H 0.95573 0.45359 0.10263 0.0
H1876 H 0.95749 0.52669 0.074 0.0
H1877 H 0.93182 0.63682 0.1398 0.0
H1878 H 0.9386 0.68843 0.15696 0.0
H1879 H 0.93852 0.62883 0.17229 0.0
H1880 H 0.96276 0.63326 0.17819 0.0
H1881 H 0.96292 0.69295 0.16288 0.0
H1882 H 0.97263 0.64444 0.14978 0.0
H1883 H 0.95754 0.60998 0.05245 0.0
H1884 H 0.956 0.69736 0.03971 0.0
H1885 H 0.9514 0.73728 0.12224 0.0
C1886 C 0.95253 0.54251 0.15016 0.0
C1887 C 0.95325 0.49494 0.13912 0.0
C1888 C 0.95518 0.48967 0.11154 0.0
C1889 C 0.95621 0.53097 0.09511 0.0
C1890 C 0.95532 0.57735 0.10656 0.0
C1891 C 0.95357 0.58337 0.13347 0.0
C1892 C 0.9525 0.6372 0.14065 0.0
C1893 C 0.93959 0.64846 0.15315 0.0
C1894 C 0.96335 0.65287 0.15896 0.0
C1895 C 0.95374 0.66046 0.11355 0.0
C1896 C 0.95542 0.62533 0.09416 0.0
C1897 C 0.95634 0.63785 0.06749 0.0
C1898 C 0.95545 0.68755 0.06044 0.0
C1899 C 0.95365 0.72412 0.07997 0.0
C1900 C 0.9529 0.71022 0.10687 0.0
H1901 H 0.80204 0.23883 0.11769 0.0
H1902 H 0.79537 0.20255 0.20007 0.0
H1903 H 0.7929 0.11514 0.18788 0.0
H1904 H 0.78015 0.15002 0.08907 0.0
H1905 H 0.79041 0.13641 0.0616 0.0
H1906 H 0.79075 0.19632 0.07665 0.0
H1907 H 0.81477 0.18743 0.08476 0.0
H1908 H 0.8145 0.12756 0.06977 0.0
H1909 H 0.82058 0.13507 0.10282 0.0
H1910 H 0.79239 0.03108 0.16687 0.0
H1911 H 0.79409 0.95702 0.13886 0.0
H1912 H 0.80112 0.0488 0.07031 0.0
C1913 C 0.79989 0.21262 0.13314 0.0
C1914 C 0.79883 0.22745 0.15982 0.0
C1915 C 0.79617 0.19196 0.17949 0.0
C1916 C 0.79473 0.14229 0.17274 0.0
C1917 C 0.79597 0.12882 0.14625 0.0
C1918 C 0.79847 0.16301 0.12676 0.0
C1919 C 0.79996 0.13885 0.09997 0.0
C1920 C 0.7897 0.15645 0.08069 0.0
C1921 C 0.81324 0.14776 0.08868 0.0
C1922 C 0.79806 0.0856 0.10744 0.0
C1923 C 0.7957 0.08056 0.13419 0.0
C1924 C 0.79412 0.03464 0.14586 0.0
C1925 C 0.79511 0.9928 0.1298 0.0
C1926 C 0.79767 0.99718 0.1024 0.0
C1927 C 0.79902 0.04429 0.09113 0.0
H1928 H 0.5547 0.82623 0.92521 0.0
H1929 H 0.53895 0.74119 0.86059 0.0
H1930 H 0.53583 0.81689 0.83484 0.0
H1931 H 0.53448 0.93611 0.91656 0.0
H1932 H 0.54714 0.97803 0.92403 0.0
H1933 H 0.54692 0.91783 0.93879 0.0
H1934 H 0.56926 0.90082 0.9202 0.0
H1935 H 0.56954 0.96084 0.90538 0.0
H1936 H 0.57208 0.90722 0.8852 0.0
H1937 H 0.53604 0.89953 0.81449 0.0
H1938 H 0.53977 0.98497 0.80051 0.0
H1939 H 0.55543 0.01815 0.87779 0.0
C1940 C 0.55036 0.82381 0.90587 0.0
C1941 C 0.54699 0.7779 0.89495 0.0
C1942 C 0.54158 0.77598 0.86936 0.0
C1943 C 0.53972 0.8188 0.8546 0.0
C1944 C 0.54333 0.86338 0.86566 0.0
C1945 C 0.54852 0.86638 0.8907 0.0
C1946 C 0.55239 0.91869 0.89703 0.0
C1947 C 0.54477 0.93885 0.9205 0.0
C1948 C 0.56666 0.92207 0.90225 0.0
C1949 C 0.54881 0.94424 0.87143 0.0
C1950 C 0.54349 0.9116 0.85374 0.0
C1951 C 0.54004 0.92563 0.82826 0.0
C1952 C 0.54222 0.97422 0.82049 0.0
C1953 C 0.5478 0.00824 0.83811 0.0
C1954 C 0.55096 0.99313 0.86404 0.0
H1955 H 0.69823 0.48066 0.87664 0.0
H1956 H 0.70334 0.44297 0.95933 0.0
H1957 H 0.7065 0.35605 0.94683 0.0
H1958 H 0.68072 0.37446 0.85898 0.0
H1959 H 0.68769 0.36885 0.8266 0.0
H1960 H 0.68649 0.42817 0.84204 0.0
H1961 H 0.71057 0.44062 0.83661 0.0
H1962 H 0.71186 0.38123 0.8212 0.0
H1963 H 0.72128 0.39552 0.84986 0.0
H1964 H 0.70835 0.27273 0.92526 0.0
H1965 H 0.70823 0.19933 0.89655 0.0
H1966 H 0.70187 0.29187 0.828 0.0
C1967 C 0.7001 0.4542 0.89212 0.0
C1968 C 0.70058 0.46856 0.91897 0.0
C1969 C 0.70296 0.43277 0.93864 0.0
C1970 C 0.70479 0.38336 0.93172 0.0
C1971 C 0.70422 0.37042 0.90505 0.0
C1972 C 0.70192 0.40483 0.88557 0.0
C1973 C 0.70134 0.38124 0.85846 0.0
C1974 C 0.68828 0.38861 0.84579 0.0
C1975 C 0.71189 0.40082 0.84048 0.0
C1976 C 0.70354 0.32805 0.86572 0.0
C1977 C 0.70526 0.32258 0.89267 0.0
C1978 C 0.7071 0.27663 0.90412 0.0
C1979 C 0.70702 0.23516 0.88765 0.0
C1980 C 0.7051 0.23989 0.86004 0.0
C1981 C 0.70348 0.28709 0.849 0.0
H1982 H 0.55742 0.44573 0.31904 0.0
H1983 H 0.53227 0.52288 0.37251 0.0
H1984 H 0.52934 0.44719 0.39831 0.0
H1985 H 0.54051 0.32539 0.32168 0.0
H1986 H 0.555 0.29092 0.3207 0.0
H1987 H 0.55403 0.3497 0.30449 0.0
H1988 H 0.57334 0.37978 0.33133 0.0
H1989 H 0.57429 0.3214 0.34782 0.0
H1990 H 0.57292 0.37694 0.36695 0.0
H1991 H 0.53128 0.36768 0.42168 0.0
H1992 H 0.53651 0.28567 0.43917 0.0
H1993 H 0.55968 0.25725 0.37011 0.0
C1994 C 0.55102 0.44624 0.33573 0.0
C1995 C 0.54503 0.49017 0.3437 0.0
C1996 C 0.53692 0.48966 0.36597 0.0
C1997 C 0.5352 0.44682 0.38079 0.0
C1998 C 0.54154 0.40457 0.37297 0.0
C1999 C 0.54914 0.40355 0.35076 0.0
C2000 C 0.55538 0.35375 0.34765 0.0
C2001 C 0.55096 0.32844 0.32211 0.0
C2002 C 0.56984 0.35827 0.3485 0.0
C2003 C 0.55036 0.3276 0.37197 0.0
C2004 C 0.54239 0.35771 0.38624 0.0
C2005 C 0.5373 0.34336 0.41043 0.0
C2006 C 0.54039 0.29687 0.42028 0.0
C2007 C 0.54839 0.2651 0.40587 0.0
C2008 C 0.55336 0.28055 0.38129 0.0
H2009 H 0.69921 0.99049 0.37383 0.0
H2010 H 0.70969 0.95473 0.45452 0.0
H2011 H 0.71345 0.8686 0.44113 0.0
H2012 H 0.68234 0.88065 0.36111 0.0
H2013 H 0.68728 0.87623 0.32707 0.0
H2014 H 0.68622 0.93534 0.34277 0.0
H2015 H 0.70954 0.95283 0.33069 0.0
H2016 H 0.71069 0.89361 0.31504 0.0
H2017 H 0.72161 0.91024 0.34085 0.0
H2018 H 0.71541 0.78589 0.41906 0.0
H2019 H 0.71433 0.71216 0.39073 0.0
H2020 H 0.70225 0.80226 0.32466 0.0
C2021 C 0.70241 0.96466 0.38866 0.0
C2022 C 0.70423 0.97926 0.4152 0.0
C2023 C 0.70826 0.94427 0.43407 0.0
C2024 C 0.71046 0.89537 0.42663 0.0
C2025 C 0.70856 0.88217 0.40027 0.0
C2026 C 0.70457 0.91578 0.38161 0.0
C2027 C 0.70262 0.89183 0.35489 0.0
C2028 C 0.68879 0.89627 0.34595 0.0
C2029 C 0.71166 0.91342 0.33415 0.0
C2030 C 0.70601 0.8393 0.36145 0.0
C2031 C 0.70953 0.83455 0.38766 0.0
C2032 C 0.71274 0.78923 0.39848 0.0
C2033 C 0.71212 0.74759 0.38222 0.0
C2034 C 0.70825 0.75151 0.35547 0.0
C2035 C 0.70534 0.79814 0.34495 0.0
H2036 H 0.45242 0.23947 0.10821 0.0
H2037 H 0.45427 0.20122 0.02498 0.0
H2038 H 0.45677 0.1138 0.037 0.0
H2039 H 0.47511 0.14847 0.13186 0.0
H2040 H 0.46634 0.13633 0.1617 0.0
H2041 H 0.4656 0.19607 0.14652 0.0
H2042 H 0.44124 0.18967 0.14437 0.0
H2043 H 0.44191 0.12992 0.15946 0.0
H2044 H 0.4341 0.13781 0.12808 0.0
H2045 H 0.45787 0.03024 0.05809 0.0
H2046 H 0.45748 0.95666 0.08659 0.0
H2047 H 0.45481 0.04955 0.15609 0.0
C2048 C 0.45353 0.21279 0.0925 0.0
C2049 C 0.45322 0.22711 0.06564 0.0
C2050 C 0.45454 0.19105 0.04568 0.0
C2051 C 0.45597 0.14135 0.05232 0.0
C2052 C 0.45608 0.1284 0.079 0.0
C2053 C 0.45493 0.16309 0.09878 0.0
C2054 C 0.45476 0.13936 0.12589 0.0
C2055 C 0.46613 0.15605 0.14246 0.0
C2056 C 0.44226 0.14981 0.14029 0.0
C2057 C 0.45585 0.0858 0.11827 0.0
C2058 C 0.45667 0.08028 0.09114 0.0
C2059 C 0.45734 0.03415 0.07936 0.0
C2060 C 0.4571 0.99258 0.09571 0.0
C2061 C 0.45617 0.99739 0.12355 0.0
C2062 C 0.45564 0.04471 0.1349 0.0
H2063 H 0.30433 0.74131 0.1353 0.0
H2064 H 0.30371 0.7024 0.21852 0.0
H2065 H 0.30162 0.61483 0.20644 0.0
H2066 H 0.2819 0.64855 0.11277 0.0
H2067 H 0.29033 0.63737 0.0824 0.0
H2068 H 0.29095 0.69705 0.09767 0.0
H2069 H 0.31535 0.69269 0.09837 0.0
H2070 H 0.31481 0.63299 0.08319 0.0
H2071 H 0.323 0.64134 0.11412 0.0
H2072 H 0.30068 0.53131 0.18521 0.0
H2073 H 0.30093 0.45799 0.15651 0.0
H2074 H 0.30229 0.55154 0.0871 0.0
C2075 C 0.30358 0.71444 0.151 0.0
C2076 C 0.30411 0.72863 0.17787 0.0
C2077 C 0.30327 0.69233 0.19782 0.0
C2078 C 0.30208 0.64254 0.19114 0.0
C2079 C 0.30173 0.62974 0.16444 0.0
C2080 C 0.30243 0.66465 0.14468 0.0
C2081 C 0.30237 0.64113 0.11752 0.0
C2082 C 0.29069 0.65697 0.10166 0.0
C2083 C 0.31461 0.65273 0.10242 0.0
C2084 C 0.30167 0.58744 0.12506 0.0
C2085 C 0.30125 0.58167 0.15222 0.0
C2086 C 0.30092 0.53541 0.16392 0.0
C2087 C 0.30108 0.49399 0.14745 0.0
C2088 C 0.30159 0.49905 0.11958 0.0
C2089 C 0.30181 0.54649 0.10833 0.0
H2090 H 0.44895 0.55106 0.66899 0.0
H2091 H 0.44673 0.45782 0.59956 0.0
H2092 H 0.44725 0.53117 0.57087 0.0
H2093 H 0.42941 0.64853 0.6443 0.0
H2094 H 0.43868 0.69649 0.65927 0.0
H2095 H 0.4381 0.63661 0.67426 0.0
H2096 H 0.46249 0.63145 0.67247 0.0
H2097 H 0.46314 0.69125 0.65738 0.0
H2098 H 0.47046 0.63959 0.64128 0.0
H2099 H 0.44765 0.61487 0.54975 0.0
H2100 H 0.44802 0.70287 0.53783 0.0
H2101 H 0.45054 0.7412 0.62098 0.0
C2102 C 0.44854 0.5461 0.64775 0.0
C2103 C 0.44776 0.49876 0.63648 0.0
C2104 C 0.44732 0.49376 0.60861 0.0
C2105 C 0.44762 0.53519 0.59215 0.0
C2106 C 0.44844 0.58134 0.60388 0.0
C2107 C 0.44891 0.58704 0.63103 0.0
C2108 C 0.44981 0.64069 0.63861 0.0
C2109 C 0.43831 0.6565 0.65508 0.0
C2110 C 0.46221 0.65136 0.6533 0.0
C2111 C 0.4497 0.66429 0.61148 0.0
C2112 C 0.44889 0.62944 0.59171 0.0
C2113 C 0.44835 0.64249 0.56506 0.0
C2114 C 0.44858 0.69251 0.55848 0.0
C2115 C 0.44938 0.72879 0.57845 0.0
C2116 C 0.45004 0.71429 0.60526 0.0
H2117 H 0.29978 0.0477 0.58084 0.0
H2118 H 0.28928 0.95917 0.64867 0.0
H2119 H 0.28716 0.03433 0.67566 0.0
H2120 H 0.31882 0.13026 0.6154 0.0
H2121 H 0.31444 0.18346 0.59633 0.0
H2122 H 0.31371 0.12347 0.58158 0.0
H2123 H 0.29018 0.13719 0.56992 0.0
H2124 H 0.29085 0.19742 0.58456 0.0
H2125 H 0.27923 0.15381 0.59568 0.0
H2126 H 0.28812 0.11842 0.6963 0.0
H2127 H 0.29192 0.20484 0.70882 0.0
H2128 H 0.30173 0.2386 0.62752 0.0
C2129 C 0.29675 0.04419 0.60121 0.0
C2130 C 0.29459 0.99757 0.6126 0.0
C2131 C 0.2909 0.9945 0.63948 0.0
C2132 C 0.28966 0.03701 0.65496 0.0
C2133 C 0.29211 0.08235 0.64327 0.0
C2134 C 0.29551 0.08623 0.61695 0.0
C2135 C 0.29843 0.13896 0.60962 0.0
C2136 C 0.31216 0.14432 0.60019 0.0
C2137 C 0.28911 0.15796 0.58871 0.0
C2138 C 0.29639 0.16401 0.63604 0.0
C2139 C 0.29266 0.13079 0.65515 0.0
C2140 C 0.29087 0.14486 0.68141 0.0
C2141 C 0.29307 0.19401 0.68835 0.0
C2142 C 0.29702 0.22854 0.66913 0.0
C2143 C 0.29854 0.21326 0.64259 0.0
loop_
_geom_bond_atom_site_label_1
_geom_bond_atom_site_label_2
_geom_bond_distance
_geom_bond_site_symmetry_2
_ccdc_geom_bond_type
In0 O1 2.294 . S
In0 O2 2.326 . S
In0 O6 2.266 . S
In0 O7 2.326 . S
In0 O8 2.266 . S
In0 O9 2.326 . S
In0 O11 2.294 . S
In0 O12 2.326 . S
O1 In0 2.294 . S
O1 C10 1.240 . S
O2 In0 2.326 . S
O2 C10 1.252 . S
C3 O6 1.252 . S
C3 O7 1.260 . S
C4 O11 1.240 . S
C4 O12 1.252 . S
C5 O8 1.252 . S
C5 O9 1.260 . S
O6 In0 2.266 . S
O6 C3 1.252 . S
O7 In0 2.326 . S
O7 C3 1.260 . S
O8 In0 2.266 . S
O8 C5 1.252 . S
O9 In0 2.326 . S
O9 C5 1.260 . S
C10 O1 1.240 . S
C10 O2 1.252 . S
O11 In0 2.294 . S
O11 C4 1.240 . S
O12 In0 2.326 . S
O12 C4 1.252 . S
In13 O14 2.294 . S
In13 O15 2.326 . S
In13 O19 2.266 . S
In13 O20 2.326 . S
In13 O21 2.266 . S
In13 O22 2.326 . S
In13 O24 2.294 . S
In13 O25 2.326 . S
O14 In13 2.294 . S
O14 C23 1.240 . S
O15 In13 2.326 . S
O15 C23 1.252 . S
C16 O19 1.252 . S
C16 O20 1.260 . S
C17 O24 1.240 . S
C17 O25 1.252 . S
C18 O21 1.252 . S
C18 O22 1.260 . S
O19 In13 2.266 . S
O19 C16 1.252 . S
O20 In13 2.326 . S
O20 C16 1.260 . S
O21 In13 2.266 . S
O21 C18 1.252 . S
O22 In13 2.326 . S
O22 C18 1.260 . S
C23 O14 1.240 . S
C23 O15 1.252 . S
O24 In13 2.294 . S
O24 C17 1.240 . S
O25 In13 2.326 . S
O25 C17 1.252 . S
In26 O27 2.294 . S
In26 O28 2.326 . S
In26 O32 2.266 . S
In26 O33 2.326 . S
In26 O34 2.266 . S
In26 O35 2.326 . S
In26 O37 2.294 . S
In26 O38 2.326 . S
O27 In26 2.294 . S
O27 C36 1.240 . S
O28 In26 2.326 . S
O28 C36 1.252 . S
C29 O32 1.252 . S
C29 O33 1.260 . S
C30 O37 1.240 . S
C30 O38 1.252 . S
C31 O34 1.252 . S
C31 O35 1.260 . S
O32 In26 2.266 . S
O32 C29 1.252 . S
O33 In26 2.326 . S
O33 C29 1.260 . S
O34 In26 2.266 . S
O34 C31 1.252 . S
O35 In26 2.326 . S
O35 C31 1.260 . S
C36 O27 1.240 . S
C36 O28 1.252 . S
O37 In26 2.294 . S
O37 C30 1.240 . S
O38 In26 2.326 . S
O38 C30 1.252 . S
In39 O40 2.294 . S
In39 O41 2.326 . S
In39 O45 2.266 . S
In39 O46 2.326 . S
In39 O47 2.266 . S
In39 O48 2.326 . S
In39 O50 2.294 . S
In39 O51 2.326 . S
O40 In39 2.294 . S
O40 C49 1.240 . S
O41 In39 2.326 . S
O41 C49 1.252 . S
C42 O45 1.252 . S
C42 O46 1.260 . S
C43 O50 1.240 . S
C43 O51 1.252 . S
C44 O47 1.252 . S
C44 O48 1.260 . S
O45 In39 2.266 . S
O45 C42 1.252 . S
O46 In39 2.326 . S
O46 C42 1.260 . S
O47 In39 2.266 . S
O47 C44 1.252 . S
O48 In39 2.326 . S
O48 C44 1.260 . S
C49 O40 1.240 . S
C49 O41 1.252 . S
O50 In39 2.294 . S
O50 C43 1.240 . S
O51 In39 2.326 . S
O51 C43 1.252 . S
In52 O53 2.294 . S
In52 O54 2.326 . S
In52 O58 2.266 . S
In52 O59 2.326 . S
In52 O60 2.266 . S
In52 O61 2.326 . S
In52 O63 2.294 . S
In52 O64 2.326 . S
O53 In52 2.294 . S
O53 C62 1.240 . S
O54 In52 2.326 . S
O54 C62 1.252 . S
C55 O58 1.252 . S
C55 O59 1.260 . S
C56 O63 1.240 . S
C56 O64 1.252 . S
C57 O60 1.252 . S
C57 O61 1.260 . S
O58 In52 2.266 . S
O58 C55 1.252 . S
O59 In52 2.326 . S
O59 C55 1.260 . S
O60 In52 2.266 . S
O60 C57 1.252 . S
O61 In52 2.326 . S
O61 C57 1.260 . S
C62 O53 1.240 . S
C62 O54 1.252 . S
O63 In52 2.294 . S
O63 C56 1.240 . S
O64 In52 2.326 . S
O64 C56 1.252 . S
In65 O66 2.294 . S
In65 O67 2.326 . S
In65 O71 2.266 . S
In65 O72 2.326 . S
In65 O73 2.266 . S
In65 O74 2.326 . S
In65 O76 2.294 . S
In65 O77 2.326 . S
O66 In65 2.294 . S
O66 C75 1.240 . S
O67 In65 2.326 . S
O67 C75 1.252 . S
C68 O71 1.252 . S
C68 O72 1.260 . S
C69 O76 1.240 . S
C69 O77 1.252 . S
C70 O73 1.252 . S
C70 O74 1.260 . S
O71 In65 2.266 . S
O71 C68 1.252 . S
O72 In65 2.326 . S
O72 C68 1.260 . S
O73 In65 2.266 . S
O73 C70 1.252 . S
O74 In65 2.326 . S
O74 C70 1.260 . S
C75 O66 1.240 . S
C75 O67 1.252 . S
O76 In65 2.294 . S
O76 C69 1.240 . S
O77 In65 2.326 . S
O77 C69 1.252 . S
In78 O79 2.294 . S
In78 O80 2.326 . S
In78 O84 2.266 . S
In78 O85 2.326 . S
In78 O86 2.266 . S
In78 O87 2.326 . S
In78 O89 2.294 . S
In78 O90 2.326 . S
O79 In78 2.294 . S
O79 C88 1.240 . S
O80 In78 2.326 . S
O80 C88 1.252 . S
C81 O84 1.252 . S
C81 O85 1.260 . S
C82 O89 1.240 . S
C82 O90 1.252 . S
C83 O86 1.252 . S
C83 O87 1.260 . S
O84 In78 2.266 . S
O84 C81 1.252 . S
O85 In78 2.326 . S
O85 C81 1.260 . S
O86 In78 2.266 . S
O86 C83 1.252 . S
O87 In78 2.326 . S
O87 C83 1.260 . S
C88 O79 1.240 . S
C88 O80 1.252 . S
O89 In78 2.294 . S
O89 C82 1.240 . S
O90 In78 2.326 . S
O90 C82 1.252 . S
In91 O92 2.294 . S
In91 O93 2.326 . S
In91 O97 2.266 . S
In91 O98 2.326 . S
In91 O99 2.266 . S
In91 O100 2.326 . S
In91 O102 2.294 . S
In91 O103 2.326 . S
O92 In91 2.294 . S
O92 C101 1.240 . S
O93 In91 2.326 . S
O93 C101 1.252 . S
C94 O97 1.252 . S
C94 O98 1.260 . S
C95 O102 1.240 . S
C95 O103 1.252 . S
C96 O99 1.252 . S
C96 O100 1.260 . S
O97 In91 2.266 . S
O97 C94 1.252 . S
O98 In91 2.326 . S
O98 C94 1.260 . S
O99 In91 2.266 . S
O99 C96 1.252 . S
O100 In91 2.326 . S
O100 C96 1.260 . S
C101 O92 1.240 . S
C101 O93 1.252 . S
O102 In91 2.294 . S
O102 C95 1.240 . S
O103 In91 2.326 . S
O103 C95 1.252 . S
In104 O105 2.294 . S
In104 O106 2.326 . S
In104 O110 2.266 . S
In104 O111 2.326 . S
In104 O112 2.266 . S
In104 O113 2.326 . S
In104 O115 2.294 . S
In104 O116 2.326 . S
O105 In104 2.294 . S
O105 C114 1.240 . S
O106 In104 2.326 . S
O106 C114 1.252 . S
C107 O110 1.252 . S
C107 O111 1.260 . S
C108 O115 1.240 . S
C108 O116 1.252 . S
C109 O112 1.252 . S
C109 O113 1.260 . S
O110 In104 2.266 . S
O110 C107 1.252 . S
O111 In104 2.326 . S
O111 C107 1.260 . S
O112 In104 2.266 . S
O112 C109 1.252 . S
O113 In104 2.326 . S
O113 C109 1.260 . S
C114 O105 1.240 . S
C114 O106 1.252 . S
O115 In104 2.294 . S
O115 C108 1.240 . S
O116 In104 2.326 . S
O116 C108 1.252 . S
In117 O118 2.294 . S
In117 O119 2.326 . S
In117 O123 2.266 . S
In117 O124 2.326 . S
In117 O125 2.266 . S
In117 O126 2.326 . S
In117 O128 2.294 . S
In117 O129 2.326 . S
O118 In117 2.294 . S
O118 C127 1.240 . S
O119 In117 2.326 . S
O119 C127 1.252 . S
C120 O123 1.252 . S
C120 O124 1.260 . S
C121 O128 1.240 . S
C121 O129 1.252 . S
C122 O125 1.252 . S
C122 O126 1.260 . S
O123 In117 2.266 . S
O123 C120 1.252 . S
O124 In117 2.326 . S
O124 C120 1.260 . S
O125 In117 2.266 . S
O125 C122 1.252 . S
O126 In117 2.326 . S
O126 C122 1.260 . S
C127 O118 1.240 . S
C127 O119 1.252 . S
O128 In117 2.294 . S
O128 C121 1.240 . S
O129 In117 2.326 . S
O129 C121 1.252 . S
In130 O131 2.294 . S
In130 O132 2.326 . S
In130 O136 2.266 . S
In130 O137 2.326 . S
In130 O138 2.266 . S
In130 O139 2.326 . S
In130 O141 2.294 . S
In130 O142 2.326 . S
O131 In130 2.294 . S
O131 C140 1.240 . S
O132 In130 2.326 . S
O132 C140 1.252 . S
C133 O136 1.252 . S
C133 O137 1.260 . S
C134 O141 1.240 . S
C134 O142 1.252 . S
C135 O138 1.252 . S
C135 O139 1.260 . S
O136 In130 2.266 . S
O136 C133 1.252 . S
O137 In130 2.326 . S
O137 C133 1.260 . S
O138 In130 2.266 . S
O138 C135 1.252 . S
O139 In130 2.326 . S
O139 C135 1.260 . S
C140 O131 1.240 . S
C140 O132 1.252 . S
O141 In130 2.294 . S
O141 C134 1.240 . S
O142 In130 2.326 . S
O142 C134 1.252 . S
In143 O144 2.294 . S
In143 O145 2.326 . S
In143 O149 2.266 . S
In143 O150 2.326 . S
In143 O151 2.266 . S
In143 O152 2.326 . S
In143 O154 2.294 . S
In143 O155 2.326 . S
O144 In143 2.294 . S
O144 C153 1.240 . S
O145 In143 2.326 . S
O145 C153 1.252 . S
C146 O149 1.252 . S
C146 O150 1.260 . S
C147 O154 1.240 . S
C147 O155 1.252 . S
C148 O151 1.252 . S
C148 O152 1.260 . S
O149 In143 2.266 . S
O149 C146 1.252 . S
O150 In143 2.326 . S
O150 C146 1.260 . S
O151 In143 2.266 . S
O151 C148 1.252 . S
O152 In143 2.326 . S
O152 C148 1.260 . S
C153 O144 1.240 . S
C153 O145 1.252 . S
O154 In143 2.294 . S
O154 C147 1.240 . S
O155 In143 2.326 . S
O155 C147 1.252 . S
In156 O157 2.294 . S
In156 O158 2.326 . S
In156 O162 2.266 . S
In156 O163 2.326 . S
In156 O164 2.266 . S
In156 O165 2.326 . S
In156 O167 2.294 . S
In156 O168 2.326 . S
O157 In156 2.294 . S
O157 C166 1.240 . S
O158 In156 2.326 . S
O158 C166 1.252 . S
C159 O162 1.252 . S
C159 O163 1.260 . S
C160 O167 1.240 . S
C160 O168 1.252 . S
C161 O164 1.252 . S
C161 O165 1.260 . S
O162 In156 2.266 . S
O162 C159 1.252 . S
O163 In156 2.326 . S
O163 C159 1.260 . S
O164 In156 2.266 . S
O164 C161 1.252 . S
O165 In156 2.326 . S
O165 C161 1.260 . S
C166 O157 1.240 . S
C166 O158 1.252 . S
O167 In156 2.294 . S
O167 C160 1.240 . S
O168 In156 2.326 . S
O168 C160 1.252 . S
In169 O170 2.294 . S
In169 O171 2.326 . S
In169 O175 2.266 . S
In169 O176 2.326 . S
In169 O177 2.266 . S
In169 O178 2.326 . S
In169 O180 2.294 . S
In169 O181 2.326 . S
O170 In169 2.294 . S
O170 C179 1.240 . S
O171 In169 2.326 . S
O171 C179 1.252 . S
C172 O175 1.252 . S
C172 O176 1.260 . S
C173 O180 1.240 . S
C173 O181 1.252 . S
C174 O177 1.252 . S
C174 O178 1.260 . S
O175 In169 2.266 . S
O175 C172 1.252 . S
O176 In169 2.326 . S
O176 C172 1.260 . S
O177 In169 2.266 . S
O177 C174 1.252 . S
O178 In169 2.326 . S
O178 C174 1.260 . S
C179 O170 1.240 . S
C179 O171 1.252 . S
O180 In169 2.294 . S
O180 C173 1.240 . S
O181 In169 2.326 . S
O181 C173 1.252 . S
In182 O183 2.294 . S
In182 O184 2.326 . S
In182 O188 2.266 . S
In182 O189 2.326 . S
In182 O190 2.266 . S
In182 O191 2.326 . S
In182 O193 2.294 . S
In182 O194 2.326 . S
O183 In182 2.294 . S
O183 C192 1.240 . S
O184 In182 2.326 . S
O184 C192 1.252 . S
C185 O188 1.252 . S
C185 O189 1.260 . S
C186 O193 1.240 . S
C186 O194 1.252 . S
C187 O190 1.252 . S
C187 O191 1.260 . S
O188 In182 2.266 . S
O188 C185 1.252 . S
O189 In182 2.326 . S
O189 C185 1.260 . S
O190 In182 2.266 . S
O190 C187 1.252 . S
O191 In182 2.326 . S
O191 C187 1.260 . S
C192 O183 1.240 . S
C192 O184 1.252 . S
O193 In182 2.294 . S
O193 C186 1.240 . S
O194 In182 2.326 . S
O194 C186 1.252 . S
In195 O196 2.294 . S
In195 O197 2.326 . S
In195 O201 2.266 . S
In195 O202 2.326 . S
In195 O203 2.266 . S
In195 O204 2.326 . S
In195 O206 2.294 . S
In195 O207 2.326 . S
O196 In195 2.294 . S
O196 C205 1.240 . S
O197 In195 2.326 . S
O197 C205 1.252 . S
C198 O201 1.252 . S
C198 O202 1.260 . S
C199 O206 1.240 . S
C199 O207 1.252 . S
C200 O203 1.252 . S
C200 O204 1.260 . S
O201 In195 2.266 . S
O201 C198 1.252 . S
O202 In195 2.326 . S
O202 C198 1.260 . S
O203 In195 2.266 . S
O203 C200 1.252 . S
O204 In195 2.326 . S
O204 C200 1.260 . S
C205 O196 1.240 . S
C205 O197 1.252 . S
O206 In195 2.294 . S
O206 C199 1.240 . S
O207 In195 2.326 . S
O207 C199 1.252 . S
In208 O209 2.294 . S
In208 O210 2.326 . S
In208 O214 2.266 . S
In208 O215 2.326 . S
In208 O216 2.266 . S
In208 O217 2.326 . S
In208 O219 2.294 . S
In208 O220 2.326 . S
O209 In208 2.294 . S
O209 C218 1.240 . S
O210 In208 2.326 . S
O210 C218 1.252 . S
C211 O214 1.252 . S
C211 O215 1.260 . S
C212 O219 1.240 . S
C212 O220 1.252 . S
C213 O216 1.252 . S
C213 O217 1.260 . S
O214 In208 2.266 . S
O214 C211 1.252 . S
O215 In208 2.326 . S
O215 C211 1.260 . S
O216 In208 2.266 . S
O216 C213 1.252 . S
O217 In208 2.326 . S
O217 C213 1.260 . S
C218 O209 1.240 . S
C218 O210 1.252 . S
O219 In208 2.294 . S
O219 C212 1.240 . S
O220 In208 2.326 . S
O220 C212 1.252 . S
In221 O222 2.294 . S
In221 O223 2.326 . S
In221 O227 2.266 . S
In221 O228 2.326 . S
In221 O229 2.266 . S
In221 O230 2.326 . S
In221 O232 2.294 . S
In221 O233 2.326 . S
O222 In221 2.294 . S
O222 C231 1.240 . S
O223 In221 2.326 . S
O223 C231 1.252 . S
C224 O227 1.252 . S
C224 O228 1.260 . S
C225 O232 1.240 . S
C225 O233 1.252 . S
C226 O229 1.252 . S
C226 O230 1.260 . S
O227 In221 2.266 . S
O227 C224 1.252 . S
O228 In221 2.326 . S
O228 C224 1.260 . S
O229 In221 2.266 . S
O229 C226 1.252 . S
O230 In221 2.326 . S
O230 C226 1.260 . S
C231 O222 1.240 . S
C231 O223 1.252 . S
O232 In221 2.294 . S
O232 C225 1.240 . S
O233 In221 2.326 . S
O233 C225 1.252 . S
In234 O235 2.294 . S
In234 O236 2.326 . S
In234 O240 2.266 . S
In234 O241 2.326 . S
In234 O242 2.266 . S
In234 O243 2.326 . S
In234 O245 2.294 . S
In234 O246 2.326 . S
O235 In234 2.294 . S
O235 C244 1.240 . S
O236 In234 2.326 . S
O236 C244 1.252 . S
C237 O240 1.252 . S
C237 O241 1.260 . S
C238 O245 1.240 . S
C238 O246 1.252 . S
C239 O242 1.252 . S
C239 O243 1.260 . S
O240 In234 2.266 . S
O240 C237 1.252 . S
O241 In234 2.326 . S
O241 C237 1.260 . S
O242 In234 2.266 . S
O242 C239 1.252 . S
O243 In234 2.326 . S
O243 C239 1.260 . S
C244 O235 1.240 . S
C244 O236 1.252 . S
O245 In234 2.294 . S
O245 C238 1.240 . S
O246 In234 2.326 . S
O246 C238 1.252 . S
In247 O248 2.294 . S
In247 O249 2.326 . S
In247 O253 2.266 . S
In247 O254 2.326 . S
In247 O255 2.266 . S
In247 O256 2.326 . S
In247 O258 2.294 . S
In247 O259 2.326 . S
O248 In247 2.294 . S
O248 C257 1.240 . S
O249 In247 2.326 . S
O249 C257 1.252 . S
C250 O253 1.252 . S
C250 O254 1.260 . S
C251 O258 1.240 . S
C251 O259 1.252 . S
C252 O255 1.252 . S
C252 O256 1.260 . S
O253 In247 2.266 . S
O253 C250 1.252 . S
O254 In247 2.326 . S
O254 C250 1.260 . S
O255 In247 2.266 . S
O255 C252 1.252 . S
O256 In247 2.326 . S
O256 C252 1.260 . S
C257 O248 1.240 . S
C257 O249 1.252 . S
O258 In247 2.294 . S
O258 C251 1.240 . S
O259 In247 2.326 . S
O259 C251 1.252 . S
In260 O261 2.294 . S
In260 O262 2.326 . S
In260 O266 2.266 . S
In260 O267 2.326 . S
In260 O268 2.266 . S
In260 O269 2.326 . S
In260 O271 2.294 . S
In260 O272 2.326 . S
O261 In260 2.294 . S
O261 C270 1.240 . S
O262 In260 2.326 . S
O262 C270 1.252 . S
C263 O266 1.252 . S
C263 O267 1.260 . S
C264 O271 1.240 . S
C264 O272 1.252 . S
C265 O268 1.252 . S
C265 O269 1.260 . S
O266 In260 2.266 . S
O266 C263 1.252 . S
O267 In260 2.326 . S
O267 C263 1.260 . S
O268 In260 2.266 . S
O268 C265 1.252 . S
O269 In260 2.326 . S
O269 C265 1.260 . S
C270 O261 1.240 . S
C270 O262 1.252 . S
O271 In260 2.294 . S
O271 C264 1.240 . S
O272 In260 2.326 . S
O272 C264 1.252 . S
In273 O274 2.294 . S
In273 O275 2.326 . S
In273 O279 2.266 . S
In273 O280 2.326 . S
In273 O281 2.266 . S
In273 O282 2.326 . S
In273 O284 2.294 . S
In273 O285 2.326 . S
O274 In273 2.294 . S
O274 C283 1.240 . S
O275 In273 2.326 . S
O275 C283 1.252 . S
C276 O279 1.252 . S
C276 O280 1.260 . S
C277 O284 1.240 . S
C277 O285 1.252 . S
C278 O281 1.252 . S
C278 O282 1.260 . S
O279 In273 2.266 . S
O279 C276 1.252 . S
O280 In273 2.326 . S
O280 C276 1.260 . S
O281 In273 2.266 . S
O281 C278 1.252 . S
O282 In273 2.326 . S
O282 C278 1.260 . S
C283 O274 1.240 . S
C283 O275 1.252 . S
O284 In273 2.294 . S
O284 C277 1.240 . S
O285 In273 2.326 . S
O285 C277 1.252 . S
In286 O287 2.294 . S
In286 O288 2.326 . S
In286 O292 2.266 . S
In286 O293 2.326 . S
In286 O294 2.266 . S
In286 O295 2.326 . S
In286 O297 2.294 . S
In286 O298 2.326 . S
O287 In286 2.294 . S
O287 C296 1.240 . S
O288 In286 2.326 . S
O288 C296 1.252 . S
C289 O292 1.252 . S
C289 O293 1.260 . S
C290 O297 1.240 . S
C290 O298 1.252 . S
C291 O294 1.252 . S
C291 O295 1.260 . S
O292 In286 2.266 . S
O292 C289 1.252 . S
O293 In286 2.326 . S
O293 C289 1.260 . S
O294 In286 2.266 . S
O294 C291 1.252 . S
O295 In286 2.326 . S
O295 C291 1.260 . S
C296 O287 1.240 . S
C296 O288 1.252 . S
O297 In286 2.294 . S
O297 C290 1.240 . S
O298 In286 2.326 . S
O298 C290 1.252 . S
In299 O300 2.294 . S
In299 O301 2.326 . S
In299 O305 2.266 . S
In299 O306 2.326 . S
In299 O307 2.266 . S
In299 O308 2.326 . S
In299 O310 2.294 . S
In299 O311 2.326 . S
O300 In299 2.294 . S
O300 C309 1.240 . S
O301 In299 2.326 . S
O301 C309 1.252 . S
C302 O305 1.252 . S
C302 O306 1.260 . S
C303 O310 1.240 . S
C303 O311 1.252 . S
C304 O307 1.252 . S
C304 O308 1.260 . S
O305 In299 2.266 . S
O305 C302 1.252 . S
O306 In299 2.326 . S
O306 C302 1.260 . S
O307 In299 2.266 . S
O307 C304 1.252 . S
O308 In299 2.326 . S
O308 C304 1.260 . S
C309 O300 1.240 . S
C309 O301 1.252 . S
O310 In299 2.294 . S
O310 C303 1.240 . S
O311 In299 2.326 . S
O311 C303 1.252 . S
In312 O313 2.294 . S
In312 O314 2.326 . S
In312 O318 2.266 . S
In312 O319 2.326 . S
In312 O320 2.266 . S
In312 O321 2.326 . S
In312 O323 2.294 . S
In312 O324 2.326 . S
O313 In312 2.294 . S
O313 C322 1.240 . S
O314 In312 2.326 . S
O314 C322 1.252 . S
C315 O318 1.252 . S
C315 O319 1.260 . S
C316 O323 1.240 . S
C316 O324 1.252 . S
C317 O320 1.252 . S
C317 O321 1.260 . S
O318 In312 2.266 . S
O318 C315 1.252 . S
O319 In312 2.326 . S
O319 C315 1.260 . S
O320 In312 2.266 . S
O320 C317 1.252 . S
O321 In312 2.326 . S
O321 C317 1.260 . S
C322 O313 1.240 . S
C322 O314 1.252 . S
O323 In312 2.294 . S
O323 C316 1.240 . S
O324 In312 2.326 . S
O324 C316 1.252 . S
In325 O326 2.294 . S
In325 O327 2.326 . S
In325 O331 2.266 . S
In325 O332 2.326 . S
In325 O333 2.266 . S
In325 O334 2.326 . S
In325 O336 2.294 . S
In325 O337 2.326 . S
O326 In325 2.294 . S
O326 C335 1.240 . S
O327 In325 2.326 . S
O327 C335 1.252 . S
C328 O331 1.252 . S
C328 O332 1.260 . S
C329 O336 1.240 . S
C329 O337 1.252 . S
C330 O333 1.252 . S
C330 O334 1.260 . S
O331 In325 2.266 . S
O331 C328 1.252 . S
O332 In325 2.326 . S
O332 C328 1.260 . S
O333 In325 2.266 . S
O333 C330 1.252 . S
O334 In325 2.326 . S
O334 C330 1.260 . S
C335 O326 1.240 . S
C335 O327 1.252 . S
O336 In325 2.294 . S
O336 C329 1.240 . S
O337 In325 2.326 . S
O337 C329 1.252 . S
In338 O339 2.294 . S
In338 O340 2.326 . S
In338 O344 2.266 . S
In338 O345 2.326 . S
In338 O346 2.266 . S
In338 O347 2.326 . S
In338 O349 2.294 . S
In338 O350 2.326 . S
O339 In338 2.294 . S
O339 C348 1.240 . S
O340 In338 2.326 . S
O340 C348 1.252 . S
C341 O344 1.252 . S
C341 O345 1.260 . S
C342 O349 1.240 . S
C342 O350 1.252 . S
C343 O346 1.252 . S
C343 O347 1.260 . S
O344 In338 2.266 . S
O344 C341 1.252 . S
O345 In338 2.326 . S
O345 C341 1.260 . S
O346 In338 2.266 . S
O346 C343 1.252 . S
O347 In338 2.326 . S
O347 C343 1.260 . S
C348 O339 1.240 . S
C348 O340 1.252 . S
O349 In338 2.294 . S
O349 C342 1.240 . S
O350 In338 2.326 . S
O350 C342 1.252 . S
In351 O352 2.294 . S
In351 O353 2.326 . S
In351 O357 2.266 . S
In351 O358 2.326 . S
In351 O359 2.266 . S
In351 O360 2.326 . S
In351 O362 2.294 . S
In351 O363 2.326 . S
O352 In351 2.294 . S
O352 C361 1.240 . S
O353 In351 2.326 . S
O353 C361 1.252 . S
C354 O357 1.252 . S
C354 O358 1.260 . S
C355 O362 1.240 . S
C355 O363 1.252 . S
C356 O359 1.252 . S
C356 O360 1.260 . S
O357 In351 2.266 . S
O357 C354 1.252 . S
O358 In351 2.326 . S
O358 C354 1.260 . S
O359 In351 2.266 . S
O359 C356 1.252 . S
O360 In351 2.326 . S
O360 C356 1.260 . S
C361 O352 1.240 . S
C361 O353 1.252 . S
O362 In351 2.294 . S
O362 C355 1.240 . S
O363 In351 2.326 . S
O363 C355 1.252 . S
In364 O365 2.294 . S
In364 O366 2.326 . S
In364 O370 2.266 . S
In364 O371 2.326 . S
In364 O372 2.266 . S
In364 O373 2.326 . S
In364 O375 2.294 . S
In364 O376 2.326 . S
O365 In364 2.294 . S
O365 C374 1.240 . S
O366 In364 2.326 . S
O366 C374 1.252 . S
C367 O370 1.252 . S
C367 O371 1.260 . S
C368 O375 1.240 . S
C368 O376 1.252 . S
C369 O372 1.252 . S
C369 O373 1.260 . S
O370 In364 2.266 . S
O370 C367 1.252 . S
O371 In364 2.326 . S
O371 C367 1.260 . S
O372 In364 2.266 . S
O372 C369 1.252 . S
O373 In364 2.326 . S
O373 C369 1.260 . S
C374 O365 1.240 . S
C374 O366 1.252 . S
O375 In364 2.294 . S
O375 C368 1.240 . S
O376 In364 2.326 . S
O376 C368 1.252 . S
In377 O378 2.294 . S
In377 O379 2.326 . S
In377 O383 2.266 . S
In377 O384 2.326 . S
In377 O385 2.266 . S
In377 O386 2.326 . S
In377 O388 2.294 . S
In377 O389 2.326 . S
O378 In377 2.294 . S
O378 C387 1.240 . S
O379 In377 2.326 . S
O379 C387 1.252 . S
C380 O383 1.252 . S
C380 O384 1.260 . S
C381 O388 1.240 . S
C381 O389 1.252 . S
C382 O385 1.252 . S
C382 O386 1.260 . S
O383 In377 2.266 . S
O383 C380 1.252 . S
O384 In377 2.326 . S
O384 C380 1.260 . S
O385 In377 2.266 . S
O385 C382 1.252 . S
O386 In377 2.326 . S
O386 C382 1.260 . S
C387 O378 1.240 . S
C387 O379 1.252 . S
O388 In377 2.294 . S
O388 C381 1.240 . S
O389 In377 2.326 . S
O389 C381 1.252 . S
In390 O391 2.294 . S
In390 O392 2.326 . S
In390 O396 2.266 . S
In390 O397 2.326 . S
In390 O398 2.266 . S
In390 O399 2.326 . S
In390 O401 2.294 . S
In390 O402 2.326 . S
O391 In390 2.294 . S
O391 C400 1.240 . S
O392 In390 2.326 . S
O392 C400 1.252 . S
C393 O396 1.252 . S
C393 O397 1.260 . S
C394 O401 1.240 . S
C394 O402 1.252 . S
C395 O398 1.252 . S
C395 O399 1.260 . S
O396 In390 2.266 . S
O396 C393 1.252 . S
O397 In390 2.326 . S
O397 C393 1.260 . S
O398 In390 2.266 . S
O398 C395 1.252 . S
O399 In390 2.326 . S
O399 C395 1.260 . S
C400 O391 1.240 . S
C400 O392 1.252 . S
O401 In390 2.294 . S
O401 C394 1.240 . S
O402 In390 2.326 . S
O402 C394 1.252 . S
In403 O404 2.294 . S
In403 O405 2.326 . S
In403 O409 2.266 . S
In403 O410 2.326 . S
In403 O411 2.266 . S
In403 O412 2.326 . S
In403 O414 2.294 . S
In403 O415 2.326 . S
O404 In403 2.294 . S
O404 C413 1.240 . S
O405 In403 2.326 . S
O405 C413 1.252 . S
C406 O409 1.252 . S
C406 O410 1.260 . S
C407 O414 1.240 . S
C407 O415 1.252 . S
C408 O411 1.252 . S
C408 O412 1.260 . S
O409 In403 2.266 . S
O409 C406 1.252 . S
O410 In403 2.326 . S
O410 C406 1.260 . S
O411 In403 2.266 . S
O411 C408 1.252 . S
O412 In403 2.326 . S
O412 C408 1.260 . S
C413 O404 1.240 . S
C413 O405 1.252 . S
O414 In403 2.294 . S
O414 C407 1.240 . S
O415 In403 2.326 . S
O415 C407 1.252 . S
H416 C428 0.930 . S
H417 C430 0.930 . S
H418 C431 0.930 . S
H419 C435 0.959 . S
H420 C435 0.959 . S
H421 C435 0.961 . S
H422 C436 0.960 . S
H423 C436 0.961 . S
H424 C436 0.959 . S
H425 C439 0.929 . S
H426 C440 0.931 . S
H427 C442 0.930 . S
C428 H416 0.930 . S
C428 C429 1.399 . S
C428 C433 1.399 . S
C429 C428 1.399 . S
C429 C430 1.376 . S
C430 H417 0.930 . S
C430 C429 1.376 . S
C430 C431 1.388 . S
C431 H418 0.930 . S
C431 C430 1.388 . S
C431 C432 1.390 . S
C432 C431 1.390 . S
C432 C433 1.394 . S
C432 C438 1.465 . S
C433 C428 1.399 . S
C433 C432 1.394 . S
C433 C434 1.516 . S
C434 C433 1.516 . S
C434 C435 1.502 . S
C434 C436 1.561 . S
C434 C437 1.526 . S
C435 H419 0.959 . S
C435 H420 0.959 . S
C435 H421 0.961 . S
C435 C434 1.502 . S
C436 H422 0.960 . S
C436 H423 0.961 . S
C436 H424 0.959 . S
C436 C434 1.561 . S
C437 C434 1.526 . S
C437 C438 1.396 . S
C437 C442 1.390 . S
C438 C432 1.465 . S
C438 C437 1.396 . S
C438 C439 1.399 . S
C439 H425 0.929 . S
C439 C438 1.399 . S
C439 C440 1.385 . S
C440 H426 0.931 . S
C440 C439 1.385 . S
C440 C441 1.389 . S
C441 C440 1.389 . S
C441 C442 1.387 . S
C442 H427 0.930 . S
C442 C437 1.390 . S
C442 C441 1.387 . S
H443 C455 0.930 . S
H444 C457 0.930 . S
H445 C458 0.930 . S
H446 C462 0.959 . S
H447 C462 0.959 . S
H448 C462 0.961 . S
H449 C463 0.960 . S
H450 C463 0.961 . S
H451 C463 0.959 . S
H452 C466 0.929 . S
H453 C467 0.931 . S
H454 C469 0.930 . S
C455 H443 0.930 . S
C455 C456 1.399 . S
C455 C460 1.399 . S
C456 C455 1.399 . S
C456 C457 1.376 . S
C457 H444 0.930 . S
C457 C456 1.376 . S
C457 C458 1.388 . S
C458 H445 0.930 . S
C458 C457 1.388 . S
C458 C459 1.390 . S
C459 C458 1.390 . S
C459 C460 1.394 . S
C459 C465 1.465 . S
C460 C455 1.399 . S
C460 C459 1.394 . S
C460 C461 1.516 . S
C461 C460 1.516 . S
C461 C462 1.502 . S
C461 C463 1.561 . S
C461 C464 1.526 . S
C462 H446 0.959 . S
C462 H447 0.959 . S
C462 H448 0.961 . S
C462 C461 1.502 . S
C463 H449 0.960 . S
C463 H450 0.961 . S
C463 H451 0.959 . S
C463 C461 1.561 . S
C464 C461 1.526 . S
C464 C465 1.396 . S
C464 C469 1.390 . S
C465 C459 1.465 . S
C465 C464 1.396 . S
C465 C466 1.399 . S
C466 H452 0.929 . S
C466 C465 1.399 . S
C466 C467 1.385 . S
C467 H453 0.931 . S
C467 C466 1.385 . S
C467 C468 1.389 . S
C468 C467 1.389 . S
C468 C469 1.387 . S
C469 H454 0.930 . S
C469 C464 1.390 . S
C469 C468 1.387 . S
H470 C482 0.930 . S
H471 C484 0.930 . S
H472 C485 0.930 . S
H473 C489 0.959 . S
H474 C489 0.959 . S
H475 C489 0.961 . S
H476 C490 0.960 . S
H477 C490 0.961 . S
H478 C490 0.959 . S
H479 C493 0.929 . S
H480 C494 0.931 . S
H481 C496 0.930 . S
C482 H470 0.930 . S
C482 C483 1.399 . S
C482 C487 1.399 . S
C483 C482 1.399 . S
C483 C484 1.376 . S
C484 H471 0.930 . S
C484 C483 1.376 . S
C484 C485 1.388 . S
C485 H472 0.930 . S
C485 C484 1.388 . S
C485 C486 1.390 . S
C486 C485 1.390 . S
C486 C487 1.394 . S
C486 C492 1.465 . S
C487 C482 1.399 . S
C487 C486 1.394 . S
C487 C488 1.516 . S
C488 C487 1.516 . S
C488 C489 1.502 . S
C488 C490 1.561 . S
C488 C491 1.526 . S
C489 H473 0.959 . S
C489 H474 0.959 . S
C489 H475 0.961 . S
C489 C488 1.502 . S
C490 H476 0.960 . S
C490 H477 0.961 . S
C490 H478 0.959 . S
C490 C488 1.561 . S
C491 C488 1.526 . S
C491 C492 1.396 . S
C491 C496 1.390 . S
C492 C486 1.465 . S
C492 C491 1.396 . S
C492 C493 1.399 . S
C493 H479 0.929 . S
C493 C492 1.399 . S
C493 C494 1.385 . S
C494 H480 0.931 . S
C494 C493 1.385 . S
C494 C495 1.389 . S
C495 C494 1.389 . S
C495 C496 1.387 . S
C496 H481 0.930 . S
C496 C491 1.390 . S
C496 C495 1.387 . S
H497 C509 0.930 . S
H498 C511 0.930 . S
H499 C512 0.930 . S
H500 C516 0.959 . S
H501 C516 0.959 . S
H502 C516 0.961 . S
H503 C517 0.960 . S
H504 C517 0.961 . S
H505 C517 0.959 . S
H506 C520 0.929 . S
H507 C521 0.931 . S
H508 C523 0.930 . S
C509 H497 0.930 . S
C509 C510 1.399 . S
C509 C514 1.399 . S
C510 C509 1.399 . S
C510 C511 1.376 . S
C511 H498 0.930 . S
C511 C510 1.376 . S
C511 C512 1.388 . S
C512 H499 0.930 . S
C512 C511 1.388 . S
C512 C513 1.390 . S
C513 C512 1.390 . S
C513 C514 1.394 . S
C513 C519 1.465 . S
C514 C509 1.399 . S
C514 C513 1.394 . S
C514 C515 1.516 . S
C515 C514 1.516 . S
C515 C516 1.502 . S
C515 C517 1.561 . S
C515 C518 1.526 . S
C516 H500 0.959 . S
C516 H501 0.959 . S
C516 H502 0.961 . S
C516 C515 1.502 . S
C517 H503 0.960 . S
C517 H504 0.961 . S
C517 H505 0.959 . S
C517 C515 1.561 . S
C518 C515 1.526 . S
C518 C519 1.396 . S
C518 C523 1.390 . S
C519 C513 1.465 . S
C519 C518 1.396 . S
C519 C520 1.399 . S
C520 H506 0.929 . S
C520 C519 1.399 . S
C520 C521 1.385 . S
C521 H507 0.931 . S
C521 C520 1.385 . S
C521 C522 1.389 . S
C522 C521 1.389 . S
C522 C523 1.387 . S
C523 H508 0.930 . S
C523 C518 1.390 . S
C523 C522 1.387 . S
H524 C536 0.930 . S
H525 C538 0.930 . S
H526 C539 0.930 . S
H527 C543 0.959 . S
H528 C543 0.959 . S
H529 C543 0.961 . S
H530 C544 0.960 . S
H531 C544 0.961 . S
H532 C544 0.959 . S
H533 C547 0.929 . S
H534 C548 0.931 . S
H535 C550 0.930 . S
C536 H524 0.930 . S
C536 C537 1.399 . S
C536 C541 1.399 . S
C537 C536 1.399 . S
C537 C538 1.376 . S
C538 H525 0.930 . S
C538 C537 1.376 . S
C538 C539 1.388 . S
C539 H526 0.930 . S
C539 C538 1.388 . S
C539 C540 1.390 . S
C540 C539 1.390 . S
C540 C541 1.394 . S
C540 C546 1.465 . S
C541 C536 1.399 . S
C541 C540 1.394 . S
C541 C542 1.516 . S
C542 C541 1.516 . S
C542 C543 1.502 . S
C542 C544 1.561 . S
C542 C545 1.526 . S
C543 H527 0.959 . S
C543 H528 0.959 . S
C543 H529 0.961 . S
C543 C542 1.502 . S
C544 H530 0.960 . S
C544 H531 0.961 . S
C544 H532 0.959 . S
C544 C542 1.561 . S
C545 C542 1.526 . S
C545 C546 1.396 . S
C545 C550 1.390 . S
C546 C540 1.465 . S
C546 C545 1.396 . S
C546 C547 1.399 . S
C547 H533 0.929 . S
C547 C546 1.399 . S
C547 C548 1.385 . S
C548 H534 0.931 . S
C548 C547 1.385 . S
C548 C549 1.389 . S
C549 C548 1.389 . S
C549 C550 1.387 . S
C550 H535 0.930 . S
C550 C545 1.390 . S
C550 C549 1.387 . S
H551 C563 0.930 . S
H552 C565 0.930 . S
H553 C566 0.930 . S
H554 C570 0.959 . S
H555 C570 0.959 . S
H556 C570 0.961 . S
H557 C571 0.960 . S
H558 C571 0.961 . S
H559 C571 0.959 . S
H560 C574 0.929 . S
H561 C575 0.931 . S
H562 C577 0.930 . S
C563 H551 0.930 . S
C563 C564 1.399 . S
C563 C568 1.399 . S
C564 C563 1.399 . S
C564 C565 1.376 . S
C565 H552 0.930 . S
C565 C564 1.376 . S
C565 C566 1.388 . S
C566 H553 0.930 . S
C566 C565 1.388 . S
C566 C567 1.390 . S
C567 C566 1.390 . S
C567 C568 1.394 . S
C567 C573 1.465 . S
C568 C563 1.399 . S
C568 C567 1.394 . S
C568 C569 1.516 . S
C569 C568 1.516 . S
C569 C570 1.502 . S
C569 C571 1.561 . S
C569 C572 1.526 . S
C570 H554 0.959 . S
C570 H555 0.959 . S
C570 H556 0.961 . S
C570 C569 1.502 . S
C571 H557 0.960 . S
C571 H558 0.961 . S
C571 H559 0.959 . S
C571 C569 1.561 . S
C572 C569 1.526 . S
C572 C573 1.396 . S
C572 C577 1.390 . S
C573 C567 1.465 . S
C573 C572 1.396 . S
C573 C574 1.399 . S
C574 H560 0.929 . S
C574 C573 1.399 . S
C574 C575 1.385 . S
C575 H561 0.931 . S
C575 C574 1.385 . S
C575 C576 1.389 . S
C576 C575 1.389 . S
C576 C577 1.387 . S
C577 H562 0.930 . S
C577 C572 1.390 . S
C577 C576 1.387 . S
H578 C590 0.930 . S
H579 C592 0.930 . S
H580 C593 0.930 . S
H581 C597 0.959 . S
H582 C597 0.959 . S
H583 C597 0.961 . S
H584 C598 0.960 . S
H585 C598 0.961 . S
H586 C598 0.959 . S
H587 C601 0.929 . S
H588 C602 0.931 . S
H589 C604 0.930 . S
C590 H578 0.930 . S
C590 C591 1.399 . S
C590 C595 1.399 . S
C591 C590 1.399 . S
C591 C592 1.376 . S
C592 H579 0.930 . S
C592 C591 1.376 . S
C592 C593 1.388 . S
C593 H580 0.930 . S
C593 C592 1.388 . S
C593 C594 1.390 . S
C594 C593 1.390 . S
C594 C595 1.394 . S
C594 C600 1.465 . S
C595 C590 1.399 . S
C595 C594 1.394 . S
C595 C596 1.516 . S
C596 C595 1.516 . S
C596 C597 1.502 . S
C596 C598 1.561 . S
C596 C599 1.526 . S
C597 H581 0.959 . S
C597 H582 0.959 . S
C597 H583 0.961 . S
C597 C596 1.502 . S
C598 H584 0.960 . S
C598 H585 0.961 . S
C598 H586 0.959 . S
C598 C596 1.561 . S
C599 C596 1.526 . S
C599 C600 1.396 . S
C599 C604 1.390 . S
C600 C594 1.465 . S
C600 C599 1.396 . S
C600 C601 1.399 . S
C601 H587 0.929 . S
C601 C600 1.399 . S
C601 C602 1.385 . S
C602 H588 0.931 . S
C602 C601 1.385 . S
C602 C603 1.389 . S
C603 C602 1.389 . S
C603 C604 1.387 . S
C604 H589 0.930 . S
C604 C599 1.390 . S
C604 C603 1.387 . S
H605 C617 0.930 . S
H606 C619 0.930 . S
H607 C620 0.930 . S
H608 C624 0.959 . S
H609 C624 0.959 . S
H610 C624 0.961 . S
H611 C625 0.960 . S
H612 C625 0.961 . S
H613 C625 0.959 . S
H614 C628 0.929 . S
H615 C629 0.931 . S
H616 C631 0.930 . S
C617 H605 0.930 . S
C617 C618 1.399 . S
C617 C622 1.399 . S
C618 C617 1.399 . S
C618 C619 1.376 . S
C619 H606 0.930 . S
C619 C618 1.376 . S
C619 C620 1.388 . S
C620 H607 0.930 . S
C620 C619 1.388 . S
C620 C621 1.390 . S
C621 C620 1.390 . S
C621 C622 1.394 . S
C621 C627 1.465 . S
C622 C617 1.399 . S
C622 C621 1.394 . S
C622 C623 1.516 . S
C623 C622 1.516 . S
C623 C624 1.502 . S
C623 C625 1.561 . S
C623 C626 1.526 . S
C624 H608 0.959 . S
C624 H609 0.959 . S
C624 H610 0.961 . S
C624 C623 1.502 . S
C625 H611 0.960 . S
C625 H612 0.961 . S
C625 H613 0.959 . S
C625 C623 1.561 . S
C626 C623 1.526 . S
C626 C627 1.396 . S
C626 C631 1.390 . S
C627 C621 1.465 . S
C627 C626 1.396 . S
C627 C628 1.399 . S
C628 H614 0.929 . S
C628 C627 1.399 . S
C628 C629 1.385 . S
C629 H615 0.931 . S
C629 C628 1.385 . S
C629 C630 1.389 . S
C630 C629 1.389 . S
C630 C631 1.387 . S
C631 H616 0.930 . S
C631 C626 1.390 . S
C631 C630 1.387 . S
H632 C644 0.930 . S
H633 C646 0.930 . S
H634 C647 0.930 . S
H635 C651 0.959 . S
H636 C651 0.959 . S
H637 C651 0.961 . S
H638 C652 0.960 . S
H639 C652 0.961 . S
H640 C652 0.959 . S
H641 C655 0.929 . S
H642 C656 0.931 . S
H643 C658 0.930 . S
C644 H632 0.930 . S
C644 C645 1.399 . S
C644 C649 1.399 . S
C645 C644 1.399 . S
C645 C646 1.376 . S
C646 H633 0.930 . S
C646 C645 1.376 . S
C646 C647 1.388 . S
C647 H634 0.930 . S
C647 C646 1.388 . S
C647 C648 1.390 . S
C648 C647 1.390 . S
C648 C649 1.394 . S
C648 C654 1.465 . S
C649 C644 1.399 . S
C649 C648 1.394 . S
C649 C650 1.516 . S
C650 C649 1.516 . S
C650 C651 1.502 . S
C650 C652 1.561 . S
C650 C653 1.526 . S
C651 H635 0.959 . S
C651 H636 0.959 . S
C651 H637 0.961 . S
C651 C650 1.502 . S
C652 H638 0.960 . S
C652 H639 0.961 . S
C652 H640 0.959 . S
C652 C650 1.561 . S
C653 C650 1.526 . S
C653 C654 1.396 . S
C653 C658 1.390 . S
C654 C648 1.465 . S
C654 C653 1.396 . S
C654 C655 1.399 . S
C655 H641 0.929 . S
C655 C654 1.399 . S
C655 C656 1.385 . S
C656 H642 0.931 . S
C656 C655 1.385 . S
C656 C657 1.389 . S
C657 C656 1.389 . S
C657 C658 1.387 . S
C658 H643 0.930 . S
C658 C653 1.390 . S
C658 C657 1.387 . S
H659 C671 0.930 . S
H660 C673 0.930 . S
H661 C674 0.930 . S
H662 C678 0.959 . S
H663 C678 0.959 . S
H664 C678 0.961 . S
H665 C679 0.960 . S
H666 C679 0.961 . S
H667 C679 0.959 . S
H668 C682 0.929 . S
H669 C683 0.931 . S
H670 C685 0.930 . S
C671 H659 0.930 . S
C671 C672 1.399 . S
C671 C676 1.399 . S
C672 C671 1.399 . S
C672 C673 1.376 . S
C673 H660 0.930 . S
C673 C672 1.376 . S
C673 C674 1.388 . S
C674 H661 0.930 . S
C674 C673 1.388 . S
C674 C675 1.390 . S
C675 C674 1.390 . S
C675 C676 1.394 . S
C675 C681 1.465 . S
C676 C671 1.399 . S
C676 C675 1.394 . S
C676 C677 1.516 . S
C677 C676 1.516 . S
C677 C678 1.502 . S
C677 C679 1.561 . S
C677 C680 1.526 . S
C678 H662 0.959 . S
C678 H663 0.959 . S
C678 H664 0.961 . S
C678 C677 1.502 . S
C679 H665 0.960 . S
C679 H666 0.961 . S
C679 H667 0.959 . S
C679 C677 1.561 . S
C680 C677 1.526 . S
C680 C681 1.396 . S
C680 C685 1.390 . S
C681 C675 1.465 . S
C681 C680 1.396 . S
C681 C682 1.399 . S
C682 H668 0.929 . S
C682 C681 1.399 . S
C682 C683 1.385 . S
C683 H669 0.931 . S
C683 C682 1.385 . S
C683 C684 1.389 . S
C684 C683 1.389 . S
C684 C685 1.387 . S
C685 H670 0.930 . S
C685 C680 1.390 . S
C685 C684 1.387 . S
H686 C698 0.930 . S
H687 C700 0.930 . S
H688 C701 0.930 . S
H689 C705 0.959 . S
H690 C705 0.959 . S
H691 C705 0.961 . S
H692 C706 0.960 . S
H693 C706 0.961 . S
H694 C706 0.959 . S
H695 C709 0.929 . S
H696 C710 0.931 . S
H697 C712 0.930 . S
C698 H686 0.930 . S
C698 C699 1.399 . S
C698 C703 1.399 . S
C699 C698 1.399 . S
C699 C700 1.376 . S
C700 H687 0.930 . S
C700 C699 1.376 . S
C700 C701 1.388 . S
C701 H688 0.930 . S
C701 C700 1.388 . S
C701 C702 1.390 . S
C702 C701 1.390 . S
C702 C703 1.394 . S
C702 C708 1.465 . S
C703 C698 1.399 . S
C703 C702 1.394 . S
C703 C704 1.516 . S
C704 C703 1.516 . S
C704 C705 1.502 . S
C704 C706 1.561 . S
C704 C707 1.526 . S
C705 H689 0.959 . S
C705 H690 0.959 . S
C705 H691 0.961 . S
C705 C704 1.502 . S
C706 H692 0.960 . S
C706 H693 0.961 . S
C706 H694 0.959 . S
C706 C704 1.561 . S
C707 C704 1.526 . S
C707 C708 1.396 . S
C707 C712 1.390 . S
C708 C702 1.465 . S
C708 C707 1.396 . S
C708 C709 1.399 . S
C709 H695 0.929 . S
C709 C708 1.399 . S
C709 C710 1.385 . S
C710 H696 0.931 . S
C710 C709 1.385 . S
C710 C711 1.389 . S
C711 C710 1.389 . S
C711 C712 1.387 . S
C712 H697 0.930 . S
C712 C707 1.390 . S
C712 C711 1.387 . S
H713 C725 0.930 . S
H714 C727 0.930 . S
H715 C728 0.930 . S
H716 C732 0.959 . S
H717 C732 0.959 . S
H718 C732 0.961 . S
H719 C733 0.960 . S
H720 C733 0.961 . S
H721 C733 0.959 . S
H722 C736 0.929 . S
H723 C737 0.931 . S
H724 C739 0.930 . S
C725 H713 0.930 . S
C725 C726 1.399 . S
C725 C730 1.399 . S
C726 C725 1.399 . S
C726 C727 1.376 . S
C727 H714 0.930 . S
C727 C726 1.376 . S
C727 C728 1.388 . S
C728 H715 0.930 . S
C728 C727 1.388 . S
C728 C729 1.390 . S
C729 C728 1.390 . S
C729 C730 1.394 . S
C729 C735 1.465 . S
C730 C725 1.399 . S
C730 C729 1.394 . S
C730 C731 1.516 . S
C731 C730 1.516 . S
C731 C732 1.502 . S
C731 C733 1.561 . S
C731 C734 1.526 . S
C732 H716 0.959 . S
C732 H717 0.959 . S
C732 H718 0.961 . S
C732 C731 1.502 . S
C733 H719 0.960 . S
C733 H720 0.961 . S
C733 H721 0.959 . S
C733 C731 1.561 . S
C734 C731 1.526 . S
C734 C735 1.396 . S
C734 C739 1.390 . S
C735 C729 1.465 . S
C735 C734 1.396 . S
C735 C736 1.399 . S
C736 H722 0.929 . S
C736 C735 1.399 . S
C736 C737 1.385 . S
C737 H723 0.931 . S
C737 C736 1.385 . S
C737 C738 1.389 . S
C738 C737 1.389 . S
C738 C739 1.387 . S
C739 H724 0.930 . S
C739 C734 1.390 . S
C739 C738 1.387 . S
H740 C752 0.930 . S
H741 C754 0.930 . S
H742 C755 0.930 . S
H743 C759 0.959 . S
H744 C759 0.959 . S
H745 C759 0.961 . S
H746 C760 0.960 . S
H747 C760 0.961 . S
H748 C760 0.959 . S
H749 C763 0.929 . S
H750 C764 0.931 . S
H751 C766 0.930 . S
C752 H740 0.930 . S
C752 C753 1.399 . S
C752 C757 1.399 . S
C753 C752 1.399 . S
C753 C754 1.376 . S
C754 H741 0.930 . S
C754 C753 1.376 . S
C754 C755 1.388 . S
C755 H742 0.930 . S
C755 C754 1.388 . S
C755 C756 1.390 . S
C756 C755 1.390 . S
C756 C757 1.394 . S
C756 C762 1.465 . S
C757 C752 1.399 . S
C757 C756 1.394 . S
C757 C758 1.516 . S
C758 C757 1.516 . S
C758 C759 1.502 . S
C758 C760 1.561 . S
C758 C761 1.526 . S
C759 H743 0.959 . S
C759 H744 0.959 . S
C759 H745 0.961 . S
C759 C758 1.502 . S
C760 H746 0.960 . S
C760 H747 0.961 . S
C760 H748 0.959 . S
C760 C758 1.561 . S
C761 C758 1.526 . S
C761 C762 1.396 . S
C761 C766 1.390 . S
C762 C756 1.465 . S
C762 C761 1.396 . S
C762 C763 1.399 . S
C763 H749 0.929 . S
C763 C762 1.399 . S
C763 C764 1.385 . S
C764 H750 0.931 . S
C764 C763 1.385 . S
C764 C765 1.389 . S
C765 C764 1.389 . S
C765 C766 1.387 . S
C766 H751 0.930 . S
C766 C761 1.390 . S
C766 C765 1.387 . S
H767 C779 0.930 . S
H768 C781 0.930 . S
H769 C782 0.930 . S
H770 C786 0.959 . S
H771 C786 0.959 . S
H772 C786 0.961 . S
H773 C787 0.960 . S
H774 C787 0.961 . S
H775 C787 0.959 . S
H776 C790 0.929 . S
H777 C791 0.931 . S
H778 C793 0.930 . S
C779 H767 0.930 . S
C779 C780 1.399 . S
C779 C784 1.399 . S
C780 C779 1.399 . S
C780 C781 1.376 . S
C781 H768 0.930 . S
C781 C780 1.376 . S
C781 C782 1.388 . S
C782 H769 0.930 . S
C782 C781 1.388 . S
C782 C783 1.390 . S
C783 C782 1.390 . S
C783 C784 1.394 . S
C783 C789 1.465 . S
C784 C779 1.399 . S
C784 C783 1.394 . S
C784 C785 1.516 . S
C785 C784 1.516 . S
C785 C786 1.502 . S
C785 C787 1.561 . S
C785 C788 1.526 . S
C786 H770 0.959 . S
C786 H771 0.959 . S
C786 H772 0.961 . S
C786 C785 1.502 . S
C787 H773 0.960 . S
C787 H774 0.961 . S
C787 H775 0.959 . S
C787 C785 1.561 . S
C788 C785 1.526 . S
C788 C789 1.396 . S
C788 C793 1.390 . S
C789 C783 1.465 . S
C789 C788 1.396 . S
C789 C790 1.399 . S
C790 H776 0.929 . S
C790 C789 1.399 . S
C790 C791 1.385 . S
C791 H777 0.931 . S
C791 C790 1.385 . S
C791 C792 1.389 . S
C792 C791 1.389 . S
C792 C793 1.387 . S
C793 H778 0.930 . S
C793 C788 1.390 . S
C793 C792 1.387 . S
H794 C806 0.930 . S
H795 C808 0.930 . S
H796 C809 0.930 . S
H797 C813 0.959 . S
H798 C813 0.959 . S
H799 C813 0.961 . S
H800 C814 0.960 . S
H801 C814 0.961 . S
H802 C814 0.959 . S
H803 C817 0.929 . S
H804 C818 0.931 . S
H805 C820 0.930 . S
C806 H794 0.930 . S
C806 C807 1.399 . S
C806 C811 1.399 . S
C807 C806 1.399 . S
C807 C808 1.376 . S
C808 H795 0.930 . S
C808 C807 1.376 . S
C808 C809 1.388 . S
C809 H796 0.930 . S
C809 C808 1.388 . S
C809 C810 1.390 . S
C810 C809 1.390 . S
C810 C811 1.394 . S
C810 C816 1.465 . S
C811 C806 1.399 . S
C811 C810 1.394 . S
C811 C812 1.516 . S
C812 C811 1.516 . S
C812 C813 1.502 . S
C812 C814 1.561 . S
C812 C815 1.526 . S
C813 H797 0.959 . S
C813 H798 0.959 . S
C813 H799 0.961 . S
C813 C812 1.502 . S
C814 H800 0.960 . S
C814 H801 0.961 . S
C814 H802 0.959 . S
C814 C812 1.561 . S
C815 C812 1.526 . S
C815 C816 1.396 . S
C815 C820 1.390 . S
C816 C810 1.465 . S
C816 C815 1.396 . S
C816 C817 1.399 . S
C817 H803 0.929 . S
C817 C816 1.399 . S
C817 C818 1.385 . S
C818 H804 0.931 . S
C818 C817 1.385 . S
C818 C819 1.389 . S
C819 C818 1.389 . S
C819 C820 1.387 . S
C820 H805 0.930 . S
C820 C815 1.390 . S
C820 C819 1.387 . S
H821 C833 0.930 . S
H822 C835 0.930 . S
H823 C836 0.930 . S
H824 C840 0.959 . S
H825 C840 0.959 . S
H826 C840 0.961 . S
H827 C841 0.960 1_556 S
H828 C841 0.961 1_556 S
H829 C841 0.959 . S
H830 C844 0.929 . S
H831 C845 0.931 . S
H832 C847 0.930 . S
C833 H821 0.930 . S
C833 C834 1.399 . S
C833 C838 1.399 . S
C834 C833 1.399 . S
C834 C835 1.376 . S
C835 H822 0.930 . S
C835 C834 1.376 . S
C835 C836 1.388 . S
C836 H823 0.930 . S
C836 C835 1.388 . S
C836 C837 1.390 . S
C837 C836 1.390 . S
C837 C838 1.394 . S
C837 C843 1.465 . S
C838 C833 1.399 . S
C838 C837 1.394 . S
C838 C839 1.516 . S
C839 C838 1.516 . S
C839 C840 1.502 . S
C839 C841 1.561 . S
C839 C842 1.526 . S
C840 H824 0.959 . S
C840 H825 0.959 . S
C840 H826 0.961 . S
C840 C839 1.502 . S
C841 H827 0.960 1_554 S
C841 H828 0.961 1_554 S
C841 H829 0.959 . S
C841 C839 1.561 . S
C842 C839 1.526 . S
C842 C843 1.396 . S
C842 C847 1.390 . S
C843 C837 1.465 . S
C843 C842 1.396 . S
C843 C844 1.399 . S
C844 H830 0.929 . S
C844 C843 1.399 . S
C844 C845 1.385 . S
C845 H831 0.931 . S
C845 C844 1.385 . S
C845 C846 1.389 . S
C846 C845 1.389 . S
C846 C847 1.387 . S
C847 H832 0.930 . S
C847 C842 1.390 . S
C847 C846 1.387 . S
H848 C860 0.930 . S
H849 C862 0.930 . S
H850 C863 0.930 . S
H851 C867 0.959 . S
H852 C867 0.962 . S
H853 C867 0.961 . S
H854 C868 0.960 . S
H855 C868 0.961 . S
H856 C868 0.959 . S
H857 C871 0.929 . S
H858 C872 0.931 . S
H859 C874 0.930 . S
C860 H848 0.930 . S
C860 C861 1.399 . S
C860 C865 1.399 . S
C861 C860 1.399 . S
C861 C862 1.376 . S
C862 H849 0.930 . S
C862 C861 1.376 . S
C862 C863 1.388 . S
C863 H850 0.930 . S
C863 C862 1.388 . S
C863 C864 1.390 . S
C864 C863 1.390 . S
C864 C865 1.394 . S
C864 C870 1.465 1_455 S
C865 C860 1.399 . S
C865 C864 1.394 . S
C865 C866 1.483 1_455 S
C866 C865 1.483 1_655 S
C866 C867 1.476 1_655 S
C866 C868 1.593 . S
C866 C869 1.559 . S
C867 H851 0.959 . S
C867 H852 0.962 . S
C867 H853 0.961 . S
C867 C866 1.476 1_455 S
C868 H854 0.960 . S
C868 H855 0.961 . S
C868 H856 0.959 . S
C868 C866 1.593 . S
C869 C866 1.559 . S
C869 C870 1.396 . S
C869 C874 1.390 . S
C870 C864 1.465 1_655 S
C870 C869 1.396 . S
C870 C871 1.399 . S
C871 H857 0.929 . S
C871 C870 1.399 . S
C871 C872 1.385 . S
C872 H858 0.931 . S
C872 C871 1.385 . S
C872 C873 1.389 . S
C873 C872 1.389 . S
C873 C874 1.387 . S
C874 H859 0.930 . S
C874 C869 1.390 . S
C874 C873 1.387 . S
H875 C887 0.930 . S
H876 C889 0.930 . S
H877 C890 0.930 . S
H878 C894 0.959 . S
H879 C894 0.959 . S
H880 C894 0.961 . S
H881 C895 0.960 . S
H882 C895 0.961 . S
H883 C895 0.959 . S
H884 C898 0.929 . S
H885 C899 0.931 . S
H886 C901 0.930 . S
C887 H875 0.930 . S
C887 C888 1.399 . S
C887 C892 1.399 . S
C888 C887 1.399 . S
C888 C889 1.376 . S
C889 H876 0.930 . S
C889 C888 1.376 . S
C889 C890 1.388 . S
C890 H877 0.930 . S
C890 C889 1.388 . S
C890 C891 1.390 . S
C891 C890 1.390 . S
C891 C892 1.394 . S
C891 C897 1.465 1_545 S
C892 C887 1.399 . S
C892 C891 1.394 . S
C892 C893 1.516 . S
C893 C892 1.516 . S
C893 C894 1.502 1_545 S
C893 C895 1.561 . S
C893 C896 1.526 1_545 S
C894 H878 0.959 . S
C894 H879 0.959 . S
C894 H880 0.961 . S
C894 C893 1.502 1_565 S
C895 H881 0.960 . S
C895 H882 0.961 . S
C895 H883 0.959 . S
C895 C893 1.561 . S
C896 C893 1.526 1_565 S
C896 C897 1.396 . S
C896 C901 1.390 . S
C897 C891 1.465 1_565 S
C897 C896 1.396 . S
C897 C898 1.399 . S
C898 H884 0.929 . S
C898 C897 1.399 . S
C898 C899 1.385 . S
C899 H885 0.931 . S
C899 C898 1.385 . S
C899 C900 1.389 . S
C900 C899 1.389 . S
C900 C901 1.387 . S
C901 H886 0.930 . S
C901 C896 1.390 . S
C901 C900 1.387 . S
H902 C914 0.930 1_554 S
H903 C916 0.930 . S
H904 C917 0.930 . S
H905 C921 0.969 . S
H906 C921 0.961 . S
H907 C921 0.954 1_545 S
H908 C922 0.960 1_455 S
H909 C922 0.961 . S
H910 C922 0.959 . S
H911 C925 0.929 . S
H912 C926 0.931 . S
H913 C928 0.930 . S
C914 H902 0.930 1_556 S
C914 C915 1.399 . S
C914 C919 1.399 1_556 S
C915 C914 1.399 . S
C915 C916 1.376 . S
C916 H903 0.930 . S
C916 C915 1.376 . S
C916 C917 1.388 . S
C917 H904 0.930 . S
C917 C916 1.388 . S
C917 C918 1.390 . S
C918 C917 1.390 . S
C918 C919 1.394 1_556 S
C918 C924 1.465 1_445 S
C919 C914 1.399 1_554 S
C919 C918 1.394 1_554 S
C919 C920 1.516 . S
C920 C919 1.516 . S
C920 C921 1.497 1_545 S
C920 C922 1.561 1_455 S
C920 C923 1.526 1_445 S
C921 H905 0.969 . S
C921 H906 0.961 . S
C921 H907 0.954 1_565 S
C921 C920 1.497 1_565 S
C922 H908 0.960 1_655 S
C922 H909 0.961 . S
C922 H910 0.959 . S
C922 C920 1.561 1_655 S
C923 C920 1.526 1_665 S
C923 C924 1.396 1_554 S
C923 C928 1.390 . S
C924 C918 1.465 1_665 S
C924 C923 1.396 1_556 S
C924 C925 1.399 . S
C925 H911 0.929 . S
C925 C924 1.399 . S
C925 C926 1.385 . S
C926 H912 0.931 . S
C926 C925 1.385 . S
C926 C927 1.389 1_556 S
C927 C926 1.389 1_554 S
C927 C928 1.387 . S
C928 H913 0.930 . S
C928 C923 1.390 . S
C928 C927 1.387 . S
H929 C941 0.930 . S
H930 C943 0.930 . S
H931 C944 0.930 . S
H932 C948 0.954 1_554 S
H933 C948 0.959 . S
H934 C948 0.961 . S
H935 C949 0.960 . S
H936 C949 0.961 . S
H937 C949 0.959 . S
H938 C952 0.929 . S
H939 C953 0.931 . S
H940 C955 0.931 . S
C941 H929 0.930 . S
C941 C942 1.399 . S
C941 C946 1.399 . S
C942 C941 1.399 . S
C942 C943 1.376 . S
C943 H930 0.930 . S
C943 C942 1.376 . S
C943 C944 1.388 1_556 S
C944 H931 0.930 . S
C944 C943 1.388 1_554 S
C944 C945 1.390 . S
C945 C944 1.390 . S
C945 C946 1.392 1_554 S
C945 C951 1.466 . S
C946 C941 1.399 . S
C946 C945 1.392 1_556 S
C946 C947 1.516 . S
C947 C946 1.516 . S
C947 C948 1.502 . S
C947 C949 1.561 . S
C947 C950 1.528 1_556 S
C948 H932 0.954 1_556 S
C948 H933 0.959 . S
C948 H934 0.961 . S
C948 C947 1.502 . S
C949 H935 0.960 . S
C949 H936 0.961 . S
C949 H937 0.959 . S
C949 C947 1.561 . S
C950 C947 1.528 1_554 S
C950 C951 1.395 . S
C950 C955 1.389 . S
C951 C945 1.466 . S
C951 C950 1.395 . S
C951 C952 1.399 . S
C952 H938 0.929 . S
C952 C951 1.399 . S
C952 C953 1.385 . S
C953 H939 0.931 . S
C953 C952 1.385 . S
C953 C954 1.389 . S
C954 C953 1.389 . S
C954 C955 1.387 . S
C955 H940 0.931 . S
C955 C950 1.389 . S
C955 C954 1.387 . S
H956 C968 0.930 . S
H957 C970 0.930 . S
H958 C971 0.930 . S
H959 C975 0.959 . S
H960 C975 0.959 . S
H961 C975 0.961 . S
H962 C976 0.960 1_655 S
H963 C976 0.961 . S
H964 C976 0.959 . S
H965 C979 0.929 . S
H966 C980 0.931 . S
H967 C982 0.930 . S
C968 H956 0.930 . S
C968 C969 1.399 . S
C968 C973 1.399 . S
C969 C968 1.399 . S
C969 C970 1.376 . S
C970 H957 0.930 . S
C970 C969 1.376 . S
C970 C971 1.388 . S
C971 H958 0.930 . S
C971 C970 1.388 . S
C971 C972 1.390 . S
C972 C971 1.390 . S
C972 C973 1.394 . S
C972 C978 1.465 1_655 S
C973 C968 1.399 . S
C973 C972 1.394 . S
C973 C974 1.516 . S
C974 C973 1.516 . S
C974 C975 1.502 . S
C974 C976 1.561 1_655 S
C974 C977 1.526 1_655 S
C975 H959 0.959 . S
C975 H960 0.959 . S
C975 H961 0.961 . S
C975 C974 1.502 . S
C976 H962 0.960 1_455 S
C976 H963 0.961 . S
C976 H964 0.959 . S
C976 C974 1.561 1_455 S
C977 C974 1.526 1_455 S
C977 C978 1.396 . S
C977 C982 1.390 . S
C978 C972 1.465 1_455 S
C978 C977 1.396 . S
C978 C979 1.399 . S
C979 H965 0.929 . S
C979 C978 1.399 . S
C979 C980 1.385 . S
C980 H966 0.931 . S
C980 C979 1.385 . S
C980 C981 1.389 . S
C981 C980 1.389 . S
C981 C982 1.387 . S
C982 H967 0.930 . S
C982 C977 1.390 . S
C982 C981 1.387 . S
H983 C995 0.930 . S
H984 C997 0.930 . S
H985 C998 0.930 . S
H986 C1002 0.959 . S
H987 C1002 0.959 1_565 S
H988 C1002 0.961 . S
H989 C1003 0.960 . S
H990 C1003 0.961 . S
H991 C1003 0.959 . S
H992 C1006 0.929 . S
H993 C1007 0.931 . S
H994 C1009 0.930 . S
C995 H983 0.930 . S
C995 C996 1.399 . S
C995 C1000 1.399 . S
C996 C995 1.399 . S
C996 C997 1.376 . S
C997 H984 0.930 . S
C997 C996 1.376 . S
C997 C998 1.388 . S
C998 H985 0.930 . S
C998 C997 1.388 . S
C998 C999 1.390 . S
C999 C998 1.390 . S
C999 C1000 1.394 . S
C999 C1005 1.465 1_545 S
C1000 C995 1.399 . S
C1000 C999 1.394 . S
C1000 C1001 1.516 1_545 S
C1001 C1000 1.516 1_565 S
C1001 C1002 1.502 1_565 S
C1001 C1003 1.561 . S
C1001 C1004 1.526 . S
C1002 H986 0.959 . S
C1002 H987 0.959 1_545 S
C1002 H988 0.961 . S
C1002 C1001 1.502 1_545 S
C1003 H989 0.960 . S
C1003 H990 0.961 . S
C1003 H991 0.959 . S
C1003 C1001 1.561 . S
C1004 C1001 1.526 . S
C1004 C1005 1.396 . S
C1004 C1009 1.390 . S
C1005 C999 1.465 1_565 S
C1005 C1004 1.396 . S
C1005 C1006 1.399 . S
C1006 H992 0.929 . S
C1006 C1005 1.399 . S
C1006 C1007 1.385 . S
C1007 H993 0.931 . S
C1007 C1006 1.385 . S
C1007 C1008 1.389 . S
C1008 C1007 1.389 . S
C1008 C1009 1.387 . S
C1009 H994 0.930 . S
C1009 C1004 1.390 . S
C1009 C1008 1.387 . S
H1010 C1022 0.930 1_554 S
H1011 C1024 0.930 . S
H1012 C1025 0.930 . S
H1013 C1029 0.959 . S
H1014 C1029 0.959 . S
H1015 C1029 0.961 . S
H1016 C1030 0.960 . S
H1017 C1030 0.961 . S
H1018 C1030 0.959 . S
H1019 C1033 0.929 . S
H1020 C1034 0.931 . S
H1021 C1036 0.930 . S
C1022 H1010 0.930 1_556 S
C1022 C1023 1.399 . S
C1022 C1027 1.399 1_556 S
C1023 C1022 1.399 . S
C1023 C1024 1.376 . S
C1024 H1011 0.930 . S
C1024 C1023 1.376 . S
C1024 C1025 1.388 . S
C1025 H1012 0.930 . S
C1025 C1024 1.388 . S
C1025 C1026 1.390 . S
C1026 C1025 1.390 . S
C1026 C1027 1.394 1_556 S
C1026 C1032 1.465 . S
C1027 C1022 1.399 1_554 S
C1027 C1026 1.394 1_554 S
C1027 C1028 1.516 . S
C1028 C1027 1.516 . S
C1028 C1029 1.502 . S
C1028 C1030 1.561 . S
C1028 C1031 1.526 . S
C1029 H1013 0.959 . S
C1029 H1014 0.959 . S
C1029 H1015 0.961 . S
C1029 C1028 1.502 . S
C1030 H1016 0.960 . S
C1030 H1017 0.961 . S
C1030 H1018 0.959 . S
C1030 C1028 1.561 . S
C1031 C1028 1.526 . S
C1031 C1032 1.396 1_554 S
C1031 C1036 1.390 . S
C1032 C1026 1.465 . S
C1032 C1031 1.396 1_556 S
C1032 C1033 1.399 . S
C1033 H1019 0.929 . S
C1033 C1032 1.399 . S
C1033 C1034 1.385 . S
C1034 H1020 0.931 . S
C1034 C1033 1.385 . S
C1034 C1035 1.389 1_556 S
C1035 C1034 1.389 1_554 S
C1035 C1036 1.387 . S
C1036 H1021 0.930 . S
C1036 C1031 1.390 . S
C1036 C1035 1.387 . S
H1037 C1049 0.930 . S
H1038 C1051 0.930 . S
H1039 C1052 0.930 . S
H1040 C1056 0.959 . S
H1041 C1056 0.959 . S
H1042 C1056 0.961 . S
H1043 C1057 0.960 . S
H1044 C1057 0.961 . S
H1045 C1057 0.959 . S
H1046 C1060 0.929 . S
H1047 C1061 0.931 . S
H1048 C1063 0.930 . S
C1049 H1037 0.930 . S
C1049 C1050 1.399 . S
C1049 C1054 1.399 . S
C1050 C1049 1.399 . S
C1050 C1051 1.376 . S
C1051 H1038 0.930 . S
C1051 C1050 1.376 . S
C1051 C1052 1.388 . S
C1052 H1039 0.930 . S
C1052 C1051 1.388 . S
C1052 C1053 1.390 . S
C1053 C1052 1.390 . S
C1053 C1054 1.394 . S
C1053 C1059 1.465 . S
C1054 C1049 1.399 . S
C1054 C1053 1.394 . S
C1054 C1055 1.516 . S
C1055 C1054 1.516 . S
C1055 C1056 1.502 . S
C1055 C1057 1.561 . S
C1055 C1058 1.526 . S
C1056 H1040 0.959 . S
C1056 H1041 0.959 . S
C1056 H1042 0.961 . S
C1056 C1055 1.502 . S
C1057 H1043 0.960 . S
C1057 H1044 0.961 . S
C1057 H1045 0.959 . S
C1057 C1055 1.561 . S
C1058 C1055 1.526 . S
C1058 C1059 1.396 . S
C1058 C1063 1.390 . S
C1059 C1053 1.465 . S
C1059 C1058 1.396 . S
C1059 C1060 1.399 . S
C1060 H1046 0.929 . S
C1060 C1059 1.399 . S
C1060 C1061 1.385 . S
C1061 H1047 0.931 . S
C1061 C1060 1.385 . S
C1061 C1062 1.389 . S
C1062 C1061 1.389 . S
C1062 C1063 1.387 . S
C1063 H1048 0.930 . S
C1063 C1058 1.390 . S
C1063 C1062 1.387 . S
H1064 C1076 0.930 . S
H1065 C1078 0.930 . S
H1066 C1079 0.930 . S
H1067 C1083 0.934 1_455 S
H1068 C1083 0.996 . S
H1069 C1083 0.937 1_455 S
H1070 C1084 0.960 . S
H1071 C1084 0.961 . S
H1072 C1084 0.959 . S
H1073 C1087 0.929 . S
H1074 C1088 0.931 . S
H1075 C1090 0.930 . S
C1076 H1064 0.930 . S
C1076 C1077 1.399 . S
C1076 C1081 1.399 . S
C1077 C1076 1.399 . S
C1077 C1078 1.376 . S
C1078 H1065 0.930 . S
C1078 C1077 1.376 . S
C1078 C1079 1.388 . S
C1079 H1066 0.930 . S
C1079 C1078 1.388 . S
C1079 C1080 1.390 . S
C1080 C1079 1.390 . S
C1080 C1081 1.394 . S
C1080 C1086 1.465 1_455 S
C1081 C1076 1.399 . S
C1081 C1080 1.394 . S
C1081 C1082 1.516 1_455 S
C1082 C1081 1.516 1_655 S
C1082 C1083 1.515 . S
C1082 C1084 1.561 . S
C1082 C1085 1.526 . S
C1083 H1067 0.934 1_655 S
C1083 H1068 0.996 . S
C1083 H1069 0.937 1_655 S
C1083 C1082 1.515 . S
C1084 H1070 0.960 . S
C1084 H1071 0.961 . S
C1084 H1072 0.959 . S
C1084 C1082 1.561 . S
C1085 C1082 1.526 . S
C1085 C1086 1.396 . S
C1085 C1090 1.390 . S
C1086 C1080 1.465 1_655 S
C1086 C1085 1.396 . S
C1086 C1087 1.399 . S
C1087 H1073 0.929 . S
C1087 C1086 1.399 . S
C1087 C1088 1.385 . S
C1088 H1074 0.931 . S
C1088 C1087 1.385 . S
C1088 C1089 1.389 . S
C1089 C1088 1.389 . S
C1089 C1090 1.387 . S
C1090 H1075 0.930 . S
C1090 C1085 1.390 . S
C1090 C1089 1.387 . S
H1091 C1103 0.930 . S
H1092 C1105 0.930 . S
H1093 C1106 0.930 . S
H1094 C1110 0.959 . S
H1095 C1110 0.959 . S
H1096 C1110 0.961 . S
H1097 C1111 0.960 . S
H1098 C1111 0.961 . S
H1099 C1111 0.959 . S
H1100 C1114 0.929 . S
H1101 C1115 0.931 . S
H1102 C1117 0.930 . S
C1103 H1091 0.930 . S
C1103 C1104 1.399 . S
C1103 C1108 1.399 . S
C1104 C1103 1.399 . S
C1104 C1105 1.376 . S
C1105 H1092 0.930 . S
C1105 C1104 1.376 . S
C1105 C1106 1.388 . S
C1106 H1093 0.930 . S
C1106 C1105 1.388 . S
C1106 C1107 1.390 . S
C1107 C1106 1.390 . S
C1107 C1108 1.394 . S
C1107 C1113 1.465 . S
C1108 C1103 1.399 . S
C1108 C1107 1.394 . S
C1108 C1109 1.516 . S
C1109 C1108 1.516 . S
C1109 C1110 1.502 . S
C1109 C1111 1.561 . S
C1109 C1112 1.526 . S
C1110 H1094 0.959 . S
C1110 H1095 0.959 . S
C1110 H1096 0.961 . S
C1110 C1109 1.502 . S
C1111 H1097 0.960 . S
C1111 H1098 0.961 . S
C1111 H1099 0.959 . S
C1111 C1109 1.561 . S
C1112 C1109 1.526 . S
C1112 C1113 1.396 . S
C1112 C1117 1.390 . S
C1113 C1107 1.465 . S
C1113 C1112 1.396 . S
C1113 C1114 1.399 . S
C1114 H1100 0.929 . S
C1114 C1113 1.399 . S
C1114 C1115 1.385 . S
C1115 H1101 0.931 . S
C1115 C1114 1.385 . S
C1115 C1116 1.389 . S
C1116 C1115 1.389 . S
C1116 C1117 1.387 . S
C1117 H1102 0.930 . S
C1117 C1112 1.390 . S
C1117 C1116 1.387 . S
H1118 C1130 0.930 . S
H1119 C1132 0.930 . S
H1120 C1133 0.930 . S
H1121 C1137 0.959 . S
H1122 C1137 0.959 . S
H1123 C1137 0.961 . S
H1124 C1138 0.960 . S
H1125 C1138 0.961 . S
H1126 C1138 0.959 . S
H1127 C1141 0.929 . S
H1128 C1142 0.931 . S
H1129 C1144 0.930 . S
C1130 H1118 0.930 . S
C1130 C1131 1.399 . S
C1130 C1135 1.399 . S
C1131 C1130 1.399 . S
C1131 C1132 1.376 . S
C1132 H1119 0.930 . S
C1132 C1131 1.376 . S
C1132 C1133 1.388 . S
C1133 H1120 0.930 . S
C1133 C1132 1.388 . S
C1133 C1134 1.390 . S
C1134 C1133 1.390 . S
C1134 C1135 1.394 . S
C1134 C1140 1.465 . S
C1135 C1130 1.399 . S
C1135 C1134 1.394 . S
C1135 C1136 1.516 . S
C1136 C1135 1.516 . S
C1136 C1137 1.502 . S
C1136 C1138 1.561 . S
C1136 C1139 1.526 . S
C1137 H1121 0.959 . S
C1137 H1122 0.959 . S
C1137 H1123 0.961 . S
C1137 C1136 1.502 . S
C1138 H1124 0.960 . S
C1138 H1125 0.961 . S
C1138 H1126 0.959 . S
C1138 C1136 1.561 . S
C1139 C1136 1.526 . S
C1139 C1140 1.396 . S
C1139 C1144 1.390 . S
C1140 C1134 1.465 . S
C1140 C1139 1.396 . S
C1140 C1141 1.399 . S
C1141 H1127 0.929 . S
C1141 C1140 1.399 . S
C1141 C1142 1.385 . S
C1142 H1128 0.931 . S
C1142 C1141 1.385 . S
C1142 C1143 1.389 . S
C1143 C1142 1.389 . S
C1143 C1144 1.387 . S
C1144 H1129 0.930 . S
C1144 C1139 1.390 . S
C1144 C1143 1.387 . S
H1145 C1157 0.930 . S
H1146 C1159 0.930 . S
H1147 C1160 0.930 . S
H1148 C1164 0.959 . S
H1149 C1164 0.959 . S
H1150 C1164 0.961 . S
H1151 C1165 0.960 . S
H1152 C1165 0.961 . S
H1153 C1165 0.959 . S
H1154 C1168 0.929 . S
H1155 C1169 0.931 . S
H1156 C1171 0.930 . S
C1157 H1145 0.930 . S
C1157 C1158 1.399 . S
C1157 C1162 1.399 . S
C1158 C1157 1.399 . S
C1158 C1159 1.376 . S
C1159 H1146 0.930 . S
C1159 C1158 1.376 . S
C1159 C1160 1.388 . S
C1160 H1147 0.930 . S
C1160 C1159 1.388 . S
C1160 C1161 1.390 . S
C1161 C1160 1.390 . S
C1161 C1162 1.394 . S
C1161 C1167 1.465 . S
C1162 C1157 1.399 . S
C1162 C1161 1.394 . S
C1162 C1163 1.516 . S
C1163 C1162 1.516 . S
C1163 C1164 1.502 . S
C1163 C1165 1.561 . S
C1163 C1166 1.526 . S
C1164 H1148 0.959 . S
C1164 H1149 0.959 . S
C1164 H1150 0.961 . S
C1164 C1163 1.502 . S
C1165 H1151 0.960 . S
C1165 H1152 0.961 . S
C1165 H1153 0.959 . S
C1165 C1163 1.561 . S
C1166 C1163 1.526 . S
C1166 C1167 1.396 . S
C1166 C1171 1.390 . S
C1167 C1161 1.465 . S
C1167 C1166 1.396 . S
C1167 C1168 1.399 . S
C1168 H1154 0.929 . S
C1168 C1167 1.399 . S
C1168 C1169 1.385 . S
C1169 H1155 0.931 . S
C1169 C1168 1.385 . S
C1169 C1170 1.389 . S
C1170 C1169 1.389 . S
C1170 C1171 1.387 . S
C1171 H1156 0.930 . S
C1171 C1166 1.390 . S
C1171 C1170 1.387 . S
H1172 C1184 0.930 . S
H1173 C1186 0.930 . S
H1174 C1187 0.930 . S
H1175 C1191 0.959 . S
H1176 C1191 0.959 . S
H1177 C1191 0.961 . S
H1178 C1192 0.960 . S
H1179 C1192 0.961 . S
H1180 C1192 0.959 . S
H1181 C1195 0.929 . S
H1182 C1196 0.931 . S
H1183 C1198 0.930 . S
C1184 H1172 0.930 . S
C1184 C1185 1.399 . S
C1184 C1189 1.399 . S
C1185 C1184 1.399 . S
C1185 C1186 1.376 . S
C1186 H1173 0.930 . S
C1186 C1185 1.376 . S
C1186 C1187 1.388 . S
C1187 H1174 0.930 . S
C1187 C1186 1.388 . S
C1187 C1188 1.390 . S
C1188 C1187 1.390 . S
C1188 C1189 1.394 . S
C1188 C1194 1.465 . S
C1189 C1184 1.399 . S
C1189 C1188 1.394 . S
C1189 C1190 1.516 . S
C1190 C1189 1.516 . S
C1190 C1191 1.502 . S
C1190 C1192 1.561 . S
C1190 C1193 1.526 . S
C1191 H1175 0.959 . S
C1191 H1176 0.959 . S
C1191 H1177 0.961 . S
C1191 C1190 1.502 . S
C1192 H1178 0.960 . S
C1192 H1179 0.961 . S
C1192 H1180 0.959 . S
C1192 C1190 1.561 . S
C1193 C1190 1.526 . S
C1193 C1194 1.396 . S
C1193 C1198 1.390 . S
C1194 C1188 1.465 . S
C1194 C1193 1.396 . S
C1194 C1195 1.399 . S
C1195 H1181 0.929 . S
C1195 C1194 1.399 . S
C1195 C1196 1.385 . S
C1196 H1182 0.931 . S
C1196 C1195 1.385 . S
C1196 C1197 1.389 . S
C1197 C1196 1.389 . S
C1197 C1198 1.387 . S
C1198 H1183 0.930 . S
C1198 C1193 1.390 . S
C1198 C1197 1.387 . S
H1199 C1211 0.930 . S
H1200 C1213 0.930 . S
H1201 C1214 0.930 . S
H1202 C1218 0.959 . S
H1203 C1218 0.959 . S
H1204 C1218 0.961 . S
H1205 C1219 0.960 . S
H1206 C1219 0.961 . S
H1207 C1219 0.959 . S
H1208 C1222 0.929 . S
H1209 C1223 0.931 . S
H1210 C1225 0.930 . S
C1211 H1199 0.930 . S
C1211 C1212 1.399 . S
C1211 C1216 1.399 . S
C1212 C1211 1.399 . S
C1212 C1213 1.376 . S
C1213 H1200 0.930 . S
C1213 C1212 1.376 . S
C1213 C1214 1.388 . S
C1214 H1201 0.930 . S
C1214 C1213 1.388 . S
C1214 C1215 1.390 . S
C1215 C1214 1.390 . S
C1215 C1216 1.394 . S
C1215 C1221 1.465 1_565 S
C1216 C1211 1.399 . S
C1216 C1215 1.394 . S
C1216 C1217 1.516 1_565 S
C1217 C1216 1.516 1_545 S
C1217 C1218 1.502 . S
C1217 C1219 1.561 1_545 S
C1217 C1220 1.526 . S
C1218 H1202 0.959 . S
C1218 H1203 0.959 . S
C1218 H1204 0.961 . S
C1218 C1217 1.502 . S
C1219 H1205 0.960 . S
C1219 H1206 0.961 . S
C1219 H1207 0.959 . S
C1219 C1217 1.561 1_565 S
C1220 C1217 1.526 . S
C1220 C1221 1.396 . S
C1220 C1225 1.390 . S
C1221 C1215 1.465 1_545 S
C1221 C1220 1.396 . S
C1221 C1222 1.399 . S
C1222 H1208 0.929 . S
C1222 C1221 1.399 . S
C1222 C1223 1.385 . S
C1223 H1209 0.931 . S
C1223 C1222 1.385 . S
C1223 C1224 1.389 . S
C1224 C1223 1.389 . S
C1224 C1225 1.387 . S
C1225 H1210 0.930 . S
C1225 C1220 1.390 . S
C1225 C1224 1.387 . S
H1226 C1238 0.930 . S
H1227 C1240 0.930 . S
H1228 C1241 0.930 . S
H1229 C1245 0.959 . S
H1230 C1245 0.959 . S
H1231 C1245 0.961 . S
H1232 C1246 0.960 . S
H1233 C1246 0.961 . S
H1234 C1246 0.959 . S
H1235 C1249 0.929 . S
H1236 C1250 0.931 . S
H1237 C1252 0.930 . S
C1238 H1226 0.930 . S
C1238 C1239 1.399 . S
C1238 C1243 1.399 . S
C1239 C1238 1.399 . S
C1239 C1240 1.376 . S
C1240 H1227 0.930 . S
C1240 C1239 1.376 . S
C1240 C1241 1.388 . S
C1241 H1228 0.930 . S
C1241 C1240 1.388 . S
C1241 C1242 1.390 . S
C1242 C1241 1.390 . S
C1242 C1243 1.394 . S
C1242 C1248 1.465 . S
C1243 C1238 1.399 . S
C1243 C1242 1.394 . S
C1243 C1244 1.516 . S
C1244 C1243 1.516 . S
C1244 C1245 1.502 . S
C1244 C1246 1.561 . S
C1244 C1247 1.526 . S
C1245 H1229 0.959 . S
C1245 H1230 0.959 . S
C1245 H1231 0.961 . S
C1245 C1244 1.502 . S
C1246 H1232 0.960 . S
C1246 H1233 0.961 . S
C1246 H1234 0.959 . S
C1246 C1244 1.561 . S
C1247 C1244 1.526 . S
C1247 C1248 1.396 . S
C1247 C1252 1.390 . S
C1248 C1242 1.465 . S
C1248 C1247 1.396 . S
C1248 C1249 1.399 . S
C1249 H1235 0.929 . S
C1249 C1248 1.399 . S
C1249 C1250 1.385 . S
C1250 H1236 0.931 . S
C1250 C1249 1.385 . S
C1250 C1251 1.389 . S
C1251 C1250 1.389 . S
C1251 C1252 1.387 . S
C1252 H1237 0.930 . S
C1252 C1247 1.390 . S
C1252 C1251 1.387 . S
H1253 C1265 0.930 . S
H1254 C1267 0.930 . S
H1255 C1268 0.930 . S
H1256 C1272 0.959 . S
H1257 C1272 0.959 . S
H1258 C1272 0.961 . S
H1259 C1273 0.960 1_554 S
H1260 C1273 0.961 . S
H1261 C1273 0.959 . S
H1262 C1276 0.929 . S
H1263 C1277 0.931 . S
H1264 C1279 0.930 . S
C1265 H1253 0.930 . S
C1265 C1266 1.399 . S
C1265 C1270 1.399 . S
C1266 C1265 1.399 . S
C1266 C1267 1.376 . S
C1267 H1254 0.930 . S
C1267 C1266 1.376 . S
C1267 C1268 1.388 1_554 S
C1268 H1255 0.930 . S
C1268 C1267 1.388 1_556 S
C1268 C1269 1.390 . S
C1269 C1268 1.390 . S
C1269 C1270 1.394 1_556 S
C1269 C1275 1.465 . S
C1270 C1265 1.399 . S
C1270 C1269 1.394 1_554 S
C1270 C1271 1.516 . S
C1271 C1270 1.516 . S
C1271 C1272 1.502 . S
C1271 C1273 1.561 1_554 S
C1271 C1274 1.526 1_554 S
C1272 H1256 0.959 . S
C1272 H1257 0.959 . S
C1272 H1258 0.961 . S
C1272 C1271 1.502 . S
C1273 H1259 0.960 1_556 S
C1273 H1260 0.961 . S
C1273 H1261 0.959 . S
C1273 C1271 1.561 1_556 S
C1274 C1271 1.526 1_556 S
C1274 C1275 1.396 . S
C1274 C1279 1.390 . S
C1275 C1269 1.465 . S
C1275 C1274 1.396 . S
C1275 C1276 1.399 . S
C1276 H1262 0.929 . S
C1276 C1275 1.399 . S
C1276 C1277 1.385 . S
C1277 H1263 0.931 . S
C1277 C1276 1.385 . S
C1277 C1278 1.389 . S
C1278 C1277 1.389 . S
C1278 C1279 1.387 . S
C1279 H1264 0.930 . S
C1279 C1274 1.390 . S
C1279 C1278 1.387 . S
H1280 C1292 0.930 . S
H1281 C1294 0.930 . S
H1282 C1295 0.930 . S
H1283 C1299 0.959 . S
H1284 C1299 0.959 . S
H1285 C1299 0.961 . S
H1286 C1300 0.960 . S
H1287 C1300 0.961 . S
H1288 C1300 0.959 . S
H1289 C1303 0.929 . S
H1290 C1304 0.931 . S
H1291 C1306 0.930 . S
C1292 H1280 0.930 . S
C1292 C1293 1.399 . S
C1292 C1297 1.399 . S
C1293 C1292 1.399 . S
C1293 C1294 1.376 . S
C1294 H1281 0.930 . S
C1294 C1293 1.376 . S
C1294 C1295 1.388 . S
C1295 H1282 0.930 . S
C1295 C1294 1.388 . S
C1295 C1296 1.390 . S
C1296 C1295 1.390 . S
C1296 C1297 1.394 . S
C1296 C1302 1.465 . S
C1297 C1292 1.399 . S
C1297 C1296 1.394 . S
C1297 C1298 1.516 . S
C1298 C1297 1.516 . S
C1298 C1299 1.502 . S
C1298 C1300 1.561 . S
C1298 C1301 1.526 . S
C1299 H1283 0.959 . S
C1299 H1284 0.959 . S
C1299 H1285 0.961 . S
C1299 C1298 1.502 . S
C1300 H1286 0.960 . S
C1300 H1287 0.961 . S
C1300 H1288 0.959 . S
C1300 C1298 1.561 . S
C1301 C1298 1.526 . S
C1301 C1302 1.396 . S
C1301 C1306 1.390 . S
C1302 C1296 1.465 . S
C1302 C1301 1.396 . S
C1302 C1303 1.399 . S
C1303 H1289 0.929 . S
C1303 C1302 1.399 . S
C1303 C1304 1.385 . S
C1304 H1290 0.931 . S
C1304 C1303 1.385 . S
C1304 C1305 1.389 . S
C1305 C1304 1.389 . S
C1305 C1306 1.387 . S
C1306 H1291 0.930 . S
C1306 C1301 1.390 . S
C1306 C1305 1.387 . S
H1307 C1319 0.930 . S
H1308 C1321 0.930 . S
H1309 C1322 0.930 . S
H1310 C1326 0.959 . S
H1311 C1326 0.959 . S
H1312 C1326 0.961 . S
H1313 C1327 0.960 . S
H1314 C1327 0.961 . S
H1315 C1327 0.959 . S
H1316 C1330 0.929 . S
H1317 C1331 0.931 . S
H1318 C1333 0.930 . S
C1319 H1307 0.930 . S
C1319 C1320 1.399 . S
C1319 C1324 1.399 . S
C1320 C1319 1.399 . S
C1320 C1321 1.376 . S
C1321 H1308 0.930 . S
C1321 C1320 1.376 . S
C1321 C1322 1.388 . S
C1322 H1309 0.930 . S
C1322 C1321 1.388 . S
C1322 C1323 1.390 . S
C1323 C1322 1.390 . S
C1323 C1324 1.394 . S
C1323 C1329 1.465 . S
C1324 C1319 1.399 . S
C1324 C1323 1.394 . S
C1324 C1325 1.516 . S
C1325 C1324 1.516 . S
C1325 C1326 1.502 . S
C1325 C1327 1.561 . S
C1325 C1328 1.526 . S
C1326 H1310 0.959 . S
C1326 H1311 0.959 . S
C1326 H1312 0.961 . S
C1326 C1325 1.502 . S
C1327 H1313 0.960 . S
C1327 H1314 0.961 . S
C1327 H1315 0.959 . S
C1327 C1325 1.561 . S
C1328 C1325 1.526 . S
C1328 C1329 1.396 . S
C1328 C1333 1.390 . S
C1329 C1323 1.465 . S
C1329 C1328 1.396 . S
C1329 C1330 1.399 . S
C1330 H1316 0.929 . S
C1330 C1329 1.399 . S
C1330 C1331 1.385 . S
C1331 H1317 0.931 . S
C1331 C1330 1.385 . S
C1331 C1332 1.389 . S
C1332 C1331 1.389 . S
C1332 C1333 1.387 . S
C1333 H1318 0.930 . S
C1333 C1328 1.390 . S
C1333 C1332 1.387 . S
H1334 C1346 0.930 . S
H1335 C1348 0.930 1_545 S
H1336 C1349 0.930 . S
H1337 C1353 0.959 . S
H1338 C1353 0.959 . S
H1339 C1353 0.961 . S
H1340 C1354 0.960 . S
H1341 C1354 0.961 . S
H1342 C1354 0.959 . S
H1343 C1357 0.929 . S
H1344 C1358 0.931 . S
H1345 C1360 0.930 . S
C1346 H1334 0.930 . S
C1346 C1347 1.399 . S
C1346 C1351 1.399 . S
C1347 C1346 1.399 . S
C1347 C1348 1.376 . S
C1348 H1335 0.930 1_565 S
C1348 C1347 1.376 . S
C1348 C1349 1.388 . S
C1349 H1336 0.930 . S
C1349 C1348 1.388 . S
C1349 C1350 1.390 . S
C1350 C1349 1.390 . S
C1350 C1351 1.394 . S
C1350 C1356 1.465 . S
C1351 C1346 1.399 . S
C1351 C1350 1.394 . S
C1351 C1352 1.516 . S
C1352 C1351 1.516 . S
C1352 C1353 1.502 . S
C1352 C1354 1.561 . S
C1352 C1355 1.526 . S
C1353 H1337 0.959 . S
C1353 H1338 0.959 . S
C1353 H1339 0.961 . S
C1353 C1352 1.502 . S
C1354 H1340 0.960 . S
C1354 H1341 0.961 . S
C1354 H1342 0.959 . S
C1354 C1352 1.561 . S
C1355 C1352 1.526 . S
C1355 C1356 1.396 . S
C1355 C1360 1.390 . S
C1356 C1350 1.465 . S
C1356 C1355 1.396 . S
C1356 C1357 1.399 . S
C1357 H1343 0.929 . S
C1357 C1356 1.399 . S
C1357 C1358 1.385 . S
C1358 H1344 0.931 . S
C1358 C1357 1.385 . S
C1358 C1359 1.389 . S
C1359 C1358 1.389 . S
C1359 C1360 1.387 . S
C1360 H1345 0.930 . S
C1360 C1355 1.390 . S
C1360 C1359 1.387 . S
H1361 C1373 0.930 . S
H1362 C1375 0.930 . S
H1363 C1376 0.930 . S
H1364 C1380 0.959 . S
H1365 C1380 0.959 . S
H1366 C1380 0.961 . S
H1367 C1381 0.960 . S
H1368 C1381 0.961 . S
H1369 C1381 0.959 . S
H1370 C1384 0.929 . S
H1371 C1385 0.931 . S
H1372 C1387 0.930 . S
C1373 H1361 0.930 . S
C1373 C1374 1.399 . S
C1373 C1378 1.399 . S
C1374 C1373 1.399 . S
C1374 C1375 1.376 . S
C1375 H1362 0.930 . S
C1375 C1374 1.376 . S
C1375 C1376 1.388 . S
C1376 H1363 0.930 . S
C1376 C1375 1.388 . S
C1376 C1377 1.390 . S
C1377 C1376 1.390 . S
C1377 C1378 1.394 . S
C1377 C1383 1.465 . S
C1378 C1373 1.399 . S
C1378 C1377 1.394 . S
C1378 C1379 1.516 . S
C1379 C1378 1.516 . S
C1379 C1380 1.502 . S
C1379 C1381 1.561 . S
C1379 C1382 1.526 . S
C1380 H1364 0.959 . S
C1380 H1365 0.959 . S
C1380 H1366 0.961 . S
C1380 C1379 1.502 . S
C1381 H1367 0.960 . S
C1381 H1368 0.961 . S
C1381 H1369 0.959 . S
C1381 C1379 1.561 . S
C1382 C1379 1.526 . S
C1382 C1383 1.396 . S
C1382 C1387 1.390 . S
C1383 C1377 1.465 . S
C1383 C1382 1.396 . S
C1383 C1384 1.399 . S
C1384 H1370 0.929 . S
C1384 C1383 1.399 . S
C1384 C1385 1.385 . S
C1385 H1371 0.931 . S
C1385 C1384 1.385 . S
C1385 C1386 1.389 . S
C1386 C1385 1.389 . S
C1386 C1387 1.387 . S
C1387 H1372 0.930 . S
C1387 C1382 1.390 . S
C1387 C1386 1.387 . S
H1388 C1400 0.930 . S
H1389 C1402 0.930 . S
H1390 C1403 0.930 . S
H1391 C1407 0.959 . S
H1392 C1407 0.959 . S
H1393 C1407 0.961 . S
H1394 C1408 0.960 . S
H1395 C1408 0.961 . S
H1396 C1408 0.959 . S
H1397 C1411 0.929 . S
H1398 C1412 0.931 . S
H1399 C1414 0.930 . S
C1400 H1388 0.930 . S
C1400 C1401 1.399 . S
C1400 C1405 1.399 . S
C1401 C1400 1.399 . S
C1401 C1402 1.376 . S
C1402 H1389 0.930 . S
C1402 C1401 1.376 . S
C1402 C1403 1.388 . S
C1403 H1390 0.930 . S
C1403 C1402 1.388 . S
C1403 C1404 1.390 . S
C1404 C1403 1.390 . S
C1404 C1405 1.394 . S
C1404 C1410 1.465 . S
C1405 C1400 1.399 . S
C1405 C1404 1.394 . S
C1405 C1406 1.516 . S
C1406 C1405 1.516 . S
C1406 C1407 1.502 . S
C1406 C1408 1.561 . S
C1406 C1409 1.526 . S
C1407 H1391 0.959 . S
C1407 H1392 0.959 . S
C1407 H1393 0.961 . S
C1407 C1406 1.502 . S
C1408 H1394 0.960 . S
C1408 H1395 0.961 . S
C1408 H1396 0.959 . S
C1408 C1406 1.561 . S
C1409 C1406 1.526 . S
C1409 C1410 1.396 . S
C1409 C1414 1.390 . S
C1410 C1404 1.465 . S
C1410 C1409 1.396 . S
C1410 C1411 1.399 . S
C1411 H1397 0.929 . S
C1411 C1410 1.399 . S
C1411 C1412 1.385 . S
C1412 H1398 0.931 . S
C1412 C1411 1.385 . S
C1412 C1413 1.389 . S
C1413 C1412 1.389 . S
C1413 C1414 1.387 . S
C1414 H1399 0.930 . S
C1414 C1409 1.390 . S
C1414 C1413 1.387 . S
H1415 C1427 0.930 . S
H1416 C1429 0.930 1_565 S
H1417 C1430 0.930 . S
H1418 C1434 0.959 . S
H1419 C1434 0.959 . S
H1420 C1434 0.961 . S
H1421 C1435 0.960 . S
H1422 C1435 0.961 . S
H1423 C1435 0.959 . S
H1424 C1438 0.929 . S
H1425 C1439 0.931 . S
H1426 C1441 0.930 . S
C1427 H1415 0.930 . S
C1427 C1428 1.399 . S
C1427 C1432 1.399 . S
C1428 C1427 1.399 . S
C1428 C1429 1.376 . S
C1429 H1416 0.930 1_545 S
C1429 C1428 1.376 . S
C1429 C1430 1.388 . S
C1430 H1417 0.930 . S
C1430 C1429 1.388 . S
C1430 C1431 1.390 . S
C1431 C1430 1.390 . S
C1431 C1432 1.394 . S
C1431 C1437 1.465 . S
C1432 C1427 1.399 . S
C1432 C1431 1.394 . S
C1432 C1433 1.516 . S
C1433 C1432 1.516 . S
C1433 C1434 1.502 . S
C1433 C1435 1.561 . S
C1433 C1436 1.526 . S
C1434 H1418 0.959 . S
C1434 H1419 0.959 . S
C1434 H1420 0.961 . S
C1434 C1433 1.502 . S
C1435 H1421 0.960 . S
C1435 H1422 0.961 . S
C1435 H1423 0.959 . S
C1435 C1433 1.561 . S
C1436 C1433 1.526 . S
C1436 C1437 1.396 . S
C1436 C1441 1.390 . S
C1437 C1431 1.465 . S
C1437 C1436 1.396 . S
C1437 C1438 1.399 . S
C1438 H1424 0.929 . S
C1438 C1437 1.399 . S
C1438 C1439 1.385 . S
C1439 H1425 0.931 . S
C1439 C1438 1.385 . S
C1439 C1440 1.389 . S
C1440 C1439 1.389 . S
C1440 C1441 1.387 . S
C1441 H1426 0.930 . S
C1441 C1436 1.390 . S
C1441 C1440 1.387 . S
H1442 C1454 0.930 . S
H1443 C1456 0.930 . S
H1444 C1457 0.930 . S
H1445 C1461 0.959 . S
H1446 C1461 0.959 . S
H1447 C1461 0.961 . S
H1448 C1462 0.960 . S
H1449 C1462 0.961 . S
H1450 C1462 0.959 . S
H1451 C1465 0.929 . S
H1452 C1466 0.931 1_565 S
H1453 C1468 0.930 . S
C1454 H1442 0.930 . S
C1454 C1455 1.399 . S
C1454 C1459 1.399 . S
C1455 C1454 1.399 . S
C1455 C1456 1.376 . S
C1456 H1443 0.930 . S
C1456 C1455 1.376 . S
C1456 C1457 1.388 . S
C1457 H1444 0.930 . S
C1457 C1456 1.388 . S
C1457 C1458 1.390 . S
C1458 C1457 1.390 . S
C1458 C1459 1.394 . S
C1458 C1464 1.465 . S
C1459 C1454 1.399 . S
C1459 C1458 1.394 . S
C1459 C1460 1.516 . S
C1460 C1459 1.516 . S
C1460 C1461 1.502 . S
C1460 C1462 1.561 . S
C1460 C1463 1.526 . S
C1461 H1445 0.959 . S
C1461 H1446 0.959 . S
C1461 H1447 0.961 . S
C1461 C1460 1.502 . S
C1462 H1448 0.960 . S
C1462 H1449 0.961 . S
C1462 H1450 0.959 . S
C1462 C1460 1.561 . S
C1463 C1460 1.526 . S
C1463 C1464 1.396 . S
C1463 C1468 1.390 . S
C1464 C1458 1.465 . S
C1464 C1463 1.396 . S
C1464 C1465 1.399 . S
C1465 H1451 0.929 . S
C1465 C1464 1.399 . S
C1465 C1466 1.385 . S
C1466 H1452 0.931 1_545 S
C1466 C1465 1.385 . S
C1466 C1467 1.389 . S
C1467 C1466 1.389 . S
C1467 C1468 1.387 . S
C1468 H1453 0.930 . S
C1468 C1463 1.390 . S
C1468 C1467 1.387 . S
H1469 C1481 0.930 . S
H1470 C1483 0.930 . S
H1471 C1484 0.930 . S
H1472 C1488 0.959 . S
H1473 C1488 0.959 . S
H1474 C1488 0.961 . S
H1475 C1489 0.960 . S
H1476 C1489 0.961 . S
H1477 C1489 0.959 . S
H1478 C1492 0.929 . S
H1479 C1493 0.931 . S
H1480 C1495 0.930 . S
C1481 H1469 0.930 . S
C1481 C1482 1.399 . S
C1481 C1486 1.399 . S
C1482 C1481 1.399 . S
C1482 C1483 1.376 . S
C1483 H1470 0.930 . S
C1483 C1482 1.376 . S
C1483 C1484 1.388 . S
C1484 H1471 0.930 . S
C1484 C1483 1.388 . S
C1484 C1485 1.390 . S
C1485 C1484 1.390 . S
C1485 C1486 1.394 . S
C1485 C1491 1.465 . S
C1486 C1481 1.399 . S
C1486 C1485 1.394 . S
C1486 C1487 1.516 . S
C1487 C1486 1.516 . S
C1487 C1488 1.502 . S
C1487 C1489 1.561 . S
C1487 C1490 1.526 . S
C1488 H1472 0.959 . S
C1488 H1473 0.959 . S
C1488 H1474 0.961 . S
C1488 C1487 1.502 . S
C1489 H1475 0.960 . S
C1489 H1476 0.961 . S
C1489 H1477 0.959 . S
C1489 C1487 1.561 . S
C1490 C1487 1.526 . S
C1490 C1491 1.396 . S
C1490 C1495 1.390 . S
C1491 C1485 1.465 . S
C1491 C1490 1.396 . S
C1491 C1492 1.399 . S
C1492 H1478 0.929 . S
C1492 C1491 1.399 . S
C1492 C1493 1.385 . S
C1493 H1479 0.931 . S
C1493 C1492 1.385 . S
C1493 C1494 1.389 . S
C1494 C1493 1.389 . S
C1494 C1495 1.387 . S
C1495 H1480 0.930 . S
C1495 C1490 1.390 . S
C1495 C1494 1.387 . S
H1496 C1508 0.930 . S
H1497 C1510 0.930 . S
H1498 C1511 0.930 . S
H1499 C1515 0.959 . S
H1500 C1515 0.959 . S
H1501 C1515 0.961 . S
H1502 C1516 0.960 . S
H1503 C1516 0.961 . S
H1504 C1516 0.959 . S
H1505 C1519 0.929 . S
H1506 C1520 0.931 . S
H1507 C1522 0.930 . S
C1508 H1496 0.930 . S
C1508 C1509 1.399 . S
C1508 C1513 1.399 . S
C1509 C1508 1.399 . S
C1509 C1510 1.376 . S
C1510 H1497 0.930 . S
C1510 C1509 1.376 . S
C1510 C1511 1.388 . S
C1511 H1498 0.930 . S
C1511 C1510 1.388 . S
C1511 C1512 1.390 . S
C1512 C1511 1.390 . S
C1512 C1513 1.394 . S
C1512 C1518 1.465 . S
C1513 C1508 1.399 . S
C1513 C1512 1.394 . S
C1513 C1514 1.516 . S
C1514 C1513 1.516 . S
C1514 C1515 1.502 . S
C1514 C1516 1.561 . S
C1514 C1517 1.526 . S
C1515 H1499 0.959 . S
C1515 H1500 0.959 . S
C1515 H1501 0.961 . S
C1515 C1514 1.502 . S
C1516 H1502 0.960 . S
C1516 H1503 0.961 . S
C1516 H1504 0.959 . S
C1516 C1514 1.561 . S
C1517 C1514 1.526 . S
C1517 C1518 1.396 . S
C1517 C1522 1.390 . S
C1518 C1512 1.465 . S
C1518 C1517 1.396 . S
C1518 C1519 1.399 . S
C1519 H1505 0.929 . S
C1519 C1518 1.399 . S
C1519 C1520 1.385 . S
C1520 H1506 0.931 . S
C1520 C1519 1.385 . S
C1520 C1521 1.389 . S
C1521 C1520 1.389 . S
C1521 C1522 1.387 . S
C1522 H1507 0.930 . S
C1522 C1517 1.390 . S
C1522 C1521 1.387 . S
H1523 C1535 0.930 . S
H1524 C1537 0.930 . S
H1525 C1538 0.930 . S
H1526 C1542 0.959 . S
H1527 C1542 0.959 . S
H1528 C1542 0.961 . S
H1529 C1543 0.960 . S
H1530 C1543 0.961 . S
H1531 C1543 0.959 . S
H1532 C1546 0.929 . S
H1533 C1547 0.931 . S
H1534 C1549 0.930 . S
C1535 H1523 0.930 . S
C1535 C1536 1.399 . S
C1535 C1540 1.399 . S
C1536 C1535 1.399 . S
C1536 C1537 1.376 . S
C1537 H1524 0.930 . S
C1537 C1536 1.376 . S
C1537 C1538 1.388 . S
C1538 H1525 0.930 . S
C1538 C1537 1.388 . S
C1538 C1539 1.390 . S
C1539 C1538 1.390 . S
C1539 C1540 1.394 . S
C1539 C1545 1.465 . S
C1540 C1535 1.399 . S
C1540 C1539 1.394 . S
C1540 C1541 1.516 . S
C1541 C1540 1.516 . S
C1541 C1542 1.502 . S
C1541 C1543 1.561 . S
C1541 C1544 1.526 . S
C1542 H1526 0.959 . S
C1542 H1527 0.959 . S
C1542 H1528 0.961 . S
C1542 C1541 1.502 . S
C1543 H1529 0.960 . S
C1543 H1530 0.961 . S
C1543 H1531 0.959 . S
C1543 C1541 1.561 . S
C1544 C1541 1.526 . S
C1544 C1545 1.396 . S
C1544 C1549 1.390 . S
C1545 C1539 1.465 . S
C1545 C1544 1.396 . S
C1545 C1546 1.399 . S
C1546 H1532 0.929 . S
C1546 C1545 1.399 . S
C1546 C1547 1.385 . S
C1547 H1533 0.931 . S
C1547 C1546 1.385 . S
C1547 C1548 1.389 . S
C1548 C1547 1.389 . S
C1548 C1549 1.387 . S
C1549 H1534 0.930 . S
C1549 C1544 1.390 . S
C1549 C1548 1.387 . S
H1550 C1562 0.930 . S
H1551 C1564 0.930 . S
H1552 C1565 0.930 . S
H1553 C1569 0.959 . S
H1554 C1569 0.959 . S
H1555 C1569 0.961 . S
H1556 C1570 0.960 . S
H1557 C1570 0.961 . S
H1558 C1570 0.959 . S
H1559 C1573 0.929 . S
H1560 C1574 0.931 . S
H1561 C1576 0.930 . S
C1562 H1550 0.930 . S
C1562 C1563 1.399 . S
C1562 C1567 1.399 . S
C1563 C1562 1.399 . S
C1563 C1564 1.376 . S
C1564 H1551 0.930 . S
C1564 C1563 1.376 . S
C1564 C1565 1.388 . S
C1565 H1552 0.930 . S
C1565 C1564 1.388 . S
C1565 C1566 1.390 . S
C1566 C1565 1.390 . S
C1566 C1567 1.394 . S
C1566 C1572 1.465 . S
C1567 C1562 1.399 . S
C1567 C1566 1.394 . S
C1567 C1568 1.516 . S
C1568 C1567 1.516 . S
C1568 C1569 1.502 . S
C1568 C1570 1.561 . S
C1568 C1571 1.526 . S
C1569 H1553 0.959 . S
C1569 H1554 0.959 . S
C1569 H1555 0.961 . S
C1569 C1568 1.502 . S
C1570 H1556 0.960 . S
C1570 H1557 0.961 . S
C1570 H1558 0.959 . S
C1570 C1568 1.561 . S
C1571 C1568 1.526 . S
C1571 C1572 1.396 . S
C1571 C1576 1.390 . S
C1572 C1566 1.465 . S
C1572 C1571 1.396 . S
C1572 C1573 1.399 . S
C1573 H1559 0.929 . S
C1573 C1572 1.399 . S
C1573 C1574 1.385 . S
C1574 H1560 0.931 . S
C1574 C1573 1.385 . S
C1574 C1575 1.389 . S
C1575 C1574 1.389 . S
C1575 C1576 1.387 . S
C1576 H1561 0.930 . S
C1576 C1571 1.390 . S
C1576 C1575 1.387 . S
H1577 C1589 0.930 . S
H1578 C1591 0.930 . S
H1579 C1592 0.930 . S
H1580 C1596 0.959 . S
H1581 C1596 0.959 . S
H1582 C1596 0.961 . S
H1583 C1597 0.960 . S
H1584 C1597 0.961 . S
H1585 C1597 0.959 . S
H1586 C1600 0.929 . S
H1587 C1601 0.931 . S
H1588 C1603 0.930 . S
C1589 H1577 0.930 . S
C1589 C1590 1.399 . S
C1589 C1594 1.399 . S
C1590 C1589 1.399 . S
C1590 C1591 1.376 . S
C1591 H1578 0.930 . S
C1591 C1590 1.376 . S
C1591 C1592 1.388 . S
C1592 H1579 0.930 . S
C1592 C1591 1.388 . S
C1592 C1593 1.390 . S
C1593 C1592 1.390 . S
C1593 C1594 1.394 . S
C1593 C1599 1.465 . S
C1594 C1589 1.399 . S
C1594 C1593 1.394 . S
C1594 C1595 1.516 . S
C1595 C1594 1.516 . S
C1595 C1596 1.502 . S
C1595 C1597 1.561 . S
C1595 C1598 1.526 . S
C1596 H1580 0.959 . S
C1596 H1581 0.959 . S
C1596 H1582 0.961 . S
C1596 C1595 1.502 . S
C1597 H1583 0.960 . S
C1597 H1584 0.961 . S
C1597 H1585 0.959 . S
C1597 C1595 1.561 . S
C1598 C1595 1.526 . S
C1598 C1599 1.396 . S
C1598 C1603 1.390 . S
C1599 C1593 1.465 . S
C1599 C1598 1.396 . S
C1599 C1600 1.399 . S
C1600 H1586 0.929 . S
C1600 C1599 1.399 . S
C1600 C1601 1.385 . S
C1601 H1587 0.931 . S
C1601 C1600 1.385 . S
C1601 C1602 1.389 . S
C1602 C1601 1.389 . S
C1602 C1603 1.387 . S
C1603 H1588 0.930 . S
C1603 C1598 1.390 . S
C1603 C1602 1.387 . S
H1604 C1616 0.930 . S
H1605 C1618 0.930 . S
H1606 C1619 0.930 . S
H1607 C1623 0.959 . S
H1608 C1623 0.959 . S
H1609 C1623 0.961 . S
H1610 C1624 0.960 . S
H1611 C1624 0.961 . S
H1612 C1624 0.959 . S
H1613 C1627 0.929 . S
H1614 C1628 0.931 . S
H1615 C1630 0.930 . S
C1616 H1604 0.930 . S
C1616 C1617 1.399 . S
C1616 C1621 1.399 . S
C1617 C1616 1.399 . S
C1617 C1618 1.376 . S
C1618 H1605 0.930 . S
C1618 C1617 1.376 . S
C1618 C1619 1.388 . S
C1619 H1606 0.930 . S
C1619 C1618 1.388 . S
C1619 C1620 1.390 . S
C1620 C1619 1.390 . S
C1620 C1621 1.394 . S
C1620 C1626 1.465 . S
C1621 C1616 1.399 . S
C1621 C1620 1.394 . S
C1621 C1622 1.516 . S
C1622 C1621 1.516 . S
C1622 C1623 1.502 . S
C1622 C1624 1.561 . S
C1622 C1625 1.526 . S
C1623 H1607 0.959 . S
C1623 H1608 0.959 . S
C1623 H1609 0.961 . S
C1623 C1622 1.502 . S
C1624 H1610 0.960 . S
C1624 H1611 0.961 . S
C1624 H1612 0.959 . S
C1624 C1622 1.561 . S
C1625 C1622 1.526 . S
C1625 C1626 1.396 . S
C1625 C1630 1.390 . S
C1626 C1620 1.465 . S
C1626 C1625 1.396 . S
C1626 C1627 1.399 . S
C1627 H1613 0.929 . S
C1627 C1626 1.399 . S
C1627 C1628 1.385 . S
C1628 H1614 0.931 . S
C1628 C1627 1.385 . S
C1628 C1629 1.389 . S
C1629 C1628 1.389 . S
C1629 C1630 1.387 . S
C1630 H1615 0.930 . S
C1630 C1625 1.390 . S
C1630 C1629 1.387 . S
H1631 C1643 0.930 . S
H1632 C1645 0.930 1_565 S
H1633 C1646 0.930 . S
H1634 C1650 0.959 . S
H1635 C1650 0.959 . S
H1636 C1650 0.961 . S
H1637 C1651 0.960 . S
H1638 C1651 0.961 . S
H1639 C1651 0.959 . S
H1640 C1654 0.929 . S
H1641 C1655 0.931 . S
H1642 C1657 0.930 . S
C1643 H1631 0.930 . S
C1643 C1644 1.399 . S
C1643 C1648 1.399 . S
C1644 C1643 1.399 . S
C1644 C1645 1.376 . S
C1645 H1632 0.930 1_545 S
C1645 C1644 1.376 . S
C1645 C1646 1.388 . S
C1646 H1633 0.930 . S
C1646 C1645 1.388 . S
C1646 C1647 1.390 . S
C1647 C1646 1.390 . S
C1647 C1648 1.394 . S
C1647 C1653 1.465 . S
C1648 C1643 1.399 . S
C1648 C1647 1.394 . S
C1648 C1649 1.516 . S
C1649 C1648 1.516 . S
C1649 C1650 1.502 . S
C1649 C1651 1.561 . S
C1649 C1652 1.526 . S
C1650 H1634 0.959 . S
C1650 H1635 0.959 . S
C1650 H1636 0.961 . S
C1650 C1649 1.502 . S
C1651 H1637 0.960 . S
C1651 H1638 0.961 . S
C1651 H1639 0.959 . S
C1651 C1649 1.561 . S
C1652 C1649 1.526 . S
C1652 C1653 1.396 . S
C1652 C1657 1.390 . S
C1653 C1647 1.465 . S
C1653 C1652 1.396 . S
C1653 C1654 1.399 . S
C1654 H1640 0.929 . S
C1654 C1653 1.399 . S
C1654 C1655 1.385 . S
C1655 H1641 0.931 . S
C1655 C1654 1.385 . S
C1655 C1656 1.389 . S
C1656 C1655 1.389 . S
C1656 C1657 1.387 . S
C1657 H1642 0.930 . S
C1657 C1652 1.390 . S
C1657 C1656 1.387 . S
H1658 C1670 0.930 . S
H1659 C1672 0.930 . S
H1660 C1673 0.930 . S
H1661 C1677 0.959 . S
H1662 C1677 0.959 . S
H1663 C1677 0.961 . S
H1664 C1678 0.960 . S
H1665 C1678 0.961 . S
H1666 C1678 0.959 . S
H1667 C1681 0.929 . S
H1668 C1682 0.931 1_565 S
H1669 C1684 0.930 . S
C1670 H1658 0.930 . S
C1670 C1671 1.399 . S
C1670 C1675 1.399 . S
C1671 C1670 1.399 . S
C1671 C1672 1.376 . S
C1672 H1659 0.930 . S
C1672 C1671 1.376 . S
C1672 C1673 1.388 . S
C1673 H1660 0.930 . S
C1673 C1672 1.388 . S
C1673 C1674 1.390 . S
C1674 C1673 1.390 . S
C1674 C1675 1.394 . S
C1674 C1680 1.465 . S
C1675 C1670 1.399 . S
C1675 C1674 1.394 . S
C1675 C1676 1.516 . S
C1676 C1675 1.516 . S
C1676 C1677 1.502 . S
C1676 C1678 1.561 . S
C1676 C1679 1.526 . S
C1677 H1661 0.959 . S
C1677 H1662 0.959 . S
C1677 H1663 0.961 . S
C1677 C1676 1.502 . S
C1678 H1664 0.960 . S
C1678 H1665 0.961 . S
C1678 H1666 0.959 . S
C1678 C1676 1.561 . S
C1679 C1676 1.526 . S
C1679 C1680 1.396 . S
C1679 C1684 1.390 . S
C1680 C1674 1.465 . S
C1680 C1679 1.396 . S
C1680 C1681 1.399 . S
C1681 H1667 0.929 . S
C1681 C1680 1.399 . S
C1681 C1682 1.385 . S
C1682 H1668 0.931 1_545 S
C1682 C1681 1.385 . S
C1682 C1683 1.389 . S
C1683 C1682 1.389 . S
C1683 C1684 1.387 . S
C1684 H1669 0.930 . S
C1684 C1679 1.390 . S
C1684 C1683 1.387 . S
H1685 C1697 0.930 . S
H1686 C1699 0.930 . S
H1687 C1700 0.930 . S
H1688 C1704 0.959 . S
H1689 C1704 0.959 . S
H1690 C1704 0.961 . S
H1691 C1705 0.960 . S
H1692 C1705 0.961 . S
H1693 C1705 0.959 . S
H1694 C1708 0.929 . S
H1695 C1709 0.931 . S
H1696 C1711 0.930 . S
C1697 H1685 0.930 . S
C1697 C1698 1.399 . S
C1697 C1702 1.399 . S
C1698 C1697 1.399 . S
C1698 C1699 1.376 . S
C1699 H1686 0.930 . S
C1699 C1698 1.376 . S
C1699 C1700 1.388 . S
C1700 H1687 0.930 . S
C1700 C1699 1.388 . S
C1700 C1701 1.390 . S
C1701 C1700 1.390 . S
C1701 C1702 1.394 . S
C1701 C1707 1.465 . S
C1702 C1697 1.399 . S
C1702 C1701 1.394 . S
C1702 C1703 1.516 . S
C1703 C1702 1.516 . S
C1703 C1704 1.502 . S
C1703 C1705 1.561 . S
C1703 C1706 1.526 . S
C1704 H1688 0.959 . S
C1704 H1689 0.959 . S
C1704 H1690 0.961 . S
C1704 C1703 1.502 . S
C1705 H1691 0.960 . S
C1705 H1692 0.961 . S
C1705 H1693 0.959 . S
C1705 C1703 1.561 . S
C1706 C1703 1.526 . S
C1706 C1707 1.396 . S
C1706 C1711 1.390 . S
C1707 C1701 1.465 . S
C1707 C1706 1.396 . S
C1707 C1708 1.399 . S
C1708 H1694 0.929 . S
C1708 C1707 1.399 . S
C1708 C1709 1.385 . S
C1709 H1695 0.931 . S
C1709 C1708 1.385 . S
C1709 C1710 1.389 . S
C1710 C1709 1.389 . S
C1710 C1711 1.387 . S
C1711 H1696 0.930 . S
C1711 C1706 1.390 . S
C1711 C1710 1.387 . S
H1712 C1724 0.930 . S
H1713 C1726 0.930 . S
H1714 C1727 0.930 . S
H1715 C1731 0.959 . S
H1716 C1731 0.959 . S
H1717 C1731 0.961 . S
H1718 C1732 0.960 . S
H1719 C1732 0.961 . S
H1720 C1732 0.959 . S
H1721 C1735 0.929 . S
H1722 C1736 0.931 . S
H1723 C1738 0.930 . S
C1724 H1712 0.930 . S
C1724 C1725 1.399 . S
C1724 C1729 1.399 . S
C1725 C1724 1.399 . S
C1725 C1726 1.376 . S
C1726 H1713 0.930 . S
C1726 C1725 1.376 . S
C1726 C1727 1.388 . S
C1727 H1714 0.930 . S
C1727 C1726 1.388 . S
C1727 C1728 1.390 . S
C1728 C1727 1.390 . S
C1728 C1729 1.394 . S
C1728 C1734 1.465 . S
C1729 C1724 1.399 . S
C1729 C1728 1.394 . S
C1729 C1730 1.516 . S
C1730 C1729 1.516 . S
C1730 C1731 1.502 . S
C1730 C1732 1.561 . S
C1730 C1733 1.526 . S
C1731 H1715 0.959 . S
C1731 H1716 0.959 . S
C1731 H1717 0.961 . S
C1731 C1730 1.502 . S
C1732 H1718 0.960 . S
C1732 H1719 0.961 . S
C1732 H1720 0.959 . S
C1732 C1730 1.561 . S
C1733 C1730 1.526 . S
C1733 C1734 1.396 . S
C1733 C1738 1.390 . S
C1734 C1728 1.465 . S
C1734 C1733 1.396 . S
C1734 C1735 1.399 . S
C1735 H1721 0.929 . S
C1735 C1734 1.399 . S
C1735 C1736 1.385 . S
C1736 H1722 0.931 . S
C1736 C1735 1.385 . S
C1736 C1737 1.389 . S
C1737 C1736 1.389 . S
C1737 C1738 1.387 . S
C1738 H1723 0.930 . S
C1738 C1733 1.390 . S
C1738 C1737 1.387 . S
H1739 C1751 0.930 . S
H1740 C1753 0.930 . S
H1741 C1754 0.930 . S
H1742 C1758 0.959 . S
H1743 C1758 0.959 . S
H1744 C1758 0.961 . S
H1745 C1759 0.960 . S
H1746 C1759 0.961 . S
H1747 C1759 0.959 . S
H1748 C1762 0.929 . S
H1749 C1763 0.931 . S
H1750 C1765 0.930 . S
C1751 H1739 0.930 . S
C1751 C1752 1.399 . S
C1751 C1756 1.399 . S
C1752 C1751 1.399 . S
C1752 C1753 1.376 . S
C1753 H1740 0.930 . S
C1753 C1752 1.376 . S
C1753 C1754 1.388 . S
C1754 H1741 0.930 . S
C1754 C1753 1.388 . S
C1754 C1755 1.390 . S
C1755 C1754 1.390 . S
C1755 C1756 1.394 . S
C1755 C1761 1.465 . S
C1756 C1751 1.399 . S
C1756 C1755 1.394 . S
C1756 C1757 1.516 . S
C1757 C1756 1.516 . S
C1757 C1758 1.502 . S
C1757 C1759 1.561 . S
C1757 C1760 1.526 . S
C1758 H1742 0.959 . S
C1758 H1743 0.959 . S
C1758 H1744 0.961 . S
C1758 C1757 1.502 . S
C1759 H1745 0.960 . S
C1759 H1746 0.961 . S
C1759 H1747 0.959 . S
C1759 C1757 1.561 . S
C1760 C1757 1.526 . S
C1760 C1761 1.396 . S
C1760 C1765 1.390 . S
C1761 C1755 1.465 . S
C1761 C1760 1.396 . S
C1761 C1762 1.399 . S
C1762 H1748 0.929 . S
C1762 C1761 1.399 . S
C1762 C1763 1.385 . S
C1763 H1749 0.931 . S
C1763 C1762 1.385 . S
C1763 C1764 1.389 . S
C1764 C1763 1.389 . S
C1764 C1765 1.387 . S
C1765 H1750 0.930 . S
C1765 C1760 1.390 . S
C1765 C1764 1.387 . S
H1766 C1778 0.930 . S
H1767 C1780 0.930 . S
H1768 C1781 0.930 . S
H1769 C1785 0.959 . S
H1770 C1785 0.959 . S
H1771 C1785 0.961 . S
H1772 C1786 0.960 . S
H1773 C1786 0.961 . S
H1774 C1786 0.959 . S
H1775 C1789 0.929 . S
H1776 C1790 0.931 . S
H1777 C1792 0.930 . S
C1778 H1766 0.930 . S
C1778 C1779 1.399 . S
C1778 C1783 1.399 . S
C1779 C1778 1.399 . S
C1779 C1780 1.376 . S
C1780 H1767 0.930 . S
C1780 C1779 1.376 . S
C1780 C1781 1.388 . S
C1781 H1768 0.930 . S
C1781 C1780 1.388 . S
C1781 C1782 1.390 . S
C1782 C1781 1.390 . S
C1782 C1783 1.394 . S
C1782 C1788 1.465 . S
C1783 C1778 1.399 . S
C1783 C1782 1.394 . S
C1783 C1784 1.516 . S
C1784 C1783 1.516 . S
C1784 C1785 1.502 . S
C1784 C1786 1.561 . S
C1784 C1787 1.526 . S
C1785 H1769 0.959 . S
C1785 H1770 0.959 . S
C1785 H1771 0.961 . S
C1785 C1784 1.502 . S
C1786 H1772 0.960 . S
C1786 H1773 0.961 . S
C1786 H1774 0.959 . S
C1786 C1784 1.561 . S
C1787 C1784 1.526 . S
C1787 C1788 1.396 . S
C1787 C1792 1.390 . S
C1788 C1782 1.465 . S
C1788 C1787 1.396 . S
C1788 C1789 1.399 . S
C1789 H1775 0.929 . S
C1789 C1788 1.399 . S
C1789 C1790 1.385 . S
C1790 H1776 0.931 . S
C1790 C1789 1.385 . S
C1790 C1791 1.389 . S
C1791 C1790 1.389 . S
C1791 C1792 1.387 . S
C1792 H1777 0.930 . S
C1792 C1787 1.390 . S
C1792 C1791 1.387 . S
H1793 C1805 0.930 . S
H1794 C1807 0.930 1_545 S
H1795 C1808 0.930 . S
H1796 C1812 0.959 . S
H1797 C1812 0.959 . S
H1798 C1812 0.961 . S
H1799 C1813 0.960 . S
H1800 C1813 0.961 . S
H1801 C1813 0.959 . S
H1802 C1816 0.929 . S
H1803 C1817 0.931 . S
H1804 C1819 0.930 . S
C1805 H1793 0.930 . S
C1805 C1806 1.399 . S
C1805 C1810 1.399 . S
C1806 C1805 1.399 . S
C1806 C1807 1.376 . S
C1807 H1794 0.930 1_565 S
C1807 C1806 1.376 . S
C1807 C1808 1.388 . S
C1808 H1795 0.930 . S
C1808 C1807 1.388 . S
C1808 C1809 1.390 . S
C1809 C1808 1.390 . S
C1809 C1810 1.394 . S
C1809 C1815 1.465 . S
C1810 C1805 1.399 . S
C1810 C1809 1.394 . S
C1810 C1811 1.516 . S
C1811 C1810 1.516 . S
C1811 C1812 1.502 . S
C1811 C1813 1.561 . S
C1811 C1814 1.526 . S
C1812 H1796 0.959 . S
C1812 H1797 0.959 . S
C1812 H1798 0.961 . S
C1812 C1811 1.502 . S
C1813 H1799 0.960 . S
C1813 H1800 0.961 . S
C1813 H1801 0.959 . S
C1813 C1811 1.561 . S
C1814 C1811 1.526 . S
C1814 C1815 1.396 . S
C1814 C1819 1.390 . S
C1815 C1809 1.465 . S
C1815 C1814 1.396 . S
C1815 C1816 1.399 . S
C1816 H1802 0.929 . S
C1816 C1815 1.399 . S
C1816 C1817 1.385 . S
C1817 H1803 0.931 . S
C1817 C1816 1.385 . S
C1817 C1818 1.389 . S
C1818 C1817 1.389 . S
C1818 C1819 1.387 . S
C1819 H1804 0.930 . S
C1819 C1814 1.390 . S
C1819 C1818 1.387 . S
H1820 C1832 0.930 . S
H1821 C1834 0.930 . S
H1822 C1835 0.930 . S
H1823 C1839 0.959 . S
H1824 C1839 0.959 . S
H1825 C1839 0.961 . S
H1826 C1840 0.960 . S
H1827 C1840 0.961 . S
H1828 C1840 0.959 . S
H1829 C1843 0.929 . S
H1830 C1844 0.931 . S
H1831 C1846 0.930 . S
C1832 H1820 0.930 . S
C1832 C1833 1.399 . S
C1832 C1837 1.399 . S
C1833 C1832 1.399 . S
C1833 C1834 1.376 . S
C1834 H1821 0.930 . S
C1834 C1833 1.376 . S
C1834 C1835 1.388 . S
C1835 H1822 0.930 . S
C1835 C1834 1.388 . S
C1835 C1836 1.390 . S
C1836 C1835 1.390 . S
C1836 C1837 1.394 . S
C1836 C1842 1.465 . S
C1837 C1832 1.399 . S
C1837 C1836 1.394 . S
C1837 C1838 1.516 . S
C1838 C1837 1.516 . S
C1838 C1839 1.502 . S
C1838 C1840 1.561 . S
C1838 C1841 1.526 . S
C1839 H1823 0.959 . S
C1839 H1824 0.959 . S
C1839 H1825 0.961 . S
C1839 C1838 1.502 . S
C1840 H1826 0.960 . S
C1840 H1827 0.961 . S
C1840 H1828 0.959 . S
C1840 C1838 1.561 . S
C1841 C1838 1.526 . S
C1841 C1842 1.396 . S
C1841 C1846 1.390 . S
C1842 C1836 1.465 . S
C1842 C1841 1.396 . S
C1842 C1843 1.399 . S
C1843 H1829 0.929 . S
C1843 C1842 1.399 . S
C1843 C1844 1.385 . S
C1844 H1830 0.931 . S
C1844 C1843 1.385 . S
C1844 C1845 1.389 . S
C1845 C1844 1.389 . S
C1845 C1846 1.387 . S
C1846 H1831 0.930 . S
C1846 C1841 1.390 . S
C1846 C1845 1.387 . S
H1847 C1859 0.930 . S
H1848 C1861 0.930 . S
H1849 C1862 0.930 . S
H1850 C1866 0.959 . S
H1851 C1866 0.959 . S
H1852 C1866 0.961 . S
H1853 C1867 0.960 . S
H1854 C1867 0.961 . S
H1855 C1867 0.959 . S
H1856 C1870 0.929 . S
H1857 C1871 0.931 . S
H1858 C1873 0.930 . S
C1859 H1847 0.930 . S
C1859 C1860 1.399 . S
C1859 C1864 1.399 . S
C1860 C1859 1.399 . S
C1860 C1861 1.376 . S
C1861 H1848 0.930 . S
C1861 C1860 1.376 . S
C1861 C1862 1.388 . S
C1862 H1849 0.930 . S
C1862 C1861 1.388 . S
C1862 C1863 1.390 . S
C1863 C1862 1.390 . S
C1863 C1864 1.394 . S
C1863 C1869 1.465 . S
C1864 C1859 1.399 . S
C1864 C1863 1.394 . S
C1864 C1865 1.516 . S
C1865 C1864 1.516 . S
C1865 C1866 1.502 . S
C1865 C1867 1.561 . S
C1865 C1868 1.526 . S
C1866 H1850 0.959 . S
C1866 H1851 0.959 . S
C1866 H1852 0.961 . S
C1866 C1865 1.502 . S
C1867 H1853 0.960 . S
C1867 H1854 0.961 . S
C1867 H1855 0.959 . S
C1867 C1865 1.561 . S
C1868 C1865 1.526 . S
C1868 C1869 1.396 . S
C1868 C1873 1.390 . S
C1869 C1863 1.465 . S
C1869 C1868 1.396 . S
C1869 C1870 1.399 . S
C1870 H1856 0.929 . S
C1870 C1869 1.399 . S
C1870 C1871 1.385 . S
C1871 H1857 0.931 . S
C1871 C1870 1.385 . S
C1871 C1872 1.389 . S
C1872 C1871 1.389 . S
C1872 C1873 1.387 . S
C1873 H1858 0.930 . S
C1873 C1868 1.390 . S
C1873 C1872 1.387 . S
H1874 C1886 0.930 . S
H1875 C1888 0.930 . S
H1876 C1889 0.930 . S
H1877 C1893 0.959 . S
H1878 C1893 0.959 . S
H1879 C1893 0.961 . S
H1880 C1894 0.960 . S
H1881 C1894 0.961 . S
H1882 C1894 0.959 . S
H1883 C1897 0.929 . S
H1884 C1898 0.931 . S
H1885 C1900 0.930 . S
C1886 H1874 0.930 . S
C1886 C1887 1.399 . S
C1886 C1891 1.399 . S
C1887 C1886 1.399 . S
C1887 C1888 1.376 . S
C1888 H1875 0.930 . S
C1888 C1887 1.376 . S
C1888 C1889 1.388 . S
C1889 H1876 0.930 . S
C1889 C1888 1.388 . S
C1889 C1890 1.390 . S
C1890 C1889 1.390 . S
C1890 C1891 1.394 . S
C1890 C1896 1.465 . S
C1891 C1886 1.399 . S
C1891 C1890 1.394 . S
C1891 C1892 1.516 . S
C1892 C1891 1.516 . S
C1892 C1893 1.502 . S
C1892 C1894 1.561 . S
C1892 C1895 1.526 . S
C1893 H1877 0.959 . S
C1893 H1878 0.959 . S
C1893 H1879 0.961 . S
C1893 C1892 1.502 . S
C1894 H1880 0.960 . S
C1894 H1881 0.961 . S
C1894 H1882 0.959 . S
C1894 C1892 1.561 . S
C1895 C1892 1.526 . S
C1895 C1896 1.396 . S
C1895 C1900 1.390 . S
C1896 C1890 1.465 . S
C1896 C1895 1.396 . S
C1896 C1897 1.399 . S
C1897 H1883 0.929 . S
C1897 C1896 1.399 . S
C1897 C1898 1.385 . S
C1898 H1884 0.931 . S
C1898 C1897 1.385 . S
C1898 C1899 1.389 . S
C1899 C1898 1.389 . S
C1899 C1900 1.387 . S
C1900 H1885 0.930 . S
C1900 C1895 1.390 . S
C1900 C1899 1.387 . S
H1901 C1913 0.930 . S
H1902 C1915 0.930 . S
H1903 C1916 0.930 . S
H1904 C1920 0.959 . S
H1905 C1920 0.959 . S
H1906 C1920 0.961 . S
H1907 C1921 0.960 . S
H1908 C1921 0.961 . S
H1909 C1921 0.959 . S
H1910 C1924 0.929 . S
H1911 C1925 0.931 1_565 S
H1912 C1927 0.930 . S
C1913 H1901 0.930 . S
C1913 C1914 1.399 . S
C1913 C1918 1.399 . S
C1914 C1913 1.399 . S
C1914 C1915 1.376 . S
C1915 H1902 0.930 . S
C1915 C1914 1.376 . S
C1915 C1916 1.388 . S
C1916 H1903 0.930 . S
C1916 C1915 1.388 . S
C1916 C1917 1.390 . S
C1917 C1916 1.390 . S
C1917 C1918 1.394 . S
C1917 C1923 1.465 . S
C1918 C1913 1.399 . S
C1918 C1917 1.394 . S
C1918 C1919 1.516 . S
C1919 C1918 1.516 . S
C1919 C1920 1.502 . S
C1919 C1921 1.561 . S
C1919 C1922 1.526 . S
C1920 H1904 0.959 . S
C1920 H1905 0.959 . S
C1920 H1906 0.961 . S
C1920 C1919 1.502 . S
C1921 H1907 0.960 . S
C1921 H1908 0.961 . S
C1921 H1909 0.959 . S
C1921 C1919 1.561 . S
C1922 C1919 1.526 . S
C1922 C1923 1.396 . S
C1922 C1927 1.390 . S
C1923 C1917 1.465 . S
C1923 C1922 1.396 . S
C1923 C1924 1.399 . S
C1924 H1910 0.929 . S
C1924 C1923 1.399 . S
C1924 C1925 1.385 . S
C1925 H1911 0.931 1_545 S
C1925 C1924 1.385 . S
C1925 C1926 1.389 . S
C1926 C1925 1.389 . S
C1926 C1927 1.387 . S
C1927 H1912 0.930 . S
C1927 C1922 1.390 . S
C1927 C1926 1.387 . S
H1928 C1940 0.930 . S
H1929 C1942 0.930 . S
H1930 C1943 0.930 . S
H1931 C1947 0.959 . S
H1932 C1947 0.959 . S
H1933 C1947 0.961 . S
H1934 C1948 0.960 . S
H1935 C1948 0.961 . S
H1936 C1948 0.959 . S
H1937 C1951 0.929 . S
H1938 C1952 0.931 . S
H1939 C1954 0.930 . S
C1940 H1928 0.930 . S
C1940 C1941 1.399 . S
C1940 C1945 1.399 . S
C1941 C1940 1.399 . S
C1941 C1942 1.376 . S
C1942 H1929 0.930 . S
C1942 C1941 1.376 . S
C1942 C1943 1.388 . S
C1943 H1930 0.930 . S
C1943 C1942 1.388 . S
C1943 C1944 1.390 . S
C1944 C1943 1.390 . S
C1944 C1945 1.394 . S
C1944 C1950 1.465 . S
C1945 C1940 1.399 . S
C1945 C1944 1.394 . S
C1945 C1946 1.516 . S
C1946 C1945 1.516 . S
C1946 C1947 1.502 . S
C1946 C1948 1.561 . S
C1946 C1949 1.526 . S
C1947 H1931 0.959 . S
C1947 H1932 0.959 . S
C1947 H1933 0.961 . S
C1947 C1946 1.502 . S
C1948 H1934 0.960 . S
C1948 H1935 0.961 . S
C1948 H1936 0.959 . S
C1948 C1946 1.561 . S
C1949 C1946 1.526 . S
C1949 C1950 1.396 . S
C1949 C1954 1.390 . S
C1950 C1944 1.465 . S
C1950 C1949 1.396 . S
C1950 C1951 1.399 . S
C1951 H1937 0.929 . S
C1951 C1950 1.399 . S
C1951 C1952 1.385 . S
C1952 H1938 0.931 . S
C1952 C1951 1.385 . S
C1952 C1953 1.389 . S
C1953 C1952 1.389 . S
C1953 C1954 1.387 . S
C1954 H1939 0.930 . S
C1954 C1949 1.390 . S
C1954 C1953 1.387 . S
H1955 C1967 0.930 . S
H1956 C1969 0.930 . S
H1957 C1970 0.930 . S
H1958 C1974 0.959 . S
H1959 C1974 0.959 . S
H1960 C1974 0.961 . S
H1961 C1975 0.960 . S
H1962 C1975 0.961 . S
H1963 C1975 0.959 . S
H1964 C1978 0.929 . S
H1965 C1979 0.931 . S
H1966 C1981 0.930 . S
C1967 H1955 0.930 . S
C1967 C1968 1.399 . S
C1967 C1972 1.399 . S
C1968 C1967 1.399 . S
C1968 C1969 1.376 . S
C1969 H1956 0.930 . S
C1969 C1968 1.376 . S
C1969 C1970 1.388 . S
C1970 H1957 0.930 . S
C1970 C1969 1.388 . S
C1970 C1971 1.390 . S
C1971 C1970 1.390 . S
C1971 C1972 1.394 . S
C1971 C1977 1.465 . S
C1972 C1967 1.399 . S
C1972 C1971 1.394 . S
C1972 C1973 1.516 . S
C1973 C1972 1.516 . S
C1973 C1974 1.502 . S
C1973 C1975 1.561 . S
C1973 C1976 1.526 . S
C1974 H1958 0.959 . S
C1974 H1959 0.959 . S
C1974 H1960 0.961 . S
C1974 C1973 1.502 . S
C1975 H1961 0.960 . S
C1975 H1962 0.961 . S
C1975 H1963 0.959 . S
C1975 C1973 1.561 . S
C1976 C1973 1.526 . S
C1976 C1977 1.396 . S
C1976 C1981 1.390 . S
C1977 C1971 1.465 . S
C1977 C1976 1.396 . S
C1977 C1978 1.399 . S
C1978 H1964 0.929 . S
C1978 C1977 1.399 . S
C1978 C1979 1.385 . S
C1979 H1965 0.931 . S
C1979 C1978 1.385 . S
C1979 C1980 1.389 . S
C1980 C1979 1.389 . S
C1980 C1981 1.387 . S
C1981 H1966 0.930 . S
C1981 C1976 1.390 . S
C1981 C1980 1.387 . S
H1982 C1994 0.930 . S
H1983 C1996 0.930 . S
H1984 C1997 0.930 . S
H1985 C2001 0.959 . S
H1986 C2001 0.959 . S
H1987 C2001 0.961 . S
H1988 C2002 0.960 . S
H1989 C2002 0.961 . S
H1990 C2002 0.959 . S
H1991 C2005 0.929 . S
H1992 C2006 0.931 . S
H1993 C2008 0.930 . S
C1994 H1982 0.930 . S
C1994 C1995 1.399 . S
C1994 C1999 1.399 . S
C1995 C1994 1.399 . S
C1995 C1996 1.376 . S
C1996 H1983 0.930 . S
C1996 C1995 1.376 . S
C1996 C1997 1.388 . S
C1997 H1984 0.930 . S
C1997 C1996 1.388 . S
C1997 C1998 1.390 . S
C1998 C1997 1.390 . S
C1998 C1999 1.394 . S
C1998 C2004 1.465 . S
C1999 C1994 1.399 . S
C1999 C1998 1.394 . S
C1999 C2000 1.516 . S
C2000 C1999 1.516 . S
C2000 C2001 1.502 . S
C2000 C2002 1.561 . S
C2000 C2003 1.526 . S
C2001 H1985 0.959 . S
C2001 H1986 0.959 . S
C2001 H1987 0.961 . S
C2001 C2000 1.502 . S
C2002 H1988 0.960 . S
C2002 H1989 0.961 . S
C2002 H1990 0.959 . S
C2002 C2000 1.561 . S
C2003 C2000 1.526 . S
C2003 C2004 1.396 . S
C2003 C2008 1.390 . S
C2004 C1998 1.465 . S
C2004 C2003 1.396 . S
C2004 C2005 1.399 . S
C2005 H1991 0.929 . S
C2005 C2004 1.399 . S
C2005 C2006 1.385 . S
C2006 H1992 0.931 . S
C2006 C2005 1.385 . S
C2006 C2007 1.389 . S
C2007 C2006 1.389 . S
C2007 C2008 1.387 . S
C2008 H1993 0.930 . S
C2008 C2003 1.390 . S
C2008 C2007 1.387 . S
H2009 C2021 0.930 . S
H2010 C2023 0.930 . S
H2011 C2024 0.930 . S
H2012 C2028 0.959 . S
H2013 C2028 0.959 . S
H2014 C2028 0.961 . S
H2015 C2029 0.960 . S
H2016 C2029 0.961 . S
H2017 C2029 0.959 . S
H2018 C2032 0.929 . S
H2019 C2033 0.931 . S
H2020 C2035 0.930 . S
C2021 H2009 0.930 . S
C2021 C2022 1.399 . S
C2021 C2026 1.399 . S
C2022 C2021 1.399 . S
C2022 C2023 1.376 . S
C2023 H2010 0.930 . S
C2023 C2022 1.376 . S
C2023 C2024 1.388 . S
C2024 H2011 0.930 . S
C2024 C2023 1.388 . S
C2024 C2025 1.390 . S
C2025 C2024 1.390 . S
C2025 C2026 1.394 . S
C2025 C2031 1.465 . S
C2026 C2021 1.399 . S
C2026 C2025 1.394 . S
C2026 C2027 1.516 . S
C2027 C2026 1.516 . S
C2027 C2028 1.502 . S
C2027 C2029 1.561 . S
C2027 C2030 1.526 . S
C2028 H2012 0.959 . S
C2028 H2013 0.959 . S
C2028 H2014 0.961 . S
C2028 C2027 1.502 . S
C2029 H2015 0.960 . S
C2029 H2016 0.961 . S
C2029 H2017 0.959 . S
C2029 C2027 1.561 . S
C2030 C2027 1.526 . S
C2030 C2031 1.396 . S
C2030 C2035 1.390 . S
C2031 C2025 1.465 . S
C2031 C2030 1.396 . S
C2031 C2032 1.399 . S
C2032 H2018 0.929 . S
C2032 C2031 1.399 . S
C2032 C2033 1.385 . S
C2033 H2019 0.931 . S
C2033 C2032 1.385 . S
C2033 C2034 1.389 . S
C2034 C2033 1.389 . S
C2034 C2035 1.387 . S
C2035 H2020 0.930 . S
C2035 C2030 1.390 . S
C2035 C2034 1.387 . S
H2036 C2048 0.930 . S
H2037 C2050 0.930 . S
H2038 C2051 0.930 . S
H2039 C2055 0.959 . S
H2040 C2055 0.959 . S
H2041 C2055 0.961 . S
H2042 C2056 0.960 . S
H2043 C2056 0.961 . S
H2044 C2056 0.959 . S
H2045 C2059 0.929 . S
H2046 C2060 0.931 1_565 S
H2047 C2062 0.930 . S
C2048 H2036 0.930 . S
C2048 C2049 1.399 . S
C2048 C2053 1.399 . S
C2049 C2048 1.399 . S
C2049 C2050 1.376 . S
C2050 H2037 0.930 . S
C2050 C2049 1.376 . S
C2050 C2051 1.388 . S
C2051 H2038 0.930 . S
C2051 C2050 1.388 . S
C2051 C2052 1.390 . S
C2052 C2051 1.390 . S
C2052 C2053 1.394 . S
C2052 C2058 1.465 . S
C2053 C2048 1.399 . S
C2053 C2052 1.394 . S
C2053 C2054 1.516 . S
C2054 C2053 1.516 . S
C2054 C2055 1.502 . S
C2054 C2056 1.561 . S
C2054 C2057 1.526 . S
C2055 H2039 0.959 . S
C2055 H2040 0.959 . S
C2055 H2041 0.961 . S
C2055 C2054 1.502 . S
C2056 H2042 0.960 . S
C2056 H2043 0.961 . S
C2056 H2044 0.959 . S
C2056 C2054 1.561 . S
C2057 C2054 1.526 . S
C2057 C2058 1.396 . S
C2057 C2062 1.390 . S
C2058 C2052 1.465 . S
C2058 C2057 1.396 . S
C2058 C2059 1.399 . S
C2059 H2045 0.929 . S
C2059 C2058 1.399 . S
C2059 C2060 1.385 . S
C2060 H2046 0.931 1_545 S
C2060 C2059 1.385 . S
C2060 C2061 1.389 . S
C2061 C2060 1.389 . S
C2061 C2062 1.387 . S
C2062 H2047 0.930 . S
C2062 C2057 1.390 . S
C2062 C2061 1.387 . S
H2063 C2075 0.930 . S
H2064 C2077 0.930 . S
H2065 C2078 0.930 . S
H2066 C2082 0.959 . S
H2067 C2082 0.959 . S
H2068 C2082 0.961 . S
H2069 C2083 0.960 . S
H2070 C2083 0.961 . S
H2071 C2083 0.959 . S
H2072 C2086 0.929 . S
H2073 C2087 0.931 . S
H2074 C2089 0.930 . S
C2075 H2063 0.930 . S
C2075 C2076 1.399 . S
C2075 C2080 1.399 . S
C2076 C2075 1.399 . S
C2076 C2077 1.376 . S
C2077 H2064 0.930 . S
C2077 C2076 1.376 . S
C2077 C2078 1.388 . S
C2078 H2065 0.930 . S
C2078 C2077 1.388 . S
C2078 C2079 1.390 . S
C2079 C2078 1.390 . S
C2079 C2080 1.394 . S
C2079 C2085 1.465 . S
C2080 C2075 1.399 . S
C2080 C2079 1.394 . S
C2080 C2081 1.516 . S
C2081 C2080 1.516 . S
C2081 C2082 1.502 . S
C2081 C2083 1.561 . S
C2081 C2084 1.526 . S
C2082 H2066 0.959 . S
C2082 H2067 0.959 . S
C2082 H2068 0.961 . S
C2082 C2081 1.502 . S
C2083 H2069 0.960 . S
C2083 H2070 0.961 . S
C2083 H2071 0.959 . S
C2083 C2081 1.561 . S
C2084 C2081 1.526 . S
C2084 C2085 1.396 . S
C2084 C2089 1.390 . S
C2085 C2079 1.465 . S
C2085 C2084 1.396 . S
C2085 C2086 1.399 . S
C2086 H2072 0.929 . S
C2086 C2085 1.399 . S
C2086 C2087 1.385 . S
C2087 H2073 0.931 . S
C2087 C2086 1.385 . S
C2087 C2088 1.389 . S
C2088 C2087 1.389 . S
C2088 C2089 1.387 . S
C2089 H2074 0.930 . S
C2089 C2084 1.390 . S
C2089 C2088 1.387 . S
H2090 C2102 0.930 . S
H2091 C2104 0.930 . S
H2092 C2105 0.930 . S
H2093 C2109 0.959 . S
H2094 C2109 0.959 . S
H2095 C2109 0.961 . S
H2096 C2110 0.960 . S
H2097 C2110 0.961 . S
H2098 C2110 0.959 . S
H2099 C2113 0.929 . S
H2100 C2114 0.931 . S
H2101 C2116 0.930 . S
C2102 H2090 0.930 . S
C2102 C2103 1.399 . S
C2102 C2107 1.399 . S
C2103 C2102 1.399 . S
C2103 C2104 1.376 . S
C2104 H2091 0.930 . S
C2104 C2103 1.376 . S
C2104 C2105 1.388 . S
C2105 H2092 0.930 . S
C2105 C2104 1.388 . S
C2105 C2106 1.390 . S
C2106 C2105 1.390 . S
C2106 C2107 1.394 . S
C2106 C2112 1.465 . S
C2107 C2102 1.399 . S
C2107 C2106 1.394 . S
C2107 C2108 1.516 . S
C2108 C2107 1.516 . S
C2108 C2109 1.502 . S
C2108 C2110 1.561 . S
C2108 C2111 1.526 . S
C2109 H2093 0.959 . S
C2109 H2094 0.959 . S
C2109 H2095 0.961 . S
C2109 C2108 1.502 . S
C2110 H2096 0.960 . S
C2110 H2097 0.961 . S
C2110 H2098 0.959 . S
C2110 C2108 1.561 . S
C2111 C2108 1.526 . S
C2111 C2112 1.396 . S
C2111 C2116 1.390 . S
C2112 C2106 1.465 . S
C2112 C2111 1.396 . S
C2112 C2113 1.399 . S
C2113 H2099 0.929 . S
C2113 C2112 1.399 . S
C2113 C2114 1.385 . S
C2114 H2100 0.931 . S
C2114 C2113 1.385 . S
C2114 C2115 1.389 . S
C2115 C2114 1.389 . S
C2115 C2116 1.387 . S
C2116 H2101 0.930 . S
C2116 C2111 1.390 . S
C2116 C2115 1.387 . S
H2117 C2129 0.930 . S
H2118 C2131 0.930 1_565 S
H2119 C2132 0.930 . S
H2120 C2136 0.959 . S
H2121 C2136 0.959 . S
H2122 C2136 0.961 . S
H2123 C2137 0.960 . S
H2124 C2137 0.961 . S
H2125 C2137 0.959 . S
H2126 C2140 0.929 . S
H2127 C2141 0.931 . S
H2128 C2143 0.930 . S
C2129 H2117 0.930 . S
C2129 C2130 1.399 . S
C2129 C2134 1.399 . S
C2130 C2129 1.399 . S
C2130 C2131 1.376 . S
C2131 H2118 0.930 1_545 S
C2131 C2130 1.376 . S
C2131 C2132 1.388 . S
C2132 H2119 0.930 . S
C2132 C2131 1.388 . S
C2132 C2133 1.390 . S
C2133 C2132 1.390 . S
C2133 C2134 1.394 . S
C2133 C2139 1.465 . S
C2134 C2129 1.399 . S
C2134 C2133 1.394 . S
C2134 C2135 1.516 . S
C2135 C2134 1.516 . S
C2135 C2136 1.502 . S
C2135 C2137 1.561 . S
C2135 C2138 1.526 . S
C2136 H2120 0.959 . S
C2136 H2121 0.959 . S
C2136 H2122 0.961 . S
C2136 C2135 1.502 . S
C2137 H2123 0.960 . S
C2137 H2124 0.961 . S
C2137 H2125 0.959 . S
C2137 C2135 1.561 . S
C2138 C2135 1.526 . S
C2138 C2139 1.396 . S
C2138 C2143 1.390 . S
C2139 C2133 1.465 . S
C2139 C2138 1.396 . S
C2139 C2140 1.399 . S
C2140 H2126 0.929 . S
C2140 C2139 1.399 . S
C2140 C2141 1.385 . S
C2141 H2127 0.931 . S
C2141 C2140 1.385 . S
C2141 C2142 1.389 . S
C2142 C2141 1.389 . S
C2142 C2143 1.387 . S
C2143 H2128 0.930 . S
C2143 C2138 1.390 . S
C2143 C2142 1.387 . S
C429 C5 1.484 . S
C441 C16 1.467 . S
C456 C42 1.484 . S
C468 C31 1.466 . S
C483 C57 1.465 . S
C495 C68 1.447 . S
C510 C83 1.467 . S
C522 C94 1.482 . S
C537 C109 1.446 . S
C549 C122 1.466 . S
C564 C133 1.482 . S
C576 C146 1.478 . S
C591 C159 1.465 . S
C603 C172 1.447 . S
C618 C185 1.464 . S
C630 C198 1.447 . S
C645 C226 1.484 . S
C657 C211 1.471 . S
C672 C250 1.484 . S
C684 C239 1.473 . S
C699 C276 1.473 . S
C711 C263 1.479 . S
C726 C304 1.470 . S
C738 C289 1.446 . S
C753 C330 1.446 . S
C765 C315 1.456 . S
C780 C356 1.480 . S
C792 C341 1.457 . S
C807 C382 1.464 . S
C819 C367 1.447 . S
C834 C406 1.464 . S
C846 C393 1.447 . S
C861 C4 1.405 . S
C873 C166 1.453 . S
C888 C23 1.425 . S
C900 C283 1.437 . S
C915 C30 1.415 . S
C927 C82 1.446 . S
C942 C49 1.409 . S
C954 C413 1.435 . S
C969 C56 1.451 . S
C981 C108 1.398 . S
C996 C225 1.433 . S
C1008 C75 1.411 . S
C1023 C355 1.416 . S
C1035 C101 1.445 . S
C1050 C121 1.417 . S
C1062 C381 1.445 . S
C1077 C140 1.398 . S
C1089 C192 1.456 . S
C1104 C153 1.407 . S
C1116 C303 1.451 . S
C1131 C179 1.396 . S
C1143 C329 1.457 . S
C1158 C205 1.456 . S
C1170 C257 1.400 . S
C1185 C374 1.401 . S
C1197 C218 1.455 . S
C1212 C296 1.454 . S
C1224 C238 1.405 . S
C1239 C270 1.448 . S
C1251 C322 1.400 . S
C1266 C400 1.430 . S
C1278 C348 1.432 . S
C1293 C134 0.808 . S
C1305 C10 0.830 . S
C1320 C147 0.833 . S
C1332 C17 0.817 1_565 S
C1347 C36 0.836 1_565 S
C1359 C114 0.811 . S
C1374 C127 0.809 . S
C1386 C43 0.830 . S
C1401 C62 0.814 . S
C1413 C186 0.836 . S
C1428 C69 0.830 1_545 S
C1440 C199 0.807 . S
C1455 C160 0.817 . S
C1467 C88 0.836 1_545 S
C1482 C173 0.819 . S
C1494 C95 0.810 . S
C1509 C212 0.811 . S
C1521 C342 0.826 . S
C1536 C361 0.836 . S
C1548 C231 0.813 1_565 S
C1563 C316 0.833 . S
C1575 C244 0.808 1_565 S
C1590 C251 0.835 . S
C1602 C335 0.813 . S
C1617 C394 0.828 . S
C1629 C264 0.807 . S
C1644 C277 0.815 1_545 S
C1656 C407 0.813 . S
C1671 C368 0.816 . S
C1683 C290 0.836 1_545 S
C1698 C387 0.829 . S
C1710 C309 0.807 . S
C1725 C135 1.728 . S
C1737 C3 1.737 1_565 S
C1752 C148 1.744 . S
C1764 C18 1.737 . S
C1779 C107 1.744 . S
C1791 C29 1.736 . S
C1806 C44 1.729 1_565 S
C1818 C120 1.731 . S
C1833 C187 1.739 . S
C1845 C55 1.744 1_545 S
C1860 C200 1.737 . S
C1872 C70 1.742 . S
C1887 C161 1.730 . S
C1899 C81 1.737 . S
C1914 C174 1.733 . S
C1926 C96 1.729 1_545 S
C1941 C343 1.728 . S
C1953 C213 1.736 1_565 S
C1968 C354 1.744 . S
C1980 C224 1.736 . S
C1995 C317 1.729 . S
C2007 C237 1.739 . S
C2022 C252 1.744 1_565 S
C2034 C328 1.737 . S
C2049 C395 1.743 . S
C2061 C265 1.739 1_545 S
C2076 C278 1.731 . S
C2088 C408 1.728 . S
C2103 C369 1.738 . S
C2115 C291 1.743 . S
C2130 C302 1.739 1_545 S
C2142 C380 1.744 . S
