# Generated by pormake.
# Topology acs-f, (3)-cn, num edge types: 1
# Building blocks:
#     Node 0, Type 0, BuildingBlock: OLANEW_clean_sbu_2, # of connection points: 3
#     Node 1, Type 0, BuildingBlock: OLANEW_clean_sbu_2, # of connection points: 3
#     Node 2, Type 0, BuildingBlock: OLANEW_clean_sbu_2, # of connection points: 3
#     Node 3, Type 0, BuildingBlock: OLANEW_clean_sbu_2, # of connection points: 3
#     Node 4, Type 0, BuildingBlock: OLANEW_clean_sbu_2, # of connection points: 3
#     Node 5, Type 0, BuildingBlock: OLANEW_clean_sbu_2, # of connection points: 3
#     Node 6, Type 0, BuildingBlock: OLANEW_clean_sbu_2, # of connection points: 3
#     Node 7, Type 0, BuildingBlock: OLANEW_clean_sbu_2, # of connection points: 3
#     Node 8, Type 0, BuildingBlock: OLANEW_clean_sbu_2, # of connection points: 3
#     Node 9, Type 0, BuildingBlock: OLANEW_clean_sbu_2, # of connection points: 3
#     Node 10, Type 0, BuildingBlock: OLANEW_clean_sbu_2, # of connection points: 3
#     Node 11, Type 0, BuildingBlock: OLANEW_clean_sbu_2, # of connection points: 3
#     Edge 12, Type (0, 0), BuildingBlock: KIFKEQ_clean_linker_1, # of connection points: 2
#     Edge 13, Type (0, 0), BuildingBlock: KIFKEQ_clean_linker_1, # of connection points: 2
#     Edge 14, Type (0, 0), BuildingBlock: KIFKEQ_clean_linker_1, # of connection points: 2
#     Edge 15, Type (0, 0), BuildingBlock: KIFKEQ_clean_linker_1, # of connection points: 2
#     Edge 16, Type (0, 0), BuildingBlock: KIFKEQ_clean_linker_1, # of connection points: 2
#     Edge 17, Type (0, 0), BuildingBlock: KIFKEQ_clean_linker_1, # of connection points: 2
#     Edge 18, Type (0, 0), BuildingBlock: KIFKEQ_clean_linker_1, # of connection points: 2
#     Edge 19, Type (0, 0), BuildingBlock: KIFKEQ_clean_linker_1, # of connection points: 2
#     Edge 20, Type (0, 0), BuildingBlock: KIFKEQ_clean_linker_1, # of connection points: 2
#     Edge 21, Type (0, 0), BuildingBlock: KIFKEQ_clean_linker_1, # of connection points: 2
#     Edge 22, Type (0, 0), BuildingBlock: KIFKEQ_clean_linker_1, # of connection points: 2
#     Edge 23, Type (0, 0), BuildingBlock: KIFKEQ_clean_linker_1, # of connection points: 2
#     Edge 24, Type (0, 0), BuildingBlock: KIFKEQ_clean_linker_1, # of connection points: 2
#     Edge 25, Type (0, 0), BuildingBlock: KIFKEQ_clean_linker_1, # of connection points: 2
#     Edge 26, Type (0, 0), BuildingBlock: KIFKEQ_clean_linker_1, # of connection points: 2
#     Edge 27, Type (0, 0), BuildingBlock: KIFKEQ_clean_linker_1, # of connection points: 2
#     Edge 28, Type (0, 0), BuildingBlock: KIFKEQ_clean_linker_1, # of connection points: 2
#     Edge 29, Type (0, 0), BuildingBlock: KIFKEQ_clean_linker_1, # of connection points: 2
# Relax obj value: 0.063
# Max RMSD: 0.033
# Mean RMSD: 0.033
data_MOF--net-acs-f--node1-OLANEW_clean_sbu_2--edge1-KIFKEQ_clean_linker_1
_symmetry_space_group_name_H-M    P1
_symmetry_Int_Tables_number       1
_symmetry_cell_setting            triclinic
loop_
_symmetry_equiv_pos_as_xyz
'x, y, z'
_cell_length_a     38.244448
_cell_length_b     38.236601
_cell_length_c     53.23624
_cell_angle_alpha  89.847101
_cell_angle_beta   89.877307
_cell_angle_gamma 119.64136
loop_
_atom_site_label
_atom_site_type_symbol
_atom_site_fract_x
_atom_site_fract_y
_atom_site_fract_z
_atom_type_partial_charge
O0 O 0.92555 0.4186 0.12804 0.0
Cd1 Cd 0.93218 0.39729 0.08583 0.0
O2 O -0.01156 0.43419 0.13265 0.0
Cd3 Cd 0.04286 0.45011 0.15418 0.0
O4 O 0.0965 0.45748 0.17327 0.0
C5 C 0.09475 0.44739 0.1962 0.0
O6 O 0.06044 0.4334 0.20836 0.0
C7 C 0.95659 0.43179 0.14182 0.0
C8 C 0.94169 0.45039 0.04693 0.0
O9 O 0.90694 0.42066 0.05236 0.0
O10 O 0.97172 0.45555 0.06027 0.0
O11 O 0.55083 0.49707 0.1394 0.0
Cd12 Cd 0.57935 0.51902 0.09727 0.0
O13 O 0.55158 0.55435 0.14379 0.0
Cd14 Cd 0.54114 0.59956 0.16227 0.0
O15 O 0.53553 0.64775 0.18046 0.0
C16 C 0.55495 0.66359 0.20048 0.0
O17 O 0.57783 0.65023 0.21002 0.0
C18 C 0.5448 0.52081 0.15306 0.0
C19 C 0.5268 0.48164 0.05732 0.0
O20 O 0.54718 0.46651 0.06682 0.0
O21 O 0.53054 0.5139 0.06712 0.0
O22 O 0.48462 0.03242 0.13104 0.0
Cd23 Cd 0.45983 0.03546 0.08916 0.0
O24 O 0.42839 0.97618 0.13754 0.0
Cd25 Cd 0.38431 0.92241 0.15791 0.0
O26 O 0.33592 0.87199 0.17828 0.0
C27 C 0.31762 0.87907 0.19576 0.0
O28 O 0.32876 0.91661 0.2013 0.0
C29 C 0.46202 0.00378 0.14576 0.0
C30 C 0.49514 0.01777 0.0488 0.0
O31 O 0.51039 0.05372 0.05727 0.0
O32 O 0.46382 0.99003 0.05987 0.0
O33 O 0.55348 0.06568 0.33744 0.0
Cd34 Cd 0.58018 0.08627 0.37994 0.0
O35 O 0.55222 0.00769 0.33933 0.0
Cd36 Cd 0.54708 0.95318 0.32248 0.0
O37 O 0.5455 0.90068 0.30514 0.0
C38 C 0.54593 0.89786 0.28137 0.0
O39 O 0.54697 0.92678 0.26742 0.0
C40 C 0.54667 0.03306 0.327 0.0
C41 C 0.52635 0.05195 0.41996 0.0
O42 O 0.52831 0.0816 0.40749 0.0
O43 O 0.54891 0.03768 0.41302 0.0
O44 O 0.91352 0.48075 0.33651 0.0
Cd45 Cd 0.9081 0.50388 0.37844 0.0
O46 O 0.97462 0.53208 0.33322 0.0
Cd47 Cd 0.02883 0.57365 0.31227 0.0
O48 O 0.08095 0.62041 0.29215 0.0
C49 C 0.08023 0.6518 0.28503 0.0
O50 O 0.04812 0.65482 0.28985 0.0
C51 C 0.94535 0.50099 0.3236 0.0
C52 C 0.92726 0.46954 0.41869 0.0
O53 O 0.89141 0.45303 0.40993 0.0
O54 O 0.95427 0.50175 0.40798 0.0
O55 O 0.48041 0.42979 0.34709 0.0
Cd56 Cd 0.45281 0.40586 0.38915 0.0
O57 O 0.42937 0.44006 0.34247 0.0
Cd58 Cd 0.38782 0.45255 0.3213 0.0
O59 O 0.3404 0.4585 0.30247 0.0
C60 C 0.33219 0.44847 0.27959 0.0
O61 O 0.35318 0.43523 0.26735 0.0
C62 C 0.46063 0.44105 0.33336 0.0
C63 C 0.49489 0.45785 0.42843 0.0
O64 O 0.50115 0.42893 0.42251 0.0
O65 O 0.46942 0.46271 0.41544 0.0
O66 O 0.03053 0.61411 0.8113 0.0
Cd67 Cd 0.00917 0.64949 0.84031 0.0
O68 O 0.05473 0.66157 0.78236 0.0
Cd69 Cd 0.02436 0.69231 0.79772 0.0
O70 O 0.97322 0.69917 0.7864 0.0
C71 C 0.95144 0.67377 0.76989 0.0
O72 O 0.96112 0.64692 0.76239 0.0
C73 C 0.04933 0.62807 0.7907 0.0
C74 C -0.00703 0.61223 0.88744 0.0
O75 O 0.02881 0.63868 0.88104 0.0
O76 O 0.96458 0.60377 0.87171 0.0
O77 O 0.37381 0.41802 0.81909 0.0
Cd78 Cd 0.34188 0.3589 0.84653 0.0
O79 O 0.32667 0.39502 0.79019 0.0
Cd80 Cd 0.29748 0.33367 0.80474 0.0
O81 O 0.29213 0.27635 0.79353 0.0
C82 C 0.32218 0.28013 0.78104 0.0
O83 O 0.35279 0.31646 0.77734 0.0
C84 C 0.35942 0.42331 0.79883 0.0
C85 C 0.37661 0.37854 0.89424 0.0
O86 O 0.39085 0.3656 0.87708 0.0
O87 O 0.34558 0.38167 0.88895 0.0
O88 O 0.55434 0.91501 0.81014 0.0
Cd89 Cd 0.61223 0.94339 0.83839 0.0
O90 O 0.59075 0.92558 0.77591 0.0
Cd91 Cd 0.65028 0.95835 0.79275 0.0
O92 O 0.70747 0.01031 0.78164 0.0
C93 C 0.70371 0.03087 0.76412 0.0
O94 O 0.66747 0.01968 0.75558 0.0
C95 C 0.55662 0.91227 0.78645 0.0
C96 C 0.59153 0.96049 0.88538 0.0
O97 O 0.60428 0.98668 0.86763 0.0
O98 O 0.58882 0.92629 0.88096 0.0
O99 O 0.35572 0.92242 0.65703 0.0
Cd100 Cd 0.33262 0.95815 0.62949 0.0
O101 O 0.32912 0.93206 0.69122 0.0
Cd102 Cd 0.30477 0.96774 0.67476 0.0
O103 O 0.29888 0.01969 0.68543 0.0
C104 C 0.32664 0.04398 0.69991 0.0
O105 O 0.35574 0.03658 0.70577 0.0
C106 C 0.34923 0.91793 0.68057 0.0
C107 C 0.37207 0.97534 0.58304 0.0
O108 O 0.38847 -0.0022 0.60216 0.0
O109 O 0.33683 0.94478 0.58576 0.0
O110 O 0.03034 0.4171 0.65732 0.0
Cd111 Cd 0.00446 0.35806 0.63012 0.0
O112 O 0.05459 0.39402 0.68638 0.0
Cd113 Cd 0.02425 0.33305 0.67152 0.0
O114 O 0.97322 0.2739 0.6802 0.0
C115 C 0.94222 0.27455 0.68822 0.0
O116 O 0.94291 0.30924 0.6891 0.0
C117 C 0.04965 0.42225 0.67767 0.0
C118 C 0.98681 0.37638 0.58258 0.0
O119 O 0.96032 0.363 0.60015 0.0
O120 O 0.02155 0.38069 0.58741 0.0
O121 O 0.56761 0.6172 0.66467 0.0
Cd122 Cd 0.62376 0.65311 0.6354 0.0
O123 O 0.58992 0.66463 0.69337 0.0
Cd124 Cd 0.65037 0.69604 0.67739 0.0
O125 O 0.70952 0.7035 0.68578 0.0
C126 C 0.70844 0.67218 0.69484 0.0
O127 O 0.67343 0.6391 0.69686 0.0
C128 C 0.56246 0.63096 0.68523 0.0
C129 C 0.60292 0.61648 0.58829 0.0
O130 O 0.5931 0.6427 0.59486 0.0
O131 O 0.62318 0.60795 0.60384 0.0
H132 H 0.30569 0.42774 0.23135 0.0
H133 H 0.28241 0.47338 0.29982 0.0
H134 H 0.24887 0.42873 0.21142 0.0
H135 H 0.22606 0.47505 0.27971 0.0
H136 H 0.10078 0.42669 0.24456 0.0
H137 H 0.15876 0.42813 0.26455 0.0
H138 H 0.22765 0.47549 0.1962 0.0
H139 H 0.16949 0.47338 0.17604 0.0
C140 C 0.28864 0.43824 0.2421 0.0
C141 C 0.29855 0.45039 0.26719 0.0
C142 C 0.25619 0.43902 0.23063 0.0
C143 C 0.2329 0.45194 0.24398 0.0
C144 C 0.24305 0.46443 0.26901 0.0
C145 C 0.27552 0.46369 0.28048 0.0
C146 C 0.12832 0.43754 0.23381 0.0
C147 C 0.13045 0.44982 0.20868 0.0
C148 C 0.16164 0.43856 0.24532 0.0
C149 C 0.19782 0.45187 0.23195 0.0
C150 C 0.20006 0.46456 0.2069 0.0
C151 C 0.16677 0.46357 0.19541 0.0
H152 H 0.51085 0.69856 0.18554 0.0
H153 H 0.59365 0.70475 0.2428 0.0
H154 H 0.50753 0.75432 0.20528 0.0
H155 H 0.5909 0.76097 0.26222 0.0
H156 H 0.54425 0.83326 0.30479 0.0
H157 H 0.54517 0.77605 0.2854 0.0
H158 H 0.54961 0.82636 0.21192 0.0
H159 H 0.5479 0.88321 0.23127 0.0
C160 C 0.52841 0.71184 0.20231 0.0
C161 C 0.55252 0.69717 0.21259 0.0
C162 C 0.52668 0.74397 0.21353 0.0
C163 C 0.54899 0.76216 0.23531 0.0
C164 C 0.57293 0.74733 0.24565 0.0
C165 C 0.57468 0.71522 0.23442 0.0
C166 C 0.54532 0.83209 0.28449 0.0
C167 C 0.54602 0.86285 0.26959 0.0
C168 C 0.54609 0.7994 0.27338 0.0
C169 C 0.54755 0.79665 0.24711 0.0
C170 C 0.54799 0.82729 0.2322 0.0
C171 C 0.54724 0.86001 0.24331 0.0
H172 H 0.15137 0.65542 0.27228 0.0
H173 H 0.08825 0.72284 0.26793 0.0
H174 H 0.20925 0.71033 0.25117 0.0
H175 H 0.14579 0.77732 0.24645 0.0
H176 H 0.27157 0.88412 0.23336 0.0
H177 H 0.21479 0.8291 0.25508 0.0
H178 H 0.22923 0.74316 0.21011 0.0
H179 H 0.28651 0.79817 0.18866 0.0
C180 C 0.14976 0.68186 0.26674 0.0
C181 C 0.1152 0.68476 0.27184 0.0
C182 C 0.18287 0.71324 0.25452 0.0
C183 C 0.18217 0.74824 0.24716 0.0
C184 C 0.14753 0.75103 0.25219 0.0
C185 C 0.11444 0.71966 0.26438 0.0
C186 C 0.26273 0.8535 0.22813 0.0
C187 C 0.28357 0.84556 0.20925 0.0
C188 C 0.23001 0.82196 0.24049 0.0
C189 C 0.21739 0.78173 0.23428 0.0
C190 C 0.23846 0.77379 0.21554 0.0
C191 C 0.27116 0.80535 0.20315 0.0
H192 H 0.78417 0.73748 0.69951 0.0
H193 H 0.71561 0.60917 0.71259 0.0
H194 H 0.84363 0.7388 0.71748 0.0
H195 H 0.77463 0.61064 0.73071 0.0
H196 H 0.89796 0.62087 0.73632 0.0
H197 H 0.84066 0.62174 0.71731 0.0
H198 H 0.86771 0.72889 0.75904 0.0
H199 H 0.9257 0.72836 0.77798 0.0
C200 C 0.78181 0.70958 0.70611 0.0
C201 C 0.74517 0.67321 0.70458 0.0
C202 C 0.81577 0.7104 0.71658 0.0
C203 C 0.81381 0.67483 0.72553 0.0
C204 C 0.77726 0.63848 0.72372 0.0
C205 C 0.74337 0.63769 0.71341 0.0
C206 C 0.89179 0.64466 0.7415 0.0
C207 C 0.91636 0.67449 0.75874 0.0
C208 C 0.8588 0.64504 0.73065 0.0
C209 C 0.84959 0.67531 0.73671 0.0
C210 C 0.8743 0.70538 0.75382 0.0
C211 C 0.90731 0.70491 0.76479 0.0
H212 H 0.26075 0.20178 0.77982 0.0
H213 H 0.38393 0.27896 0.75623 0.0
H214 H 0.26124 0.14451 0.75977 0.0
H215 H 0.38418 0.22206 0.7361 0.0
H216 H 0.38425 0.10316 0.72863 0.0
H217 H 0.38225 0.15928 0.74859 0.0
H218 H 0.26492 0.12024 0.71677 0.0
H219 H 0.26666 0.06349 0.69688 0.0
C220 C 0.28791 0.20652 0.77043 0.0
C221 C 0.32233 0.2449 0.76969 0.0
C222 C 0.28808 0.1738 0.75879 0.0
C223 C 0.32275 0.1788 0.74636 0.0
C224 C 0.35715 0.21714 0.74576 0.0
C225 C 0.35693 0.24979 0.75724 0.0
C226 C 0.35802 0.10651 0.72579 0.0
C227 C 0.32563 0.07886 0.71112 0.0
C228 C 0.35697 0.13881 0.73717 0.0
C229 C 0.32344 0.14421 0.73425 0.0
C230 C 0.29099 0.11661 0.71956 0.0
C231 C 0.29213 0.08432 0.70803 0.0
H232 H 0.87054 0.26615 0.70374 0.0
H233 H 0.93431 0.19988 0.69544 0.0
H234 H 0.81365 0.20705 0.72216 0.0
H235 H 0.87689 0.14036 0.71371 0.0
H236 H 0.7837 0.05928 0.77413 0.0
H237 H 0.84154 0.11749 0.75504 0.0
H238 H 0.76123 0.13975 0.70946 0.0
H239 H 0.70368 0.0822 0.72859 0.0
C240 C 0.87233 0.23888 0.70568 0.0
C241 C 0.90697 0.23773 0.69809 0.0
C242 C 0.83963 0.20494 0.71617 0.0
C243 C 0.84078 0.16904 0.7194 0.0
C244 C 0.8753 0.16774 0.71169 0.0
C245 C 0.90803 0.20171 0.70105 0.0
C246 C 0.77844 0.07667 0.76007 0.0
C247 C 0.73908 0.06618 0.75295 0.0
C248 C 0.81156 0.10981 0.74901 0.0
C249 C 0.80592 0.13322 0.73077 0.0
C250 C 0.76656 0.12262 0.72367 0.0
C251 C 0.73357 0.08949 0.73459 0.0
H252 H 0.00541 0.52497 0.03716 0.0
H253 H 0.89097 0.43531 0.0074 0.0
H254 H 0.01662 0.56676 0.00011 0.0
H255 H 0.90294 0.47583 0.96971 0.0
H256 H 0.92061 0.56903 0.91146 0.0
H257 H 0.90719 0.53318 0.95136 0.0
H258 H 0.03359 0.57039 0.95785 0.0
H259 H 0.04702 0.60786 0.91873 0.0
C260 C 0.98268 0.51418 0.02264 0.0
C261 C 0.94736 0.47684 0.02516 0.0
C262 C -0.01079 0.53798 0.00125 0.0
C263 C 0.96091 0.52467 0.98163 0.0
C264 C 0.92521 0.48754 0.98448 0.0
C265 C 0.91839 0.46409 0.00607 0.0
C266 C 0.94551 0.56974 0.92156 0.0
C267 C 0.98486 0.59129 0.91197 0.0
C268 C 0.93782 0.54893 0.94439 0.0
C269 C 0.96923 0.54862 0.95797 0.0
C270 C 0.00865 0.57047 0.94832 0.0
C271 C 0.01639 0.5918 0.92573 0.0
H272 H 0.44487 0.37919 0.9101 0.0
H273 H 0.35242 0.40512 0.93482 0.0
H274 H 0.47866 0.40194 0.95037 0.0
H275 H 0.38573 0.42699 0.97536 0.0
H276 H 0.48394 0.50939 0.03116 0.0
H277 H 0.44592 0.48233 -0.00739 0.0
H278 H 0.47303 0.38525 -0.00551 0.0
H279 H 0.51191 0.41288 0.03275 0.0
C280 C 0.43152 0.38937 0.92422 0.0
C281 C 0.39601 0.39046 0.9192 0.0
C282 C 0.45078 0.40219 0.94739 0.0
C283 C 0.43495 0.41634 0.96613 0.0
C284 C 0.39906 0.41681 0.96123 0.0
C285 C 0.37983 0.40405 0.93803 0.0
C286 C 0.48157 0.48211 0.02346 0.0
C287 C 0.50113 0.46341 0.03498 0.0
C288 C 0.45956 0.46645 0.0014 0.0
C289 C 0.45651 0.43166 -0.00963 0.0
C290 C 0.47529 0.41244 0.00225 0.0
C291 C 0.49736 0.42814 0.02429 0.0
H292 H 0.56197 0.06967 0.02182 0.0
H293 H 0.46639 0.94588 0.02452 0.0
H294 H 0.58747 0.05594 0.98325 0.0
H295 H 0.49126 0.93239 0.98566 0.0
H296 H 0.56634 0.91237 0.92719 0.0
H297 H 0.5458 0.9263 0.96761 0.0
H298 H 0.56853 0.04194 0.9397 0.0
H299 H 0.59 0.02842 0.89952 0.0
C300 C 0.54645 0.0395 0.01423 0.0
C301 C 0.51209 0.00889 0.02623 0.0
C302 C 0.56091 0.03169 -0.00799 0.0
C303 C 0.54131 -0.00689 0.98124 0.0
C304 C 0.50741 0.96233 -0.00644 0.0
C305 C 0.49301 0.97011 0.0158 0.0
C306 C 0.56712 0.94084 0.92971 0.0
C307 C 0.57978 0.96926 0.91011 0.0
C308 C 0.55513 0.94874 0.95285 0.0
C309 C 0.55543 0.98522 0.95693 0.0
C310 C 0.56846 0.01378 0.93736 0.0
C311 C 0.58053 0.00592 0.91424 0.0
H312 H 0.33938 0.9512 0.53636 0.0
H313 H 0.45283 0.0199 0.5746 0.0
H314 H 0.37494 0.96727 0.49591 0.0
H315 H 0.48823 0.03495 0.53426 0.0
H316 H 0.53394 0.0096 0.45882 0.0
H317 H 0.49537 0.98922 0.49807 0.0
H318 H 0.42195 0.03826 0.4715 0.0
H319 H 0.46112 0.05965 0.43243 0.0
C320 C 0.37187 0.96949 0.53613 0.0
C321 C 0.39335 0.98439 0.55861 0.0
C322 C 0.39211 0.97874 0.51303 0.0
C323 C 0.43423 0.00218 0.51208 0.0
C324 C 0.45574 0.01658 0.53456 0.0
C325 C 0.43547 0.00814 0.55758 0.0
C326 C 0.50933 0.01569 0.46124 0.0
C327 C 0.50059 0.0363 0.44259 0.0
C328 C 0.48745 0.00421 0.48372 0.0
C329 C 0.45585 0.01231 0.48773 0.0
C330 C 0.44611 0.03158 0.46876 0.0
C331 C 0.46857 0.04387 0.44649 0.0
H332 H 0.03578 0.40329 0.54117 0.0
H333 H 0.91754 0.37439 0.56759 0.0
H334 H 0.02153 0.42298 0.50052 0.0
H335 H 0.90367 0.39497 0.52721 0.0
H336 H 0.87696 0.40122 0.44498 0.0
H337 H 0.89141 0.37629 0.48354 0.0
H338 H 0.01311 0.47623 0.48239 0.0
H339 H -0.00106 0.50059 0.44353 0.0
C340 C 0.00674 0.40113 0.53832 0.0
C341 C 0.97781 0.3873 0.55765 0.0
C342 C -0.00134 0.41264 0.51505 0.0
C343 C 0.96148 0.41064 0.51057 0.0
C344 C 0.9324 0.39636 0.52985 0.0
C345 C 0.94045 0.38479 0.55309 0.0
C346 C 0.9069 0.41769 0.45284 0.0
C347 C 0.93676 0.45297 0.44121 0.0
C348 C 0.91511 0.40354 0.47505 0.0
C349 C 0.95336 0.42437 0.48618 0.0
C350 C 0.98346 0.45916 0.47421 0.0
C351 C 0.97527 0.47326 0.45197 0.0
H352 H 0.53127 0.44238 0.46754 0.0
H353 H 0.50361 0.5316 0.43888 0.0
H354 H 0.55905 0.48202 0.50538 0.0
H355 H 0.53341 0.57256 0.47605 0.0
H356 H 0.54389 0.61185 0.55755 0.0
H357 H 0.52026 0.57505 0.51842 0.0
H358 H 0.61103 0.53921 0.5238 0.0
H359 H 0.63307 0.57434 0.56374 0.0
C360 C 0.53182 0.47089 0.46915 0.0
C361 C 0.51503 0.48376 0.45032 0.0
C362 C 0.548 0.49384 0.49082 0.0
C363 C 0.54841 0.5306 0.494 0.0
C364 C 0.53282 0.54403 0.47465 0.0
C365 C 0.51599 0.52071 0.45319 0.0
C366 C 0.55888 0.59622 0.55031 0.0
C367 C 0.59025 0.59589 0.56376 0.0
C368 C 0.54553 0.57529 0.52771 0.0
C369 C 0.56368 0.55403 0.51773 0.0
C370 C 0.59572 0.5545 0.53103 0.0
C371 C 0.6086 0.5749 0.55387 0.0
H372 H 0.00944 0.50476 0.29838 0.0
H373 H 0.88466 0.47133 0.28967 0.0
H374 H 0.01211 0.4875 0.25461 0.0
H375 H 0.88735 0.45542 0.24569 0.0
H376 H 0.89339 0.39467 0.17409 0.0
H377 H 0.89082 0.40976 0.21828 0.0
H378 H 0.01291 0.5088 0.21309 0.0
H379 H 0.01558 0.49255 0.16915 0.0
C380 C 0.98277 0.49433 0.28693 0.0
C381 C 0.94701 0.48988 0.29727 0.0
C382 C 0.98423 0.48444 0.26181 0.0
C383 C 0.95002 0.47026 0.2464 0.0
C384 C 0.91416 0.46559 0.25696 0.0
C385 C 0.9126 0.47492 0.28216 0.0
C386 C 0.91962 0.41963 0.18248 0.0
C387 C 0.95488 0.44204 0.16835 0.0
C388 C 0.91815 0.42848 0.2078 0.0
C389 C 0.95171 0.4605 0.21945 0.0
C390 C 0.98679 0.48332 0.20504 0.0
C391 C -0.01162 0.47407 0.17981 0.0
H392 H 0.49456 0.4112 0.30113 0.0
H393 H 0.45526 0.49909 0.30637 0.0
H394 H 0.5138 0.4303 0.25723 0.0
H395 H 0.47386 0.51776 0.2624 0.0
H396 H 0.56057 0.57032 0.19364 0.0
H397 H 0.53846 0.5511 0.23693 0.0
H398 H 0.47911 0.42582 0.21591 0.0
H399 H 0.49991 0.44518 0.17226 0.0
C400 C 0.48993 0.4345 0.29284 0.0
C401 C 0.47276 0.45317 0.30699 0.0
C402 C 0.50064 0.4452 0.2677 0.0
C403 C 0.49501 0.47528 0.25635 0.0
C404 C 0.4785 0.49445 0.27066 0.0
C405 C 0.46738 0.48342 0.29571 0.0
C406 C 0.54146 0.5388 0.19798 0.0
C407 C 0.53075 0.50938 0.1793 0.0
C408 C 0.52929 0.52775 0.22289 0.0
C409 C 0.50685 0.48697 0.22976 0.0
C410 C 0.49653 0.45749 0.21116 0.0
C411 C 0.50833 0.46858 0.18619 0.0
H412 H 0.53847 0.03792 0.16376 0.0
H413 H 0.41425 0.97273 0.18761 0.0
H414 H 0.55973 0.04283 0.2075 0.0
H415 H 0.43548 0.97607 0.23104 0.0
H416 H 0.49332 0.96241 0.30416 0.0
H417 H 0.47381 0.95241 0.25981 0.0
H418 H 0.55276 0.07906 0.24566 0.0
H419 H 0.57242 0.08894 0.28982 0.0
C420 C 0.5157 0.02397 0.17825 0.0
C421 C 0.47463 0.00382 0.17206 0.0
C422 C 0.52788 0.02684 0.20326 0.0
C423 C 0.49924 0.00952 0.22262 0.0
C424 C 0.45821 0.9889 0.21644 0.0
C425 C 0.44604 0.98648 0.19146 0.0
C426 C 0.50697 0.98791 0.29146 0.0
C427 C 0.53481 0.02633 0.3003 0.0
C428 C 0.4955 0.98228 0.26618 0.0
C429 C 0.51201 0.01492 0.24928 0.0
C430 C 0.53998 0.05327 0.25817 0.0
C431 C 0.55099 0.05897 0.28346 0.0
H432 H 0.04002 0.55408 0.80186 0.0
H433 H 0.08536 0.64631 0.74435 0.0
H434 H 0.05 0.50957 0.7739 0.0
H435 H 0.09603 0.60188 0.71651 0.0
H436 H 0.04007 0.48675 0.66612 0.0
H437 H 0.04964 0.5412 0.69385 0.0
H438 H 0.09727 0.49604 0.75101 0.0
H439 H 0.08701 0.441 0.72342 0.0
C440 C 0.05289 0.56519 0.78344 0.0
C441 C 0.06139 0.60359 0.77525 0.0
C442 C 0.05888 0.53972 0.76744 0.0
C443 C 0.07352 0.55207 0.74288 0.0
C444 C 0.08414 0.59128 0.73518 0.0
C445 C 0.07819 0.6168 0.7512 0.0
C446 C 0.05328 0.48879 0.68442 0.0
C447 C 0.06223 0.45916 0.69266 0.0
C448 C 0.05899 0.5202 0.70029 0.0
C449 C 0.07383 0.52272 0.72476 0.0
C450 C 0.08515 0.49453 0.73242 0.0
C451 C 0.07946 0.46311 0.71653 0.0
H452 H 0.49903 0.55677 0.67435 0.0
H453 H 0.54429 0.64861 0.73162 0.0
H454 H 0.44516 0.51181 0.70247 0.0
H455 H 0.4898 0.60371 0.75962 0.0
H456 H 0.43246 0.48809 0.81024 0.0
H457 H 0.47652 0.54295 0.7824 0.0
H458 H 0.38434 0.49777 0.72542 0.0
H459 H 0.34038 0.44231 0.75312 0.0
C460 C 0.49704 0.56769 0.69275 0.0
C461 C 0.52631 0.60612 0.70082 0.0
C462 C 0.46594 0.54197 0.70884 0.0
C463 C 0.46335 0.55407 0.73338 0.0
C464 C 0.49132 0.5933 0.74097 0.0
C465 C 0.52244 0.61908 0.72485 0.0
C466 C 0.42124 0.49021 0.79197 0.0
C467 C 0.38309 0.46045 0.7838 0.0
C468 C 0.44646 0.52186 0.77603 0.0
C469 C 0.43409 0.52449 0.75157 0.0
C470 C 0.39498 0.49618 0.744 0.0
C471 C 0.36972 0.46452 0.75995 0.0
H472 H 0.47757 0.87645 0.80153 0.0
H473 H 0.55349 0.91629 0.73547 0.0
H474 H 0.41966 0.8633 0.77578 0.0
H475 H 0.4966 0.90522 0.71011 0.0
H476 H 0.39134 0.8808 0.66515 0.0
H477 H 0.43462 0.86517 0.69083 0.0
H478 H 0.39801 0.90445 0.75699 0.0
H479 H 0.35359 0.91792 0.73166 0.0
C480 C 0.48183 0.88196 0.78149 0.0
C481 C 0.52027 0.89797 0.77064 0.0
C482 C 0.44868 0.87467 0.76672 0.0
C483 C 0.45337 0.88378 0.74085 0.0
C484 C 0.49142 0.89732 0.72984 0.0
C485 C 0.52434 0.90406 0.74451 0.0
C486 C 0.39185 0.88511 0.68527 0.0
C487 C 0.36949 0.90122 0.69627 0.0
C488 C 0.41689 0.87644 0.70001 0.0
C489 C 0.42058 0.88427 0.726 0.0
C490 C 0.3959 0.89761 0.73715 0.0
C491 C 0.3705 0.9057 0.72251 0.0
loop_
_geom_bond_atom_site_label_1
_geom_bond_atom_site_label_2
_geom_bond_distance
_geom_bond_site_symmetry_2
_ccdc_geom_bond_type
O0 Cd1 2.300 1_655 S
O0 C7 1.275 . S
Cd1 O0 2.300 1_455 S
Cd1 O9 2.381 1_455 S
Cd1 O10 2.378 . S
O2 Cd3 2.385 . S
O2 C7 1.255 1_455 S
Cd3 O2 2.385 . S
Cd3 O4 2.317 . S
O4 Cd3 2.317 . S
O4 C5 1.232 . S
C5 O4 1.232 . S
C5 O6 1.218 . S
O6 C5 1.218 . S
C7 O0 1.275 . S
C7 O2 1.255 1_655 S
C8 O9 1.258 . S
C8 O10 1.256 1_655 S
O9 Cd1 2.381 1_655 S
O9 C8 1.258 . S
O10 Cd1 2.378 . S
O10 C8 1.256 1_455 S
O11 Cd12 2.300 . S
O11 C18 1.275 . S
Cd12 O11 2.300 . S
Cd12 O20 2.381 . S
Cd12 O21 2.378 . S
O13 Cd14 2.385 . S
O13 C18 1.255 . S
Cd14 O13 2.385 . S
Cd14 O15 2.317 . S
O15 Cd14 2.317 . S
O15 C16 1.232 . S
C16 O15 1.232 . S
C16 O17 1.218 . S
O17 C16 1.218 . S
C18 O11 1.275 . S
C18 O13 1.255 . S
C19 O20 1.258 . S
C19 O21 1.256 . S
O20 Cd12 2.381 . S
O20 C19 1.258 . S
O21 Cd12 2.378 . S
O21 C19 1.256 . S
O22 Cd23 2.300 1_545 S
O22 C29 1.275 . S
Cd23 O22 2.300 1_565 S
Cd23 O31 2.381 1_565 S
Cd23 O32 2.378 . S
O24 Cd25 2.385 . S
O24 C29 1.255 1_565 S
Cd25 O24 2.385 . S
Cd25 O26 2.317 . S
O26 Cd25 2.317 . S
O26 C27 1.232 . S
C27 O26 1.232 . S
C27 O28 1.218 . S
O28 C27 1.218 . S
C29 O22 1.275 . S
C29 O24 1.255 1_545 S
C30 O31 1.258 . S
C30 O32 1.256 1_545 S
O31 Cd23 2.381 1_545 S
O31 C30 1.258 . S
O32 Cd23 2.378 . S
O32 C30 1.256 1_565 S
O33 Cd34 2.300 1_545 S
O33 C40 1.275 . S
Cd34 O33 2.300 1_565 S
Cd34 O42 2.381 1_565 S
Cd34 O43 2.378 . S
O35 Cd36 2.385 . S
O35 C40 1.255 1_565 S
Cd36 O35 2.385 . S
Cd36 O37 2.317 . S
O37 Cd36 2.317 . S
O37 C38 1.232 . S
C38 O37 1.232 . S
C38 O39 1.218 . S
O39 C38 1.218 . S
C40 O33 1.275 . S
C40 O35 1.255 1_545 S
C41 O42 1.258 . S
C41 O43 1.256 1_545 S
O42 Cd34 2.381 1_545 S
O42 C41 1.258 . S
O43 Cd34 2.378 . S
O43 C41 1.256 1_565 S
O44 Cd45 2.300 1_655 S
O44 C51 1.275 . S
Cd45 O44 2.300 1_455 S
Cd45 O53 2.381 1_455 S
Cd45 O54 2.378 . S
O46 Cd47 2.385 . S
O46 C51 1.255 1_455 S
Cd47 O46 2.385 . S
Cd47 O48 2.317 . S
O48 Cd47 2.317 . S
O48 C49 1.232 . S
C49 O48 1.232 . S
C49 O50 1.218 . S
O50 C49 1.218 . S
C51 O44 1.275 . S
C51 O46 1.255 1_655 S
C52 O53 1.258 . S
C52 O54 1.256 1_655 S
O53 Cd45 2.381 1_655 S
O53 C52 1.258 . S
O54 Cd45 2.378 . S
O54 C52 1.256 1_455 S
O55 Cd56 2.300 . S
O55 C62 1.275 . S
Cd56 O55 2.300 . S
Cd56 O64 2.381 . S
Cd56 O65 2.378 . S
O57 Cd58 2.385 . S
O57 C62 1.255 . S
Cd58 O57 2.385 . S
Cd58 O59 2.317 . S
O59 Cd58 2.317 . S
O59 C60 1.232 . S
C60 O59 1.232 . S
C60 O61 1.218 . S
O61 C60 1.218 . S
C62 O55 1.275 . S
C62 O57 1.255 . S
C63 O64 1.258 . S
C63 O65 1.256 . S
O64 Cd56 2.381 . S
O64 C63 1.258 . S
O65 Cd56 2.378 . S
O65 C63 1.256 . S
O66 Cd67 2.300 . S
O66 C73 1.275 . S
Cd67 O66 2.300 . S
Cd67 O75 2.381 . S
Cd67 O76 2.378 . S
O68 Cd69 2.385 . S
O68 C73 1.255 . S
Cd69 O68 2.385 . S
Cd69 O70 2.317 1_455 S
O70 Cd69 2.317 1_655 S
O70 C71 1.232 . S
C71 O70 1.232 . S
C71 O72 1.218 . S
O72 C71 1.218 . S
C73 O66 1.275 . S
C73 O68 1.255 . S
C74 O75 1.258 . S
C74 O76 1.256 . S
O75 Cd67 2.381 . S
O75 C74 1.258 . S
O76 Cd67 2.378 . S
O76 C74 1.256 . S
O77 Cd78 2.300 . S
O77 C84 1.275 . S
Cd78 O77 2.300 . S
Cd78 O86 2.381 . S
Cd78 O87 2.378 . S
O79 Cd80 2.385 . S
O79 C84 1.255 . S
Cd80 O79 2.385 . S
Cd80 O81 2.317 . S
O81 Cd80 2.317 . S
O81 C82 1.232 . S
C82 O81 1.232 . S
C82 O83 1.218 . S
O83 C82 1.218 . S
C84 O77 1.275 . S
C84 O79 1.255 . S
C85 O86 1.258 . S
C85 O87 1.256 . S
O86 Cd78 2.381 . S
O86 C85 1.258 . S
O87 Cd78 2.378 . S
O87 C85 1.256 . S
O88 Cd89 2.300 . S
O88 C95 1.275 . S
Cd89 O88 2.300 . S
Cd89 O97 2.381 . S
Cd89 O98 2.378 . S
O90 Cd91 2.385 . S
O90 C95 1.255 . S
Cd91 O90 2.385 . S
Cd91 O92 2.317 1_565 S
O92 Cd91 2.317 1_545 S
O92 C93 1.232 . S
C93 O92 1.232 . S
C93 O94 1.218 . S
O94 C93 1.218 . S
C95 O88 1.275 . S
C95 O90 1.255 . S
C96 O97 1.258 . S
C96 O98 1.256 . S
O97 Cd89 2.381 . S
O97 C96 1.258 . S
O98 Cd89 2.378 . S
O98 C96 1.256 . S
O99 Cd100 2.300 . S
O99 C106 1.275 . S
Cd100 O99 2.300 . S
Cd100 O108 2.381 . S
Cd100 O109 2.378 . S
O101 Cd102 2.385 . S
O101 C106 1.255 . S
Cd102 O101 2.385 . S
Cd102 O103 2.317 1_565 S
O103 Cd102 2.317 1_545 S
O103 C104 1.232 . S
C104 O103 1.232 . S
C104 O105 1.218 . S
O105 C104 1.218 . S
C106 O99 1.275 . S
C106 O101 1.255 . S
C107 O108 1.258 . S
C107 O109 1.256 . S
O108 Cd100 2.381 . S
O108 C107 1.258 . S
O109 Cd100 2.378 . S
O109 C107 1.256 . S
O110 Cd111 2.300 . S
O110 C117 1.275 . S
Cd111 O110 2.300 . S
Cd111 O119 2.381 . S
Cd111 O120 2.378 . S
O112 Cd113 2.385 . S
O112 C117 1.255 . S
Cd113 O112 2.385 . S
Cd113 O114 2.317 1_455 S
O114 Cd113 2.317 1_655 S
O114 C115 1.232 . S
C115 O114 1.232 . S
C115 O116 1.218 . S
O116 C115 1.218 . S
C117 O110 1.275 . S
C117 O112 1.255 . S
C118 O119 1.258 . S
C118 O120 1.256 . S
O119 Cd111 2.381 . S
O119 C118 1.258 . S
O120 Cd111 2.378 . S
O120 C118 1.256 . S
O121 Cd122 2.300 . S
O121 C128 1.275 . S
Cd122 O121 2.300 . S
Cd122 O130 2.381 . S
Cd122 O131 2.378 . S
O123 Cd124 2.385 . S
O123 C128 1.255 . S
Cd124 O123 2.385 . S
Cd124 O125 2.317 . S
O125 Cd124 2.317 . S
O125 C126 1.232 . S
C126 O125 1.232 . S
C126 O127 1.218 . S
O127 C126 1.218 . S
C128 O121 1.275 . S
C128 O123 1.255 . S
C129 O130 1.258 . S
C129 O131 1.256 . S
O130 Cd122 2.381 . S
O130 C129 1.258 . S
O131 Cd122 2.378 . S
O131 C129 1.256 . S
H132 C140 0.950 . S
H133 C145 0.950 . S
H134 C142 0.950 . S
H135 C144 0.950 . S
H136 C146 0.950 . S
H137 C148 0.950 . S
H138 C150 0.950 . S
H139 C151 0.950 . S
C140 H132 0.950 . S
C140 C141 1.386 . S
C140 C142 1.391 . S
C141 C140 1.386 . S
C141 C145 1.393 . S
C142 H134 0.950 . S
C142 C140 1.391 . S
C142 C143 1.400 . S
C143 C142 1.400 . S
C143 C144 1.398 . S
C143 C149 1.491 . S
C144 H135 0.950 . S
C144 C143 1.398 . S
C144 C145 1.391 . S
C145 H133 0.950 . S
C145 C141 1.393 . S
C145 C144 1.391 . S
C146 H136 0.950 . S
C146 C147 1.386 . S
C146 C148 1.391 . S
C147 C146 1.386 . S
C147 C151 1.393 . S
C148 H137 0.950 . S
C148 C146 1.391 . S
C148 C149 1.400 . S
C149 C143 1.491 . S
C149 C148 1.400 . S
C149 C150 1.398 . S
C150 H138 0.950 . S
C150 C149 1.398 . S
C150 C151 1.391 . S
C151 H139 0.950 . S
C151 C147 1.393 . S
C151 C150 1.391 . S
H152 C160 0.950 . S
H153 C165 0.950 . S
H154 C162 0.950 . S
H155 C164 0.950 . S
H156 C166 0.950 . S
H157 C168 0.950 . S
H158 C170 0.950 . S
H159 C171 0.950 . S
C160 H152 0.950 . S
C160 C161 1.386 . S
C160 C162 1.391 . S
C161 C160 1.386 . S
C161 C165 1.393 . S
C162 H154 0.950 . S
C162 C160 1.391 . S
C162 C163 1.400 . S
C163 C162 1.400 . S
C163 C164 1.398 . S
C163 C169 1.491 . S
C164 H155 0.950 . S
C164 C163 1.398 . S
C164 C165 1.391 . S
C165 H153 0.950 . S
C165 C161 1.393 . S
C165 C164 1.391 . S
C166 H156 0.950 . S
C166 C167 1.386 . S
C166 C168 1.391 . S
C167 C166 1.386 . S
C167 C171 1.393 . S
C168 H157 0.950 . S
C168 C166 1.391 . S
C168 C169 1.400 . S
C169 C163 1.491 . S
C169 C168 1.400 . S
C169 C170 1.398 . S
C170 H158 0.950 . S
C170 C169 1.398 . S
C170 C171 1.391 . S
C171 H159 0.950 . S
C171 C167 1.393 . S
C171 C170 1.391 . S
H172 C180 0.950 . S
H173 C185 0.950 . S
H174 C182 0.950 . S
H175 C184 0.950 . S
H176 C186 0.950 . S
H177 C188 0.950 . S
H178 C190 0.950 . S
H179 C191 0.950 . S
C180 H172 0.950 . S
C180 C181 1.386 . S
C180 C182 1.391 . S
C181 C180 1.386 . S
C181 C185 1.393 . S
C182 H174 0.950 . S
C182 C180 1.391 . S
C182 C183 1.400 . S
C183 C182 1.400 . S
C183 C184 1.398 . S
C183 C189 1.491 . S
C184 H175 0.950 . S
C184 C183 1.398 . S
C184 C185 1.391 . S
C185 H173 0.950 . S
C185 C181 1.393 . S
C185 C184 1.391 . S
C186 H176 0.950 . S
C186 C187 1.386 . S
C186 C188 1.391 . S
C187 C186 1.386 . S
C187 C191 1.393 . S
C188 H177 0.950 . S
C188 C186 1.391 . S
C188 C189 1.400 . S
C189 C183 1.491 . S
C189 C188 1.400 . S
C189 C190 1.398 . S
C190 H178 0.950 . S
C190 C189 1.398 . S
C190 C191 1.391 . S
C191 H179 0.950 . S
C191 C187 1.393 . S
C191 C190 1.391 . S
H192 C200 0.950 . S
H193 C205 0.950 . S
H194 C202 0.950 . S
H195 C204 0.950 . S
H196 C206 0.950 . S
H197 C208 0.950 . S
H198 C210 0.950 . S
H199 C211 0.950 . S
C200 H192 0.950 . S
C200 C201 1.386 . S
C200 C202 1.391 . S
C201 C200 1.386 . S
C201 C205 1.393 . S
C202 H194 0.950 . S
C202 C200 1.391 . S
C202 C203 1.400 . S
C203 C202 1.400 . S
C203 C204 1.398 . S
C203 C209 1.491 . S
C204 H195 0.950 . S
C204 C203 1.398 . S
C204 C205 1.391 . S
C205 H193 0.950 . S
C205 C201 1.393 . S
C205 C204 1.391 . S
C206 H196 0.950 . S
C206 C207 1.386 . S
C206 C208 1.391 . S
C207 C206 1.386 . S
C207 C211 1.393 . S
C208 H197 0.950 . S
C208 C206 1.391 . S
C208 C209 1.400 . S
C209 C203 1.491 . S
C209 C208 1.400 . S
C209 C210 1.398 . S
C210 H198 0.950 . S
C210 C209 1.398 . S
C210 C211 1.391 . S
C211 H199 0.950 . S
C211 C207 1.393 . S
C211 C210 1.391 . S
H212 C220 0.950 . S
H213 C225 0.950 . S
H214 C222 0.950 . S
H215 C224 0.950 . S
H216 C226 0.950 . S
H217 C228 0.950 . S
H218 C230 0.950 . S
H219 C231 0.950 . S
C220 H212 0.950 . S
C220 C221 1.386 . S
C220 C222 1.391 . S
C221 C220 1.386 . S
C221 C225 1.393 . S
C222 H214 0.950 . S
C222 C220 1.391 . S
C222 C223 1.400 . S
C223 C222 1.400 . S
C223 C224 1.398 . S
C223 C229 1.491 . S
C224 H215 0.950 . S
C224 C223 1.398 . S
C224 C225 1.391 . S
C225 H213 0.950 . S
C225 C221 1.393 . S
C225 C224 1.391 . S
C226 H216 0.950 . S
C226 C227 1.386 . S
C226 C228 1.391 . S
C227 C226 1.386 . S
C227 C231 1.393 . S
C228 H217 0.950 . S
C228 C226 1.391 . S
C228 C229 1.400 . S
C229 C223 1.491 . S
C229 C228 1.400 . S
C229 C230 1.398 . S
C230 H218 0.950 . S
C230 C229 1.398 . S
C230 C231 1.391 . S
C231 H219 0.950 . S
C231 C227 1.393 . S
C231 C230 1.391 . S
H232 C240 0.950 . S
H233 C245 0.950 . S
H234 C242 0.950 . S
H235 C244 0.950 . S
H236 C246 0.950 . S
H237 C248 0.950 . S
H238 C250 0.950 . S
H239 C251 0.950 . S
C240 H232 0.950 . S
C240 C241 1.386 . S
C240 C242 1.391 . S
C241 C240 1.386 . S
C241 C245 1.393 . S
C242 H234 0.950 . S
C242 C240 1.391 . S
C242 C243 1.400 . S
C243 C242 1.400 . S
C243 C244 1.398 . S
C243 C249 1.491 . S
C244 H235 0.950 . S
C244 C243 1.398 . S
C244 C245 1.391 . S
C245 H233 0.950 . S
C245 C241 1.393 . S
C245 C244 1.391 . S
C246 H236 0.950 . S
C246 C247 1.386 . S
C246 C248 1.391 . S
C247 C246 1.386 . S
C247 C251 1.393 . S
C248 H237 0.950 . S
C248 C246 1.391 . S
C248 C249 1.400 . S
C249 C243 1.491 . S
C249 C248 1.400 . S
C249 C250 1.398 . S
C250 H238 0.950 . S
C250 C249 1.398 . S
C250 C251 1.391 . S
C251 H239 0.950 . S
C251 C247 1.393 . S
C251 C250 1.391 . S
H252 C260 0.950 . S
H253 C265 0.950 . S
H254 C262 0.950 . S
H255 C264 0.950 . S
H256 C266 0.950 . S
H257 C268 0.950 . S
H258 C270 0.950 . S
H259 C271 0.950 . S
C260 H252 0.950 . S
C260 C261 1.386 1_455 S
C260 C262 1.391 . S
C261 C260 1.386 1_655 S
C261 C265 1.393 . S
C262 H254 0.950 . S
C262 C260 1.391 . S
C262 C263 1.400 1_455 S
C263 C262 1.400 1_655 S
C263 C264 1.398 . S
C263 C269 1.491 1_654 S
C264 H255 0.950 . S
C264 C263 1.398 . S
C264 C265 1.391 . S
C265 H253 0.950 . S
C265 C261 1.393 . S
C265 C264 1.391 . S
C266 H256 0.950 . S
C266 C267 1.386 1_655 S
C266 C268 1.391 . S
C267 C266 1.386 1_455 S
C267 C271 1.393 . S
C268 H257 0.950 . S
C268 C266 1.391 . S
C268 C269 1.400 1_655 S
C269 C263 1.491 1_456 S
C269 C268 1.400 1_455 S
C269 C270 1.398 . S
C270 H258 0.950 . S
C270 C269 1.398 . S
C270 C271 1.391 . S
C271 H259 0.950 . S
C271 C267 1.393 . S
C271 C270 1.391 . S
H272 C280 0.950 . S
H273 C285 0.950 . S
H274 C282 0.950 . S
H275 C284 0.950 . S
H276 C286 0.950 . S
H277 C288 0.950 . S
H278 C290 0.950 . S
H279 C291 0.950 . S
C280 H272 0.950 . S
C280 C281 1.386 . S
C280 C282 1.391 . S
C281 C280 1.386 . S
C281 C285 1.393 . S
C282 H274 0.950 . S
C282 C280 1.391 . S
C282 C283 1.400 . S
C283 C282 1.400 . S
C283 C284 1.398 . S
C283 C289 1.491 1_556 S
C284 H275 0.950 . S
C284 C283 1.398 . S
C284 C285 1.391 . S
C285 H273 0.950 . S
C285 C281 1.393 . S
C285 C284 1.391 . S
C286 H276 0.950 . S
C286 C287 1.386 . S
C286 C288 1.391 . S
C287 C286 1.386 . S
C287 C291 1.393 . S
C288 H277 0.950 . S
C288 C286 1.391 . S
C288 C289 1.400 . S
C289 C283 1.491 1_554 S
C289 C288 1.400 . S
C289 C290 1.398 . S
C290 H278 0.950 . S
C290 C289 1.398 . S
C290 C291 1.391 . S
C291 H279 0.950 . S
C291 C287 1.393 . S
C291 C290 1.391 . S
H292 C300 0.950 . S
H293 C305 0.950 . S
H294 C302 0.950 . S
H295 C304 0.950 . S
H296 C306 0.950 . S
H297 C308 0.950 . S
H298 C310 0.950 . S
H299 C311 0.950 . S
C300 H292 0.950 . S
C300 C301 1.386 . S
C300 C302 1.391 . S
C301 C300 1.386 . S
C301 C305 1.393 1_545 S
C302 H294 0.950 . S
C302 C300 1.391 . S
C302 C303 1.400 . S
C303 C302 1.400 . S
C303 C304 1.398 1_545 S
C303 C309 1.491 1_544 S
C304 H295 0.950 . S
C304 C303 1.398 1_565 S
C304 C305 1.391 . S
C305 H293 0.950 . S
C305 C301 1.393 1_565 S
C305 C304 1.391 . S
C306 H296 0.950 . S
C306 C307 1.386 . S
C306 C308 1.391 . S
C307 C306 1.386 . S
C307 C311 1.393 1_565 S
C308 H297 0.950 . S
C308 C306 1.391 . S
C308 C309 1.400 . S
C309 C303 1.491 1_566 S
C309 C308 1.400 . S
C309 C310 1.398 1_565 S
C310 H298 0.950 . S
C310 C309 1.398 1_545 S
C310 C311 1.391 . S
C311 H299 0.950 . S
C311 C307 1.393 1_545 S
C311 C310 1.391 . S
H312 C320 0.959 . S
H313 C325 0.950 . S
H314 C322 0.950 . S
H315 C324 0.950 . S
H316 C326 0.959 . S
H317 C328 0.950 . S
H318 C330 0.950 . S
H319 C331 0.950 . S
C320 H312 0.959 . S
C320 C321 1.386 . S
C320 C322 1.391 1_565 S
C321 C320 1.386 . S
C321 C325 1.393 . S
C322 H314 0.950 . S
C322 C320 1.391 1_545 S
C322 C323 1.400 1_545 S
C323 C322 1.400 1_565 S
C323 C324 1.398 . S
C323 C329 1.491 1_565 S
C324 H315 0.950 . S
C324 C323 1.398 . S
C324 C325 1.391 . S
C325 H313 0.950 . S
C325 C321 1.393 . S
C325 C324 1.391 . S
C326 H316 0.959 . S
C326 C327 1.386 . S
C326 C328 1.391 1_545 S
C327 C326 1.386 . S
C327 C331 1.393 . S
C328 H317 0.950 . S
C328 C326 1.391 1_565 S
C328 C329 1.400 1_565 S
C329 C323 1.491 1_545 S
C329 C328 1.400 1_545 S
C329 C330 1.398 . S
C330 H318 0.950 . S
C330 C329 1.398 . S
C330 C331 1.391 . S
C331 H319 0.950 . S
C331 C327 1.393 . S
C331 C330 1.391 . S
H332 C340 0.950 . S
H333 C345 0.950 . S
H334 C342 0.950 . S
H335 C344 0.950 . S
H336 C346 0.950 . S
H337 C348 0.950 . S
H338 C350 0.950 . S
H339 C351 0.950 . S
C340 H332 0.950 . S
C340 C341 1.386 . S
C340 C342 1.391 . S
C341 C340 1.386 . S
C341 C345 1.393 1_455 S
C342 H334 0.950 . S
C342 C340 1.391 . S
C342 C343 1.400 . S
C343 C342 1.400 . S
C343 C344 1.398 1_455 S
C343 C349 1.491 1_455 S
C344 H335 0.950 . S
C344 C343 1.398 1_655 S
C344 C345 1.391 . S
C345 H333 0.950 . S
C345 C341 1.393 1_655 S
C345 C344 1.391 . S
C346 H336 0.950 . S
C346 C347 1.386 . S
C346 C348 1.391 . S
C347 C346 1.386 . S
C347 C351 1.393 1_655 S
C348 H337 0.950 . S
C348 C346 1.391 . S
C348 C349 1.400 . S
C349 C343 1.491 1_655 S
C349 C348 1.400 . S
C349 C350 1.398 1_655 S
C350 H338 0.950 . S
C350 C349 1.398 1_455 S
C350 C351 1.391 . S
C351 H339 0.950 . S
C351 C347 1.393 1_455 S
C351 C350 1.391 . S
H352 C360 0.950 . S
H353 C365 0.950 . S
H354 C362 0.950 . S
H355 C364 0.950 . S
H356 C366 0.950 . S
H357 C368 0.950 . S
H358 C370 0.950 . S
H359 C371 0.950 . S
C360 H352 0.950 . S
C360 C361 1.386 . S
C360 C362 1.391 . S
C361 C360 1.386 . S
C361 C365 1.393 . S
C362 H354 0.950 . S
C362 C360 1.391 . S
C362 C363 1.400 . S
C363 C362 1.400 . S
C363 C364 1.398 . S
C363 C369 1.491 . S
C364 H355 0.950 . S
C364 C363 1.398 . S
C364 C365 1.391 . S
C365 H353 0.950 . S
C365 C361 1.393 . S
C365 C364 1.391 . S
C366 H356 0.950 . S
C366 C367 1.386 . S
C366 C368 1.391 . S
C367 C366 1.386 . S
C367 C371 1.393 . S
C368 H357 0.950 . S
C368 C366 1.391 . S
C368 C369 1.400 . S
C369 C363 1.491 . S
C369 C368 1.400 . S
C369 C370 1.398 . S
C370 H358 0.950 . S
C370 C369 1.398 . S
C370 C371 1.391 . S
C371 H359 0.950 . S
C371 C367 1.393 . S
C371 C370 1.391 . S
H372 C380 0.950 . S
H373 C385 0.950 . S
H374 C382 0.950 . S
H375 C384 0.950 . S
H376 C386 0.950 . S
H377 C388 0.950 . S
H378 C390 0.950 . S
H379 C391 0.950 . S
C380 H372 0.950 . S
C380 C381 1.386 1_455 S
C380 C382 1.391 . S
C381 C380 1.386 1_655 S
C381 C385 1.393 . S
C382 H374 0.950 . S
C382 C380 1.391 . S
C382 C383 1.400 1_455 S
C383 C382 1.400 1_655 S
C383 C384 1.398 . S
C383 C389 1.491 . S
C384 H375 0.950 . S
C384 C383 1.398 . S
C384 C385 1.391 . S
C385 H373 0.950 . S
C385 C381 1.393 . S
C385 C384 1.391 . S
C386 H376 0.950 . S
C386 C387 1.386 . S
C386 C388 1.391 . S
C387 C386 1.386 . S
C387 C391 1.393 1_655 S
C388 H377 0.950 . S
C388 C386 1.391 . S
C388 C389 1.400 . S
C389 C383 1.491 . S
C389 C388 1.400 . S
C389 C390 1.398 1_655 S
C390 H378 0.950 . S
C390 C389 1.398 1_455 S
C390 C391 1.391 . S
C391 H379 0.950 . S
C391 C387 1.393 1_455 S
C391 C390 1.391 . S
H392 C400 0.950 . S
H393 C405 0.950 . S
H394 C402 0.950 . S
H395 C404 0.950 . S
H396 C406 0.950 . S
H397 C408 0.950 . S
H398 C410 0.950 . S
H399 C411 0.950 . S
C400 H392 0.950 . S
C400 C401 1.386 . S
C400 C402 1.391 . S
C401 C400 1.386 . S
C401 C405 1.393 . S
C402 H394 0.950 . S
C402 C400 1.391 . S
C402 C403 1.400 . S
C403 C402 1.400 . S
C403 C404 1.398 . S
C403 C409 1.491 . S
C404 H395 0.950 . S
C404 C403 1.398 . S
C404 C405 1.391 . S
C405 H393 0.950 . S
C405 C401 1.393 . S
C405 C404 1.391 . S
C406 H396 0.950 . S
C406 C407 1.386 . S
C406 C408 1.391 . S
C407 C406 1.386 . S
C407 C411 1.393 . S
C408 H397 0.950 . S
C408 C406 1.391 . S
C408 C409 1.400 . S
C409 C403 1.491 . S
C409 C408 1.400 . S
C409 C410 1.398 . S
C410 H398 0.950 . S
C410 C409 1.398 . S
C410 C411 1.391 . S
C411 H399 0.950 . S
C411 C407 1.393 . S
C411 C410 1.391 . S
H412 C420 0.950 . S
H413 C425 0.950 . S
H414 C422 0.950 . S
H415 C424 0.950 . S
H416 C426 0.950 . S
H417 C428 0.950 . S
H418 C430 0.950 . S
H419 C431 0.950 . S
C420 H412 0.950 . S
C420 C421 1.386 . S
C420 C422 1.391 . S
C421 C420 1.386 . S
C421 C425 1.393 1_545 S
C422 H414 0.950 . S
C422 C420 1.391 . S
C422 C423 1.400 . S
C423 C422 1.400 . S
C423 C424 1.398 1_545 S
C423 C429 1.491 . S
C424 H415 0.950 . S
C424 C423 1.398 1_565 S
C424 C425 1.391 . S
C425 H413 0.950 . S
C425 C421 1.393 1_565 S
C425 C424 1.391 . S
C426 H416 0.950 . S
C426 C427 1.386 1_565 S
C426 C428 1.391 . S
C427 C426 1.386 1_545 S
C427 C431 1.393 . S
C428 H417 0.950 . S
C428 C426 1.391 . S
C428 C429 1.400 1_565 S
C429 C423 1.491 . S
C429 C428 1.400 1_545 S
C429 C430 1.398 . S
C430 H418 0.950 . S
C430 C429 1.398 . S
C430 C431 1.391 . S
C431 H419 0.950 . S
C431 C427 1.393 . S
C431 C430 1.391 . S
H432 C440 0.950 . S
H433 C445 0.950 . S
H434 C442 0.950 . S
H435 C444 0.950 . S
H436 C446 0.950 . S
H437 C448 0.950 . S
H438 C450 0.950 . S
H439 C451 0.950 . S
C440 H432 0.950 . S
C440 C441 1.386 . S
C440 C442 1.391 . S
C441 C440 1.386 . S
C441 C445 1.393 . S
C442 H434 0.950 . S
C442 C440 1.391 . S
C442 C443 1.400 . S
C443 C442 1.400 . S
C443 C444 1.398 . S
C443 C449 1.491 . S
C444 H435 0.950 . S
C444 C443 1.398 . S
C444 C445 1.391 . S
C445 H433 0.950 . S
C445 C441 1.393 . S
C445 C444 1.391 . S
C446 H436 0.950 . S
C446 C447 1.386 . S
C446 C448 1.391 . S
C447 C446 1.386 . S
C447 C451 1.393 . S
C448 H437 0.950 . S
C448 C446 1.391 . S
C448 C449 1.400 . S
C449 C443 1.491 . S
C449 C448 1.400 . S
C449 C450 1.398 . S
C450 H438 0.950 . S
C450 C449 1.398 . S
C450 C451 1.391 . S
C451 H439 0.950 . S
C451 C447 1.393 . S
C451 C450 1.391 . S
H452 C460 0.950 . S
H453 C465 0.950 . S
H454 C462 0.950 . S
H455 C464 0.950 . S
H456 C466 0.950 . S
H457 C468 0.950 . S
H458 C470 0.950 . S
H459 C471 0.950 . S
C460 H452 0.950 . S
C460 C461 1.386 . S
C460 C462 1.391 . S
C461 C460 1.386 . S
C461 C465 1.393 . S
C462 H454 0.950 . S
C462 C460 1.391 . S
C462 C463 1.400 . S
C463 C462 1.400 . S
C463 C464 1.398 . S
C463 C469 1.491 . S
C464 H455 0.950 . S
C464 C463 1.398 . S
C464 C465 1.391 . S
C465 H453 0.950 . S
C465 C461 1.393 . S
C465 C464 1.391 . S
C466 H456 0.950 . S
C466 C467 1.386 . S
C466 C468 1.391 . S
C467 C466 1.386 . S
C467 C471 1.393 . S
C468 H457 0.950 . S
C468 C466 1.391 . S
C468 C469 1.400 . S
C469 C463 1.491 . S
C469 C468 1.400 . S
C469 C470 1.398 . S
C470 H458 0.950 . S
C470 C469 1.398 . S
C470 C471 1.391 . S
C471 H459 0.950 . S
C471 C467 1.393 . S
C471 C470 1.391 . S
H472 C480 0.950 . S
H473 C485 0.950 . S
H474 C482 0.950 . S
H475 C484 0.950 . S
H476 C486 0.957 . S
H477 C488 0.950 . S
H478 C490 0.950 . S
H479 C491 0.950 . S
C480 H472 0.950 . S
C480 C481 1.386 . S
C480 C482 1.391 . S
C481 C480 1.386 . S
C481 C485 1.393 1_565 S
C482 H474 0.950 . S
C482 C480 1.391 . S
C482 C483 1.400 . S
C483 C482 1.400 . S
C483 C484 1.398 1_565 S
C483 C489 1.491 . S
C484 H475 0.950 . S
C484 C483 1.398 1_545 S
C484 C485 1.391 . S
C485 H473 0.950 . S
C485 C481 1.393 1_545 S
C485 C484 1.391 . S
C486 H476 0.957 . S
C486 C487 1.386 1_545 S
C486 C488 1.384 . S
C487 C486 1.386 1_565 S
C487 C491 1.393 . S
C488 H477 0.950 . S
C488 C486 1.384 . S
C488 C489 1.400 1_545 S
C489 C483 1.491 . S
C489 C488 1.400 1_565 S
C489 C490 1.398 . S
C490 H478 0.950 . S
C490 C489 1.398 . S
C490 C491 1.391 . S
C491 H479 0.950 . S
C491 C487 1.393 . S
C491 C490 1.391 . S
C141 C60 1.488 . S
C147 C5 1.453 . S
C161 C16 1.449 . S
C167 C38 1.482 . S
C181 C49 1.476 . S
C187 C27 1.454 . S
C201 C126 1.709 . S
C207 C71 1.696 . S
C221 C82 1.703 . S
C227 C104 1.699 . S
C241 C115 1.712 . S
C247 C93 1.729 . S
C261 C8 1.947 . S
C267 C74 2.047 . S
C281 C85 2.033 . S
C287 C19 1.921 . S
C301 C30 1.921 . S
C307 C96 2.033 . S
C321 C107 2.036 . S
C327 C41 1.922 . S
C341 C118 2.042 . S
C347 C52 1.932 . S
C361 C63 1.922 . S
C367 C129 2.036 . S
C381 C51 0.962 . S
C387 C7 0.984 . S
C401 C62 0.995 . S
C407 C18 1.017 . S
C421 C29 1.017 . S
C427 C40 1.010 . S
C441 C73 1.062 . S
C447 C117 1.056 . S
C461 C128 1.053 . S
C467 C84 1.047 . S
C481 C95 1.054 . S
C487 C106 1.048 . S
