# Generated by pormake.
# Topology unf, (4)-cn, num edge types: 1
# Building blocks:
#     Node 0, Type 0, BuildingBlock: UXUYUI_clean_sbu_0, # of connection points: 4
#     Node 1, Type 0, BuildingBlock: UXUYUI_clean_sbu_0, # of connection points: 4
#     Node 2, Type 0, BuildingBlock: UXUYUI_clean_sbu_0, # of connection points: 4
#     Node 3, Type 0, BuildingBlock: UXUYUI_clean_sbu_0, # of connection points: 4
#     Node 4, Type 0, BuildingBlock: UXUYUI_clean_sbu_0, # of connection points: 4
#     Node 5, Type 0, BuildingBlock: UXUYUI_clean_sbu_0, # of connection points: 4
#     Node 6, Type 0, BuildingBlock: UXUYUI_clean_sbu_0, # of connection points: 4
#     Node 7, Type 0, BuildingBlock: UXUYUI_clean_sbu_0, # of connection points: 4
#     Node 8, Type 0, BuildingBlock: UXUYUI_clean_sbu_0, # of connection points: 4
#     Node 9, Type 0, BuildingBlock: UXUYUI_clean_sbu_0, # of connection points: 4
#     Node 10, Type 0, BuildingBlock: UXUYUI_clean_sbu_0, # of connection points: 4
#     Node 11, Type 0, BuildingBlock: UXUYUI_clean_sbu_0, # of connection points: 4
#     Edge 12, Type (0, 0), BuildingBlock: TEMPAE_clean_linker_10, # of connection points: 2
#     Edge 13, Type (0, 0), BuildingBlock: TEMPAE_clean_linker_10, # of connection points: 2
#     Edge 14, Type (0, 0), BuildingBlock: TEMPAE_clean_linker_10, # of connection points: 2
#     Edge 15, Type (0, 0), BuildingBlock: TEMPAE_clean_linker_10, # of connection points: 2
#     Edge 16, Type (0, 0), BuildingBlock: TEMPAE_clean_linker_10, # of connection points: 2
#     Edge 17, Type (0, 0), BuildingBlock: TEMPAE_clean_linker_10, # of connection points: 2
#     Edge 18, Type (0, 0), BuildingBlock: TEMPAE_clean_linker_10, # of connection points: 2
#     Edge 19, Type (0, 0), BuildingBlock: TEMPAE_clean_linker_10, # of connection points: 2
#     Edge 20, Type (0, 0), BuildingBlock: TEMPAE_clean_linker_10, # of connection points: 2
#     Edge 21, Type (0, 0), BuildingBlock: TEMPAE_clean_linker_10, # of connection points: 2
#     Edge 22, Type (0, 0), BuildingBlock: TEMPAE_clean_linker_10, # of connection points: 2
#     Edge 23, Type (0, 0), BuildingBlock: TEMPAE_clean_linker_10, # of connection points: 2
#     Edge 24, Type (0, 0), BuildingBlock: TEMPAE_clean_linker_10, # of connection points: 2
#     Edge 25, Type (0, 0), BuildingBlock: TEMPAE_clean_linker_10, # of connection points: 2
#     Edge 26, Type (0, 0), BuildingBlock: TEMPAE_clean_linker_10, # of connection points: 2
#     Edge 27, Type (0, 0), BuildingBlock: TEMPAE_clean_linker_10, # of connection points: 2
#     Edge 28, Type (0, 0), BuildingBlock: TEMPAE_clean_linker_10, # of connection points: 2
#     Edge 29, Type (0, 0), BuildingBlock: TEMPAE_clean_linker_10, # of connection points: 2
#     Edge 30, Type (0, 0), BuildingBlock: TEMPAE_clean_linker_10, # of connection points: 2
#     Edge 31, Type (0, 0), BuildingBlock: TEMPAE_clean_linker_10, # of connection points: 2
#     Edge 32, Type (0, 0), BuildingBlock: TEMPAE_clean_linker_10, # of connection points: 2
#     Edge 33, Type (0, 0), BuildingBlock: TEMPAE_clean_linker_10, # of connection points: 2
#     Edge 34, Type (0, 0), BuildingBlock: TEMPAE_clean_linker_10, # of connection points: 2
#     Edge 35, Type (0, 0), BuildingBlock: TEMPAE_clean_linker_10, # of connection points: 2
# Relax obj value: 0.347
# Max RMSD: 0.227
# Mean RMSD: 0.226
data_MOF--net-unf--node1-UXUYUI_clean_sbu_0--edge1-TEMPAE_clean_linker_10
_symmetry_space_group_name_H-M    P1
_symmetry_Int_Tables_number       1
_symmetry_cell_setting            triclinic
loop_
_symmetry_equiv_pos_as_xyz
'x, y, z'
_cell_length_a     55.55261
_cell_length_b     55.536597
_cell_length_c     53.224063
_cell_angle_alpha  90.058324
_cell_angle_beta   89.893071
_cell_angle_gamma 120.02567
loop_
_atom_site_label
_atom_site_type_symbol
_atom_site_fract_x
_atom_site_fract_y
_atom_site_fract_z
_atom_type_partial_charge
Li0 Li 0.03292 0.36935 0.09171 0.0
Li1 Li 0.05656 0.35206 0.12208 0.0
Li2 Li 0.05267 0.34122 0.07707 0.0
Li3 Li 0.01245 0.32105 0.10326 0.0
C4 C 0.093 0.39346 0.07594 0.0
N5 N 0.13387 0.42142 0.04025 0.0
C6 C 0.12056 0.40102 0.08105 0.0
C7 C 0.08624 0.40024 0.05271 0.0
C8 C 0.14091 0.41511 0.06275 0.0
C9 C 0.1072 0.41437 0.03492 0.0
C10 C 0.99669 0.34241 0.13929 0.0
C11 C 0.96511 0.31135 0.17072 0.0
N12 N 0.94661 0.31968 0.1647 0.0
C13 C 0.9775 0.35089 0.13361 0.0
C14 C 0.9906 0.32271 0.15818 0.0
C15 C 0.95225 0.33907 0.14659 0.0
C16 C 0.00175 0.39043 0.07032 0.0
N17 N 0.02662 0.39818 0.08133 0.0
C18 C 0.04446 0.44527 0.0685 0.0
C19 C 0.04761 0.42507 0.08127 0.0
C20 C 0.01941 0.4376 0.05594 0.0
C21 C 0.99758 0.40996 0.0576 0.0
H22 H 0.98564 0.36878 0.0704 0.0
H23 H 0.06729 0.4305 0.08993 0.0
C24 C 0.10471 0.36002 0.14429 0.0
N25 N 0.08083 0.36011 0.14955 0.0
C26 C 0.12371 0.36455 0.1633 0.0
C27 C 0.09277 0.36835 0.19303 0.0
C28 C 0.0745 0.36421 0.17328 0.0
C29 C 0.11774 0.36861 0.18803 0.0
H30 H 0.10868 0.35587 0.12534 0.0
H31 H 0.05512 0.36376 0.1769 0.0
C32 C 0.00207 0.31705 0.05149 0.0
N33 N 0.97219 0.27584 0.01663 0.0
C34 C 0.00315 0.29244 0.05165 0.0
C35 C 0.98586 0.32073 0.03356 0.0
C36 C 0.98787 0.27184 0.0339 0.0
C37 C 0.97091 0.29966 0.01608 0.0
C38 C 0.04423 0.29393 0.11679 0.0
C39 C 0.0463 0.27407 0.10223 0.0
C40 C 0.04139 0.29062 0.14285 0.0
C41 C 0.04507 0.251 0.11397 0.0
C42 C 0.04028 0.26728 0.15389 0.0
N43 N 0.0421 0.2481 0.13935 0.0
C44 C 0.09308 0.33128 0.05745 0.0
C45 C 0.0677 0.3393 0.02599 0.0
C46 C 0.11004 0.32919 0.03932 0.0
N47 N 0.07252 0.33634 0.05052 0.0
C48 C 0.0842 0.33734 0.00717 0.0
C49 C 0.10587 0.33248 0.01381 0.0
H50 H 0.09651 0.32929 0.07715 0.0
H51 H 0.05151 0.34383 0.02107 0.0
C52 C 0.95558 0.29213 0.09715 0.0
N53 N 0.97647 0.28858 0.10617 0.0
C54 C 0.92941 0.26924 0.09263 0.0
C55 C 0.94613 0.23936 0.10805 0.0
C56 C 0.97204 0.26292 0.11239 0.0
C57 C 0.92473 0.24236 0.09724 0.0
H58 H 0.95983 0.31267 0.09177 0.0
H59 H 0.98883 0.26039 0.11932 0.0
O60 O 0.07257 0.37891 0.0933 0.0
O61 O 0.02131 0.35343 0.12645 0.0
O62 O 0.01622 0.33722 0.06913 0.0
O63 O 0.04561 0.31672 0.10553 0.0
H64 H 0.12621 0.39607 0.09893 0.0
H65 H 0.06495 0.39416 0.04827 0.0
H66 H 0.16232 0.42101 0.06642 0.0
H67 H 0.10222 0.41957 0.01681 0.0
H68 H 0.96005 0.29593 0.18525 0.0
H69 H 0.98198 0.36631 0.11924 0.0
H70 H 0.00528 0.3161 0.163 0.0
H71 H 0.93713 0.3453 0.14226 0.0
H72 H 0.06169 0.46643 0.06772 0.0
H73 H 0.97809 0.40319 0.04793 0.0
H74 H 0.14251 0.36407 0.15885 0.0
H75 H 0.0875 0.37132 0.21194 0.0
H76 H 0.01544 0.28916 0.06544 0.0
H77 H 0.98477 0.33964 0.03318 0.0
H78 H 0.98842 0.25264 0.0339 0.0
H79 H 0.95824 0.30222 0.00212 0.0
H80 H 0.04883 0.27644 0.08205 0.0
H81 H 0.04007 0.30586 0.15445 0.0
H82 H 0.04653 0.23542 0.10292 0.0
H83 H 0.03801 0.26443 0.17404 0.0
H84 H 0.12627 0.32504 0.04521 0.0
H85 H 0.08052 0.34029 0.98774 0.0
H86 H 0.91368 0.2725 0.08387 0.0
H87 H 0.94328 0.21896 0.11197 0.0
Li88 Li 0.6568 0.70882 0.11719 0.0
Li89 Li 0.64151 0.66868 0.08684 0.0
Li90 Li 0.68856 0.69478 0.10325 0.0
Li91 Li 0.67247 0.71767 0.07442 0.0
C92 C 0.65847 0.65448 0.13769 0.0
N93 N 0.66847 0.61973 0.16764 0.0
C94 C 0.64847 0.62681 0.13069 0.0
C95 C 0.67294 0.66422 0.16031 0.0
C96 C 0.6539 0.60964 0.14596 0.0
C97 C 0.67796 0.64642 0.17509 0.0
C98 C 0.61984 0.70436 0.06736 0.0
C99 C 0.6044 0.69741 0.02425 0.0
N100 N 0.59403 0.71473 0.0279 0.0
C101 C 0.60892 0.72201 0.0707 0.0
C102 C 0.61749 0.69188 0.04397 0.0
C103 C 0.59598 0.72701 0.05051 0.0
C104 C 0.64388 0.74716 0.13711 0.0
N105 N 0.64608 0.72465 0.14345 0.0
C106 C 0.63785 0.72983 0.18665 0.0
C107 C 0.64286 0.71555 0.16758 0.0
C108 C 0.63587 0.75341 0.18064 0.0
C109 C 0.63859 0.76183 0.15546 0.0
H110 H 0.64728 0.75431 0.11786 0.0
H111 H 0.64474 0.69761 0.1721 0.0
C112 C 0.61958 0.61595 0.06481 0.0
N113 N 0.61256 0.63421 0.07458 0.0
C114 C 0.59965 0.59186 0.0528 0.0
C115 C 0.56548 0.60567 0.06131 0.0
C116 C 0.58605 0.62937 0.07346 0.0
C117 C 0.57232 0.58677 0.05054 0.0
H118 H 0.64081 0.62037 0.06602 0.0
H119 H 0.58109 0.64434 0.0813 0.0
C120 C 0.70712 0.75202 0.12411 0.0
N121 N 0.7286 0.7889 0.16387 0.0
C122 C 0.71083 0.77876 0.12201 0.0
C123 C 0.7149 0.74431 0.14629 0.0
C124 C 0.72156 0.79704 0.14235 0.0
C125 C 0.72557 0.76315 0.16621 0.0
C126 C 0.69934 0.68893 0.0543 0.0
C127 C 0.72281 0.7155 0.05304 0.0
C128 C 0.7001 0.66651 0.04317 0.0
C129 C 0.74664 0.71917 0.04071 0.0
C130 C 0.72434 0.67103 0.03103 0.0
N131 N 0.74692 0.69704 0.03008 0.0
C132 C 0.71704 0.66493 0.10575 0.0
C133 C 0.74564 0.71375 0.11025 0.0
C134 C 0.7403 0.66204 0.10189 0.0
N135 N 0.72007 0.69056 0.10919 0.0
C136 C 0.76946 0.71183 0.10632 0.0
C137 C 0.7668 0.68584 0.10104 0.0
H138 H 0.69655 0.64706 0.10348 0.0
H139 H 0.74753 0.73401 0.11177 0.0
C140 C 0.6796 0.76636 0.05308 0.0
N141 N 0.67983 0.74267 0.04729 0.0
C142 C 0.68329 0.78538 0.03437 0.0
C143 C 0.68622 0.75477 0.00371 0.0
C144 C 0.68281 0.73641 0.02316 0.0
C145 C 0.68667 0.77968 0.00933 0.0
H146 H 0.67561 0.76998 0.07216 0.0
H147 H 0.68189 0.71693 0.01894 0.0
O148 O 0.65323 0.67154 0.12292 0.0
O149 O 0.6334 0.69986 0.08663 0.0
O150 O 0.69565 0.73336 0.10475 0.0
O151 O 0.67631 0.6847 0.06749 0.0
H152 H 0.63673 0.61865 0.11361 0.0
H153 H 0.68001 0.68517 0.16661 0.0
H154 H 0.64649 0.58827 0.1406 0.0
H155 H 0.68928 0.65378 0.19255 0.0
H156 H 0.60262 0.68804 0.00602 0.0
H157 H 0.61039 0.73174 0.08866 0.0
H158 H 0.62615 0.67846 0.04093 0.0
H159 H 0.5875 0.74068 0.05282 0.0
H160 H 0.63574 0.72266 0.20588 0.0
H161 H 0.63768 0.78018 0.15015 0.0
H162 H 0.60577 0.57787 0.04458 0.0
H163 H 0.54456 0.60231 0.0601 0.0
H164 H 0.70539 0.7854 0.10496 0.0
H165 H 0.71287 0.72404 0.14802 0.0
H166 H 0.72429 0.8177 0.14102 0.0
H167 H 0.7315 0.75732 0.18352 0.0
H168 H 0.72285 0.73307 0.06188 0.0
H169 H 0.6823 0.64577 0.04406 0.0
H170 H 0.76499 0.73958 0.03977 0.0
H171 H 0.72525 0.65383 0.02246 0.0
H172 H 0.73734 0.64173 0.09727 0.0
H173 H 0.78956 0.73066 0.10561 0.0
H174 H 0.68266 0.80398 0.03931 0.0
H175 H 0.68841 0.74956 0.98454 0.0
Li176 Li 0.2916 0.93772 0.11951 0.0
Li177 Li 0.33354 0.96354 0.08958 0.0
Li178 Li 0.30524 0.98302 0.10239 0.0
Li179 Li 0.285 0.94361 0.07475 0.0
C180 C 0.34157 0.99423 0.14136 0.0
N181 N 0.36915 0.03752 0.17494 0.0
C182 C 0.37058 0.01022 0.14088 0.0
C183 C 0.32663 -3e-05 0.15919 0.0
C184 C 0.38414 0.03209 0.15795 0.0
C185 C 0.34094 0.02204 0.17592 0.0
C186 C 0.29375 0.90147 0.07375 0.0
C187 C 0.29532 0.88252 0.03339 0.0
N188 N 0.27306 0.85771 0.04013 0.0
C189 C 0.27099 0.87576 0.08033 0.0
C190 C 0.3061 0.90489 0.05013 0.0
C191 C 0.2608 0.8539 0.06305 0.0
C192 C 0.24728 0.8936 0.14268 0.0
N193 N 0.27457 0.91246 0.14631 0.0
C194 C 0.2729 0.89523 0.18778 0.0
C195 C 0.28769 0.91356 0.16818 0.0
C196 C 0.24444 0.87604 0.18472 0.0
C197 C 0.23173 0.87517 0.16173 0.0
H198 H 0.23746 0.89331 0.12506 0.0
H199 H 0.3094 0.92897 0.17056 0.0
C200 C 0.38793 0.99885 0.07461 0.0
N201 N 0.36945 0.9717 0.07941 0.0
C202 C 0.41279 0.00627 0.06219 0.0
C203 C 0.39994 0.95774 0.06133 0.0
C204 C 0.37522 0.95125 0.07375 0.0
C205 C 0.41863 0.98548 0.05468 0.0
H206 H 0.38281 0.01463 0.07958 0.0
H207 H 0.36005 0.9298 0.07773 0.0
C208 C 0.2456 0.95061 0.11434 0.0
N209 N 0.20058 0.95153 0.13546 0.0
C210 C 0.2243 0.94878 0.09905 0.0
C211 C 0.24385 0.95264 0.14038 0.0
C212 C 0.20177 0.94939 0.11008 0.0
C213 C 0.22095 0.95311 0.15069 0.0
C214 C 0.31498 -0.0 0.05425 0.0
C215 C 0.28873 0.99598 0.04819 0.0
C216 C 0.33875 0.02489 0.04753 0.0
C217 C 0.28671 0.01699 0.03565 0.0
C218 C 0.33586 0.04543 0.03508 0.0
N219 N 0.31012 0.0411 0.02946 0.0
C220 C 0.3343 0.04144 0.10811 0.0
C221 C 0.2857 0.02154 0.10298 0.0
C222 C 0.33829 0.06802 0.10409 0.0
N223 N 0.30836 0.01878 0.1069 0.0
C224 C 0.2888 0.04761 0.09825 0.0
C225 C 0.31551 0.07125 0.09775 0.0
H226 H 0.35218 0.03882 0.11011 0.0
H227 H 0.26546 0.00343 0.10102 0.0
C228 C 0.23418 0.90497 0.05426 0.0
N229 N 0.26041 0.9247 0.04788 0.0
C230 C 0.21517 0.88906 0.03574 0.0
C231 C 0.25059 0.91398 0.00432 0.0
C232 C 0.26889 0.92966 0.02352 0.0
C233 C 0.22336 0.89316 0.01037 0.0
H234 H 0.22818 0.90136 0.07385 0.0
H235 H 0.29005 0.94535 0.01909 0.0
O236 O 0.32803 0.97278 0.12472 0.0
O237 O 0.30343 0.92341 0.09006 0.0
O238 O 0.26769 0.94981 0.10378 0.0
O239 O 0.31729 0.98014 0.06755 0.0
H240 H 0.38252 0.00578 0.12751 0.0
H241 H 0.30426 0.98776 0.15995 0.0
H242 H 0.40657 0.04472 0.1577 0.0
H243 H 0.32961 0.02685 0.18967 0.0
H244 H 0.30453 0.88493 0.01497 0.0
H245 H 0.26117 0.87276 0.09851 0.0
H246 H 0.32346 0.92478 0.04459 0.0
H247 H 0.24311 0.83393 0.06784 0.0
H248 H 0.28333 0.89659 0.20534 0.0
H249 H 0.20991 0.86048 0.15857 0.0
H250 H 0.4269 0.02794 0.05781 0.0
H251 H 0.40362 0.94109 0.05577 0.0
H252 H 0.22529 0.94721 0.07886 0.0
H253 H 0.25976 0.95346 0.15255 0.0
H254 H 0.18524 0.94816 0.09846 0.0
H255 H 0.21933 0.95464 0.17082 0.0
H256 H 0.27007 0.97713 0.05363 0.0
H257 H 0.35923 0.02849 0.05208 0.0
H258 H 0.26652 0.01422 0.03107 0.0
H259 H 0.35408 0.06488 0.02997 0.0
H260 H 0.35926 0.0856 0.10436 0.0
H261 H 0.27057 0.04871 0.09294 0.0
H262 H 0.19427 0.87363 0.04129 0.0
H263 H 0.2579 0.91762 0.98507 0.0
Li264 Li 0.65979 0.94536 0.42507 0.0
Li265 Li 0.67795 0.98487 0.39803 0.0
Li266 Li 0.63011 0.9643 0.41134 0.0
Li267 Li 0.64692 0.94006 0.38047 0.0
C268 C 0.68409 -0.00066 0.44816 0.0
N269 N 0.7276 0.03744 0.47746 0.0
C270 C 0.70827 0.99768 0.45057 0.0
C271 C 0.68198 0.02028 0.4608 0.0
C272 C 0.73005 0.01715 0.46542 0.0
C273 C 0.70422 0.03936 0.4755 0.0
C274 C 0.7064 0.9544 0.38468 0.0
C275 C 0.73315 0.95795 0.34769 0.0
N276 N 0.75321 0.9582 0.36249 0.0
C277 C 0.72715 0.95439 0.3995 0.0
C278 C 0.7093 0.95594 0.35854 0.0
C279 C 0.75071 0.95646 0.38794 0.0
C280 C 0.67359 0.90776 0.44539 0.0
N281 N 0.66651 0.92707 0.45176 0.0
C282 C 0.666 0.91661 0.49534 0.0
C283 C 0.66302 0.93204 0.47613 0.0
C284 C 0.67286 0.89612 0.48932 0.0
C285 C 0.67713 0.89215 0.46394 0.0
H286 H 0.67607 0.90424 0.4258 0.0
H287 H 0.65712 0.9474 0.48057 0.0
C288 C 0.70418 0.04199 0.40035 0.0
N289 N 0.70952 0.02131 0.39437 0.0
C290 C 0.72586 0.06851 0.40599 0.0
C291 C 0.75844 0.0527 0.39742 0.0
C292 C 0.73603 0.02639 0.39185 0.0
C293 C 0.75331 0.07372 0.40576 0.0
H294 H 0.68295 0.03725 0.40293 0.0
H295 H 0.73994 0.00971 0.3875 0.0
C296 C 0.6084 0.90375 0.42766 0.0
N297 N 0.58424 0.86226 0.46342 0.0
C298 C 0.60263 0.87679 0.42208 0.0
C299 C 0.60171 0.90957 0.4514 0.0
C300 C 0.59046 0.85611 0.44042 0.0
C301 C 0.58954 0.88832 0.46922 0.0
C302 C 0.65409 0.99787 0.3612 0.0
C303 C 0.64251 0.01508 0.36335 0.0
C304 C 0.67513 0.00424 0.3436 0.0
C305 C 0.65265 0.03874 0.34823 0.0
C306 C 0.68473 0.0281 0.32884 0.0
N307 N 0.67341 0.04474 0.33146 0.0
C308 C 0.61129 0.9989 0.42845 0.0
C309 C 0.57625 0.95135 0.42851 0.0
C310 C 0.59412 0.00604 0.44171 0.0
N311 N 0.60238 0.97191 0.4227 0.0
C312 C 0.55844 0.9575 0.44209 0.0
C313 C 0.56765 0.98509 0.44953 0.0
H314 H 0.63224 0.01476 0.42364 0.0
H315 H 0.5698 0.93001 0.42384 0.0
C316 C 0.64093 0.89274 0.35771 0.0
N317 N 0.63863 0.91555 0.35308 0.0
C318 C 0.63677 0.87401 0.33849 0.0
C319 C 0.62873 0.90304 0.30982 0.0
C320 C 0.63262 0.92105 0.32978 0.0
C321 C 0.63079 0.87917 0.31416 0.0
H322 H 0.64665 0.88949 0.37628 0.0
H323 H 0.63141 0.93965 0.32662 0.0
O324 O 0.66309 0.9813 0.43269 0.0
O325 O 0.68313 0.95219 0.39574 0.0
O326 O 0.62104 0.92452 0.41023 0.0
O327 O 0.64456 0.97475 0.37604 0.0
H328 H 0.71035 0.98179 0.44075 0.0
H329 H 0.66347 0.02195 0.45913 0.0
H330 H 0.74895 0.01622 0.46728 0.0
H331 H 0.70294 0.05578 0.48525 0.0
H332 H 0.73568 0.95922 0.32749 0.0
H333 H 0.72515 0.95286 0.41974 0.0
H334 H 0.69327 0.95539 0.34671 0.0
H335 H 0.76698 0.95662 0.3992 0.0
H336 H 0.66218 0.92016 0.51457 0.0
H337 H 0.68299 0.87701 0.45842 0.0
H338 H 0.72108 0.08425 0.41215 0.0
H339 H 0.77931 0.05584 0.3972 0.0
H340 H 0.60747 0.87184 0.4038 0.0
H341 H 0.60645 0.93042 0.45619 0.0
H342 H 0.58596 0.83517 0.43638 0.0
H343 H 0.58448 0.89259 0.48772 0.0
H344 H 0.62585 0.0102 0.37652 0.0
H345 H 0.68417 0.99109 0.34153 0.0
H346 H 0.64398 0.05232 0.34981 0.0
H347 H 0.70119 0.0334 0.3153 0.0
H348 H 0.60187 0.02764 0.44649 0.0
H349 H 0.5383 0.94064 0.44783 0.0
H350 H 0.63909 0.85615 0.34243 0.0
H351 H 0.62426 0.9077 0.29123 0.0
Li352 Li 0.03985 0.70505 0.42501 0.0
Li353 Li 0.00193 0.68299 0.39673 0.0
Li354 Li 0.02611 0.65877 0.40962 0.0
Li355 Li 0.04883 0.70164 0.38111 0.0
C356 C 0.99502 0.66185 0.4542 0.0
N357 N 0.97476 0.64377 0.50214 0.0
C358 C 0.97314 0.66487 0.46357 0.0
C359 C 0.00642 0.6494 0.46921 0.0
C360 C 0.96326 0.65569 0.48787 0.0
C361 C 0.99593 0.64045 0.49338 0.0
C362 C 0.02187 0.73931 0.40296 0.0
C363 C 0.01545 0.77854 0.39523 0.0
N364 N 0.00053 0.77291 0.41687 0.0
C365 C 0.00652 0.73399 0.42515 0.0
C366 C 0.02641 0.76181 0.38788 0.0
C367 C 0.99589 0.75117 0.43185 0.0
C368 C 0.07455 0.757 0.44503 0.0
N369 N 0.05635 0.73058 0.4524 0.0
C370 C 0.06713 0.7434 0.49558 0.0
C371 C 0.05217 0.72354 0.47716 0.0
C372 C 0.08658 0.77071 0.48841 0.0
C373 C 0.08998 0.77743 0.46273 0.0
H374 H 0.07777 0.76198 0.42523 0.0
H375 H 0.03783 0.7025 0.48274 0.0
C376 C 0.94475 0.65318 0.40175 0.0
N377 N 0.96539 0.67614 0.39038 0.0
C378 C 0.9181 0.64948 0.40346 0.0
C379 C 0.93388 0.69199 0.37987 0.0
C380 C 0.96025 0.69473 0.37842 0.0
C381 C 0.91275 0.66972 0.39344 0.0
H382 H 0.94949 0.63871 0.41098 0.0
H383 H 0.97696 0.71254 0.36909 0.0
C384 C 0.08747 0.70563 0.42518 0.0
N385 N 0.13337 0.7349 0.45564 0.0
C386 C 0.10974 0.73097 0.41708 0.0
C387 C 0.0887 0.695 0.44863 0.0
C388 C 0.13273 0.74549 0.43278 0.0
C389 C 0.11204 0.71016 0.4638 0.0
C390 C 0.99573 0.65452 0.35681 0.0
C391 C 0.97281 0.62768 0.35849 0.0
C392 C 0.99703 0.67231 0.33765 0.0
C393 C 0.95138 0.6191 0.34095 0.0
C394 C 0.97518 0.66294 0.32047 0.0
N395 N 0.95299 0.63676 0.32248 0.0
C396 C 0.99568 0.60318 0.42353 0.0
C397 C 0.04447 0.62138 0.42299 0.0
C398 C 0.9915 0.57889 0.43515 0.0
N399 N 0.02186 0.62399 0.41835 0.0
C400 C 0.04125 0.59737 0.43453 0.0
C401 C 0.01454 0.57609 0.44145 0.0
H402 H 0.97819 0.60621 0.42008 0.0
H403 H 0.06506 0.63847 0.41887 0.0
C404 C 0.08481 0.74818 0.35346 0.0
N405 N 0.07459 0.72033 0.355 0.0
C406 C 0.10507 0.76399 0.33571 0.0
C407 C 0.10402 0.72213 0.32139 0.0
C408 C 0.08362 0.70705 0.33945 0.0
C409 C 0.11516 0.75106 0.31948 0.0
H410 H 0.07751 0.75819 0.36634 0.0
H411 H 0.07527 0.68488 0.34135 0.0
O412 O 0.00444 0.67009 0.43017 0.0
O413 O 0.0321 0.72247 0.39572 0.0
O414 O 0.06439 0.69158 0.41041 0.0
O415 O 0.01651 0.66365 0.37423 0.0
H416 H 0.96378 0.67413 0.45221 0.0
H417 H 0.02337 0.64692 0.46245 0.0
H418 H 0.94638 0.65797 0.49534 0.0
H419 H 0.00465 0.6309 0.50519 0.0
H420 H 0.01874 0.79596 0.38369 0.0
H421 H 0.00289 0.71682 0.43708 0.0
H422 H 0.03805 0.76614 0.37053 0.0
H423 H 0.98394 0.74722 0.44896 0.0
H424 H 0.06373 0.73737 0.51518 0.0
H425 H 0.10517 0.79801 0.45625 0.0
H426 H 0.90254 0.63216 0.41431 0.0
H427 H 0.93046 0.70787 0.37167 0.0
H428 H 0.10914 0.73951 0.399 0.0
H429 H 0.07172 0.6754 0.45517 0.0
H430 H 0.15001 0.76523 0.42684 0.0
H431 H 0.11317 0.7023 0.48208 0.0
H432 H 0.97149 0.61374 0.37331 0.0
H433 H 0.0146 0.69322 0.33625 0.0
H434 H 0.93342 0.59843 0.34207 0.0
H435 H 0.97581 0.67651 0.3056 0.0
H436 H 0.9706 0.56324 0.44045 0.0
H437 H 0.05953 0.59589 0.43876 0.0
H438 H 0.11267 0.78612 0.33466 0.0
H439 H 0.11136 0.71136 0.30941 0.0
Li440 Li 0.31206 0.32262 0.39688 0.0
Li441 Li 0.29067 0.33839 0.42635 0.0
Li442 Li 0.29601 0.35297 0.38227 0.0
Li443 Li 0.33778 0.37002 0.41158 0.0
C444 C 0.25273 0.29363 0.38431 0.0
N445 N 0.21019 0.24871 0.35962 0.0
C446 C 0.23161 0.27176 0.398 0.0
C447 C 0.25207 0.29273 0.35806 0.0
C448 C 0.21034 0.2492 0.38517 0.0
C449 C 0.23042 0.26983 0.34593 0.0
C450 C 0.32003 0.31481 0.44742 0.0
C451 C 0.33643 0.29544 0.47908 0.0
N452 N 0.31192 0.27102 0.47778 0.0
C453 C 0.29496 0.28956 0.4465 0.0
C454 C 0.34093 0.31782 0.46388 0.0
C455 C 0.29128 0.26766 0.46195 0.0
C456 C 0.34265 0.29592 0.39848 0.0
N457 N 0.31762 0.29184 0.39057 0.0
C458 C 0.29997 0.24295 0.38714 0.0
C459 C 0.29679 0.26614 0.38389 0.0
C460 C 0.3248 0.24638 0.39728 0.0
C461 C 0.34678 0.27339 0.40186 0.0
H462 H 0.35861 0.31645 0.40428 0.0
H463 H 0.27702 0.26316 0.3778 0.0
C464 C 0.23948 0.32177 0.4483 0.0
N465 N 0.26619 0.32953 0.454 0.0
C466 C 0.22032 0.31654 0.46739 0.0
C467 C 0.25657 0.32751 0.49796 0.0
C468 C 0.27503 0.33229 0.4782 0.0
C469 C 0.22884 0.31961 0.49259 0.0
H470 H 0.23327 0.32028 0.42886 0.0
H471 H 0.29655 0.33888 0.48213 0.0
C472 C 0.34817 0.34869 0.36096 0.0
N473 N 0.37752 0.331 0.33171 0.0
C474 C 0.37629 0.35844 0.36574 0.0
C475 C 0.33509 0.33028 0.34105 0.0
C476 C 0.39074 0.34917 0.35081 0.0
C477 C 0.35024 0.32148 0.32656 0.0
C478 C 0.29885 0.38889 0.43208 0.0
C479 C 0.2765 0.39353 0.4293 0.0
C480 C 0.3134 0.39554 0.45479 0.0
C481 C 0.26894 0.40461 0.44938 0.0
C482 C 0.30523 0.40661 0.47442 0.0
N483 N 0.28333 0.41085 0.47134 0.0
C484 C 0.25323 0.35881 0.36247 0.0
C485 C 0.28896 0.36849 0.33288 0.0
C486 C 0.23775 0.36313 0.34432 0.0
N487 N 0.27831 0.36165 0.3565 0.0
C488 C 0.2739 0.37254 0.31397 0.0
C489 C 0.24796 0.36984 0.31968 0.0
H490 H 0.24499 0.35249 0.38124 0.0
H491 H 0.3088 0.37018 0.32865 0.0
C492 C 0.39089 0.39238 0.43151 0.0
N493 N 0.37243 0.39941 0.42235 0.0
C494 C 0.41476 0.41212 0.44392 0.0
C495 C 0.40049 0.44616 0.4366 0.0
C496 C 0.377 0.42578 0.4241 0.0
C497 C 0.41938 0.43921 0.44717 0.0
H498 H 0.38645 0.37112 0.43006 0.0
H499 H 0.36172 0.43063 0.41687 0.0
O500 O 0.27359 0.31594 0.39664 0.0
O501 O 0.3246 0.33622 0.43172 0.0
O502 O 0.3336 0.35721 0.37567 0.0
O503 O 0.30606 0.37723 0.41294 0.0
H504 H 0.23164 0.27215 0.41832 0.0
H505 H 0.26804 0.30948 0.34714 0.0
H506 H 0.19392 0.2321 0.39554 0.0
H507 H 0.2297 0.26886 0.32563 0.0
H508 H 0.35246 0.29745 0.49185 0.0
H509 H 0.27864 0.28678 0.4338 0.0
H510 H 0.36049 0.33719 0.4648 0.0
H511 H 0.27205 0.24795 0.46128 0.0
H512 H 0.2826 0.22241 0.38328 0.0
H513 H 0.3661 0.2769 0.41008 0.0
H514 H 0.19928 0.31107 0.46246 0.0
H515 H 0.26389 0.33016 0.51716 0.0
H516 H 0.38683 0.37291 0.38089 0.0
H517 H 0.31345 0.32273 0.33692 0.0
H518 H 0.41247 0.35642 0.35441 0.0
H519 H 0.34032 0.30708 0.31121 0.0
H520 H 0.26504 0.38861 0.41187 0.0
H521 H 0.33046 0.39164 0.45745 0.0
H522 H 0.25162 0.40822 0.44752 0.0
H523 H 0.31617 0.41165 0.49215 0.0
H524 H 0.21759 0.36036 0.34927 0.0
H525 H 0.28233 0.37761 0.29511 0.0
H526 H 0.42866 0.40587 0.45203 0.0
H527 H 0.40347 0.46689 0.4386 0.0
Li528 Li 0.94488 0.64461 0.92552 0.0
Li529 Li 0.96609 0.62099 0.90324 0.0
Li530 Li 0.98722 0.6706 0.89923 0.0
Li531 Li 0.94161 0.63794 0.88035 0.0
C532 C 0.98639 0.63843 0.95176 0.0
N533 N 0.9949 0.61417 0.99359 0.0
C534 C 0.96511 0.61286 0.96068 0.0
C535 C 0.01194 0.65169 0.96422 0.0
C536 C 0.96985 0.60092 0.98181 0.0
C537 C 0.01583 0.63909 0.98533 0.0
C538 C 0.90105 0.5892 0.89819 0.0
C539 C 0.87333 0.5532 0.8683 0.0
N540 N 0.84983 0.55014 0.87927 0.0
C541 C 0.87661 0.58537 0.90942 0.0
C542 C 0.89939 0.5727 0.8777 0.0
C543 C 0.85093 0.56565 0.8995 0.0
C544 C 0.90286 0.64989 0.94746 0.0
N545 N 0.92555 0.64801 0.95367 0.0
C546 C 0.91851 0.65305 0.99727 0.0
C547 C 0.9339 0.65002 0.97798 0.0
C548 C 0.8946 0.65448 0.9914 0.0
C549 C 0.88702 0.65313 0.96604 0.0
H550 H 0.89721 0.6491 0.92791 0.0
H551 H 0.9526 0.64962 0.98253 0.0
C552 C 0.00312 0.60279 0.91463 0.0
N553 N 0.97606 0.59336 0.9087 0.0
C554 C 0.01074 0.5854 0.92675 0.0
C555 C 0.96287 0.54824 0.92459 0.0
C556 C 0.95611 0.56646 0.91266 0.0
C557 C 0.99026 0.55811 0.93276 0.0
H558 H 0.01834 0.62452 0.91207 0.0
H559 H 0.93463 0.55978 0.90856 0.0
C560 C 0.95654 0.6969 0.91013 0.0
N561 N 0.96477 0.74552 0.93213 0.0
C562 C 0.94398 0.71109 0.89999 0.0
C563 C 0.97316 0.70734 0.93157 0.0
C564 C 0.94843 0.73567 0.91137 0.0
C565 C 0.97711 0.73198 0.94237 0.0
C566 C 0.99191 0.63131 0.85973 0.0
C567 C 0.0207 0.64305 0.86182 0.0
C568 C 0.97674 0.60729 0.84532 0.0
C569 C 0.03375 0.63012 0.85005 0.0
C570 C 0.99054 0.59497 0.83381 0.0
N571 N 0.01851 0.60651 0.83644 0.0
C572 C 0.04358 0.70391 0.9075 0.0
C573 C 0.02355 0.72861 0.88899 0.0
C574 C 0.06882 0.72843 0.91062 0.0
N575 N 0.02147 0.70451 0.89739 0.0
C576 C 0.04834 0.7538 0.89218 0.0
C577 C 0.07114 0.75386 0.90361 0.0
H578 H 0.04124 0.68443 0.91403 0.0
H579 H 0.00564 0.72847 0.88091 0.0
C580 C 0.89304 0.63242 0.86059 0.0
N581 N 0.91698 0.63317 0.85381 0.0
C582 C 0.87387 0.62982 0.84242 0.0
C583 C 0.90474 0.62962 0.81043 0.0
C584 C 0.92318 0.63182 0.82934 0.0
C585 C 0.87971 0.62873 0.81687 0.0
H586 H 0.88893 0.63405 0.8802 0.0
H587 H 0.94266 0.63302 0.82447 0.0
O588 O 0.98273 0.64974 0.93026 0.0
O589 O 0.92642 0.60875 0.90739 0.0
O590 O 0.9521 0.67266 0.8993 0.0
O591 O 0.97873 0.64354 0.87135 0.0
H592 H 0.94521 0.60222 0.95127 0.0
H593 H 0.02866 0.67144 0.95761 0.0
H594 H 0.95363 0.58108 0.98879 0.0
H595 H 0.03553 0.64909 0.99511 0.0
H596 H 0.87179 0.54046 0.85232 0.0
H597 H 0.87741 0.59746 0.92563 0.0
H598 H 0.91801 0.5749 0.86917 0.0
H599 H 0.83187 0.56263 0.9079 0.0
H600 H 0.92518 0.65409 0.01653 0.0
H601 H 0.86927 0.65498 0.96052 0.0
H602 H 0.03208 0.59369 0.93273 0.0
H603 H 0.94648 0.52741 0.9292 0.0
H604 H 0.93092 0.70315 0.8835 0.0
H605 H 0.98293 0.69658 0.93979 0.0
H606 H 0.93887 0.74689 0.9037 0.0
H607 H 0.98996 0.74033 0.95891 0.0
H608 H 0.03286 0.66185 0.87253 0.0
H609 H 0.95461 0.59835 0.84285 0.0
H610 H 0.05599 0.63886 0.85172 0.0
H611 H 0.97901 0.5763 0.82272 0.0
H612 H 0.08579 0.72768 0.91984 0.0
H613 H 0.04942 0.77306 0.88659 0.0
H614 H 0.85473 0.62878 0.84838 0.0
H615 H 0.9104 0.62937 0.79099 0.0
Li616 Li 0.32427 0.30946 0.89769 0.0
Li617 Li 0.37246 0.33688 0.91082 0.0
Li618 Li 0.35542 0.29809 0.87823 0.0
Li619 Li 0.34354 0.2859 0.92179 0.0
C620 C 0.34626 0.34851 0.86311 0.0
N621 N 0.32399 0.37558 0.83668 0.0
C622 C 0.35636 0.37689 0.86691 0.0
C623 C 0.32494 0.33396 0.84576 0.0
C624 C 0.34481 0.39019 0.85338 0.0
C625 C 0.31391 0.34798 0.83263 0.0
C626 C 0.32028 0.31896 0.9469 0.0
C627 C 0.30315 0.34555 0.96858 0.0
N628 N 0.27946 0.32156 0.97448 0.0
C629 C 0.29589 0.29455 0.95337 0.0
C630 C 0.32406 0.34468 0.95466 0.0
C631 C 0.27544 0.29631 0.96724 0.0
C632 C 0.26636 0.28811 0.89572 0.0
N633 N 0.2913 0.31209 0.89611 0.0
C634 C 0.26914 0.33853 0.9051 0.0
C635 C 0.29304 0.3371 0.90013 0.0
C636 C 0.24325 0.31393 0.90621 0.0
C637 C 0.24191 0.28858 0.90054 0.0
H638 H 0.26558 0.26841 0.89349 0.0
H639 H 0.31314 0.3557 0.90152 0.0
C640 C 0.41812 0.39353 0.91104 0.0
N641 N 0.40015 0.37089 0.92467 0.0
C642 C 0.43692 0.41819 0.92328 0.0
C643 C 0.41886 0.39523 0.96313 0.0
C644 C 0.40035 0.37126 0.95018 0.0
C645 C 0.43726 0.41929 0.94972 0.0
H646 H 0.41763 0.39255 0.89074 0.0
H647 H 0.38604 0.35277 0.96049 0.0
C648 C 0.30841 0.24986 0.87654 0.0
N649 N 0.28978 0.20632 0.84276 0.0
C650 C 0.3164 0.22979 0.87911 0.0
C651 C 0.29063 0.24756 0.85695 0.0
C652 C 0.30689 0.20803 0.86177 0.0
C653 C 0.28147 0.22542 0.84006 0.0
C654 C 0.39777 0.29854 0.91996 0.0
C655 C 0.39227 0.27108 0.91873 0.0
C656 C 0.41979 0.31783 0.93476 0.0
C657 C 0.40852 0.26327 0.93269 0.0
C658 C 0.43559 0.30922 0.94843 0.0
N659 N 0.42964 0.28233 0.94716 0.0
C660 C 0.38495 0.27775 0.85094 0.0
C661 C 0.34993 0.27967 0.82725 0.0
C662 C 0.38864 0.26246 0.83207 0.0
N663 N 0.36506 0.28503 0.84869 0.0
C664 C 0.35278 0.26423 0.80794 0.0
C665 C 0.37168 0.25457 0.81063 0.0
H666 H 0.39722 0.2828 0.86783 0.0
H667 H 0.3344 0.28583 0.82573 0.0
C668 C 0.3141 0.23489 0.94785 0.0
N669 N 0.33708 0.26058 0.94836 0.0
C670 C 0.30939 0.21581 0.96694 0.0
C671 C 0.35192 0.25015 0.98687 0.0
C672 C 0.35534 0.26879 0.96779 0.0
C673 C 0.32879 0.22306 0.98657 0.0
H674 H 0.29939 0.22924 0.93261 0.0
H675 H 0.37293 0.28969 0.9682 0.0
O676 O 0.35731 0.33514 0.87619 0.0
O677 O 0.34002 0.31774 0.93245 0.0
O678 O 0.31803 0.27168 0.89303 0.0
O679 O 0.38194 0.3066 0.90659 0.0
H680 H 0.3727 0.38848 0.88036 0.0
H681 H 0.31662 0.31196 0.84282 0.0
H682 H 0.35234 0.41211 0.85622 0.0
H683 H 0.29725 0.3369 0.8193 0.0
H684 H 0.30569 0.36531 0.97455 0.0
H685 H 0.29253 0.27451 0.94729 0.0
H686 H 0.34274 0.36378 0.94964 0.0
H687 H 0.25631 0.27762 0.97213 0.0
H688 H 0.27124 0.35843 0.90996 0.0
H689 H 0.22235 0.26915 0.90118 0.0
H690 H 0.45064 0.43628 0.91218 0.0
H691 H 0.41882 0.39481 0.98347 0.0
H692 H 0.32986 0.23103 0.89426 0.0
H693 H 0.2843 0.26292 0.85453 0.0
H694 H 0.31311 0.19249 0.86344 0.0
H695 H 0.2679 0.22353 0.82471 0.0
H696 H 0.37551 0.2559 0.90726 0.0
H697 H 0.42473 0.33926 0.93564 0.0
H698 H 0.40432 0.24204 0.93204 0.0
H699 H 0.4526 0.32392 0.96003 0.0
H700 H 0.404 0.25609 0.83462 0.0
H701 H 0.33918 0.25858 0.79179 0.0
H702 H 0.29075 0.19559 0.9662 0.0
H703 H 0.36767 0.25684 0.00131 0.0
Li704 Li 0.70043 0.05596 0.87429 0.0
Li705 Li 0.70926 0.06055 0.9206 0.0
Li706 Li 0.68796 0.01646 0.89998 0.0
Li707 Li 0.66138 0.0391 0.90543 0.0
C708 C 0.74009 0.0344 0.8895 0.0
N709 N 0.76737 0.00507 0.88041 0.0
C710 C 0.75863 0.0344 0.90721 0.0
C711 C 0.73575 0.01977 0.867 0.0
C712 C 0.77212 0.01936 0.90232 0.0
C713 C 0.74966 0.00502 0.86278 0.0
C714 C 0.70951 0.10564 0.89457 0.0
C715 C 0.71684 0.15138 0.88549 0.0
N716 N 0.74443 0.16084 0.88218 0.0
C717 C 0.73797 0.11582 0.89101 0.0
C718 C 0.69885 0.12354 0.89169 0.0
C719 C 0.75526 0.14378 0.88479 0.0
C720 C 0.70288 0.08955 0.83335 0.0
N721 N 0.71493 0.07581 0.84375 0.0
C722 C 0.75334 0.0978 0.81547 0.0
C723 C 0.73955 0.07942 0.83511 0.0
C724 C 0.74205 0.11318 0.80511 0.0
C725 C 0.71633 0.10871 0.81399 0.0
H726 H 0.68358 0.08673 0.841 0.0
H727 H 0.74929 0.06921 0.84429 0.0
C728 C 0.74365 0.06944 0.96231 0.0
N729 N 0.73303 0.08194 0.94768 0.0
C730 C 0.76187 0.08405 0.98191 0.0
C731 C 0.75644 0.12353 0.97208 0.0
C732 C 0.73832 0.10815 0.95275 0.0
C733 C 0.7689 0.11169 0.98663 0.0
H734 H 0.73799 0.04809 0.95869 0.0
H735 H 0.72845 0.11722 0.94198 0.0
C736 C 0.6537 0.99834 0.85878 0.0
N737 N 0.63202 0.95268 0.82727 0.0
C738 C 0.63091 0.97315 0.86644 0.0
C739 C 0.66524 0.00042 0.83496 0.0
C740 C 0.62032 0.95027 0.85028 0.0
C741 C 0.65404 0.97707 0.81934 0.0
C742 C 0.66776 0.02982 0.95473 0.0
C743 C 0.65666 0.00835 0.97243 0.0
C744 C 0.66898 0.05503 0.96025 0.0
C745 C 0.64717 0.01255 0.99545 0.0
C746 C 0.65926 0.05841 0.98345 0.0
N747 N 0.64866 0.03728 0.00044 0.0
C748 C 0.68914 0.97575 0.92774 0.0
C749 C 0.68229 0.96272 0.8848 0.0
C750 C 0.6876 0.95082 0.93431 0.0
N751 N 0.6859 0.98107 0.90346 0.0
C752 C 0.68092 0.93747 0.89053 0.0
C753 C 0.68312 0.93118 0.91565 0.0
H754 H 0.69311 0.99105 0.94209 0.0
H755 H 0.68077 0.96766 0.86549 0.0
C756 C 0.62215 0.05566 0.91854 0.0
N757 N 0.62611 0.03371 0.9146 0.0
C758 C 0.59823 0.05175 0.93088 0.0
C759 C 0.58256 0.00262 0.93382 0.0
C760 C 0.60681 0.00751 0.92162 0.0
C761 C 0.57839 0.02502 0.93916 0.0
H762 H 0.63825 0.07637 0.91344 0.0
H763 H 0.61111 0.9907 0.91923 0.0
O764 O 0.72634 0.04869 0.89407 0.0
O765 O 0.69195 0.07802 0.89955 0.0
O766 O 0.66409 0.02113 0.8741 0.0
O767 O 0.67648 0.02567 0.93186 0.0
H768 H 0.76278 0.04603 0.92446 0.0
H769 H 0.72146 0.01947 0.85308 0.0
H770 H 0.78644 0.01912 0.91593 0.0
H771 H 0.74627 0.99342 0.84554 0.0
H772 H 0.70885 0.16545 0.88319 0.0
H773 H 0.74664 0.1023 0.89292 0.0
H774 H 0.67686 0.11598 0.89398 0.0
H775 H 0.77729 0.1519 0.88196 0.0
H776 H 0.77342 0.10115 0.80941 0.0
H777 H 0.70714 0.1204 0.8065 0.0
H778 H 0.77086 0.07407 0.99281 0.0
H779 H 0.76065 0.1445 0.97561 0.0
H780 H 0.62167 0.97117 0.88476 0.0
H781 H 0.68263 0.01987 0.82858 0.0
H782 H 0.60282 0.93058 0.85604 0.0
H783 H 0.66284 0.97835 0.80091 0.0
H784 H 0.65517 0.98855 0.96839 0.0
H785 H 0.67706 0.07176 0.94671 0.0
H786 H 0.63854 0.99611 0.00931 0.0
H787 H 0.66005 0.0778 0.98792 0.0
H788 H 0.69017 0.94702 0.95382 0.0
H789 H 0.67779 0.92291 0.87562 0.0
H790 H 0.59572 0.06954 0.93465 0.0
H791 H 0.56804 0.98181 0.94033 0.0
Li792 Li 0.35067 0.0577 0.57113 0.0
Li793 Li 0.35054 0.05501 0.61808 0.0
Li794 Li 0.37567 0.03777 0.59047 0.0
Li795 Li 0.32633 0.0134 0.59227 0.0
C796 C 0.39504 0.10299 0.5856 0.0
N797 N 0.4177 0.15613 0.56618 0.0
C798 C 0.39236 0.1234 0.59864 0.0
C799 C 0.40945 0.10971 0.56276 0.0
C800 C 0.40394 0.15012 0.5885 0.0
C801 C 0.42067 0.13665 0.55322 0.0
C802 C 0.29133 0.03205 0.59449 0.0
C803 C 0.24698 0.00641 0.61534 0.0
N804 N 0.23395 0.00295 0.5929 0.0
C805 C 0.27754 0.02838 0.57166 0.0
C806 C 0.27599 0.0211 0.61655 0.0
C807 C 0.2485 0.01355 0.57124 0.0
C808 C 0.35361 0.0756 0.52037 0.0
N809 N 0.34849 0.07928 0.54463 0.0
C810 C 0.33975 0.11561 0.53276 0.0
C811 C 0.34136 0.09856 0.55107 0.0
C812 C 0.34554 0.11279 0.50755 0.0
C813 C 0.35241 0.09234 0.50142 0.0
H814 H 0.35865 0.05973 0.51569 0.0
H815 H 0.33699 0.10068 0.5705 0.0
C816 C 0.37174 0.08216 0.66468 0.0
N817 N 0.35143 0.0749 0.64722 0.0
C818 C 0.37437 0.09998 0.68439 0.0
C819 C 0.33483 0.10193 0.66793 0.0
C820 C 0.33299 0.08416 0.64858 0.0
C821 C 0.35597 0.1104 0.68597 0.0
H822 H 0.38633 0.07475 0.66286 0.0
H823 H 0.31752 0.07861 0.63406 0.0
C824 C 0.36104 0.01108 0.54748 0.0
N825 N 0.38537 0.9869 0.51949 0.0
C826 C 0.35091 0.98244 0.54901 0.0
C827 C 0.38362 0.02739 0.53173 0.0
C828 C 0.36343 0.97061 0.53465 0.0
C829 C 0.39565 0.01479 0.51777 0.0
C830 C 0.33795 0.99805 0.63688 0.0
C831 C 0.33573 0.97233 0.63169 0.0
C832 C 0.32589 0.00135 0.65873 0.0
C833 C 0.32136 0.95028 0.64844 0.0
C834 C 0.31171 0.9788 0.67501 0.0
N835 N 0.30976 0.95395 0.66957 0.0
C836 C 0.43206 0.05704 0.57924 0.0
C837 C 0.40503 0.00856 0.58654 0.0
C838 C 0.45347 0.05389 0.56903 0.0
N839 N 0.40794 0.03435 0.58657 0.0
C840 C 0.42577 0.00439 0.57626 0.0
C841 C 0.44985 0.0271 0.56625 0.0
H842 H 0.43402 0.07737 0.57981 0.0
H843 H 0.38563 0.99087 0.59237 0.0
C844 C 0.28551 0.97239 0.56358 0.0
N845 N 0.2927 0.97832 0.58814 0.0
C846 C 0.26173 0.9479 0.55677 0.0
C847 C 0.25201 0.9362 0.60073 0.0
C848 C 0.27609 0.96119 0.60672 0.0
C849 C 0.24486 0.92914 0.5754 0.0
H850 H 0.29827 0.98689 0.54916 0.0
H851 H 0.28119 0.96691 0.62616 0.0
O852 O 0.38323 0.07649 0.5949 0.0
O853 O 0.31972 0.04573 0.59515 0.0
O854 O 0.34927 0.02313 0.56164 0.0
O855 O 0.35244 0.02007 0.62103 0.0
H856 H 0.38135 0.11869 0.61632 0.0
H857 H 0.41148 0.09416 0.55223 0.0
H858 H 0.40192 0.16606 0.59836 0.0
H859 H 0.43162 0.14203 0.53545 0.0
H860 H 0.23482 0.99765 0.63223 0.0
H861 H 0.28916 0.03661 0.55441 0.0
H862 H 0.28641 0.02358 0.63434 0.0
H863 H 0.23752 0.01038 0.55368 0.0
H864 H 0.33375 0.13065 0.53829 0.0
H865 H 0.35712 0.0895 0.48227 0.0
H866 H 0.39084 0.10585 0.69802 0.0
H867 H 0.32053 0.10983 0.66815 0.0
H868 H 0.33391 0.9695 0.56149 0.0
H869 H 0.3922 0.04963 0.53068 0.0
H870 H 0.35585 0.94851 0.53575 0.0
H871 H 0.41329 0.02723 0.50572 0.0
H872 H 0.34461 0.96926 0.61476 0.0
H873 H 0.32738 0.02107 0.66308 0.0
H874 H 0.31935 0.93022 0.64459 0.0
H875 H 0.30224 0.98105 0.69196 0.0
H876 H 0.47202 0.07207 0.56218 0.0
H877 H 0.42193 0.98333 0.57442 0.0
H878 H 0.25649 0.94384 0.53704 0.0
H879 H 0.23935 0.9225 0.6157 0.0
Li880 Li 0.98618 0.3083 0.60088 0.0
Li881 Li 0.96477 0.3358 0.59352 0.0
Li882 Li 0.9459 0.29732 0.62507 0.0
Li883 Li 0.9428 0.28771 0.57898 0.0
C884 C 0.0035 0.34407 0.64163 0.0
N885 N 0.04786 0.36704 0.67455 0.0
C886 C 0.02847 0.36759 0.63467 0.0
C887 C 0.00094 0.33247 0.66547 0.0
C888 C 0.05069 0.37883 0.65154 0.0
C889 C 0.02365 0.34432 0.6818 0.0
C890 C 0.97604 0.32821 0.54489 0.0
C891 C 0.95039 0.33819 0.51411 0.0
N892 N 0.97212 0.34704 0.49787 0.0
C893 C 0.99814 0.33747 0.52791 0.0
C894 C 0.95198 0.32862 0.53796 0.0
C895 C 0.99575 0.34688 0.50422 0.0
C896 C 0.02472 0.30251 0.5745 0.0
N897 N 0.02112 0.30943 0.59812 0.0
C898 C 0.06628 0.31798 0.61003 0.0
C899 C 0.04098 0.31638 0.61609 0.0
C900 C 0.07095 0.31241 0.58532 0.0
C901 C 0.04956 0.30398 0.56763 0.0
H902 H 0.00829 0.2961 0.56081 0.0
H903 H 0.03738 0.32078 0.63502 0.0
C904 C 0.95057 0.37656 0.57947 0.0
N905 N 0.97165 0.37126 0.58331 0.0
C906 C 0.95543 0.40027 0.56616 0.0
C907 C 0.00375 0.41302 0.56213 0.0
C908 C 0.99795 0.3891 0.57538 0.0
C909 C 0.98217 0.41841 0.55668 0.0
H910 H 0.92971 0.36156 0.58534 0.0
H911 H 0.01404 0.3838 0.57792 0.0
C912 C 0.9662 0.25578 0.6119 0.0
N913 N 0.99325 0.22657 0.62246 0.0
C914 C 0.96319 0.23443 0.59596 0.0
C915 C 0.98256 0.26187 0.63347 0.0
C916 C 0.97713 0.22 0.60155 0.0
C917 C 0.99618 0.247 0.63842 0.0
C918 C 0.89732 0.28852 0.602 0.0
C919 C 0.88691 0.26013 0.60624 0.0
C920 C 0.87916 0.29907 0.60227 0.0
C921 C 0.8585 0.24281 0.61064 0.0
C922 C 0.85087 0.28105 0.60671 0.0
N923 N 0.84122 0.25353 0.61079 0.0
C924 C 0.90944 0.29469 0.66349 0.0
C925 C 0.92323 0.26068 0.66608 0.0
C926 C 0.88976 0.28142 0.68251 0.0
N927 N 0.92517 0.28375 0.65532 0.0
C928 C 0.90431 0.24713 0.68546 0.0
C929 C 0.8868 0.25708 0.69341 0.0
H930 H 0.91114 0.31284 0.65431 0.0
H931 H 0.93532 0.25192 0.65884 0.0
C932 C 0.93439 0.25156 0.53887 0.0
N933 N 0.92238 0.26408 0.55158 0.0
C934 C 0.92053 0.23369 0.51884 0.0
C935 C 0.88304 0.24346 0.52424 0.0
C936 C 0.89753 0.26095 0.54424 0.0
C937 C 0.89435 0.22924 0.51151 0.0
H938 H 0.95481 0.25556 0.54426 0.0
H939 H 0.88888 0.27207 0.55374 0.0
O940 O 0.98131 0.33306 0.6256 0.0
O941 O 0.97844 0.31958 0.56838 0.0
O942 O 0.95299 0.27042 0.60658 0.0
O943 O 0.92522 0.30613 0.59847 0.0
H944 H 0.03076 0.37694 0.61639 0.0
H945 H 0.98163 0.31454 0.67132 0.0
H946 H 0.07021 0.39691 0.64634 0.0
H947 H 0.02202 0.33548 0.70026 0.0
H948 H 0.93192 0.33867 0.50855 0.0
H949 H 0.01704 0.33758 0.53304 0.0
H950 H 0.9348 0.32191 0.55092 0.0
H951 H 0.01271 0.35413 0.4909 0.0
H952 H 0.08224 0.32423 0.62424 0.0
H953 H 0.05209 0.29876 0.54856 0.0
H954 H 0.93813 0.40347 0.5621 0.0
H955 H 0.02472 0.4266 0.55541 0.0
H956 H 0.94999 0.22879 0.57961 0.0
H957 H 0.98503 0.27821 0.64609 0.0
H958 H 0.97504 0.20351 0.58931 0.0
H959 H 0.00914 0.25176 0.65491 0.0
H960 H 0.90054 0.25149 0.60622 0.0
H961 H 0.88684 0.32098 0.59925 0.0
H962 H 0.85019 0.22084 0.61399 0.0
H963 H 0.8366 0.28896 0.607 0.0
H964 H 0.87652 0.28962 0.68817 0.0
H965 H 0.90229 0.22814 0.69315 0.0
H966 H 0.93018 0.22352 0.50916 0.0
H967 H 0.8629 0.24061 0.51918 0.0
Li968 Li 0.70334 0.64376 0.61764 0.0
Li969 Li 0.6899 0.67665 0.6007 0.0
Li970 Li 0.66252 0.62661 0.59391 0.0
Li971 Li 0.70861 0.65292 0.57322 0.0
C972 C 0.64452 0.63363 0.63691 0.0
N973 N 0.59132 0.60551 0.65656 0.0
C974 C 0.62832 0.64639 0.63776 0.0
C975 C 0.63383 0.60674 0.64644 0.0
C976 C 0.60143 0.6318 0.64766 0.0
C977 C 0.60685 0.59282 0.65618 0.0
C978 C 0.74675 0.70578 0.59163 0.0
C979 C 0.76087 0.74219 0.56075 0.0
N980 N 0.78511 0.75765 0.57342 0.0
C981 C 0.77182 0.72199 0.6043 0.0
C982 C 0.74124 0.7159 0.56963 0.0
C983 C 0.79095 0.74817 0.5948 0.0
C984 C 0.74894 0.6443 0.63874 0.0
N985 N 0.72263 0.63827 0.64425 0.0
C986 C 0.72731 0.6267 0.68647 0.0
C987 C 0.71153 0.62957 0.66751 0.0
C988 C 0.75465 0.63276 0.68132 0.0
C989 C 0.76525 0.64136 0.65694 0.0
H990 H 0.75723 0.65139 0.62009 0.0
H991 H 0.69064 0.62525 0.67141 0.0
C992 C 0.66463 0.70818 0.59366 0.0
N993 N 0.68767 0.70947 0.60378 0.0
C994 C 0.66311 0.73229 0.59072 0.0
C995 C 0.70852 0.75849 0.60985 0.0
C996 C 0.70896 0.73372 0.6128 0.0
C997 C 0.68569 0.75797 0.59803 0.0
H998 H 0.64806 0.68857 0.58664 0.0
H999 H 0.72691 0.73412 0.62107 0.0
C1000 C 0.70098 0.59924 0.59785 0.0
N1001 N 0.72145 0.56619 0.61548 0.0
C1002 C 0.72576 0.60227 0.5882 0.0
C1003 C 0.68637 0.57907 0.61617 0.0
C1004 C 0.73583 0.58544 0.59742 0.0
C1005 C 0.69713 0.56266 0.62493 0.0
C1006 C 0.66391 0.65512 0.54584 0.0
C1007 C 0.64984 0.62949 0.5335 0.0
C1008 C 0.66561 0.67866 0.53458 0.0
C1009 C 0.63746 0.62777 0.51025 0.0
C1010 C 0.65303 0.67611 0.51127 0.0
N1011 N 0.63929 0.65092 0.49971 0.0
C1012 C 0.60723 0.60771 0.58186 0.0
C1013 C 0.61898 0.5721 0.58261 0.0
C1014 C 0.58195 0.58995 0.57028 0.0
N1015 N 0.62542 0.59877 0.58701 0.0
C1016 C 0.59379 0.55355 0.57115 0.0
C1017 C 0.57546 0.56282 0.56397 0.0
H1018 H 0.61326 0.62924 0.58504 0.0
H1019 H 0.63417 0.56582 0.58633 0.0
C1020 C 0.75914 0.66941 0.54863 0.0
N1021 N 0.73127 0.65682 0.54467 0.0
C1022 C 0.77703 0.67192 0.52916 0.0
C1023 C 0.73731 0.648 0.50177 0.0
C1024 C 0.72016 0.6461 0.52181 0.0
C1025 C 0.76616 0.66085 0.50539 0.0
H1026 H 0.7675 0.67696 0.56713 0.0
H1027 H 0.69799 0.63539 0.51918 0.0
O1028 O 0.67072 0.64741 0.62688 0.0
O1029 O 0.72781 0.68019 0.60089 0.0
O1030 O 0.69109 0.61593 0.58942 0.0
O1031 O 0.67537 0.65714 0.56907 0.0
H1032 H 0.63636 0.66731 0.6308 0.0
H1033 H 0.64618 0.59668 0.64621 0.0
H1034 H 0.5886 0.64137 0.64828 0.0
H1035 H 0.59825 0.57192 0.66345 0.0
H1036 H 0.75684 0.7503 0.54379 0.0
H1037 H 0.77641 0.71442 0.62133 0.0
H1038 H 0.72204 0.70364 0.55951 0.0
H1039 H 0.81042 0.76097 0.60443 0.0
H1040 H 0.7184 0.62042 0.70507 0.0
H1041 H 0.78597 0.64578 0.65191 0.0
H1042 H 0.6453 0.73108 0.58122 0.0
H1043 H 0.72627 0.77796 0.61576 0.0
H1044 H 0.73725 0.6176 0.5739 0.0
H1045 H 0.66701 0.57619 0.62364 0.0
H1046 H 0.7551 0.58773 0.59025 0.0
H1047 H 0.68615 0.54713 0.63925 0.0
H1048 H 0.6488 0.61114 0.54159 0.0
H1049 H 0.67655 0.69873 0.54371 0.0
H1050 H 0.62646 0.60804 0.50055 0.0
H1051 H 0.65417 0.69417 0.50238 0.0
H1052 H 0.56825 0.59777 0.56517 0.0
H1053 H 0.58962 0.53285 0.56635 0.0
H1054 H 0.79916 0.68219 0.53279 0.0
H1055 H 0.728 0.63872 0.48389 0.0
C1056 C 0.11337 0.31606 0.97215 0.0
C1057 C 0.12435 0.33112 0.99443 0.0
C1058 C 0.13063 0.31312 0.95459 0.0
C1059 C 0.15944 0.3255 0.95952 0.0
C1060 C 0.17074 0.34158 0.98152 0.0
C1061 C 0.15307 0.34424 0.99867 0.0
C1062 C 0.1179 0.29592 0.93126 0.0
C1063 C 0.2014 0.35523 0.98741 0.0
C1064 C 0.20247 0.29506 0.93518 0.0
C1065 C 0.21877 0.31446 0.91673 0.0
C1066 C 0.18193 0.29755 0.94825 0.0
C1067 C 0.17766 0.32007 0.94284 0.0
C1068 C 0.19296 0.33888 0.92332 0.0
C1069 C 0.21341 0.33587 0.91049 0.0
C1070 C 0.16606 0.27707 0.96897 0.0
C1071 C 0.18882 0.36304 0.91693 0.0
H1072 H 0.09116 0.30579 0.96885 0.0
H1073 H 0.16172 0.35641 0.0156 0.0
H1074 H 0.12966 0.30746 0.91432 0.0
H1075 H 0.1191 0.27659 0.9323 0.0
H1076 H 0.09576 0.29009 0.92894 0.0
H1077 H 0.20707 0.36822 0.00466 0.0
H1078 H 0.20733 0.33906 0.99007 0.0
H1079 H 0.21386 0.36853 0.97149 0.0
H1080 H 0.20678 0.27874 0.94043 0.0
H1081 H 0.22578 0.35076 0.89608 0.0
H1082 H 0.14342 0.26893 0.96693 0.0
H1083 H 0.17243 0.28774 0.98743 0.0
H1084 H 0.16985 0.25923 0.96913 0.0
H1085 H 0.16638 0.35594 0.91491 0.0
H1086 H 0.19972 0.37361 0.8993 0.0
H1087 H 0.19695 0.37845 0.93243 0.0
C1088 C 0.70773 0.82783 0.99251 0.0
C1089 C 0.68929 0.79933 0.98936 0.0
C1090 C 0.70737 0.84731 0.97609 0.0
C1091 C 0.68794 0.83803 0.95614 0.0
C1092 C 0.67063 0.80917 0.95178 0.0
C1093 C 0.67154 0.79007 0.9685 0.0
C1094 C 0.72641 0.8779 0.98124 0.0
C1095 C 0.64978 0.79848 0.93064 0.0
C1096 C 0.66398 0.88946 0.9431 0.0
C1097 C 0.68106 0.90452 0.9229 0.0
C1098 C 0.66477 0.86656 0.95304 0.0
C1099 C 0.68316 0.85858 0.94252 0.0
C1100 C 0.69909 0.87255 0.92101 0.0
C1101 C 0.69783 0.89545 0.91138 0.0
C1102 C 0.64719 0.85206 0.97583 0.0
C1103 C 0.71875 0.86449 0.90919 0.0
H1104 H 0.72174 0.83492 0.00846 0.0
H1105 H 0.65722 0.768 0.96609 0.0
H1106 H 0.73713 0.88896 0.96377 0.0
H1107 H 0.71396 0.8872 0.98802 0.0
H1108 H 0.74235 0.88158 0.99565 0.0
H1109 H 0.64157 0.77599 0.92706 0.0
H1110 H 0.63206 0.80152 0.93554 0.0
H1111 H 0.65918 0.81022 0.91307 0.0
H1112 H 0.65068 0.89625 0.95172 0.0
H1113 H 0.71105 0.90715 0.89575 0.0
H1114 H 0.66085 0.85626 0.99239 0.0
H1115 H 0.63549 0.82922 0.97289 0.0
H1116 H 0.63215 0.85913 0.98022 0.0
H1117 H 0.73721 0.87147 0.92143 0.0
H1118 H 0.72595 0.87408 0.89036 0.0
H1119 H 0.70871 0.84156 0.90733 0.0
C1120 C 0.18569 0.84691 0.99529 0.0
C1121 C 0.20363 0.87528 0.99059 0.0
C1122 C 0.16575 0.82987 0.97766 0.0
C1123 C 0.16401 0.8413 0.95443 0.0
C1124 C 0.18271 0.86965 0.94907 0.0
C1125 C 0.20221 0.88639 0.96732 0.0
C1126 C 0.14614 0.79971 0.98415 0.0
C1127 C 0.18174 0.88237 0.92433 0.0
C1128 C 0.12265 0.7841 0.90769 0.0
C1129 C 0.09592 0.78012 0.91143 0.0
C1130 C 0.14572 0.80578 0.91984 0.0
C1131 C 0.14175 0.82343 0.93644 0.0
C1132 C 0.11513 0.8208 0.9387 0.0
C1133 C 0.09252 0.79923 0.92602 0.0
C1134 C 0.17389 0.80835 0.91646 0.0
C1135 C 0.10996 0.83904 0.95636 0.0
H1136 H 0.18714 0.83795 0.01292 0.0
H1137 H 0.2159 0.90832 0.96357 0.0
H1138 H 0.12434 0.79532 0.98366 0.0
H1139 H 0.14801 0.78601 0.97005 0.0
H1140 H 0.15028 0.79412 0.00305 0.0
H1141 H 0.19936 0.90396 0.92215 0.0
H1142 H 0.18217 0.8696 0.90848 0.0
H1143 H 0.16201 0.88274 0.92291 0.0
H1144 H 0.12528 0.76944 0.89621 0.0
H1145 H 0.07182 0.79603 0.92909 0.0
H1146 H 0.17889 0.79991 0.93329 0.0
H1147 H 0.19031 0.83048 0.91453 0.0
H1148 H 0.17452 0.79669 0.89973 0.0
H1149 H 0.11118 0.83317 0.97606 0.0
H1150 H 0.08917 0.83688 0.95343 0.0
H1151 H 0.12607 0.8612 0.95397 0.0
C1152 C 0.66366 0.7874 0.59276 0.0
C1153 C 0.68682 0.78395 0.58982 0.0
C1154 C 0.66219 0.80884 0.58022 0.0
C1155 C 0.68417 0.82675 0.56404 0.0
C1156 C 0.70848 0.82461 0.56255 0.0
C1157 C 0.70957 0.80329 0.57562 0.0
C1158 C 0.63622 0.8109 0.58277 0.0
C1159 C 0.73226 0.84311 0.54532 0.0
C1160 C 0.66491 0.85008 0.5044 0.0
C1161 C 0.67483 0.87835 0.50914 0.0
C1162 C 0.66761 0.83312 0.52225 0.0
C1163 C 0.68002 0.84451 0.54575 0.0
C1164 C 0.6892 0.87276 0.5511 0.0
C1165 C 0.6867 0.88944 0.53264 0.0
C1166 C 0.65762 0.80307 0.51575 0.0
C1167 C 0.70208 0.88544 0.57612 0.0
H1168 H 0.64615 0.77255 0.60393 0.0
H1169 H 0.72739 0.80048 0.57312 0.0
H1170 H 0.64153 0.83292 0.58461 0.0
H1171 H 0.62334 0.80239 0.56562 0.0
H1172 H 0.62352 0.79905 0.59925 0.0
H1173 H 0.75098 0.84125 0.54879 0.0
H1174 H 0.72574 0.83723 0.52551 0.0
H1175 H 0.73796 0.86518 0.54761 0.0
H1176 H 0.655 0.84112 0.4866 0.0
H1177 H 0.69457 0.9113 0.53644 0.0
H1178 H 0.64168 0.78915 0.52949 0.0
H1179 H 0.67519 0.79896 0.51683 0.0
H1180 H 0.64852 0.7975 0.4966 0.0
H1181 H 0.68838 0.87256 0.59168 0.0
H1182 H 0.70591 0.90698 0.57814 0.0
H1183 H 0.72216 0.88588 0.57821 0.0
C1184 C 0.1118 0.81969 0.50426 0.0
C1185 C 0.10465 0.7918 0.50722 0.0
C1186 C 0.13241 0.84063 0.51917 0.0
C1187 C 0.1459 0.83344 0.53777 0.0
C1188 C 0.13717 0.80512 0.54226 0.0
C1189 C 0.11676 0.78461 0.52679 0.0
C1190 C 0.14113 0.87059 0.51375 0.0
C1191 C 0.15068 0.79661 0.56226 0.0
C1192 C 0.2213 0.88792 0.54713 0.0
C1193 C 0.21991 0.90263 0.56797 0.0
C1194 C 0.19746 0.86476 0.53771 0.0
C1195 C 0.17158 0.8557 0.54972 0.0
C1196 C 0.17024 0.86934 0.57172 0.0
C1197 C 0.19446 0.89283 0.58054 0.0
C1198 C 0.19982 0.8508 0.51419 0.0
C1199 C 0.14309 0.85988 0.5853 0.0
H1200 H 0.10201 0.82531 0.48958 0.0
H1201 H 0.11145 0.76313 0.52918 0.0
H1202 H 0.14194 0.88166 0.53135 0.0
H1203 H 0.16234 0.88125 0.5055 0.0
H1204 H 0.12682 0.87252 0.50041 0.0
H1205 H 0.13833 0.774 0.56643 0.0
H1206 H 0.17162 0.80142 0.5558 0.0
H1207 H 0.15342 0.80841 0.57987 0.0
H1208 H 0.24105 0.89495 0.53774 0.0
H1209 H 0.19323 0.90412 0.59665 0.0
H1210 H 0.18759 0.85308 0.49885 0.0
H1211 H 0.19106 0.82822 0.5175 0.0
H1212 H 0.22168 0.85975 0.50773 0.0
H1213 H 0.12961 0.86505 0.57387 0.0
H1214 H 0.14621 0.86998 0.60397 0.0
H1215 H 0.13183 0.83698 0.5879 0.0
C1216 C 0.11079 0.30364 0.59083 0.0
C1217 C 0.09803 0.31589 0.57735 0.0
C1218 C 0.13471 0.30417 0.58139 0.0
C1219 C 0.14593 0.31727 0.55805 0.0
C1220 C 0.13397 0.33101 0.54518 0.0
C1221 C 0.1102 0.33016 0.55501 0.0
C1222 C 0.14709 0.28955 0.59572 0.0
C1223 C 0.14541 0.34545 0.52033 0.0
C1224 C 0.21651 0.33656 0.53141 0.0
C1225 C 0.20901 0.31614 0.51282 0.0
C1226 C 0.19648 0.33604 0.54788 0.0
C1227 C 0.16843 0.31464 0.54556 0.0
C1228 C 0.16126 0.29279 0.52815 0.0
C1229 C 0.18166 0.29383 0.51197 0.0
C1230 C 0.20498 0.35955 0.56636 0.0
C1231 C 0.13161 0.26946 0.52519 0.0
H1232 H 0.10137 0.29261 0.60813 0.0
H1233 H 0.10064 0.34011 0.54484 0.0
H1234 H 0.14238 0.27011 0.58577 0.0
H1235 H 0.17005 0.30273 0.5967 0.0
H1236 H 0.13866 0.28409 0.61513 0.0
H1237 H 0.13478 0.35668 0.51362 0.0
H1238 H 0.16797 0.36055 0.52197 0.0
H1239 H 0.14284 0.32991 0.5059 0.0
H1240 H 0.23765 0.35389 0.53208 0.0
H1241 H 0.17596 0.27775 0.49789 0.0
H1242 H 0.19476 0.35159 0.58482 0.0
H1243 H 0.19824 0.37402 0.55926 0.0
H1244 H 0.22787 0.37148 0.56912 0.0
H1245 H 0.12231 0.26068 0.54378 0.0
H1246 H 0.13009 0.25243 0.51312 0.0
H1247 H 0.11901 0.27769 0.51655 0.0
C1248 C 0.80536 0.70131 0.07015 0.0
C1249 C 0.7904 0.68398 0.09029 0.0
C1250 C 0.8245 0.697 0.05661 0.0
C1251 C 0.829 0.67497 0.06354 0.0
C1252 C 0.81521 0.65844 0.08481 0.0
C1253 C 0.79581 0.66297 0.09782 0.0
C1254 C 0.83848 0.71486 0.03384 0.0
C1255 C 0.81986 0.63508 0.09302 0.0
C1256 C 0.84872 0.64401 0.00941 0.0
C1257 C 0.87779 0.65789 0.01136 0.0
C1258 C 0.83257 0.64877 0.02677 0.0
C1259 C 0.84575 0.66753 0.04686 0.0
C1260 C 0.87495 0.68061 0.0497 0.0
C1261 C 0.89067 0.67578 0.0318 0.0
C1262 C 0.80147 0.63449 0.02301 0.0
C1263 C 0.88965 0.70047 0.07108 0.0
H1264 H 0.80087 0.71726 0.06398 0.0
H1265 H 0.78429 0.64961 0.11344 0.0
H1266 H 0.86126 0.72332 0.03462 0.0
H1267 H 0.83071 0.70199 0.01659 0.0
H1268 H 0.83446 0.73248 0.0322 0.0
H1269 H 0.8106 0.62677 0.11176 0.0
H1270 H 0.81033 0.61787 0.07917 0.0
H1271 H 0.84242 0.64225 0.0937 0.0
H1272 H 0.83854 0.62965 0.99403 0.0
H1273 H 0.91312 0.68675 0.03339 0.0
H1274 H 0.79519 0.65028 0.01948 0.0
H1275 H 0.79051 0.62297 0.04024 0.0
H1276 H 0.79437 0.6197 0.00697 0.0
H1277 H 0.88842 0.71965 0.06846 0.0
H1278 H 0.91191 0.7064 0.07229 0.0
H1279 H 0.87935 0.69106 0.08921 0.0
C1280 C 0.31364 0.17404 -0.00036 0.0
C1281 C 0.32553 0.20227 0.006 0.0
C1282 C 0.31162 0.15438 0.01725 0.0
C1283 C 0.32259 0.1632 0.04166 0.0
C1284 C 0.33436 0.19151 0.0484 0.0
C1285 C 0.33528 0.21062 0.03063 0.0
C1286 C 0.29839 0.12422 0.00948 0.0
C1287 C 0.34683 0.20176 0.07409 0.0
C1288 C 0.29933 0.10562 0.08997 0.0
C1289 C 0.31971 0.0979 0.08708 0.0
C1290 C 0.30051 0.12764 0.07605 0.0
C1291 C 0.32304 0.14285 0.05944 0.0
C1292 C 0.34478 0.13664 0.05794 0.0
C1293 C 0.34265 0.11402 0.07144 0.0
C1294 C 0.27669 0.13335 0.07786 0.0
C1295 C 0.36953 0.15282 0.04088 0.0
H1296 H 0.30652 0.16724 0.98064 0.0
H1297 H 0.34393 0.23219 0.03606 0.0
H1298 H 0.31435 0.1178 0.00904 0.0
H1299 H 0.28232 0.11076 0.02335 0.0
H1300 H 0.28858 0.12039 0.99063 0.0
H1301 H 0.3541 0.22421 0.07677 0.0
H1302 H 0.33144 0.18976 0.08895 0.0
H1303 H 0.36477 0.19842 0.07672 0.0
H1304 H 0.28182 0.09377 0.10238 0.0
H1305 H 0.35835 0.10816 0.06856 0.0
H1306 H 0.26475 0.12708 0.06004 0.0
H1307 H 0.28453 0.15588 0.08048 0.0
H1308 H 0.2623 0.12177 0.09355 0.0
H1309 H 0.36297 0.14759 0.02101 0.0
H1310 H 0.38639 0.14807 0.04459 0.0
H1311 H 0.378 0.17551 0.04322 0.0
C1312 C 0.90135 0.19801 0.07294 0.0
C1313 C 0.89919 0.21795 0.08744 0.0
C1314 C 0.87856 0.17791 0.05928 0.0
C1315 C 0.85302 0.17777 0.06017 0.0
C1316 C 0.85015 0.19652 0.07623 0.0
C1317 C 0.87332 0.21647 0.08964 0.0
C1318 C 0.8825 0.1583 0.04236 0.0
C1319 C 0.82317 0.19682 0.07788 0.0
C1320 C 0.81047 0.15587 0.00039 0.0
C1321 C 0.78987 0.12853 0.00594 0.0
C1322 C 0.83092 0.1721 0.01801 0.0
C1323 C 0.83077 0.16074 0.04185 0.0
C1324 C 0.80992 0.13321 0.04771 0.0
C1325 C 0.78972 0.11735 0.02961 0.0
C1326 C 0.85293 0.20133 0.01094 0.0
C1327 C 0.80907 0.12051 0.07298 0.0
H1328 H 0.92135 0.19923 0.07091 0.0
H1329 H 0.87151 0.23167 0.10105 0.0
H1330 H 0.86499 0.13671 0.04453 0.0
H1331 H 0.88276 0.16441 0.02247 0.0
H1332 H 0.90227 0.15857 0.04629 0.0
H1333 H 0.82312 0.2098 0.09376 0.0
H1334 H 0.81988 0.20531 0.06018 0.0
H1335 H 0.80535 0.17541 0.08016 0.0
H1336 H 0.81094 0.16445 0.98198 0.0
H1337 H 0.77367 0.09629 0.03405 0.0
H1338 H 0.87382 0.20333 0.01186 0.0
H1339 H 0.85276 0.21644 0.02449 0.0
H1340 H 0.84987 0.20713 0.99174 0.0
H1341 H 0.82849 0.11985 0.07593 0.0
H1342 H 0.79109 0.09908 0.07481 0.0
H1343 H 0.80787 0.13357 0.08817 0.0
C1344 C 0.35384 0.15916 0.49299 0.0
C1345 C 0.34413 0.131 0.48787 0.0
C1346 C 0.35097 0.17626 0.47537 0.0
C1347 C 0.33846 0.16506 0.45187 0.0
C1348 C 0.32964 0.13698 0.44612 0.0
C1349 C 0.33242 0.1202 0.46427 0.0
C1350 C 0.36059 0.20613 0.48224 0.0
C1351 C 0.31648 0.12444 0.42115 0.0
C1352 C 0.30497 0.20313 0.4228 0.0
C1353 C 0.3263 0.22225 0.40714 0.0
C1354 C 0.30806 0.1833 0.43643 0.0
C1355 C 0.33302 0.18246 0.4342 0.0
C1356 C 0.35386 0.20046 0.41712 0.0
C1357 C 0.35034 0.22034 0.40391 0.0
C1358 C 0.28545 0.16466 0.45461 0.0
C1359 C 0.38054 0.19983 0.41393 0.0
H1360 H 0.36349 0.16782 0.51094 0.0
H1361 H 0.32468 0.09842 0.46022 0.0
H1362 H 0.37556 0.22037 0.46803 0.0
H1363 H 0.34258 0.20962 0.48235 0.0
H1364 H 0.37066 0.21183 0.501 0.0
H1365 H 0.31336 0.10321 0.41863 0.0
H1366 H 0.29598 0.12324 0.41971 0.0
H1367 H 0.32958 0.13781 0.40552 0.0
H1368 H 0.28655 0.20483 0.42569 0.0
H1369 H 0.36679 0.23506 0.39171 0.0
H1370 H 0.29305 0.17069 0.47416 0.0
H1371 H 0.28003 0.14269 0.45207 0.0
H1372 H 0.2663 0.16603 0.45233 0.0
H1373 H 0.39353 0.20846 0.431 0.0
H1374 H 0.39274 0.21223 0.39746 0.0
H1375 H 0.37613 0.17813 0.41169 0.0
C1376 C 0.86382 0.2152 0.47348 0.0
C1377 C 0.87816 0.20891 0.49157 0.0
C1378 C 0.84569 0.19493 0.45647 0.0
C1379 C 0.84168 0.16771 0.45778 0.0
C1380 C 0.85723 0.16167 0.47513 0.0
C1381 C 0.87536 0.18239 0.49178 0.0
C1382 C 0.82971 0.20224 0.43805 0.0
C1383 C 0.8534 0.13283 0.47722 0.0
C1384 C 0.77078 0.10751 0.44114 0.0
C1385 C 0.77571 0.09921 0.41771 0.0
C1386 C 0.792 0.13005 0.45409 0.0
C1387 C 0.81888 0.14479 0.44332 0.0
C1388 C 0.82393 0.13694 0.41943 0.0
C1389 C 0.80227 0.11405 0.40694 0.0
C1390 C 0.78579 0.13755 0.47965 0.0
C1391 C 0.85229 0.15237 0.40734 0.0
H1392 H 0.86628 0.23584 0.47302 0.0
H1393 H 0.88626 0.17739 0.50586 0.0
H1394 H 0.83067 0.19475 0.41895 0.0
H1395 H 0.8075 0.19176 0.44368 0.0
H1396 H 0.83775 0.225 0.43722 0.0
H1397 H 0.86907 0.13228 0.48977 0.0
H1398 H 0.83238 0.11838 0.48481 0.0
H1399 H 0.85482 0.12497 0.45843 0.0
H1400 H 0.75046 0.09573 0.44982 0.0
H1401 H 0.8061 0.10766 0.38883 0.0
H1402 H 0.79099 0.15961 0.47986 0.0
H1403 H 0.79888 0.13523 0.49408 0.0
H1404 H 0.76362 0.12431 0.48509 0.0
H1405 H 0.85948 0.17493 0.40639 0.0
H1406 H 0.85238 0.14471 0.38807 0.0
H1407 H 0.86754 0.14998 0.41894 0.0
C1408 C 0.86151 0.6449 0.40191 0.0
C1409 C 0.88708 0.66979 0.40096 0.0
C1410 C 0.83881 0.64342 0.41491 0.0
C1411 C 0.84194 0.66736 0.42735 0.0
C1412 C 0.86685 0.69311 0.42443 0.0
C1413 C 0.88914 0.69402 0.41121 0.0
C1414 C 0.8124 0.61569 0.41719 0.0
C1415 C 0.87105 0.71913 0.43739 0.0
C1416 C 0.78112 0.66763 0.46007 0.0
C1417 C 0.78482 0.66173 0.48495 0.0
C1418 C 0.79918 0.66902 0.44087 0.0
C1419 C 0.82148 0.66457 0.44679 0.0
C1420 C 0.82501 0.65818 0.47178 0.0
C1421 C 0.80657 0.65669 0.49047 0.0
C1422 C 0.79471 0.67567 0.4144 0.0
C1423 C 0.84853 0.65325 0.4789 0.0
H1424 H 0.85975 0.62621 0.3937 0.0
H1425 H 0.9089 0.7133 0.41074 0.0
H1426 H 0.81144 0.60686 0.4361 0.0
H1427 H 0.79386 0.61812 0.41516 0.0
H1428 H 0.81137 0.6006 0.40291 0.0
H1429 H 0.8896 0.73809 0.4301 0.0
H1430 H 0.85255 0.72156 0.43507 0.0
H1431 H 0.87395 0.71754 0.45783 0.0
H1432 H 0.76443 0.67169 0.4557 0.0
H1433 H 0.80916 0.65145 0.5095 0.0
H1434 H 0.7938 0.6598 0.40116 0.0
H1435 H 0.8125 0.69601 0.40859 0.0
H1436 H 0.77528 0.67662 0.41257 0.0
H1437 H 0.8473 0.63578 0.46774 0.0
H1438 H 0.84822 0.64832 0.49916 0.0
H1439 H 0.86879 0.672 0.47454 0.0
C1440 C 0.22494 0.35711 0.27772 0.0
C1441 C 0.23082 0.37261 0.29992 0.0
C1442 C 0.20686 0.35773 0.2597 0.0
C1443 C 0.19481 0.37464 0.26384 0.0
C1444 C 0.20135 0.39097 0.28591 0.0
C1445 C 0.21909 0.38954 0.30383 0.0
C1446 C 0.20006 0.3397 0.23658 0.0
C1447 C 0.18934 0.40966 0.29072 0.0
C1448 C 0.16557 0.39106 0.20616 0.0
C1449 C 0.13712 0.37185 0.2085 0.0
C1450 C 0.18452 0.39284 0.22448 0.0
C1451 C 0.17478 0.37459 0.24533 0.0
C1452 C 0.14597 0.35549 0.248 0.0
C1453 C 0.12743 0.35452 0.22962 0.0
C1454 C 0.215 0.41385 0.22126 0.0
C1455 C 0.13485 0.33542 0.26979 0.0
H1456 H 0.23377 0.34378 0.27487 0.0
H1457 H 0.2238 0.40165 0.32096 0.0
H1458 H 0.17741 0.32461 0.23599 0.0
H1459 H 0.20532 0.35267 0.2194 0.0
H1460 H 0.21143 0.32799 0.23606 0.0
H1461 H 0.19769 0.42214 0.30814 0.0
H1462 H 0.19394 0.42403 0.27465 0.0
H1463 H 0.16639 0.39696 0.29242 0.0
H1464 H 0.17299 0.40459 0.18987 0.0
H1465 H 0.10545 0.33947 0.23126 0.0
H1466 H 0.22693 0.40292 0.21853 0.0
H1467 H 0.22317 0.42676 0.23844 0.0
H1468 H 0.21891 0.42778 0.20492 0.0
H1469 H 0.14382 0.3215 0.26929 0.0
H1470 H 0.11182 0.32241 0.26947 0.0
H1471 H 0.14119 0.34693 0.28784 0.0
C1472 C 0.6495 0.77824 0.22184 0.0
C1473 C 0.63239 0.77008 0.20056 0.0
C1474 C 0.64785 0.79564 0.24004 0.0
C1475 C 0.62838 0.8048 0.23702 0.0
C1476 C 0.6106 0.7961 0.21585 0.0
C1477 C 0.61296 0.77898 0.19776 0.0
C1478 C 0.66739 0.80474 0.26221 0.0
C1479 C 0.58931 0.80509 0.2122 0.0
C1480 C 0.61115 0.83144 0.29613 0.0
C1481 C 0.62811 0.86028 0.29336 0.0
C1482 C 0.61027 0.81313 0.2775 0.0
C1483 C 0.62712 0.82396 0.25582 0.0
C1484 C 0.64379 0.85311 0.25267 0.0
C1485 C 0.64392 0.87096 0.27143 0.0
C1486 C 0.59185 0.7822 0.28131 0.0
C1487 C 0.6623 0.86543 0.22995 0.0
H1488 H 0.66479 0.77168 0.22385 0.0
H1489 H 0.59959 0.77251 0.18138 0.0
H1490 H 0.68059 0.82773 0.2623 0.0
H1491 H 0.65537 0.79866 0.28001 0.0
H1492 H 0.68114 0.79554 0.26191 0.0
H1493 H 0.57629 0.79556 0.19526 0.0
H1494 H 0.57551 0.79933 0.22888 0.0
H1495 H 0.59989 0.82805 0.21032 0.0
H1496 H 0.59876 0.82321 0.31303 0.0
H1497 H 0.65726 0.89325 0.26942 0.0
H1498 H 0.60485 0.77232 0.28327 0.0
H1499 H 0.5783 0.77272 0.26469 0.0
H1500 H 0.57853 0.77725 0.29829 0.0
H1501 H 0.67814 0.85884 0.22957 0.0
H1502 H 0.67315 0.88853 0.22987 0.0
H1503 H 0.6499 0.85762 0.21247 0.0
C1504 C 0.23649 0.84185 0.21899 0.0
C1505 C 0.22755 0.85762 0.20556 0.0
C1506 C 0.21985 0.8235 0.23804 0.0
C1507 C 0.19392 0.82125 0.2439 0.0
C1508 C 0.18509 0.83755 0.23065 0.0
C1509 C 0.20196 0.85544 0.21159 0.0
C1510 C 0.2298 0.80626 0.25163 0.0
C1511 C 0.15778 0.83608 0.23658 0.0
C1512 C 0.13542 0.75801 0.27609 0.0
C1513 C 0.137 0.76787 0.30065 0.0
C1514 C 0.15466 0.77472 0.25765 0.0
C1515 C 0.17583 0.802 0.2639 0.0
C1516 C 0.1782 0.81166 0.28888 0.0
C1517 C 0.15885 0.79443 0.30697 0.0
C1518 C 0.1516 0.76363 0.23124 0.0
C1519 C 0.20045 0.84062 0.29628 0.0
H1520 H 0.2562 0.8434 0.21421 0.0
H1521 H 0.19521 0.86793 0.20144 0.0
H1522 H 0.2309 0.81034 0.27212 0.0
H1523 H 0.21475 0.78382 0.24883 0.0
H1524 H 0.25059 0.81064 0.24501 0.0
H1525 H 0.15417 0.85044 0.22475 0.0
H1526 H 0.14035 0.81458 0.23363 0.0
H1527 H 0.1573 0.84137 0.25662 0.0
H1528 H 0.11853 0.7376 0.271 0.0
H1529 H 0.16061 0.80197 0.32605 0.0
H1530 H 0.17179 0.76674 0.22427 0.0
H1531 H 0.14523 0.77526 0.21852 0.0
H1532 H 0.13586 0.74116 0.23002 0.0
H1533 H 0.22123 0.84436 0.29049 0.0
H1534 H 0.2007 0.84424 0.31683 0.0
H1535 H 0.19689 0.85616 0.28641 0.0
C1536 C 0.84628 0.64272 0.80019 0.0
C1537 C 0.86023 0.62768 0.79715 0.0
C1538 C 0.82808 0.64227 0.78175 0.0
C1539 C 0.82411 0.62686 0.75945 0.0
C1540 C 0.83802 0.61157 0.75621 0.0
C1541 C 0.85577 0.61201 0.77517 0.0
C1542 C 0.81345 0.65869 0.78598 0.0
C1543 C 0.83451 0.59514 0.73253 0.0
C1544 C 0.76099 0.60952 0.71925 0.0
C1545 C 0.77237 0.63087 0.70128 0.0
C1546 C 0.77759 0.60784 0.73826 0.0
C1547 C 0.8063 0.62777 0.73911 0.0
C1548 C 0.81797 0.64916 0.7209 0.0
C1549 C 0.80084 0.6506 0.70238 0.0
C1550 C 0.76439 0.58492 0.75757 0.0
C1551 C 0.84854 0.67071 0.72109 0.0
H1552 H 0.84994 0.65534 0.81683 0.0
H1553 H 0.8661 0.59999 0.77278 0.0
H1554 H 0.82046 0.67549 0.77177 0.0
H1555 H 0.79069 0.64503 0.78363 0.0
H1556 H 0.81751 0.66823 0.80498 0.0
H1557 H 0.8464 0.58396 0.73311 0.0
H1558 H 0.81222 0.57974 0.72954 0.0
H1559 H 0.84161 0.6093 0.71606 0.0
H1560 H 0.73913 0.59396 0.71838 0.0
H1561 H 0.80977 0.66752 0.68894 0.0
H1562 H 0.76725 0.59406 0.77664 0.0
H1563 H 0.77472 0.57224 0.75738 0.0
H1564 H 0.74179 0.571 0.75423 0.0
H1565 H 0.8538 0.683 0.73871 0.0
H1566 H 0.85458 0.68524 0.70491 0.0
H1567 H 0.86122 0.66037 0.72059 0.0
C1568 C 0.37372 0.21156 0.80075 0.0
C1569 C 0.37213 0.23464 0.79224 0.0
C1570 C 0.37236 0.19148 0.78393 0.0
C1571 C 0.36912 0.1944 0.75796 0.0
C1572 C 0.36795 0.21785 0.74915 0.0
C1573 C 0.36951 0.23772 0.76641 0.0
C1574 C 0.37368 0.16676 0.79403 0.0
C1575 C 0.36451 0.22167 0.72156 0.0
C1576 C 0.38606 0.15331 0.71115 0.0
C1577 C 0.35952 0.13109 0.70545 0.0
C1578 C 0.38955 0.17398 0.72836 0.0
C1579 C 0.36592 0.17239 0.7401 0.0
C1580 C 0.33912 0.14981 0.73473 0.0
C1581 C 0.33625 0.12941 0.7175 0.0
C1582 C 0.41845 0.19773 0.73368 0.0
C1583 C 0.31343 0.14733 0.74698 0.0
H1584 H 0.37521 0.20871 0.82072 0.0
H1585 H 0.36853 0.25563 0.75968 0.0
H1586 H 0.35378 0.14739 0.79024 0.0
H1587 H 0.39035 0.16484 0.78435 0.0
H1588 H 0.37766 0.1683 0.81458 0.0
H1589 H 0.36488 0.2415 0.71769 0.0
H1590 H 0.3813 0.22131 0.71055 0.0
H1591 H 0.34447 0.2042 0.71476 0.0
H1592 H 0.4041 0.15495 0.70164 0.0
H1593 H 0.31572 0.11212 0.7134 0.0
H1594 H 0.42281 0.19897 0.75412 0.0
H1595 H 0.41999 0.2177 0.7281 0.0
H1596 H 0.43472 0.19552 0.72348 0.0
H1597 H 0.31513 0.14687 0.76771 0.0
H1598 H 0.29413 0.12833 0.74095 0.0
H1599 H 0.31154 0.16577 0.74225 0.0
C1600 C 0.7652 0.16286 0.79171 0.0
C1601 C 0.75852 0.13541 0.78676 0.0
C1602 C 0.78442 0.18487 0.77663 0.0
C1603 C 0.79689 0.17911 0.756 0.0
C1604 C 0.78895 0.15122 0.75014 0.0
C1605 C 0.77003 0.12972 0.76574 0.0
C1606 C 0.79256 0.21432 0.78361 0.0
C1607 C 0.80141 0.14418 0.72805 0.0
C1608 C 0.83648 0.23218 0.70495 0.0
C1609 C 0.86404 0.2405 0.71132 0.0
C1610 C 0.81428 0.21296 0.71987 0.0
C1611 C 0.81991 0.20215 0.74175 0.0
C1612 C 0.8478 0.21174 0.74896 0.0
C1613 C 0.86953 0.23064 0.73353 0.0
C1614 C 0.78485 0.20305 0.71145 0.0
C1615 C 0.85467 0.20106 0.77238 0.0
H1616 H 0.75651 0.16726 0.80817 0.0
H1617 H 0.76472 0.10844 0.76191 0.0
H1618 H 0.81432 0.22534 0.79052 0.0
H1619 H 0.79171 0.22582 0.76692 0.0
H1620 H 0.77892 0.2151 0.7985 0.0
H1621 H 0.79112 0.12141 0.72469 0.0
H1622 H 0.79974 0.15437 0.71075 0.0
H1623 H 0.82385 0.15216 0.73149 0.0
H1624 H 0.83224 0.23958 0.6876 0.0
H1625 H 0.89088 0.23724 0.73848 0.0
H1626 H 0.77225 0.20394 0.72722 0.0
H1627 H 0.77507 0.18101 0.70538 0.0
H1628 H 0.784 0.21556 0.69556 0.0
H1629 H 0.84332 0.20286 0.78878 0.0
H1630 H 0.87729 0.21251 0.77657 0.0
H1631 H 0.84789 0.17871 0.77003 0.0
C1632 C 0.99265 0.45957 0.03973 0.0
C1633 C 0.01678 0.45751 0.0393 0.0
C1634 C 0.98902 0.47666 0.02259 0.0
C1635 C 0.00988 0.49173 0.00442 0.0
C1636 C 0.03447 0.49005 0.00415 0.0
C1637 C 0.03768 0.47303 0.02168 0.0
C1638 C 0.96271 0.47829 0.02369 0.0
C1639 C 0.05706 0.50565 0.98493 0.0
C1640 C 0.98748 0.51331 0.94523 0.0
C1641 C 0.99667 0.54135 0.9502 0.0
C1642 C 0.99209 0.497 0.96255 0.0
C1643 C 0.0058 0.50899 0.98549 0.0
C1644 C 0.01522 0.53735 0.99052 0.0
C1645 C 0.01063 0.55322 0.97275 0.0
C1646 C 0.98205 0.46689 0.95645 0.0
C1647 C 0.02958 0.55077 0.01489 0.0
H1648 H 0.97655 0.44767 0.05344 0.0
H1649 H 0.05616 0.47113 0.02105 0.0
H1650 H 0.96789 0.50026 0.02567 0.0
H1651 H 0.95094 0.47031 0.00591 0.0
H1652 H 0.94901 0.4661 0.03957 0.0
H1653 H 0.07516 0.50256 0.9876 0.0
H1654 H 0.04865 0.49862 0.96575 0.0
H1655 H 0.0644 0.52823 0.986 0.0
H1656 H 0.9767 0.50417 0.92779 0.0
H1657 H 0.01727 0.57479 0.97684 0.0
H1658 H 0.96634 0.45327 0.97049 0.0
H1659 H -0.0004 0.46275 0.9575 0.0
H1660 H 0.97263 0.46102 0.93744 0.0
H1661 H 0.0155 0.53997 0.03094 0.0
H1662 H 0.03596 0.57318 0.01572 0.0
H1663 H 0.04831 0.54874 0.01734 0.0
C1664 C 0.54856 0.53616 0.0398 0.0
C1665 C 0.55147 0.56246 0.03605 0.0
C1666 C 0.5297 0.51321 0.02549 0.0
C1667 C 0.51362 0.51676 0.00681 0.0
C1668 C 0.51642 0.54327 0.00299 0.0
C1669 C 0.53523 0.56579 0.01778 0.0
C1670 C 0.52698 0.48516 0.03035 0.0
C1671 C 0.49983 0.5479 0.98308 0.0
C1672 C 0.48404 0.46215 0.95528 0.0
C1673 C 0.45655 0.4452 0.96348 0.0
C1674 C 0.50271 0.48587 0.96892 0.0
C1675 C 0.49374 0.49263 0.9914 0.0
C1676 C 0.46592 0.47592 0.99954 0.0
C1677 C 0.44763 0.45257 0.98539 0.0
C1678 C 0.53217 0.50341 0.95953 0.0
C1679 C 0.45561 0.48241 0.02346 0.0
H1680 H 0.56096 0.53352 0.05406 0.0
H1681 H 0.53774 0.58621 0.01462 0.0
H1682 H 0.50516 0.4698 0.03531 0.0
H1683 H 0.53221 0.47754 0.01307 0.0
H1684 H 0.54075 0.48585 0.04578 0.0
H1685 H 0.50445 0.5698 0.98252 0.0
H1686 H 0.50443 0.54236 0.96435 0.0
H1687 H 0.47726 0.53417 0.98656 0.0
H1688 H 0.4912 0.4565 0.93853 0.0
H1689 H 0.42627 0.43997 0.99158 0.0
H1690 H 0.54683 0.50278 0.97328 0.0
H1691 H 0.53749 0.52543 0.95776 0.0
H1692 H 0.53545 0.49619 0.94104 0.0
H1693 H 0.46782 0.48181 0.03969 0.0
H1694 H 0.43325 0.4675 0.02702 0.0
H1695 H 0.45866 0.50371 0.02257 0.0
C1696 C 0.44848 0.01017 0.01763 0.0
C1697 C 0.4429 0.99249 0.03831 0.0
C1698 C 0.47052 0.01619 0.0012 0.0
C1699 C 0.48749 0.00432 0.0056 0.0
C1700 C 0.48217 0.98667 0.02659 0.0
C1701 C 0.45982 0.98085 0.04265 0.0
C1702 C 0.47539 0.0349 0.9789 0.0
C1703 C 0.49999 0.97383 0.03198 0.0
C1704 C 0.52805 0.9979 0.95105 0.0
C1705 C 0.55468 0.0207 0.95515 0.0
C1706 C 0.50591 0.99246 0.96721 0.0
C1707 C 0.51061 0.01014 0.98805 0.0
C1708 C 0.53739 0.03336 0.99213 0.0
C1709 C 0.55909 0.0384 0.97558 0.0
C1710 C 0.47757 0.96766 0.96212 0.0
C1711 C 0.54321 0.05258 0.01423 0.0
H1712 H 0.43514 0.01882 0.01394 0.0
H1713 H 0.45564 0.9673 0.0587 0.0
H1714 H 0.49684 0.05297 0.97943 0.0
H1715 H 0.47337 0.02343 0.96122 0.0
H1716 H 0.46051 0.04274 0.97833 0.0
H1717 H 0.49347 0.96105 0.04937 0.0
H1718 H 0.49889 0.96046 0.01602 0.0
H1719 H 0.52206 0.99037 0.03398 0.0
H1720 H 0.52457 0.98428 0.93519 0.0
H1721 H 0.57977 0.05577 0.97906 0.0
H1722 H 0.46199 0.97447 0.96012 0.0
H1723 H 0.47097 0.95305 0.97823 0.0
H1724 H 0.47726 0.9563 0.94483 0.0
H1725 H 0.52928 0.06151 0.01367 0.0
H1726 H 0.56511 0.0699 0.01456 0.0
H1727 H 0.53884 0.0407 0.03202 0.0
C1728 C 0.52169 0.9784 0.46435 0.0
C1729 C 0.5507 0.99179 0.46675 0.0
C1730 C 0.50559 0.98408 0.48108 0.0
C1731 C 0.51885 0.00381 0.50051 0.0
C1732 C 0.54809 0.01746 0.503 0.0
C1733 C 0.56362 0.01115 0.48622 0.0
C1734 C 0.4744 0.96901 0.47795 0.0
C1735 C 0.56298 0.03876 0.52338 0.0
C1736 C 0.47978 0.03737 0.52808 0.0
C1737 C 0.46932 0.02246 0.55055 0.0
C1738 C 0.49628 0.03179 0.51184 0.0
C1739 C 0.50218 0.01052 0.51802 0.0
C1740 C 0.49199 0.99557 0.54076 0.0
C1741 C 0.47579 0.00182 0.55683 0.0
C1742 C 0.50698 0.04834 0.48785 0.0
C1743 C 0.49778 0.97265 0.5479 0.0
H1744 H 0.51156 0.9636 0.44926 0.0
H1745 H 0.58595 0.02114 0.48863 0.0
H1746 H 0.46415 0.95781 0.49553 0.0
H1747 H 0.46738 0.9842 0.47434 0.0
H1748 H 0.46725 0.9538 0.46224 0.0
H1749 H 0.58588 0.0477 0.52261 0.0
H1750 H 0.55835 0.05594 0.52164 0.0
H1751 H 0.55544 0.02914 0.54211 0.0
H1752 H 0.47437 0.05289 0.52273 0.0
H1753 H 0.46799 0.99036 0.57423 0.0
H1754 H 0.49824 0.03431 0.4714 0.0
H1755 H 0.52993 0.05808 0.48682 0.0
H1756 H 0.50145 0.06494 0.48631 0.0
H1757 H 0.48924 0.95611 0.53336 0.0
H1758 H 0.48855 0.96317 0.56635 0.0
H1759 H 0.52053 0.98086 0.54871 0.0
C1760 C 0.00348 0.44667 0.51794 0.0
C1761 C 0.98719 0.4416 0.53961 0.0
C1762 C 0.00827 0.46819 0.50135 0.0
C1763 C 0.99631 0.48496 0.50644 0.0
C1764 C 0.97967 0.47987 0.52816 0.0
C1765 C 0.97532 0.45823 0.54452 0.0
C1766 C 0.02611 0.47298 0.47837 0.0
C1767 C 0.96656 0.49734 0.53415 0.0
C1768 C 0.02885 0.55674 0.47714 0.0
C1769 C 0.01079 0.55228 0.45701 0.0
C1770 C 0.02453 0.53494 0.49321 0.0
C1771 C 0.0015 0.50805 0.48915 0.0
C1772 C 0.9834 0.50328 0.46869 0.0
C1773 C 0.9883 0.52545 0.45283 0.0
C1774 C 0.04434 0.54079 0.51478 0.0
C1775 C 0.95866 0.47484 0.46377 0.0
H1776 H 0.01222 0.4335 0.51373 0.0
H1777 H 0.96284 0.45451 0.56129 0.0
H1778 H 0.01405 0.47097 0.46113 0.0
H1779 H 0.04421 0.49443 0.47863 0.0
H1780 H 0.0339 0.45808 0.47715 0.0
H1781 H 0.95386 0.49043 0.55159 0.0
H1782 H 0.98296 0.51943 0.53641 0.0
H1783 H 0.95308 0.49638 0.51837 0.0
H1784 H 0.04597 0.5775 0.4808 0.0
H1785 H 0.97443 0.52181 0.43717 0.0
H1786 H 0.05326 0.52686 0.51369 0.0
H1787 H 0.03296 0.53644 0.53288 0.0
H1788 H 0.06167 0.56269 0.51493 0.0
H1789 H 0.96561 0.45943 0.46114 0.0
H1790 H 0.94679 0.47452 0.44688 0.0
H1791 H 0.94448 0.468 0.48023 0.0
C1792 C 0.43768 0.47402 0.48199 0.0
C1793 C 0.44258 0.45928 0.46318 0.0
C1794 C 0.45879 0.49139 0.49869 0.0
C1795 C 0.48547 0.49422 0.49639 0.0
C1796 C 0.49072 0.47987 0.47708 0.0
C1797 C 0.46914 0.46245 0.46077 0.0
C1798 C 0.45239 0.50623 0.51914 0.0
C1799 C 0.51902 0.48267 0.47385 0.0
C1800 C 0.54713 0.55693 0.52575 0.0
C1801 C 0.55138 0.54543 0.54758 0.0
C1802 C 0.52563 0.54054 0.50901 0.0
C1803 C 0.50786 0.512 0.51432 0.0
C1804 C 0.51177 0.50034 0.53653 0.0
C1805 C 0.53364 0.51719 0.55285 0.0
C1806 C 0.5223 0.55364 0.48539 0.0
C1807 C 0.49304 0.47002 0.5429 0.0
H1808 H 0.41704 0.47128 0.48414 0.0
H1809 H 0.47301 0.45121 0.44613 0.0
H1810 H 0.45555 0.4994 0.53782 0.0
H1811 H 0.46685 0.52899 0.51786 0.0
H1812 H 0.43072 0.50222 0.51808 0.0
H1813 H 0.51988 0.47075 0.45743 0.0
H1814 H 0.53504 0.50487 0.4714 0.0
H1815 H 0.52454 0.47512 0.49097 0.0
H1816 H 0.56118 0.57865 0.52138 0.0
H1817 H 0.53688 0.50832 0.56976 0.0
H1818 H 0.50103 0.55067 0.4845 0.0
H1819 H 0.52498 0.5433 0.46864 0.0
H1820 H 0.53757 0.57626 0.48429 0.0
H1821 H 0.47105 0.46504 0.54347 0.0
H1822 H 0.49833 0.4644 0.56128 0.0
H1823 H 0.49466 0.45682 0.52811 0.0
loop_
_geom_bond_atom_site_label_1
_geom_bond_atom_site_label_2
_geom_bond_distance
_geom_bond_site_symmetry_2
_ccdc_geom_bond_type
Li0 N17 1.990 . S
Li0 O60 1.956 . S
Li0 O61 1.970 . S
Li0 O62 1.961 . S
Li1 N25 1.990 . S
Li1 O60 1.970 . S
Li1 O61 1.956 . S
Li1 O63 1.961 . S
Li2 N47 1.990 . S
Li2 O60 1.961 . S
Li2 O62 1.956 . S
Li2 O63 1.970 . S
Li3 N53 1.990 1_455 S
Li3 O61 1.961 . S
Li3 O62 1.970 . S
Li3 O63 1.956 . S
C4 C6 1.348 . S
C4 C7 1.356 . S
C4 O60 1.325 . S
N5 C8 1.314 . S
N5 C9 1.279 . S
C6 C4 1.348 . S
C6 C8 1.353 . S
C6 H64 0.929 . S
C7 C4 1.356 . S
C7 C9 1.358 . S
C7 H65 0.930 . S
C8 N5 1.314 . S
C8 C6 1.353 . S
C8 H66 0.930 . S
C9 N5 1.279 . S
C9 C7 1.358 . S
C9 H67 0.930 . S
C10 C13 1.348 . S
C10 C14 1.356 . S
C10 O61 1.325 1_655 S
C11 N12 1.279 . S
C11 C14 1.358 . S
C11 H68 0.930 . S
N12 C11 1.279 . S
N12 C15 1.314 . S
C13 C10 1.348 . S
C13 C15 1.353 . S
C13 H69 0.929 1_655 S
C14 C10 1.356 . S
C14 C11 1.358 . S
C14 H70 0.930 . S
C15 N12 1.314 . S
C15 C13 1.353 . S
C15 H71 0.930 . S
C16 N17 1.314 . S
C16 C21 1.353 . S
C16 H22 0.930 . S
N17 Li0 1.990 . S
N17 C16 1.314 . S
N17 C19 1.279 . S
C18 C19 1.358 . S
C18 C20 1.356 . S
C18 H72 0.930 . S
C19 N17 1.279 . S
C19 C18 1.358 . S
C19 H23 0.930 . S
C20 C18 1.356 . S
C20 C21 1.348 . S
C21 C16 1.353 . S
C21 C20 1.348 . S
C21 H73 0.929 . S
H22 C16 0.930 . S
H23 C19 0.930 . S
C24 N25 1.314 . S
C24 C26 1.353 . S
C24 H30 0.930 . S
N25 Li1 1.990 . S
N25 C24 1.314 . S
N25 C28 1.279 . S
C26 C24 1.353 . S
C26 C29 1.348 . S
C26 H74 0.929 . S
C27 C28 1.358 . S
C27 C29 1.356 . S
C27 H75 0.930 . S
C28 N25 1.279 . S
C28 C27 1.358 . S
C28 H31 0.930 . S
C29 C26 1.348 . S
C29 C27 1.356 . S
H30 C24 0.930 . S
H31 C28 0.930 . S
C32 C34 1.348 . S
C32 C35 1.356 . S
C32 O62 1.325 . S
N33 C36 1.314 . S
N33 C37 1.279 . S
C34 C32 1.348 . S
C34 C36 1.353 1_554 S
C34 H76 0.929 1_455 S
C35 C32 1.356 . S
C35 C37 1.358 1_554 S
C35 H77 0.930 . S
C36 N33 1.314 . S
C36 C34 1.353 1_556 S
C36 H78 0.930 1_455 S
C37 N33 1.279 . S
C37 C35 1.358 1_556 S
C37 H79 0.930 . S
C38 C39 1.348 . S
C38 C40 1.356 . S
C38 O63 1.325 . S
C39 C38 1.348 . S
C39 C41 1.353 . S
C39 H80 0.929 . S
C40 C38 1.356 . S
C40 C42 1.358 . S
C40 H81 0.930 . S
C41 C39 1.353 . S
C41 N43 1.314 . S
C41 H82 0.930 . S
C42 C40 1.358 . S
C42 N43 1.279 . S
C42 H83 0.930 . S
N43 C41 1.314 . S
N43 C42 1.279 . S
C44 C46 1.353 . S
C44 N47 1.314 . S
C44 H50 0.930 . S
C45 N47 1.279 . S
C45 C48 1.358 . S
C45 H51 0.930 . S
C46 C44 1.353 . S
C46 C49 1.348 . S
C46 H84 0.929 . S
N47 Li2 1.990 . S
N47 C44 1.314 . S
N47 C45 1.279 . S
C48 C45 1.358 . S
C48 C49 1.356 . S
C48 H85 0.930 1_554 S
C49 C46 1.348 . S
C49 C48 1.356 . S
H50 C44 0.930 . S
H51 C45 0.930 . S
C52 N53 1.314 . S
C52 C54 1.353 . S
C52 H58 0.930 . S
N53 Li3 1.990 1_655 S
N53 C52 1.314 . S
N53 C56 1.279 . S
C54 C52 1.353 . S
C54 C57 1.348 . S
C54 H86 0.929 . S
C55 C56 1.358 . S
C55 C57 1.356 . S
C55 H87 0.930 . S
C56 N53 1.279 . S
C56 C55 1.358 . S
C56 H59 0.930 . S
C57 C54 1.348 . S
C57 C55 1.356 . S
H58 C52 0.930 . S
H59 C56 0.930 . S
O60 Li0 1.956 . S
O60 Li1 1.970 . S
O60 Li2 1.961 . S
O60 C4 1.325 . S
O61 Li0 1.970 . S
O61 Li1 1.956 . S
O61 Li3 1.961 . S
O61 C10 1.325 1_455 S
O62 Li0 1.961 . S
O62 Li2 1.956 . S
O62 Li3 1.970 . S
O62 C32 1.325 . S
O63 Li1 1.961 . S
O63 Li2 1.970 . S
O63 Li3 1.956 . S
O63 C38 1.325 . S
H64 C6 0.929 . S
H65 C7 0.930 . S
H66 C8 0.930 . S
H67 C9 0.930 . S
H68 C11 0.930 . S
H69 C13 0.929 1_455 S
H70 C14 0.930 . S
H71 C15 0.930 . S
H72 C18 0.930 . S
H73 C21 0.929 . S
H74 C26 0.929 . S
H75 C27 0.930 . S
H76 C34 0.929 1_655 S
H77 C35 0.930 . S
H78 C36 0.930 1_655 S
H79 C37 0.930 . S
H80 C39 0.929 . S
H81 C40 0.930 . S
H82 C41 0.930 . S
H83 C42 0.930 . S
H84 C46 0.929 . S
H85 C48 0.930 1_556 S
H86 C54 0.929 . S
H87 C55 0.930 . S
Li88 N105 1.990 . S
Li88 O148 1.956 . S
Li88 O149 1.970 . S
Li88 O150 1.961 . S
Li89 N113 1.990 . S
Li89 O148 1.970 . S
Li89 O149 1.956 . S
Li89 O151 1.961 . S
Li90 N135 1.990 . S
Li90 O148 1.961 . S
Li90 O150 1.956 . S
Li90 O151 1.970 . S
Li91 N141 1.990 . S
Li91 O149 1.961 . S
Li91 O150 1.970 . S
Li91 O151 1.956 . S
C92 C94 1.348 . S
C92 C95 1.356 . S
C92 O148 1.325 . S
N93 C96 1.314 . S
N93 C97 1.279 . S
C94 C92 1.348 . S
C94 C96 1.353 . S
C94 H152 0.929 . S
C95 C92 1.356 . S
C95 C97 1.358 . S
C95 H153 0.930 . S
C96 N93 1.314 . S
C96 C94 1.353 . S
C96 H154 0.930 . S
C97 N93 1.279 . S
C97 C95 1.358 . S
C97 H155 0.930 . S
C98 C101 1.348 . S
C98 C102 1.356 . S
C98 O149 1.325 . S
C99 N100 1.279 . S
C99 C102 1.358 . S
C99 H156 0.930 . S
N100 C99 1.279 . S
N100 C103 1.314 . S
C101 C98 1.348 . S
C101 C103 1.353 . S
C101 H157 0.929 . S
C102 C98 1.356 . S
C102 C99 1.358 . S
C102 H158 0.930 . S
C103 N100 1.314 . S
C103 C101 1.353 . S
C103 H159 0.930 . S
C104 N105 1.314 . S
C104 C109 1.353 . S
C104 H110 0.930 . S
N105 Li88 1.990 . S
N105 C104 1.314 . S
N105 C107 1.279 . S
C106 C107 1.358 . S
C106 C108 1.356 . S
C106 H160 0.930 . S
C107 N105 1.279 . S
C107 C106 1.358 . S
C107 H111 0.930 . S
C108 C106 1.356 . S
C108 C109 1.348 . S
C109 C104 1.353 . S
C109 C108 1.348 . S
C109 H161 0.929 . S
H110 C104 0.930 . S
H111 C107 0.930 . S
C112 N113 1.314 . S
C112 C114 1.353 . S
C112 H118 0.930 . S
N113 Li89 1.990 . S
N113 C112 1.314 . S
N113 C116 1.279 . S
C114 C112 1.353 . S
C114 C117 1.348 . S
C114 H162 0.929 . S
C115 C116 1.358 . S
C115 C117 1.356 . S
C115 H163 0.930 . S
C116 N113 1.279 . S
C116 C115 1.358 . S
C116 H119 0.930 . S
C117 C114 1.348 . S
C117 C115 1.356 . S
H118 C112 0.930 . S
H119 C116 0.930 . S
C120 C122 1.348 . S
C120 C123 1.356 . S
C120 O150 1.325 . S
N121 C124 1.314 . S
N121 C125 1.279 . S
C122 C120 1.348 . S
C122 C124 1.353 . S
C122 H164 0.929 . S
C123 C120 1.356 . S
C123 C125 1.358 . S
C123 H165 0.930 . S
C124 N121 1.314 . S
C124 C122 1.353 . S
C124 H166 0.930 . S
C125 N121 1.279 . S
C125 C123 1.358 . S
C125 H167 0.930 . S
C126 C127 1.348 . S
C126 C128 1.356 . S
C126 O151 1.325 . S
C127 C126 1.348 . S
C127 C129 1.353 1_554 S
C127 H168 0.929 . S
C128 C126 1.356 . S
C128 C130 1.358 1_554 S
C128 H169 0.930 . S
C129 C127 1.353 1_556 S
C129 N131 1.314 . S
C129 H170 0.930 . S
C130 C128 1.358 1_556 S
C130 N131 1.279 . S
C130 H171 0.930 . S
N131 C129 1.314 . S
N131 C130 1.279 . S
C132 C134 1.353 . S
C132 N135 1.314 . S
C132 H138 0.930 . S
C133 N135 1.279 . S
C133 C136 1.358 . S
C133 H139 0.930 . S
C134 C132 1.353 . S
C134 C137 1.348 . S
C134 H172 0.929 . S
N135 Li90 1.990 . S
N135 C132 1.314 . S
N135 C133 1.279 . S
C136 C133 1.358 . S
C136 C137 1.356 . S
C136 H173 0.930 . S
C137 C134 1.348 . S
C137 C136 1.356 . S
H138 C132 0.930 . S
H139 C133 0.930 . S
C140 N141 1.314 . S
C140 C142 1.353 . S
C140 H146 0.930 . S
N141 Li91 1.990 . S
N141 C140 1.314 . S
N141 C144 1.279 . S
C142 C140 1.353 . S
C142 C145 1.348 . S
C142 H174 0.929 . S
C143 C144 1.358 . S
C143 C145 1.356 . S
C143 H175 0.930 1_554 S
C144 N141 1.279 . S
C144 C143 1.358 . S
C144 H147 0.930 . S
C145 C142 1.348 . S
C145 C143 1.356 . S
H146 C140 0.930 . S
H147 C144 0.930 . S
O148 Li88 1.956 . S
O148 Li89 1.970 . S
O148 Li90 1.961 . S
O148 C92 1.325 . S
O149 Li88 1.970 . S
O149 Li89 1.956 . S
O149 Li91 1.961 . S
O149 C98 1.325 . S
O150 Li88 1.961 . S
O150 Li90 1.956 . S
O150 Li91 1.970 . S
O150 C120 1.325 . S
O151 Li89 1.961 . S
O151 Li90 1.970 . S
O151 Li91 1.956 . S
O151 C126 1.325 . S
H152 C94 0.929 . S
H153 C95 0.930 . S
H154 C96 0.930 . S
H155 C97 0.930 . S
H156 C99 0.930 . S
H157 C101 0.929 . S
H158 C102 0.930 . S
H159 C103 0.930 . S
H160 C106 0.930 . S
H161 C109 0.929 . S
H162 C114 0.929 . S
H163 C115 0.930 . S
H164 C122 0.929 . S
H165 C123 0.930 . S
H166 C124 0.930 . S
H167 C125 0.930 . S
H168 C127 0.929 . S
H169 C128 0.930 . S
H170 C129 0.930 . S
H171 C130 0.930 . S
H172 C134 0.929 . S
H173 C136 0.930 . S
H174 C142 0.929 . S
H175 C143 0.930 1_556 S
Li176 N193 1.990 . S
Li176 O236 1.956 . S
Li176 O237 1.970 . S
Li176 O238 1.961 . S
Li177 N201 1.990 . S
Li177 O236 1.970 . S
Li177 O237 1.956 . S
Li177 O239 1.961 . S
Li178 N223 1.990 1_565 S
Li178 O236 1.961 . S
Li178 O238 1.956 . S
Li178 O239 1.970 . S
Li179 N229 1.990 . S
Li179 O237 1.961 . S
Li179 O238 1.970 . S
Li179 O239 1.956 . S
C180 C182 1.348 . S
C180 C183 1.356 . S
C180 O236 1.325 1_545 S
N181 C184 1.314 . S
N181 C185 1.279 . S
C182 C180 1.348 . S
C182 C184 1.353 . S
C182 H240 0.929 1_545 S
C183 C180 1.356 . S
C183 C185 1.358 . S
C183 H241 0.930 . S
C184 N181 1.314 . S
C184 C182 1.353 . S
C184 H242 0.930 . S
C185 N181 1.279 . S
C185 C183 1.358 . S
C185 H243 0.930 . S
C186 C189 1.348 . S
C186 C190 1.356 . S
C186 O237 1.325 . S
C187 N188 1.279 . S
C187 C190 1.358 . S
C187 H244 0.930 . S
N188 C187 1.279 . S
N188 C191 1.314 . S
C189 C186 1.348 . S
C189 C191 1.353 . S
C189 H245 0.929 . S
C190 C186 1.356 . S
C190 C187 1.358 . S
C190 H246 0.930 . S
C191 N188 1.314 . S
C191 C189 1.353 . S
C191 H247 0.930 . S
C192 N193 1.314 . S
C192 C197 1.353 . S
C192 H198 0.930 . S
N193 Li176 1.990 . S
N193 C192 1.314 . S
N193 C195 1.279 . S
C194 C195 1.358 . S
C194 C196 1.356 . S
C194 H248 0.930 . S
C195 N193 1.279 . S
C195 C194 1.358 . S
C195 H199 0.930 . S
C196 C194 1.356 . S
C196 C197 1.348 . S
C197 C192 1.353 . S
C197 C196 1.348 . S
C197 H249 0.929 . S
H198 C192 0.930 . S
H199 C195 0.930 . S
C200 N201 1.314 . S
C200 C202 1.353 . S
C200 H206 0.930 . S
N201 Li177 1.990 . S
N201 C200 1.314 . S
N201 C204 1.279 . S
C202 C200 1.353 . S
C202 C205 1.348 . S
C202 H250 0.929 . S
C203 C204 1.358 . S
C203 C205 1.356 . S
C203 H251 0.930 . S
C204 N201 1.279 . S
C204 C203 1.358 . S
C204 H207 0.930 . S
C205 C202 1.348 . S
C205 C203 1.356 . S
H206 C200 0.930 . S
H207 C204 0.930 . S
C208 C210 1.348 . S
C208 C211 1.356 . S
C208 O238 1.325 . S
N209 C212 1.314 . S
N209 C213 1.279 . S
C210 C208 1.348 . S
C210 C212 1.353 . S
C210 H252 0.929 . S
C211 C208 1.356 . S
C211 C213 1.358 . S
C211 H253 0.930 . S
C212 N209 1.314 . S
C212 C210 1.353 . S
C212 H254 0.930 . S
C213 N209 1.279 . S
C213 C211 1.358 . S
C213 H255 0.930 . S
C214 C215 1.348 . S
C214 C216 1.356 . S
C214 O239 1.325 . S
C215 C214 1.348 . S
C215 C217 1.353 1_554 S
C215 H256 0.929 1_565 S
C216 C214 1.356 . S
C216 C218 1.358 1_554 S
C216 H257 0.930 . S
C217 C215 1.353 1_556 S
C217 N219 1.314 . S
C217 H258 0.930 1_565 S
C218 C216 1.358 1_556 S
C218 N219 1.279 . S
C218 H259 0.930 . S
N219 C217 1.314 . S
N219 C218 1.279 . S
C220 C222 1.353 . S
C220 N223 1.314 . S
C220 H226 0.930 . S
C221 N223 1.279 . S
C221 C224 1.358 . S
C221 H227 0.930 . S
C222 C220 1.353 . S
C222 C225 1.348 . S
C222 H260 0.929 . S
N223 Li178 1.990 1_545 S
N223 C220 1.314 . S
N223 C221 1.279 . S
C224 C221 1.358 . S
C224 C225 1.356 . S
C224 H261 0.930 . S
C225 C222 1.348 . S
C225 C224 1.356 . S
H226 C220 0.930 . S
H227 C221 0.930 . S
C228 N229 1.314 . S
C228 C230 1.353 . S
C228 H234 0.930 . S
N229 Li179 1.990 . S
N229 C228 1.314 . S
N229 C232 1.279 . S
C230 C228 1.353 . S
C230 C233 1.348 . S
C230 H262 0.929 . S
C231 C232 1.358 . S
C231 C233 1.356 . S
C231 H263 0.930 1_554 S
C232 N229 1.279 . S
C232 C231 1.358 . S
C232 H235 0.930 . S
C233 C230 1.348 . S
C233 C231 1.356 . S
H234 C228 0.930 . S
H235 C232 0.930 . S
O236 Li176 1.956 . S
O236 Li177 1.970 . S
O236 Li178 1.961 . S
O236 C180 1.325 1_565 S
O237 Li176 1.970 . S
O237 Li177 1.956 . S
O237 Li179 1.961 . S
O237 C186 1.325 . S
O238 Li176 1.961 . S
O238 Li178 1.956 . S
O238 Li179 1.970 . S
O238 C208 1.325 . S
O239 Li177 1.961 . S
O239 Li178 1.970 . S
O239 Li179 1.956 . S
O239 C214 1.325 . S
H240 C182 0.929 1_565 S
H241 C183 0.930 . S
H242 C184 0.930 . S
H243 C185 0.930 . S
H244 C187 0.930 . S
H245 C189 0.929 . S
H246 C190 0.930 . S
H247 C191 0.930 . S
H248 C194 0.930 . S
H249 C197 0.929 . S
H250 C202 0.929 . S
H251 C203 0.930 . S
H252 C210 0.929 . S
H253 C211 0.930 . S
H254 C212 0.930 . S
H255 C213 0.930 . S
H256 C215 0.929 1_545 S
H257 C216 0.930 . S
H258 C217 0.930 1_545 S
H259 C218 0.930 . S
H260 C222 0.929 . S
H261 C224 0.930 . S
H262 C230 0.929 . S
H263 C231 0.930 1_556 S
Li264 N281 1.990 . S
Li264 O324 1.956 . S
Li264 O325 1.970 . S
Li264 O326 1.961 . S
Li265 N289 1.990 1_565 S
Li265 O324 1.970 . S
Li265 O325 1.956 . S
Li265 O327 1.961 . S
Li266 N311 1.990 . S
Li266 O324 1.961 . S
Li266 O326 1.956 . S
Li266 O327 1.970 . S
Li267 N317 1.990 . S
Li267 O325 1.961 . S
Li267 O326 1.970 . S
Li267 O327 1.956 . S
C268 C270 1.348 . S
C268 C271 1.356 . S
C268 O324 1.325 . S
N269 C272 1.314 . S
N269 C273 1.279 . S
C270 C268 1.348 . S
C270 C272 1.353 . S
C270 H328 0.929 1_565 S
C271 C268 1.356 . S
C271 C273 1.358 . S
C271 H329 0.930 . S
C272 N269 1.314 . S
C272 C270 1.353 . S
C272 H330 0.930 1_565 S
C273 N269 1.279 . S
C273 C271 1.358 . S
C273 H331 0.930 . S
C274 C277 1.348 . S
C274 C278 1.356 . S
C274 O325 1.325 . S
C275 N276 1.279 . S
C275 C278 1.358 . S
C275 H332 0.930 . S
N276 C275 1.279 . S
N276 C279 1.314 . S
C277 C274 1.348 . S
C277 C279 1.353 . S
C277 H333 0.929 . S
C278 C274 1.356 . S
C278 C275 1.358 . S
C278 H334 0.930 . S
C279 N276 1.314 . S
C279 C277 1.353 . S
C279 H335 0.930 . S
C280 N281 1.314 . S
C280 C285 1.353 . S
C280 H286 0.930 . S
N281 Li264 1.990 . S
N281 C280 1.314 . S
N281 C283 1.279 . S
C282 C283 1.358 . S
C282 C284 1.356 . S
C282 H336 0.930 . S
C283 N281 1.279 . S
C283 C282 1.358 . S
C283 H287 0.930 . S
C284 C282 1.356 . S
C284 C285 1.348 . S
C285 C280 1.353 . S
C285 C284 1.348 . S
C285 H337 0.929 . S
H286 C280 0.930 . S
H287 C283 0.930 . S
C288 N289 1.314 . S
C288 C290 1.353 . S
C288 H294 0.930 . S
N289 Li265 1.990 1_545 S
N289 C288 1.314 . S
N289 C292 1.279 . S
C290 C288 1.353 . S
C290 C293 1.348 . S
C290 H338 0.929 . S
C291 C292 1.358 . S
C291 C293 1.356 . S
C291 H339 0.930 . S
C292 N289 1.279 . S
C292 C291 1.358 . S
C292 H295 0.930 . S
C293 C290 1.348 . S
C293 C291 1.356 . S
H294 C288 0.930 . S
H295 C292 0.930 . S
C296 C298 1.348 . S
C296 C299 1.356 . S
C296 O326 1.325 . S
N297 C300 1.314 . S
N297 C301 1.279 . S
C298 C296 1.348 . S
C298 C300 1.353 . S
C298 H340 0.929 . S
C299 C296 1.356 . S
C299 C301 1.358 . S
C299 H341 0.930 . S
C300 N297 1.314 . S
C300 C298 1.353 . S
C300 H342 0.930 . S
C301 N297 1.279 . S
C301 C299 1.358 . S
C301 H343 0.930 . S
C302 C303 1.348 . S
C302 C304 1.356 . S
C302 O327 1.325 1_545 S
C303 C302 1.348 . S
C303 C305 1.353 . S
C303 H344 0.929 1_545 S
C304 C302 1.356 . S
C304 C306 1.358 . S
C304 H345 0.930 . S
C305 C303 1.353 . S
C305 N307 1.314 . S
C305 H346 0.930 . S
C306 C304 1.358 . S
C306 N307 1.279 . S
C306 H347 0.930 . S
N307 C305 1.314 . S
N307 C306 1.279 . S
C308 C310 1.353 . S
C308 N311 1.314 . S
C308 H314 0.930 . S
C309 N311 1.279 . S
C309 C312 1.358 . S
C309 H315 0.930 . S
C310 C308 1.353 . S
C310 C313 1.348 . S
C310 H348 0.929 . S
N311 Li266 1.990 . S
N311 C308 1.314 . S
N311 C309 1.279 . S
C312 C309 1.358 . S
C312 C313 1.356 . S
C312 H349 0.930 . S
C313 C310 1.348 . S
C313 C312 1.356 . S
H314 C308 0.930 . S
H315 C309 0.930 . S
C316 N317 1.314 . S
C316 C318 1.353 . S
C316 H322 0.930 . S
N317 Li267 1.990 . S
N317 C316 1.314 . S
N317 C320 1.279 . S
C318 C316 1.353 . S
C318 C321 1.348 . S
C318 H350 0.929 . S
C319 C320 1.358 . S
C319 C321 1.356 . S
C319 H351 0.930 . S
C320 N317 1.279 . S
C320 C319 1.358 . S
C320 H323 0.930 . S
C321 C318 1.348 . S
C321 C319 1.356 . S
H322 C316 0.930 . S
H323 C320 0.930 . S
O324 Li264 1.956 . S
O324 Li265 1.970 . S
O324 Li266 1.961 . S
O324 C268 1.325 . S
O325 Li264 1.970 . S
O325 Li265 1.956 . S
O325 Li267 1.961 . S
O325 C274 1.325 . S
O326 Li264 1.961 . S
O326 Li266 1.956 . S
O326 Li267 1.970 . S
O326 C296 1.325 . S
O327 Li265 1.961 . S
O327 Li266 1.970 . S
O327 Li267 1.956 . S
O327 C302 1.325 1_565 S
H328 C270 0.929 1_545 S
H329 C271 0.930 . S
H330 C272 0.930 1_545 S
H331 C273 0.930 . S
H332 C275 0.930 . S
H333 C277 0.929 . S
H334 C278 0.930 . S
H335 C279 0.930 . S
H336 C282 0.930 . S
H337 C285 0.929 . S
H338 C290 0.929 . S
H339 C291 0.930 . S
H340 C298 0.929 . S
H341 C299 0.930 . S
H342 C300 0.930 . S
H343 C301 0.930 . S
H344 C303 0.929 1_565 S
H345 C304 0.930 . S
H346 C305 0.930 . S
H347 C306 0.930 . S
H348 C310 0.929 . S
H349 C312 0.930 . S
H350 C318 0.929 . S
H351 C319 0.930 . S
Li352 N369 1.990 . S
Li352 O412 1.956 . S
Li352 O413 1.970 . S
Li352 O414 1.961 . S
Li353 N377 1.990 1_455 S
Li353 O412 1.970 . S
Li353 O413 1.956 . S
Li353 O415 1.961 . S
Li354 N399 1.990 . S
Li354 O412 1.961 . S
Li354 O414 1.956 . S
Li354 O415 1.970 . S
Li355 N405 1.990 . S
Li355 O413 1.961 . S
Li355 O414 1.970 . S
Li355 O415 1.956 . S
C356 C358 1.348 . S
C356 C359 1.356 . S
C356 O412 1.325 . S
N357 C360 1.314 . S
N357 C361 1.279 . S
C358 C356 1.348 . S
C358 C360 1.353 . S
C358 H416 0.929 1_455 S
C359 C356 1.356 . S
C359 C361 1.358 . S
C359 H417 0.930 . S
C360 N357 1.314 . S
C360 C358 1.353 . S
C360 H418 0.930 1_455 S
C361 N357 1.279 . S
C361 C359 1.358 . S
C361 H419 0.930 . S
C362 C365 1.348 . S
C362 C366 1.356 . S
C362 O413 1.325 . S
C363 N364 1.279 . S
C363 C366 1.358 . S
C363 H420 0.930 . S
N364 C363 1.279 . S
N364 C367 1.314 . S
C365 C362 1.348 . S
C365 C367 1.353 . S
C365 H421 0.929 . S
C366 C362 1.356 . S
C366 C363 1.358 . S
C366 H422 0.930 . S
C367 N364 1.314 . S
C367 C365 1.353 . S
C367 H423 0.930 . S
C368 N369 1.314 . S
C368 C373 1.353 . S
C368 H374 0.930 . S
N369 Li352 1.990 . S
N369 C368 1.314 . S
N369 C371 1.279 . S
C370 C371 1.358 . S
C370 C372 1.356 . S
C370 H424 0.930 . S
C371 N369 1.279 . S
C371 C370 1.358 . S
C371 H375 0.930 . S
C372 C370 1.356 . S
C372 C373 1.348 . S
C373 C368 1.353 . S
C373 C372 1.348 . S
C373 H425 0.929 . S
H374 C368 0.930 . S
H375 C371 0.930 . S
C376 N377 1.314 . S
C376 C378 1.353 . S
C376 H382 0.930 . S
N377 Li353 1.990 1_655 S
N377 C376 1.314 . S
N377 C380 1.279 . S
C378 C376 1.353 . S
C378 C381 1.348 . S
C378 H426 0.929 . S
C379 C380 1.358 . S
C379 C381 1.356 . S
C379 H427 0.930 . S
C380 N377 1.279 . S
C380 C379 1.358 . S
C380 H383 0.930 . S
C381 C378 1.348 . S
C381 C379 1.356 . S
H382 C376 0.930 . S
H383 C380 0.930 . S
C384 C386 1.348 . S
C384 C387 1.356 . S
C384 O414 1.325 . S
N385 C388 1.314 . S
N385 C389 1.279 . S
C386 C384 1.348 . S
C386 C388 1.353 . S
C386 H428 0.929 . S
C387 C384 1.356 . S
C387 C389 1.358 . S
C387 H429 0.930 . S
C388 N385 1.314 . S
C388 C386 1.353 . S
C388 H430 0.930 . S
C389 N385 1.279 . S
C389 C387 1.358 . S
C389 H431 0.930 . S
C390 C391 1.348 . S
C390 C392 1.356 . S
C390 O415 1.325 1_655 S
C391 C390 1.348 . S
C391 C393 1.353 . S
C391 H432 0.929 1_655 S
C392 C390 1.356 . S
C392 C394 1.358 . S
C392 H433 0.930 . S
C393 C391 1.353 . S
C393 N395 1.314 . S
C393 H434 0.930 . S
C394 C392 1.358 . S
C394 N395 1.279 . S
C394 H435 0.930 . S
N395 C393 1.314 . S
N395 C394 1.279 . S
C396 C398 1.353 . S
C396 N399 1.314 . S
C396 H402 0.930 . S
C397 N399 1.279 . S
C397 C400 1.358 . S
C397 H403 0.930 . S
C398 C396 1.353 . S
C398 C401 1.348 . S
C398 H436 0.929 . S
N399 Li354 1.990 . S
N399 C396 1.314 . S
N399 C397 1.279 . S
C400 C397 1.358 . S
C400 C401 1.356 . S
C400 H437 0.930 . S
C401 C398 1.348 . S
C401 C400 1.356 . S
H402 C396 0.930 . S
H403 C397 0.930 . S
C404 N405 1.314 . S
C404 C406 1.353 . S
C404 H410 0.930 . S
N405 Li355 1.990 . S
N405 C404 1.314 . S
N405 C408 1.279 . S
C406 C404 1.353 . S
C406 C409 1.348 . S
C406 H438 0.929 . S
C407 C408 1.358 . S
C407 C409 1.356 . S
C407 H439 0.930 . S
C408 N405 1.279 . S
C408 C407 1.358 . S
C408 H411 0.930 . S
C409 C406 1.348 . S
C409 C407 1.356 . S
H410 C404 0.930 . S
H411 C408 0.930 . S
O412 Li352 1.956 . S
O412 Li353 1.970 . S
O412 Li354 1.961 . S
O412 C356 1.325 . S
O413 Li352 1.970 . S
O413 Li353 1.956 . S
O413 Li355 1.961 . S
O413 C362 1.325 . S
O414 Li352 1.961 . S
O414 Li354 1.956 . S
O414 Li355 1.970 . S
O414 C384 1.325 . S
O415 Li353 1.961 . S
O415 Li354 1.970 . S
O415 Li355 1.956 . S
O415 C390 1.325 1_455 S
H416 C358 0.929 1_655 S
H417 C359 0.930 . S
H418 C360 0.930 1_655 S
H419 C361 0.930 . S
H420 C363 0.930 . S
H421 C365 0.929 . S
H422 C366 0.930 . S
H423 C367 0.930 . S
H424 C370 0.930 . S
H425 C373 0.929 . S
H426 C378 0.929 . S
H427 C379 0.930 . S
H428 C386 0.929 . S
H429 C387 0.930 . S
H430 C388 0.930 . S
H431 C389 0.930 . S
H432 C391 0.929 1_455 S
H433 C392 0.930 . S
H434 C393 0.930 . S
H435 C394 0.930 . S
H436 C398 0.929 . S
H437 C400 0.930 . S
H438 C406 0.929 . S
H439 C407 0.930 . S
Li440 N457 1.990 . S
Li440 O500 1.956 . S
Li440 O501 1.970 . S
Li440 O502 1.961 . S
Li441 N465 1.990 . S
Li441 O500 1.970 . S
Li441 O501 1.956 . S
Li441 O503 1.961 . S
Li442 N487 1.990 . S
Li442 O500 1.961 . S
Li442 O502 1.956 . S
Li442 O503 1.970 . S
Li443 N493 1.990 . S
Li443 O501 1.961 . S
Li443 O502 1.970 . S
Li443 O503 1.956 . S
C444 C446 1.348 . S
C444 C447 1.356 . S
C444 O500 1.325 . S
N445 C448 1.314 . S
N445 C449 1.279 . S
C446 C444 1.348 . S
C446 C448 1.353 . S
C446 H504 0.929 . S
C447 C444 1.356 . S
C447 C449 1.358 . S
C447 H505 0.930 . S
C448 N445 1.314 . S
C448 C446 1.353 . S
C448 H506 0.930 . S
C449 N445 1.279 . S
C449 C447 1.358 . S
C449 H507 0.930 . S
C450 C453 1.348 . S
C450 C454 1.356 . S
C450 O501 1.325 . S
C451 N452 1.279 . S
C451 C454 1.358 . S
C451 H508 0.930 . S
N452 C451 1.279 . S
N452 C455 1.314 . S
C453 C450 1.348 . S
C453 C455 1.353 . S
C453 H509 0.929 . S
C454 C450 1.356 . S
C454 C451 1.358 . S
C454 H510 0.930 . S
C455 N452 1.314 . S
C455 C453 1.353 . S
C455 H511 0.930 . S
C456 N457 1.314 . S
C456 C461 1.353 . S
C456 H462 0.930 . S
N457 Li440 1.990 . S
N457 C456 1.314 . S
N457 C459 1.279 . S
C458 C459 1.358 . S
C458 C460 1.356 . S
C458 H512 0.930 . S
C459 N457 1.279 . S
C459 C458 1.358 . S
C459 H463 0.930 . S
C460 C458 1.356 . S
C460 C461 1.348 . S
C461 C456 1.353 . S
C461 C460 1.348 . S
C461 H513 0.929 . S
H462 C456 0.930 . S
H463 C459 0.930 . S
C464 N465 1.314 . S
C464 C466 1.353 . S
C464 H470 0.930 . S
N465 Li441 1.990 . S
N465 C464 1.314 . S
N465 C468 1.279 . S
C466 C464 1.353 . S
C466 C469 1.348 . S
C466 H514 0.929 . S
C467 C468 1.358 . S
C467 C469 1.356 . S
C467 H515 0.930 . S
C468 N465 1.279 . S
C468 C467 1.358 . S
C468 H471 0.930 . S
C469 C466 1.348 . S
C469 C467 1.356 . S
H470 C464 0.930 . S
H471 C468 0.930 . S
C472 C474 1.348 . S
C472 C475 1.356 . S
C472 O502 1.325 . S
N473 C476 1.314 . S
N473 C477 1.279 . S
C474 C472 1.348 . S
C474 C476 1.353 . S
C474 H516 0.929 . S
C475 C472 1.356 . S
C475 C477 1.358 . S
C475 H517 0.930 . S
C476 N473 1.314 . S
C476 C474 1.353 . S
C476 H518 0.930 . S
C477 N473 1.279 . S
C477 C475 1.358 . S
C477 H519 0.930 . S
C478 C479 1.348 . S
C478 C480 1.356 . S
C478 O503 1.325 . S
C479 C478 1.348 . S
C479 C481 1.353 . S
C479 H520 0.929 . S
C480 C478 1.356 . S
C480 C482 1.358 . S
C480 H521 0.930 . S
C481 C479 1.353 . S
C481 N483 1.314 . S
C481 H522 0.930 . S
C482 C480 1.358 . S
C482 N483 1.279 . S
C482 H523 0.930 . S
N483 C481 1.314 . S
N483 C482 1.279 . S
C484 C486 1.353 . S
C484 N487 1.314 . S
C484 H490 0.930 . S
C485 N487 1.279 . S
C485 C488 1.358 . S
C485 H491 0.930 . S
C486 C484 1.353 . S
C486 C489 1.348 . S
C486 H524 0.929 . S
N487 Li442 1.990 . S
N487 C484 1.314 . S
N487 C485 1.279 . S
C488 C485 1.358 . S
C488 C489 1.356 . S
C488 H525 0.930 . S
C489 C486 1.348 . S
C489 C488 1.356 . S
H490 C484 0.930 . S
H491 C485 0.930 . S
C492 N493 1.314 . S
C492 C494 1.353 . S
C492 H498 0.930 . S
N493 Li443 1.990 . S
N493 C492 1.314 . S
N493 C496 1.279 . S
C494 C492 1.353 . S
C494 C497 1.348 . S
C494 H526 0.929 . S
C495 C496 1.358 . S
C495 C497 1.356 . S
C495 H527 0.930 . S
C496 N493 1.279 . S
C496 C495 1.358 . S
C496 H499 0.930 . S
C497 C494 1.348 . S
C497 C495 1.356 . S
H498 C492 0.930 . S
H499 C496 0.930 . S
O500 Li440 1.956 . S
O500 Li441 1.970 . S
O500 Li442 1.961 . S
O500 C444 1.325 . S
O501 Li440 1.970 . S
O501 Li441 1.956 . S
O501 Li443 1.961 . S
O501 C450 1.325 . S
O502 Li440 1.961 . S
O502 Li442 1.956 . S
O502 Li443 1.970 . S
O502 C472 1.325 . S
O503 Li441 1.961 . S
O503 Li442 1.970 . S
O503 Li443 1.956 . S
O503 C478 1.325 . S
H504 C446 0.929 . S
H505 C447 0.930 . S
H506 C448 0.930 . S
H507 C449 0.930 . S
H508 C451 0.930 . S
H509 C453 0.929 . S
H510 C454 0.930 . S
H511 C455 0.930 . S
H512 C458 0.930 . S
H513 C461 0.929 . S
H514 C466 0.929 . S
H515 C467 0.930 . S
H516 C474 0.929 . S
H517 C475 0.930 . S
H518 C476 0.930 . S
H519 C477 0.930 . S
H520 C479 0.929 . S
H521 C480 0.930 . S
H522 C481 0.930 . S
H523 C482 0.930 . S
H524 C486 0.929 . S
H525 C488 0.930 . S
H526 C494 0.929 . S
H527 C495 0.930 . S
Li528 N545 1.990 . S
Li528 O588 1.956 . S
Li528 O589 1.970 . S
Li528 O590 1.961 . S
Li529 N553 1.990 . S
Li529 O588 1.970 . S
Li529 O589 1.956 . S
Li529 O591 1.961 . S
Li530 N575 1.990 1_655 S
Li530 O588 1.961 . S
Li530 O590 1.956 . S
Li530 O591 1.970 . S
Li531 N581 1.990 . S
Li531 O589 1.961 . S
Li531 O590 1.970 . S
Li531 O591 1.956 . S
C532 C534 1.348 . S
C532 C535 1.356 . S
C532 O588 1.325 . S
N533 C536 1.314 . S
N533 C537 1.279 . S
C534 C532 1.348 . S
C534 C536 1.353 1_556 S
C534 H592 0.929 . S
C535 C532 1.356 . S
C535 C537 1.358 1_556 S
C535 H593 0.930 . S
C536 N533 1.314 . S
C536 C534 1.353 1_554 S
C536 H594 0.930 . S
C537 N533 1.279 . S
C537 C535 1.358 1_554 S
C537 H595 0.930 . S
C538 C541 1.348 . S
C538 C542 1.356 . S
C538 O589 1.325 . S
C539 N540 1.279 . S
C539 C542 1.358 . S
C539 H596 0.930 . S
N540 C539 1.279 . S
N540 C543 1.314 . S
C541 C538 1.348 . S
C541 C543 1.353 . S
C541 H597 0.929 . S
C542 C538 1.356 . S
C542 C539 1.358 . S
C542 H598 0.930 . S
C543 N540 1.314 . S
C543 C541 1.353 . S
C543 H599 0.930 . S
C544 N545 1.314 . S
C544 C549 1.353 . S
C544 H550 0.930 . S
N545 Li528 1.990 . S
N545 C544 1.314 . S
N545 C547 1.279 . S
C546 C547 1.358 . S
C546 C548 1.356 . S
C546 H600 0.930 1_556 S
C547 N545 1.279 . S
C547 C546 1.358 . S
C547 H551 0.930 . S
C548 C546 1.356 . S
C548 C549 1.348 . S
C549 C544 1.353 . S
C549 C548 1.348 . S
C549 H601 0.929 . S
H550 C544 0.930 . S
H551 C547 0.930 . S
C552 N553 1.314 . S
C552 C554 1.353 . S
C552 H558 0.930 1_655 S
N553 Li529 1.990 . S
N553 C552 1.314 . S
N553 C556 1.279 . S
C554 C552 1.353 . S
C554 C557 1.348 . S
C554 H602 0.929 1_655 S
C555 C556 1.358 . S
C555 C557 1.356 . S
C555 H603 0.930 . S
C556 N553 1.279 . S
C556 C555 1.358 . S
C556 H559 0.930 . S
C557 C554 1.348 . S
C557 C555 1.356 . S
H558 C552 0.930 1_455 S
H559 C556 0.930 . S
C560 C562 1.348 . S
C560 C563 1.356 . S
C560 O590 1.325 . S
N561 C564 1.314 . S
N561 C565 1.279 . S
C562 C560 1.348 . S
C562 C564 1.353 . S
C562 H604 0.929 . S
C563 C560 1.356 . S
C563 C565 1.358 . S
C563 H605 0.930 . S
C564 N561 1.314 . S
C564 C562 1.353 . S
C564 H606 0.930 . S
C565 N561 1.279 . S
C565 C563 1.358 . S
C565 H607 0.930 . S
C566 C567 1.348 . S
C566 C568 1.357 . S
C566 O591 1.325 1_455 S
C567 C566 1.348 . S
C567 C569 1.353 . S
C567 H608 0.929 . S
C568 C566 1.357 . S
C568 C570 1.355 . S
C568 H609 0.932 1_455 S
C569 C567 1.353 . S
C569 N571 1.314 . S
C569 H610 0.930 . S
C570 C568 1.355 . S
C570 N571 1.279 . S
C570 H611 0.930 . S
N571 C569 1.314 . S
N571 C570 1.279 . S
C572 C574 1.353 . S
C572 N575 1.314 . S
C572 H578 0.930 . S
C573 N575 1.279 . S
C573 C576 1.358 . S
C573 H579 0.930 . S
C574 C572 1.353 . S
C574 C577 1.348 . S
C574 H612 0.929 . S
N575 Li530 1.990 1_455 S
N575 C572 1.314 . S
N575 C573 1.279 . S
C576 C573 1.358 . S
C576 C577 1.356 . S
C576 H613 0.930 . S
C577 C574 1.348 . S
C577 C576 1.356 . S
H578 C572 0.930 . S
H579 C573 0.930 . S
C580 N581 1.314 . S
C580 C582 1.353 . S
C580 H586 0.930 . S
N581 Li531 1.990 . S
N581 C580 1.314 . S
N581 C584 1.279 . S
C582 C580 1.353 . S
C582 C585 1.348 . S
C582 H614 0.929 . S
C583 C584 1.358 . S
C583 C585 1.356 . S
C583 H615 0.930 . S
C584 N581 1.279 . S
C584 C583 1.358 . S
C584 H587 0.930 . S
C585 C582 1.348 . S
C585 C583 1.356 . S
H586 C580 0.930 . S
H587 C584 0.930 . S
O588 Li528 1.956 . S
O588 Li529 1.970 . S
O588 Li530 1.961 . S
O588 C532 1.325 . S
O589 Li528 1.970 . S
O589 Li529 1.956 . S
O589 Li531 1.961 . S
O589 C538 1.325 . S
O590 Li528 1.961 . S
O590 Li530 1.956 . S
O590 Li531 1.970 . S
O590 C560 1.325 . S
O591 Li529 1.961 . S
O591 Li530 1.970 . S
O591 Li531 1.956 . S
O591 C566 1.325 1_655 S
H592 C534 0.929 . S
H593 C535 0.930 . S
H594 C536 0.930 . S
H595 C537 0.930 . S
H596 C539 0.930 . S
H597 C541 0.929 . S
H598 C542 0.930 . S
H599 C543 0.930 . S
H600 C546 0.930 1_554 S
H601 C549 0.929 . S
H602 C554 0.929 1_455 S
H603 C555 0.930 . S
H604 C562 0.929 . S
H605 C563 0.930 . S
H606 C564 0.930 . S
H607 C565 0.930 . S
H608 C567 0.929 . S
H609 C568 0.932 1_655 S
H610 C569 0.930 . S
H611 C570 0.930 . S
H612 C574 0.929 . S
H613 C576 0.930 . S
H614 C582 0.929 . S
H615 C583 0.930 . S
Li616 N633 1.990 . S
Li616 O676 1.956 . S
Li616 O677 1.970 . S
Li616 O678 1.961 . S
Li617 N641 1.990 . S
Li617 O676 1.970 . S
Li617 O677 1.956 . S
Li617 O679 1.961 . S
Li618 N663 1.990 . S
Li618 O676 1.961 . S
Li618 O678 1.956 . S
Li618 O679 1.970 . S
Li619 N669 1.990 . S
Li619 O677 1.961 . S
Li619 O678 1.970 . S
Li619 O679 1.956 . S
C620 C622 1.348 . S
C620 C623 1.356 . S
C620 O676 1.325 . S
N621 C624 1.314 . S
N621 C625 1.279 . S
C622 C620 1.348 . S
C622 C624 1.353 . S
C622 H680 0.929 . S
C623 C620 1.356 . S
C623 C625 1.358 . S
C623 H681 0.930 . S
C624 N621 1.314 . S
C624 C622 1.353 . S
C624 H682 0.930 . S
C625 N621 1.279 . S
C625 C623 1.358 . S
C625 H683 0.930 . S
C626 C629 1.348 . S
C626 C630 1.356 . S
C626 O677 1.325 . S
C627 N628 1.279 . S
C627 C630 1.358 1_554 S
C627 H684 0.930 . S
N628 C627 1.279 . S
N628 C631 1.314 . S
C629 C626 1.348 . S
C629 C631 1.353 1_556 S
C629 H685 0.929 . S
C630 C626 1.356 . S
C630 C627 1.358 1_556 S
C630 H686 0.930 . S
C631 N628 1.314 . S
C631 C629 1.353 1_554 S
C631 H687 0.930 . S
C632 N633 1.314 . S
C632 C637 1.353 . S
C632 H638 0.930 . S
N633 Li616 1.990 . S
N633 C632 1.314 . S
N633 C635 1.279 . S
C634 C635 1.358 . S
C634 C636 1.356 . S
C634 H688 0.930 . S
C635 N633 1.279 . S
C635 C634 1.358 . S
C635 H639 0.930 . S
C636 C634 1.356 . S
C636 C637 1.348 . S
C637 C632 1.353 . S
C637 C636 1.348 . S
C637 H689 0.929 . S
H638 C632 0.930 . S
H639 C635 0.930 . S
C640 N641 1.314 . S
C640 C642 1.353 . S
C640 H646 0.930 . S
N641 Li617 1.990 . S
N641 C640 1.314 . S
N641 C644 1.279 . S
C642 C640 1.353 . S
C642 C645 1.348 . S
C642 H690 0.929 . S
C643 C644 1.358 . S
C643 C645 1.356 . S
C643 H691 0.930 . S
C644 N641 1.279 . S
C644 C643 1.358 . S
C644 H647 0.930 . S
C645 C642 1.348 . S
C645 C643 1.356 . S
H646 C640 0.930 . S
H647 C644 0.930 . S
C648 C650 1.348 . S
C648 C651 1.356 . S
C648 O678 1.325 . S
N649 C652 1.314 . S
N649 C653 1.279 . S
C650 C648 1.348 . S
C650 C652 1.353 . S
C650 H692 0.929 . S
C651 C648 1.356 . S
C651 C653 1.358 . S
C651 H693 0.930 . S
C652 N649 1.314 . S
C652 C650 1.353 . S
C652 H694 0.930 . S
C653 N649 1.279 . S
C653 C651 1.358 . S
C653 H695 0.930 . S
C654 C655 1.348 . S
C654 C656 1.356 . S
C654 O679 1.325 . S
C655 C654 1.348 . S
C655 C657 1.353 . S
C655 H696 0.929 . S
C656 C654 1.356 . S
C656 C658 1.358 . S
C656 H697 0.930 . S
C657 C655 1.353 . S
C657 N659 1.314 . S
C657 H698 0.930 . S
C658 C656 1.358 . S
C658 N659 1.279 . S
C658 H699 0.930 . S
N659 C657 1.314 . S
N659 C658 1.279 . S
C660 C662 1.353 . S
C660 N663 1.314 . S
C660 H666 0.930 . S
C661 N663 1.279 . S
C661 C664 1.358 . S
C661 H667 0.930 . S
C662 C660 1.353 . S
C662 C665 1.348 . S
C662 H700 0.929 . S
N663 Li618 1.990 . S
N663 C660 1.314 . S
N663 C661 1.279 . S
C664 C661 1.358 . S
C664 C665 1.356 . S
C664 H701 0.930 . S
C665 C662 1.348 . S
C665 C664 1.356 . S
H666 C660 0.930 . S
H667 C661 0.930 . S
C668 N669 1.314 . S
C668 C670 1.353 . S
C668 H674 0.930 . S
N669 Li619 1.990 . S
N669 C668 1.314 . S
N669 C672 1.279 . S
C670 C668 1.353 . S
C670 C673 1.348 . S
C670 H702 0.929 1_556 S
C671 C672 1.358 . S
C671 C673 1.356 . S
C671 H703 0.930 . S
C672 N669 1.279 . S
C672 C671 1.358 . S
C672 H675 0.930 . S
C673 C670 1.348 . S
C673 C671 1.356 . S
H674 C668 0.930 . S
H675 C672 0.930 . S
O676 Li616 1.956 . S
O676 Li617 1.970 . S
O676 Li618 1.961 . S
O676 C620 1.325 . S
O677 Li616 1.970 . S
O677 Li617 1.956 . S
O677 Li619 1.961 . S
O677 C626 1.325 . S
O678 Li616 1.961 . S
O678 Li618 1.956 . S
O678 Li619 1.970 . S
O678 C648 1.325 . S
O679 Li617 1.961 . S
O679 Li618 1.970 . S
O679 Li619 1.956 . S
O679 C654 1.325 . S
H680 C622 0.929 . S
H681 C623 0.930 . S
H682 C624 0.930 . S
H683 C625 0.930 . S
H684 C627 0.930 . S
H685 C629 0.929 . S
H686 C630 0.930 . S
H687 C631 0.930 . S
H688 C634 0.930 . S
H689 C637 0.929 . S
H690 C642 0.929 . S
H691 C643 0.930 . S
H692 C650 0.929 . S
H693 C651 0.930 . S
H694 C652 0.930 . S
H695 C653 0.930 . S
H696 C655 0.929 . S
H697 C656 0.930 . S
H698 C657 0.930 . S
H699 C658 0.930 . S
H700 C662 0.929 . S
H701 C664 0.930 . S
H702 C670 0.929 1_554 S
H703 C671 0.930 . S
Li704 N721 1.990 . S
Li704 O764 1.956 . S
Li704 O765 1.970 . S
Li704 O766 1.961 . S
Li705 N729 1.990 . S
Li705 O764 1.970 . S
Li705 O765 1.956 . S
Li705 O767 1.961 . S
Li706 N751 1.990 1_545 S
Li706 O764 1.961 . S
Li706 O766 1.956 . S
Li706 O767 1.970 . S
Li707 N757 1.990 . S
Li707 O765 1.961 . S
Li707 O766 1.970 . S
Li707 O767 1.956 . S
C708 C710 1.348 . S
C708 C711 1.356 . S
C708 O764 1.325 . S
N709 C712 1.314 . S
N709 C713 1.279 . S
C710 C708 1.348 . S
C710 C712 1.353 . S
C710 H768 0.929 . S
C711 C708 1.356 . S
C711 C713 1.358 . S
C711 H769 0.930 . S
C712 N709 1.314 . S
C712 C710 1.353 . S
C712 H770 0.930 . S
C713 N709 1.279 . S
C713 C711 1.358 . S
C713 H771 0.930 . S
C714 C717 1.348 . S
C714 C718 1.356 . S
C714 O765 1.325 . S
C715 N716 1.279 . S
C715 C718 1.358 . S
C715 H772 0.930 . S
N716 C715 1.279 . S
N716 C719 1.314 . S
C717 C714 1.348 . S
C717 C719 1.353 . S
C717 H773 0.929 . S
C718 C714 1.356 . S
C718 C715 1.358 . S
C718 H774 0.930 . S
C719 N716 1.314 . S
C719 C717 1.353 . S
C719 H775 0.930 . S
C720 N721 1.314 . S
C720 C725 1.353 . S
C720 H726 0.930 . S
N721 Li704 1.990 . S
N721 C720 1.314 . S
N721 C723 1.279 . S
C722 C723 1.358 . S
C722 C724 1.356 . S
C722 H776 0.930 . S
C723 N721 1.279 . S
C723 C722 1.358 . S
C723 H727 0.930 . S
C724 C722 1.356 . S
C724 C725 1.348 . S
C725 C720 1.353 . S
C725 C724 1.348 . S
C725 H777 0.929 . S
H726 C720 0.930 . S
H727 C723 0.930 . S
C728 N729 1.314 . S
C728 C730 1.353 . S
C728 H734 0.930 . S
N729 Li705 1.990 . S
N729 C728 1.314 . S
N729 C732 1.279 . S
C730 C728 1.353 . S
C730 C733 1.348 . S
C730 H778 0.929 1_556 S
C731 C732 1.358 . S
C731 C733 1.356 . S
C731 H779 0.930 . S
C732 N729 1.279 . S
C732 C731 1.358 . S
C732 H735 0.930 . S
C733 C730 1.348 . S
C733 C731 1.356 . S
H734 C728 0.930 . S
H735 C732 0.930 . S
C736 C738 1.348 . S
C736 C739 1.356 . S
C736 O766 1.325 1_565 S
N737 C740 1.314 . S
N737 C741 1.279 . S
C738 C736 1.348 . S
C738 C740 1.353 . S
C738 H780 0.929 . S
C739 C736 1.356 . S
C739 C741 1.358 . S
C739 H781 0.930 . S
C740 N737 1.314 . S
C740 C738 1.353 . S
C740 H782 0.930 . S
C741 N737 1.279 . S
C741 C739 1.358 . S
C741 H783 0.930 . S
C742 C743 1.346 1_545 S
C742 C744 1.356 . S
C742 O767 1.325 . S
C743 C742 1.346 1_565 S
C743 C745 1.353 1_556 S
C743 H784 0.931 . S
C744 C742 1.356 . S
C744 C746 1.358 1_556 S
C744 H785 0.930 . S
C745 C743 1.353 1_554 S
C745 N747 1.314 1_565 S
C745 H786 0.930 . S
C746 C744 1.358 1_554 S
C746 N747 1.279 . S
C746 H787 0.930 . S
N747 C745 1.314 1_545 S
N747 C746 1.279 . S
C748 C750 1.353 . S
C748 N751 1.314 . S
C748 H754 0.930 . S
C749 N751 1.279 . S
C749 C752 1.358 . S
C749 H755 0.930 . S
C750 C748 1.353 . S
C750 C753 1.348 . S
C750 H788 0.929 . S
N751 Li706 1.990 1_565 S
N751 C748 1.314 . S
N751 C749 1.279 . S
C752 C749 1.358 . S
C752 C753 1.356 . S
C752 H789 0.930 . S
C753 C750 1.348 . S
C753 C752 1.356 . S
H754 C748 0.930 . S
H755 C749 0.930 . S
C756 N757 1.314 . S
C756 C758 1.353 . S
C756 H762 0.930 . S
N757 Li707 1.990 . S
N757 C756 1.314 . S
N757 C760 1.279 . S
C758 C756 1.353 . S
C758 C761 1.348 . S
C758 H790 0.929 . S
C759 C760 1.358 . S
C759 C761 1.356 . S
C759 H791 0.930 . S
C760 N757 1.279 . S
C760 C759 1.358 . S
C760 H763 0.930 . S
C761 C758 1.348 . S
C761 C759 1.356 . S
H762 C756 0.930 . S
H763 C760 0.930 . S
O764 Li704 1.956 . S
O764 Li705 1.970 . S
O764 Li706 1.961 . S
O764 C708 1.325 . S
O765 Li704 1.970 . S
O765 Li705 1.956 . S
O765 Li707 1.961 . S
O765 C714 1.325 . S
O766 Li704 1.961 . S
O766 Li706 1.956 . S
O766 Li707 1.970 . S
O766 C736 1.325 1_545 S
O767 Li705 1.961 . S
O767 Li706 1.970 . S
O767 Li707 1.956 . S
O767 C742 1.325 . S
H768 C710 0.929 . S
H769 C711 0.930 . S
H770 C712 0.930 . S
H771 C713 0.930 . S
H772 C715 0.930 . S
H773 C717 0.929 . S
H774 C718 0.930 . S
H775 C719 0.930 . S
H776 C722 0.930 . S
H777 C725 0.929 . S
H778 C730 0.929 1_554 S
H779 C731 0.930 . S
H780 C738 0.929 . S
H781 C739 0.930 . S
H782 C740 0.930 . S
H783 C741 0.930 . S
H784 C743 0.931 . S
H785 C744 0.930 . S
H786 C745 0.930 . S
H787 C746 0.930 . S
H788 C750 0.929 . S
H789 C752 0.930 . S
H790 C758 0.929 . S
H791 C759 0.930 . S
Li792 N809 1.990 . S
Li792 O852 1.956 . S
Li792 O853 1.970 . S
Li792 O854 1.961 . S
Li793 N817 1.990 . S
Li793 O852 1.970 . S
Li793 O853 1.956 . S
Li793 O855 1.961 . S
Li794 N839 1.990 . S
Li794 O852 1.961 . S
Li794 O854 1.956 . S
Li794 O855 1.970 . S
Li795 N845 1.990 1_545 S
Li795 O853 1.961 . S
Li795 O854 1.970 . S
Li795 O855 1.956 . S
C796 C798 1.348 . S
C796 C799 1.356 . S
C796 O852 1.325 . S
N797 C800 1.314 . S
N797 C801 1.279 . S
C798 C796 1.348 . S
C798 C800 1.353 . S
C798 H856 0.929 . S
C799 C796 1.356 . S
C799 C801 1.358 . S
C799 H857 0.930 . S
C800 N797 1.314 . S
C800 C798 1.353 . S
C800 H858 0.930 . S
C801 N797 1.279 . S
C801 C799 1.358 . S
C801 H859 0.930 . S
C802 C805 1.348 . S
C802 C806 1.356 . S
C802 O853 1.325 . S
C803 N804 1.279 . S
C803 C806 1.358 . S
C803 H860 0.930 . S
N804 C803 1.279 . S
N804 C807 1.314 . S
C805 C802 1.348 . S
C805 C807 1.353 . S
C805 H861 0.929 . S
C806 C802 1.356 . S
C806 C803 1.358 . S
C806 H862 0.930 . S
C807 N804 1.314 . S
C807 C805 1.353 . S
C807 H863 0.930 . S
C808 N809 1.314 . S
C808 C813 1.353 . S
C808 H814 0.930 . S
N809 Li792 1.990 . S
N809 C808 1.314 . S
N809 C811 1.279 . S
C810 C811 1.358 . S
C810 C812 1.356 . S
C810 H864 0.930 . S
C811 N809 1.279 . S
C811 C810 1.358 . S
C811 H815 0.930 . S
C812 C810 1.356 . S
C812 C813 1.348 . S
C813 C808 1.353 . S
C813 C812 1.348 . S
C813 H865 0.929 . S
H814 C808 0.930 . S
H815 C811 0.930 . S
C816 N817 1.314 . S
C816 C818 1.353 . S
C816 H822 0.930 . S
N817 Li793 1.990 . S
N817 C816 1.314 . S
N817 C820 1.279 . S
C818 C816 1.353 . S
C818 C821 1.348 . S
C818 H866 0.929 . S
C819 C820 1.358 . S
C819 C821 1.356 . S
C819 H867 0.930 . S
C820 N817 1.279 . S
C820 C819 1.358 . S
C820 H823 0.930 . S
C821 C818 1.348 . S
C821 C819 1.356 . S
H822 C816 0.930 . S
H823 C820 0.930 . S
C824 C826 1.347 1_545 S
C824 C827 1.356 . S
C824 O854 1.325 . S
N825 C828 1.314 1_545 S
N825 C829 1.279 . S
C826 C824 1.347 1_565 S
C826 C828 1.353 . S
C826 H868 0.930 . S
C827 C824 1.356 . S
C827 C829 1.358 . S
C827 H869 0.930 . S
C828 N825 1.314 1_565 S
C828 C826 1.353 . S
C828 H870 0.930 . S
C829 N825 1.279 . S
C829 C827 1.358 . S
C829 H871 0.930 . S
C830 C831 1.348 . S
C830 C832 1.356 . S
C830 O855 1.325 1_565 S
C831 C830 1.348 . S
C831 C833 1.353 . S
C831 H872 0.929 . S
C832 C830 1.356 . S
C832 C834 1.358 . S
C832 H873 0.930 . S
C833 C831 1.353 . S
C833 N835 1.314 . S
C833 H874 0.930 . S
C834 C832 1.358 . S
C834 N835 1.279 . S
C834 H875 0.930 . S
N835 C833 1.314 . S
N835 C834 1.279 . S
C836 C838 1.353 . S
C836 N839 1.314 . S
C836 H842 0.930 . S
C837 N839 1.279 . S
C837 C840 1.358 . S
C837 H843 0.930 . S
C838 C836 1.353 . S
C838 C841 1.348 . S
C838 H876 0.929 . S
N839 Li794 1.990 . S
N839 C836 1.314 . S
N839 C837 1.279 . S
C840 C837 1.358 . S
C840 C841 1.356 . S
C840 H877 0.930 . S
C841 C838 1.348 . S
C841 C840 1.356 . S
H842 C836 0.930 . S
H843 C837 0.930 . S
C844 N845 1.314 . S
C844 C846 1.353 . S
C844 H850 0.930 . S
N845 Li795 1.990 1_565 S
N845 C844 1.314 . S
N845 C848 1.279 . S
C846 C844 1.353 . S
C846 C849 1.348 . S
C846 H878 0.929 . S
C847 C848 1.358 . S
C847 C849 1.356 . S
C847 H879 0.930 . S
C848 N845 1.279 . S
C848 C847 1.358 . S
C848 H851 0.930 . S
C849 C846 1.348 . S
C849 C847 1.356 . S
H850 C844 0.930 . S
H851 C848 0.930 . S
O852 Li792 1.956 . S
O852 Li793 1.970 . S
O852 Li794 1.961 . S
O852 C796 1.325 . S
O853 Li792 1.970 . S
O853 Li793 1.956 . S
O853 Li795 1.961 . S
O853 C802 1.325 . S
O854 Li792 1.961 . S
O854 Li794 1.956 . S
O854 Li795 1.970 . S
O854 C824 1.325 . S
O855 Li793 1.961 . S
O855 Li794 1.970 . S
O855 Li795 1.956 . S
O855 C830 1.325 1_545 S
H856 C798 0.929 . S
H857 C799 0.930 . S
H858 C800 0.930 . S
H859 C801 0.930 . S
H860 C803 0.930 . S
H861 C805 0.929 . S
H862 C806 0.930 . S
H863 C807 0.930 . S
H864 C810 0.930 . S
H865 C813 0.929 . S
H866 C818 0.929 . S
H867 C819 0.930 . S
H868 C826 0.930 . S
H869 C827 0.930 . S
H870 C828 0.930 . S
H871 C829 0.930 . S
H872 C831 0.929 . S
H873 C832 0.930 . S
H874 C833 0.930 . S
H875 C834 0.930 . S
H876 C838 0.929 . S
H877 C840 0.930 . S
H878 C846 0.929 . S
H879 C847 0.930 . S
Li880 N897 1.990 1_655 S
Li880 O940 1.956 . S
Li880 O941 1.970 . S
Li880 O942 1.961 . S
Li881 N905 1.990 . S
Li881 O940 1.970 . S
Li881 O941 1.956 . S
Li881 O943 1.961 . S
Li882 N927 1.990 . S
Li882 O940 1.961 . S
Li882 O942 1.956 . S
Li882 O943 1.970 . S
Li883 N933 1.990 . S
Li883 O941 1.961 . S
Li883 O942 1.970 . S
Li883 O943 1.956 . S
C884 C886 1.348 . S
C884 C887 1.356 . S
C884 O940 1.325 1_455 S
N885 C888 1.314 . S
N885 C889 1.279 . S
C886 C884 1.348 . S
C886 C888 1.353 . S
C886 H944 0.929 . S
C887 C884 1.356 . S
C887 C889 1.358 . S
C887 H945 0.930 . S
C888 N885 1.314 . S
C888 C886 1.353 . S
C888 H946 0.930 . S
C889 N885 1.279 . S
C889 C887 1.358 . S
C889 H947 0.930 . S
C890 C893 1.338 1_655 S
C890 C894 1.356 . S
C890 O941 1.325 . S
C891 N892 1.279 . S
C891 C894 1.358 . S
C891 H948 0.930 . S
N892 C891 1.279 . S
N892 C895 1.314 1_655 S
C893 C890 1.338 1_455 S
C893 C895 1.354 . S
C893 H949 0.938 . S
C894 C890 1.356 . S
C894 C891 1.358 . S
C894 H950 0.930 . S
C895 N892 1.314 1_455 S
C895 C893 1.354 . S
C895 H951 0.930 . S
C896 N897 1.314 . S
C896 C901 1.353 . S
C896 H902 0.930 . S
N897 Li880 1.990 1_455 S
N897 C896 1.314 . S
N897 C899 1.279 . S
C898 C899 1.358 . S
C898 C900 1.356 . S
C898 H952 0.930 . S
C899 N897 1.279 . S
C899 C898 1.358 . S
C899 H903 0.930 . S
C900 C898 1.356 . S
C900 C901 1.348 . S
C901 C896 1.353 . S
C901 C900 1.348 . S
C901 H953 0.929 . S
H902 C896 0.930 . S
H903 C899 0.930 . S
C904 N905 1.314 . S
C904 C906 1.353 . S
C904 H910 0.930 . S
N905 Li881 1.990 . S
N905 C904 1.314 . S
N905 C908 1.279 . S
C906 C904 1.353 . S
C906 C909 1.348 . S
C906 H954 0.929 . S
C907 C908 1.358 . S
C907 C909 1.356 . S
C907 H955 0.930 . S
C908 N905 1.279 . S
C908 C907 1.358 . S
C908 H911 0.930 . S
C909 C906 1.348 . S
C909 C907 1.356 . S
H910 C904 0.930 . S
H911 C908 0.930 . S
C912 C914 1.348 . S
C912 C915 1.356 . S
C912 O942 1.325 . S
N913 C916 1.314 . S
N913 C917 1.279 . S
C914 C912 1.348 . S
C914 C916 1.353 . S
C914 H956 0.929 . S
C915 C912 1.356 . S
C915 C917 1.358 . S
C915 H957 0.930 . S
C916 N913 1.314 . S
C916 C914 1.353 . S
C916 H958 0.930 . S
C917 N913 1.279 . S
C917 C915 1.358 . S
C917 H959 0.930 . S
C918 C919 1.348 . S
C918 C920 1.356 . S
C918 O943 1.325 . S
C919 C918 1.348 . S
C919 C921 1.353 . S
C919 H960 0.929 . S
C920 C918 1.356 . S
C920 C922 1.358 . S
C920 H961 0.930 . S
C921 C919 1.353 . S
C921 N923 1.314 . S
C921 H962 0.930 . S
C922 C920 1.358 . S
C922 N923 1.279 . S
C922 H963 0.930 . S
N923 C921 1.314 . S
N923 C922 1.279 . S
C924 C926 1.353 . S
C924 N927 1.314 . S
C924 H930 0.930 . S
C925 N927 1.279 . S
C925 C928 1.358 . S
C925 H931 0.930 . S
C926 C924 1.353 . S
C926 C929 1.348 . S
C926 H964 0.929 . S
N927 Li882 1.990 . S
N927 C924 1.314 . S
N927 C925 1.279 . S
C928 C925 1.358 . S
C928 C929 1.356 . S
C928 H965 0.930 . S
C929 C926 1.348 . S
C929 C928 1.356 . S
H930 C924 0.930 . S
H931 C925 0.930 . S
C932 N933 1.314 . S
C932 C934 1.353 . S
C932 H938 0.930 . S
N933 Li883 1.990 . S
N933 C932 1.314 . S
N933 C936 1.279 . S
C934 C932 1.353 . S
C934 C937 1.348 . S
C934 H966 0.929 . S
C935 C936 1.358 . S
C935 C937 1.356 . S
C935 H967 0.930 . S
C936 N933 1.279 . S
C936 C935 1.358 . S
C936 H939 0.930 . S
C937 C934 1.348 . S
C937 C935 1.356 . S
H938 C932 0.930 . S
H939 C936 0.930 . S
O940 Li880 1.956 . S
O940 Li881 1.970 . S
O940 Li882 1.961 . S
O940 C884 1.325 1_655 S
O941 Li880 1.970 . S
O941 Li881 1.956 . S
O941 Li883 1.961 . S
O941 C890 1.325 . S
O942 Li880 1.961 . S
O942 Li882 1.956 . S
O942 Li883 1.970 . S
O942 C912 1.325 . S
O943 Li881 1.961 . S
O943 Li882 1.970 . S
O943 Li883 1.956 . S
O943 C918 1.325 . S
H944 C886 0.929 . S
H945 C887 0.930 . S
H946 C888 0.930 . S
H947 C889 0.930 . S
H948 C891 0.930 . S
H949 C893 0.938 . S
H950 C894 0.930 . S
H951 C895 0.930 . S
H952 C898 0.930 . S
H953 C901 0.929 . S
H954 C906 0.929 . S
H955 C907 0.930 . S
H956 C914 0.929 . S
H957 C915 0.930 . S
H958 C916 0.930 . S
H959 C917 0.930 . S
H960 C919 0.929 . S
H961 C920 0.930 . S
H962 C921 0.930 . S
H963 C922 0.930 . S
H964 C926 0.929 . S
H965 C928 0.930 . S
H966 C934 0.929 . S
H967 C935 0.930 . S
Li968 N985 1.990 . S
Li968 O1028 1.956 . S
Li968 O1029 1.970 . S
Li968 O1030 1.961 . S
Li969 N993 1.990 . S
Li969 O1028 1.970 . S
Li969 O1029 1.956 . S
Li969 O1031 1.961 . S
Li970 N1015 1.990 . S
Li970 O1028 1.961 . S
Li970 O1030 1.956 . S
Li970 O1031 1.970 . S
Li971 N1021 1.990 . S
Li971 O1029 1.961 . S
Li971 O1030 1.970 . S
Li971 O1031 1.956 . S
C972 C974 1.348 . S
C972 C975 1.356 . S
C972 O1028 1.325 . S
N973 C976 1.314 . S
N973 C977 1.279 . S
C974 C972 1.348 . S
C974 C976 1.353 . S
C974 H1032 0.929 . S
C975 C972 1.356 . S
C975 C977 1.358 . S
C975 H1033 0.930 . S
C976 N973 1.314 . S
C976 C974 1.353 . S
C976 H1034 0.930 . S
C977 N973 1.279 . S
C977 C975 1.358 . S
C977 H1035 0.930 . S
C978 C981 1.348 . S
C978 C982 1.356 . S
C978 O1029 1.325 . S
C979 N980 1.279 . S
C979 C982 1.358 . S
C979 H1036 0.930 . S
N980 C979 1.279 . S
N980 C983 1.314 . S
C981 C978 1.348 . S
C981 C983 1.353 . S
C981 H1037 0.929 . S
C982 C978 1.356 . S
C982 C979 1.358 . S
C982 H1038 0.930 . S
C983 N980 1.314 . S
C983 C981 1.353 . S
C983 H1039 0.930 . S
C984 N985 1.314 . S
C984 C989 1.353 . S
C984 H990 0.930 . S
N985 Li968 1.990 . S
N985 C984 1.314 . S
N985 C987 1.279 . S
C986 C987 1.358 . S
C986 C988 1.356 . S
C986 H1040 0.930 . S
C987 N985 1.279 . S
C987 C986 1.358 . S
C987 H991 0.930 . S
C988 C986 1.356 . S
C988 C989 1.348 . S
C989 C984 1.353 . S
C989 C988 1.348 . S
C989 H1041 0.929 . S
H990 C984 0.930 . S
H991 C987 0.930 . S
C992 N993 1.314 . S
C992 C994 1.353 . S
C992 H998 0.930 . S
N993 Li969 1.990 . S
N993 C992 1.314 . S
N993 C996 1.279 . S
C994 C992 1.353 . S
C994 C997 1.348 . S
C994 H1042 0.929 . S
C995 C996 1.358 . S
C995 C997 1.356 . S
C995 H1043 0.930 . S
C996 N993 1.279 . S
C996 C995 1.358 . S
C996 H999 0.930 . S
C997 C994 1.348 . S
C997 C995 1.356 . S
H998 C992 0.930 . S
H999 C996 0.930 . S
C1000 C1002 1.348 . S
C1000 C1003 1.356 . S
C1000 O1030 1.325 . S
N1001 C1004 1.314 . S
N1001 C1005 1.279 . S
C1002 C1000 1.348 . S
C1002 C1004 1.353 . S
C1002 H1044 0.929 . S
C1003 C1000 1.356 . S
C1003 C1005 1.358 . S
C1003 H1045 0.930 . S
C1004 N1001 1.314 . S
C1004 C1002 1.353 . S
C1004 H1046 0.930 . S
C1005 N1001 1.279 . S
C1005 C1003 1.358 . S
C1005 H1047 0.930 . S
C1006 C1007 1.348 . S
C1006 C1008 1.356 . S
C1006 O1031 1.325 . S
C1007 C1006 1.348 . S
C1007 C1009 1.353 . S
C1007 H1048 0.929 . S
C1008 C1006 1.356 . S
C1008 C1010 1.358 . S
C1008 H1049 0.930 . S
C1009 C1007 1.353 . S
C1009 N1011 1.314 . S
C1009 H1050 0.930 . S
C1010 C1008 1.358 . S
C1010 N1011 1.279 . S
C1010 H1051 0.930 . S
N1011 C1009 1.314 . S
N1011 C1010 1.279 . S
C1012 C1014 1.353 . S
C1012 N1015 1.314 . S
C1012 H1018 0.930 . S
C1013 N1015 1.279 . S
C1013 C1016 1.358 . S
C1013 H1019 0.930 . S
C1014 C1012 1.353 . S
C1014 C1017 1.348 . S
C1014 H1052 0.929 . S
N1015 Li970 1.990 . S
N1015 C1012 1.314 . S
N1015 C1013 1.279 . S
C1016 C1013 1.358 . S
C1016 C1017 1.356 . S
C1016 H1053 0.930 . S
C1017 C1014 1.348 . S
C1017 C1016 1.356 . S
H1018 C1012 0.930 . S
H1019 C1013 0.930 . S
C1020 N1021 1.314 . S
C1020 C1022 1.353 . S
C1020 H1026 0.930 . S
N1021 Li971 1.990 . S
N1021 C1020 1.314 . S
N1021 C1024 1.279 . S
C1022 C1020 1.353 . S
C1022 C1025 1.348 . S
C1022 H1054 0.929 . S
C1023 C1024 1.358 . S
C1023 C1025 1.356 . S
C1023 H1055 0.930 . S
C1024 N1021 1.279 . S
C1024 C1023 1.358 . S
C1024 H1027 0.930 . S
C1025 C1022 1.348 . S
C1025 C1023 1.356 . S
H1026 C1020 0.930 . S
H1027 C1024 0.930 . S
O1028 Li968 1.956 . S
O1028 Li969 1.970 . S
O1028 Li970 1.961 . S
O1028 C972 1.325 . S
O1029 Li968 1.970 . S
O1029 Li969 1.956 . S
O1029 Li971 1.961 . S
O1029 C978 1.325 . S
O1030 Li968 1.961 . S
O1030 Li970 1.956 . S
O1030 Li971 1.970 . S
O1030 C1000 1.325 . S
O1031 Li969 1.961 . S
O1031 Li970 1.970 . S
O1031 Li971 1.956 . S
O1031 C1006 1.325 . S
H1032 C974 0.929 . S
H1033 C975 0.930 . S
H1034 C976 0.930 . S
H1035 C977 0.930 . S
H1036 C979 0.930 . S
H1037 C981 0.929 . S
H1038 C982 0.930 . S
H1039 C983 0.930 . S
H1040 C986 0.930 . S
H1041 C989 0.929 . S
H1042 C994 0.929 . S
H1043 C995 0.930 . S
H1044 C1002 0.929 . S
H1045 C1003 0.930 . S
H1046 C1004 0.930 . S
H1047 C1005 0.930 . S
H1048 C1007 0.929 . S
H1049 C1008 0.930 . S
H1050 C1009 0.930 . S
H1051 C1010 0.930 . S
H1052 C1014 0.929 . S
H1053 C1016 0.930 . S
H1054 C1022 0.929 . S
H1055 C1023 0.930 . S
C1056 C1057 1.391 1_556 S
C1056 C1058 1.394 . S
C1056 H1072 0.931 . S
C1057 C1056 1.391 1_554 S
C1057 C1061 1.376 . S
C1058 C1056 1.394 . S
C1058 C1059 1.369 . S
C1058 C1062 1.531 . S
C1059 C1058 1.369 . S
C1059 C1060 1.410 1_556 S
C1059 C1067 1.503 . S
C1060 C1059 1.410 1_554 S
C1060 C1061 1.392 . S
C1060 C1063 1.511 . S
C1061 C1057 1.376 . S
C1061 C1060 1.392 . S
C1061 H1073 0.929 . S
C1062 C1058 1.531 . S
C1062 H1074 0.960 . S
C1062 H1075 0.962 . S
C1062 H1076 0.960 . S
C1063 C1060 1.511 . S
C1063 H1077 0.961 . S
C1063 H1078 0.961 . S
C1063 H1079 0.961 . S
C1064 C1065 1.370 . S
C1064 C1066 1.363 . S
C1064 H1080 0.931 . S
C1065 C1064 1.370 . S
C1065 C1069 1.408 . S
C1066 C1064 1.363 . S
C1066 C1067 1.370 . S
C1066 C1070 1.524 . S
C1067 C1059 1.503 . S
C1067 C1066 1.370 . S
C1067 C1068 1.403 . S
C1068 C1067 1.403 . S
C1068 C1069 1.404 . S
C1068 C1071 1.539 . S
C1069 C1065 1.408 . S
C1069 C1068 1.404 . S
C1069 H1081 0.930 . S
C1070 C1066 1.524 . S
C1070 H1082 0.956 . S
C1070 H1083 0.961 1_556 S
C1070 H1084 0.961 . S
C1071 C1068 1.539 . S
C1071 H1085 0.958 . S
C1071 H1086 0.961 . S
C1071 H1087 0.960 . S
H1072 C1056 0.931 . S
H1073 C1061 0.929 . S
H1074 C1062 0.960 . S
H1075 C1062 0.962 . S
H1076 C1062 0.960 . S
H1077 C1063 0.961 . S
H1078 C1063 0.961 . S
H1079 C1063 0.961 . S
H1080 C1064 0.931 . S
H1081 C1069 0.930 . S
H1082 C1070 0.956 . S
H1083 C1070 0.961 1_554 S
H1084 C1070 0.961 . S
H1085 C1071 0.958 . S
H1086 C1071 0.961 . S
H1087 C1071 0.960 . S
C1088 C1089 1.391 . S
C1088 C1090 1.394 1_554 S
C1088 H1104 0.931 . S
C1089 C1088 1.391 . S
C1089 C1093 1.376 1_554 S
C1090 C1088 1.394 1_556 S
C1090 C1091 1.369 . S
C1090 C1094 1.530 1_556 S
C1091 C1090 1.369 . S
C1091 C1092 1.410 . S
C1091 C1099 1.503 . S
C1092 C1091 1.410 . S
C1092 C1093 1.392 . S
C1092 C1095 1.511 . S
C1093 C1089 1.376 1_556 S
C1093 C1092 1.392 . S
C1093 H1105 0.929 . S
C1094 C1090 1.530 1_554 S
C1094 H1106 0.955 1_554 S
C1094 H1107 0.965 . S
C1094 H1108 0.962 . S
C1095 C1092 1.511 . S
C1095 H1109 0.961 . S
C1095 H1110 0.961 . S
C1095 H1111 0.961 . S
C1096 C1097 1.370 . S
C1096 C1098 1.363 . S
C1096 H1112 0.931 . S
C1097 C1096 1.370 . S
C1097 C1101 1.408 . S
C1098 C1096 1.363 . S
C1098 C1099 1.370 . S
C1098 C1102 1.524 . S
C1099 C1091 1.503 . S
C1099 C1098 1.370 . S
C1099 C1100 1.403 . S
C1100 C1099 1.403 . S
C1100 C1101 1.404 . S
C1100 C1103 1.539 . S
C1101 C1097 1.408 . S
C1101 C1100 1.404 . S
C1101 H1113 0.930 . S
C1102 C1098 1.524 . S
C1102 H1114 0.956 1_556 S
C1102 H1115 0.961 . S
C1102 H1116 0.960 1_556 S
C1103 C1100 1.539 . S
C1103 H1117 0.958 . S
C1103 H1118 0.961 . S
C1103 H1119 0.960 . S
H1104 C1088 0.931 . S
H1105 C1093 0.929 . S
H1106 C1094 0.955 1_556 S
H1107 C1094 0.965 . S
H1108 C1094 0.962 . S
H1109 C1095 0.961 . S
H1110 C1095 0.961 . S
H1111 C1095 0.961 . S
H1112 C1096 0.931 . S
H1113 C1101 0.930 . S
H1114 C1102 0.956 1_554 S
H1115 C1102 0.961 . S
H1116 C1102 0.960 1_554 S
H1117 C1103 0.958 . S
H1118 C1103 0.961 . S
H1119 C1103 0.960 . S
C1120 C1121 1.391 . S
C1120 C1122 1.394 . S
C1120 H1136 0.931 . S
C1121 C1120 1.391 . S
C1121 C1125 1.376 1_554 S
C1122 C1120 1.394 . S
C1122 C1123 1.369 1_554 S
C1122 C1126 1.531 . S
C1123 C1122 1.369 1_556 S
C1123 C1124 1.410 . S
C1123 C1131 1.503 . S
C1124 C1123 1.410 . S
C1124 C1125 1.392 . S
C1124 C1127 1.511 . S
C1125 C1121 1.376 1_556 S
C1125 C1124 1.392 . S
C1125 H1137 0.929 . S
C1126 C1122 1.531 . S
C1126 H1138 0.960 . S
C1126 H1139 0.962 1_554 S
C1126 H1140 0.960 . S
C1127 C1124 1.511 . S
C1127 H1141 0.961 . S
C1127 H1142 0.961 . S
C1127 H1143 0.961 . S
C1128 C1129 1.370 . S
C1128 C1130 1.363 . S
C1128 H1144 0.931 . S
C1129 C1128 1.370 . S
C1129 C1133 1.408 . S
C1130 C1128 1.363 . S
C1130 C1131 1.370 . S
C1130 C1134 1.524 . S
C1131 C1123 1.503 . S
C1131 C1130 1.370 . S
C1131 C1132 1.403 . S
C1132 C1131 1.403 . S
C1132 C1133 1.404 . S
C1132 C1135 1.501 1_556 S
C1133 C1129 1.408 . S
C1133 C1132 1.404 . S
C1133 H1145 0.930 . S
C1134 C1130 1.524 . S
C1134 H1146 0.956 . S
C1134 H1147 0.961 . S
C1134 H1148 0.961 . S
C1135 C1132 1.501 1_554 S
C1135 H1149 0.989 . S
C1135 H1150 0.957 1_554 S
C1135 H1151 0.974 . S
H1136 C1120 0.931 . S
H1137 C1125 0.929 . S
H1138 C1126 0.960 . S
H1139 C1126 0.962 1_556 S
H1140 C1126 0.960 . S
H1141 C1127 0.961 . S
H1142 C1127 0.961 . S
H1143 C1127 0.961 . S
H1144 C1128 0.931 . S
H1145 C1133 0.930 . S
H1146 C1134 0.956 . S
H1147 C1134 0.961 . S
H1148 C1134 0.961 . S
H1149 C1135 0.989 . S
H1150 C1135 0.957 1_556 S
H1151 C1135 0.974 . S
C1152 C1153 1.391 . S
C1152 C1154 1.394 . S
C1152 H1168 0.931 . S
C1153 C1152 1.391 . S
C1153 C1157 1.376 . S
C1154 C1152 1.394 . S
C1154 C1155 1.369 . S
C1154 C1158 1.531 . S
C1155 C1154 1.369 . S
C1155 C1156 1.410 . S
C1155 C1163 1.503 . S
C1156 C1155 1.410 . S
C1156 C1157 1.392 . S
C1156 C1159 1.511 . S
C1157 C1153 1.376 . S
C1157 C1156 1.392 . S
C1157 H1169 0.929 . S
C1158 C1154 1.531 . S
C1158 H1170 0.960 . S
C1158 H1171 0.962 . S
C1158 H1172 0.960 . S
C1159 C1156 1.511 . S
C1159 H1173 0.961 . S
C1159 H1174 0.961 . S
C1159 H1175 0.961 . S
C1160 C1161 1.370 . S
C1160 C1162 1.363 . S
C1160 H1176 0.931 . S
C1161 C1160 1.370 . S
C1161 C1165 1.408 . S
C1162 C1160 1.363 . S
C1162 C1163 1.370 . S
C1162 C1166 1.524 . S
C1163 C1155 1.503 . S
C1163 C1162 1.370 . S
C1163 C1164 1.403 . S
C1164 C1163 1.403 . S
C1164 C1165 1.404 . S
C1164 C1167 1.539 . S
C1165 C1161 1.408 . S
C1165 C1164 1.404 . S
C1165 H1177 0.930 . S
C1166 C1162 1.524 . S
C1166 H1178 0.956 . S
C1166 H1179 0.961 . S
C1166 H1180 0.961 . S
C1167 C1164 1.539 . S
C1167 H1181 0.958 . S
C1167 H1182 0.961 . S
C1167 H1183 0.960 . S
H1168 C1152 0.931 . S
H1169 C1157 0.929 . S
H1170 C1158 0.960 . S
H1171 C1158 0.962 . S
H1172 C1158 0.960 . S
H1173 C1159 0.961 . S
H1174 C1159 0.961 . S
H1175 C1159 0.961 . S
H1176 C1160 0.931 . S
H1177 C1165 0.930 . S
H1178 C1166 0.956 . S
H1179 C1166 0.961 . S
H1180 C1166 0.961 . S
H1181 C1167 0.958 . S
H1182 C1167 0.961 . S
H1183 C1167 0.960 . S
C1184 C1185 1.391 . S
C1184 C1186 1.394 . S
C1184 H1200 0.931 . S
C1185 C1184 1.391 . S
C1185 C1189 1.376 . S
C1186 C1184 1.394 . S
C1186 C1187 1.369 . S
C1186 C1190 1.531 . S
C1187 C1186 1.369 . S
C1187 C1188 1.410 . S
C1187 C1195 1.503 . S
C1188 C1187 1.410 . S
C1188 C1189 1.392 . S
C1188 C1191 1.511 . S
C1189 C1185 1.376 . S
C1189 C1188 1.392 . S
C1189 H1201 0.929 . S
C1190 C1186 1.531 . S
C1190 H1202 0.960 . S
C1190 H1203 0.962 . S
C1190 H1204 0.960 . S
C1191 C1188 1.511 . S
C1191 H1205 0.961 . S
C1191 H1206 0.961 . S
C1191 H1207 0.961 . S
C1192 C1193 1.370 . S
C1192 C1194 1.363 . S
C1192 H1208 0.931 . S
C1193 C1192 1.370 . S
C1193 C1197 1.408 . S
C1194 C1192 1.363 . S
C1194 C1195 1.370 . S
C1194 C1198 1.524 . S
C1195 C1187 1.503 . S
C1195 C1194 1.370 . S
C1195 C1196 1.403 . S
C1196 C1195 1.403 . S
C1196 C1197 1.404 . S
C1196 C1199 1.539 . S
C1197 C1193 1.408 . S
C1197 C1196 1.404 . S
C1197 H1209 0.930 . S
C1198 C1194 1.524 . S
C1198 H1210 0.956 . S
C1198 H1211 0.961 . S
C1198 H1212 0.961 . S
C1199 C1196 1.539 . S
C1199 H1213 0.958 . S
C1199 H1214 0.961 . S
C1199 H1215 0.960 . S
H1200 C1184 0.931 . S
H1201 C1189 0.929 . S
H1202 C1190 0.960 . S
H1203 C1190 0.962 . S
H1204 C1190 0.960 . S
H1205 C1191 0.961 . S
H1206 C1191 0.961 . S
H1207 C1191 0.961 . S
H1208 C1192 0.931 . S
H1209 C1197 0.930 . S
H1210 C1198 0.956 . S
H1211 C1198 0.961 . S
H1212 C1198 0.961 . S
H1213 C1199 0.958 . S
H1214 C1199 0.961 . S
H1215 C1199 0.960 . S
C1216 C1217 1.391 . S
C1216 C1218 1.394 . S
C1216 H1232 0.931 . S
C1217 C1216 1.391 . S
C1217 C1221 1.376 . S
C1218 C1216 1.394 . S
C1218 C1219 1.369 . S
C1218 C1222 1.531 . S
C1219 C1218 1.369 . S
C1219 C1220 1.410 . S
C1219 C1227 1.503 . S
C1220 C1219 1.410 . S
C1220 C1221 1.392 . S
C1220 C1223 1.511 . S
C1221 C1217 1.376 . S
C1221 C1220 1.392 . S
C1221 H1233 0.929 . S
C1222 C1218 1.531 . S
C1222 H1234 0.960 . S
C1222 H1235 0.962 . S
C1222 H1236 0.960 . S
C1223 C1220 1.511 . S
C1223 H1237 0.961 . S
C1223 H1238 0.961 . S
C1223 H1239 0.961 . S
C1224 C1225 1.370 . S
C1224 C1226 1.363 . S
C1224 H1240 0.931 . S
C1225 C1224 1.370 . S
C1225 C1229 1.408 . S
C1226 C1224 1.363 . S
C1226 C1227 1.370 . S
C1226 C1230 1.524 . S
C1227 C1219 1.503 . S
C1227 C1226 1.370 . S
C1227 C1228 1.403 . S
C1228 C1227 1.403 . S
C1228 C1229 1.404 . S
C1228 C1231 1.539 . S
C1229 C1225 1.408 . S
C1229 C1228 1.404 . S
C1229 H1241 0.930 . S
C1230 C1226 1.524 . S
C1230 H1242 0.956 . S
C1230 H1243 0.961 . S
C1230 H1244 0.961 . S
C1231 C1228 1.539 . S
C1231 H1245 0.958 . S
C1231 H1246 0.961 . S
C1231 H1247 0.960 . S
H1232 C1216 0.931 . S
H1233 C1221 0.929 . S
H1234 C1222 0.960 . S
H1235 C1222 0.962 . S
H1236 C1222 0.960 . S
H1237 C1223 0.961 . S
H1238 C1223 0.961 . S
H1239 C1223 0.961 . S
H1240 C1224 0.931 . S
H1241 C1229 0.930 . S
H1242 C1230 0.956 . S
H1243 C1230 0.961 . S
H1244 C1230 0.961 . S
H1245 C1231 0.958 . S
H1246 C1231 0.961 . S
H1247 C1231 0.960 . S
C1248 C1249 1.391 . S
C1248 C1250 1.394 . S
C1248 H1264 0.931 . S
C1249 C1248 1.391 . S
C1249 C1253 1.376 . S
C1250 C1248 1.394 . S
C1250 C1251 1.369 . S
C1250 C1254 1.531 1_554 S
C1251 C1250 1.369 . S
C1251 C1252 1.410 . S
C1251 C1259 1.503 . S
C1252 C1251 1.410 . S
C1252 C1253 1.392 . S
C1252 C1255 1.511 . S
C1253 C1249 1.376 . S
C1253 C1252 1.392 . S
C1253 H1265 0.929 . S
C1254 C1250 1.531 1_556 S
C1254 H1266 0.960 . S
C1254 H1267 0.962 . S
C1254 H1268 0.960 . S
C1255 C1252 1.511 . S
C1255 H1269 0.961 . S
C1255 H1270 0.961 . S
C1255 H1271 0.961 . S
C1256 C1257 1.370 . S
C1256 C1258 1.363 1_556 S
C1256 H1272 0.931 . S
C1257 C1256 1.370 . S
C1257 C1261 1.408 . S
C1258 C1256 1.363 1_554 S
C1258 C1259 1.370 . S
C1258 C1262 1.524 . S
C1259 C1251 1.503 . S
C1259 C1258 1.370 . S
C1259 C1260 1.403 . S
C1260 C1259 1.403 . S
C1260 C1261 1.404 1_554 S
C1260 C1263 1.539 . S
C1261 C1257 1.408 . S
C1261 C1260 1.404 1_556 S
C1261 H1273 0.930 . S
C1262 C1258 1.524 . S
C1262 H1274 0.956 . S
C1262 H1275 0.961 . S
C1262 H1276 0.961 . S
C1263 C1260 1.539 . S
C1263 H1277 0.958 . S
C1263 H1278 0.961 . S
C1263 H1279 0.960 . S
H1264 C1248 0.931 . S
H1265 C1253 0.929 . S
H1266 C1254 0.960 . S
H1267 C1254 0.962 . S
H1268 C1254 0.960 . S
H1269 C1255 0.961 . S
H1270 C1255 0.961 . S
H1271 C1255 0.961 . S
H1272 C1256 0.931 . S
H1273 C1261 0.930 . S
H1274 C1262 0.956 . S
H1275 C1262 0.961 . S
H1276 C1262 0.961 . S
H1277 C1263 0.958 . S
H1278 C1263 0.961 . S
H1279 C1263 0.960 . S
C1280 C1281 1.391 . S
C1280 C1282 1.394 . S
C1280 H1296 0.931 . S
C1281 C1280 1.391 . S
C1281 C1285 1.376 1_556 S
C1282 C1280 1.394 . S
C1282 C1283 1.369 1_556 S
C1282 C1286 1.531 . S
C1283 C1282 1.369 1_554 S
C1283 C1284 1.410 . S
C1283 C1291 1.503 . S
C1284 C1283 1.410 . S
C1284 C1285 1.392 . S
C1284 C1287 1.511 . S
C1285 C1281 1.376 1_554 S
C1285 C1284 1.392 . S
C1285 H1297 0.929 . S
C1286 C1282 1.531 . S
C1286 H1298 0.960 . S
C1286 H1299 0.962 . S
C1286 H1300 0.960 . S
C1287 C1284 1.511 . S
C1287 H1301 0.961 . S
C1287 H1302 0.961 . S
C1287 H1303 0.961 . S
C1288 C1289 1.370 . S
C1288 C1290 1.363 . S
C1288 H1304 0.931 . S
C1289 C1288 1.370 . S
C1289 C1293 1.408 . S
C1290 C1288 1.363 . S
C1290 C1291 1.370 . S
C1290 C1294 1.524 . S
C1291 C1283 1.503 . S
C1291 C1290 1.370 . S
C1291 C1292 1.403 . S
C1292 C1291 1.403 . S
C1292 C1293 1.404 . S
C1292 C1295 1.539 . S
C1293 C1289 1.408 . S
C1293 C1292 1.404 . S
C1293 H1305 0.930 . S
C1294 C1290 1.524 . S
C1294 H1306 0.956 . S
C1294 H1307 0.961 . S
C1294 H1308 0.961 . S
C1295 C1292 1.539 . S
C1295 H1309 0.958 1_554 S
C1295 H1310 0.961 . S
C1295 H1311 0.960 . S
H1296 C1280 0.931 . S
H1297 C1285 0.929 . S
H1298 C1286 0.960 . S
H1299 C1286 0.962 . S
H1300 C1286 0.960 . S
H1301 C1287 0.961 . S
H1302 C1287 0.961 . S
H1303 C1287 0.961 . S
H1304 C1288 0.931 . S
H1305 C1293 0.930 . S
H1306 C1294 0.956 . S
H1307 C1294 0.961 . S
H1308 C1294 0.961 . S
H1309 C1295 0.958 1_556 S
H1310 C1295 0.961 . S
H1311 C1295 0.960 . S
C1312 C1313 1.391 . S
C1312 C1314 1.394 . S
C1312 H1328 0.931 . S
C1313 C1312 1.391 . S
C1313 C1317 1.376 . S
C1314 C1312 1.394 . S
C1314 C1315 1.369 . S
C1314 C1318 1.531 . S
C1315 C1314 1.369 . S
C1315 C1316 1.410 . S
C1315 C1323 1.503 . S
C1316 C1315 1.410 . S
C1316 C1317 1.392 . S
C1316 C1319 1.511 . S
C1317 C1313 1.376 . S
C1317 C1316 1.392 . S
C1317 H1329 0.929 . S
C1318 C1314 1.531 . S
C1318 H1330 0.960 . S
C1318 H1331 0.962 1_554 S
C1318 H1332 0.960 . S
C1319 C1316 1.511 . S
C1319 H1333 0.961 . S
C1319 H1334 0.961 . S
C1319 H1335 0.961 . S
C1320 C1321 1.370 . S
C1320 C1322 1.366 1_556 S
C1320 H1336 0.931 . S
C1321 C1320 1.370 . S
C1321 C1325 1.408 1_556 S
C1322 C1320 1.366 1_554 S
C1322 C1323 1.367 . S
C1322 C1326 1.525 1_554 S
C1323 C1315 1.503 . S
C1323 C1322 1.367 . S
C1323 C1324 1.403 . S
C1324 C1323 1.403 . S
C1324 C1325 1.404 . S
C1324 C1327 1.539 . S
C1325 C1321 1.408 1_554 S
C1325 C1324 1.404 . S
C1325 H1337 0.930 . S
C1326 C1322 1.525 1_556 S
C1326 H1338 0.956 . S
C1326 H1339 0.961 1_556 S
C1326 H1340 0.961 . S
C1327 C1324 1.539 . S
C1327 H1341 0.958 . S
C1327 H1342 0.961 . S
C1327 H1343 0.960 . S
H1328 C1312 0.931 . S
H1329 C1317 0.929 . S
H1330 C1318 0.960 . S
H1331 C1318 0.962 1_556 S
H1332 C1318 0.960 . S
H1333 C1319 0.961 . S
H1334 C1319 0.961 . S
H1335 C1319 0.961 . S
H1336 C1320 0.931 . S
H1337 C1325 0.930 . S
H1338 C1326 0.956 . S
H1339 C1326 0.961 1_554 S
H1340 C1326 0.961 . S
H1341 C1327 0.958 . S
H1342 C1327 0.961 . S
H1343 C1327 0.960 . S
C1344 C1345 1.391 . S
C1344 C1346 1.394 . S
C1344 H1360 0.931 . S
C1345 C1344 1.391 . S
C1345 C1349 1.376 . S
C1346 C1344 1.394 . S
C1346 C1347 1.369 . S
C1346 C1350 1.531 . S
C1347 C1346 1.369 . S
C1347 C1348 1.410 . S
C1347 C1355 1.503 . S
C1348 C1347 1.410 . S
C1348 C1349 1.392 . S
C1348 C1351 1.511 . S
C1349 C1345 1.376 . S
C1349 C1348 1.392 . S
C1349 H1361 0.929 . S
C1350 C1346 1.531 . S
C1350 H1362 0.960 . S
C1350 H1363 0.962 . S
C1350 H1364 0.960 . S
C1351 C1348 1.511 . S
C1351 H1365 0.961 . S
C1351 H1366 0.961 . S
C1351 H1367 0.961 . S
C1352 C1353 1.370 . S
C1352 C1354 1.363 . S
C1352 H1368 0.931 . S
C1353 C1352 1.370 . S
C1353 C1357 1.408 . S
C1354 C1352 1.363 . S
C1354 C1355 1.370 . S
C1354 C1358 1.524 . S
C1355 C1347 1.503 . S
C1355 C1354 1.370 . S
C1355 C1356 1.403 . S
C1356 C1355 1.403 . S
C1356 C1357 1.404 . S
C1356 C1359 1.539 . S
C1357 C1353 1.408 . S
C1357 C1356 1.404 . S
C1357 H1369 0.930 . S
C1358 C1354 1.524 . S
C1358 H1370 0.956 . S
C1358 H1371 0.961 . S
C1358 H1372 0.961 . S
C1359 C1356 1.539 . S
C1359 H1373 0.958 . S
C1359 H1374 0.961 . S
C1359 H1375 0.960 . S
H1360 C1344 0.931 . S
H1361 C1349 0.929 . S
H1362 C1350 0.960 . S
H1363 C1350 0.962 . S
H1364 C1350 0.960 . S
H1365 C1351 0.961 . S
H1366 C1351 0.961 . S
H1367 C1351 0.961 . S
H1368 C1352 0.931 . S
H1369 C1357 0.930 . S
H1370 C1358 0.956 . S
H1371 C1358 0.961 . S
H1372 C1358 0.961 . S
H1373 C1359 0.958 . S
H1374 C1359 0.961 . S
H1375 C1359 0.960 . S
C1376 C1377 1.391 . S
C1376 C1378 1.394 . S
C1376 H1392 0.931 . S
C1377 C1376 1.391 . S
C1377 C1381 1.376 . S
C1378 C1376 1.394 . S
C1378 C1379 1.369 . S
C1378 C1382 1.531 . S
C1379 C1378 1.369 . S
C1379 C1380 1.410 . S
C1379 C1387 1.503 . S
C1380 C1379 1.410 . S
C1380 C1381 1.392 . S
C1380 C1383 1.511 . S
C1381 C1377 1.376 . S
C1381 C1380 1.392 . S
C1381 H1393 0.929 . S
C1382 C1378 1.531 . S
C1382 H1394 0.960 . S
C1382 H1395 0.962 . S
C1382 H1396 0.960 . S
C1383 C1380 1.511 . S
C1383 H1397 0.961 . S
C1383 H1398 0.961 . S
C1383 H1399 0.961 . S
C1384 C1385 1.370 . S
C1384 C1386 1.363 . S
C1384 H1400 0.931 . S
C1385 C1384 1.370 . S
C1385 C1389 1.408 . S
C1386 C1384 1.363 . S
C1386 C1387 1.370 . S
C1386 C1390 1.524 . S
C1387 C1379 1.503 . S
C1387 C1386 1.370 . S
C1387 C1388 1.403 . S
C1388 C1387 1.403 . S
C1388 C1389 1.404 . S
C1388 C1391 1.539 . S
C1389 C1385 1.408 . S
C1389 C1388 1.404 . S
C1389 H1401 0.930 . S
C1390 C1386 1.524 . S
C1390 H1402 0.956 . S
C1390 H1403 0.961 . S
C1390 H1404 0.961 . S
C1391 C1388 1.539 . S
C1391 H1405 0.958 . S
C1391 H1406 0.961 . S
C1391 H1407 0.960 . S
H1392 C1376 0.931 . S
H1393 C1381 0.929 . S
H1394 C1382 0.960 . S
H1395 C1382 0.962 . S
H1396 C1382 0.960 . S
H1397 C1383 0.961 . S
H1398 C1383 0.961 . S
H1399 C1383 0.961 . S
H1400 C1384 0.931 . S
H1401 C1389 0.930 . S
H1402 C1390 0.956 . S
H1403 C1390 0.961 . S
H1404 C1390 0.961 . S
H1405 C1391 0.958 . S
H1406 C1391 0.961 . S
H1407 C1391 0.960 . S
C1408 C1409 1.391 . S
C1408 C1410 1.394 . S
C1408 H1424 0.931 . S
C1409 C1408 1.391 . S
C1409 C1413 1.376 . S
C1410 C1408 1.394 . S
C1410 C1411 1.369 . S
C1410 C1414 1.531 . S
C1411 C1410 1.369 . S
C1411 C1412 1.410 . S
C1411 C1419 1.503 . S
C1412 C1411 1.410 . S
C1412 C1413 1.392 . S
C1412 C1415 1.511 . S
C1413 C1409 1.376 . S
C1413 C1412 1.392 . S
C1413 H1425 0.929 . S
C1414 C1410 1.531 . S
C1414 H1426 0.960 . S
C1414 H1427 0.962 . S
C1414 H1428 0.960 . S
C1415 C1412 1.511 . S
C1415 H1429 0.961 . S
C1415 H1430 0.961 . S
C1415 H1431 0.961 . S
C1416 C1417 1.370 . S
C1416 C1418 1.363 . S
C1416 H1432 0.931 . S
C1417 C1416 1.370 . S
C1417 C1421 1.408 . S
C1418 C1416 1.363 . S
C1418 C1419 1.370 . S
C1418 C1422 1.524 . S
C1419 C1411 1.503 . S
C1419 C1418 1.370 . S
C1419 C1420 1.403 . S
C1420 C1419 1.403 . S
C1420 C1421 1.404 . S
C1420 C1423 1.539 . S
C1421 C1417 1.408 . S
C1421 C1420 1.404 . S
C1421 H1433 0.930 . S
C1422 C1418 1.524 . S
C1422 H1434 0.956 . S
C1422 H1435 0.961 . S
C1422 H1436 0.961 . S
C1423 C1420 1.539 . S
C1423 H1437 0.958 . S
C1423 H1438 0.961 . S
C1423 H1439 0.960 . S
H1424 C1408 0.931 . S
H1425 C1413 0.929 . S
H1426 C1414 0.960 . S
H1427 C1414 0.962 . S
H1428 C1414 0.960 . S
H1429 C1415 0.961 . S
H1430 C1415 0.961 . S
H1431 C1415 0.961 . S
H1432 C1416 0.931 . S
H1433 C1421 0.930 . S
H1434 C1422 0.956 . S
H1435 C1422 0.961 . S
H1436 C1422 0.961 . S
H1437 C1423 0.958 . S
H1438 C1423 0.961 . S
H1439 C1423 0.960 . S
C1440 C1441 1.391 . S
C1440 C1442 1.394 . S
C1440 H1456 0.931 . S
C1441 C1440 1.391 . S
C1441 C1445 1.376 . S
C1442 C1440 1.394 . S
C1442 C1443 1.369 . S
C1442 C1446 1.531 . S
C1443 C1442 1.369 . S
C1443 C1444 1.410 . S
C1443 C1451 1.503 . S
C1444 C1443 1.410 . S
C1444 C1445 1.392 . S
C1444 C1447 1.511 . S
C1445 C1441 1.376 . S
C1445 C1444 1.392 . S
C1445 H1457 0.929 . S
C1446 C1442 1.531 . S
C1446 H1458 0.960 . S
C1446 H1459 0.962 . S
C1446 H1460 0.960 . S
C1447 C1444 1.511 . S
C1447 H1461 0.961 . S
C1447 H1462 0.961 . S
C1447 H1463 0.961 . S
C1448 C1449 1.370 . S
C1448 C1450 1.363 . S
C1448 H1464 0.931 . S
C1449 C1448 1.370 . S
C1449 C1453 1.408 . S
C1450 C1448 1.363 . S
C1450 C1451 1.370 . S
C1450 C1454 1.524 . S
C1451 C1443 1.503 . S
C1451 C1450 1.370 . S
C1451 C1452 1.403 . S
C1452 C1451 1.403 . S
C1452 C1453 1.404 . S
C1452 C1455 1.539 . S
C1453 C1449 1.408 . S
C1453 C1452 1.404 . S
C1453 H1465 0.930 . S
C1454 C1450 1.524 . S
C1454 H1466 0.956 . S
C1454 H1467 0.961 . S
C1454 H1468 0.961 . S
C1455 C1452 1.539 . S
C1455 H1469 0.958 . S
C1455 H1470 0.961 . S
C1455 H1471 0.960 . S
H1456 C1440 0.931 . S
H1457 C1445 0.929 . S
H1458 C1446 0.960 . S
H1459 C1446 0.962 . S
H1460 C1446 0.960 . S
H1461 C1447 0.961 . S
H1462 C1447 0.961 . S
H1463 C1447 0.961 . S
H1464 C1448 0.931 . S
H1465 C1453 0.930 . S
H1466 C1454 0.956 . S
H1467 C1454 0.961 . S
H1468 C1454 0.961 . S
H1469 C1455 0.958 . S
H1470 C1455 0.961 . S
H1471 C1455 0.960 . S
C1472 C1473 1.391 . S
C1472 C1474 1.394 . S
C1472 H1488 0.931 . S
C1473 C1472 1.391 . S
C1473 C1477 1.376 . S
C1474 C1472 1.394 . S
C1474 C1475 1.369 . S
C1474 C1478 1.531 . S
C1475 C1474 1.369 . S
C1475 C1476 1.410 . S
C1475 C1483 1.503 . S
C1476 C1475 1.410 . S
C1476 C1477 1.392 . S
C1476 C1479 1.511 . S
C1477 C1473 1.376 . S
C1477 C1476 1.392 . S
C1477 H1489 0.929 . S
C1478 C1474 1.531 . S
C1478 H1490 0.960 . S
C1478 H1491 0.962 . S
C1478 H1492 0.960 . S
C1479 C1476 1.511 . S
C1479 H1493 0.961 . S
C1479 H1494 0.961 . S
C1479 H1495 0.961 . S
C1480 C1481 1.370 . S
C1480 C1482 1.363 . S
C1480 H1496 0.931 . S
C1481 C1480 1.370 . S
C1481 C1485 1.408 . S
C1482 C1480 1.363 . S
C1482 C1483 1.370 . S
C1482 C1486 1.524 . S
C1483 C1475 1.503 . S
C1483 C1482 1.370 . S
C1483 C1484 1.403 . S
C1484 C1483 1.403 . S
C1484 C1485 1.404 . S
C1484 C1487 1.539 . S
C1485 C1481 1.408 . S
C1485 C1484 1.404 . S
C1485 H1497 0.930 . S
C1486 C1482 1.524 . S
C1486 H1498 0.956 . S
C1486 H1499 0.961 . S
C1486 H1500 0.961 . S
C1487 C1484 1.539 . S
C1487 H1501 0.958 . S
C1487 H1502 0.961 . S
C1487 H1503 0.960 . S
H1488 C1472 0.931 . S
H1489 C1477 0.929 . S
H1490 C1478 0.960 . S
H1491 C1478 0.962 . S
H1492 C1478 0.960 . S
H1493 C1479 0.961 . S
H1494 C1479 0.961 . S
H1495 C1479 0.961 . S
H1496 C1480 0.931 . S
H1497 C1485 0.930 . S
H1498 C1486 0.956 . S
H1499 C1486 0.961 . S
H1500 C1486 0.961 . S
H1501 C1487 0.958 . S
H1502 C1487 0.961 . S
H1503 C1487 0.960 . S
C1504 C1505 1.391 . S
C1504 C1506 1.394 . S
C1504 H1520 0.931 . S
C1505 C1504 1.391 . S
C1505 C1509 1.376 . S
C1506 C1504 1.394 . S
C1506 C1507 1.369 . S
C1506 C1510 1.531 . S
C1507 C1506 1.369 . S
C1507 C1508 1.410 . S
C1507 C1515 1.503 . S
C1508 C1507 1.410 . S
C1508 C1509 1.392 . S
C1508 C1511 1.511 . S
C1509 C1505 1.376 . S
C1509 C1508 1.392 . S
C1509 H1521 0.929 . S
C1510 C1506 1.531 . S
C1510 H1522 0.960 . S
C1510 H1523 0.962 . S
C1510 H1524 0.960 . S
C1511 C1508 1.511 . S
C1511 H1525 0.961 . S
C1511 H1526 0.961 . S
C1511 H1527 0.961 . S
C1512 C1513 1.370 . S
C1512 C1514 1.363 . S
C1512 H1528 0.931 . S
C1513 C1512 1.370 . S
C1513 C1517 1.408 . S
C1514 C1512 1.363 . S
C1514 C1515 1.370 . S
C1514 C1518 1.524 . S
C1515 C1507 1.503 . S
C1515 C1514 1.370 . S
C1515 C1516 1.403 . S
C1516 C1515 1.403 . S
C1516 C1517 1.404 . S
C1516 C1519 1.539 . S
C1517 C1513 1.408 . S
C1517 C1516 1.404 . S
C1517 H1529 0.930 . S
C1518 C1514 1.524 . S
C1518 H1530 0.956 . S
C1518 H1531 0.961 . S
C1518 H1532 0.961 . S
C1519 C1516 1.539 . S
C1519 H1533 0.958 . S
C1519 H1534 0.961 . S
C1519 H1535 0.960 . S
H1520 C1504 0.931 . S
H1521 C1509 0.929 . S
H1522 C1510 0.960 . S
H1523 C1510 0.962 . S
H1524 C1510 0.960 . S
H1525 C1511 0.961 . S
H1526 C1511 0.961 . S
H1527 C1511 0.961 . S
H1528 C1512 0.931 . S
H1529 C1517 0.930 . S
H1530 C1518 0.956 . S
H1531 C1518 0.961 . S
H1532 C1518 0.961 . S
H1533 C1519 0.958 . S
H1534 C1519 0.961 . S
H1535 C1519 0.960 . S
C1536 C1537 1.391 . S
C1536 C1538 1.394 . S
C1536 H1552 0.931 . S
C1537 C1536 1.391 . S
C1537 C1541 1.376 . S
C1538 C1536 1.394 . S
C1538 C1539 1.369 . S
C1538 C1542 1.531 . S
C1539 C1538 1.369 . S
C1539 C1540 1.410 . S
C1539 C1547 1.503 . S
C1540 C1539 1.410 . S
C1540 C1541 1.392 . S
C1540 C1543 1.511 . S
C1541 C1537 1.376 . S
C1541 C1540 1.392 . S
C1541 H1553 0.929 . S
C1542 C1538 1.531 . S
C1542 H1554 0.960 . S
C1542 H1555 0.962 . S
C1542 H1556 0.960 . S
C1543 C1540 1.511 . S
C1543 H1557 0.961 . S
C1543 H1558 0.961 . S
C1543 H1559 0.961 . S
C1544 C1545 1.370 . S
C1544 C1546 1.363 . S
C1544 H1560 0.931 . S
C1545 C1544 1.370 . S
C1545 C1549 1.408 . S
C1546 C1544 1.363 . S
C1546 C1547 1.370 . S
C1546 C1550 1.524 . S
C1547 C1539 1.503 . S
C1547 C1546 1.370 . S
C1547 C1548 1.403 . S
C1548 C1547 1.403 . S
C1548 C1549 1.404 . S
C1548 C1551 1.539 . S
C1549 C1545 1.408 . S
C1549 C1548 1.404 . S
C1549 H1561 0.930 . S
C1550 C1546 1.524 . S
C1550 H1562 0.956 . S
C1550 H1563 0.961 . S
C1550 H1564 0.961 . S
C1551 C1548 1.539 . S
C1551 H1565 0.958 . S
C1551 H1566 0.961 . S
C1551 H1567 0.960 . S
H1552 C1536 0.931 . S
H1553 C1541 0.929 . S
H1554 C1542 0.960 . S
H1555 C1542 0.962 . S
H1556 C1542 0.960 . S
H1557 C1543 0.961 . S
H1558 C1543 0.961 . S
H1559 C1543 0.961 . S
H1560 C1544 0.931 . S
H1561 C1549 0.930 . S
H1562 C1550 0.956 . S
H1563 C1550 0.961 . S
H1564 C1550 0.961 . S
H1565 C1551 0.958 . S
H1566 C1551 0.961 . S
H1567 C1551 0.960 . S
C1568 C1569 1.391 . S
C1568 C1570 1.394 . S
C1568 H1584 0.931 . S
C1569 C1568 1.391 . S
C1569 C1573 1.376 . S
C1570 C1568 1.394 . S
C1570 C1571 1.369 . S
C1570 C1574 1.531 . S
C1571 C1570 1.369 . S
C1571 C1572 1.410 . S
C1571 C1579 1.503 . S
C1572 C1571 1.410 . S
C1572 C1573 1.392 . S
C1572 C1575 1.511 . S
C1573 C1569 1.376 . S
C1573 C1572 1.392 . S
C1573 H1585 0.929 . S
C1574 C1570 1.531 . S
C1574 H1586 0.960 . S
C1574 H1587 0.962 . S
C1574 H1588 0.960 . S
C1575 C1572 1.511 . S
C1575 H1589 0.961 . S
C1575 H1590 0.961 . S
C1575 H1591 0.961 . S
C1576 C1577 1.370 . S
C1576 C1578 1.363 . S
C1576 H1592 0.931 . S
C1577 C1576 1.370 . S
C1577 C1581 1.408 . S
C1578 C1576 1.363 . S
C1578 C1579 1.370 . S
C1578 C1582 1.524 . S
C1579 C1571 1.503 . S
C1579 C1578 1.370 . S
C1579 C1580 1.403 . S
C1580 C1579 1.403 . S
C1580 C1581 1.404 . S
C1580 C1583 1.539 . S
C1581 C1577 1.408 . S
C1581 C1580 1.404 . S
C1581 H1593 0.930 . S
C1582 C1578 1.524 . S
C1582 H1594 0.956 . S
C1582 H1595 0.961 . S
C1582 H1596 0.961 . S
C1583 C1580 1.539 . S
C1583 H1597 0.958 . S
C1583 H1598 0.961 . S
C1583 H1599 0.960 . S
H1584 C1568 0.931 . S
H1585 C1573 0.929 . S
H1586 C1574 0.960 . S
H1587 C1574 0.962 . S
H1588 C1574 0.960 . S
H1589 C1575 0.961 . S
H1590 C1575 0.961 . S
H1591 C1575 0.961 . S
H1592 C1576 0.931 . S
H1593 C1581 0.930 . S
H1594 C1582 0.956 . S
H1595 C1582 0.961 . S
H1596 C1582 0.961 . S
H1597 C1583 0.958 . S
H1598 C1583 0.961 . S
H1599 C1583 0.960 . S
C1600 C1601 1.391 . S
C1600 C1602 1.394 . S
C1600 H1616 0.931 . S
C1601 C1600 1.391 . S
C1601 C1605 1.376 . S
C1602 C1600 1.394 . S
C1602 C1603 1.369 . S
C1602 C1606 1.531 . S
C1603 C1602 1.369 . S
C1603 C1604 1.410 . S
C1603 C1611 1.503 . S
C1604 C1603 1.410 . S
C1604 C1605 1.392 . S
C1604 C1607 1.511 . S
C1605 C1601 1.376 . S
C1605 C1604 1.392 . S
C1605 H1617 0.929 . S
C1606 C1602 1.531 . S
C1606 H1618 0.960 . S
C1606 H1619 0.962 . S
C1606 H1620 0.960 . S
C1607 C1604 1.511 . S
C1607 H1621 0.961 . S
C1607 H1622 0.961 . S
C1607 H1623 0.961 . S
C1608 C1609 1.370 . S
C1608 C1610 1.363 . S
C1608 H1624 0.931 . S
C1609 C1608 1.370 . S
C1609 C1613 1.408 . S
C1610 C1608 1.363 . S
C1610 C1611 1.370 . S
C1610 C1614 1.524 . S
C1611 C1603 1.503 . S
C1611 C1610 1.370 . S
C1611 C1612 1.403 . S
C1612 C1611 1.403 . S
C1612 C1613 1.404 . S
C1612 C1615 1.539 . S
C1613 C1609 1.408 . S
C1613 C1612 1.404 . S
C1613 H1625 0.930 . S
C1614 C1610 1.524 . S
C1614 H1626 0.956 . S
C1614 H1627 0.961 . S
C1614 H1628 0.961 . S
C1615 C1612 1.539 . S
C1615 H1629 0.958 . S
C1615 H1630 0.961 . S
C1615 H1631 0.960 . S
H1616 C1600 0.931 . S
H1617 C1605 0.929 . S
H1618 C1606 0.960 . S
H1619 C1606 0.962 . S
H1620 C1606 0.960 . S
H1621 C1607 0.961 . S
H1622 C1607 0.961 . S
H1623 C1607 0.961 . S
H1624 C1608 0.931 . S
H1625 C1613 0.930 . S
H1626 C1614 0.956 . S
H1627 C1614 0.961 . S
H1628 C1614 0.961 . S
H1629 C1615 0.958 . S
H1630 C1615 0.961 . S
H1631 C1615 0.960 . S
C1632 C1633 1.391 . S
C1632 C1634 1.394 . S
C1632 H1648 0.931 . S
C1633 C1632 1.391 . S
C1633 C1637 1.376 . S
C1634 C1632 1.394 . S
C1634 C1635 1.369 . S
C1634 C1638 1.531 1_455 S
C1635 C1634 1.369 . S
C1635 C1636 1.417 . S
C1635 C1643 1.478 1_454 S
C1636 C1635 1.417 . S
C1636 C1637 1.404 . S
C1636 C1639 1.492 1_554 S
C1637 C1633 1.376 . S
C1637 C1636 1.404 . S
C1637 H1649 0.929 . S
C1638 C1634 1.531 1_655 S
C1638 H1650 0.960 . S
C1638 H1651 0.962 . S
C1638 H1652 0.960 . S
C1639 C1636 1.492 1_556 S
C1639 H1653 0.961 . S
C1639 H1654 0.961 . S
C1639 H1655 0.961 . S
C1640 C1641 1.370 . S
C1640 C1642 1.363 . S
C1640 H1656 0.931 . S
C1641 C1640 1.370 . S
C1641 C1645 1.408 1_655 S
C1642 C1640 1.363 . S
C1642 C1643 1.397 . S
C1642 C1646 1.524 . S
C1643 C1635 1.478 1_656 S
C1643 C1642 1.397 . S
C1643 C1644 1.402 1_655 S
C1644 C1643 1.402 1_455 S
C1644 C1645 1.404 . S
C1644 C1647 1.539 . S
C1645 C1641 1.408 1_455 S
C1645 C1644 1.404 . S
C1645 H1657 0.930 . S
C1646 C1642 1.524 . S
C1646 H1658 0.956 1_556 S
C1646 H1659 0.961 . S
C1646 H1660 0.961 . S
C1647 C1644 1.539 . S
C1647 H1661 0.958 1_556 S
C1647 H1662 0.961 . S
C1647 H1663 0.960 1_556 S
H1648 C1632 0.931 . S
H1649 C1637 0.929 . S
H1650 C1638 0.960 . S
H1651 C1638 0.962 . S
H1652 C1638 0.960 . S
H1653 C1639 0.961 . S
H1654 C1639 0.961 . S
H1655 C1639 0.961 . S
H1656 C1640 0.931 . S
H1657 C1645 0.930 . S
H1658 C1646 0.956 1_554 S
H1659 C1646 0.961 . S
H1660 C1646 0.961 . S
H1661 C1647 0.958 1_554 S
H1662 C1647 0.961 . S
H1663 C1647 0.960 1_554 S
C1664 C1665 1.391 . S
C1664 C1666 1.394 . S
C1664 H1680 0.931 . S
C1665 C1664 1.391 . S
C1665 C1669 1.376 . S
C1666 C1664 1.394 . S
C1666 C1667 1.369 . S
C1666 C1670 1.531 . S
C1667 C1666 1.369 . S
C1667 C1668 1.410 . S
C1667 C1675 1.503 1_554 S
C1668 C1667 1.410 . S
C1668 C1669 1.392 . S
C1668 C1671 1.511 1_554 S
C1669 C1665 1.376 . S
C1669 C1668 1.392 . S
C1669 H1681 0.929 . S
C1670 C1666 1.531 . S
C1670 H1682 0.960 . S
C1670 H1683 0.962 . S
C1670 H1684 0.960 . S
C1671 C1668 1.511 1_556 S
C1671 H1685 0.961 . S
C1671 H1686 0.961 . S
C1671 H1687 0.961 . S
C1672 C1673 1.370 . S
C1672 C1674 1.363 . S
C1672 H1688 0.931 . S
C1673 C1672 1.370 . S
C1673 C1677 1.408 . S
C1674 C1672 1.363 . S
C1674 C1675 1.370 . S
C1674 C1678 1.524 . S
C1675 C1667 1.503 1_556 S
C1675 C1674 1.370 . S
C1675 C1676 1.403 . S
C1676 C1675 1.403 . S
C1676 C1677 1.404 . S
C1676 C1679 1.539 1_556 S
C1677 C1673 1.408 . S
C1677 C1676 1.404 . S
C1677 H1689 0.930 . S
C1678 C1674 1.524 . S
C1678 H1690 0.956 . S
C1678 H1691 0.961 . S
C1678 H1692 0.961 . S
C1679 C1676 1.539 1_554 S
C1679 H1693 0.958 . S
C1679 H1694 0.961 . S
C1679 H1695 0.960 . S
H1680 C1664 0.931 . S
H1681 C1669 0.929 . S
H1682 C1670 0.960 . S
H1683 C1670 0.962 . S
H1684 C1670 0.960 . S
H1685 C1671 0.961 . S
H1686 C1671 0.961 . S
H1687 C1671 0.961 . S
H1688 C1672 0.931 . S
H1689 C1677 0.930 . S
H1690 C1678 0.956 . S
H1691 C1678 0.961 . S
H1692 C1678 0.961 . S
H1693 C1679 0.958 . S
H1694 C1679 0.961 . S
H1695 C1679 0.960 . S
C1696 C1697 1.391 . S
C1696 C1698 1.394 . S
C1696 H1712 0.931 . S
C1697 C1696 1.391 . S
C1697 C1701 1.376 . S
C1698 C1696 1.394 . S
C1698 C1699 1.367 1_565 S
C1698 C1702 1.533 1_564 S
C1699 C1698 1.367 1_545 S
C1699 C1700 1.409 1_545 S
C1699 C1707 1.503 1_554 S
C1700 C1699 1.409 1_565 S
C1700 C1701 1.392 . S
C1700 C1703 1.511 . S
C1701 C1697 1.376 . S
C1701 C1700 1.392 . S
C1701 H1713 0.929 . S
C1702 C1698 1.533 1_546 S
C1702 H1714 0.960 . S
C1702 H1715 0.962 1_545 S
C1702 H1716 0.960 . S
C1703 C1700 1.511 . S
C1703 H1717 0.961 . S
C1703 H1718 0.961 . S
C1703 H1719 0.961 1_565 S
C1704 C1705 1.370 1_565 S
C1704 C1706 1.363 . S
C1704 H1720 0.931 . S
C1705 C1704 1.370 1_545 S
C1705 C1709 1.408 . S
C1706 C1704 1.363 . S
C1706 C1707 1.370 1_565 S
C1706 C1710 1.524 . S
C1707 C1699 1.503 1_556 S
C1707 C1706 1.370 1_545 S
C1707 C1708 1.403 . S
C1708 C1707 1.403 . S
C1708 C1709 1.404 . S
C1708 C1711 1.539 1_556 S
C1709 C1705 1.408 . S
C1709 C1708 1.404 . S
C1709 H1721 0.930 . S
C1710 C1706 1.524 . S
C1710 H1722 0.956 . S
C1710 H1723 0.961 . S
C1710 H1724 0.961 . S
C1711 C1708 1.539 1_554 S
C1711 H1725 0.958 . S
C1711 H1726 0.961 . S
C1711 H1727 0.960 . S
H1712 C1696 0.931 . S
H1713 C1701 0.929 . S
H1714 C1702 0.960 . S
H1715 C1702 0.962 1_565 S
H1716 C1702 0.960 . S
H1717 C1703 0.961 . S
H1718 C1703 0.961 . S
H1719 C1703 0.961 1_545 S
H1720 C1704 0.931 . S
H1721 C1709 0.930 . S
H1722 C1710 0.956 . S
H1723 C1710 0.961 . S
H1724 C1710 0.961 . S
H1725 C1711 0.958 . S
H1726 C1711 0.961 . S
H1727 C1711 0.960 . S
C1728 C1729 1.391 . S
C1728 C1730 1.394 . S
C1728 H1744 0.931 . S
C1729 C1728 1.391 . S
C1729 C1733 1.376 . S
C1730 C1728 1.394 . S
C1730 C1731 1.369 . S
C1730 C1734 1.531 . S
C1731 C1730 1.369 . S
C1731 C1732 1.410 . S
C1731 C1739 1.481 1_565 S
C1732 C1731 1.410 . S
C1732 C1733 1.392 . S
C1732 C1735 1.511 1_565 S
C1733 C1729 1.376 . S
C1733 C1732 1.392 . S
C1733 H1745 0.929 . S
C1734 C1730 1.531 . S
C1734 H1746 0.960 . S
C1734 H1747 0.962 . S
C1734 H1748 0.960 . S
C1735 C1732 1.511 1_545 S
C1735 H1749 0.961 . S
C1735 H1750 0.961 . S
C1735 H1751 0.961 1_545 S
C1736 C1737 1.370 . S
C1736 C1738 1.363 . S
C1736 H1752 0.931 . S
C1737 C1736 1.370 . S
C1737 C1741 1.408 1_545 S
C1738 C1736 1.363 . S
C1738 C1739 1.401 . S
C1738 C1742 1.524 . S
C1739 C1731 1.481 1_545 S
C1739 C1738 1.401 . S
C1739 C1740 1.394 1_545 S
C1740 C1739 1.394 1_565 S
C1740 C1741 1.404 . S
C1740 C1743 1.539 . S
C1741 C1737 1.408 1_565 S
C1741 C1740 1.404 . S
C1741 H1753 0.930 . S
C1742 C1738 1.524 . S
C1742 H1754 0.956 . S
C1742 H1755 0.961 . S
C1742 H1756 0.961 . S
C1743 C1740 1.539 . S
C1743 H1757 0.958 . S
C1743 H1758 0.961 . S
C1743 H1759 0.960 . S
H1744 C1728 0.931 . S
H1745 C1733 0.929 . S
H1746 C1734 0.960 . S
H1747 C1734 0.962 . S
H1748 C1734 0.960 . S
H1749 C1735 0.961 . S
H1750 C1735 0.961 . S
H1751 C1735 0.961 1_565 S
H1752 C1736 0.931 . S
H1753 C1741 0.930 . S
H1754 C1742 0.956 . S
H1755 C1742 0.961 . S
H1756 C1742 0.961 . S
H1757 C1743 0.958 . S
H1758 C1743 0.961 . S
H1759 C1743 0.960 . S
C1760 C1761 1.391 . S
C1760 C1762 1.394 . S
C1760 H1776 0.931 . S
C1761 C1760 1.391 . S
C1761 C1765 1.376 . S
C1762 C1760 1.394 . S
C1762 C1763 1.369 . S
C1762 C1766 1.531 . S
C1763 C1762 1.369 . S
C1763 C1764 1.410 . S
C1763 C1771 1.503 1_655 S
C1764 C1763 1.410 . S
C1764 C1765 1.392 . S
C1764 C1767 1.511 . S
C1765 C1761 1.376 . S
C1765 C1764 1.392 . S
C1765 H1777 0.929 . S
C1766 C1762 1.531 . S
C1766 H1778 0.960 . S
C1766 H1779 0.962 . S
C1766 H1780 0.960 . S
C1767 C1764 1.511 . S
C1767 H1781 0.961 1_655 S
C1767 H1782 0.961 1_655 S
C1767 H1783 0.961 . S
C1768 C1769 1.370 . S
C1768 C1770 1.363 . S
C1768 H1784 0.931 . S
C1769 C1768 1.370 . S
C1769 C1773 1.408 1_455 S
C1770 C1768 1.363 . S
C1770 C1771 1.370 . S
C1770 C1774 1.524 . S
C1771 C1763 1.503 1_455 S
C1771 C1770 1.370 . S
C1771 C1772 1.403 1_455 S
C1772 C1771 1.403 1_655 S
C1772 C1773 1.404 . S
C1772 C1775 1.539 . S
C1773 C1769 1.408 1_655 S
C1773 C1772 1.404 . S
C1773 H1785 0.930 . S
C1774 C1770 1.524 . S
C1774 H1786 0.956 . S
C1774 H1787 0.961 . S
C1774 H1788 0.961 . S
C1775 C1772 1.539 . S
C1775 H1789 0.958 . S
C1775 H1790 0.961 . S
C1775 H1791 0.960 . S
H1776 C1760 0.931 . S
H1777 C1765 0.929 . S
H1778 C1766 0.960 . S
H1779 C1766 0.962 . S
H1780 C1766 0.960 . S
H1781 C1767 0.961 1_455 S
H1782 C1767 0.961 1_455 S
H1783 C1767 0.961 . S
H1784 C1768 0.931 . S
H1785 C1773 0.930 . S
H1786 C1774 0.956 . S
H1787 C1774 0.961 . S
H1788 C1774 0.961 . S
H1789 C1775 0.958 . S
H1790 C1775 0.961 . S
H1791 C1775 0.960 . S
C1792 C1793 1.391 . S
C1792 C1794 1.394 . S
C1792 H1808 0.931 . S
C1793 C1792 1.391 . S
C1793 C1797 1.376 . S
C1794 C1792 1.394 . S
C1794 C1795 1.369 . S
C1794 C1798 1.531 . S
C1795 C1794 1.369 . S
C1795 C1796 1.410 . S
C1795 C1803 1.503 . S
C1796 C1795 1.410 . S
C1796 C1797 1.392 . S
C1796 C1799 1.511 . S
C1797 C1793 1.376 . S
C1797 C1796 1.392 . S
C1797 H1809 0.929 . S
C1798 C1794 1.531 . S
C1798 H1810 0.960 . S
C1798 H1811 0.962 . S
C1798 H1812 0.960 . S
C1799 C1796 1.511 . S
C1799 H1813 0.961 . S
C1799 H1814 0.961 . S
C1799 H1815 0.961 . S
C1800 C1801 1.370 . S
C1800 C1802 1.363 . S
C1800 H1816 0.931 . S
C1801 C1800 1.370 . S
C1801 C1805 1.408 . S
C1802 C1800 1.363 . S
C1802 C1803 1.370 . S
C1802 C1806 1.524 . S
C1803 C1795 1.503 . S
C1803 C1802 1.370 . S
C1803 C1804 1.403 . S
C1804 C1803 1.403 . S
C1804 C1805 1.404 . S
C1804 C1807 1.539 . S
C1805 C1801 1.408 . S
C1805 C1804 1.404 . S
C1805 H1817 0.930 . S
C1806 C1802 1.524 . S
C1806 H1818 0.956 . S
C1806 H1819 0.961 . S
C1806 H1820 0.961 . S
C1807 C1804 1.539 . S
C1807 H1821 0.958 . S
C1807 H1822 0.961 . S
C1807 H1823 0.960 . S
H1808 C1792 0.931 . S
H1809 C1797 0.929 . S
H1810 C1798 0.960 . S
H1811 C1798 0.962 . S
H1812 C1798 0.960 . S
H1813 C1799 0.961 . S
H1814 C1799 0.961 . S
H1815 C1799 0.961 . S
H1816 C1800 0.931 . S
H1817 C1805 0.930 . S
H1818 C1806 0.956 . S
H1819 C1806 0.961 . S
H1820 C1806 0.961 . S
H1821 C1807 0.958 . S
H1822 C1807 0.961 . S
H1823 C1807 0.960 . S
C1057 C49 0.248 . S
C1065 C636 0.315 . S
C1089 C145 0.122 . S
C1097 C753 0.363 . S
C1121 C233 0.167 . S
C1129 C577 0.324 . S
C1153 C997 0.458 . S
C1161 C284 0.115 . S
C1185 C372 0.113 . S
C1193 C849 0.363 . S
C1217 C900 0.301 . S
C1225 C469 0.148 . S
C1249 C137 0.394 . S
C1257 C548 0.142 . S
C1281 C673 0.234 . S
C1289 C225 0.269 . S
C1313 C57 0.428 . S
C1321 C733 0.122 . S
C1345 C812 0.194 . S
C1353 C460 0.359 . S
C1377 C937 0.120 . S
C1385 C293 0.357 . S
C1409 C381 0.213 . S
C1417 C1025 0.224 . S
C1441 C489 2.489 . S
C1449 C29 2.508 . S
C1473 C108 2.498 . S
C1481 C321 2.502 . S
C1505 C196 2.522 . S
C1513 C409 2.490 . S
C1537 C585 2.511 . S
C1545 C988 2.507 . S
C1569 C665 2.490 . S
C1577 C821 2.481 . S
C1601 C724 2.456 . S
C1609 C929 2.496 . S
C1633 C20 1.855 . S
C1641 C557 1.840 . S
C1665 C117 1.852 . S
C1673 C645 1.812 . S
C1697 C205 1.820 . S
C1705 C761 1.822 . S
C1729 C313 1.826 . S
C1737 C841 1.824 . S
C1761 C909 1.835 . S
C1769 C401 1.823 . S
C1793 C497 1.818 . S
C1801 C1017 1.853 . S
