# Generated by pormake.
# Topology wjd, (6)-cn, num edge types: 1
# Building blocks:
#     Node 0, Type 0, BuildingBlock: MIFKUJ_clean_sbu_0, # of connection points: 6
#     Node 1, Type 0, BuildingBlock: MIFKUJ_clean_sbu_0, # of connection points: 6
#     Node 2, Type 0, BuildingBlock: MIFKUJ_clean_sbu_0, # of connection points: 6
#     Node 3, Type 0, BuildingBlock: MIFKUJ_clean_sbu_0, # of connection points: 6
#     Node 4, Type 0, BuildingBlock: MIFKUJ_clean_sbu_0, # of connection points: 6
#     Node 5, Type 0, BuildingBlock: MIFKUJ_clean_sbu_0, # of connection points: 6
#     Node 6, Type 0, BuildingBlock: MIFKUJ_clean_sbu_0, # of connection points: 6
#     Node 7, Type 0, BuildingBlock: MIFKUJ_clean_sbu_0, # of connection points: 6
#     Node 8, Type 0, BuildingBlock: MIFKUJ_clean_sbu_0, # of connection points: 6
#     Node 9, Type 0, BuildingBlock: MIFKUJ_clean_sbu_0, # of connection points: 6
#     Node 10, Type 0, BuildingBlock: MIFKUJ_clean_sbu_0, # of connection points: 6
#     Node 11, Type 0, BuildingBlock: MIFKUJ_clean_sbu_0, # of connection points: 6
#     Edge 12, Type (0, 0), BuildingBlock: UVAHIK_clean_linker_0, # of connection points: 2
#     Edge 13, Type (0, 0), BuildingBlock: UVAHIK_clean_linker_0, # of connection points: 2
#     Edge 14, Type (0, 0), BuildingBlock: UVAHIK_clean_linker_0, # of connection points: 2
#     Edge 15, Type (0, 0), BuildingBlock: UVAHIK_clean_linker_0, # of connection points: 2
#     Edge 16, Type (0, 0), BuildingBlock: UVAHIK_clean_linker_0, # of connection points: 2
#     Edge 17, Type (0, 0), BuildingBlock: UVAHIK_clean_linker_0, # of connection points: 2
#     Edge 18, Type (0, 0), BuildingBlock: UVAHIK_clean_linker_0, # of connection points: 2
#     Edge 19, Type (0, 0), BuildingBlock: UVAHIK_clean_linker_0, # of connection points: 2
#     Edge 20, Type (0, 0), BuildingBlock: UVAHIK_clean_linker_0, # of connection points: 2
#     Edge 21, Type (0, 0), BuildingBlock: UVAHIK_clean_linker_0, # of connection points: 2
#     Edge 22, Type (0, 0), BuildingBlock: UVAHIK_clean_linker_0, # of connection points: 2
#     Edge 23, Type (0, 0), BuildingBlock: UVAHIK_clean_linker_0, # of connection points: 2
#     Edge 24, Type (0, 0), BuildingBlock: UVAHIK_clean_linker_0, # of connection points: 2
#     Edge 25, Type (0, 0), BuildingBlock: UVAHIK_clean_linker_0, # of connection points: 2
#     Edge 26, Type (0, 0), BuildingBlock: UVAHIK_clean_linker_0, # of connection points: 2
#     Edge 27, Type (0, 0), BuildingBlock: UVAHIK_clean_linker_0, # of connection points: 2
#     Edge 28, Type (0, 0), BuildingBlock: UVAHIK_clean_linker_0, # of connection points: 2
#     Edge 29, Type (0, 0), BuildingBlock: UVAHIK_clean_linker_0, # of connection points: 2
#     Edge 30, Type (0, 0), BuildingBlock: UVAHIK_clean_linker_0, # of connection points: 2
#     Edge 31, Type (0, 0), BuildingBlock: UVAHIK_clean_linker_0, # of connection points: 2
#     Edge 32, Type (0, 0), BuildingBlock: UVAHIK_clean_linker_0, # of connection points: 2
#     Edge 33, Type (0, 0), BuildingBlock: UVAHIK_clean_linker_0, # of connection points: 2
#     Edge 34, Type (0, 0), BuildingBlock: UVAHIK_clean_linker_0, # of connection points: 2
#     Edge 35, Type (0, 0), BuildingBlock: UVAHIK_clean_linker_0, # of connection points: 2
#     Edge 36, Type (0, 0), BuildingBlock: UVAHIK_clean_linker_0, # of connection points: 2
#     Edge 37, Type (0, 0), BuildingBlock: UVAHIK_clean_linker_0, # of connection points: 2
#     Edge 38, Type (0, 0), BuildingBlock: UVAHIK_clean_linker_0, # of connection points: 2
#     Edge 39, Type (0, 0), BuildingBlock: UVAHIK_clean_linker_0, # of connection points: 2
#     Edge 40, Type (0, 0), BuildingBlock: UVAHIK_clean_linker_0, # of connection points: 2
#     Edge 41, Type (0, 0), BuildingBlock: UVAHIK_clean_linker_0, # of connection points: 2
#     Edge 42, Type (0, 0), BuildingBlock: UVAHIK_clean_linker_0, # of connection points: 2
#     Edge 43, Type (0, 0), BuildingBlock: UVAHIK_clean_linker_0, # of connection points: 2
#     Edge 44, Type (0, 0), BuildingBlock: UVAHIK_clean_linker_0, # of connection points: 2
#     Edge 45, Type (0, 0), BuildingBlock: UVAHIK_clean_linker_0, # of connection points: 2
#     Edge 46, Type (0, 0), BuildingBlock: UVAHIK_clean_linker_0, # of connection points: 2
#     Edge 47, Type (0, 0), BuildingBlock: UVAHIK_clean_linker_0, # of connection points: 2
# Relax obj value: 0.079
# Max RMSD: 0.176
# Mean RMSD: 0.176
data_MOF--net-wjd--node1-MIFKUJ_clean_sbu_0--edge1-UVAHIK_clean_linker_0
_symmetry_space_group_name_H-M    P1
_symmetry_Int_Tables_number       1
_symmetry_cell_setting            triclinic
loop_
_symmetry_equiv_pos_as_xyz
'x, y, z'
_cell_length_a     43.089681
_cell_length_b     43.217932
_cell_length_c     69.270868
_cell_angle_alpha  89.979432
_cell_angle_beta   89.9929
_cell_angle_gamma 119.89241
loop_
_atom_site_label
_atom_site_type_symbol
_atom_site_fract_x
_atom_site_fract_y
_atom_site_fract_z
_atom_type_partial_charge
Zn0 Zn 0.30103 0.10222 0.11009 0.0
Zn1 Zn 0.36719 0.17778 0.10066 0.0
C2 C 0.25859 0.13249 0.12051 0.0
O3 O 0.25898 0.11686 0.13671 0.0
C4 C 0.42075 0.16119 0.08853 0.0
O5 O 0.4169 0.17483 0.07236 0.0
O6 O 0.26015 0.05175 0.11432 0.0
O7 O 0.32735 0.10196 0.08663 0.0
O8 O 0.3349 0.15385 0.07723 0.0
C9 C 0.23967 0.03624 0.10002 0.0
O10 O 0.24716 0.05281 0.08332 0.0
O11 O 0.27635 0.1312 0.10617 0.0
C12 C 0.42038 0.24926 0.10881 0.0
O13 O 0.41682 0.23424 0.12577 0.0
O14 O 0.4005 0.2304 0.09497 0.0
O15 O 0.34662 0.17497 0.12761 0.0
O16 O 0.33133 0.11906 0.13353 0.0
O17 O 0.4011 0.15834 0.1029 0.0
C18 C 0.32964 0.12288 0.07322 0.0
C19 C 0.34244 0.15065 0.13946 0.0
Zn20 Zn 0.79995 0.63553 0.38016 0.0
Zn21 Zn 0.81285 0.72109 0.37122 0.0
C22 C 0.73289 0.57951 0.39474 0.0
O23 O 0.75091 0.58779 0.41102 0.0
C24 C 0.8871 0.74999 0.36905 0.0
O25 O 0.87861 0.75211 0.35108 0.0
O26 O 0.82645 0.60891 0.38606 0.0
O27 O 0.81155 0.65313 0.35215 0.0
O28 O 0.80894 0.70191 0.34517 0.0
C29 C 0.82556 0.588 0.37286 0.0
O30 O 0.80945 0.58658 0.35652 0.0
O31 O 0.74824 0.59698 0.37955 0.0
C32 C 0.81586 0.78471 0.38463 0.0
O33 O 0.82331 0.77379 0.40077 0.0
O34 O 0.81007 0.76614 0.36943 0.0
O35 O 0.77297 0.6878 0.38808 0.0
O36 O 0.80376 0.66733 0.40303 0.0
O37 O 0.86226 0.73594 0.38158 0.0
C38 C 0.8126 0.67577 0.33999 0.0
C39 C 0.78322 0.68058 0.40366 0.0
Zn40 Zn 0.90048 0.19398 0.1114 0.0
Zn41 Zn 0.8247 0.18517 0.10257 0.0
C42 C 0.87078 0.12041 0.1206 0.0
O43 O 0.8869 0.13514 0.13693 0.0
C44 C 0.84026 0.25405 0.08935 0.0
O45 O 0.82742 0.23557 0.07339 0.0
O46 O 0.95104 0.20374 0.1154 0.0
O47 O 0.90069 0.22114 0.08828 0.0
O48 O 0.8486 0.17696 0.07899 0.0
C49 C 0.96701 0.19957 0.10105 0.0
O50 O 0.95069 0.19085 0.08426 0.0
O51 O 0.87138 0.14051 0.107 0.0
C52 C 0.75291 0.16524 0.11115 0.0
O53 O 0.76823 0.17704 0.12801 0.0
O54 O 0.77179 0.16472 0.09715 0.0
O55 O 0.82805 0.16788 0.12961 0.0
O56 O 0.88455 0.20738 0.13514 0.0
O57 O 0.84301 0.23838 0.10427 0.0
C58 C 0.87958 0.20268 0.0749 0.0
C59 C 0.85296 0.18755 0.1413 0.0
Zn60 Zn 0.37078 0.16562 0.38306 0.0
Zn61 Zn 0.30281 0.09166 0.37205 0.0
C62 C 0.42815 0.15532 0.39561 0.0
O63 O 0.42087 0.16592 0.41191 0.0
C64 C 0.2627 0.12493 0.36362 0.0
O65 O 0.26107 0.10839 0.34742 0.0
O66 O 0.39924 0.21819 0.38958 0.0
O67 O 0.35085 0.16312 0.35568 0.0
O68 O 0.32943 0.10666 0.34759 0.0
C69 C 0.41772 0.23835 0.37575 0.0
O70 O 0.41582 0.22411 0.35873 0.0
O71 O 0.40907 0.1517 0.38083 0.0
C72 C 0.24031 0.03244 0.38501 0.0
O73 O 0.24834 0.05532 0.39921 0.0
O74 O 0.26052 0.04183 0.37022 0.0
O75 O 0.33283 0.08973 0.39298 0.0
O76 O 0.33928 0.13826 0.4063 0.0
O77 O 0.28103 0.12311 0.37754 0.0
C78 C 0.34342 0.13926 0.34286 0.0
C79 C 0.3327 0.10625 0.40797 0.0
Zn80 Zn 0.80809 0.70187 0.10507 0.0
Zn81 Zn 0.81756 0.63522 0.09647 0.0
C82 C 0.88053 0.74421 0.11672 0.0
O83 O 0.86374 0.74339 0.13272 0.0
C84 C 0.74741 0.58141 0.08402 0.0
O85 O 0.7649 0.58516 0.06786 0.0
O86 O 0.79827 0.74268 0.10936 0.0
O87 O 0.78318 0.67677 0.08105 0.0
O88 O 0.82719 0.66748 0.07289 0.0
C89 C 0.80125 0.7623 0.09497 0.0
O90 O 0.80832 0.754 0.07792 0.0
O91 O 0.86214 0.72664 0.10218 0.0
C92 C 0.83491 0.58156 0.10536 0.0
O93 O 0.82143 0.58428 0.12187 0.0
O94 O 0.83748 0.60213 0.09153 0.0
O95 O 0.83434 0.65608 0.12339 0.0
O96 O 0.79247 0.67035 0.12807 0.0
O97 O 0.7641 0.60128 0.09831 0.0
C98 C 0.80244 0.67394 0.06818 0.0
C99 C 0.81285 0.65947 0.13462 0.0
Zn100 Zn 0.84809 0.21177 0.38409 0.0
Zn101 Zn 0.92188 0.21552 0.37236 0.0
C102 C 0.86391 0.28112 0.39573 0.0
O103 O 0.85488 0.26443 0.41241 0.0
C104 C 0.88605 0.14168 0.36532 0.0
O105 O 0.9009 0.15459 0.34847 0.0
O106 O 0.79539 0.19029 0.39084 0.0
O107 O 0.84868 0.19151 0.35741 0.0
O108 O 0.90458 0.22766 0.34867 0.0
C109 C 0.77603 0.19056 0.37702 0.0
O110 O 0.79113 0.20327 0.3602 0.0
O111 O 0.86441 0.26416 0.38083 0.0
C112 C 0.98413 0.21271 0.382 0.0
O113 O 0.96676 0.20389 0.39849 0.0
O114 O 0.97048 0.22026 0.36772 0.0
O115 O 0.92723 0.24673 0.39438 0.0
O116 O 0.87578 0.20796 0.40728 0.0
O117 O 0.88991 0.16333 0.37877 0.0
C118 C 0.8718 0.20838 0.34431 0.0
C119 C 0.90863 0.23161 0.4092 0.0
Zn120 Zn 0.16517 0.37137 0.61155 0.0
Zn121 Zn 0.09187 0.28871 0.62169 0.0
C122 C 0.15196 0.42551 0.59657 0.0
O123 O 0.1601 0.41545 0.58034 0.0
C124 C 0.1347 0.25694 0.6247 0.0
O125 O 0.12304 0.25464 0.64246 0.0
O126 O 0.21818 0.39843 0.6053 0.0
O127 O 0.16111 0.35381 0.6395 0.0
O128 O 0.10749 0.3093 0.64751 0.0
C129 C 0.23769 0.41895 0.61876 0.0
O130 O 0.22238 0.42008 0.63493 0.0
O131 O 0.15148 0.40972 0.61216 0.0
C132 C 0.03141 0.22397 0.60927 0.0
O133 O 0.04989 0.23358 0.59313 0.0
O134 O 0.0439 0.24397 0.62402 0.0
O135 O 0.0859 0.32102 0.60375 0.0
O136 O 0.13695 0.33869 0.58902 0.0
O137 O 0.12573 0.27233 0.61202 0.0
C138 C 0.13891 0.33318 0.65212 0.0
C139 C 0.10334 0.32655 0.58825 0.0
Zn140 Zn 0.20046 0.90264 0.88201 0.0
Zn141 Zn 0.19194 0.82639 0.8897 0.0
C142 C 0.12711 0.87451 0.8745 0.0
O143 O 0.14186 0.8922 0.85854 0.0
C144 C 0.26125 0.84151 0.90192 0.0
O145 O 0.24323 0.82872 0.91804 0.0
O146 O 0.21059 0.95356 0.87982 0.0
O147 O 0.23024 0.90076 0.9034 0.0
O148 O 0.18484 0.85047 0.91346 0.0
C149 C 0.20783 0.96852 0.89504 0.0
O150 O 0.20045 0.95105 0.91145 0.0
O151 O 0.1473 0.8739 0.88773 0.0
C152 C 0.17241 0.75513 0.88112 0.0
O153 O 0.1851 0.77086 0.86443 0.0
O154 O 0.17123 0.77362 0.8951 0.0
O155 O 0.17322 0.82993 0.86314 0.0
O156 O 0.20916 0.88708 0.85675 0.0
O157 O 0.2451 0.84432 0.88723 0.0
C158 C 0.21172 0.88087 0.91716 0.0
C159 C 0.18859 0.85536 0.85103 0.0
Zn160 Zn 0.63911 0.79297 0.6074 0.0
Zn161 Zn 0.70911 0.78893 0.61843 0.0
C162 C 0.58496 0.72348 0.59656 0.0
O163 O 0.5909 0.74008 0.57991 0.0
C164 C 0.74929 0.86184 0.6258 0.0
O165 O 0.75108 0.84743 0.64217 0.0
O166 O 0.60733 0.81376 0.60078 0.0
O167 O 0.66057 0.81406 0.63385 0.0
O168 O 0.68187 0.77922 0.64278 0.0
C169 C 0.58705 0.81231 0.61454 0.0
O170 O 0.58914 0.79878 0.63115 0.0
O171 O 0.60379 0.74058 0.61108 0.0
C172 C 0.77279 0.78978 0.60796 0.0
O173 O 0.76426 0.79922 0.59166 0.0
O174 O 0.75203 0.78251 0.62241 0.0
O175 O 0.68116 0.75716 0.59696 0.0
O176 O 0.67013 0.79692 0.584 0.0
O177 O 0.73092 0.84143 0.61203 0.0
C178 C 0.66974 0.79973 0.64709 0.0
C179 C 0.67844 0.77264 0.58209 0.0
Zn180 Zn 0.10644 0.29969 0.88393 0.0
Zn181 Zn 0.18153 0.36873 0.89337 0.0
C182 C 0.13621 0.25587 0.87711 0.0
O183 O 0.12001 0.25382 0.86069 0.0
C184 C 0.16435 0.42211 0.90445 0.0
O185 O 0.17673 0.41781 0.92097 0.0
O186 O 0.05605 0.25864 0.88023 0.0
O187 O 0.10551 0.32991 0.9053 0.0
O188 O 0.15598 0.33658 0.9166 0.0
C189 C 0.04001 0.23896 0.8947 0.0
O190 O 0.05596 0.24727 0.91159 0.0
O191 O 0.13534 0.2757 0.89043 0.0
C192 C 0.25205 0.42322 0.88635 0.0
O193 O 0.2361 0.42163 0.86992 0.0
O194 O 0.23389 0.4016 0.89978 0.0
O195 O 0.18099 0.34802 0.8668 0.0
O196 O 0.12391 0.32497 0.85908 0.0
O197 O 0.16241 0.40274 0.89016 0.0
C198 C 0.12473 0.33174 0.91953 0.0
C199 C 0.15637 0.33759 0.85414 0.0
Zn200 Zn 0.2089 0.841 0.60799 0.0
Zn201 Zn 0.21314 0.91605 0.61816 0.0
C202 C 0.2766 0.85128 0.59563 0.0
O203 O 0.25915 0.84152 0.57917 0.0
C204 C 0.13989 0.88299 0.62544 0.0
O205 O 0.15434 0.90042 0.6415 0.0
O206 O 0.18426 0.78852 0.60125 0.0
O207 O 0.19108 0.84362 0.63519 0.0
O208 O 0.22204 0.90069 0.64327 0.0
C209 C 0.18415 0.76811 0.61452 0.0
O210 O 0.1984 0.78209 0.63131 0.0
O211 O 0.26088 0.85443 0.61042 0.0
C212 C 0.21023 0.97604 0.60517 0.0
O213 O 0.19663 0.95418 0.59044 0.0
O214 O 0.22023 0.96579 0.61994 0.0
O215 O 0.24636 0.91787 0.59797 0.0
O216 O 0.20522 0.86855 0.58479 0.0
O217 O 0.16041 0.88448 0.6118 0.0
C218 C 0.20353 0.86807 0.648 0.0
C219 C 0.23015 0.90077 0.58302 0.0
Zn220 Zn 0.70774 0.80671 0.88033 0.0
Zn221 Zn 0.64047 0.81618 0.88894 0.0
C222 C 0.75266 0.87953 0.87221 0.0
O223 O 0.75394 0.86431 0.85604 0.0
C224 C 0.5863 0.74799 0.90217 0.0
O225 O 0.59256 0.76669 0.9181 0.0
O226 O 0.7482 0.79593 0.87762 0.0
O227 O 0.67636 0.77731 0.90183 0.0
O228 O 0.67267 0.82311 0.91235 0.0
C229 C 0.76568 0.79731 0.89272 0.0
O230 O 0.75544 0.80353 0.90941 0.0
O231 O 0.73292 0.85987 0.88588 0.0
C232 C 0.58807 0.83551 0.88127 0.0
O233 O 0.58949 0.82147 0.8647 0.0
O234 O 0.60915 0.83773 0.89476 0.0
O235 O 0.66122 0.8337 0.86189 0.0
O236 O 0.68261 0.79782 0.8554 0.0
O237 O 0.60459 0.76327 0.88715 0.0
C238 C 0.67578 0.79587 0.91578 0.0
C239 C 0.67107 0.81816 0.84974 0.0
C240 C 0.02006 0.19822 0.08728 0.0
C241 C 1.00202 0.20133 0.10343 0.0
C242 C 0.05154 0.19677 0.08955 0.0
C243 C 0.09697 0.17039 0.12506 0.0
H244 H 0.17771 0.21637 0.09004 0.0
C245 C 0.22054 0.15467 0.13539 0.0
C246 C 0.23523 0.1484 0.11875 0.0
C247 C 0.19556 0.16617 0.13389 0.0
C248 C 0.15527 0.20312 0.09985 0.0
H249 H 1.00363 0.2066 0.1346 0.0
H250 H 0.05864 0.20405 0.13856 0.0
H251 H 0.12767 0.22757 0.08681 0.0
H252 H 0.23623 0.15053 0.08748 0.0
H253 H 0.19193 0.16985 0.08482 0.0
H254 H 0.12374 0.14509 0.13778 0.0
C255 C 0.0482 0.20243 0.12415 0.0
C256 C 0.12665 0.20961 0.09802 0.0
C257 C 0.0168 0.20409 0.12187 0.0
C258 C 0.22543 0.15521 0.10057 0.0
C259 C 0.20012 0.16642 0.09906 0.0
C260 C 0.12541 0.16374 0.12683 0.0
C261 C 0.06562 0.19819 0.10804 0.0
C262 C 0.09709 0.19315 0.11055 0.0
C263 C 0.18432 0.17134 0.11572 0.0
C264 C 0.15488 0.17987 0.1142 0.0
H265 H 0.00946 0.19612 0.07286 0.0
H266 H 0.06412 0.19319 0.07687 0.0
H267 H 0.07432 0.15675 0.13472 0.0
H268 H 0.22787 0.1501 0.14962 0.0
H269 H 0.18466 0.17052 0.14704 0.0
C270 C 0.19451 0.97465 0.37002 0.0
C271 C 0.20765 0.99699 0.38624 0.0
C272 C 0.16219 0.94231 0.37107 0.0
C273 C 0.07814 0.89975 0.39876 0.0
H274 H 0.05995 0.8157 0.36969 0.0
C275 C 0.93616 0.77857 0.39368 0.0
C276 C 0.92527 0.76783 0.37456 0.0
C277 C 0.97248 0.80074 0.398 0.0
C278 C 0.06467 0.83895 0.37793 0.0
H279 H 0.19824 1.00212 0.41655 0.0
H280 H 0.14226 0.94568 0.41841 0.0
H281 H 0.12079 0.86645 0.37158 0.0
H282 H 0.94388 0.76951 0.34528 0.0
H283 H 0.00681 0.80797 0.35276 0.0
H284 H 0.02197 0.87283 0.40462 0.0
C285 C 0.15643 0.95341 0.40477 0.0
C286 C 0.09946 0.86804 0.37895 0.0
C287 C 0.18858 0.98574 0.4037 0.0
C288 C 0.95143 0.77759 0.36013 0.0
C289 C 0.98759 0.79943 0.36445 0.0
C290 C 0.04341 0.87067 0.39777 0.0
C291 C 0.14248 0.93161 0.38838 0.0
C292 C 0.10645 0.89911 0.389 0.0
C293 C 0.99847 0.8122 0.38331 0.0
C294 C 0.03611 0.84029 0.38695 0.0
H295 H 0.20862 0.98259 0.35637 0.0
H296 H 0.15202 0.92636 0.35811 0.0
H297 H 0.08243 0.9234 0.40642 0.0
H298 H 0.91658 0.7714 0.40511 0.0
H299 H 0.98012 0.80985 0.41271 0.0
C300 C 0.8524 0.0594 0.13329 0.0
C301 C 0.8553 0.08147 0.11767 0.0
C302 C 0.84095 0.02326 0.13042 0.0
C303 C 0.83843 0.96193 0.09308 0.0
H304 H 0.77693 0.88832 0.12933 0.0
C305 C 0.79981 0.81514 0.08119 0.0
C306 C 0.80013 0.79582 0.09745 0.0
C307 C 0.80197 0.84832 0.08329 0.0
C308 C 0.79439 0.90858 0.11915 0.0
H309 H 0.84731 0.08254 0.08682 0.0
H310 H 0.82732 0.01933 0.0818 0.0
H311 H 0.78854 0.94928 0.13357 0.0
H312 H 0.80205 0.79588 0.12872 0.0
H313 H 0.80652 0.85411 0.1324 0.0
H314 H 0.84521 0.92175 0.07895 0.0
C315 C 0.83419 0.03014 0.09627 0.0
C316 C 0.80096 0.94351 0.12156 0.0
C317 C 0.84541 0.06629 0.09917 0.0
C318 C 0.80159 0.81 0.1159 0.0
C319 C 0.80401 0.84338 0.118 0.0
C320 C 0.83204 0.9271 0.09073 0.0
C321 C 0.8323 0.00832 0.11183 0.0
C322 C 0.82328 0.97066 0.10863 0.0
C323 C 0.8048 0.86325 0.1017 0.0
C324 C 0.81013 0.89997 0.1038 0.0
H325 H 0.85972 0.07019 0.14775 0.0
H326 H 0.84012 0.00733 0.14269 0.0
H327 H 0.85624 0.9823 0.08304 0.0
H328 H 0.79839 0.80486 0.06676 0.0
H329 H 0.80171 0.86243 0.07042 0.0
C330 C 0.22757 0.1508 0.34925 0.0
C331 C 0.24095 0.14257 0.36577 0.0
C332 C 0.20373 0.16369 0.3509 0.0
C333 C 0.1647 0.20123 0.3854 0.0
H334 H 0.08578 0.16102 0.34903 0.0
C335 C 0.03358 0.20553 0.39625 0.0
C336 C 0.01763 0.21124 0.37994 0.0
C337 C 0.06365 0.20146 0.39434 0.0
C338 C 0.10789 0.17294 0.35913 0.0
H339 H 0.24085 0.14264 0.39704 0.0
H340 H 0.19845 0.16444 0.4 0.0
H341 H 0.13301 0.1461 0.34632 0.0
H342 H 0.02147 0.2182 0.34887 0.0
H343 H 0.07404 0.21106 0.34553 0.0
H344 H 0.13874 0.22731 0.39848 0.0
C345 C 0.20683 0.16145 0.38572 0.0
C346 C 0.13509 0.16442 0.35757 0.0
C347 C 0.23107 0.14886 0.38404 0.0
C348 C 0.03305 0.21375 0.36171 0.0
C349 C 0.06304 0.20945 0.35979 0.0
C350 C 0.13731 0.20961 0.38702 0.0
C351 C 0.19225 0.16829 0.36913 0.0
C352 C 0.16387 0.17838 0.37069 0.0
C353 C 0.07841 0.20281 0.37606 0.0
C354 C 0.10852 0.19547 0.37392 0.0
H355 H 0.23504 0.1467 0.33494 0.0
H356 H 0.19388 0.16955 0.33782 0.0
H357 H 0.18663 0.21283 0.39561 0.0
H358 H 0.02246 0.20354 0.41052 0.0
H359 H 0.0746 0.19605 0.40714 0.0
C360 C 0.1936 0.98683 0.12071 0.0
C361 C 0.20622 1.00149 0.10232 0.0
C362 C 0.16038 0.95568 0.12281 0.0
C363 C 0.09007 0.87754 0.09622 0.0
H364 H 0.02691 0.87989 0.1353 0.0
C365 C 0.93711 0.77803 0.09737 0.0
C366 C 0.91982 0.768 0.11537 0.0
C367 C 0.97355 0.80364 0.0962 0.0
C368 C 0.04431 0.87837 0.12453 0.0
H369 H 0.1944 0.9941 0.07166 0.0
H370 H 0.13665 0.93991 0.07535 0.0
H371 H 0.08797 0.92926 0.13277 0.0
H372 H 0.92766 0.77548 0.1463 0.0
H373 H 0.99112 0.8192 0.14433 0.0
H374 H 0.04628 0.82668 0.08791 0.0
C375 C 0.15241 0.95237 0.08814 0.0
C376 C 0.0794 0.90679 0.12307 0.0
C377 C 0.18546 0.9836 0.08605 0.0
C378 C 0.94006 0.78292 0.13219 0.0
C379 C 0.97646 0.80822 0.13104 0.0
C380 C 0.05497 0.84895 0.09775 0.0
C381 C 0.13918 0.93835 0.10656 0.0
C382 C 0.10263 0.9069 0.10881 0.0
C383 C 0.99355 0.81958 0.11303 0.0
C384 C 0.03151 0.8491 0.11184 0.0
H385 H 0.20894 0.99991 0.13353 0.0
H386 H 0.15112 0.94532 0.13719 0.0
H387 H 0.10743 0.87664 0.0852 0.0
H388 H 0.92222 0.76712 0.08413 0.0
H389 H 0.98564 0.8119 0.08207 0.0
C390 C 0.81853 0.83743 0.40126 0.0
C391 C 0.81549 0.81876 0.3841 0.0
C392 C 0.81977 0.87036 0.40074 0.0
C393 C 0.80225 0.92954 0.36902 0.0
H394 H 0.87289 0.00462 0.40157 0.0
C395 C 0.86078 0.07923 0.35334 0.0
C396 C 0.86854 0.10283 0.3689 0.0
C397 C 0.84811 0.043 0.3566 0.0
C398 C 0.85258 0.98382 0.39263 0.0
H399 H 0.81068 0.81971 0.35297 0.0
H400 H 0.81359 0.87743 0.35202 0.0
H401 H 0.86288 0.94419 0.40455 0.0
H402 H 0.86766 0.10668 0.40009 0.0
H403 H 0.84559 0.04318 0.4058 0.0
H404 H 0.79295 0.96965 0.35666 0.0
C405 C 0.81439 0.8664 0.36593 0.0
C406 C 0.84681 0.94913 0.39433 0.0
C407 C 0.81297 0.83338 0.36645 0.0
C408 C 0.86196 0.08916 0.3878 0.0
C409 C 0.84954 0.05288 0.39107 0.0
C410 C 0.80816 0.9643 0.36726 0.0
C411 C 0.81815 0.88548 0.38305 0.0
C412 C 0.82201 0.92166 0.38233 0.0
C413 C 0.84311 0.02955 0.37551 0.0
C414 C 0.83381 0.99193 0.37883 0.0
H415 H 0.82019 0.82674 0.41512 0.0
H416 H 0.8221 0.88403 0.41423 0.0
H417 H 0.78245 0.90891 0.35981 0.0
H418 H 0.86542 0.0889 0.3386 0.0
H419 H 0.84373 0.02582 0.3443 0.0
C420 C 0.21974 0.03201 0.62144 0.0
C421 C 0.21203 0.01113 0.60469 0.0
C422 C 0.21869 0.06385 0.62113 0.0
C423 C 0.17718 0.10732 0.59405 0.0
H424 H 0.23976 0.18915 0.62551 0.0
C425 C 0.1558 0.2284 0.60034 0.0
C426 C 0.15432 0.23816 0.61952 0.0
C427 C 0.16969 0.20595 0.59612 0.0
C428 C 0.22212 0.16652 0.61663 0.0
H429 H 0.19893 0.00817 0.57424 0.0
H430 H 0.19761 0.06381 0.57366 0.0
H431 H 0.25112 0.13932 0.62276 0.0
H432 H 0.16837 0.23409 0.64911 0.0
H433 H 0.1925 0.19522 0.64178 0.0
H434 H 0.14766 0.13405 0.58831 0.0
C435 C 0.20368 0.05527 0.58714 0.0
C436 C 0.22854 0.13792 0.61511 0.0
C437 C 0.20457 0.02341 0.58747 0.0
C438 C 0.16892 0.22685 0.63419 0.0
C439 C 0.18303 0.20476 0.62997 0.0
C440 C 0.17083 0.13594 0.59553 0.0
C441 C 0.21009 0.07558 0.60404 0.0
C442 C 0.20568 0.10762 0.60413 0.0
C443 C 0.1827 0.19324 0.61097 0.0
C444 C 0.19274 0.16551 0.60718 0.0
H445 H 0.22556 0.02327 0.63492 0.0
H446 H 0.22337 0.07859 0.63447 0.0
H447 H 0.15872 0.08426 0.58568 0.0
H448 H 0.14477 0.23672 0.58872 0.0
H449 H 0.16942 0.1978 0.5813 0.0
C450 C 0.06593 0.85432 0.86145 0.0
C451 C 0.08791 0.85768 0.87723 0.0
C452 C 0.02931 0.84114 0.86401 0.0
C453 C 0.96507 0.83447 0.90056 0.0
H454 H 0.89454 0.77277 0.86301 0.0
C455 C 0.81657 0.79445 0.90834 0.0
C456 C 0.79915 0.79567 0.89143 0.0
C457 C 0.84989 0.79639 0.90737 0.0
C458 C 0.91391 0.79021 0.87356 0.0
H459 H 0.08849 0.84885 0.908 0.0
H460 H 0.02429 0.82592 0.9125 0.0
H461 H 0.95643 0.78603 0.86007 0.0
H462 H 0.80259 0.79877 0.8602 0.0
H463 H 0.861 0.80282 0.8585 0.0
H464 H 0.92306 0.83971 0.91371 0.0
C465 C 0.03556 0.83367 0.89816 0.0
C466 C 0.94936 0.79771 0.8719 0.0
C467 C 0.07226 0.8466 0.89557 0.0
C468 C 0.81524 0.79764 0.87349 0.0
C469 C 0.84871 0.7998 0.87252 0.0
C470 C 0.9297 0.82713 0.90217 0.0
C471 C 0.01377 0.8312 0.88243 0.0
C472 C 0.97545 0.82034 0.88523 0.0
C473 C 0.86675 0.79981 0.88947 0.0
C474 C 0.90374 0.8053 0.88854 0.0
H475 H 0.0771 0.86249 0.84711 0.0
H476 H 0.0134 0.83995 0.85163 0.0
H477 H 0.98462 0.85241 0.9109 0.0
H478 H 0.80475 0.79262 0.9224 0.0
H479 H 0.86263 0.7956 0.92069 0.0
C480 C 0.78308 0.92294 0.63972 0.0
C481 C 0.77085 0.90093 0.62335 0.0
C482 C 0.8071 0.9594 0.63789 0.0
C483 C 0.84961 0.03461 0.60288 0.0
H484 H 0.92617 0.07192 0.64069 0.0
C485 C 0.98323 0.16802 0.59396 0.0
C486 C 0.99768 0.18933 0.6105 0.0
C487 C 0.95267 0.13427 0.59531 0.0
C488 C 0.90474 0.06211 0.63018 0.0
H489 H 0.77288 0.90002 0.59211 0.0
H490 H 0.81572 0.96381 0.58887 0.0
H491 H 0.87787 0.01058 0.64325 0.0
H492 H 0.99064 0.1924 0.64131 0.0
H493 H 0.93734 0.13353 0.64365 0.0
H494 H 0.87741 0.08627 0.58956 0.0
C495 C 0.80631 0.95297 0.60314 0.0
C496 C 0.87693 0.02689 0.63165 0.0
C497 C 0.78184 0.91641 0.60498 0.0
C498 C 0.98032 0.17659 0.62831 0.0
C499 C 0.94988 0.1428 0.62967 0.0
C500 C 0.87766 0.06992 0.60134 0.0
C501 C 0.81992 0.97473 0.61964 0.0
C502 C 0.84894 0.01264 0.61806 0.0
C503 C 0.93601 0.12105 0.61323 0.0
C504 C 0.90551 0.08402 0.615 0.0
H505 H 0.77465 0.91185 0.65406 0.0
H506 H 0.81619 0.97547 0.65086 0.0
H507 H 0.82834 0.02463 0.59227 0.0
H508 H 0.99589 0.1771 0.58 0.0
H509 H 0.94281 0.11805 0.58241 0.0
C510 C 0.15795 0.21599 0.8644 0.0
C511 C 0.15275 0.23334 0.88018 0.0
C512 C 0.17055 0.19217 0.86717 0.0
C513 C 0.17187 0.13129 0.90338 0.0
H514 H 0.23738 0.12427 0.86764 0.0
C515 C 0.20907 0.02091 0.91124 0.0
C516 C 0.20961 0.00363 0.89416 0.0
C517 C 0.20759 0.05248 0.91053 0.0
C518 C 0.21886 0.1257 0.87767 0.0
H519 H 0.15778 0.24013 0.91124 0.0
H520 H 0.17972 0.19818 0.91612 0.0
H521 H 0.22545 0.17369 0.86478 0.0
H522 H 0.21006 0.00656 0.8629 0.0
H523 H 0.20683 0.06125 0.86163 0.0
H524 H 0.16429 0.08278 0.91591 0.0
C525 C 0.17385 0.203 0.90159 0.0
C526 C 0.21212 0.15409 0.87607 0.0
C527 C 0.1615 0.22716 0.89879 0.0
C528 C 0.20978 0.01925 0.87633 0.0
C529 C 0.2081 0.05075 0.87562 0.0
C530 C 0.17847 0.10281 0.90493 0.0
C531 C 0.17807 0.1849 0.88582 0.0
C532 C 0.18813 0.15692 0.88872 0.0
C533 C 0.20643 0.06748 0.89271 0.0
C534 C 0.20165 0.09934 0.89193 0.0
H535 H 0.1516 0.22025 0.84986 0.0
H536 H 0.17312 0.17842 0.85473 0.0
H537 H 0.15286 0.13239 0.91319 0.0
H538 H 0.20922 0.00976 0.92523 0.0
H539 H 0.20702 0.06495 0.92398 0.0
C540 C 0.07882 0.85524 0.63975 0.0
C541 C 0.10053 0.86429 0.62323 0.0
C542 C 0.04196 0.84135 0.63809 0.0
C543 C 0.96545 0.80278 0.60362 0.0
H544 H 0.92558 0.84147 0.64024 0.0
C545 C 0.82904 0.79673 0.59332 0.0
C546 C 0.80754 0.79077 0.60973 0.0
C547 C 0.86323 0.80087 0.59506 0.0
C548 C 0.9361 0.82995 0.63009 0.0
H549 H 0.1005 0.86457 0.59196 0.0
H550 H 0.03597 0.84106 0.58899 0.0
H551 H 0.98805 0.85759 0.64282 0.0
H552 H 0.80461 0.78317 0.64076 0.0
H553 H 0.86437 0.7904 0.64379 0.0
H554 H 0.91336 0.77596 0.5906 0.0
C555 C 0.04739 0.84417 0.60327 0.0
C556 C 0.972 0.83916 0.63156 0.0
C557 C 0.08439 0.85774 0.60494 0.0
C558 C 0.82053 0.78784 0.62785 0.0
C559 C 0.85483 0.79219 0.62959 0.0
C560 C 0.92947 0.79371 0.60208 0.0
C561 C 0.02585 0.8366 0.61986 0.0
C562 C 0.98722 0.82575 0.61836 0.0
C563 C 0.87679 0.79932 0.61325 0.0
C564 C 0.91443 0.80728 0.61529 0.0
H565 H 0.09042 0.85949 0.65405 0.0
H566 H 0.02617 0.83491 0.65117 0.0
H567 H 0.97612 0.79163 0.59334 0.0
H568 H 0.81981 0.79902 0.57913 0.0
H569 H 0.87954 0.80662 0.58221 0.0
C570 C 0.9914 0.19271 0.87382 0.0
C571 C 1.00553 0.20528 0.8923 0.0
C572 C 0.96072 0.15928 0.87153 0.0
C573 C 0.88261 0.0873 0.89729 0.0
H574 H 0.88868 0.02687 0.85791 0.0
C575 C 0.78454 0.93428 0.89303 0.0
C576 C 0.77601 0.91853 0.87462 0.0
C577 C 0.80978 0.9706 0.89511 0.0
C578 C 0.88613 0.04349 0.86876 0.0
H579 H 0.99759 0.19319 0.92293 0.0
H580 H 0.94412 0.13491 0.91888 0.0
H581 H 0.93713 0.08798 0.86143 0.0
H582 H 0.78554 0.92891 0.84394 0.0
H583 H 0.82852 0.99207 0.84751 0.0
H584 H 0.83155 0.0426 0.90467 0.0
C585 C 0.95669 0.15093 0.90618 0.0
C586 C 0.91402 0.0786 0.87079 0.0
C587 C 0.98748 0.18427 0.90847 0.0
C588 C 0.7919 0.94012 0.85835 0.0
C589 C 0.81676 0.97635 0.86041 0.0
C590 C 0.85451 0.05213 0.8952 0.0
C591 C 0.94334 0.13775 0.88766 0.0
C592 C 0.9127 0.10091 0.88511 0.0
C593 C 0.82675 0.99193 0.87882 0.0
C594 C 0.85597 0.02972 0.88092 0.0
H595 H 1.00457 0.20825 0.86107 0.0
H596 H 0.95081 0.15009 0.85708 0.0
H597 H 0.88067 0.10394 0.90837 0.0
H598 H 0.77278 0.9183 0.90585 0.0
H599 H 0.81695 0.98159 0.90953 0.0
C600 C 0.3485 0.1242 0.30874 0.0
C601 C 0.3499 0.1491 0.32224 0.0
C602 C 0.35475 0.13299 0.28926 0.0
C603 C 0.34807 0.18824 0.25216 0.0
H604 H 0.40535 0.15803 0.22313 0.0
C605 C 0.35614 0.19121 0.16812 0.0
C606 C 0.34956 0.15847 0.16027 0.0
C607 C 0.36232 0.19775 0.18795 0.0
C608 C 0.38941 0.16678 0.23105 0.0
H609 H 0.35882 0.20281 0.32585 0.0
H610 H 0.36917 0.21799 0.29143 0.0
H611 H 0.40508 0.15569 0.2583 0.0
H612 H 0.34481 0.1072 0.16701 0.0
H613 H 0.35548 0.11857 0.20129 0.0
H614 H 0.33112 0.19772 0.22476 0.0
C615 C 0.36346 0.19176 0.29613 0.0
C616 C 0.38928 0.16546 0.25114 0.0
C617 C 0.35762 0.18308 0.31578 0.0
C618 C 0.34973 0.13269 0.17255 0.0
C619 C 0.35618 0.13933 0.19221 0.0
C620 C 0.34814 0.18949 0.23196 0.0
C621 C 0.36228 0.1668 0.28274 0.0
C622 C 0.36757 0.17487 0.26185 0.0
C623 C 0.36251 0.17185 0.20014 0.0
C624 C 0.36774 0.17742 0.22125 0.0
H625 H 0.3427 0.09783 0.31322 0.0
H626 H 0.35307 0.11302 0.2792 0.0
H627 H 0.33105 0.19558 0.26011 0.0
H628 H 0.35618 0.2116 0.159 0.0
H629 H 0.36712 0.22305 0.19373 0.0
C630 C 0.81057 0.63882 0.3115 0.0
C631 C 0.81787 0.67181 0.31928 0.0
C632 C 0.81288 0.63506 0.29156 0.0
C633 C 0.83382 0.63958 0.24862 0.0
H634 H 0.79295 0.68639 0.21868 0.0
C635 C 0.84291 0.65552 0.16482 0.0
C636 C 0.81293 0.65348 0.15555 0.0
C637 C 0.84381 0.6537 0.18498 0.0
C638 C 0.80414 0.67283 0.2268 0.0
H639 H 0.8359 0.72728 0.31254 0.0
H640 H 0.8405 0.72087 0.27804 0.0
H641 H 0.7953 0.69163 0.2535 0.0
H642 H 0.75937 0.64497 0.15985 0.0
H643 H 0.76062 0.641 0.19477 0.0
H644 H 0.84193 0.62026 0.2216 0.0
C645 C 0.83194 0.69764 0.28716 0.0
C646 C 0.80597 0.67627 0.24677 0.0
C647 C 0.82934 0.70131 0.30695 0.0
C648 C 0.78314 0.64739 0.16663 0.0
C649 C 0.78388 0.64519 0.18664 0.0
C650 C 0.83197 0.6361 0.22848 0.0
C651 C 0.82273 0.66429 0.27917 0.0
C652 C 0.82098 0.65991 0.25792 0.0
C653 C 0.81463 0.64952 0.19609 0.0
C654 C 0.81693 0.65261 0.2174 0.0
H655 H 0.80181 0.61566 0.32069 0.0
H656 H 0.80554 0.609 0.28579 0.0
H657 H 0.84564 0.62678 0.25687 0.0
H658 H 0.86619 0.66008 0.15658 0.0
H659 H 0.8679 0.65719 0.19189 0.0
C660 C 0.813 0.16189 0.17036 0.0
C661 C 0.84569 0.18753 0.16215 0.0
C662 C 0.80701 0.16231 0.19022 0.0
C663 C 0.83924 0.22194 0.23254 0.0
H664 H 0.81217 0.13662 0.26275 0.0
C665 C 0.8851 0.22776 0.30998 0.0
C666 C 0.86097 0.20444 0.32383 0.0
C667 C 0.87543 0.2244 0.29059 0.0
C668 C 0.81902 0.16047 0.25449 0.0
H669 H 0.89745 0.23392 0.16827 0.0
H670 H 0.88699 0.23462 0.20259 0.0
H671 H 0.80863 0.13283 0.22746 0.0
H672 H 0.80766 0.15924 0.3282 0.0
H673 H 0.79095 0.15303 0.29398 0.0
H674 H 0.8512 0.2499 0.25941 0.0
C675 C 0.86588 0.21435 0.19377 0.0
C676 C 0.81697 0.1583 0.23432 0.0
C677 C 0.87198 0.21372 0.1741 0.0
C678 C 0.82683 0.17763 0.31784 0.0
C679 C 0.81727 0.174 0.29831 0.0
C680 C 0.84133 0.2241 0.25261 0.0
C681 C 0.83341 0.18871 0.20206 0.0
C682 C 0.82844 0.1893 0.22318 0.0
C683 C 0.8415 0.1975 0.28454 0.0
C684 C 0.83258 0.19367 0.26373 0.0
H685 H 0.79224 0.14136 0.1615 0.0
H686 H 0.78176 0.14222 0.1963 0.0
H687 H 0.84757 0.24613 0.22429 0.0
H688 H 0.91157 0.24874 0.31409 0.0
H689 H 0.89487 0.24251 0.28025 0.0
C690 C 0.18332 0.36383 0.67892 0.0
C691 C 0.15 0.33603 0.67256 0.0
C692 C 0.1935 0.36568 0.69827 0.0
C693 C 0.17242 0.31004 0.74217 0.0
H694 H 0.20344 0.39813 0.77042 0.0
C695 C 0.13837 0.31416 0.82083 0.0
C696 C 0.16491 0.33805 0.83351 0.0
C697 C 0.14547 0.31484 0.8012 0.0
C698 C 0.19561 0.37358 0.76264 0.0
H699 H 0.10144 0.28825 0.68153 0.0
H700 H 0.11901 0.29167 0.71501 0.0
H701 H 0.19943 0.39804 0.73516 0.0
H702 H 0.21985 0.38117 0.83568 0.0
H703 H 0.23194 0.38309 0.80089 0.0
H704 H 0.1665 0.28517 0.76969 0.0
C705 C 0.1375 0.31181 0.70508 0.0
C706 C 0.19331 0.37351 0.7425 0.0
C707 C 0.12726 0.31009 0.68589 0.0
C708 C 0.19893 0.36245 0.82619 0.0
C709 C 0.20584 0.36361 0.80637 0.0
C710 C 0.17453 0.31009 0.76224 0.0
C711 C 0.17071 0.33952 0.7115 0.0
C712 C 0.18023 0.3414 0.73217 0.0
C713 C 0.1791 0.33974 0.79375 0.0
C714 C 0.18477 0.34155 0.77267 0.0
H715 H 0.2015 0.38418 0.66902 0.0
H716 H 0.21925 0.38734 0.70285 0.0
H717 H 0.16306 0.28508 0.73453 0.0
H718 H 0.11197 0.2949 0.82607 0.0
H719 H 0.12425 0.29646 0.79172 0.0
C720 C 0.16513 0.81396 0.82254 0.0
C721 C 0.18102 0.84869 0.83019 0.0
C722 C 0.15897 0.80835 0.80266 0.0
C723 C 0.14945 0.85078 0.75867 0.0
H724 H 0.19047 0.80126 0.73139 0.0
C725 C 0.2007 0.88614 0.68182 0.0
C726 C 0.19397 0.85896 0.66853 0.0
C727 C 0.19138 0.87808 0.70115 0.0
C728 C 0.17817 0.81448 0.73881 0.0
H729 H 0.20204 0.90458 0.8231 0.0
H730 H 0.19116 0.89477 0.78869 0.0
H731 H 0.18728 0.79891 0.7667 0.0
H732 H 0.17215 0.8019 0.66514 0.0
H733 H 0.15633 0.78788 0.69929 0.0
H734 H 0.14174 0.86766 0.73095 0.0
C735 C 0.18339 0.87187 0.79797 0.0
C736 C 0.17634 0.81313 0.75899 0.0
C737 C 0.18994 0.87751 0.81768 0.0
C738 C 0.17771 0.82343 0.67505 0.0
C739 C 0.16869 0.81539 0.69455 0.0
C740 C 0.15125 0.85211 0.73858 0.0
C741 C 0.16801 0.83732 0.79023 0.0
C742 C 0.16328 0.83248 0.76909 0.0
C743 C 0.17528 0.84269 0.70774 0.0
C744 C 0.16695 0.83519 0.72852 0.0
H745 H 0.15794 0.79122 0.83184 0.0
H746 H 0.14709 0.78146 0.79701 0.0
H747 H 0.13863 0.86536 0.76611 0.0
H748 H 0.21307 0.91378 0.67732 0.0
H749 H 0.19738 0.89976 0.71106 0.0
C750 C 0.65172 0.82749 0.67351 0.0
C751 C 0.67001 0.80979 0.6675 0.0
C752 C 0.65244 0.83694 0.69291 0.0
C753 C 0.70526 0.85392 0.73727 0.0
H754 H 0.61591 0.81961 0.76512 0.0
C755 C 0.69162 0.81642 0.81639 0.0
C756 C 0.67172 0.82551 0.82887 0.0
C757 C 0.69251 0.82283 0.79667 0.0
C758 C 0.64111 0.83011 0.75748 0.0
H759 H 0.70373 0.78859 0.67705 0.0
H760 H 0.70514 0.80524 0.71063 0.0
H761 H 0.61534 0.81575 0.72981 0.0
H762 H 0.63722 0.84867 0.83042 0.0
H763 H 0.6383 0.85933 0.79552 0.0
H764 H 0.73095 0.86687 0.76484 0.0
C765 C 0.69034 0.8119 0.70041 0.0
C766 C 0.64077 0.82788 0.73731 0.0
C767 C 0.68923 0.80207 0.68118 0.0
C768 C 0.65279 0.84139 0.82114 0.0
C769 C 0.65334 0.84743 0.80123 0.0
C770 C 0.7056 0.85622 0.75733 0.0
C771 C 0.672 0.82942 0.70648 0.0
C772 C 0.67273 0.8384 0.72714 0.0
C773 C 0.67335 0.83828 0.78885 0.0
C774 C 0.67342 0.84295 0.76768 0.0
H775 H 0.6367 0.83382 0.66328 0.0
H776 H 0.63804 0.85038 0.69728 0.0
H777 H 0.73033 0.86285 0.72972 0.0
H778 H 0.70665 0.80432 0.82184 0.0
H779 H 0.70766 0.81491 0.78745 0.0
C780 C 0.1922 0.8994 0.9467 0.0
C781 C 0.2188 0.89649 0.93654 0.0
C782 C 0.20154 0.92253 0.96252 0.0
C783 C 0.27109 0.97145 -0.00137 0.0
H784 H 0.24841 0.04729 0.99271 0.0
C785 C 0.34216 0.0953 0.04547 0.0
C786 C 0.32109 0.10815 0.05368 0.0
C787 C 0.32907 0.07127 0.03014 0.0
C788 C 0.2546 0.02611 0.99473 0.0
H789 H 0.27518 0.9132 0.93533 0.0
H790 H 0.29126 0.95219 0.96347 0.0
H791 H 0.22316 0.99693 0.97022 0.0
H792 H 0.27078 0.10773 0.05203 0.0
H793 H 0.24722 0.06488 0.02541 0.0
H794 H 0.30213 0.99992 0.02312 0.0
C795 C 0.26341 0.93717 0.95916 0.0
C796 C 0.24003 0.99725 0.98191 0.0
C797 C 0.25425 0.91484 0.94314 0.0
C798 C 0.2877 0.09861 0.04557 0.0
C799 C 0.27421 0.07391 0.03042 0.0
C800 C 0.28528 0.99996 0.01154 0.0
C801 C 0.23739 0.94217 0.96857 0.0
C802 C 0.24868 0.97002 0.98358 0.0
C803 C 0.29417 0.05879 0.02311 0.0
C804 C 0.27788 0.02808 0.00952 0.0
H805 H 0.16481 0.88593 0.94156 0.0
H806 H 0.18106 0.92595 0.96962 0.0
H807 H 0.27793 0.95063 0.00027 0.0
H808 H 0.36788 0.10217 0.05169 0.0
H809 H 0.34565 0.06108 0.02445 0.0
C810 C 0.78099 0.68032 0.43995 0.0
C811 C 0.77323 0.69044 0.42212 0.0
C812 C 0.77081 0.68966 0.4572 0.0
C813 C 0.74742 0.7538 0.47785 0.0
H814 H 0.69779 0.68105 0.51677 0.0
C815 C 0.68367 0.77812 0.54584 0.0
C816 C 0.68779 0.76367 0.56316 0.0
C817 C 0.69336 0.76936 0.52821 0.0
C818 C 0.71198 0.70183 0.50615 0.0
H819 H 0.74887 0.71844 0.40846 0.0
H820 H 0.73165 0.73486 0.43842 0.0
H821 H 0.71833 0.6661 0.48732 0.0
H822 H 0.70572 0.72901 0.57556 0.0
H823 H 0.7232 0.71471 0.54525 0.0
H824 H 0.7416 0.78973 0.49679 0.0
C825 C 0.74564 0.71988 0.43909 0.0
C826 C 0.72375 0.69321 0.48931 0.0
C827 C 0.75536 0.71023 0.42192 0.0
C828 C 0.70182 0.74045 0.5625 0.0
C829 C 0.71168 0.73199 0.54504 0.0
C830 C 0.73592 0.76254 0.4948 0.0
C831 C 0.75311 0.7096 0.4569 0.0
C832 C 0.74161 0.7191 0.47501 0.0
C833 C 0.70745 0.74613 0.52766 0.0
C834 C 0.7182 0.73667 0.50919 0.0
H835 H 0.79464 0.66501 0.44056 0.0
H836 H 0.77702 0.68155 0.47079 0.0
H837 H 0.76134 0.77434 0.46707 0.0
H838 H 0.6729 0.79604 0.54589 0.0
H839 H 0.6895 0.78049 0.51502 0.0
C840 C 0.10491 0.29316 0.94884 0.0
C841 C 0.10766 0.32241 0.93857 0.0
C842 C 0.08105 0.27889 0.96437 0.0
C843 C 0.02997 0.29822 -0.00024 0.0
H844 H 0.95602 0.19906 0.99421 0.0
C845 C 0.90594 0.24276 0.04704 0.0
C846 C 0.89404 0.20912 0.05528 0.0
C847 C 0.92984 0.25418 0.03159 0.0
C848 C 0.97667 0.22663 -0.00388 0.0
H849 H 0.08964 0.36094 0.93677 0.0
H850 H 0.04929 0.33718 0.96442 0.0
H851 H 0.00664 0.22501 0.97178 0.0
H852 H 0.89602 0.16019 0.05357 0.0
H853 H 0.93871 0.18036 0.02679 0.0
H854 H 1.00082 0.30015 0.02415 0.0
C855 C 0.06506 0.32496 0.96043 0.0
C856 C 1.00567 0.2414 0.98333 0.0
C857 C 0.08815 0.33861 0.9447 0.0
C858 C 0.9044 0.186 0.04709 0.0
C859 C 0.929 0.1977 0.03184 0.0
C860 C 1.00133 0.28342 0.01266 0.0
C861 C 0.06044 0.29433 0.97002 0.0
C862 C 0.03225 0.27747 0.98489 0.0
C863 C 0.94318 0.23257 0.02449 0.0
C864 C 0.9739 0.24764 0.0108 0.0
H865 H 0.11925 0.2799 0.94405 0.0
H866 H 0.07794 0.25529 0.97161 0.0
H867 H 0.0503 0.32603 0.00132 0.0
H868 H 0.89845 0.26108 0.05333 0.0
H869 H 0.93926 0.28073 0.02588 0.0
C870 C 0.32433 0.10297 0.44409 0.0
C871 C 0.32046 0.08605 0.42625 0.0
C872 C 0.31274 0.08273 0.46111 0.0
C873 C 0.2888 0.99278 0.47998 0.0
H874 H 0.2467 0.01823 0.52212 0.0
C875 C 0.22402 0.90258 0.54696 0.0
C876 C 0.23761 0.92035 0.56456 0.0
C877 C 0.23177 0.92203 0.52972 0.0
C878 C 0.25837 0.01086 0.5104 0.0
H879 H 0.3004 0.03456 0.41221 0.0
H880 H 0.27909 0.99976 0.44135 0.0
H881 H 0.26567 0.05482 0.4929 0.0
H882 H 0.2696 0.97246 0.5779 0.0
H883 H 0.28229 0.00596 0.54806 0.0
H884 H 0.281 0.94855 0.49744 0.0
C885 C 0.29219 0.02854 0.44253 0.0
C886 C 0.26952 0.03194 0.49376 0.0
C887 C 0.30426 0.04863 0.42572 0.0
C888 C 0.25868 0.95782 0.5646 0.0
C889 C 0.26579 0.97716 0.54754 0.0
C890 C 0.2772 0.97147 0.49648 0.0
C891 C 0.29671 0.04523 0.46049 0.0
C892 C 0.28501 0.02323 0.47836 0.0
C893 C 0.25261 0.95951 0.52994 0.0
C894 C 0.26212 0.98045 0.51187 0.0
H895 H 0.33676 0.13175 0.44493 0.0
H896 H 0.31693 0.0965 0.47475 0.0
H897 H 0.30133 0.98563 0.46861 0.0
H898 H 0.20778 0.87376 0.54649 0.0
H899 H 0.22134 0.90788 0.51625 0.0
C900 C 0.76588 0.66344 0.03901 0.0
C901 C 0.79864 0.68379 0.04849 0.0
C902 C 0.75722 0.67733 0.02306 0.0
C903 C 0.77058 0.76168 0.00589 0.0
H904 H 0.72245 0.70821 0.95991 0.0
C905 C 0.71605 0.81436 0.94446 0.0
C906 C 0.68535 0.78849 0.93486 0.0
C907 C 0.73174 0.80405 0.95896 0.0
C908 C 0.73542 0.72333 0.9728 0.0
H909 H 0.84858 0.73394 0.04874 0.0
H910 H 0.83321 0.75872 0.02078 0.0
H911 H 0.74977 0.6848 0.98195 0.0
H912 H 0.64485 0.73264 0.93391 0.0
H913 H 0.67075 0.71494 0.9599 0.0
H914 H 0.75504 0.79961 -0.0029 0.0
C915 C 0.81453 0.73183 0.02552 0.0
C916 C 0.75138 0.71006 0.98528 0.0
C917 C 0.82351 0.71755 0.04127 0.0
C918 C 0.66861 0.75298 0.94115 0.0
C919 C 0.68382 0.74282 0.95579 0.0
C920 C 0.75426 0.77487 0.99346 0.0
C921 C 0.78087 0.71218 0.01665 0.0
C922 C 0.76857 0.72876 0.0021 0.0
C923 C 0.71658 0.76784 0.96414 0.0
C924 C 0.73578 0.75539 0.97699 0.0
H925 H 0.74608 0.63766 0.04468 0.0
H926 H 0.73097 0.66175 0.01661 0.0
H927 H 0.78334 0.77641 0.01892 0.0
H928 H 0.72967 0.84183 0.93956 0.0
H929 H 0.75694 0.82401 0.96514 0.0
C930 C 0.04589 0.29661 0.56996 0.0
C931 C 0.08355 0.31603 0.56978 0.0
C932 C 0.02658 0.28654 0.55278 0.0
C933 C 0.03217 0.3117 0.50222 0.0
H934 H 0.95233 0.21562 0.49538 0.0
C935 C 0.96402 0.26283 0.42898 0.0
C936 C 0.92664 0.24053 0.42821 0.0
C937 C 0.982 0.27144 0.44654 0.0
C938 C 0.97418 0.24269 0.49719 0.0
H939 H 0.13048 0.34019 0.55138 0.0
H940 H 0.09645 0.32288 0.52112 0.0
H941 H 0.9871 0.23145 0.52524 0.0
H942 H 0.8788 0.20983 0.44538 0.0
H943 H 0.91041 0.22561 0.47641 0.0
H944 H 0.01912 0.32329 0.47441 0.0
C945 C 0.08207 0.31544 0.5347 0.0
C946 C 0.9942 0.25168 0.51422 0.0
C947 C 0.10151 0.32521 0.55197 0.0
C948 C 0.9076 0.22704 0.44552 0.0
C949 C 0.92572 0.23594 0.46324 0.0
C950 C 0.01202 0.30283 0.48529 0.0
C951 C 0.04441 0.29598 0.53498 0.0
C952 C 0.02353 0.28621 0.51683 0.0
C953 C 0.96316 0.25836 0.46391 0.0
C954 C 0.98301 0.26813 0.48248 0.0
H955 H 0.03114 0.28907 0.58343 0.0
H956 H 0.9976 0.27192 0.55343 0.0
H957 H 0.05419 0.3387 0.50402 0.0
H958 H 0.9797 0.27347 0.41595 0.0
H959 H 0.01088 0.28806 0.44645 0.0
C960 C 0.7012 0.15452 0.08986 0.0
C961 C 0.71515 0.15594 0.10839 0.0
C962 C 0.66674 0.1497 0.08762 0.0
C963 C 0.59973 0.16196 0.11496 0.0
H964 H 0.53707 0.11033 0.07224 0.0
C965 C 0.45881 0.14477 0.10866 0.0
C966 C 0.45001 0.15279 0.09051 0.0
C967 C 0.48875 0.14052 0.11081 0.0
C968 C 0.55436 0.12495 0.08421 0.0
H969 H 0.70317 0.15132 0.13901 0.0
H970 H 0.64302 0.14193 0.13511 0.0
H971 H 0.59384 0.11105 0.07603 0.0
H972 H 0.46482 0.16098 0.06022 0.0
H973 H 0.51701 0.15356 0.064 0.0
H974 H 0.56046 0.176 0.1231 0.0
C975 C 0.65893 0.14565 0.1223 0.0
C976 C 0.58694 0.12545 0.08636 0.0
C977 C 0.69338 0.1508 0.12454 0.0
C978 C 0.47093 0.15496 0.07443 0.0
C979 C 0.50074 0.1505 0.07656 0.0
C980 C 0.56716 0.16127 0.11288 0.0
C981 C 0.64544 0.14592 0.10385 0.0
C982 C 0.61012 0.14411 0.10173 0.0
C983 C 0.51043 0.14397 0.09484 0.0
C984 C 0.54416 0.14292 0.09744 0.0
H985 H 0.71739 0.15852 0.07713 0.0
H986 H 0.65739 0.15033 0.0732 0.0
H987 H 0.61717 0.17731 0.12673 0.0
H988 H 0.44319 0.14278 0.12134 0.0
H989 H 0.49523 0.13501 0.12504 0.0
C990 C 0.67808 0.53791 0.37598 0.0
C991 C 0.69625 0.54836 0.39372 0.0
C992 C 0.64485 0.50677 0.37464 0.0
C993 C 0.56785 0.43919 0.40287 0.0
H994 H 0.55858 0.37759 0.35996 0.0
C995 C 0.45647 0.29012 0.39736 0.0
C996 C 0.44367 0.27658 0.37883 0.0
C997 C 0.48456 0.32523 0.39969 0.0
C998 C 0.56035 0.39466 0.37186 0.0
H999 H 0.693 0.53507 0.42414 0.0
H1000 H 0.63499 0.48053 0.42174 0.0
H1001 H 0.61232 0.43544 0.36301 0.0
H1002 H 0.44838 0.28982 0.34837 0.0
H1003 H 0.49642 0.35101 0.35245 0.0
H1004 H 0.51576 0.39801 0.41176 0.0
C1005 C 0.64643 0.49656 0.4089 0.0
C1006 C 0.59126 0.42786 0.37361 0.0
C1007 C 0.67977 0.52771 0.41024 0.0
C1008 C 0.45803 0.29932 0.36282 0.0
C1009 C 0.48574 0.33437 0.36515 0.0
C1010 C 0.53672 0.40588 0.40107 0.0
C1011 C 0.62896 0.48539 0.39101 0.0
C1012 C 0.59541 0.45054 0.38911 0.0
C1013 C 0.50012 0.34745 0.38353 0.0
C1014 C 0.53262 0.38324 0.38551 0.0
H1015 H 0.68988 0.55332 0.36299 0.0
H1016 H 0.63177 0.49917 0.3607 0.0
H1017 H 0.57022 0.4562 0.41492 0.0
H1018 H 0.44594 0.27315 0.40996 0.0
H1019 H 0.4951 0.3344 0.41404 0.0
C1020 C 0.84967 0.30987 0.07315 0.0
C1021 C 0.84838 0.29163 0.0902 0.0
C1022 C 0.85413 0.34419 0.07388 0.0
C1023 C 0.87956 0.42196 0.1065 0.0
H1024 H 0.82082 0.44091 0.07144 0.0
C1025 C 0.84529 0.53374 0.11879 0.0
C1026 C 0.84408 0.553 0.10272 0.0
C1027 C 0.85092 0.5048 0.11641 0.0
C1028 C 0.83784 0.43631 0.08113 0.0
H1029 H 0.85178 0.29557 0.12141 0.0
H1030 H 0.85875 0.3551 0.12275 0.0
H1031 H 0.82109 0.38488 0.06903 0.0
H1032 H 0.8488 0.55751 0.07155 0.0
H1033 H 0.85847 0.50669 0.06739 0.0
H1034 H 0.89532 0.47309 0.11897 0.0
C1035 C 0.85694 0.3432 0.10874 0.0
C1036 C 0.83805 0.40414 0.07975 0.0
C1037 C 0.85277 0.30894 0.108 0.0
C1038 C 0.84959 0.54323 0.08423 0.0
C1039 C 0.85491 0.51401 0.08183 0.0
C1040 C 0.87915 0.45406 0.10795 0.0
C1041 C 0.8571 0.36107 0.0917 0.0
C1042 C 0.85864 0.39633 0.09253 0.0
C1043 C 0.85521 0.4942 0.0979 0.0
C1044 C 0.85799 0.46145 0.09541 0.0
H1045 H 0.84676 0.29745 0.05918 0.0
H1046 H 0.85492 0.35735 0.06044 0.0
H1047 H 0.89623 0.41721 0.11636 0.0
H1048 H 0.84122 0.54058 0.13325 0.0
H1049 H 0.85063 0.48993 0.12907 0.0
C1050 C 0.48077 0.15465 0.41061 0.0
C1051 C 0.46019 0.1511 0.39412 0.0
C1052 C 0.51279 0.15394 0.40905 0.0
C1053 C 0.58387 0.17268 0.37399 0.0
H1054 H 0.61452 0.1263 0.41121 0.0
C1055 C 0.71582 0.17283 0.36346 0.0
C1056 C 0.73768 0.17913 0.37972 0.0
C1057 C 0.68055 0.1654 0.36552 0.0
C1058 C 0.60651 0.13969 0.4008 0.0
H1059 H 0.45649 0.14269 0.36315 0.0
H1060 H 0.51232 0.1414 0.36044 0.0
H1061 H 0.55511 0.12014 0.41413 0.0
H1062 H 0.73925 0.18136 0.41097 0.0
H1063 H 0.67761 0.16909 0.41461 0.0
H1064 H 0.63523 0.19297 0.36089 0.0
C1065 C 0.50386 0.14511 0.37456 0.0
C1066 C 0.57243 0.13607 0.40245 0.0
C1067 C 0.47175 0.14564 0.37613 0.0
C1068 C 0.72303 0.17655 0.39817 0.0
C1069 C 0.68766 0.16941 0.40024 0.0
C1070 C 0.61789 0.17645 0.37241 0.0
C1071 C 0.52506 0.14985 0.39095 0.0
C1072 C 0.56072 0.15251 0.38903 0.0
C1073 C 0.66622 0.16446 0.38388 0.0
C1074 C 0.62969 0.15995 0.38574 0.0
H1075 H 0.47262 0.15882 0.42471 0.0
H1076 H 0.52858 0.15793 0.42194 0.0
H1077 H 0.57603 0.18635 0.36367 0.0
H1078 H 0.72612 0.17413 0.34904 0.0
H1079 H 0.66462 0.16079 0.35262 0.0
C1080 C 0.46129 0.30026 0.08716 0.0
C1081 C 0.44921 0.28667 0.10579 0.0
C1082 C 0.49105 0.33442 0.08465 0.0
C1083 C 0.57118 0.40165 0.11135 0.0
H1084 H 0.58071 0.46353 0.0685 0.0
C1085 C 0.69347 0.54288 0.1044 0.0
C1086 C 0.70999 0.55182 0.08617 0.0
C1087 C 0.65964 0.51266 0.10672 0.0
C1088 C 0.57847 0.44645 0.0805 0.0
H1089 H 0.45769 0.299 0.13634 0.0
H1090 H 0.50861 0.35859 0.13199 0.0
H1091 H 0.52507 0.40684 0.07266 0.0
H1092 H 0.70314 0.53687 0.05592 0.0
H1093 H 0.64412 0.48426 0.05997 0.0
H1094 H 0.62449 0.44112 0.11918 0.0
C1095 C 0.49598 0.34264 0.11929 0.0
C1096 C 0.54662 0.4139 0.08286 0.0
C1097 C 0.46655 0.30849 0.12178 0.0
C1098 C 0.69125 0.5307 0.07018 0.0
C1099 C 0.65731 0.50062 0.07248 0.0
C1100 C 0.60283 0.4342 0.10906 0.0
C1101 C 0.50918 0.35582 0.10072 0.0
C1102 C 0.5426 0.39099 0.0983 0.0
C1103 C 0.64142 0.49083 0.09084 0.0
C1104 C 0.60695 0.45696 0.09358 0.0
H1105 H 0.44859 0.28405 0.07454 0.0
H1106 H 0.50057 0.3435 0.07013 0.0
H1107 H 0.56951 0.38445 0.12315 0.0
H1108 H 0.70709 0.55861 0.11702 0.0
H1109 H 0.6479 0.50612 0.12101 0.0
C1110 C 0.84199 0.54366 0.36066 0.0
C1111 C 0.83943 0.56322 0.37618 0.0
C1112 C 0.85175 0.51772 0.36377 0.0
C1113 C 0.8483 0.45615 0.40099 0.0
H1114 H 0.908 0.43981 0.36529 0.0
C1115 C 0.87199 0.33722 0.41089 0.0
C1116 C 0.86986 0.31787 0.39416 0.0
C1117 C 0.87413 0.3705 0.40957 0.0
C1118 C 0.89107 0.44385 0.37533 0.0
H1119 H 0.84626 0.57168 0.4071 0.0
H1120 H 0.86322 0.52608 0.41256 0.0
H1121 H 0.90166 0.49256 0.36155 0.0
H1122 H 0.86948 0.31885 0.36287 0.0
H1123 H 0.87251 0.37657 0.36053 0.0
H1124 H 0.83666 0.40698 0.4144 0.0
C1125 C 0.85748 0.53081 0.39798 0.0
C1126 C 0.88754 0.47414 0.37321 0.0
C1127 C 0.84798 0.55705 0.39484 0.0
C1128 C 0.87118 0.33311 0.37604 0.0
C1129 C 0.8731 0.36633 0.37471 0.0
C1130 C 0.85168 0.42579 0.40305 0.0
C1131 C 0.85897 0.51051 0.3825 0.0
C1132 C 0.8657 0.48037 0.38586 0.0
C1133 C 0.87397 0.38518 0.39147 0.0
C1134 C 0.87271 0.41896 0.39009 0.0
H1135 H 0.83569 0.54781 0.34609 0.0
H1136 H 0.85226 0.50234 0.35156 0.0
H1137 H 0.83085 0.45987 0.4108 0.0
H1138 H 0.87137 0.32639 0.42508 0.0
H1139 H 0.8755 0.38454 0.42277 0.0
C1140 C 0.16641 0.70702 0.6265 0.0
C1141 C 0.17095 0.72977 0.61094 0.0
C1142 C 0.15712 0.67156 0.62329 0.0
C1143 C 0.16575 0.6151 0.58702 0.0
H1144 H 0.10182 0.53825 0.62102 0.0
C1145 C 0.1458 0.47333 0.57951 0.0
C1146 C 0.14617 0.45654 0.59683 0.0
C1147 C 0.14299 0.5042 0.5798 0.0
C1148 C 0.11991 0.55944 0.61146 0.0
H1149 H 0.16819 0.73283 0.5798 0.0
H1150 H 0.1521 0.67065 0.57416 0.0
H1151 H 0.10681 0.59683 0.62396 0.0
H1152 H 0.1429 0.45848 0.62801 0.0
H1153 H 0.13863 0.51256 0.62854 0.0
H1154 H 0.17986 0.57825 0.57495 0.0
C1155 C 0.15588 0.68044 0.58885 0.0
C1156 C 0.12267 0.59297 0.61311 0.0
C1157 C 0.16489 0.71595 0.59209 0.0
C1158 C 0.14263 0.47071 0.61441 0.0
C1159 C 0.13996 0.50164 0.61469 0.0
C1160 C 0.16312 0.58163 0.58542 0.0
C1161 C 0.15236 0.65801 0.60443 0.0
C1162 C 0.14613 0.62136 0.60116 0.0
C1163 C 0.14059 0.51906 0.5974 0.0
C1164 C 0.14067 0.55356 0.59787 0.0
H1165 H 0.17076 0.71679 0.64122 0.0
H1166 H 0.15502 0.65513 0.63559 0.0
H1167 H 0.1844 0.63654 0.57775 0.0
H1168 H 0.14821 0.46296 0.56571 0.0
H1169 H 0.14299 0.51658 0.5662 0.0
C1170 C 0.3158 0.8543 0.88269 0.0
C1171 C 0.29894 0.84976 0.90067 0.0
C1172 C 0.35022 0.85872 0.88156 0.0
C1173 C 0.41236 0.84016 0.90964 0.0
H1174 H 0.48026 0.89773 0.87 0.0
C1175 C 0.5513 0.85115 0.90313 0.0
C1176 C 0.56014 0.84544 0.88443 0.0
C1177 C 0.52238 0.85688 0.90604 0.0
C1178 C 0.46154 0.8815 0.88113 0.0
H1179 H 0.3057 0.84813 0.93161 0.0
H1180 H 0.3659 0.85671 0.92968 0.0
H1181 H 0.42425 0.89849 0.87339 0.0
H1182 H 0.54652 0.84281 0.8541 0.0
H1183 H 0.49639 0.85293 0.85918 0.0
H1184 H 0.44954 0.82298 0.91726 0.0
C1185 C 0.35226 0.85586 0.9164 0.0
C1186 C 0.42937 0.88182 0.88304 0.0
C1187 C 0.31777 0.85115 0.91751 0.0
C1188 C 0.54037 0.847 0.86869 0.0
C1189 C 0.51174 0.85304 0.87159 0.0
C1190 C 0.4446 0.84004 0.90781 0.0
C1191 C 0.36869 0.85899 0.8984 0.0
C1192 C 0.4041 0.86075 0.89715 0.0
C1193 C 0.50198 0.8574 0.89031 0.0
C1194 C 0.46934 0.86029 0.89336 0.0
H1195 H 0.30196 0.85323 0.86944 0.0
H1196 H 0.36179 0.86063 0.86743 0.0
H1197 H 0.39338 0.8231 0.92046 0.0
H1198 H 0.566 0.85009 0.91555 0.0
H1199 H 0.5157 0.86048 0.92063 0.0
C1200 C 0.53352 0.66827 0.5826 0.0
C1201 C 0.55423 0.68684 0.59875 0.0
C1202 C 0.50221 0.63536 0.58483 0.0
C1203 C 0.43259 0.58607 0.6208 0.0
H1204 H 0.40079 0.50674 0.58518 0.0
C1205 C 0.29833 0.45855 0.63245 0.0
C1206 C 0.27655 0.44328 0.61617 0.0
C1207 C 0.33423 0.48462 0.63037 0.0
C1208 C 0.40917 0.52877 0.59516 0.0
H1209 H 0.5592 0.68455 0.6298 0.0
H1210 H 0.50457 0.62706 0.63368 0.0
H1211 H 0.4605 0.55896 0.58155 0.0
H1212 H 0.27563 0.44226 0.5849 0.0
H1213 H 0.33834 0.48867 0.58121 0.0
H1214 H 0.38125 0.5568 0.63408 0.0
C1215 C 0.51236 0.6382 0.61932 0.0
C1216 C 0.4434 0.55862 0.59311 0.0
C1217 C 0.54376 0.67105 0.61708 0.0
C1218 C 0.29182 0.45354 0.5977 0.0
C1219 C 0.32779 0.48005 0.59561 0.0
C1220 C 0.39843 0.55644 0.62278 0.0
C1221 C 0.49083 0.62035 0.60327 0.0
C1222 C 0.45542 0.58764 0.60589 0.0
C1223 C 0.34919 0.49651 0.61196 0.0
C1224 C 0.38619 0.52739 0.60998 0.0
H1225 H 0.54089 0.67962 0.56826 0.0
H1226 H 0.48611 0.62243 0.5722 0.0
H1227 H 0.44069 0.60828 0.63063 0.0
H1228 H 0.28747 0.45082 0.64688 0.0
H1229 H 0.3501 0.49594 0.64328 0.0
C1230 C 0.15862 0.69615 0.8675 0.0
C1231 C 0.16277 0.71736 0.88372 0.0
C1232 C 0.15305 0.66162 0.86966 0.0
C1233 C 0.12959 0.58851 0.90522 0.0
H1234 H 0.18257 0.56276 0.86968 0.0
C1235 C 0.15727 0.47189 0.91817 0.0
C1236 C 0.1563 0.45148 0.90213 0.0
C1237 C 0.15316 0.50179 0.91581 0.0
C1238 C 0.16715 0.56926 0.87955 0.0
H1239 H 0.16316 0.71855 0.91501 0.0
H1240 H 0.15421 0.65842 0.91883 0.0
H1241 H 0.18461 0.61964 0.86598 0.0
H1242 H 0.14879 0.44568 0.8711 0.0
H1243 H 0.1416 0.49788 0.867 0.0
H1244 H 0.11303 0.53825 0.91908 0.0
C1245 C 0.1547 0.66827 0.90439 0.0
C1246 C 0.16827 0.60193 0.87742 0.0
C1247 C 0.15995 0.70281 0.90222 0.0
C1248 C 0.14982 0.46089 0.88376 0.0
C1249 C 0.14591 0.49092 0.88139 0.0
C1250 C 0.12865 0.55583 0.90741 0.0
C1251 C 0.15188 0.6475 0.88811 0.0
C1252 C 0.14958 0.61207 0.89023 0.0
C1253 C 0.14817 0.51208 0.89735 0.0
C1254 C 0.14751 0.54589 0.89462 0.0
H1255 H 0.16023 0.7064 0.85304 0.0
H1256 H 0.15012 0.64615 0.8568 0.0
H1257 H 0.11452 0.59522 0.91521 0.0
H1258 H 0.1621 0.46531 0.93253 0.0
H1259 H 0.1553 0.51764 0.92838 0.0
C1260 C 0.32889 0.8591 0.61536 0.0
C1261 C 0.31261 0.85498 0.59724 0.0
C1262 C 0.36121 0.85905 0.61701 0.0
C1263 C 0.43957 0.8691 0.5896 0.0
H1264 H 0.44268 0.8085 0.62991 0.0
C1265 C 0.54885 0.82757 0.59354 0.0
C1266 C 0.55998 0.82354 0.61198 0.0
C1267 C 0.52074 0.83485 0.59149 0.0
C1268 C 0.44263 0.82604 0.61876 0.0
H1269 H 0.31835 0.84909 0.56654 0.0
H1270 H 0.37472 0.84903 0.56946 0.0
H1271 H 0.39061 0.81597 0.62707 0.0
H1272 H 0.55174 0.82597 0.64271 0.0
H1273 H 0.50374 0.83957 0.63918 0.0
H1274 H 0.49171 0.87911 0.5813 0.0
C1275 C 0.36254 0.85238 0.58238 0.0
C1276 C 0.41268 0.83028 0.61713 0.0
C1277 C 0.3301 0.85222 0.58073 0.0
C1278 C 0.54349 0.82842 0.62828 0.0
C1279 C 0.51575 0.836 0.62625 0.0
C1280 C 0.46974 0.86502 0.5913 0.0
C1281 C 0.37811 0.85509 0.60058 0.0
C1282 C 0.41073 0.85182 0.60253 0.0
C1283 C 0.5034 0.83851 0.60785 0.0
C1284 C 0.47165 0.84342 0.60593 0.0
H1285 H 0.3162 0.86141 0.62835 0.0
H1286 H 0.3728 0.8617 0.63121 0.0
H1287 H 0.43895 0.88606 0.57827 0.0
H1288 H 0.561 0.82387 0.5807 0.0
H1289 H 0.5118 0.83638 0.57709 0.0
C1290 C 0.54334 0.69298 0.88385 0.0
C1291 C 0.5566 0.71054 0.90154 0.0
C1292 C 0.51317 0.65879 0.88332 0.0
C1293 C 0.43373 0.59861 0.91268 0.0
H1294 H 0.42129 0.52915 0.8736 0.0
C1295 C 0.30491 0.46041 0.90781 0.0
C1296 C 0.28982 0.45133 0.88925 0.0
C1297 C 0.33967 0.48918 0.9104 0.0
C1298 C 0.42438 0.54831 0.88459 0.0
H1299 H 0.54968 0.70528 0.93261 0.0
H1300 H 0.49776 0.64548 0.93172 0.0
H1301 H 0.47838 0.58468 0.87612 0.0
H1302 H 0.29987 0.46443 0.85881 0.0
H1303 H 0.36024 0.51422 0.86332 0.0
H1304 H 0.37961 0.5623 0.92102 0.0
C1305 C 0.50996 0.65839 0.9182 0.0
C1306 C 0.45705 0.58021 0.886 0.0
C1307 C 0.5399 0.69265 0.91872 0.0
C1308 C 0.31063 0.47077 0.87332 0.0
C1309 C 0.34538 0.4992 0.87588 0.0
C1310 C 0.40117 0.56662 0.91136 0.0
C1311 C 0.49575 0.64125 0.90048 0.0
C1312 C 0.46198 0.60606 0.89986 0.0
C1313 C 0.36013 0.50911 0.89445 0.0
C1314 C 0.39591 0.54136 0.89709 0.0
H1315 H 0.55552 0.70608 0.87035 0.0
H1316 H 0.50281 0.64667 0.86939 0.0
H1317 H 0.43624 0.61804 0.92334 0.0
H1318 H 0.28955 0.44596 0.92038 0.0
H1319 H 0.35043 0.49604 0.92488 0.0
loop_
_geom_bond_atom_site_label_1
_geom_bond_atom_site_label_2
_geom_bond_distance
_geom_bond_site_symmetry_2
_ccdc_geom_bond_type
Zn0 O6 1.969 . S
Zn0 O7 1.965 . S
Zn0 O11 2.024 . S
Zn0 O16 1.969 . S
Zn1 O8 1.969 . S
Zn1 O14 1.969 . S
Zn1 O15 1.965 . S
Zn1 O17 2.024 . S
C2 O3 1.229 . S
C2 O11 1.058 . S
O3 C2 1.229 . S
C4 O5 1.229 . S
C4 O17 1.058 . S
O5 C4 1.229 . S
O6 Zn0 1.969 . S
O6 C9 1.267 . S
O7 Zn0 1.965 . S
O7 C18 1.260 . S
O8 Zn1 1.969 . S
O8 C18 1.258 . S
C9 O6 1.267 . S
C9 O10 1.228 . S
O10 C9 1.228 . S
O11 Zn0 2.024 . S
O11 C2 1.058 . S
C12 O13 1.228 . S
C12 O14 1.267 . S
O13 C12 1.228 . S
O14 Zn1 1.969 . S
O14 C12 1.267 . S
O15 Zn1 1.965 . S
O15 C19 1.260 . S
O16 Zn0 1.969 . S
O16 C19 1.258 . S
O17 Zn1 2.024 . S
O17 C4 1.058 . S
C18 O7 1.260 . S
C18 O8 1.258 . S
C19 O15 1.260 . S
C19 O16 1.258 . S
Zn20 O26 1.969 . S
Zn20 O27 1.965 . S
Zn20 O31 2.024 . S
Zn20 O36 1.969 . S
Zn21 O28 1.969 . S
Zn21 O34 1.969 . S
Zn21 O35 1.965 . S
Zn21 O37 2.024 . S
C22 O23 1.229 . S
C22 O31 1.058 . S
O23 C22 1.229 . S
C24 O25 1.229 . S
C24 O37 1.058 . S
O25 C24 1.229 . S
O26 Zn20 1.969 . S
O26 C29 1.267 . S
O27 Zn20 1.965 . S
O27 C38 1.260 . S
O28 Zn21 1.969 . S
O28 C38 1.258 . S
C29 O26 1.267 . S
C29 O30 1.228 . S
O30 C29 1.228 . S
O31 Zn20 2.024 . S
O31 C22 1.058 . S
C32 O33 1.228 . S
C32 O34 1.267 . S
O33 C32 1.228 . S
O34 Zn21 1.969 . S
O34 C32 1.267 . S
O35 Zn21 1.965 . S
O35 C39 1.260 . S
O36 Zn20 1.969 . S
O36 C39 1.258 . S
O37 Zn21 2.024 . S
O37 C24 1.058 . S
C38 O27 1.260 . S
C38 O28 1.258 . S
C39 O35 1.260 . S
C39 O36 1.258 . S
Zn40 O46 1.969 . S
Zn40 O47 1.965 . S
Zn40 O51 2.024 . S
Zn40 O56 1.969 . S
Zn41 O48 1.969 . S
Zn41 O54 1.969 . S
Zn41 O55 1.965 . S
Zn41 O57 2.024 . S
C42 O43 1.229 . S
C42 O51 1.058 . S
O43 C42 1.229 . S
C44 O45 1.229 . S
C44 O57 1.058 . S
O45 C44 1.229 . S
O46 Zn40 1.969 . S
O46 C49 1.267 . S
O47 Zn40 1.965 . S
O47 C58 1.260 . S
O48 Zn41 1.969 . S
O48 C58 1.258 . S
C49 O46 1.267 . S
C49 O50 1.228 . S
O50 C49 1.228 . S
O51 Zn40 2.024 . S
O51 C42 1.058 . S
C52 O53 1.228 . S
C52 O54 1.267 . S
O53 C52 1.228 . S
O54 Zn41 1.969 . S
O54 C52 1.267 . S
O55 Zn41 1.965 . S
O55 C59 1.260 . S
O56 Zn40 1.969 . S
O56 C59 1.258 . S
O57 Zn41 2.024 . S
O57 C44 1.058 . S
C58 O47 1.260 . S
C58 O48 1.258 . S
C59 O55 1.260 . S
C59 O56 1.258 . S
Zn60 O66 1.969 . S
Zn60 O67 1.965 . S
Zn60 O71 2.024 . S
Zn60 O76 1.969 . S
Zn61 O68 1.969 . S
Zn61 O74 1.969 . S
Zn61 O75 1.965 . S
Zn61 O77 2.024 . S
C62 O63 1.229 . S
C62 O71 1.058 . S
O63 C62 1.229 . S
C64 O65 1.229 . S
C64 O77 1.058 . S
O65 C64 1.229 . S
O66 Zn60 1.969 . S
O66 C69 1.267 . S
O67 Zn60 1.965 . S
O67 C78 1.260 . S
O68 Zn61 1.969 . S
O68 C78 1.258 . S
C69 O66 1.267 . S
C69 O70 1.228 . S
O70 C69 1.228 . S
O71 Zn60 2.024 . S
O71 C62 1.058 . S
C72 O73 1.228 . S
C72 O74 1.267 . S
O73 C72 1.228 . S
O74 Zn61 1.969 . S
O74 C72 1.267 . S
O75 Zn61 1.965 . S
O75 C79 1.260 . S
O76 Zn60 1.969 . S
O76 C79 1.258 . S
O77 Zn61 2.024 . S
O77 C64 1.058 . S
C78 O67 1.260 . S
C78 O68 1.258 . S
C79 O75 1.260 . S
C79 O76 1.258 . S
Zn80 O86 1.969 . S
Zn80 O87 1.965 . S
Zn80 O91 2.024 . S
Zn80 O96 1.969 . S
Zn81 O88 1.969 . S
Zn81 O94 1.969 . S
Zn81 O95 1.965 . S
Zn81 O97 2.024 . S
C82 O83 1.229 . S
C82 O91 1.058 . S
O83 C82 1.229 . S
C84 O85 1.229 . S
C84 O97 1.058 . S
O85 C84 1.229 . S
O86 Zn80 1.969 . S
O86 C89 1.267 . S
O87 Zn80 1.965 . S
O87 C98 1.260 . S
O88 Zn81 1.969 . S
O88 C98 1.258 . S
C89 O86 1.267 . S
C89 O90 1.228 . S
O90 C89 1.228 . S
O91 Zn80 2.024 . S
O91 C82 1.058 . S
C92 O93 1.228 . S
C92 O94 1.267 . S
O93 C92 1.228 . S
O94 Zn81 1.969 . S
O94 C92 1.267 . S
O95 Zn81 1.965 . S
O95 C99 1.260 . S
O96 Zn80 1.969 . S
O96 C99 1.258 . S
O97 Zn81 2.024 . S
O97 C84 1.058 . S
C98 O87 1.260 . S
C98 O88 1.258 . S
C99 O95 1.260 . S
C99 O96 1.258 . S
Zn100 O106 1.969 . S
Zn100 O107 1.965 . S
Zn100 O111 2.024 . S
Zn100 O116 1.969 . S
Zn101 O108 1.969 . S
Zn101 O114 1.969 . S
Zn101 O115 1.965 . S
Zn101 O117 2.024 . S
C102 O103 1.229 . S
C102 O111 1.058 . S
O103 C102 1.229 . S
C104 O105 1.229 . S
C104 O117 1.058 . S
O105 C104 1.229 . S
O106 Zn100 1.969 . S
O106 C109 1.267 . S
O107 Zn100 1.965 . S
O107 C118 1.260 . S
O108 Zn101 1.969 . S
O108 C118 1.258 . S
C109 O106 1.267 . S
C109 O110 1.228 . S
O110 C109 1.228 . S
O111 Zn100 2.024 . S
O111 C102 1.058 . S
C112 O113 1.228 . S
C112 O114 1.267 . S
O113 C112 1.228 . S
O114 Zn101 1.969 . S
O114 C112 1.267 . S
O115 Zn101 1.965 . S
O115 C119 1.260 . S
O116 Zn100 1.969 . S
O116 C119 1.258 . S
O117 Zn101 2.024 . S
O117 C104 1.058 . S
C118 O107 1.260 . S
C118 O108 1.258 . S
C119 O115 1.260 . S
C119 O116 1.258 . S
Zn120 O126 1.969 . S
Zn120 O127 1.965 . S
Zn120 O131 2.024 . S
Zn120 O136 1.969 . S
Zn121 O128 1.969 . S
Zn121 O134 1.969 . S
Zn121 O135 1.965 . S
Zn121 O137 2.024 . S
C122 O123 1.229 . S
C122 O131 1.058 . S
O123 C122 1.229 . S
C124 O125 1.229 . S
C124 O137 1.058 . S
O125 C124 1.229 . S
O126 Zn120 1.969 . S
O126 C129 1.267 . S
O127 Zn120 1.965 . S
O127 C138 1.260 . S
O128 Zn121 1.969 . S
O128 C138 1.258 . S
C129 O126 1.267 . S
C129 O130 1.228 . S
O130 C129 1.228 . S
O131 Zn120 2.024 . S
O131 C122 1.058 . S
C132 O133 1.228 . S
C132 O134 1.267 . S
O133 C132 1.228 . S
O134 Zn121 1.969 . S
O134 C132 1.267 . S
O135 Zn121 1.965 . S
O135 C139 1.260 . S
O136 Zn120 1.969 . S
O136 C139 1.258 . S
O137 Zn121 2.024 . S
O137 C124 1.058 . S
C138 O127 1.260 . S
C138 O128 1.258 . S
C139 O135 1.260 . S
C139 O136 1.258 . S
Zn140 O146 1.969 . S
Zn140 O147 1.965 . S
Zn140 O151 2.024 . S
Zn140 O156 1.969 . S
Zn141 O148 1.969 . S
Zn141 O154 1.969 . S
Zn141 O155 1.965 . S
Zn141 O157 2.024 . S
C142 O143 1.229 . S
C142 O151 1.058 . S
O143 C142 1.229 . S
C144 O145 1.229 . S
C144 O157 1.058 . S
O145 C144 1.229 . S
O146 Zn140 1.969 . S
O146 C149 1.267 . S
O147 Zn140 1.965 . S
O147 C158 1.260 . S
O148 Zn141 1.969 . S
O148 C158 1.258 . S
C149 O146 1.267 . S
C149 O150 1.228 . S
O150 C149 1.228 . S
O151 Zn140 2.024 . S
O151 C142 1.058 . S
C152 O153 1.228 . S
C152 O154 1.267 . S
O153 C152 1.228 . S
O154 Zn141 1.969 . S
O154 C152 1.267 . S
O155 Zn141 1.965 . S
O155 C159 1.260 . S
O156 Zn140 1.969 . S
O156 C159 1.258 . S
O157 Zn141 2.024 . S
O157 C144 1.058 . S
C158 O147 1.260 . S
C158 O148 1.258 . S
C159 O155 1.260 . S
C159 O156 1.258 . S
Zn160 O166 1.969 . S
Zn160 O167 1.965 . S
Zn160 O171 2.024 . S
Zn160 O176 1.969 . S
Zn161 O168 1.969 . S
Zn161 O174 1.969 . S
Zn161 O175 1.965 . S
Zn161 O177 2.024 . S
C162 O163 1.229 . S
C162 O171 1.058 . S
O163 C162 1.229 . S
C164 O165 1.229 . S
C164 O177 1.058 . S
O165 C164 1.229 . S
O166 Zn160 1.969 . S
O166 C169 1.267 . S
O167 Zn160 1.965 . S
O167 C178 1.260 . S
O168 Zn161 1.969 . S
O168 C178 1.258 . S
C169 O166 1.267 . S
C169 O170 1.228 . S
O170 C169 1.228 . S
O171 Zn160 2.024 . S
O171 C162 1.058 . S
C172 O173 1.228 . S
C172 O174 1.267 . S
O173 C172 1.228 . S
O174 Zn161 1.969 . S
O174 C172 1.267 . S
O175 Zn161 1.965 . S
O175 C179 1.260 . S
O176 Zn160 1.969 . S
O176 C179 1.258 . S
O177 Zn161 2.024 . S
O177 C164 1.058 . S
C178 O167 1.260 . S
C178 O168 1.258 . S
C179 O175 1.260 . S
C179 O176 1.258 . S
Zn180 O186 1.969 . S
Zn180 O187 1.965 . S
Zn180 O191 2.024 . S
Zn180 O196 1.969 . S
Zn181 O188 1.969 . S
Zn181 O194 1.969 . S
Zn181 O195 1.965 . S
Zn181 O197 2.024 . S
C182 O183 1.229 . S
C182 O191 1.058 . S
O183 C182 1.229 . S
C184 O185 1.229 . S
C184 O197 1.058 . S
O185 C184 1.229 . S
O186 Zn180 1.969 . S
O186 C189 1.267 . S
O187 Zn180 1.965 . S
O187 C198 1.260 . S
O188 Zn181 1.969 . S
O188 C198 1.258 . S
C189 O186 1.267 . S
C189 O190 1.228 . S
O190 C189 1.228 . S
O191 Zn180 2.024 . S
O191 C182 1.058 . S
C192 O193 1.228 . S
C192 O194 1.267 . S
O193 C192 1.228 . S
O194 Zn181 1.969 . S
O194 C192 1.267 . S
O195 Zn181 1.965 . S
O195 C199 1.260 . S
O196 Zn180 1.969 . S
O196 C199 1.258 . S
O197 Zn181 2.024 . S
O197 C184 1.058 . S
C198 O187 1.260 . S
C198 O188 1.258 . S
C199 O195 1.260 . S
C199 O196 1.258 . S
Zn200 O206 1.969 . S
Zn200 O207 1.965 . S
Zn200 O211 2.024 . S
Zn200 O216 1.969 . S
Zn201 O208 1.969 . S
Zn201 O214 1.969 . S
Zn201 O215 1.965 . S
Zn201 O217 2.024 . S
C202 O203 1.229 . S
C202 O211 1.058 . S
O203 C202 1.229 . S
C204 O205 1.229 . S
C204 O217 1.058 . S
O205 C204 1.229 . S
O206 Zn200 1.969 . S
O206 C209 1.267 . S
O207 Zn200 1.965 . S
O207 C218 1.260 . S
O208 Zn201 1.969 . S
O208 C218 1.258 . S
C209 O206 1.267 . S
C209 O210 1.228 . S
O210 C209 1.228 . S
O211 Zn200 2.024 . S
O211 C202 1.058 . S
C212 O213 1.228 . S
C212 O214 1.267 . S
O213 C212 1.228 . S
O214 Zn201 1.969 . S
O214 C212 1.267 . S
O215 Zn201 1.965 . S
O215 C219 1.260 . S
O216 Zn200 1.969 . S
O216 C219 1.258 . S
O217 Zn201 2.024 . S
O217 C204 1.058 . S
C218 O207 1.260 . S
C218 O208 1.258 . S
C219 O215 1.260 . S
C219 O216 1.258 . S
Zn220 O226 1.969 . S
Zn220 O227 1.965 . S
Zn220 O231 2.024 . S
Zn220 O236 1.969 . S
Zn221 O228 1.969 . S
Zn221 O234 1.969 . S
Zn221 O235 1.965 . S
Zn221 O237 2.024 . S
C222 O223 1.229 . S
C222 O231 1.058 . S
O223 C222 1.229 . S
C224 O225 1.229 . S
C224 O237 1.058 . S
O225 C224 1.229 . S
O226 Zn220 1.969 . S
O226 C229 1.267 . S
O227 Zn220 1.965 . S
O227 C238 1.260 . S
O228 Zn221 1.969 . S
O228 C238 1.258 . S
C229 O226 1.267 . S
C229 O230 1.228 . S
O230 C229 1.228 . S
O231 Zn220 2.024 . S
O231 C222 1.058 . S
C232 O233 1.228 . S
C232 O234 1.267 . S
O233 C232 1.228 . S
O234 Zn221 1.969 . S
O234 C232 1.267 . S
O235 Zn221 1.965 . S
O235 C239 1.260 . S
O236 Zn220 1.969 . S
O236 C239 1.258 . S
O237 Zn221 2.024 . S
O237 C224 1.058 . S
C238 O227 1.260 . S
C238 O228 1.258 . S
C239 O235 1.260 . S
C239 O236 1.258 . S
C240 C241 1.349 1_455 S
C240 C242 1.327 . S
C240 H265 0.950 1_455 S
C241 C240 1.349 1_655 S
C241 C257 1.349 . S
C242 C240 1.327 . S
C242 C261 1.429 . S
C242 H266 0.950 . S
C243 C260 1.574 . S
C243 C262 1.368 . S
C243 H267 0.949 . S
H244 C248 0.949 . S
C245 C246 1.349 . S
C245 C247 1.327 . S
C245 H268 0.950 . S
C246 C245 1.349 . S
C246 C258 1.349 . S
C247 C245 1.327 . S
C247 C263 1.429 . S
C247 H269 0.950 . S
C248 H244 0.949 . S
C248 C256 1.574 . S
C248 C264 1.368 . S
H249 C257 0.950 . S
H250 C255 0.950 . S
H251 C256 0.949 . S
H252 C258 0.950 . S
H253 C259 0.950 . S
H254 C260 0.949 . S
C255 H250 0.950 . S
C255 C257 1.327 1_455 S
C255 C261 1.429 . S
C256 C248 1.574 . S
C256 H251 0.949 . S
C256 C262 1.368 . S
C257 C241 1.349 . S
C257 H249 0.950 . S
C257 C255 1.327 1_655 S
C258 C246 1.349 . S
C258 H252 0.950 . S
C258 C259 1.327 . S
C259 H253 0.950 . S
C259 C258 1.327 . S
C259 C263 1.429 . S
C260 C243 1.574 . S
C260 H254 0.949 . S
C260 C264 1.368 . S
C261 C242 1.429 . S
C261 C255 1.429 . S
C261 C262 1.523 . S
C262 C243 1.368 . S
C262 C256 1.368 . S
C262 C261 1.523 . S
C263 C247 1.429 . S
C263 C259 1.429 . S
C263 C264 1.523 . S
C264 C248 1.368 . S
C264 C260 1.368 . S
C264 C263 1.523 . S
H265 C240 0.950 1_655 S
H266 C242 0.950 . S
H267 C243 0.949 . S
H268 C245 0.950 . S
H269 C247 0.950 . S
C270 C271 1.349 1_565 S
C270 C272 1.327 . S
C270 H295 0.950 . S
C271 C270 1.349 1_545 S
C271 C287 1.349 . S
C272 C270 1.327 . S
C272 C291 1.429 . S
C272 H296 0.950 . S
C273 C290 1.574 . S
C273 C292 1.368 . S
C273 H297 0.949 . S
H274 C278 0.949 . S
C275 C276 1.349 . S
C275 C277 1.327 . S
C275 H298 0.950 . S
C276 C275 1.349 . S
C276 C288 1.349 . S
C277 C275 1.327 . S
C277 C293 1.429 . S
C277 H299 0.950 . S
C278 H274 0.949 . S
C278 C286 1.574 . S
C278 C294 1.368 . S
H279 C287 0.950 . S
H280 C285 0.950 . S
H281 C286 0.949 . S
H282 C288 0.950 . S
H283 C289 0.950 . S
H284 C290 0.949 . S
C285 H280 0.950 . S
C285 C287 1.327 1_565 S
C285 C291 1.429 . S
C286 C278 1.574 . S
C286 H281 0.949 . S
C286 C292 1.368 . S
C287 C271 1.349 . S
C287 H279 0.950 . S
C287 C285 1.327 1_545 S
C288 C276 1.349 . S
C288 H282 0.950 . S
C288 C289 1.327 . S
C289 H283 0.950 . S
C289 C288 1.327 . S
C289 C293 1.429 . S
C290 C273 1.574 . S
C290 H284 0.949 . S
C290 C294 1.368 . S
C291 C272 1.429 . S
C291 C285 1.429 . S
C291 C292 1.523 . S
C292 C273 1.368 . S
C292 C286 1.368 . S
C292 C291 1.523 . S
C293 C277 1.429 . S
C293 C289 1.429 . S
C293 C294 1.523 1_655 S
C294 C278 1.368 . S
C294 C290 1.368 . S
C294 C293 1.523 1_455 S
H295 C270 0.950 . S
H296 C272 0.950 . S
H297 C273 0.949 . S
H298 C275 0.950 . S
H299 C277 0.950 . S
C300 C301 1.349 . S
C300 C302 1.327 . S
C300 H325 0.950 . S
C301 C300 1.349 . S
C301 C317 1.349 . S
C302 C300 1.327 . S
C302 C321 1.429 . S
C302 H326 0.961 . S
C303 C320 1.574 . S
C303 C322 1.368 . S
C303 H327 0.949 . S
H304 C308 0.949 . S
C305 C306 1.349 . S
C305 C307 1.327 . S
C305 H328 0.950 . S
C306 C305 1.349 . S
C306 C318 1.349 . S
C307 C305 1.327 . S
C307 C323 1.429 . S
C307 H329 0.950 . S
C308 H304 0.949 . S
C308 C316 1.574 . S
C308 C324 1.368 . S
H309 C317 0.950 . S
H310 C315 0.950 . S
H311 C316 0.949 . S
H312 C318 0.950 . S
H313 C319 0.950 . S
H314 C320 0.949 . S
C315 H310 0.950 . S
C315 C317 1.327 . S
C315 C321 1.429 . S
C316 C308 1.574 . S
C316 H311 0.949 . S
C316 C322 1.368 . S
C317 C301 1.349 . S
C317 H309 0.950 . S
C317 C315 1.327 . S
C318 C306 1.349 . S
C318 H312 0.950 . S
C318 C319 1.327 . S
C319 H313 0.950 . S
C319 C318 1.327 . S
C319 C323 1.429 . S
C320 C303 1.574 . S
C320 H314 0.949 . S
C320 C324 1.368 . S
C321 C302 1.429 . S
C321 C315 1.429 . S
C321 C322 1.523 1_545 S
C322 C303 1.368 . S
C322 C316 1.368 . S
C322 C321 1.523 1_565 S
C323 C307 1.429 . S
C323 C319 1.429 . S
C323 C324 1.523 . S
C324 C308 1.368 . S
C324 C320 1.368 . S
C324 C323 1.523 . S
H325 C300 0.950 . S
H326 C302 0.961 . S
H327 C303 0.949 . S
H328 C305 0.950 . S
H329 C307 0.950 . S
C330 C331 1.349 . S
C330 C332 1.327 . S
C330 H355 0.950 . S
C331 C330 1.349 . S
C331 C347 1.349 . S
C332 C330 1.327 . S
C332 C351 1.429 . S
C332 H356 0.950 . S
C333 C350 1.574 . S
C333 C352 1.368 . S
C333 H357 0.949 . S
H334 C338 0.949 . S
C335 C336 1.349 1_455 S
C335 C337 1.327 . S
C335 H358 0.950 . S
C336 C335 1.349 1_655 S
C336 C348 1.349 . S
C337 C335 1.327 . S
C337 C353 1.429 . S
C337 H359 0.950 . S
C338 H334 0.949 . S
C338 C346 1.574 . S
C338 C354 1.368 . S
H339 C347 0.950 . S
H340 C345 0.950 . S
H341 C346 0.949 . S
H342 C348 0.950 . S
H343 C349 0.950 . S
H344 C350 0.949 . S
C345 H340 0.950 . S
C345 C347 1.327 . S
C345 C351 1.429 . S
C346 C338 1.574 . S
C346 H341 0.949 . S
C346 C352 1.368 . S
C347 C331 1.349 . S
C347 H339 0.950 . S
C347 C345 1.327 . S
C348 C336 1.349 . S
C348 H342 0.950 . S
C348 C349 1.327 1_655 S
C349 H343 0.950 . S
C349 C348 1.327 1_455 S
C349 C353 1.429 . S
C350 C333 1.574 . S
C350 H344 0.949 . S
C350 C354 1.368 . S
C351 C332 1.429 . S
C351 C345 1.429 . S
C351 C352 1.523 . S
C352 C333 1.368 . S
C352 C346 1.368 . S
C352 C351 1.523 . S
C353 C337 1.429 . S
C353 C349 1.429 . S
C353 C354 1.523 . S
C354 C338 1.368 . S
C354 C350 1.368 . S
C354 C353 1.523 . S
H355 C330 0.950 . S
H356 C332 0.950 . S
H357 C333 0.949 . S
H358 C335 0.950 . S
H359 C337 0.950 . S
C360 C361 1.349 . S
C360 C362 1.327 1_545 S
C360 H385 0.950 . S
C361 C360 1.349 . S
C361 C377 1.349 1_545 S
C362 C360 1.327 1_565 S
C362 C381 1.429 . S
C362 H386 0.950 . S
C363 C380 1.574 . S
C363 C382 1.368 . S
C363 H387 0.949 . S
H364 C368 0.949 . S
C365 C366 1.349 . S
C365 C367 1.327 . S
C365 H388 0.950 . S
C366 C365 1.349 . S
C366 C378 1.349 . S
C367 C365 1.327 . S
C367 C383 1.429 . S
C367 H389 0.926 1_655 S
C368 H364 0.949 . S
C368 C376 1.574 . S
C368 C384 1.368 . S
H369 C377 0.950 . S
H370 C375 0.950 . S
H371 C376 0.949 . S
H372 C378 0.950 . S
H373 C379 0.950 . S
H374 C380 0.949 . S
C375 H370 0.950 . S
C375 C377 1.327 . S
C375 C381 1.429 . S
C376 C368 1.574 . S
C376 H371 0.949 . S
C376 C382 1.368 . S
C377 C361 1.349 1_565 S
C377 H369 0.950 . S
C377 C375 1.327 . S
C378 C366 1.349 . S
C378 H372 0.950 . S
C378 C379 1.327 . S
C379 H373 0.950 . S
C379 C378 1.327 . S
C379 C383 1.429 . S
C380 C363 1.574 . S
C380 H374 0.949 . S
C380 C384 1.368 . S
C381 C362 1.429 . S
C381 C375 1.429 . S
C381 C382 1.523 . S
C382 C363 1.368 . S
C382 C376 1.368 . S
C382 C381 1.523 . S
C383 C367 1.429 . S
C383 C379 1.429 . S
C383 C384 1.523 1_655 S
C384 C368 1.368 . S
C384 C380 1.368 . S
C384 C383 1.523 1_455 S
H385 C360 0.950 . S
H386 C362 0.950 . S
H387 C363 0.949 . S
H388 C365 0.950 . S
H389 C367 0.926 1_455 S
C390 C391 1.349 . S
C390 C392 1.327 . S
C390 H415 0.950 . S
C391 C390 1.349 . S
C391 C407 1.349 . S
C392 C390 1.327 . S
C392 C411 1.429 . S
C392 H416 0.950 . S
C393 C410 1.574 . S
C393 C412 1.368 . S
C393 H417 0.949 . S
H394 C398 0.949 . S
C395 C396 1.349 . S
C395 C397 1.327 . S
C395 H418 0.950 . S
C396 C395 1.349 . S
C396 C408 1.349 . S
C397 C395 1.327 . S
C397 C413 1.429 . S
C397 H419 0.950 . S
C398 H394 0.949 . S
C398 C406 1.574 . S
C398 C414 1.368 . S
H399 C407 0.950 . S
H400 C405 0.950 . S
H401 C406 0.949 . S
H402 C408 0.950 . S
H403 C409 0.950 . S
H404 C410 0.949 . S
C405 H400 0.950 . S
C405 C407 1.327 . S
C405 C411 1.429 . S
C406 C398 1.574 . S
C406 H401 0.949 . S
C406 C412 1.368 . S
C407 C391 1.349 . S
C407 H399 0.950 . S
C407 C405 1.327 . S
C408 C396 1.349 . S
C408 H402 0.950 . S
C408 C409 1.327 . S
C409 H403 0.950 . S
C409 C408 1.327 . S
C409 C413 1.429 . S
C410 C393 1.574 . S
C410 H404 0.949 . S
C410 C414 1.368 . S
C411 C392 1.429 . S
C411 C405 1.429 . S
C411 C412 1.523 . S
C412 C393 1.368 . S
C412 C406 1.368 . S
C412 C411 1.523 . S
C413 C397 1.429 . S
C413 C409 1.429 . S
C413 C414 1.523 1_545 S
C414 C398 1.368 . S
C414 C410 1.368 . S
C414 C413 1.523 1_565 S
H415 C390 0.950 . S
H416 C392 0.950 . S
H417 C393 0.949 . S
H418 C395 0.950 . S
H419 C397 0.950 . S
C420 C421 1.349 1_545 S
C420 C422 1.327 . S
C420 H445 0.950 . S
C421 C420 1.349 1_565 S
C421 C437 1.349 . S
C422 C420 1.327 . S
C422 C441 1.429 . S
C422 H446 0.950 . S
C423 C440 1.574 . S
C423 C442 1.368 . S
C423 H447 0.949 . S
H424 C428 0.949 . S
C425 C426 1.349 . S
C425 C427 1.327 . S
C425 H448 0.950 . S
C426 C425 1.349 . S
C426 C438 1.349 . S
C427 C425 1.327 . S
C427 C443 1.429 . S
C427 H449 0.950 . S
C428 H424 0.949 . S
C428 C436 1.574 . S
C428 C444 1.368 . S
H429 C437 0.950 . S
H430 C435 0.950 . S
H431 C436 0.949 . S
H432 C438 0.950 . S
H433 C439 0.950 . S
H434 C440 0.949 . S
C435 H430 0.950 . S
C435 C437 1.327 1_545 S
C435 C441 1.429 . S
C436 C428 1.574 . S
C436 H431 0.949 . S
C436 C442 1.368 . S
C437 C421 1.349 . S
C437 H429 0.950 . S
C437 C435 1.327 1_565 S
C438 C426 1.349 . S
C438 H432 0.950 . S
C438 C439 1.327 . S
C439 H433 0.950 . S
C439 C438 1.327 . S
C439 C443 1.429 . S
C440 C423 1.574 . S
C440 H434 0.949 . S
C440 C444 1.368 . S
C441 C422 1.429 . S
C441 C435 1.429 . S
C441 C442 1.523 . S
C442 C423 1.368 . S
C442 C436 1.368 . S
C442 C441 1.523 . S
C443 C427 1.429 . S
C443 C439 1.429 . S
C443 C444 1.523 . S
C444 C428 1.368 . S
C444 C440 1.368 . S
C444 C443 1.523 . S
H445 C420 0.950 . S
H446 C422 0.950 . S
H447 C423 0.949 . S
H448 C425 0.950 . S
H449 C427 0.950 . S
C450 C451 1.349 . S
C450 C452 1.327 . S
C450 H475 0.950 . S
C451 C450 1.349 . S
C451 C467 1.349 . S
C452 C450 1.327 . S
C452 C471 1.429 . S
C452 H476 0.939 1_455 S
C453 C470 1.574 . S
C453 C472 1.368 . S
C453 H477 0.949 . S
H454 C458 0.949 . S
C455 C456 1.349 . S
C455 C457 1.327 . S
C455 H478 0.950 . S
C456 C455 1.349 . S
C456 C468 1.349 . S
C457 C455 1.327 . S
C457 C473 1.429 . S
C457 H479 0.950 . S
C458 H454 0.949 . S
C458 C466 1.574 . S
C458 C474 1.368 . S
H459 C467 0.950 . S
H460 C465 0.950 . S
H461 C466 0.949 . S
H462 C468 0.950 . S
H463 C469 0.950 . S
H464 C470 0.949 . S
C465 H460 0.950 . S
C465 C467 1.327 . S
C465 C471 1.429 . S
C466 C458 1.574 . S
C466 H461 0.949 . S
C466 C472 1.368 . S
C467 C451 1.349 . S
C467 H459 0.950 . S
C467 C465 1.327 . S
C468 C456 1.349 . S
C468 H462 0.950 . S
C468 C469 1.327 . S
C469 H463 0.950 . S
C469 C468 1.327 . S
C469 C473 1.429 . S
C470 C453 1.574 . S
C470 H464 0.949 . S
C470 C474 1.368 . S
C471 C452 1.429 . S
C471 C465 1.429 . S
C471 C472 1.523 1_455 S
C472 C453 1.368 . S
C472 C466 1.368 . S
C472 C471 1.523 1_655 S
C473 C457 1.429 . S
C473 C469 1.429 . S
C473 C474 1.523 . S
C474 C458 1.368 . S
C474 C470 1.368 . S
C474 C473 1.523 . S
H475 C450 0.950 . S
H476 C452 0.939 1_655 S
H477 C453 0.949 . S
H478 C455 0.950 . S
H479 C457 0.950 . S
C480 C481 1.349 . S
C480 C482 1.327 . S
C480 H505 0.950 . S
C481 C480 1.349 . S
C481 C497 1.349 . S
C482 C480 1.327 . S
C482 C501 1.429 . S
C482 H506 0.950 . S
C483 C500 1.574 . S
C483 C502 1.368 . S
C483 H507 0.949 . S
H484 C488 0.949 . S
C485 C486 1.349 1_655 S
C485 C487 1.327 . S
C485 H508 0.950 . S
C486 C485 1.349 1_455 S
C486 C498 1.349 . S
C487 C485 1.327 . S
C487 C503 1.429 . S
C487 H509 0.950 . S
C488 H484 0.949 . S
C488 C496 1.574 . S
C488 C504 1.368 . S
H489 C497 0.950 . S
H490 C495 0.925 1_545 S
H491 C496 0.949 . S
H492 C498 0.950 . S
H493 C499 0.950 . S
H494 C500 0.949 . S
C495 H490 0.925 1_565 S
C495 C497 1.327 . S
C495 C501 1.429 . S
C496 C488 1.574 . S
C496 H491 0.949 . S
C496 C502 1.368 . S
C497 C481 1.349 . S
C497 H489 0.950 . S
C497 C495 1.327 . S
C498 C486 1.349 . S
C498 H492 0.950 . S
C498 C499 1.327 1_455 S
C499 H493 0.950 . S
C499 C498 1.327 1_655 S
C499 C503 1.429 . S
C500 C483 1.574 . S
C500 H494 0.949 . S
C500 C504 1.368 . S
C501 C482 1.429 . S
C501 C495 1.429 . S
C501 C502 1.523 1_565 S
C502 C483 1.368 . S
C502 C496 1.368 . S
C502 C501 1.523 1_545 S
C503 C487 1.429 . S
C503 C499 1.429 . S
C503 C504 1.523 . S
C504 C488 1.368 . S
C504 C500 1.368 . S
C504 C503 1.523 . S
H505 C480 0.950 . S
H506 C482 0.950 . S
H507 C483 0.949 . S
H508 C485 0.950 . S
H509 C487 0.950 . S
C510 C511 1.349 . S
C510 C512 1.327 . S
C510 H535 0.950 . S
C511 C510 1.349 . S
C511 C527 1.349 . S
C512 C510 1.327 . S
C512 C531 1.429 . S
C512 H536 0.950 . S
C513 C530 1.574 . S
C513 C532 1.368 . S
C513 H537 0.949 . S
H514 C518 0.949 . S
C515 C516 1.349 . S
C515 C517 1.327 1_565 S
C515 H538 0.950 . S
C516 C515 1.349 . S
C516 C528 1.349 1_565 S
C517 C515 1.327 1_545 S
C517 C533 1.429 . S
C517 H539 0.950 . S
C518 H514 0.949 . S
C518 C526 1.574 . S
C518 C534 1.368 . S
H519 C527 0.950 . S
H520 C525 0.950 . S
H521 C526 0.949 . S
H522 C528 0.950 1_565 S
H523 C529 0.950 . S
H524 C530 0.949 . S
C525 H520 0.950 . S
C525 C527 1.327 . S
C525 C531 1.429 . S
C526 C518 1.574 . S
C526 H521 0.949 . S
C526 C532 1.368 . S
C527 C511 1.349 . S
C527 H519 0.950 . S
C527 C525 1.327 . S
C528 C516 1.349 1_545 S
C528 H522 0.950 1_545 S
C528 C529 1.327 . S
C529 H523 0.950 . S
C529 C528 1.327 . S
C529 C533 1.429 . S
C530 C513 1.574 . S
C530 H524 0.949 . S
C530 C534 1.368 . S
C531 C512 1.429 . S
C531 C525 1.429 . S
C531 C532 1.523 . S
C532 C513 1.368 . S
C532 C526 1.368 . S
C532 C531 1.523 . S
C533 C517 1.429 . S
C533 C529 1.429 . S
C533 C534 1.523 . S
C534 C518 1.368 . S
C534 C530 1.368 . S
C534 C533 1.523 . S
H535 C510 0.950 . S
H536 C512 0.950 . S
H537 C513 0.949 . S
H538 C515 0.950 . S
H539 C517 0.950 . S
C540 C541 1.349 . S
C540 C542 1.327 . S
C540 H565 0.950 . S
C541 C540 1.349 . S
C541 C557 1.349 . S
C542 C540 1.327 . S
C542 C561 1.429 . S
C542 H566 0.950 . S
C543 C560 1.574 . S
C543 C562 1.368 . S
C543 H567 0.949 . S
H544 C548 0.949 . S
C545 C546 1.349 . S
C545 C547 1.327 . S
C545 H568 0.950 . S
C546 C545 1.349 . S
C546 C558 1.349 . S
C547 C545 1.327 . S
C547 C563 1.429 . S
C547 H569 0.950 . S
C548 H544 0.949 . S
C548 C556 1.574 . S
C548 C564 1.368 . S
H549 C557 0.950 . S
H550 C555 0.950 . S
H551 C556 0.949 . S
H552 C558 0.950 . S
H553 C559 0.950 . S
H554 C560 0.949 . S
C555 H550 0.950 . S
C555 C557 1.327 . S
C555 C561 1.429 . S
C556 C548 1.574 . S
C556 H551 0.949 . S
C556 C562 1.368 . S
C557 C541 1.349 . S
C557 H549 0.950 . S
C557 C555 1.327 . S
C558 C546 1.349 . S
C558 H552 0.950 . S
C558 C559 1.327 . S
C559 H553 0.950 . S
C559 C558 1.327 . S
C559 C563 1.429 . S
C560 C543 1.574 . S
C560 H554 0.949 . S
C560 C564 1.368 . S
C561 C542 1.429 . S
C561 C555 1.429 . S
C561 C562 1.523 1_455 S
C562 C543 1.368 . S
C562 C556 1.368 . S
C562 C561 1.523 1_655 S
C563 C547 1.429 . S
C563 C559 1.429 . S
C563 C564 1.523 . S
C564 C548 1.368 . S
C564 C560 1.368 . S
C564 C563 1.523 . S
H565 C540 0.950 . S
H566 C542 0.950 . S
H567 C543 0.949 . S
H568 C545 0.950 . S
H569 C547 0.950 . S
C570 C571 1.349 . S
C570 C572 1.327 1_455 S
C570 H595 0.950 . S
C571 C570 1.349 . S
C571 C587 1.349 1_455 S
C572 C570 1.327 1_655 S
C572 C591 1.429 . S
C572 H596 0.950 . S
C573 C590 1.574 . S
C573 C592 1.368 . S
C573 H597 0.949 . S
H574 C578 0.949 . S
C575 C576 1.349 . S
C575 C577 1.327 . S
C575 H598 0.950 . S
C576 C575 1.349 . S
C576 C588 1.349 . S
C577 C575 1.327 . S
C577 C593 1.429 . S
C577 H599 0.950 1_565 S
C578 H574 0.949 . S
C578 C586 1.574 . S
C578 C594 1.368 . S
H579 C587 0.950 . S
H580 C585 0.950 . S
H581 C586 0.949 . S
H582 C588 0.950 . S
H583 C589 0.950 . S
H584 C590 0.949 . S
C585 H580 0.950 . S
C585 C587 1.327 . S
C585 C591 1.429 . S
C586 C578 1.574 . S
C586 H581 0.949 . S
C586 C592 1.368 . S
C587 C571 1.349 1_655 S
C587 H579 0.950 . S
C587 C585 1.327 . S
C588 C576 1.349 . S
C588 H582 0.950 . S
C588 C589 1.327 . S
C589 H583 0.950 . S
C589 C588 1.327 . S
C589 C593 1.429 . S
C590 C573 1.574 . S
C590 H584 0.949 . S
C590 C594 1.368 . S
C591 C572 1.429 . S
C591 C585 1.429 . S
C591 C592 1.523 . S
C592 C573 1.368 . S
C592 C586 1.368 . S
C592 C591 1.523 . S
C593 C577 1.429 . S
C593 C589 1.429 . S
C593 C594 1.523 1_565 S
C594 C578 1.368 . S
C594 C590 1.368 . S
C594 C593 1.523 1_545 S
H595 C570 0.950 . S
H596 C572 0.950 . S
H597 C573 0.949 . S
H598 C575 0.950 . S
H599 C577 0.950 1_545 S
C600 C601 1.349 . S
C600 C602 1.327 . S
C600 H625 0.950 . S
C601 C600 1.349 . S
C601 C617 1.349 . S
C602 C600 1.327 . S
C602 C621 1.429 . S
C602 H626 0.950 . S
C603 C620 1.574 . S
C603 C622 1.368 . S
C603 H627 0.949 . S
H604 C608 0.949 . S
C605 C606 1.349 . S
C605 C607 1.327 . S
C605 H628 0.950 . S
C606 C605 1.349 . S
C606 C618 1.349 . S
C607 C605 1.327 . S
C607 C623 1.429 . S
C607 H629 0.950 . S
C608 H604 0.949 . S
C608 C616 1.574 . S
C608 C624 1.368 . S
H609 C617 0.950 . S
H610 C615 0.950 . S
H611 C616 0.949 . S
H612 C618 0.950 . S
H613 C619 0.950 . S
H614 C620 0.949 . S
C615 H610 0.950 . S
C615 C617 1.327 . S
C615 C621 1.429 . S
C616 C608 1.574 . S
C616 H611 0.949 . S
C616 C622 1.368 . S
C617 C601 1.349 . S
C617 H609 0.950 . S
C617 C615 1.327 . S
C618 C606 1.349 . S
C618 H612 0.950 . S
C618 C619 1.327 . S
C619 H613 0.950 . S
C619 C618 1.327 . S
C619 C623 1.429 . S
C620 C603 1.574 . S
C620 H614 0.949 . S
C620 C624 1.368 . S
C621 C602 1.429 . S
C621 C615 1.429 . S
C621 C622 1.523 . S
C622 C603 1.368 . S
C622 C616 1.368 . S
C622 C621 1.523 . S
C623 C607 1.429 . S
C623 C619 1.429 . S
C623 C624 1.523 . S
C624 C608 1.368 . S
C624 C620 1.368 . S
C624 C623 1.523 . S
H625 C600 0.950 . S
H626 C602 0.950 . S
H627 C603 0.949 . S
H628 C605 0.950 . S
H629 C607 0.950 . S
C630 C631 1.349 . S
C630 C632 1.327 . S
C630 H655 0.950 . S
C631 C630 1.349 . S
C631 C647 1.349 . S
C632 C630 1.327 . S
C632 C651 1.429 . S
C632 H656 0.950 . S
C633 C650 1.574 . S
C633 C652 1.368 . S
C633 H657 0.949 . S
H634 C638 0.949 . S
C635 C636 1.349 . S
C635 C637 1.327 . S
C635 H658 0.950 . S
C636 C635 1.349 . S
C636 C648 1.349 . S
C637 C635 1.327 . S
C637 C653 1.429 . S
C637 H659 0.950 . S
C638 H634 0.949 . S
C638 C646 1.574 . S
C638 C654 1.368 . S
H639 C647 0.950 . S
H640 C645 0.950 . S
H641 C646 0.949 . S
H642 C648 0.950 . S
H643 C649 0.950 . S
H644 C650 0.949 . S
C645 H640 0.950 . S
C645 C647 1.327 . S
C645 C651 1.429 . S
C646 C638 1.574 . S
C646 H641 0.949 . S
C646 C652 1.368 . S
C647 C631 1.349 . S
C647 H639 0.950 . S
C647 C645 1.327 . S
C648 C636 1.349 . S
C648 H642 0.950 . S
C648 C649 1.327 . S
C649 H643 0.950 . S
C649 C648 1.327 . S
C649 C653 1.429 . S
C650 C633 1.574 . S
C650 H644 0.949 . S
C650 C654 1.368 . S
C651 C632 1.429 . S
C651 C645 1.429 . S
C651 C652 1.523 . S
C652 C633 1.368 . S
C652 C646 1.368 . S
C652 C651 1.523 . S
C653 C637 1.429 . S
C653 C649 1.429 . S
C653 C654 1.523 . S
C654 C638 1.368 . S
C654 C650 1.368 . S
C654 C653 1.523 . S
H655 C630 0.950 . S
H656 C632 0.950 . S
H657 C633 0.949 . S
H658 C635 0.950 . S
H659 C637 0.950 . S
C660 C661 1.349 . S
C660 C662 1.327 . S
C660 H685 0.950 . S
C661 C660 1.349 . S
C661 C677 1.349 . S
C662 C660 1.327 . S
C662 C681 1.429 . S
C662 H686 0.950 . S
C663 C680 1.574 . S
C663 C682 1.368 . S
C663 H687 0.949 . S
H664 C668 0.949 . S
C665 C666 1.349 . S
C665 C667 1.327 . S
C665 H688 0.950 . S
C666 C665 1.349 . S
C666 C678 1.349 . S
C667 C665 1.327 . S
C667 C683 1.429 . S
C667 H689 0.950 . S
C668 H664 0.949 . S
C668 C676 1.574 . S
C668 C684 1.368 . S
H669 C677 0.950 . S
H670 C675 0.950 . S
H671 C676 0.949 . S
H672 C678 0.950 . S
H673 C679 0.950 . S
H674 C680 0.949 . S
C675 H670 0.950 . S
C675 C677 1.327 . S
C675 C681 1.429 . S
C676 C668 1.574 . S
C676 H671 0.949 . S
C676 C682 1.368 . S
C677 C661 1.349 . S
C677 H669 0.950 . S
C677 C675 1.327 . S
C678 C666 1.349 . S
C678 H672 0.950 . S
C678 C679 1.327 . S
C679 H673 0.950 . S
C679 C678 1.327 . S
C679 C683 1.429 . S
C680 C663 1.574 . S
C680 H674 0.949 . S
C680 C684 1.368 . S
C681 C662 1.429 . S
C681 C675 1.429 . S
C681 C682 1.523 . S
C682 C663 1.368 . S
C682 C676 1.368 . S
C682 C681 1.523 . S
C683 C667 1.429 . S
C683 C679 1.429 . S
C683 C684 1.523 . S
C684 C668 1.368 . S
C684 C680 1.368 . S
C684 C683 1.523 . S
H685 C660 0.950 . S
H686 C662 0.950 . S
H687 C663 0.949 . S
H688 C665 0.950 . S
H689 C667 0.950 . S
C690 C691 1.349 . S
C690 C692 1.327 . S
C690 H715 0.950 . S
C691 C690 1.349 . S
C691 C707 1.349 . S
C692 C690 1.327 . S
C692 C711 1.429 . S
C692 H716 0.950 . S
C693 C710 1.574 . S
C693 C712 1.368 . S
C693 H717 0.949 . S
H694 C698 0.949 . S
C695 C696 1.349 . S
C695 C697 1.327 . S
C695 H718 0.950 . S
C696 C695 1.349 . S
C696 C708 1.349 . S
C697 C695 1.327 . S
C697 C713 1.429 . S
C697 H719 0.950 . S
C698 H694 0.949 . S
C698 C706 1.574 . S
C698 C714 1.368 . S
H699 C707 0.950 . S
H700 C705 0.950 . S
H701 C706 0.949 . S
H702 C708 0.950 . S
H703 C709 0.950 . S
H704 C710 0.949 . S
C705 H700 0.950 . S
C705 C707 1.327 . S
C705 C711 1.429 . S
C706 C698 1.574 . S
C706 H701 0.949 . S
C706 C712 1.368 . S
C707 C691 1.349 . S
C707 H699 0.950 . S
C707 C705 1.327 . S
C708 C696 1.349 . S
C708 H702 0.950 . S
C708 C709 1.327 . S
C709 H703 0.950 . S
C709 C708 1.327 . S
C709 C713 1.429 . S
C710 C693 1.574 . S
C710 H704 0.949 . S
C710 C714 1.368 . S
C711 C692 1.429 . S
C711 C705 1.429 . S
C711 C712 1.523 . S
C712 C693 1.368 . S
C712 C706 1.368 . S
C712 C711 1.523 . S
C713 C697 1.429 . S
C713 C709 1.429 . S
C713 C714 1.523 . S
C714 C698 1.368 . S
C714 C710 1.368 . S
C714 C713 1.523 . S
H715 C690 0.950 . S
H716 C692 0.950 . S
H717 C693 0.949 . S
H718 C695 0.950 . S
H719 C697 0.950 . S
C720 C721 1.349 . S
C720 C722 1.327 . S
C720 H745 0.950 . S
C721 C720 1.349 . S
C721 C737 1.349 . S
C722 C720 1.327 . S
C722 C741 1.429 . S
C722 H746 0.950 . S
C723 C740 1.574 . S
C723 C742 1.368 . S
C723 H747 0.949 . S
H724 C728 0.949 . S
C725 C726 1.349 . S
C725 C727 1.327 . S
C725 H748 0.950 . S
C726 C725 1.349 . S
C726 C738 1.349 . S
C727 C725 1.327 . S
C727 C743 1.429 . S
C727 H749 0.950 . S
C728 H724 0.949 . S
C728 C736 1.574 . S
C728 C744 1.368 . S
H729 C737 0.950 . S
H730 C735 0.950 . S
H731 C736 0.949 . S
H732 C738 0.950 . S
H733 C739 0.950 . S
H734 C740 0.949 . S
C735 H730 0.950 . S
C735 C737 1.327 . S
C735 C741 1.429 . S
C736 C728 1.574 . S
C736 H731 0.949 . S
C736 C742 1.368 . S
C737 C721 1.349 . S
C737 H729 0.950 . S
C737 C735 1.327 . S
C738 C726 1.349 . S
C738 H732 0.950 . S
C738 C739 1.327 . S
C739 H733 0.950 . S
C739 C738 1.327 . S
C739 C743 1.429 . S
C740 C723 1.574 . S
C740 H734 0.949 . S
C740 C744 1.368 . S
C741 C722 1.429 . S
C741 C735 1.429 . S
C741 C742 1.523 . S
C742 C723 1.368 . S
C742 C736 1.368 . S
C742 C741 1.523 . S
C743 C727 1.429 . S
C743 C739 1.429 . S
C743 C744 1.523 . S
C744 C728 1.368 . S
C744 C740 1.368 . S
C744 C743 1.523 . S
H745 C720 0.950 . S
H746 C722 0.950 . S
H747 C723 0.949 . S
H748 C725 0.950 . S
H749 C727 0.950 . S
C750 C751 1.349 . S
C750 C752 1.327 . S
C750 H775 0.950 . S
C751 C750 1.349 . S
C751 C767 1.349 . S
C752 C750 1.327 . S
C752 C771 1.429 . S
C752 H776 0.950 . S
C753 C770 1.574 . S
C753 C772 1.368 . S
C753 H777 0.949 . S
H754 C758 0.949 . S
C755 C756 1.349 . S
C755 C757 1.327 . S
C755 H778 0.950 . S
C756 C755 1.349 . S
C756 C768 1.349 . S
C757 C755 1.327 . S
C757 C773 1.429 . S
C757 H779 0.950 . S
C758 H754 0.949 . S
C758 C766 1.574 . S
C758 C774 1.368 . S
H759 C767 0.950 . S
H760 C765 0.950 . S
H761 C766 0.949 . S
H762 C768 0.950 . S
H763 C769 0.950 . S
H764 C770 0.949 . S
C765 H760 0.950 . S
C765 C767 1.327 . S
C765 C771 1.429 . S
C766 C758 1.574 . S
C766 H761 0.949 . S
C766 C772 1.368 . S
C767 C751 1.349 . S
C767 H759 0.950 . S
C767 C765 1.327 . S
C768 C756 1.349 . S
C768 H762 0.950 . S
C768 C769 1.327 . S
C769 H763 0.950 . S
C769 C768 1.327 . S
C769 C773 1.429 . S
C770 C753 1.574 . S
C770 H764 0.949 . S
C770 C774 1.368 . S
C771 C752 1.429 . S
C771 C765 1.429 . S
C771 C772 1.523 . S
C772 C753 1.368 . S
C772 C766 1.368 . S
C772 C771 1.523 . S
C773 C757 1.429 . S
C773 C769 1.429 . S
C773 C774 1.523 . S
C774 C758 1.368 . S
C774 C770 1.368 . S
C774 C773 1.523 . S
H775 C750 0.950 . S
H776 C752 0.950 . S
H777 C753 0.949 . S
H778 C755 0.950 . S
H779 C757 0.950 . S
C780 C781 1.349 . S
C780 C782 1.327 . S
C780 H805 0.950 . S
C781 C780 1.349 . S
C781 C797 1.349 . S
C782 C780 1.327 . S
C782 C801 1.429 . S
C782 H806 0.950 . S
C783 C800 1.590 1_556 S
C783 C802 1.368 . S
C783 H807 0.949 . S
H784 C788 0.949 . S
C785 C786 1.349 . S
C785 C787 1.327 . S
C785 H808 0.950 . S
C786 C785 1.349 . S
C786 C798 1.349 . S
C787 C785 1.327 . S
C787 C803 1.429 . S
C787 H809 0.950 . S
C788 H784 0.949 . S
C788 C796 1.590 1_554 S
C788 C804 1.368 . S
H789 C797 0.950 . S
H790 C795 0.950 . S
H791 C796 0.950 . S
H792 C798 0.950 . S
H793 C799 0.950 . S
H794 C800 0.950 . S
C795 H790 0.950 . S
C795 C797 1.327 . S
C795 C801 1.429 . S
C796 C788 1.590 1_556 S
C796 H791 0.950 . S
C796 C802 1.341 1_545 S
C797 C781 1.349 . S
C797 H789 0.950 . S
C797 C795 1.327 . S
C798 C786 1.349 . S
C798 H792 0.950 . S
C798 C799 1.327 . S
C799 H793 0.950 . S
C799 C798 1.327 . S
C799 C803 1.429 . S
C800 C783 1.590 1_554 S
C800 H794 0.950 . S
C800 C804 1.341 1_565 S
C801 C782 1.429 . S
C801 C795 1.429 . S
C801 C802 1.523 . S
C802 C783 1.368 . S
C802 C796 1.341 1_565 S
C802 C801 1.523 . S
C803 C787 1.429 . S
C803 C799 1.429 . S
C803 C804 1.523 . S
C804 C788 1.368 . S
C804 C800 1.341 1_545 S
C804 C803 1.523 . S
H805 C780 0.950 . S
H806 C782 0.950 . S
H807 C783 0.949 . S
H808 C785 0.950 . S
H809 C787 0.950 . S
C810 C811 1.349 . S
C810 C812 1.327 . S
C810 H835 0.950 . S
C811 C810 1.349 . S
C811 C827 1.349 . S
C812 C810 1.327 . S
C812 C831 1.429 . S
C812 H836 0.950 . S
C813 C830 1.574 . S
C813 C832 1.368 . S
C813 H837 0.949 . S
H814 C818 0.949 . S
C815 C816 1.349 . S
C815 C817 1.327 . S
C815 H838 0.950 . S
C816 C815 1.349 . S
C816 C828 1.349 . S
C817 C815 1.327 . S
C817 C833 1.429 . S
C817 H839 0.950 . S
C818 H814 0.949 . S
C818 C826 1.574 . S
C818 C834 1.368 . S
H819 C827 0.950 . S
H820 C825 0.950 . S
H821 C826 0.949 . S
H822 C828 0.950 . S
H823 C829 0.950 . S
H824 C830 0.949 . S
C825 H820 0.950 . S
C825 C827 1.327 . S
C825 C831 1.429 . S
C826 C818 1.574 . S
C826 H821 0.949 . S
C826 C832 1.368 . S
C827 C811 1.349 . S
C827 H819 0.950 . S
C827 C825 1.327 . S
C828 C816 1.349 . S
C828 H822 0.950 . S
C828 C829 1.327 . S
C829 H823 0.950 . S
C829 C828 1.327 . S
C829 C833 1.429 . S
C830 C813 1.574 . S
C830 H824 0.949 . S
C830 C834 1.368 . S
C831 C812 1.429 . S
C831 C825 1.429 . S
C831 C832 1.523 . S
C832 C813 1.368 . S
C832 C826 1.368 . S
C832 C831 1.523 . S
C833 C817 1.429 . S
C833 C829 1.429 . S
C833 C834 1.523 . S
C834 C818 1.368 . S
C834 C830 1.368 . S
C834 C833 1.523 . S
H835 C810 0.950 . S
H836 C812 0.950 . S
H837 C813 0.949 . S
H838 C815 0.950 . S
H839 C817 0.950 . S
C840 C841 1.349 . S
C840 C842 1.327 . S
C840 H865 0.950 . S
C841 C840 1.349 . S
C841 C857 1.349 . S
C842 C840 1.327 . S
C842 C861 1.429 . S
C842 H866 0.950 . S
C843 C860 1.574 1_456 S
C843 C862 1.368 . S
C843 H867 0.949 . S
H844 C848 0.949 . S
C845 C846 1.349 . S
C845 C847 1.327 . S
C845 H868 0.950 . S
C846 C845 1.349 . S
C846 C858 1.349 . S
C847 C845 1.327 . S
C847 C863 1.429 . S
C847 H869 0.950 . S
C848 H844 0.949 . S
C848 C856 1.574 1_654 S
C848 C864 1.368 . S
H849 C857 0.950 . S
H850 C855 0.950 . S
H851 C856 0.949 . S
H852 C858 0.950 . S
H853 C859 0.950 . S
H854 C860 0.949 . S
C855 H850 0.950 . S
C855 C857 1.327 . S
C855 C861 1.429 . S
C856 C848 1.574 1_456 S
C856 H851 0.949 . S
C856 C862 1.368 . S
C857 C841 1.349 . S
C857 H849 0.950 . S
C857 C855 1.327 . S
C858 C846 1.349 . S
C858 H852 0.950 . S
C858 C859 1.327 . S
C859 H853 0.950 . S
C859 C858 1.327 . S
C859 C863 1.429 . S
C860 C843 1.574 1_654 S
C860 H854 0.949 . S
C860 C864 1.368 . S
C861 C842 1.429 . S
C861 C855 1.429 . S
C861 C862 1.523 . S
C862 C843 1.368 . S
C862 C856 1.368 . S
C862 C861 1.523 . S
C863 C847 1.429 . S
C863 C859 1.429 . S
C863 C864 1.523 . S
C864 C848 1.368 . S
C864 C860 1.368 . S
C864 C863 1.523 . S
H865 C840 0.950 . S
H866 C842 0.950 . S
H867 C843 0.949 . S
H868 C845 0.950 . S
H869 C847 0.950 . S
C870 C871 1.349 . S
C870 C872 1.327 . S
C870 H895 0.950 . S
C871 C870 1.349 . S
C871 C887 1.349 . S
C872 C870 1.327 . S
C872 C891 1.429 . S
C872 H896 0.950 . S
C873 C890 1.574 . S
C873 C892 1.368 1_565 S
C873 H897 0.949 . S
H874 C878 0.949 . S
C875 C876 1.349 . S
C875 C877 1.327 . S
C875 H898 0.950 . S
C876 C875 1.349 . S
C876 C888 1.349 . S
C877 C875 1.327 . S
C877 C893 1.429 . S
C877 H899 0.950 . S
C878 H874 0.949 . S
C878 C886 1.574 . S
C878 C894 1.368 1_545 S
H879 C887 0.950 . S
H880 C885 0.950 . S
H881 C886 0.949 . S
H882 C888 0.950 . S
H883 C889 0.950 . S
H884 C890 0.949 . S
C885 H880 0.950 . S
C885 C887 1.327 . S
C885 C891 1.429 . S
C886 C878 1.574 . S
C886 H881 0.949 . S
C886 C892 1.368 . S
C887 C871 1.349 . S
C887 H879 0.950 . S
C887 C885 1.327 . S
C888 C876 1.349 . S
C888 H882 0.950 . S
C888 C889 1.327 . S
C889 H883 0.950 . S
C889 C888 1.327 . S
C889 C893 1.429 . S
C890 C873 1.574 . S
C890 H884 0.949 . S
C890 C894 1.368 . S
C891 C872 1.429 . S
C891 C885 1.429 . S
C891 C892 1.523 . S
C892 C873 1.368 1_545 S
C892 C886 1.368 . S
C892 C891 1.523 . S
C893 C877 1.429 . S
C893 C889 1.429 . S
C893 C894 1.523 . S
C894 C878 1.368 1_565 S
C894 C890 1.368 . S
C894 C893 1.523 . S
H895 C870 0.950 . S
H896 C872 0.950 . S
H897 C873 0.949 . S
H898 C875 0.950 . S
H899 C877 0.950 . S
C900 C901 1.349 . S
C900 C902 1.327 . S
C900 H925 0.950 . S
C901 C900 1.349 . S
C901 C917 1.349 . S
C902 C900 1.327 . S
C902 C921 1.429 . S
C902 H926 0.950 . S
C903 C920 1.574 1_554 S
C903 C922 1.368 . S
C903 H927 0.949 . S
H904 C908 0.949 . S
C905 C906 1.349 . S
C905 C907 1.327 . S
C905 H928 0.950 . S
C906 C905 1.349 . S
C906 C918 1.349 . S
C907 C905 1.327 . S
C907 C923 1.429 . S
C907 H929 0.950 . S
C908 H904 0.949 . S
C908 C916 1.574 1_556 S
C908 C924 1.368 . S
H909 C917 0.950 . S
H910 C915 0.950 . S
H911 C916 0.949 . S
H912 C918 0.950 . S
H913 C919 0.950 . S
H914 C920 0.949 . S
C915 H910 0.950 . S
C915 C917 1.327 . S
C915 C921 1.429 . S
C916 C908 1.574 1_554 S
C916 H911 0.949 . S
C916 C922 1.368 . S
C917 C901 1.349 . S
C917 H909 0.950 . S
C917 C915 1.327 . S
C918 C906 1.349 . S
C918 H912 0.950 . S
C918 C919 1.327 . S
C919 H913 0.950 . S
C919 C918 1.327 . S
C919 C923 1.429 . S
C920 C903 1.574 1_556 S
C920 H914 0.949 . S
C920 C924 1.368 . S
C921 C902 1.429 . S
C921 C915 1.429 . S
C921 C922 1.523 . S
C922 C903 1.368 . S
C922 C916 1.368 . S
C922 C921 1.523 . S
C923 C907 1.429 . S
C923 C919 1.429 . S
C923 C924 1.523 . S
C924 C908 1.368 . S
C924 C920 1.368 . S
C924 C923 1.523 . S
H925 C900 0.950 . S
H926 C902 0.950 . S
H927 C903 0.949 . S
H928 C905 0.950 . S
H929 C907 0.950 . S
C930 C931 1.349 . S
C930 C932 1.327 . S
C930 H955 0.950 . S
C931 C930 1.349 . S
C931 C947 1.349 . S
C932 C930 1.327 . S
C932 C951 1.429 . S
C932 H956 0.950 . S
C933 C950 1.574 . S
C933 C952 1.368 . S
C933 H957 0.949 . S
H934 C938 0.949 . S
C935 C936 1.349 . S
C935 C937 1.327 . S
C935 H958 0.950 . S
C936 C935 1.349 . S
C936 C948 1.349 . S
C937 C935 1.327 . S
C937 C953 1.429 . S
C937 H959 0.950 . S
C938 H934 0.949 . S
C938 C946 1.574 . S
C938 C954 1.368 . S
H939 C947 0.950 . S
H940 C945 0.950 . S
H941 C946 0.949 . S
H942 C948 0.950 . S
H943 C949 0.950 . S
H944 C950 0.949 . S
C945 H940 0.950 . S
C945 C947 1.327 . S
C945 C951 1.429 . S
C946 C938 1.574 . S
C946 H941 0.949 . S
C946 C952 1.368 1_655 S
C947 C931 1.349 . S
C947 H939 0.950 . S
C947 C945 1.327 . S
C948 C936 1.349 . S
C948 H942 0.950 . S
C948 C949 1.327 . S
C949 H943 0.950 . S
C949 C948 1.327 . S
C949 C953 1.429 . S
C950 C933 1.574 . S
C950 H944 0.949 . S
C950 C954 1.368 1_455 S
C951 C932 1.429 . S
C951 C945 1.429 . S
C951 C952 1.523 . S
C952 C933 1.368 . S
C952 C946 1.368 1_455 S
C952 C951 1.523 . S
C953 C937 1.429 . S
C953 C949 1.429 . S
C953 C954 1.523 . S
C954 C938 1.368 . S
C954 C950 1.368 1_655 S
C954 C953 1.523 . S
H955 C930 0.950 . S
H956 C932 0.950 . S
H957 C933 0.949 . S
H958 C935 0.950 . S
H959 C937 0.950 . S
C960 C961 1.349 . S
C960 C962 1.327 . S
C960 H985 0.950 . S
C961 C960 1.349 . S
C961 C977 1.349 . S
C962 C960 1.327 . S
C962 C981 1.429 . S
C962 H986 0.950 . S
C963 C980 1.574 . S
C963 C982 1.368 . S
C963 H987 0.949 . S
H964 C968 0.949 . S
C965 C966 1.349 . S
C965 C967 1.327 . S
C965 H988 0.950 . S
C966 C965 1.349 . S
C966 C978 1.349 . S
C967 C965 1.327 . S
C967 C983 1.429 . S
C967 H989 0.950 . S
C968 H964 0.949 . S
C968 C976 1.574 . S
C968 C984 1.368 . S
H969 C977 0.950 . S
H970 C975 0.950 . S
H971 C976 0.949 . S
H972 C978 0.950 . S
H973 C979 0.950 . S
H974 C980 0.949 . S
C975 H970 0.950 . S
C975 C977 1.327 . S
C975 C981 1.429 . S
C976 C968 1.574 . S
C976 H971 0.949 . S
C976 C982 1.368 . S
C977 C961 1.349 . S
C977 H969 0.950 . S
C977 C975 1.327 . S
C978 C966 1.349 . S
C978 H972 0.950 . S
C978 C979 1.327 . S
C979 H973 0.950 . S
C979 C978 1.327 . S
C979 C983 1.429 . S
C980 C963 1.574 . S
C980 H974 0.949 . S
C980 C984 1.368 . S
C981 C962 1.429 . S
C981 C975 1.429 . S
C981 C982 1.523 . S
C982 C963 1.368 . S
C982 C976 1.368 . S
C982 C981 1.523 . S
C983 C967 1.429 . S
C983 C979 1.429 . S
C983 C984 1.523 . S
C984 C968 1.368 . S
C984 C980 1.368 . S
C984 C983 1.523 . S
H985 C960 0.950 . S
H986 C962 0.950 . S
H987 C963 0.949 . S
H988 C965 0.950 . S
H989 C967 0.950 . S
C990 C991 1.349 . S
C990 C992 1.327 . S
C990 H1015 0.950 . S
C991 C990 1.349 . S
C991 C1007 1.349 . S
C992 C990 1.327 . S
C992 C1011 1.429 . S
C992 H1016 0.950 . S
C993 C1010 1.574 . S
C993 C1012 1.368 . S
C993 H1017 0.949 . S
H994 C998 0.949 . S
C995 C996 1.349 . S
C995 C997 1.327 . S
C995 H1018 0.950 . S
C996 C995 1.349 . S
C996 C1008 1.349 . S
C997 C995 1.327 . S
C997 C1013 1.429 . S
C997 H1019 0.950 . S
C998 H994 0.949 . S
C998 C1006 1.574 . S
C998 C1014 1.368 . S
H999 C1007 0.950 . S
H1000 C1005 0.950 . S
H1001 C1006 0.949 . S
H1002 C1008 0.950 . S
H1003 C1009 0.950 . S
H1004 C1010 0.949 . S
C1005 H1000 0.950 . S
C1005 C1007 1.327 . S
C1005 C1011 1.429 . S
C1006 C998 1.574 . S
C1006 H1001 0.949 . S
C1006 C1012 1.368 . S
C1007 C991 1.349 . S
C1007 H999 0.950 . S
C1007 C1005 1.327 . S
C1008 C996 1.349 . S
C1008 H1002 0.950 . S
C1008 C1009 1.327 . S
C1009 H1003 0.950 . S
C1009 C1008 1.327 . S
C1009 C1013 1.429 . S
C1010 C993 1.574 . S
C1010 H1004 0.949 . S
C1010 C1014 1.368 . S
C1011 C992 1.429 . S
C1011 C1005 1.429 . S
C1011 C1012 1.523 . S
C1012 C993 1.368 . S
C1012 C1006 1.368 . S
C1012 C1011 1.523 . S
C1013 C997 1.429 . S
C1013 C1009 1.429 . S
C1013 C1014 1.523 . S
C1014 C998 1.368 . S
C1014 C1010 1.368 . S
C1014 C1013 1.523 . S
H1015 C990 0.950 . S
H1016 C992 0.950 . S
H1017 C993 0.949 . S
H1018 C995 0.950 . S
H1019 C997 0.950 . S
C1020 C1021 1.349 . S
C1020 C1022 1.327 . S
C1020 H1045 0.950 . S
C1021 C1020 1.349 . S
C1021 C1037 1.349 . S
C1022 C1020 1.327 . S
C1022 C1041 1.429 . S
C1022 H1046 0.950 . S
C1023 C1040 1.574 . S
C1023 C1042 1.368 . S
C1023 H1047 0.949 . S
H1024 C1028 0.949 . S
C1025 C1026 1.349 . S
C1025 C1027 1.327 . S
C1025 H1048 0.950 . S
C1026 C1025 1.349 . S
C1026 C1038 1.349 . S
C1027 C1025 1.327 . S
C1027 C1043 1.429 . S
C1027 H1049 0.950 . S
C1028 H1024 0.949 . S
C1028 C1036 1.574 . S
C1028 C1044 1.368 . S
H1029 C1037 0.950 . S
H1030 C1035 0.950 . S
H1031 C1036 0.949 . S
H1032 C1038 0.950 . S
H1033 C1039 0.950 . S
H1034 C1040 0.949 . S
C1035 H1030 0.950 . S
C1035 C1037 1.327 . S
C1035 C1041 1.429 . S
C1036 C1028 1.574 . S
C1036 H1031 0.949 . S
C1036 C1042 1.368 . S
C1037 C1021 1.349 . S
C1037 H1029 0.950 . S
C1037 C1035 1.327 . S
C1038 C1026 1.349 . S
C1038 H1032 0.950 . S
C1038 C1039 1.327 . S
C1039 H1033 0.950 . S
C1039 C1038 1.327 . S
C1039 C1043 1.429 . S
C1040 C1023 1.574 . S
C1040 H1034 0.949 . S
C1040 C1044 1.368 . S
C1041 C1022 1.429 . S
C1041 C1035 1.429 . S
C1041 C1042 1.523 . S
C1042 C1023 1.368 . S
C1042 C1036 1.368 . S
C1042 C1041 1.523 . S
C1043 C1027 1.429 . S
C1043 C1039 1.429 . S
C1043 C1044 1.523 . S
C1044 C1028 1.368 . S
C1044 C1040 1.368 . S
C1044 C1043 1.523 . S
H1045 C1020 0.950 . S
H1046 C1022 0.950 . S
H1047 C1023 0.949 . S
H1048 C1025 0.950 . S
H1049 C1027 0.950 . S
C1050 C1051 1.349 . S
C1050 C1052 1.327 . S
C1050 H1075 0.950 . S
C1051 C1050 1.349 . S
C1051 C1067 1.349 . S
C1052 C1050 1.327 . S
C1052 C1071 1.429 . S
C1052 H1076 0.950 . S
C1053 C1070 1.574 . S
C1053 C1072 1.368 . S
C1053 H1077 0.949 . S
H1054 C1058 0.949 . S
C1055 C1056 1.349 . S
C1055 C1057 1.327 . S
C1055 H1078 0.950 . S
C1056 C1055 1.349 . S
C1056 C1068 1.349 . S
C1057 C1055 1.327 . S
C1057 C1073 1.429 . S
C1057 H1079 0.950 . S
C1058 H1054 0.949 . S
C1058 C1066 1.574 . S
C1058 C1074 1.368 . S
H1059 C1067 0.950 . S
H1060 C1065 0.950 . S
H1061 C1066 0.949 . S
H1062 C1068 0.950 . S
H1063 C1069 0.950 . S
H1064 C1070 0.949 . S
C1065 H1060 0.950 . S
C1065 C1067 1.327 . S
C1065 C1071 1.429 . S
C1066 C1058 1.574 . S
C1066 H1061 0.949 . S
C1066 C1072 1.368 . S
C1067 C1051 1.349 . S
C1067 H1059 0.950 . S
C1067 C1065 1.327 . S
C1068 C1056 1.349 . S
C1068 H1062 0.950 . S
C1068 C1069 1.327 . S
C1069 H1063 0.950 . S
C1069 C1068 1.327 . S
C1069 C1073 1.429 . S
C1070 C1053 1.574 . S
C1070 H1064 0.949 . S
C1070 C1074 1.368 . S
C1071 C1052 1.429 . S
C1071 C1065 1.429 . S
C1071 C1072 1.523 . S
C1072 C1053 1.368 . S
C1072 C1066 1.368 . S
C1072 C1071 1.523 . S
C1073 C1057 1.429 . S
C1073 C1069 1.429 . S
C1073 C1074 1.523 . S
C1074 C1058 1.368 . S
C1074 C1070 1.368 . S
C1074 C1073 1.523 . S
H1075 C1050 0.950 . S
H1076 C1052 0.950 . S
H1077 C1053 0.949 . S
H1078 C1055 0.950 . S
H1079 C1057 0.950 . S
C1080 C1081 1.349 . S
C1080 C1082 1.327 . S
C1080 H1105 0.950 . S
C1081 C1080 1.349 . S
C1081 C1097 1.349 . S
C1082 C1080 1.327 . S
C1082 C1101 1.429 . S
C1082 H1106 0.950 . S
C1083 C1100 1.574 . S
C1083 C1102 1.368 . S
C1083 H1107 0.949 . S
H1084 C1088 0.949 . S
C1085 C1086 1.349 . S
C1085 C1087 1.327 . S
C1085 H1108 0.950 . S
C1086 C1085 1.349 . S
C1086 C1098 1.349 . S
C1087 C1085 1.327 . S
C1087 C1103 1.429 . S
C1087 H1109 0.950 . S
C1088 H1084 0.949 . S
C1088 C1096 1.574 . S
C1088 C1104 1.368 . S
H1089 C1097 0.950 . S
H1090 C1095 0.950 . S
H1091 C1096 0.949 . S
H1092 C1098 0.950 . S
H1093 C1099 0.950 . S
H1094 C1100 0.949 . S
C1095 H1090 0.950 . S
C1095 C1097 1.327 . S
C1095 C1101 1.429 . S
C1096 C1088 1.574 . S
C1096 H1091 0.949 . S
C1096 C1102 1.368 . S
C1097 C1081 1.349 . S
C1097 H1089 0.950 . S
C1097 C1095 1.327 . S
C1098 C1086 1.349 . S
C1098 H1092 0.950 . S
C1098 C1099 1.327 . S
C1099 H1093 0.950 . S
C1099 C1098 1.327 . S
C1099 C1103 1.429 . S
C1100 C1083 1.574 . S
C1100 H1094 0.949 . S
C1100 C1104 1.368 . S
C1101 C1082 1.429 . S
C1101 C1095 1.429 . S
C1101 C1102 1.523 . S
C1102 C1083 1.368 . S
C1102 C1096 1.368 . S
C1102 C1101 1.523 . S
C1103 C1087 1.429 . S
C1103 C1099 1.429 . S
C1103 C1104 1.523 . S
C1104 C1088 1.368 . S
C1104 C1100 1.368 . S
C1104 C1103 1.523 . S
H1105 C1080 0.950 . S
H1106 C1082 0.950 . S
H1107 C1083 0.949 . S
H1108 C1085 0.950 . S
H1109 C1087 0.950 . S
C1110 C1111 1.349 . S
C1110 C1112 1.327 . S
C1110 H1135 0.950 . S
C1111 C1110 1.349 . S
C1111 C1127 1.349 . S
C1112 C1110 1.327 . S
C1112 C1131 1.429 . S
C1112 H1136 0.950 . S
C1113 C1130 1.574 . S
C1113 C1132 1.368 . S
C1113 H1137 0.949 . S
H1114 C1118 0.949 . S
C1115 C1116 1.349 . S
C1115 C1117 1.327 . S
C1115 H1138 0.950 . S
C1116 C1115 1.349 . S
C1116 C1128 1.349 . S
C1117 C1115 1.327 . S
C1117 C1133 1.429 . S
C1117 H1139 0.950 . S
C1118 H1114 0.949 . S
C1118 C1126 1.574 . S
C1118 C1134 1.368 . S
H1119 C1127 0.950 . S
H1120 C1125 0.950 . S
H1121 C1126 0.949 . S
H1122 C1128 0.950 . S
H1123 C1129 0.950 . S
H1124 C1130 0.949 . S
C1125 H1120 0.950 . S
C1125 C1127 1.327 . S
C1125 C1131 1.429 . S
C1126 C1118 1.574 . S
C1126 H1121 0.949 . S
C1126 C1132 1.368 . S
C1127 C1111 1.349 . S
C1127 H1119 0.950 . S
C1127 C1125 1.327 . S
C1128 C1116 1.349 . S
C1128 H1122 0.950 . S
C1128 C1129 1.327 . S
C1129 H1123 0.950 . S
C1129 C1128 1.327 . S
C1129 C1133 1.429 . S
C1130 C1113 1.574 . S
C1130 H1124 0.949 . S
C1130 C1134 1.368 . S
C1131 C1112 1.429 . S
C1131 C1125 1.429 . S
C1131 C1132 1.523 . S
C1132 C1113 1.368 . S
C1132 C1126 1.368 . S
C1132 C1131 1.523 . S
C1133 C1117 1.429 . S
C1133 C1129 1.429 . S
C1133 C1134 1.523 . S
C1134 C1118 1.368 . S
C1134 C1130 1.368 . S
C1134 C1133 1.523 . S
H1135 C1110 0.950 . S
H1136 C1112 0.950 . S
H1137 C1113 0.949 . S
H1138 C1115 0.950 . S
H1139 C1117 0.950 . S
C1140 C1141 1.349 . S
C1140 C1142 1.327 . S
C1140 H1165 0.950 . S
C1141 C1140 1.349 . S
C1141 C1157 1.349 . S
C1142 C1140 1.327 . S
C1142 C1161 1.429 . S
C1142 H1166 0.950 . S
C1143 C1160 1.574 . S
C1143 C1162 1.368 . S
C1143 H1167 0.949 . S
H1144 C1148 0.949 . S
C1145 C1146 1.349 . S
C1145 C1147 1.327 . S
C1145 H1168 0.950 . S
C1146 C1145 1.349 . S
C1146 C1158 1.349 . S
C1147 C1145 1.327 . S
C1147 C1163 1.429 . S
C1147 H1169 0.950 . S
C1148 H1144 0.949 . S
C1148 C1156 1.574 . S
C1148 C1164 1.368 . S
H1149 C1157 0.950 . S
H1150 C1155 0.950 . S
H1151 C1156 0.949 . S
H1152 C1158 0.950 . S
H1153 C1159 0.950 . S
H1154 C1160 0.949 . S
C1155 H1150 0.950 . S
C1155 C1157 1.327 . S
C1155 C1161 1.429 . S
C1156 C1148 1.574 . S
C1156 H1151 0.949 . S
C1156 C1162 1.368 . S
C1157 C1141 1.349 . S
C1157 H1149 0.950 . S
C1157 C1155 1.327 . S
C1158 C1146 1.349 . S
C1158 H1152 0.950 . S
C1158 C1159 1.327 . S
C1159 H1153 0.950 . S
C1159 C1158 1.327 . S
C1159 C1163 1.429 . S
C1160 C1143 1.574 . S
C1160 H1154 0.949 . S
C1160 C1164 1.368 . S
C1161 C1142 1.429 . S
C1161 C1155 1.429 . S
C1161 C1162 1.523 . S
C1162 C1143 1.368 . S
C1162 C1156 1.368 . S
C1162 C1161 1.523 . S
C1163 C1147 1.429 . S
C1163 C1159 1.429 . S
C1163 C1164 1.523 . S
C1164 C1148 1.368 . S
C1164 C1160 1.368 . S
C1164 C1163 1.523 . S
H1165 C1140 0.950 . S
H1166 C1142 0.950 . S
H1167 C1143 0.949 . S
H1168 C1145 0.950 . S
H1169 C1147 0.950 . S
C1170 C1171 1.349 . S
C1170 C1172 1.327 . S
C1170 H1195 0.950 . S
C1171 C1170 1.349 . S
C1171 C1187 1.349 . S
C1172 C1170 1.327 . S
C1172 C1191 1.429 . S
C1172 H1196 0.950 . S
C1173 C1190 1.574 . S
C1173 C1192 1.368 . S
C1173 H1197 0.949 . S
H1174 C1178 0.949 . S
C1175 C1176 1.349 . S
C1175 C1177 1.327 . S
C1175 H1198 0.950 . S
C1176 C1175 1.349 . S
C1176 C1188 1.349 . S
C1177 C1175 1.327 . S
C1177 C1193 1.429 . S
C1177 H1199 0.950 . S
C1178 H1174 0.949 . S
C1178 C1186 1.574 . S
C1178 C1194 1.368 . S
H1179 C1187 0.950 . S
H1180 C1185 0.950 . S
H1181 C1186 0.949 . S
H1182 C1188 0.950 . S
H1183 C1189 0.950 . S
H1184 C1190 0.949 . S
C1185 H1180 0.950 . S
C1185 C1187 1.327 . S
C1185 C1191 1.429 . S
C1186 C1178 1.574 . S
C1186 H1181 0.949 . S
C1186 C1192 1.368 . S
C1187 C1171 1.349 . S
C1187 H1179 0.950 . S
C1187 C1185 1.327 . S
C1188 C1176 1.349 . S
C1188 H1182 0.950 . S
C1188 C1189 1.327 . S
C1189 H1183 0.950 . S
C1189 C1188 1.327 . S
C1189 C1193 1.429 . S
C1190 C1173 1.574 . S
C1190 H1184 0.949 . S
C1190 C1194 1.368 . S
C1191 C1172 1.429 . S
C1191 C1185 1.429 . S
C1191 C1192 1.523 . S
C1192 C1173 1.368 . S
C1192 C1186 1.368 . S
C1192 C1191 1.523 . S
C1193 C1177 1.429 . S
C1193 C1189 1.429 . S
C1193 C1194 1.523 . S
C1194 C1178 1.368 . S
C1194 C1190 1.368 . S
C1194 C1193 1.523 . S
H1195 C1170 0.950 . S
H1196 C1172 0.950 . S
H1197 C1173 0.949 . S
H1198 C1175 0.950 . S
H1199 C1177 0.950 . S
C1200 C1201 1.349 . S
C1200 C1202 1.327 . S
C1200 H1225 0.950 . S
C1201 C1200 1.349 . S
C1201 C1217 1.349 . S
C1202 C1200 1.327 . S
C1202 C1221 1.429 . S
C1202 H1226 0.950 . S
C1203 C1220 1.574 . S
C1203 C1222 1.368 . S
C1203 H1227 0.949 . S
H1204 C1208 0.949 . S
C1205 C1206 1.349 . S
C1205 C1207 1.327 . S
C1205 H1228 0.950 . S
C1206 C1205 1.349 . S
C1206 C1218 1.349 . S
C1207 C1205 1.327 . S
C1207 C1223 1.429 . S
C1207 H1229 0.950 . S
C1208 H1204 0.949 . S
C1208 C1216 1.574 . S
C1208 C1224 1.368 . S
H1209 C1217 0.950 . S
H1210 C1215 0.950 . S
H1211 C1216 0.949 . S
H1212 C1218 0.950 . S
H1213 C1219 0.950 . S
H1214 C1220 0.949 . S
C1215 H1210 0.950 . S
C1215 C1217 1.327 . S
C1215 C1221 1.429 . S
C1216 C1208 1.574 . S
C1216 H1211 0.949 . S
C1216 C1222 1.368 . S
C1217 C1201 1.349 . S
C1217 H1209 0.950 . S
C1217 C1215 1.327 . S
C1218 C1206 1.349 . S
C1218 H1212 0.950 . S
C1218 C1219 1.327 . S
C1219 H1213 0.950 . S
C1219 C1218 1.327 . S
C1219 C1223 1.429 . S
C1220 C1203 1.574 . S
C1220 H1214 0.949 . S
C1220 C1224 1.368 . S
C1221 C1202 1.429 . S
C1221 C1215 1.429 . S
C1221 C1222 1.523 . S
C1222 C1203 1.368 . S
C1222 C1216 1.368 . S
C1222 C1221 1.523 . S
C1223 C1207 1.429 . S
C1223 C1219 1.429 . S
C1223 C1224 1.523 . S
C1224 C1208 1.368 . S
C1224 C1220 1.368 . S
C1224 C1223 1.523 . S
H1225 C1200 0.950 . S
H1226 C1202 0.950 . S
H1227 C1203 0.949 . S
H1228 C1205 0.950 . S
H1229 C1207 0.950 . S
C1230 C1231 1.349 . S
C1230 C1232 1.327 . S
C1230 H1255 0.950 . S
C1231 C1230 1.349 . S
C1231 C1247 1.349 . S
C1232 C1230 1.327 . S
C1232 C1251 1.429 . S
C1232 H1256 0.950 . S
C1233 C1250 1.574 . S
C1233 C1252 1.368 . S
C1233 H1257 0.949 . S
H1234 C1238 0.949 . S
C1235 C1236 1.349 . S
C1235 C1237 1.327 . S
C1235 H1258 0.950 . S
C1236 C1235 1.349 . S
C1236 C1248 1.349 . S
C1237 C1235 1.327 . S
C1237 C1253 1.429 . S
C1237 H1259 0.950 . S
C1238 H1234 0.949 . S
C1238 C1246 1.574 . S
C1238 C1254 1.368 . S
H1239 C1247 0.950 . S
H1240 C1245 0.950 . S
H1241 C1246 0.949 . S
H1242 C1248 0.950 . S
H1243 C1249 0.950 . S
H1244 C1250 0.949 . S
C1245 H1240 0.950 . S
C1245 C1247 1.327 . S
C1245 C1251 1.429 . S
C1246 C1238 1.574 . S
C1246 H1241 0.949 . S
C1246 C1252 1.368 . S
C1247 C1231 1.349 . S
C1247 H1239 0.950 . S
C1247 C1245 1.327 . S
C1248 C1236 1.349 . S
C1248 H1242 0.950 . S
C1248 C1249 1.327 . S
C1249 H1243 0.950 . S
C1249 C1248 1.327 . S
C1249 C1253 1.429 . S
C1250 C1233 1.574 . S
C1250 H1244 0.949 . S
C1250 C1254 1.368 . S
C1251 C1232 1.429 . S
C1251 C1245 1.429 . S
C1251 C1252 1.523 . S
C1252 C1233 1.368 . S
C1252 C1246 1.368 . S
C1252 C1251 1.523 . S
C1253 C1237 1.429 . S
C1253 C1249 1.429 . S
C1253 C1254 1.523 . S
C1254 C1238 1.368 . S
C1254 C1250 1.368 . S
C1254 C1253 1.523 . S
H1255 C1230 0.950 . S
H1256 C1232 0.950 . S
H1257 C1233 0.949 . S
H1258 C1235 0.950 . S
H1259 C1237 0.950 . S
C1260 C1261 1.349 . S
C1260 C1262 1.327 . S
C1260 H1285 0.950 . S
C1261 C1260 1.349 . S
C1261 C1277 1.349 . S
C1262 C1260 1.327 . S
C1262 C1281 1.429 . S
C1262 H1286 0.950 . S
C1263 C1280 1.574 . S
C1263 C1282 1.368 . S
C1263 H1287 0.949 . S
H1264 C1268 0.949 . S
C1265 C1266 1.349 . S
C1265 C1267 1.327 . S
C1265 H1288 0.950 . S
C1266 C1265 1.349 . S
C1266 C1278 1.349 . S
C1267 C1265 1.327 . S
C1267 C1283 1.429 . S
C1267 H1289 0.950 . S
C1268 H1264 0.949 . S
C1268 C1276 1.574 . S
C1268 C1284 1.368 . S
H1269 C1277 0.950 . S
H1270 C1275 0.950 . S
H1271 C1276 0.949 . S
H1272 C1278 0.950 . S
H1273 C1279 0.950 . S
H1274 C1280 0.949 . S
C1275 H1270 0.950 . S
C1275 C1277 1.327 . S
C1275 C1281 1.429 . S
C1276 C1268 1.574 . S
C1276 H1271 0.949 . S
C1276 C1282 1.368 . S
C1277 C1261 1.349 . S
C1277 H1269 0.950 . S
C1277 C1275 1.327 . S
C1278 C1266 1.349 . S
C1278 H1272 0.950 . S
C1278 C1279 1.327 . S
C1279 H1273 0.950 . S
C1279 C1278 1.327 . S
C1279 C1283 1.429 . S
C1280 C1263 1.574 . S
C1280 H1274 0.949 . S
C1280 C1284 1.368 . S
C1281 C1262 1.429 . S
C1281 C1275 1.429 . S
C1281 C1282 1.523 . S
C1282 C1263 1.368 . S
C1282 C1276 1.368 . S
C1282 C1281 1.523 . S
C1283 C1267 1.429 . S
C1283 C1279 1.429 . S
C1283 C1284 1.523 . S
C1284 C1268 1.368 . S
C1284 C1280 1.368 . S
C1284 C1283 1.523 . S
H1285 C1260 0.950 . S
H1286 C1262 0.950 . S
H1287 C1263 0.949 . S
H1288 C1265 0.950 . S
H1289 C1267 0.950 . S
C1290 C1291 1.349 . S
C1290 C1292 1.327 . S
C1290 H1315 0.950 . S
C1291 C1290 1.349 . S
C1291 C1307 1.349 . S
C1292 C1290 1.327 . S
C1292 C1311 1.429 . S
C1292 H1316 0.950 . S
C1293 C1310 1.574 . S
C1293 C1312 1.368 . S
C1293 H1317 0.949 . S
H1294 C1298 0.949 . S
C1295 C1296 1.349 . S
C1295 C1297 1.327 . S
C1295 H1318 0.950 . S
C1296 C1295 1.349 . S
C1296 C1308 1.349 . S
C1297 C1295 1.327 . S
C1297 C1313 1.429 . S
C1297 H1319 0.950 . S
C1298 H1294 0.949 . S
C1298 C1306 1.574 . S
C1298 C1314 1.368 . S
H1299 C1307 0.950 . S
H1300 C1305 0.950 . S
H1301 C1306 0.949 . S
H1302 C1308 0.950 . S
H1303 C1309 0.950 . S
H1304 C1310 0.949 . S
C1305 H1300 0.950 . S
C1305 C1307 1.327 . S
C1305 C1311 1.429 . S
C1306 C1298 1.574 . S
C1306 H1301 0.949 . S
C1306 C1312 1.368 . S
C1307 C1291 1.349 . S
C1307 H1299 0.950 . S
C1307 C1305 1.327 . S
C1308 C1296 1.349 . S
C1308 H1302 0.950 . S
C1308 C1309 1.327 . S
C1309 H1303 0.950 . S
C1309 C1308 1.327 . S
C1309 C1313 1.429 . S
C1310 C1293 1.574 . S
C1310 H1304 0.949 . S
C1310 C1314 1.368 . S
C1311 C1292 1.429 . S
C1311 C1305 1.429 . S
C1311 C1312 1.523 . S
C1312 C1293 1.368 . S
C1312 C1306 1.368 . S
C1312 C1311 1.523 . S
C1313 C1297 1.429 . S
C1313 C1309 1.429 . S
C1313 C1314 1.523 . S
C1314 C1298 1.368 . S
C1314 C1310 1.368 . S
C1314 C1313 1.523 . S
H1315 C1290 0.950 . S
H1316 C1292 0.950 . S
H1317 C1293 0.949 . S
H1318 C1295 0.950 . S
H1319 C1297 0.950 . S
C241 C49 0.999 . S
C246 C2 1.008 . S
C271 C72 0.999 . S
C276 C24 1.008 . S
C301 C42 1.008 . S
C306 C89 0.999 . S
C331 C64 1.008 . S
C336 C112 0.999 . S
C361 C9 0.999 . S
C366 C82 1.008 . S
C391 C32 0.999 . S
C396 C104 1.008 . S
C421 C212 0.999 . S
C426 C124 1.008 . S
C451 C142 1.008 . S
C456 C229 0.999 . S
C481 C164 1.008 . S
C486 C132 0.999 . S
C511 C182 1.008 . S
C516 C149 0.999 . S
C541 C204 1.008 . S
C546 C172 0.999 . S
C571 C189 0.999 . S
C576 C222 1.008 . S
C601 C78 1.783 . S
C606 C19 1.783 . S
C631 C38 1.783 . S
C636 C99 1.783 . S
C661 C59 1.783 . S
C666 C118 1.783 . S
C691 C138 1.783 . S
C696 C199 1.783 . S
C721 C159 1.783 . S
C726 C218 1.783 . S
C751 C178 1.783 . S
C756 C239 1.783 . S
C781 C158 1.962 . S
C786 C18 1.962 . S
C811 C39 1.962 . S
C816 C179 1.962 . S
C841 C198 1.962 . S
C846 C58 1.962 . S
C871 C79 1.962 . S
C876 C219 1.962 . S
C901 C98 1.962 . S
C906 C238 1.962 . S
C931 C139 1.962 . S
C936 C119 1.962 . S
C961 C52 1.358 . S
C966 C4 1.259 . S
C991 C22 1.259 . S
C996 C69 1.358 . S
C1021 C44 1.259 . S
C1026 C92 1.358 . S
C1051 C62 1.259 . S
C1056 C109 1.358 . S
C1081 C12 1.358 . S
C1086 C84 1.259 . S
C1111 C29 1.358 . S
C1116 C102 1.259 . S
C1141 C209 1.358 . S
C1146 C122 1.259 . S
C1171 C144 1.259 . S
C1176 C232 1.358 . S
C1201 C162 1.259 . S
C1206 C129 1.358 . S
C1231 C152 1.358 . S
C1236 C184 1.259 . S
C1261 C202 1.259 . S
C1266 C169 1.358 . S
C1291 C224 1.259 . S
C1296 C192 1.358 . S
