# Generated by pormake.
# Topology yfu, (5)-cn, num edge types: 1
# Building blocks:
#     Node 0, Type 0, BuildingBlock: BEQFEK_clean_sbu_0, # of connection points: 5
#     Node 1, Type 0, BuildingBlock: BEQFEK_clean_sbu_0, # of connection points: 5
#     Node 2, Type 0, BuildingBlock: BEQFEK_clean_sbu_0, # of connection points: 5
#     Node 3, Type 0, BuildingBlock: BEQFEK_clean_sbu_0, # of connection points: 5
#     Node 4, Type 0, BuildingBlock: BEQFEK_clean_sbu_0, # of connection points: 5
#     Node 5, Type 0, BuildingBlock: BEQFEK_clean_sbu_0, # of connection points: 5
#     Node 6, Type 0, BuildingBlock: BEQFEK_clean_sbu_0, # of connection points: 5
#     Node 7, Type 0, BuildingBlock: BEQFEK_clean_sbu_0, # of connection points: 5
#     Node 8, Type 0, BuildingBlock: BEQFEK_clean_sbu_0, # of connection points: 5
#     Node 9, Type 0, BuildingBlock: BEQFEK_clean_sbu_0, # of connection points: 5
#     Node 10, Type 0, BuildingBlock: BEQFEK_clean_sbu_0, # of connection points: 5
#     Node 11, Type 0, BuildingBlock: BEQFEK_clean_sbu_0, # of connection points: 5
#     Node 12, Type 0, BuildingBlock: BEQFEK_clean_sbu_0, # of connection points: 5
#     Node 13, Type 0, BuildingBlock: BEQFEK_clean_sbu_0, # of connection points: 5
#     Node 14, Type 0, BuildingBlock: BEQFEK_clean_sbu_0, # of connection points: 5
#     Node 15, Type 0, BuildingBlock: BEQFEK_clean_sbu_0, # of connection points: 5
#     Node 16, Type 0, BuildingBlock: BEQFEK_clean_sbu_0, # of connection points: 5
#     Node 17, Type 0, BuildingBlock: BEQFEK_clean_sbu_0, # of connection points: 5
#     Node 18, Type 0, BuildingBlock: BEQFEK_clean_sbu_0, # of connection points: 5
#     Node 19, Type 0, BuildingBlock: BEQFEK_clean_sbu_0, # of connection points: 5
#     Node 20, Type 0, BuildingBlock: BEQFEK_clean_sbu_0, # of connection points: 5
#     Node 21, Type 0, BuildingBlock: BEQFEK_clean_sbu_0, # of connection points: 5
#     Node 22, Type 0, BuildingBlock: BEQFEK_clean_sbu_0, # of connection points: 5
#     Node 23, Type 0, BuildingBlock: BEQFEK_clean_sbu_0, # of connection points: 5
#     Node 24, Type 0, BuildingBlock: BEQFEK_clean_sbu_0, # of connection points: 5
#     Node 25, Type 0, BuildingBlock: BEQFEK_clean_sbu_0, # of connection points: 5
#     Node 26, Type 0, BuildingBlock: BEQFEK_clean_sbu_0, # of connection points: 5
#     Node 27, Type 0, BuildingBlock: BEQFEK_clean_sbu_0, # of connection points: 5
#     Node 28, Type 0, BuildingBlock: BEQFEK_clean_sbu_0, # of connection points: 5
#     Node 29, Type 0, BuildingBlock: BEQFEK_clean_sbu_0, # of connection points: 5
#     Node 30, Type 0, BuildingBlock: BEQFEK_clean_sbu_0, # of connection points: 5
#     Node 31, Type 0, BuildingBlock: BEQFEK_clean_sbu_0, # of connection points: 5
#     Edge 32, Type (0, 0), BuildingBlock: AJUNOK_clean_linker_0, # of connection points: 2
#     Edge 33, Type (0, 0), BuildingBlock: AJUNOK_clean_linker_0, # of connection points: 2
#     Edge 34, Type (0, 0), BuildingBlock: AJUNOK_clean_linker_0, # of connection points: 2
#     Edge 35, Type (0, 0), BuildingBlock: AJUNOK_clean_linker_0, # of connection points: 2
#     Edge 36, Type (0, 0), BuildingBlock: AJUNOK_clean_linker_0, # of connection points: 2
#     Edge 37, Type (0, 0), BuildingBlock: AJUNOK_clean_linker_0, # of connection points: 2
#     Edge 38, Type (0, 0), BuildingBlock: AJUNOK_clean_linker_0, # of connection points: 2
#     Edge 39, Type (0, 0), BuildingBlock: AJUNOK_clean_linker_0, # of connection points: 2
#     Edge 40, Type (0, 0), BuildingBlock: AJUNOK_clean_linker_0, # of connection points: 2
#     Edge 41, Type (0, 0), BuildingBlock: AJUNOK_clean_linker_0, # of connection points: 2
#     Edge 42, Type (0, 0), BuildingBlock: AJUNOK_clean_linker_0, # of connection points: 2
#     Edge 43, Type (0, 0), BuildingBlock: AJUNOK_clean_linker_0, # of connection points: 2
#     Edge 44, Type (0, 0), BuildingBlock: AJUNOK_clean_linker_0, # of connection points: 2
#     Edge 45, Type (0, 0), BuildingBlock: AJUNOK_clean_linker_0, # of connection points: 2
#     Edge 46, Type (0, 0), BuildingBlock: AJUNOK_clean_linker_0, # of connection points: 2
#     Edge 47, Type (0, 0), BuildingBlock: AJUNOK_clean_linker_0, # of connection points: 2
#     Edge 48, Type (0, 0), BuildingBlock: AJUNOK_clean_linker_0, # of connection points: 2
#     Edge 49, Type (0, 0), BuildingBlock: AJUNOK_clean_linker_0, # of connection points: 2
#     Edge 50, Type (0, 0), BuildingBlock: AJUNOK_clean_linker_0, # of connection points: 2
#     Edge 51, Type (0, 0), BuildingBlock: AJUNOK_clean_linker_0, # of connection points: 2
#     Edge 52, Type (0, 0), BuildingBlock: AJUNOK_clean_linker_0, # of connection points: 2
#     Edge 53, Type (0, 0), BuildingBlock: AJUNOK_clean_linker_0, # of connection points: 2
#     Edge 54, Type (0, 0), BuildingBlock: AJUNOK_clean_linker_0, # of connection points: 2
#     Edge 55, Type (0, 0), BuildingBlock: AJUNOK_clean_linker_0, # of connection points: 2
#     Edge 56, Type (0, 0), BuildingBlock: AJUNOK_clean_linker_0, # of connection points: 2
#     Edge 57, Type (0, 0), BuildingBlock: AJUNOK_clean_linker_0, # of connection points: 2
#     Edge 58, Type (0, 0), BuildingBlock: AJUNOK_clean_linker_0, # of connection points: 2
#     Edge 59, Type (0, 0), BuildingBlock: AJUNOK_clean_linker_0, # of connection points: 2
#     Edge 60, Type (0, 0), BuildingBlock: AJUNOK_clean_linker_0, # of connection points: 2
#     Edge 61, Type (0, 0), BuildingBlock: AJUNOK_clean_linker_0, # of connection points: 2
#     Edge 62, Type (0, 0), BuildingBlock: AJUNOK_clean_linker_0, # of connection points: 2
#     Edge 63, Type (0, 0), BuildingBlock: AJUNOK_clean_linker_0, # of connection points: 2
#     Edge 64, Type (0, 0), BuildingBlock: AJUNOK_clean_linker_0, # of connection points: 2
#     Edge 65, Type (0, 0), BuildingBlock: AJUNOK_clean_linker_0, # of connection points: 2
#     Edge 66, Type (0, 0), BuildingBlock: AJUNOK_clean_linker_0, # of connection points: 2
#     Edge 67, Type (0, 0), BuildingBlock: AJUNOK_clean_linker_0, # of connection points: 2
#     Edge 68, Type (0, 0), BuildingBlock: AJUNOK_clean_linker_0, # of connection points: 2
#     Edge 69, Type (0, 0), BuildingBlock: AJUNOK_clean_linker_0, # of connection points: 2
#     Edge 70, Type (0, 0), BuildingBlock: AJUNOK_clean_linker_0, # of connection points: 2
#     Edge 71, Type (0, 0), BuildingBlock: AJUNOK_clean_linker_0, # of connection points: 2
#     Edge 72, Type (0, 0), BuildingBlock: AJUNOK_clean_linker_0, # of connection points: 2
#     Edge 73, Type (0, 0), BuildingBlock: AJUNOK_clean_linker_0, # of connection points: 2
#     Edge 74, Type (0, 0), BuildingBlock: AJUNOK_clean_linker_0, # of connection points: 2
#     Edge 75, Type (0, 0), BuildingBlock: AJUNOK_clean_linker_0, # of connection points: 2
#     Edge 76, Type (0, 0), BuildingBlock: AJUNOK_clean_linker_0, # of connection points: 2
#     Edge 77, Type (0, 0), BuildingBlock: AJUNOK_clean_linker_0, # of connection points: 2
#     Edge 78, Type (0, 0), BuildingBlock: AJUNOK_clean_linker_0, # of connection points: 2
#     Edge 79, Type (0, 0), BuildingBlock: AJUNOK_clean_linker_0, # of connection points: 2
#     Edge 80, Type (0, 0), BuildingBlock: AJUNOK_clean_linker_0, # of connection points: 2
#     Edge 81, Type (0, 0), BuildingBlock: AJUNOK_clean_linker_0, # of connection points: 2
#     Edge 82, Type (0, 0), BuildingBlock: AJUNOK_clean_linker_0, # of connection points: 2
#     Edge 83, Type (0, 0), BuildingBlock: AJUNOK_clean_linker_0, # of connection points: 2
#     Edge 84, Type (0, 0), BuildingBlock: AJUNOK_clean_linker_0, # of connection points: 2
#     Edge 85, Type (0, 0), BuildingBlock: AJUNOK_clean_linker_0, # of connection points: 2
#     Edge 86, Type (0, 0), BuildingBlock: AJUNOK_clean_linker_0, # of connection points: 2
#     Edge 87, Type (0, 0), BuildingBlock: AJUNOK_clean_linker_0, # of connection points: 2
#     Edge 88, Type (0, 0), BuildingBlock: AJUNOK_clean_linker_0, # of connection points: 2
#     Edge 89, Type (0, 0), BuildingBlock: AJUNOK_clean_linker_0, # of connection points: 2
#     Edge 90, Type (0, 0), BuildingBlock: AJUNOK_clean_linker_0, # of connection points: 2
#     Edge 91, Type (0, 0), BuildingBlock: AJUNOK_clean_linker_0, # of connection points: 2
#     Edge 92, Type (0, 0), BuildingBlock: AJUNOK_clean_linker_0, # of connection points: 2
#     Edge 93, Type (0, 0), BuildingBlock: AJUNOK_clean_linker_0, # of connection points: 2
#     Edge 94, Type (0, 0), BuildingBlock: AJUNOK_clean_linker_0, # of connection points: 2
#     Edge 95, Type (0, 0), BuildingBlock: AJUNOK_clean_linker_0, # of connection points: 2
#     Edge 96, Type (0, 0), BuildingBlock: AJUNOK_clean_linker_0, # of connection points: 2
#     Edge 97, Type (0, 0), BuildingBlock: AJUNOK_clean_linker_0, # of connection points: 2
#     Edge 98, Type (0, 0), BuildingBlock: AJUNOK_clean_linker_0, # of connection points: 2
#     Edge 99, Type (0, 0), BuildingBlock: AJUNOK_clean_linker_0, # of connection points: 2
#     Edge 100, Type (0, 0), BuildingBlock: AJUNOK_clean_linker_0, # of connection points: 2
#     Edge 101, Type (0, 0), BuildingBlock: AJUNOK_clean_linker_0, # of connection points: 2
#     Edge 102, Type (0, 0), BuildingBlock: AJUNOK_clean_linker_0, # of connection points: 2
#     Edge 103, Type (0, 0), BuildingBlock: AJUNOK_clean_linker_0, # of connection points: 2
#     Edge 104, Type (0, 0), BuildingBlock: AJUNOK_clean_linker_0, # of connection points: 2
#     Edge 105, Type (0, 0), BuildingBlock: AJUNOK_clean_linker_0, # of connection points: 2
#     Edge 106, Type (0, 0), BuildingBlock: AJUNOK_clean_linker_0, # of connection points: 2
#     Edge 107, Type (0, 0), BuildingBlock: AJUNOK_clean_linker_0, # of connection points: 2
#     Edge 108, Type (0, 0), BuildingBlock: AJUNOK_clean_linker_0, # of connection points: 2
#     Edge 109, Type (0, 0), BuildingBlock: AJUNOK_clean_linker_0, # of connection points: 2
#     Edge 110, Type (0, 0), BuildingBlock: AJUNOK_clean_linker_0, # of connection points: 2
#     Edge 111, Type (0, 0), BuildingBlock: AJUNOK_clean_linker_0, # of connection points: 2
# Relax obj value: 0.387
# Max RMSD: 0.212
# Mean RMSD: 0.212
data_MOF--net-yfu--node1-BEQFEK_clean_sbu_0--edge1-AJUNOK_clean_linker_0
_symmetry_space_group_name_H-M    P1
_symmetry_Int_Tables_number       1
_symmetry_cell_setting            triclinic
loop_
_symmetry_equiv_pos_as_xyz
'x, y, z'
_cell_length_a     37.772017
_cell_length_b     37.785858
_cell_length_c     67.481289
_cell_angle_alpha  90.001506
_cell_angle_beta   89.990078
_cell_angle_gamma 89.993197
loop_
_atom_site_label
_atom_site_type_symbol
_atom_site_fract_x
_atom_site_fract_y
_atom_site_fract_z
_atom_type_partial_charge
Co0 Co 0.04251 0.12782 0.31888 0.0
Co1 Co 0.06607 0.06359 0.34501 0.0
C2 C 0.10027 0.13576 0.34847 0.0
O3 O 0.08137 0.14859 0.33462 0.0
O4 O 0.09715 0.1035 0.35373 0.0
C5 C 0.04212 0.19005 0.29439 0.0
O6 O 0.07633 0.19051 0.29793 0.0
C7 C 0.11591 0.00753 0.35614 0.0
C8 C 0.08306 0.9738 0.37556 0.0
C9 C 0.1167 0.9771 0.36761 0.0
N10 N 0.08324 0.0215 0.35721 0.0
N11 N 0.06374 0.00124 0.36886 0.0
C12 C 0.14617 0.02432 0.34536 0.0
H13 H 0.13874 0.05095 0.33982 0.0
H14 H 0.15395 0.00763 0.33257 0.0
H15 H 0.16942 0.0263 0.35536 0.0
C16 C 0.0562 0.07735 0.28667 0.0
N17 N 0.05635 0.08614 0.30597 0.0
N18 N 0.06456 0.05824 0.3167 0.0
C19 C 0.06907 0.03037 0.30441 0.0
C20 C 0.06402 0.04162 0.28499 0.0
C21 C 0.049 0.10305 0.27029 0.0
H22 H 0.02051 0.11024 0.27042 0.0
H23 H 0.06449 0.12756 0.27281 0.0
H24 H 0.05608 0.09191 0.2556 0.0
O25 O 0.00225 0.11822 0.33679 0.0
O26 O 0.01821 0.07333 0.35602 0.0
H27 H 0.06031 0.98829 0.32527 0.0
H28 H 0.06469 0.97396 0.29983 0.0
C29 C 0.07441 0.99299 0.31112 0.0
H30 H 0.10305 0.98816 0.3134 0.0
H31 H 0.03725 0.00619 0.37227 0.0
O32 O 0.02397 0.16405 0.30058 0.0
C33 C 0.99574 0.0966 0.35076 0.0
Co34 Co 0.12209 0.79274 0.56916 0.0
Co35 Co 0.1884 0.81522 0.59382 0.0
C36 C 0.11744 0.85075 0.59907 0.0
O37 O 0.10342 0.83175 0.58561 0.0
O38 O 0.15003 0.84735 0.60371 0.0
C39 C 0.05809 0.7931 0.54593 0.0
O40 O 0.05707 0.82701 0.5502 0.0
C41 C 0.2459 0.86281 0.60595 0.0
C42 C 0.28672 0.82471 0.61571 0.0
C43 C 0.28036 0.86043 0.61285 0.0
N44 N 0.23258 0.82991 0.60461 0.0
N45 N 0.25695 0.8073 0.61071 0.0
C46 C 0.22693 0.89533 0.59914 0.0
H47 H 0.20597 0.88833 0.5883 0.0
H48 H 0.2458 0.9144 0.59242 0.0
H49 H 0.21429 0.90823 0.61211 0.0
C50 C 0.1696 0.80773 0.53581 0.0
N51 N 0.16261 0.80663 0.55532 0.0
N52 N 0.19125 0.81487 0.56539 0.0
C53 C 0.21783 0.82089 0.55242 0.0
C54 C 0.20485 0.81678 0.53324 0.0
C55 C 0.1427 0.80052 0.52004 0.0
H56 H 0.11817 0.81553 0.52333 0.0
H57 H 0.15242 0.8082 0.50514 0.0
H58 H 0.13604 0.77191 0.52009 0.0
O59 O 0.13235 0.75179 0.58637 0.0
O60 O 0.17856 0.76718 0.60468 0.0
H61 H 0.27388 0.82296 0.54562 0.0
H62 H 0.25853 0.85448 0.56378 0.0
C63 C 0.25556 0.827 0.55827 0.0
H64 H 0.26297 0.80857 0.57034 0.0
H65 H 0.25364 0.77989 0.61086 0.0
O66 O 0.0847 0.77509 0.55141 0.0
C67 C 0.15487 0.74488 0.59981 0.0
Co68 Co 0.47263 0.87683 0.82204 0.0
Co69 Co 0.43553 0.93789 0.84516 0.0
C70 C 0.40691 0.86571 0.84765 0.0
O71 O 0.43146 0.85502 0.83611 0.0
O72 O 0.40441 0.89812 0.8527 0.0
C73 C 0.47565 0.81884 0.79471 0.0
O74 O 0.44111 0.82268 0.79398 0.0
C75 C 0.3849 0.99211 0.85941 0.0
C76 C 0.42009 0.03883 0.86063 0.0
C77 C 0.38535 0.02821 0.86327 0.0
N78 N 0.41799 0.982 0.85466 0.0
N79 N 0.4389 0.00997 0.85566 0.0
C80 C 0.35326 0.96837 0.85824 0.0
H81 H 0.35666 0.94884 0.84611 0.0
H82 H 0.32865 0.98382 0.8558 0.0
H83 H 0.3508 0.95352 0.87235 0.0
C84 C 0.46356 0.92551 0.78873 0.0
N85 N 0.45924 0.91683 0.80786 0.0
N86 N 0.44003 0.94089 0.81683 0.0
C87 C 0.42898 0.96455 0.80317 0.0
C88 C 0.44362 0.95577 0.78476 0.0
C89 C 0.4903 0.90766 0.77572 0.0
H90 H 0.51321 0.89884 0.78476 0.0
H91 H 0.47832 0.88375 0.76894 0.0
H92 H 0.49991 0.92568 0.7639 0.0
O93 O 0.50877 0.88876 0.84126 0.0
O94 O 0.48214 0.92994 0.85936 0.0
H95 H 0.41689 0.01643 0.81386 0.0
H96 H 0.38859 0.00165 0.79388 0.0
C97 C 0.40284 0.99331 0.80747 0.0
H98 H 0.38313 0.98387 0.81839 0.0
H99 H 0.46585 0.00955 0.85227 0.0
O100 O 0.49375 0.84056 0.80486 0.0
C101 C 0.50865 0.91002 0.85579 0.0
Co102 Co 0.36951 0.21946 0.07314 0.0
Co103 Co 0.30754 0.18429 0.09653 0.0
C104 C 0.37962 0.15487 0.09968 0.0
O105 O 0.39077 0.17859 0.08774 0.0
O106 O 0.34718 0.15334 0.10484 0.0
C107 C 0.42803 0.22209 0.04575 0.0
O108 O 0.42542 0.18742 0.04552 0.0
C109 C 0.25226 0.13464 0.11076 0.0
C110 C 0.20583 0.1703 0.11087 0.0
C111 C 0.21595 0.1355 0.11384 0.0
N112 N 0.26301 0.1675 0.10594 0.0
N113 N 0.2352 0.18871 0.10637 0.0
C114 C 0.27566 0.1027 0.11042 0.0
H115 H 0.2965 0.10574 0.09896 0.0
H116 H 0.26013 0.0783 0.10753 0.0
H117 H 0.28884 0.1001 0.12504 0.0
C118 C 0.32108 0.20965 0.03981 0.0
N119 N 0.32957 0.20579 0.05899 0.0
N120 N 0.30518 0.18723 0.0681 0.0
C121 C 0.28149 0.17603 0.0545 0.0
C122 C 0.29058 0.18999 0.03598 0.0
C123 C 0.3392 0.23595 0.02664 0.0
H124 H 0.3482 0.25896 0.03553 0.0
H125 H 0.36302 0.22362 0.01995 0.0
H126 H 0.32129 0.24549 0.01476 0.0
O127 O 0.35732 0.25666 0.09168 0.0
O128 O 0.31494 0.23193 0.10973 0.0
H129 H 0.22937 0.16494 0.06523 0.0
H130 H 0.24385 0.13594 0.0455 0.0
C131 C 0.25233 0.15042 0.05898 0.0
H132 H 0.26149 0.13087 0.07006 0.0
H133 H 0.23607 0.21555 0.10276 0.0
O134 O 0.40598 0.23994 0.05582 0.0
C135 C 0.33526 0.25798 0.10581 0.0
Co136 Co 0.04384 0.87139 0.17969 0.0
Co137 Co 0.06877 0.93517 0.15353 0.0
C138 C 0.10185 0.86294 0.14982 0.0
O139 O 0.0824 0.85048 0.16357 0.0
O140 O 0.09965 0.89532 0.14462 0.0
C141 C 0.04549 0.81076 0.20533 0.0
O142 O 0.07979 0.81174 0.20216 0.0
C143 C 0.11647 0.9917 0.13873 0.0
C144 C 0.07725 0.03057 0.12797 0.0
C145 C 0.11332 0.02503 0.13013 0.0
N146 N 0.08375 0.97849 0.14159 0.0
N147 N 0.06051 0.00182 0.13501 0.0
C148 C 0.14984 0.97232 0.14376 0.0
H149 H 0.14557 0.94337 0.14323 0.0
H150 H 0.15805 0.97936 0.15904 0.0
H151 H 0.17145 0.97967 0.13339 0.0
C152 C 0.05817 0.92192 0.21186 0.0
N153 N 0.05832 0.91283 0.19259 0.0
N154 N 0.06795 0.94022 0.18181 0.0
C155 C 0.07386 0.96789 0.19405 0.0
C156 C 0.0682 0.957 0.21343 0.0
C157 C 0.04606 0.89815 0.22824 0.0
H158 H 0.06342 0.87449 0.2288 0.0
H159 H 0.04668 0.91174 0.24281 0.0
H160 H 0.01872 0.88898 0.22511 0.0
O161 O 0.00322 0.88076 0.16204 0.0
O162 O 0.02083 0.92479 0.14265 0.0
H163 H 0.08287 0.02353 0.19989 0.0
H164 H 0.10904 0.00455 0.18022 0.0
C165 C 0.0826 0.00458 0.18732 0.0
H166 H 0.06289 0.01335 0.17618 0.0
H167 H 0.03313 0.99829 0.13557 0.0
O168 O 0.02632 0.83532 0.1983 0.0
C169 C 0.99774 0.90202 0.14776 0.0
Co170 Co 0.37165 0.79241 0.42761 0.0
Co171 Co 0.30954 0.81753 0.40045 0.0
C172 C 0.38172 0.85173 0.39911 0.0
O173 O 0.39345 0.83174 0.41279 0.0
O174 O 0.34992 0.84907 0.39293 0.0
C175 C 0.43072 0.79228 0.45441 0.0
O176 O 0.43042 0.82669 0.45169 0.0
C177 C 0.25537 0.86838 0.38856 0.0
C178 C 0.21937 0.83575 0.37031 0.0
C179 C 0.22427 0.86957 0.3777 0.0
N180 N 0.26816 0.83525 0.38778 0.0
N181 N 0.24666 0.81589 0.37676 0.0
C182 C 0.27399 0.89841 0.39858 0.0
H183 H 0.28725 0.88895 0.41226 0.0
H184 H 0.25561 0.92044 0.40204 0.0
H185 H 0.29485 0.90859 0.3885 0.0
C186 C 0.31997 0.80705 0.45899 0.0
N187 N 0.32956 0.80647 0.43981 0.0
N188 N 0.30245 0.81555 0.42865 0.0
C189 C 0.27429 0.82138 0.44058 0.0
C190 C 0.28476 0.81667 0.4601 0.0
C191 C 0.3437 0.79686 0.47579 0.0
H192 H 0.35358 0.76953 0.47342 0.0
H193 H 0.36691 0.81483 0.47606 0.0
H194 H 0.32981 0.79829 0.49026 0.0
O195 O 0.36316 0.7527 0.40922 0.0
O196 O 0.31986 0.76987 0.3892 0.0
H197 H 0.23168 0.81522 0.41981 0.0
H198 H 0.21771 0.82381 0.44504 0.0
C199 C 0.23778 0.83008 0.43355 0.0
H200 H 0.23629 0.85879 0.43035 0.0
H201 H 0.25043 0.78905 0.3738 0.0
O202 O 0.40638 0.77375 0.44664 0.0
C203 C 0.34263 0.747 0.39464 0.0
Co204 Co 0.467 0.11912 0.67534 0.0
Co205 Co 0.43289 0.05755 0.65082 0.0
C206 C 0.40224 0.12914 0.64891 0.0
O207 O 0.4256 0.14043 0.66105 0.0
O208 O 0.4011 0.09677 0.64369 0.0
C209 C 0.46914 0.17747 0.70299 0.0
O210 O 0.43441 0.17571 0.70248 0.0
C211 C 0.38532 0.00244 0.6338 0.0
C212 C 0.42167 0.95663 0.634 0.0
C213 C 0.38722 0.96641 0.62959 0.0
N214 N 0.41712 0.01311 0.64058 0.0
N215 N 0.43872 0.98562 0.64045 0.0
C216 C 0.35444 0.02667 0.63084 0.0
H217 H 0.36364 0.05228 0.62474 0.0
H218 H 0.34167 0.03188 0.64536 0.0
H219 H 0.33473 0.0151 0.62053 0.0
C220 C 0.45969 0.067 0.7075 0.0
N221 N 0.45503 0.07748 0.68867 0.0
N222 N 0.43695 0.05343 0.67899 0.0
C223 C 0.42671 0.02809 0.69182 0.0
C224 C 0.44165 0.03517 0.7104 0.0
C225 C 0.48349 0.08602 0.7217 0.0
H226 H 0.50497 0.09969 0.71352 0.0
H227 H 0.46794 0.10628 0.72983 0.0
H228 H 0.49553 0.06743 0.7325 0.0
O229 O 0.50394 0.10925 0.65613 0.0
O230 O 0.47967 0.0675 0.63739 0.0
H231 H 0.41135 0.97835 0.67925 0.0
H232 H 0.38498 0.99194 0.70037 0.0
C233 C 0.39894 0.0012 0.68687 0.0
H234 H 0.37929 0.01295 0.67658 0.0
H235 H 0.46499 0.98652 0.64522 0.0
O236 O 0.48711 0.15504 0.69326 0.0
C237 C 0.50517 0.08843 0.64141 0.0
Co238 Co 0.12818 0.21689 0.92644 0.0
Co239 Co 0.18913 0.18201 0.90201 0.0
C240 C 0.11685 0.15318 0.89937 0.0
O241 O 0.10596 0.17643 0.91168 0.0
O242 O 0.14926 0.15151 0.89425 0.0
C243 C 0.06999 0.21982 0.95416 0.0
O244 O 0.07158 0.18508 0.95388 0.0
C245 C 0.24275 0.13221 0.88613 0.0
C246 C 0.28931 0.16757 0.88451 0.0
C247 C 0.2786 0.13294 0.88158 0.0
N248 N 0.23298 0.16489 0.89187 0.0
N249 N 0.26087 0.18589 0.8907 0.0
C250 C 0.21772 0.10171 0.88417 0.0
H251 H 0.19421 0.11012 0.87553 0.0
H252 H 0.20838 0.09359 0.89908 0.0
H253 H 0.23029 0.07887 0.87661 0.0
C254 C 0.1796 0.20765 0.95881 0.0
N255 N 0.16917 0.20343 0.93994 0.0
N256 N 0.19291 0.18498 0.93024 0.0
C257 C 0.21795 0.17405 0.94309 0.0
C258 C 0.21104 0.18892 0.9617 0.0
C259 C 0.16111 0.23186 0.97302 0.0
H260 H 0.14791 0.25364 0.96485 0.0
H261 H 0.14052 0.21677 0.98116 0.0
H262 H 0.17997 0.24347 0.98381 0.0
O263 O 0.13964 0.25421 0.90776 0.0
O264 O 0.18127 0.22965 0.88907 0.0
H265 H 0.26719 0.1578 0.93022 0.0
H266 H 0.25377 0.13197 0.95161 0.0
C267 C 0.24437 0.14586 0.93811 0.0
H268 H 0.23209 0.12616 0.92808 0.0
H269 H 0.26062 0.21265 0.89452 0.0
O270 O 0.09245 0.23746 0.94427 0.0
C271 C 0.1611 0.25564 0.89333 0.0
Co272 Co 0.96408 0.87608 0.68149 0.0
Co273 Co 0.93622 0.93903 0.65559 0.0
C274 C 0.90282 0.86667 0.654 0.0
O275 O 0.9237 0.8547 0.66721 0.0
O276 O 0.90499 0.89858 0.64796 0.0
C277 C 0.96748 0.81524 0.70717 0.0
O278 O 0.93291 0.81417 0.70505 0.0
C279 C 0.88611 0.99394 0.64099 0.0
C280 C 0.92381 0.03393 0.62984 0.0
C281 C 0.88799 0.02716 0.63213 0.0
N282 N 0.91933 0.98192 0.64383 0.0
N283 N 0.94164 0.00597 0.63704 0.0
C284 C 0.85342 0.97355 0.64618 0.0
H285 H 0.85861 0.94477 0.64589 0.0
H286 H 0.84492 0.98074 0.66139 0.0
H287 H 0.8316 0.97986 0.63575 0.0
C288 C 0.95146 0.92655 0.71369 0.0
N289 N 0.95063 0.9176 0.69443 0.0
N290 N 0.9389 0.94445 0.68388 0.0
C291 C 0.93176 0.97155 0.69632 0.0
C292 C 0.9395 0.96097 0.71555 0.0
C293 C 0.96337 0.9023 0.72991 0.0
H294 H 0.99135 0.89463 0.7273 0.0
H295 H 0.94714 0.87786 0.72957 0.0
H296 H 0.96089 0.91479 0.74472 0.0
O297 O 0.00262 0.88551 0.66267 0.0
O298 O 0.98385 0.92945 0.64361 0.0
H299 H 0.93769 0.01761 0.6782 0.0
H300 H 0.91913 0.0264 0.70241 0.0
C301 C 0.91969 0.00744 0.68986 0.0
H302 H 0.89275 0.00537 0.68346 0.0
H303 H 0.96913 0.00339 0.63749 0.0
O304 O 0.98451 0.84083 0.69962 0.0
C305 C 0.00742 0.9069 0.6484 0.0
Co306 Co 0.87318 0.21446 0.42497 0.0
Co307 Co 0.80957 0.18265 0.40138 0.0
C308 C 0.88092 0.15208 0.39676 0.0
O309 O 0.89307 0.17425 0.4093 0.0
O310 O 0.84824 0.15159 0.39205 0.0
C311 C 0.93211 0.21469 0.45235 0.0
O312 O 0.92897 0.18007 0.45223 0.0
C313 C 0.75265 0.13538 0.3868 0.0
C314 C 0.7075 0.17263 0.38691 0.0
C315 C 0.71642 0.13758 0.38368 0.0
N316 N 0.7645 0.16771 0.39189 0.0
N317 N 0.73746 0.18989 0.3916 0.0
C318 C 0.77495 0.10266 0.38691 0.0
H319 H 0.79653 0.10514 0.39797 0.0
H320 H 0.75872 0.0789 0.39022 0.0
H321 H 0.78713 0.0993 0.37207 0.0
C322 C 0.82464 0.2052 0.45827 0.0
N323 N 0.83305 0.20128 0.43908 0.0
N324 N 0.80787 0.18403 0.42984 0.0
C325 C 0.78369 0.17359 0.44336 0.0
C326 C 0.7933 0.18683 0.46197 0.0
C327 C 0.84351 0.23088 0.4715 0.0
H328 H 0.85338 0.25357 0.46264 0.0
H329 H 0.86682 0.21774 0.47827 0.0
H330 H 0.82582 0.24108 0.48331 0.0
O331 O 0.86171 0.25284 0.40716 0.0
O332 O 0.81802 0.23068 0.38901 0.0
H333 H 0.73113 0.16531 0.43252 0.0
H334 H 0.74413 0.13516 0.45204 0.0
C335 C 0.75334 0.14954 0.43867 0.0
H336 H 0.76158 0.12985 0.42744 0.0
H337 H 0.73925 0.2166 0.39541 0.0
O338 O 0.91029 0.2332 0.4425 0.0
C339 C 0.8394 0.25568 0.39323 0.0
Co340 Co 0.5354 0.12346 0.17877 0.0
Co341 Co 0.56346 0.06146 0.15236 0.0
C342 C 0.59652 0.13365 0.151 0.0
O343 O 0.57553 0.1452 0.16429 0.0
O344 O 0.59489 0.10172 0.14495 0.0
C345 C 0.53381 0.18227 0.20587 0.0
O346 O 0.56842 0.18223 0.20388 0.0
C347 C 0.61383 0.00754 0.13816 0.0
C348 C 0.57734 0.96509 0.12866 0.0
C349 C 0.61289 0.97314 0.13091 0.0
N350 N 0.58032 0.01881 0.14057 0.0
N351 N 0.55868 0.99346 0.13464 0.0
C352 C 0.64568 0.03014 0.14193 0.0
H353 H 0.64195 0.05634 0.13486 0.0
H354 H 0.64859 0.03451 0.15811 0.0
H355 H 0.67013 0.01794 0.13589 0.0
C356 C 0.54775 0.07195 0.21055 0.0
N357 N 0.54872 0.08156 0.19138 0.0
N358 N 0.56087 0.0552 0.1806 0.0
C359 C 0.56842 0.02787 0.19282 0.0
C360 C 0.56036 0.03773 0.21212 0.0
C361 C 0.53511 0.09534 0.22699 0.0
H362 H 0.50786 0.10457 0.22369 0.0
H363 H 0.55247 0.11895 0.22788 0.0
H364 H 0.53542 0.08154 0.2415 0.0
O365 O 0.49676 0.11483 0.15991 0.0
O366 O 0.51615 0.07188 0.14028 0.0
H367 H 0.58326 0.97348 0.19869 0.0
H368 H 0.60826 0.99553 0.17955 0.0
C369 C 0.5816 0.99247 0.18618 0.0
H370 H 0.56359 0.98165 0.17473 0.0
H371 H 0.53113 0.99522 0.13514 0.0
O372 O 0.51585 0.15828 0.1974 0.0
C373 C 0.49252 0.09429 0.1452 0.0
Co374 Co 0.62675 0.78556 0.92996 0.0
Co375 Co 0.68883 0.81833 0.90565 0.0
C376 C 0.61781 0.85048 0.90341 0.0
O377 O 0.60606 0.82731 0.91553 0.0
O378 O 0.65018 0.85061 0.89812 0.0
C379 C 0.56671 0.7831 0.95651 0.0
O380 O 0.56776 0.81783 0.95581 0.0
C381 C 0.74525 0.866 0.89065 0.0
C382 C 0.79032 0.82865 0.89009 0.0
C383 C 0.78135 0.86375 0.88716 0.0
N384 N 0.73346 0.83359 0.89565 0.0
N385 N 0.76046 0.81136 0.89495 0.0
C386 C 0.72312 0.89884 0.89104 0.0
H387 H 0.70129 0.89616 0.90191 0.0
H388 H 0.73946 0.92234 0.89473 0.0
H389 H 0.71136 0.90291 0.87614 0.0
C390 C 0.67854 0.79288 0.96245 0.0
N391 N 0.66822 0.79733 0.94356 0.0
N392 N 0.69246 0.81512 0.93387 0.0
C393 C 0.71771 0.82549 0.94672 0.0
C394 C 0.71048 0.81076 0.96531 0.0
C395 C 0.65921 0.76951 0.97674 0.0
H396 H 0.64515 0.74819 0.96864 0.0
H397 H 0.63924 0.78545 0.98486 0.0
H398 H 0.67769 0.75731 0.98754 0.0
O399 O 0.63695 0.74797 0.91119 0.0
O400 O 0.67962 0.77097 0.89266 0.0
H401 H 0.76702 0.84156 0.93382 0.0
H402 H 0.75405 0.86703 0.95542 0.0
C403 C 0.74438 0.85352 0.94186 0.0
H404 H 0.73217 0.87359 0.93205 0.0
H405 H 0.75873 0.78459 0.89863 0.0
O406 O 0.59037 0.76548 0.94753 0.0
C407 C 0.65856 0.74569 0.89687 0.0
Co408 Co 0.95551 0.12702 0.82248 0.0
Co409 Co 0.9308 0.06253 0.84817 0.0
C410 C 0.89666 0.13428 0.85176 0.0
O411 O 0.91608 0.14722 0.83812 0.0
O412 O 0.89949 0.10199 0.857 0.0
C413 C 0.95608 0.18793 0.79656 0.0
O414 O 0.92171 0.18876 0.79948 0.0
C415 C 0.88297 0.00577 0.86245 0.0
C416 C 0.92202 0.9665 0.87295 0.0
C417 C 0.88599 0.97224 0.8708 0.0
N418 N 0.91574 0.01893 0.85971 0.0
N419 N 0.93888 0.99535 0.86613 0.0
C420 C 0.84966 0.02538 0.85756 0.0
H421 H 0.85393 0.05429 0.85846 0.0
H422 H 0.84158 0.01894 0.84218 0.0
H423 H 0.82794 0.01771 0.86778 0.0
C424 C 0.94306 0.07701 0.79005 0.0
N425 N 0.94208 0.08566 0.80936 0.0
N426 N 0.93201 0.05806 0.81984 0.0
C427 C 0.92619 0.03078 0.80731 0.0
C428 C 0.93285 0.04208 0.78809 0.0
C429 C 0.95522 0.10137 0.77395 0.0
H430 H 0.98274 0.11 0.77705 0.0
H431 H 0.93815 0.12524 0.7738 0.0
H432 H 0.95415 0.0885 0.75918 0.0
O433 O 0.99544 0.1177 0.84042 0.0
O434 O 0.97856 0.07294 0.85948 0.0
H435 H 0.93655 0.98479 0.82485 0.0
H436 H 0.91705 0.97536 0.80093 0.0
C437 C 0.91712 0.99396 0.81366 0.0
H438 H 0.89054 0.99393 0.82061 0.0
H439 H 0.96627 0.9988 0.86562 0.0
O440 O 0.97397 0.1629 0.80409 0.0
C441 C 0.0013 0.09613 0.85448 0.0
Co442 Co 0.62861 0.21455 0.57074 0.0
Co443 Co 0.68882 0.17856 0.59525 0.0
C444 C 0.61743 0.14781 0.59577 0.0
O445 O 0.60698 0.17237 0.58416 0.0
O446 O 0.64949 0.14617 0.60161 0.0
C447 C 0.56964 0.21762 0.54383 0.0
O448 O 0.57211 0.18295 0.54381 0.0
C449 C 0.74494 0.13027 0.61042 0.0
C450 C 0.78994 0.16768 0.61136 0.0
C451 C 0.781 0.13254 0.61414 0.0
N452 N 0.73319 0.16272 0.60544 0.0
N453 N 0.76015 0.18496 0.60636 0.0
C454 C 0.72283 0.09745 0.60991 0.0
H455 H 0.70143 0.10003 0.59876 0.0
H456 H 0.73931 0.07387 0.60654 0.0
H457 H 0.71042 0.09365 0.62466 0.0
C458 C 0.68123 0.20752 0.53877 0.0
N459 N 0.67034 0.2027 0.55752 0.0
N460 N 0.69367 0.18363 0.56715 0.0
C461 C 0.71887 0.17292 0.55435 0.0
C462 C 0.71257 0.1886 0.53589 0.0
C463 C 0.6628 0.23183 0.52461 0.0
H464 H 0.64914 0.25325 0.53285 0.0
H465 H 0.64255 0.2167 0.51623 0.0
H466 H 0.68181 0.24385 0.51403 0.0
O467 O 0.63838 0.25075 0.59037 0.0
O468 O 0.67909 0.225 0.60915 0.0
H469 H 0.76746 0.1547 0.56718 0.0
H470 H 0.75358 0.13016 0.54542 0.0
C471 C 0.74441 0.14378 0.55905 0.0
H472 H 0.7314 0.12402 0.56875 0.0
H473 H 0.75847 0.21176 0.60276 0.0
O474 O 0.59276 0.23551 0.5531 0.0
C475 C 0.65882 0.2511 0.60527 0.0
Co476 Co 0.54069 0.87319 0.32037 0.0
Co477 Co 0.56643 0.93875 0.34489 0.0
C478 C 0.59984 0.86704 0.34972 0.0
O479 O 0.58012 0.85358 0.33638 0.0
O480 O 0.59744 0.89963 0.3544 0.0
C481 C 0.54141 0.81086 0.29588 0.0
O482 O 0.57577 0.81154 0.29885 0.0
C483 C 0.61444 0.99584 0.35873 0.0
C484 C 0.57536 0.03586 0.36827 0.0
C485 C 0.6114 0.02972 0.36663 0.0
N486 N 0.58165 0.98284 0.35578 0.0
N487 N 0.5585 0.0069 0.3616 0.0
C488 C 0.64778 0.97576 0.35456 0.0
H489 H 0.64319 0.94692 0.35561 0.0
H490 H 0.65676 0.98174 0.33927 0.0
H491 H 0.66901 0.98351 0.36507 0.0
C492 C 0.55349 0.9216 0.28707 0.0
N493 N 0.55438 0.91384 0.3065 0.0
N494 N 0.5653 0.94165 0.31652 0.0
C495 C 0.57197 0.96809 0.30358 0.0
C496 C 0.5648 0.95612 0.28455 0.0
C497 C 0.54119 0.89656 0.27134 0.0
H498 H 0.51366 0.88814 0.27461 0.0
H499 H 0.55816 0.87261 0.27153 0.0
H500 H 0.54229 0.9087 0.25638 0.0
O501 O 0.50072 0.8836 0.33819 0.0
O502 O 0.51855 0.92928 0.35626 0.0
H503 H 0.56333 0.01534 0.32036 0.0
H504 H 0.58336 0.02281 0.29638 0.0
C505 C 0.58247 0.00484 0.30937 0.0
H506 H 0.60897 0.00415 0.31639 0.0
H507 H 0.5311 0.00364 0.36085 0.0
O508 O 0.52263 0.83596 0.30265 0.0
C509 C 0.49543 0.90604 0.35191 0.0
Co510 Co 0.87155 0.78185 0.07562 0.0
Co511 Co 0.81004 0.8167 0.09951 0.0
C512 C 0.88214 0.84592 0.10248 0.0
O513 O 0.89298 0.82246 0.0903 0.0
O514 O 0.84978 0.84758 0.1078 0.0
C515 C 0.92832 0.77959 0.04703 0.0
O516 O 0.92556 0.81425 0.04674 0.0
C517 C 0.75486 0.86574 0.11437 0.0
C518 C 0.70821 0.8304 0.11353 0.0
C519 C 0.7185 0.86489 0.11723 0.0
N520 N 0.76553 0.83309 0.10911 0.0
N521 N 0.73759 0.81203 0.10897 0.0
C522 C 0.77844 0.89755 0.11455 0.0
H523 H 0.79777 0.89598 0.1022 0.0
H524 H 0.76289 0.92239 0.11338 0.0
H525 H 0.79357 0.8979 0.12864 0.0
C526 C 0.82211 0.79088 0.04281 0.0
N527 N 0.83124 0.79527 0.06186 0.0
N528 N 0.80709 0.81393 0.07109 0.0
C529 C 0.78295 0.8248 0.05764 0.0
C530 C 0.79149 0.81042 0.03913 0.0
C531 C 0.83957 0.76394 0.02975 0.0
H532 H 0.84874 0.7412 0.03881 0.0
H533 H 0.86322 0.77581 0.02263 0.0
H534 H 0.82115 0.75406 0.0182 0.0
O535 O 0.86009 0.74461 0.09413 0.0
O536 O 0.81809 0.76908 0.11261 0.0
H537 H 0.73081 0.83573 0.06836 0.0
H538 H 0.74537 0.86498 0.04879 0.0
C539 C 0.75381 0.85035 0.06224 0.0
H540 H 0.7629 0.86973 0.07343 0.0
H541 H 0.73838 0.78542 0.10486 0.0
O542 O 0.90736 0.76175 0.05779 0.0
C543 C 0.83849 0.74321 0.10847 0.0
Co544 Co 0.54355 0.6255 0.8211 0.0
Co545 Co 0.57068 0.56184 0.84646 0.0
C546 C 0.60485 0.63314 0.84922 0.0
O547 O 0.58365 0.64566 0.83631 0.0
O548 O 0.60327 0.60076 0.8545 0.0
C549 C 0.54456 0.6854 0.79481 0.0
O550 O 0.57912 0.68359 0.79685 0.0
C551 C 0.61875 0.5062 0.8607 0.0
C552 C 0.58082 0.46363 0.86808 0.0
C553 C 0.61655 0.47151 0.86716 0.0
N554 N 0.58571 0.5183 0.85779 0.0
N555 N 0.56316 0.49292 0.86253 0.0
C556 C 0.65153 0.52651 0.85569 0.0
H557 H 0.64629 0.54484 0.84318 0.0
H558 H 0.67364 0.50838 0.85189 0.0
H559 H 0.65941 0.54252 0.86875 0.0
C560 C 0.55565 0.5754 0.7885 0.0
N561 N 0.55678 0.5842 0.80779 0.0
N562 N 0.56825 0.55708 0.81822 0.0
C563 C 0.57503 0.53006 0.80568 0.0
C564 C 0.56737 0.54096 0.78654 0.0
C565 C 0.5424 0.59919 0.77241 0.0
H566 H 0.5158 0.60938 0.77643 0.0
H567 H 0.56048 0.62217 0.77099 0.0
H568 H 0.54095 0.58525 0.75795 0.0
O569 O 0.50405 0.616 0.83936 0.0
O570 O 0.52349 0.57224 0.85835 0.0
H571 H 0.56805 0.48252 0.82241 0.0
H572 H 0.59014 0.47608 0.79893 0.0
C573 C 0.58731 0.49407 0.81184 0.0
H574 H 0.61325 0.49635 0.8194 0.0
H575 H 0.53572 0.49518 0.86126 0.0
O576 O 0.52541 0.66197 0.80296 0.0
C577 C 0.49975 0.59463 0.85369 0.0
Co578 Co 0.62103 0.29014 0.0706 0.0
Co579 Co 0.68309 0.31884 0.09678 0.0
C580 C 0.61076 0.35101 0.09885 0.0
O581 O 0.59936 0.32967 0.0857 0.0
O582 O 0.64289 0.35011 0.10462 0.0
C583 C 0.56155 0.29117 0.04442 0.0
O584 O 0.56411 0.32564 0.04649 0.0
C585 C 0.73777 0.36795 0.11185 0.0
C586 C 0.77971 0.33019 0.12052 0.0
C587 C 0.77211 0.36596 0.11917 0.0
N588 N 0.7261 0.33482 0.10858 0.0
N589 N 0.75116 0.31243 0.114 0.0
C590 C 0.7156 0.40036 0.10889 0.0
H591 H 0.689 0.39612 0.1154 0.0
H592 H 0.71207 0.40514 0.09279 0.0
H593 H 0.72775 0.42394 0.11594 0.0
C594 C 0.67233 0.30321 0.0386 0.0
N595 N 0.66266 0.30425 0.05777 0.0
N596 N 0.68891 0.31676 0.06851 0.0
C597 C 0.71617 0.32453 0.05628 0.0
C598 C 0.70646 0.3162 0.037 0.0
C599 C 0.64917 0.28988 0.02224 0.0
H600 H 0.64018 0.26264 0.02578 0.0
H601 H 0.62535 0.30693 0.02117 0.0
H602 H 0.66307 0.28994 0.00776 0.0
O603 O 0.6305 0.25087 0.08901 0.0
O604 O 0.67314 0.27125 0.1085 0.0
H605 H 0.7628 0.31916 0.07398 0.0
H606 H 0.7703 0.34048 0.05042 0.0
C607 C 0.75153 0.33778 0.06297 0.0
H608 H 0.74823 0.36392 0.07019 0.0
H609 H 0.74902 0.28497 0.11286 0.0
O610 O 0.58516 0.27165 0.05214 0.0
C611 C 0.65133 0.24707 0.10365 0.0
Co612 Co 0.96481 0.37991 0.32438 0.0
Co613 Co 0.93039 0.44142 0.34877 0.0
C614 C 0.89871 0.37007 0.34982 0.0
O615 O 0.92261 0.35884 0.338 0.0
O616 O 0.8979 0.40229 0.35539 0.0
C617 C 0.96766 0.32103 0.29717 0.0
O618 O 0.93294 0.32296 0.29742 0.0
C619 C 0.88171 0.49642 0.36463 0.0
C620 C 0.91773 0.54251 0.36525 0.0
C621 C 0.88301 0.53249 0.36866 0.0
N622 N 0.91408 0.48591 0.35871 0.0
N623 N 0.93547 0.51356 0.35929 0.0
C624 C 0.85105 0.47185 0.36734 0.0
H625 H 0.85997 0.44799 0.37544 0.0
H626 H 0.84121 0.46322 0.35262 0.0
H627 H 0.82927 0.4845 0.3758 0.0
C628 C 0.958 0.43194 0.29221 0.0
N629 N 0.95327 0.42155 0.31104 0.0
N630 N 0.93498 0.44554 0.32065 0.0
C631 C 0.92462 0.47072 0.30776 0.0
C632 C 0.93976 0.46362 0.28925 0.0
C633 C 0.98181 0.41286 0.27804 0.0
H634 H 0.00333 0.3993 0.28624 0.0
H635 H 0.9663 0.3925 0.26998 0.0
H636 H 0.99377 0.4314 0.26719 0.0
O637 O 0.00137 0.38992 0.34377 0.0
O638 O 0.97727 0.43191 0.3624 0.0
H639 H 0.90822 0.52019 0.32028 0.0
H640 H 0.88265 0.50639 0.2989 0.0
C641 C 0.89636 0.49722 0.31251 0.0
H642 H 0.87653 0.48513 0.32255 0.0
H643 H 0.96211 0.51278 0.3552 0.0
O644 O 0.98544 0.34393 0.30668 0.0
C645 C 0.00284 0.41108 0.35832 0.0
Co646 Co 0.8707 0.71152 0.57445 0.0
Co647 Co 0.80809 0.68508 0.60089 0.0
C648 C 0.88061 0.65133 0.60221 0.0
O649 O 0.89262 0.67132 0.58859 0.0
O650 O 0.84872 0.65395 0.60818 0.0
C651 C 0.9299 0.71476 0.54747 0.0
O652 O 0.93109 0.6802 0.54955 0.0
C653 C 0.75412 0.6332 0.61204 0.0
C654 C 0.72014 0.66393 0.63239 0.0
C655 C 0.72431 0.6308 0.62393 0.0
N656 N 0.76695 0.66629 0.61335 0.0
N657 N 0.74655 0.68453 0.62556 0.0
C658 C 0.77161 0.604 0.60069 0.0
H659 H 0.79618 0.61353 0.59344 0.0
H660 H 0.75339 0.59365 0.5892 0.0
H661 H 0.77788 0.58183 0.6109 0.0
C662 C 0.81897 0.70007 0.54276 0.0
N663 N 0.82855 0.69852 0.56191 0.0
N664 N 0.80145 0.68818 0.57273 0.0
C665 C 0.77344 0.68309 0.56059 0.0
C666 C 0.78385 0.69023 0.54127 0.0
C667 C 0.84296 0.71157 0.52632 0.0
H668 H 0.86689 0.69459 0.52624 0.0
H669 H 0.8298 0.70981 0.51165 0.0
H670 H 0.85155 0.73924 0.52898 0.0
O671 O 0.86214 0.74994 0.59358 0.0
O672 O 0.81799 0.73229 0.61289 0.0
H673 H 0.71683 0.68242 0.5561 0.0
H674 H 0.73451 0.64558 0.56972 0.0
C675 C 0.73673 0.67451 0.56737 0.0
H676 H 0.73096 0.68815 0.58155 0.0
H677 H 0.75074 0.711 0.62929 0.0
O678 O 0.90521 0.73189 0.55584 0.0
C679 C 0.84119 0.75514 0.60803 0.0
Co680 Co 0.54164 0.37057 0.68163 0.0
Co681 Co 0.56911 0.43309 0.65537 0.0
C682 C 0.60305 0.36105 0.65414 0.0
O683 O 0.5816 0.34913 0.66706 0.0
O684 O 0.6013 0.39309 0.64827 0.0
C685 C 0.5409 0.30972 0.7069 0.0
O686 O 0.57541 0.31112 0.70465 0.0
C687 C 0.61979 0.48817 0.64402 0.0
C688 C 0.58643 0.52434 0.62628 0.0
C689 C 0.62039 0.51972 0.63353 0.0
N690 N 0.58681 0.47495 0.64318 0.0
N691 N 0.56705 0.49656 0.63246 0.0
C692 C 0.65018 0.46957 0.65371 0.0
H693 H 0.65717 0.44597 0.64473 0.0
H694 H 0.64217 0.45991 0.66858 0.0
H695 H 0.67384 0.4868 0.65489 0.0
C696 C 0.55465 0.42172 0.71357 0.0
N697 N 0.55539 0.41235 0.69437 0.0
N698 N 0.56571 0.43943 0.68354 0.0
C699 C 0.57132 0.4673 0.69567 0.0
C700 C 0.56484 0.45681 0.71507 0.0
C701 C 0.54455 0.3972 0.73004 0.0
H702 H 0.51609 0.39033 0.72865 0.0
H703 H 0.56001 0.37237 0.72873 0.0
H704 H 0.54951 0.40907 0.74481 0.0
O705 O 0.50259 0.38033 0.66302 0.0
O706 O 0.52188 0.42335 0.64341 0.0
H707 H 0.5649 0.5099 0.6749 0.0
H708 H 0.57206 0.52396 0.70018 0.0
C709 C 0.57942 0.50408 0.68879 0.0
H710 H 0.6082 0.50639 0.68591 0.0
H711 H 0.54023 0.49253 0.62954 0.0
O712 O 0.52218 0.33465 0.69987 0.0
C713 C 0.49802 0.40141 0.64856 0.0
Co714 Co 0.87661 0.29185 0.93161 0.0
Co715 Co 0.81305 0.31912 0.90593 0.0
C716 C 0.88584 0.35019 0.90185 0.0
O717 O 0.89801 0.33019 0.91543 0.0
O718 O 0.85336 0.34891 0.89678 0.0
C719 C 0.93822 0.29238 0.95636 0.0
O720 O 0.93728 0.32669 0.95325 0.0
C721 C 0.75785 0.36805 0.89076 0.0
C722 C 0.71668 0.32973 0.88183 0.0
C723 C 0.72387 0.36563 0.8829 0.0
N724 N 0.76982 0.33508 0.8943 0.0
N725 N 0.74514 0.31237 0.88877 0.0
C726 C 0.77897 0.40092 0.89443 0.0
H727 H 0.80758 0.39563 0.8926 0.0
H728 H 0.77452 0.40991 0.90989 0.0
H729 H 0.77096 0.42238 0.88414 0.0
C730 C 0.82675 0.30639 0.96409 0.0
N731 N 0.83569 0.30704 0.94481 0.0
N732 N 0.80876 0.31866 0.93428 0.0
C733 C 0.78177 0.32613 0.94673 0.0
C734 C 0.79238 0.31865 0.96598 0.0
C735 C 0.85046 0.29322 0.98024 0.0
H736 H 0.85798 0.26538 0.97713 0.0
H737 H 0.87509 0.3092 0.9804 0.0
H738 H 0.83758 0.29489 0.99499 0.0
O739 O 0.86561 0.2517 0.91407 0.0
O740 O 0.82168 0.27077 0.89505 0.0
H741 H 0.73496 0.31815 0.92948 0.0
H742 H 0.72715 0.33979 0.95296 0.0
C743 C 0.74566 0.33755 0.94025 0.0
H744 H 0.74756 0.36359 0.93277 0.0
H745 H 0.74753 0.28495 0.89003 0.0
O746 O 0.91306 0.27345 0.9498 0.0
C747 C 0.84364 0.24684 0.90007 0.0
Co748 Co 0.96667 0.62193 0.17737 0.0
Co749 Co 0.93079 0.55961 0.15463 0.0
C750 C 0.89953 0.63116 0.15285 0.0
O751 O 0.92401 0.64286 0.16415 0.0
O752 O 0.89839 0.59869 0.14776 0.0
C753 C 0.97175 0.6801 0.20506 0.0
O754 O 0.93704 0.67838 0.20591 0.0
C755 C 0.88093 0.50498 0.13997 0.0
C756 C 0.91559 0.45782 0.14068 0.0
C757 C 0.88131 0.46871 0.13684 0.0
N758 N 0.91366 0.51507 0.14545 0.0
N759 N 0.93429 0.48681 0.14558 0.0
C760 C 0.84946 0.52901 0.13968 0.0
H761 H 0.85076 0.54776 0.1523 0.0
H762 H 0.82435 0.51381 0.14036 0.0
H763 H 0.84988 0.54467 0.12578 0.0
C764 C 0.95977 0.57296 0.21072 0.0
N765 N 0.95498 0.58142 0.1916 0.0
N766 N 0.93607 0.55693 0.18281 0.0
C767 C 0.92552 0.53329 0.19657 0.0
C768 C 0.94034 0.54245 0.21485 0.0
C769 C 0.98641 0.59133 0.22357 0.0
H770 H 0.00908 0.60036 0.21441 0.0
H771 H 0.97417 0.61514 0.23032 0.0
H772 H 0.99643 0.57358 0.2354 0.0
O773 O 0.00232 0.61091 0.15764 0.0
O774 O 0.97704 0.56814 0.14015 0.0
H775 H 0.91344 0.48097 0.18657 0.0
H776 H 0.88491 0.49675 0.20618 0.0
C777 C 0.89935 0.50443 0.19252 0.0
H778 H 0.87984 0.5134 0.18135 0.0
H779 H 0.96089 0.48715 0.14974 0.0
O780 O 0.98846 0.65796 0.19447 0.0
C781 C 0.00285 0.58916 0.14335 0.0
Co782 Co 0.62223 0.7133 0.4316 0.0
Co783 Co 0.68795 0.68676 0.40766 0.0
C784 C 0.61692 0.65165 0.40384 0.0
O785 O 0.60325 0.67243 0.4166 0.0
O786 O 0.64948 0.65404 0.39898 0.0
C787 C 0.56002 0.71584 0.45667 0.0
O788 O 0.55949 0.68119 0.45499 0.0
C789 C 0.74348 0.63784 0.39404 0.0
C790 C 0.78747 0.67483 0.38789 0.0
C791 C 0.77855 0.6393 0.38799 0.0
N792 N 0.73222 0.67106 0.39737 0.0
N793 N 0.75852 0.69305 0.39345 0.0
C794 C 0.72188 0.60553 0.39825 0.0
H795 H 0.70456 0.61024 0.41127 0.0
H796 H 0.73905 0.58219 0.40095 0.0
H797 H 0.70464 0.6 0.3853 0.0
C798 C 0.6701 0.70245 0.46527 0.0
N799 N 0.66278 0.70101 0.44579 0.0
N800 N 0.6907 0.68953 0.43605 0.0
C801 C 0.71672 0.68284 0.44926 0.0
C802 C 0.7044 0.69082 0.46812 0.0
C803 C 0.64473 0.71519 0.48073 0.0
H804 H 0.63583 0.74236 0.47697 0.0
H805 H 0.62111 0.69777 0.48081 0.0
H806 H 0.6568 0.71515 0.49572 0.0
O807 O 0.63247 0.75196 0.41307 0.0
O808 O 0.67821 0.73385 0.39516 0.0
H809 H 0.76558 0.69042 0.43389 0.0
H810 H 0.77011 0.66747 0.45724 0.0
C811 C 0.7532 0.67075 0.44391 0.0
H812 H 0.75156 0.64516 0.43594 0.0
H813 H 0.75696 0.72047 0.39511 0.0
O814 O 0.58517 0.73303 0.44879 0.0
C815 C 0.65484 0.75698 0.39932 0.0
Co816 Co 0.45609 0.37304 0.18028 0.0
Co817 Co 0.42794 0.43836 0.15657 0.0
C818 C 0.39245 0.36748 0.15377 0.0
O819 O 0.41436 0.35401 0.166 0.0
O820 O 0.39436 0.40002 0.14882 0.0
C821 C 0.45792 0.31165 0.2057 0.0
O822 O 0.42325 0.31234 0.20429 0.0
C823 C 0.37898 0.49355 0.14225 0.0
C824 C 0.41579 0.5381 0.13716 0.0
C825 C 0.38042 0.52869 0.13639 0.0
N826 N 0.41209 0.48267 0.14631 0.0
N827 N 0.43398 0.50933 0.14302 0.0
C828 C 0.34663 0.47146 0.14544 0.0
H829 H 0.35002 0.45477 0.15884 0.0
H830 H 0.32265 0.4882 0.14699 0.0
H831 H 0.34311 0.4536 0.13253 0.0
C832 C 0.44721 0.42142 0.21389 0.0
N833 N 0.44459 0.41382 0.19449 0.0
N834 N 0.43237 0.44153 0.18487 0.0
C835 C 0.42631 0.46769 0.19809 0.0
C836 C 0.4356 0.4557 0.21683 0.0
C837 C 0.46091 0.3963 0.22922 0.0
H838 H 0.48769 0.38704 0.22488 0.0
H839 H 0.44326 0.37289 0.22991 0.0
H840 H 0.46213 0.40869 0.24411 0.0
O841 O 0.49407 0.38283 0.16116 0.0
O842 O 0.47432 0.42796 0.14328 0.0
H843 H 0.43349 0.51715 0.18335 0.0
H844 H 0.40896 0.52035 0.20624 0.0
C845 C 0.4135 0.50394 0.19284 0.0
H846 H 0.38849 0.50187 0.18433 0.0
H847 H 0.46129 0.5081 0.14527 0.0
O848 O 0.47579 0.33603 0.19751 0.0
C849 C 0.49789 0.40482 0.14709 0.0
Co850 Co 0.37572 0.71008 0.92769 0.0
Co851 Co 0.31365 0.68263 0.90099 0.0
C852 C 0.38557 0.64852 0.90049 0.0
O853 O 0.3972 0.66963 0.91365 0.0
O854 O 0.35377 0.65046 0.89427 0.0
C855 C 0.43503 0.71039 0.95421 0.0
O856 O 0.43374 0.6759 0.95188 0.0
C857 C 0.25847 0.63205 0.88939 0.0
C858 C 0.22557 0.66414 0.86913 0.0
C859 C 0.2287 0.63074 0.8774 0.0
N860 N 0.27227 0.66478 0.8883 0.0
N861 N 0.2525 0.68382 0.87615 0.0
C862 C 0.27495 0.60216 0.90063 0.0
H863 H 0.29926 0.61106 0.9084 0.0
H864 H 0.25599 0.59152 0.91165 0.0
H865 H 0.28152 0.58038 0.89022 0.0
C866 C 0.32336 0.69887 0.95916 0.0
N867 N 0.33324 0.69736 0.94005 0.0
N868 N 0.30639 0.68677 0.92911 0.0
C869 C 0.2782 0.68161 0.94111 0.0
C870 C 0.28817 0.68898 0.96049 0.0
C871 C 0.34754 0.70915 0.97576 0.0
H872 H 0.35597 0.73705 0.97375 0.0
H873 H 0.37156 0.69232 0.97529 0.0
H874 H 0.33469 0.70608 0.99044 0.0
O875 O 0.36777 0.74845 0.90839 0.0
O876 O 0.32493 0.72917 0.8886 0.0
H877 H 0.23609 0.68587 0.91986 0.0
H878 H 0.2215 0.68052 0.94523 0.0
C879 C 0.24171 0.67255 0.93415 0.0
H880 H 0.23981 0.64355 0.93199 0.0
H881 H 0.25745 0.71024 0.8726 0.0
O882 O 0.41097 0.72928 0.9464 0.0
C883 C 0.34754 0.75257 0.89351 0.0
Co884 Co 0.04485 0.62486 0.67784 0.0
Co885 Co 0.06617 0.55986 0.6517 0.0
C886 C 0.10134 0.63174 0.6477 0.0
O887 O 0.0834 0.64499 0.66182 0.0
O888 O 0.09722 0.59959 0.64241 0.0
C889 C 0.04533 0.68687 0.70266 0.0
O890 O 0.07921 0.68811 0.69831 0.0
C891 C 0.11567 0.50334 0.6408 0.0
C892 C 0.08279 0.4696 0.62141 0.0
C893 C 0.11645 0.47282 0.62938 0.0
N894 N 0.08304 0.51742 0.63967 0.0
N895 N 0.06352 0.49713 0.62805 0.0
C896 C 0.14589 0.52009 0.65164 0.0
H897 H 0.13946 0.54777 0.65575 0.0
H898 H 0.15142 0.50505 0.6654 0.0
H899 H 0.17013 0.51936 0.64234 0.0
C900 C 0.0599 0.5752 0.71004 0.0
N901 N 0.05902 0.58342 0.69069 0.0
N902 N 0.06576 0.55505 0.68005 0.0
C903 C 0.06995 0.52732 0.69247 0.0
C904 C 0.0667 0.53933 0.71191 0.0
C905 C 0.05427 0.60149 0.72633 0.0
H906 H 0.06935 0.62595 0.72304 0.0
H907 H 0.06301 0.591 0.74088 0.0
H908 H 0.02576 0.60844 0.72711 0.0
O909 O 0.00392 0.6154 0.66037 0.0
O910 O 0.01791 0.5697 0.64124 0.0
H911 H 0.06205 0.4714 0.69744 0.0
H912 H 0.10039 0.48273 0.68299 0.0
C913 C 0.07233 0.48957 0.68587 0.0
H914 H 0.0571 0.48569 0.67199 0.0
H915 H 0.03707 0.50216 0.62458 0.0
O916 O 0.02712 0.66089 0.69648 0.0
C917 C 0.99622 0.59359 0.64668 0.0
Co918 Co 0.12352 0.29019 0.43133 0.0
Co919 Co 0.18631 0.31819 0.40557 0.0
C920 C 0.11447 0.35285 0.40474 0.0
O921 O 0.10228 0.33114 0.41746 0.0
O922 O 0.14656 0.35098 0.39895 0.0
C923 C 0.06318 0.28768 0.45725 0.0
O924 O 0.06342 0.32232 0.45549 0.0
C925 C 0.24215 0.36857 0.39464 0.0
C926 C 0.27652 0.33595 0.37543 0.0
C927 C 0.27287 0.36943 0.38346 0.0
N928 N 0.22825 0.33591 0.39339 0.0
N929 N 0.24885 0.31658 0.38182 0.0
C930 C 0.22524 0.39864 0.40551 0.0
H931 H 0.20475 0.38874 0.41592 0.0
H932 H 0.24542 0.41419 0.41367 0.0
H933 H 0.21253 0.41659 0.3946 0.0
C934 C 0.17465 0.3007 0.46348 0.0
N935 N 0.16546 0.30266 0.44428 0.0
N936 N 0.19259 0.31385 0.43374 0.0
C937 C 0.22017 0.31925 0.44614 0.0
C938 C 0.20947 0.31137 0.46531 0.0
C939 C 0.15062 0.28806 0.47962 0.0
H940 H 0.12686 0.30528 0.48019 0.0
H941 H 0.1639 0.28839 0.49429 0.0
H942 H 0.14166 0.26077 0.47622 0.0
O943 O 0.13247 0.252 0.41216 0.0
O944 O 0.17592 0.2714 0.39292 0.0
H945 H 0.2765 0.32284 0.45133 0.0
H946 H 0.25748 0.35858 0.43736 0.0
C947 C 0.25667 0.3296 0.43979 0.0
H948 H 0.2637 0.3161 0.42575 0.0
H949 H 0.24411 0.29009 0.37835 0.0
O950 O 0.08802 0.26995 0.4494 0.0
C951 C 0.15349 0.24771 0.39766 0.0
Co952 Co 0.46341 0.62147 0.323 0.0
Co953 Co 0.43553 0.5596 0.34964 0.0
C954 C 0.40232 0.63226 0.35027 0.0
O955 O 0.42321 0.64362 0.33691 0.0
O956 O 0.40439 0.60059 0.3567 0.0
C957 C 0.46641 0.68055 0.29609 0.0
O958 O 0.43178 0.681 0.29796 0.0
C959 C 0.38374 0.50538 0.36176 0.0
C960 C 0.41699 0.46957 0.37974 0.0
C961 C 0.3828 0.47444 0.37283 0.0
N962 N 0.41701 0.5181 0.36205 0.0
N963 N 0.4367 0.49658 0.37287 0.0
C964 C 0.3532 0.52355 0.35193 0.0
H965 H 0.36016 0.55109 0.34788 0.0
H966 H 0.34587 0.5092 0.33822 0.0
H967 H 0.32982 0.52336 0.3619 0.0
C968 C 0.45104 0.56989 0.29142 0.0
N969 N 0.44985 0.57951 0.31056 0.0
N970 N 0.43879 0.55276 0.32143 0.0
C971 C 0.43287 0.52489 0.3093 0.0
C972 C 0.44022 0.53506 0.28996 0.0
C973 C 0.46268 0.5937 0.27494 0.0
H974 H 0.44583 0.61772 0.27483 0.0
H975 H 0.46079 0.58052 0.26028 0.0
H976 H 0.49041 0.60214 0.27757 0.0
O977 O 0.50177 0.61241 0.34202 0.0
O978 O 0.48298 0.56925 0.36167 0.0
H979 H 0.42959 0.46842 0.30462 0.0
H980 H 0.39435 0.48741 0.31902 0.0
C981 C 0.42318 0.48848 0.3161 0.0
H982 H 0.43745 0.48197 0.32998 0.0
H983 H 0.46366 0.50028 0.37551 0.0
O984 O 0.48385 0.65603 0.30443 0.0
C985 C 0.50654 0.59157 0.35655 0.0
Co986 Co 0.12064 0.70819 0.06735 0.0
Co987 Co 0.18403 0.67858 0.09225 0.0
C988 C 0.11211 0.64524 0.09429 0.0
O989 O 0.09996 0.66754 0.08188 0.0
O990 O 0.14444 0.64618 0.09976 0.0
C991 C 0.06029 0.70886 0.04167 0.0
O992 O 0.06273 0.67425 0.04285 0.0
C993 C 0.23863 0.62991 0.10843 0.0
C994 C 0.28319 0.66709 0.11259 0.0
C995 C 0.27392 0.63176 0.11426 0.0
N996 N 0.22798 0.66258 0.10313 0.0
N997 N 0.25467 0.68465 0.10586 0.0
C998 C 0.2146 0.59844 0.10906 0.0
H999 H 0.18953 0.60572 0.11656 0.0
H1000 H 0.20807 0.59025 0.0937 0.0
H1001 H 0.22676 0.57601 0.11719 0.0
C1002 C 0.17036 0.69727 0.03452 0.0
N1003 N 0.16163 0.69504 0.05379 0.0
N1004 N 0.18844 0.68206 0.06391 0.0
C1005 C 0.21505 0.675 0.05113 0.0
C1006 C 0.20436 0.68445 0.03217 0.0
C1007 C 0.14686 0.71245 0.01884 0.0
H1008 H 0.1232 0.69533 0.01716 0.0
H1009 H 0.16061 0.71438 0.00434 0.0
H1010 H 0.13768 0.73909 0.02348 0.0
O1011 O 0.13089 0.74661 0.08606 0.0
O1012 O 0.1743 0.72578 0.10485 0.0
H1013 H 0.26683 0.65427 0.04376 0.0
H1014 H 0.24726 0.63706 0.06626 0.0
C1015 C 0.25059 0.661 0.05695 0.0
H1016 H 0.26473 0.68131 0.06577 0.0
H1017 H 0.25354 0.71171 0.10281 0.0
O1018 O 0.08413 0.72767 0.0497 0.0
C1019 C 0.15242 0.75017 0.10037 0.0
Co1020 Co 0.04133 0.37463 0.8195 0.0
Co1021 Co 0.06812 0.43794 0.84516 0.0
C1022 C 0.10356 0.3662 0.84612 0.0
O1023 O 0.08237 0.3535 0.83327 0.0
O1024 O 0.10097 0.39827 0.85183 0.0
C1025 C 0.03668 0.31434 0.79323 0.0
O1026 O 0.07129 0.31259 0.79493 0.0
C1027 C 0.11958 0.49217 0.85641 0.0
C1028 C 0.08671 0.52972 0.87353 0.0
C1029 C 0.12078 0.52388 0.86671 0.0
N1030 N 0.0862 0.47996 0.85696 0.0
N1031 N 0.0667 0.50241 0.86728 0.0
C1032 C 0.14976 0.4724 0.84725 0.0
H1033 H 0.15694 0.44998 0.85708 0.0
H1034 H 0.14147 0.46102 0.83282 0.0
H1035 H 0.17341 0.48942 0.84531 0.0
C1036 C 0.05362 0.42495 0.78711 0.0
N1037 N 0.05391 0.41636 0.80643 0.0
N1038 N 0.06374 0.44395 0.81701 0.0
C1039 C 0.06933 0.47139 0.80456 0.0
C1040 C 0.06349 0.45998 0.78528 0.0
C1041 C 0.04283 0.4003 0.77085 0.0
H1042 H 0.01561 0.39054 0.77372 0.0
H1043 H 0.06084 0.37711 0.77076 0.0
H1044 H 0.04366 0.41339 0.75613 0.0
O1045 O 0.00324 0.38353 0.83885 0.0
O1046 O 0.0216 0.42756 0.85798 0.0
H1047 H 0.06492 0.51553 0.8244 0.0
H1048 H 0.07466 0.52748 0.79897 0.0
C1049 C 0.07973 0.50787 0.81088 0.0
H1050 H 0.10841 0.50819 0.81433 0.0
H1051 H 0.03969 0.4992 0.86997 0.0
O1052 O 0.02031 0.3397 0.80144 0.0
C1053 C 0.99844 0.40458 0.85329 0.0
Co1054 Co 0.37641 0.28986 0.57197 0.0
Co1055 Co 0.31228 0.31529 0.5978 0.0
C1056 C 0.38423 0.3492 0.60078 0.0
O1057 O 0.3969 0.3293 0.58732 0.0
O1058 O 0.35194 0.3468 0.60611 0.0
C1059 C 0.43739 0.28976 0.54631 0.0
O1060 O 0.43707 0.32418 0.54907 0.0
C1061 C 0.25641 0.36543 0.60867 0.0
C1062 C 0.22075 0.33239 0.62689 0.0
C1063 C 0.22509 0.36616 0.61935 0.0
N1064 N 0.26992 0.33259 0.60972 0.0
N1065 N 0.24856 0.31299 0.6207 0.0
C1066 C 0.27434 0.39577 0.59857 0.0
H1067 H 0.29472 0.386 0.58805 0.0
H1068 H 0.25484 0.41254 0.59066 0.0
H1069 H 0.28744 0.41248 0.60993 0.0
C1070 C 0.32619 0.30205 0.53963 0.0
N1071 N 0.3349 0.30321 0.55892 0.0
N1072 N 0.30727 0.31321 0.56944 0.0
C1073 C 0.27986 0.31863 0.55692 0.0
C1074 C 0.29113 0.3119 0.53771 0.0
C1075 C 0.35093 0.29082 0.52349 0.0
H1076 H 0.35953 0.26316 0.52618 0.0
H1077 H 0.3748 0.30789 0.52379 0.0
H1078 H 0.3384 0.29271 0.50865 0.0
O1079 O 0.36674 0.2504 0.59015 0.0
O1080 O 0.32225 0.26763 0.60937 0.0
H1081 H 0.23603 0.31264 0.5769 0.0
H1082 H 0.22352 0.3208 0.55141 0.0
C1083 C 0.2429 0.32734 0.56322 0.0
H1084 H 0.24114 0.35609 0.56631 0.0
H1085 H 0.25287 0.28631 0.62388 0.0
O1086 O 0.41272 0.27123 0.55374 0.0
C1087 C 0.34525 0.24473 0.60428 0.0
C1088 C 0.1471 0.21989 0.36429 0.0
C1089 C 0.14841 0.21619 0.385 0.0
C1090 C 0.1337 0.19263 0.35229 0.0
C1091 C 0.1219 0.16046 0.36056 0.0
H1092 H 0.15395 0.2449 0.35743 0.0
H1093 H 0.13092 0.19746 0.33654 0.0
S1094 S 0.12486 0.13608 0.41384 0.0
N1095 N 0.14028 0.17694 0.41311 0.0
N1096 N 0.1161 0.12534 0.39064 0.0
C1097 C 0.12606 0.15543 0.3811 0.0
C1098 C 0.139 0.18343 0.39331 0.0
C1099 C 0.03545 0.90094 0.61507 0.0
C1100 C 0.03902 0.90156 0.6358 0.0
C1101 C 0.0622 0.88666 0.60303 0.0
C1102 C 0.09377 0.87327 0.61127 0.0
H1103 H 0.01076 0.9089 0.60822 0.0
H1104 H 0.05735 0.88441 0.58726 0.0
S1105 S 0.11793 0.87383 0.66458 0.0
N1106 N 0.07777 0.89106 0.66392 0.0
N1107 N 0.12845 0.86522 0.64132 0.0
C1108 C 0.09888 0.87677 0.63183 0.0
C1109 C 0.07137 0.89062 0.6441 0.0
C1110 C 0.36008 0.81667 0.88879 0.0
C1111 C 0.35433 0.78309 0.88045 0.0
C1112 C 0.37432 0.84436 0.87749 0.0
C1113 C 0.38439 0.83904 0.85762 0.0
H1114 H 0.35503 0.82109 0.9044 0.0
H1115 H 0.37984 0.86927 0.88481 0.0
S1116 S 0.3722 0.75664 0.8285 0.0
N1117 N 0.35704 0.74674 0.85079 0.0
N1118 N 0.38497 0.7984 0.82967 0.0
C1119 C 0.37697 0.8061 0.84883 0.0
C1120 C 0.36163 0.77819 0.86022 0.0
C1121 C 0.40094 0.12288 0.12975 0.0
C1122 C 0.40588 0.1319 0.10971 0.0
C1123 C 0.42854 0.10809 0.14092 0.0
C1124 C 0.46163 0.10077 0.1323 0.0
H1125 H 0.37652 0.12966 0.13727 0.0
H1126 H 0.42453 0.10399 0.15666 0.0
S1127 S 0.48656 0.1151 0.07978 0.0
N1128 N 0.44536 0.12952 0.08127 0.0
N1129 N 0.49682 0.10067 0.10217 0.0
C1130 C 0.46595 0.1069 0.11191 0.0
C1131 C 0.43816 0.12276 0.10064 0.0
C1132 C 0.14642 0.77761 0.13387 0.0
C1133 C 0.1484 0.78165 0.11319 0.0
C1134 C 0.13358 0.80507 0.14592 0.0
C1135 C 0.12303 0.83777 0.13777 0.0
H1136 H 0.15221 0.75224 0.14061 0.0
H1137 H 0.1302 0.80002 0.16162 0.0
S1138 S 0.12826 0.86303 0.08466 0.0
N1139 N 0.14231 0.82167 0.08526 0.0
N1140 N 0.11923 0.87362 0.10786 0.0
C1141 C 0.12794 0.84305 0.11729 0.0
C1142 C 0.1403 0.81487 0.10501 0.0
C1143 C 0.43164 0.89073 0.35585 0.0
C1144 C 0.46382 0.90124 0.36453 0.0
C1145 C 0.40367 0.87784 0.36746 0.0
C1146 C 0.4073 0.87404 0.38811 0.0
H1147 H 0.42872 0.89079 0.33988 0.0
H1148 H 0.38017 0.86822 0.36 0.0
S1149 S 0.48496 0.90111 0.41818 0.0
N1150 N 0.49652 0.91019 0.39513 0.0
N1151 N 0.44437 0.88501 0.41693 0.0
C1152 C 0.43849 0.88664 0.39708 0.0
C1153 C 0.46666 0.90051 0.38528 0.0
C1154 C 0.37045 0.1873 0.64769 0.0
C1155 C 0.37987 0.15528 0.6384 0.0
C1156 C 0.35567 0.21535 0.63681 0.0
C1157 C 0.35071 0.21254 0.61623 0.0
H1158 H 0.37605 0.19129 0.66328 0.0
H1159 H 0.35073 0.24026 0.64428 0.0
S1160 S 0.36818 0.13367 0.58511 0.0
N1161 N 0.38026 0.1216 0.60763 0.0
N1162 N 0.35364 0.17471 0.58723 0.0
C1163 C 0.35805 0.18009 0.607 0.0
C1164 C 0.37231 0.15131 0.61808 0.0
C1165 C 0.0579 0.12285 0.89793 0.0
C1166 C 0.09039 0.13119 0.88881 0.0
C1167 C 0.02991 0.10802 0.88703 0.0
C1168 C 0.03326 0.10187 0.86657 0.0
H1169 H 0.05354 0.12926 0.91339 0.0
H1170 H 0.00469 0.10388 0.89434 0.0
S1171 S 0.11342 0.116 0.83598 0.0
N1172 N 0.12504 0.12914 0.85839 0.0
N1173 N 0.07199 0.10251 0.83792 0.0
C1174 C 0.06609 0.10817 0.85753 0.0
C1175 C 0.09482 0.12247 0.86866 0.0
C1176 C 0.85819 0.81842 0.61185 0.0
C1177 C 0.84788 0.78631 0.62068 0.0
C1178 C 0.87313 0.84574 0.62314 0.0
C1179 C 0.87923 0.84151 0.64357 0.0
H1180 H 0.85637 0.82173 0.59593 0.0
H1181 H 0.88239 0.86921 0.6155 0.0
S1182 S 0.85349 0.76395 0.67407 0.0
N1183 N 0.84155 0.75313 0.65131 0.0
N1184 N 0.87053 0.80411 0.6725 0.0
C1185 C 0.86687 0.81045 0.65278 0.0
C1186 C 0.85093 0.78294 0.64134 0.0
C1187 C 0.96585 0.1046 0.38335 0.0
C1188 C 0.96342 0.10235 0.3626 0.0
C1189 C 0.93799 0.11879 0.39459 0.0
C1190 C 0.90646 0.13024 0.3855 0.0
H1191 H 0.99037 0.09791 0.39079 0.0
H1192 H 0.94177 0.12231 0.41039 0.0
S1193 S 0.8856 0.12568 0.33182 0.0
N1194 N 0.92626 0.10991 0.33356 0.0
N1195 N 0.87336 0.13529 0.35469 0.0
C1196 C 0.9027 0.12536 0.36494 0.0
C1197 C 0.93138 0.11177 0.35347 0.0
C1198 C 0.62378 0.15533 0.11961 0.0
C1199 C 0.61881 0.15945 0.14015 0.0
C1200 C 0.63678 0.18319 0.10797 0.0
C1201 C 0.64621 0.2158 0.11651 0.0
H1202 H 0.61503 0.13144 0.1122 0.0
H1203 H 0.6378 0.17977 0.09203 0.0
S1204 S 0.64307 0.23828 0.16998 0.0
N1205 N 0.62766 0.19742 0.16881 0.0
N1206 N 0.65309 0.24942 0.14698 0.0
C1207 C 0.64435 0.21919 0.13723 0.0
C1208 C 0.63036 0.19109 0.14904 0.0
C1209 C 0.5574 0.87781 0.90062 0.0
C1210 C 0.59229 0.87459 0.89338 0.0
C1211 C 0.53068 0.8937 0.88919 0.0
C1212 C 0.53789 0.90651 0.87008 0.0
H1213 H 0.55012 0.86608 0.91469 0.0
H1214 H 0.50368 0.89298 0.89461 0.0
S1215 S 0.6254 0.90995 0.84542 0.0
N1216 N 0.63321 0.89034 0.86684 0.0
N1217 N 0.58263 0.91899 0.84531 0.0
C1218 C 0.57302 0.90631 0.86338 0.0
C1219 C 0.60036 0.89071 0.87507 0.0
C1220 C 0.8628 0.19085 0.85515 0.0
C1221 C 0.87462 0.15889 0.86361 0.0
C1222 C 0.84929 0.21825 0.86698 0.0
C1223 C 0.84792 0.21489 0.88771 0.0
H1224 H 0.86577 0.19547 0.83939 0.0
H1225 H 0.84261 0.24319 0.85998 0.0
S1226 S 0.87105 0.13521 0.91698 0.0
N1227 N 0.88 0.12411 0.89385 0.0
N1228 N 0.85572 0.1761 0.91604 0.0
C1229 C 0.85715 0.18226 0.89621 0.0
C1230 C 0.87017 0.15408 0.88416 0.0
C1231 C 0.59695 0.11061 0.62411 0.0
C1232 C 0.59069 0.1242 0.60499 0.0
C1233 C 0.56948 0.09577 0.63531 0.0
C1234 C 0.53504 0.093 0.62761 0.0
H1235 H 0.62252 0.11399 0.63114 0.0
H1236 H 0.5747 0.08846 0.65056 0.0
S1237 S 0.50585 0.11932 0.57733 0.0
N1238 N 0.54821 0.13015 0.57806 0.0
N1239 N 0.49684 0.10143 0.59909 0.0
C1240 C 0.52913 0.10327 0.60791 0.0
C1241 C 0.55691 0.11909 0.59659 0.0
C1242 C 0.64867 0.78428 0.36585 0.0
C1243 C 0.64988 0.78833 0.38655 0.0
C1244 C 0.63451 0.81099 0.35374 0.0
C1245 C 0.6219 0.84293 0.36188 0.0
H1246 H 0.65606 0.75931 0.35913 0.0
H1247 H 0.63181 0.80588 0.33801 0.0
S1248 S 0.62374 0.86799 0.41507 0.0
N1249 N 0.6404 0.8276 0.41452 0.0
N1250 N 0.6149 0.87824 0.3918 0.0
C1251 C 0.62587 0.84837 0.3824 0.0
C1252 C 0.63954 0.82091 0.39473 0.0
C1253 C 0.93356 0.88784 0.14435 0.0
C1254 C 0.96609 0.89614 0.13535 0.0
C1255 C 0.9052 0.87451 0.13319 0.0
C1256 C 0.90882 0.86796 0.11276 0.0
H1257 H 0.93055 0.89015 0.16026 0.0
H1258 H 0.88123 0.86685 0.14091 0.0
S1259 S 0.98766 0.88787 0.08195 0.0
N1260 N 0.99936 0.89968 0.10459 0.0
N1261 N 0.94651 0.87342 0.08372 0.0
C1262 C 0.94056 0.87798 0.10342 0.0
C1263 C 0.9691 0.8924 0.1147 0.0
C1264 C 0.64991 0.71903 0.86346 0.0
C1265 C 0.65542 0.71445 0.88388 0.0
C1266 C 0.63604 0.69147 0.85186 0.0
C1267 C 0.62779 0.65827 0.86023 0.0
H1268 H 0.65343 0.74486 0.85676 0.0
H1269 H 0.62976 0.6969 0.83649 0.0
S1270 S 0.64326 0.6316 0.91248 0.0
N1271 N 0.6557 0.67346 0.91156 0.0
N1272 N 0.63063 0.62134 0.88977 0.0
C1273 C 0.63663 0.65246 0.88024 0.0
C1274 C 0.65012 0.6807 0.89207 0.0
C1275 C 0.58957 0.37896 0.1302 0.0
C1276 C 0.5847 0.37296 0.10979 0.0
C1277 C 0.56188 0.39176 0.14204 0.0
C1278 C 0.52867 0.40004 0.13384 0.0
H1279 H 0.61402 0.37119 0.13738 0.0
H1280 H 0.56593 0.39355 0.15791 0.0
S1281 S 0.50375 0.39365 0.08084 0.0
N1282 N 0.54508 0.37944 0.0816 0.0
N1283 N 0.49343 0.40449 0.10385 0.0
C1284 C 0.52437 0.39706 0.11323 0.0
C1285 C 0.5523 0.38325 0.10121 0.0
C1286 C 0.85307 0.28278 0.36062 0.0
C1287 C 0.8427 0.28706 0.38046 0.0
C1288 C 0.86895 0.31075 0.35018 0.0
C1289 C 0.87454 0.34396 0.35918 0.0
H1290 H 0.85192 0.2569 0.35373 0.0
H1291 H 0.87883 0.30565 0.33538 0.0
S1292 S 0.84693 0.36943 0.41007 0.0
N1293 N 0.83539 0.32745 0.40805 0.0
N1294 N 0.86444 0.38025 0.3885 0.0
C1295 C 0.86105 0.3493 0.37842 0.0
C1296 C 0.84536 0.32072 0.38906 0.0
C1297 C 0.93634 0.61559 0.6037 0.0
C1298 C 0.90592 0.62878 0.61324 0.0
C1299 C 0.9644 0.60088 0.61458 0.0
C1300 C 0.96331 0.59974 0.63539 0.0
H1301 H 0.93922 0.6182 0.58779 0.0
H1302 H 0.98815 0.59293 0.60675 0.0
S1303 S 0.8885 0.62741 0.66738 0.0
N1304 N 0.87514 0.63648 0.64465 0.0
N1305 N 0.92837 0.60998 0.66503 0.0
C1306 C 0.93224 0.61076 0.64501 0.0
C1307 C 0.90337 0.62495 0.63394 0.0
C1308 C 0.64894 0.31509 0.61165 0.0
C1309 C 0.65498 0.28094 0.61923 0.0
C1310 C 0.63528 0.34209 0.62365 0.0
C1311 C 0.62634 0.33566 0.64357 0.0
H1312 H 0.65274 0.32037 0.59601 0.0
H1313 H 0.62904 0.36726 0.61679 0.0
S1314 S 0.64192 0.25209 0.67119 0.0
N1315 N 0.65512 0.24328 0.64838 0.0
N1316 N 0.62884 0.2938 0.67096 0.0
C1317 C 0.63509 0.30245 0.65173 0.0
C1318 C 0.6496 0.27512 0.63955 0.0
C1319 C 0.97096 0.39604 0.88658 0.0
C1320 C 0.96702 0.39887 0.86593 0.0
C1321 C 0.94364 0.38218 0.89839 0.0
C1322 C 0.91119 0.37149 0.89001 0.0
H1323 H 0.99614 0.40213 0.89347 0.0
H1324 H 0.94856 0.37836 0.91406 0.0
S1325 S 0.88641 0.37804 0.83688 0.0
N1326 N 0.9275 0.39288 0.83778 0.0
N1327 N 0.87574 0.368 0.85993 0.0
C1328 C 0.90605 0.37695 0.86956 0.0
C1329 C 0.93412 0.39029 0.85753 0.0
C1330 C 0.85396 0.71817 0.1413 0.0
C1331 C 0.84197 0.71267 0.12185 0.0
C1332 C 0.87036 0.69075 0.15194 0.0
C1333 C 0.87484 0.65686 0.14355 0.0
H1334 H 0.85374 0.74453 0.14762 0.0
H1335 H 0.88151 0.69677 0.16634 0.0
S1336 S 0.84247 0.62809 0.09413 0.0
N1337 N 0.83181 0.6704 0.09544 0.0
N1338 N 0.86159 0.61853 0.11547 0.0
C1339 C 0.85959 0.6503 0.12485 0.0
C1340 C 0.84345 0.67835 0.11397 0.0
C1341 C 0.56098 0.61647 0.40119 0.0
C1342 C 0.59295 0.62797 0.39256 0.0
C1343 C 0.53413 0.6011 0.38966 0.0
C1344 C 0.53807 0.59747 0.36905 0.0
H1345 H 0.5559 0.62109 0.41678 0.0
H1346 H 0.50912 0.59475 0.39667 0.0
S1347 S 0.61805 0.61908 0.3396 0.0
N1348 N 0.62839 0.63076 0.36246 0.0
N1349 N 0.57746 0.60298 0.34079 0.0
C1350 C 0.57077 0.60642 0.36049 0.0
C1351 C 0.59839 0.62134 0.37226 0.0
C1352 C 0.36017 0.30975 0.15112 0.0
C1353 C 0.36803 0.3433 0.14308 0.0
C1354 C 0.34512 0.28291 0.13945 0.0
C1355 C 0.33795 0.28859 0.11929 0.0
H1356 H 0.36781 0.30341 0.16619 0.0
H1357 H 0.34225 0.2567 0.14577 0.0
S1358 S 0.34796 0.37293 0.09183 0.0
N1359 N 0.36265 0.38189 0.11432 0.0
N1360 N 0.33536 0.3311 0.09238 0.0
C1361 C 0.34256 0.3228 0.11156 0.0
C1362 C 0.3573 0.3503 0.12348 0.0
C1363 C 0.43574 0.60864 0.85769 0.0
C1364 C 0.46828 0.59941 0.86638 0.0
C1365 C 0.40759 0.62126 0.86922 0.0
C1366 C 0.41136 0.62603 0.8898 0.0
H1367 H 0.43263 0.6078 0.84173 0.0
H1368 H 0.38378 0.62999 0.86171 0.0
S1369 S 0.48993 0.60214 0.91995 0.0
N1370 N 0.50152 0.59246 0.89697 0.0
N1371 N 0.44893 0.61716 0.91863 0.0
C1372 C 0.44292 0.61458 0.89883 0.0
C1373 C 0.47133 0.601 0.88711 0.0
C1374 C 0.15139 0.71407 0.63242 0.0
C1375 C 0.14976 0.71235 0.61163 0.0
C1376 C 0.13788 0.68653 0.64415 0.0
C1377 C 0.1231 0.656 0.63549 0.0
H1378 H 0.16057 0.73794 0.63968 0.0
H1379 H 0.13733 0.68998 0.66009 0.0
S1380 S 0.11763 0.63668 0.58166 0.0
N1381 N 0.13562 0.67645 0.58286 0.0
N1382 N 0.11125 0.62421 0.60484 0.0
C1383 C 0.12432 0.65269 0.61474 0.0
C1384 C 0.13734 0.68105 0.60281 0.0
C1385 C 0.05548 0.38315 0.40284 0.0
C1386 C 0.08927 0.37704 0.39458 0.0
C1387 C 0.0281 0.39834 0.3916 0.0
C1388 C 0.03351 0.40749 0.37167 0.0
H1389 H 0.04943 0.37413 0.4177 0.0
H1390 H 0.00184 0.39993 0.39801 0.0
S1391 S 0.11803 0.40268 0.34393 0.0
N1392 N 0.12755 0.38627 0.36597 0.0
N1393 N 0.07578 0.41378 0.34485 0.0
C1394 C 0.06779 0.40454 0.3638 0.0
C1395 C 0.09581 0.38964 0.37527 0.0
C1396 C 0.37406 0.65531 0.38107 0.0
C1397 C 0.37911 0.65804 0.36048 0.0
C1398 C 0.35976 0.6835 0.39196 0.0
C1399 C 0.34911 0.715 0.38259 0.0
H1400 H 0.38366 0.63238 0.38907 0.0
H1401 H 0.35866 0.6813 0.40796 0.0
S1402 S 0.35203 0.73337 0.32864 0.0
N1403 N 0.36908 0.69332 0.33087 0.0
N1404 N 0.34128 0.7459 0.3513 0.0
C1405 C 0.35112 0.71685 0.36182 0.0
C1406 C 0.3664 0.68846 0.35077 0.0
C1407 C 0.09369 0.61177 0.12449 0.0
C1408 C 0.08679 0.6217 0.10476 0.0
C1409 C 0.06686 0.59785 0.13654 0.0
C1410 C 0.03244 0.59245 0.12918 0.0
H1411 H 0.1191 0.6175 0.13121 0.0
H1412 H 0.07247 0.59345 0.15209 0.0
S1413 S 0.00223 0.60826 0.07772 0.0
N1414 N 0.04409 0.6209 0.07774 0.0
N1415 N 0.99394 0.59405 0.1004 0.0
C1416 C 0.02612 0.59881 0.109 0.0
C1417 C 0.05325 0.61363 0.09678 0.0
C1418 C 0.15016 0.28088 0.85988 0.0
C1419 C 0.15798 0.28635 0.87998 0.0
C1420 C 0.13511 0.30798 0.8484 0.0
C1421 C 0.12785 0.34156 0.85659 0.0
H1422 H 0.1526 0.25469 0.85347 0.0
H1423 H 0.12703 0.30183 0.83339 0.0
S1424 S 0.15003 0.37061 0.9077 0.0
N1425 N 0.16197 0.3286 0.90695 0.0
N1426 N 0.13473 0.37991 0.88538 0.0
C1427 C 0.13926 0.34828 0.87611 0.0
C1428 C 0.154 0.32052 0.88783 0.0
C1429 C 0.44129 0.38228 0.60384 0.0
C1430 C 0.40922 0.37106 0.61246 0.0
C1431 C 0.46909 0.39534 0.61554 0.0
C1432 C 0.46601 0.39684 0.63627 0.0
H1433 H 0.44565 0.37917 0.58807 0.0
H1434 H 0.49403 0.40167 0.60843 0.0
S1435 S 0.38627 0.37526 0.66591 0.0
N1436 N 0.37474 0.36636 0.64284 0.0
N1437 N 0.42741 0.38988 0.66477 0.0
C1438 C 0.43332 0.3882 0.64492 0.0
C1439 C 0.40476 0.37563 0.63301 0.0
C1440 C 0.16432 0.93791 0.35416 0.0
C1441 C 0.14619 0.95201 0.37057 0.0
C1442 C 0.1902 0.91164 0.35662 0.0
C1443 C 0.19911 0.89911 0.37557 0.0
H1444 H 0.15749 0.94611 0.33928 0.0
H1445 H 0.20302 0.90073 0.34362 0.0
S1446 S 0.15898 0.92693 0.42319 0.0
N1447 N 0.13866 0.95125 0.40632 0.0
N1448 N 0.18742 0.90199 0.41091 0.0
C1449 C 0.18141 0.91315 0.39207 0.0
C1450 C 0.15485 0.93956 0.38957 0.0
C1451 C 0.32448 0.94426 0.63138 0.0
C1452 C 0.3589 0.94152 0.62346 0.0
C1453 C 0.29861 0.91861 0.62726 0.0
C1454 C 0.30654 0.88902 0.61548 0.0
H1455 H 0.31781 0.96544 0.6415 0.0
H1456 H 0.27273 0.92117 0.63403 0.0
S1457 S 0.39168 0.87032 0.5903 0.0
N1458 N 0.39869 0.90768 0.60238 0.0
N1459 N 0.35035 0.85909 0.5952 0.0
C1460 C 0.3405 0.88623 0.60721 0.0
C1461 C 0.36662 0.91253 0.61111 0.0
C1462 C 0.3268 0.10907 0.86045 0.0
C1463 C 0.30252 0.10374 0.87593 0.0
C1464 C 0.3528 0.08385 0.85612 0.0
C1465 C 0.35544 0.05238 0.86712 0.0
H1466 H 0.32611 0.13327 0.85184 0.0
H1467 H 0.37132 0.08926 0.84424 0.0
S1468 S 0.30007 0.02697 0.91015 0.0
N1469 N 0.2839 0.06551 0.90298 0.0
N1470 N 0.33262 0.01777 0.89462 0.0
C1471 C 0.33122 0.04651 0.88255 0.0
C1472 C 0.30477 0.07232 0.88703 0.0
C1473 C 0.19613 0.08241 0.13301 0.0
C1474 C 0.19147 0.10562 0.11698 0.0
C1475 C 0.17121 0.05578 0.13703 0.0
C1476 C 0.14121 0.05108 0.12489 0.0
H1477 H 0.21844 0.08572 0.14292 0.0
H1478 H 0.17488 0.03984 0.15017 0.0
S1479 S 0.11892 0.10346 0.08005 0.0
N1480 N 0.15586 0.12144 0.08838 0.0
N1481 N 0.10955 0.07093 0.09552 0.0
C1482 C 0.13701 0.07361 0.10846 0.0
C1483 C 0.16205 0.10093 0.10457 0.0
C1484 C 0.82874 0.05571 0.63847 0.0
C1485 C 0.85907 0.05181 0.62649 0.0
C1486 C 0.80268 0.08101 0.634 0.0
C1487 C 0.80649 0.10367 0.61765 0.0
H1488 H 0.82564 0.04022 0.65183 0.0
H1489 H 0.78014 0.0838 0.6438 0.0
S1490 S 0.87941 0.10306 0.58094 0.0
N1491 N 0.89008 0.07168 0.59689 0.0
N1492 N 0.84163 0.11975 0.58893 0.0
C1493 C 0.8362 0.09972 0.60539 0.0
C1494 C 0.86241 0.07373 0.60973 0.0
C1495 C 0.69559 0.08507 0.36436 0.0
C1496 C 0.69097 0.10864 0.38023 0.0
C1497 C 0.6701 0.05909 0.36015 0.0
C1498 C 0.63951 0.05543 0.37193 0.0
H1499 H 0.71842 0.08753 0.35473 0.0
H1500 H 0.6739 0.04274 0.34717 0.0
S1501 S 0.61678 0.10922 0.41617 0.0
N1502 N 0.65458 0.12599 0.40825 0.0
N1503 N 0.60714 0.07673 0.40073 0.0
C1504 C 0.6352 0.07842 0.38815 0.0
C1505 C 0.66086 0.10507 0.39224 0.0
C1506 C 0.64118 0.92687 0.11006 0.0
C1507 C 0.64226 0.94814 0.12714 0.0
C1508 C 0.66657 0.90053 0.10678 0.0
C1509 C 0.69404 0.8947 0.12041 0.0
H1510 H 0.62022 0.93029 0.09927 0.0
H1511 H 0.66452 0.88437 0.09357 0.0
S1512 S 0.7072 0.94083 0.16822 0.0
N1513 N 0.67174 0.95973 0.15856 0.0
N1514 N 0.72037 0.91105 0.15188 0.0
C1515 C 0.69568 0.91576 0.13748 0.0
C1516 C 0.66951 0.9423 0.141 0.0
C1517 C 0.80247 0.91602 0.86779 0.0
C1518 C 0.8067 0.89278 0.88384 0.0
C1519 C 0.82788 0.94215 0.86375 0.0
C1520 C 0.85792 0.94635 0.87591 0.0
H1521 H 0.78003 0.91318 0.85792 0.0
H1522 H 0.82447 0.95818 0.85062 0.0
S1523 S 0.87932 0.89353 0.92073 0.0
N1524 N 0.84204 0.87624 0.9124 0.0
N1525 N 0.88929 0.92587 0.90525 0.0
C1526 C 0.86179 0.92369 0.89231 0.0
C1527 C 0.83625 0.89684 0.89621 0.0
C1528 C 0.69621 0.42522 0.88914 0.0
C1529 C 0.69855 0.39416 0.87765 0.0
C1530 C 0.67035 0.45096 0.88522 0.0
C1531 C 0.64551 0.44601 0.87003 0.0
H1532 H 0.71344 0.4292 0.90174 0.0
H1533 H 0.66893 0.47421 0.89459 0.0
S1534 S 0.64095 0.37069 0.83505 0.0
N1535 N 0.67459 0.36112 0.84974 0.0
N1536 N 0.62534 0.40899 0.84294 0.0
C1537 C 0.64771 0.41553 0.85829 0.0
C1538 C 0.67433 0.38966 0.862 0.0
C1539 C 0.81832 0.3915 0.14114 0.0
C1540 C 0.79735 0.3946 0.12401 0.0
C1541 C 0.84492 0.41616 0.14536 0.0
C1542 C 0.85134 0.4449 0.13268 0.0
H1543 H 0.81445 0.36954 0.15123 0.0
H1544 H 0.86079 0.41255 0.15859 0.0
S1545 S 0.80625 0.46344 0.08509 0.0
N1546 N 0.78668 0.42737 0.09354 0.0
N1547 N 0.83593 0.47451 0.10197 0.0
C1548 C 0.83061 0.44851 0.11556 0.0
C1549 C 0.80378 0.42312 0.11108 0.0
C1550 C 0.86115 0.58291 0.38894 0.0
C1551 C 0.85432 0.55707 0.37444 0.0
C1552 C 0.83605 0.60892 0.39353 0.0
C1553 C 0.80314 0.6099 0.38387 0.0
H1554 H 0.88634 0.58332 0.39662 0.0
H1555 H 0.84255 0.62863 0.40462 0.0
S1556 S 0.77339 0.55059 0.34348 0.0
N1557 N 0.81316 0.5358 0.3494 0.0
N1558 N 0.7655 0.58411 0.35856 0.0
C1559 C 0.79583 0.58429 0.36938 0.0
C1560 C 0.82157 0.55799 0.36452 0.0
C1561 C 0.65998 0.55666 0.61252 0.0
C1562 C 0.64944 0.54549 0.63147 0.0
C1563 C 0.68528 0.58349 0.61016 0.0
C1564 C 0.70038 0.60033 0.6267 0.0
H1565 H 0.64818 0.54494 0.59944 0.0
H1566 H 0.69186 0.59209 0.59531 0.0
S1567 S 0.68047 0.58168 0.67946 0.0
N1568 N 0.65525 0.55373 0.66702 0.0
N1569 N 0.70269 0.60433 0.66261 0.0
C1570 C 0.68996 0.58943 0.64572 0.0
C1571 C 0.66453 0.56188 0.64811 0.0
C1572 C 0.32183 0.60974 0.13636 0.0
C1573 C 0.29841 0.60329 0.12056 0.0
C1574 C 0.34776 0.585 0.14166 0.0
C1575 C 0.35101 0.55279 0.13146 0.0
H1576 H 0.32042 0.63439 0.14453 0.0
H1577 H 0.36562 0.59124 0.15373 0.0
S1578 S 0.29873 0.52425 0.0879 0.0
N1579 N 0.28213 0.5633 0.09379 0.0
N1580 N 0.33002 0.51615 0.10438 0.0
C1581 C 0.32782 0.5458 0.1157 0.0
C1582 C 0.30171 0.57125 0.11008 0.0
C1583 C 0.16134 0.55899 0.88815 0.0
C1584 C 0.15068 0.54855 0.86909 0.0
C1585 C 0.18769 0.58472 0.89077 0.0
C1586 C 0.20379 0.60114 0.87439 0.0
H1587 H 0.14883 0.54757 0.90111 0.0
H1588 H 0.19434 0.59285 0.90569 0.0
S1589 S 0.18409 0.58406 0.82145 0.0
N1590 N 0.15749 0.55701 0.83361 0.0
N1591 N 0.20692 0.60553 0.83852 0.0
C1592 C 0.19328 0.59094 0.85527 0.0
C1593 C 0.16676 0.56452 0.85261 0.0
C1594 C 0.19157 0.40898 0.64023 0.0
C1595 C 0.19954 0.39537 0.62139 0.0
C1596 C 0.1654 0.43498 0.64267 0.0
C1597 C 0.14602 0.44773 0.62636 0.0
H1598 H 0.20537 0.39913 0.65318 0.0
H1599 H 0.15939 0.44404 0.65751 0.0
S1600 S 0.15613 0.41941 0.57405 0.0
N1601 N 0.18569 0.39573 0.58627 0.0
N1602 N 0.13642 0.44451 0.59079 0.0
C1603 C 0.15375 0.43417 0.60746 0.0
C1604 C 0.18061 0.40802 0.60498 0.0
C1605 C 0.3316 0.43897 0.36015 0.0
C1606 C 0.35278 0.45 0.37615 0.0
C1607 C 0.30508 0.41339 0.36273 0.0
C1608 C 0.29862 0.39842 0.38142 0.0
H1609 H 0.33647 0.44896 0.34538 0.0
H1610 H 0.2899 0.40484 0.34997 0.0
S1611 S 0.34699 0.41756 0.42792 0.0
N1612 N 0.36569 0.44359 0.41126 0.0
N1613 N 0.3157 0.39561 0.41604 0.0
C1614 C 0.31932 0.40933 0.39754 0.0
C1615 C 0.34652 0.43507 0.39491 0.0
C1616 C 0.09456 -0.00039 0.26203 0.0
C1617 C 0.06452 0.01992 0.26675 0.0
C1618 C 0.09579 0.97942 0.24457 0.0
C1619 C 0.06704 0.97908 0.2314 0.0
H1620 H 0.11733 -0.0004 0.27179 0.0
H1621 H 0.11929 0.96403 0.24134 0.0
S1622 S 0.98143 0.02533 0.23767 0.0
N1623 N 0.00463 0.03661 0.25744 0.0
N1624 N 0.00736 0.99917 0.22447 0.0
C1625 C 0.03675 0.99876 0.23606 0.0
C1626 C 0.03539 0.0191 0.25382 0.0
C1627 C 0.22343 0.78878 0.5014 0.0
C1628 C 0.2247 0.81791 0.51437 0.0
C1629 C 0.24222 0.78897 0.4835 0.0
C1630 C 0.26293 0.81822 0.47812 0.0
H1631 H 0.2082 0.76548 0.50526 0.0
H1632 H 0.24112 0.76588 0.474 0.0
S1633 S 0.27437 0.90127 0.50646 0.0
N1634 N 0.24743 0.87715 0.52024 0.0
N1635 N 0.28356 0.87702 0.48673 0.0
C1636 C 0.26433 0.84753 0.49081 0.0
C1637 C 0.24501 0.84748 0.50895 0.0
C1638 C 0.43837 0.03127 0.74751 0.0
C1639 C 0.43971 0.01397 0.72905 0.0
C1640 C 0.43991 0.01238 0.76535 0.0
C1641 C 0.4402 0.97518 0.76559 0.0
H1642 H 0.43671 0.05981 0.74832 0.0
H1643 H 0.44149 0.02729 0.779 0.0
S1644 S 0.43947 0.91659 0.72143 0.0
N1645 N 0.44222 0.95697 0.71228 0.0
N1646 N 0.43684 0.92164 0.74566 0.0
C1647 C 0.43875 0.95742 0.74727 0.0
C1648 C 0.44027 0.9767 0.72907 0.0
C1649 C 0.21491 0.18556 0.9988 0.0
C1650 C 0.23223 0.18659 0.98034 0.0
C1651 C 0.23385 0.18686 0.01662 0.0
C1652 C 0.27108 0.18654 0.01685 0.0
H1653 H 0.18635 0.18442 0.99962 0.0
H1654 H 0.21898 0.1888 0.03028 0.0
S1655 S 0.32962 0.18469 0.97268 0.0
N1656 N 0.28928 0.18814 0.96354 0.0
N1657 N 0.32455 0.18213 0.99691 0.0
C1658 C 0.28879 0.18467 0.99852 0.0
C1659 C 0.26952 0.18652 0.98033 0.0
C1660 C 0.90533 0.99283 0.74173 0.0
C1661 C 0.93808 0.98218 0.73385 0.0
C1662 C 0.90364 0.01167 0.75964 0.0
C1663 C 0.93469 0.02058 0.76994 0.0
H1664 H 0.88097 0.98623 0.7341 0.0
H1665 H 0.87805 0.01964 0.76536 0.0
S1666 S 0.02669 -0.00056 0.75522 0.0
N1667 N 0.00202 0.98208 0.7375 0.0
N1668 N 0.99884 0.01789 0.77103 0.0
C1669 C 0.96748 0.01029 0.76213 0.0
C1670 C 0.96919 0.99094 0.74407 0.0
C1671 C 0.71691 0.18574 0.49877 0.0
C1672 C 0.73394 0.1861 0.51732 0.0
C1673 C 0.73618 0.18626 0.48105 0.0
C1674 C 0.77336 0.18435 0.48101 0.0
H1675 H 0.68835 0.18556 0.49779 0.0
H1676 H 0.72161 0.18879 0.46733 0.0
S1677 S 0.83107 0.18054 0.52548 0.0
N1678 N 0.79074 0.18572 0.53439 0.0
N1679 N 0.82629 0.17795 0.50123 0.0
C1680 C 0.79069 0.18193 0.49943 0.0
C1681 C 0.77121 0.18471 0.51751 0.0
C1682 C 0.53089 0.00524 0.23961 0.0
C1683 C 0.56226 0.01606 0.23023 0.0
C1684 C 0.53197 0.98563 0.25721 0.0
C1685 C 0.56444 0.97677 0.26605 0.0
H1686 H 0.50542 0.01203 0.23328 0.0
H1687 H 0.50731 0.97758 0.26406 0.0
S1688 S 0.6538 0.99899 0.2473 0.0
N1689 N 0.62651 0.01645 0.23084 0.0
N1690 N 0.62853 0.98 0.26424 0.0
C1691 C 0.59594 0.98749 0.25685 0.0
C1692 C 0.59485 0.00704 0.23879 0.0
C1693 C 0.7343 0.81328 0.02015 0.0
C1694 C 0.77153 0.81345 0.02013 0.0
C1695 C 0.71499 0.81421 0.00243 0.0
C1696 C 0.73194 0.81268 0.98387 0.0
H1697 H 0.71971 0.81181 0.03391 0.0
H1698 H 0.68646 0.81562 0.00342 0.0
S1699 S 0.8292 0.81362 0.97558 0.0
N1700 N 0.82461 0.81703 0.9998 0.0
N1701 N 0.78865 0.81003 0.96675 0.0
C1702 C 0.76924 0.81235 0.98364 0.0
C1703 C 0.78887 0.81468 0.00168 0.0
C1704 C 0.53648 0.50201 0.76252 0.0
C1705 C 0.56749 0.51951 0.76841 0.0
C1706 C 0.5358 0.4818 0.74513 0.0
C1707 C 0.56609 0.47867 0.73315 0.0
H1708 H 0.51267 0.50404 0.7714 0.0
H1709 H 0.51141 0.46868 0.74096 0.0
S1710 S 0.65369 0.51955 0.74237 0.0
N1711 N 0.62899 0.53274 0.7612 0.0
N1712 N 0.62786 0.49453 0.72843 0.0
C1713 C 0.59718 0.49623 0.7389 0.0
C1714 C 0.59786 0.5167 0.75662 0.0
C1715 C 0.73949 0.28595 0.00992 0.0
C1716 C 0.72858 0.31756 0.01901 0.0
C1717 C 0.76036 0.28654 0.99275 0.0
C1718 C 0.77048 0.31877 0.98406 0.0
H1719 H 0.73195 0.26065 0.0162 0.0
H1720 H 0.76846 0.26169 0.98614 0.0
S1721 S 0.74848 0.40862 0.00211 0.0
N1722 N 0.72937 0.38178 0.01823 0.0
N1723 N 0.76819 0.38289 0.98566 0.0
C1724 C 0.7596 0.3505 0.99294 0.0
C1725 C 0.73874 0.3499 0.01055 0.0
C1726 C 0.93625 0.46719 0.25218 0.0
C1727 C 0.93762 0.48464 0.27059 0.0
C1728 C 0.93742 0.48599 0.23433 0.0
C1729 C 0.93736 0.52319 0.23404 0.0
H1730 H 0.93482 0.43865 0.25143 0.0
H1731 H 0.93897 0.47103 0.22069 0.0
S1732 S 0.93651 0.58202 0.27809 0.0
N1733 N 0.93979 0.54172 0.28729 0.0
N1734 N 0.93365 0.57683 0.25388 0.0
C1735 C 0.93594 0.54106 0.25233 0.0
C1736 C 0.93786 0.5219 0.27054 0.0
C1737 C 0.75098 0.65886 0.51447 0.0
C1738 C 0.76195 0.69074 0.52324 0.0
C1739 C 0.73257 0.65894 0.4964 0.0
C1740 C 0.72437 0.69093 0.48684 0.0
H1741 H 0.75728 0.6338 0.52143 0.0
H1742 H 0.72463 0.63397 0.48989 0.0
S1743 S 0.74655 0.78125 0.50408 0.0
N1744 N 0.76308 0.75487 0.52127 0.0
N1745 N 0.72797 0.75504 0.48746 0.0
C1746 C 0.73476 0.72289 0.49563 0.0
C1747 C 0.75372 0.72279 0.51384 0.0
C1748 C 0.40688 0.50279 0.26369 0.0
C1749 C 0.4394 0.51332 0.27188 0.0
C1750 C 0.40568 0.48446 0.24561 0.0
C1751 C 0.437 0.47592 0.23545 0.0
H1752 H 0.38231 0.50935 0.27112 0.0
H1753 H 0.38024 0.47679 0.23957 0.0
S1754 S 0.52858 0.49683 0.25107 0.0
N1755 N 0.50342 0.51361 0.26876 0.0
N1756 N 0.50118 0.47872 0.2349 0.0
C1757 C 0.46959 0.4859 0.24365 0.0
C1758 C 0.47079 0.50474 0.26189 0.0
C1759 C 0.25105 0.65639 0.98507 0.0
C1760 C 0.26599 0.68835 0.97847 0.0
C1761 C 0.23141 0.65509 0.00272 0.0
C1762 C 0.22594 0.68578 0.01404 0.0
H1763 H 0.25504 0.63225 0.9767 0.0
H1764 H 0.22031 0.63007 0.00751 0.0
S1765 S 0.2581 0.77603 0.00263 0.0
N1766 N 0.27314 0.7514 0.98423 0.0
N1767 N 0.23601 0.74891 0.01733 0.0
C1768 C 0.24026 0.71788 0.00744 0.0
C1769 C 0.26037 0.71919 0.98962 0.0
C1770 C 0.03813 0.52213 0.74386 0.0
C1771 C 0.06642 0.5184 0.73044 0.0
C1772 C 0.03772 0.50364 0.76184 0.0
C1773 C 0.06541 0.48062 0.76684 0.0
H1774 H 0.01606 0.53936 0.74039 0.0
H1775 H 0.01545 0.507 0.77179 0.0
S1776 S 0.14543 0.46149 0.73705 0.0
N1777 N 0.123 0.49033 0.72359 0.0
N1778 N 0.12158 0.45466 0.75723 0.0
C1779 C 0.09363 0.47632 0.75357 0.0
C1780 C 0.09426 0.4954 0.73535 0.0
C1781 C 0.23868 0.34317 0.49323 0.0
C1782 C 0.23096 0.31126 0.48348 0.0
C1783 C 0.25769 0.34323 0.5111 0.0
C1784 C 0.26979 0.31141 0.51945 0.0
H1785 H 0.22965 0.36809 0.4871 0.0
H1786 H 0.2633 0.36822 0.51831 0.0
S1787 S 0.25609 0.22108 0.49961 0.0
N1788 N 0.23628 0.24727 0.48343 0.0
N1789 N 0.27259 0.24738 0.51685 0.0
C1790 C 0.26224 0.27943 0.50979 0.0
C1791 C 0.24264 0.27936 0.49179 0.0
C1792 C 0.04172 0.25551 0.28965 0.0
C1793 C 0.02351 0.2231 0.28873 0.0
C1794 C 0.02333 0.28763 0.29045 0.0
C1795 C 0.98604 0.28858 0.2903 0.0
H1796 H 0.07022 0.25612 0.29139 0.0
H1797 H 0.03847 0.31167 0.29263 0.0
S1798 S 0.92647 0.21166 0.28264 0.0
N1799 N 0.96655 0.19434 0.28362 0.0
N1800 N 0.93195 0.25476 0.2852 0.0
C1801 C 0.96776 0.25675 0.2868 0.0
C1802 C 0.98653 0.22396 0.28601 0.0
C1803 C 0.99434 0.71726 0.53965 0.0
C1804 C 0.96139 0.73446 0.54047 0.0
C1805 C 0.02587 0.73667 0.53931 0.0
C1806 C 0.02558 0.77398 0.53983 0.0
H1807 H 0.99605 0.68874 0.54098 0.0
H1808 H 0.05057 0.72219 0.54026 0.0
S1809 S 0.94601 0.83117 0.53592 0.0
N1810 N 0.93016 0.79052 0.53719 0.0
N1811 N 0.9895 0.82706 0.5367 0.0
C1812 C 0.99282 0.79131 0.53788 0.0
C1813 C 0.96067 0.7715 0.53818 0.0
C1814 C 0.53003 0.78317 0.78862 0.0
C1815 C 0.49281 0.78554 0.78827 0.0
C1816 C 0.54713 0.75032 0.78855 0.0
C1817 C 0.52759 0.71868 0.78822 0.0
H1818 H 0.54604 0.80672 0.79047 0.0
H1819 H 0.57559 0.74986 0.79051 0.0
S1820 S 0.4303 0.71064 0.78189 0.0
N1821 N 0.43745 0.75363 0.78357 0.0
N1822 N 0.46966 0.69182 0.78342 0.0
C1823 C 0.49074 0.72079 0.78527 0.0
C1824 C 0.4733 0.75429 0.78528 0.0
C1825 C 0.49244 0.22025 0.03783 0.0
C1826 C 0.46083 0.23974 0.03902 0.0
C1827 C 0.52529 0.23738 0.0375 0.0
C1828 C 0.52769 0.27458 0.03832 0.0
H1829 H 0.49207 0.19164 0.03887 0.0
H1830 H 0.54895 0.22121 0.03816 0.0
S1831 S 0.45224 0.33744 0.03611 0.0
N1832 N 0.43359 0.29796 0.03693 0.0
N1833 N 0.49534 0.33023 0.03631 0.0
C1834 C 0.49618 0.29428 0.03688 0.0
C1835 C 0.4627 0.27681 0.03727 0.0
C1836 C 0.97236 0.74444 0.21309 0.0
C1837 C 0.99067 0.71218 0.21176 0.0
C1838 C 0.99069 0.77664 0.21315 0.0
C1839 C 0.02794 0.77766 0.21188 0.0
H1840 H 0.94372 0.74509 0.21232 0.0
H1841 H 0.97534 0.80084 0.21257 0.0
S1842 S 0.08806 0.70004 0.21402 0.0
N1843 N 0.0479 0.68284 0.21355 0.0
N1844 N 0.08244 0.74337 0.21365 0.0
C1845 C 0.04653 0.7455 0.21332 0.0
C1846 C 0.02783 0.7127 0.21322 0.0
C1847 C 0.49506 0.71776 0.46315 0.0
C1848 C 0.52779 0.7354 0.46269 0.0
C1849 C 0.46324 0.73672 0.46258 0.0
C1850 C 0.46303 0.77397 0.46152 0.0
H1851 H 0.49385 0.68917 0.46224 0.0
H1852 H 0.4388 0.72187 0.46139 0.0
S1853 S 0.54153 0.83258 0.46568 0.0
N1854 N 0.558 0.79212 0.4655 0.0
N1855 N 0.49817 0.82776 0.46427 0.0
C1856 C 0.49541 0.7919 0.46377 0.0
C1857 C 0.52784 0.77257 0.46438 0.0
C1858 C 0.46817 0.24179 0.7113 0.0
C1859 C 0.48709 0.20982 0.7102 0.0
C1860 C 0.48591 0.27429 0.71227 0.0
C1861 C 0.52319 0.27597 0.71223 0.0
H1862 H 0.43963 0.24204 0.70973 0.0
H1863 H 0.47023 0.29826 0.71153 0.0
S1864 S 0.58438 0.19922 0.71504 0.0
N1865 N 0.54462 0.18139 0.7132 0.0
N1866 N 0.57803 0.24244 0.71508 0.0
C1867 C 0.54216 0.24402 0.71374 0.0
C1868 C 0.52407 0.21092 0.71267 0.0
C1869 C 0.00554 0.21941 0.96214 0.0
C1870 C 0.03765 0.23809 0.96114 0.0
C1871 C 0.97313 0.23738 0.96266 0.0
C1872 C 0.9717 0.27466 0.96221 0.0
H1873 H 0.00515 0.19084 0.9608 0.0
H1874 H 0.94908 0.22183 0.96185 0.0
S1875 S 0.04878 0.33537 0.96531 0.0
N1876 N 0.0664 0.29546 0.96397 0.0
N1877 N 0.0055 0.32933 0.96496 0.0
C1878 C 0.00373 0.29345 0.96389 0.0
C1879 C 0.03674 0.27511 0.96331 0.0
C1880 C 0.96999 0.74999 0.71236 0.0
C1881 C 0.9873 0.78291 0.71269 0.0
C1882 C 0.98927 0.71845 0.71111 0.0
C1883 C 0.02655 0.71868 0.71011 0.0
H1884 H 0.94141 0.74855 0.71134 0.0
H1885 H 0.97463 0.69399 0.70935 0.0
S1886 S 0.08432 0.79735 0.71634 0.0
N1887 N 0.04368 0.81343 0.71636 0.0
N1888 N 0.07996 0.7541 0.71388 0.0
C1889 C 0.04413 0.75104 0.71313 0.0
C1890 C 0.02446 0.7832 0.71446 0.0
C1891 C 0.99784 0.28748 0.46226 0.0
C1892 C 0.03012 0.26898 0.46268 0.0
C1893 C 0.96563 0.26937 0.46086 0.0
C1894 C 0.96451 0.23215 0.45992 0.0
H1895 H 0.99742 0.31609 0.46127 0.0
H1896 H 0.94167 0.28481 0.45903 0.0
S1897 S 0.04104 0.17151 0.46598 0.0
N1898 N 0.05858 0.21152 0.46621 0.0
N1899 N 0.99796 0.17746 0.46351 0.0
C1900 C 0.99618 0.21337 0.46298 0.0
C1901 C 0.02905 0.23184 0.46437 0.0
C1902 C 0.5141 0.27898 0.21215 0.0
C1903 C 0.47678 0.27932 0.21228 0.0
C1904 C 0.53297 0.24713 0.21232 0.0
C1905 C 0.51516 0.2145 0.21262 0.0
H1906 H 0.5289 0.30333 0.21033 0.0
H1907 H 0.56143 0.2482 0.21041 0.0
S1908 S 0.41848 0.20119 0.21903 0.0
N1909 N 0.42325 0.2445 0.21713 0.0
N1910 N 0.45881 0.18455 0.21754 0.0
C1911 C 0.47825 0.21462 0.21554 0.0
C1912 C 0.459 0.2471 0.21537 0.0
C1913 C 0.5016 0.78319 0.96266 0.0
C1914 C 0.53382 0.76459 0.96244 0.0
C1915 C 0.46923 0.76519 0.96199 0.0
C1916 C 0.46792 0.72794 0.96111 0.0
H1917 H 0.50127 0.8118 0.96163 0.0
H1918 H 0.44524 0.78072 0.96064 0.0
S1919 S 0.54469 0.66712 0.96568 0.0
N1920 N 0.56233 0.70708 0.96543 0.0
N1921 N 0.5015 0.67318 0.96413 0.0
C1922 C 0.49977 0.7091 0.96352 0.0
C1923 C 0.53275 0.72747 0.96417 0.0
C1924 C 0.01259 0.21836 0.78792 0.0
C1925 C 0.97535 0.21945 0.78915 0.0
C1926 C 0.03261 0.24947 0.78698 0.0
C1927 C 0.01608 0.28278 0.78723 0.0
H1928 H 0.02664 0.19348 0.78928 0.0
H1929 H 0.06116 0.2473 0.78784 0.0
S1930 S 0.91939 0.29972 0.78426 0.0
N1931 N 0.92274 0.25628 0.78613 0.0
N1932 N 0.9604 0.3148 0.78421 0.0
C1933 C 0.97891 0.28404 0.78561 0.0
C1934 C 0.95849 0.25232 0.78659 0.0
C1935 C 0.53465 0.27277 0.53854 0.0
C1936 C 0.53622 0.23553 0.53812 0.0
C1937 C 0.50218 0.29059 0.53916 0.0
C1938 C 0.47006 0.2718 0.53945 0.0
H1939 H 0.55865 0.28829 0.53987 0.0
H1940 H 0.50249 0.31906 0.54105 0.0
S1941 S 0.45951 0.17471 0.5333 0.0
N1942 N 0.50275 0.18093 0.5341 0.0
N1943 N 0.44168 0.21445 0.53524 0.0
C1944 C 0.4712 0.23491 0.53651 0.0
C1945 C 0.50432 0.21674 0.53583 0.0
C1946 C 0.4861 0.77717 0.28864 0.0
C1947 C 0.52338 0.77789 0.28953 0.0
C1948 C 0.46753 0.74514 0.28863 0.0
C1949 C 0.48557 0.71265 0.2895 0.0
H1950 H 0.47095 0.80148 0.2895 0.0
H1951 H 0.43892 0.74608 0.28964 0.0
S1952 S 0.58287 0.6999 0.28621 0.0
N1953 N 0.57755 0.74325 0.28702 0.0
N1954 N 0.5426 0.68298 0.28688 0.0
C1955 C 0.52272 0.71295 0.28767 0.0
C1956 C 0.54167 0.74562 0.28769 0.0
C1957 C 0.99198 0.78098 0.03745 0.0
C1958 C 0.96024 0.76188 0.03917 0.0
C1959 C 0.02451 0.7634 0.03608 0.0
C1960 C 0.02637 0.72614 0.03636 0.0
H1961 H 0.99211 0.80954 0.03892 0.0
H1962 H 0.04845 0.77918 0.03641 0.0
S1963 S 0.94989 0.6645 0.03508 0.0
N1964 N 0.93193 0.7042 0.03692 0.0
N1965 N 0.99308 0.67106 0.03433 0.0
C1966 C 0.99451 0.70696 0.03538 0.0
C1967 C 0.96138 0.72489 0.03684 0.0
loop_
_geom_bond_atom_site_label_1
_geom_bond_atom_site_label_2
_geom_bond_distance
_geom_bond_site_symmetry_2
_ccdc_geom_bond_type
Co0 O3 1.970 . S
Co0 N17 1.989 . S
Co0 O25 1.967 . S
Co0 O32 1.920 . S
Co1 O4 1.966 . S
Co1 N10 2.022 . S
Co1 N18 1.993 . S
Co1 O26 1.941 . S
C2 O3 1.258 . S
C2 O4 1.263 . S
O3 Co0 1.970 . S
O3 C2 1.258 . S
O4 Co1 1.966 . S
O4 C2 1.263 . S
C5 O6 1.235 . S
C5 O32 1.289 . S
O6 C5 1.235 . S
C7 C9 1.400 1_545 S
C7 N10 1.351 . S
C7 C12 1.501 . S
C8 C9 1.387 . S
C8 N11 1.341 . S
C9 C7 1.400 1_565 S
C9 C8 1.387 . S
N10 Co1 2.022 . S
N10 C7 1.351 . S
N10 N11 1.365 1_545 S
N11 C8 1.341 . S
N11 N10 1.365 1_565 S
N11 H31 0.862 . S
C12 C7 1.501 . S
C12 H13 0.961 . S
C12 H14 0.961 . S
C12 H15 0.960 . S
H13 C12 0.961 . S
H14 C12 0.961 . S
H15 C12 0.960 . S
C16 N17 1.342 . S
C16 C20 1.401 . S
C16 C21 1.499 . S
N17 Co0 1.989 . S
N17 C16 1.342 . S
N17 N18 1.388 . S
N18 Co1 1.993 . S
N18 N17 1.388 . S
N18 C19 1.346 . S
C19 N18 1.346 . S
C19 C20 1.396 . S
C19 C29 1.510 . S
C20 C16 1.401 . S
C20 C19 1.396 . S
C21 C16 1.499 . S
C21 H22 0.959 . S
C21 H23 0.960 . S
C21 H24 0.961 . S
H22 C21 0.959 . S
H23 C21 0.960 . S
H24 C21 0.961 . S
O25 Co0 1.967 . S
O25 C33 1.258 . S
O26 Co1 1.941 . S
O26 C33 1.266 . S
H27 C29 0.959 1_565 S
H28 C29 0.961 . S
C29 C19 1.510 . S
C29 H27 0.959 1_545 S
C29 H28 0.961 . S
C29 H30 0.960 . S
H30 C29 0.960 . S
H31 N11 0.862 . S
O32 Co0 1.920 . S
O32 C5 1.289 . S
C33 O25 1.258 . S
C33 O26 1.266 . S
Co34 O37 1.970 . S
Co34 N51 1.989 . S
Co34 O59 1.967 . S
Co34 O66 1.920 . S
Co35 O38 1.966 . S
Co35 N44 2.022 . S
Co35 N52 1.993 . S
Co35 O60 1.941 . S
C36 O37 1.258 . S
C36 O38 1.263 . S
O37 Co34 1.970 . S
O37 C36 1.258 . S
O38 Co35 1.966 . S
O38 C36 1.263 . S
C39 O40 1.235 . S
C39 O66 1.289 . S
O40 C39 1.235 . S
C41 C43 1.400 . S
C41 N44 1.351 . S
C41 C46 1.501 . S
C42 C43 1.387 . S
C42 N45 1.341 . S
C43 C41 1.400 . S
C43 C42 1.387 . S
N44 Co35 2.022 . S
N44 C41 1.351 . S
N44 N45 1.365 . S
N45 C42 1.341 . S
N45 N44 1.365 . S
N45 H65 0.862 . S
C46 C41 1.501 . S
C46 H47 0.961 . S
C46 H48 0.961 . S
C46 H49 0.960 . S
H47 C46 0.961 . S
H48 C46 0.961 . S
H49 C46 0.960 . S
C50 N51 1.342 . S
C50 C54 1.401 . S
C50 C55 1.499 . S
N51 Co34 1.989 . S
N51 C50 1.342 . S
N51 N52 1.388 . S
N52 Co35 1.993 . S
N52 N51 1.388 . S
N52 C53 1.346 . S
C53 N52 1.346 . S
C53 C54 1.396 . S
C53 C63 1.510 . S
C54 C50 1.401 . S
C54 C53 1.396 . S
C55 C50 1.499 . S
C55 H56 0.959 . S
C55 H57 0.960 . S
C55 H58 0.961 . S
H56 C55 0.959 . S
H57 C55 0.960 . S
H58 C55 0.961 . S
O59 Co34 1.967 . S
O59 C67 1.258 . S
O60 Co35 1.941 . S
O60 C67 1.266 . S
H61 C63 0.959 . S
H62 C63 0.961 . S
C63 C53 1.510 . S
C63 H61 0.959 . S
C63 H62 0.961 . S
C63 H64 0.960 . S
H64 C63 0.960 . S
H65 N45 0.862 . S
O66 Co34 1.920 . S
O66 C39 1.289 . S
C67 O59 1.258 . S
C67 O60 1.266 . S
Co68 O71 1.970 . S
Co68 N85 1.989 . S
Co68 O93 1.967 . S
Co68 O100 1.920 . S
Co69 O72 1.966 . S
Co69 N78 2.022 . S
Co69 N86 1.993 . S
Co69 O94 1.941 . S
C70 O71 1.258 . S
C70 O72 1.263 . S
O71 Co68 1.970 . S
O71 C70 1.258 . S
O72 Co69 1.966 . S
O72 C70 1.263 . S
C73 O74 1.235 . S
C73 O100 1.289 . S
O74 C73 1.235 . S
C75 C77 1.400 1_565 S
C75 N78 1.351 . S
C75 C80 1.501 . S
C76 C77 1.387 . S
C76 N79 1.341 . S
C77 C75 1.400 1_545 S
C77 C76 1.387 . S
N78 Co69 2.022 . S
N78 C75 1.351 . S
N78 N79 1.365 1_565 S
N79 C76 1.341 . S
N79 N78 1.365 1_545 S
N79 H99 0.862 . S
C80 C75 1.501 . S
C80 H81 0.961 . S
C80 H82 0.961 . S
C80 H83 0.960 . S
H81 C80 0.961 . S
H82 C80 0.961 . S
H83 C80 0.960 . S
C84 N85 1.342 . S
C84 C88 1.401 . S
C84 C89 1.499 . S
N85 Co68 1.989 . S
N85 C84 1.342 . S
N85 N86 1.388 . S
N86 Co69 1.993 . S
N86 N85 1.388 . S
N86 C87 1.346 . S
C87 N86 1.346 . S
C87 C88 1.396 . S
C87 C97 1.510 . S
C88 C84 1.401 . S
C88 C87 1.396 . S
C89 C84 1.499 . S
C89 H90 0.959 . S
C89 H91 0.960 . S
C89 H92 0.961 . S
H90 C89 0.959 . S
H91 C89 0.960 . S
H92 C89 0.961 . S
O93 Co68 1.967 . S
O93 C101 1.258 . S
O94 Co69 1.941 . S
O94 C101 1.266 . S
H95 C97 0.959 1_545 S
H96 C97 0.961 . S
C97 C87 1.510 . S
C97 H95 0.959 1_565 S
C97 H96 0.961 . S
C97 H98 0.960 . S
H98 C97 0.960 . S
H99 N79 0.862 . S
O100 Co68 1.920 . S
O100 C73 1.289 . S
C101 O93 1.258 . S
C101 O94 1.266 . S
Co102 O105 1.970 . S
Co102 N119 1.989 . S
Co102 O127 1.967 . S
Co102 O134 1.920 . S
Co103 O106 1.966 . S
Co103 N112 2.022 . S
Co103 N120 1.993 . S
Co103 O128 1.941 . S
C104 O105 1.258 . S
C104 O106 1.263 . S
O105 Co102 1.970 . S
O105 C104 1.258 . S
O106 Co103 1.966 . S
O106 C104 1.263 . S
C107 O108 1.235 . S
C107 O134 1.289 . S
O108 C107 1.235 . S
C109 C111 1.400 . S
C109 N112 1.351 . S
C109 C114 1.501 . S
C110 C111 1.387 . S
C110 N113 1.341 . S
C111 C109 1.400 . S
C111 C110 1.387 . S
N112 Co103 2.022 . S
N112 C109 1.351 . S
N112 N113 1.365 . S
N113 C110 1.341 . S
N113 N112 1.365 . S
N113 H133 0.862 . S
C114 C109 1.501 . S
C114 H115 0.961 . S
C114 H116 0.961 . S
C114 H117 0.960 . S
H115 C114 0.961 . S
H116 C114 0.961 . S
H117 C114 0.960 . S
C118 N119 1.342 . S
C118 C122 1.401 . S
C118 C123 1.499 . S
N119 Co102 1.989 . S
N119 C118 1.342 . S
N119 N120 1.388 . S
N120 Co103 1.993 . S
N120 N119 1.388 . S
N120 C121 1.346 . S
C121 N120 1.346 . S
C121 C122 1.396 . S
C121 C131 1.510 . S
C122 C118 1.401 . S
C122 C121 1.396 . S
C123 C118 1.499 . S
C123 H124 0.959 . S
C123 H125 0.960 . S
C123 H126 0.961 . S
H124 C123 0.959 . S
H125 C123 0.960 . S
H126 C123 0.961 . S
O127 Co102 1.967 . S
O127 C135 1.258 . S
O128 Co103 1.941 . S
O128 C135 1.266 . S
H129 C131 0.959 . S
H130 C131 0.961 . S
C131 C121 1.510 . S
C131 H129 0.959 . S
C131 H130 0.961 . S
C131 H132 0.960 . S
H132 C131 0.960 . S
H133 N113 0.862 . S
O134 Co102 1.920 . S
O134 C107 1.289 . S
C135 O127 1.258 . S
C135 O128 1.266 . S
Co136 O139 1.970 . S
Co136 N153 1.989 . S
Co136 O161 1.967 . S
Co136 O168 1.920 . S
Co137 O140 1.966 . S
Co137 N146 2.022 . S
Co137 N154 1.993 . S
Co137 O162 1.941 . S
C138 O139 1.258 . S
C138 O140 1.263 . S
O139 Co136 1.970 . S
O139 C138 1.258 . S
O140 Co137 1.966 . S
O140 C138 1.263 . S
C141 O142 1.235 . S
C141 O168 1.289 . S
O142 C141 1.235 . S
C143 C145 1.400 1_565 S
C143 N146 1.351 . S
C143 C148 1.501 . S
C144 C145 1.387 . S
C144 N147 1.341 . S
C145 C143 1.400 1_545 S
C145 C144 1.387 . S
N146 Co137 2.022 . S
N146 C143 1.351 . S
N146 N147 1.365 1_565 S
N147 C144 1.341 . S
N147 N146 1.365 1_545 S
N147 H167 0.862 . S
C148 C143 1.501 . S
C148 H149 0.961 . S
C148 H150 0.961 . S
C148 H151 0.960 . S
H149 C148 0.961 . S
H150 C148 0.961 . S
H151 C148 0.960 . S
C152 N153 1.342 . S
C152 C156 1.401 . S
C152 C157 1.499 . S
N153 Co136 1.989 . S
N153 C152 1.342 . S
N153 N154 1.388 . S
N154 Co137 1.993 . S
N154 N153 1.388 . S
N154 C155 1.346 . S
C155 N154 1.346 . S
C155 C156 1.396 . S
C155 C165 1.510 . S
C156 C152 1.401 . S
C156 C155 1.396 . S
C157 C152 1.499 . S
C157 H158 0.959 . S
C157 H159 0.960 . S
C157 H160 0.961 . S
H158 C157 0.959 . S
H159 C157 0.960 . S
H160 C157 0.961 . S
O161 Co136 1.967 . S
O161 C169 1.258 . S
O162 Co137 1.941 . S
O162 C169 1.266 . S
H163 C165 0.959 1_545 S
H164 C165 0.961 . S
C165 C155 1.510 . S
C165 H163 0.959 1_565 S
C165 H164 0.961 . S
C165 H166 0.960 . S
H166 C165 0.960 . S
H167 N147 0.862 . S
O168 Co136 1.920 . S
O168 C141 1.289 . S
C169 O161 1.258 . S
C169 O162 1.266 . S
Co170 O173 1.970 . S
Co170 N187 1.989 . S
Co170 O195 1.967 . S
Co170 O202 1.920 . S
Co171 O174 1.966 . S
Co171 N180 2.022 . S
Co171 N188 1.993 . S
Co171 O196 1.941 . S
C172 O173 1.258 . S
C172 O174 1.263 . S
O173 Co170 1.970 . S
O173 C172 1.258 . S
O174 Co171 1.966 . S
O174 C172 1.263 . S
C175 O176 1.235 . S
C175 O202 1.289 . S
O176 C175 1.235 . S
C177 C179 1.400 . S
C177 N180 1.351 . S
C177 C182 1.501 . S
C178 C179 1.387 . S
C178 N181 1.341 . S
C179 C177 1.400 . S
C179 C178 1.387 . S
N180 Co171 2.022 . S
N180 C177 1.351 . S
N180 N181 1.365 . S
N181 C178 1.341 . S
N181 N180 1.365 . S
N181 H201 0.862 . S
C182 C177 1.501 . S
C182 H183 0.961 . S
C182 H184 0.961 . S
C182 H185 0.960 . S
H183 C182 0.961 . S
H184 C182 0.961 . S
H185 C182 0.960 . S
C186 N187 1.342 . S
C186 C190 1.401 . S
C186 C191 1.499 . S
N187 Co170 1.989 . S
N187 C186 1.342 . S
N187 N188 1.388 . S
N188 Co171 1.993 . S
N188 N187 1.388 . S
N188 C189 1.346 . S
C189 N188 1.346 . S
C189 C190 1.396 . S
C189 C199 1.510 . S
C190 C186 1.401 . S
C190 C189 1.396 . S
C191 C186 1.499 . S
C191 H192 0.959 . S
C191 H193 0.960 . S
C191 H194 0.961 . S
H192 C191 0.959 . S
H193 C191 0.960 . S
H194 C191 0.961 . S
O195 Co170 1.967 . S
O195 C203 1.258 . S
O196 Co171 1.941 . S
O196 C203 1.266 . S
H197 C199 0.959 . S
H198 C199 0.961 . S
C199 C189 1.510 . S
C199 H197 0.959 . S
C199 H198 0.961 . S
C199 H200 0.960 . S
H200 C199 0.960 . S
H201 N181 0.862 . S
O202 Co170 1.920 . S
O202 C175 1.289 . S
C203 O195 1.258 . S
C203 O196 1.266 . S
Co204 O207 1.970 . S
Co204 N221 1.989 . S
Co204 O229 1.967 . S
Co204 O236 1.920 . S
Co205 O208 1.966 . S
Co205 N214 2.022 . S
Co205 N222 1.993 . S
Co205 O230 1.941 . S
C206 O207 1.258 . S
C206 O208 1.263 . S
O207 Co204 1.970 . S
O207 C206 1.258 . S
O208 Co205 1.966 . S
O208 C206 1.263 . S
C209 O210 1.235 . S
C209 O236 1.289 . S
O210 C209 1.235 . S
C211 C213 1.400 1_545 S
C211 N214 1.351 . S
C211 C216 1.501 . S
C212 C213 1.387 . S
C212 N215 1.341 . S
C213 C211 1.400 1_565 S
C213 C212 1.387 . S
N214 Co205 2.022 . S
N214 C211 1.351 . S
N214 N215 1.365 1_545 S
N215 C212 1.341 . S
N215 N214 1.365 1_565 S
N215 H235 0.862 . S
C216 C211 1.501 . S
C216 H217 0.961 . S
C216 H218 0.961 . S
C216 H219 0.960 . S
H217 C216 0.961 . S
H218 C216 0.961 . S
H219 C216 0.960 . S
C220 N221 1.342 . S
C220 C224 1.401 . S
C220 C225 1.499 . S
N221 Co204 1.989 . S
N221 C220 1.342 . S
N221 N222 1.388 . S
N222 Co205 1.993 . S
N222 N221 1.388 . S
N222 C223 1.346 . S
C223 N222 1.346 . S
C223 C224 1.396 . S
C223 C233 1.510 . S
C224 C220 1.401 . S
C224 C223 1.396 . S
C225 C220 1.499 . S
C225 H226 0.959 . S
C225 H227 0.960 . S
C225 H228 0.961 . S
H226 C225 0.959 . S
H227 C225 0.960 . S
H228 C225 0.961 . S
O229 Co204 1.967 . S
O229 C237 1.258 . S
O230 Co205 1.941 . S
O230 C237 1.266 . S
H231 C233 0.959 1_565 S
H232 C233 0.961 . S
C233 C223 1.510 . S
C233 H231 0.959 1_545 S
C233 H232 0.961 . S
C233 H234 0.960 . S
H234 C233 0.960 . S
H235 N215 0.862 . S
O236 Co204 1.920 . S
O236 C209 1.289 . S
C237 O229 1.258 . S
C237 O230 1.266 . S
Co238 O241 1.970 . S
Co238 N255 1.989 . S
Co238 O263 1.967 . S
Co238 O270 1.920 . S
Co239 O242 1.966 . S
Co239 N248 2.022 . S
Co239 N256 1.993 . S
Co239 O264 1.941 . S
C240 O241 1.258 . S
C240 O242 1.263 . S
O241 Co238 1.970 . S
O241 C240 1.258 . S
O242 Co239 1.966 . S
O242 C240 1.263 . S
C243 O244 1.235 . S
C243 O270 1.289 . S
O244 C243 1.235 . S
C245 C247 1.400 . S
C245 N248 1.351 . S
C245 C250 1.501 . S
C246 C247 1.387 . S
C246 N249 1.341 . S
C247 C245 1.400 . S
C247 C246 1.387 . S
N248 Co239 2.022 . S
N248 C245 1.351 . S
N248 N249 1.365 . S
N249 C246 1.341 . S
N249 N248 1.365 . S
N249 H269 0.862 . S
C250 C245 1.501 . S
C250 H251 0.961 . S
C250 H252 0.961 . S
C250 H253 0.960 . S
H251 C250 0.961 . S
H252 C250 0.961 . S
H253 C250 0.960 . S
C254 N255 1.342 . S
C254 C258 1.401 . S
C254 C259 1.499 . S
N255 Co238 1.989 . S
N255 C254 1.342 . S
N255 N256 1.388 . S
N256 Co239 1.993 . S
N256 N255 1.388 . S
N256 C257 1.346 . S
C257 N256 1.346 . S
C257 C258 1.396 . S
C257 C267 1.510 . S
C258 C254 1.401 . S
C258 C257 1.396 . S
C259 C254 1.499 . S
C259 H260 0.959 . S
C259 H261 0.960 . S
C259 H262 0.961 . S
H260 C259 0.959 . S
H261 C259 0.960 . S
H262 C259 0.961 . S
O263 Co238 1.967 . S
O263 C271 1.258 . S
O264 Co239 1.941 . S
O264 C271 1.266 . S
H265 C267 0.959 . S
H266 C267 0.961 . S
C267 C257 1.510 . S
C267 H265 0.959 . S
C267 H266 0.961 . S
C267 H268 0.960 . S
H268 C267 0.960 . S
H269 N249 0.862 . S
O270 Co238 1.920 . S
O270 C243 1.289 . S
C271 O263 1.258 . S
C271 O264 1.266 . S
Co272 O275 1.970 . S
Co272 N289 1.989 . S
Co272 O297 1.967 . S
Co272 O304 1.920 . S
Co273 O276 1.966 . S
Co273 N282 2.022 . S
Co273 N290 1.993 . S
Co273 O298 1.941 . S
C274 O275 1.258 . S
C274 O276 1.263 . S
O275 Co272 1.970 . S
O275 C274 1.258 . S
O276 Co273 1.966 . S
O276 C274 1.263 . S
C277 O278 1.235 . S
C277 O304 1.289 . S
O278 C277 1.235 . S
C279 C281 1.400 1_565 S
C279 N282 1.351 . S
C279 C284 1.501 . S
C280 C281 1.387 . S
C280 N283 1.341 . S
C281 C279 1.400 1_545 S
C281 C280 1.387 . S
N282 Co273 2.022 . S
N282 C279 1.351 . S
N282 N283 1.365 1_565 S
N283 C280 1.341 . S
N283 N282 1.365 1_545 S
N283 H303 0.862 . S
C284 C279 1.501 . S
C284 H285 0.961 . S
C284 H286 0.961 . S
C284 H287 0.960 . S
H285 C284 0.961 . S
H286 C284 0.961 . S
H287 C284 0.960 . S
C288 N289 1.342 . S
C288 C292 1.401 . S
C288 C293 1.499 . S
N289 Co272 1.989 . S
N289 C288 1.342 . S
N289 N290 1.388 . S
N290 Co273 1.993 . S
N290 N289 1.388 . S
N290 C291 1.346 . S
C291 N290 1.346 . S
C291 C292 1.396 . S
C291 C301 1.510 . S
C292 C288 1.401 . S
C292 C291 1.396 . S
C293 C288 1.499 . S
C293 H294 0.959 . S
C293 H295 0.960 . S
C293 H296 0.961 . S
H294 C293 0.959 . S
H295 C293 0.960 . S
H296 C293 0.961 . S
O297 Co272 1.967 . S
O297 C305 1.258 . S
O298 Co273 1.941 . S
O298 C305 1.266 . S
H299 C301 0.959 1_545 S
H300 C301 0.961 . S
C301 C291 1.510 . S
C301 H299 0.959 1_565 S
C301 H300 0.961 . S
C301 H302 0.960 . S
H302 C301 0.960 . S
H303 N283 0.862 . S
O304 Co272 1.920 . S
O304 C277 1.289 . S
C305 O297 1.258 . S
C305 O298 1.266 . S
Co306 O309 1.970 . S
Co306 N323 1.989 . S
Co306 O331 1.967 . S
Co306 O338 1.920 . S
Co307 O310 1.966 . S
Co307 N316 2.022 . S
Co307 N324 1.993 . S
Co307 O332 1.941 . S
C308 O309 1.258 . S
C308 O310 1.263 . S
O309 Co306 1.970 . S
O309 C308 1.258 . S
O310 Co307 1.966 . S
O310 C308 1.263 . S
C311 O312 1.235 . S
C311 O338 1.289 . S
O312 C311 1.235 . S
C313 C315 1.400 . S
C313 N316 1.351 . S
C313 C318 1.501 . S
C314 C315 1.387 . S
C314 N317 1.341 . S
C315 C313 1.400 . S
C315 C314 1.387 . S
N316 Co307 2.022 . S
N316 C313 1.351 . S
N316 N317 1.365 . S
N317 C314 1.341 . S
N317 N316 1.365 . S
N317 H337 0.862 . S
C318 C313 1.501 . S
C318 H319 0.961 . S
C318 H320 0.961 . S
C318 H321 0.960 . S
H319 C318 0.961 . S
H320 C318 0.961 . S
H321 C318 0.960 . S
C322 N323 1.342 . S
C322 C326 1.401 . S
C322 C327 1.499 . S
N323 Co306 1.989 . S
N323 C322 1.342 . S
N323 N324 1.388 . S
N324 Co307 1.993 . S
N324 N323 1.388 . S
N324 C325 1.346 . S
C325 N324 1.346 . S
C325 C326 1.396 . S
C325 C335 1.510 . S
C326 C322 1.401 . S
C326 C325 1.396 . S
C327 C322 1.499 . S
C327 H328 0.959 . S
C327 H329 0.960 . S
C327 H330 0.961 . S
H328 C327 0.959 . S
H329 C327 0.960 . S
H330 C327 0.961 . S
O331 Co306 1.967 . S
O331 C339 1.258 . S
O332 Co307 1.941 . S
O332 C339 1.266 . S
H333 C335 0.959 . S
H334 C335 0.961 . S
C335 C325 1.510 . S
C335 H333 0.959 . S
C335 H334 0.961 . S
C335 H336 0.960 . S
H336 C335 0.960 . S
H337 N317 0.862 . S
O338 Co306 1.920 . S
O338 C311 1.289 . S
C339 O331 1.258 . S
C339 O332 1.266 . S
Co340 O343 1.970 . S
Co340 N357 1.989 . S
Co340 O365 1.967 . S
Co340 O372 1.920 . S
Co341 O344 1.966 . S
Co341 N350 2.022 . S
Co341 N358 1.993 . S
Co341 O366 1.941 . S
C342 O343 1.258 . S
C342 O344 1.263 . S
O343 Co340 1.970 . S
O343 C342 1.258 . S
O344 Co341 1.966 . S
O344 C342 1.263 . S
C345 O346 1.235 . S
C345 O372 1.289 . S
O346 C345 1.235 . S
C347 C349 1.400 1_545 S
C347 N350 1.351 . S
C347 C352 1.501 . S
C348 C349 1.387 . S
C348 N351 1.341 . S
C349 C347 1.400 1_565 S
C349 C348 1.387 . S
N350 Co341 2.022 . S
N350 C347 1.351 . S
N350 N351 1.365 1_545 S
N351 C348 1.341 . S
N351 N350 1.365 1_565 S
N351 H371 0.862 . S
C352 C347 1.501 . S
C352 H353 0.961 . S
C352 H354 0.961 . S
C352 H355 0.960 . S
H353 C352 0.961 . S
H354 C352 0.961 . S
H355 C352 0.960 . S
C356 N357 1.342 . S
C356 C360 1.401 . S
C356 C361 1.499 . S
N357 Co340 1.989 . S
N357 C356 1.342 . S
N357 N358 1.388 . S
N358 Co341 1.993 . S
N358 N357 1.388 . S
N358 C359 1.346 . S
C359 N358 1.346 . S
C359 C360 1.396 . S
C359 C369 1.510 . S
C360 C356 1.401 . S
C360 C359 1.396 . S
C361 C356 1.499 . S
C361 H362 0.959 . S
C361 H363 0.960 . S
C361 H364 0.961 . S
H362 C361 0.959 . S
H363 C361 0.960 . S
H364 C361 0.961 . S
O365 Co340 1.967 . S
O365 C373 1.258 . S
O366 Co341 1.941 . S
O366 C373 1.266 . S
H367 C369 0.959 1_565 S
H368 C369 0.961 . S
C369 C359 1.510 . S
C369 H367 0.959 1_545 S
C369 H368 0.961 . S
C369 H370 0.960 . S
H370 C369 0.960 . S
H371 N351 0.862 . S
O372 Co340 1.920 . S
O372 C345 1.289 . S
C373 O365 1.258 . S
C373 O366 1.266 . S
Co374 O377 1.970 . S
Co374 N391 1.989 . S
Co374 O399 1.967 . S
Co374 O406 1.920 . S
Co375 O378 1.966 . S
Co375 N384 2.022 . S
Co375 N392 1.993 . S
Co375 O400 1.941 . S
C376 O377 1.258 . S
C376 O378 1.263 . S
O377 Co374 1.970 . S
O377 C376 1.258 . S
O378 Co375 1.966 . S
O378 C376 1.263 . S
C379 O380 1.235 . S
C379 O406 1.289 . S
O380 C379 1.235 . S
C381 C383 1.400 . S
C381 N384 1.351 . S
C381 C386 1.501 . S
C382 C383 1.387 . S
C382 N385 1.341 . S
C383 C381 1.400 . S
C383 C382 1.387 . S
N384 Co375 2.022 . S
N384 C381 1.351 . S
N384 N385 1.365 . S
N385 C382 1.341 . S
N385 N384 1.365 . S
N385 H405 0.862 . S
C386 C381 1.501 . S
C386 H387 0.961 . S
C386 H388 0.961 . S
C386 H389 0.960 . S
H387 C386 0.961 . S
H388 C386 0.961 . S
H389 C386 0.960 . S
C390 N391 1.342 . S
C390 C394 1.401 . S
C390 C395 1.499 . S
N391 Co374 1.989 . S
N391 C390 1.342 . S
N391 N392 1.388 . S
N392 Co375 1.993 . S
N392 N391 1.388 . S
N392 C393 1.346 . S
C393 N392 1.346 . S
C393 C394 1.396 . S
C393 C403 1.510 . S
C394 C390 1.401 . S
C394 C393 1.396 . S
C395 C390 1.499 . S
C395 H396 0.959 . S
C395 H397 0.960 . S
C395 H398 0.961 . S
H396 C395 0.959 . S
H397 C395 0.960 . S
H398 C395 0.961 . S
O399 Co374 1.967 . S
O399 C407 1.258 . S
O400 Co375 1.941 . S
O400 C407 1.266 . S
H401 C403 0.959 . S
H402 C403 0.961 . S
C403 C393 1.510 . S
C403 H401 0.959 . S
C403 H402 0.961 . S
C403 H404 0.960 . S
H404 C403 0.960 . S
H405 N385 0.862 . S
O406 Co374 1.920 . S
O406 C379 1.289 . S
C407 O399 1.258 . S
C407 O400 1.266 . S
Co408 O411 1.970 . S
Co408 N425 1.989 . S
Co408 O433 1.967 . S
Co408 O440 1.920 . S
Co409 O412 1.966 . S
Co409 N418 2.022 . S
Co409 N426 1.993 . S
Co409 O434 1.941 . S
C410 O411 1.258 . S
C410 O412 1.263 . S
O411 Co408 1.970 . S
O411 C410 1.258 . S
O412 Co409 1.966 . S
O412 C410 1.263 . S
C413 O414 1.235 . S
C413 O440 1.289 . S
O414 C413 1.235 . S
C415 C417 1.400 1_545 S
C415 N418 1.351 . S
C415 C420 1.501 . S
C416 C417 1.387 . S
C416 N419 1.341 . S
C417 C415 1.400 1_565 S
C417 C416 1.387 . S
N418 Co409 2.022 . S
N418 C415 1.351 . S
N418 N419 1.365 1_545 S
N419 C416 1.341 . S
N419 N418 1.365 1_565 S
N419 H439 0.862 . S
C420 C415 1.501 . S
C420 H421 0.961 . S
C420 H422 0.961 . S
C420 H423 0.960 . S
H421 C420 0.961 . S
H422 C420 0.961 . S
H423 C420 0.960 . S
C424 N425 1.342 . S
C424 C428 1.401 . S
C424 C429 1.499 . S
N425 Co408 1.989 . S
N425 C424 1.342 . S
N425 N426 1.388 . S
N426 Co409 1.993 . S
N426 N425 1.388 . S
N426 C427 1.346 . S
C427 N426 1.346 . S
C427 C428 1.396 . S
C427 C437 1.510 . S
C428 C424 1.401 . S
C428 C427 1.396 . S
C429 C424 1.499 . S
C429 H430 0.959 . S
C429 H431 0.960 . S
C429 H432 0.961 . S
H430 C429 0.959 . S
H431 C429 0.960 . S
H432 C429 0.961 . S
O433 Co408 1.967 . S
O433 C441 1.258 . S
O434 Co409 1.941 . S
O434 C441 1.266 . S
H435 C437 0.959 1_565 S
H436 C437 0.961 . S
C437 C427 1.510 . S
C437 H435 0.959 1_545 S
C437 H436 0.961 . S
C437 H438 0.960 . S
H438 C437 0.960 . S
H439 N419 0.862 . S
O440 Co408 1.920 . S
O440 C413 1.289 . S
C441 O433 1.258 . S
C441 O434 1.266 . S
Co442 O445 1.970 . S
Co442 N459 1.989 . S
Co442 O467 1.967 . S
Co442 O474 1.920 . S
Co443 O446 1.966 . S
Co443 N452 2.022 . S
Co443 N460 1.993 . S
Co443 O468 1.941 . S
C444 O445 1.258 . S
C444 O446 1.263 . S
O445 Co442 1.970 . S
O445 C444 1.258 . S
O446 Co443 1.966 . S
O446 C444 1.263 . S
C447 O448 1.235 . S
C447 O474 1.289 . S
O448 C447 1.235 . S
C449 C451 1.400 . S
C449 N452 1.351 . S
C449 C454 1.501 . S
C450 C451 1.387 . S
C450 N453 1.341 . S
C451 C449 1.400 . S
C451 C450 1.387 . S
N452 Co443 2.022 . S
N452 C449 1.351 . S
N452 N453 1.365 . S
N453 C450 1.341 . S
N453 N452 1.365 . S
N453 H473 0.862 . S
C454 C449 1.501 . S
C454 H455 0.961 . S
C454 H456 0.961 . S
C454 H457 0.960 . S
H455 C454 0.961 . S
H456 C454 0.961 . S
H457 C454 0.960 . S
C458 N459 1.342 . S
C458 C462 1.401 . S
C458 C463 1.499 . S
N459 Co442 1.989 . S
N459 C458 1.342 . S
N459 N460 1.388 . S
N460 Co443 1.993 . S
N460 N459 1.388 . S
N460 C461 1.346 . S
C461 N460 1.346 . S
C461 C462 1.396 . S
C461 C471 1.510 . S
C462 C458 1.401 . S
C462 C461 1.396 . S
C463 C458 1.499 . S
C463 H464 0.959 . S
C463 H465 0.960 . S
C463 H466 0.961 . S
H464 C463 0.959 . S
H465 C463 0.960 . S
H466 C463 0.961 . S
O467 Co442 1.967 . S
O467 C475 1.258 . S
O468 Co443 1.941 . S
O468 C475 1.266 . S
H469 C471 0.959 . S
H470 C471 0.961 . S
C471 C461 1.510 . S
C471 H469 0.959 . S
C471 H470 0.961 . S
C471 H472 0.960 . S
H472 C471 0.960 . S
H473 N453 0.862 . S
O474 Co442 1.920 . S
O474 C447 1.289 . S
C475 O467 1.258 . S
C475 O468 1.266 . S
Co476 O479 1.970 . S
Co476 N493 1.989 . S
Co476 O501 1.967 . S
Co476 O508 1.920 . S
Co477 O480 1.966 . S
Co477 N486 2.022 . S
Co477 N494 1.993 . S
Co477 O502 1.941 . S
C478 O479 1.258 . S
C478 O480 1.263 . S
O479 Co476 1.970 . S
O479 C478 1.258 . S
O480 Co477 1.966 . S
O480 C478 1.263 . S
C481 O482 1.235 . S
C481 O508 1.289 . S
O482 C481 1.235 . S
C483 C485 1.400 1_565 S
C483 N486 1.351 . S
C483 C488 1.501 . S
C484 C485 1.387 . S
C484 N487 1.341 . S
C485 C483 1.400 1_545 S
C485 C484 1.387 . S
N486 Co477 2.022 . S
N486 C483 1.351 . S
N486 N487 1.365 1_565 S
N487 C484 1.341 . S
N487 N486 1.365 1_545 S
N487 H507 0.862 . S
C488 C483 1.501 . S
C488 H489 0.961 . S
C488 H490 0.961 . S
C488 H491 0.960 . S
H489 C488 0.961 . S
H490 C488 0.961 . S
H491 C488 0.960 . S
C492 N493 1.342 . S
C492 C496 1.401 . S
C492 C497 1.499 . S
N493 Co476 1.989 . S
N493 C492 1.342 . S
N493 N494 1.388 . S
N494 Co477 1.993 . S
N494 N493 1.388 . S
N494 C495 1.346 . S
C495 N494 1.346 . S
C495 C496 1.396 . S
C495 C505 1.510 . S
C496 C492 1.401 . S
C496 C495 1.396 . S
C497 C492 1.499 . S
C497 H498 0.959 . S
C497 H499 0.960 . S
C497 H500 0.961 . S
H498 C497 0.959 . S
H499 C497 0.960 . S
H500 C497 0.961 . S
O501 Co476 1.967 . S
O501 C509 1.258 . S
O502 Co477 1.941 . S
O502 C509 1.266 . S
H503 C505 0.959 1_545 S
H504 C505 0.961 . S
C505 C495 1.510 . S
C505 H503 0.959 1_565 S
C505 H504 0.961 . S
C505 H506 0.960 . S
H506 C505 0.960 . S
H507 N487 0.862 . S
O508 Co476 1.920 . S
O508 C481 1.289 . S
C509 O501 1.258 . S
C509 O502 1.266 . S
Co510 O513 1.970 . S
Co510 N527 1.989 . S
Co510 O535 1.967 . S
Co510 O542 1.920 . S
Co511 O514 1.966 . S
Co511 N520 2.022 . S
Co511 N528 1.993 . S
Co511 O536 1.941 . S
C512 O513 1.258 . S
C512 O514 1.263 . S
O513 Co510 1.970 . S
O513 C512 1.258 . S
O514 Co511 1.966 . S
O514 C512 1.263 . S
C515 O516 1.235 . S
C515 O542 1.289 . S
O516 C515 1.235 . S
C517 C519 1.400 . S
C517 N520 1.351 . S
C517 C522 1.501 . S
C518 C519 1.387 . S
C518 N521 1.341 . S
C519 C517 1.400 . S
C519 C518 1.387 . S
N520 Co511 2.022 . S
N520 C517 1.351 . S
N520 N521 1.365 . S
N521 C518 1.341 . S
N521 N520 1.365 . S
N521 H541 0.862 . S
C522 C517 1.501 . S
C522 H523 0.961 . S
C522 H524 0.961 . S
C522 H525 0.960 . S
H523 C522 0.961 . S
H524 C522 0.961 . S
H525 C522 0.960 . S
C526 N527 1.342 . S
C526 C530 1.401 . S
C526 C531 1.499 . S
N527 Co510 1.989 . S
N527 C526 1.342 . S
N527 N528 1.388 . S
N528 Co511 1.993 . S
N528 N527 1.388 . S
N528 C529 1.346 . S
C529 N528 1.346 . S
C529 C530 1.396 . S
C529 C539 1.510 . S
C530 C526 1.401 . S
C530 C529 1.396 . S
C531 C526 1.499 . S
C531 H532 0.959 . S
C531 H533 0.960 . S
C531 H534 0.961 . S
H532 C531 0.959 . S
H533 C531 0.960 . S
H534 C531 0.961 . S
O535 Co510 1.967 . S
O535 C543 1.258 . S
O536 Co511 1.941 . S
O536 C543 1.266 . S
H537 C539 0.959 . S
H538 C539 0.961 . S
C539 C529 1.510 . S
C539 H537 0.959 . S
C539 H538 0.961 . S
C539 H540 0.960 . S
H540 C539 0.960 . S
H541 N521 0.862 . S
O542 Co510 1.920 . S
O542 C515 1.289 . S
C543 O535 1.258 . S
C543 O536 1.266 . S
Co544 O547 1.970 . S
Co544 N561 1.989 . S
Co544 O569 1.967 . S
Co544 O576 1.920 . S
Co545 O548 1.966 . S
Co545 N554 2.022 . S
Co545 N562 1.993 . S
Co545 O570 1.941 . S
C546 O547 1.258 . S
C546 O548 1.263 . S
O547 Co544 1.970 . S
O547 C546 1.258 . S
O548 Co545 1.966 . S
O548 C546 1.263 . S
C549 O550 1.235 . S
C549 O576 1.289 . S
O550 C549 1.235 . S
C551 C553 1.400 . S
C551 N554 1.351 . S
C551 C556 1.501 . S
C552 C553 1.387 . S
C552 N555 1.341 . S
C553 C551 1.400 . S
C553 C552 1.387 . S
N554 Co545 2.022 . S
N554 C551 1.351 . S
N554 N555 1.365 . S
N555 C552 1.341 . S
N555 N554 1.365 . S
N555 H575 0.862 . S
C556 C551 1.501 . S
C556 H557 0.961 . S
C556 H558 0.961 . S
C556 H559 0.960 . S
H557 C556 0.961 . S
H558 C556 0.961 . S
H559 C556 0.960 . S
C560 N561 1.342 . S
C560 C564 1.401 . S
C560 C565 1.499 . S
N561 Co544 1.989 . S
N561 C560 1.342 . S
N561 N562 1.388 . S
N562 Co545 1.993 . S
N562 N561 1.388 . S
N562 C563 1.346 . S
C563 N562 1.346 . S
C563 C564 1.396 . S
C563 C573 1.510 . S
C564 C560 1.401 . S
C564 C563 1.396 . S
C565 C560 1.499 . S
C565 H566 0.959 . S
C565 H567 0.960 . S
C565 H568 0.961 . S
H566 C565 0.959 . S
H567 C565 0.960 . S
H568 C565 0.961 . S
O569 Co544 1.967 . S
O569 C577 1.258 . S
O570 Co545 1.941 . S
O570 C577 1.266 . S
H571 C573 0.959 . S
H572 C573 0.961 . S
C573 C563 1.510 . S
C573 H571 0.959 . S
C573 H572 0.961 . S
C573 H574 0.960 . S
H574 C573 0.960 . S
H575 N555 0.862 . S
O576 Co544 1.920 . S
O576 C549 1.289 . S
C577 O569 1.258 . S
C577 O570 1.266 . S
Co578 O581 1.970 . S
Co578 N595 1.989 . S
Co578 O603 1.967 . S
Co578 O610 1.920 . S
Co579 O582 1.966 . S
Co579 N588 2.022 . S
Co579 N596 1.993 . S
Co579 O604 1.941 . S
C580 O581 1.258 . S
C580 O582 1.263 . S
O581 Co578 1.970 . S
O581 C580 1.258 . S
O582 Co579 1.966 . S
O582 C580 1.263 . S
C583 O584 1.235 . S
C583 O610 1.289 . S
O584 C583 1.235 . S
C585 C587 1.400 . S
C585 N588 1.351 . S
C585 C590 1.501 . S
C586 C587 1.387 . S
C586 N589 1.341 . S
C587 C585 1.400 . S
C587 C586 1.387 . S
N588 Co579 2.022 . S
N588 C585 1.351 . S
N588 N589 1.365 . S
N589 C586 1.341 . S
N589 N588 1.365 . S
N589 H609 0.862 . S
C590 C585 1.501 . S
C590 H591 0.961 . S
C590 H592 0.961 . S
C590 H593 0.960 . S
H591 C590 0.961 . S
H592 C590 0.961 . S
H593 C590 0.960 . S
C594 N595 1.342 . S
C594 C598 1.401 . S
C594 C599 1.499 . S
N595 Co578 1.989 . S
N595 C594 1.342 . S
N595 N596 1.388 . S
N596 Co579 1.993 . S
N596 N595 1.388 . S
N596 C597 1.346 . S
C597 N596 1.346 . S
C597 C598 1.396 . S
C597 C607 1.510 . S
C598 C594 1.401 . S
C598 C597 1.396 . S
C599 C594 1.499 . S
C599 H600 0.959 . S
C599 H601 0.960 . S
C599 H602 0.961 . S
H600 C599 0.959 . S
H601 C599 0.960 . S
H602 C599 0.961 . S
O603 Co578 1.967 . S
O603 C611 1.258 . S
O604 Co579 1.941 . S
O604 C611 1.266 . S
H605 C607 0.959 . S
H606 C607 0.961 . S
C607 C597 1.510 . S
C607 H605 0.959 . S
C607 H606 0.961 . S
C607 H608 0.960 . S
H608 C607 0.960 . S
H609 N589 0.862 . S
O610 Co578 1.920 . S
O610 C583 1.289 . S
C611 O603 1.258 . S
C611 O604 1.266 . S
Co612 O615 1.970 . S
Co612 N629 1.989 . S
Co612 O637 1.967 . S
Co612 O644 1.920 . S
Co613 O616 1.966 . S
Co613 N622 2.022 . S
Co613 N630 1.993 . S
Co613 O638 1.941 . S
C614 O615 1.258 . S
C614 O616 1.263 . S
O615 Co612 1.970 . S
O615 C614 1.258 . S
O616 Co613 1.966 . S
O616 C614 1.263 . S
C617 O618 1.235 . S
C617 O644 1.289 . S
O618 C617 1.235 . S
C619 C621 1.400 . S
C619 N622 1.351 . S
C619 C624 1.501 . S
C620 C621 1.387 . S
C620 N623 1.341 . S
C621 C619 1.400 . S
C621 C620 1.387 . S
N622 Co613 2.022 . S
N622 C619 1.351 . S
N622 N623 1.365 . S
N623 C620 1.341 . S
N623 N622 1.365 . S
N623 H643 0.862 . S
C624 C619 1.501 . S
C624 H625 0.961 . S
C624 H626 0.961 . S
C624 H627 0.960 . S
H625 C624 0.961 . S
H626 C624 0.961 . S
H627 C624 0.960 . S
C628 N629 1.342 . S
C628 C632 1.401 . S
C628 C633 1.499 . S
N629 Co612 1.989 . S
N629 C628 1.342 . S
N629 N630 1.388 . S
N630 Co613 1.993 . S
N630 N629 1.388 . S
N630 C631 1.346 . S
C631 N630 1.346 . S
C631 C632 1.396 . S
C631 C641 1.510 . S
C632 C628 1.401 . S
C632 C631 1.396 . S
C633 C628 1.499 . S
C633 H634 0.959 . S
C633 H635 0.960 . S
C633 H636 0.961 . S
H634 C633 0.959 . S
H635 C633 0.960 . S
H636 C633 0.961 . S
O637 Co612 1.967 . S
O637 C645 1.258 . S
O638 Co613 1.941 . S
O638 C645 1.266 . S
H639 C641 0.959 . S
H640 C641 0.961 . S
C641 C631 1.510 . S
C641 H639 0.959 . S
C641 H640 0.961 . S
C641 H642 0.960 . S
H642 C641 0.960 . S
H643 N623 0.862 . S
O644 Co612 1.920 . S
O644 C617 1.289 . S
C645 O637 1.258 . S
C645 O638 1.266 . S
Co646 O649 1.970 . S
Co646 N663 1.989 . S
Co646 O671 1.967 . S
Co646 O678 1.920 . S
Co647 O650 1.966 . S
Co647 N656 2.022 . S
Co647 N664 1.993 . S
Co647 O672 1.941 . S
C648 O649 1.258 . S
C648 O650 1.263 . S
O649 Co646 1.970 . S
O649 C648 1.258 . S
O650 Co647 1.966 . S
O650 C648 1.263 . S
C651 O652 1.235 . S
C651 O678 1.289 . S
O652 C651 1.235 . S
C653 C655 1.400 . S
C653 N656 1.351 . S
C653 C658 1.501 . S
C654 C655 1.387 . S
C654 N657 1.341 . S
C655 C653 1.400 . S
C655 C654 1.387 . S
N656 Co647 2.022 . S
N656 C653 1.351 . S
N656 N657 1.365 . S
N657 C654 1.341 . S
N657 N656 1.365 . S
N657 H677 0.862 . S
C658 C653 1.501 . S
C658 H659 0.961 . S
C658 H660 0.961 . S
C658 H661 0.960 . S
H659 C658 0.961 . S
H660 C658 0.961 . S
H661 C658 0.960 . S
C662 N663 1.342 . S
C662 C666 1.401 . S
C662 C667 1.499 . S
N663 Co646 1.989 . S
N663 C662 1.342 . S
N663 N664 1.388 . S
N664 Co647 1.993 . S
N664 N663 1.388 . S
N664 C665 1.346 . S
C665 N664 1.346 . S
C665 C666 1.396 . S
C665 C675 1.510 . S
C666 C662 1.401 . S
C666 C665 1.396 . S
C667 C662 1.499 . S
C667 H668 0.959 . S
C667 H669 0.960 . S
C667 H670 0.961 . S
H668 C667 0.959 . S
H669 C667 0.960 . S
H670 C667 0.961 . S
O671 Co646 1.967 . S
O671 C679 1.258 . S
O672 Co647 1.941 . S
O672 C679 1.266 . S
H673 C675 0.959 . S
H674 C675 0.961 . S
C675 C665 1.510 . S
C675 H673 0.959 . S
C675 H674 0.961 . S
C675 H676 0.960 . S
H676 C675 0.960 . S
H677 N657 0.862 . S
O678 Co646 1.920 . S
O678 C651 1.289 . S
C679 O671 1.258 . S
C679 O672 1.266 . S
Co680 O683 1.970 . S
Co680 N697 1.989 . S
Co680 O705 1.967 . S
Co680 O712 1.920 . S
Co681 O684 1.966 . S
Co681 N690 2.022 . S
Co681 N698 1.993 . S
Co681 O706 1.941 . S
C682 O683 1.258 . S
C682 O684 1.263 . S
O683 Co680 1.970 . S
O683 C682 1.258 . S
O684 Co681 1.966 . S
O684 C682 1.263 . S
C685 O686 1.235 . S
C685 O712 1.289 . S
O686 C685 1.235 . S
C687 C689 1.400 . S
C687 N690 1.351 . S
C687 C692 1.501 . S
C688 C689 1.387 . S
C688 N691 1.341 . S
C689 C687 1.400 . S
C689 C688 1.387 . S
N690 Co681 2.022 . S
N690 C687 1.351 . S
N690 N691 1.365 . S
N691 C688 1.341 . S
N691 N690 1.365 . S
N691 H711 0.862 . S
C692 C687 1.501 . S
C692 H693 0.961 . S
C692 H694 0.961 . S
C692 H695 0.960 . S
H693 C692 0.961 . S
H694 C692 0.961 . S
H695 C692 0.960 . S
C696 N697 1.342 . S
C696 C700 1.401 . S
C696 C701 1.499 . S
N697 Co680 1.989 . S
N697 C696 1.342 . S
N697 N698 1.388 . S
N698 Co681 1.993 . S
N698 N697 1.388 . S
N698 C699 1.346 . S
C699 N698 1.346 . S
C699 C700 1.396 . S
C699 C709 1.510 . S
C700 C696 1.401 . S
C700 C699 1.396 . S
C701 C696 1.499 . S
C701 H702 0.959 . S
C701 H703 0.960 . S
C701 H704 0.961 . S
H702 C701 0.959 . S
H703 C701 0.960 . S
H704 C701 0.961 . S
O705 Co680 1.967 . S
O705 C713 1.258 . S
O706 Co681 1.941 . S
O706 C713 1.266 . S
H707 C709 0.959 . S
H708 C709 0.961 . S
C709 C699 1.510 . S
C709 H707 0.959 . S
C709 H708 0.961 . S
C709 H710 0.960 . S
H710 C709 0.960 . S
H711 N691 0.862 . S
O712 Co680 1.920 . S
O712 C685 1.289 . S
C713 O705 1.258 . S
C713 O706 1.266 . S
Co714 O717 1.970 . S
Co714 N731 1.989 . S
Co714 O739 1.967 . S
Co714 O746 1.920 . S
Co715 O718 1.966 . S
Co715 N724 2.022 . S
Co715 N732 1.993 . S
Co715 O740 1.941 . S
C716 O717 1.258 . S
C716 O718 1.263 . S
O717 Co714 1.970 . S
O717 C716 1.258 . S
O718 Co715 1.966 . S
O718 C716 1.263 . S
C719 O720 1.235 . S
C719 O746 1.289 . S
O720 C719 1.235 . S
C721 C723 1.400 . S
C721 N724 1.351 . S
C721 C726 1.501 . S
C722 C723 1.387 . S
C722 N725 1.341 . S
C723 C721 1.400 . S
C723 C722 1.387 . S
N724 Co715 2.022 . S
N724 C721 1.351 . S
N724 N725 1.365 . S
N725 C722 1.341 . S
N725 N724 1.365 . S
N725 H745 0.862 . S
C726 C721 1.501 . S
C726 H727 0.961 . S
C726 H728 0.961 . S
C726 H729 0.960 . S
H727 C726 0.961 . S
H728 C726 0.961 . S
H729 C726 0.960 . S
C730 N731 1.342 . S
C730 C734 1.401 . S
C730 C735 1.499 . S
N731 Co714 1.989 . S
N731 C730 1.342 . S
N731 N732 1.388 . S
N732 Co715 1.993 . S
N732 N731 1.388 . S
N732 C733 1.346 . S
C733 N732 1.346 . S
C733 C734 1.396 . S
C733 C743 1.510 . S
C734 C730 1.401 . S
C734 C733 1.396 . S
C735 C730 1.499 . S
C735 H736 0.959 . S
C735 H737 0.960 . S
C735 H738 0.961 . S
H736 C735 0.959 . S
H737 C735 0.960 . S
H738 C735 0.961 . S
O739 Co714 1.967 . S
O739 C747 1.258 . S
O740 Co715 1.941 . S
O740 C747 1.266 . S
H741 C743 0.959 . S
H742 C743 0.961 . S
C743 C733 1.510 . S
C743 H741 0.959 . S
C743 H742 0.961 . S
C743 H744 0.960 . S
H744 C743 0.960 . S
H745 N725 0.862 . S
O746 Co714 1.920 . S
O746 C719 1.289 . S
C747 O739 1.258 . S
C747 O740 1.266 . S
Co748 O751 1.970 . S
Co748 N765 1.989 . S
Co748 O773 1.967 . S
Co748 O780 1.920 . S
Co749 O752 1.966 . S
Co749 N758 2.022 . S
Co749 N766 1.993 . S
Co749 O774 1.941 . S
C750 O751 1.258 . S
C750 O752 1.263 . S
O751 Co748 1.970 . S
O751 C750 1.258 . S
O752 Co749 1.966 . S
O752 C750 1.263 . S
C753 O754 1.235 . S
C753 O780 1.289 . S
O754 C753 1.235 . S
C755 C757 1.400 . S
C755 N758 1.351 . S
C755 C760 1.501 . S
C756 C757 1.387 . S
C756 N759 1.341 . S
C757 C755 1.400 . S
C757 C756 1.387 . S
N758 Co749 2.022 . S
N758 C755 1.351 . S
N758 N759 1.365 . S
N759 C756 1.341 . S
N759 N758 1.365 . S
N759 H779 0.862 . S
C760 C755 1.501 . S
C760 H761 0.961 . S
C760 H762 0.961 . S
C760 H763 0.960 . S
H761 C760 0.961 . S
H762 C760 0.961 . S
H763 C760 0.960 . S
C764 N765 1.342 . S
C764 C768 1.401 . S
C764 C769 1.499 . S
N765 Co748 1.989 . S
N765 C764 1.342 . S
N765 N766 1.388 . S
N766 Co749 1.993 . S
N766 N765 1.388 . S
N766 C767 1.346 . S
C767 N766 1.346 . S
C767 C768 1.396 . S
C767 C777 1.510 . S
C768 C764 1.401 . S
C768 C767 1.396 . S
C769 C764 1.499 . S
C769 H770 0.959 . S
C769 H771 0.960 . S
C769 H772 0.961 . S
H770 C769 0.959 . S
H771 C769 0.960 . S
H772 C769 0.961 . S
O773 Co748 1.967 . S
O773 C781 1.258 . S
O774 Co749 1.941 . S
O774 C781 1.266 . S
H775 C777 0.959 . S
H776 C777 0.961 . S
C777 C767 1.510 . S
C777 H775 0.959 . S
C777 H776 0.961 . S
C777 H778 0.960 . S
H778 C777 0.960 . S
H779 N759 0.862 . S
O780 Co748 1.920 . S
O780 C753 1.289 . S
C781 O773 1.258 . S
C781 O774 1.266 . S
Co782 O785 1.970 . S
Co782 N799 1.989 . S
Co782 O807 1.967 . S
Co782 O814 1.920 . S
Co783 O786 1.966 . S
Co783 N792 2.022 . S
Co783 N800 1.993 . S
Co783 O808 1.941 . S
C784 O785 1.258 . S
C784 O786 1.263 . S
O785 Co782 1.970 . S
O785 C784 1.258 . S
O786 Co783 1.966 . S
O786 C784 1.263 . S
C787 O788 1.235 . S
C787 O814 1.289 . S
O788 C787 1.235 . S
C789 C791 1.400 . S
C789 N792 1.351 . S
C789 C794 1.501 . S
C790 C791 1.387 . S
C790 N793 1.341 . S
C791 C789 1.400 . S
C791 C790 1.387 . S
N792 Co783 2.022 . S
N792 C789 1.351 . S
N792 N793 1.365 . S
N793 C790 1.341 . S
N793 N792 1.365 . S
N793 H813 0.862 . S
C794 C789 1.501 . S
C794 H795 0.961 . S
C794 H796 0.961 . S
C794 H797 0.960 . S
H795 C794 0.961 . S
H796 C794 0.961 . S
H797 C794 0.960 . S
C798 N799 1.342 . S
C798 C802 1.401 . S
C798 C803 1.499 . S
N799 Co782 1.989 . S
N799 C798 1.342 . S
N799 N800 1.388 . S
N800 Co783 1.993 . S
N800 N799 1.388 . S
N800 C801 1.346 . S
C801 N800 1.346 . S
C801 C802 1.396 . S
C801 C811 1.510 . S
C802 C798 1.401 . S
C802 C801 1.396 . S
C803 C798 1.499 . S
C803 H804 0.959 . S
C803 H805 0.960 . S
C803 H806 0.961 . S
H804 C803 0.959 . S
H805 C803 0.960 . S
H806 C803 0.961 . S
O807 Co782 1.967 . S
O807 C815 1.258 . S
O808 Co783 1.941 . S
O808 C815 1.266 . S
H809 C811 0.959 . S
H810 C811 0.961 . S
C811 C801 1.510 . S
C811 H809 0.959 . S
C811 H810 0.961 . S
C811 H812 0.960 . S
H812 C811 0.960 . S
H813 N793 0.862 . S
O814 Co782 1.920 . S
O814 C787 1.289 . S
C815 O807 1.258 . S
C815 O808 1.266 . S
Co816 O819 1.970 . S
Co816 N833 1.989 . S
Co816 O841 1.967 . S
Co816 O848 1.920 . S
Co817 O820 1.966 . S
Co817 N826 2.022 . S
Co817 N834 1.993 . S
Co817 O842 1.941 . S
C818 O819 1.258 . S
C818 O820 1.263 . S
O819 Co816 1.970 . S
O819 C818 1.258 . S
O820 Co817 1.966 . S
O820 C818 1.263 . S
C821 O822 1.235 . S
C821 O848 1.289 . S
O822 C821 1.235 . S
C823 C825 1.400 . S
C823 N826 1.351 . S
C823 C828 1.501 . S
C824 C825 1.387 . S
C824 N827 1.341 . S
C825 C823 1.400 . S
C825 C824 1.387 . S
N826 Co817 2.022 . S
N826 C823 1.351 . S
N826 N827 1.365 . S
N827 C824 1.341 . S
N827 N826 1.365 . S
N827 H847 0.862 . S
C828 C823 1.501 . S
C828 H829 0.961 . S
C828 H830 0.961 . S
C828 H831 0.960 . S
H829 C828 0.961 . S
H830 C828 0.961 . S
H831 C828 0.960 . S
C832 N833 1.342 . S
C832 C836 1.401 . S
C832 C837 1.499 . S
N833 Co816 1.989 . S
N833 C832 1.342 . S
N833 N834 1.388 . S
N834 Co817 1.993 . S
N834 N833 1.388 . S
N834 C835 1.346 . S
C835 N834 1.346 . S
C835 C836 1.396 . S
C835 C845 1.510 . S
C836 C832 1.401 . S
C836 C835 1.396 . S
C837 C832 1.499 . S
C837 H838 0.959 . S
C837 H839 0.960 . S
C837 H840 0.961 . S
H838 C837 0.959 . S
H839 C837 0.960 . S
H840 C837 0.961 . S
O841 Co816 1.967 . S
O841 C849 1.258 . S
O842 Co817 1.941 . S
O842 C849 1.266 . S
H843 C845 0.959 . S
H844 C845 0.961 . S
C845 C835 1.510 . S
C845 H843 0.959 . S
C845 H844 0.961 . S
C845 H846 0.960 . S
H846 C845 0.960 . S
H847 N827 0.862 . S
O848 Co816 1.920 . S
O848 C821 1.289 . S
C849 O841 1.258 . S
C849 O842 1.266 . S
Co850 O853 1.970 . S
Co850 N867 1.989 . S
Co850 O875 1.967 . S
Co850 O882 1.920 . S
Co851 O854 1.966 . S
Co851 N860 2.022 . S
Co851 N868 1.993 . S
Co851 O876 1.941 . S
C852 O853 1.258 . S
C852 O854 1.263 . S
O853 Co850 1.970 . S
O853 C852 1.258 . S
O854 Co851 1.966 . S
O854 C852 1.263 . S
C855 O856 1.235 . S
C855 O882 1.289 . S
O856 C855 1.235 . S
C857 C859 1.400 . S
C857 N860 1.351 . S
C857 C862 1.501 . S
C858 C859 1.387 . S
C858 N861 1.341 . S
C859 C857 1.400 . S
C859 C858 1.387 . S
N860 Co851 2.022 . S
N860 C857 1.351 . S
N860 N861 1.365 . S
N861 C858 1.341 . S
N861 N860 1.365 . S
N861 H881 0.862 . S
C862 C857 1.501 . S
C862 H863 0.961 . S
C862 H864 0.961 . S
C862 H865 0.960 . S
H863 C862 0.961 . S
H864 C862 0.961 . S
H865 C862 0.960 . S
C866 N867 1.342 . S
C866 C870 1.401 . S
C866 C871 1.499 . S
N867 Co850 1.989 . S
N867 C866 1.342 . S
N867 N868 1.388 . S
N868 Co851 1.993 . S
N868 N867 1.388 . S
N868 C869 1.346 . S
C869 N868 1.346 . S
C869 C870 1.396 . S
C869 C879 1.510 . S
C870 C866 1.401 . S
C870 C869 1.396 . S
C871 C866 1.499 . S
C871 H872 0.959 . S
C871 H873 0.960 . S
C871 H874 0.961 . S
H872 C871 0.959 . S
H873 C871 0.960 . S
H874 C871 0.961 . S
O875 Co850 1.967 . S
O875 C883 1.258 . S
O876 Co851 1.941 . S
O876 C883 1.266 . S
H877 C879 0.959 . S
H878 C879 0.961 . S
C879 C869 1.510 . S
C879 H877 0.959 . S
C879 H878 0.961 . S
C879 H880 0.960 . S
H880 C879 0.960 . S
H881 N861 0.862 . S
O882 Co850 1.920 . S
O882 C855 1.289 . S
C883 O875 1.258 . S
C883 O876 1.266 . S
Co884 O887 1.970 . S
Co884 N901 1.989 . S
Co884 O909 1.967 . S
Co884 O916 1.920 . S
Co885 O888 1.966 . S
Co885 N894 2.022 . S
Co885 N902 1.993 . S
Co885 O910 1.941 . S
C886 O887 1.258 . S
C886 O888 1.263 . S
O887 Co884 1.970 . S
O887 C886 1.258 . S
O888 Co885 1.966 . S
O888 C886 1.263 . S
C889 O890 1.235 . S
C889 O916 1.289 . S
O890 C889 1.235 . S
C891 C893 1.400 . S
C891 N894 1.351 . S
C891 C896 1.501 . S
C892 C893 1.387 . S
C892 N895 1.341 . S
C893 C891 1.400 . S
C893 C892 1.387 . S
N894 Co885 2.022 . S
N894 C891 1.351 . S
N894 N895 1.365 . S
N895 C892 1.341 . S
N895 N894 1.365 . S
N895 H915 0.862 . S
C896 C891 1.501 . S
C896 H897 0.961 . S
C896 H898 0.961 . S
C896 H899 0.960 . S
H897 C896 0.961 . S
H898 C896 0.961 . S
H899 C896 0.960 . S
C900 N901 1.342 . S
C900 C904 1.401 . S
C900 C905 1.499 . S
N901 Co884 1.989 . S
N901 C900 1.342 . S
N901 N902 1.388 . S
N902 Co885 1.993 . S
N902 N901 1.388 . S
N902 C903 1.346 . S
C903 N902 1.346 . S
C903 C904 1.396 . S
C903 C913 1.510 . S
C904 C900 1.401 . S
C904 C903 1.396 . S
C905 C900 1.499 . S
C905 H906 0.959 . S
C905 H907 0.960 . S
C905 H908 0.961 . S
H906 C905 0.959 . S
H907 C905 0.960 . S
H908 C905 0.961 . S
O909 Co884 1.967 . S
O909 C917 1.258 . S
O910 Co885 1.941 . S
O910 C917 1.266 . S
H911 C913 0.959 . S
H912 C913 0.961 . S
C913 C903 1.510 . S
C913 H911 0.959 . S
C913 H912 0.961 . S
C913 H914 0.960 . S
H914 C913 0.960 . S
H915 N895 0.862 . S
O916 Co884 1.920 . S
O916 C889 1.289 . S
C917 O909 1.258 . S
C917 O910 1.266 . S
Co918 O921 1.970 . S
Co918 N935 1.989 . S
Co918 O943 1.967 . S
Co918 O950 1.920 . S
Co919 O922 1.966 . S
Co919 N928 2.022 . S
Co919 N936 1.993 . S
Co919 O944 1.941 . S
C920 O921 1.258 . S
C920 O922 1.263 . S
O921 Co918 1.970 . S
O921 C920 1.258 . S
O922 Co919 1.966 . S
O922 C920 1.263 . S
C923 O924 1.235 . S
C923 O950 1.289 . S
O924 C923 1.235 . S
C925 C927 1.400 . S
C925 N928 1.351 . S
C925 C930 1.501 . S
C926 C927 1.387 . S
C926 N929 1.341 . S
C927 C925 1.400 . S
C927 C926 1.387 . S
N928 Co919 2.022 . S
N928 C925 1.351 . S
N928 N929 1.365 . S
N929 C926 1.341 . S
N929 N928 1.365 . S
N929 H949 0.862 . S
C930 C925 1.501 . S
C930 H931 0.961 . S
C930 H932 0.961 . S
C930 H933 0.960 . S
H931 C930 0.961 . S
H932 C930 0.961 . S
H933 C930 0.960 . S
C934 N935 1.342 . S
C934 C938 1.401 . S
C934 C939 1.499 . S
N935 Co918 1.989 . S
N935 C934 1.342 . S
N935 N936 1.388 . S
N936 Co919 1.993 . S
N936 N935 1.388 . S
N936 C937 1.346 . S
C937 N936 1.346 . S
C937 C938 1.396 . S
C937 C947 1.510 . S
C938 C934 1.401 . S
C938 C937 1.396 . S
C939 C934 1.499 . S
C939 H940 0.959 . S
C939 H941 0.960 . S
C939 H942 0.961 . S
H940 C939 0.959 . S
H941 C939 0.960 . S
H942 C939 0.961 . S
O943 Co918 1.967 . S
O943 C951 1.258 . S
O944 Co919 1.941 . S
O944 C951 1.266 . S
H945 C947 0.959 . S
H946 C947 0.961 . S
C947 C937 1.510 . S
C947 H945 0.959 . S
C947 H946 0.961 . S
C947 H948 0.960 . S
H948 C947 0.960 . S
H949 N929 0.862 . S
O950 Co918 1.920 . S
O950 C923 1.289 . S
C951 O943 1.258 . S
C951 O944 1.266 . S
Co952 O955 1.970 . S
Co952 N969 1.989 . S
Co952 O977 1.967 . S
Co952 O984 1.920 . S
Co953 O956 1.966 . S
Co953 N962 2.022 . S
Co953 N970 1.993 . S
Co953 O978 1.941 . S
C954 O955 1.258 . S
C954 O956 1.263 . S
O955 Co952 1.970 . S
O955 C954 1.258 . S
O956 Co953 1.966 . S
O956 C954 1.263 . S
C957 O958 1.235 . S
C957 O984 1.289 . S
O958 C957 1.235 . S
C959 C961 1.400 . S
C959 N962 1.351 . S
C959 C964 1.501 . S
C960 C961 1.387 . S
C960 N963 1.341 . S
C961 C959 1.400 . S
C961 C960 1.387 . S
N962 Co953 2.022 . S
N962 C959 1.351 . S
N962 N963 1.365 . S
N963 C960 1.341 . S
N963 N962 1.365 . S
N963 H983 0.862 . S
C964 C959 1.501 . S
C964 H965 0.961 . S
C964 H966 0.961 . S
C964 H967 0.960 . S
H965 C964 0.961 . S
H966 C964 0.961 . S
H967 C964 0.960 . S
C968 N969 1.342 . S
C968 C972 1.401 . S
C968 C973 1.499 . S
N969 Co952 1.989 . S
N969 C968 1.342 . S
N969 N970 1.388 . S
N970 Co953 1.993 . S
N970 N969 1.388 . S
N970 C971 1.346 . S
C971 N970 1.346 . S
C971 C972 1.396 . S
C971 C981 1.510 . S
C972 C968 1.401 . S
C972 C971 1.396 . S
C973 C968 1.499 . S
C973 H974 0.959 . S
C973 H975 0.960 . S
C973 H976 0.961 . S
H974 C973 0.959 . S
H975 C973 0.960 . S
H976 C973 0.961 . S
O977 Co952 1.967 . S
O977 C985 1.258 . S
O978 Co953 1.941 . S
O978 C985 1.266 . S
H979 C981 0.959 . S
H980 C981 0.961 . S
C981 C971 1.510 . S
C981 H979 0.959 . S
C981 H980 0.961 . S
C981 H982 0.960 . S
H982 C981 0.960 . S
H983 N963 0.862 . S
O984 Co952 1.920 . S
O984 C957 1.289 . S
C985 O977 1.258 . S
C985 O978 1.266 . S
Co986 O989 1.970 . S
Co986 N1003 1.989 . S
Co986 O1011 1.967 . S
Co986 O1018 1.920 . S
Co987 O990 1.966 . S
Co987 N996 2.022 . S
Co987 N1004 1.993 . S
Co987 O1012 1.941 . S
C988 O989 1.258 . S
C988 O990 1.263 . S
O989 Co986 1.970 . S
O989 C988 1.258 . S
O990 Co987 1.966 . S
O990 C988 1.263 . S
C991 O992 1.235 . S
C991 O1018 1.289 . S
O992 C991 1.235 . S
C993 C995 1.400 . S
C993 N996 1.351 . S
C993 C998 1.501 . S
C994 C995 1.387 . S
C994 N997 1.341 . S
C995 C993 1.400 . S
C995 C994 1.387 . S
N996 Co987 2.022 . S
N996 C993 1.351 . S
N996 N997 1.365 . S
N997 C994 1.341 . S
N997 N996 1.365 . S
N997 H1017 0.862 . S
C998 C993 1.501 . S
C998 H999 0.961 . S
C998 H1000 0.961 . S
C998 H1001 0.960 . S
H999 C998 0.961 . S
H1000 C998 0.961 . S
H1001 C998 0.960 . S
C1002 N1003 1.342 . S
C1002 C1006 1.401 . S
C1002 C1007 1.499 . S
N1003 Co986 1.989 . S
N1003 C1002 1.342 . S
N1003 N1004 1.388 . S
N1004 Co987 1.993 . S
N1004 N1003 1.388 . S
N1004 C1005 1.346 . S
C1005 N1004 1.346 . S
C1005 C1006 1.396 . S
C1005 C1015 1.510 . S
C1006 C1002 1.401 . S
C1006 C1005 1.396 . S
C1007 C1002 1.499 . S
C1007 H1008 0.959 . S
C1007 H1009 0.960 . S
C1007 H1010 0.961 . S
H1008 C1007 0.959 . S
H1009 C1007 0.960 . S
H1010 C1007 0.961 . S
O1011 Co986 1.967 . S
O1011 C1019 1.258 . S
O1012 Co987 1.941 . S
O1012 C1019 1.266 . S
H1013 C1015 0.959 . S
H1014 C1015 0.961 . S
C1015 C1005 1.510 . S
C1015 H1013 0.959 . S
C1015 H1014 0.961 . S
C1015 H1016 0.960 . S
H1016 C1015 0.960 . S
H1017 N997 0.862 . S
O1018 Co986 1.920 . S
O1018 C991 1.289 . S
C1019 O1011 1.258 . S
C1019 O1012 1.266 . S
Co1020 O1023 1.970 . S
Co1020 N1037 1.989 . S
Co1020 O1045 1.967 . S
Co1020 O1052 1.920 . S
Co1021 O1024 1.966 . S
Co1021 N1030 2.022 . S
Co1021 N1038 1.993 . S
Co1021 O1046 1.941 . S
C1022 O1023 1.258 . S
C1022 O1024 1.263 . S
O1023 Co1020 1.970 . S
O1023 C1022 1.258 . S
O1024 Co1021 1.966 . S
O1024 C1022 1.263 . S
C1025 O1026 1.235 . S
C1025 O1052 1.289 . S
O1026 C1025 1.235 . S
C1027 C1029 1.400 . S
C1027 N1030 1.351 . S
C1027 C1032 1.501 . S
C1028 C1029 1.387 . S
C1028 N1031 1.341 . S
C1029 C1027 1.400 . S
C1029 C1028 1.387 . S
N1030 Co1021 2.022 . S
N1030 C1027 1.351 . S
N1030 N1031 1.365 . S
N1031 C1028 1.341 . S
N1031 N1030 1.365 . S
N1031 H1051 0.862 . S
C1032 C1027 1.501 . S
C1032 H1033 0.961 . S
C1032 H1034 0.961 . S
C1032 H1035 0.960 . S
H1033 C1032 0.961 . S
H1034 C1032 0.961 . S
H1035 C1032 0.960 . S
C1036 N1037 1.342 . S
C1036 C1040 1.401 . S
C1036 C1041 1.499 . S
N1037 Co1020 1.989 . S
N1037 C1036 1.342 . S
N1037 N1038 1.388 . S
N1038 Co1021 1.993 . S
N1038 N1037 1.388 . S
N1038 C1039 1.346 . S
C1039 N1038 1.346 . S
C1039 C1040 1.396 . S
C1039 C1049 1.510 . S
C1040 C1036 1.401 . S
C1040 C1039 1.396 . S
C1041 C1036 1.499 . S
C1041 H1042 0.959 . S
C1041 H1043 0.960 . S
C1041 H1044 0.961 . S
H1042 C1041 0.959 . S
H1043 C1041 0.960 . S
H1044 C1041 0.961 . S
O1045 Co1020 1.967 . S
O1045 C1053 1.258 . S
O1046 Co1021 1.941 . S
O1046 C1053 1.266 . S
H1047 C1049 0.959 . S
H1048 C1049 0.961 . S
C1049 C1039 1.510 . S
C1049 H1047 0.959 . S
C1049 H1048 0.961 . S
C1049 H1050 0.960 . S
H1050 C1049 0.960 . S
H1051 N1031 0.862 . S
O1052 Co1020 1.920 . S
O1052 C1025 1.289 . S
C1053 O1045 1.258 . S
C1053 O1046 1.266 . S
Co1054 O1057 1.970 . S
Co1054 N1071 1.989 . S
Co1054 O1079 1.967 . S
Co1054 O1086 1.920 . S
Co1055 O1058 1.966 . S
Co1055 N1064 2.022 . S
Co1055 N1072 1.993 . S
Co1055 O1080 1.941 . S
C1056 O1057 1.258 . S
C1056 O1058 1.263 . S
O1057 Co1054 1.970 . S
O1057 C1056 1.258 . S
O1058 Co1055 1.966 . S
O1058 C1056 1.263 . S
C1059 O1060 1.235 . S
C1059 O1086 1.289 . S
O1060 C1059 1.235 . S
C1061 C1063 1.400 . S
C1061 N1064 1.351 . S
C1061 C1066 1.501 . S
C1062 C1063 1.387 . S
C1062 N1065 1.341 . S
C1063 C1061 1.400 . S
C1063 C1062 1.387 . S
N1064 Co1055 2.022 . S
N1064 C1061 1.351 . S
N1064 N1065 1.365 . S
N1065 C1062 1.341 . S
N1065 N1064 1.365 . S
N1065 H1085 0.862 . S
C1066 C1061 1.501 . S
C1066 H1067 0.961 . S
C1066 H1068 0.961 . S
C1066 H1069 0.960 . S
H1067 C1066 0.961 . S
H1068 C1066 0.961 . S
H1069 C1066 0.960 . S
C1070 N1071 1.342 . S
C1070 C1074 1.401 . S
C1070 C1075 1.499 . S
N1071 Co1054 1.989 . S
N1071 C1070 1.342 . S
N1071 N1072 1.388 . S
N1072 Co1055 1.993 . S
N1072 N1071 1.388 . S
N1072 C1073 1.346 . S
C1073 N1072 1.346 . S
C1073 C1074 1.396 . S
C1073 C1083 1.510 . S
C1074 C1070 1.401 . S
C1074 C1073 1.396 . S
C1075 C1070 1.499 . S
C1075 H1076 0.959 . S
C1075 H1077 0.960 . S
C1075 H1078 0.961 . S
H1076 C1075 0.959 . S
H1077 C1075 0.960 . S
H1078 C1075 0.961 . S
O1079 Co1054 1.967 . S
O1079 C1087 1.258 . S
O1080 Co1055 1.941 . S
O1080 C1087 1.266 . S
H1081 C1083 0.959 . S
H1082 C1083 0.961 . S
C1083 C1073 1.510 . S
C1083 H1081 0.959 . S
C1083 H1082 0.961 . S
C1083 H1084 0.960 . S
H1084 C1083 0.960 . S
H1085 N1065 0.862 . S
O1086 Co1054 1.920 . S
O1086 C1059 1.289 . S
C1087 O1079 1.258 . S
C1087 O1080 1.266 . S
C1088 C1089 1.369 . S
C1088 C1090 1.419 . S
C1088 H1092 0.930 . S
C1089 C1088 1.369 . S
C1089 C1098 1.429 . S
C1090 C1088 1.419 . S
C1090 C1091 1.363 . S
C1090 H1093 0.929 . S
C1091 C1090 1.363 . S
C1091 C1097 1.428 . S
H1092 C1088 0.930 . S
H1093 C1090 0.929 . S
S1094 N1095 1.613 . S
S1094 N1096 1.610 . S
N1095 S1094 1.613 . S
N1095 C1098 1.350 . S
N1096 S1094 1.610 . S
N1096 C1097 1.351 . S
C1097 C1091 1.428 . S
C1097 N1096 1.351 . S
C1097 C1098 1.434 . S
C1098 C1089 1.429 . S
C1098 N1095 1.350 . S
C1098 C1097 1.434 . S
C1099 C1100 1.369 . S
C1099 C1101 1.419 . S
C1099 H1103 0.930 1_455 S
C1100 C1099 1.369 . S
C1100 C1109 1.429 . S
C1101 C1099 1.419 . S
C1101 C1102 1.363 . S
C1101 H1104 0.929 . S
C1102 C1101 1.363 . S
C1102 C1108 1.428 . S
H1103 C1099 0.930 1_655 S
H1104 C1101 0.929 . S
S1105 N1106 1.613 . S
S1105 N1107 1.610 . S
N1106 S1105 1.613 . S
N1106 C1109 1.350 . S
N1107 S1105 1.610 . S
N1107 C1108 1.351 . S
C1108 C1102 1.428 . S
C1108 N1107 1.351 . S
C1108 C1109 1.434 . S
C1109 C1100 1.429 . S
C1109 N1106 1.350 . S
C1109 C1108 1.434 . S
C1110 C1111 1.369 . S
C1110 C1112 1.419 . S
C1110 H1114 0.930 . S
C1111 C1110 1.369 . S
C1111 C1120 1.429 . S
C1112 C1110 1.419 . S
C1112 C1113 1.363 . S
C1112 H1115 0.929 . S
C1113 C1112 1.363 . S
C1113 C1119 1.428 . S
H1114 C1110 0.930 . S
H1115 C1112 0.929 . S
S1116 N1117 1.613 . S
S1116 N1118 1.610 . S
N1117 S1116 1.613 . S
N1117 C1120 1.350 . S
N1118 S1116 1.610 . S
N1118 C1119 1.351 . S
C1119 C1113 1.428 . S
C1119 N1118 1.351 . S
C1119 C1120 1.434 . S
C1120 C1111 1.429 . S
C1120 N1117 1.350 . S
C1120 C1119 1.434 . S
C1121 C1122 1.369 . S
C1121 C1123 1.419 . S
C1121 H1125 0.930 . S
C1122 C1121 1.369 . S
C1122 C1131 1.429 . S
C1123 C1121 1.419 . S
C1123 C1124 1.363 . S
C1123 H1126 0.929 . S
C1124 C1123 1.363 . S
C1124 C1130 1.428 . S
H1125 C1121 0.930 . S
H1126 C1123 0.929 . S
S1127 N1128 1.613 . S
S1127 N1129 1.610 . S
N1128 S1127 1.613 . S
N1128 C1131 1.350 . S
N1129 S1127 1.610 . S
N1129 C1130 1.351 . S
C1130 C1124 1.428 . S
C1130 N1129 1.351 . S
C1130 C1131 1.434 . S
C1131 C1122 1.429 . S
C1131 N1128 1.350 . S
C1131 C1130 1.434 . S
C1132 C1133 1.369 . S
C1132 C1134 1.419 . S
C1132 H1136 0.930 . S
C1133 C1132 1.369 . S
C1133 C1142 1.429 . S
C1134 C1132 1.419 . S
C1134 C1135 1.363 . S
C1134 H1137 0.929 . S
C1135 C1134 1.363 . S
C1135 C1141 1.428 . S
H1136 C1132 0.930 . S
H1137 C1134 0.929 . S
S1138 N1139 1.613 . S
S1138 N1140 1.610 . S
N1139 S1138 1.613 . S
N1139 C1142 1.350 . S
N1140 S1138 1.610 . S
N1140 C1141 1.351 . S
C1141 C1135 1.428 . S
C1141 N1140 1.351 . S
C1141 C1142 1.434 . S
C1142 C1133 1.429 . S
C1142 N1139 1.350 . S
C1142 C1141 1.434 . S
C1143 C1144 1.369 . S
C1143 C1145 1.419 . S
C1143 H1147 0.930 . S
C1144 C1143 1.369 . S
C1144 C1153 1.429 . S
C1145 C1143 1.419 . S
C1145 C1146 1.363 . S
C1145 H1148 0.929 . S
C1146 C1145 1.363 . S
C1146 C1152 1.428 . S
H1147 C1143 0.930 . S
H1148 C1145 0.929 . S
S1149 N1150 1.613 . S
S1149 N1151 1.610 . S
N1150 S1149 1.613 . S
N1150 C1153 1.350 . S
N1151 S1149 1.610 . S
N1151 C1152 1.351 . S
C1152 C1146 1.428 . S
C1152 N1151 1.351 . S
C1152 C1153 1.434 . S
C1153 C1144 1.429 . S
C1153 N1150 1.350 . S
C1153 C1152 1.434 . S
C1154 C1155 1.369 . S
C1154 C1156 1.419 . S
C1154 H1158 0.930 . S
C1155 C1154 1.369 . S
C1155 C1164 1.429 . S
C1156 C1154 1.419 . S
C1156 C1157 1.363 . S
C1156 H1159 0.929 . S
C1157 C1156 1.363 . S
C1157 C1163 1.428 . S
H1158 C1154 0.930 . S
H1159 C1156 0.929 . S
S1160 N1161 1.613 . S
S1160 N1162 1.610 . S
N1161 S1160 1.613 . S
N1161 C1164 1.350 . S
N1162 S1160 1.610 . S
N1162 C1163 1.351 . S
C1163 C1157 1.428 . S
C1163 N1162 1.351 . S
C1163 C1164 1.434 . S
C1164 C1155 1.429 . S
C1164 N1161 1.350 . S
C1164 C1163 1.434 . S
C1165 C1166 1.369 . S
C1165 C1167 1.419 . S
C1165 H1169 0.930 . S
C1166 C1165 1.369 . S
C1166 C1175 1.429 . S
C1167 C1165 1.419 . S
C1167 C1168 1.363 . S
C1167 H1170 0.929 . S
C1168 C1167 1.363 . S
C1168 C1174 1.428 . S
H1169 C1165 0.930 . S
H1170 C1167 0.929 . S
S1171 N1172 1.613 . S
S1171 N1173 1.610 . S
N1172 S1171 1.613 . S
N1172 C1175 1.350 . S
N1173 S1171 1.610 . S
N1173 C1174 1.351 . S
C1174 C1168 1.428 . S
C1174 N1173 1.351 . S
C1174 C1175 1.434 . S
C1175 C1166 1.429 . S
C1175 N1172 1.350 . S
C1175 C1174 1.434 . S
C1176 C1177 1.369 . S
C1176 C1178 1.419 . S
C1176 H1180 0.930 . S
C1177 C1176 1.369 . S
C1177 C1186 1.429 . S
C1178 C1176 1.419 . S
C1178 C1179 1.363 . S
C1178 H1181 0.929 . S
C1179 C1178 1.363 . S
C1179 C1185 1.428 . S
H1180 C1176 0.930 . S
H1181 C1178 0.929 . S
S1182 N1183 1.613 . S
S1182 N1184 1.610 . S
N1183 S1182 1.613 . S
N1183 C1186 1.350 . S
N1184 S1182 1.610 . S
N1184 C1185 1.351 . S
C1185 C1179 1.428 . S
C1185 N1184 1.351 . S
C1185 C1186 1.434 . S
C1186 C1177 1.429 . S
C1186 N1183 1.350 . S
C1186 C1185 1.434 . S
C1187 C1188 1.369 . S
C1187 C1189 1.419 . S
C1187 H1191 0.930 . S
C1188 C1187 1.369 . S
C1188 C1197 1.429 . S
C1189 C1187 1.419 . S
C1189 C1190 1.363 . S
C1189 H1192 0.929 . S
C1190 C1189 1.363 . S
C1190 C1196 1.428 . S
H1191 C1187 0.930 . S
H1192 C1189 0.929 . S
S1193 N1194 1.613 . S
S1193 N1195 1.610 . S
N1194 S1193 1.613 . S
N1194 C1197 1.350 . S
N1195 S1193 1.610 . S
N1195 C1196 1.351 . S
C1196 C1190 1.428 . S
C1196 N1195 1.351 . S
C1196 C1197 1.434 . S
C1197 C1188 1.429 . S
C1197 N1194 1.350 . S
C1197 C1196 1.434 . S
C1198 C1199 1.369 . S
C1198 C1200 1.419 . S
C1198 H1202 0.930 . S
C1199 C1198 1.369 . S
C1199 C1208 1.429 . S
C1200 C1198 1.419 . S
C1200 C1201 1.363 . S
C1200 H1203 0.929 . S
C1201 C1200 1.363 . S
C1201 C1207 1.428 . S
H1202 C1198 0.930 . S
H1203 C1200 0.929 . S
S1204 N1205 1.613 . S
S1204 N1206 1.610 . S
N1205 S1204 1.613 . S
N1205 C1208 1.350 . S
N1206 S1204 1.610 . S
N1206 C1207 1.351 . S
C1207 C1201 1.428 . S
C1207 N1206 1.351 . S
C1207 C1208 1.434 . S
C1208 C1199 1.429 . S
C1208 N1205 1.350 . S
C1208 C1207 1.434 . S
C1209 C1210 1.369 . S
C1209 C1211 1.419 . S
C1209 H1213 0.930 . S
C1210 C1209 1.369 . S
C1210 C1219 1.429 . S
C1211 C1209 1.419 . S
C1211 C1212 1.363 . S
C1211 H1214 0.929 . S
C1212 C1211 1.363 . S
C1212 C1218 1.428 . S
H1213 C1209 0.930 . S
H1214 C1211 0.929 . S
S1215 N1216 1.613 . S
S1215 N1217 1.610 . S
N1216 S1215 1.613 . S
N1216 C1219 1.350 . S
N1217 S1215 1.610 . S
N1217 C1218 1.351 . S
C1218 C1212 1.428 . S
C1218 N1217 1.351 . S
C1218 C1219 1.434 . S
C1219 C1210 1.429 . S
C1219 N1216 1.350 . S
C1219 C1218 1.434 . S
C1220 C1221 1.369 . S
C1220 C1222 1.419 . S
C1220 H1224 0.930 . S
C1221 C1220 1.369 . S
C1221 C1230 1.429 . S
C1222 C1220 1.419 . S
C1222 C1223 1.363 . S
C1222 H1225 0.929 . S
C1223 C1222 1.363 . S
C1223 C1229 1.428 . S
H1224 C1220 0.930 . S
H1225 C1222 0.929 . S
S1226 N1227 1.613 . S
S1226 N1228 1.610 . S
N1227 S1226 1.613 . S
N1227 C1230 1.350 . S
N1228 S1226 1.610 . S
N1228 C1229 1.351 . S
C1229 C1223 1.428 . S
C1229 N1228 1.351 . S
C1229 C1230 1.434 . S
C1230 C1221 1.429 . S
C1230 N1227 1.350 . S
C1230 C1229 1.434 . S
C1231 C1232 1.369 . S
C1231 C1233 1.419 . S
C1231 H1235 0.930 . S
C1232 C1231 1.369 . S
C1232 C1241 1.429 . S
C1233 C1231 1.419 . S
C1233 C1234 1.363 . S
C1233 H1236 0.929 . S
C1234 C1233 1.363 . S
C1234 C1240 1.428 . S
H1235 C1231 0.930 . S
H1236 C1233 0.929 . S
S1237 N1238 1.613 . S
S1237 N1239 1.610 . S
N1238 S1237 1.613 . S
N1238 C1241 1.350 . S
N1239 S1237 1.610 . S
N1239 C1240 1.351 . S
C1240 C1234 1.428 . S
C1240 N1239 1.351 . S
C1240 C1241 1.434 . S
C1241 C1232 1.429 . S
C1241 N1238 1.350 . S
C1241 C1240 1.434 . S
C1242 C1243 1.369 . S
C1242 C1244 1.419 . S
C1242 H1246 0.930 . S
C1243 C1242 1.369 . S
C1243 C1252 1.429 . S
C1244 C1242 1.419 . S
C1244 C1245 1.363 . S
C1244 H1247 0.929 . S
C1245 C1244 1.363 . S
C1245 C1251 1.428 . S
H1246 C1242 0.930 . S
H1247 C1244 0.929 . S
S1248 N1249 1.613 . S
S1248 N1250 1.610 . S
N1249 S1248 1.613 . S
N1249 C1252 1.350 . S
N1250 S1248 1.610 . S
N1250 C1251 1.351 . S
C1251 C1245 1.428 . S
C1251 N1250 1.351 . S
C1251 C1252 1.434 . S
C1252 C1243 1.429 . S
C1252 N1249 1.350 . S
C1252 C1251 1.434 . S
C1253 C1254 1.369 . S
C1253 C1255 1.419 . S
C1253 H1257 0.930 . S
C1254 C1253 1.369 . S
C1254 C1263 1.429 . S
C1255 C1253 1.419 . S
C1255 C1256 1.363 . S
C1255 H1258 0.929 . S
C1256 C1255 1.363 . S
C1256 C1262 1.428 . S
H1257 C1253 0.930 . S
H1258 C1255 0.929 . S
S1259 N1260 1.613 . S
S1259 N1261 1.610 1_455 S
N1260 S1259 1.613 . S
N1260 C1263 1.350 1_455 S
N1261 S1259 1.610 1_655 S
N1261 C1262 1.351 . S
C1262 C1256 1.428 . S
C1262 N1261 1.351 . S
C1262 C1263 1.434 . S
C1263 C1254 1.429 . S
C1263 N1260 1.350 1_655 S
C1263 C1262 1.434 . S
C1264 C1265 1.369 . S
C1264 C1266 1.419 . S
C1264 H1268 0.930 . S
C1265 C1264 1.369 . S
C1265 C1274 1.429 . S
C1266 C1264 1.419 . S
C1266 C1267 1.363 . S
C1266 H1269 0.929 . S
C1267 C1266 1.363 . S
C1267 C1273 1.428 . S
H1268 C1264 0.930 . S
H1269 C1266 0.929 . S
S1270 N1271 1.613 . S
S1270 N1272 1.610 . S
N1271 S1270 1.613 . S
N1271 C1274 1.350 . S
N1272 S1270 1.610 . S
N1272 C1273 1.351 . S
C1273 C1267 1.428 . S
C1273 N1272 1.351 . S
C1273 C1274 1.434 . S
C1274 C1265 1.429 . S
C1274 N1271 1.350 . S
C1274 C1273 1.434 . S
C1275 C1276 1.369 . S
C1275 C1277 1.419 . S
C1275 H1279 0.930 . S
C1276 C1275 1.369 . S
C1276 C1285 1.429 . S
C1277 C1275 1.419 . S
C1277 C1278 1.363 . S
C1277 H1280 0.929 . S
C1278 C1277 1.363 . S
C1278 C1284 1.428 . S
H1279 C1275 0.930 . S
H1280 C1277 0.929 . S
S1281 N1282 1.613 . S
S1281 N1283 1.610 . S
N1282 S1281 1.613 . S
N1282 C1285 1.350 . S
N1283 S1281 1.610 . S
N1283 C1284 1.351 . S
C1284 C1278 1.428 . S
C1284 N1283 1.351 . S
C1284 C1285 1.434 . S
C1285 C1276 1.429 . S
C1285 N1282 1.350 . S
C1285 C1284 1.434 . S
C1286 C1287 1.369 . S
C1286 C1288 1.419 . S
C1286 H1290 0.930 . S
C1287 C1286 1.369 . S
C1287 C1296 1.429 . S
C1288 C1286 1.419 . S
C1288 C1289 1.363 . S
C1288 H1291 0.929 . S
C1289 C1288 1.363 . S
C1289 C1295 1.428 . S
H1290 C1286 0.930 . S
H1291 C1288 0.929 . S
S1292 N1293 1.613 . S
S1292 N1294 1.610 . S
N1293 S1292 1.613 . S
N1293 C1296 1.350 . S
N1294 S1292 1.610 . S
N1294 C1295 1.351 . S
C1295 C1289 1.428 . S
C1295 N1294 1.351 . S
C1295 C1296 1.434 . S
C1296 C1287 1.429 . S
C1296 N1293 1.350 . S
C1296 C1295 1.434 . S
C1297 C1298 1.369 . S
C1297 C1299 1.419 . S
C1297 H1301 0.930 . S
C1298 C1297 1.369 . S
C1298 C1307 1.429 . S
C1299 C1297 1.419 . S
C1299 C1300 1.363 . S
C1299 H1302 0.929 . S
C1300 C1299 1.363 . S
C1300 C1306 1.428 . S
H1301 C1297 0.930 . S
H1302 C1299 0.929 . S
S1303 N1304 1.613 . S
S1303 N1305 1.610 . S
N1304 S1303 1.613 . S
N1304 C1307 1.350 . S
N1305 S1303 1.610 . S
N1305 C1306 1.351 . S
C1306 C1300 1.428 . S
C1306 N1305 1.351 . S
C1306 C1307 1.434 . S
C1307 C1298 1.429 . S
C1307 N1304 1.350 . S
C1307 C1306 1.434 . S
C1308 C1309 1.369 . S
C1308 C1310 1.419 . S
C1308 H1312 0.930 . S
C1309 C1308 1.369 . S
C1309 C1318 1.429 . S
C1310 C1308 1.419 . S
C1310 C1311 1.363 . S
C1310 H1313 0.929 . S
C1311 C1310 1.363 . S
C1311 C1317 1.428 . S
H1312 C1308 0.930 . S
H1313 C1310 0.929 . S
S1314 N1315 1.613 . S
S1314 N1316 1.610 . S
N1315 S1314 1.613 . S
N1315 C1318 1.350 . S
N1316 S1314 1.610 . S
N1316 C1317 1.351 . S
C1317 C1311 1.428 . S
C1317 N1316 1.351 . S
C1317 C1318 1.434 . S
C1318 C1309 1.429 . S
C1318 N1315 1.350 . S
C1318 C1317 1.434 . S
C1319 C1320 1.369 . S
C1319 C1321 1.419 . S
C1319 H1323 0.930 . S
C1320 C1319 1.369 . S
C1320 C1329 1.429 . S
C1321 C1319 1.419 . S
C1321 C1322 1.363 . S
C1321 H1324 0.929 . S
C1322 C1321 1.363 . S
C1322 C1328 1.428 . S
H1323 C1319 0.930 . S
H1324 C1321 0.929 . S
S1325 N1326 1.613 . S
S1325 N1327 1.610 . S
N1326 S1325 1.613 . S
N1326 C1329 1.350 . S
N1327 S1325 1.610 . S
N1327 C1328 1.351 . S
C1328 C1322 1.428 . S
C1328 N1327 1.351 . S
C1328 C1329 1.434 . S
C1329 C1320 1.429 . S
C1329 N1326 1.350 . S
C1329 C1328 1.434 . S
C1330 C1331 1.369 . S
C1330 C1332 1.419 . S
C1330 H1334 0.930 . S
C1331 C1330 1.369 . S
C1331 C1340 1.429 . S
C1332 C1330 1.419 . S
C1332 C1333 1.363 . S
C1332 H1335 0.929 . S
C1333 C1332 1.363 . S
C1333 C1339 1.428 . S
H1334 C1330 0.930 . S
H1335 C1332 0.929 . S
S1336 N1337 1.613 . S
S1336 N1338 1.610 . S
N1337 S1336 1.613 . S
N1337 C1340 1.350 . S
N1338 S1336 1.610 . S
N1338 C1339 1.351 . S
C1339 C1333 1.428 . S
C1339 N1338 1.351 . S
C1339 C1340 1.434 . S
C1340 C1331 1.429 . S
C1340 N1337 1.350 . S
C1340 C1339 1.434 . S
C1341 C1342 1.369 . S
C1341 C1343 1.419 . S
C1341 H1345 0.930 . S
C1342 C1341 1.369 . S
C1342 C1351 1.429 . S
C1343 C1341 1.419 . S
C1343 C1344 1.363 . S
C1343 H1346 0.929 . S
C1344 C1343 1.363 . S
C1344 C1350 1.428 . S
H1345 C1341 0.930 . S
H1346 C1343 0.929 . S
S1347 N1348 1.613 . S
S1347 N1349 1.610 . S
N1348 S1347 1.613 . S
N1348 C1351 1.350 . S
N1349 S1347 1.610 . S
N1349 C1350 1.351 . S
C1350 C1344 1.428 . S
C1350 N1349 1.351 . S
C1350 C1351 1.434 . S
C1351 C1342 1.429 . S
C1351 N1348 1.350 . S
C1351 C1350 1.434 . S
C1352 C1353 1.369 . S
C1352 C1354 1.419 . S
C1352 H1356 0.930 . S
C1353 C1352 1.369 . S
C1353 C1362 1.429 . S
C1354 C1352 1.419 . S
C1354 C1355 1.363 . S
C1354 H1357 0.929 . S
C1355 C1354 1.363 . S
C1355 C1361 1.428 . S
H1356 C1352 0.930 . S
H1357 C1354 0.929 . S
S1358 N1359 1.613 . S
S1358 N1360 1.610 . S
N1359 S1358 1.613 . S
N1359 C1362 1.350 . S
N1360 S1358 1.610 . S
N1360 C1361 1.351 . S
C1361 C1355 1.428 . S
C1361 N1360 1.351 . S
C1361 C1362 1.434 . S
C1362 C1353 1.429 . S
C1362 N1359 1.350 . S
C1362 C1361 1.434 . S
C1363 C1364 1.369 . S
C1363 C1365 1.419 . S
C1363 H1367 0.930 . S
C1364 C1363 1.369 . S
C1364 C1373 1.429 . S
C1365 C1363 1.419 . S
C1365 C1366 1.363 . S
C1365 H1368 0.929 . S
C1366 C1365 1.363 . S
C1366 C1372 1.428 . S
H1367 C1363 0.930 . S
H1368 C1365 0.929 . S
S1369 N1370 1.613 . S
S1369 N1371 1.610 . S
N1370 S1369 1.613 . S
N1370 C1373 1.350 . S
N1371 S1369 1.610 . S
N1371 C1372 1.351 . S
C1372 C1366 1.428 . S
C1372 N1371 1.351 . S
C1372 C1373 1.434 . S
C1373 C1364 1.429 . S
C1373 N1370 1.350 . S
C1373 C1372 1.434 . S
C1374 C1375 1.369 . S
C1374 C1376 1.419 . S
C1374 H1378 0.930 . S
C1375 C1374 1.369 . S
C1375 C1384 1.429 . S
C1376 C1374 1.419 . S
C1376 C1377 1.363 . S
C1376 H1379 0.929 . S
C1377 C1376 1.363 . S
C1377 C1383 1.428 . S
H1378 C1374 0.930 . S
H1379 C1376 0.929 . S
S1380 N1381 1.613 . S
S1380 N1382 1.610 . S
N1381 S1380 1.613 . S
N1381 C1384 1.350 . S
N1382 S1380 1.610 . S
N1382 C1383 1.351 . S
C1383 C1377 1.428 . S
C1383 N1382 1.351 . S
C1383 C1384 1.434 . S
C1384 C1375 1.429 . S
C1384 N1381 1.350 . S
C1384 C1383 1.434 . S
C1385 C1386 1.369 . S
C1385 C1387 1.419 . S
C1385 H1389 0.930 . S
C1386 C1385 1.369 . S
C1386 C1395 1.429 . S
C1387 C1385 1.419 . S
C1387 C1388 1.363 . S
C1387 H1390 0.930 . S
C1388 C1387 1.363 . S
C1388 C1394 1.428 . S
H1389 C1385 0.930 . S
H1390 C1387 0.930 . S
S1391 N1392 1.613 . S
S1391 N1393 1.610 . S
N1392 S1391 1.613 . S
N1392 C1395 1.350 . S
N1393 S1391 1.610 . S
N1393 C1394 1.351 . S
C1394 C1388 1.428 . S
C1394 N1393 1.351 . S
C1394 C1395 1.434 . S
C1395 C1386 1.429 . S
C1395 N1392 1.350 . S
C1395 C1394 1.434 . S
C1396 C1397 1.369 . S
C1396 C1398 1.419 . S
C1396 H1400 0.930 . S
C1397 C1396 1.369 . S
C1397 C1406 1.429 . S
C1398 C1396 1.419 . S
C1398 C1399 1.363 . S
C1398 H1401 0.929 . S
C1399 C1398 1.363 . S
C1399 C1405 1.428 . S
H1400 C1396 0.930 . S
H1401 C1398 0.929 . S
S1402 N1403 1.613 . S
S1402 N1404 1.610 . S
N1403 S1402 1.613 . S
N1403 C1406 1.350 . S
N1404 S1402 1.610 . S
N1404 C1405 1.351 . S
C1405 C1399 1.428 . S
C1405 N1404 1.351 . S
C1405 C1406 1.434 . S
C1406 C1397 1.429 . S
C1406 N1403 1.350 . S
C1406 C1405 1.434 . S
C1407 C1408 1.369 . S
C1407 C1409 1.419 . S
C1407 H1411 0.930 . S
C1408 C1407 1.369 . S
C1408 C1417 1.429 . S
C1409 C1407 1.419 . S
C1409 C1410 1.363 . S
C1409 H1412 0.929 . S
C1410 C1409 1.363 . S
C1410 C1416 1.428 . S
H1411 C1407 0.930 . S
H1412 C1409 0.929 . S
S1413 N1414 1.613 1_655 S
S1413 N1415 1.610 . S
N1414 S1413 1.613 1_455 S
N1414 C1417 1.350 . S
N1415 S1413 1.610 . S
N1415 C1416 1.351 1_655 S
C1416 C1410 1.428 . S
C1416 N1415 1.351 1_455 S
C1416 C1417 1.434 . S
C1417 C1408 1.429 . S
C1417 N1414 1.350 . S
C1417 C1416 1.434 . S
C1418 C1419 1.369 . S
C1418 C1420 1.419 . S
C1418 H1422 0.930 . S
C1419 C1418 1.369 . S
C1419 C1428 1.429 . S
C1420 C1418 1.419 . S
C1420 C1421 1.363 . S
C1420 H1423 0.929 . S
C1421 C1420 1.363 . S
C1421 C1427 1.428 . S
H1422 C1418 0.930 . S
H1423 C1420 0.929 . S
S1424 N1425 1.613 . S
S1424 N1426 1.610 . S
N1425 S1424 1.613 . S
N1425 C1428 1.350 . S
N1426 S1424 1.610 . S
N1426 C1427 1.351 . S
C1427 C1421 1.428 . S
C1427 N1426 1.351 . S
C1427 C1428 1.434 . S
C1428 C1419 1.429 . S
C1428 N1425 1.350 . S
C1428 C1427 1.434 . S
C1429 C1430 1.369 . S
C1429 C1431 1.419 . S
C1429 H1433 0.930 . S
C1430 C1429 1.369 . S
C1430 C1439 1.429 . S
C1431 C1429 1.419 . S
C1431 C1432 1.363 . S
C1431 H1434 0.929 . S
C1432 C1431 1.363 . S
C1432 C1438 1.428 . S
H1433 C1429 0.930 . S
H1434 C1431 0.929 . S
S1435 N1436 1.613 . S
S1435 N1437 1.610 . S
N1436 S1435 1.613 . S
N1436 C1439 1.350 . S
N1437 S1435 1.610 . S
N1437 C1438 1.351 . S
C1438 C1432 1.428 . S
C1438 N1437 1.351 . S
C1438 C1439 1.434 . S
C1439 C1430 1.429 . S
C1439 N1436 1.350 . S
C1439 C1438 1.434 . S
C1440 C1441 1.369 . S
C1440 C1442 1.419 . S
C1440 H1444 0.930 . S
C1441 C1440 1.369 . S
C1441 C1450 1.429 . S
C1442 C1440 1.419 . S
C1442 C1443 1.363 . S
C1442 H1445 0.929 . S
C1443 C1442 1.363 . S
C1443 C1449 1.428 . S
H1444 C1440 0.930 . S
H1445 C1442 0.929 . S
S1446 N1447 1.613 . S
S1446 N1448 1.610 . S
N1447 S1446 1.613 . S
N1447 C1450 1.350 . S
N1448 S1446 1.610 . S
N1448 C1449 1.351 . S
C1449 C1443 1.428 . S
C1449 N1448 1.351 . S
C1449 C1450 1.434 . S
C1450 C1441 1.429 . S
C1450 N1447 1.350 . S
C1450 C1449 1.434 . S
C1451 C1452 1.369 . S
C1451 C1453 1.419 . S
C1451 H1455 0.930 . S
C1452 C1451 1.369 . S
C1452 C1461 1.429 . S
C1453 C1451 1.419 . S
C1453 C1454 1.363 . S
C1453 H1456 0.929 . S
C1454 C1453 1.363 . S
C1454 C1460 1.428 . S
H1455 C1451 0.930 . S
H1456 C1453 0.929 . S
S1457 N1458 1.613 . S
S1457 N1459 1.610 . S
N1458 S1457 1.613 . S
N1458 C1461 1.350 . S
N1459 S1457 1.610 . S
N1459 C1460 1.351 . S
C1460 C1454 1.428 . S
C1460 N1459 1.351 . S
C1460 C1461 1.434 . S
C1461 C1452 1.429 . S
C1461 N1458 1.350 . S
C1461 C1460 1.434 . S
C1462 C1463 1.369 . S
C1462 C1464 1.419 . S
C1462 H1466 0.930 . S
C1463 C1462 1.369 . S
C1463 C1472 1.429 . S
C1464 C1462 1.419 . S
C1464 C1465 1.363 . S
C1464 H1467 0.929 . S
C1465 C1464 1.363 . S
C1465 C1471 1.428 . S
H1466 C1462 0.930 . S
H1467 C1464 0.929 . S
S1468 N1469 1.613 1_565 S
S1468 N1470 1.610 . S
N1469 S1468 1.613 1_545 S
N1469 C1472 1.350 . S
N1470 S1468 1.610 . S
N1470 C1471 1.351 1_565 S
C1471 C1465 1.428 . S
C1471 N1470 1.351 1_545 S
C1471 C1472 1.434 . S
C1472 C1463 1.429 . S
C1472 N1469 1.350 . S
C1472 C1471 1.434 . S
C1473 C1474 1.369 . S
C1473 C1475 1.419 . S
C1473 H1477 0.930 . S
C1474 C1473 1.369 . S
C1474 C1483 1.429 . S
C1475 C1473 1.419 . S
C1475 C1476 1.363 . S
C1475 H1478 0.929 . S
C1476 C1475 1.363 . S
C1476 C1482 1.428 . S
H1477 C1473 0.930 . S
H1478 C1475 0.929 . S
S1479 N1480 1.613 . S
S1479 N1481 1.610 . S
N1480 S1479 1.613 . S
N1480 C1483 1.350 . S
N1481 S1479 1.610 . S
N1481 C1482 1.351 . S
C1482 C1476 1.428 . S
C1482 N1481 1.351 . S
C1482 C1483 1.434 . S
C1483 C1474 1.429 . S
C1483 N1480 1.350 . S
C1483 C1482 1.434 . S
C1484 C1485 1.369 . S
C1484 C1486 1.419 . S
C1484 H1488 0.930 . S
C1485 C1484 1.369 . S
C1485 C1494 1.429 . S
C1486 C1484 1.419 . S
C1486 C1487 1.363 . S
C1486 H1489 0.929 . S
C1487 C1486 1.363 . S
C1487 C1493 1.428 . S
H1488 C1484 0.930 . S
H1489 C1486 0.929 . S
S1490 N1491 1.613 . S
S1490 N1492 1.610 . S
N1491 S1490 1.613 . S
N1491 C1494 1.350 . S
N1492 S1490 1.610 . S
N1492 C1493 1.351 . S
C1493 C1487 1.428 . S
C1493 N1492 1.351 . S
C1493 C1494 1.434 . S
C1494 C1485 1.429 . S
C1494 N1491 1.350 . S
C1494 C1493 1.434 . S
C1495 C1496 1.369 . S
C1495 C1497 1.419 . S
C1495 H1499 0.930 . S
C1496 C1495 1.369 . S
C1496 C1505 1.429 . S
C1497 C1495 1.419 . S
C1497 C1498 1.363 . S
C1497 H1500 0.929 . S
C1498 C1497 1.363 . S
C1498 C1504 1.428 . S
H1499 C1495 0.930 . S
H1500 C1497 0.929 . S
S1501 N1502 1.613 . S
S1501 N1503 1.610 . S
N1502 S1501 1.613 . S
N1502 C1505 1.350 . S
N1503 S1501 1.610 . S
N1503 C1504 1.351 . S
C1504 C1498 1.428 . S
C1504 N1503 1.351 . S
C1504 C1505 1.434 . S
C1505 C1496 1.429 . S
C1505 N1502 1.350 . S
C1505 C1504 1.434 . S
C1506 C1507 1.369 . S
C1506 C1508 1.419 . S
C1506 H1510 0.930 . S
C1507 C1506 1.369 . S
C1507 C1516 1.429 . S
C1508 C1506 1.419 . S
C1508 C1509 1.363 . S
C1508 H1511 0.929 . S
C1509 C1508 1.363 . S
C1509 C1515 1.428 . S
H1510 C1506 0.930 . S
H1511 C1508 0.929 . S
S1512 N1513 1.613 . S
S1512 N1514 1.610 . S
N1513 S1512 1.613 . S
N1513 C1516 1.350 . S
N1514 S1512 1.610 . S
N1514 C1515 1.351 . S
C1515 C1509 1.428 . S
C1515 N1514 1.351 . S
C1515 C1516 1.434 . S
C1516 C1507 1.429 . S
C1516 N1513 1.350 . S
C1516 C1515 1.434 . S
C1517 C1518 1.369 . S
C1517 C1519 1.419 . S
C1517 H1521 0.930 . S
C1518 C1517 1.369 . S
C1518 C1527 1.429 . S
C1519 C1517 1.419 . S
C1519 C1520 1.363 . S
C1519 H1522 0.949 . S
C1520 C1519 1.363 . S
C1520 C1526 1.428 . S
H1521 C1517 0.930 . S
H1522 C1519 0.949 . S
S1523 N1524 1.613 . S
S1523 N1525 1.610 . S
N1524 S1523 1.613 . S
N1524 C1527 1.350 . S
N1525 S1523 1.610 . S
N1525 C1526 1.351 . S
C1526 C1520 1.428 . S
C1526 N1525 1.351 . S
C1526 C1527 1.434 . S
C1527 C1518 1.429 . S
C1527 N1524 1.350 . S
C1527 C1526 1.434 . S
C1528 C1529 1.369 . S
C1528 C1530 1.419 . S
C1528 H1532 0.930 . S
C1529 C1528 1.369 . S
C1529 C1538 1.429 . S
C1530 C1528 1.419 . S
C1530 C1531 1.363 . S
C1530 H1533 0.929 . S
C1531 C1530 1.363 . S
C1531 C1537 1.428 . S
H1532 C1528 0.930 . S
H1533 C1530 0.929 . S
S1534 N1535 1.613 . S
S1534 N1536 1.610 . S
N1535 S1534 1.613 . S
N1535 C1538 1.350 . S
N1536 S1534 1.610 . S
N1536 C1537 1.351 . S
C1537 C1531 1.428 . S
C1537 N1536 1.351 . S
C1537 C1538 1.434 . S
C1538 C1529 1.429 . S
C1538 N1535 1.350 . S
C1538 C1537 1.434 . S
C1539 C1540 1.369 . S
C1539 C1541 1.419 . S
C1539 H1543 0.930 . S
C1540 C1539 1.369 . S
C1540 C1549 1.429 . S
C1541 C1539 1.419 . S
C1541 C1542 1.363 . S
C1541 H1544 0.929 . S
C1542 C1541 1.363 . S
C1542 C1548 1.428 . S
H1543 C1539 0.930 . S
H1544 C1541 0.929 . S
S1545 N1546 1.613 . S
S1545 N1547 1.610 . S
N1546 S1545 1.613 . S
N1546 C1549 1.350 . S
N1547 S1545 1.610 . S
N1547 C1548 1.351 . S
C1548 C1542 1.428 . S
C1548 N1547 1.351 . S
C1548 C1549 1.434 . S
C1549 C1540 1.429 . S
C1549 N1546 1.350 . S
C1549 C1548 1.434 . S
C1550 C1551 1.369 . S
C1550 C1552 1.419 . S
C1550 H1554 0.930 . S
C1551 C1550 1.369 . S
C1551 C1560 1.429 . S
C1552 C1550 1.419 . S
C1552 C1553 1.363 . S
C1552 H1555 0.929 . S
C1553 C1552 1.363 . S
C1553 C1559 1.428 . S
H1554 C1550 0.930 . S
H1555 C1552 0.929 . S
S1556 N1557 1.613 . S
S1556 N1558 1.610 . S
N1557 S1556 1.613 . S
N1557 C1560 1.350 . S
N1558 S1556 1.610 . S
N1558 C1559 1.351 . S
C1559 C1553 1.428 . S
C1559 N1558 1.351 . S
C1559 C1560 1.434 . S
C1560 C1551 1.429 . S
C1560 N1557 1.350 . S
C1560 C1559 1.434 . S
C1561 C1562 1.369 . S
C1561 C1563 1.419 . S
C1561 H1565 0.930 . S
C1562 C1561 1.369 . S
C1562 C1571 1.429 . S
C1563 C1561 1.419 . S
C1563 C1564 1.363 . S
C1563 H1566 0.929 . S
C1564 C1563 1.363 . S
C1564 C1570 1.428 . S
H1565 C1561 0.930 . S
H1566 C1563 0.929 . S
S1567 N1568 1.613 . S
S1567 N1569 1.610 . S
N1568 S1567 1.613 . S
N1568 C1571 1.350 . S
N1569 S1567 1.610 . S
N1569 C1570 1.351 . S
C1570 C1564 1.428 . S
C1570 N1569 1.351 . S
C1570 C1571 1.434 . S
C1571 C1562 1.429 . S
C1571 N1568 1.350 . S
C1571 C1570 1.434 . S
C1572 C1573 1.369 . S
C1572 C1574 1.419 . S
C1572 H1576 0.930 . S
C1573 C1572 1.369 . S
C1573 C1582 1.429 . S
C1574 C1572 1.419 . S
C1574 C1575 1.363 . S
C1574 H1577 0.929 . S
C1575 C1574 1.363 . S
C1575 C1581 1.428 . S
H1576 C1572 0.930 . S
H1577 C1574 0.929 . S
S1578 N1579 1.613 . S
S1578 N1580 1.610 . S
N1579 S1578 1.613 . S
N1579 C1582 1.350 . S
N1580 S1578 1.610 . S
N1580 C1581 1.351 . S
C1581 C1575 1.428 . S
C1581 N1580 1.351 . S
C1581 C1582 1.434 . S
C1582 C1573 1.429 . S
C1582 N1579 1.350 . S
C1582 C1581 1.434 . S
C1583 C1584 1.369 . S
C1583 C1585 1.419 . S
C1583 H1587 0.930 . S
C1584 C1583 1.369 . S
C1584 C1593 1.429 . S
C1585 C1583 1.419 . S
C1585 C1586 1.363 . S
C1585 H1588 0.929 . S
C1586 C1585 1.363 . S
C1586 C1592 1.428 . S
H1587 C1583 0.930 . S
H1588 C1585 0.929 . S
S1589 N1590 1.613 . S
S1589 N1591 1.610 . S
N1590 S1589 1.613 . S
N1590 C1593 1.350 . S
N1591 S1589 1.610 . S
N1591 C1592 1.351 . S
C1592 C1586 1.428 . S
C1592 N1591 1.351 . S
C1592 C1593 1.434 . S
C1593 C1584 1.429 . S
C1593 N1590 1.350 . S
C1593 C1592 1.434 . S
C1594 C1595 1.369 . S
C1594 C1596 1.419 . S
C1594 H1598 0.930 . S
C1595 C1594 1.369 . S
C1595 C1604 1.429 . S
C1596 C1594 1.419 . S
C1596 C1597 1.363 . S
C1596 H1599 0.929 . S
C1597 C1596 1.363 . S
C1597 C1603 1.428 . S
H1598 C1594 0.930 . S
H1599 C1596 0.929 . S
S1600 N1601 1.613 . S
S1600 N1602 1.610 . S
N1601 S1600 1.613 . S
N1601 C1604 1.350 . S
N1602 S1600 1.610 . S
N1602 C1603 1.351 . S
C1603 C1597 1.428 . S
C1603 N1602 1.351 . S
C1603 C1604 1.434 . S
C1604 C1595 1.429 . S
C1604 N1601 1.350 . S
C1604 C1603 1.434 . S
C1605 C1606 1.369 . S
C1605 C1607 1.419 . S
C1605 H1609 0.930 . S
C1606 C1605 1.369 . S
C1606 C1615 1.429 . S
C1607 C1605 1.419 . S
C1607 C1608 1.363 . S
C1607 H1610 0.929 . S
C1608 C1607 1.363 . S
C1608 C1614 1.428 . S
H1609 C1605 0.930 . S
H1610 C1607 0.929 . S
S1611 N1612 1.613 . S
S1611 N1613 1.610 . S
N1612 S1611 1.613 . S
N1612 C1615 1.350 . S
N1613 S1611 1.610 . S
N1613 C1614 1.351 . S
C1614 C1608 1.428 . S
C1614 N1613 1.351 . S
C1614 C1615 1.434 . S
C1615 C1606 1.429 . S
C1615 N1612 1.350 . S
C1615 C1614 1.434 . S
C1616 C1617 1.369 . S
C1616 C1618 1.419 1_545 S
C1616 H1620 0.930 . S
C1617 C1616 1.369 . S
C1617 C1626 1.429 . S
C1618 C1616 1.419 1_565 S
C1618 C1619 1.363 . S
C1618 H1621 0.929 . S
C1619 C1618 1.363 . S
C1619 C1625 1.428 . S
H1620 C1616 0.930 . S
H1621 C1618 0.929 . S
S1622 N1623 1.613 1_665 S
S1622 N1624 1.610 1_655 S
N1623 S1622 1.613 1_445 S
N1623 C1626 1.350 . S
N1624 S1622 1.610 1_455 S
N1624 C1625 1.351 . S
C1625 C1619 1.428 . S
C1625 N1624 1.351 . S
C1625 C1626 1.434 1_565 S
C1626 C1617 1.429 . S
C1626 N1623 1.350 . S
C1626 C1625 1.434 1_545 S
C1627 C1628 1.369 . S
C1627 C1629 1.419 . S
C1627 H1631 0.930 . S
C1628 C1627 1.369 . S
C1628 C1637 1.429 . S
C1629 C1627 1.419 . S
C1629 C1630 1.363 . S
C1629 H1632 0.929 . S
C1630 C1629 1.363 . S
C1630 C1636 1.428 . S
H1631 C1627 0.930 . S
H1632 C1629 0.929 . S
S1633 N1634 1.613 . S
S1633 N1635 1.610 . S
N1634 S1633 1.613 . S
N1634 C1637 1.350 . S
N1635 S1633 1.610 . S
N1635 C1636 1.351 . S
C1636 C1630 1.428 . S
C1636 N1635 1.351 . S
C1636 C1637 1.434 . S
C1637 C1628 1.429 . S
C1637 N1634 1.350 . S
C1637 C1636 1.434 . S
C1638 C1639 1.369 . S
C1638 C1640 1.419 . S
C1638 H1642 0.930 . S
C1639 C1638 1.369 . S
C1639 C1648 1.429 1_545 S
C1640 C1638 1.419 . S
C1640 C1641 1.363 1_545 S
C1640 H1643 0.929 . S
C1641 C1640 1.363 1_565 S
C1641 C1647 1.428 . S
H1642 C1638 0.930 . S
H1643 C1640 0.929 . S
S1644 N1645 1.613 . S
S1644 N1646 1.610 . S
N1645 S1644 1.613 . S
N1645 C1648 1.350 . S
N1646 S1644 1.610 . S
N1646 C1647 1.351 . S
C1647 C1641 1.428 . S
C1647 N1646 1.351 . S
C1647 C1648 1.434 . S
C1648 C1639 1.429 1_565 S
C1648 N1645 1.350 . S
C1648 C1647 1.434 . S
C1649 C1650 1.369 1_554 S
C1649 C1651 1.419 . S
C1649 H1653 0.930 . S
C1650 C1649 1.369 1_556 S
C1650 C1659 1.429 . S
C1651 C1649 1.419 . S
C1651 C1652 1.363 . S
C1651 H1654 0.929 . S
C1652 C1651 1.363 . S
C1652 C1658 1.428 1_554 S
H1653 C1649 0.930 . S
H1654 C1651 0.929 . S
S1655 N1656 1.613 . S
S1655 N1657 1.610 . S
N1656 S1655 1.613 . S
N1656 C1659 1.350 . S
N1657 S1655 1.610 . S
N1657 C1658 1.351 . S
C1658 C1652 1.428 1_556 S
C1658 N1657 1.351 . S
C1658 C1659 1.434 . S
C1659 C1650 1.429 . S
C1659 N1656 1.350 . S
C1659 C1658 1.434 . S
C1660 C1661 1.369 . S
C1660 C1662 1.419 1_565 S
C1660 H1664 0.930 . S
C1661 C1660 1.369 . S
C1661 C1670 1.429 . S
C1662 C1660 1.419 1_545 S
C1662 C1663 1.363 . S
C1662 H1665 0.929 . S
C1663 C1662 1.363 . S
C1663 C1669 1.428 . S
H1664 C1660 0.930 . S
H1665 C1662 0.929 . S
S1666 N1667 1.611 1_455 S
S1666 N1668 1.610 1_465 S
N1667 S1666 1.611 1_655 S
N1667 C1670 1.353 . S
N1668 S1666 1.610 1_645 S
N1668 C1669 1.351 . S
C1669 C1663 1.428 . S
C1669 N1668 1.351 . S
C1669 C1670 1.434 1_545 S
C1670 C1661 1.429 . S
C1670 N1667 1.353 . S
C1670 C1669 1.434 1_565 S
C1671 C1672 1.369 . S
C1671 C1673 1.419 . S
C1671 H1675 0.930 . S
C1672 C1671 1.369 . S
C1672 C1681 1.429 . S
C1673 C1671 1.419 . S
C1673 C1674 1.363 . S
C1673 H1676 0.929 . S
C1674 C1673 1.363 . S
C1674 C1680 1.428 . S
H1675 C1671 0.930 . S
H1676 C1673 0.929 . S
S1677 N1678 1.613 . S
S1677 N1679 1.610 . S
N1678 S1677 1.613 . S
N1678 C1681 1.350 . S
N1679 S1677 1.610 . S
N1679 C1680 1.351 . S
C1680 C1674 1.428 . S
C1680 N1679 1.351 . S
C1680 C1681 1.434 . S
C1681 C1672 1.429 . S
C1681 N1678 1.350 . S
C1681 C1680 1.434 . S
C1682 C1683 1.369 . S
C1682 C1684 1.419 1_545 S
C1682 H1686 0.930 . S
C1683 C1682 1.369 . S
C1683 C1692 1.429 . S
C1684 C1682 1.419 1_565 S
C1684 C1685 1.363 . S
C1684 H1687 0.929 . S
C1685 C1684 1.363 . S
C1685 C1691 1.428 . S
H1686 C1682 0.930 . S
H1687 C1684 0.929 . S
S1688 N1689 1.613 1_565 S
S1688 N1690 1.610 . S
N1689 S1688 1.613 1_545 S
N1689 C1692 1.350 . S
N1690 S1688 1.610 . S
N1690 C1691 1.351 . S
C1691 C1685 1.428 . S
C1691 N1690 1.351 . S
C1691 C1692 1.434 1_565 S
C1692 C1683 1.429 . S
C1692 N1689 1.350 . S
C1692 C1691 1.434 1_545 S
C1693 C1694 1.369 . S
C1693 C1695 1.419 . S
C1693 H1697 0.930 . S
C1694 C1693 1.369 . S
C1694 C1703 1.429 1_554 S
C1695 C1693 1.419 . S
C1695 C1696 1.363 1_554 S
C1695 H1698 0.929 . S
C1696 C1695 1.363 1_556 S
C1696 C1702 1.428 . S
H1697 C1693 0.930 . S
H1698 C1695 0.929 . S
S1699 N1700 1.613 . S
S1699 N1701 1.610 . S
N1700 S1699 1.613 . S
N1700 C1703 1.350 . S
N1701 S1699 1.610 . S
N1701 C1702 1.351 . S
C1702 C1696 1.428 . S
C1702 N1701 1.351 . S
C1702 C1703 1.434 . S
C1703 C1694 1.429 1_556 S
C1703 N1700 1.350 . S
C1703 C1702 1.434 . S
C1704 C1705 1.369 . S
C1704 C1706 1.419 . S
C1704 H1708 0.930 . S
C1705 C1704 1.369 . S
C1705 C1714 1.429 . S
C1706 C1704 1.419 . S
C1706 C1707 1.363 . S
C1706 H1709 0.929 . S
C1707 C1706 1.363 . S
C1707 C1713 1.428 . S
H1708 C1704 0.930 . S
H1709 C1706 0.929 . S
S1710 N1711 1.613 . S
S1710 N1712 1.610 . S
N1711 S1710 1.613 . S
N1711 C1714 1.350 . S
N1712 S1710 1.610 . S
N1712 C1713 1.351 . S
C1713 C1707 1.428 . S
C1713 N1712 1.351 . S
C1713 C1714 1.434 . S
C1714 C1705 1.429 . S
C1714 N1711 1.350 . S
C1714 C1713 1.434 . S
C1715 C1716 1.369 . S
C1715 C1717 1.419 1_554 S
C1715 H1719 0.930 . S
C1716 C1715 1.369 . S
C1716 C1725 1.429 . S
C1717 C1715 1.419 1_556 S
C1717 C1718 1.363 . S
C1717 H1720 0.929 . S
C1718 C1717 1.363 . S
C1718 C1724 1.428 . S
H1719 C1715 0.930 . S
H1720 C1717 0.929 . S
S1721 N1722 1.613 1_556 S
S1721 N1723 1.610 . S
N1722 S1721 1.613 1_554 S
N1722 C1725 1.350 . S
N1723 S1721 1.610 . S
N1723 C1724 1.351 . S
C1724 C1718 1.428 . S
C1724 N1723 1.351 . S
C1724 C1725 1.434 1_556 S
C1725 C1716 1.429 . S
C1725 N1722 1.350 . S
C1725 C1724 1.434 1_554 S
C1726 C1727 1.369 . S
C1726 C1728 1.419 . S
C1726 H1730 0.930 . S
C1727 C1726 1.369 . S
C1727 C1736 1.429 . S
C1728 C1726 1.419 . S
C1728 C1729 1.363 . S
C1728 H1731 0.929 . S
C1729 C1728 1.363 . S
C1729 C1735 1.428 . S
H1730 C1726 0.930 . S
H1731 C1728 0.929 . S
S1732 N1733 1.613 . S
S1732 N1734 1.610 . S
N1733 S1732 1.613 . S
N1733 C1736 1.350 . S
N1734 S1732 1.610 . S
N1734 C1735 1.351 . S
C1735 C1729 1.428 . S
C1735 N1734 1.351 . S
C1735 C1736 1.434 . S
C1736 C1727 1.429 . S
C1736 N1733 1.350 . S
C1736 C1735 1.434 . S
C1737 C1738 1.369 . S
C1737 C1739 1.419 . S
C1737 H1741 0.930 . S
C1738 C1737 1.369 . S
C1738 C1747 1.429 . S
C1739 C1737 1.419 . S
C1739 C1740 1.363 . S
C1739 H1742 0.929 . S
C1740 C1739 1.363 . S
C1740 C1746 1.428 . S
H1741 C1737 0.930 . S
H1742 C1739 0.929 . S
S1743 N1744 1.613 . S
S1743 N1745 1.610 . S
N1744 S1743 1.613 . S
N1744 C1747 1.350 . S
N1745 S1743 1.610 . S
N1745 C1746 1.351 . S
C1746 C1740 1.428 . S
C1746 N1745 1.351 . S
C1746 C1747 1.434 . S
C1747 C1738 1.429 . S
C1747 N1744 1.350 . S
C1747 C1746 1.434 . S
C1748 C1749 1.369 . S
C1748 C1750 1.419 . S
C1748 H1752 0.930 . S
C1749 C1748 1.369 . S
C1749 C1758 1.429 . S
C1750 C1748 1.419 . S
C1750 C1751 1.363 . S
C1750 H1753 0.929 . S
C1751 C1750 1.363 . S
C1751 C1757 1.428 . S
H1752 C1748 0.930 . S
H1753 C1750 0.929 . S
S1754 N1755 1.613 . S
S1754 N1756 1.610 . S
N1755 S1754 1.613 . S
N1755 C1758 1.350 . S
N1756 S1754 1.610 . S
N1756 C1757 1.351 . S
C1757 C1751 1.428 . S
C1757 N1756 1.351 . S
C1757 C1758 1.434 . S
C1758 C1749 1.429 . S
C1758 N1755 1.350 . S
C1758 C1757 1.434 . S
C1759 C1760 1.369 1_554 S
C1759 C1761 1.419 . S
C1759 H1763 0.930 . S
C1760 C1759 1.369 1_556 S
C1760 C1769 1.429 . S
C1761 C1759 1.419 . S
C1761 C1762 1.363 . S
C1761 H1764 0.929 . S
C1762 C1761 1.363 . S
C1762 C1768 1.428 1_554 S
H1763 C1759 0.930 . S
H1764 C1761 0.929 . S
S1765 N1766 1.613 . S
S1765 N1767 1.610 . S
N1766 S1765 1.613 . S
N1766 C1769 1.350 . S
N1767 S1765 1.610 . S
N1767 C1768 1.351 . S
C1768 C1762 1.428 1_556 S
C1768 N1767 1.351 . S
C1768 C1769 1.434 . S
C1769 C1760 1.429 . S
C1769 N1766 1.350 . S
C1769 C1768 1.434 . S
C1770 C1771 1.369 . S
C1770 C1772 1.419 . S
C1770 H1774 0.930 . S
C1771 C1770 1.369 . S
C1771 C1780 1.429 . S
C1772 C1770 1.419 . S
C1772 C1773 1.363 . S
C1772 H1775 0.929 . S
C1773 C1772 1.363 . S
C1773 C1779 1.428 . S
H1774 C1770 0.930 . S
H1775 C1772 0.929 . S
S1776 N1777 1.613 . S
S1776 N1778 1.610 . S
N1777 S1776 1.613 . S
N1777 C1780 1.350 . S
N1778 S1776 1.610 . S
N1778 C1779 1.351 . S
C1779 C1773 1.428 . S
C1779 N1778 1.351 . S
C1779 C1780 1.434 . S
C1780 C1771 1.429 . S
C1780 N1777 1.350 . S
C1780 C1779 1.434 . S
C1781 C1782 1.369 . S
C1781 C1783 1.419 . S
C1781 H1785 0.930 . S
C1782 C1781 1.369 . S
C1782 C1791 1.429 . S
C1783 C1781 1.419 . S
C1783 C1784 1.363 . S
C1783 H1786 0.929 . S
C1784 C1783 1.363 . S
C1784 C1790 1.428 . S
H1785 C1781 0.930 . S
H1786 C1783 0.929 . S
S1787 N1788 1.613 . S
S1787 N1789 1.610 . S
N1788 S1787 1.613 . S
N1788 C1791 1.350 . S
N1789 S1787 1.610 . S
N1789 C1790 1.351 . S
C1790 C1784 1.428 . S
C1790 N1789 1.351 . S
C1790 C1791 1.434 . S
C1791 C1782 1.429 . S
C1791 N1788 1.350 . S
C1791 C1790 1.434 . S
C1792 C1793 1.369 . S
C1792 C1794 1.419 . S
C1792 H1796 0.930 . S
C1793 C1792 1.369 . S
C1793 C1802 1.429 1_455 S
C1794 C1792 1.419 . S
C1794 C1795 1.363 1_455 S
C1794 H1797 0.929 . S
C1795 C1794 1.363 1_655 S
C1795 C1801 1.428 . S
H1796 C1792 0.930 . S
H1797 C1794 0.929 . S
S1798 N1799 1.613 . S
S1798 N1800 1.610 . S
N1799 S1798 1.613 . S
N1799 C1802 1.350 . S
N1800 S1798 1.610 . S
N1800 C1801 1.351 . S
C1801 C1795 1.428 . S
C1801 N1800 1.351 . S
C1801 C1802 1.434 . S
C1802 C1793 1.429 1_655 S
C1802 N1799 1.350 . S
C1802 C1801 1.434 . S
C1803 C1804 1.369 . S
C1803 C1805 1.419 1_655 S
C1803 H1807 0.930 . S
C1804 C1803 1.369 . S
C1804 C1813 1.429 . S
C1805 C1803 1.419 1_455 S
C1805 C1806 1.363 . S
C1805 H1808 0.929 . S
C1806 C1805 1.363 . S
C1806 C1812 1.428 . S
H1807 C1803 0.930 . S
H1808 C1805 0.929 . S
S1809 N1810 1.613 . S
S1809 N1811 1.610 1_655 S
N1810 S1809 1.613 . S
N1810 C1813 1.350 . S
N1811 S1809 1.610 1_455 S
N1811 C1812 1.351 . S
C1812 C1806 1.428 . S
C1812 N1811 1.351 . S
C1812 C1813 1.434 1_455 S
C1813 C1804 1.429 . S
C1813 N1810 1.350 . S
C1813 C1812 1.434 1_655 S
C1814 C1815 1.369 . S
C1814 C1816 1.419 . S
C1814 H1818 0.930 . S
C1815 C1814 1.369 . S
C1815 C1824 1.429 . S
C1816 C1814 1.419 . S
C1816 C1817 1.363 . S
C1816 H1819 0.929 . S
C1817 C1816 1.363 . S
C1817 C1823 1.428 . S
H1818 C1814 0.930 . S
H1819 C1816 0.929 . S
S1820 N1821 1.613 . S
S1820 N1822 1.610 . S
N1821 S1820 1.613 . S
N1821 C1824 1.350 . S
N1822 S1820 1.610 . S
N1822 C1823 1.351 . S
C1823 C1817 1.428 . S
C1823 N1822 1.351 . S
C1823 C1824 1.434 . S
C1824 C1815 1.429 . S
C1824 N1821 1.350 . S
C1824 C1823 1.434 . S
C1825 C1826 1.369 . S
C1825 C1827 1.419 . S
C1825 H1829 0.930 . S
C1826 C1825 1.369 . S
C1826 C1835 1.429 . S
C1827 C1825 1.419 . S
C1827 C1828 1.363 . S
C1827 H1830 0.929 . S
C1828 C1827 1.363 . S
C1828 C1834 1.428 . S
H1829 C1825 0.930 . S
H1830 C1827 0.929 . S
S1831 N1832 1.613 . S
S1831 N1833 1.610 . S
N1832 S1831 1.613 . S
N1832 C1835 1.350 . S
N1833 S1831 1.610 . S
N1833 C1834 1.351 . S
C1834 C1828 1.428 . S
C1834 N1833 1.351 . S
C1834 C1835 1.434 . S
C1835 C1826 1.429 . S
C1835 N1832 1.350 . S
C1835 C1834 1.434 . S
C1836 C1837 1.369 . S
C1836 C1838 1.419 . S
C1836 H1840 0.930 . S
C1837 C1836 1.369 . S
C1837 C1846 1.429 1_655 S
C1838 C1836 1.419 . S
C1838 C1839 1.363 1_655 S
C1838 H1841 0.929 . S
C1839 C1838 1.363 1_455 S
C1839 C1845 1.428 . S
H1840 C1836 0.930 . S
H1841 C1838 0.929 . S
S1842 N1843 1.613 . S
S1842 N1844 1.610 . S
N1843 S1842 1.613 . S
N1843 C1846 1.350 . S
N1844 S1842 1.610 . S
N1844 C1845 1.351 . S
C1845 C1839 1.428 . S
C1845 N1844 1.351 . S
C1845 C1846 1.434 . S
C1846 C1837 1.429 1_455 S
C1846 N1843 1.350 . S
C1846 C1845 1.434 . S
C1847 C1848 1.369 . S
C1847 C1849 1.419 . S
C1847 H1851 0.930 . S
C1848 C1847 1.369 . S
C1848 C1857 1.429 . S
C1849 C1847 1.419 . S
C1849 C1850 1.363 . S
C1849 H1852 0.929 . S
C1850 C1849 1.363 . S
C1850 C1856 1.428 . S
H1851 C1847 0.930 . S
H1852 C1849 0.929 . S
S1853 N1854 1.613 . S
S1853 N1855 1.610 . S
N1854 S1853 1.613 . S
N1854 C1857 1.350 . S
N1855 S1853 1.610 . S
N1855 C1856 1.351 . S
C1856 C1850 1.428 . S
C1856 N1855 1.351 . S
C1856 C1857 1.434 . S
C1857 C1848 1.429 . S
C1857 N1854 1.350 . S
C1857 C1856 1.434 . S
C1858 C1859 1.369 . S
C1858 C1860 1.419 . S
C1858 H1862 0.930 . S
C1859 C1858 1.369 . S
C1859 C1868 1.429 . S
C1860 C1858 1.419 . S
C1860 C1861 1.363 . S
C1860 H1863 0.929 . S
C1861 C1860 1.363 . S
C1861 C1867 1.428 . S
H1862 C1858 0.930 . S
H1863 C1860 0.929 . S
S1864 N1865 1.613 . S
S1864 N1866 1.610 . S
N1865 S1864 1.613 . S
N1865 C1868 1.350 . S
N1866 S1864 1.610 . S
N1866 C1867 1.351 . S
C1867 C1861 1.428 . S
C1867 N1866 1.351 . S
C1867 C1868 1.434 . S
C1868 C1859 1.429 . S
C1868 N1865 1.350 . S
C1868 C1867 1.434 . S
C1869 C1870 1.369 . S
C1869 C1871 1.419 1_455 S
C1869 H1873 0.930 . S
C1870 C1869 1.369 . S
C1870 C1879 1.429 . S
C1871 C1869 1.419 1_655 S
C1871 C1872 1.363 . S
C1871 H1874 0.929 . S
C1872 C1871 1.363 . S
C1872 C1878 1.428 . S
H1873 C1869 0.930 . S
H1874 C1871 0.929 . S
S1875 N1876 1.613 . S
S1875 N1877 1.610 1_455 S
N1876 S1875 1.613 . S
N1876 C1879 1.350 . S
N1877 S1875 1.610 1_655 S
N1877 C1878 1.351 . S
C1878 C1872 1.428 . S
C1878 N1877 1.351 . S
C1878 C1879 1.434 1_655 S
C1879 C1870 1.429 . S
C1879 N1876 1.350 . S
C1879 C1878 1.434 1_455 S
C1880 C1881 1.369 . S
C1880 C1882 1.419 . S
C1880 H1884 0.930 . S
C1881 C1880 1.369 . S
C1881 C1890 1.429 1_655 S
C1882 C1880 1.419 . S
C1882 C1883 1.363 1_655 S
C1882 H1885 0.929 . S
C1883 C1882 1.363 1_455 S
C1883 C1889 1.428 . S
H1884 C1880 0.930 . S
H1885 C1882 0.929 . S
S1886 N1887 1.613 . S
S1886 N1888 1.610 . S
N1887 S1886 1.613 . S
N1887 C1890 1.350 . S
N1888 S1886 1.610 . S
N1888 C1889 1.351 . S
C1889 C1883 1.428 . S
C1889 N1888 1.351 . S
C1889 C1890 1.434 . S
C1890 C1881 1.429 1_455 S
C1890 N1887 1.350 . S
C1890 C1889 1.434 . S
C1891 C1892 1.369 . S
C1891 C1893 1.419 1_455 S
C1891 H1895 0.930 . S
C1892 C1891 1.369 . S
C1892 C1901 1.429 . S
C1893 C1891 1.419 1_655 S
C1893 C1894 1.363 . S
C1893 H1896 0.929 . S
C1894 C1893 1.363 . S
C1894 C1900 1.428 . S
H1895 C1891 0.930 . S
H1896 C1893 0.929 . S
S1897 N1898 1.613 . S
S1897 N1899 1.610 1_455 S
N1898 S1897 1.613 . S
N1898 C1901 1.350 . S
N1899 S1897 1.610 1_655 S
N1899 C1900 1.351 . S
C1900 C1894 1.428 . S
C1900 N1899 1.351 . S
C1900 C1901 1.434 1_655 S
C1901 C1892 1.429 . S
C1901 N1898 1.350 . S
C1901 C1900 1.434 1_455 S
C1902 C1903 1.369 . S
C1902 C1904 1.419 . S
C1902 H1906 0.930 . S
C1903 C1902 1.369 . S
C1903 C1912 1.429 . S
C1904 C1902 1.419 . S
C1904 C1905 1.363 . S
C1904 H1907 0.929 . S
C1905 C1904 1.363 . S
C1905 C1911 1.428 . S
H1906 C1902 0.930 . S
H1907 C1904 0.929 . S
S1908 N1909 1.613 . S
S1908 N1910 1.610 . S
N1909 S1908 1.613 . S
N1909 C1912 1.350 . S
N1910 S1908 1.610 . S
N1910 C1911 1.351 . S
C1911 C1905 1.428 . S
C1911 N1910 1.351 . S
C1911 C1912 1.434 . S
C1912 C1903 1.429 . S
C1912 N1909 1.350 . S
C1912 C1911 1.434 . S
C1913 C1914 1.369 . S
C1913 C1915 1.419 . S
C1913 H1917 0.930 . S
C1914 C1913 1.369 . S
C1914 C1923 1.429 . S
C1915 C1913 1.419 . S
C1915 C1916 1.363 . S
C1915 H1918 0.929 . S
C1916 C1915 1.363 . S
C1916 C1922 1.428 . S
H1917 C1913 0.930 . S
H1918 C1915 0.929 . S
S1919 N1920 1.613 . S
S1919 N1921 1.610 . S
N1920 S1919 1.613 . S
N1920 C1923 1.350 . S
N1921 S1919 1.610 . S
N1921 C1922 1.351 . S
C1922 C1916 1.428 . S
C1922 N1921 1.351 . S
C1922 C1923 1.434 . S
C1923 C1914 1.429 . S
C1923 N1920 1.350 . S
C1923 C1922 1.434 . S
C1924 C1925 1.369 . S
C1924 C1926 1.419 1_655 S
C1924 H1928 0.930 . S
C1925 C1924 1.369 . S
C1925 C1934 1.429 . S
C1926 C1924 1.419 1_455 S
C1926 C1927 1.363 . S
C1926 H1929 0.929 . S
C1927 C1926 1.363 . S
C1927 C1933 1.428 . S
H1928 C1924 0.930 . S
H1929 C1926 0.929 . S
S1930 N1931 1.613 . S
S1930 N1932 1.610 1_655 S
N1931 S1930 1.613 . S
N1931 C1934 1.350 . S
N1932 S1930 1.610 1_455 S
N1932 C1933 1.351 . S
C1933 C1927 1.428 . S
C1933 N1932 1.351 . S
C1933 C1934 1.434 1_455 S
C1934 C1925 1.429 . S
C1934 N1931 1.350 . S
C1934 C1933 1.434 1_655 S
C1935 C1936 1.369 . S
C1935 C1937 1.419 . S
C1935 H1939 0.930 . S
C1936 C1935 1.369 . S
C1936 C1945 1.429 . S
C1937 C1935 1.419 . S
C1937 C1938 1.363 . S
C1937 H1940 0.929 . S
C1938 C1937 1.363 . S
C1938 C1944 1.428 . S
H1939 C1935 0.930 . S
H1940 C1937 0.929 . S
S1941 N1942 1.613 . S
S1941 N1943 1.610 . S
N1942 S1941 1.613 . S
N1942 C1945 1.350 . S
N1943 S1941 1.610 . S
N1943 C1944 1.351 . S
C1944 C1938 1.428 . S
C1944 N1943 1.351 . S
C1944 C1945 1.434 . S
C1945 C1936 1.429 . S
C1945 N1942 1.350 . S
C1945 C1944 1.434 . S
C1946 C1947 1.369 . S
C1946 C1948 1.419 . S
C1946 H1950 0.930 . S
C1947 C1946 1.369 . S
C1947 C1956 1.429 . S
C1948 C1946 1.419 . S
C1948 C1949 1.363 . S
C1948 H1951 0.929 . S
C1949 C1948 1.363 . S
C1949 C1955 1.428 . S
H1950 C1946 0.930 . S
H1951 C1948 0.929 . S
S1952 N1953 1.613 . S
S1952 N1954 1.610 . S
N1953 S1952 1.613 . S
N1953 C1956 1.350 . S
N1954 S1952 1.610 . S
N1954 C1955 1.351 . S
C1955 C1949 1.428 . S
C1955 N1954 1.351 . S
C1955 C1956 1.434 . S
C1956 C1947 1.429 . S
C1956 N1953 1.350 . S
C1956 C1955 1.434 . S
C1957 C1958 1.369 . S
C1957 C1959 1.419 1_655 S
C1957 H1961 0.930 . S
C1958 C1957 1.369 . S
C1958 C1967 1.429 . S
C1959 C1957 1.419 1_455 S
C1959 C1960 1.363 . S
C1959 H1962 0.929 . S
C1960 C1959 1.363 . S
C1960 C1966 1.428 . S
H1961 C1957 0.930 . S
H1962 C1959 0.929 . S
S1963 N1964 1.613 . S
S1963 N1965 1.610 1_655 S
N1964 S1963 1.613 . S
N1964 C1967 1.350 . S
N1965 S1963 1.610 1_455 S
N1965 C1966 1.351 . S
C1966 C1960 1.428 . S
C1966 N1965 1.351 . S
C1966 C1967 1.434 1_455 S
C1967 C1958 1.429 . S
C1967 N1964 1.350 . S
C1967 C1966 1.434 1_655 S
C1089 C951 1.440 . S
C1091 C2 1.473 . S
C1100 C305 1.445 1_455 S
C1102 C36 1.474 . S
C1111 C883 1.439 . S
C1113 C70 1.472 . S
C1122 C104 1.472 . S
C1124 C373 1.440 . S
C1133 C1019 1.442 . S
C1135 C138 1.474 . S
C1144 C509 1.443 . S
C1146 C172 1.473 . S
C1155 C206 1.474 . S
C1157 C1087 1.442 . S
C1166 C240 1.473 . S
C1168 C441 1.441 1_455 S
C1177 C679 1.443 . S
C1179 C274 1.473 . S
C1188 C33 1.438 1_655 S
C1190 C308 1.472 . S
C1199 C342 1.471 . S
C1201 C611 1.439 . S
C1210 C376 1.475 . S
C1212 C101 1.443 . S
C1221 C410 1.473 . S
C1223 C747 1.441 . S
C1232 C444 1.473 . S
C1234 C237 1.443 . S
C1243 C815 1.439 . S
C1245 C478 1.473 . S
C1254 C169 1.442 1_655 S
C1256 C512 1.472 . S
C1265 C407 1.440 . S
C1267 C546 1.473 . S
C1276 C580 1.472 . S
C1278 C849 1.441 . S
C1287 C339 1.443 . S
C1289 C614 1.474 . S
C1298 C648 1.471 . S
C1300 C917 1.438 1_655 S
C1309 C475 1.442 . S
C1311 C682 1.473 . S
C1320 C1053 1.444 1_655 S
C1322 C716 1.474 . S
C1331 C543 1.444 . S
C1333 C750 1.474 . S
C1342 C784 1.472 . S
C1344 C985 1.439 . S
C1353 C818 1.474 . S
C1355 C135 1.441 . S
C1364 C577 1.443 . S
C1366 C852 1.473 . S
C1375 C67 1.437 . S
C1377 C886 1.472 . S
C1386 C920 1.474 . S
C1388 C645 1.443 1_455 S
C1397 C954 1.472 . S
C1399 C203 1.439 . S
C1408 C988 1.471 . S
C1410 C781 1.439 1_455 S
C1419 C271 1.445 . S
C1421 C1022 1.474 . S
C1430 C1056 1.475 . S
C1432 C713 1.445 . S
C1441 C9 1.324 . S
C1443 C179 1.330 . S
C1452 C213 1.321 . S
C1454 C43 1.327 . S
C1463 C247 1.331 . S
C1465 C77 1.325 . S
C1474 C111 1.324 . S
C1476 C145 1.322 . S
C1485 C281 1.323 . S
C1487 C451 1.323 . S
C1496 C315 1.328 . S
C1498 C485 1.322 . S
C1507 C349 1.332 . S
C1509 C519 1.326 . S
C1518 C383 1.325 . S
C1520 C417 1.322 . S
C1529 C723 1.321 . S
C1531 C553 1.326 . S
C1540 C587 1.331 . S
C1542 C757 1.325 . S
C1551 C621 1.332 . S
C1553 C791 1.326 . S
C1562 C689 1.329 . S
C1564 C655 1.323 . S
C1573 C995 1.332 . S
C1575 C825 1.327 . S
C1584 C1029 1.331 . S
C1586 C859 1.328 . S
C1595 C1063 1.329 . S
C1597 C893 1.322 . S
C1606 C961 1.322 . S
C1608 C927 1.324 . S
C1617 C20 1.433 . S
C1619 C156 1.435 . S
C1628 C54 1.432 . S
C1630 C190 1.434 . S
C1639 C224 1.432 . S
C1641 C88 1.435 . S
C1650 C258 1.432 . S
C1652 C122 1.435 . S
C1661 C292 1.435 . S
C1663 C428 1.434 . S
C1672 C462 1.432 . S
C1674 C326 1.435 . S
C1683 C360 1.432 . S
C1685 C496 1.435 . S
C1694 C530 1.435 . S
C1696 C394 1.433 . S
C1705 C564 1.434 . S
C1707 C700 1.433 . S
C1716 C598 1.435 . S
C1718 C734 1.433 . S
C1727 C632 1.432 . S
C1729 C768 1.435 . S
C1738 C666 1.434 . S
C1740 C802 1.434 . S
C1749 C972 1.436 . S
C1751 C836 1.433 . S
C1760 C870 1.434 . S
C1762 C1006 1.435 . S
C1771 C904 1.432 . S
C1773 C1040 1.435 . S
C1782 C938 1.436 . S
C1784 C1074 1.433 . S
C1793 C5 1.031 . S
C1795 C617 1.027 . S
C1804 C651 1.030 . S
C1806 C39 1.021 . S
C1815 C73 1.020 . S
C1817 C549 1.021 . S
C1826 C107 1.029 . S
C1828 C583 1.021 . S
C1837 C753 1.032 . S
C1839 C141 1.024 . S
C1848 C787 1.031 . S
C1850 C175 1.023 . S
C1859 C209 1.025 . S
C1861 C685 1.020 . S
C1870 C243 1.032 . S
C1872 C719 1.024 . S
C1881 C277 1.026 . S
C1883 C889 1.020 . S
C1892 C923 1.032 . S
C1894 C311 1.025 . S
C1903 C821 1.027 . S
C1905 C345 1.030 . S
C1914 C379 1.028 . S
C1916 C855 1.021 . S
C1925 C413 1.031 . S
C1927 C1025 1.028 . S
C1936 C447 1.018 . S
C1938 C1059 1.026 . S
C1947 C481 1.026 . S
C1949 C957 1.030 . S
C1958 C515 1.030 . S
C1960 C991 1.022 . S
