# Generated by pormake.
# Topology wga, (5)-cn, num edge types: 1
# Building blocks:
#     Node 0, Type 0, BuildingBlock: XOMCOT_clean_sbu_1, # of connection points: 5
#     Node 1, Type 0, BuildingBlock: XOMCOT_clean_sbu_1, # of connection points: 5
#     Node 2, Type 0, BuildingBlock: XOMCOT_clean_sbu_1, # of connection points: 5
#     Node 3, Type 0, BuildingBlock: XOMCOT_clean_sbu_1, # of connection points: 5
#     Node 4, Type 0, BuildingBlock: XOMCOT_clean_sbu_1, # of connection points: 5
#     Node 5, Type 0, BuildingBlock: XOMCOT_clean_sbu_1, # of connection points: 5
#     Node 6, Type 0, BuildingBlock: XOMCOT_clean_sbu_1, # of connection points: 5
#     Node 7, Type 0, BuildingBlock: XOMCOT_clean_sbu_1, # of connection points: 5
#     Node 8, Type 0, BuildingBlock: XOMCOT_clean_sbu_1, # of connection points: 5
#     Node 9, Type 0, BuildingBlock: XOMCOT_clean_sbu_1, # of connection points: 5
#     Node 10, Type 0, BuildingBlock: XOMCOT_clean_sbu_1, # of connection points: 5
#     Node 11, Type 0, BuildingBlock: XOMCOT_clean_sbu_1, # of connection points: 5
#     Node 12, Type 0, BuildingBlock: XOMCOT_clean_sbu_1, # of connection points: 5
#     Node 13, Type 0, BuildingBlock: XOMCOT_clean_sbu_1, # of connection points: 5
#     Node 14, Type 0, BuildingBlock: XOMCOT_clean_sbu_1, # of connection points: 5
#     Node 15, Type 0, BuildingBlock: XOMCOT_clean_sbu_1, # of connection points: 5
#     Node 16, Type 0, BuildingBlock: XOMCOT_clean_sbu_1, # of connection points: 5
#     Node 17, Type 0, BuildingBlock: XOMCOT_clean_sbu_1, # of connection points: 5
#     Node 18, Type 0, BuildingBlock: XOMCOT_clean_sbu_1, # of connection points: 5
#     Node 19, Type 0, BuildingBlock: XOMCOT_clean_sbu_1, # of connection points: 5
#     Node 20, Type 0, BuildingBlock: XOMCOT_clean_sbu_1, # of connection points: 5
#     Node 21, Type 0, BuildingBlock: XOMCOT_clean_sbu_1, # of connection points: 5
#     Node 22, Type 0, BuildingBlock: XOMCOT_clean_sbu_1, # of connection points: 5
#     Node 23, Type 0, BuildingBlock: XOMCOT_clean_sbu_1, # of connection points: 5
#     Node 24, Type 0, BuildingBlock: XOMCOT_clean_sbu_1, # of connection points: 5
#     Node 25, Type 0, BuildingBlock: XOMCOT_clean_sbu_1, # of connection points: 5
#     Node 26, Type 0, BuildingBlock: XOMCOT_clean_sbu_1, # of connection points: 5
#     Node 27, Type 0, BuildingBlock: XOMCOT_clean_sbu_1, # of connection points: 5
#     Node 28, Type 0, BuildingBlock: XOMCOT_clean_sbu_1, # of connection points: 5
#     Node 29, Type 0, BuildingBlock: XOMCOT_clean_sbu_1, # of connection points: 5
#     Node 30, Type 0, BuildingBlock: XOMCOT_clean_sbu_1, # of connection points: 5
#     Node 31, Type 0, BuildingBlock: XOMCOT_clean_sbu_1, # of connection points: 5
#     Edge 32, Type (0, 0), BuildingBlock: TEMPAE_clean_linker_10, # of connection points: 2
#     Edge 33, Type (0, 0), BuildingBlock: TEMPAE_clean_linker_10, # of connection points: 2
#     Edge 34, Type (0, 0), BuildingBlock: TEMPAE_clean_linker_10, # of connection points: 2
#     Edge 35, Type (0, 0), BuildingBlock: TEMPAE_clean_linker_10, # of connection points: 2
#     Edge 36, Type (0, 0), BuildingBlock: TEMPAE_clean_linker_10, # of connection points: 2
#     Edge 37, Type (0, 0), BuildingBlock: TEMPAE_clean_linker_10, # of connection points: 2
#     Edge 38, Type (0, 0), BuildingBlock: TEMPAE_clean_linker_10, # of connection points: 2
#     Edge 39, Type (0, 0), BuildingBlock: TEMPAE_clean_linker_10, # of connection points: 2
#     Edge 40, Type (0, 0), BuildingBlock: TEMPAE_clean_linker_10, # of connection points: 2
#     Edge 41, Type (0, 0), BuildingBlock: TEMPAE_clean_linker_10, # of connection points: 2
#     Edge 42, Type (0, 0), BuildingBlock: TEMPAE_clean_linker_10, # of connection points: 2
#     Edge 43, Type (0, 0), BuildingBlock: TEMPAE_clean_linker_10, # of connection points: 2
#     Edge 44, Type (0, 0), BuildingBlock: TEMPAE_clean_linker_10, # of connection points: 2
#     Edge 45, Type (0, 0), BuildingBlock: TEMPAE_clean_linker_10, # of connection points: 2
#     Edge 46, Type (0, 0), BuildingBlock: TEMPAE_clean_linker_10, # of connection points: 2
#     Edge 47, Type (0, 0), BuildingBlock: TEMPAE_clean_linker_10, # of connection points: 2
#     Edge 48, Type (0, 0), BuildingBlock: TEMPAE_clean_linker_10, # of connection points: 2
#     Edge 49, Type (0, 0), BuildingBlock: TEMPAE_clean_linker_10, # of connection points: 2
#     Edge 50, Type (0, 0), BuildingBlock: TEMPAE_clean_linker_10, # of connection points: 2
#     Edge 51, Type (0, 0), BuildingBlock: TEMPAE_clean_linker_10, # of connection points: 2
#     Edge 52, Type (0, 0), BuildingBlock: TEMPAE_clean_linker_10, # of connection points: 2
#     Edge 53, Type (0, 0), BuildingBlock: TEMPAE_clean_linker_10, # of connection points: 2
#     Edge 54, Type (0, 0), BuildingBlock: TEMPAE_clean_linker_10, # of connection points: 2
#     Edge 55, Type (0, 0), BuildingBlock: TEMPAE_clean_linker_10, # of connection points: 2
#     Edge 56, Type (0, 0), BuildingBlock: TEMPAE_clean_linker_10, # of connection points: 2
#     Edge 57, Type (0, 0), BuildingBlock: TEMPAE_clean_linker_10, # of connection points: 2
#     Edge 58, Type (0, 0), BuildingBlock: TEMPAE_clean_linker_10, # of connection points: 2
#     Edge 59, Type (0, 0), BuildingBlock: TEMPAE_clean_linker_10, # of connection points: 2
#     Edge 60, Type (0, 0), BuildingBlock: TEMPAE_clean_linker_10, # of connection points: 2
#     Edge 61, Type (0, 0), BuildingBlock: TEMPAE_clean_linker_10, # of connection points: 2
#     Edge 62, Type (0, 0), BuildingBlock: TEMPAE_clean_linker_10, # of connection points: 2
#     Edge 63, Type (0, 0), BuildingBlock: TEMPAE_clean_linker_10, # of connection points: 2
#     Edge 64, Type (0, 0), BuildingBlock: TEMPAE_clean_linker_10, # of connection points: 2
#     Edge 65, Type (0, 0), BuildingBlock: TEMPAE_clean_linker_10, # of connection points: 2
#     Edge 66, Type (0, 0), BuildingBlock: TEMPAE_clean_linker_10, # of connection points: 2
#     Edge 67, Type (0, 0), BuildingBlock: TEMPAE_clean_linker_10, # of connection points: 2
#     Edge 68, Type (0, 0), BuildingBlock: TEMPAE_clean_linker_10, # of connection points: 2
#     Edge 69, Type (0, 0), BuildingBlock: TEMPAE_clean_linker_10, # of connection points: 2
#     Edge 70, Type (0, 0), BuildingBlock: TEMPAE_clean_linker_10, # of connection points: 2
#     Edge 71, Type (0, 0), BuildingBlock: TEMPAE_clean_linker_10, # of connection points: 2
#     Edge 72, Type (0, 0), BuildingBlock: TEMPAE_clean_linker_10, # of connection points: 2
#     Edge 73, Type (0, 0), BuildingBlock: TEMPAE_clean_linker_10, # of connection points: 2
#     Edge 74, Type (0, 0), BuildingBlock: TEMPAE_clean_linker_10, # of connection points: 2
#     Edge 75, Type (0, 0), BuildingBlock: TEMPAE_clean_linker_10, # of connection points: 2
#     Edge 76, Type (0, 0), BuildingBlock: TEMPAE_clean_linker_10, # of connection points: 2
#     Edge 77, Type (0, 0), BuildingBlock: TEMPAE_clean_linker_10, # of connection points: 2
#     Edge 78, Type (0, 0), BuildingBlock: TEMPAE_clean_linker_10, # of connection points: 2
#     Edge 79, Type (0, 0), BuildingBlock: TEMPAE_clean_linker_10, # of connection points: 2
#     Edge 80, Type (0, 0), BuildingBlock: TEMPAE_clean_linker_10, # of connection points: 2
#     Edge 81, Type (0, 0), BuildingBlock: TEMPAE_clean_linker_10, # of connection points: 2
#     Edge 82, Type (0, 0), BuildingBlock: TEMPAE_clean_linker_10, # of connection points: 2
#     Edge 83, Type (0, 0), BuildingBlock: TEMPAE_clean_linker_10, # of connection points: 2
#     Edge 84, Type (0, 0), BuildingBlock: TEMPAE_clean_linker_10, # of connection points: 2
#     Edge 85, Type (0, 0), BuildingBlock: TEMPAE_clean_linker_10, # of connection points: 2
#     Edge 86, Type (0, 0), BuildingBlock: TEMPAE_clean_linker_10, # of connection points: 2
#     Edge 87, Type (0, 0), BuildingBlock: TEMPAE_clean_linker_10, # of connection points: 2
#     Edge 88, Type (0, 0), BuildingBlock: TEMPAE_clean_linker_10, # of connection points: 2
#     Edge 89, Type (0, 0), BuildingBlock: TEMPAE_clean_linker_10, # of connection points: 2
#     Edge 90, Type (0, 0), BuildingBlock: TEMPAE_clean_linker_10, # of connection points: 2
#     Edge 91, Type (0, 0), BuildingBlock: TEMPAE_clean_linker_10, # of connection points: 2
#     Edge 92, Type (0, 0), BuildingBlock: TEMPAE_clean_linker_10, # of connection points: 2
#     Edge 93, Type (0, 0), BuildingBlock: TEMPAE_clean_linker_10, # of connection points: 2
#     Edge 94, Type (0, 0), BuildingBlock: TEMPAE_clean_linker_10, # of connection points: 2
#     Edge 95, Type (0, 0), BuildingBlock: TEMPAE_clean_linker_10, # of connection points: 2
#     Edge 96, Type (0, 0), BuildingBlock: TEMPAE_clean_linker_10, # of connection points: 2
#     Edge 97, Type (0, 0), BuildingBlock: TEMPAE_clean_linker_10, # of connection points: 2
#     Edge 98, Type (0, 0), BuildingBlock: TEMPAE_clean_linker_10, # of connection points: 2
#     Edge 99, Type (0, 0), BuildingBlock: TEMPAE_clean_linker_10, # of connection points: 2
#     Edge 100, Type (0, 0), BuildingBlock: TEMPAE_clean_linker_10, # of connection points: 2
#     Edge 101, Type (0, 0), BuildingBlock: TEMPAE_clean_linker_10, # of connection points: 2
#     Edge 102, Type (0, 0), BuildingBlock: TEMPAE_clean_linker_10, # of connection points: 2
#     Edge 103, Type (0, 0), BuildingBlock: TEMPAE_clean_linker_10, # of connection points: 2
#     Edge 104, Type (0, 0), BuildingBlock: TEMPAE_clean_linker_10, # of connection points: 2
#     Edge 105, Type (0, 0), BuildingBlock: TEMPAE_clean_linker_10, # of connection points: 2
#     Edge 106, Type (0, 0), BuildingBlock: TEMPAE_clean_linker_10, # of connection points: 2
#     Edge 107, Type (0, 0), BuildingBlock: TEMPAE_clean_linker_10, # of connection points: 2
#     Edge 108, Type (0, 0), BuildingBlock: TEMPAE_clean_linker_10, # of connection points: 2
#     Edge 109, Type (0, 0), BuildingBlock: TEMPAE_clean_linker_10, # of connection points: 2
#     Edge 110, Type (0, 0), BuildingBlock: TEMPAE_clean_linker_10, # of connection points: 2
#     Edge 111, Type (0, 0), BuildingBlock: TEMPAE_clean_linker_10, # of connection points: 2
# Relax obj value: 0.099
# Max RMSD: 0.109
# Mean RMSD: 0.109
data_MOF--net-wga--node1-XOMCOT_clean_sbu_1--edge1-TEMPAE_clean_linker_10
_symmetry_space_group_name_H-M    P1
_symmetry_Int_Tables_number       1
_symmetry_cell_setting            triclinic
loop_
_symmetry_equiv_pos_as_xyz
'x, y, z'
_cell_length_a     110.00096
_cell_length_b     109.95273
_cell_length_c     17.941346
_cell_angle_alpha  89.990324
_cell_angle_beta   89.969487
_cell_angle_gamma 89.977942
loop_
_atom_site_label
_atom_site_type_symbol
_atom_site_fract_x
_atom_site_fract_y
_atom_site_fract_z
_atom_type_partial_charge
C0 C 0.08401 0.58282 0.02441 0.0
C1 C 0.08406 0.58439 0.94828 0.0
N2 N 0.08572 0.57348 0.91555 0.0
N3 N 0.0857 0.57098 0.04051 0.0
C4 C 0.08672 0.5655 0.97292 0.0
H5 H 0.08258 0.58987 0.06547 0.0
Co6 Co 0.08531 0.56462 0.13806 0.0
C7 C 0.09819 0.54124 0.12256 0.0
O8 O 0.10468 0.54352 0.18238 0.0
N9 N 0.08461 0.55829 0.23702 0.0
C10 C 0.07948 0.54613 0.33131 0.0
C11 C 0.07983 0.54737 0.25516 0.0
C12 C 0.08702 0.56356 0.304 0.0
N13 N 0.08395 0.55633 0.36242 0.0
O14 O 0.102 0.5694 0.15111 0.0
H15 H 0.07647 0.54079 0.2154 0.0
H16 H 0.09045 0.57271 0.31026 0.0
O17 O 0.0903 0.54889 0.10003 0.0
C18 C 0.10317 0.58011 0.17726 0.0
O19 O 0.0933 0.58611 0.19595 0.0
N20 N 0.06886 0.56093 0.12569 0.0
C21 C 0.04367 0.5584 0.11485 0.0
C22 C 0.05148 0.55064 0.07503 0.0
C23 C 0.0641 0.55209 0.08085 0.0
C24 C 0.06144 0.56854 0.16452 0.0
C25 C 0.04884 0.5674 0.16029 0.0
H26 H 0.06996 0.54623 0.04859 0.0
H27 H 0.06539 0.57557 0.19908 0.0
H28 H 0.08771 0.55579 0.96566 0.0
H29 H 0.08292 0.59296 0.91942 0.0
H30 H 0.07605 0.53832 0.36144 0.0
H31 H 0.04788 0.54367 0.03852 0.0
H32 H 0.0432 0.5735 0.1928 0.0
C33 C 0.66482 0.83829 0.27043 0.0
C34 C 0.66388 0.83954 0.19444 0.0
N35 N 0.67513 0.83914 0.16485 0.0
N36 N 0.67661 0.8371 0.28946 0.0
C37 C 0.68272 0.83773 0.22375 0.0
H38 H 0.65732 0.83776 0.30925 0.0
Co39 Co 0.68123 0.83317 0.38729 0.0
C40 C 0.70823 0.83442 0.38969 0.0
O41 O 0.70864 0.82504 0.43476 0.0
N42 N 0.68547 0.82896 0.48962 0.0
C43 C 0.68986 0.81791 0.59081 0.0
C44 C 0.68826 0.8177 0.51532 0.0
C45 C 0.68549 0.83586 0.55296 0.0
N46 N 0.68812 0.82932 0.6153 0.0
O47 O 0.67718 0.84948 0.41676 0.0
H48 H 0.68938 0.80961 0.48219 0.0
H49 H 0.68355 0.84549 0.5538 0.0
O50 O 0.698 0.83839 0.36613 0.0
C51 C 0.66665 0.85059 0.44581 0.0
O52 O 0.66052 0.84066 0.46172 0.0
N53 N 0.68392 0.81708 0.35502 0.0
C54 C 0.68518 0.7923 0.32139 0.0
C55 C 0.69436 0.80031 0.29794 0.0
C56 C 0.69345 0.81272 0.31406 0.0
C57 C 0.67437 0.80966 0.37178 0.0
C58 C 0.6749 0.79721 0.35685 0.0
H59 H 0.70042 0.81871 0.29328 0.0
H60 H 0.66658 0.81336 0.40078 0.0
H61 H 0.69245 0.83648 0.2186 0.0
H62 H 0.65552 0.84033 0.16302 0.0
H63 H 0.69182 0.81007 0.6252 0.0
H64 H 0.70219 0.79701 0.26738 0.0
H65 H 0.66753 0.79146 0.37564 0.0
C66 C 0.4217 0.41786 0.55164 0.0
C67 C 0.42267 0.41708 0.47531 0.0
N68 N 0.41506 0.42527 0.44476 0.0
N69 N 0.41367 0.42666 0.56948 0.0
C70 C 0.40962 0.43091 0.503 0.0
H71 H 0.42677 0.41257 0.59181 0.0
Co72 Co 0.41042 0.43167 0.6674 0.0
C73 C 0.40942 0.45842 0.65696 0.0
O74 O 0.41668 0.45901 0.71502 0.0
N75 N 0.40675 0.43648 0.76775 0.0
C76 C 0.3967 0.44524 0.86187 0.0
C77 C 0.39749 0.44403 0.78579 0.0
C78 C 0.411 0.4327 0.83513 0.0
N79 N 0.40519 0.43808 0.8929 0.0
O80 O 0.39391 0.42637 0.65607 0.0
H81 H 0.39142 0.44825 0.74603 0.0
H82 H 0.41798 0.42594 0.8428 0.0
O83 O 0.4061 0.44807 0.63128 0.0
C84 C 0.39213 0.41594 0.68507 0.0
O85 O 0.40122 0.4107 0.72009 0.0
N86 N 0.42712 0.43581 0.67734 0.0
C87 C 0.45249 0.4381 0.68225 0.0
C88 C 0.44555 0.4452 0.63321 0.0
C89 C 0.43294 0.44371 0.63032 0.0
C90 C 0.43382 0.42837 0.72207 0.0
C91 C 0.44645 0.42956 0.72691 0.0
H92 H 0.42797 0.44856 0.58779 0.0
H93 H 0.4295 0.42088 0.75036 0.0
H94 H 0.40313 0.43825 0.49726 0.0
H95 H 0.42855 0.41099 0.44449 0.0
H96 H 0.39011 0.45062 0.89221 0.0
H97 H 0.44984 0.45167 0.59604 0.0
H98 H 0.45149 0.42339 0.76243 0.0
C99 C 0.83146 0.1673 0.74393 0.0
C100 C 0.83277 0.16805 0.66782 0.0
N101 N 0.82305 0.16278 0.63546 0.0
N102 N 0.82095 0.16161 0.76005 0.0
C103 C 0.816 0.15894 0.69285 0.0
H104 H 0.83777 0.17069 0.78522 0.0
Co105 Co 0.81593 0.15845 0.85764 0.0
C106 C 0.78929 0.15725 0.85114 0.0
O107 O 0.78907 0.16422 0.91065 0.0
N108 N 0.81117 0.15482 0.95793 0.0
C109 C 0.80394 0.14343 0.05094 0.0
C110 C 0.80489 0.14462 0.97505 0.0
C111 C 0.81412 0.15955 0.02564 0.0
N112 N 0.8098 0.1528 0.08308 0.0
O113 O 0.82137 0.14195 0.84653 0.0
H114 H 0.80148 0.13818 0.93459 0.0
H115 H 0.81987 0.16738 0.03362 0.0
O116 O 0.79949 0.15408 0.82254 0.0
C117 C 0.8318 0.14051 0.87628 0.0
O118 O 0.83671 0.14983 0.91085 0.0
N119 N 0.81182 0.1751 0.86698 0.0
C120 C 0.81013 0.20053 0.86835 0.0
C121 C 0.80252 0.19354 0.82251 0.0
C122 C 0.80373 0.1809 0.8212 0.0
C123 C 0.81965 0.18179 0.90918 0.0
C124 C 0.81879 0.19447 0.91209 0.0
H125 H 0.79853 0.17589 0.78053 0.0
H126 H 0.82712 0.17736 0.93711 0.0
H127 H 0.80752 0.15408 0.68606 0.0
H128 H 0.84027 0.17228 0.63863 0.0
H129 H 0.79944 0.13609 0.08016 0.0
H130 H 0.7959 0.19782 0.78635 0.0
H131 H 0.82528 0.1995 0.94535 0.0
C132 C 0.07482 0.41808 0.97932 0.0
C133 C 0.07407 0.41677 0.05547 0.0
N134 N 0.07927 0.42654 0.08785 0.0
N135 N 0.08045 0.42862 0.96316 0.0
C136 C 0.08307 0.4336 0.03042 0.0
H137 H 0.0715 0.41172 0.93805 0.0
Co138 Co 0.08371 0.43369 0.86563 0.0
C139 C 0.08523 0.46044 0.87492 0.0
O140 O 0.07833 0.46117 0.81531 0.0
N141 N 0.0874 0.43854 0.76564 0.0
C142 C 0.09872 0.44584 0.67255 0.0
C143 C 0.09754 0.4449 0.74849 0.0
C144 C 0.08269 0.43554 0.69797 0.0
N145 N 0.0894 0.43991 0.64045 0.0
O146 O 0.10024 0.42833 0.8772 0.0
H147 H 0.10396 0.44836 0.78892 0.0
H148 H 0.07491 0.42973 0.6901 0.0
O149 O 0.08807 0.45004 0.90178 0.0
C150 C 0.10197 0.4179 0.84795 0.0
O151 O 0.09281 0.4127 0.81339 0.0
N152 N 0.06707 0.43775 0.85524 0.0
C153 C 0.0417 0.43959 0.84701 0.0
C154 C 0.04842 0.44746 0.8927 0.0
C155 C 0.06104 0.44615 0.89777 0.0
C156 C 0.0606 0.42966 0.81364 0.0
C157 C 0.04796 0.43054 0.80753 0.0
H158 H 0.06583 0.45156 0.93846 0.0
H159 H 0.0652 0.42208 0.78776 0.0
H160 H 0.08788 0.4421 0.03727 0.0
H161 H 0.06991 0.40923 0.08466 0.0
H162 H 0.10602 0.4504 0.64328 0.0
H163 H 0.04389 0.45419 0.92698 0.0
H164 H 0.04313 0.42404 0.77329 0.0
C165 C 0.83182 0.84153 0.28872 0.0
C166 C 0.83281 0.84221 0.36509 0.0
N167 N 0.82193 0.83952 0.39515 0.0
N168 N 0.8203 0.83861 0.27003 0.0
C169 C 0.81452 0.8373 0.33649 0.0
H170 H 0.8391 0.8431 0.24955 0.0
Co171 Co 0.81423 0.83726 0.17184 0.0
C172 C 0.79117 0.85063 0.18405 0.0
O173 O 0.79409 0.85726 0.12579 0.0
N174 N 0.80809 0.83571 0.07274 0.0
C175 C 0.79538 0.8319 0.97859 0.0
C176 C 0.79676 0.83193 0.05478 0.0
C177 C 0.81354 0.8375 1.00559 0.0
N178 N 0.80595 0.83538 0.94759 0.0
O179 O 0.81879 0.85389 0.15371 0.0
H180 H 0.78987 0.8293 0.09462 0.0
H181 H 0.82285 0.84037 0.99864 0.0
O182 O 0.79841 0.84242 0.20744 0.0
C183 C 0.82928 0.85522 0.12472 0.0
O184 O 0.83556 0.84543 0.1077 0.0
N185 N 0.81076 0.82088 0.18873 0.0
C186 C 0.80901 0.79571 0.2057 0.0
C187 C 0.79982 0.80342 0.23283 0.0
C188 C 0.80085 0.81603 0.22373 0.0
C189 C 0.81979 0.81357 0.16264 0.0
C190 C 0.8191 0.80098 0.17042 0.0
H191 H 0.7937 0.8218 0.24495 0.0
H192 H 0.82761 0.81761 0.13574 0.0
H193 H 0.805 0.83499 0.34196 0.0
H194 H 0.84094 0.84439 0.39628 0.0
H195 H 0.78729 0.82929 0.94818 0.0
H196 H 0.79183 0.79973 0.26004 0.0
H197 H 0.82652 0.79543 0.14981 0.0
C198 C 0.41123 0.58212 0.53088 0.0
C199 C 0.41121 0.58371 0.60697 0.0
N200 N 0.4096 0.57279 0.6398 0.0
N201 N 0.40958 0.57028 0.51492 0.0
C202 C 0.40861 0.5648 0.58252 0.0
H203 H 0.41261 0.58917 0.48972 0.0
Co204 Co 0.40991 0.56398 0.41738 0.0
C205 C 0.39672 0.54087 0.43161 0.0
O206 O 0.39013 0.54362 0.37293 0.0
N207 N 0.41057 0.55772 0.31833 0.0
C208 C 0.41559 0.54554 0.22392 0.0
C209 C 0.41524 0.54675 0.30006 0.0
C210 C 0.40824 0.56305 0.25142 0.0
N211 N 0.41124 0.55581 0.19295 0.0
O212 O 0.39325 0.56882 0.40485 0.0
H213 H 0.41851 0.54011 0.33974 0.0
H214 H 0.40492 0.57224 0.24528 0.0
O215 O 0.40484 0.54823 0.45477 0.0
C216 C 0.39191 0.57953 0.37898 0.0
O217 O 0.40166 0.58563 0.35925 0.0
N218 N 0.42635 0.56019 0.4295 0.0
C219 C 0.45153 0.55752 0.43967 0.0
C220 C 0.44371 0.54954 0.47774 0.0
C221 C 0.43109 0.55109 0.47239 0.0
C222 C 0.43378 0.56802 0.39241 0.0
C223 C 0.44638 0.56683 0.39646 0.0
H224 H 0.42522 0.54505 0.50331 0.0
H225 H 0.42985 0.57525 0.35938 0.0
H226 H 0.40763 0.55509 0.58983 0.0
H227 H 0.41232 0.59228 0.63576 0.0
H228 H 0.41894 0.5377 0.1937 0.0
H229 H 0.4473 0.54233 0.51245 0.0
H230 H 0.45204 0.5731 0.36543 0.0
C231 C 0.66573 0.16066 0.73657 0.0
C232 C 0.66449 0.16008 0.81283 0.0
N233 N 0.67563 0.16052 0.84366 0.0
N234 N 0.67762 0.16128 0.71872 0.0
C235 C 0.68344 0.16132 0.78549 0.0
H236 H 0.65837 0.16065 0.69673 0.0
Co237 Co 0.6837 0.16175 0.62052 0.0
C238 C 0.70603 0.1472 0.63345 0.0
O239 O 0.70273 0.14063 0.57579 0.0
N240 N 0.68978 0.16244 0.52111 0.0
C241 C 0.70245 0.16512 0.42528 0.0
C242 C 0.70128 0.16543 0.50159 0.0
C243 C 0.68402 0.16084 0.45482 0.0
N244 N 0.69159 0.16228 0.39594 0.0
O245 O 0.67818 0.14528 0.60635 0.0
H246 H 0.70841 0.16781 0.54041 0.0
H247 H 0.6745 0.15867 0.44921 0.0
O248 O 0.69928 0.15587 0.6563 0.0
C249 C 0.6675 0.14407 0.57975 0.0
O250 O 0.66155 0.1539 0.55959 0.0
N251 N 0.68817 0.17799 0.63413 0.0
C252 C 0.69135 0.20306 0.6499 0.0
C253 C 0.69964 0.19485 0.68197 0.0
C254 C 0.69786 0.1823 0.67369 0.0
C255 C 0.68012 0.18579 0.6021 0.0
C256 C 0.68155 0.19834 0.60899 0.0
H257 H 0.70418 0.17614 0.70009 0.0
H258 H 0.67247 0.1822 0.57129 0.0
H259 H 0.69322 0.16174 0.79157 0.0
H260 H 0.65601 0.15957 0.8434 0.0
H261 H 0.71059 0.16712 0.39358 0.0
H262 H 0.70726 0.19809 0.71458 0.0
H263 H 0.67504 0.2043 0.58221 0.0
C264 C 0.9202 0.4199 0.98525 0.0
C265 C 0.92107 0.41888 0.06144 0.0
N266 N 0.91401 0.4275 0.0929 0.0
N267 N 0.91268 0.42915 0.96815 0.0
C268 C 0.90902 0.43362 0.0349 0.0
H269 H 0.92465 0.41415 0.94462 0.0
Co270 Co 0.90826 0.43305 0.8705 0.0
C271 C 0.90456 0.45957 0.86733 0.0
O272 O 0.91009 0.45971 0.80237 0.0
N273 N 0.90338 0.4366 0.77027 0.0
C274 C 0.89078 0.4419 0.67832 0.0
C275 C 0.89226 0.44114 0.75413 0.0
C276 C 0.90842 0.43456 0.70212 0.0
N277 N 0.90094 0.43774 0.64533 0.0
O278 O 0.89224 0.42687 0.8904 0.0
H279 H 0.88553 0.44369 0.79528 0.0
H280 H 0.9172 0.43044 0.69332 0.0
O281 O 0.90326 0.44948 0.90218 0.0
C282 C 0.89076 0.41607 0.86631 0.0
O283 O 0.8998 0.41091 0.83024 0.0
N284 N 0.92447 0.43805 0.85289 0.0
C285 C 0.94972 0.44096 0.84274 0.0
C286 C 0.94268 0.44892 0.88597 0.0
C287 C 0.93011 0.44719 0.89136 0.0
C288 C 0.93126 0.42998 0.81292 0.0
C289 C 0.94383 0.43143 0.8055 0.0
H290 H 0.92512 0.45279 0.93011 0.0
H291 H 0.927 0.42196 0.78996 0.0
H292 H 0.90252 0.44095 0.04088 0.0
H293 H 0.9265 0.41228 0.09134 0.0
H294 H 0.88279 0.44527 0.64974 0.0
H295 H 0.94689 0.45621 0.91725 0.0
H296 H 0.94897 0.42475 0.77425 0.0
C297 C 0.33055 0.17039 0.70588 0.0
C298 C 0.33171 0.1712 0.78208 0.0
N299 N 0.32238 0.1652 0.81403 0.0
N300 N 0.32052 0.16393 0.68928 0.0
C301 C 0.31571 0.16087 0.7563 0.0
H302 H 0.33668 0.1742 0.66491 0.0
Co303 Co 0.31586 0.16016 0.59171 0.0
C304 C 0.28914 0.15799 0.59668 0.0
O305 O 0.2887 0.16373 0.53245 0.0
N306 N 0.31149 0.15594 0.49173 0.0
C307 C 0.30501 0.14402 0.39925 0.0
C308 C 0.30591 0.14533 0.47513 0.0
C309 C 0.31404 0.16083 0.42382 0.0
N310 N 0.31016 0.15376 0.36667 0.0
O311 O 0.32146 0.14378 0.60689 0.0
H312 H 0.30285 0.13877 0.51598 0.0
H313 H 0.31913 0.1691 0.41549 0.0
O314 O 0.29947 0.1558 0.62676 0.0
C315 C 0.33209 0.14219 0.58023 0.0
O316 O 0.33732 0.15139 0.5461 0.0
N317 N 0.31151 0.17668 0.57807 0.0
C318 C 0.30917 0.202 0.56801 0.0
C319 C 0.30122 0.19517 0.61257 0.0
C320 C 0.30275 0.18258 0.61844 0.0
C321 C 0.31963 0.18326 0.53724 0.0
C322 C 0.3185 0.19587 0.53021 0.0
H323 H 0.29727 0.17777 0.65864 0.0
H324 H 0.32739 0.17877 0.51265 0.0
H325 H 0.30765 0.15533 0.76275 0.0
H326 H 0.33886 0.17593 0.8116 0.0
H327 H 0.30095 0.13639 0.37034 0.0
H328 H 0.29427 0.19959 0.64565 0.0
H329 H 0.32505 0.20079 0.49669 0.0
C330 C 0.58307 0.58095 0.50961 0.0
C331 C 0.58313 0.58255 0.5857 0.0
N332 N 0.58503 0.57168 0.61858 0.0
N333 N 0.58498 0.56913 0.49368 0.0
C334 C 0.58616 0.5637 0.56132 0.0
H335 H 0.58149 0.58794 0.46843 0.0
Co336 Co 0.58468 0.56279 0.39617 0.0
C337 C 0.59811 0.53981 0.41077 0.0
O338 O 0.60456 0.54243 0.35127 0.0
N339 N 0.58408 0.55649 0.29717 0.0
C340 C 0.5792 0.54426 0.20275 0.0
C341 C 0.57951 0.54548 0.27892 0.0
C342 C 0.5864 0.56182 0.23026 0.0
N343 N 0.58349 0.55455 0.17176 0.0
O344 O 0.60127 0.56777 0.38318 0.0
H345 H 0.57627 0.53883 0.31863 0.0
H346 H 0.58966 0.57103 0.22413 0.0
O347 O 0.58995 0.54714 0.43377 0.0
C348 C 0.60254 0.57847 0.35715 0.0
O349 O 0.59274 0.58456 0.33802 0.0
N350 N 0.56829 0.5588 0.40874 0.0
C351 C 0.54318 0.5556 0.41979 0.0
C352 C 0.55118 0.54827 0.46112 0.0
C353 C 0.56376 0.55002 0.45492 0.0
C354 C 0.56068 0.56609 0.36904 0.0
C355 C 0.54811 0.56461 0.37337 0.0
H356 H 0.56977 0.54441 0.48777 0.0
H357 H 0.56444 0.57316 0.33396 0.0
H358 H 0.58737 0.55402 0.56869 0.0
H359 H 0.58183 0.5911 0.61444 0.0
H360 H 0.57594 0.53639 0.17254 0.0
H361 H 0.54777 0.5412 0.49763 0.0
H362 H 0.5423 0.57066 0.3417 0.0
C363 C 0.16594 0.82658 0.22609 0.0
C364 C 0.16481 0.82573 0.30226 0.0
N365 N 0.17407 0.83186 0.33408 0.0
N366 N 0.17589 0.83317 0.20938 0.0
C367 C 0.18068 0.83628 0.2763 0.0
H368 H 0.15984 0.82272 0.1852 0.0
Co369 Co 0.18032 0.83706 0.11172 0.0
C370 C 0.20699 0.83922 0.1129 0.0
O371 O 0.20713 0.8333 0.04924 0.0
N372 N 0.18445 0.84141 1.01153 0.0
C373 C 0.19077 0.85343 0.91905 0.0
C374 C 0.18989 0.8521 0.99492 0.0
C375 C 0.18199 0.83649 0.94363 0.0
N376 N 0.18576 0.84362 0.88649 0.0
O377 O 0.17476 0.8534 0.12844 0.0
H378 H 0.19289 0.85868 0.03577 0.0
H379 H 0.17707 0.82812 0.93531 0.0
O380 O 0.19682 0.84145 0.14491 0.0
C381 C 0.16413 0.85516 0.10234 0.0
O382 O 0.15883 0.84616 0.06673 0.0
N383 N 0.18466 0.82056 0.09709 0.0
C384 C 0.18674 0.79519 0.0891 0.0
C385 C 0.1948 0.80204 0.13266 0.0
C386 C 0.19342 0.81466 0.13744 0.0
C387 C 0.17647 0.81398 0.05685 0.0
C388 C 0.17748 0.80134 0.05081 0.0
H389 H 0.19897 0.8195 0.1771 0.0
H390 H 0.16871 0.81849 0.03234 0.0
H391 H 0.18866 0.84195 0.28261 0.0
H392 H 0.15771 0.82092 0.33186 0.0
H393 H 0.19474 0.86111 0.89015 0.0
H394 H 0.20172 0.79764 0.16607 0.0
H395 H 0.17085 0.79642 0.01793 0.0
C396 C 0.91585 0.58249 0.01483 0.0
C397 C 0.91611 0.58419 0.93884 0.0
N398 N 0.91189 0.57406 0.90536 0.0
N399 N 0.91147 0.57133 0.03007 0.0
C400 C 0.90907 0.56641 0.96219 0.0
H401 H 0.91884 0.58892 0.05657 0.0
Co402 Co 0.91033 0.56512 0.12761 0.0
C403 C 0.89562 0.54328 0.08765 0.0
O404 O 0.88557 0.54795 0.11485 0.0
N405 N 0.90935 0.55891 0.22646 0.0
C406 C 0.91134 0.54613 0.32205 0.0
C407 C 0.91137 0.54721 0.24581 0.0
C408 C 0.90819 0.56479 0.29277 0.0
N409 N 0.90942 0.5572 0.35203 0.0
O410 O 0.8938 0.57068 0.13232 0.0
H411 H 0.9133 0.53991 0.2072 0.0
H412 H 0.90712 0.57453 0.29775 0.0
O413 O 0.90548 0.54937 0.08903 0.0
C414 C 0.89281 0.58152 0.15658 0.0
O415 O 0.9027 0.58719 0.17838 0.0
N416 N 0.92674 0.56066 0.1235 0.0
C417 C 0.95187 0.55692 0.11983 0.0
C418 C 0.94413 0.55057 0.07119 0.0
C419 C 0.93158 0.55263 0.07355 0.0
C420 C 0.93409 0.56696 0.17078 0.0
C421 C 0.94665 0.56519 0.17024 0.0
H422 H 0.92584 0.548 0.03387 0.0
H423 H 0.93017 0.57359 0.20827 0.0
H424 H 0.90569 0.55727 0.95435 0.0
H425 H 0.91919 0.59232 0.91057 0.0
H426 H 0.91286 0.53782 0.35303 0.0
H427 H 0.94774 0.54413 0.03126 0.0
H428 H 0.95225 0.57053 0.20752 0.0
C429 C 0.17142 0.17277 0.80138 0.0
C430 C 0.1702 0.17356 0.7252 0.0
N431 N 0.17976 0.16793 0.69307 0.0
N432 N 0.18171 0.1667 0.81782 0.0
C433 C 0.18661 0.16385 0.75069 0.0
H434 H 0.16517 0.17634 0.84245 0.0
Co435 Co 0.18657 0.16313 0.91536 0.0
C436 C 0.21333 0.16134 0.90828 0.0
O437 O 0.21394 0.16748 0.97103 0.0
N438 N 0.19119 0.15912 0.0153 0.0
C439 C 0.19807 0.14746 0.10802 0.0
C440 C 0.19714 0.14871 0.0321 0.0
C441 C 0.18845 0.16394 0.08313 0.0
N442 N 0.19256 0.15702 0.14042 0.0
O443 O 0.18126 0.14666 0.90126 0.0
H444 H 0.20038 0.14222 0.9914 0.0
H445 H 0.18305 0.17201 0.09129 0.0
O446 O 0.20294 0.15895 0.87969 0.0
C447 C 0.1708 0.14497 0.92993 0.0
O448 O 0.16561 0.15412 0.96482 0.0
N449 N 0.19057 0.17971 0.92818 0.0
C450 C 0.19196 0.2051 0.93747 0.0
C451 C 0.2002 0.19853 0.89339 0.0
C452 C 0.19916 0.18587 0.88794 0.0
C453 C 0.18221 0.18602 0.9687 0.0
C454 C 0.18286 0.19865 0.97541 0.0
H455 H 0.20486 0.18121 0.84824 0.0
H456 H 0.17459 0.18127 0.9932 0.0
H457 H 0.19489 0.15863 0.74409 0.0
H458 H 0.16286 0.17802 0.69581 0.0
H459 H 0.20236 0.13998 0.13707 0.0
H460 H 0.20701 0.20317 0.86035 0.0
H461 H 0.17612 0.20335 1.00873 0.0
C462 C 0.578 0.41586 0.54826 0.0
C463 C 0.57729 0.41455 0.4721 0.0
N464 N 0.58233 0.42441 0.43974 0.0
N465 N 0.58344 0.42651 0.56441 0.0
C466 C 0.58598 0.43153 0.49716 0.0
H467 H 0.57479 0.40945 0.58953 0.0
Co468 Co 0.58657 0.43164 0.66192 0.0
C469 C 0.58755 0.45835 0.65305 0.0
O470 O 0.58059 0.45886 0.71252 0.0
N471 N 0.59018 0.43655 0.76197 0.0
C472 C 0.60138 0.44408 0.85484 0.0
C473 C 0.6002 0.4431 0.77894 0.0
C474 C 0.58554 0.43349 0.82976 0.0
N475 N 0.59217 0.43799 0.88713 0.0
O476 O 0.60317 0.42656 0.65036 0.0
H477 H 0.60655 0.44666 0.73839 0.0
H478 H 0.57787 0.42753 0.83786 0.0
O479 O 0.59065 0.44804 0.6259 0.0
C480 C 0.60509 0.41625 0.68056 0.0
O481 O 0.59605 0.41099 0.716 0.0
N482 N 0.56988 0.43544 0.67207 0.0
C483 C 0.54449 0.43703 0.67959 0.0
C484 C 0.55116 0.44479 0.63284 0.0
C485 C 0.5638 0.44361 0.6283 0.0
C486 C 0.56347 0.4274 0.71452 0.0
C487 C 0.55083 0.4282 0.72046 0.0
H488 H 0.56856 0.44894 0.58705 0.0
H489 H 0.56812 0.41993 0.74119 0.0
H490 H 0.59065 0.44012 0.49032 0.0
H491 H 0.57327 0.40694 0.4429 0.0
H492 H 0.6086 0.44878 0.88396 0.0
H493 H 0.5466 0.45133 0.5974 0.0
H494 H 0.54606 0.42178 0.75566 0.0
C495 C 0.32617 0.82629 0.29238 0.0
C496 C 0.32735 0.82542 0.21626 0.0
N497 N 0.31802 0.83141 0.18413 0.0
N498 N 0.31613 0.83277 0.30874 0.0
C499 C 0.31133 0.83579 0.24167 0.0
H500 H 0.33226 0.82248 0.33351 0.0
Co501 Co 0.3115 0.83642 0.40638 0.0
C502 C 0.2849 0.8389 0.40317 0.0
O503 O 0.28464 0.83274 0.46594 0.0
N504 N 0.3072 0.84053 0.50666 0.0
C505 C 0.30086 0.85248 0.59945 0.0
C506 C 0.30175 0.8512 0.52358 0.0
C507 C 0.30971 0.83556 0.57442 0.0
N508 N 0.30591 0.84266 0.63174 0.0
O509 O 0.31745 0.8527 0.39245 0.0
H510 H 0.29879 0.85784 0.48295 0.0
H511 H 0.31471 0.82724 0.5825 0.0
O512 O 0.29514 0.84123 0.37223 0.0
C513 C 0.328 0.85413 0.4204 0.0
O514 O 0.33296 0.8449 0.45565 0.0
N515 N 0.30678 0.81995 0.41817 0.0
C516 C 0.30431 0.79458 0.41914 0.0
C517 C 0.29666 0.80185 0.37534 0.0
C518 C 0.29822 0.81445 0.37426 0.0
C519 C 0.31455 0.81298 0.45912 0.0
C520 C 0.31332 0.80033 0.46181 0.0
H521 H 0.293 0.81962 0.33449 0.0
H522 H 0.32228 0.81716 0.48603 0.0
H523 H 0.30325 0.8413 0.23509 0.0
H524 H 0.3345 0.82064 0.18692 0.0
H525 H 0.2969 0.86014 0.62854 0.0
H526 H 0.28976 0.79781 0.34013 0.0
H527 H 0.31981 0.79505 0.49367 0.0
C528 C 0.57639 0.07777 0.55026 0.0
C529 C 0.57555 0.07888 0.47411 0.0
N530 N 0.58208 0.06988 0.44233 0.0
N531 N 0.58337 0.06809 0.567 0.0
C532 C 0.58673 0.06344 0.50012 0.0
H533 H 0.57226 0.0837 0.59112 0.0
Co534 Co 0.5874 0.06384 0.6647 0.0
C535 C 0.58995 0.03725 0.66587 0.0
O536 O 0.58409 0.03734 0.72973 0.0
N537 N 0.5919 0.05995 0.765 0.0
C538 C 0.60418 0.05403 0.85719 0.0
C539 C 0.60276 0.05484 0.78137 0.0
C540 C 0.58695 0.0623 0.83301 0.0
N541 N 0.59424 0.05875 0.88994 0.0
O542 O 0.6036 0.06975 0.6474 0.0
H543 H 0.60939 0.05199 0.74036 0.0
H544 H 0.57845 0.06695 0.84162 0.0
O545 O 0.59209 0.04733 0.63237 0.0
C546 C 0.6051 0.08045 0.67312 0.0
O547 O 0.59598 0.08558 0.70862 0.0
N548 N 0.571 0.05915 0.67967 0.0
C549 C 0.5457 0.05638 0.68665 0.0
C550 C 0.55279 0.0487 0.64193 0.0
C551 C 0.56536 0.05039 0.63796 0.0
C552 C 0.56417 0.06701 0.7209 0.0
C553 C 0.55157 0.06562 0.72675 0.0
H554 H 0.57037 0.04506 0.59792 0.0
H555 H 0.56841 0.07487 0.74593 0.0
H556 H 0.59273 0.0557 0.49389 0.0
H557 H 0.57047 0.08578 0.44447 0.0
H558 H 0.61197 0.05029 0.88594 0.0
H559 H 0.54861 0.04165 0.60843 0.0
H560 H 0.5464 0.07213 0.75914 0.0
C561 C 0.16877 0.32899 0.80802 0.0
C562 C 0.16758 0.32819 0.73181 0.0
N563 N 0.17699 0.33405 0.69976 0.0
N564 N 0.1789 0.33531 0.82449 0.0
C565 C 0.18373 0.33829 0.7574 0.0
H566 H 0.16262 0.32524 0.84908 0.0
Co567 Co 0.18371 0.33893 0.922 0.0
C568 C 0.21038 0.34135 0.91475 0.0
O569 O 0.21097 0.33539 0.97819 0.0
N570 N 0.18825 0.34302 0.02204 0.0
C571 C 0.19483 0.35488 0.11455 0.0
C572 C 0.1939 0.35359 0.03867 0.0
C573 C 0.18567 0.33814 0.08998 0.0
N574 N 0.18961 0.34518 0.14715 0.0
O575 O 0.17772 0.35523 0.90882 0.0
H576 H 0.19693 0.36017 0.99786 0.0
H577 H 0.18047 0.32995 0.09836 0.0
O578 O 0.19998 0.34364 0.88592 0.0
C579 C 0.16725 0.35652 0.93824 0.0
O580 O 0.16251 0.34718 0.97362 0.0
N581 N 0.1884 0.32247 0.93366 0.0
C582 C 0.19123 0.29716 0.94031 0.0
C583 C 0.19868 0.30425 0.89404 0.0
C584 C 0.19694 0.31682 0.89023 0.0
C585 C 0.1807 0.31563 0.97596 0.0
C586 C 0.18213 0.30303 0.98162 0.0
H587 H 0.20209 0.32185 0.84935 0.0
H588 H 0.17296 0.31988 1.00229 0.0
H589 H 0.19188 0.34369 0.75082 0.0
H590 H 0.16036 0.32354 0.70236 0.0
H591 H 0.19892 0.36249 0.14343 0.0
H592 H 0.20561 0.30008 0.85953 0.0
H593 H 0.17577 0.29787 0.01513 0.0
C594 C 0.91072 0.91572 0.99412 0.0
C595 C 0.91065 0.9142 0.91797 0.0
N596 N 0.90942 0.92519 0.88546 0.0
N597 N 0.90946 0.92761 1.01044 0.0
C598 C 0.90869 0.93317 0.94296 0.0
H599 H 0.91189 0.9086 0.03502 0.0
Co600 Co 0.91014 0.93391 0.10802 0.0
C601 C 0.89707 0.95711 0.09485 0.0
O602 O 0.89058 0.95446 0.15417 0.0
N603 N 0.91114 0.94018 0.207 0.0
C604 C 0.91642 0.95234 0.30097 0.0
C605 C 0.91602 0.95107 0.22483 0.0
C606 C 0.90871 0.93497 0.27414 0.0
N607 N 0.91187 0.94219 0.33234 0.0
O608 O 0.89351 0.92923 0.12282 0.0
H609 H 0.91935 0.95763 0.18485 0.0
H610 H 0.90517 0.92587 0.28073 0.0
O611 O 0.90509 0.94967 0.0712 0.0
C612 C 0.89232 0.91858 0.14975 0.0
O613 O 0.90218 0.91247 0.16747 0.0
N614 N 0.92656 0.93752 0.09384 0.0
C615 C 0.95173 0.93982 0.08038 0.0
C616 C 0.94389 0.9479 0.04325 0.0
C617 C 0.93128 0.94657 0.05048 0.0
C618 C 0.93399 0.92954 0.12953 0.0
C619 C 0.94659 0.93052 0.12376 0.0
H620 H 0.92539 0.95277 0.02082 0.0
H621 H 0.93006 0.92228 0.16242 0.0
H622 H 0.90808 0.94291 0.93589 0.0
H623 H 0.91151 0.90562 0.88892 0.0
H624 H 0.91991 0.96014 0.3309 0.0
H625 H 0.94746 0.95522 1.00931 0.0
H626 H 0.95223 0.92391 0.15205 0.0
C627 C 0.33167 0.6628 0.29334 0.0
C628 C 0.33329 0.66281 0.21723 0.0
N629 N 0.32243 0.66099 0.18425 0.0
N630 N 0.31986 0.66093 0.30915 0.0
C631 C 0.31443 0.65986 0.24145 0.0
H632 H 0.33868 0.66425 0.33464 0.0
Co633 Co 0.31349 0.66089 0.40666 0.0
C634 C 0.29017 0.6481 0.3882 0.0
O635 O 0.29254 0.64122 0.4463 0.0
N636 N 0.30716 0.66117 0.50564 0.0
C637 C 0.29496 0.66597 0.60041 0.0
C638 C 0.29615 0.66568 0.52425 0.0
C639 C 0.31255 0.65888 0.57241 0.0
N640 N 0.3053 0.66176 0.63111 0.0
O641 O 0.31809 0.6441 0.41637 0.0
H642 H 0.28948 0.66897 0.48484 0.0
H643 H 0.32181 0.65574 0.57827 0.0
O644 O 0.29772 0.65622 0.36758 0.0
C645 C 0.32878 0.64264 0.44213 0.0
O646 O 0.33491 0.65232 0.46299 0.0
N647 N 0.30998 0.67744 0.39769 0.0
C648 C 0.30755 0.7027 0.3955 0.0
C649 C 0.29942 0.69527 0.35572 0.0
C650 C 0.30084 0.68261 0.35704 0.0
C651 C 0.31798 0.68448 0.43608 0.0
C652 C 0.31692 0.69712 0.43598 0.0
H653 H 0.29466 0.67704 0.32514 0.0
H654 H 0.32522 0.68021 0.46736 0.0
H655 H 0.30476 0.65867 0.23398 0.0
H656 H 0.34186 0.66405 0.18856 0.0
H657 H 0.28712 0.66924 0.63085 0.0
H658 H 0.29216 0.69922 0.32294 0.0
H659 H 0.32332 0.70246 0.4681 0.0
C660 C 0.57617 0.91658 0.50608 0.0
C661 C 0.57533 0.91542 0.58221 0.0
N662 N 0.58137 0.92472 0.61415 0.0
N663 N 0.58267 0.92659 0.48952 0.0
C664 C 0.58573 0.9314 0.55649 0.0
H665 H 0.57236 0.91046 0.4651 0.0
Co666 Co 0.58643 0.93106 0.39182 0.0
C667 C 0.58846 0.9577 0.3924 0.0
O668 O 0.58228 0.95767 0.32968 0.0
N669 N 0.59066 0.93521 0.29149 0.0
C670 C 0.60264 0.94158 0.19893 0.0
C671 C 0.60132 0.94069 0.27477 0.0
C672 C 0.58574 0.9327 0.22366 0.0
N673 N 0.59285 0.93651 0.16648 0.0
O674 O 0.60277 0.92537 0.40729 0.0
H675 H 0.6079 0.94372 0.31554 0.0
H676 H 0.57741 0.92773 0.21543 0.0
O677 O 0.59092 0.9476 0.42474 0.0
C678 C 0.60421 0.91473 0.3806 0.0
O679 O 0.59498 0.90964 0.3461 0.0
N680 N 0.56993 0.93546 0.37839 0.0
C681 C 0.54454 0.93749 0.37322 0.0
C682 C 0.55149 0.94546 0.41686 0.0
C683 C 0.56411 0.9441 0.42021 0.0
C684 C 0.56327 0.92736 0.33796 0.0
C685 C 0.55062 0.92835 0.33328 0.0
H686 H 0.56904 0.94956 0.45995 0.0
H687 H 0.56771 0.91965 0.31246 0.0
H688 H 0.59131 0.93943 0.56289 0.0
H689 H 0.57057 0.90827 0.6117 0.0
H690 H 0.61029 0.94558 0.16996 0.0
H691 H 0.54715 0.95228 0.45143 0.0
H692 H 0.54563 0.9218 0.30023 0.0
C693 C 0.32729 0.32591 0.70454 0.0
C694 C 0.32848 0.32511 0.78075 0.0
N695 N 0.31903 0.33094 0.81275 0.0
N696 N 0.31713 0.33218 0.68798 0.0
C697 C 0.31227 0.33514 0.75506 0.0
H698 H 0.33348 0.3222 0.66352 0.0
Co699 Co 0.31234 0.33584 0.59045 0.0
C700 C 0.28561 0.33814 0.59795 0.0
O701 O 0.28489 0.33199 0.53528 0.0
N702 N 0.30778 0.33997 0.4905 0.0
C703 C 0.30106 0.35177 0.39799 0.0
C704 C 0.30201 0.35048 0.47388 0.0
C705 C 0.31041 0.33512 0.42254 0.0
N706 N 0.30639 0.34212 0.36538 0.0
O707 O 0.31804 0.35219 0.60458 0.0
H708 H 0.29889 0.35702 0.51471 0.0
H709 H 0.31568 0.32697 0.41415 0.0
O710 O 0.29605 0.34039 0.62629 0.0
C711 C 0.32859 0.35371 0.57662 0.0
O712 O 0.3336 0.34453 0.5411 0.0
N713 N 0.30793 0.31935 0.57782 0.0
C714 C 0.30583 0.294 0.56941 0.0
C715 C 0.29802 0.3008 0.6151 0.0
C716 C 0.29937 0.31343 0.61971 0.0
C717 C 0.31595 0.31279 0.53616 0.0
C718 C 0.3149 0.30018 0.5296 0.0
H719 H 0.29393 0.31828 0.65997 0.0
H720 H 0.32365 0.3173 0.511 0.0
H721 H 0.3041 0.34052 0.76158 0.0
H722 H 0.33572 0.32051 0.81025 0.0
H723 H 0.29689 0.35933 0.36909 0.0
H724 H 0.29112 0.29638 0.64852 0.0
H725 H 0.32152 0.29525 0.49663 0.0
C726 C 0.91134 0.08266 0.98929 0.0
C727 C 0.91014 0.08371 0.06528 0.0
N728 N 0.91 0.07247 0.09511 0.0
N729 N 0.91198 0.07082 0.97053 0.0
C730 C 0.91106 0.06478 0.03638 0.0
H731 H 0.91221 0.09011 0.95029 0.0
Co732 Co 0.91563 0.06591 0.87277 0.0
C733 C 0.91516 0.03883 0.87734 0.0
O734 O 0.92476 0.03828 0.83418 0.0
N735 N 0.91957 0.06133 0.77044 0.0
C736 C 0.93039 0.05633 0.66932 0.0
C737 C 0.93065 0.05789 0.74482 0.0
C738 C 0.91272 0.06175 0.70695 0.0
N739 N 0.91912 0.05876 0.64465 0.0
O740 O 0.89915 0.06949 0.84513 0.0
H741 H 0.93866 0.05634 0.77811 0.0
H742 H 0.90323 0.06429 0.7059 0.0
O743 O 0.91083 0.04913 0.89699 0.0
C744 C 0.89775 0.08005 0.81712 0.0
O745 O 0.90751 0.08647 0.80147 0.0
N746 N 0.93188 0.06372 0.90295 0.0
C747 C 0.9568 0.06302 0.93195 0.0
C748 C 0.94902 0.05412 0.9615 0.0
C749 C 0.93651 0.05475 0.9474 0.0
C750 C 0.93912 0.07309 0.88048 0.0
C751 C 0.95163 0.07281 0.8931 0.0
H752 H 0.93067 0.04797 0.97196 0.0
H753 H 0.9352 0.08053 0.84921 0.0
H754 H 0.91185 0.055 0.04176 0.0
H755 H 0.90973 0.09212 0.09652 0.0
H756 H 0.93813 0.05396 0.63506 0.0
H757 H 0.95258 0.04657 0.99357 0.0
H758 H 0.95723 0.08013 0.87173 0.0
C759 C 0.1669 0.66997 0.2435 0.0
C760 C 0.16559 0.67066 0.31969 0.0
N761 N 0.17538 0.66547 0.35193 0.0
N762 N 0.17747 0.66439 0.2272 0.0
C763 C 0.18246 0.66174 0.2944 0.0
H764 H 0.16054 0.67329 0.20231 0.0
Co765 Co 0.1826 0.66118 0.12969 0.0
C766 C 0.20931 0.65999 0.13944 0.0
O767 O 0.20996 0.66695 0.08002 0.0
N768 N 0.18752 0.6575 0.02965 0.0
C769 C 0.19502 0.64621 0.93688 0.0
C770 C 0.19404 0.64744 1.0128 0.0
C771 C 0.18446 0.66211 0.96178 0.0
N772 N 0.18895 0.65543 0.90448 0.0
O773 O 0.17734 0.64462 0.14128 0.0
H774 H 0.19759 0.64109 0.05342 0.0
H775 H 0.1785 0.66977 0.95352 0.0
O776 O 0.19895 0.65695 0.16603 0.0
C777 C 0.16701 0.64289 0.11094 0.0
O778 O 0.16192 0.65205 0.07563 0.0
N779 N 0.18655 0.67785 0.1193 0.0
C780 C 0.18851 0.7032 0.10933 0.0
C781 C 0.19602 0.69655 0.15773 0.0
C782 C 0.1947 0.68393 0.16319 0.0
C783 C 0.17866 0.68427 0.07594 0.0
C784 C 0.17967 0.69687 0.06854 0.0
H785 H 0.19995 0.67917 0.20482 0.0
H786 H 0.17112 0.67966 0.04973 0.0
H787 H 0.19098 0.65695 0.30114 0.0
H788 H 0.15803 0.67477 0.34901 0.0
H789 H 0.19968 0.63896 0.90782 0.0
H790 H 0.20272 0.70108 0.1921 0.0
H791 H 0.17322 0.70168 0.0337 0.0
C792 C 0.41316 0.91294 0.48385 0.0
C793 C 0.41316 0.91129 0.55993 0.0
N794 N 0.411 0.92209 0.59311 0.0
N795 N 0.41096 0.92472 0.46822 0.0
C796 C 0.40968 0.93007 0.53601 0.0
H797 H 0.41483 0.906 0.44242 0.0
Co798 Co 0.41081 0.93114 0.37076 0.0
C799 C 0.39813 0.95456 0.39067 0.0
O800 O 0.39119 0.95236 0.33268 0.0
N801 N 0.41096 0.93751 0.27183 0.0
C802 C 0.41569 0.94971 0.17696 0.0
C803 C 0.41544 0.94854 0.25314 0.0
C804 C 0.40865 0.93211 0.20512 0.0
N805 N 0.4115 0.93935 0.14633 0.0
O806 O 0.39401 0.92653 0.36163 0.0
H807 H 0.41877 0.9552 0.29249 0.0
H808 H 0.40557 0.92283 0.19936 0.0
O809 O 0.40622 0.94691 0.41045 0.0
C810 C 0.39257 0.91581 0.33606 0.0
O811 O 0.40226 0.90969 0.31522 0.0
N812 N 0.42737 0.93468 0.37907 0.0
C813 C 0.45258 0.93756 0.37983 0.0
C814 C 0.44515 0.94483 0.42547 0.0
C815 C 0.4325 0.94323 0.42436 0.0
C816 C 0.43445 0.92738 0.33582 0.0
C817 C 0.44705 0.92871 0.33492 0.0
H818 H 0.42691 0.94883 0.46009 0.0
H819 H 0.43023 0.92047 0.30155 0.0
H820 H 0.40819 0.93971 0.54363 0.0
H821 H 0.41462 0.90274 0.58844 0.0
H822 H 0.41895 0.95756 0.14647 0.0
H823 H 0.44905 0.95175 0.46113 0.0
H824 H 0.45243 0.92272 0.30013 0.0
C825 C 0.83154 0.65708 0.28613 0.0
C826 C 0.83233 0.6558 0.36213 0.0
N827 N 0.82111 0.65696 0.39135 0.0
N828 N 0.81987 0.65906 0.26672 0.0
C829 C 0.81367 0.65888 0.33223 0.0
H830 H 0.83909 0.6571 0.24758 0.0
Co831 Co 0.81566 0.66326 0.1687 0.0
C832 C 0.78873 0.66185 0.15921 0.0
O833 O 0.78862 0.671 0.11239 0.0
N834 N 0.8119 0.66775 0.06632 0.0
C835 C 0.80835 0.67903 0.96494 0.0
C836 C 0.81 0.67917 0.04039 0.0
C837 C 0.81131 0.66081 1.00324 0.0
N838 N 0.80916 0.6675 0.9408 0.0
O839 O 0.81975 0.64701 0.1383 0.0
H840 H 0.80957 0.68736 0.07319 0.0
H841 H 0.81247 0.65105 1.00275 0.0
O842 O 0.79878 0.65806 0.18658 0.0
C843 C 0.83022 0.64581 0.10863 0.0
O844 O 0.83642 0.65568 0.09238 0.0
N845 N 0.81287 0.67929 0.20206 0.0
C846 C 0.81151 0.70408 0.23492 0.0
C847 C 0.80191 0.69622 0.25337 0.0
C848 C 0.80286 0.68379 0.23783 0.0
C849 C 0.82276 0.68655 0.19094 0.0
C850 C 0.82221 0.69901 0.20568 0.0
H851 H 0.79553 0.67793 0.25468 0.0
H852 H 0.83087 0.68273 0.16603 0.0
H853 H 0.80405 0.6608 0.33703 0.0
H854 H 0.8406 0.65446 0.39382 0.0
H855 H 0.80699 0.68697 0.93028 0.0
H856 H 0.7937 0.69965 0.27925 0.0
H857 H 0.82991 0.70466 0.19107 0.0
C858 C 0.09031 0.08444 0.02387 0.0
C859 C 0.09038 0.08589 0.10005 0.0
N860 N 0.09101 0.07483 0.13219 0.0
N861 N 0.09097 0.07252 1.00717 0.0
C862 C 0.09138 0.06687 0.07446 0.0
H863 H 0.08953 0.09166 0.98323 0.0
Co864 Co 0.08999 0.06629 0.90955 0.0
C865 C 0.10287 0.04295 0.92078 0.0
O866 O 0.10923 0.04562 0.86095 0.0
N867 N 0.08867 0.06008 0.81055 0.0
C868 C 0.08309 0.04798 0.71688 0.0
C869 C 0.08358 0.04927 0.79298 0.0
C870 C 0.09116 0.06521 0.74326 0.0
N871 N 0.08782 0.05802 0.68527 0.0
O872 O 0.10664 0.0709 0.89317 0.0
H873 H 0.08021 0.04275 0.83311 0.0
H874 H 0.09492 0.0742 0.73637 0.0
O875 O 0.09502 0.05046 0.94564 0.0
C876 C 0.10779 0.08156 0.86614 0.0
O877 O 0.09789 0.08763 0.84869 0.0
N878 N 0.07358 0.06285 0.9254 0.0
C879 C 0.04845 0.0613 0.94388 0.0
C880 C 0.05614 0.05234 0.97375 0.0
C881 C 0.06875 0.05333 0.9645 0.0
C882 C 0.06625 0.07157 0.89578 0.0
C883 C 0.05367 0.07098 0.90432 0.0
H884 H 0.07455 0.04652 0.98933 0.0
H885 H 0.07027 0.07908 0.86562 0.0
H886 H 0.09145 0.0571 0.08121 0.0
H887 H 0.08993 0.09448 0.12942 0.0
H888 H 0.07946 0.04023 0.68712 0.0
H889 H 0.05246 0.04478 1.00519 0.0
H890 H 0.04808 0.07801 0.87959 0.0
C891 C 0.66704 0.33398 0.76022 0.0
C892 C 0.66544 0.33392 0.83635 0.0
N893 N 0.67625 0.33603 0.86927 0.0
N894 N 0.6788 0.33617 0.74432 0.0
C895 C 0.6842 0.33736 0.81201 0.0
H896 H 0.66007 0.33233 0.71899 0.0
Co897 Co 0.68521 0.33631 0.64679 0.0
C898 C 0.70805 0.35002 0.66538 0.0
O899 O 0.7055 0.3568 0.60712 0.0
N900 N 0.69159 0.33616 0.54788 0.0
C901 C 0.70397 0.33173 0.45328 0.0
C902 C 0.70275 0.332 0.52947 0.0
C903 C 0.68615 0.33827 0.48103 0.0
N904 N 0.6935 0.33561 0.42244 0.0
O905 O 0.67995 0.35289 0.63584 0.0
H906 H 0.70951 0.32895 0.56903 0.0
H907 H 0.67681 0.34112 0.47501 0.0
O908 O 0.70076 0.34164 0.68578 0.0
C909 C 0.66922 0.35386 0.60964 0.0
O910 O 0.66349 0.34389 0.58984 0.0
N911 N 0.6894 0.31992 0.65688 0.0
C912 C 0.693 0.29479 0.66086 0.0
C913 C 0.70033 0.30261 0.7035 0.0
C914 C 0.69838 0.31521 0.70086 0.0
C915 C 0.68207 0.31248 0.61637 0.0
C916 C 0.68373 0.29991 0.61724 0.0
H917 H 0.70402 0.32109 0.73437 0.0
H918 H 0.67485 0.31638 0.58307 0.0
H919 H 0.69384 0.33878 0.81944 0.0
H920 H 0.65691 0.33245 0.86507 0.0
H921 H 0.71192 0.32871 0.42293 0.0
H922 H 0.70758 0.29905 0.73804 0.0
H923 H 0.67766 0.29425 0.58483 0.0
C924 C 0.42045 0.07735 0.54339 0.0
C925 C 0.42119 0.07865 0.4672 0.0
N926 N 0.41609 0.06882 0.4349 0.0
N927 N 0.41494 0.06675 0.55964 0.0
C928 C 0.41238 0.06173 0.4924 0.0
H929 H 0.42369 0.08376 0.5846 0.0
Co930 Co 0.41169 0.06163 0.65715 0.0
C931 C 0.41034 0.03487 0.647 0.0
O932 O 0.41721 0.03413 0.70674 0.0
N933 N 0.408 0.0567 0.7571 0.0
C934 C 0.39673 0.04927 0.85005 0.0
C935 C 0.39791 0.05026 0.77412 0.0
C936 C 0.4127 0.05969 0.82486 0.0
N937 N 0.40602 0.05525 0.8823 0.0
O938 O 0.39516 0.06699 0.64557 0.0
H939 H 0.39152 0.04678 0.73359 0.0
H940 H 0.42044 0.06554 0.83286 0.0
O941 O 0.40743 0.04528 0.62056 0.0
C942 C 0.39352 0.0773 0.67651 0.0
O943 O 0.40269 0.08222 0.71256 0.0
N944 N 0.42833 0.05767 0.66768 0.0
C945 C 0.45371 0.05624 0.67651 0.0
C946 C 0.44715 0.04825 0.63074 0.0
C947 C 0.4345 0.04935 0.62542 0.0
C948 C 0.43465 0.06588 0.70934 0.0
C949 C 0.44727 0.06519 0.71584 0.0
H950 H 0.42981 0.04386 0.58472 0.0
H951 H 0.42991 0.0734 0.73497 0.0
H952 H 0.40765 0.05318 0.48561 0.0
H953 H 0.42526 0.08623 0.43793 0.0
H954 H 0.38946 0.04465 0.87922 0.0
H955 H 0.4518 0.04159 0.59659 0.0
H956 H 0.45197 0.07177 0.75024 0.0
C957 C 0.66372 0.65987 0.2499 0.0
C958 C 0.66218 0.65982 0.1738 0.0
N959 N 0.67314 0.65839 0.14119 0.0
N960 N 0.67558 0.65841 0.26609 0.0
C961 C 0.68112 0.65753 0.19861 0.0
H962 H 0.65663 0.66116 0.29089 0.0
Co963 Co 0.68182 0.65898 0.36367 0.0
C964 C 0.70484 0.6457 0.35141 0.0
O965 O 0.70179 0.63908 0.40948 0.0
N966 N 0.68803 0.65987 0.46277 0.0
C967 C 0.70022 0.66503 0.5568 0.0
C968 C 0.69896 0.66465 0.48069 0.0
C969 C 0.68278 0.65749 0.52985 0.0
N970 N 0.69003 0.66057 0.58809 0.0
O971 O 0.67701 0.64235 0.37763 0.0
H972 H 0.70555 0.66795 0.44079 0.0
H973 H 0.67366 0.65403 0.53633 0.0
O974 O 0.69763 0.65388 0.32725 0.0
C975 C 0.66633 0.64114 0.4041 0.0
O976 O 0.66029 0.65099 0.42291 0.0
N977 N 0.68551 0.6754 0.35017 0.0
C978 C 0.6878 0.7006 0.33724 0.0
C979 C 0.69592 0.69277 0.30023 0.0
C980 C 0.69459 0.68015 0.30717 0.0
C981 C 0.67749 0.68282 0.38578 0.0
C982 C 0.67848 0.69542 0.38025 0.0
H983 H 0.7008 0.67426 0.27753 0.0
H984 H 0.67022 0.67887 0.41833 0.0
H985 H 0.69084 0.65673 0.19148 0.0
H986 H 0.65361 0.66081 0.14483 0.0
H987 H 0.70805 0.66844 0.58678 0.0
H988 H 0.70326 0.69635 0.26656 0.0
H989 H 0.67183 0.70105 0.40841 0.0
C990 C 0.08956 0.91713 1.01228 0.0
C991 C 0.09152 0.91632 0.9369 0.0
N992 N 0.09132 0.92761 0.9075 0.0
N993 N 0.08814 0.92887 0.03153 0.0
C994 C 0.08922 0.93509 0.96644 0.0
H995 H 0.0888 0.90956 0.05046 0.0
Co996 Co 0.0842 0.93342 0.12932 0.0
C997 C 0.08533 0.96049 0.13117 0.0
O998 O 0.07585 0.96091 0.17539 0.0
N999 N 0.07999 0.93756 0.23174 0.0
C1000 C 0.0688 0.9414 0.33338 0.0
C1001 C 0.0688 0.94073 0.25727 0.0
C1002 C 0.08666 0.93659 0.29563 0.0
N1003 N 0.07999 0.93871 0.35789 0.0
O1004 O 0.10052 0.92931 0.15836 0.0
H1005 H 0.06091 0.9426 0.22357 0.0
H1006 H 0.0961 0.93388 0.29735 0.0
O1007 O 0.08942 0.95023 0.1086 0.0
C1008 C 0.10156 0.91861 0.18505 0.0
O1009 O 0.0916 0.91248 0.20012 0.0
N1010 N 0.06813 0.93612 0.09737 0.0
C1011 C 0.04336 0.93737 0.06403 0.0
C1012 C 0.05139 0.94644 0.03918 0.0
C1013 C 0.06381 0.94552 0.05517 0.0
C1014 C 0.06066 0.9267 0.11585 0.0
C1015 C 0.04823 0.92723 0.10104 0.0
H1016 H 0.06984 0.95238 0.03343 0.0
H1017 H 0.06434 0.91899 0.1459 0.0
H1018 H 0.08827 0.94485 0.96222 0.0
H1019 H 0.09247 0.90794 0.90584 0.0
H1020 H 0.06106 0.94355 0.36835 0.0
H1021 H 0.04812 0.95417 1.0076 0.0
H1022 H 0.04244 0.91996 0.12098 0.0
C1023 C 0.83236 0.3373 0.80408 0.0
C1024 C 0.83347 0.33914 0.72867 0.0
N1025 N 0.82225 0.34011 0.69881 0.0
N1026 N 0.82052 0.33711 0.82278 0.0
C1027 C 0.81454 0.33882 0.75743 0.0
H1028 H 0.83975 0.33583 0.84274 0.0
Co1029 Co 0.81538 0.33394 0.92055 0.0
C1030 C 0.78819 0.33398 0.90929 0.0
O1031 O 0.78738 0.32438 0.95228 0.0
N1032 N 0.81058 0.33051 0.02301 0.0
C1033 C 0.80554 0.31992 0.12511 0.0
C1034 C 0.8062 0.31977 0.04905 0.0
C1035 C 0.81238 0.33707 0.0867 0.0
N1036 N 0.80952 0.33074 0.14922 0.0
O1037 O 0.81875 0.35062 0.94468 0.0
H1038 H 0.80376 0.31198 0.01569 0.0
H1039 H 0.8163 0.34607 0.08819 0.0
O1040 O 0.7986 0.33845 0.89319 0.0
C1041 C 0.82949 0.35221 0.96953 0.0
O1042 O 0.836 0.34256 0.98636 0.0
N1043 N 0.81346 0.31751 0.89387 0.0
C1044 C 0.81299 0.29247 0.86862 0.0
C1045 C 0.80447 0.30016 0.83431 0.0
C1046 C 0.80502 0.31273 0.84636 0.0
C1047 C 0.82242 0.31032 0.92229 0.0
C1048 C 0.82225 0.29776 0.91151 0.0
H1049 H 0.79866 0.31852 0.81752 0.0
H1050 H 0.82944 0.31434 0.95653 0.0
H1051 H 0.80474 0.33893 0.75277 0.0
H1052 H 0.84193 0.33924 0.69798 0.0
H1053 H 0.80265 0.31246 0.16037 0.0
H1054 H 0.79747 0.29652 0.79822 0.0
H1055 H 0.82909 0.29222 0.93862 0.0
C1056 C 0.07966 0.57865 0.7861 0.0
C1057 C 0.08582 0.57096 0.83604 0.0
C1058 C 0.07968 0.57645 0.7088 0.0
C1059 C 0.08607 0.56631 0.67977 0.0
C1060 C 0.09235 0.55851 0.7297 0.0
C1061 C 0.09211 0.56089 0.80702 0.0
C1062 C 0.0727 0.58492 0.65819 0.0
C1063 C 0.0993 0.54761 0.70141 0.0
C1064 C 0.07597 0.55392 0.49079 0.0
C1065 C 0.08451 0.55902 0.44156 0.0
C1066 C 0.07643 0.55615 0.56797 0.0
C1067 C 0.08572 0.56364 0.59761 0.0
C1068 C 0.09439 0.56884 0.54834 0.0
C1069 C 0.09363 0.56654 0.47101 0.0
C1070 C 0.06688 0.55056 0.61779 0.0
C1071 C 0.10449 0.57681 0.5774 0.0
H1072 H 0.07458 0.58632 0.80755 0.0
H1073 H 0.097 0.55495 0.84469 0.0
H1074 H 0.07884 0.58876 0.61516 0.0
H1075 H 0.06548 0.57979 0.62862 0.0
H1076 H 0.06841 0.59254 0.68915 0.0
H1077 H 0.10393 0.54259 0.747 0.0
H1078 H 0.09303 0.54129 0.67242 0.0
H1079 H 0.10622 0.55056 0.66014 0.0
H1080 H 0.06875 0.54828 0.46876 0.0
H1081 H 0.10032 0.57044 0.43369 0.0
H1082 H 0.06175 0.55783 0.64699 0.0
H1083 H 0.07126 0.54486 0.66116 0.0
H1084 H 0.06033 0.54484 0.58629 0.0
H1085 H 0.1006 0.5849 0.6057 0.0
H1086 H 0.11067 0.57995 0.53234 0.0
H1087 H 0.1099 0.57177 0.61944 0.0
C1088 C 0.69466 0.82611 0.74592 0.0
C1089 C 0.68817 0.833 0.69313 0.0
C1090 C 0.69337 0.82812 0.82287 0.0
C1091 C 0.68564 0.8375 0.84869 0.0
C1092 C 0.67975 0.8451 0.79582 0.0
C1093 C 0.681 0.84271 0.71876 0.0
C1094 C 0.69975 0.81967 0.87656 0.0
C1095 C 0.67166 0.85541 0.82071 0.0
C1096 C 0.67047 0.83226 0.03715 0.0
C1097 C 0.67797 0.83878 0.08611 0.0
C1098 C 0.67282 0.83189 0.96016 0.0
C1099 C 0.6828 0.83844 0.93041 0.0
C1100 C 0.69035 0.8452 0.9795 0.0
C1101 C 0.68794 0.84515 0.0569 0.0
C1102 C 0.66472 0.82427 0.91081 0.0
C1103 C 0.70092 0.85251 0.95018 0.0
H1104 H 0.70053 0.81883 0.72718 0.0
H1105 H 0.67596 0.84813 0.67895 0.0
H1106 H 0.70499 0.82495 0.91826 0.0
H1107 H 0.6929 0.81424 0.90749 0.0
H1108 H 0.70605 0.81331 0.84781 0.0
H1109 H 0.66915 0.8615 0.77376 0.0
H1110 H 0.66319 0.85167 0.84527 0.0
H1111 H 0.67622 0.86086 0.86454 0.0
H1112 H 0.66285 0.82721 0.05954 0.0
H1113 H 0.69368 0.85029 0.09447 0.0
H1114 H 0.6702 0.81718 0.88241 0.0
H1115 H 0.66057 0.83003 0.86687 0.0
H1116 H 0.65732 0.81975 0.94253 0.0
H1117 H 0.70766 0.84639 0.92359 0.0
H1118 H 0.70554 0.85776 0.99485 0.0
H1119 H 0.69772 0.85893 0.90667 0.0
C1120 C 0.40843 0.42461 1.00159 0.0
C1121 C 0.40712 0.43631 0.97178 0.0
C1122 C 0.4095 0.4228 0.07911 0.0
C1123 C 0.40964 0.43297 0.12784 0.0
C1124 C 0.40861 0.44483 0.09752 0.0
C1125 C 0.40718 0.44633 0.02013 0.0
C1126 C 0.41027 0.40999 0.10899 0.0
C1127 C 0.4091 0.45595 0.14678 0.0
C1128 C 0.40205 0.42896 0.3346 0.0
C1129 C 0.41363 0.42771 0.36618 0.0
C1130 C 0.40059 0.43052 0.25709 0.0
C1131 C 0.41099 0.43123 0.21034 0.0
C1132 C 0.42271 0.43031 0.24258 0.0
C1133 C 0.42387 0.42839 0.31977 0.0
C1134 C 0.38793 0.43116 0.22504 0.0
C1135 C 0.43405 0.43141 0.19559 0.0
H1136 H 0.40823 0.41686 0.96432 0.0
H1137 H 0.40624 0.45539 0.99698 0.0
H1138 H 0.41896 0.40869 0.13932 0.0
H1139 H 0.4028 0.40839 0.14943 0.0
H1140 H 0.40967 0.40306 0.0641 0.0
H1141 H 0.40861 0.46454 0.11429 0.0
H1142 H 0.40145 0.45579 0.18708 0.0
H1143 H 0.41764 0.45594 0.17961 0.0
H1144 H 0.39414 0.42832 0.37039 0.0
H1145 H 0.43283 0.42753 0.34431 0.0
H1146 H 0.3867 0.42386 0.18299 0.0
H1147 H 0.38658 0.43996 0.19606 0.0
H1148 H 0.3808 0.43018 0.26852 0.0
H1149 H 0.43434 0.42397 0.15387 0.0
H1150 H 0.44248 0.43101 0.22958 0.0
H1151 H 0.43393 0.44012 0.1644 0.0
C1152 C 0.81277 0.16626 0.1927 0.0
C1153 C 0.81169 0.15455 0.16227 0.0
C1154 C 0.81429 0.16798 0.27005 0.0
C1155 C 0.81487 0.15776 0.31821 0.0
C1156 C 0.81386 0.14594 0.28764 0.0
C1157 C 0.81227 0.14449 0.21042 0.0
C1158 C 0.81525 0.18075 0.30031 0.0
C1159 C 0.8146 0.13477 0.33647 0.0
C1160 C 0.83072 0.16073 0.50631 0.0
C1161 C 0.8209 0.16147 0.55619 0.0
C1162 C 0.82888 0.15966 0.42904 0.0
C1163 C 0.8169 0.15935 0.40025 0.0
C1164 C 0.80692 0.16011 0.45017 0.0
C1165 C 0.80903 0.16111 0.52744 0.0
C1166 C 0.83979 0.15871 0.37823 0.0
C1167 C 0.794 0.15987 0.42192 0.0
H1168 H 0.81222 0.17407 0.15612 0.0
H1169 H 0.81166 0.1354 0.18753 0.0
H1170 H 0.80806 0.18232 0.34264 0.0
H1171 H 0.82414 0.18198 0.32854 0.0
H1172 H 0.81437 0.18774 0.25592 0.0
H1173 H 0.81351 0.12621 0.30425 0.0
H1174 H 0.8235 0.13451 0.36547 0.0
H1175 H 0.80744 0.13512 0.38002 0.0
H1176 H 0.83991 0.16081 0.52783 0.0
H1177 H 0.80139 0.1618 0.5653 0.0
H1178 H 0.83954 0.16606 0.33592 0.0
H1179 H 0.83956 0.14993 0.34779 0.0
H1180 H 0.84851 0.15932 0.40917 0.0
H1181 H 0.79258 0.16732 0.38113 0.0
H1182 H 0.78725 0.16084 0.4676 0.0
H1183 H 0.79225 0.15118 0.39238 0.0
C1184 C 0.07593 0.43681 0.53096 0.0
C1185 C 0.08763 0.43801 0.56123 0.0
C1186 C 0.07419 0.43526 0.45362 0.0
C1187 C 0.08439 0.43477 0.40525 0.0
C1188 C 0.09621 0.43588 0.43567 0.0
C1189 C 0.09768 0.43751 0.51288 0.0
C1190 C 0.06142 0.43419 0.42359 0.0
C1191 C 0.10736 0.43523 0.38667 0.0
C1192 C 0.08142 0.41888 0.21705 0.0
C1193 C 0.0806 0.4287 0.16716 0.0
C1194 C 0.08254 0.42073 0.29432 0.0
C1195 C 0.08278 0.43272 0.32317 0.0
C1196 C 0.08192 0.44269 0.27324 0.0
C1197 C 0.0809 0.44057 0.19596 0.0
C1198 C 0.08361 0.40983 0.34509 0.0
C1199 C 0.08209 0.45562 0.30149 0.0
H1200 H 0.06813 0.43729 0.56766 0.0
H1201 H 0.10676 0.43821 0.53563 0.0
H1202 H 0.05978 0.44136 0.38126 0.0
H1203 H 0.06026 0.42529 0.39542 0.0
H1204 H 0.05445 0.43502 0.4681 0.0
H1205 H 0.11592 0.43639 0.41877 0.0
H1206 H 0.10768 0.42633 0.35765 0.0
H1207 H 0.10694 0.44239 0.34315 0.0
H1208 H 0.08139 0.40968 0.19552 0.0
H1209 H 0.08013 0.44821 0.15813 0.0
H1210 H 0.07627 0.41001 0.3875 0.0
H1211 H 0.09239 0.41013 0.37541 0.0
H1212 H 0.08306 0.40109 0.31413 0.0
H1213 H 0.07463 0.45699 0.3423 0.0
H1214 H 0.08107 0.46237 0.25581 0.0
H1215 H 0.09076 0.45743 0.331 0.0
C1216 C 0.79971 0.84157 0.82089 0.0
C1217 C 0.80841 0.83644 0.86865 0.0
C1218 C 0.8017 0.84233 0.74349 0.0
C1219 C 0.81253 0.83753 0.71237 0.0
C1220 C 0.82134 0.83227 0.76046 0.0
C1221 C 0.81925 0.83196 0.83805 0.0
C1222 C 0.79223 0.84836 0.69507 0.0
C1223 C 0.83287 0.82677 0.72979 0.0
C1224 C 0.81228 0.82966 0.50432 0.0
C1225 C 0.81904 0.83925 0.47377 0.0
C1226 C 0.81022 0.82889 0.58182 0.0
C1227 C 0.8147 0.83814 0.62977 0.0
C1228 C 0.82123 0.84802 0.59858 0.0
C1229 C 0.82347 0.84835 0.52135 0.0
C1230 C 0.80347 0.81805 0.61257 0.0
C1231 C 0.82583 0.85828 0.64679 0.0
H1232 H 0.79136 0.84512 0.8445 0.0
H1233 H 0.82592 0.82787 0.87473 0.0
H1234 H 0.79641 0.85594 0.66321 0.0
H1235 H 0.78864 0.84176 0.65391 0.0
H1236 H 0.7845 0.85201 0.72809 0.0
H1237 H 0.83863 0.82271 0.77413 0.0
H1238 H 0.83061 0.81962 0.68845 0.0
H1239 H 0.83825 0.83382 0.70029 0.0
H1240 H 0.80897 0.82256 0.46773 0.0
H1241 H 0.82861 0.85582 0.49772 0.0
H1242 H 0.79515 0.82109 0.6421 0.0
H1243 H 0.80924 0.81325 0.65391 0.0
H1244 H 0.80082 0.81151 0.56828 0.0
H1245 H 0.81819 0.86233 0.67867 0.0
H1246 H 0.83028 0.86556 0.61361 0.0
H1247 H 0.83248 0.85475 0.68793 0.0
C1248 C 0.40317 0.56028 0.74853 0.0
C1249 C 0.4095 0.5703 0.71931 0.0
C1250 C 0.40293 0.55795 0.8259 0.0
C1251 C 0.40923 0.56575 0.87563 0.0
C1252 C 0.41566 0.57584 0.84639 0.0
C1253 C 0.4157 0.57799 0.76905 0.0
C1254 C 0.39592 0.54711 0.85445 0.0
C1255 C 0.42268 0.5843 0.8968 0.0
C1256 C 0.40165 0.56609 0.08431 0.0
C1257 C 0.41074 0.55853 0.11385 0.0
C1258 C 0.40092 0.56838 1.00697 0.0
C1259 C 0.40957 0.56312 0.95781 0.0
C1260 C 0.41882 0.55559 0.98756 0.0
C1261 C 0.41927 0.55337 0.06474 0.0
C1262 C 0.39086 0.5764 0.97776 0.0
C1263 C 0.42836 0.54994 0.93784 0.0
H1264 H 0.39826 0.55435 0.71098 0.0
H1265 H 0.42081 0.58563 0.74741 0.0
H1266 H 0.40216 0.54078 0.88375 0.0
H1267 H 0.389 0.55012 0.89553 0.0
H1268 H 0.39129 0.54206 0.80897 0.0
H1269 H 0.42701 0.59189 0.86567 0.0
H1270 H 0.41656 0.5882 0.93975 0.0
H1271 H 0.42988 0.57916 0.9265 0.0
H1272 H 0.39498 0.57003 0.12157 0.0
H1273 H 0.42645 0.5477 0.08688 0.0
H1274 H 0.38542 0.57136 0.93587 0.0
H1275 H 0.39479 0.58445 0.94924 0.0
H1276 H 0.38471 0.5796 0.02278 0.0
H1277 H 0.42396 0.54423 0.89463 0.0
H1278 H 0.4349 0.54422 0.96946 0.0
H1279 H 0.43351 0.55718 0.90845 0.0
C1280 C 0.67172 0.15264 0.97038 0.0
C1281 C 0.67836 0.16023 0.92249 0.0
C1282 C 0.67385 0.15256 0.04774 0.0
C1283 C 0.68263 0.16051 0.07869 0.0
C1284 C 0.68938 0.16821 0.03047 0.0
C1285 C 0.68729 0.16785 0.95292 0.0
C1286 C 0.6667 0.14392 0.09634 0.0
C1287 C 0.69864 0.17703 0.06096 0.0
C1288 C 0.67948 0.16827 0.28587 0.0
C1289 C 0.68884 0.16134 0.31752 0.0
C1290 C 0.67747 0.16823 0.20823 0.0
C1291 C 0.68473 0.16076 0.16137 0.0
C1292 C 0.69397 0.15348 0.19377 0.0
C1293 C 0.69605 0.15404 0.27113 0.0
C1294 C 0.66776 0.17638 0.17614 0.0
C1295 C 0.70165 0.14508 0.14674 0.0
H1296 H 0.6649 0.14664 0.94696 0.0
H1297 H 0.69235 0.17382 0.91618 0.0
H1298 H 0.67301 0.13813 0.12909 0.0
H1299 H 0.66111 0.14912 0.1367 0.0
H1300 H 0.6606 0.13794 0.06336 0.0
H1301 H 0.70297 0.18255 0.01641 0.0
H1302 H 0.69422 0.18325 0.10143 0.0
H1303 H 0.70585 0.17203 0.09142 0.0
H1304 H 0.67404 0.17403 0.32175 0.0
H1305 H 0.70327 0.14869 0.29584 0.0
H1306 H 0.66085 0.17086 0.14653 0.0
H1307 H 0.67185 0.18265 0.13462 0.0
H1308 H 0.66312 0.18187 0.21968 0.0
H1309 H 0.69573 0.13881 0.11469 0.0
H1310 H 0.70805 0.1396 0.18084 0.0
H1311 H 0.70698 0.15044 0.10576 0.0
C1312 C 0.90949 0.44091 0.20076 0.0
C1313 C 0.91201 0.42932 0.17193 0.0
C1314 C 0.90791 0.44276 0.27796 0.0
C1315 C 0.90873 0.43275 0.32764 0.0
C1316 C 0.91116 0.42101 0.29865 0.0
C1317 C 0.91279 0.41946 0.22153 0.0
C1318 C 0.90541 0.45543 0.30642 0.0
C1319 C 0.91193 0.41004 0.34912 0.0
C1320 C 0.91471 0.43751 0.53563 0.0
C1321 C 0.90299 0.4365 0.56589 0.0
C1322 C 0.9167 0.43656 0.45819 0.0
C1323 C 0.90675 0.4344 0.40968 0.0
C1324 C 0.89491 0.43334 0.44001 0.0
C1325 C 0.89318 0.43443 0.51739 0.0
C1326 C 0.92946 0.43782 0.42825 0.0
C1327 C 0.88406 0.43087 0.39078 0.0
H1328 H 0.90898 0.44859 0.16304 0.0
H1329 H 0.91452 0.41043 0.19985 0.0
H1330 H 0.89656 0.45563 0.33612 0.0
H1331 H 0.91251 0.4581 0.34713 0.0
H1332 H 0.90518 0.46227 0.26083 0.0
H1333 H 0.91395 0.40155 0.31796 0.0
H1334 H 0.91912 0.41143 0.3916 0.0
H1335 H 0.90321 0.40884 0.37937 0.0
H1336 H 0.92232 0.43924 0.57246 0.0
H1337 H 0.88412 0.43345 0.54013 0.0
H1338 H 0.92979 0.44519 0.38603 0.0
H1339 H 0.93223 0.42929 0.39997 0.0
H1340 H 0.93616 0.43987 0.47283 0.0
H1341 H 0.88328 0.43802 0.34743 0.0
H1342 H 0.87541 0.43054 0.42277 0.0
H1343 H 0.88527 0.42206 0.36155 0.0
C1344 C 0.30848 0.1623 0.92184 0.0
C1345 C 0.3203 0.1636 0.89323 0.0
C1346 C 0.30642 0.16104 0.99907 0.0
C1347 C 0.31641 0.16095 0.0491 0.0
C1348 C 0.32835 0.16217 0.02039 0.0
C1349 C 0.33013 0.16351 0.94319 0.0
C1350 C 0.29354 0.15983 0.02716 0.0
C1351 C 0.33928 0.16194 0.07123 0.0
C1352 C 0.31196 0.16743 0.25698 0.0
C1353 C 0.31176 0.15567 0.28731 0.0
C1354 C 0.31323 0.1693 0.17956 0.0
C1355 C 0.31449 0.15917 0.13116 0.0
C1356 C 0.31436 0.14728 0.16161 0.0
C1357 C 0.31296 0.14569 0.23893 0.0
C1358 C 0.31325 0.18212 0.14951 0.0
C1359 C 0.31584 0.13622 0.11257 0.0
H1360 H 0.30083 0.16248 0.88393 0.0
H1361 H 0.3393 0.16429 0.92178 0.0
H1362 H 0.29243 0.15103 0.05671 0.0
H1363 H 0.29156 0.16715 0.06791 0.0
H1364 H 0.28676 0.1603 0.98139 0.0
H1365 H 0.34795 0.16316 0.04034 0.0
H1366 H 0.33853 0.16924 0.11362 0.0
H1367 H 0.33965 0.15315 0.10157 0.0
H1368 H 0.31091 0.17518 0.29372 0.0
H1369 H 0.31303 0.13657 0.26172 0.0
H1370 H 0.30599 0.18316 0.10708 0.0
H1371 H 0.32203 0.18402 0.12145 0.0
H1372 H 0.31182 0.189 0.194 0.0
H1373 H 0.30869 0.13611 0.06902 0.0
H1374 H 0.31533 0.12759 0.14465 0.0
H1375 H 0.32475 0.13659 0.08358 0.0
C1376 C 0.5917 0.55927 0.72721 0.0
C1377 C 0.58521 0.5692 0.69813 0.0
C1378 C 0.59199 0.55691 0.80456 0.0
C1379 C 0.58555 0.5646 0.85445 0.0
C1380 C 0.57897 0.57461 0.82536 0.0
C1381 C 0.5789 0.57678 0.74803 0.0
C1382 C 0.59916 0.54617 0.83292 0.0
C1383 C 0.57182 0.58295 0.87592 0.0
C1384 C 0.57561 0.55201 0.04331 0.0
C1385 C 0.58403 0.55727 0.09264 0.0
C1386 C 0.57607 0.55425 0.96614 0.0
C1387 C 0.58523 0.56192 0.9366 0.0
C1388 C 0.59377 0.56728 0.98597 0.0
C1389 C 0.59302 0.56496 0.06329 0.0
C1390 C 0.56664 0.54848 0.91621 0.0
C1391 C 0.60373 0.57545 0.95701 0.0
H1392 H 0.5967 0.55342 0.68957 0.0
H1393 H 0.57367 0.58435 0.72654 0.0
H1394 H 0.606 0.54925 0.87418 0.0
H1395 H 0.59301 0.53972 0.86194 0.0
H1396 H 0.6039 0.54123 0.78737 0.0
H1397 H 0.56741 0.5905 0.84493 0.0
H1398 H 0.56468 0.57769 0.90543 0.0
H1399 H 0.57788 0.58689 0.919 0.0
H1400 H 0.56849 0.54623 0.06525 0.0
H1401 H 0.59962 0.56898 0.10068 0.0
H1402 H 0.57115 0.54287 0.8729 0.0
H1403 H 0.56139 0.55566 0.88695 0.0
H1404 H 0.56019 0.54264 0.94764 0.0
H1405 H 0.60926 0.57051 0.91504 0.0
H1406 H 0.60982 0.5787 1.00214 0.0
H1407 H 0.5997 0.58346 0.92866 0.0
C1408 C 0.18301 0.85161 0.75857 0.0
C1409 C 0.18426 0.84167 0.80715 0.0
C1410 C 0.18171 0.84998 0.68126 0.0
C1411 C 0.18171 0.83808 0.65105 0.0
C1412 C 0.18301 0.82798 0.69964 0.0
C1413 C 0.1842 0.82989 0.77703 0.0
C1414 C 0.18018 0.86101 0.63197 0.0
C1415 C 0.18312 0.81515 0.66981 0.0
C1416 C 0.16623 0.83356 0.46299 0.0
C1417 C 0.17609 0.83352 0.41323 0.0
C1418 C 0.16795 0.83493 0.54017 0.0
C1419 C 0.17985 0.83625 0.56904 0.0
C1420 C 0.18988 0.83621 0.51922 0.0
C1421 C 0.18788 0.83491 0.44199 0.0
C1422 C 0.15697 0.8351 0.59081 0.0
C1423 C 0.20273 0.83752 0.54755 0.0
H1424 H 0.18284 0.86074 0.78119 0.0
H1425 H 0.18529 0.82216 0.81391 0.0
H1426 H 0.18736 0.86115 0.58853 0.0
H1427 H 0.1713 0.86057 0.60285 0.0
H1428 H 0.18062 0.86965 0.66388 0.0
H1429 H 0.18457 0.80829 0.71444 0.0
H1430 H 0.17437 0.81316 0.64163 0.0
H1431 H 0.19041 0.81414 0.62754 0.0
H1432 H 0.15708 0.8327 0.44142 0.0
H1433 H 0.19555 0.83477 0.40418 0.0
H1434 H 0.15652 0.8439 0.62098 0.0
H1435 H 0.15776 0.82782 0.63336 0.0
H1436 H 0.14833 0.8338 0.5598 0.0
H1437 H 0.20376 0.84635 0.5768 0.0
H1438 H 0.20955 0.83705 0.50194 0.0
H1439 H 0.20473 0.83025 0.5886 0.0
C1440 C 0.90258 0.56367 0.79609 0.0
C1441 C 0.91112 0.57184 0.82564 0.0
C1442 C 0.90177 0.56157 0.7186 0.0
C1443 C 0.90974 0.56771 0.66904 0.0
C1444 C 0.91836 0.57597 0.69856 0.0
C1445 C 0.91893 0.57794 0.77603 0.0
C1446 C 0.89241 0.55271 0.68975 0.0
C1447 C 0.92717 0.5826 0.64835 0.0
C1448 C 0.91672 0.55321 0.48038 0.0
C1449 C 0.90961 0.56013 0.43093 0.0
C1450 C 0.91679 0.55556 0.55746 0.0
C1451 C 0.90953 0.56506 0.58682 0.0
C1452 C 0.90236 0.57214 0.53731 0.0
C1453 C 0.90254 0.56964 0.46004 0.0
C1454 C 0.92473 0.54788 0.60751 0.0
C1455 C 0.89443 0.58231 0.56609 0.0
H1456 H 0.89642 0.559 0.8335 0.0
H1457 H 0.92571 0.58411 0.79786 0.0
H1458 H 0.88654 0.55722 0.64778 0.0
H1459 H 0.89701 0.545 0.66148 0.0
H1460 H 0.88657 0.54903 0.73495 0.0
H1461 H 0.93307 0.58901 0.67959 0.0
H1462 H 0.93305 0.57594 0.619 0.0
H1463 H 0.92214 0.58776 0.60512 0.0
H1464 H 0.9224 0.546 0.45862 0.0
H1465 H 0.89696 0.57497 0.42254 0.0
H1466 H 0.91909 0.54334 0.65055 0.0
H1467 H 0.93137 0.55374 0.6371 0.0
H1468 H 0.92981 0.5408 0.57614 0.0
H1469 H 0.88789 0.5787 0.60768 0.0
H1470 H 0.88927 0.58686 0.5208 0.0
H1471 H 0.90011 0.5892 0.59487 0.0
C1472 C 0.19374 0.16557 0.58516 0.0
C1473 C 0.18189 0.16644 0.61382 0.0
C1474 C 0.19584 0.1644 0.50791 0.0
C1475 C 0.18586 0.16398 0.45788 0.0
C1476 C 0.17389 0.1648 0.48661 0.0
C1477 C 0.17207 0.16604 0.56383 0.0
C1478 C 0.20875 0.16363 0.47982 0.0
C1479 C 0.16297 0.16422 0.43576 0.0
C1480 C 0.19019 0.17063 0.25003 0.0
C1481 C 0.19083 0.15888 0.21972 0.0
C1482 C 0.18879 0.17245 0.32741 0.0
C1483 C 0.18785 0.16228 0.37581 0.0
C1484 C 0.18841 0.15041 0.34536 0.0
C1485 C 0.18992 0.14886 0.26809 0.0
C1486 C 0.18831 0.18525 0.35745 0.0
C1487 C 0.18728 0.1393 0.39438 0.0
H1488 H 0.20139 0.166 0.62306 0.0
H1489 H 0.16288 0.16651 0.58525 0.0
H1490 H 0.21018 0.15487 0.4504 0.0
H1491 H 0.21048 0.17101 0.43895 0.0
H1492 H 0.21552 0.16435 0.52556 0.0
H1493 H 0.15426 0.16515 0.46664 0.0
H1494 H 0.16349 0.17154 0.39335 0.0
H1495 H 0.1629 0.15542 0.40543 0.0
H1496 H 0.19099 0.17841 0.21331 0.0
H1497 H 0.19019 0.13975 0.24531 0.0
H1498 H 0.19553 0.18655 0.39988 0.0
H1499 H 0.17946 0.18685 0.38549 0.0
H1500 H 0.18949 0.19218 0.31296 0.0
H1501 H 0.19443 0.13941 0.43795 0.0
H1502 H 0.18807 0.13069 0.36229 0.0
H1503 H 0.17836 0.13938 0.42333 0.0
C1504 C 0.57879 0.43464 0.99677 0.0
C1505 C 0.59046 0.43607 0.96638 0.0
C1506 C 0.57708 0.43307 0.07413 0.0
C1507 C 0.58729 0.43277 0.12238 0.0
C1508 C 0.59909 0.43412 0.09185 0.0
C1509 C 0.60052 0.43578 0.01461 0.0
C1510 C 0.56434 0.43174 0.10429 0.0
C1511 C 0.61026 0.4337 0.14074 0.0
C1512 C 0.58369 0.43848 0.33168 0.0
C1513 C 0.58362 0.4266 0.36044 0.0
C1514 C 0.58468 0.44063 0.25441 0.0
C1515 C 0.58574 0.43068 0.20446 0.0
C1516 C 0.58573 0.41869 0.23327 0.0
C1517 C 0.58465 0.41681 0.31054 0.0
C1518 C 0.58458 0.45356 0.22618 0.0
C1519 C 0.58702 0.40781 0.18248 0.0
H1520 H 0.57097 0.43497 0.96016 0.0
H1521 H 0.60958 0.43666 0.99177 0.0
H1522 H 0.56335 0.42281 0.13245 0.0
H1523 H 0.56256 0.43887 0.14666 0.0
H1524 H 0.55735 0.43243 0.05986 0.0
H1525 H 0.61878 0.43504 0.10855 0.0
H1526 H 0.60969 0.44084 0.18428 0.0
H1527 H 0.61076 0.4248 0.16973 0.0
H1528 H 0.58277 0.44609 0.36953 0.0
H1529 H 0.5848 0.40761 0.33206 0.0
H1530 H 0.5771 0.45479 0.18543 0.0
H1531 H 0.59321 0.45555 0.19661 0.0
H1532 H 0.58343 0.46028 0.27188 0.0
H1533 H 0.57968 0.40785 0.14013 0.0
H1534 H 0.58666 0.39907 0.21342 0.0
H1535 H 0.59579 0.4083 0.15207 0.0
C1536 C 0.3258 0.8329 0.05497 0.0
C1537 C 0.31596 0.83291 0.1049 0.0
C1538 C 0.32404 0.83415 0.97774 0.0
C1539 C 0.31211 0.8354 0.94903 0.0
C1540 C 0.30211 0.83539 0.99899 0.0
C1541 C 0.30415 0.8342 0.07625 0.0
C1542 C 0.33499 0.83428 0.9269 0.0
C1543 C 0.28925 0.83664 0.97083 0.0
C1544 C 0.30881 0.85068 0.7594 0.0
C1545 C 0.30752 0.84072 0.71101 0.0
C1546 C 0.31017 0.84907 0.83667 0.0
C1547 C 0.31022 0.83718 0.86703 0.0
C1548 C 0.30891 0.82706 0.81864 0.0
C1549 C 0.30764 0.82895 0.74125 0.0
C1550 C 0.31172 0.86012 0.88575 0.0
C1551 C 0.30885 0.81424 0.84866 0.0
H1552 H 0.33496 0.83212 0.07642 0.0
H1553 H 0.29649 0.83409 0.11416 0.0
H1554 H 0.33417 0.82699 0.88448 0.0
H1555 H 0.33543 0.84306 0.8966 0.0
H1556 H 0.34364 0.83298 0.95779 0.0
H1557 H 0.28244 0.83617 0.01654 0.0
H1558 H 0.28816 0.84545 0.94144 0.0
H1559 H 0.28726 0.82934 0.92992 0.0
H1560 H 0.30894 0.8598 0.73667 0.0
H1561 H 0.30653 0.82121 0.70449 0.0
H1562 H 0.32062 0.85969 0.91475 0.0
H1563 H 0.30456 0.86028 0.9293 0.0
H1564 H 0.31126 0.86876 0.85372 0.0
H1565 H 0.31761 0.81229 0.87681 0.0
H1566 H 0.30741 0.80737 0.80415 0.0
H1567 H 0.30156 0.81324 0.89101 0.0
C1568 C 0.60218 0.06184 0.0176 0.0
C1569 C 0.59227 0.06019 0.96928 0.0
C1570 C 0.60053 0.06308 0.09493 0.0
C1571 C 0.58866 0.0626 0.12538 0.0
C1572 C 0.5786 0.06091 0.07704 0.0
C1573 C 0.58051 0.05979 0.99963 0.0
C1574 C 0.6115 0.06505 0.14399 0.0
C1575 C 0.5658 0.06029 0.10714 0.0
C1576 C 0.58576 0.05624 0.33431 0.0
C1577 C 0.58387 0.06796 0.36321 0.0
C1578 C 0.58716 0.05432 0.25707 0.0
C1579 C 0.58679 0.06436 0.20742 0.0
C1580 C 0.58499 0.0762 0.23643 0.0
C1581 C 0.58353 0.07784 0.31361 0.0
C1582 C 0.58901 0.04154 0.22854 0.0
C1583 C 0.5847 0.08719 0.18593 0.0
H1584 H 0.61127 0.06236 0.99474 0.0
H1585 H 0.57283 0.0584 0.9629 0.0
H1586 H 0.61071 0.0739 0.17322 0.0
H1587 H 0.61196 0.05787 0.18734 0.0
H1588 H 0.62014 0.06497 0.11187 0.0
H1589 H 0.55899 0.05858 0.06265 0.0
H1590 H 0.56511 0.05294 0.14935 0.0
H1591 H 0.56347 0.06895 0.13548 0.0
H1592 H 0.58592 0.04855 0.372 0.0
H1593 H 0.58229 0.08694 0.33531 0.0
H1594 H 0.59784 0.04089 0.19897 0.0
H1595 H 0.5818 0.03925 0.1877 0.0
H1596 H 0.58887 0.0347 0.27408 0.0
H1597 H 0.59346 0.08799 0.15559 0.0
H1598 H 0.58308 0.09577 0.21709 0.0
H1599 H 0.57744 0.08614 0.14353 0.0
C1600 C 0.18756 0.33154 0.25686 0.0
C1601 C 0.18796 0.3433 0.22651 0.0
C1602 C 0.18621 0.3297 0.33426 0.0
C1603 C 0.18509 0.33985 0.38264 0.0
C1604 C 0.18543 0.35173 0.35217 0.0
C1605 C 0.18689 0.3533 0.27488 0.0
C1606 C 0.18597 0.31688 0.36432 0.0
C1607 C 0.1841 0.36281 0.40118 0.0
C1608 C 0.16931 0.3358 0.57045 0.0
C1609 C 0.17912 0.33557 0.62055 0.0
C1610 C 0.17114 0.33708 0.49325 0.0
C1611 C 0.18311 0.3381 0.46469 0.0
C1612 C 0.19308 0.33786 0.51485 0.0
C1613 C 0.19097 0.33666 0.59206 0.0
C1614 C 0.16023 0.33748 0.44227 0.0
C1615 C 0.20598 0.33885 0.48694 0.0
H1616 H 0.1885 0.32378 0.22017 0.0
H1617 H 0.18697 0.36241 0.25211 0.0
H1618 H 0.1932 0.31572 0.40685 0.0
H1619 H 0.17715 0.31512 0.39226 0.0
H1620 H 0.1873 0.30997 0.31986 0.0
H1621 H 0.18477 0.37143 0.36912 0.0
H1622 H 0.17518 0.36259 0.43002 0.0
H1623 H 0.19124 0.36281 0.44485 0.0
H1624 H 0.16013 0.33516 0.59177 0.0
H1625 H 0.19861 0.33636 0.63007 0.0
H1626 H 0.16089 0.33016 0.39989 0.0
H1627 H 0.16002 0.34627 0.41192 0.0
H1628 H 0.15153 0.3364 0.47305 0.0
H1629 H 0.20786 0.33149 0.4462 0.0
H1630 H 0.21274 0.33826 0.5328 0.0
H1631 H 0.20726 0.34763 0.45742 0.0
C1632 C 0.91984 0.94456 0.4607 0.0
C1633 C 0.91124 0.93956 0.41153 0.0
C1634 C 0.91931 0.94237 0.53792 0.0
C1635 C 0.90989 0.93505 0.56764 0.0
C1636 C 0.90115 0.92998 0.51842 0.0
C1637 C 0.90198 0.93222 0.44106 0.0
C1638 C 0.92895 0.94781 0.5877 0.0
C1639 C 0.8909 0.9222 0.54757 0.0
C1640 C 0.91554 0.91994 0.75627 0.0
C1641 C 0.90948 0.92775 0.80603 0.0
C1642 C 0.91563 0.92215 0.67898 0.0
C1643 C 0.90947 0.93242 0.64982 0.0
C1644 C 0.90331 0.94034 0.6996 0.0
C1645 C 0.90343 0.93795 0.77692 0.0
C1646 C 0.9225 0.91356 0.62855 0.0
C1647 C 0.89657 0.95136 0.67113 0.0
H1648 H 0.92716 0.95007 0.43857 0.0
H1649 H 0.89524 0.92841 0.40377 0.0
H1650 H 0.92466 0.95361 0.63092 0.0
H1651 H 0.93393 0.94047 0.61708 0.0
H1652 H 0.93561 0.9534 0.55613 0.0
H1653 H 0.88467 0.91916 0.50254 0.0
H1654 H 0.89463 0.91405 0.57598 0.0
H1655 H 0.88557 0.92735 0.58954 0.0
H1656 H 0.92043 0.91216 0.77786 0.0
H1657 H 0.89863 0.94398 0.81452 0.0
H1658 H 0.9298 0.91856 0.59886 0.0
H1659 H 0.9163 0.90979 0.58561 0.0
H1660 H 0.92667 0.90588 0.65966 0.0
H1661 H 0.90296 0.95754 0.64186 0.0
H1662 H 0.89205 0.95651 0.71666 0.0
H1663 H 0.88958 0.94853 0.63006 0.0
C1664 C 0.30289 0.66989 0.75905 0.0
C1665 C 0.3081 0.66137 0.71013 0.0
C1666 C 0.30517 0.66955 0.83619 0.0
C1667 C 0.31281 0.66041 0.86612 0.0
C1668 C 0.31814 0.65177 0.81715 0.0
C1669 C 0.31579 0.6524 0.73982 0.0
C1670 C 0.29944 0.67908 0.88566 0.0
C1671 C 0.32628 0.64182 0.84654 0.0
C1672 C 0.32761 0.66694 0.05458 0.0
C1673 C 0.31998 0.66073 0.10468 0.0
C1674 C 0.32548 0.66676 0.97721 0.0
C1675 C 0.31547 0.66018 0.94831 0.0
C1676 C 0.30774 0.65384 0.9984 0.0
C1677 C 0.31005 0.65423 0.07576 0.0
C1678 C 0.33386 0.67381 0.92642 0.0
C1679 C 0.29698 0.64667 0.97025 0.0
H1680 H 0.29712 0.67699 0.7368 0.0
H1681 H 0.31978 0.64573 0.70271 0.0
H1682 H 0.29378 0.67466 0.92909 0.0
H1683 H 0.30663 0.68432 0.91477 0.0
H1684 H 0.29365 0.68554 0.85391 0.0
H1685 H 0.32954 0.63567 0.80167 0.0
H1686 H 0.33428 0.64587 0.87484 0.0
H1687 H 0.32132 0.63635 0.88866 0.0
H1688 H 0.33518 0.67216 0.07594 0.0
H1689 H 0.30416 0.6493 0.11355 0.0
H1690 H 0.32865 0.68094 0.89653 0.0
H1691 H 0.3378 0.66768 0.88364 0.0
H1692 H 0.34142 0.67823 0.95727 0.0
H1693 H 0.29055 0.65282 0.94109 0.0
H1694 H 0.29204 0.64198 0.01594 0.0
H1695 H 0.30006 0.63979 0.92916 0.0
C1696 C 0.60088 0.93375 0.03867 0.0
C1697 C 0.59092 0.93496 0.08718 0.0
C1698 C 0.59926 0.93243 0.96139 0.0
C1699 C 0.58738 0.93236 0.93115 0.0
C1700 C 0.57726 0.93359 0.97966 0.0
C1701 C 0.57915 0.93482 0.05704 0.0
C1702 C 0.61031 0.93097 0.91214 0.0
C1703 C 0.56444 0.93361 0.94976 0.0
C1704 C 0.58424 0.93854 0.72219 0.0
C1705 C 0.58297 0.92675 0.69332 0.0
C1706 C 0.58549 0.94054 0.79945 0.0
C1707 C 0.58558 0.9305 0.84915 0.0
C1708 C 0.58437 0.91858 0.82019 0.0
C1709 C 0.58306 0.91687 0.74298 0.0
C1710 C 0.5867 0.9534 0.82792 0.0
C1711 C 0.5846 0.9076 0.87075 0.0
H1712 H 0.61 0.93364 0.06133 0.0
H1713 H 0.57142 0.93586 0.09389 0.0
H1714 H 0.60993 0.92208 0.88297 0.0
H1715 H 0.61041 0.93816 0.86875 0.0
H1716 H 0.61894 0.93146 0.9441 0.0
H1717 H 0.55757 0.935 0.99438 0.0
H1718 H 0.56339 0.94092 0.90757 0.0
H1719 H 0.56253 0.92485 0.92146 0.0
H1720 H 0.58406 0.94623 0.68445 0.0
H1721 H 0.58229 0.90771 0.72132 0.0
H1722 H 0.59551 0.9545 0.85718 0.0
H1723 H 0.57941 0.95533 0.86899 0.0
H1724 H 0.58618 0.96023 0.78239 0.0
H1725 H 0.59339 0.90719 0.90094 0.0
H1726 H 0.58335 0.89895 0.83966 0.0
H1727 H 0.57731 0.90834 0.91328 0.0
C1728 C 0.30853 0.32848 0.25574 0.0
C1729 C 0.30805 0.34025 0.28602 0.0
C1730 C 0.3099 0.32664 0.17835 0.0
C1731 C 0.31094 0.33679 0.12989 0.0
C1732 C 0.31052 0.34867 0.16029 0.0
C1733 C 0.30905 0.35024 0.23758 0.0
C1734 C 0.31022 0.31382 0.14839 0.0
C1735 C 0.31177 0.35976 0.1112 0.0
C1736 C 0.32672 0.33277 0.94201 0.0
C1737 C 0.3169 0.33247 0.89196 0.0
C1738 C 0.32489 0.33407 0.0192 0.0
C1739 C 0.31293 0.33504 0.04783 0.0
C1740 C 0.30295 0.33473 0.99772 0.0
C1741 C 0.30506 0.33351 0.92051 0.0
C1742 C 0.33581 0.33455 0.07012 0.0
C1743 C 0.29004 0.33566 0.0257 0.0
H1744 H 0.30765 0.32072 0.29249 0.0
H1745 H 0.30889 0.35936 0.2603 0.0
H1746 H 0.303 0.31261 0.10588 0.0
H1747 H 0.31906 0.31211 0.12044 0.0
H1748 H 0.30894 0.30691 0.1929 0.0
H1749 H 0.31105 0.36838 0.14322 0.0
H1750 H 0.32069 0.35958 0.08231 0.0
H1751 H 0.30463 0.35971 0.06757 0.0
H1752 H 0.33591 0.33218 0.92065 0.0
H1753 H 0.29741 0.33316 0.88254 0.0
H1754 H 0.33521 0.32723 0.11255 0.0
H1755 H 0.33597 0.34334 0.10041 0.0
H1756 H 0.34451 0.33352 0.0393 0.0
H1757 H 0.28822 0.3283 0.06659 0.0
H1758 H 0.28328 0.33501 0.9799 0.0
H1759 H 0.28872 0.34443 0.05507 0.0
C1760 C 0.9221 0.05226 0.51368 0.0
C1761 C 0.91549 0.05899 0.56674 0.0
C1762 C 0.92018 0.05371 0.43678 0.0
C1763 C 0.91113 0.06187 0.41123 0.0
C1764 C 0.90379 0.06804 0.4643 0.0
C1765 C 0.90611 0.0666 0.54132 0.0
C1766 C 0.92835 0.04703 0.38287 0.0
C1767 C 0.89384 0.07657 0.43968 0.0
C1768 C 0.917 0.07687 0.22295 0.0
C1769 C 0.91019 0.06964 0.17389 0.0
C1770 C 0.91725 0.0745 0.29993 0.0
C1771 C 0.9103 0.06478 0.32957 0.0
C1772 C 0.90325 0.05752 0.2804 0.0
C1773 C 0.90342 0.05993 0.20303 0.0
C1774 C 0.92519 0.08227 0.34937 0.0
C1775 C 0.89551 0.04725 0.3096 0.0
H1776 H 0.9291 0.04604 0.53217 0.0
H1777 H 0.9009 0.07184 0.58127 0.0
H1778 H 0.92286 0.04201 0.34121 0.0
H1779 H 0.93402 0.05368 0.35192 0.0
H1780 H 0.93447 0.04048 0.41142 0.0
H1781 H 0.88786 0.0793 0.48673 0.0
H1782 H 0.89792 0.0849 0.41533 0.0
H1783 H 0.8882 0.07226 0.39575 0.0
H1784 H 0.92236 0.08429 0.20064 0.0
H1785 H 0.89806 0.05441 0.16539 0.0
H1786 H 0.93206 0.07649 0.37762 0.0
H1787 H 0.91962 0.08663 0.39344 0.0
H1788 H 0.93 0.0895 0.31775 0.0
H1789 H 0.90135 0.04023 0.33582 0.0
H1790 H 0.89005 0.04289 0.26492 0.0
H1791 H 0.88926 0.05069 0.35337 0.0
C1792 C 0.18943 0.66389 0.45989 0.0
C1793 C 0.17756 0.6641 0.43119 0.0
C1794 C 0.19158 0.66284 0.53713 0.0
C1795 C 0.18163 0.66186 0.58713 0.0
C1796 C 0.16964 0.662 0.55838 0.0
C1797 C 0.16776 0.66315 0.48113 0.0
C1798 C 0.2045 0.6628 0.56527 0.0
C1799 C 0.15876 0.6608 0.60921 0.0
C1800 C 0.18665 0.64706 0.77706 0.0
C1801 C 0.18702 0.65713 0.82523 0.0
C1802 C 0.18498 0.64849 0.69982 0.0
C1803 C 0.18371 0.66029 0.66923 0.0
C1804 C 0.18409 0.67052 0.71743 0.0
C1805 C 0.18567 0.66881 0.79477 0.0
C1806 C 0.18446 0.63731 0.651 0.0
C1807 C 0.18285 0.68327 0.68723 0.0
H1808 H 0.19705 0.66475 0.42201 0.0
H1809 H 0.15857 0.66311 0.45965 0.0
H1810 H 0.20581 0.67029 0.60597 0.0
H1811 H 0.20641 0.65415 0.59489 0.0
H1812 H 0.21123 0.66387 0.51953 0.0
H1813 H 0.15002 0.66122 0.57829 0.0
H1814 H 0.15919 0.65203 0.63966 0.0
H1815 H 0.15884 0.66815 0.65152 0.0
H1816 H 0.18748 0.63799 0.79996 0.0
H1817 H 0.18606 0.67664 0.83134 0.0
H1818 H 0.1916 0.6378 0.60742 0.0
H1819 H 0.17556 0.63689 0.62206 0.0
H1820 H 0.18572 0.62878 0.68323 0.0
H1821 H 0.18999 0.68498 0.64477 0.0
H1822 H 0.18361 0.69027 0.73162 0.0
H1823 H 0.17393 0.68433 0.65916 0.0
C1824 C 0.40225 0.92874 0.03775 0.0
C1825 C 0.41113 0.93653 0.0673 0.0
C1826 C 0.40165 0.92634 0.96045 0.0
C1827 C 0.41022 0.93173 0.91134 0.0
C1828 C 0.41927 0.93949 0.94113 0.0
C1829 C 0.41959 0.9418 0.01824 0.0
C1830 C 0.3918 0.91807 0.93122 0.0
C1831 C 0.42873 0.9453 0.89153 0.0
C1832 C 0.41695 0.91696 0.72291 0.0
C1833 C 0.41065 0.92451 0.67274 0.0
C1834 C 0.41672 0.9191 0.80029 0.0
C1835 C 0.41001 0.92904 0.82916 0.0
C1836 C 0.40359 0.93669 0.77902 0.0
C1837 C 0.40401 0.93436 0.70167 0.0
C1838 C 0.42386 0.91081 0.85113 0.0
C1839 C 0.39629 0.94737 0.80711 0.0
H1840 H 0.39562 0.9247 0.07494 0.0
H1841 H 0.42663 0.94765 0.04035 0.0
H1842 H 0.38626 0.92296 0.88909 0.0
H1843 H 0.39593 0.91011 0.90299 0.0
H1844 H 0.38569 0.91476 0.97618 0.0
H1845 H 0.43511 0.95118 0.92315 0.0
H1846 H 0.43405 0.93815 0.86251 0.0
H1847 H 0.42424 0.95089 0.84802 0.0
H1848 H 0.42228 0.90946 0.70163 0.0
H1849 H 0.39901 0.94019 0.66389 0.0
H1850 H 0.41778 0.90684 0.89406 0.0
H1851 H 0.43094 0.9161 0.88082 0.0
H1852 H 0.42835 0.90327 0.82034 0.0
H1853 H 0.38947 0.94424 0.84845 0.0
H1854 H 0.39151 0.95223 0.76143 0.0
H1855 H 0.40237 0.9539 0.83596 0.0
C1856 C 0.80257 0.67103 0.8107 0.0
C1857 C 0.80873 0.66378 0.86313 0.0
C1858 C 0.80363 0.66896 0.73371 0.0
C1859 C 0.81079 0.65915 0.70752 0.0
C1860 C 0.81631 0.65123 0.76009 0.0
C1861 C 0.81529 0.65367 0.8372 0.0
C1862 C 0.79766 0.67775 0.68034 0.0
C1863 C 0.8238 0.6405 0.73481 0.0
C1864 C 0.80797 0.65172 0.49929 0.0
C1865 C 0.81826 0.65753 0.47001 0.0
C1866 C 0.80559 0.65179 0.57672 0.0
C1867 C 0.81352 0.6581 0.62573 0.0
C1868 C 0.82382 0.66412 0.59589 0.0
C1869 C 0.82612 0.66364 0.51889 0.0
C1870 C 0.79466 0.64504 0.60616 0.0
C1871 C 0.83235 0.67127 0.64518 0.0
H1872 H 0.79717 0.67865 0.82979 0.0
H1873 H 0.82008 0.64799 0.87681 0.0
H1874 H 0.80477 0.68285 0.64946 0.0
H1875 H 0.79214 0.67278 0.63858 0.0
H1876 H 0.79171 0.6844 0.70937 0.0
H1877 H 0.82599 0.63425 0.78159 0.0
H1878 H 0.8189 0.63533 0.691 0.0
H1879 H 0.83244 0.64377 0.7101 0.0
H1880 H 0.80196 0.64689 0.46175 0.0
H1881 H 0.83401 0.66827 0.49641 0.0
H1882 H 0.7883 0.6515 0.6333 0.0
H1883 H 0.79754 0.6384 0.64925 0.0
H1884 H 0.7897 0.64012 0.56145 0.0
H1885 H 0.82727 0.67863 0.67388 0.0
H1886 H 0.83996 0.67542 0.61336 0.0
H1887 H 0.83622 0.66528 0.68889 0.0
C1888 C 0.098 0.06762 0.57632 0.0
C1889 C 0.08852 0.06058 0.60603 0.0
C1890 C 0.09889 0.06978 0.49891 0.0
C1891 C 0.09 0.06494 0.44984 0.0
C1892 C 0.08036 0.05793 0.47975 0.0
C1893 C 0.07977 0.0558 0.55702 0.0
C1894 C 0.10938 0.07721 0.46955 0.0
C1895 C 0.07055 0.05276 0.43013 0.0
C1896 C 0.08491 0.08021 0.26114 0.0
C1897 C 0.09075 0.07222 0.21151 0.0
C1898 C 0.08468 0.07799 0.33839 0.0
C1899 C 0.09049 0.06752 0.36764 0.0
C1900 C 0.09641 0.0594 0.31796 0.0
C1901 C 0.09642 0.0618 0.24065 0.0
C1902 C 0.07807 0.0868 0.38869 0.0
C1903 C 0.10277 0.04817 0.34654 0.0
H1904 H 0.10485 0.07124 0.61351 0.0
H1905 H 0.0723 0.05052 0.57933 0.0
H1906 H 0.11453 0.07187 0.4276 0.0
H1907 H 0.1059 0.08546 0.44108 0.0
H1908 H 0.11571 0.08006 0.51448 0.0
H1909 H 0.06373 0.0474 0.46184 0.0
H1910 H 0.0658 0.06024 0.40061 0.0
H1911 H 0.07466 0.04681 0.38702 0.0
H1912 H 0.08032 0.08816 0.23943 0.0
H1913 H 0.10103 0.05563 0.20309 0.0
H1914 H 0.08439 0.09042 0.43148 0.0
H1915 H 0.07064 0.08202 0.41858 0.0
H1916 H 0.07411 0.09457 0.35746 0.0
H1917 H 0.10987 0.05078 0.38749 0.0
H1918 H 0.1071 0.04285 0.30105 0.0
H1919 H 0.09619 0.04223 0.376 0.0
C1920 C 0.67126 0.32992 0.99898 0.0
C1921 C 0.67872 0.33631 0.94883 0.0
C1922 C 0.67343 0.33011 0.07633 0.0
C1923 C 0.6833 0.33692 0.10517 0.0
C1924 C 0.69086 0.34344 0.05502 0.0
C1925 C 0.68852 0.34303 0.97769 0.0
C1926 C 0.66523 0.32286 0.12717 0.0
C1927 C 0.70145 0.35085 0.08309 0.0
C1928 C 0.6828 0.3447 0.31366 0.0
C1929 C 0.69072 0.33593 0.34338 0.0
C1930 C 0.68044 0.34526 0.23633 0.0
C1931 C 0.68597 0.33675 0.18737 0.0
C1932 C 0.69385 0.32781 0.21733 0.0
C1933 C 0.69614 0.32754 0.29448 0.0
C1934 C 0.67206 0.35501 0.20692 0.0
C1935 C 0.6998 0.31842 0.16789 0.0
H1936 H 0.6638 0.32452 0.97769 0.0
H1937 H 0.69428 0.3481 0.93988 0.0
H1938 H 0.67063 0.31586 0.15706 0.0
H1939 H 0.66115 0.32889 0.16994 0.0
H1940 H 0.65779 0.31825 0.09635 0.0
H1941 H 0.70629 0.35565 0.03735 0.0
H1942 H 0.69823 0.35767 0.12416 0.0
H1943 H 0.70803 0.34485 0.11223 0.0
H1944 H 0.67865 0.35127 0.35076 0.0
H1945 H 0.7021 0.3206 0.31677 0.0
H1946 H 0.66415 0.35077 0.17872 0.0
H1947 H 0.67688 0.36059 0.16472 0.0
H1948 H 0.66866 0.36109 0.25177 0.0
H1949 H 0.69273 0.313 0.1388 0.0
H1950 H 0.70574 0.3121 0.19966 0.0
H1951 H 0.70534 0.32297 0.12443 0.0
C1952 C 0.4146 0.05474 0.32695 0.0
C1953 C 0.41478 0.06662 0.35561 0.0
C1954 C 0.41357 0.05258 0.2497 0.0
C1955 C 0.41259 0.06252 0.19964 0.0
C1956 C 0.41271 0.07452 0.22835 0.0
C1957 C 0.41383 0.07641 0.3056 0.0
C1958 C 0.41354 0.03964 0.22163 0.0
C1959 C 0.41151 0.0854 0.17747 0.0
C1960 C 0.41946 0.05847 0.99181 0.0
C1961 C 0.40777 0.05714 0.96156 0.0
C1962 C 0.42119 0.06004 0.06915 0.0
C1963 C 0.411 0.06043 0.11757 0.0
C1964 C 0.39918 0.05917 0.08719 0.0
C1965 C 0.39772 0.05752 1.00997 0.0
C1966 C 0.43395 0.06126 0.0991 0.0
C1967 C 0.38803 0.0597 0.13624 0.0
H1968 H 0.41546 0.04712 0.36486 0.0
H1969 H 0.41377 0.08562 0.32701 0.0
H1970 H 0.40489 0.03772 0.19213 0.0
H1971 H 0.42102 0.03833 0.18084 0.0
H1972 H 0.41464 0.03292 0.26739 0.0
H1973 H 0.41195 0.09415 0.20832 0.0
H1974 H 0.41885 0.08529 0.13502 0.0
H1975 H 0.40273 0.08498 0.14719 0.0
H1976 H 0.42727 0.05808 0.95509 0.0
H1977 H 0.38864 0.05672 0.98728 0.0
H1978 H 0.43567 0.05412 0.14155 0.0
H1979 H 0.43503 0.07018 0.12713 0.0
H1980 H 0.44093 0.06048 0.05458 0.0
H1981 H 0.38854 0.05257 0.17986 0.0
H1982 H 0.37949 0.05843 0.10419 0.0
H1983 H 0.38761 0.06861 0.16514 0.0
C1984 C 0.68575 0.65217 0.03249 0.0
C1985 C 0.67567 0.6584 0.06175 0.0
C1986 C 0.6881 0.652 0.95514 0.0
C1987 C 0.68027 0.65829 0.90551 0.0
C1988 C 0.67012 0.66463 0.93481 0.0
C1989 C 0.66795 0.66458 1.01212 0.0
C1990 C 0.699 0.64508 0.92648 0.0
C1991 C 0.66162 0.67162 0.8845 0.0
C1992 C 0.6925 0.66851 0.71642 0.0
C1993 C 0.68739 0.65998 0.66726 0.0
C1994 C 0.69033 0.668 0.79364 0.0
C1995 C 0.68289 0.65867 0.82334 0.0
C1996 C 0.67768 0.65001 0.77414 0.0
C1997 C 0.67992 0.65081 0.69678 0.0
C1998 C 0.69592 0.67755 0.84344 0.0
C1999 C 0.66975 0.63988 0.8033 0.0
H2000 H 0.69171 0.64727 0.07001 0.0
H2001 H 0.66026 0.66961 0.03383 0.0
H2002 H 0.69605 0.63816 0.88528 0.0
H2003 H 0.70528 0.65138 0.89732 0.0
H2004 H 0.70407 0.64045 0.9719 0.0
H2005 H 0.65401 0.6759 0.91571 0.0
H2006 H 0.66672 0.67886 0.85485 0.0
H2007 H 0.65776 0.66549 0.84153 0.0
H2008 H 0.69811 0.67576 0.69431 0.0
H2009 H 0.67602 0.64413 0.65948 0.0
H2010 H 0.70166 0.67317 0.88658 0.0
H2011 H 0.68866 0.68265 0.8729 0.0
H2012 H 0.7016 0.68413 0.81187 0.0
H2013 H 0.67484 0.63446 0.84515 0.0
H2014 H 0.66661 0.6337 0.75826 0.0
H2015 H 0.66168 0.64373 0.83186 0.0
C2016 C 0.09418 0.94182 0.46384 0.0
C2017 C 0.08329 0.93713 0.43527 0.0
C2018 C 0.09678 0.94119 0.54091 0.0
C2019 C 0.08839 0.93553 0.5901 0.0
C2020 C 0.07755 0.93049 0.56074 0.0
C2021 C 0.07512 0.93144 0.48417 0.0
C2022 C 0.10835 0.94681 0.56995 0.0
C2023 C 0.06846 0.92411 0.6103 0.0
C2024 C 0.09748 0.92241 0.77841 0.0
C2025 C 0.09201 0.93057 0.82868 0.0
C2026 C 0.09689 0.92422 0.7009 0.0
C2027 C 0.09085 0.93457 0.67214 0.0
C2028 C 0.08599 0.94326 0.72248 0.0
C2029 C 0.08657 0.94114 0.79997 0.0
C2030 C 0.10215 0.91466 0.64975 0.0
C2031 C 0.07964 0.95453 0.69441 0.0
H2032 H 0.10045 0.94631 0.42627 0.0
H2033 H 0.06676 0.92768 0.46212 0.0
H2034 H 0.10612 0.95412 0.61035 0.0
H2035 H 0.11379 0.93991 0.60021 0.0
H2036 H 0.11401 0.95073 0.5246 0.0
H2037 H 0.0606 0.92047 0.57851 0.0
H2038 H 0.07292 0.91647 0.64003 0.0
H2039 H 0.06499 0.93051 0.65316 0.0
H2040 H 0.10202 0.91438 0.79952 0.0
H2041 H 0.08231 0.94753 0.83771 0.0
H2042 H 0.10809 0.91891 0.60713 0.0
H2043 H 0.09467 0.90999 0.61974 0.0
H2044 H 0.10751 0.90771 0.68052 0.0
H2045 H 0.08518 0.95905 0.65079 0.0
H2046 H 0.07782 0.96115 0.73986 0.0
H2047 H 0.07084 0.95195 0.66862 0.0
C2048 C 0.80832 0.33703 0.59106 0.0
C2049 C 0.81944 0.34119 0.61998 0.0
C2050 C 0.80613 0.33683 0.5136 0.0
C2051 C 0.8153 0.34076 0.46343 0.0
C2052 C 0.82627 0.34554 0.49241 0.0
C2053 C 0.82815 0.34578 0.56993 0.0
C2054 C 0.79423 0.33183 0.48533 0.0
C2055 C 0.83634 0.34979 0.44142 0.0
C2056 C 0.81652 0.32502 0.27465 0.0
C2057 C 0.81166 0.33381 0.22642 0.0
C2058 C 0.81784 0.32726 0.35123 0.0
C2059 C 0.81406 0.33855 0.38129 0.0
C2060 C 0.80929 0.34757 0.33273 0.0
C2061 C 0.80825 0.34514 0.25563 0.0
C2062 C 0.82322 0.31744 0.40009 0.0
C2063 C 0.80502 0.35967 0.36252 0.0
H2064 H 0.80149 0.33346 0.62859 0.0
H2065 H 0.83664 0.34934 0.5912 0.0
H2066 H 0.79034 0.33791 0.44212 0.0
H2067 H 0.79579 0.32283 0.459 0.0
H2068 H 0.78745 0.33069 0.53078 0.0
H2069 H 0.84383 0.3543 0.4724 0.0
H2070 H 0.84015 0.34189 0.41089 0.0
H2071 H 0.83275 0.35623 0.39923 0.0
H2072 H 0.81931 0.31632 0.2521 0.0
H2073 H 0.8044 0.3519 0.21856 0.0
H2074 H 0.81651 0.31463 0.44294 0.0
H2075 H 0.83131 0.321 0.42986 0.0
H2076 H 0.82597 0.30927 0.36777 0.0
H2077 H 0.79748 0.35823 0.40265 0.0
H2078 H 0.80181 0.36583 0.31753 0.0
H2079 H 0.81248 0.36423 0.39328 0.0
C2080 C 0.16335 0.62254 0.17203 0.0
C2081 C 0.16024 0.63127 0.11825 0.0
C2082 C 0.15585 0.61233 0.18467 0.0
C2083 C 0.14504 0.61088 0.14258 0.0
C2084 C 0.1423 0.6193 0.08532 0.0
C2085 C 0.14991 0.62935 0.07395 0.0
C2086 C 0.15917 0.60348 0.24561 0.0
C2087 C 0.13092 0.61813 0.03874 0.0
C2088 C 0.1248 0.58281 0.13402 0.0
C2089 C 0.11504 0.58651 0.17901 0.0
C2090 C 0.13517 0.59023 0.12571 0.0
C2091 C 0.13574 0.60157 0.16328 0.0
C2092 C 0.12631 0.60483 0.21317 0.0
C2093 C 0.11611 0.59728 0.22033 0.0
C2094 C 0.14509 0.58633 0.07282 0.0
C2095 C 0.12653 0.61677 0.25484 0.0
H2096 H 0.17134 0.62393 0.20632 0.0
H2097 H 0.14752 0.63595 0.03151 0.0
H2098 H 0.15311 0.60494 0.29425 0.0
H2099 H 0.15786 0.59397 0.22658 0.0
H2100 H 0.16873 0.60465 0.26426 0.0
H2101 H 0.13062 0.62486 0.99255 0.0
H2102 H 0.13026 0.60887 0.01462 0.0
H2103 H 0.1228 0.61953 0.07451 0.0
H2104 H 0.12406 0.57447 0.10208 0.0
H2105 H 0.10869 0.60012 0.25613 0.0
H2106 H 0.15419 0.58821 0.09687 0.0
H2107 H 0.14433 0.5916 0.02029 0.0
H2108 H 0.14447 0.5765 0.05905 0.0
H2109 H 0.13543 0.61809 0.28273 0.0
H2110 H 0.11923 0.61734 0.2975 0.0
H2111 H 0.12531 0.62438 0.21485 0.0
C2112 C 0.61739 0.89708 0.34837 0.0
C2113 C 0.61564 0.90771 0.39025 0.0
C2114 C 0.62734 0.88941 0.36116 0.0
C2115 C 0.63584 0.89237 0.41755 0.0
C2116 C 0.63449 0.9034 0.45772 0.0
C2117 C 0.62439 0.91097 0.44356 0.0
C2118 C 0.62841 0.8778 0.31648 0.0
C2119 C 0.64339 0.90692 0.51787 0.0
C2120 C 0.64989 0.8636 0.4945 0.0
C2121 C 0.66045 0.86254 0.45114 0.0
C2122 C 0.64231 0.87382 0.48878 0.0
C2123 C 0.64531 0.88323 0.43812 0.0
C2124 C 0.65649 0.88269 0.39885 0.0
C2125 C 0.66396 0.87234 0.40589 0.0
C2126 C 0.63057 0.87403 0.53239 0.0
C2127 C 0.66011 0.89257 0.3449 0.0
H2128 H 0.61077 0.89456 0.30638 0.0
H2129 H 0.62312 0.91918 0.47609 0.0
H2130 H 0.63758 0.8771 0.29115 0.0
H2131 H 0.62722 0.86985 0.35383 0.0
H2132 H 0.62153 0.87724 0.27133 0.0
H2133 H 0.64216 0.9165 0.53599 0.0
H2134 H 0.6421 0.90092 0.56697 0.0
H2135 H 0.65287 0.90568 0.49825 0.0
H2136 H 0.64721 0.85613 0.53037 0.0
H2137 H 0.67211 0.8716 0.37224 0.0
H2138 H 0.62283 0.87246 0.49391 0.0
H2139 H 0.62919 0.88303 0.55892 0.0
H2140 H 0.63034 0.86692 0.57637 0.0
H2141 H 0.65467 0.89168 0.29314 0.0
H2142 H 0.66989 0.89201 0.32982 0.0
H2143 H 0.65822 0.9017 0.36866 0.0
C2144 C 0.33207 0.37399 0.63894 0.0
C2145 C 0.33567 0.36507 0.58747 0.0
C2146 C 0.33966 0.38397 0.65515 0.0
C2147 C 0.3511 0.38502 0.61918 0.0
C2148 C 0.35442 0.3764 0.56425 0.0
C2149 C 0.34669 0.36658 0.5491 0.0
C2150 C 0.33572 0.39305 0.7134 0.0
C2151 C 0.3665 0.37712 0.52434 0.0
C2152 C 0.3718 0.41282 0.62291 0.0
C2153 C 0.38056 0.40917 0.6752 0.0
C2154 C 0.36166 0.40542 0.60714 0.0
C2155 C 0.36029 0.39413 0.64442 0.0
C2156 C 0.36873 0.39079 0.70036 0.0
C2157 C 0.37871 0.39834 0.71502 0.0
C2158 C 0.35279 0.40937 0.54777 0.0
C2159 C 0.36765 0.37887 0.74169 0.0
H2160 H 0.32355 0.37293 0.66862 0.0
H2161 H 0.3495 0.35984 0.50852 0.0
H2162 H 0.34113 0.39167 0.76488 0.0
H2163 H 0.33741 0.40247 0.69392 0.0
H2164 H 0.32593 0.39208 0.72764 0.0
H2165 H 0.36729 0.3703 0.47892 0.0
H2166 H 0.36783 0.38632 0.50021 0.0
H2167 H 0.37398 0.37555 0.56471 0.0
H2168 H 0.37312 0.4212 0.5921 0.0
H2169 H 0.38533 0.3955 0.75626 0.0
H2170 H 0.34329 0.40789 0.56656 0.0
H2171 H 0.3542 0.40381 0.49691 0.0
H2172 H 0.35396 0.4191 0.53275 0.0
H2173 H 0.35837 0.37778 0.76481 0.0
H2174 H 0.37431 0.37813 0.78805 0.0
H2175 H 0.36924 0.37122 0.70248 0.0
C2176 C 0.88437 0.09661 0.76984 0.0
C2177 C 0.88563 0.08589 0.81149 0.0
C2178 C 0.87387 0.10379 0.77517 0.0
C2179 C 0.86435 0.1002 0.82355 0.0
C2180 C 0.86512 0.08886 0.86093 0.0
C2181 C 0.87578 0.08182 0.85446 0.0
C2182 C 0.87343 0.11574 0.73369 0.0
C2183 C 0.85512 0.08461 0.91222 0.0
C2184 C 0.84917 0.12738 0.91368 0.0
C2185 C 0.83888 0.12908 0.86879 0.0
C2186 C 0.85712 0.11761 0.90202 0.0
C2187 C 0.85476 0.10924 0.84383 0.0
C2188 C 0.84399 0.11046 0.80105 0.0
C2189 C 0.83615 0.12039 0.81403 0.0
C2190 C 0.86843 0.11666 0.94947 0.0
C2191 C 0.84107 0.10166 0.73912 0.0
H2192 H 0.89187 0.09973 0.73564 0.0
H2193 H 0.87666 0.07353 0.8867 0.0
H2194 H 0.86456 0.11686 0.70519 0.0
H2195 H 0.8744 0.12335 0.77391 0.0
H2196 H 0.8808 0.1165 0.69157 0.0
H2197 H 0.85595 0.07477 0.92532 0.0
H2198 H 0.85558 0.08978 0.96525 0.0
H2199 H 0.84606 0.08632 0.88718 0.0
H2200 H 0.85127 0.13395 0.95685 0.0
H2201 H 0.82819 0.12163 0.77923 0.0
H2202 H 0.87659 0.1183 0.91443 0.0
H2203 H 0.86927 0.10739 0.97324 0.0
H2204 H 0.86845 0.12333 0.99597 0.0
H2205 H 0.84717 0.10342 0.69105 0.0
H2206 H 0.83151 0.10257 0.7199 0.0
H2207 H 0.84265 0.09215 0.7574 0.0
C2208 C 0.14934 0.36923 0.97244 0.0
C2209 C 0.15996 0.36782 0.92995 0.0
C2210 C 0.14133 0.37894 0.96001 0.0
C2211 C 0.14395 0.38755 0.90357 0.0
C2212 C 0.15503 0.38661 0.86337 0.0
C2213 C 0.16292 0.37674 0.87701 0.0
C2214 C 0.12967 0.37955 1.00446 0.0
C2215 C 0.15823 0.39566 0.80331 0.0
C2216 C 0.11526 0.40026 0.81652 0.0
C2217 C 0.11363 0.41118 0.85575 0.0
C2218 C 0.12546 0.39286 0.82857 0.0
C2219 C 0.13435 0.39644 0.88118 0.0
C2220 C 0.13314 0.4078 0.91796 0.0
C2221 C 0.12277 0.41504 0.90491 0.0
C2222 C 0.12634 0.38086 0.78795 0.0
C2223 C 0.14248 0.41201 0.97381 0.0
H2224 H 0.14704 0.36249 0.01422 0.0
H2225 H 0.17113 0.37576 0.84414 0.0
H2226 H 0.12841 0.38877 0.0283 0.0
H2227 H 0.12182 0.37774 0.96721 0.0
H2228 H 0.12949 0.37282 0.05065 0.0
H2229 H 0.16787 0.39484 0.78555 0.0
H2230 H 0.15235 0.39412 0.75399 0.0
H2231 H 0.15656 0.40509 0.82286 0.0
H2232 H 0.10835 0.39724 0.77769 0.0
H2233 H 0.12162 0.4235 0.93519 0.0
H2234 H 0.12531 0.37328 0.82835 0.0
H2235 H 0.13539 0.37988 0.76136 0.0
H2236 H 0.11924 0.37988 0.74434 0.0
H2237 H 0.14169 0.40649 0.02535 0.0
H2238 H 0.14125 0.42174 0.98879 0.0
H2239 H 0.1518 0.4107 0.95164 0.0
C2240 C 0.87918 0.90213 0.19988 0.0
C2241 C 0.88038 0.91241 0.15426 0.0
C2242 C 0.86886 0.89469 0.19597 0.0
C2243 C 0.85949 0.89755 0.14478 0.0
C2244 C 0.86022 0.90843 0.10258 0.0
C2245 C 0.87068 0.91577 0.1079 0.0
C2246 C 0.86845 0.88327 0.24275 0.0
C2247 C 0.85037 0.91187 0.04808 0.0
C2248 C 0.84534 0.86859 0.07236 0.0
C2249 C 0.83526 0.86724 0.11944 0.0
C2250 C 0.85274 0.87893 0.076 0.0
C2251 C 0.85006 0.88818 0.1284 0.0
C2252 C 0.83933 0.88734 0.17198 0.0
C2253 C 0.83202 0.87685 0.16692 0.0
C2254 C 0.86399 0.87948 0.02775 0.0
C2255 C 0.83606 0.89705 0.22781 0.0
H2256 H 0.88657 0.89959 0.2367 0.0
H2257 H 0.87155 0.92373 0.07261 0.0
H2258 H 0.85956 0.88248 0.27152 0.0
H2259 H 0.86947 0.87519 0.20617 0.0
H2260 H 0.87578 0.88304 0.28529 0.0
H2261 H 0.85105 0.92156 0.03095 0.0
H2262 H 0.85117 0.90613 0.99748 0.0
H2263 H 0.84123 0.91025 0.07235 0.0
H2264 H 0.84778 0.86126 0.03474 0.0
H2265 H 0.82422 0.87587 0.20339 0.0
H2266 H 0.87219 0.87831 0.06311 0.0
H2267 H 0.86472 0.88846 1.00004 0.0
H2268 H 0.86405 0.87228 0.98427 0.0
H2269 H 0.84194 0.8961 0.27771 0.0
H2270 H 0.82643 0.89633 0.24591 0.0
H2271 H 0.83764 0.90625 0.20431 0.0
C2272 C 0.33156 0.62151 0.39084 0.0
C2273 C 0.33504 0.6307 0.44067 0.0
C2274 C 0.33894 0.61118 0.37996 0.0
C2275 C 0.35 0.61005 0.42002 0.0
C2276 C 0.35302 0.61887 0.47443 0.0
C2277 C 0.34553 0.62907 0.4839 0.0
C2278 C 0.33533 0.60192 0.32205 0.0
C2279 C 0.36463 0.61802 0.51906 0.0
C2280 C 0.3706 0.58222 0.42746 0.0
C2281 C 0.37999 0.58583 0.37938 0.0
C2282 C 0.36024 0.58959 0.43767 0.0
C2283 C 0.3593 0.60078 0.39872 0.0
C2284 C 0.36833 0.60394 0.3459 0.0
C2285 C 0.37855 0.59645 0.33706 0.0
C2286 C 0.35076 0.58582 0.49382 0.0
C2287 C 0.36768 0.6157 0.30249 0.0
H2288 H 0.32346 0.62271 0.35727 0.0
H2289 H 0.34818 0.63606 0.52328 0.0
H2290 H 0.34095 0.60322 0.27131 0.0
H2291 H 0.33698 0.59254 0.34257 0.0
H2292 H 0.32561 0.60281 0.30619 0.0
H2293 H 0.36502 0.6249 0.56432 0.0
H2294 H 0.36557 0.60885 0.54414 0.0
H2295 H 0.37254 0.61945 0.48163 0.0
H2296 H 0.37164 0.57401 0.46028 0.0
H2297 H 0.38569 0.59922 0.29899 0.0
H2298 H 0.34147 0.58756 0.47217 0.0
H2299 H 0.35188 0.59128 0.54536 0.0
H2300 H 0.35157 0.57604 0.5087 0.0
H2301 H 0.3586 0.61676 0.27643 0.0
H2302 H 0.37471 0.61619 0.25811 0.0
H2303 H 0.36901 0.62349 0.34097 0.0
C2304 C 0.61827 0.09831 0.70064 0.0
C2305 C 0.61645 0.08748 0.66089 0.0
C2306 C 0.62815 0.10596 0.6852 0.0
C2307 C 0.63648 0.10276 0.62829 0.0
C2308 C 0.63506 0.09154 0.59033 0.0
C2309 C 0.62505 0.084 0.60712 0.0
C2310 C 0.6293 0.11779 0.72751 0.0
C2311 C 0.64378 0.08776 0.52966 0.0
C2312 C 0.65014 0.13097 0.54123 0.0
C2313 C 0.66099 0.13226 0.58151 0.0
C2314 C 0.64253 0.12089 0.55185 0.0
C2315 C 0.64579 0.11185 0.60436 0.0
C2316 C 0.65717 0.11263 0.64114 0.0
C2317 C 0.66467 0.12284 0.62921 0.0
C2318 C 0.63054 0.12042 0.51087 0.0
C2319 C 0.66104 0.10314 0.69703 0.0
H2320 H 0.61177 0.10102 0.74294 0.0
H2321 H 0.62372 0.07564 0.57624 0.0
H2322 H 0.63858 0.11871 0.75104 0.0
H2323 H 0.62785 0.12554 0.68892 0.0
H2324 H 0.62262 0.11851 0.77373 0.0
H2325 H 0.64249 0.07811 0.51312 0.0
H2326 H 0.64235 0.09357 0.47985 0.0
H2327 H 0.65332 0.08907 0.548 0.0
H2328 H 0.64731 0.13813 0.5035 0.0
H2329 H 0.67305 0.12376 0.66047 0.0
H2330 H 0.62301 0.1221 0.5507 0.0
H2331 H 0.6291 0.11129 0.48621 0.0
H2332 H 0.63001 0.12732 0.46574 0.0
H2333 H 0.65575 0.10433 0.74919 0.0
H2334 H 0.67087 0.10386 0.71074 0.0
H2335 H 0.65916 0.09386 0.67573 0.0
C2336 C 0.83164 0.37348 0.91996 0.0
C2337 C 0.83546 0.36429 0.96893 0.0
C2338 C 0.83896 0.38378 0.90691 0.0
C2339 C 0.8503 0.38489 0.94387 0.0
C2340 C 0.85362 0.37616 0.99818 0.0
C2341 C 0.84619 0.36597 1.00985 0.0
C2342 C 0.835 0.39294 0.84921 0.0
C2343 C 0.86555 0.37699 0.0395 0.0
C2344 C 0.87772 0.39792 0.84396 0.0
C2345 C 0.8795 0.40901 0.88093 0.0
C2346 C 0.8679 0.39032 0.86153 0.0
C2347 C 0.85958 0.39385 0.91776 0.0
C2348 C 0.86096 0.40532 0.95291 0.0
C2349 C 0.87092 0.41279 0.93405 0.0
C2350 C 0.86678 0.37822 0.82215 0.0
C2351 C 0.85224 0.40946 1.01267 0.0
H2352 H 0.82337 0.37224 0.88807 0.0
H2353 H 0.84912 0.35898 0.04846 0.0
H2354 H 0.83692 0.40234 0.86826 0.0
H2355 H 0.8402 0.39143 0.79702 0.0
H2356 H 0.82516 0.39213 0.8363 0.0
H2357 H 0.86606 0.37042 0.08644 0.0
H2358 H 0.87314 0.37505 1.00047 0.0
H2359 H 0.86693 0.3863 0.06175 0.0
H2360 H 0.8842 0.39497 0.80217 0.0
H2361 H 0.87221 0.42136 0.96275 0.0
H2362 H 0.85751 0.37714 0.79869 0.0
H2363 H 0.86822 0.37073 0.86264 0.0
H2364 H 0.87349 0.37721 0.77626 0.0
H2365 H 0.8427 0.40794 0.99493 0.0
H2366 H 0.85345 0.41923 0.02655 0.0
H2367 H 0.85374 0.40403 0.06398 0.0
C2368 C 0.37351 0.08154 0.61286 0.0
C2369 C 0.38207 0.08433 0.66824 0.0
C2370 C 0.36362 0.08938 0.59864 0.0
C2371 C 0.36231 0.10023 0.64074 0.0
C2372 C 0.37049 0.10262 0.69983 0.0
C2373 C 0.38022 0.09466 0.71278 0.0
C2374 C 0.35502 0.08642 0.53577 0.0
C2375 C 0.36947 0.11402 0.7464 0.0
C2376 C 0.35019 0.12922 0.55404 0.0
C2377 C 0.33892 0.13063 0.58976 0.0
C2378 C 0.35755 0.11904 0.56726 0.0
C2379 C 0.35358 0.10993 0.61744 0.0
C2380 C 0.34194 0.11095 0.65081 0.0
C2381 C 0.33473 0.12131 0.63669 0.0
C2382 C 0.36989 0.11837 0.53035 0.0
C2383 C 0.33732 0.10137 0.70399 0.0
H2384 H 0.37484 0.07356 0.57839 0.0
H2385 H 0.38668 0.09681 0.75646 0.0
H2386 H 0.34546 0.08802 0.55298 0.0
H2387 H 0.35693 0.0925 0.48778 0.0
H2388 H 0.35599 0.07685 0.51686 0.0
H2389 H 0.37578 0.11395 0.79469 0.0
H2390 H 0.37158 0.12207 0.7114 0.0
H2391 H 0.36005 0.11515 0.76747 0.0
H2392 H 0.35347 0.13627 0.51697 0.0
H2393 H 0.32601 0.12229 0.66424 0.0
H2394 H 0.37109 0.10947 0.50228 0.0
H2395 H 0.37711 0.11917 0.57326 0.0
H2396 H 0.37123 0.12571 0.48855 0.0
H2397 H 0.33882 0.09214 0.68077 0.0
H2398 H 0.32749 0.10253 0.7164 0.0
H2399 H 0.34244 0.10194 0.75712 0.0
C2400 C 0.61585 0.59524 0.31261 0.0
C2401 C 0.61446 0.58472 0.35592 0.0
C2402 C 0.62616 0.60264 0.31945 0.0
C2403 C 0.63534 0.5995 0.37133 0.0
C2404 C 0.63442 0.58842 0.41144 0.0
C2405 C 0.62397 0.58113 0.40314 0.0
C2406 C 0.62679 0.61428 0.27483 0.0
C2407 C 0.64404 0.58469 0.46675 0.0
C2408 C 0.66324 0.61984 0.35682 0.0
C2409 C 0.66001 0.62926 0.40572 0.0
C2410 C 0.65572 0.60955 0.3485 0.0
C2411 C 0.64481 0.60869 0.39031 0.0
C2412 C 0.64209 0.61774 0.44396 0.0
C2413 C 0.64969 0.6279 0.45077 0.0
C2414 C 0.65903 0.60006 0.29128 0.0
C2415 C 0.63065 0.61717 0.49045 0.0
H2416 H 0.60861 0.59798 0.27519 0.0
H2417 H 0.62297 0.57299 0.43672 0.0
H2418 H 0.62569 0.62218 0.31272 0.0
H2419 H 0.63578 0.61515 0.24738 0.0
H2420 H 0.6196 0.61475 0.23143 0.0
H2421 H 0.64318 0.57497 0.48279 0.0
H2422 H 0.65327 0.58626 0.44372 0.0
H2423 H 0.64316 0.59031 0.51782 0.0
H2424 H 0.67122 0.62083 0.32186 0.0
H2425 H 0.64724 0.63508 0.48944 0.0
H2426 H 0.65325 0.60127 0.24116 0.0
H2427 H 0.65733 0.59077 0.31315 0.0
H2428 H 0.6687 0.60076 0.27398 0.0
H2429 H 0.62261 0.61862 0.45412 0.0
H2430 H 0.63053 0.62416 0.5351 0.0
H2431 H 0.62968 0.60807 0.51651 0.0
C2432 C 0.1466 0.86875 0.07438 0.0
C2433 C 0.15736 0.86668 0.11433 0.0
C2434 C 0.13919 0.87883 0.08947 0.0
C2435 C 0.14256 0.88711 0.14623 0.0
C2436 C 0.15372 0.88543 0.18443 0.0
C2437 C 0.16101 0.87522 0.16799 0.0
C2438 C 0.12743 0.88026 0.04686 0.0
C2439 C 0.15768 0.89409 0.24489 0.0
C2440 C 0.12308 0.91568 0.14142 0.0
C2441 C 0.11343 0.91222 0.18798 0.0
C2442 C 0.13323 0.90802 0.13162 0.0
C2443 C 0.13371 0.8967 0.16942 0.0
C2444 C 0.12449 0.89373 0.22141 0.0
C2445 C 0.11447 0.9015 0.22986 0.0
C2446 C 0.14292 0.91161 0.07631 0.0
C2447 C 0.12465 0.88184 0.26354 0.0
H2448 H 0.14377 0.8623 0.03215 0.0
H2449 H 0.16933 0.8737 0.19903 0.0
H2450 H 0.11961 0.8791 0.08538 0.0
H2451 H 0.12679 0.88953 0.02272 0.0
H2452 H 0.12654 0.87352 1.00104 0.0
H2453 H 0.1673 0.89261 0.26136 0.0
H2454 H 0.15656 0.90366 0.22641 0.0
H2455 H 0.15186 0.8928 0.29479 0.0
H2456 H 0.12234 0.92395 0.10882 0.0
H2457 H 0.10711 0.89885 0.26665 0.0
H2458 H 0.14165 0.90636 0.02406 0.0
H2459 H 0.1521 0.90944 0.09809 0.0
H2460 H 0.1425 0.92145 0.06258 0.0
H2461 H 0.12276 0.87425 0.22442 0.0
H2462 H 0.11774 0.88161 0.30868 0.0
H2463 H 0.13374 0.8802 0.28835 0.0
C2464 C 0.8718 0.58502 0.10493 0.0
C2465 C 0.88116 0.58832 0.15401 0.0
C2466 C 0.86163 0.59265 0.09454 0.0
C2467 C 0.86082 0.60376 0.13447 0.0
C2468 C 0.86989 0.60668 0.1875 0.0
C2469 C 0.87993 0.59896 0.19637 0.0
C2470 C 0.85213 0.58917 0.03784 0.0
C2471 C 0.86937 0.61833 0.23204 0.0
C2472 C 0.84663 0.63254 0.05824 0.0
C2473 C 0.83633 0.63382 0.10364 0.0
C2474 C 0.85415 0.62227 0.06351 0.0
C2475 C 0.85138 0.61304 0.11597 0.0
C2476 C 0.84047 0.61383 0.15785 0.0
C2477 C 0.83304 0.62422 0.15106 0.0
C2478 C 0.86558 0.62177 0.01698 0.0
C2479 C 0.83712 0.60418 0.21398 0.0
H2480 H 0.8727 0.57681 0.07197 0.0
H2481 H 0.88706 0.60149 0.23511 0.0
H2482 H 0.84286 0.5907 0.06032 0.0
H2483 H 0.85314 0.59498 0.98767 0.0
H2484 H 0.85298 0.5795 0.02054 0.0
H2485 H 0.87656 0.61874 0.27547 0.0
H2486 H 0.87053 0.62622 0.19414 0.0
H2487 H 0.86039 0.61929 0.25949 0.0
H2488 H 0.84915 0.63987 0.02085 0.0
H2489 H 0.8251 0.62515 0.18643 0.0
H2490 H 0.8666 0.6127 0.99065 0.0
H2491 H 0.87361 0.62323 0.05335 0.0
H2492 H 0.86566 0.62881 0.97257 0.0
H2493 H 0.8387 0.59496 0.19089 0.0
H2494 H 0.82747 0.60493 0.23169 0.0
H2495 H 0.84296 0.60516 0.26404 0.0
C2496 C 0.15353 0.13147 0.96432 0.0
C2497 C 0.16408 0.13333 0.92197 0.0
C2498 C 0.14609 0.12131 0.95277 0.0
C2499 C 0.14924 0.11271 0.89731 0.0
C2500 C 0.16024 0.11415 0.85704 0.0
C2501 C 0.16756 0.12447 0.86983 0.0
C2502 C 0.13448 0.12016 0.99736 0.0
C2503 C 0.16398 0.10513 0.798 0.0
C2504 C 0.12936 0.08448 0.90904 0.0
C2505 C 0.11967 0.08788 0.86271 0.0
C2506 C 0.13965 0.09201 0.91656 0.0
C2507 C 0.14021 0.10314 0.87675 0.0
C2508 C 0.13091 0.10603 0.82518 0.0
C2509 C 0.12078 0.09839 0.81894 0.0
C2510 C 0.14945 0.08851 0.97131 0.0
C2511 C 0.13114 0.11773 0.78102 0.0
H2512 H 0.15084 0.13817 1.00549 0.0
H2513 H 0.17573 0.12582 0.83706 0.0
H2514 H 0.12653 0.12121 0.95982 0.0
H2515 H 0.13387 0.11101 0.02315 0.0
H2516 H 0.13381 0.1271 0.04213 0.0
H2517 H 0.1736 0.10637 0.78079 0.0
H2518 H 0.16273 0.09567 0.81821 0.0
H2519 H 0.15813 0.10629 0.74817 0.0
H2520 H 0.12859 0.07634 0.94287 0.0
H2521 H 0.1134 0.10097 0.7821 0.0
H2522 H 0.14841 0.09399 0.02285 0.0
H2523 H 0.1586 0.09044 0.94813 0.0
H2524 H 0.14893 0.07873 0.98663 0.0
H2525 H 0.12955 0.12553 0.81909 0.0
H2526 H 0.12406 0.11791 0.73686 0.0
H2527 H 0.14016 0.11907 0.75462 0.0
C2528 C 0.62552 0.41311 0.6195 0.0
C2529 C 0.61683 0.4097 0.67286 0.0
C2530 C 0.63588 0.40585 0.60643 0.0
C2531 C 0.63753 0.39497 0.64764 0.0
C2532 C 0.62914 0.39193 0.7045 0.0
C2533 C 0.61893 0.39931 0.71632 0.0
C2534 C 0.64468 0.40949 0.54594 0.0
C2535 C 0.63052 0.38046 0.75015 0.0
C2536 C 0.65176 0.36651 0.56765 0.0
C2537 C 0.66254 0.36558 0.60899 0.0
C2538 C 0.64399 0.37654 0.57559 0.0
C2539 C 0.64704 0.38591 0.62634 0.0
C2540 C 0.65836 0.38549 0.66402 0.0
C2541 C 0.66601 0.37531 0.65488 0.0
C2542 C 0.63208 0.3766 0.53377 0.0
C2543 C 0.66202 0.39537 0.71783 0.0
H2544 H 0.62399 0.42116 0.58587 0.0
H2545 H 0.61237 0.39669 0.75843 0.0
H2546 H 0.6542 0.40833 0.56506 0.0
H2547 H 0.64339 0.40351 0.49679 0.0
H2548 H 0.64333 0.41907 0.52804 0.0
H2549 H 0.62378 0.37992 0.79619 0.0
H2550 H 0.62931 0.37239 0.71368 0.0
H2551 H 0.63978 0.37993 0.77438 0.0
H2552 H 0.64911 0.35912 0.53117 0.0
H2553 H 0.67435 0.37467 0.68682 0.0
H2554 H 0.63059 0.38554 0.50659 0.0
H2555 H 0.62448 0.37513 0.57354 0.0
H2556 H 0.63168 0.36939 0.4905 0.0
H2557 H 0.65996 0.40449 0.6945 0.0
H2558 H 0.67185 0.39491 0.73177 0.0
H2559 H 0.65674 0.39438 0.77017 0.0
C2560 C 0.37915 0.89877 0.29662 0.0
C2561 C 0.38064 0.90952 0.33761 0.0
C2562 C 0.36892 0.89133 0.30651 0.0
C2563 C 0.35991 0.89469 0.35897 0.0
C2564 C 0.3609 0.906 0.39652 0.0
C2565 C 0.37127 0.91331 0.38535 0.0
C2566 C 0.36825 0.87942 0.26476 0.0
C2567 C 0.35143 0.90999 0.45226 0.0
C2568 C 0.33181 0.87432 0.35765 0.0
C2569 C 0.33509 0.86551 0.41059 0.0
C2570 C 0.33946 0.88433 0.3428 0.0
C2571 C 0.35061 0.88552 0.38182 0.0
C2572 C 0.35358 0.877 0.43812 0.0
C2573 C 0.34581 0.86714 0.4517 0.0
C2574 C 0.3359 0.89327 0.28287 0.0
C2575 C 0.36532 0.8779 0.48145 0.0
H2576 H 0.38627 0.89585 0.25879 0.0
H2577 H 0.37234 0.92163 0.41712 0.0
H2578 H 0.36967 0.87178 0.30423 0.0
H2579 H 0.35914 0.87823 0.23934 0.0
H2580 H 0.37522 0.87879 0.2201 0.0
H2581 H 0.35233 0.91978 0.46646 0.0
H2582 H 0.34214 0.90831 0.43053 0.0
H2583 H 0.35246 0.90461 0.5042 0.0
H2584 H 0.32352 0.87316 0.32579 0.0
H2585 H 0.34836 0.86049 0.49344 0.0
H2586 H 0.34168 0.8918 0.23295 0.0
H2587 H 0.33743 0.90274 0.30197 0.0
H2588 H 0.32623 0.89224 0.2662 0.0
H2589 H 0.37313 0.87637 0.44338 0.0
H2590 H 0.36583 0.87112 0.5273 0.0
H2591 H 0.36635 0.88712 0.50563 0.0
C2592 C 0.10007 0.47431 0.93736 0.0
C2593 C 0.08813 0.47166 0.91604 0.0
C2594 C 0.1029 0.48547 0.97172 0.0
C2595 C 0.09347 0.49388 0.98749 0.0
C2596 C 0.08132 0.49095 0.96843 0.0
C2597 C 0.07884 0.47998 0.93159 0.0
C2598 C 0.116 0.48842 0.98894 0.0
C2599 C 0.07092 0.49943 0.98657 0.0
C2600 C 0.09783 0.51866 0.133 0.0
C2601 C 0.0985 0.52907 0.08821 0.0
C2602 C 0.09646 0.50708 0.10101 0.0
C2603 C 0.0962 0.50588 0.02236 0.0
C2604 C 0.09754 0.51636 0.97702 0.0
C2605 C 0.09842 0.52786 1.01057 0.0
C2606 C 0.09459 0.49623 0.15135 0.0
C2607 C 0.09769 0.51547 0.89304 0.0
H2608 H 0.10724 0.46786 0.92466 0.0
H2609 H 0.06959 0.47783 0.91551 0.0
H2610 H 0.11876 0.4967 0.95789 0.0
H2611 H 0.11709 0.49043 0.04912 0.0
H2612 H 0.12224 0.48087 0.97376 0.0
H2613 H 0.06193 0.49537 0.97323 0.0
H2614 H 0.07108 0.50183 0.04664 0.0
H2615 H 0.0719 0.50801 0.95459 0.0
H2616 H 0.09771 0.51966 0.19313 0.0
H2617 H 0.09899 0.53594 0.97607 0.0
H2618 H 0.10108 0.48887 0.13708 0.0
H2619 H 0.08529 0.49255 0.14305 0.0
H2620 H 0.09572 0.49858 0.21117 0.0
H2621 H 0.10419 0.50833 0.87486 0.0
H2622 H 0.10024 0.52422 0.8663 0.0
H2623 H 0.08856 0.5128 0.87261 0.0
C2624 C 0.72775 0.82964 0.32771 0.0
C2625 C 0.71964 0.83843 0.35449 0.0
C2626 C 0.739 0.83297 0.29737 0.0
C2627 C 0.74241 0.84538 0.29612 0.0
C2628 C 0.73418 0.85434 0.3225 0.0
C2629 C 0.72275 0.85075 0.35033 0.0
C2630 C 0.74731 0.82314 0.26769 0.0
C2631 C 0.73763 0.86761 0.32389 0.0
C2632 C 0.7767 0.8488 0.29035 0.0
C2633 C 0.77872 0.85112 0.21463 0.0
C2634 C 0.76484 0.84783 0.31872 0.0
C2635 C 0.7548 0.84875 0.26956 0.0
C2636 C 0.75681 0.85148 0.19336 0.0
C2637 C 0.76877 0.85281 0.16702 0.0
C2638 C 0.76309 0.84527 0.4007 0.0
C2639 C 0.74641 0.85214 0.13862 0.0
H2640 H 0.72525 0.82011 0.33032 0.0
H2641 H 0.71646 0.85751 0.37152 0.0
H2642 H 0.75024 0.82538 0.21012 0.0
H2643 H 0.7556 0.82257 0.3026 0.0
H2644 H 0.74287 0.81407 0.26716 0.0
H2645 H 0.73003 0.87349 0.3432 0.0
H2646 H 0.7455 0.86894 0.36168 0.0
H2647 H 0.74049 0.87066 0.26762 0.0
H2648 H 0.7844 0.84755 0.32723 0.0
H2649 H 0.77035 0.85447 0.10822 0.0
H2650 H 0.76 0.83575 0.40835 0.0
H2651 H 0.75597 0.85131 0.42424 0.0
H2652 H 0.77162 0.84655 0.4329 0.0
H2653 H 0.74243 0.84294 0.13149 0.0
H2654 H 0.74937 0.85552 0.08314 0.0
H2655 H 0.73911 0.85816 0.15996 0.0
C2656 C 0.39579 0.51839 0.41576 0.0
C2657 C 0.39628 0.5285 0.46315 0.0
C2658 C 0.397 0.50654 0.44412 0.0
C2659 C 0.39832 0.50478 0.52194 0.0
C2660 C 0.39814 0.51498 0.57028 0.0
C2661 C 0.39737 0.52674 0.54011 0.0
C2662 C 0.39758 0.49598 0.39044 0.0
C2663 C 0.39916 0.5135 0.65372 0.0
C2664 C 0.39434 0.47296 0.60304 0.0
C2665 C 0.40642 0.46972 0.61718 0.0
C2666 C 0.3915 0.48436 0.5719 0.0
C2667 C 0.40102 0.49245 0.55227 0.0
C2668 C 0.41327 0.48892 0.56371 0.0
C2669 C 0.4158 0.47769 0.59738 0.0
C2670 C 0.37834 0.48795 0.56268 0.0
C2671 C 0.42371 0.49706 0.54135 0.0
H2672 H 0.39511 0.51978 0.35607 0.0
H2673 H 0.3977 0.53457 0.5767 0.0
H2674 H 0.4068 0.49188 0.39217 0.0
H2675 H 0.39105 0.48879 0.40692 0.0
H2676 H 0.3956 0.49878 0.3322 0.0
H2677 H 0.39736 0.52215 0.68383 0.0
H2678 H 0.39266 0.5065 0.67371 0.0
H2679 H 0.40843 0.51035 0.66837 0.0
H2680 H 0.38712 0.46679 0.61923 0.0
H2681 H 0.42515 0.4751 0.60815 0.0
H2682 H 0.3765 0.49056 0.50407 0.0
H2683 H 0.37637 0.49602 0.59779 0.0
H2684 H 0.37203 0.48051 0.57869 0.0
H2685 H 0.42272 0.49988 0.48228 0.0
H2686 H 0.43267 0.49252 0.54828 0.0
H2687 H 0.42364 0.50543 0.57577 0.0
C2688 C 0.77499 0.14305 0.78625 0.0
C2689 C 0.77775 0.15471 0.81255 0.0
C2690 C 0.76349 0.14053 0.75533 0.0
C2691 C 0.75482 0.15001 0.74833 0.0
C2692 C 0.75784 0.16191 0.77218 0.0
C2693 C 0.76918 0.16405 0.80521 0.0
C2694 C 0.76048 0.12767 0.73259 0.0
C2695 C 0.74906 0.17238 0.76346 0.0
C2696 C 0.72835 0.14762 0.61301 0.0
C2697 C 0.71853 0.14634 0.66201 0.0
C2698 C 0.7403 0.14849 0.64008 0.0
C2699 C 0.74245 0.1476 0.71776 0.0
C2700 C 0.73256 0.14561 0.76695 0.0
C2701 C 0.72066 0.14531 0.73858 0.0
C2702 C 0.75049 0.15114 0.58607 0.0
C2703 C 0.73448 0.14422 0.84981 0.0
H2704 H 0.78162 0.13583 0.79256 0.0
H2705 H 0.7714 0.1731 0.82498 0.0
H2706 H 0.75269 0.12431 0.7662 0.0
H2707 H 0.75765 0.12739 0.67331 0.0
H2708 H 0.76828 0.12138 0.74037 0.0
H2709 H 0.75319 0.18123 0.77931 0.0
H2710 H 0.74589 0.17298 0.70486 0.0
H2711 H 0.74094 0.17086 0.79889 0.0
H2712 H 0.72662 0.14861 0.55382 0.0
H2713 H 0.713 0.14434 0.77624 0.0
H2714 H 0.75804 0.14457 0.59368 0.0
H2715 H 0.7542 0.16035 0.59728 0.0
H2716 H 0.74743 0.15077 0.52711 0.0
H2717 H 0.74193 0.13766 0.86099 0.0
H2718 H 0.72613 0.14106 0.87878 0.0
H2719 H 0.73721 0.15308 0.87413 0.0
C2720 C 0.89899 0.47219 0.97913 0.0
C2721 C 0.90113 0.4713 0.90224 0.0
C2722 C 0.89703 0.48357 1.013 0.0
C2723 C 0.89711 0.49426 0.96875 0.0
C2724 C 0.89873 0.49331 0.89071 0.0
C2725 C 0.90075 0.48187 0.85854 0.0
C2726 C 0.89538 0.48421 0.09643 0.0
C2727 C 0.89881 0.50445 0.84137 0.0
C2728 C 0.88501 0.52449 0.04149 0.0
C2729 C 0.89582 0.5306 0.0594 0.0
C2730 C 0.88523 0.51254 1.01354 0.0
C2731 C 0.89652 0.50652 1.00399 0.0
C2732 C 0.90742 0.51255 0.02374 0.0
C2733 C 0.90694 0.52449 0.0509 0.0
C2734 C 0.87343 0.50645 0.99256 0.0
C2735 C 0.91965 0.50645 0.0149 0.0
H2736 H 0.89929 0.46406 1.01328 0.0
H2737 H 0.90227 0.48125 0.79896 0.0
H2738 H 0.90325 0.48897 0.12177 0.0
H2739 H 0.88713 0.48954 0.11043 0.0
H2740 H 0.89461 0.47504 0.12212 0.0
H2741 H 0.89923 0.50209 0.78122 0.0
H2742 H 0.89055 0.51002 0.85135 0.0
H2743 H 0.90679 0.5102 0.85511 0.0
H2744 H 0.87638 0.52913 0.04806 0.0
H2745 H 0.91532 0.52903 0.06585 0.0
H2746 H 0.87265 0.49751 0.02088 0.0
H2747 H 0.87327 0.50469 0.93166 0.0
H2748 H 0.86538 0.51207 1.00731 0.0
H2749 H 0.91972 0.49761 0.04471 0.0
H2750 H 0.92721 0.51214 0.03654 0.0
H2751 H 0.92138 0.50454 0.95512 0.0
C2752 C 0.23505 0.16585 0.87979 0.0
C2753 C 0.22462 0.15889 0.86587 0.0
C2754 C 0.24558 0.16446 0.83652 0.0
C2755 C 0.24581 0.15565 0.779 0.0
C2756 C 0.23549 0.1482 0.76674 0.0
C2757 C 0.22493 0.15004 0.80961 0.0
C2758 C 0.25625 0.1728 0.85028 0.0
C2759 C 0.23551 0.13849 0.70733 0.0
C2760 C 0.26722 0.16258 0.61879 0.0
C2761 C 0.27775 0.15623 0.63961 0.0
C2762 C 0.25667 0.16217 0.66261 0.0
C2763 C 0.25652 0.15501 0.72815 0.0
C2764 C 0.26692 0.14809 0.74764 0.0
C2765 C 0.27748 0.14891 0.70364 0.0
C2766 C 0.2459 0.16992 0.64061 0.0
C2767 C 0.26701 0.14011 0.81609 0.0
H2768 H 0.23485 0.17277 0.92282 0.0
H2769 H 0.21691 0.14458 0.79896 0.0
H2770 H 0.26458 0.16741 0.86128 0.0
H2771 H 0.258 0.17838 0.79982 0.0
H2772 H 0.2547 0.17902 0.89817 0.0
H2773 H 0.22738 0.13252 0.71098 0.0
H2774 H 0.23565 0.14279 0.65141 0.0
H2775 H 0.2438 0.13279 0.71206 0.0
H2776 H 0.26734 0.16831 0.56965 0.0
H2777 H 0.28557 0.14393 0.71986 0.0
H2778 H 0.24414 0.17681 0.68449 0.0
H2779 H 0.23761 0.16424 0.63578 0.0
H2780 H 0.24735 0.1747 0.58681 0.0
H2781 H 0.26713 0.14587 0.86683 0.0
H2782 H 0.27507 0.13403 0.81758 0.0
H2783 H 0.25866 0.13447 0.81832 0.0
C2784 C 0.58065 0.47766 0.5961 0.0
C2785 C 0.59017 0.46965 0.61229 0.0
C2786 C 0.58284 0.48874 0.5599 0.0
C2787 C 0.59493 0.4921 0.54214 0.0
C2788 C 0.60461 0.48399 0.55843 0.0
C2789 C 0.60207 0.47272 0.59217 0.0
C2790 C 0.57221 0.49689 0.5412 0.0
C2791 C 0.61764 0.48741 0.54252 0.0
C2792 C 0.59869 0.51727 0.39871 0.0
C2793 C 0.59884 0.52761 0.44427 0.0
C2794 C 0.59773 0.50558 0.4298 0.0
C2795 C 0.59734 0.50423 0.50832 0.0
C2796 C 0.59819 0.51466 0.55449 0.0
C2797 C 0.59867 0.52625 0.52181 0.0
C2798 C 0.59639 0.49477 0.37859 0.0
C2799 C 0.59819 0.51362 0.63841 0.0
H2800 H 0.57143 0.47518 0.61129 0.0
H2801 H 0.60942 0.4665 0.60538 0.0
H2802 H 0.57281 0.50544 0.5738 0.0
H2803 H 0.57246 0.49941 0.4813 0.0
H2804 H 0.56333 0.49251 0.55338 0.0
H2805 H 0.62409 0.48003 0.55753 0.0
H2806 H 0.61881 0.48961 0.48263 0.0
H2807 H 0.62006 0.49569 0.57456 0.0
H2808 H 0.59865 0.51838 0.33864 0.0
H2809 H 0.59885 0.53428 0.55689 0.0
H2810 H 0.5872 0.49077 0.38558 0.0
H2811 H 0.60308 0.48761 0.39317 0.0
H2812 H 0.59763 0.49726 0.31906 0.0
H2813 H 0.58911 0.51061 0.65795 0.0
H2814 H 0.60039 0.5224 0.66593 0.0
H2815 H 0.60488 0.50667 0.65663 0.0
C2816 C 0.27272 0.84937 0.30334 0.0
C2817 C 0.27333 0.84121 0.36329 0.0
C2818 C 0.26187 0.85088 0.2628 0.0
C2819 C 0.25154 0.8438 0.28143 0.0
C2820 C 0.25206 0.83574 0.34287 0.0
C2821 C 0.26289 0.83467 0.38348 0.0
C2822 C 0.26156 0.8598 0.19889 0.0
C2823 C 0.24138 0.82778 0.36359 0.0
C2824 C 0.21936 0.84962 0.2119 0.0
C2825 C 0.21862 0.84142 0.15223 0.0
C2826 C 0.23027 0.85106 0.25196 0.0
C2827 C 0.24052 0.84386 0.23318 0.0
C2828 C 0.23986 0.83577 0.17195 0.0
C2829 C 0.22899 0.83477 0.13177 0.0
C2830 C 0.23071 0.86001 0.31561 0.0
C2831 C 0.25045 0.82769 0.15114 0.0
H2832 H 0.28074 0.85451 0.28776 0.0
H2833 H 0.26328 0.82829 0.42947 0.0
H2834 H 0.26119 0.85478 0.14531 0.0
H2835 H 0.25328 0.86554 0.20221 0.0
H2836 H 0.26969 0.86579 0.19821 0.0
H2837 H 0.24316 0.82224 0.41422 0.0
H2838 H 0.23319 0.83343 0.37365 0.0
H2839 H 0.23926 0.82154 0.31677 0.0
H2840 H 0.2114 0.85484 0.22763 0.0
H2841 H 0.22849 0.82836 0.08598 0.0
H2842 H 0.23906 0.86565 0.312 0.0
H2843 H 0.23105 0.85503 0.36932 0.0
H2844 H 0.22265 0.8661 0.31628 0.0
H2845 H 0.25871 0.83323 0.14115 0.0
H2846 H 0.2486 0.82219 0.10047 0.0
H2847 H 0.2525 0.82141 0.19791 0.0
C2848 C 0.59979 0.97065 0.48462 0.0
C2849 C 0.59076 0.96946 0.43004 0.0
C2850 C 0.60154 0.98178 0.52194 0.0
C2851 C 0.59381 0.99177 0.50588 0.0
C2852 C 0.58479 0.99061 0.45012 0.0
C2853 C 0.58349 0.97954 0.41233 0.0
C2854 C 0.61148 0.98278 0.57957 0.0
C2855 C 0.57612 0.00088 0.43262 0.0
C2856 C 0.58635 0.01494 0.65524 0.0
C2857 C 0.59216 0.02543 0.62842 0.0
C2858 C 0.5872 0.00384 0.61728 0.0
C2859 C 0.59427 0.00308 0.55156 0.0
C2860 C 0.60069 0.01347 0.52617 0.0
C2861 C 0.59944 0.02458 0.5644 0.0
C2862 C 0.57996 0.99309 0.64542 0.0
C2863 C 0.60856 0.01294 0.45732 0.0
H2864 H 0.60548 0.96291 0.49808 0.0
H2865 H 0.57642 0.97866 0.3706 0.0
H2866 H 0.61693 0.99113 0.57001 0.0
H2867 H 0.6074 0.98353 0.63593 0.0
H2868 H 0.61764 0.97478 0.57882 0.0
H2869 H 0.5698 -0.0014 0.38642 0.0
H2870 H 0.57066 0.0031 0.48286 0.0
H2871 H 0.58124 0.00919 0.41712 0.0
H2872 H 0.58068 0.01548 0.70455 0.0
H2873 H 0.60402 0.03263 0.54363 0.0
H2874 H 0.58595 0.98508 0.65309 0.0
H2875 H 0.57297 0.99057 0.60362 0.0
H2876 H 0.57533 0.99503 0.69916 0.0
H2877 H 0.6145 0.00479 0.45877 0.0
H2878 H 0.61434 0.02117 0.45142 0.0
H2879 H 0.60272 0.01219 0.40713 0.0
C2880 C 0.2322 0.33667 0.88986 0.0
C2881 C 0.22167 0.34319 0.87095 0.0
C2882 C 0.24264 0.33713 0.84513 0.0
C2883 C 0.24272 0.34455 0.78064 0.0
C2884 C 0.23233 0.35164 0.76313 0.0
C2885 C 0.22186 0.35074 0.80795 0.0
C2886 C 0.25339 0.3292 0.86501 0.0
C2887 C 0.23216 0.35989 0.69595 0.0
C2888 C 0.27425 0.34938 0.69802 0.0
C2889 C 0.27437 0.34071 0.64072 0.0
C2890 C 0.26376 0.35125 0.74152 0.0
C2891 C 0.25331 0.34401 0.72881 0.0
C2892 C 0.25334 0.3354 0.67008 0.0
C2893 C 0.2638 0.33398 0.62625 0.0
C2894 C 0.26397 0.36075 0.8022 0.0
C2895 C 0.24252 0.32727 0.65572 0.0
H2896 H 0.23214 0.33075 0.93816 0.0
H2897 H 0.21378 0.35585 0.79319 0.0
H2898 H 0.255 0.32249 0.81985 0.0
H2899 H 0.26174 0.33478 0.87021 0.0
H2900 H 0.25199 0.32418 0.91807 0.0
H2901 H 0.22419 0.36611 0.69634 0.0
H2902 H 0.2406 0.36542 0.69357 0.0
H2903 H 0.23179 0.35435 0.64438 0.0
H2904 H 0.28237 0.35467 0.70913 0.0
H2905 H 0.26385 0.3272 0.58238 0.0
H2906 H 0.26399 0.35625 0.85752 0.0
H2907 H 0.25569 0.3665 0.79926 0.0
H2908 H 0.27211 0.36669 0.79839 0.0
H2909 H 0.2408 0.32149 0.70535 0.0
H2910 H 0.2439 0.32125 0.60669 0.0
H2911 H 0.23424 0.33282 0.64625 0.0
C2912 C 0.89608 0.9796 0.11011 0.0
C2913 C 0.89669 0.96946 0.06303 0.0
C2914 C 0.89768 0.99141 0.08183 0.0
C2915 C 0.89957 0.99309 1.00437 0.0
C2916 C 0.89934 0.98289 0.95609 0.0
C2917 C 0.89814 0.97117 0.98622 0.0
C2918 C 0.89824 0.00197 0.13552 0.0
C2919 C 0.90097 0.98429 0.87296 0.0
C2920 C 0.8985 0.02511 0.92256 0.0
C2921 C 0.91091 0.02753 0.91319 0.0
C2922 C 0.89459 0.01391 0.95216 0.0
C2923 C 0.90333 0.00519 0.97506 0.0
C2924 C 0.91587 0.00787 0.96826 0.0
C2925 C 0.91949 0.01892 0.93631 0.0
C2926 C 0.88116 0.01124 0.9567 0.0
C2927 C 0.92551 -0.00097 0.99408 0.0
H2928 H 0.8951 0.97826 0.16969 0.0
H2929 H 0.89852 0.96332 0.94979 0.0
H2930 H 0.90771 0.00544 0.13822 0.0
H2931 H 0.89242 0.00956 0.11603 0.0
H2932 H 0.89535 -0.00065 0.19265 0.0
H2933 H 0.8988 0.97577 0.84244 0.0
H2934 H 0.89509 0.99171 0.85147 0.0
H2935 H 0.91053 0.98679 0.86057 0.0
H2936 H 0.89188 0.03179 0.90432 0.0
H2937 H 0.9291 0.02088 0.92994 0.0
H2938 H 0.8786 0.00876 0.01452 0.0
H2939 H 0.87897 0.00332 0.92077 0.0
H2940 H 0.87553 0.0191 0.93872 0.0
H2941 H 0.92383 0.99636 0.05284 0.0
H2942 H 0.93482 0.00289 0.98988 0.0
H2943 H 0.92513 0.99063 0.95991 0.0
C2944 C 0.2676 0.64811 0.39806 0.0
C2945 C 0.27805 0.64779 0.35348 0.0
C2946 C 0.25601 0.64932 0.36591 0.0
C2947 C 0.25487 0.64978 0.28728 0.0
C2948 C 0.2654 0.64882 0.24208 0.0
C2949 C 0.27689 0.64808 0.27583 0.0
C2950 C 0.24509 0.65079 0.41615 0.0
C2951 C 0.26457 0.64888 0.15807 0.0
C2952 C 0.2235 0.64533 0.20093 0.0
C2953 C 0.22055 0.65726 0.18074 0.0
C2954 C 0.23469 0.64269 0.23538 0.0
C2955 C 0.24283 0.6523 0.25237 0.0
C2956 C 0.23959 0.66443 0.23445 0.0
C2957 C 0.2286 0.66672 0.19751 0.0
C2958 C 0.23798 0.62963 0.25139 0.0
C2959 C 0.24778 0.67499 0.25389 0.0
H2960 H 0.26855 0.64805 0.45822 0.0
H2961 H 0.285 0.64776 0.2415 0.0
H2962 H 0.24115 0.66 0.40847 0.0
H2963 H 0.23794 0.64412 0.4012 0.0
H2964 H 0.24743 0.64959 0.47593 0.0
H2965 H 0.27341 0.64666 0.13128 0.0
H2966 H 0.25765 0.64224 0.13904 0.0
H2967 H 0.26165 0.658 0.13852 0.0
H2968 H 0.21726 0.63803 0.18727 0.0
H2969 H 0.22621 0.67597 0.18228 0.0
H2970 H 0.23998 0.62842 0.31151 0.0
H2971 H 0.24634 0.62716 0.22026 0.0
H2972 H 0.23061 0.62323 0.23542 0.0
H2973 H 0.25014 0.67472 0.314 0.0
H2974 H 0.24349 0.68391 0.24133 0.0
H2975 H 0.25639 0.67433 0.22206 0.0
C2976 C 0.41701 0.01545 0.5898 0.0
C2977 C 0.40762 0.02368 0.60505 0.0
C2978 C 0.41472 0.00454 0.55182 0.0
C2979 C 0.40265 0.00157 0.53124 0.0
C2980 C 0.39311 0.00987 0.5468 0.0
C2981 C 0.39575 0.02098 0.58233 0.0
C2982 C 0.42523 0.99619 0.53397 0.0
C2983 C 0.38008 0.00686 0.52799 0.0
C2984 C 0.39873 0.97716 0.38275 0.0
C2985 C 0.39794 0.96663 0.42635 0.0
C2986 C 0.40003 0.98866 0.41608 0.0
C2987 C 0.4001 0.98964 0.49487 0.0
C2988 C 0.39869 0.97902 0.53896 0.0
C2989 C 0.39788 0.96761 0.50411 0.0
C2990 C 0.40198 -0.00035 0.36705 0.0
C2991 C 0.39834 0.97968 0.623 0.0
H2992 H 0.42621 0.01764 0.60691 0.0
H2993 H 0.38851 0.02735 0.59475 0.0
H2994 H 0.42422 0.98752 0.56493 0.0
H2995 H 0.42526 0.99395 0.47365 0.0
H2996 H 0.43415 0.00027 0.54872 0.0
H2997 H 0.37373 0.01429 0.54356 0.0
H2998 H 0.37916 0.00505 0.46746 0.0
H2999 H 0.37732 0.99844 0.55769 0.0
H3000 H 0.39894 0.97634 0.32253 0.0
H3001 H 0.39721 0.95944 0.53767 0.0
H3002 H 0.41121 0.0034 0.37705 0.0
H3003 H 0.39536 0.0069 0.38109 0.0
H3004 H 0.40111 0.99745 0.30687 0.0
H3005 H 0.40739 0.98239 0.64452 0.0
H3006 H 0.39582 0.97083 0.64862 0.0
H3007 H 0.39172 0.98669 0.64133 0.0
C3008 C 0.7197 0.64729 0.24679 0.0
C3009 C 0.7174 0.64529 0.32256 0.0
C3010 C 0.73165 0.64828 0.22003 0.0
C3011 C 0.74151 0.64773 0.27082 0.0
C3012 C 0.73922 0.64535 0.34716 0.0
C3013 C 0.72718 0.64397 0.37191 0.0
C3014 C 0.7337 0.65045 0.13787 0.0
C3015 C 0.7494 0.64511 0.40357 0.0
C3016 C 0.77401 0.64561 0.1973 0.0
C3017 C 0.77707 0.65793 0.19173 0.0
C3018 C 0.76242 0.64208 0.22284 0.0
C3019 C 0.75397 0.65109 0.24557 0.0
C3020 C 0.7573 0.66352 0.24271 0.0
C3021 C 0.76872 0.66678 0.2146 0.0
C3022 C 0.75908 0.62877 0.22313 0.0
C3023 C 0.74875 0.67342 0.26864 0.0
H3024 H 0.71212 0.64824 0.20857 0.0
H3025 H 0.72539 0.64257 0.43072 0.0
H3026 H 0.7367 0.65996 0.12884 0.0
H3027 H 0.74099 0.64439 0.11661 0.0
H3028 H 0.72532 0.64888 0.10467 0.0
H3029 H 0.74624 0.64206 0.45936 0.0
H3030 H 0.75682 0.63901 0.38477 0.0
H3031 H 0.75331 0.65437 0.40909 0.0
H3032 H 0.78049 0.63879 0.17909 0.0
H3033 H 0.77118 0.67632 0.21088 0.0
H3034 H 0.75133 0.62722 0.18471 0.0
H3035 H 0.75607 0.62595 0.27954 0.0
H3036 H 0.76677 0.62288 0.20565 0.0
H3037 H 0.74062 0.67369 0.23216 0.0
H3038 H 0.75309 0.68254 0.26798 0.0
H3039 H 0.74556 0.67148 0.32612 0.0
C3040 C 0.0808 0.98045 0.07358 0.0
C3041 C 0.08948 0.97191 0.09644 0.0
C3042 C 0.08429 0.99163 0.04285 0.0
C3043 C 0.0968 0.99453 0.03705 0.0
C3044 C 0.10564 0.98589 0.05973 0.0
C3045 C 0.10186 0.97455 0.08807 0.0
C3046 C 0.07456 0.00038 0.0172 0.0
C3047 C 0.11903 0.98878 0.05626 0.0
C3048 C 0.10398 0.02046 0.90417 0.0
C3049 C 0.10319 0.03053 0.95185 0.0
C3050 C 0.10243 0.00859 0.93155 0.0
C3051 C 0.10042 0.00675 1.00876 0.0
C3052 C 0.10044 0.01687 0.0577 0.0
C3053 C 0.1016 0.02866 0.02844 0.0
C3054 C 0.10207 0.99812 0.87713 0.0
C3055 C 0.09868 0.0153 0.14061 0.0
H3056 H 0.07122 0.97833 0.07922 0.0
H3057 H 0.10855 0.96793 0.10614 0.0
H3058 H 0.07476 0.00871 0.05199 0.0
H3059 H 0.07628 0.00319 0.95873 0.0
H3060 H 0.0653 0.99637 0.02062 0.0
H3061 H 0.12475 0.98098 0.07419 0.0
H3062 H 0.12166 0.99139 0.99875 0.0
H3063 H 0.12103 0.99668 0.09275 0.0
H3064 H 0.10507 0.02192 0.84477 0.0
H3065 H 0.10108 0.03644 0.06537 0.0
H3066 H 0.09267 0.9945 0.874 0.0
H3067 H 0.10802 0.9906 0.89625 0.0
H3068 H 0.10495 0.0009 0.82024 0.0
H3069 H 0.08914 0.01264 0.15218 0.0
H3070 H 0.10067 0.0238 0.17184 0.0
H3071 H 0.10463 0.00794 0.16202 0.0
C3072 C 0.72132 0.34952 0.77775 0.0
C3073 C 0.72015 0.35068 0.70039 0.0
C3074 C 0.73281 0.34862 0.81122 0.0
C3075 C 0.74337 0.34844 0.76587 0.0
C3076 C 0.74223 0.35005 0.68779 0.0
C3077 C 0.73062 0.35134 0.65607 0.0
C3078 C 0.73361 0.34726 0.89483 0.0
C3079 C 0.75319 0.34954 0.63716 0.0
C3080 C 0.77464 0.3503 0.85751 0.0
C3081 C 0.77719 0.33797 0.86907 0.0
C3082 C 0.76366 0.35393 0.82375 0.0
C3083 C 0.7553 0.34498 0.79902 0.0
C3084 C 0.75814 0.3325 0.80799 0.0
C3085 C 0.76895 0.32917 0.84388 0.0
C3086 C 0.7608 0.36731 0.81682 0.0
C3087 C 0.7497 0.32264 0.7805 0.0
H3088 H 0.71322 0.34914 0.81204 0.0
H3089 H 0.72969 0.35211 0.59609 0.0
H3090 H 0.73624 0.3378 0.90899 0.0
H3091 H 0.74071 0.35338 0.91771 0.0
H3092 H 0.72482 0.34932 0.92269 0.0
H3093 H 0.75094 0.35222 0.57907 0.0
H3094 H 0.76051 0.35556 0.65814 0.0
H3095 H 0.75685 0.34013 0.63644 0.0
H3096 H 0.78102 0.35709 0.87725 0.0
H3097 H 0.771 0.31961 0.85187 0.0
H3098 H 0.75261 0.36948 0.85039 0.0
H3099 H 0.75869 0.36964 0.75811 0.0
H3100 H 0.76843 0.37312 0.83614 0.0
H3101 H 0.74104 0.32295 0.81206 0.0
H3102 H 0.75369 0.31341 0.7868 0.0
H3103 H 0.74749 0.32412 0.72084 0.0
C3104 C 0.02293 0.56774 0.10501 0.0
C3105 C 0.0302 0.55727 0.10906 0.0
C3106 C 0.0102 0.56695 0.1038 0.0
C3107 C 0.00454 0.55539 0.10633 0.0
C3108 C 0.01181 0.54476 0.10838 0.0
C3109 C 0.02456 0.54582 0.10976 0.0
C3110 C 0.0028 0.57852 0.10123 0.0
C3111 C 0.00612 0.53228 0.11086 0.0
C3112 C 0.97227 0.55531 0.18192 0.0
C3113 C 0.96533 0.55541 0.1163 0.0
C3114 C 0.98502 0.55491 0.17946 0.0
C3115 C 0.99102 0.55456 0.10966 0.0
C3116 C 0.98408 0.5542 0.04325 0.0
C3117 C 0.97132 0.55466 0.04734 0.0
C3118 C 0.99208 0.55528 0.2516 0.0
C3119 C 0.99013 0.55378 0.96775 0.0
H3120 H 0.02721 0.57661 0.10295 0.0
H3121 H 0.03009 0.53769 0.11341 0.0
H3122 H 0.99655 0.57835 0.05272 0.0
H3123 H 0.99711 0.57923 0.15213 0.0
H3124 H 0.00859 0.58677 0.09729 0.0
H3125 H 0.01301 0.5249 0.10799 0.0
H3126 H 0.00085 0.53122 0.16319 0.0
H3127 H -0.00034 0.53116 0.0639 0.0
H3128 H 0.96771 0.55566 0.23547 0.0
H3129 H 0.96607 0.55486 0.99628 0.0
H3130 H 0.99748 0.56379 0.25436 0.0
H3131 H -0.00143 0.54757 0.25407 0.0
H3132 H 0.98606 0.55486 0.30127 0.0
H3133 H 0.99514 0.56238 0.95789 0.0
H3134 H 0.98347 0.5525 0.92186 0.0
H3135 H 0.99687 0.54627 0.96567 0.0
C3136 C 0.68664 0.7215 0.39282 0.0
C3137 C 0.68881 0.71408 0.33058 0.0
C3138 C 0.68668 0.73422 0.38683 0.0
C3139 C 0.68905 0.73972 0.31697 0.0
C3140 C 0.69163 0.73232 0.25432 0.0
C3141 C 0.69144 0.71958 0.26181 0.0
C3142 C 0.68392 0.74178 0.4551 0.0
C3143 C 0.69429 0.73784 0.17905 0.0
C3144 C 0.67635 0.77166 0.29448 0.0
C3145 C 0.68647 0.77888 0.31205 0.0
C3146 C 0.67718 0.75891 0.29329 0.0
C3147 C 0.68842 0.75322 0.30959 0.0
C3148 C 0.69879 0.76045 0.32411 0.0
C3149 C 0.69769 0.77318 0.32541 0.0
C3150 C 0.6659 0.75153 0.27737 0.0
C3151 C 0.71095 0.75474 0.34132 0.0
H3152 H 0.68484 0.71735 0.44649 0.0
H3153 H 0.69303 0.71394 0.21325 0.0
H3154 H 0.69147 0.74823 0.46588 0.0
H3155 H 0.67559 0.74726 0.44552 0.0
H3156 H 0.68254 0.73611 0.50565 0.0
H3157 H 0.69685 0.73088 0.13703 0.0
H3158 H 0.68616 0.7428 0.15862 0.0
H3159 H 0.70178 0.74456 0.18366 0.0
H3160 H 0.6677 0.77597 0.28269 0.0
H3161 H 0.70554 0.77865 0.3398 0.0
H3162 H 0.66336 0.74623 0.32764 0.0
H3163 H 0.66768 0.74493 0.23194 0.0
H3164 H 0.65805 0.75733 0.26121 0.0
H3165 H 0.71047 0.74993 0.39559 0.0
H3166 H 0.71836 0.76159 0.34423 0.0
H3167 H 0.71332 0.74788 0.29832 0.0
C3168 C 0.47242 0.43852 0.75052 0.0
C3169 C 0.466 0.43892 0.68298 0.0
C3170 C 0.48519 0.43871 0.75176 0.0
C3171 C 0.49173 0.43925 0.6838 0.0
C3172 C 0.48531 0.43983 0.6155 0.0
C3173 C 0.47254 0.43967 0.61591 0.0
C3174 C 0.4917 0.43816 0.82576 0.0
C3175 C 0.49193 0.44034 0.54181 0.0
C3176 C 0.52498 0.4489 0.68496 0.0
C3177 C 0.53097 0.43764 0.68197 0.0
C3178 C 0.51222 0.44958 0.68618 0.0
C3179 C 0.50527 0.43874 0.68392 0.0
C3180 C 0.51127 0.42735 0.68091 0.0
C3181 C 0.52403 0.42694 0.68005 0.0
C3182 C 0.50616 0.46188 0.68976 0.0
C3183 C 0.50421 0.41558 0.67782 0.0
H3184 H 0.46743 0.43806 0.80256 0.0
H3185 H 0.46767 0.43979 0.56342 0.0
H3186 H 0.49725 0.42975 0.82884 0.0
H3187 H 0.49801 0.44598 0.83117 0.0
H3188 H 0.4853 0.43827 0.87368 0.0
H3189 H 0.48561 0.44122 0.49382 0.0
H3190 H 0.49831 0.44814 0.54105 0.0
H3191 H 0.49742 0.43196 0.53432 0.0
H3192 H 0.53029 0.4572 0.68707 0.0
H3193 H 0.52858 0.41822 0.67643 0.0
H3194 H 0.50021 0.46241 0.73962 0.0
H3195 H 0.50028 0.4632 0.64019 0.0
H3196 H 0.51285 0.46944 0.69213 0.0
H3197 H 0.49816 0.41485 0.72709 0.0
H3198 H 0.51025 0.40748 0.67632 0.0
H3199 H 0.49834 0.41547 0.62758 0.0
C3200 C 0.8008 0.27317 0.86812 0.0
C3201 C 0.8121 0.279 0.86173 0.0
C3202 C 0.79992 0.26042 0.86723 0.0
C3203 C 0.8106 0.25332 0.85972 0.0
C3204 C 0.82199 0.25916 0.85151 0.0
C3205 C 0.82261 0.27191 0.85259 0.0
C3206 C 0.7876 0.25454 0.87608 0.0
C3207 C 0.83358 0.25192 0.84288 0.0
C3208 C 0.81096 0.22082 0.93242 0.0
C3209 C 0.80968 0.21407 0.86656 0.0
C3210 C 0.81109 0.2336 0.93109 0.0
C3211 C 0.80992 0.23979 0.86223 0.0
C3212 C 0.80844 0.23304 0.79568 0.0
C3213 C 0.80835 0.22027 0.79862 0.0
C3214 C 0.81264 0.24047 1.00333 0.0
C3215 C 0.80718 0.2393 0.72116 0.0
H3216 H 0.79266 0.27857 0.87609 0.0
H3217 H 0.83135 0.27635 0.84652 0.0
H3218 H 0.78586 0.24821 0.82914 0.0
H3219 H 0.7874 0.24909 0.92811 0.0
H3220 H 0.78013 0.26134 0.87823 0.0
H3221 H 0.84166 0.25783 0.83496 0.0
H3222 H 0.83505 0.2462 0.89303 0.0
H3223 H 0.83284 0.2457 0.79442 0.0
H3224 H 0.81185 0.21611 0.98519 0.0
H3225 H 0.80756 0.21514 0.74728 0.0
H3226 H 0.80496 0.24688 1.01136 0.0
H3227 H 0.82109 0.24596 1.00122 0.0
H3228 H 0.81312 0.23431 0.05235 0.0
H3229 H 0.79951 0.24584 0.72265 0.0
H3230 H 0.80562 0.23275 0.67496 0.0
H3231 H 0.81554 0.24457 0.70886 0.0
C3232 C 0.96971 0.44359 0.90796 0.0
C3233 C 0.96322 0.44191 0.84146 0.0
C3234 C 0.98248 0.44371 0.90851 0.0
C3235 C 0.98894 0.44221 0.84082 0.0
C3236 C 0.98244 0.4408 0.77324 0.0
C3237 C 0.96966 0.44059 0.77444 0.0
C3238 C 0.98906 0.44508 0.98188 0.0
C3239 C 0.98898 0.43933 0.69981 0.0
C3240 C 0.0223 0.45156 0.83677 0.0
C3241 C 0.02819 0.44031 0.84434 0.0
C3242 C 0.00954 0.45232 0.83468 0.0
C3243 C 0.0025 0.44159 0.84125 0.0
C3244 C 0.00841 0.43021 0.84919 0.0
C3245 C 0.02116 0.42971 0.85032 0.0
C3246 C 0.00359 0.4646 0.8254 0.0
C3247 C 0.00125 0.41857 0.85735 0.0
H3248 H 0.9648 0.44443 0.9601 0.0
H3249 H 0.96468 0.43938 0.72284 0.0
H3250 H 0.99449 0.43678 0.99333 0.0
H3251 H 0.99549 0.45284 0.97915 0.0
H3252 H 0.98272 0.44659 0.02919 0.0
H3253 H 0.98261 0.43898 0.65183 0.0
H3254 H 0.99541 0.44697 0.69122 0.0
H3255 H 0.9944 0.43082 0.70042 0.0
H3256 H 0.02769 0.45977 0.8316 0.0
H3257 H 0.02565 0.42101 0.85736 0.0
H3258 H 0.99771 0.46658 0.87415 0.0
H3259 H 0.99767 0.46457 0.77536 0.0
H3260 H 0.01035 0.47205 0.81963 0.0
H3261 H 0.99528 0.41912 0.90713 0.0
H3262 H 0.00721 0.41047 0.86302 0.0
H3263 H 0.99528 0.41726 0.8082 0.0
C3264 C 0.81177 0.77464 0.15513 0.0
C3265 C 0.80821 0.78225 0.21401 0.0
C3266 C 0.81174 0.76194 0.16292 0.0
C3267 C 0.80802 0.75667 0.23123 0.0
C3268 C 0.80417 0.76427 0.29044 0.0
C3269 C 0.80431 0.77698 0.28113 0.0
C3270 C 0.81584 0.75417 0.09821 0.0
C3271 C 0.80011 0.75899 0.36403 0.0
C3272 C 0.79933 0.72325 0.22056 0.0
C3273 C 0.81018 0.71752 0.24217 0.0
C3274 C 0.79833 0.73599 0.21959 0.0
C3275 C 0.80842 0.7432 0.24053 0.0
C3276 C 0.81924 0.73748 0.26518 0.0
C3277 C 0.81998 0.72472 0.26576 0.0
C3278 C 0.78663 0.74172 0.19306 0.0
C3279 C 0.83019 0.74484 0.28831 0.0
H3280 H 0.81459 0.77862 0.10265 0.0
H3281 H 0.80165 0.78279 0.32711 0.0
H3282 H 0.8239 0.74872 0.11468 0.0
H3283 H 0.80856 0.74768 0.08255 0.0
H3284 H 0.81825 0.75967 0.04842 0.0
H3285 H 0.79692 0.7661 0.40345 0.0
H3286 H 0.79265 0.75237 0.35505 0.0
H3287 H 0.80775 0.75397 0.39019 0.0
H3288 H 0.79175 0.71779 0.20141 0.0
H3289 H 0.82833 0.72038 0.2837 0.0
H3290 H 0.78821 0.74641 0.13917 0.0
H3291 H 0.78348 0.74868 0.23345 0.0
H3292 H 0.77928 0.73491 0.18523 0.0
H3293 H 0.83376 0.74992 0.23954 0.0
H3294 H 0.8376 0.73905 0.31101 0.0
H3295 H 0.82759 0.75164 0.33111 0.0
C3296 C 0.47231 0.56663 0.45238 0.0
C3297 C 0.46498 0.55626 0.44468 0.0
C3298 C 0.48504 0.56576 0.45225 0.0
C3299 C 0.49063 0.55423 0.44426 0.0
C3300 C 0.4833 0.54368 0.43871 0.0
C3301 C 0.47056 0.54482 0.43908 0.0
C3302 C 0.4925 0.57724 0.45882 0.0
C3303 C 0.48892 0.53123 0.43014 0.0
C3304 C 0.52244 0.55493 0.36198 0.0
C3305 C 0.52975 0.55415 0.42586 0.0
C3306 C 0.50971 0.55457 0.36706 0.0
C3307 C 0.50412 0.55339 0.43778 0.0
C3308 C 0.51144 0.55218 0.50228 0.0
C3309 C 0.52417 0.55257 0.49556 0.0
C3310 C 0.50225 0.55583 0.29684 0.0
C3311 C 0.50582 0.5509 0.57866 0.0
H3312 H 0.46807 0.57548 0.45812 0.0
H3313 H 0.46497 0.53677 0.43262 0.0
H3314 H 0.49904 0.57642 0.50558 0.0
H3315 H 0.49787 0.57861 0.40713 0.0
H3316 H 0.48677 0.58542 0.46813 0.0
H3317 H 0.48201 0.52387 0.43161 0.0
H3318 H 0.49387 0.53071 0.37633 0.0
H3319 H 0.49565 0.52959 0.47506 0.0
H3320 H 0.52669 0.55594 0.3078 0.0
H3321 H 0.52975 0.55206 0.54525 0.0
H3322 H 0.49689 0.56437 0.29902 0.0
H3323 H 0.49569 0.5482 0.29235 0.0
H3324 H 0.50798 0.55598 0.24584 0.0
H3325 H 0.5009 0.55938 0.59325 0.0
H3326 H 0.51273 0.54908 0.62241 0.0
H3327 H 0.49907 0.54341 0.57895 0.0
C3328 C 0.68248 0.22376 0.67219 0.0
C3329 C 0.69273 0.21647 0.65918 0.0
C3330 C 0.68342 0.23647 0.67638 0.0
C3331 C 0.69491 0.24209 0.66772 0.0
C3332 C 0.70538 0.23477 0.65704 0.0
C3333 C 0.70417 0.22205 0.65287 0.0
C3334 C 0.67203 0.24391 0.68815 0.0
C3335 C 0.71779 0.24041 0.64781 0.0
C3336 C 0.69372 0.27458 0.59623 0.0
C3337 C 0.69472 0.28135 0.66228 0.0
C3338 C 0.6942 0.26183 0.59702 0.0
C3339 C 0.69577 0.25563 0.66552 0.0
C3340 C 0.69729 0.2624 0.73205 0.0
C3341 C 0.69674 0.27518 0.72966 0.0
C3342 C 0.69258 0.25497 0.52473 0.0
C3343 C 0.69903 0.25613 0.80614 0.0
H3344 H 0.67365 0.21952 0.67873 0.0
H3345 H 0.71213 0.2165 0.64239 0.0
H3346 H 0.67314 0.24999 0.73699 0.0
H3347 H 0.6704 0.24978 0.63882 0.0
H3348 H 0.66387 0.23814 0.69717 0.0
H3349 H 0.72512 0.23347 0.64569 0.0
H3350 H 0.71807 0.2458 0.59554 0.0
H3351 H 0.71969 0.24676 0.69443 0.0
H3352 H 0.6924 0.27928 0.54373 0.0
H3353 H 0.69745 0.28032 0.78101 0.0
H3354 H 0.68405 0.24961 0.52683 0.0
H3355 H 0.70018 0.24846 0.51661 0.0
H3356 H 0.69218 0.26114 0.47573 0.0
H3357 H 0.69061 0.25116 0.82132 0.0
H3358 H 0.70119 0.26266 0.8515 0.0
H3359 H 0.70645 0.24933 0.80239 0.0
C3360 C 0.30386 0.2738 0.63362 0.0
C3361 C 0.3052 0.28047 0.56744 0.0
C3362 C 0.30403 0.26102 0.63318 0.0
C3363 C 0.30551 0.25473 0.56487 0.0
C3364 C 0.3066 0.26141 0.49768 0.0
C3365 C 0.30647 0.27419 0.49981 0.0
C3366 C 0.30294 0.25425 0.70612 0.0
C3367 C 0.30809 0.25506 0.42365 0.0
C3368 C 0.31867 0.22274 0.57131 0.0
C3369 C 0.30821 0.21551 0.56522 0.0
C3370 C 0.31791 0.23549 0.57103 0.0
C3371 C 0.30642 0.24119 0.56413 0.0
C3372 C 0.29583 0.23395 0.55738 0.0
C3373 C 0.29685 0.2212 0.55829 0.0
C3374 C 0.32941 0.24288 0.57905 0.0
C3375 C 0.28342 0.23967 0.5494 0.0
H3376 H 0.30305 0.27858 0.68622 0.0
H3377 H 0.3074 0.27929 0.4484 0.0
H3378 H 0.29534 0.24764 0.70341 0.0
H3379 H 0.31138 0.24899 0.7166 0.0
H3380 H 0.30137 0.26046 0.75403 0.0
H3381 H 0.30825 0.26154 0.37615 0.0
H3382 H 0.31669 0.24978 0.42337 0.0
H3383 H 0.30056 0.2485 0.41497 0.0
H3384 H 0.32746 0.21843 0.57796 0.0
H3385 H 0.28874 0.21567 0.55298 0.0
H3386 H 0.32885 0.24866 0.6296 0.0
H3387 H 0.33048 0.24904 0.53054 0.0
H3388 H 0.33765 0.23706 0.5833 0.0
H3389 H 0.28141 0.24539 0.59884 0.0
H3390 H 0.2761 0.23278 0.54347 0.0
H3391 H 0.28325 0.24573 0.49994 0.0
C3392 C 0.19052 0.72373 0.16956 0.0
C3393 C 0.18929 0.7167 0.10471 0.0
C3394 C 0.19059 0.7365 0.16632 0.0
C3395 C 0.18943 0.74241 0.09652 0.0
C3396 C 0.18844 0.73537 0.03072 0.0
C3397 C 0.18836 0.72262 0.03562 0.0
C3398 C 0.19159 0.74367 0.23783 0.0
C3399 C 0.18728 0.74132 0.95519 0.0
C3400 C 0.17684 0.77464 0.09505 0.0
C3401 C 0.18745 0.78166 0.08839 0.0
C3402 C 0.17737 0.76188 0.09733 0.0
C3403 C 0.18877 0.75595 0.09271 0.0
C3404 C 0.19951 0.76296 0.08532 0.0
C3405 C 0.19872 0.77572 0.08345 0.0
C3406 C 0.16571 0.75476 0.10574 0.0
C3407 C 0.21183 0.75698 0.07981 0.0
H3408 H 0.19108 0.71925 0.22326 0.0
H3409 H 0.18754 0.71724 0.98521 0.0
H3410 H 0.19932 0.75012 0.23447 0.0
H3411 H 0.18322 0.74913 0.24626 0.0
H3412 H 0.19291 0.73772 0.28722 0.0
H3413 H 0.18711 0.73457 0.90914 0.0
H3414 H 0.17879 0.74676 0.95292 0.0
H3415 H 0.19496 0.74766 0.94581 0.0
H3416 H 0.16812 0.77914 0.10025 0.0
H3417 H 0.20694 0.78107 0.07771 0.0
H3418 H 0.16601 0.74929 0.1577 0.0
H3419 H 0.16469 0.7483 0.05863 0.0
H3420 H 0.15757 0.76073 0.10762 0.0
H3421 H 0.21361 0.75153 0.1307 0.0
H3422 H 0.21928 0.7637 0.07299 0.0
H3423 H 0.21202 0.75062 0.03179 0.0
C3424 C 0.19384 0.27716 0.87464 0.0
C3425 C 0.19231 0.28366 0.94134 0.0
C3426 C 0.19427 0.26439 0.87424 0.0
C3427 C 0.19318 0.25793 0.94221 0.0
C3428 C 0.19187 0.26443 1.00988 0.0
C3429 C 0.19141 0.27721 1.00861 0.0
C3430 C 0.1956 0.25781 0.80082 0.0
C3431 C 0.19075 0.25789 0.08354 0.0
C3432 C 0.18154 0.2254 0.93414 0.0
C3433 C 0.19233 0.21863 0.93984 0.0
C3434 C 0.18171 0.23816 0.93509 0.0
C3435 C 0.19293 0.24437 0.94207 0.0
C3436 C 0.20385 0.23761 0.94806 0.0
C3437 C 0.20342 0.22483 0.94663 0.0
C3438 C 0.16986 0.24502 0.92789 0.0
C3439 C 0.21598 0.24389 0.95591 0.0
H3440 H 0.19436 0.28205 0.8223 0.0
H3441 H 0.19035 0.28217 0.06041 0.0
H3442 H 0.20351 0.25156 0.80279 0.0
H3443 H 0.18741 0.25218 0.79034 0.0
H3444 H 0.19681 0.26416 0.75326 0.0
H3445 H 0.1903 0.26427 0.13145 0.0
H3446 H 0.18243 0.25219 0.08369 0.0
H3447 H 0.19861 0.2517 0.0916 0.0
H3448 H 0.17295 0.2207 0.92752 0.0
H3449 H 0.21178 0.21966 0.95159 0.0
H3450 H 0.17011 0.25092 0.87774 0.0
H3451 H 0.16854 0.25103 0.97686 0.0
H3452 H 0.16191 0.23884 0.92345 0.0
H3453 H 0.21765 0.24982 0.90692 0.0
H3454 H 0.22363 0.23733 0.96082 0.0
H3455 H 0.21594 0.24982 1.00593 0.0
C3456 C 0.29499 0.72177 0.40396 0.0
C3457 C 0.30637 0.71619 0.39513 0.0
C3458 C 0.29392 0.73451 0.40746 0.0
C3459 C 0.30447 0.74184 0.40161 0.0
C3460 C 0.31595 0.73625 0.39131 0.0
C3461 C 0.31675 0.72352 0.38825 0.0
C3462 C 0.28152 0.74013 0.41856 0.0
C3463 C 0.32741 0.74372 0.3841 0.0
C3464 C 0.30205 0.77516 0.3467 0.0
C3465 C 0.30361 0.78105 0.41548 0.0
C3466 C 0.30202 0.76242 0.34161 0.0
C3467 C 0.3036 0.75535 0.40685 0.0
C3468 C 0.30493 0.76122 0.47665 0.0
C3469 C 0.30495 0.77399 0.4801 0.0
C3470 C 0.30063 0.75652 0.26608 0.0
C3471 C 0.30658 0.75401 0.54755 0.0
H3472 H 0.28695 0.71617 0.40998 0.0
H3473 H 0.32556 0.71928 0.38023 0.0
H3474 H 0.28137 0.74536 0.47141 0.0
H3475 H 0.27954 0.74661 0.37278 0.0
H3476 H 0.27418 0.73319 0.42043 0.0
H3477 H 0.3356 0.73799 0.3751 0.0
H3478 H 0.32656 0.75016 0.33678 0.0
H3479 H 0.32878 0.74922 0.43526 0.0
H3480 H 0.3012 0.78053 0.29628 0.0
H3481 H 0.30604 0.77847 0.5335 0.0
H3482 H 0.29307 0.74985 0.26709 0.0
H3483 H 0.30905 0.75145 0.2519 0.0
H3484 H 0.29884 0.76327 0.22133 0.0
H3485 H 0.29903 0.74742 0.55422 0.0
H3486 H 0.30692 0.75992 0.59772 0.0
H3487 H 0.31514 0.74869 0.54452 0.0
C3488 C 0.52561 0.05643 0.75344 0.0
C3489 C 0.5322 0.05543 0.68674 0.0
C3490 C 0.51284 0.05602 0.75368 0.0
C3491 C 0.50648 0.05471 0.68549 0.0
C3492 C 0.51309 0.05356 0.61808 0.0
C3493 C 0.52585 0.0539 0.61955 0.0
C3494 C 0.50614 0.05717 0.82678 0.0
C3495 C 0.50667 0.05228 0.54412 0.0
C3496 C 0.47334 0.04464 0.68647 0.0
C3497 C 0.46722 0.05579 0.67949 0.0
C3498 C 0.4861 0.04415 0.68924 0.0
C3499 C 0.49293 0.05504 0.68417 0.0
C3500 C 0.4868 0.06631 0.67677 0.0
C3501 C 0.47404 0.06654 0.67473 0.0
C3502 C 0.4923 0.03197 0.69767 0.0
C3503 C 0.49372 0.07812 0.67028 0.0
H3504 H 0.53047 0.0575 0.80558 0.0
H3505 H 0.53086 0.05331 0.56765 0.0
H3506 H 0.50049 0.06553 0.82648 0.0
H3507 H 0.49989 0.04934 0.83431 0.0
H3508 H 0.51241 0.05757 0.87521 0.0
H3509 H 0.51312 0.05106 0.49706 0.0
H3510 H 0.50041 0.04437 0.5455 0.0
H3511 H 0.50107 0.06049 0.53326 0.0
H3512 H 0.46811 0.03631 0.69069 0.0
H3513 H 0.46939 0.07517 0.66807 0.0
H3514 H 0.49811 0.03199 0.74819 0.0
H3515 H 0.49833 0.03027 0.6492 0.0
H3516 H 0.48569 0.02436 0.70204 0.0
H3517 H 0.49959 0.07941 0.71991 0.0
H3518 H 0.4876 0.08611 0.66512 0.0
H3519 H 0.49977 0.07784 0.6208 0.0
C3520 C 0.02426 0.94989 0.06687 0.0
C3521 C 0.02996 0.93865 0.05448 0.0
C3522 C 0.01153 0.95097 0.06568 0.0
C3523 C 0.00431 0.94055 0.05215 0.0
C3524 C 0.01001 0.92928 0.03671 0.0
C3525 C 0.02275 0.92847 0.03785 0.0
C3526 C 0.0058 0.96317 0.082 0.0
C3527 C 0.00265 0.91795 0.02181 0.0
C3528 C 0.97263 0.93883 0.13584 0.0
C3529 C 0.9652 0.94085 0.07352 0.0
C3530 C 0.98535 0.93891 0.12974 0.0
C3531 C 0.99082 0.94118 0.05966 0.0
C3532 C 0.9834 0.94359 0.9969 0.0
C3533 C 0.97067 0.94338 1.00453 0.0
C3534 C 0.99293 0.93633 0.19814 0.0
C3535 C 0.9889 0.94612 0.92137 0.0
H3536 H 0.02972 0.95779 0.08049 0.0
H3537 H 0.02707 0.9198 0.02683 0.0
H3538 H -0.00107 0.96543 0.03892 0.0
H3539 H 0.00101 0.96279 0.13638 0.0
H3540 H 0.01263 0.9706 0.08423 0.0
H3541 H 0.00845 0.91008 1.00615 0.0
H3542 H 0.99738 0.9155 0.07238 0.0
H3543 H 0.99602 0.91962 0.97638 0.0
H3544 H 0.9685 0.9371 0.18966 0.0
H3545 H 0.96501 0.94485 0.95593 0.0
H3546 H -0.00063 0.94391 0.20817 0.0
H3547 H 0.99841 0.92798 0.18921 0.0
H3548 H 0.98727 0.93505 0.24888 0.0
H3549 H 0.99559 0.95364 0.92533 0.0
H3550 H 0.98192 0.94858 0.87924 0.0
H3551 H 0.99387 0.93796 0.9015 0.0
C3552 C 0.52406 0.92749 0.37955 0.0
C3553 C 0.53101 0.93815 0.37387 0.0
C3554 C 0.51131 0.92794 0.38164 0.0
C3555 C 0.50531 0.93932 0.37789 0.0
C3556 C 0.51226 0.95012 0.37237 0.0
C3557 C 0.52502 0.94941 0.37058 0.0
C3558 C 0.50424 0.9162 0.38796 0.0
C3559 C 0.50621 0.96243 0.3679 0.0
C3560 C 0.47249 0.93851 0.31189 0.0
C3561 C 0.46605 0.93896 0.37938 0.0
C3562 C 0.48524 0.93895 0.31052 0.0
C3563 C 0.49176 0.93983 0.37833 0.0
C3564 C 0.48531 0.94063 0.44656 0.0
C3565 C 0.47253 0.94021 0.44627 0.0
C3566 C 0.49175 0.93817 0.23655 0.0
C3567 C 0.49192 0.94155 0.52006 0.0
H3568 H 0.5286 0.91877 0.38362 0.0
H3569 H 0.53033 0.95768 0.36572 0.0
H3570 H 0.4984 0.91641 0.4384 0.0
H3571 H 0.49815 0.91516 0.33911 0.0
H3572 H 0.51027 0.90811 0.39119 0.0
H3573 H 0.5129 0.96997 0.3649 0.0
H3574 H 0.50028 0.96285 0.31797 0.0
H3575 H 0.50032 0.96386 0.41732 0.0
H3576 H 0.46754 0.93774 0.25989 0.0
H3577 H 0.46763 0.94045 0.49866 0.0
H3578 H 0.49729 0.92973 0.23443 0.0
H3579 H 0.49808 0.94595 0.23014 0.0
H3580 H 0.48536 0.93813 0.18865 0.0
H3581 H 0.49733 0.93317 0.52953 0.0
H3582 H 0.4856 0.94278 0.56775 0.0
H3583 H 0.49838 0.9493 0.51898 0.0
C3584 C 0.02872 0.04982 0.93935 0.0
C3585 C 0.03503 0.06067 0.95318 0.0
C3586 C 0.01595 0.04946 0.9412 0.0
C3587 C 0.00934 0.0602 0.95782 0.0
C3588 C 0.01569 0.07103 0.97505 0.0
C3589 C 0.02844 0.07114 0.97229 0.0
C3590 C 0.00951 0.03774 0.92221 0.0
C3591 C 0.00901 0.08264 0.99381 0.0
C3592 C 0.97769 0.06437 0.87744 0.0
C3593 C 0.97023 0.06199 0.93921 0.0
C3594 C 0.99038 0.06361 0.8826 0.0
C3595 C 0.99583 0.0604 0.95135 0.0
C3596 C 0.98837 0.05782 0.0138 0.0
C3597 C 0.97565 0.05861 1.00693 0.0
C3598 C 0.99799 0.06634 0.81448 0.0
C3599 C 0.99384 0.05445 0.08811 0.0
H3600 H 0.03377 0.04172 0.92418 0.0
H3601 H 0.03328 0.07951 0.98425 0.0
H3602 H 0.00269 0.03551 0.96564 0.0
H3603 H 0.00455 0.03883 0.8688 0.0
H3604 H 0.01592 0.02999 0.9167 0.0
H3605 H 0.01528 0.09001 1.01161 0.0
H3606 H 0.00387 0.08582 0.94432 0.0
H3607 H 0.00233 0.08099 0.03899 0.0
H3608 H 0.97356 0.06676 0.82457 0.0
H3609 H 0.96995 0.05682 0.05498 0.0
H3610 H 0.00399 0.05851 0.80166 0.0
H3611 H 0.00393 0.07429 0.82545 0.0
H3612 H 0.99234 0.06833 0.76464 0.0
H3613 H -8e-05 0.04646 0.08174 0.0
H3614 H 0.9868 0.05228 0.13049 0.0
H3615 H -0.00052 0.06207 0.10913 0.0
loop_
_geom_bond_atom_site_label_1
_geom_bond_atom_site_label_2
_geom_bond_distance
_geom_bond_site_symmetry_2
_ccdc_geom_bond_type
C0 C1 1.351 . S
C0 N3 1.368 . S
C0 H5 0.931 . S
C1 C0 1.351 . S
C1 N2 1.373 . S
C1 H29 0.930 . S
N2 C1 1.373 . S
N2 C4 1.340 . S
N3 C0 1.368 . S
N3 C4 1.321 . S
N3 Co6 2.135 1_556 S
C4 N2 1.340 . S
C4 N3 1.321 . S
C4 H28 0.930 . S
H5 C0 0.931 . S
Co6 N3 2.135 1_554 S
Co6 N9 2.121 . S
Co6 O14 2.055 . S
Co6 O17 2.039 . S
Co6 N20 2.140 . S
C7 O8 1.227 . S
C7 O17 1.265 . S
O8 C7 1.227 . S
N9 Co6 2.121 . S
N9 C11 1.375 . S
N9 C12 1.313 . S
C10 C11 1.338 . S
C10 N13 1.377 . S
C10 H30 0.930 . S
C11 N9 1.375 . S
C11 C10 1.338 . S
C11 H15 0.931 . S
C12 N9 1.313 . S
C12 N13 1.344 . S
C12 H16 0.930 . S
N13 C10 1.377 . S
N13 C12 1.344 . S
O14 Co6 2.055 . S
O14 C18 1.253 . S
H15 C11 0.931 . S
H16 C12 0.930 . S
O17 Co6 2.039 . S
O17 C7 1.265 . S
C18 O14 1.253 . S
C18 O19 1.227 . S
O19 C18 1.227 . S
N20 Co6 2.140 . S
N20 C23 1.346 1_554 S
N20 C24 1.345 . S
C21 C22 1.387 1_554 S
C21 C25 1.391 . S
C22 C21 1.387 1_556 S
C22 C23 1.369 . S
C22 H31 0.929 . S
C23 N20 1.346 1_556 S
C23 C22 1.369 . S
C23 H26 0.928 . S
C24 N20 1.345 . S
C24 C25 1.371 . S
C24 H27 0.931 . S
C25 C21 1.391 . S
C25 C24 1.371 . S
C25 H32 0.930 . S
H26 C23 0.928 . S
H27 C24 0.931 . S
H28 C4 0.930 . S
H29 C1 0.930 . S
H30 C10 0.930 . S
H31 C22 0.929 . S
H32 C25 0.930 . S
C33 C34 1.351 . S
C33 N36 1.368 . S
C33 H38 0.931 . S
C34 C33 1.351 . S
C34 N35 1.373 . S
C34 H62 0.930 . S
N35 C34 1.373 . S
N35 C37 1.340 . S
N36 C33 1.368 . S
N36 C37 1.321 . S
N36 Co39 2.135 . S
C37 N35 1.340 . S
C37 N36 1.321 . S
C37 H61 0.930 . S
H38 C33 0.931 . S
Co39 N36 2.135 . S
Co39 N42 2.121 . S
Co39 O47 2.055 . S
Co39 O50 2.039 . S
Co39 N53 2.140 . S
C40 O41 1.227 . S
C40 O50 1.265 . S
O41 C40 1.227 . S
N42 Co39 2.121 . S
N42 C44 1.375 . S
N42 C45 1.313 . S
C43 C44 1.338 . S
C43 N46 1.377 . S
C43 H63 0.930 . S
C44 N42 1.375 . S
C44 C43 1.338 . S
C44 H48 0.931 . S
C45 N42 1.313 . S
C45 N46 1.344 . S
C45 H49 0.930 . S
N46 C43 1.377 . S
N46 C45 1.344 . S
O47 Co39 2.055 . S
O47 C51 1.253 . S
H48 C44 0.931 . S
H49 C45 0.930 . S
O50 Co39 2.039 . S
O50 C40 1.265 . S
C51 O47 1.253 . S
C51 O52 1.227 . S
O52 C51 1.227 . S
N53 Co39 2.140 . S
N53 C56 1.346 . S
N53 C57 1.345 . S
C54 C55 1.387 . S
C54 C58 1.391 . S
C55 C54 1.387 . S
C55 C56 1.369 . S
C55 H64 0.929 . S
C56 N53 1.346 . S
C56 C55 1.369 . S
C56 H59 0.928 . S
C57 N53 1.345 . S
C57 C58 1.371 . S
C57 H60 0.931 . S
C58 C54 1.391 . S
C58 C57 1.371 . S
C58 H65 0.930 . S
H59 C56 0.928 . S
H60 C57 0.931 . S
H61 C37 0.930 . S
H62 C34 0.930 . S
H63 C43 0.930 . S
H64 C55 0.929 . S
H65 C58 0.930 . S
C66 C67 1.351 . S
C66 N69 1.368 . S
C66 H71 0.931 . S
C67 C66 1.351 . S
C67 N68 1.373 . S
C67 H95 0.930 . S
N68 C67 1.373 . S
N68 C70 1.340 . S
N69 C66 1.368 . S
N69 C70 1.321 . S
N69 Co72 2.135 . S
C70 N68 1.340 . S
C70 N69 1.321 . S
C70 H94 0.930 . S
H71 C66 0.931 . S
Co72 N69 2.135 . S
Co72 N75 2.121 . S
Co72 O80 2.055 . S
Co72 O83 2.039 . S
Co72 N86 2.140 . S
C73 O74 1.227 . S
C73 O83 1.265 . S
O74 C73 1.227 . S
N75 Co72 2.121 . S
N75 C77 1.375 . S
N75 C78 1.313 . S
C76 C77 1.338 . S
C76 N79 1.377 . S
C76 H96 0.930 . S
C77 N75 1.375 . S
C77 C76 1.338 . S
C77 H81 0.931 . S
C78 N75 1.313 . S
C78 N79 1.344 . S
C78 H82 0.930 . S
N79 C76 1.377 . S
N79 C78 1.344 . S
O80 Co72 2.055 . S
O80 C84 1.253 . S
H81 C77 0.931 . S
H82 C78 0.930 . S
O83 Co72 2.039 . S
O83 C73 1.265 . S
C84 O80 1.253 . S
C84 O85 1.227 . S
O85 C84 1.227 . S
N86 Co72 2.140 . S
N86 C89 1.346 . S
N86 C90 1.345 . S
C87 C88 1.387 . S
C87 C91 1.391 . S
C88 C87 1.387 . S
C88 C89 1.369 . S
C88 H97 0.929 . S
C89 N86 1.346 . S
C89 C88 1.369 . S
C89 H92 0.928 . S
C90 N86 1.345 . S
C90 C91 1.371 . S
C90 H93 0.931 . S
C91 C87 1.391 . S
C91 C90 1.371 . S
C91 H98 0.930 . S
H92 C89 0.928 . S
H93 C90 0.931 . S
H94 C70 0.930 . S
H95 C67 0.930 . S
H96 C76 0.930 . S
H97 C88 0.929 . S
H98 C91 0.930 . S
C99 C100 1.351 . S
C99 N102 1.368 . S
C99 H104 0.931 . S
C100 C99 1.351 . S
C100 N101 1.373 . S
C100 H128 0.930 . S
N101 C100 1.373 . S
N101 C103 1.340 . S
N102 C99 1.368 . S
N102 C103 1.321 . S
N102 Co105 2.135 . S
C103 N101 1.340 . S
C103 N102 1.321 . S
C103 H127 0.930 . S
H104 C99 0.931 . S
Co105 N102 2.135 . S
Co105 N108 2.121 . S
Co105 O113 2.055 . S
Co105 O116 2.039 . S
Co105 N119 2.140 . S
C106 O107 1.227 . S
C106 O116 1.265 . S
O107 C106 1.227 . S
N108 Co105 2.121 . S
N108 C110 1.375 . S
N108 C111 1.313 . S
C109 C110 1.338 1_554 S
C109 N112 1.377 . S
C109 H129 0.930 . S
C110 N108 1.375 . S
C110 C109 1.338 1_556 S
C110 H114 0.931 . S
C111 N108 1.313 . S
C111 N112 1.344 1_556 S
C111 H115 0.930 . S
N112 C109 1.377 . S
N112 C111 1.344 1_554 S
O113 Co105 2.055 . S
O113 C117 1.253 . S
H114 C110 0.931 . S
H115 C111 0.930 . S
O116 Co105 2.039 . S
O116 C106 1.265 . S
C117 O113 1.253 . S
C117 O118 1.227 . S
O118 C117 1.227 . S
N119 Co105 2.140 . S
N119 C122 1.346 . S
N119 C123 1.345 . S
C120 C121 1.387 . S
C120 C124 1.391 . S
C121 C120 1.387 . S
C121 C122 1.369 . S
C121 H130 0.929 . S
C122 N119 1.346 . S
C122 C121 1.369 . S
C122 H125 0.928 . S
C123 N119 1.345 . S
C123 C124 1.371 . S
C123 H126 0.931 . S
C124 C120 1.391 . S
C124 C123 1.371 . S
C124 H131 0.930 . S
H125 C122 0.928 . S
H126 C123 0.931 . S
H127 C103 0.930 . S
H128 C100 0.930 . S
H129 C109 0.930 . S
H130 C121 0.929 . S
H131 C124 0.930 . S
C132 C133 1.351 . S
C132 N135 1.368 . S
C132 H137 0.931 . S
C133 C132 1.351 . S
C133 N134 1.373 . S
C133 H161 0.930 . S
N134 C133 1.373 . S
N134 C136 1.340 . S
N135 C132 1.368 . S
N135 C136 1.321 . S
N135 Co138 2.135 1_554 S
C136 N134 1.340 . S
C136 N135 1.321 . S
C136 H160 0.930 . S
H137 C132 0.931 . S
Co138 N135 2.135 1_556 S
Co138 N141 2.121 . S
Co138 O146 2.055 . S
Co138 O149 2.039 . S
Co138 N152 2.140 . S
C139 O140 1.227 . S
C139 O149 1.265 . S
O140 C139 1.227 . S
N141 Co138 2.121 . S
N141 C143 1.375 . S
N141 C144 1.313 . S
C142 C143 1.338 . S
C142 N145 1.377 . S
C142 H162 0.930 . S
C143 N141 1.375 . S
C143 C142 1.338 . S
C143 H147 0.931 . S
C144 N141 1.313 . S
C144 N145 1.344 . S
C144 H148 0.930 . S
N145 C142 1.377 . S
N145 C144 1.344 . S
O146 Co138 2.055 . S
O146 C150 1.253 . S
H147 C143 0.931 . S
H148 C144 0.930 . S
O149 Co138 2.039 . S
O149 C139 1.265 . S
C150 O146 1.253 . S
C150 O151 1.227 . S
O151 C150 1.227 . S
N152 Co138 2.140 . S
N152 C155 1.346 1_556 S
N152 C156 1.345 . S
C153 C154 1.387 1_556 S
C153 C157 1.391 . S
C154 C153 1.387 1_554 S
C154 C155 1.369 . S
C154 H163 0.929 . S
C155 N152 1.346 1_554 S
C155 C154 1.369 . S
C155 H158 0.928 . S
C156 N152 1.345 . S
C156 C157 1.371 . S
C156 H159 0.931 . S
C157 C153 1.391 . S
C157 C156 1.371 . S
C157 H164 0.930 . S
H158 C155 0.928 . S
H159 C156 0.931 . S
H160 C136 0.930 . S
H161 C133 0.930 . S
H162 C142 0.930 . S
H163 C154 0.929 . S
H164 C157 0.930 . S
C165 C166 1.351 . S
C165 N168 1.368 . S
C165 H170 0.931 . S
C166 C165 1.351 . S
C166 N167 1.373 . S
C166 H194 0.930 . S
N167 C166 1.373 . S
N167 C169 1.340 . S
N168 C165 1.368 . S
N168 C169 1.321 . S
N168 Co171 2.135 . S
C169 N167 1.340 . S
C169 N168 1.321 . S
C169 H193 0.930 . S
H170 C165 0.931 . S
Co171 N168 2.135 . S
Co171 N174 2.121 . S
Co171 O179 2.055 . S
Co171 O182 2.039 . S
Co171 N185 2.140 . S
C172 O173 1.227 . S
C172 O182 1.265 . S
O173 C172 1.227 . S
N174 Co171 2.121 . S
N174 C176 1.375 . S
N174 C177 1.313 . S
C175 C176 1.338 1_556 S
C175 N178 1.377 . S
C175 H195 0.930 . S
C176 N174 1.375 . S
C176 C175 1.338 1_554 S
C176 H180 0.931 . S
C177 N174 1.313 . S
C177 N178 1.344 1_554 S
C177 H181 0.930 . S
N178 C175 1.377 . S
N178 C177 1.344 1_556 S
O179 Co171 2.055 . S
O179 C183 1.253 . S
H180 C176 0.931 . S
H181 C177 0.930 . S
O182 Co171 2.039 . S
O182 C172 1.265 . S
C183 O179 1.253 . S
C183 O184 1.227 . S
O184 C183 1.227 . S
N185 Co171 2.140 . S
N185 C188 1.346 . S
N185 C189 1.345 . S
C186 C187 1.387 . S
C186 C190 1.391 . S
C187 C186 1.387 . S
C187 C188 1.369 . S
C187 H196 0.929 . S
C188 N185 1.346 . S
C188 C187 1.369 . S
C188 H191 0.928 . S
C189 N185 1.345 . S
C189 C190 1.371 . S
C189 H192 0.931 . S
C190 C186 1.391 . S
C190 C189 1.371 . S
C190 H197 0.930 . S
H191 C188 0.928 . S
H192 C189 0.931 . S
H193 C169 0.930 . S
H194 C166 0.930 . S
H195 C175 0.930 . S
H196 C187 0.929 . S
H197 C190 0.930 . S
C198 C199 1.351 . S
C198 N201 1.368 . S
C198 H203 0.931 . S
C199 C198 1.351 . S
C199 N200 1.373 . S
C199 H227 0.930 . S
N200 C199 1.373 . S
N200 C202 1.340 . S
N201 C198 1.368 . S
N201 C202 1.321 . S
N201 Co204 2.135 . S
C202 N200 1.340 . S
C202 N201 1.321 . S
C202 H226 0.930 . S
H203 C198 0.931 . S
Co204 N201 2.135 . S
Co204 N207 2.121 . S
Co204 O212 2.055 . S
Co204 O215 2.039 . S
Co204 N218 2.140 . S
C205 O206 1.227 . S
C205 O215 1.265 . S
O206 C205 1.227 . S
N207 Co204 2.121 . S
N207 C209 1.375 . S
N207 C210 1.313 . S
C208 C209 1.338 . S
C208 N211 1.377 . S
C208 H228 0.930 . S
C209 N207 1.375 . S
C209 C208 1.338 . S
C209 H213 0.931 . S
C210 N207 1.313 . S
C210 N211 1.344 . S
C210 H214 0.930 . S
N211 C208 1.377 . S
N211 C210 1.344 . S
O212 Co204 2.055 . S
O212 C216 1.253 . S
H213 C209 0.931 . S
H214 C210 0.930 . S
O215 Co204 2.039 . S
O215 C205 1.265 . S
C216 O212 1.253 . S
C216 O217 1.227 . S
O217 C216 1.227 . S
N218 Co204 2.140 . S
N218 C221 1.346 . S
N218 C222 1.345 . S
C219 C220 1.387 . S
C219 C223 1.391 . S
C220 C219 1.387 . S
C220 C221 1.369 . S
C220 H229 0.929 . S
C221 N218 1.346 . S
C221 C220 1.369 . S
C221 H224 0.928 . S
C222 N218 1.345 . S
C222 C223 1.371 . S
C222 H225 0.931 . S
C223 C219 1.391 . S
C223 C222 1.371 . S
C223 H230 0.930 . S
H224 C221 0.928 . S
H225 C222 0.931 . S
H226 C202 0.930 . S
H227 C199 0.930 . S
H228 C208 0.930 . S
H229 C220 0.929 . S
H230 C223 0.930 . S
C231 C232 1.351 . S
C231 N234 1.368 . S
C231 H236 0.931 . S
C232 C231 1.351 . S
C232 N233 1.373 . S
C232 H260 0.930 . S
N233 C232 1.373 . S
N233 C235 1.340 . S
N234 C231 1.368 . S
N234 C235 1.321 . S
N234 Co237 2.135 . S
C235 N233 1.340 . S
C235 N234 1.321 . S
C235 H259 0.930 . S
H236 C231 0.931 . S
Co237 N234 2.135 . S
Co237 N240 2.121 . S
Co237 O245 2.055 . S
Co237 O248 2.039 . S
Co237 N251 2.140 . S
C238 O239 1.227 . S
C238 O248 1.265 . S
O239 C238 1.227 . S
N240 Co237 2.121 . S
N240 C242 1.375 . S
N240 C243 1.313 . S
C241 C242 1.338 . S
C241 N244 1.377 . S
C241 H261 0.930 . S
C242 N240 1.375 . S
C242 C241 1.338 . S
C242 H246 0.931 . S
C243 N240 1.313 . S
C243 N244 1.344 . S
C243 H247 0.930 . S
N244 C241 1.377 . S
N244 C243 1.344 . S
O245 Co237 2.055 . S
O245 C249 1.253 . S
H246 C242 0.931 . S
H247 C243 0.930 . S
O248 Co237 2.039 . S
O248 C238 1.265 . S
C249 O245 1.253 . S
C249 O250 1.227 . S
O250 C249 1.227 . S
N251 Co237 2.140 . S
N251 C254 1.346 . S
N251 C255 1.345 . S
C252 C253 1.387 . S
C252 C256 1.391 . S
C253 C252 1.387 . S
C253 C254 1.369 . S
C253 H262 0.929 . S
C254 N251 1.346 . S
C254 C253 1.369 . S
C254 H257 0.928 . S
C255 N251 1.345 . S
C255 C256 1.371 . S
C255 H258 0.931 . S
C256 C252 1.391 . S
C256 C255 1.371 . S
C256 H263 0.930 . S
H257 C254 0.928 . S
H258 C255 0.931 . S
H259 C235 0.930 . S
H260 C232 0.930 . S
H261 C241 0.930 . S
H262 C253 0.929 . S
H263 C256 0.930 . S
C264 C265 1.351 . S
C264 N267 1.368 . S
C264 H269 0.931 . S
C265 C264 1.351 . S
C265 N266 1.373 . S
C265 H293 0.930 . S
N266 C265 1.373 . S
N266 C268 1.340 . S
N267 C264 1.368 . S
N267 C268 1.321 . S
N267 Co270 2.135 1_554 S
C268 N266 1.340 . S
C268 N267 1.321 . S
C268 H292 0.930 . S
H269 C264 0.931 . S
Co270 N267 2.135 1_556 S
Co270 N273 2.121 . S
Co270 O278 2.055 . S
Co270 O281 2.039 . S
Co270 N284 2.140 . S
C271 O272 1.227 . S
C271 O281 1.265 . S
O272 C271 1.227 . S
N273 Co270 2.121 . S
N273 C275 1.375 . S
N273 C276 1.313 . S
C274 C275 1.338 . S
C274 N277 1.377 . S
C274 H294 0.930 . S
C275 N273 1.375 . S
C275 C274 1.338 . S
C275 H279 0.931 . S
C276 N273 1.313 . S
C276 N277 1.344 . S
C276 H280 0.930 . S
N277 C274 1.377 . S
N277 C276 1.344 . S
O278 Co270 2.055 . S
O278 C282 1.253 . S
H279 C275 0.931 . S
H280 C276 0.930 . S
O281 Co270 2.039 . S
O281 C271 1.265 . S
C282 O278 1.253 . S
C282 O283 1.227 . S
O283 C282 1.227 . S
N284 Co270 2.140 . S
N284 C287 1.346 1_556 S
N284 C288 1.345 . S
C285 C286 1.387 1_556 S
C285 C289 1.391 . S
C286 C285 1.387 1_554 S
C286 C287 1.369 . S
C286 H295 0.929 . S
C287 N284 1.346 1_554 S
C287 C286 1.369 . S
C287 H290 0.928 . S
C288 N284 1.345 . S
C288 C289 1.371 . S
C288 H291 0.931 . S
C289 C285 1.391 . S
C289 C288 1.371 . S
C289 H296 0.930 . S
H290 C287 0.928 . S
H291 C288 0.931 . S
H292 C268 0.930 . S
H293 C265 0.930 . S
H294 C274 0.930 . S
H295 C286 0.929 . S
H296 C289 0.930 . S
C297 C298 1.351 . S
C297 N300 1.368 . S
C297 H302 0.931 . S
C298 C297 1.351 . S
C298 N299 1.373 . S
C298 H326 0.930 . S
N299 C298 1.373 . S
N299 C301 1.340 . S
N300 C297 1.368 . S
N300 C301 1.321 . S
N300 Co303 2.135 . S
C301 N299 1.340 . S
C301 N300 1.321 . S
C301 H325 0.930 . S
H302 C297 0.931 . S
Co303 N300 2.135 . S
Co303 N306 2.121 . S
Co303 O311 2.055 . S
Co303 O314 2.039 . S
Co303 N317 2.140 . S
C304 O305 1.227 . S
C304 O314 1.265 . S
O305 C304 1.227 . S
N306 Co303 2.121 . S
N306 C308 1.375 . S
N306 C309 1.313 . S
C307 C308 1.338 . S
C307 N310 1.377 . S
C307 H327 0.930 . S
C308 N306 1.375 . S
C308 C307 1.338 . S
C308 H312 0.931 . S
C309 N306 1.313 . S
C309 N310 1.344 . S
C309 H313 0.930 . S
N310 C307 1.377 . S
N310 C309 1.344 . S
O311 Co303 2.055 . S
O311 C315 1.253 . S
H312 C308 0.931 . S
H313 C309 0.930 . S
O314 Co303 2.039 . S
O314 C304 1.265 . S
C315 O311 1.253 . S
C315 O316 1.227 . S
O316 C315 1.227 . S
N317 Co303 2.140 . S
N317 C320 1.346 . S
N317 C321 1.345 . S
C318 C319 1.387 . S
C318 C322 1.391 . S
C319 C318 1.387 . S
C319 C320 1.369 . S
C319 H328 0.929 . S
C320 N317 1.346 . S
C320 C319 1.369 . S
C320 H323 0.928 . S
C321 N317 1.345 . S
C321 C322 1.371 . S
C321 H324 0.931 . S
C322 C318 1.391 . S
C322 C321 1.371 . S
C322 H329 0.930 . S
H323 C320 0.928 . S
H324 C321 0.931 . S
H325 C301 0.930 . S
H326 C298 0.930 . S
H327 C307 0.930 . S
H328 C319 0.929 . S
H329 C322 0.930 . S
C330 C331 1.351 . S
C330 N333 1.368 . S
C330 H335 0.931 . S
C331 C330 1.351 . S
C331 N332 1.373 . S
C331 H359 0.930 . S
N332 C331 1.373 . S
N332 C334 1.340 . S
N333 C330 1.368 . S
N333 C334 1.321 . S
N333 Co336 2.135 . S
C334 N332 1.340 . S
C334 N333 1.321 . S
C334 H358 0.930 . S
H335 C330 0.931 . S
Co336 N333 2.135 . S
Co336 N339 2.121 . S
Co336 O344 2.055 . S
Co336 O347 2.039 . S
Co336 N350 2.140 . S
C337 O338 1.227 . S
C337 O347 1.265 . S
O338 C337 1.227 . S
N339 Co336 2.121 . S
N339 C341 1.375 . S
N339 C342 1.313 . S
C340 C341 1.338 . S
C340 N343 1.377 . S
C340 H360 0.930 . S
C341 N339 1.375 . S
C341 C340 1.338 . S
C341 H345 0.931 . S
C342 N339 1.313 . S
C342 N343 1.344 . S
C342 H346 0.930 . S
N343 C340 1.377 . S
N343 C342 1.344 . S
O344 Co336 2.055 . S
O344 C348 1.253 . S
H345 C341 0.931 . S
H346 C342 0.930 . S
O347 Co336 2.039 . S
O347 C337 1.265 . S
C348 O344 1.253 . S
C348 O349 1.227 . S
O349 C348 1.227 . S
N350 Co336 2.140 . S
N350 C353 1.346 . S
N350 C354 1.345 . S
C351 C352 1.387 . S
C351 C355 1.391 . S
C352 C351 1.387 . S
C352 C353 1.369 . S
C352 H361 0.929 . S
C353 N350 1.346 . S
C353 C352 1.369 . S
C353 H356 0.928 . S
C354 N350 1.345 . S
C354 C355 1.371 . S
C354 H357 0.931 . S
C355 C351 1.391 . S
C355 C354 1.371 . S
C355 H362 0.930 . S
H356 C353 0.928 . S
H357 C354 0.931 . S
H358 C334 0.930 . S
H359 C331 0.930 . S
H360 C340 0.930 . S
H361 C352 0.929 . S
H362 C355 0.930 . S
C363 C364 1.351 . S
C363 N366 1.368 . S
C363 H368 0.931 . S
C364 C363 1.351 . S
C364 N365 1.373 . S
C364 H392 0.930 . S
N365 C364 1.373 . S
N365 C367 1.340 . S
N366 C363 1.368 . S
N366 C367 1.321 . S
N366 Co369 2.135 . S
C367 N365 1.340 . S
C367 N366 1.321 . S
C367 H391 0.930 . S
H368 C363 0.931 . S
Co369 N366 2.135 . S
Co369 N372 2.121 . S
Co369 O377 2.055 . S
Co369 O380 2.039 . S
Co369 N383 2.140 . S
C370 O371 1.227 . S
C370 O380 1.265 . S
O371 C370 1.227 . S
N372 Co369 2.121 . S
N372 C374 1.375 . S
N372 C375 1.313 . S
C373 C374 1.338 1_556 S
C373 N376 1.377 . S
C373 H393 0.930 . S
C374 N372 1.375 . S
C374 C373 1.338 1_554 S
C374 H378 0.931 . S
C375 N372 1.313 . S
C375 N376 1.344 1_554 S
C375 H379 0.930 . S
N376 C373 1.377 . S
N376 C375 1.344 1_556 S
O377 Co369 2.055 . S
O377 C381 1.253 . S
H378 C374 0.931 . S
H379 C375 0.930 . S
O380 Co369 2.039 . S
O380 C370 1.265 . S
C381 O377 1.253 . S
C381 O382 1.227 . S
O382 C381 1.227 . S
N383 Co369 2.140 . S
N383 C386 1.346 . S
N383 C387 1.345 . S
C384 C385 1.387 . S
C384 C388 1.391 . S
C385 C384 1.387 . S
C385 C386 1.369 . S
C385 H394 0.929 . S
C386 N383 1.346 . S
C386 C385 1.369 . S
C386 H389 0.928 . S
C387 N383 1.345 . S
C387 C388 1.371 . S
C387 H390 0.931 . S
C388 C384 1.391 . S
C388 C387 1.371 . S
C388 H395 0.930 . S
H389 C386 0.928 . S
H390 C387 0.931 . S
H391 C367 0.930 . S
H392 C364 0.930 . S
H393 C373 0.930 . S
H394 C385 0.929 . S
H395 C388 0.930 . S
C396 C397 1.351 . S
C396 N399 1.368 . S
C396 H401 0.931 . S
C397 C396 1.351 . S
C397 N398 1.373 . S
C397 H425 0.930 . S
N398 C397 1.373 . S
N398 C400 1.340 . S
N399 C396 1.368 . S
N399 C400 1.321 . S
N399 Co402 2.135 1_556 S
C400 N398 1.340 . S
C400 N399 1.321 . S
C400 H424 0.930 . S
H401 C396 0.931 . S
Co402 N399 2.135 1_554 S
Co402 N405 2.121 . S
Co402 O410 2.055 . S
Co402 O413 2.039 . S
Co402 N416 2.140 . S
C403 O404 1.227 . S
C403 O413 1.265 . S
O404 C403 1.227 . S
N405 Co402 2.121 . S
N405 C407 1.375 . S
N405 C408 1.313 . S
C406 C407 1.338 . S
C406 N409 1.377 . S
C406 H426 0.930 . S
C407 N405 1.375 . S
C407 C406 1.338 . S
C407 H411 0.931 . S
C408 N405 1.313 . S
C408 N409 1.344 . S
C408 H412 0.930 . S
N409 C406 1.377 . S
N409 C408 1.344 . S
O410 Co402 2.055 . S
O410 C414 1.253 . S
H411 C407 0.931 . S
H412 C408 0.930 . S
O413 Co402 2.039 . S
O413 C403 1.265 . S
C414 O410 1.253 . S
C414 O415 1.227 . S
O415 C414 1.227 . S
N416 Co402 2.140 . S
N416 C419 1.346 1_554 S
N416 C420 1.345 . S
C417 C418 1.387 1_554 S
C417 C421 1.391 . S
C418 C417 1.387 1_556 S
C418 C419 1.369 . S
C418 H427 0.929 . S
C419 N416 1.346 1_556 S
C419 C418 1.369 . S
C419 H422 0.928 . S
C420 N416 1.345 . S
C420 C421 1.371 . S
C420 H423 0.931 . S
C421 C417 1.391 . S
C421 C420 1.371 . S
C421 H428 0.930 . S
H422 C419 0.928 . S
H423 C420 0.931 . S
H424 C400 0.930 . S
H425 C397 0.930 . S
H426 C406 0.930 . S
H427 C418 0.929 . S
H428 C421 0.930 . S
C429 C430 1.351 . S
C429 N432 1.368 . S
C429 H434 0.931 . S
C430 C429 1.351 . S
C430 N431 1.373 . S
C430 H458 0.930 . S
N431 C430 1.373 . S
N431 C433 1.340 . S
N432 C429 1.368 . S
N432 C433 1.321 . S
N432 Co435 2.135 . S
C433 N431 1.340 . S
C433 N432 1.321 . S
C433 H457 0.930 . S
H434 C429 0.931 . S
Co435 N432 2.135 . S
Co435 N438 2.121 . S
Co435 O443 2.055 . S
Co435 O446 2.039 . S
Co435 N449 2.140 . S
C436 O437 1.227 . S
C436 O446 1.265 . S
O437 C436 1.227 . S
N438 Co435 2.121 . S
N438 C440 1.375 . S
N438 C441 1.313 . S
C439 C440 1.338 1_554 S
C439 N442 1.377 . S
C439 H459 0.930 . S
C440 N438 1.375 . S
C440 C439 1.338 1_556 S
C440 H444 0.931 . S
C441 N438 1.313 . S
C441 N442 1.344 1_556 S
C441 H445 0.930 . S
N442 C439 1.377 . S
N442 C441 1.344 1_554 S
O443 Co435 2.055 . S
O443 C447 1.253 . S
H444 C440 0.931 . S
H445 C441 0.930 . S
O446 Co435 2.039 . S
O446 C436 1.265 . S
C447 O443 1.253 . S
C447 O448 1.227 . S
O448 C447 1.227 . S
N449 Co435 2.140 . S
N449 C452 1.346 . S
N449 C453 1.345 . S
C450 C451 1.387 . S
C450 C454 1.391 . S
C451 C450 1.387 . S
C451 C452 1.369 . S
C451 H460 0.929 . S
C452 N449 1.346 . S
C452 C451 1.369 . S
C452 H455 0.928 . S
C453 N449 1.345 . S
C453 C454 1.371 . S
C453 H456 0.931 . S
C454 C450 1.391 . S
C454 C453 1.371 . S
C454 H461 0.930 . S
H455 C452 0.928 . S
H456 C453 0.931 . S
H457 C433 0.930 . S
H458 C430 0.930 . S
H459 C439 0.930 . S
H460 C451 0.929 . S
H461 C454 0.930 . S
C462 C463 1.351 . S
C462 N465 1.368 . S
C462 H467 0.931 . S
C463 C462 1.351 . S
C463 N464 1.373 . S
C463 H491 0.930 . S
N464 C463 1.373 . S
N464 C466 1.340 . S
N465 C462 1.368 . S
N465 C466 1.321 . S
N465 Co468 2.135 . S
C466 N464 1.340 . S
C466 N465 1.321 . S
C466 H490 0.930 . S
H467 C462 0.931 . S
Co468 N465 2.135 . S
Co468 N471 2.121 . S
Co468 O476 2.055 . S
Co468 O479 2.039 . S
Co468 N482 2.140 . S
C469 O470 1.227 . S
C469 O479 1.265 . S
O470 C469 1.227 . S
N471 Co468 2.121 . S
N471 C473 1.375 . S
N471 C474 1.313 . S
C472 C473 1.338 . S
C472 N475 1.377 . S
C472 H492 0.930 . S
C473 N471 1.375 . S
C473 C472 1.338 . S
C473 H477 0.931 . S
C474 N471 1.313 . S
C474 N475 1.344 . S
C474 H478 0.930 . S
N475 C472 1.377 . S
N475 C474 1.344 . S
O476 Co468 2.055 . S
O476 C480 1.253 . S
H477 C473 0.931 . S
H478 C474 0.930 . S
O479 Co468 2.039 . S
O479 C469 1.265 . S
C480 O476 1.253 . S
C480 O481 1.227 . S
O481 C480 1.227 . S
N482 Co468 2.140 . S
N482 C485 1.346 . S
N482 C486 1.345 . S
C483 C484 1.387 . S
C483 C487 1.391 . S
C484 C483 1.387 . S
C484 C485 1.369 . S
C484 H493 0.929 . S
C485 N482 1.346 . S
C485 C484 1.369 . S
C485 H488 0.928 . S
C486 N482 1.345 . S
C486 C487 1.371 . S
C486 H489 0.931 . S
C487 C483 1.391 . S
C487 C486 1.371 . S
C487 H494 0.930 . S
H488 C485 0.928 . S
H489 C486 0.931 . S
H490 C466 0.930 . S
H491 C463 0.930 . S
H492 C472 0.930 . S
H493 C484 0.929 . S
H494 C487 0.930 . S
C495 C496 1.351 . S
C495 N498 1.368 . S
C495 H500 0.931 . S
C496 C495 1.351 . S
C496 N497 1.373 . S
C496 H524 0.930 . S
N497 C496 1.373 . S
N497 C499 1.340 . S
N498 C495 1.368 . S
N498 C499 1.321 . S
N498 Co501 2.135 . S
C499 N497 1.340 . S
C499 N498 1.321 . S
C499 H523 0.930 . S
H500 C495 0.931 . S
Co501 N498 2.135 . S
Co501 N504 2.121 . S
Co501 O509 2.055 . S
Co501 O512 2.039 . S
Co501 N515 2.140 . S
C502 O503 1.227 . S
C502 O512 1.265 . S
O503 C502 1.227 . S
N504 Co501 2.121 . S
N504 C506 1.375 . S
N504 C507 1.313 . S
C505 C506 1.338 . S
C505 N508 1.377 . S
C505 H525 0.930 . S
C506 N504 1.375 . S
C506 C505 1.338 . S
C506 H510 0.931 . S
C507 N504 1.313 . S
C507 N508 1.344 . S
C507 H511 0.930 . S
N508 C505 1.377 . S
N508 C507 1.344 . S
O509 Co501 2.055 . S
O509 C513 1.253 . S
H510 C506 0.931 . S
H511 C507 0.930 . S
O512 Co501 2.039 . S
O512 C502 1.265 . S
C513 O509 1.253 . S
C513 O514 1.227 . S
O514 C513 1.227 . S
N515 Co501 2.140 . S
N515 C518 1.346 . S
N515 C519 1.345 . S
C516 C517 1.387 . S
C516 C520 1.391 . S
C517 C516 1.387 . S
C517 C518 1.369 . S
C517 H526 0.929 . S
C518 N515 1.346 . S
C518 C517 1.369 . S
C518 H521 0.928 . S
C519 N515 1.345 . S
C519 C520 1.371 . S
C519 H522 0.931 . S
C520 C516 1.391 . S
C520 C519 1.371 . S
C520 H527 0.930 . S
H521 C518 0.928 . S
H522 C519 0.931 . S
H523 C499 0.930 . S
H524 C496 0.930 . S
H525 C505 0.930 . S
H526 C517 0.929 . S
H527 C520 0.930 . S
C528 C529 1.351 . S
C528 N531 1.368 . S
C528 H533 0.931 . S
C529 C528 1.351 . S
C529 N530 1.373 . S
C529 H557 0.930 . S
N530 C529 1.373 . S
N530 C532 1.340 . S
N531 C528 1.368 . S
N531 C532 1.321 . S
N531 Co534 2.135 . S
C532 N530 1.340 . S
C532 N531 1.321 . S
C532 H556 0.930 . S
H533 C528 0.931 . S
Co534 N531 2.135 . S
Co534 N537 2.121 . S
Co534 O542 2.055 . S
Co534 O545 2.039 . S
Co534 N548 2.140 . S
C535 O536 1.227 . S
C535 O545 1.265 . S
O536 C535 1.227 . S
N537 Co534 2.121 . S
N537 C539 1.375 . S
N537 C540 1.313 . S
C538 C539 1.338 . S
C538 N541 1.377 . S
C538 H558 0.930 . S
C539 N537 1.375 . S
C539 C538 1.338 . S
C539 H543 0.931 . S
C540 N537 1.313 . S
C540 N541 1.344 . S
C540 H544 0.930 . S
N541 C538 1.377 . S
N541 C540 1.344 . S
O542 Co534 2.055 . S
O542 C546 1.253 . S
H543 C539 0.931 . S
H544 C540 0.930 . S
O545 Co534 2.039 . S
O545 C535 1.265 . S
C546 O542 1.253 . S
C546 O547 1.227 . S
O547 C546 1.227 . S
N548 Co534 2.140 . S
N548 C551 1.346 . S
N548 C552 1.345 . S
C549 C550 1.387 . S
C549 C553 1.391 . S
C550 C549 1.387 . S
C550 C551 1.369 . S
C550 H559 0.929 . S
C551 N548 1.346 . S
C551 C550 1.369 . S
C551 H554 0.928 . S
C552 N548 1.345 . S
C552 C553 1.371 . S
C552 H555 0.931 . S
C553 C549 1.391 . S
C553 C552 1.371 . S
C553 H560 0.930 . S
H554 C551 0.928 . S
H555 C552 0.931 . S
H556 C532 0.930 . S
H557 C529 0.930 . S
H558 C538 0.930 . S
H559 C550 0.929 . S
H560 C553 0.930 . S
C561 C562 1.351 . S
C561 N564 1.368 . S
C561 H566 0.931 . S
C562 C561 1.351 . S
C562 N563 1.373 . S
C562 H590 0.930 . S
N563 C562 1.373 . S
N563 C565 1.340 . S
N564 C561 1.368 . S
N564 C565 1.321 . S
N564 Co567 2.135 . S
C565 N563 1.340 . S
C565 N564 1.321 . S
C565 H589 0.930 . S
H566 C561 0.931 . S
Co567 N564 2.135 . S
Co567 N570 2.121 . S
Co567 O575 2.055 . S
Co567 O578 2.039 . S
Co567 N581 2.140 . S
C568 O569 1.227 . S
C568 O578 1.265 . S
O569 C568 1.227 . S
N570 Co567 2.121 . S
N570 C572 1.375 . S
N570 C573 1.313 . S
C571 C572 1.338 1_554 S
C571 N574 1.377 . S
C571 H591 0.930 . S
C572 N570 1.375 . S
C572 C571 1.338 1_556 S
C572 H576 0.931 . S
C573 N570 1.313 . S
C573 N574 1.344 1_556 S
C573 H577 0.930 . S
N574 C571 1.377 . S
N574 C573 1.344 1_554 S
O575 Co567 2.055 . S
O575 C579 1.253 . S
H576 C572 0.931 . S
H577 C573 0.930 . S
O578 Co567 2.039 . S
O578 C568 1.265 . S
C579 O575 1.253 . S
C579 O580 1.227 . S
O580 C579 1.227 . S
N581 Co567 2.140 . S
N581 C584 1.346 . S
N581 C585 1.345 . S
C582 C583 1.387 . S
C582 C586 1.391 . S
C583 C582 1.387 . S
C583 C584 1.369 . S
C583 H592 0.929 . S
C584 N581 1.346 . S
C584 C583 1.369 . S
C584 H587 0.928 . S
C585 N581 1.345 . S
C585 C586 1.371 . S
C585 H588 0.931 . S
C586 C582 1.391 . S
C586 C585 1.371 . S
C586 H593 0.930 . S
H587 C584 0.928 . S
H588 C585 0.931 . S
H589 C565 0.930 . S
H590 C562 0.930 . S
H591 C571 0.930 . S
H592 C583 0.929 . S
H593 C586 0.930 . S
C594 C595 1.351 . S
C594 N597 1.368 . S
C594 H599 0.931 . S
C595 C594 1.351 . S
C595 N596 1.373 . S
C595 H623 0.930 . S
N596 C595 1.373 . S
N596 C598 1.340 . S
N597 C594 1.368 . S
N597 C598 1.321 . S
N597 Co600 2.135 1_556 S
C598 N596 1.340 . S
C598 N597 1.321 . S
C598 H622 0.930 . S
H599 C594 0.931 . S
Co600 N597 2.135 1_554 S
Co600 N603 2.121 . S
Co600 O608 2.055 . S
Co600 O611 2.039 . S
Co600 N614 2.140 . S
C601 O602 1.227 . S
C601 O611 1.265 . S
O602 C601 1.227 . S
N603 Co600 2.121 . S
N603 C605 1.375 . S
N603 C606 1.313 . S
C604 C605 1.338 . S
C604 N607 1.377 . S
C604 H624 0.930 . S
C605 N603 1.375 . S
C605 C604 1.338 . S
C605 H609 0.931 . S
C606 N603 1.313 . S
C606 N607 1.344 . S
C606 H610 0.930 . S
N607 C604 1.377 . S
N607 C606 1.344 . S
O608 Co600 2.055 . S
O608 C612 1.253 . S
H609 C605 0.931 . S
H610 C606 0.930 . S
O611 Co600 2.039 . S
O611 C601 1.265 . S
C612 O608 1.253 . S
C612 O613 1.227 . S
O613 C612 1.227 . S
N614 Co600 2.140 . S
N614 C617 1.346 1_554 S
N614 C618 1.345 . S
C615 C616 1.387 1_554 S
C615 C619 1.391 . S
C616 C615 1.387 1_556 S
C616 C617 1.369 . S
C616 H625 0.929 . S
C617 N614 1.346 1_556 S
C617 C616 1.369 . S
C617 H620 0.928 . S
C618 N614 1.345 . S
C618 C619 1.371 . S
C618 H621 0.931 . S
C619 C615 1.391 . S
C619 C618 1.371 . S
C619 H626 0.930 . S
H620 C617 0.928 . S
H621 C618 0.931 . S
H622 C598 0.930 . S
H623 C595 0.930 . S
H624 C604 0.930 . S
H625 C616 0.929 . S
H626 C619 0.930 . S
C627 C628 1.351 . S
C627 N630 1.368 . S
C627 H632 0.931 . S
C628 C627 1.351 . S
C628 N629 1.373 . S
C628 H656 0.930 . S
N629 C628 1.373 . S
N629 C631 1.340 . S
N630 C627 1.368 . S
N630 C631 1.321 . S
N630 Co633 2.135 . S
C631 N629 1.340 . S
C631 N630 1.321 . S
C631 H655 0.930 . S
H632 C627 0.931 . S
Co633 N630 2.135 . S
Co633 N636 2.121 . S
Co633 O641 2.055 . S
Co633 O644 2.039 . S
Co633 N647 2.140 . S
C634 O635 1.227 . S
C634 O644 1.265 . S
O635 C634 1.227 . S
N636 Co633 2.121 . S
N636 C638 1.375 . S
N636 C639 1.313 . S
C637 C638 1.338 . S
C637 N640 1.377 . S
C637 H657 0.930 . S
C638 N636 1.375 . S
C638 C637 1.338 . S
C638 H642 0.931 . S
C639 N636 1.313 . S
C639 N640 1.344 . S
C639 H643 0.930 . S
N640 C637 1.377 . S
N640 C639 1.344 . S
O641 Co633 2.055 . S
O641 C645 1.253 . S
H642 C638 0.931 . S
H643 C639 0.930 . S
O644 Co633 2.039 . S
O644 C634 1.265 . S
C645 O641 1.253 . S
C645 O646 1.227 . S
O646 C645 1.227 . S
N647 Co633 2.140 . S
N647 C650 1.346 . S
N647 C651 1.345 . S
C648 C649 1.387 . S
C648 C652 1.391 . S
C649 C648 1.387 . S
C649 C650 1.369 . S
C649 H658 0.929 . S
C650 N647 1.346 . S
C650 C649 1.369 . S
C650 H653 0.928 . S
C651 N647 1.345 . S
C651 C652 1.371 . S
C651 H654 0.931 . S
C652 C648 1.391 . S
C652 C651 1.371 . S
C652 H659 0.930 . S
H653 C650 0.928 . S
H654 C651 0.931 . S
H655 C631 0.930 . S
H656 C628 0.930 . S
H657 C637 0.930 . S
H658 C649 0.929 . S
H659 C652 0.930 . S
C660 C661 1.351 . S
C660 N663 1.368 . S
C660 H665 0.931 . S
C661 C660 1.351 . S
C661 N662 1.373 . S
C661 H689 0.930 . S
N662 C661 1.373 . S
N662 C664 1.340 . S
N663 C660 1.368 . S
N663 C664 1.321 . S
N663 Co666 2.135 . S
C664 N662 1.340 . S
C664 N663 1.321 . S
C664 H688 0.930 . S
H665 C660 0.931 . S
Co666 N663 2.135 . S
Co666 N669 2.121 . S
Co666 O674 2.055 . S
Co666 O677 2.039 . S
Co666 N680 2.140 . S
C667 O668 1.227 . S
C667 O677 1.265 . S
O668 C667 1.227 . S
N669 Co666 2.121 . S
N669 C671 1.375 . S
N669 C672 1.313 . S
C670 C671 1.338 . S
C670 N673 1.377 . S
C670 H690 0.930 . S
C671 N669 1.375 . S
C671 C670 1.338 . S
C671 H675 0.931 . S
C672 N669 1.313 . S
C672 N673 1.344 . S
C672 H676 0.930 . S
N673 C670 1.377 . S
N673 C672 1.344 . S
O674 Co666 2.055 . S
O674 C678 1.253 . S
H675 C671 0.931 . S
H676 C672 0.930 . S
O677 Co666 2.039 . S
O677 C667 1.265 . S
C678 O674 1.253 . S
C678 O679 1.227 . S
O679 C678 1.227 . S
N680 Co666 2.140 . S
N680 C683 1.346 . S
N680 C684 1.345 . S
C681 C682 1.387 . S
C681 C685 1.391 . S
C682 C681 1.387 . S
C682 C683 1.369 . S
C682 H691 0.929 . S
C683 N680 1.346 . S
C683 C682 1.369 . S
C683 H686 0.928 . S
C684 N680 1.345 . S
C684 C685 1.371 . S
C684 H687 0.931 . S
C685 C681 1.391 . S
C685 C684 1.371 . S
C685 H692 0.930 . S
H686 C683 0.928 . S
H687 C684 0.931 . S
H688 C664 0.930 . S
H689 C661 0.930 . S
H690 C670 0.930 . S
H691 C682 0.929 . S
H692 C685 0.930 . S
C693 C694 1.351 . S
C693 N696 1.368 . S
C693 H698 0.931 . S
C694 C693 1.351 . S
C694 N695 1.373 . S
C694 H722 0.930 . S
N695 C694 1.373 . S
N695 C697 1.340 . S
N696 C693 1.368 . S
N696 C697 1.321 . S
N696 Co699 2.135 . S
C697 N695 1.340 . S
C697 N696 1.321 . S
C697 H721 0.930 . S
H698 C693 0.931 . S
Co699 N696 2.135 . S
Co699 N702 2.121 . S
Co699 O707 2.055 . S
Co699 O710 2.039 . S
Co699 N713 2.140 . S
C700 O701 1.227 . S
C700 O710 1.265 . S
O701 C700 1.227 . S
N702 Co699 2.121 . S
N702 C704 1.375 . S
N702 C705 1.313 . S
C703 C704 1.338 . S
C703 N706 1.377 . S
C703 H723 0.930 . S
C704 N702 1.375 . S
C704 C703 1.338 . S
C704 H708 0.931 . S
C705 N702 1.313 . S
C705 N706 1.344 . S
C705 H709 0.930 . S
N706 C703 1.377 . S
N706 C705 1.344 . S
O707 Co699 2.055 . S
O707 C711 1.253 . S
H708 C704 0.931 . S
H709 C705 0.930 . S
O710 Co699 2.039 . S
O710 C700 1.265 . S
C711 O707 1.253 . S
C711 O712 1.227 . S
O712 C711 1.227 . S
N713 Co699 2.140 . S
N713 C716 1.346 . S
N713 C717 1.345 . S
C714 C715 1.387 . S
C714 C718 1.391 . S
C715 C714 1.387 . S
C715 C716 1.369 . S
C715 H724 0.929 . S
C716 N713 1.346 . S
C716 C715 1.369 . S
C716 H719 0.928 . S
C717 N713 1.345 . S
C717 C718 1.371 . S
C717 H720 0.931 . S
C718 C714 1.391 . S
C718 C717 1.371 . S
C718 H725 0.930 . S
H719 C716 0.928 . S
H720 C717 0.931 . S
H721 C697 0.930 . S
H722 C694 0.930 . S
H723 C703 0.930 . S
H724 C715 0.929 . S
H725 C718 0.930 . S
C726 C727 1.351 . S
C726 N729 1.368 . S
C726 H731 0.931 . S
C727 C726 1.351 . S
C727 N728 1.373 . S
C727 H755 0.930 . S
N728 C727 1.373 . S
N728 C730 1.340 . S
N729 C726 1.368 . S
N729 C730 1.321 . S
N729 Co732 2.135 1_554 S
C730 N728 1.340 . S
C730 N729 1.321 . S
C730 H754 0.930 . S
H731 C726 0.931 . S
Co732 N729 2.135 1_556 S
Co732 N735 2.121 . S
Co732 O740 2.055 . S
Co732 O743 2.039 . S
Co732 N746 2.140 . S
C733 O734 1.227 . S
C733 O743 1.265 . S
O734 C733 1.227 . S
N735 Co732 2.121 . S
N735 C737 1.375 . S
N735 C738 1.313 . S
C736 C737 1.338 . S
C736 N739 1.377 . S
C736 H756 0.930 . S
C737 N735 1.375 . S
C737 C736 1.338 . S
C737 H741 0.931 . S
C738 N735 1.313 . S
C738 N739 1.344 . S
C738 H742 0.930 . S
N739 C736 1.377 . S
N739 C738 1.344 . S
O740 Co732 2.055 . S
O740 C744 1.253 . S
H741 C737 0.931 . S
H742 C738 0.930 . S
O743 Co732 2.039 . S
O743 C733 1.265 . S
C744 O740 1.253 . S
C744 O745 1.227 . S
O745 C744 1.227 . S
N746 Co732 2.140 . S
N746 C749 1.346 1_556 S
N746 C750 1.345 . S
C747 C748 1.387 1_556 S
C747 C751 1.391 . S
C748 C747 1.387 1_554 S
C748 C749 1.369 . S
C748 H757 0.929 . S
C749 N746 1.346 1_554 S
C749 C748 1.369 . S
C749 H752 0.928 . S
C750 N746 1.345 . S
C750 C751 1.371 . S
C750 H753 0.931 . S
C751 C747 1.391 . S
C751 C750 1.371 . S
C751 H758 0.930 . S
H752 C749 0.928 . S
H753 C750 0.931 . S
H754 C730 0.930 . S
H755 C727 0.930 . S
H756 C736 0.930 . S
H757 C748 0.929 . S
H758 C751 0.930 . S
C759 C760 1.351 . S
C759 N762 1.368 . S
C759 H764 0.931 . S
C760 C759 1.351 . S
C760 N761 1.373 . S
C760 H788 0.930 . S
N761 C760 1.373 . S
N761 C763 1.340 . S
N762 C759 1.368 . S
N762 C763 1.321 . S
N762 Co765 2.135 . S
C763 N761 1.340 . S
C763 N762 1.321 . S
C763 H787 0.930 . S
H764 C759 0.931 . S
Co765 N762 2.135 . S
Co765 N768 2.121 . S
Co765 O773 2.055 . S
Co765 O776 2.039 . S
Co765 N779 2.140 . S
C766 O767 1.227 . S
C766 O776 1.265 . S
O767 C766 1.227 . S
N768 Co765 2.121 . S
N768 C770 1.375 . S
N768 C771 1.313 . S
C769 C770 1.338 1_556 S
C769 N772 1.377 . S
C769 H789 0.930 . S
C770 N768 1.375 . S
C770 C769 1.338 1_554 S
C770 H774 0.931 . S
C771 N768 1.313 . S
C771 N772 1.344 1_554 S
C771 H775 0.930 . S
N772 C769 1.377 . S
N772 C771 1.344 1_556 S
O773 Co765 2.055 . S
O773 C777 1.253 . S
H774 C770 0.931 . S
H775 C771 0.930 . S
O776 Co765 2.039 . S
O776 C766 1.265 . S
C777 O773 1.253 . S
C777 O778 1.227 . S
O778 C777 1.227 . S
N779 Co765 2.140 . S
N779 C782 1.346 . S
N779 C783 1.345 . S
C780 C781 1.387 . S
C780 C784 1.391 . S
C781 C780 1.387 . S
C781 C782 1.369 . S
C781 H790 0.929 . S
C782 N779 1.346 . S
C782 C781 1.369 . S
C782 H785 0.928 . S
C783 N779 1.345 . S
C783 C784 1.371 . S
C783 H786 0.931 . S
C784 C780 1.391 . S
C784 C783 1.371 . S
C784 H791 0.930 . S
H785 C782 0.928 . S
H786 C783 0.931 . S
H787 C763 0.930 . S
H788 C760 0.930 . S
H789 C769 0.930 . S
H790 C781 0.929 . S
H791 C784 0.930 . S
C792 C793 1.351 . S
C792 N795 1.368 . S
C792 H797 0.931 . S
C793 C792 1.351 . S
C793 N794 1.373 . S
C793 H821 0.930 . S
N794 C793 1.373 . S
N794 C796 1.340 . S
N795 C792 1.368 . S
N795 C796 1.321 . S
N795 Co798 2.135 . S
C796 N794 1.340 . S
C796 N795 1.321 . S
C796 H820 0.930 . S
H797 C792 0.931 . S
Co798 N795 2.135 . S
Co798 N801 2.121 . S
Co798 O806 2.055 . S
Co798 O809 2.039 . S
Co798 N812 2.140 . S
C799 O800 1.227 . S
C799 O809 1.265 . S
O800 C799 1.227 . S
N801 Co798 2.121 . S
N801 C803 1.375 . S
N801 C804 1.313 . S
C802 C803 1.338 . S
C802 N805 1.377 . S
C802 H822 0.930 . S
C803 N801 1.375 . S
C803 C802 1.338 . S
C803 H807 0.931 . S
C804 N801 1.313 . S
C804 N805 1.344 . S
C804 H808 0.930 . S
N805 C802 1.377 . S
N805 C804 1.344 . S
O806 Co798 2.055 . S
O806 C810 1.253 . S
H807 C803 0.931 . S
H808 C804 0.930 . S
O809 Co798 2.039 . S
O809 C799 1.265 . S
C810 O806 1.253 . S
C810 O811 1.227 . S
O811 C810 1.227 . S
N812 Co798 2.140 . S
N812 C815 1.346 . S
N812 C816 1.345 . S
C813 C814 1.387 . S
C813 C817 1.391 . S
C814 C813 1.387 . S
C814 C815 1.369 . S
C814 H823 0.929 . S
C815 N812 1.346 . S
C815 C814 1.369 . S
C815 H818 0.928 . S
C816 N812 1.345 . S
C816 C817 1.371 . S
C816 H819 0.931 . S
C817 C813 1.391 . S
C817 C816 1.371 . S
C817 H824 0.930 . S
H818 C815 0.928 . S
H819 C816 0.931 . S
H820 C796 0.930 . S
H821 C793 0.930 . S
H822 C802 0.930 . S
H823 C814 0.929 . S
H824 C817 0.930 . S
C825 C826 1.351 . S
C825 N828 1.368 . S
C825 H830 0.931 . S
C826 C825 1.351 . S
C826 N827 1.373 . S
C826 H854 0.930 . S
N827 C826 1.373 . S
N827 C829 1.340 . S
N828 C825 1.368 . S
N828 C829 1.321 . S
N828 Co831 2.135 . S
C829 N827 1.340 . S
C829 N828 1.321 . S
C829 H853 0.930 . S
H830 C825 0.931 . S
Co831 N828 2.135 . S
Co831 N834 2.121 . S
Co831 O839 2.055 . S
Co831 O842 2.039 . S
Co831 N845 2.140 . S
C832 O833 1.227 . S
C832 O842 1.265 . S
O833 C832 1.227 . S
N834 Co831 2.121 . S
N834 C836 1.375 . S
N834 C837 1.313 . S
C835 C836 1.338 1_556 S
C835 N838 1.377 . S
C835 H855 0.930 . S
C836 N834 1.375 . S
C836 C835 1.338 1_554 S
C836 H840 0.931 . S
C837 N834 1.313 . S
C837 N838 1.344 1_554 S
C837 H841 0.930 . S
N838 C835 1.377 . S
N838 C837 1.344 1_556 S
O839 Co831 2.055 . S
O839 C843 1.253 . S
H840 C836 0.931 . S
H841 C837 0.930 . S
O842 Co831 2.039 . S
O842 C832 1.265 . S
C843 O839 1.253 . S
C843 O844 1.227 . S
O844 C843 1.227 . S
N845 Co831 2.140 . S
N845 C848 1.346 . S
N845 C849 1.345 . S
C846 C847 1.387 . S
C846 C850 1.391 . S
C847 C846 1.387 . S
C847 C848 1.369 . S
C847 H856 0.929 . S
C848 N845 1.346 . S
C848 C847 1.369 . S
C848 H851 0.928 . S
C849 N845 1.345 . S
C849 C850 1.371 . S
C849 H852 0.931 . S
C850 C846 1.391 . S
C850 C849 1.371 . S
C850 H857 0.930 . S
H851 C848 0.928 . S
H852 C849 0.931 . S
H853 C829 0.930 . S
H854 C826 0.930 . S
H855 C835 0.930 . S
H856 C847 0.929 . S
H857 C850 0.930 . S
C858 C859 1.351 . S
C858 N861 1.368 . S
C858 H863 0.931 . S
C859 C858 1.351 . S
C859 N860 1.373 . S
C859 H887 0.930 . S
N860 C859 1.373 . S
N860 C862 1.340 . S
N861 C858 1.368 . S
N861 C862 1.321 . S
N861 Co864 2.135 1_554 S
C862 N860 1.340 . S
C862 N861 1.321 . S
C862 H886 0.930 . S
H863 C858 0.931 . S
Co864 N861 2.135 1_556 S
Co864 N867 2.121 . S
Co864 O872 2.055 . S
Co864 O875 2.039 . S
Co864 N878 2.140 . S
C865 O866 1.227 . S
C865 O875 1.265 . S
O866 C865 1.227 . S
N867 Co864 2.121 . S
N867 C869 1.375 . S
N867 C870 1.313 . S
C868 C869 1.338 . S
C868 N871 1.377 . S
C868 H888 0.930 . S
C869 N867 1.375 . S
C869 C868 1.338 . S
C869 H873 0.931 . S
C870 N867 1.313 . S
C870 N871 1.344 . S
C870 H874 0.930 . S
N871 C868 1.377 . S
N871 C870 1.344 . S
O872 Co864 2.055 . S
O872 C876 1.253 . S
H873 C869 0.931 . S
H874 C870 0.930 . S
O875 Co864 2.039 . S
O875 C865 1.265 . S
C876 O872 1.253 . S
C876 O877 1.227 . S
O877 C876 1.227 . S
N878 Co864 2.140 . S
N878 C881 1.346 1_556 S
N878 C882 1.345 . S
C879 C880 1.387 1_556 S
C879 C883 1.391 . S
C880 C879 1.387 1_554 S
C880 C881 1.369 . S
C880 H889 0.929 . S
C881 N878 1.346 1_554 S
C881 C880 1.369 . S
C881 H884 0.928 . S
C882 N878 1.345 . S
C882 C883 1.371 . S
C882 H885 0.931 . S
C883 C879 1.391 . S
C883 C882 1.371 . S
C883 H890 0.930 . S
H884 C881 0.928 . S
H885 C882 0.931 . S
H886 C862 0.930 . S
H887 C859 0.930 . S
H888 C868 0.930 . S
H889 C880 0.929 . S
H890 C883 0.930 . S
C891 C892 1.351 . S
C891 N894 1.368 . S
C891 H896 0.931 . S
C892 C891 1.351 . S
C892 N893 1.373 . S
C892 H920 0.930 . S
N893 C892 1.373 . S
N893 C895 1.340 . S
N894 C891 1.368 . S
N894 C895 1.321 . S
N894 Co897 2.135 . S
C895 N893 1.340 . S
C895 N894 1.321 . S
C895 H919 0.930 . S
H896 C891 0.931 . S
Co897 N894 2.135 . S
Co897 N900 2.121 . S
Co897 O905 2.055 . S
Co897 O908 2.039 . S
Co897 N911 2.140 . S
C898 O899 1.227 . S
C898 O908 1.265 . S
O899 C898 1.227 . S
N900 Co897 2.121 . S
N900 C902 1.375 . S
N900 C903 1.313 . S
C901 C902 1.338 . S
C901 N904 1.377 . S
C901 H921 0.930 . S
C902 N900 1.375 . S
C902 C901 1.338 . S
C902 H906 0.931 . S
C903 N900 1.313 . S
C903 N904 1.344 . S
C903 H907 0.930 . S
N904 C901 1.377 . S
N904 C903 1.344 . S
O905 Co897 2.055 . S
O905 C909 1.253 . S
H906 C902 0.931 . S
H907 C903 0.930 . S
O908 Co897 2.039 . S
O908 C898 1.265 . S
C909 O905 1.253 . S
C909 O910 1.227 . S
O910 C909 1.227 . S
N911 Co897 2.140 . S
N911 C914 1.346 . S
N911 C915 1.345 . S
C912 C913 1.387 . S
C912 C916 1.391 . S
C913 C912 1.387 . S
C913 C914 1.369 . S
C913 H922 0.929 . S
C914 N911 1.346 . S
C914 C913 1.369 . S
C914 H917 0.928 . S
C915 N911 1.345 . S
C915 C916 1.371 . S
C915 H918 0.931 . S
C916 C912 1.391 . S
C916 C915 1.371 . S
C916 H923 0.930 . S
H917 C914 0.928 . S
H918 C915 0.931 . S
H919 C895 0.930 . S
H920 C892 0.930 . S
H921 C901 0.930 . S
H922 C913 0.929 . S
H923 C916 0.930 . S
C924 C925 1.351 . S
C924 N927 1.368 . S
C924 H929 0.931 . S
C925 C924 1.351 . S
C925 N926 1.373 . S
C925 H953 0.930 . S
N926 C925 1.373 . S
N926 C928 1.340 . S
N927 C924 1.368 . S
N927 C928 1.321 . S
N927 Co930 2.135 . S
C928 N926 1.340 . S
C928 N927 1.321 . S
C928 H952 0.930 . S
H929 C924 0.931 . S
Co930 N927 2.135 . S
Co930 N933 2.121 . S
Co930 O938 2.055 . S
Co930 O941 2.039 . S
Co930 N944 2.140 . S
C931 O932 1.227 . S
C931 O941 1.265 . S
O932 C931 1.227 . S
N933 Co930 2.121 . S
N933 C935 1.375 . S
N933 C936 1.313 . S
C934 C935 1.338 . S
C934 N937 1.377 . S
C934 H954 0.930 . S
C935 N933 1.375 . S
C935 C934 1.338 . S
C935 H939 0.931 . S
C936 N933 1.313 . S
C936 N937 1.344 . S
C936 H940 0.930 . S
N937 C934 1.377 . S
N937 C936 1.344 . S
O938 Co930 2.055 . S
O938 C942 1.253 . S
H939 C935 0.931 . S
H940 C936 0.930 . S
O941 Co930 2.039 . S
O941 C931 1.265 . S
C942 O938 1.253 . S
C942 O943 1.227 . S
O943 C942 1.227 . S
N944 Co930 2.140 . S
N944 C947 1.346 . S
N944 C948 1.345 . S
C945 C946 1.387 . S
C945 C949 1.391 . S
C946 C945 1.387 . S
C946 C947 1.369 . S
C946 H955 0.929 . S
C947 N944 1.346 . S
C947 C946 1.369 . S
C947 H950 0.928 . S
C948 N944 1.345 . S
C948 C949 1.371 . S
C948 H951 0.931 . S
C949 C945 1.391 . S
C949 C948 1.371 . S
C949 H956 0.930 . S
H950 C947 0.928 . S
H951 C948 0.931 . S
H952 C928 0.930 . S
H953 C925 0.930 . S
H954 C934 0.930 . S
H955 C946 0.929 . S
H956 C949 0.930 . S
C957 C958 1.351 . S
C957 N960 1.368 . S
C957 H962 0.931 . S
C958 C957 1.351 . S
C958 N959 1.373 . S
C958 H986 0.930 . S
N959 C958 1.373 . S
N959 C961 1.340 . S
N960 C957 1.368 . S
N960 C961 1.321 . S
N960 Co963 2.135 . S
C961 N959 1.340 . S
C961 N960 1.321 . S
C961 H985 0.930 . S
H962 C957 0.931 . S
Co963 N960 2.135 . S
Co963 N966 2.121 . S
Co963 O971 2.055 . S
Co963 O974 2.039 . S
Co963 N977 2.140 . S
C964 O965 1.227 . S
C964 O974 1.265 . S
O965 C964 1.227 . S
N966 Co963 2.121 . S
N966 C968 1.375 . S
N966 C969 1.313 . S
C967 C968 1.338 . S
C967 N970 1.377 . S
C967 H987 0.930 . S
C968 N966 1.375 . S
C968 C967 1.338 . S
C968 H972 0.931 . S
C969 N966 1.313 . S
C969 N970 1.344 . S
C969 H973 0.930 . S
N970 C967 1.377 . S
N970 C969 1.344 . S
O971 Co963 2.055 . S
O971 C975 1.253 . S
H972 C968 0.931 . S
H973 C969 0.930 . S
O974 Co963 2.039 . S
O974 C964 1.265 . S
C975 O971 1.253 . S
C975 O976 1.227 . S
O976 C975 1.227 . S
N977 Co963 2.140 . S
N977 C980 1.346 . S
N977 C981 1.345 . S
C978 C979 1.387 . S
C978 C982 1.391 . S
C979 C978 1.387 . S
C979 C980 1.369 . S
C979 H988 0.929 . S
C980 N977 1.346 . S
C980 C979 1.369 . S
C980 H983 0.928 . S
C981 N977 1.345 . S
C981 C982 1.371 . S
C981 H984 0.931 . S
C982 C978 1.391 . S
C982 C981 1.371 . S
C982 H989 0.930 . S
H983 C980 0.928 . S
H984 C981 0.931 . S
H985 C961 0.930 . S
H986 C958 0.930 . S
H987 C967 0.930 . S
H988 C979 0.929 . S
H989 C982 0.930 . S
C990 C991 1.351 . S
C990 N993 1.368 . S
C990 H995 0.931 . S
C991 C990 1.351 . S
C991 N992 1.373 . S
C991 H1019 0.930 . S
N992 C991 1.373 . S
N992 C994 1.340 . S
N993 C990 1.368 . S
N993 C994 1.321 . S
N993 Co996 2.135 1_556 S
C994 N992 1.340 . S
C994 N993 1.321 . S
C994 H1018 0.930 . S
H995 C990 0.931 . S
Co996 N993 2.135 1_554 S
Co996 N999 2.121 . S
Co996 O1004 2.055 . S
Co996 O1007 2.039 . S
Co996 N1010 2.140 . S
C997 O998 1.227 . S
C997 O1007 1.265 . S
O998 C997 1.227 . S
N999 Co996 2.121 . S
N999 C1001 1.375 . S
N999 C1002 1.313 . S
C1000 C1001 1.338 . S
C1000 N1003 1.377 . S
C1000 H1020 0.930 . S
C1001 N999 1.375 . S
C1001 C1000 1.338 . S
C1001 H1005 0.931 . S
C1002 N999 1.313 . S
C1002 N1003 1.344 . S
C1002 H1006 0.930 . S
N1003 C1000 1.377 . S
N1003 C1002 1.344 . S
O1004 Co996 2.055 . S
O1004 C1008 1.253 . S
H1005 C1001 0.931 . S
H1006 C1002 0.930 . S
O1007 Co996 2.039 . S
O1007 C997 1.265 . S
C1008 O1004 1.253 . S
C1008 O1009 1.227 . S
O1009 C1008 1.227 . S
N1010 Co996 2.140 . S
N1010 C1013 1.346 1_554 S
N1010 C1014 1.345 . S
C1011 C1012 1.387 1_554 S
C1011 C1015 1.391 . S
C1012 C1011 1.387 1_556 S
C1012 C1013 1.369 . S
C1012 H1021 0.929 . S
C1013 N1010 1.346 1_556 S
C1013 C1012 1.369 . S
C1013 H1016 0.928 . S
C1014 N1010 1.345 . S
C1014 C1015 1.371 . S
C1014 H1017 0.931 . S
C1015 C1011 1.391 . S
C1015 C1014 1.371 . S
C1015 H1022 0.930 . S
H1016 C1013 0.928 . S
H1017 C1014 0.931 . S
H1018 C994 0.930 . S
H1019 C991 0.930 . S
H1020 C1000 0.930 . S
H1021 C1012 0.929 . S
H1022 C1015 0.930 . S
C1023 C1024 1.351 . S
C1023 N1026 1.368 . S
C1023 H1028 0.931 . S
C1024 C1023 1.351 . S
C1024 N1025 1.373 . S
C1024 H1052 0.930 . S
N1025 C1024 1.373 . S
N1025 C1027 1.340 . S
N1026 C1023 1.368 . S
N1026 C1027 1.321 . S
N1026 Co1029 2.135 . S
C1027 N1025 1.340 . S
C1027 N1026 1.321 . S
C1027 H1051 0.930 . S
H1028 C1023 0.931 . S
Co1029 N1026 2.135 . S
Co1029 N1032 2.121 . S
Co1029 O1037 2.055 . S
Co1029 O1040 2.039 . S
Co1029 N1043 2.140 . S
C1030 O1031 1.227 . S
C1030 O1040 1.265 . S
O1031 C1030 1.227 . S
N1032 Co1029 2.121 . S
N1032 C1034 1.375 . S
N1032 C1035 1.313 . S
C1033 C1034 1.338 1_554 S
C1033 N1036 1.377 . S
C1033 H1053 0.930 . S
C1034 N1032 1.375 . S
C1034 C1033 1.338 1_556 S
C1034 H1038 0.931 . S
C1035 N1032 1.313 . S
C1035 N1036 1.344 1_556 S
C1035 H1039 0.930 . S
N1036 C1033 1.377 . S
N1036 C1035 1.344 1_554 S
O1037 Co1029 2.055 . S
O1037 C1041 1.253 . S
H1038 C1034 0.931 . S
H1039 C1035 0.930 . S
O1040 Co1029 2.039 . S
O1040 C1030 1.265 . S
C1041 O1037 1.253 . S
C1041 O1042 1.227 . S
O1042 C1041 1.227 . S
N1043 Co1029 2.140 . S
N1043 C1046 1.346 . S
N1043 C1047 1.345 . S
C1044 C1045 1.387 . S
C1044 C1048 1.391 . S
C1045 C1044 1.387 . S
C1045 C1046 1.369 . S
C1045 H1054 0.929 . S
C1046 N1043 1.346 . S
C1046 C1045 1.369 . S
C1046 H1049 0.928 . S
C1047 N1043 1.345 . S
C1047 C1048 1.371 . S
C1047 H1050 0.931 . S
C1048 C1044 1.391 . S
C1048 C1047 1.371 . S
C1048 H1055 0.930 . S
H1049 C1046 0.928 . S
H1050 C1047 0.931 . S
H1051 C1027 0.930 . S
H1052 C1024 0.930 . S
H1053 C1033 0.930 . S
H1054 C1045 0.929 . S
H1055 C1048 0.930 . S
C1056 C1057 1.391 . S
C1056 C1058 1.394 . S
C1056 H1072 0.931 . S
C1057 C1056 1.391 . S
C1057 C1061 1.376 . S
C1058 C1056 1.394 . S
C1058 C1059 1.369 . S
C1058 C1062 1.531 . S
C1059 C1058 1.369 . S
C1059 C1060 1.410 . S
C1059 C1067 1.503 . S
C1060 C1059 1.410 . S
C1060 C1061 1.392 . S
C1060 C1063 1.511 . S
C1061 C1057 1.376 . S
C1061 C1060 1.392 . S
C1061 H1073 0.929 . S
C1062 C1058 1.531 . S
C1062 H1074 0.960 . S
C1062 H1075 0.962 . S
C1062 H1076 0.960 . S
C1063 C1060 1.511 . S
C1063 H1077 0.961 . S
C1063 H1078 0.961 . S
C1063 H1079 0.961 . S
C1064 C1065 1.370 . S
C1064 C1066 1.363 . S
C1064 H1080 0.931 . S
C1065 C1064 1.370 . S
C1065 C1069 1.408 . S
C1066 C1064 1.363 . S
C1066 C1067 1.370 . S
C1066 C1070 1.524 . S
C1067 C1059 1.503 . S
C1067 C1066 1.370 . S
C1067 C1068 1.403 . S
C1068 C1067 1.403 . S
C1068 C1069 1.404 . S
C1068 C1071 1.539 . S
C1069 C1065 1.408 . S
C1069 C1068 1.404 . S
C1069 H1081 0.930 . S
C1070 C1066 1.524 . S
C1070 H1082 0.956 . S
C1070 H1083 0.961 . S
C1070 H1084 0.961 . S
C1071 C1068 1.539 . S
C1071 H1085 0.958 . S
C1071 H1086 0.961 . S
C1071 H1087 0.960 . S
H1072 C1056 0.931 . S
H1073 C1061 0.929 . S
H1074 C1062 0.960 . S
H1075 C1062 0.962 . S
H1076 C1062 0.960 . S
H1077 C1063 0.961 . S
H1078 C1063 0.961 . S
H1079 C1063 0.961 . S
H1080 C1064 0.931 . S
H1081 C1069 0.930 . S
H1082 C1070 0.956 . S
H1083 C1070 0.961 . S
H1084 C1070 0.961 . S
H1085 C1071 0.958 . S
H1086 C1071 0.961 . S
H1087 C1071 0.960 . S
C1088 C1089 1.391 . S
C1088 C1090 1.394 . S
C1088 H1104 0.931 . S
C1089 C1088 1.391 . S
C1089 C1093 1.376 . S
C1090 C1088 1.394 . S
C1090 C1091 1.369 . S
C1090 C1094 1.531 . S
C1091 C1090 1.369 . S
C1091 C1092 1.410 . S
C1091 C1099 1.503 . S
C1092 C1091 1.410 . S
C1092 C1093 1.392 . S
C1092 C1095 1.511 . S
C1093 C1089 1.376 . S
C1093 C1092 1.392 . S
C1093 H1105 0.929 . S
C1094 C1090 1.531 . S
C1094 H1106 0.960 . S
C1094 H1107 0.962 . S
C1094 H1108 0.960 . S
C1095 C1092 1.511 . S
C1095 H1109 0.961 . S
C1095 H1110 0.961 . S
C1095 H1111 0.961 . S
C1096 C1097 1.370 . S
C1096 C1098 1.363 . S
C1096 H1112 0.931 . S
C1097 C1096 1.370 . S
C1097 C1101 1.408 . S
C1098 C1096 1.363 . S
C1098 C1099 1.370 . S
C1098 C1102 1.524 . S
C1099 C1091 1.503 . S
C1099 C1098 1.370 . S
C1099 C1100 1.403 . S
C1100 C1099 1.403 . S
C1100 C1101 1.404 . S
C1100 C1103 1.539 . S
C1101 C1097 1.408 . S
C1101 C1100 1.404 . S
C1101 H1113 0.930 . S
C1102 C1098 1.524 . S
C1102 H1114 0.956 . S
C1102 H1115 0.961 . S
C1102 H1116 0.961 . S
C1103 C1100 1.539 . S
C1103 H1117 0.958 . S
C1103 H1118 0.961 . S
C1103 H1119 0.960 . S
H1104 C1088 0.931 . S
H1105 C1093 0.929 . S
H1106 C1094 0.960 . S
H1107 C1094 0.962 . S
H1108 C1094 0.960 . S
H1109 C1095 0.961 . S
H1110 C1095 0.961 . S
H1111 C1095 0.961 . S
H1112 C1096 0.931 . S
H1113 C1101 0.930 . S
H1114 C1102 0.956 . S
H1115 C1102 0.961 . S
H1116 C1102 0.961 . S
H1117 C1103 0.958 . S
H1118 C1103 0.961 . S
H1119 C1103 0.960 . S
C1120 C1121 1.391 . S
C1120 C1122 1.394 . S
C1120 H1136 0.931 . S
C1121 C1120 1.391 . S
C1121 C1125 1.376 . S
C1122 C1120 1.394 . S
C1122 C1123 1.369 1_556 S
C1122 C1126 1.531 1_556 S
C1123 C1122 1.369 1_554 S
C1123 C1124 1.410 1_554 S
C1123 C1131 1.503 . S
C1124 C1123 1.410 1_556 S
C1124 C1125 1.392 . S
C1124 C1127 1.511 1_556 S
C1125 C1121 1.376 . S
C1125 C1124 1.392 . S
C1125 H1137 0.929 . S
C1126 C1122 1.531 1_554 S
C1126 H1138 0.960 . S
C1126 H1139 0.962 . S
C1126 H1140 0.960 1_554 S
C1127 C1124 1.511 1_554 S
C1127 H1141 0.961 1_554 S
C1127 H1142 0.961 . S
C1127 H1143 0.961 . S
C1128 C1129 1.370 . S
C1128 C1130 1.363 . S
C1128 H1144 0.931 . S
C1129 C1128 1.370 . S
C1129 C1133 1.408 . S
C1130 C1128 1.363 . S
C1130 C1131 1.370 . S
C1130 C1134 1.524 . S
C1131 C1123 1.503 . S
C1131 C1130 1.370 . S
C1131 C1132 1.403 . S
C1132 C1131 1.403 . S
C1132 C1133 1.404 . S
C1132 C1135 1.539 . S
C1133 C1129 1.408 . S
C1133 C1132 1.404 . S
C1133 H1145 0.930 . S
C1134 C1130 1.524 . S
C1134 H1146 0.956 . S
C1134 H1147 0.961 . S
C1134 H1148 0.961 . S
C1135 C1132 1.539 . S
C1135 H1149 0.958 . S
C1135 H1150 0.961 . S
C1135 H1151 0.960 . S
H1136 C1120 0.931 . S
H1137 C1125 0.929 . S
H1138 C1126 0.960 . S
H1139 C1126 0.962 . S
H1140 C1126 0.960 1_556 S
H1141 C1127 0.961 1_556 S
H1142 C1127 0.961 . S
H1143 C1127 0.961 . S
H1144 C1128 0.931 . S
H1145 C1133 0.930 . S
H1146 C1134 0.956 . S
H1147 C1134 0.961 . S
H1148 C1134 0.961 . S
H1149 C1135 0.958 . S
H1150 C1135 0.961 . S
H1151 C1135 0.960 . S
C1152 C1153 1.391 . S
C1152 C1154 1.394 . S
C1152 H1168 0.931 . S
C1153 C1152 1.391 . S
C1153 C1157 1.376 . S
C1154 C1152 1.394 . S
C1154 C1155 1.369 . S
C1154 C1158 1.531 . S
C1155 C1154 1.369 . S
C1155 C1156 1.410 . S
C1155 C1163 1.503 . S
C1156 C1155 1.410 . S
C1156 C1157 1.392 . S
C1156 C1159 1.511 . S
C1157 C1153 1.376 . S
C1157 C1156 1.392 . S
C1157 H1169 0.929 . S
C1158 C1154 1.531 . S
C1158 H1170 0.960 . S
C1158 H1171 0.962 . S
C1158 H1172 0.960 . S
C1159 C1156 1.511 . S
C1159 H1173 0.961 . S
C1159 H1174 0.961 . S
C1159 H1175 0.961 . S
C1160 C1161 1.370 . S
C1160 C1162 1.363 . S
C1160 H1176 0.931 . S
C1161 C1160 1.370 . S
C1161 C1165 1.408 . S
C1162 C1160 1.363 . S
C1162 C1163 1.370 . S
C1162 C1166 1.524 . S
C1163 C1155 1.503 . S
C1163 C1162 1.370 . S
C1163 C1164 1.403 . S
C1164 C1163 1.403 . S
C1164 C1165 1.404 . S
C1164 C1167 1.539 . S
C1165 C1161 1.408 . S
C1165 C1164 1.404 . S
C1165 H1177 0.930 . S
C1166 C1162 1.524 . S
C1166 H1178 0.956 . S
C1166 H1179 0.961 . S
C1166 H1180 0.961 . S
C1167 C1164 1.539 . S
C1167 H1181 0.958 . S
C1167 H1182 0.961 . S
C1167 H1183 0.960 . S
H1168 C1152 0.931 . S
H1169 C1157 0.929 . S
H1170 C1158 0.960 . S
H1171 C1158 0.962 . S
H1172 C1158 0.960 . S
H1173 C1159 0.961 . S
H1174 C1159 0.961 . S
H1175 C1159 0.961 . S
H1176 C1160 0.931 . S
H1177 C1165 0.930 . S
H1178 C1166 0.956 . S
H1179 C1166 0.961 . S
H1180 C1166 0.961 . S
H1181 C1167 0.958 . S
H1182 C1167 0.961 . S
H1183 C1167 0.960 . S
C1184 C1185 1.391 . S
C1184 C1186 1.394 . S
C1184 H1200 0.931 . S
C1185 C1184 1.391 . S
C1185 C1189 1.376 . S
C1186 C1184 1.394 . S
C1186 C1187 1.369 . S
C1186 C1190 1.531 . S
C1187 C1186 1.369 . S
C1187 C1188 1.410 . S
C1187 C1195 1.503 . S
C1188 C1187 1.410 . S
C1188 C1189 1.392 . S
C1188 C1191 1.511 . S
C1189 C1185 1.376 . S
C1189 C1188 1.392 . S
C1189 H1201 0.929 . S
C1190 C1186 1.531 . S
C1190 H1202 0.960 . S
C1190 H1203 0.962 . S
C1190 H1204 0.960 . S
C1191 C1188 1.511 . S
C1191 H1205 0.961 . S
C1191 H1206 0.961 . S
C1191 H1207 0.961 . S
C1192 C1193 1.370 . S
C1192 C1194 1.363 . S
C1192 H1208 0.931 . S
C1193 C1192 1.370 . S
C1193 C1197 1.408 . S
C1194 C1192 1.363 . S
C1194 C1195 1.370 . S
C1194 C1198 1.524 . S
C1195 C1187 1.503 . S
C1195 C1194 1.370 . S
C1195 C1196 1.403 . S
C1196 C1195 1.403 . S
C1196 C1197 1.404 . S
C1196 C1199 1.539 . S
C1197 C1193 1.408 . S
C1197 C1196 1.404 . S
C1197 H1209 0.930 . S
C1198 C1194 1.524 . S
C1198 H1210 0.956 . S
C1198 H1211 0.961 . S
C1198 H1212 0.961 . S
C1199 C1196 1.539 . S
C1199 H1213 0.958 . S
C1199 H1214 0.961 . S
C1199 H1215 0.960 . S
H1200 C1184 0.931 . S
H1201 C1189 0.929 . S
H1202 C1190 0.960 . S
H1203 C1190 0.962 . S
H1204 C1190 0.960 . S
H1205 C1191 0.961 . S
H1206 C1191 0.961 . S
H1207 C1191 0.961 . S
H1208 C1192 0.931 . S
H1209 C1197 0.930 . S
H1210 C1198 0.956 . S
H1211 C1198 0.961 . S
H1212 C1198 0.961 . S
H1213 C1199 0.958 . S
H1214 C1199 0.961 . S
H1215 C1199 0.960 . S
C1216 C1217 1.391 . S
C1216 C1218 1.394 . S
C1216 H1232 0.931 . S
C1217 C1216 1.391 . S
C1217 C1221 1.376 . S
C1218 C1216 1.394 . S
C1218 C1219 1.369 . S
C1218 C1222 1.531 . S
C1219 C1218 1.369 . S
C1219 C1220 1.410 . S
C1219 C1227 1.503 . S
C1220 C1219 1.410 . S
C1220 C1221 1.392 . S
C1220 C1223 1.511 . S
C1221 C1217 1.376 . S
C1221 C1220 1.392 . S
C1221 H1233 0.929 . S
C1222 C1218 1.531 . S
C1222 H1234 0.960 . S
C1222 H1235 0.962 . S
C1222 H1236 0.960 . S
C1223 C1220 1.511 . S
C1223 H1237 0.961 . S
C1223 H1238 0.961 . S
C1223 H1239 0.961 . S
C1224 C1225 1.370 . S
C1224 C1226 1.363 . S
C1224 H1240 0.931 . S
C1225 C1224 1.370 . S
C1225 C1229 1.408 . S
C1226 C1224 1.363 . S
C1226 C1227 1.370 . S
C1226 C1230 1.524 . S
C1227 C1219 1.503 . S
C1227 C1226 1.370 . S
C1227 C1228 1.403 . S
C1228 C1227 1.403 . S
C1228 C1229 1.404 . S
C1228 C1231 1.539 . S
C1229 C1225 1.408 . S
C1229 C1228 1.404 . S
C1229 H1241 0.930 . S
C1230 C1226 1.524 . S
C1230 H1242 0.956 . S
C1230 H1243 0.961 . S
C1230 H1244 0.961 . S
C1231 C1228 1.539 . S
C1231 H1245 0.958 . S
C1231 H1246 0.961 . S
C1231 H1247 0.960 . S
H1232 C1216 0.931 . S
H1233 C1221 0.929 . S
H1234 C1222 0.960 . S
H1235 C1222 0.962 . S
H1236 C1222 0.960 . S
H1237 C1223 0.961 . S
H1238 C1223 0.961 . S
H1239 C1223 0.961 . S
H1240 C1224 0.931 . S
H1241 C1229 0.930 . S
H1242 C1230 0.956 . S
H1243 C1230 0.961 . S
H1244 C1230 0.961 . S
H1245 C1231 0.958 . S
H1246 C1231 0.961 . S
H1247 C1231 0.960 . S
C1248 C1249 1.391 . S
C1248 C1250 1.394 . S
C1248 H1264 0.931 . S
C1249 C1248 1.391 . S
C1249 C1253 1.376 . S
C1250 C1248 1.394 . S
C1250 C1251 1.369 . S
C1250 C1254 1.531 . S
C1251 C1250 1.369 . S
C1251 C1252 1.410 . S
C1251 C1259 1.503 . S
C1252 C1251 1.410 . S
C1252 C1253 1.392 . S
C1252 C1255 1.511 . S
C1253 C1249 1.376 . S
C1253 C1252 1.392 . S
C1253 H1265 0.929 . S
C1254 C1250 1.531 . S
C1254 H1266 0.960 . S
C1254 H1267 0.962 . S
C1254 H1268 0.960 . S
C1255 C1252 1.511 . S
C1255 H1269 0.961 . S
C1255 H1270 0.961 . S
C1255 H1271 0.961 . S
C1256 C1257 1.370 . S
C1256 C1258 1.363 . S
C1256 H1272 0.931 . S
C1257 C1256 1.370 . S
C1257 C1261 1.408 . S
C1258 C1256 1.363 . S
C1258 C1259 1.370 1_554 S
C1258 C1262 1.524 1_554 S
C1259 C1251 1.503 . S
C1259 C1258 1.370 1_556 S
C1259 C1260 1.403 1_556 S
C1260 C1259 1.403 1_554 S
C1260 C1261 1.404 . S
C1260 C1263 1.539 1_554 S
C1261 C1257 1.408 . S
C1261 C1260 1.404 . S
C1261 H1273 0.930 . S
C1262 C1258 1.524 1_556 S
C1262 H1274 0.956 . S
C1262 H1275 0.961 . S
C1262 H1276 0.961 1_556 S
C1263 C1260 1.539 1_556 S
C1263 H1277 0.958 . S
C1263 H1278 0.961 1_556 S
C1263 H1279 0.960 . S
H1264 C1248 0.931 . S
H1265 C1253 0.929 . S
H1266 C1254 0.960 . S
H1267 C1254 0.962 . S
H1268 C1254 0.960 . S
H1269 C1255 0.961 . S
H1270 C1255 0.961 . S
H1271 C1255 0.961 . S
H1272 C1256 0.931 . S
H1273 C1261 0.930 . S
H1274 C1262 0.956 . S
H1275 C1262 0.961 . S
H1276 C1262 0.961 1_554 S
H1277 C1263 0.958 . S
H1278 C1263 0.961 1_554 S
H1279 C1263 0.960 . S
C1280 C1281 1.391 . S
C1280 C1282 1.394 . S
C1280 H1296 0.931 . S
C1281 C1280 1.391 . S
C1281 C1285 1.376 . S
C1282 C1280 1.394 . S
C1282 C1283 1.369 . S
C1282 C1286 1.531 . S
C1283 C1282 1.369 . S
C1283 C1284 1.410 . S
C1283 C1291 1.503 . S
C1284 C1283 1.410 . S
C1284 C1285 1.392 . S
C1284 C1287 1.511 . S
C1285 C1281 1.376 . S
C1285 C1284 1.392 . S
C1285 H1297 0.929 . S
C1286 C1282 1.531 . S
C1286 H1298 0.960 . S
C1286 H1299 0.962 . S
C1286 H1300 0.960 . S
C1287 C1284 1.511 . S
C1287 H1301 0.961 . S
C1287 H1302 0.961 . S
C1287 H1303 0.961 . S
C1288 C1289 1.370 . S
C1288 C1290 1.363 . S
C1288 H1304 0.931 . S
C1289 C1288 1.370 . S
C1289 C1293 1.408 . S
C1290 C1288 1.363 . S
C1290 C1291 1.370 . S
C1290 C1294 1.524 . S
C1291 C1283 1.503 . S
C1291 C1290 1.370 . S
C1291 C1292 1.403 . S
C1292 C1291 1.403 . S
C1292 C1293 1.404 . S
C1292 C1295 1.539 . S
C1293 C1289 1.408 . S
C1293 C1292 1.404 . S
C1293 H1305 0.930 . S
C1294 C1290 1.524 . S
C1294 H1306 0.956 . S
C1294 H1307 0.961 . S
C1294 H1308 0.961 . S
C1295 C1292 1.539 . S
C1295 H1309 0.958 . S
C1295 H1310 0.961 . S
C1295 H1311 0.960 . S
H1296 C1280 0.931 . S
H1297 C1285 0.929 . S
H1298 C1286 0.960 . S
H1299 C1286 0.962 . S
H1300 C1286 0.960 . S
H1301 C1287 0.961 . S
H1302 C1287 0.961 . S
H1303 C1287 0.961 . S
H1304 C1288 0.931 . S
H1305 C1293 0.930 . S
H1306 C1294 0.956 . S
H1307 C1294 0.961 . S
H1308 C1294 0.961 . S
H1309 C1295 0.958 . S
H1310 C1295 0.961 . S
H1311 C1295 0.960 . S
C1312 C1313 1.391 . S
C1312 C1314 1.394 . S
C1312 H1328 0.931 . S
C1313 C1312 1.391 . S
C1313 C1317 1.376 . S
C1314 C1312 1.394 . S
C1314 C1315 1.369 . S
C1314 C1318 1.531 . S
C1315 C1314 1.369 . S
C1315 C1316 1.410 . S
C1315 C1323 1.503 . S
C1316 C1315 1.410 . S
C1316 C1317 1.392 . S
C1316 C1319 1.511 . S
C1317 C1313 1.376 . S
C1317 C1316 1.392 . S
C1317 H1329 0.929 . S
C1318 C1314 1.531 . S
C1318 H1330 0.960 . S
C1318 H1331 0.962 . S
C1318 H1332 0.960 . S
C1319 C1316 1.511 . S
C1319 H1333 0.961 . S
C1319 H1334 0.961 . S
C1319 H1335 0.961 . S
C1320 C1321 1.370 . S
C1320 C1322 1.363 . S
C1320 H1336 0.931 . S
C1321 C1320 1.370 . S
C1321 C1325 1.408 . S
C1322 C1320 1.363 . S
C1322 C1323 1.370 . S
C1322 C1326 1.524 . S
C1323 C1315 1.503 . S
C1323 C1322 1.370 . S
C1323 C1324 1.403 . S
C1324 C1323 1.403 . S
C1324 C1325 1.404 . S
C1324 C1327 1.539 . S
C1325 C1321 1.408 . S
C1325 C1324 1.404 . S
C1325 H1337 0.930 . S
C1326 C1322 1.524 . S
C1326 H1338 0.956 . S
C1326 H1339 0.961 . S
C1326 H1340 0.961 . S
C1327 C1324 1.539 . S
C1327 H1341 0.958 . S
C1327 H1342 0.961 . S
C1327 H1343 0.960 . S
H1328 C1312 0.931 . S
H1329 C1317 0.929 . S
H1330 C1318 0.960 . S
H1331 C1318 0.962 . S
H1332 C1318 0.960 . S
H1333 C1319 0.961 . S
H1334 C1319 0.961 . S
H1335 C1319 0.961 . S
H1336 C1320 0.931 . S
H1337 C1325 0.930 . S
H1338 C1326 0.956 . S
H1339 C1326 0.961 . S
H1340 C1326 0.961 . S
H1341 C1327 0.958 . S
H1342 C1327 0.961 . S
H1343 C1327 0.960 . S
C1344 C1345 1.391 . S
C1344 C1346 1.394 . S
C1344 H1360 0.931 . S
C1345 C1344 1.391 . S
C1345 C1349 1.376 . S
C1346 C1344 1.394 . S
C1346 C1347 1.369 . S
C1346 C1350 1.531 . S
C1347 C1346 1.369 . S
C1347 C1348 1.410 . S
C1347 C1355 1.503 . S
C1348 C1347 1.410 . S
C1348 C1349 1.392 . S
C1348 C1351 1.511 . S
C1349 C1345 1.376 . S
C1349 C1348 1.392 . S
C1349 H1361 0.929 . S
C1350 C1346 1.531 . S
C1350 H1362 0.960 . S
C1350 H1363 0.962 . S
C1350 H1364 0.960 . S
C1351 C1348 1.511 . S
C1351 H1365 0.961 . S
C1351 H1366 0.961 . S
C1351 H1367 0.961 . S
C1352 C1353 1.370 . S
C1352 C1354 1.363 . S
C1352 H1368 0.931 . S
C1353 C1352 1.370 . S
C1353 C1357 1.408 . S
C1354 C1352 1.363 . S
C1354 C1355 1.370 . S
C1354 C1358 1.524 . S
C1355 C1347 1.503 . S
C1355 C1354 1.370 . S
C1355 C1356 1.403 . S
C1356 C1355 1.403 . S
C1356 C1357 1.404 . S
C1356 C1359 1.539 . S
C1357 C1353 1.408 . S
C1357 C1356 1.404 . S
C1357 H1369 0.930 . S
C1358 C1354 1.524 . S
C1358 H1370 0.956 . S
C1358 H1371 0.961 . S
C1358 H1372 0.961 . S
C1359 C1356 1.539 . S
C1359 H1373 0.958 . S
C1359 H1374 0.961 . S
C1359 H1375 0.960 . S
H1360 C1344 0.931 . S
H1361 C1349 0.929 . S
H1362 C1350 0.960 . S
H1363 C1350 0.962 . S
H1364 C1350 0.960 . S
H1365 C1351 0.961 . S
H1366 C1351 0.961 . S
H1367 C1351 0.961 . S
H1368 C1352 0.931 . S
H1369 C1357 0.930 . S
H1370 C1358 0.956 . S
H1371 C1358 0.961 . S
H1372 C1358 0.961 . S
H1373 C1359 0.958 . S
H1374 C1359 0.961 . S
H1375 C1359 0.960 . S
C1376 C1377 1.391 . S
C1376 C1378 1.394 . S
C1376 H1392 0.931 . S
C1377 C1376 1.391 . S
C1377 C1381 1.376 . S
C1378 C1376 1.394 . S
C1378 C1379 1.369 . S
C1378 C1382 1.531 . S
C1379 C1378 1.369 . S
C1379 C1380 1.410 . S
C1379 C1387 1.503 . S
C1380 C1379 1.410 . S
C1380 C1381 1.392 . S
C1380 C1383 1.511 . S
C1381 C1377 1.376 . S
C1381 C1380 1.392 . S
C1381 H1393 0.929 . S
C1382 C1378 1.531 . S
C1382 H1394 0.960 . S
C1382 H1395 0.962 . S
C1382 H1396 0.960 . S
C1383 C1380 1.511 . S
C1383 H1397 0.961 . S
C1383 H1398 0.961 . S
C1383 H1399 0.961 . S
C1384 C1385 1.370 . S
C1384 C1386 1.363 . S
C1384 H1400 0.931 . S
C1385 C1384 1.370 . S
C1385 C1389 1.408 . S
C1386 C1384 1.363 . S
C1386 C1387 1.370 1_554 S
C1386 C1390 1.524 1_554 S
C1387 C1379 1.503 . S
C1387 C1386 1.370 1_556 S
C1387 C1388 1.403 1_556 S
C1388 C1387 1.403 1_554 S
C1388 C1389 1.404 . S
C1388 C1391 1.539 1_554 S
C1389 C1385 1.408 . S
C1389 C1388 1.404 . S
C1389 H1401 0.930 . S
C1390 C1386 1.524 1_556 S
C1390 H1402 0.956 . S
C1390 H1403 0.961 . S
C1390 H1404 0.961 1_556 S
C1391 C1388 1.539 1_556 S
C1391 H1405 0.958 . S
C1391 H1406 0.961 1_556 S
C1391 H1407 0.960 . S
H1392 C1376 0.931 . S
H1393 C1381 0.929 . S
H1394 C1382 0.960 . S
H1395 C1382 0.962 . S
H1396 C1382 0.960 . S
H1397 C1383 0.961 . S
H1398 C1383 0.961 . S
H1399 C1383 0.961 . S
H1400 C1384 0.931 . S
H1401 C1389 0.930 . S
H1402 C1390 0.956 . S
H1403 C1390 0.961 . S
H1404 C1390 0.961 1_554 S
H1405 C1391 0.958 . S
H1406 C1391 0.961 1_554 S
H1407 C1391 0.960 . S
C1408 C1409 1.391 . S
C1408 C1410 1.394 . S
C1408 H1424 0.931 . S
C1409 C1408 1.391 . S
C1409 C1413 1.376 . S
C1410 C1408 1.394 . S
C1410 C1411 1.369 . S
C1410 C1414 1.531 . S
C1411 C1410 1.369 . S
C1411 C1412 1.410 . S
C1411 C1419 1.503 . S
C1412 C1411 1.410 . S
C1412 C1413 1.392 . S
C1412 C1415 1.511 . S
C1413 C1409 1.376 . S
C1413 C1412 1.392 . S
C1413 H1425 0.929 . S
C1414 C1410 1.531 . S
C1414 H1426 0.960 . S
C1414 H1427 0.962 . S
C1414 H1428 0.960 . S
C1415 C1412 1.511 . S
C1415 H1429 0.961 . S
C1415 H1430 0.961 . S
C1415 H1431 0.961 . S
C1416 C1417 1.370 . S
C1416 C1418 1.363 . S
C1416 H1432 0.931 . S
C1417 C1416 1.370 . S
C1417 C1421 1.408 . S
C1418 C1416 1.363 . S
C1418 C1419 1.370 . S
C1418 C1422 1.524 . S
C1419 C1411 1.503 . S
C1419 C1418 1.370 . S
C1419 C1420 1.403 . S
C1420 C1419 1.403 . S
C1420 C1421 1.404 . S
C1420 C1423 1.539 . S
C1421 C1417 1.408 . S
C1421 C1420 1.404 . S
C1421 H1433 0.930 . S
C1422 C1418 1.524 . S
C1422 H1434 0.956 . S
C1422 H1435 0.961 . S
C1422 H1436 0.961 . S
C1423 C1420 1.539 . S
C1423 H1437 0.958 . S
C1423 H1438 0.961 . S
C1423 H1439 0.960 . S
H1424 C1408 0.931 . S
H1425 C1413 0.929 . S
H1426 C1414 0.960 . S
H1427 C1414 0.962 . S
H1428 C1414 0.960 . S
H1429 C1415 0.961 . S
H1430 C1415 0.961 . S
H1431 C1415 0.961 . S
H1432 C1416 0.931 . S
H1433 C1421 0.930 . S
H1434 C1422 0.956 . S
H1435 C1422 0.961 . S
H1436 C1422 0.961 . S
H1437 C1423 0.958 . S
H1438 C1423 0.961 . S
H1439 C1423 0.960 . S
C1440 C1441 1.391 . S
C1440 C1442 1.394 . S
C1440 H1456 0.931 . S
C1441 C1440 1.391 . S
C1441 C1445 1.376 . S
C1442 C1440 1.394 . S
C1442 C1443 1.369 . S
C1442 C1446 1.531 . S
C1443 C1442 1.369 . S
C1443 C1444 1.410 . S
C1443 C1451 1.503 . S
C1444 C1443 1.410 . S
C1444 C1445 1.392 . S
C1444 C1447 1.511 . S
C1445 C1441 1.376 . S
C1445 C1444 1.392 . S
C1445 H1457 0.929 . S
C1446 C1442 1.531 . S
C1446 H1458 0.960 . S
C1446 H1459 0.962 . S
C1446 H1460 0.960 . S
C1447 C1444 1.511 . S
C1447 H1461 0.961 . S
C1447 H1462 0.961 . S
C1447 H1463 0.961 . S
C1448 C1449 1.370 . S
C1448 C1450 1.363 . S
C1448 H1464 0.931 . S
C1449 C1448 1.370 . S
C1449 C1453 1.408 . S
C1450 C1448 1.363 . S
C1450 C1451 1.370 . S
C1450 C1454 1.524 . S
C1451 C1443 1.503 . S
C1451 C1450 1.370 . S
C1451 C1452 1.403 . S
C1452 C1451 1.403 . S
C1452 C1453 1.404 . S
C1452 C1455 1.539 . S
C1453 C1449 1.408 . S
C1453 C1452 1.404 . S
C1453 H1465 0.930 . S
C1454 C1450 1.524 . S
C1454 H1466 0.956 . S
C1454 H1467 0.961 . S
C1454 H1468 0.961 . S
C1455 C1452 1.539 . S
C1455 H1469 0.958 . S
C1455 H1470 0.961 . S
C1455 H1471 0.960 . S
H1456 C1440 0.931 . S
H1457 C1445 0.929 . S
H1458 C1446 0.960 . S
H1459 C1446 0.962 . S
H1460 C1446 0.960 . S
H1461 C1447 0.961 . S
H1462 C1447 0.961 . S
H1463 C1447 0.961 . S
H1464 C1448 0.931 . S
H1465 C1453 0.930 . S
H1466 C1454 0.956 . S
H1467 C1454 0.961 . S
H1468 C1454 0.961 . S
H1469 C1455 0.958 . S
H1470 C1455 0.961 . S
H1471 C1455 0.960 . S
C1472 C1473 1.391 . S
C1472 C1474 1.394 . S
C1472 H1488 0.931 . S
C1473 C1472 1.391 . S
C1473 C1477 1.376 . S
C1474 C1472 1.394 . S
C1474 C1475 1.369 . S
C1474 C1478 1.531 . S
C1475 C1474 1.369 . S
C1475 C1476 1.410 . S
C1475 C1483 1.503 . S
C1476 C1475 1.410 . S
C1476 C1477 1.392 . S
C1476 C1479 1.511 . S
C1477 C1473 1.376 . S
C1477 C1476 1.392 . S
C1477 H1489 0.929 . S
C1478 C1474 1.531 . S
C1478 H1490 0.960 . S
C1478 H1491 0.962 . S
C1478 H1492 0.960 . S
C1479 C1476 1.511 . S
C1479 H1493 0.961 . S
C1479 H1494 0.961 . S
C1479 H1495 0.961 . S
C1480 C1481 1.370 . S
C1480 C1482 1.363 . S
C1480 H1496 0.931 . S
C1481 C1480 1.370 . S
C1481 C1485 1.408 . S
C1482 C1480 1.363 . S
C1482 C1483 1.370 . S
C1482 C1486 1.524 . S
C1483 C1475 1.503 . S
C1483 C1482 1.370 . S
C1483 C1484 1.403 . S
C1484 C1483 1.403 . S
C1484 C1485 1.404 . S
C1484 C1487 1.539 . S
C1485 C1481 1.408 . S
C1485 C1484 1.404 . S
C1485 H1497 0.930 . S
C1486 C1482 1.524 . S
C1486 H1498 0.956 . S
C1486 H1499 0.961 . S
C1486 H1500 0.961 . S
C1487 C1484 1.539 . S
C1487 H1501 0.958 . S
C1487 H1502 0.961 . S
C1487 H1503 0.960 . S
H1488 C1472 0.931 . S
H1489 C1477 0.929 . S
H1490 C1478 0.960 . S
H1491 C1478 0.962 . S
H1492 C1478 0.960 . S
H1493 C1479 0.961 . S
H1494 C1479 0.961 . S
H1495 C1479 0.961 . S
H1496 C1480 0.931 . S
H1497 C1485 0.930 . S
H1498 C1486 0.956 . S
H1499 C1486 0.961 . S
H1500 C1486 0.961 . S
H1501 C1487 0.958 . S
H1502 C1487 0.961 . S
H1503 C1487 0.960 . S
C1504 C1505 1.391 . S
C1504 C1506 1.394 . S
C1504 H1520 0.931 . S
C1505 C1504 1.391 . S
C1505 C1509 1.376 . S
C1506 C1504 1.394 . S
C1506 C1507 1.369 1_556 S
C1506 C1510 1.531 1_556 S
C1507 C1506 1.369 1_554 S
C1507 C1508 1.410 1_554 S
C1507 C1515 1.503 . S
C1508 C1507 1.410 1_556 S
C1508 C1509 1.392 . S
C1508 C1511 1.511 1_556 S
C1509 C1505 1.376 . S
C1509 C1508 1.392 . S
C1509 H1521 0.929 . S
C1510 C1506 1.531 1_554 S
C1510 H1522 0.960 . S
C1510 H1523 0.962 . S
C1510 H1524 0.960 1_554 S
C1511 C1508 1.511 1_554 S
C1511 H1525 0.961 1_554 S
C1511 H1526 0.961 . S
C1511 H1527 0.961 . S
C1512 C1513 1.370 . S
C1512 C1514 1.363 . S
C1512 H1528 0.931 . S
C1513 C1512 1.370 . S
C1513 C1517 1.408 . S
C1514 C1512 1.363 . S
C1514 C1515 1.370 . S
C1514 C1518 1.524 . S
C1515 C1507 1.503 . S
C1515 C1514 1.370 . S
C1515 C1516 1.403 . S
C1516 C1515 1.403 . S
C1516 C1517 1.404 . S
C1516 C1519 1.539 . S
C1517 C1513 1.408 . S
C1517 C1516 1.404 . S
C1517 H1529 0.930 . S
C1518 C1514 1.524 . S
C1518 H1530 0.956 . S
C1518 H1531 0.961 . S
C1518 H1532 0.961 . S
C1519 C1516 1.539 . S
C1519 H1533 0.958 . S
C1519 H1534 0.961 . S
C1519 H1535 0.960 . S
H1520 C1504 0.931 . S
H1521 C1509 0.929 . S
H1522 C1510 0.960 . S
H1523 C1510 0.962 . S
H1524 C1510 0.960 1_556 S
H1525 C1511 0.961 1_556 S
H1526 C1511 0.961 . S
H1527 C1511 0.961 . S
H1528 C1512 0.931 . S
H1529 C1517 0.930 . S
H1530 C1518 0.956 . S
H1531 C1518 0.961 . S
H1532 C1518 0.961 . S
H1533 C1519 0.958 . S
H1534 C1519 0.961 . S
H1535 C1519 0.960 . S
C1536 C1537 1.391 . S
C1536 C1538 1.394 . S
C1536 H1552 0.931 . S
C1537 C1536 1.391 . S
C1537 C1541 1.376 . S
C1538 C1536 1.394 . S
C1538 C1539 1.369 . S
C1538 C1542 1.531 . S
C1539 C1538 1.369 . S
C1539 C1540 1.410 . S
C1539 C1547 1.503 . S
C1540 C1539 1.410 . S
C1540 C1541 1.392 . S
C1540 C1543 1.511 . S
C1541 C1537 1.376 . S
C1541 C1540 1.392 . S
C1541 H1553 0.929 . S
C1542 C1538 1.531 . S
C1542 H1554 0.960 . S
C1542 H1555 0.962 . S
C1542 H1556 0.960 . S
C1543 C1540 1.511 . S
C1543 H1557 0.961 . S
C1543 H1558 0.961 . S
C1543 H1559 0.961 . S
C1544 C1545 1.370 . S
C1544 C1546 1.363 . S
C1544 H1560 0.931 . S
C1545 C1544 1.370 . S
C1545 C1549 1.408 . S
C1546 C1544 1.363 . S
C1546 C1547 1.370 . S
C1546 C1550 1.524 . S
C1547 C1539 1.503 . S
C1547 C1546 1.370 . S
C1547 C1548 1.403 . S
C1548 C1547 1.403 . S
C1548 C1549 1.404 . S
C1548 C1551 1.539 . S
C1549 C1545 1.408 . S
C1549 C1548 1.404 . S
C1549 H1561 0.930 . S
C1550 C1546 1.524 . S
C1550 H1562 0.956 . S
C1550 H1563 0.961 . S
C1550 H1564 0.961 . S
C1551 C1548 1.539 . S
C1551 H1565 0.958 . S
C1551 H1566 0.961 . S
C1551 H1567 0.960 . S
H1552 C1536 0.931 . S
H1553 C1541 0.929 . S
H1554 C1542 0.960 . S
H1555 C1542 0.962 . S
H1556 C1542 0.960 . S
H1557 C1543 0.961 . S
H1558 C1543 0.961 . S
H1559 C1543 0.961 . S
H1560 C1544 0.931 . S
H1561 C1549 0.930 . S
H1562 C1550 0.956 . S
H1563 C1550 0.961 . S
H1564 C1550 0.961 . S
H1565 C1551 0.958 . S
H1566 C1551 0.961 . S
H1567 C1551 0.960 . S
C1568 C1569 1.391 . S
C1568 C1570 1.394 . S
C1568 H1584 0.931 . S
C1569 C1568 1.391 . S
C1569 C1573 1.376 . S
C1570 C1568 1.394 . S
C1570 C1571 1.369 1_556 S
C1570 C1574 1.531 1_556 S
C1571 C1570 1.369 1_554 S
C1571 C1572 1.410 1_554 S
C1571 C1579 1.503 . S
C1572 C1571 1.410 1_556 S
C1572 C1573 1.392 . S
C1572 C1575 1.511 1_556 S
C1573 C1569 1.376 . S
C1573 C1572 1.392 . S
C1573 H1585 0.929 . S
C1574 C1570 1.531 1_554 S
C1574 H1586 0.960 . S
C1574 H1587 0.962 . S
C1574 H1588 0.960 1_554 S
C1575 C1572 1.511 1_554 S
C1575 H1589 0.961 1_554 S
C1575 H1590 0.961 . S
C1575 H1591 0.961 . S
C1576 C1577 1.370 . S
C1576 C1578 1.363 . S
C1576 H1592 0.931 . S
C1577 C1576 1.370 . S
C1577 C1581 1.408 . S
C1578 C1576 1.363 . S
C1578 C1579 1.370 . S
C1578 C1582 1.524 . S
C1579 C1571 1.503 . S
C1579 C1578 1.370 . S
C1579 C1580 1.403 . S
C1580 C1579 1.403 . S
C1580 C1581 1.404 . S
C1580 C1583 1.539 . S
C1581 C1577 1.408 . S
C1581 C1580 1.404 . S
C1581 H1593 0.930 . S
C1582 C1578 1.524 . S
C1582 H1594 0.956 . S
C1582 H1595 0.961 . S
C1582 H1596 0.961 . S
C1583 C1580 1.539 . S
C1583 H1597 0.958 . S
C1583 H1598 0.961 . S
C1583 H1599 0.960 . S
H1584 C1568 0.931 . S
H1585 C1573 0.929 . S
H1586 C1574 0.960 . S
H1587 C1574 0.962 . S
H1588 C1574 0.960 1_556 S
H1589 C1575 0.961 1_556 S
H1590 C1575 0.961 . S
H1591 C1575 0.961 . S
H1592 C1576 0.931 . S
H1593 C1581 0.930 . S
H1594 C1582 0.956 . S
H1595 C1582 0.961 . S
H1596 C1582 0.961 . S
H1597 C1583 0.958 . S
H1598 C1583 0.961 . S
H1599 C1583 0.960 . S
C1600 C1601 1.391 . S
C1600 C1602 1.394 . S
C1600 H1616 0.931 . S
C1601 C1600 1.391 . S
C1601 C1605 1.376 . S
C1602 C1600 1.394 . S
C1602 C1603 1.369 . S
C1602 C1606 1.531 . S
C1603 C1602 1.369 . S
C1603 C1604 1.410 . S
C1603 C1611 1.503 . S
C1604 C1603 1.410 . S
C1604 C1605 1.392 . S
C1604 C1607 1.511 . S
C1605 C1601 1.376 . S
C1605 C1604 1.392 . S
C1605 H1617 0.929 . S
C1606 C1602 1.531 . S
C1606 H1618 0.960 . S
C1606 H1619 0.962 . S
C1606 H1620 0.960 . S
C1607 C1604 1.511 . S
C1607 H1621 0.961 . S
C1607 H1622 0.961 . S
C1607 H1623 0.961 . S
C1608 C1609 1.370 . S
C1608 C1610 1.363 . S
C1608 H1624 0.931 . S
C1609 C1608 1.370 . S
C1609 C1613 1.408 . S
C1610 C1608 1.363 . S
C1610 C1611 1.370 . S
C1610 C1614 1.524 . S
C1611 C1603 1.503 . S
C1611 C1610 1.370 . S
C1611 C1612 1.403 . S
C1612 C1611 1.403 . S
C1612 C1613 1.404 . S
C1612 C1615 1.539 . S
C1613 C1609 1.408 . S
C1613 C1612 1.404 . S
C1613 H1625 0.930 . S
C1614 C1610 1.524 . S
C1614 H1626 0.956 . S
C1614 H1627 0.961 . S
C1614 H1628 0.961 . S
C1615 C1612 1.539 . S
C1615 H1629 0.958 . S
C1615 H1630 0.961 . S
C1615 H1631 0.960 . S
H1616 C1600 0.931 . S
H1617 C1605 0.929 . S
H1618 C1606 0.960 . S
H1619 C1606 0.962 . S
H1620 C1606 0.960 . S
H1621 C1607 0.961 . S
H1622 C1607 0.961 . S
H1623 C1607 0.961 . S
H1624 C1608 0.931 . S
H1625 C1613 0.930 . S
H1626 C1614 0.956 . S
H1627 C1614 0.961 . S
H1628 C1614 0.961 . S
H1629 C1615 0.958 . S
H1630 C1615 0.961 . S
H1631 C1615 0.960 . S
C1632 C1633 1.391 . S
C1632 C1634 1.394 . S
C1632 H1648 0.931 . S
C1633 C1632 1.391 . S
C1633 C1637 1.376 . S
C1634 C1632 1.394 . S
C1634 C1635 1.369 . S
C1634 C1638 1.531 . S
C1635 C1634 1.369 . S
C1635 C1636 1.410 . S
C1635 C1643 1.503 . S
C1636 C1635 1.410 . S
C1636 C1637 1.392 . S
C1636 C1639 1.511 . S
C1637 C1633 1.376 . S
C1637 C1636 1.392 . S
C1637 H1649 0.929 . S
C1638 C1634 1.531 . S
C1638 H1650 0.960 . S
C1638 H1651 0.962 . S
C1638 H1652 0.960 . S
C1639 C1636 1.511 . S
C1639 H1653 0.961 . S
C1639 H1654 0.961 . S
C1639 H1655 0.961 . S
C1640 C1641 1.370 . S
C1640 C1642 1.363 . S
C1640 H1656 0.931 . S
C1641 C1640 1.370 . S
C1641 C1645 1.408 . S
C1642 C1640 1.363 . S
C1642 C1643 1.370 . S
C1642 C1646 1.524 . S
C1643 C1635 1.503 . S
C1643 C1642 1.370 . S
C1643 C1644 1.403 . S
C1644 C1643 1.403 . S
C1644 C1645 1.404 . S
C1644 C1647 1.539 . S
C1645 C1641 1.408 . S
C1645 C1644 1.404 . S
C1645 H1657 0.930 . S
C1646 C1642 1.524 . S
C1646 H1658 0.956 . S
C1646 H1659 0.961 . S
C1646 H1660 0.961 . S
C1647 C1644 1.539 . S
C1647 H1661 0.958 . S
C1647 H1662 0.961 . S
C1647 H1663 0.960 . S
H1648 C1632 0.931 . S
H1649 C1637 0.929 . S
H1650 C1638 0.960 . S
H1651 C1638 0.962 . S
H1652 C1638 0.960 . S
H1653 C1639 0.961 . S
H1654 C1639 0.961 . S
H1655 C1639 0.961 . S
H1656 C1640 0.931 . S
H1657 C1645 0.930 . S
H1658 C1646 0.956 . S
H1659 C1646 0.961 . S
H1660 C1646 0.961 . S
H1661 C1647 0.958 . S
H1662 C1647 0.961 . S
H1663 C1647 0.960 . S
C1664 C1665 1.391 . S
C1664 C1666 1.394 . S
C1664 H1680 0.931 . S
C1665 C1664 1.391 . S
C1665 C1669 1.376 . S
C1666 C1664 1.394 . S
C1666 C1667 1.369 . S
C1666 C1670 1.531 . S
C1667 C1666 1.369 . S
C1667 C1668 1.410 . S
C1667 C1675 1.503 . S
C1668 C1667 1.410 . S
C1668 C1669 1.392 . S
C1668 C1671 1.511 . S
C1669 C1665 1.376 . S
C1669 C1668 1.392 . S
C1669 H1681 0.929 . S
C1670 C1666 1.531 . S
C1670 H1682 0.960 . S
C1670 H1683 0.962 . S
C1670 H1684 0.960 . S
C1671 C1668 1.511 . S
C1671 H1685 0.961 . S
C1671 H1686 0.961 . S
C1671 H1687 0.961 . S
C1672 C1673 1.370 . S
C1672 C1674 1.363 . S
C1672 H1688 0.931 . S
C1673 C1672 1.370 . S
C1673 C1677 1.408 . S
C1674 C1672 1.363 . S
C1674 C1675 1.370 . S
C1674 C1678 1.524 . S
C1675 C1667 1.503 . S
C1675 C1674 1.370 . S
C1675 C1676 1.403 . S
C1676 C1675 1.403 . S
C1676 C1677 1.404 . S
C1676 C1679 1.539 . S
C1677 C1673 1.408 . S
C1677 C1676 1.404 . S
C1677 H1689 0.930 . S
C1678 C1674 1.524 . S
C1678 H1690 0.956 . S
C1678 H1691 0.961 . S
C1678 H1692 0.961 . S
C1679 C1676 1.539 . S
C1679 H1693 0.958 . S
C1679 H1694 0.961 . S
C1679 H1695 0.960 . S
H1680 C1664 0.931 . S
H1681 C1669 0.929 . S
H1682 C1670 0.960 . S
H1683 C1670 0.962 . S
H1684 C1670 0.960 . S
H1685 C1671 0.961 . S
H1686 C1671 0.961 . S
H1687 C1671 0.961 . S
H1688 C1672 0.931 . S
H1689 C1677 0.930 . S
H1690 C1678 0.956 . S
H1691 C1678 0.961 . S
H1692 C1678 0.961 . S
H1693 C1679 0.958 . S
H1694 C1679 0.961 . S
H1695 C1679 0.960 . S
C1696 C1697 1.391 . S
C1696 C1698 1.394 . S
C1696 H1712 0.931 . S
C1697 C1696 1.391 . S
C1697 C1701 1.376 . S
C1698 C1696 1.394 . S
C1698 C1699 1.369 1_554 S
C1698 C1702 1.531 1_554 S
C1699 C1698 1.369 1_556 S
C1699 C1700 1.410 1_556 S
C1699 C1707 1.503 . S
C1700 C1699 1.410 1_554 S
C1700 C1701 1.392 . S
C1700 C1703 1.511 1_554 S
C1701 C1697 1.376 . S
C1701 C1700 1.392 . S
C1701 H1713 0.929 . S
C1702 C1698 1.531 1_556 S
C1702 H1714 0.960 . S
C1702 H1715 0.962 . S
C1702 H1716 0.960 1_556 S
C1703 C1700 1.511 1_556 S
C1703 H1717 0.961 1_556 S
C1703 H1718 0.961 . S
C1703 H1719 0.961 . S
C1704 C1705 1.370 . S
C1704 C1706 1.363 . S
C1704 H1720 0.931 . S
C1705 C1704 1.370 . S
C1705 C1709 1.408 . S
C1706 C1704 1.363 . S
C1706 C1707 1.370 . S
C1706 C1710 1.524 . S
C1707 C1699 1.503 . S
C1707 C1706 1.370 . S
C1707 C1708 1.403 . S
C1708 C1707 1.403 . S
C1708 C1709 1.404 . S
C1708 C1711 1.539 . S
C1709 C1705 1.408 . S
C1709 C1708 1.404 . S
C1709 H1721 0.930 . S
C1710 C1706 1.524 . S
C1710 H1722 0.956 . S
C1710 H1723 0.961 . S
C1710 H1724 0.961 . S
C1711 C1708 1.539 . S
C1711 H1725 0.958 . S
C1711 H1726 0.961 . S
C1711 H1727 0.960 . S
H1712 C1696 0.931 . S
H1713 C1701 0.929 . S
H1714 C1702 0.960 . S
H1715 C1702 0.962 . S
H1716 C1702 0.960 1_554 S
H1717 C1703 0.961 1_554 S
H1718 C1703 0.961 . S
H1719 C1703 0.961 . S
H1720 C1704 0.931 . S
H1721 C1709 0.930 . S
H1722 C1710 0.956 . S
H1723 C1710 0.961 . S
H1724 C1710 0.961 . S
H1725 C1711 0.958 . S
H1726 C1711 0.961 . S
H1727 C1711 0.960 . S
C1728 C1729 1.391 . S
C1728 C1730 1.394 . S
C1728 H1744 0.931 . S
C1729 C1728 1.391 . S
C1729 C1733 1.376 . S
C1730 C1728 1.394 . S
C1730 C1731 1.369 . S
C1730 C1734 1.531 . S
C1731 C1730 1.369 . S
C1731 C1732 1.410 . S
C1731 C1739 1.503 . S
C1732 C1731 1.410 . S
C1732 C1733 1.392 . S
C1732 C1735 1.511 . S
C1733 C1729 1.376 . S
C1733 C1732 1.392 . S
C1733 H1745 0.929 . S
C1734 C1730 1.531 . S
C1734 H1746 0.960 . S
C1734 H1747 0.962 . S
C1734 H1748 0.960 . S
C1735 C1732 1.511 . S
C1735 H1749 0.961 . S
C1735 H1750 0.961 . S
C1735 H1751 0.961 . S
C1736 C1737 1.370 . S
C1736 C1738 1.363 . S
C1736 H1752 0.931 . S
C1737 C1736 1.370 . S
C1737 C1741 1.408 . S
C1738 C1736 1.363 . S
C1738 C1739 1.370 . S
C1738 C1742 1.524 . S
C1739 C1731 1.503 . S
C1739 C1738 1.370 . S
C1739 C1740 1.403 . S
C1740 C1739 1.403 . S
C1740 C1741 1.404 . S
C1740 C1743 1.539 . S
C1741 C1737 1.408 . S
C1741 C1740 1.404 . S
C1741 H1753 0.930 . S
C1742 C1738 1.524 . S
C1742 H1754 0.956 . S
C1742 H1755 0.961 . S
C1742 H1756 0.961 . S
C1743 C1740 1.539 . S
C1743 H1757 0.958 . S
C1743 H1758 0.961 . S
C1743 H1759 0.960 . S
H1744 C1728 0.931 . S
H1745 C1733 0.929 . S
H1746 C1734 0.960 . S
H1747 C1734 0.962 . S
H1748 C1734 0.960 . S
H1749 C1735 0.961 . S
H1750 C1735 0.961 . S
H1751 C1735 0.961 . S
H1752 C1736 0.931 . S
H1753 C1741 0.930 . S
H1754 C1742 0.956 . S
H1755 C1742 0.961 . S
H1756 C1742 0.961 . S
H1757 C1743 0.958 . S
H1758 C1743 0.961 . S
H1759 C1743 0.960 . S
C1760 C1761 1.391 . S
C1760 C1762 1.394 . S
C1760 H1776 0.931 . S
C1761 C1760 1.391 . S
C1761 C1765 1.376 . S
C1762 C1760 1.394 . S
C1762 C1763 1.369 . S
C1762 C1766 1.531 . S
C1763 C1762 1.369 . S
C1763 C1764 1.410 . S
C1763 C1771 1.503 . S
C1764 C1763 1.410 . S
C1764 C1765 1.392 . S
C1764 C1767 1.511 . S
C1765 C1761 1.376 . S
C1765 C1764 1.392 . S
C1765 H1777 0.929 . S
C1766 C1762 1.531 . S
C1766 H1778 0.960 . S
C1766 H1779 0.962 . S
C1766 H1780 0.960 . S
C1767 C1764 1.511 . S
C1767 H1781 0.961 . S
C1767 H1782 0.961 . S
C1767 H1783 0.961 . S
C1768 C1769 1.370 . S
C1768 C1770 1.363 . S
C1768 H1784 0.931 . S
C1769 C1768 1.370 . S
C1769 C1773 1.408 . S
C1770 C1768 1.363 . S
C1770 C1771 1.370 . S
C1770 C1774 1.524 . S
C1771 C1763 1.503 . S
C1771 C1770 1.370 . S
C1771 C1772 1.403 . S
C1772 C1771 1.403 . S
C1772 C1773 1.404 . S
C1772 C1775 1.539 . S
C1773 C1769 1.408 . S
C1773 C1772 1.404 . S
C1773 H1785 0.930 . S
C1774 C1770 1.524 . S
C1774 H1786 0.956 . S
C1774 H1787 0.961 . S
C1774 H1788 0.961 . S
C1775 C1772 1.539 . S
C1775 H1789 0.958 . S
C1775 H1790 0.961 . S
C1775 H1791 0.960 . S
H1776 C1760 0.931 . S
H1777 C1765 0.929 . S
H1778 C1766 0.960 . S
H1779 C1766 0.962 . S
H1780 C1766 0.960 . S
H1781 C1767 0.961 . S
H1782 C1767 0.961 . S
H1783 C1767 0.961 . S
H1784 C1768 0.931 . S
H1785 C1773 0.930 . S
H1786 C1774 0.956 . S
H1787 C1774 0.961 . S
H1788 C1774 0.961 . S
H1789 C1775 0.958 . S
H1790 C1775 0.961 . S
H1791 C1775 0.960 . S
C1792 C1793 1.391 . S
C1792 C1794 1.394 . S
C1792 H1808 0.931 . S
C1793 C1792 1.391 . S
C1793 C1797 1.376 . S
C1794 C1792 1.394 . S
C1794 C1795 1.369 . S
C1794 C1798 1.531 . S
C1795 C1794 1.369 . S
C1795 C1796 1.410 . S
C1795 C1803 1.503 . S
C1796 C1795 1.410 . S
C1796 C1797 1.392 . S
C1796 C1799 1.511 . S
C1797 C1793 1.376 . S
C1797 C1796 1.392 . S
C1797 H1809 0.929 . S
C1798 C1794 1.531 . S
C1798 H1810 0.960 . S
C1798 H1811 0.962 . S
C1798 H1812 0.960 . S
C1799 C1796 1.511 . S
C1799 H1813 0.961 . S
C1799 H1814 0.961 . S
C1799 H1815 0.961 . S
C1800 C1801 1.370 . S
C1800 C1802 1.363 . S
C1800 H1816 0.931 . S
C1801 C1800 1.370 . S
C1801 C1805 1.408 . S
C1802 C1800 1.363 . S
C1802 C1803 1.370 . S
C1802 C1806 1.524 . S
C1803 C1795 1.503 . S
C1803 C1802 1.370 . S
C1803 C1804 1.403 . S
C1804 C1803 1.403 . S
C1804 C1805 1.404 . S
C1804 C1807 1.539 . S
C1805 C1801 1.408 . S
C1805 C1804 1.404 . S
C1805 H1817 0.930 . S
C1806 C1802 1.524 . S
C1806 H1818 0.956 . S
C1806 H1819 0.961 . S
C1806 H1820 0.961 . S
C1807 C1804 1.539 . S
C1807 H1821 0.958 . S
C1807 H1822 0.961 . S
C1807 H1823 0.960 . S
H1808 C1792 0.931 . S
H1809 C1797 0.929 . S
H1810 C1798 0.960 . S
H1811 C1798 0.962 . S
H1812 C1798 0.960 . S
H1813 C1799 0.961 . S
H1814 C1799 0.961 . S
H1815 C1799 0.961 . S
H1816 C1800 0.931 . S
H1817 C1805 0.930 . S
H1818 C1806 0.956 . S
H1819 C1806 0.961 . S
H1820 C1806 0.961 . S
H1821 C1807 0.958 . S
H1822 C1807 0.961 . S
H1823 C1807 0.960 . S
C1824 C1825 1.391 . S
C1824 C1826 1.394 . S
C1824 H1840 0.931 . S
C1825 C1824 1.391 . S
C1825 C1829 1.376 . S
C1826 C1824 1.394 . S
C1826 C1827 1.369 1_554 S
C1826 C1830 1.531 1_554 S
C1827 C1826 1.369 1_556 S
C1827 C1828 1.410 1_556 S
C1827 C1835 1.503 . S
C1828 C1827 1.410 1_554 S
C1828 C1829 1.392 . S
C1828 C1831 1.511 1_554 S
C1829 C1825 1.376 . S
C1829 C1828 1.392 . S
C1829 H1841 0.929 . S
C1830 C1826 1.531 1_556 S
C1830 H1842 0.960 . S
C1830 H1843 0.962 . S
C1830 H1844 0.960 1_556 S
C1831 C1828 1.511 1_556 S
C1831 H1845 0.961 1_556 S
C1831 H1846 0.961 . S
C1831 H1847 0.961 . S
C1832 C1833 1.370 . S
C1832 C1834 1.363 . S
C1832 H1848 0.931 . S
C1833 C1832 1.370 . S
C1833 C1837 1.408 . S
C1834 C1832 1.363 . S
C1834 C1835 1.370 . S
C1834 C1838 1.524 . S
C1835 C1827 1.503 . S
C1835 C1834 1.370 . S
C1835 C1836 1.403 . S
C1836 C1835 1.403 . S
C1836 C1837 1.404 . S
C1836 C1839 1.539 . S
C1837 C1833 1.408 . S
C1837 C1836 1.404 . S
C1837 H1849 0.930 . S
C1838 C1834 1.524 . S
C1838 H1850 0.956 . S
C1838 H1851 0.961 . S
C1838 H1852 0.961 . S
C1839 C1836 1.539 . S
C1839 H1853 0.958 . S
C1839 H1854 0.961 . S
C1839 H1855 0.960 . S
H1840 C1824 0.931 . S
H1841 C1829 0.929 . S
H1842 C1830 0.960 . S
H1843 C1830 0.962 . S
H1844 C1830 0.960 1_554 S
H1845 C1831 0.961 1_554 S
H1846 C1831 0.961 . S
H1847 C1831 0.961 . S
H1848 C1832 0.931 . S
H1849 C1837 0.930 . S
H1850 C1838 0.956 . S
H1851 C1838 0.961 . S
H1852 C1838 0.961 . S
H1853 C1839 0.958 . S
H1854 C1839 0.961 . S
H1855 C1839 0.960 . S
C1856 C1857 1.391 . S
C1856 C1858 1.394 . S
C1856 H1872 0.931 . S
C1857 C1856 1.391 . S
C1857 C1861 1.376 . S
C1858 C1856 1.394 . S
C1858 C1859 1.369 . S
C1858 C1862 1.531 . S
C1859 C1858 1.369 . S
C1859 C1860 1.410 . S
C1859 C1867 1.503 . S
C1860 C1859 1.410 . S
C1860 C1861 1.392 . S
C1860 C1863 1.511 . S
C1861 C1857 1.376 . S
C1861 C1860 1.392 . S
C1861 H1873 0.929 . S
C1862 C1858 1.531 . S
C1862 H1874 0.960 . S
C1862 H1875 0.962 . S
C1862 H1876 0.960 . S
C1863 C1860 1.511 . S
C1863 H1877 0.961 . S
C1863 H1878 0.961 . S
C1863 H1879 0.961 . S
C1864 C1865 1.370 . S
C1864 C1866 1.363 . S
C1864 H1880 0.931 . S
C1865 C1864 1.370 . S
C1865 C1869 1.408 . S
C1866 C1864 1.363 . S
C1866 C1867 1.370 . S
C1866 C1870 1.524 . S
C1867 C1859 1.503 . S
C1867 C1866 1.370 . S
C1867 C1868 1.403 . S
C1868 C1867 1.403 . S
C1868 C1869 1.404 . S
C1868 C1871 1.539 . S
C1869 C1865 1.408 . S
C1869 C1868 1.404 . S
C1869 H1881 0.930 . S
C1870 C1866 1.524 . S
C1870 H1882 0.956 . S
C1870 H1883 0.961 . S
C1870 H1884 0.961 . S
C1871 C1868 1.539 . S
C1871 H1885 0.958 . S
C1871 H1886 0.961 . S
C1871 H1887 0.960 . S
H1872 C1856 0.931 . S
H1873 C1861 0.929 . S
H1874 C1862 0.960 . S
H1875 C1862 0.962 . S
H1876 C1862 0.960 . S
H1877 C1863 0.961 . S
H1878 C1863 0.961 . S
H1879 C1863 0.961 . S
H1880 C1864 0.931 . S
H1881 C1869 0.930 . S
H1882 C1870 0.956 . S
H1883 C1870 0.961 . S
H1884 C1870 0.961 . S
H1885 C1871 0.958 . S
H1886 C1871 0.961 . S
H1887 C1871 0.960 . S
C1888 C1889 1.391 . S
C1888 C1890 1.394 . S
C1888 H1904 0.931 . S
C1889 C1888 1.391 . S
C1889 C1893 1.376 . S
C1890 C1888 1.394 . S
C1890 C1891 1.369 . S
C1890 C1894 1.531 . S
C1891 C1890 1.369 . S
C1891 C1892 1.410 . S
C1891 C1899 1.503 . S
C1892 C1891 1.410 . S
C1892 C1893 1.392 . S
C1892 C1895 1.511 . S
C1893 C1889 1.376 . S
C1893 C1892 1.392 . S
C1893 H1905 0.929 . S
C1894 C1890 1.531 . S
C1894 H1906 0.960 . S
C1894 H1907 0.962 . S
C1894 H1908 0.960 . S
C1895 C1892 1.511 . S
C1895 H1909 0.961 . S
C1895 H1910 0.961 . S
C1895 H1911 0.961 . S
C1896 C1897 1.370 . S
C1896 C1898 1.363 . S
C1896 H1912 0.931 . S
C1897 C1896 1.370 . S
C1897 C1901 1.408 . S
C1898 C1896 1.363 . S
C1898 C1899 1.370 . S
C1898 C1902 1.524 . S
C1899 C1891 1.503 . S
C1899 C1898 1.370 . S
C1899 C1900 1.403 . S
C1900 C1899 1.403 . S
C1900 C1901 1.404 . S
C1900 C1903 1.539 . S
C1901 C1897 1.408 . S
C1901 C1900 1.404 . S
C1901 H1913 0.930 . S
C1902 C1898 1.524 . S
C1902 H1914 0.956 . S
C1902 H1915 0.961 . S
C1902 H1916 0.961 . S
C1903 C1900 1.539 . S
C1903 H1917 0.958 . S
C1903 H1918 0.961 . S
C1903 H1919 0.960 . S
H1904 C1888 0.931 . S
H1905 C1893 0.929 . S
H1906 C1894 0.960 . S
H1907 C1894 0.962 . S
H1908 C1894 0.960 . S
H1909 C1895 0.961 . S
H1910 C1895 0.961 . S
H1911 C1895 0.961 . S
H1912 C1896 0.931 . S
H1913 C1901 0.930 . S
H1914 C1902 0.956 . S
H1915 C1902 0.961 . S
H1916 C1902 0.961 . S
H1917 C1903 0.958 . S
H1918 C1903 0.961 . S
H1919 C1903 0.960 . S
C1920 C1921 1.391 . S
C1920 C1922 1.394 . S
C1920 H1936 0.931 . S
C1921 C1920 1.391 . S
C1921 C1925 1.376 . S
C1922 C1920 1.394 . S
C1922 C1923 1.369 . S
C1922 C1926 1.531 . S
C1923 C1922 1.369 . S
C1923 C1924 1.410 . S
C1923 C1931 1.503 . S
C1924 C1923 1.410 . S
C1924 C1925 1.392 . S
C1924 C1927 1.511 . S
C1925 C1921 1.376 . S
C1925 C1924 1.392 . S
C1925 H1937 0.929 . S
C1926 C1922 1.531 . S
C1926 H1938 0.960 . S
C1926 H1939 0.962 . S
C1926 H1940 0.960 . S
C1927 C1924 1.511 . S
C1927 H1941 0.961 . S
C1927 H1942 0.961 . S
C1927 H1943 0.961 . S
C1928 C1929 1.370 . S
C1928 C1930 1.363 . S
C1928 H1944 0.931 . S
C1929 C1928 1.370 . S
C1929 C1933 1.408 . S
C1930 C1928 1.363 . S
C1930 C1931 1.370 . S
C1930 C1934 1.524 . S
C1931 C1923 1.503 . S
C1931 C1930 1.370 . S
C1931 C1932 1.403 . S
C1932 C1931 1.403 . S
C1932 C1933 1.404 . S
C1932 C1935 1.539 . S
C1933 C1929 1.408 . S
C1933 C1932 1.404 . S
C1933 H1945 0.930 . S
C1934 C1930 1.524 . S
C1934 H1946 0.956 . S
C1934 H1947 0.961 . S
C1934 H1948 0.961 . S
C1935 C1932 1.539 . S
C1935 H1949 0.958 . S
C1935 H1950 0.961 . S
C1935 H1951 0.960 . S
H1936 C1920 0.931 . S
H1937 C1925 0.929 . S
H1938 C1926 0.960 . S
H1939 C1926 0.962 . S
H1940 C1926 0.960 . S
H1941 C1927 0.961 . S
H1942 C1927 0.961 . S
H1943 C1927 0.961 . S
H1944 C1928 0.931 . S
H1945 C1933 0.930 . S
H1946 C1934 0.956 . S
H1947 C1934 0.961 . S
H1948 C1934 0.961 . S
H1949 C1935 0.958 . S
H1950 C1935 0.961 . S
H1951 C1935 0.960 . S
C1952 C1953 1.391 . S
C1952 C1954 1.394 . S
C1952 H1968 0.931 . S
C1953 C1952 1.391 . S
C1953 C1957 1.376 . S
C1954 C1952 1.394 . S
C1954 C1955 1.369 . S
C1954 C1958 1.531 . S
C1955 C1954 1.369 . S
C1955 C1956 1.410 . S
C1955 C1963 1.503 . S
C1956 C1955 1.410 . S
C1956 C1957 1.392 . S
C1956 C1959 1.511 . S
C1957 C1953 1.376 . S
C1957 C1956 1.392 . S
C1957 H1969 0.929 . S
C1958 C1954 1.531 . S
C1958 H1970 0.960 . S
C1958 H1971 0.962 . S
C1958 H1972 0.960 . S
C1959 C1956 1.511 . S
C1959 H1973 0.961 . S
C1959 H1974 0.961 . S
C1959 H1975 0.961 . S
C1960 C1961 1.370 . S
C1960 C1962 1.363 . S
C1960 H1976 0.931 . S
C1961 C1960 1.370 . S
C1961 C1965 1.408 . S
C1962 C1960 1.363 . S
C1962 C1963 1.370 1_556 S
C1962 C1966 1.524 1_556 S
C1963 C1955 1.503 . S
C1963 C1962 1.370 1_554 S
C1963 C1964 1.403 1_554 S
C1964 C1963 1.403 1_556 S
C1964 C1965 1.404 . S
C1964 C1967 1.539 1_556 S
C1965 C1961 1.408 . S
C1965 C1964 1.404 . S
C1965 H1977 0.930 . S
C1966 C1962 1.524 1_554 S
C1966 H1978 0.956 . S
C1966 H1979 0.961 . S
C1966 H1980 0.961 1_554 S
C1967 C1964 1.539 1_554 S
C1967 H1981 0.958 . S
C1967 H1982 0.961 1_554 S
C1967 H1983 0.960 . S
H1968 C1952 0.931 . S
H1969 C1957 0.929 . S
H1970 C1958 0.960 . S
H1971 C1958 0.962 . S
H1972 C1958 0.960 . S
H1973 C1959 0.961 . S
H1974 C1959 0.961 . S
H1975 C1959 0.961 . S
H1976 C1960 0.931 . S
H1977 C1965 0.930 . S
H1978 C1966 0.956 . S
H1979 C1966 0.961 . S
H1980 C1966 0.961 1_556 S
H1981 C1967 0.958 . S
H1982 C1967 0.961 1_556 S
H1983 C1967 0.960 . S
C1984 C1985 1.391 . S
C1984 C1986 1.394 . S
C1984 H2000 0.931 . S
C1985 C1984 1.391 . S
C1985 C1989 1.376 . S
C1986 C1984 1.394 . S
C1986 C1987 1.369 . S
C1986 C1990 1.531 . S
C1987 C1986 1.369 . S
C1987 C1988 1.410 . S
C1987 C1995 1.503 . S
C1988 C1987 1.410 . S
C1988 C1989 1.392 . S
C1988 C1991 1.511 . S
C1989 C1985 1.376 . S
C1989 C1988 1.392 . S
C1989 H2001 0.929 . S
C1990 C1986 1.531 . S
C1990 H2002 0.960 . S
C1990 H2003 0.962 . S
C1990 H2004 0.960 . S
C1991 C1988 1.511 . S
C1991 H2005 0.961 . S
C1991 H2006 0.961 . S
C1991 H2007 0.961 . S
C1992 C1993 1.370 . S
C1992 C1994 1.363 . S
C1992 H2008 0.931 . S
C1993 C1992 1.370 . S
C1993 C1997 1.408 . S
C1994 C1992 1.363 . S
C1994 C1995 1.370 . S
C1994 C1998 1.524 . S
C1995 C1987 1.503 . S
C1995 C1994 1.370 . S
C1995 C1996 1.403 . S
C1996 C1995 1.403 . S
C1996 C1997 1.404 . S
C1996 C1999 1.539 . S
C1997 C1993 1.408 . S
C1997 C1996 1.404 . S
C1997 H2009 0.930 . S
C1998 C1994 1.524 . S
C1998 H2010 0.956 . S
C1998 H2011 0.961 . S
C1998 H2012 0.961 . S
C1999 C1996 1.539 . S
C1999 H2013 0.958 . S
C1999 H2014 0.961 . S
C1999 H2015 0.960 . S
H2000 C1984 0.931 . S
H2001 C1989 0.929 . S
H2002 C1990 0.960 . S
H2003 C1990 0.962 . S
H2004 C1990 0.960 . S
H2005 C1991 0.961 . S
H2006 C1991 0.961 . S
H2007 C1991 0.961 . S
H2008 C1992 0.931 . S
H2009 C1997 0.930 . S
H2010 C1998 0.956 . S
H2011 C1998 0.961 . S
H2012 C1998 0.961 . S
H2013 C1999 0.958 . S
H2014 C1999 0.961 . S
H2015 C1999 0.960 . S
C2016 C2017 1.391 . S
C2016 C2018 1.394 . S
C2016 H2032 0.931 . S
C2017 C2016 1.391 . S
C2017 C2021 1.376 . S
C2018 C2016 1.394 . S
C2018 C2019 1.369 . S
C2018 C2022 1.531 . S
C2019 C2018 1.369 . S
C2019 C2020 1.410 . S
C2019 C2027 1.503 . S
C2020 C2019 1.410 . S
C2020 C2021 1.392 . S
C2020 C2023 1.511 . S
C2021 C2017 1.376 . S
C2021 C2020 1.392 . S
C2021 H2033 0.929 . S
C2022 C2018 1.531 . S
C2022 H2034 0.960 . S
C2022 H2035 0.962 . S
C2022 H2036 0.960 . S
C2023 C2020 1.511 . S
C2023 H2037 0.961 . S
C2023 H2038 0.961 . S
C2023 H2039 0.961 . S
C2024 C2025 1.370 . S
C2024 C2026 1.363 . S
C2024 H2040 0.931 . S
C2025 C2024 1.370 . S
C2025 C2029 1.408 . S
C2026 C2024 1.363 . S
C2026 C2027 1.370 . S
C2026 C2030 1.524 . S
C2027 C2019 1.503 . S
C2027 C2026 1.370 . S
C2027 C2028 1.403 . S
C2028 C2027 1.403 . S
C2028 C2029 1.404 . S
C2028 C2031 1.539 . S
C2029 C2025 1.408 . S
C2029 C2028 1.404 . S
C2029 H2041 0.930 . S
C2030 C2026 1.524 . S
C2030 H2042 0.956 . S
C2030 H2043 0.961 . S
C2030 H2044 0.961 . S
C2031 C2028 1.539 . S
C2031 H2045 0.958 . S
C2031 H2046 0.961 . S
C2031 H2047 0.960 . S
H2032 C2016 0.931 . S
H2033 C2021 0.929 . S
H2034 C2022 0.960 . S
H2035 C2022 0.962 . S
H2036 C2022 0.960 . S
H2037 C2023 0.961 . S
H2038 C2023 0.961 . S
H2039 C2023 0.961 . S
H2040 C2024 0.931 . S
H2041 C2029 0.930 . S
H2042 C2030 0.956 . S
H2043 C2030 0.961 . S
H2044 C2030 0.961 . S
H2045 C2031 0.958 . S
H2046 C2031 0.961 . S
H2047 C2031 0.960 . S
C2048 C2049 1.391 . S
C2048 C2050 1.394 . S
C2048 H2064 0.931 . S
C2049 C2048 1.391 . S
C2049 C2053 1.376 . S
C2050 C2048 1.394 . S
C2050 C2051 1.369 . S
C2050 C2054 1.531 . S
C2051 C2050 1.369 . S
C2051 C2052 1.410 . S
C2051 C2059 1.503 . S
C2052 C2051 1.410 . S
C2052 C2053 1.392 . S
C2052 C2055 1.511 . S
C2053 C2049 1.376 . S
C2053 C2052 1.392 . S
C2053 H2065 0.929 . S
C2054 C2050 1.531 . S
C2054 H2066 0.960 . S
C2054 H2067 0.962 . S
C2054 H2068 0.960 . S
C2055 C2052 1.511 . S
C2055 H2069 0.961 . S
C2055 H2070 0.961 . S
C2055 H2071 0.961 . S
C2056 C2057 1.370 . S
C2056 C2058 1.363 . S
C2056 H2072 0.931 . S
C2057 C2056 1.370 . S
C2057 C2061 1.408 . S
C2058 C2056 1.363 . S
C2058 C2059 1.370 . S
C2058 C2062 1.524 . S
C2059 C2051 1.503 . S
C2059 C2058 1.370 . S
C2059 C2060 1.403 . S
C2060 C2059 1.403 . S
C2060 C2061 1.404 . S
C2060 C2063 1.539 . S
C2061 C2057 1.408 . S
C2061 C2060 1.404 . S
C2061 H2073 0.930 . S
C2062 C2058 1.524 . S
C2062 H2074 0.956 . S
C2062 H2075 0.961 . S
C2062 H2076 0.961 . S
C2063 C2060 1.539 . S
C2063 H2077 0.958 . S
C2063 H2078 0.961 . S
C2063 H2079 0.960 . S
H2064 C2048 0.931 . S
H2065 C2053 0.929 . S
H2066 C2054 0.960 . S
H2067 C2054 0.962 . S
H2068 C2054 0.960 . S
H2069 C2055 0.961 . S
H2070 C2055 0.961 . S
H2071 C2055 0.961 . S
H2072 C2056 0.931 . S
H2073 C2061 0.930 . S
H2074 C2062 0.956 . S
H2075 C2062 0.961 . S
H2076 C2062 0.961 . S
H2077 C2063 0.958 . S
H2078 C2063 0.961 . S
H2079 C2063 0.960 . S
C2080 C2081 1.391 . S
C2080 C2082 1.394 . S
C2080 H2096 0.931 . S
C2081 C2080 1.391 . S
C2081 C2085 1.376 . S
C2082 C2080 1.394 . S
C2082 C2083 1.369 . S
C2082 C2086 1.531 . S
C2083 C2082 1.369 . S
C2083 C2084 1.410 . S
C2083 C2091 1.503 . S
C2084 C2083 1.410 . S
C2084 C2085 1.392 . S
C2084 C2087 1.511 . S
C2085 C2081 1.376 . S
C2085 C2084 1.392 . S
C2085 H2097 0.929 . S
C2086 C2082 1.531 . S
C2086 H2098 0.960 . S
C2086 H2099 0.962 . S
C2086 H2100 0.960 . S
C2087 C2084 1.511 . S
C2087 H2101 0.961 1_554 S
C2087 H2102 0.961 . S
C2087 H2103 0.961 1_554 S
C2088 C2089 1.370 . S
C2088 C2090 1.363 . S
C2088 H2104 0.931 . S
C2089 C2088 1.370 . S
C2089 C2093 1.408 . S
C2090 C2088 1.363 . S
C2090 C2091 1.370 . S
C2090 C2094 1.524 . S
C2091 C2083 1.503 . S
C2091 C2090 1.370 . S
C2091 C2092 1.403 . S
C2092 C2091 1.403 . S
C2092 C2093 1.404 . S
C2092 C2095 1.539 . S
C2093 C2089 1.408 . S
C2093 C2092 1.404 . S
C2093 H2105 0.930 . S
C2094 C2090 1.524 . S
C2094 H2106 0.956 . S
C2094 H2107 0.961 . S
C2094 H2108 0.961 . S
C2095 C2092 1.539 . S
C2095 H2109 0.958 . S
C2095 H2110 0.961 1_554 S
C2095 H2111 0.960 . S
H2096 C2080 0.931 . S
H2097 C2085 0.929 . S
H2098 C2086 0.960 . S
H2099 C2086 0.962 . S
H2100 C2086 0.960 . S
H2101 C2087 0.961 1_556 S
H2102 C2087 0.961 . S
H2103 C2087 0.961 1_556 S
H2104 C2088 0.931 . S
H2105 C2093 0.930 . S
H2106 C2094 0.956 . S
H2107 C2094 0.961 . S
H2108 C2094 0.961 . S
H2109 C2095 0.958 . S
H2110 C2095 0.961 1_556 S
H2111 C2095 0.960 . S
C2112 C2113 1.391 . S
C2112 C2114 1.394 . S
C2112 H2128 0.931 . S
C2113 C2112 1.391 . S
C2113 C2117 1.376 . S
C2114 C2112 1.394 . S
C2114 C2115 1.369 . S
C2114 C2118 1.531 . S
C2115 C2114 1.369 . S
C2115 C2116 1.410 . S
C2115 C2123 1.503 . S
C2116 C2115 1.410 . S
C2116 C2117 1.392 . S
C2116 C2119 1.511 . S
C2117 C2113 1.376 . S
C2117 C2116 1.392 . S
C2117 H2129 0.929 . S
C2118 C2114 1.531 . S
C2118 H2130 0.960 . S
C2118 H2131 0.962 . S
C2118 H2132 0.960 . S
C2119 C2116 1.511 . S
C2119 H2133 0.961 . S
C2119 H2134 0.961 . S
C2119 H2135 0.961 . S
C2120 C2121 1.370 . S
C2120 C2122 1.363 . S
C2120 H2136 0.931 . S
C2121 C2120 1.370 . S
C2121 C2125 1.408 . S
C2122 C2120 1.363 . S
C2122 C2123 1.370 . S
C2122 C2126 1.524 . S
C2123 C2115 1.503 . S
C2123 C2122 1.370 . S
C2123 C2124 1.403 . S
C2124 C2123 1.403 . S
C2124 C2125 1.404 . S
C2124 C2127 1.539 . S
C2125 C2121 1.408 . S
C2125 C2124 1.404 . S
C2125 H2137 0.930 . S
C2126 C2122 1.524 . S
C2126 H2138 0.956 . S
C2126 H2139 0.961 . S
C2126 H2140 0.961 . S
C2127 C2124 1.539 . S
C2127 H2141 0.958 . S
C2127 H2142 0.961 . S
C2127 H2143 0.960 . S
H2128 C2112 0.931 . S
H2129 C2117 0.929 . S
H2130 C2118 0.960 . S
H2131 C2118 0.962 . S
H2132 C2118 0.960 . S
H2133 C2119 0.961 . S
H2134 C2119 0.961 . S
H2135 C2119 0.961 . S
H2136 C2120 0.931 . S
H2137 C2125 0.930 . S
H2138 C2126 0.956 . S
H2139 C2126 0.961 . S
H2140 C2126 0.961 . S
H2141 C2127 0.958 . S
H2142 C2127 0.961 . S
H2143 C2127 0.960 . S
C2144 C2145 1.391 . S
C2144 C2146 1.394 . S
C2144 H2160 0.931 . S
C2145 C2144 1.391 . S
C2145 C2149 1.376 . S
C2146 C2144 1.394 . S
C2146 C2147 1.369 . S
C2146 C2150 1.531 . S
C2147 C2146 1.369 . S
C2147 C2148 1.410 . S
C2147 C2155 1.503 . S
C2148 C2147 1.410 . S
C2148 C2149 1.392 . S
C2148 C2151 1.511 . S
C2149 C2145 1.376 . S
C2149 C2148 1.392 . S
C2149 H2161 0.929 . S
C2150 C2146 1.531 . S
C2150 H2162 0.960 . S
C2150 H2163 0.962 . S
C2150 H2164 0.960 . S
C2151 C2148 1.511 . S
C2151 H2165 0.961 . S
C2151 H2166 0.961 . S
C2151 H2167 0.961 . S
C2152 C2153 1.370 . S
C2152 C2154 1.363 . S
C2152 H2168 0.931 . S
C2153 C2152 1.370 . S
C2153 C2157 1.408 . S
C2154 C2152 1.363 . S
C2154 C2155 1.370 . S
C2154 C2158 1.524 . S
C2155 C2147 1.503 . S
C2155 C2154 1.370 . S
C2155 C2156 1.403 . S
C2156 C2155 1.403 . S
C2156 C2157 1.404 . S
C2156 C2159 1.539 . S
C2157 C2153 1.408 . S
C2157 C2156 1.404 . S
C2157 H2169 0.930 . S
C2158 C2154 1.524 . S
C2158 H2170 0.956 . S
C2158 H2171 0.961 . S
C2158 H2172 0.961 . S
C2159 C2156 1.539 . S
C2159 H2173 0.958 . S
C2159 H2174 0.961 . S
C2159 H2175 0.960 . S
H2160 C2144 0.931 . S
H2161 C2149 0.929 . S
H2162 C2150 0.960 . S
H2163 C2150 0.962 . S
H2164 C2150 0.960 . S
H2165 C2151 0.961 . S
H2166 C2151 0.961 . S
H2167 C2151 0.961 . S
H2168 C2152 0.931 . S
H2169 C2157 0.930 . S
H2170 C2158 0.956 . S
H2171 C2158 0.961 . S
H2172 C2158 0.961 . S
H2173 C2159 0.958 . S
H2174 C2159 0.961 . S
H2175 C2159 0.960 . S
C2176 C2177 1.391 . S
C2176 C2178 1.394 . S
C2176 H2192 0.931 . S
C2177 C2176 1.391 . S
C2177 C2181 1.376 . S
C2178 C2176 1.394 . S
C2178 C2179 1.369 . S
C2178 C2182 1.531 . S
C2179 C2178 1.369 . S
C2179 C2180 1.410 . S
C2179 C2187 1.503 . S
C2180 C2179 1.410 . S
C2180 C2181 1.392 . S
C2180 C2183 1.511 . S
C2181 C2177 1.376 . S
C2181 C2180 1.392 . S
C2181 H2193 0.929 . S
C2182 C2178 1.531 . S
C2182 H2194 0.960 . S
C2182 H2195 0.962 . S
C2182 H2196 0.960 . S
C2183 C2180 1.511 . S
C2183 H2197 0.961 . S
C2183 H2198 0.961 . S
C2183 H2199 0.961 . S
C2184 C2185 1.370 . S
C2184 C2186 1.363 . S
C2184 H2200 0.931 . S
C2185 C2184 1.370 . S
C2185 C2189 1.408 . S
C2186 C2184 1.363 . S
C2186 C2187 1.370 . S
C2186 C2190 1.524 . S
C2187 C2179 1.503 . S
C2187 C2186 1.370 . S
C2187 C2188 1.403 . S
C2188 C2187 1.403 . S
C2188 C2189 1.404 . S
C2188 C2191 1.539 . S
C2189 C2185 1.408 . S
C2189 C2188 1.404 . S
C2189 H2201 0.930 . S
C2190 C2186 1.524 . S
C2190 H2202 0.956 . S
C2190 H2203 0.962 . S
C2190 H2204 0.961 1_556 S
C2191 C2188 1.539 . S
C2191 H2205 0.958 . S
C2191 H2206 0.961 . S
C2191 H2207 0.960 . S
H2192 C2176 0.931 . S
H2193 C2181 0.929 . S
H2194 C2182 0.960 . S
H2195 C2182 0.962 . S
H2196 C2182 0.960 . S
H2197 C2183 0.961 . S
H2198 C2183 0.961 . S
H2199 C2183 0.961 . S
H2200 C2184 0.931 . S
H2201 C2189 0.930 . S
H2202 C2190 0.956 . S
H2203 C2190 0.962 . S
H2204 C2190 0.961 1_554 S
H2205 C2191 0.958 . S
H2206 C2191 0.961 . S
H2207 C2191 0.960 . S
C2208 C2209 1.391 . S
C2208 C2210 1.394 . S
C2208 H2224 0.931 . S
C2209 C2208 1.391 . S
C2209 C2213 1.376 . S
C2210 C2208 1.394 . S
C2210 C2211 1.369 . S
C2210 C2214 1.531 . S
C2211 C2210 1.369 . S
C2211 C2212 1.410 . S
C2211 C2219 1.503 . S
C2212 C2211 1.410 . S
C2212 C2213 1.392 . S
C2212 C2215 1.511 . S
C2213 C2209 1.376 . S
C2213 C2212 1.392 . S
C2213 H2225 0.929 . S
C2214 C2210 1.531 . S
C2214 H2226 0.960 . S
C2214 H2227 0.962 1_556 S
C2214 H2228 0.960 . S
C2215 C2212 1.511 . S
C2215 H2229 0.961 . S
C2215 H2230 0.961 . S
C2215 H2231 0.961 . S
C2216 C2217 1.370 . S
C2216 C2218 1.363 . S
C2216 H2232 0.931 . S
C2217 C2216 1.370 . S
C2217 C2221 1.408 . S
C2218 C2216 1.363 . S
C2218 C2219 1.370 . S
C2218 C2222 1.524 . S
C2219 C2211 1.503 . S
C2219 C2218 1.370 . S
C2219 C2220 1.403 . S
C2220 C2219 1.403 . S
C2220 C2221 1.404 . S
C2220 C2223 1.539 . S
C2221 C2217 1.408 . S
C2221 C2220 1.404 . S
C2221 H2233 0.930 . S
C2222 C2218 1.524 . S
C2222 H2234 0.956 . S
C2222 H2235 0.961 . S
C2222 H2236 0.961 . S
C2223 C2220 1.539 . S
C2223 H2237 0.958 . S
C2223 H2238 0.961 . S
C2223 H2239 0.960 . S
H2224 C2208 0.931 . S
H2225 C2213 0.929 . S
H2226 C2214 0.960 . S
H2227 C2214 0.962 1_554 S
H2228 C2214 0.960 . S
H2229 C2215 0.961 . S
H2230 C2215 0.961 . S
H2231 C2215 0.961 . S
H2232 C2216 0.931 . S
H2233 C2221 0.930 . S
H2234 C2222 0.956 . S
H2235 C2222 0.961 . S
H2236 C2222 0.961 . S
H2237 C2223 0.958 . S
H2238 C2223 0.961 . S
H2239 C2223 0.960 . S
C2240 C2241 1.391 . S
C2240 C2242 1.394 . S
C2240 H2256 0.931 . S
C2241 C2240 1.391 . S
C2241 C2245 1.376 . S
C2242 C2240 1.394 . S
C2242 C2243 1.369 . S
C2242 C2246 1.531 . S
C2243 C2242 1.369 . S
C2243 C2244 1.410 . S
C2243 C2251 1.503 . S
C2244 C2243 1.410 . S
C2244 C2245 1.392 . S
C2244 C2247 1.511 . S
C2245 C2241 1.376 . S
C2245 C2244 1.392 . S
C2245 H2257 0.929 . S
C2246 C2242 1.531 . S
C2246 H2258 0.960 . S
C2246 H2259 0.962 . S
C2246 H2260 0.960 . S
C2247 C2244 1.511 . S
C2247 H2261 0.961 . S
C2247 H2262 0.961 . S
C2247 H2263 0.961 . S
C2248 C2249 1.370 . S
C2248 C2250 1.363 . S
C2248 H2264 0.931 . S
C2249 C2248 1.370 . S
C2249 C2253 1.408 . S
C2250 C2248 1.363 . S
C2250 C2251 1.370 . S
C2250 C2254 1.524 . S
C2251 C2243 1.503 . S
C2251 C2250 1.370 . S
C2251 C2252 1.403 . S
C2252 C2251 1.403 . S
C2252 C2253 1.404 . S
C2252 C2255 1.539 . S
C2253 C2249 1.408 . S
C2253 C2252 1.404 . S
C2253 H2265 0.930 . S
C2254 C2250 1.524 . S
C2254 H2266 0.956 . S
C2254 H2267 0.960 . S
C2254 H2268 0.961 1_554 S
C2255 C2252 1.539 . S
C2255 H2269 0.958 . S
C2255 H2270 0.961 . S
C2255 H2271 0.960 . S
H2256 C2240 0.931 . S
H2257 C2245 0.929 . S
H2258 C2246 0.960 . S
H2259 C2246 0.962 . S
H2260 C2246 0.960 . S
H2261 C2247 0.961 . S
H2262 C2247 0.961 . S
H2263 C2247 0.961 . S
H2264 C2248 0.931 . S
H2265 C2253 0.930 . S
H2266 C2254 0.956 . S
H2267 C2254 0.960 . S
H2268 C2254 0.961 1_556 S
H2269 C2255 0.958 . S
H2270 C2255 0.961 . S
H2271 C2255 0.960 . S
C2272 C2273 1.391 . S
C2272 C2274 1.394 . S
C2272 H2288 0.931 . S
C2273 C2272 1.391 . S
C2273 C2277 1.376 . S
C2274 C2272 1.394 . S
C2274 C2275 1.369 . S
C2274 C2278 1.531 . S
C2275 C2274 1.369 . S
C2275 C2276 1.410 . S
C2275 C2283 1.503 . S
C2276 C2275 1.410 . S
C2276 C2277 1.392 . S
C2276 C2279 1.511 . S
C2277 C2273 1.376 . S
C2277 C2276 1.392 . S
C2277 H2289 0.929 . S
C2278 C2274 1.531 . S
C2278 H2290 0.960 . S
C2278 H2291 0.962 . S
C2278 H2292 0.960 . S
C2279 C2276 1.511 . S
C2279 H2293 0.961 . S
C2279 H2294 0.961 . S
C2279 H2295 0.961 . S
C2280 C2281 1.370 . S
C2280 C2282 1.363 . S
C2280 H2296 0.931 . S
C2281 C2280 1.370 . S
C2281 C2285 1.408 . S
C2282 C2280 1.363 . S
C2282 C2283 1.370 . S
C2282 C2286 1.524 . S
C2283 C2275 1.503 . S
C2283 C2282 1.370 . S
C2283 C2284 1.403 . S
C2284 C2283 1.403 . S
C2284 C2285 1.404 . S
C2284 C2287 1.539 . S
C2285 C2281 1.408 . S
C2285 C2284 1.404 . S
C2285 H2297 0.930 . S
C2286 C2282 1.524 . S
C2286 H2298 0.956 . S
C2286 H2299 0.961 . S
C2286 H2300 0.961 . S
C2287 C2284 1.539 . S
C2287 H2301 0.958 . S
C2287 H2302 0.961 . S
C2287 H2303 0.960 . S
H2288 C2272 0.931 . S
H2289 C2277 0.929 . S
H2290 C2278 0.960 . S
H2291 C2278 0.962 . S
H2292 C2278 0.960 . S
H2293 C2279 0.961 . S
H2294 C2279 0.961 . S
H2295 C2279 0.961 . S
H2296 C2280 0.931 . S
H2297 C2285 0.930 . S
H2298 C2286 0.956 . S
H2299 C2286 0.961 . S
H2300 C2286 0.961 . S
H2301 C2287 0.958 . S
H2302 C2287 0.961 . S
H2303 C2287 0.960 . S
C2304 C2305 1.391 . S
C2304 C2306 1.394 . S
C2304 H2320 0.931 . S
C2305 C2304 1.391 . S
C2305 C2309 1.376 . S
C2306 C2304 1.394 . S
C2306 C2307 1.369 . S
C2306 C2310 1.531 . S
C2307 C2306 1.369 . S
C2307 C2308 1.410 . S
C2307 C2315 1.503 . S
C2308 C2307 1.410 . S
C2308 C2309 1.392 . S
C2308 C2311 1.511 . S
C2309 C2305 1.376 . S
C2309 C2308 1.392 . S
C2309 H2321 0.929 . S
C2310 C2306 1.531 . S
C2310 H2322 0.960 . S
C2310 H2323 0.962 . S
C2310 H2324 0.960 . S
C2311 C2308 1.511 . S
C2311 H2325 0.961 . S
C2311 H2326 0.961 . S
C2311 H2327 0.961 . S
C2312 C2313 1.370 . S
C2312 C2314 1.363 . S
C2312 H2328 0.931 . S
C2313 C2312 1.370 . S
C2313 C2317 1.408 . S
C2314 C2312 1.363 . S
C2314 C2315 1.370 . S
C2314 C2318 1.524 . S
C2315 C2307 1.503 . S
C2315 C2314 1.370 . S
C2315 C2316 1.403 . S
C2316 C2315 1.403 . S
C2316 C2317 1.404 . S
C2316 C2319 1.539 . S
C2317 C2313 1.408 . S
C2317 C2316 1.404 . S
C2317 H2329 0.930 . S
C2318 C2314 1.524 . S
C2318 H2330 0.956 . S
C2318 H2331 0.961 . S
C2318 H2332 0.961 . S
C2319 C2316 1.539 . S
C2319 H2333 0.958 . S
C2319 H2334 0.961 . S
C2319 H2335 0.960 . S
H2320 C2304 0.931 . S
H2321 C2309 0.929 . S
H2322 C2310 0.960 . S
H2323 C2310 0.962 . S
H2324 C2310 0.960 . S
H2325 C2311 0.961 . S
H2326 C2311 0.961 . S
H2327 C2311 0.961 . S
H2328 C2312 0.931 . S
H2329 C2317 0.930 . S
H2330 C2318 0.956 . S
H2331 C2318 0.961 . S
H2332 C2318 0.961 . S
H2333 C2319 0.958 . S
H2334 C2319 0.961 . S
H2335 C2319 0.960 . S
C2336 C2337 1.391 . S
C2336 C2338 1.394 . S
C2336 H2352 0.931 . S
C2337 C2336 1.391 . S
C2337 C2341 1.376 . S
C2338 C2336 1.394 . S
C2338 C2339 1.369 . S
C2338 C2342 1.531 . S
C2339 C2338 1.369 . S
C2339 C2340 1.410 . S
C2339 C2347 1.503 . S
C2340 C2339 1.410 . S
C2340 C2341 1.392 . S
C2340 C2343 1.511 . S
C2341 C2337 1.376 . S
C2341 C2340 1.392 . S
C2341 H2353 0.929 . S
C2342 C2338 1.531 . S
C2342 H2354 0.960 . S
C2342 H2355 0.962 . S
C2342 H2356 0.960 . S
C2343 C2340 1.511 . S
C2343 H2357 0.961 . S
C2343 H2358 0.961 . S
C2343 H2359 0.961 . S
C2344 C2345 1.370 . S
C2344 C2346 1.363 . S
C2344 H2360 0.931 . S
C2345 C2344 1.370 . S
C2345 C2349 1.408 . S
C2346 C2344 1.363 . S
C2346 C2347 1.370 . S
C2346 C2350 1.524 . S
C2347 C2339 1.503 . S
C2347 C2346 1.370 . S
C2347 C2348 1.403 . S
C2348 C2347 1.403 . S
C2348 C2349 1.404 . S
C2348 C2351 1.539 1_556 S
C2349 C2345 1.408 . S
C2349 C2348 1.404 . S
C2349 H2361 0.930 1_556 S
C2350 C2346 1.524 . S
C2350 H2362 0.956 . S
C2350 H2363 0.961 . S
C2350 H2364 0.961 . S
C2351 C2348 1.539 1_554 S
C2351 H2365 0.958 . S
C2351 H2366 0.961 . S
C2351 H2367 0.960 . S
H2352 C2336 0.931 . S
H2353 C2341 0.929 . S
H2354 C2342 0.960 . S
H2355 C2342 0.962 . S
H2356 C2342 0.960 . S
H2357 C2343 0.961 . S
H2358 C2343 0.961 . S
H2359 C2343 0.961 . S
H2360 C2344 0.931 . S
H2361 C2349 0.930 1_554 S
H2362 C2350 0.956 . S
H2363 C2350 0.961 . S
H2364 C2350 0.961 . S
H2365 C2351 0.958 . S
H2366 C2351 0.961 . S
H2367 C2351 0.960 . S
C2368 C2369 1.391 . S
C2368 C2370 1.394 . S
C2368 H2384 0.931 . S
C2369 C2368 1.391 . S
C2369 C2373 1.376 . S
C2370 C2368 1.394 . S
C2370 C2371 1.369 . S
C2370 C2374 1.531 . S
C2371 C2370 1.369 . S
C2371 C2372 1.410 . S
C2371 C2379 1.503 . S
C2372 C2371 1.410 . S
C2372 C2373 1.392 . S
C2372 C2375 1.511 . S
C2373 C2369 1.376 . S
C2373 C2372 1.392 . S
C2373 H2385 0.929 . S
C2374 C2370 1.531 . S
C2374 H2386 0.960 . S
C2374 H2387 0.962 . S
C2374 H2388 0.960 . S
C2375 C2372 1.511 . S
C2375 H2389 0.961 . S
C2375 H2390 0.961 . S
C2375 H2391 0.961 . S
C2376 C2377 1.370 . S
C2376 C2378 1.363 . S
C2376 H2392 0.931 . S
C2377 C2376 1.370 . S
C2377 C2381 1.408 . S
C2378 C2376 1.363 . S
C2378 C2379 1.370 . S
C2378 C2382 1.524 . S
C2379 C2371 1.503 . S
C2379 C2378 1.370 . S
C2379 C2380 1.403 . S
C2380 C2379 1.403 . S
C2380 C2381 1.404 . S
C2380 C2383 1.539 . S
C2381 C2377 1.408 . S
C2381 C2380 1.404 . S
C2381 H2393 0.930 . S
C2382 C2378 1.524 . S
C2382 H2394 0.956 . S
C2382 H2395 0.961 . S
C2382 H2396 0.961 . S
C2383 C2380 1.539 . S
C2383 H2397 0.958 . S
C2383 H2398 0.961 . S
C2383 H2399 0.960 . S
H2384 C2368 0.931 . S
H2385 C2373 0.929 . S
H2386 C2374 0.960 . S
H2387 C2374 0.962 . S
H2388 C2374 0.960 . S
H2389 C2375 0.961 . S
H2390 C2375 0.961 . S
H2391 C2375 0.961 . S
H2392 C2376 0.931 . S
H2393 C2381 0.930 . S
H2394 C2382 0.956 . S
H2395 C2382 0.961 . S
H2396 C2382 0.961 . S
H2397 C2383 0.958 . S
H2398 C2383 0.961 . S
H2399 C2383 0.960 . S
C2400 C2401 1.391 . S
C2400 C2402 1.394 . S
C2400 H2416 0.931 . S
C2401 C2400 1.391 . S
C2401 C2405 1.376 . S
C2402 C2400 1.394 . S
C2402 C2403 1.369 . S
C2402 C2406 1.531 . S
C2403 C2402 1.369 . S
C2403 C2404 1.410 . S
C2403 C2411 1.503 . S
C2404 C2403 1.410 . S
C2404 C2405 1.392 . S
C2404 C2407 1.511 . S
C2405 C2401 1.376 . S
C2405 C2404 1.392 . S
C2405 H2417 0.929 . S
C2406 C2402 1.531 . S
C2406 H2418 0.960 . S
C2406 H2419 0.962 . S
C2406 H2420 0.960 . S
C2407 C2404 1.511 . S
C2407 H2421 0.961 . S
C2407 H2422 0.961 . S
C2407 H2423 0.961 . S
C2408 C2409 1.370 . S
C2408 C2410 1.363 . S
C2408 H2424 0.931 . S
C2409 C2408 1.370 . S
C2409 C2413 1.408 . S
C2410 C2408 1.363 . S
C2410 C2411 1.370 . S
C2410 C2414 1.524 . S
C2411 C2403 1.503 . S
C2411 C2410 1.370 . S
C2411 C2412 1.403 . S
C2412 C2411 1.403 . S
C2412 C2413 1.404 . S
C2412 C2415 1.539 . S
C2413 C2409 1.408 . S
C2413 C2412 1.404 . S
C2413 H2425 0.930 . S
C2414 C2410 1.524 . S
C2414 H2426 0.956 . S
C2414 H2427 0.961 . S
C2414 H2428 0.961 . S
C2415 C2412 1.539 . S
C2415 H2429 0.958 . S
C2415 H2430 0.961 . S
C2415 H2431 0.960 . S
H2416 C2400 0.931 . S
H2417 C2405 0.929 . S
H2418 C2406 0.960 . S
H2419 C2406 0.962 . S
H2420 C2406 0.960 . S
H2421 C2407 0.961 . S
H2422 C2407 0.961 . S
H2423 C2407 0.961 . S
H2424 C2408 0.931 . S
H2425 C2413 0.930 . S
H2426 C2414 0.956 . S
H2427 C2414 0.961 . S
H2428 C2414 0.961 . S
H2429 C2415 0.958 . S
H2430 C2415 0.961 . S
H2431 C2415 0.960 . S
C2432 C2433 1.391 . S
C2432 C2434 1.394 . S
C2432 H2448 0.931 . S
C2433 C2432 1.391 . S
C2433 C2437 1.376 . S
C2434 C2432 1.394 . S
C2434 C2435 1.369 . S
C2434 C2438 1.531 . S
C2435 C2434 1.369 . S
C2435 C2436 1.410 . S
C2435 C2443 1.503 . S
C2436 C2435 1.410 . S
C2436 C2437 1.392 . S
C2436 C2439 1.511 . S
C2437 C2433 1.376 . S
C2437 C2436 1.392 . S
C2437 H2449 0.929 . S
C2438 C2434 1.531 . S
C2438 H2450 0.960 . S
C2438 H2451 0.962 1_554 S
C2438 H2452 0.960 1_554 S
C2439 C2436 1.511 . S
C2439 H2453 0.961 . S
C2439 H2454 0.961 . S
C2439 H2455 0.961 . S
C2440 C2441 1.370 . S
C2440 C2442 1.363 . S
C2440 H2456 0.931 . S
C2441 C2440 1.370 . S
C2441 C2445 1.408 . S
C2442 C2440 1.363 . S
C2442 C2443 1.370 . S
C2442 C2446 1.524 . S
C2443 C2435 1.503 . S
C2443 C2442 1.370 . S
C2443 C2444 1.403 . S
C2444 C2443 1.403 . S
C2444 C2445 1.404 . S
C2444 C2447 1.539 . S
C2445 C2441 1.408 . S
C2445 C2444 1.404 . S
C2445 H2457 0.930 . S
C2446 C2442 1.524 . S
C2446 H2458 0.956 . S
C2446 H2459 0.961 . S
C2446 H2460 0.961 . S
C2447 C2444 1.539 . S
C2447 H2461 0.958 . S
C2447 H2462 0.961 . S
C2447 H2463 0.960 . S
H2448 C2432 0.931 . S
H2449 C2437 0.929 . S
H2450 C2438 0.960 . S
H2451 C2438 0.962 1_556 S
H2452 C2438 0.960 1_556 S
H2453 C2439 0.961 . S
H2454 C2439 0.961 . S
H2455 C2439 0.961 . S
H2456 C2440 0.931 . S
H2457 C2445 0.930 . S
H2458 C2446 0.956 . S
H2459 C2446 0.961 . S
H2460 C2446 0.961 . S
H2461 C2447 0.958 . S
H2462 C2447 0.961 . S
H2463 C2447 0.960 . S
C2464 C2465 1.391 . S
C2464 C2466 1.394 . S
C2464 H2480 0.931 1_554 S
C2465 C2464 1.391 . S
C2465 C2469 1.376 . S
C2466 C2464 1.394 . S
C2466 C2467 1.369 . S
C2466 C2470 1.531 1_554 S
C2467 C2466 1.369 . S
C2467 C2468 1.410 . S
C2467 C2475 1.503 . S
C2468 C2467 1.410 . S
C2468 C2469 1.392 . S
C2468 C2471 1.511 . S
C2469 C2465 1.376 . S
C2469 C2468 1.392 . S
C2469 H2481 0.929 . S
C2470 C2466 1.531 1_556 S
C2470 H2482 0.960 . S
C2470 H2483 0.962 . S
C2470 H2484 0.960 . S
C2471 C2468 1.511 . S
C2471 H2485 0.961 . S
C2471 H2486 0.961 . S
C2471 H2487 0.961 . S
C2472 C2473 1.370 . S
C2472 C2474 1.363 . S
C2472 H2488 0.931 . S
C2473 C2472 1.370 . S
C2473 C2477 1.408 . S
C2474 C2472 1.363 . S
C2474 C2475 1.370 . S
C2474 C2478 1.524 . S
C2475 C2467 1.503 . S
C2475 C2474 1.370 . S
C2475 C2476 1.403 . S
C2476 C2475 1.403 . S
C2476 C2477 1.404 . S
C2476 C2479 1.539 . S
C2477 C2473 1.408 . S
C2477 C2476 1.404 . S
C2477 H2489 0.930 . S
C2478 C2474 1.524 . S
C2478 H2490 0.956 . S
C2478 H2491 0.961 . S
C2478 H2492 0.961 . S
C2479 C2476 1.539 . S
C2479 H2493 0.958 . S
C2479 H2494 0.961 . S
C2479 H2495 0.960 . S
H2480 C2464 0.931 1_556 S
H2481 C2469 0.929 . S
H2482 C2470 0.960 . S
H2483 C2470 0.962 . S
H2484 C2470 0.960 . S
H2485 C2471 0.961 . S
H2486 C2471 0.961 . S
H2487 C2471 0.961 . S
H2488 C2472 0.931 . S
H2489 C2477 0.930 . S
H2490 C2478 0.956 . S
H2491 C2478 0.961 . S
H2492 C2478 0.961 . S
H2493 C2479 0.958 . S
H2494 C2479 0.961 . S
H2495 C2479 0.960 . S
C2496 C2497 1.391 . S
C2496 C2498 1.394 . S
C2496 H2512 0.931 . S
C2497 C2496 1.391 . S
C2497 C2501 1.376 . S
C2498 C2496 1.394 . S
C2498 C2499 1.369 . S
C2498 C2502 1.531 . S
C2499 C2498 1.369 . S
C2499 C2500 1.410 . S
C2499 C2507 1.503 . S
C2500 C2499 1.410 . S
C2500 C2501 1.392 . S
C2500 C2503 1.511 . S
C2501 C2497 1.376 . S
C2501 C2500 1.392 . S
C2501 H2513 0.929 . S
C2502 C2498 1.531 . S
C2502 H2514 0.960 . S
C2502 H2515 0.962 1_556 S
C2502 H2516 0.960 1_556 S
C2503 C2500 1.511 . S
C2503 H2517 0.961 . S
C2503 H2518 0.961 . S
C2503 H2519 0.961 . S
C2504 C2505 1.370 . S
C2504 C2506 1.363 . S
C2504 H2520 0.931 . S
C2505 C2504 1.370 . S
C2505 C2509 1.408 . S
C2506 C2504 1.363 . S
C2506 C2507 1.370 . S
C2506 C2510 1.524 . S
C2507 C2499 1.503 . S
C2507 C2506 1.370 . S
C2507 C2508 1.403 . S
C2508 C2507 1.403 . S
C2508 C2509 1.404 . S
C2508 C2511 1.539 . S
C2509 C2505 1.408 . S
C2509 C2508 1.404 . S
C2509 H2521 0.930 . S
C2510 C2506 1.524 . S
C2510 H2522 0.956 . S
C2510 H2523 0.961 . S
C2510 H2524 0.961 . S
C2511 C2508 1.539 . S
C2511 H2525 0.958 . S
C2511 H2526 0.961 . S
C2511 H2527 0.960 . S
H2512 C2496 0.931 . S
H2513 C2501 0.929 . S
H2514 C2502 0.960 . S
H2515 C2502 0.962 1_554 S
H2516 C2502 0.960 1_554 S
H2517 C2503 0.961 . S
H2518 C2503 0.961 . S
H2519 C2503 0.961 . S
H2520 C2504 0.931 . S
H2521 C2509 0.930 . S
H2522 C2510 0.956 . S
H2523 C2510 0.961 . S
H2524 C2510 0.961 . S
H2525 C2511 0.958 . S
H2526 C2511 0.961 . S
H2527 C2511 0.960 . S
C2528 C2529 1.391 . S
C2528 C2530 1.394 . S
C2528 H2544 0.931 . S
C2529 C2528 1.391 . S
C2529 C2533 1.376 . S
C2530 C2528 1.394 . S
C2530 C2531 1.369 . S
C2530 C2534 1.531 . S
C2531 C2530 1.369 . S
C2531 C2532 1.410 . S
C2531 C2539 1.503 . S
C2532 C2531 1.410 . S
C2532 C2533 1.392 . S
C2532 C2535 1.511 . S
C2533 C2529 1.376 . S
C2533 C2532 1.392 . S
C2533 H2545 0.929 . S
C2534 C2530 1.531 . S
C2534 H2546 0.960 . S
C2534 H2547 0.962 . S
C2534 H2548 0.960 . S
C2535 C2532 1.511 . S
C2535 H2549 0.961 . S
C2535 H2550 0.961 . S
C2535 H2551 0.961 . S
C2536 C2537 1.370 . S
C2536 C2538 1.363 . S
C2536 H2552 0.931 . S
C2537 C2536 1.370 . S
C2537 C2541 1.408 . S
C2538 C2536 1.363 . S
C2538 C2539 1.370 . S
C2538 C2542 1.524 . S
C2539 C2531 1.503 . S
C2539 C2538 1.370 . S
C2539 C2540 1.403 . S
C2540 C2539 1.403 . S
C2540 C2541 1.404 . S
C2540 C2543 1.539 . S
C2541 C2537 1.408 . S
C2541 C2540 1.404 . S
C2541 H2553 0.930 . S
C2542 C2538 1.524 . S
C2542 H2554 0.956 . S
C2542 H2555 0.961 . S
C2542 H2556 0.961 . S
C2543 C2540 1.539 . S
C2543 H2557 0.958 . S
C2543 H2558 0.961 . S
C2543 H2559 0.960 . S
H2544 C2528 0.931 . S
H2545 C2533 0.929 . S
H2546 C2534 0.960 . S
H2547 C2534 0.962 . S
H2548 C2534 0.960 . S
H2549 C2535 0.961 . S
H2550 C2535 0.961 . S
H2551 C2535 0.961 . S
H2552 C2536 0.931 . S
H2553 C2541 0.930 . S
H2554 C2542 0.956 . S
H2555 C2542 0.961 . S
H2556 C2542 0.961 . S
H2557 C2543 0.958 . S
H2558 C2543 0.961 . S
H2559 C2543 0.960 . S
C2560 C2561 1.391 . S
C2560 C2562 1.394 . S
C2560 H2576 0.931 . S
C2561 C2560 1.391 . S
C2561 C2565 1.376 . S
C2562 C2560 1.394 . S
C2562 C2563 1.369 . S
C2562 C2566 1.531 . S
C2563 C2562 1.369 . S
C2563 C2564 1.410 . S
C2563 C2571 1.503 . S
C2564 C2563 1.410 . S
C2564 C2565 1.392 . S
C2564 C2567 1.511 . S
C2565 C2561 1.376 . S
C2565 C2564 1.392 . S
C2565 H2577 0.929 . S
C2566 C2562 1.531 . S
C2566 H2578 0.960 . S
C2566 H2579 0.962 . S
C2566 H2580 0.960 . S
C2567 C2564 1.511 . S
C2567 H2581 0.961 . S
C2567 H2582 0.961 . S
C2567 H2583 0.961 . S
C2568 C2569 1.370 . S
C2568 C2570 1.363 . S
C2568 H2584 0.931 . S
C2569 C2568 1.370 . S
C2569 C2573 1.408 . S
C2570 C2568 1.363 . S
C2570 C2571 1.370 . S
C2570 C2574 1.524 . S
C2571 C2563 1.503 . S
C2571 C2570 1.370 . S
C2571 C2572 1.403 . S
C2572 C2571 1.403 . S
C2572 C2573 1.404 . S
C2572 C2575 1.539 . S
C2573 C2569 1.408 . S
C2573 C2572 1.404 . S
C2573 H2585 0.930 . S
C2574 C2570 1.524 . S
C2574 H2586 0.956 . S
C2574 H2587 0.961 . S
C2574 H2588 0.961 . S
C2575 C2572 1.539 . S
C2575 H2589 0.958 . S
C2575 H2590 0.961 . S
C2575 H2591 0.960 . S
H2576 C2560 0.931 . S
H2577 C2565 0.929 . S
H2578 C2566 0.960 . S
H2579 C2566 0.962 . S
H2580 C2566 0.960 . S
H2581 C2567 0.961 . S
H2582 C2567 0.961 . S
H2583 C2567 0.961 . S
H2584 C2568 0.931 . S
H2585 C2573 0.930 . S
H2586 C2574 0.956 . S
H2587 C2574 0.961 . S
H2588 C2574 0.961 . S
H2589 C2575 0.958 . S
H2590 C2575 0.961 . S
H2591 C2575 0.960 . S
C2592 C2593 1.391 1_554 S
C2592 C2594 1.394 . S
C2592 H2608 0.931 . S
C2593 C2592 1.391 1_556 S
C2593 C2597 1.376 . S
C2594 C2592 1.394 . S
C2594 C2595 1.369 1_554 S
C2594 C2598 1.531 . S
C2595 C2594 1.369 1_556 S
C2595 C2596 1.410 . S
C2595 C2603 1.503 . S
C2596 C2595 1.410 . S
C2596 C2597 1.392 . S
C2596 C2599 1.511 . S
C2597 C2593 1.376 . S
C2597 C2596 1.392 . S
C2597 H2609 0.929 . S
C2598 C2594 1.531 . S
C2598 H2610 0.960 . S
C2598 H2611 0.962 . S
C2598 H2612 0.960 . S
C2599 C2596 1.511 . S
C2599 H2613 0.961 . S
C2599 H2614 0.961 . S
C2599 H2615 0.961 . S
C2600 C2601 1.370 . S
C2600 C2602 1.363 . S
C2600 H2616 0.931 . S
C2601 C2600 1.370 . S
C2601 C2605 1.408 1_554 S
C2602 C2600 1.363 . S
C2602 C2603 1.370 1_554 S
C2602 C2606 1.524 . S
C2603 C2595 1.503 . S
C2603 C2602 1.370 1_556 S
C2603 C2604 1.403 . S
C2604 C2603 1.403 . S
C2604 C2605 1.404 . S
C2604 C2607 1.539 . S
C2605 C2601 1.408 1_556 S
C2605 C2604 1.404 . S
C2605 H2617 0.930 . S
C2606 C2602 1.524 . S
C2606 H2618 0.956 . S
C2606 H2619 0.961 . S
C2606 H2620 0.961 . S
C2607 C2604 1.539 . S
C2607 H2621 0.958 . S
C2607 H2622 0.961 . S
C2607 H2623 0.960 . S
H2608 C2592 0.931 . S
H2609 C2597 0.929 . S
H2610 C2598 0.960 . S
H2611 C2598 0.962 . S
H2612 C2598 0.960 . S
H2613 C2599 0.961 . S
H2614 C2599 0.961 . S
H2615 C2599 0.961 . S
H2616 C2600 0.931 . S
H2617 C2605 0.930 . S
H2618 C2606 0.956 . S
H2619 C2606 0.961 . S
H2620 C2606 0.961 . S
H2621 C2607 0.958 . S
H2622 C2607 0.961 . S
H2623 C2607 0.960 . S
C2624 C2625 1.391 . S
C2624 C2626 1.394 . S
C2624 H2640 0.931 . S
C2625 C2624 1.391 . S
C2625 C2629 1.376 . S
C2626 C2624 1.394 . S
C2626 C2627 1.369 . S
C2626 C2630 1.531 . S
C2627 C2626 1.369 . S
C2627 C2628 1.410 . S
C2627 C2635 1.503 . S
C2628 C2627 1.410 . S
C2628 C2629 1.392 . S
C2628 C2631 1.511 . S
C2629 C2625 1.376 . S
C2629 C2628 1.392 . S
C2629 H2641 0.929 . S
C2630 C2626 1.531 . S
C2630 H2642 0.960 . S
C2630 H2643 0.962 . S
C2630 H2644 0.960 . S
C2631 C2628 1.511 . S
C2631 H2645 0.961 . S
C2631 H2646 0.961 . S
C2631 H2647 0.961 . S
C2632 C2633 1.370 . S
C2632 C2634 1.363 . S
C2632 H2648 0.931 . S
C2633 C2632 1.370 . S
C2633 C2637 1.408 . S
C2634 C2632 1.363 . S
C2634 C2635 1.370 . S
C2634 C2638 1.524 . S
C2635 C2627 1.503 . S
C2635 C2634 1.370 . S
C2635 C2636 1.403 . S
C2636 C2635 1.403 . S
C2636 C2637 1.404 . S
C2636 C2639 1.539 . S
C2637 C2633 1.408 . S
C2637 C2636 1.404 . S
C2637 H2649 0.930 . S
C2638 C2634 1.524 . S
C2638 H2650 0.956 . S
C2638 H2651 0.961 . S
C2638 H2652 0.961 . S
C2639 C2636 1.539 . S
C2639 H2653 0.958 . S
C2639 H2654 0.961 . S
C2639 H2655 0.960 . S
H2640 C2624 0.931 . S
H2641 C2629 0.929 . S
H2642 C2630 0.960 . S
H2643 C2630 0.962 . S
H2644 C2630 0.960 . S
H2645 C2631 0.961 . S
H2646 C2631 0.961 . S
H2647 C2631 0.961 . S
H2648 C2632 0.931 . S
H2649 C2637 0.930 . S
H2650 C2638 0.956 . S
H2651 C2638 0.961 . S
H2652 C2638 0.961 . S
H2653 C2639 0.958 . S
H2654 C2639 0.961 . S
H2655 C2639 0.960 . S
C2656 C2657 1.391 . S
C2656 C2658 1.394 . S
C2656 H2672 0.931 . S
C2657 C2656 1.391 . S
C2657 C2661 1.376 . S
C2658 C2656 1.394 . S
C2658 C2659 1.369 . S
C2658 C2662 1.531 . S
C2659 C2658 1.369 . S
C2659 C2660 1.410 . S
C2659 C2667 1.503 . S
C2660 C2659 1.410 . S
C2660 C2661 1.392 . S
C2660 C2663 1.511 . S
C2661 C2657 1.376 . S
C2661 C2660 1.392 . S
C2661 H2673 0.929 . S
C2662 C2658 1.531 . S
C2662 H2674 0.960 . S
C2662 H2675 0.962 . S
C2662 H2676 0.960 . S
C2663 C2660 1.511 . S
C2663 H2677 0.961 . S
C2663 H2678 0.961 . S
C2663 H2679 0.961 . S
C2664 C2665 1.370 . S
C2664 C2666 1.363 . S
C2664 H2680 0.931 . S
C2665 C2664 1.370 . S
C2665 C2669 1.408 . S
C2666 C2664 1.363 . S
C2666 C2667 1.370 . S
C2666 C2670 1.524 . S
C2667 C2659 1.503 . S
C2667 C2666 1.370 . S
C2667 C2668 1.403 . S
C2668 C2667 1.403 . S
C2668 C2669 1.404 . S
C2668 C2671 1.539 . S
C2669 C2665 1.408 . S
C2669 C2668 1.404 . S
C2669 H2681 0.930 . S
C2670 C2666 1.524 . S
C2670 H2682 0.956 . S
C2670 H2683 0.961 . S
C2670 H2684 0.961 . S
C2671 C2668 1.539 . S
C2671 H2685 0.958 . S
C2671 H2686 0.961 . S
C2671 H2687 0.960 . S
H2672 C2656 0.931 . S
H2673 C2661 0.929 . S
H2674 C2662 0.960 . S
H2675 C2662 0.962 . S
H2676 C2662 0.960 . S
H2677 C2663 0.961 . S
H2678 C2663 0.961 . S
H2679 C2663 0.961 . S
H2680 C2664 0.931 . S
H2681 C2669 0.930 . S
H2682 C2670 0.956 . S
H2683 C2670 0.961 . S
H2684 C2670 0.961 . S
H2685 C2671 0.958 . S
H2686 C2671 0.961 . S
H2687 C2671 0.960 . S
C2688 C2689 1.391 . S
C2688 C2690 1.394 . S
C2688 H2704 0.931 . S
C2689 C2688 1.391 . S
C2689 C2693 1.376 . S
C2690 C2688 1.394 . S
C2690 C2691 1.369 . S
C2690 C2694 1.531 . S
C2691 C2690 1.369 . S
C2691 C2692 1.410 . S
C2691 C2699 1.503 . S
C2692 C2691 1.410 . S
C2692 C2693 1.392 . S
C2692 C2695 1.511 . S
C2693 C2689 1.376 . S
C2693 C2692 1.392 . S
C2693 H2705 0.929 . S
C2694 C2690 1.531 . S
C2694 H2706 0.960 . S
C2694 H2707 0.962 . S
C2694 H2708 0.960 . S
C2695 C2692 1.511 . S
C2695 H2709 0.961 . S
C2695 H2710 0.961 . S
C2695 H2711 0.961 . S
C2696 C2697 1.370 . S
C2696 C2698 1.363 . S
C2696 H2712 0.931 . S
C2697 C2696 1.370 . S
C2697 C2701 1.408 . S
C2698 C2696 1.363 . S
C2698 C2699 1.370 . S
C2698 C2702 1.524 . S
C2699 C2691 1.503 . S
C2699 C2698 1.370 . S
C2699 C2700 1.403 . S
C2700 C2699 1.403 . S
C2700 C2701 1.404 . S
C2700 C2703 1.539 . S
C2701 C2697 1.408 . S
C2701 C2700 1.404 . S
C2701 H2713 0.930 . S
C2702 C2698 1.524 . S
C2702 H2714 0.956 . S
C2702 H2715 0.961 . S
C2702 H2716 0.961 . S
C2703 C2700 1.539 . S
C2703 H2717 0.958 . S
C2703 H2718 0.961 . S
C2703 H2719 0.960 . S
H2704 C2688 0.931 . S
H2705 C2693 0.929 . S
H2706 C2694 0.960 . S
H2707 C2694 0.962 . S
H2708 C2694 0.960 . S
H2709 C2695 0.961 . S
H2710 C2695 0.961 . S
H2711 C2695 0.961 . S
H2712 C2696 0.931 . S
H2713 C2701 0.930 . S
H2714 C2702 0.956 . S
H2715 C2702 0.961 . S
H2716 C2702 0.961 . S
H2717 C2703 0.958 . S
H2718 C2703 0.961 . S
H2719 C2703 0.960 . S
C2720 C2721 1.391 1_554 S
C2720 C2722 1.394 . S
C2720 H2736 0.931 . S
C2721 C2720 1.391 1_556 S
C2721 C2725 1.376 . S
C2722 C2720 1.394 . S
C2722 C2723 1.369 . S
C2722 C2726 1.531 . S
C2723 C2722 1.369 . S
C2723 C2724 1.410 1_554 S
C2723 C2731 1.503 . S
C2724 C2723 1.410 1_556 S
C2724 C2725 1.392 . S
C2724 C2727 1.511 . S
C2725 C2721 1.376 . S
C2725 C2724 1.392 . S
C2725 H2737 0.929 . S
C2726 C2722 1.531 . S
C2726 H2738 0.960 . S
C2726 H2739 0.962 . S
C2726 H2740 0.960 . S
C2727 C2724 1.511 . S
C2727 H2741 0.961 . S
C2727 H2742 0.961 . S
C2727 H2743 0.961 . S
C2728 C2729 1.370 1_556 S
C2728 C2730 1.363 . S
C2728 H2744 0.931 . S
C2729 C2728 1.370 1_554 S
C2729 C2733 1.408 . S
C2730 C2728 1.363 . S
C2730 C2731 1.370 1_556 S
C2730 C2734 1.524 . S
C2731 C2723 1.503 . S
C2731 C2730 1.370 1_554 S
C2731 C2732 1.403 . S
C2732 C2731 1.403 . S
C2732 C2733 1.404 . S
C2732 C2735 1.539 . S
C2733 C2729 1.408 . S
C2733 C2732 1.404 . S
C2733 H2745 0.930 . S
C2734 C2730 1.524 . S
C2734 H2746 0.956 1_556 S
C2734 H2747 0.961 . S
C2734 H2748 0.961 . S
C2735 C2732 1.539 . S
C2735 H2749 0.958 . S
C2735 H2750 0.961 . S
C2735 H2751 0.960 . S
H2736 C2720 0.931 . S
H2737 C2725 0.929 . S
H2738 C2726 0.960 . S
H2739 C2726 0.962 . S
H2740 C2726 0.960 . S
H2741 C2727 0.961 . S
H2742 C2727 0.961 . S
H2743 C2727 0.961 . S
H2744 C2728 0.931 . S
H2745 C2733 0.930 . S
H2746 C2734 0.956 1_554 S
H2747 C2734 0.961 . S
H2748 C2734 0.961 . S
H2749 C2735 0.958 . S
H2750 C2735 0.961 . S
H2751 C2735 0.960 . S
C2752 C2753 1.391 . S
C2752 C2754 1.394 . S
C2752 H2768 0.931 . S
C2753 C2752 1.391 . S
C2753 C2757 1.376 . S
C2754 C2752 1.394 . S
C2754 C2755 1.369 . S
C2754 C2758 1.531 . S
C2755 C2754 1.369 . S
C2755 C2756 1.410 . S
C2755 C2763 1.503 . S
C2756 C2755 1.410 . S
C2756 C2757 1.392 . S
C2756 C2759 1.511 . S
C2757 C2753 1.376 . S
C2757 C2756 1.392 . S
C2757 H2769 0.929 . S
C2758 C2754 1.531 . S
C2758 H2770 0.960 . S
C2758 H2771 0.962 . S
C2758 H2772 0.960 . S
C2759 C2756 1.511 . S
C2759 H2773 0.961 . S
C2759 H2774 0.961 . S
C2759 H2775 0.961 . S
C2760 C2761 1.370 . S
C2760 C2762 1.363 . S
C2760 H2776 0.931 . S
C2761 C2760 1.370 . S
C2761 C2765 1.408 . S
C2762 C2760 1.363 . S
C2762 C2763 1.370 . S
C2762 C2766 1.524 . S
C2763 C2755 1.503 . S
C2763 C2762 1.370 . S
C2763 C2764 1.403 . S
C2764 C2763 1.403 . S
C2764 C2765 1.404 . S
C2764 C2767 1.539 . S
C2765 C2761 1.408 . S
C2765 C2764 1.404 . S
C2765 H2777 0.930 . S
C2766 C2762 1.524 . S
C2766 H2778 0.956 . S
C2766 H2779 0.961 . S
C2766 H2780 0.961 . S
C2767 C2764 1.539 . S
C2767 H2781 0.958 . S
C2767 H2782 0.961 . S
C2767 H2783 0.960 . S
H2768 C2752 0.931 . S
H2769 C2757 0.929 . S
H2770 C2758 0.960 . S
H2771 C2758 0.962 . S
H2772 C2758 0.960 . S
H2773 C2759 0.961 . S
H2774 C2759 0.961 . S
H2775 C2759 0.961 . S
H2776 C2760 0.931 . S
H2777 C2765 0.930 . S
H2778 C2766 0.956 . S
H2779 C2766 0.961 . S
H2780 C2766 0.961 . S
H2781 C2767 0.958 . S
H2782 C2767 0.961 . S
H2783 C2767 0.960 . S
C2784 C2785 1.391 . S
C2784 C2786 1.394 . S
C2784 H2800 0.931 . S
C2785 C2784 1.391 . S
C2785 C2789 1.376 . S
C2786 C2784 1.394 . S
C2786 C2787 1.369 . S
C2786 C2790 1.531 . S
C2787 C2786 1.369 . S
C2787 C2788 1.410 . S
C2787 C2795 1.503 . S
C2788 C2787 1.410 . S
C2788 C2789 1.392 . S
C2788 C2791 1.511 . S
C2789 C2785 1.376 . S
C2789 C2788 1.392 . S
C2789 H2801 0.929 . S
C2790 C2786 1.531 . S
C2790 H2802 0.960 . S
C2790 H2803 0.962 . S
C2790 H2804 0.960 . S
C2791 C2788 1.511 . S
C2791 H2805 0.961 . S
C2791 H2806 0.961 . S
C2791 H2807 0.961 . S
C2792 C2793 1.370 . S
C2792 C2794 1.363 . S
C2792 H2808 0.931 . S
C2793 C2792 1.370 . S
C2793 C2797 1.408 . S
C2794 C2792 1.363 . S
C2794 C2795 1.370 . S
C2794 C2798 1.524 . S
C2795 C2787 1.503 . S
C2795 C2794 1.370 . S
C2795 C2796 1.403 . S
C2796 C2795 1.403 . S
C2796 C2797 1.404 . S
C2796 C2799 1.539 . S
C2797 C2793 1.408 . S
C2797 C2796 1.404 . S
C2797 H2809 0.930 . S
C2798 C2794 1.524 . S
C2798 H2810 0.956 . S
C2798 H2811 0.961 . S
C2798 H2812 0.961 . S
C2799 C2796 1.539 . S
C2799 H2813 0.958 . S
C2799 H2814 0.961 . S
C2799 H2815 0.960 . S
H2800 C2784 0.931 . S
H2801 C2789 0.929 . S
H2802 C2790 0.960 . S
H2803 C2790 0.962 . S
H2804 C2790 0.960 . S
H2805 C2791 0.961 . S
H2806 C2791 0.961 . S
H2807 C2791 0.961 . S
H2808 C2792 0.931 . S
H2809 C2797 0.930 . S
H2810 C2798 0.956 . S
H2811 C2798 0.961 . S
H2812 C2798 0.961 . S
H2813 C2799 0.958 . S
H2814 C2799 0.961 . S
H2815 C2799 0.960 . S
C2816 C2817 1.391 . S
C2816 C2818 1.394 . S
C2816 H2832 0.931 . S
C2817 C2816 1.391 . S
C2817 C2821 1.376 . S
C2818 C2816 1.394 . S
C2818 C2819 1.369 . S
C2818 C2822 1.531 . S
C2819 C2818 1.369 . S
C2819 C2820 1.410 . S
C2819 C2827 1.503 . S
C2820 C2819 1.410 . S
C2820 C2821 1.392 . S
C2820 C2823 1.511 . S
C2821 C2817 1.376 . S
C2821 C2820 1.392 . S
C2821 H2833 0.929 . S
C2822 C2818 1.531 . S
C2822 H2834 0.960 . S
C2822 H2835 0.962 . S
C2822 H2836 0.960 . S
C2823 C2820 1.511 . S
C2823 H2837 0.961 . S
C2823 H2838 0.961 . S
C2823 H2839 0.961 . S
C2824 C2825 1.370 . S
C2824 C2826 1.363 . S
C2824 H2840 0.931 . S
C2825 C2824 1.370 . S
C2825 C2829 1.408 . S
C2826 C2824 1.363 . S
C2826 C2827 1.370 . S
C2826 C2830 1.524 . S
C2827 C2819 1.503 . S
C2827 C2826 1.370 . S
C2827 C2828 1.403 . S
C2828 C2827 1.403 . S
C2828 C2829 1.404 . S
C2828 C2831 1.539 . S
C2829 C2825 1.408 . S
C2829 C2828 1.404 . S
C2829 H2841 0.930 . S
C2830 C2826 1.524 . S
C2830 H2842 0.956 . S
C2830 H2843 0.961 . S
C2830 H2844 0.961 . S
C2831 C2828 1.539 . S
C2831 H2845 0.958 . S
C2831 H2846 0.961 . S
C2831 H2847 0.960 . S
H2832 C2816 0.931 . S
H2833 C2821 0.929 . S
H2834 C2822 0.960 . S
H2835 C2822 0.962 . S
H2836 C2822 0.960 . S
H2837 C2823 0.961 . S
H2838 C2823 0.961 . S
H2839 C2823 0.961 . S
H2840 C2824 0.931 . S
H2841 C2829 0.930 . S
H2842 C2830 0.956 . S
H2843 C2830 0.961 . S
H2844 C2830 0.961 . S
H2845 C2831 0.958 . S
H2846 C2831 0.961 . S
H2847 C2831 0.960 . S
C2848 C2849 1.391 . S
C2848 C2850 1.394 . S
C2848 H2864 0.931 . S
C2849 C2848 1.391 . S
C2849 C2853 1.376 . S
C2850 C2848 1.394 . S
C2850 C2851 1.369 . S
C2850 C2854 1.531 . S
C2851 C2850 1.369 . S
C2851 C2852 1.410 . S
C2851 C2859 1.503 1_565 S
C2852 C2851 1.410 . S
C2852 C2853 1.392 . S
C2852 C2855 1.511 . S
C2853 C2849 1.376 . S
C2853 C2852 1.392 . S
C2853 H2865 0.929 . S
C2854 C2850 1.531 . S
C2854 H2866 0.960 1_565 S
C2854 H2867 0.962 . S
C2854 H2868 0.960 . S
C2855 C2852 1.511 . S
C2855 H2869 0.961 . S
C2855 H2870 0.906 1_565 S
C2855 H2871 0.961 . S
C2856 C2857 1.370 . S
C2856 C2858 1.363 . S
C2856 H2872 0.931 . S
C2857 C2856 1.370 . S
C2857 C2861 1.408 . S
C2858 C2856 1.363 . S
C2858 C2859 1.370 . S
C2858 C2862 1.524 . S
C2859 C2851 1.503 1_545 S
C2859 C2858 1.370 . S
C2859 C2860 1.403 . S
C2860 C2859 1.403 . S
C2860 C2861 1.404 . S
C2860 C2863 1.539 . S
C2861 C2857 1.408 . S
C2861 C2860 1.404 . S
C2861 H2873 0.930 . S
C2862 C2858 1.524 . S
C2862 H2874 0.956 1_545 S
C2862 H2875 0.961 1_545 S
C2862 H2876 0.961 . S
C2863 C2860 1.539 . S
C2863 H2877 0.958 . S
C2863 H2878 0.961 . S
C2863 H2879 0.960 . S
H2864 C2848 0.931 . S
H2865 C2853 0.929 . S
H2866 C2854 0.960 1_545 S
H2867 C2854 0.962 . S
H2868 C2854 0.960 . S
H2869 C2855 0.961 . S
H2870 C2855 0.906 1_545 S
H2871 C2855 0.961 . S
H2872 C2856 0.931 . S
H2873 C2861 0.930 . S
H2874 C2862 0.956 1_565 S
H2875 C2862 0.961 1_565 S
H2876 C2862 0.961 . S
H2877 C2863 0.958 . S
H2878 C2863 0.961 . S
H2879 C2863 0.960 . S
C2880 C2881 1.391 . S
C2880 C2882 1.394 . S
C2880 H2896 0.931 . S
C2881 C2880 1.391 . S
C2881 C2885 1.376 . S
C2882 C2880 1.394 . S
C2882 C2883 1.369 . S
C2882 C2886 1.531 . S
C2883 C2882 1.369 . S
C2883 C2884 1.410 . S
C2883 C2891 1.503 . S
C2884 C2883 1.410 . S
C2884 C2885 1.392 . S
C2884 C2887 1.511 . S
C2885 C2881 1.376 . S
C2885 C2884 1.392 . S
C2885 H2897 0.929 . S
C2886 C2882 1.531 . S
C2886 H2898 0.960 . S
C2886 H2899 0.962 . S
C2886 H2900 0.960 . S
C2887 C2884 1.511 . S
C2887 H2901 0.961 . S
C2887 H2902 0.961 . S
C2887 H2903 0.961 . S
C2888 C2889 1.370 . S
C2888 C2890 1.363 . S
C2888 H2904 0.931 . S
C2889 C2888 1.370 . S
C2889 C2893 1.408 . S
C2890 C2888 1.363 . S
C2890 C2891 1.370 . S
C2890 C2894 1.524 . S
C2891 C2883 1.503 . S
C2891 C2890 1.370 . S
C2891 C2892 1.403 . S
C2892 C2891 1.403 . S
C2892 C2893 1.404 . S
C2892 C2895 1.539 . S
C2893 C2889 1.408 . S
C2893 C2892 1.404 . S
C2893 H2905 0.930 . S
C2894 C2890 1.524 . S
C2894 H2906 0.956 . S
C2894 H2907 0.961 . S
C2894 H2908 0.961 . S
C2895 C2892 1.539 . S
C2895 H2909 0.958 . S
C2895 H2910 0.961 . S
C2895 H2911 0.960 . S
H2896 C2880 0.931 . S
H2897 C2885 0.929 . S
H2898 C2886 0.960 . S
H2899 C2886 0.962 . S
H2900 C2886 0.960 . S
H2901 C2887 0.961 . S
H2902 C2887 0.961 . S
H2903 C2887 0.961 . S
H2904 C2888 0.931 . S
H2905 C2893 0.930 . S
H2906 C2894 0.956 . S
H2907 C2894 0.961 . S
H2908 C2894 0.961 . S
H2909 C2895 0.958 . S
H2910 C2895 0.961 . S
H2911 C2895 0.960 . S
C2912 C2913 1.391 . S
C2912 C2914 1.394 . S
C2912 H2928 0.931 . S
C2913 C2912 1.391 . S
C2913 C2917 1.376 1_554 S
C2914 C2912 1.394 . S
C2914 C2915 1.369 . S
C2914 C2918 1.531 . S
C2915 C2914 1.369 . S
C2915 C2916 1.410 1_554 S
C2915 C2923 1.503 1_564 S
C2916 C2915 1.410 1_556 S
C2916 C2917 1.392 . S
C2916 C2919 1.511 . S
C2917 C2913 1.376 1_556 S
C2917 C2916 1.392 . S
C2917 H2929 0.929 . S
C2918 C2914 1.531 . S
C2918 H2930 0.960 1_565 S
C2918 H2931 0.962 . S
C2918 H2932 0.960 . S
C2919 C2916 1.511 . S
C2919 H2933 0.961 . S
C2919 H2934 1.050 . S
C2919 H2935 0.961 . S
C2920 C2921 1.369 1_554 S
C2920 C2922 1.364 . S
C2920 H2936 0.932 . S
C2921 C2920 1.369 1_556 S
C2921 C2925 1.408 . S
C2922 C2920 1.364 . S
C2922 C2923 1.370 1_554 S
C2922 C2926 1.524 . S
C2923 C2915 1.503 1_546 S
C2923 C2922 1.370 1_556 S
C2923 C2924 1.403 . S
C2924 C2923 1.403 . S
C2924 C2925 1.404 . S
C2924 C2927 1.539 . S
C2925 C2921 1.408 . S
C2925 C2924 1.404 . S
C2925 H2937 0.930 . S
C2926 C2922 1.524 . S
C2926 H2938 0.956 . S
C2926 H2939 0.905 1_544 S
C2926 H2940 0.961 . S
C2927 C2924 1.539 . S
C2927 H2941 0.958 . S
C2927 H2942 0.961 . S
C2927 H2943 0.872 1_545 S
H2928 C2912 0.931 . S
H2929 C2917 0.929 . S
H2930 C2918 0.960 1_545 S
H2931 C2918 0.962 . S
H2932 C2918 0.960 . S
H2933 C2919 0.961 . S
H2934 C2919 1.050 . S
H2935 C2919 0.961 . S
H2936 C2920 0.932 . S
H2937 C2925 0.930 . S
H2938 C2926 0.956 . S
H2939 C2926 0.905 1_566 S
H2940 C2926 0.961 . S
H2941 C2927 0.958 . S
H2942 C2927 0.961 . S
H2943 C2927 0.872 1_565 S
C2944 C2945 1.391 . S
C2944 C2946 1.394 . S
C2944 H2960 0.931 . S
C2945 C2944 1.391 . S
C2945 C2949 1.376 . S
C2946 C2944 1.394 . S
C2946 C2947 1.369 . S
C2946 C2950 1.531 . S
C2947 C2946 1.369 . S
C2947 C2948 1.410 . S
C2947 C2955 1.503 . S
C2948 C2947 1.410 . S
C2948 C2949 1.392 . S
C2948 C2951 1.511 . S
C2949 C2945 1.376 . S
C2949 C2948 1.392 . S
C2949 H2961 0.929 . S
C2950 C2946 1.531 . S
C2950 H2962 0.960 . S
C2950 H2963 0.962 . S
C2950 H2964 0.960 . S
C2951 C2948 1.511 . S
C2951 H2965 0.961 . S
C2951 H2966 0.961 . S
C2951 H2967 0.961 . S
C2952 C2953 1.370 . S
C2952 C2954 1.363 . S
C2952 H2968 0.931 . S
C2953 C2952 1.370 . S
C2953 C2957 1.408 . S
C2954 C2952 1.363 . S
C2954 C2955 1.370 . S
C2954 C2958 1.524 . S
C2955 C2947 1.503 . S
C2955 C2954 1.370 . S
C2955 C2956 1.403 . S
C2956 C2955 1.403 . S
C2956 C2957 1.404 . S
C2956 C2959 1.539 . S
C2957 C2953 1.408 . S
C2957 C2956 1.404 . S
C2957 H2969 0.930 . S
C2958 C2954 1.524 . S
C2958 H2970 0.956 . S
C2958 H2971 0.961 . S
C2958 H2972 0.961 . S
C2959 C2956 1.539 . S
C2959 H2973 0.958 . S
C2959 H2974 0.961 . S
C2959 H2975 0.960 . S
H2960 C2944 0.931 . S
H2961 C2949 0.929 . S
H2962 C2950 0.960 . S
H2963 C2950 0.962 . S
H2964 C2950 0.960 . S
H2965 C2951 0.961 . S
H2966 C2951 0.961 . S
H2967 C2951 0.961 . S
H2968 C2952 0.931 . S
H2969 C2957 0.930 . S
H2970 C2958 0.956 . S
H2971 C2958 0.961 . S
H2972 C2958 0.961 . S
H2973 C2959 0.958 . S
H2974 C2959 0.961 . S
H2975 C2959 0.960 . S
C2976 C2977 1.391 . S
C2976 C2978 1.394 . S
C2976 H2992 0.931 . S
C2977 C2976 1.391 . S
C2977 C2981 1.376 . S
C2978 C2976 1.394 . S
C2978 C2979 1.369 . S
C2978 C2982 1.531 . S
C2979 C2978 1.369 . S
C2979 C2980 1.410 . S
C2979 C2987 1.503 1_545 S
C2980 C2979 1.410 . S
C2980 C2981 1.392 . S
C2980 C2983 1.511 . S
C2981 C2977 1.376 . S
C2981 C2980 1.392 . S
C2981 H2993 0.929 . S
C2982 C2978 1.531 . S
C2982 H2994 0.960 1_545 S
C2982 H2995 0.962 . S
C2982 H2996 0.960 . S
C2983 C2980 1.511 . S
C2983 H2997 0.961 . S
C2983 H2998 0.918 1_545 S
C2983 H2999 0.961 . S
C2984 C2985 1.370 . S
C2984 C2986 1.363 . S
C2984 H3000 0.931 . S
C2985 C2984 1.370 . S
C2985 C2989 1.408 . S
C2986 C2984 1.363 . S
C2986 C2987 1.370 . S
C2986 C2990 1.524 . S
C2987 C2979 1.503 1_565 S
C2987 C2986 1.370 . S
C2987 C2988 1.403 . S
C2988 C2987 1.403 . S
C2988 C2989 1.404 . S
C2988 C2991 1.539 . S
C2989 C2985 1.408 . S
C2989 C2988 1.404 . S
C2989 H3001 0.930 . S
C2990 C2986 1.524 . S
C2990 H3002 0.956 1_565 S
C2990 H3003 0.961 1_565 S
C2990 H3004 0.961 . S
C2991 C2988 1.539 . S
C2991 H3005 0.958 . S
C2991 H3006 0.961 . S
C2991 H3007 0.960 . S
H2992 C2976 0.931 . S
H2993 C2981 0.929 . S
H2994 C2982 0.960 1_565 S
H2995 C2982 0.962 . S
H2996 C2982 0.960 . S
H2997 C2983 0.961 . S
H2998 C2983 0.918 1_565 S
H2999 C2983 0.961 . S
H3000 C2984 0.931 . S
H3001 C2989 0.930 . S
H3002 C2990 0.956 1_545 S
H3003 C2990 0.961 1_545 S
H3004 C2990 0.961 . S
H3005 C2991 0.958 . S
H3006 C2991 0.961 . S
H3007 C2991 0.960 . S
C3008 C3009 1.391 . S
C3008 C3010 1.394 . S
C3008 H3024 0.931 . S
C3009 C3008 1.391 . S
C3009 C3013 1.376 . S
C3010 C3008 1.394 . S
C3010 C3011 1.369 . S
C3010 C3014 1.531 . S
C3011 C3010 1.369 . S
C3011 C3012 1.410 . S
C3011 C3019 1.503 . S
C3012 C3011 1.410 . S
C3012 C3013 1.392 . S
C3012 C3015 1.511 . S
C3013 C3009 1.376 . S
C3013 C3012 1.392 . S
C3013 H3025 0.929 . S
C3014 C3010 1.531 . S
C3014 H3026 0.960 . S
C3014 H3027 0.962 . S
C3014 H3028 0.960 . S
C3015 C3012 1.511 . S
C3015 H3029 0.961 . S
C3015 H3030 0.961 . S
C3015 H3031 0.961 . S
C3016 C3017 1.370 . S
C3016 C3018 1.363 . S
C3016 H3032 0.931 . S
C3017 C3016 1.370 . S
C3017 C3021 1.408 . S
C3018 C3016 1.363 . S
C3018 C3019 1.370 . S
C3018 C3022 1.524 . S
C3019 C3011 1.503 . S
C3019 C3018 1.370 . S
C3019 C3020 1.403 . S
C3020 C3019 1.403 . S
C3020 C3021 1.404 . S
C3020 C3023 1.539 . S
C3021 C3017 1.408 . S
C3021 C3020 1.404 . S
C3021 H3033 0.930 . S
C3022 C3018 1.524 . S
C3022 H3034 0.956 . S
C3022 H3035 0.961 . S
C3022 H3036 0.961 . S
C3023 C3020 1.539 . S
C3023 H3037 0.958 . S
C3023 H3038 0.961 . S
C3023 H3039 0.960 . S
H3024 C3008 0.931 . S
H3025 C3013 0.929 . S
H3026 C3014 0.960 . S
H3027 C3014 0.962 . S
H3028 C3014 0.960 . S
H3029 C3015 0.961 . S
H3030 C3015 0.961 . S
H3031 C3015 0.961 . S
H3032 C3016 0.931 . S
H3033 C3021 0.930 . S
H3034 C3022 0.956 . S
H3035 C3022 0.961 . S
H3036 C3022 0.961 . S
H3037 C3023 0.958 . S
H3038 C3023 0.961 . S
H3039 C3023 0.960 . S
C3040 C3041 1.391 . S
C3040 C3042 1.394 . S
C3040 H3056 0.931 . S
C3041 C3040 1.391 . S
C3041 C3045 1.380 . S
C3042 C3040 1.394 . S
C3042 C3043 1.369 . S
C3042 C3046 1.531 . S
C3043 C3042 1.369 . S
C3043 C3044 1.410 1_554 S
C3043 C3051 1.503 1_565 S
C3044 C3043 1.410 1_556 S
C3044 C3045 1.392 1_556 S
C3044 C3047 1.511 . S
C3045 C3041 1.380 . S
C3045 C3044 1.392 1_554 S
C3045 H3057 0.925 1_554 S
C3046 C3042 1.531 . S
C3046 H3058 0.960 1_565 S
C3046 H3059 0.962 . S
C3046 H3060 0.960 . S
C3047 C3044 1.511 . S
C3047 H3061 0.961 . S
C3047 H3062 0.941 1_565 S
C3047 H3063 0.961 1_556 S
C3048 C3049 1.370 . S
C3048 C3050 1.363 . S
C3048 H3064 0.931 . S
C3049 C3048 1.370 . S
C3049 C3053 1.408 1_556 S
C3050 C3048 1.363 . S
C3050 C3051 1.370 1_556 S
C3050 C3054 1.524 . S
C3051 C3043 1.503 1_545 S
C3051 C3050 1.370 1_554 S
C3051 C3052 1.403 . S
C3052 C3051 1.403 . S
C3052 C3053 1.404 . S
C3052 C3055 1.539 . S
C3053 C3049 1.408 1_554 S
C3053 C3052 1.404 . S
C3053 H3065 0.930 . S
C3054 C3050 1.524 . S
C3054 H3066 0.956 1_545 S
C3054 H3067 0.961 1_545 S
C3054 H3068 0.961 . S
C3055 C3052 1.539 . S
C3055 H3069 0.958 . S
C3055 H3070 0.961 . S
C3055 H3071 0.960 . S
H3056 C3040 0.931 . S
H3057 C3045 0.925 1_556 S
H3058 C3046 0.960 1_545 S
H3059 C3046 0.962 . S
H3060 C3046 0.960 . S
H3061 C3047 0.961 . S
H3062 C3047 0.941 1_545 S
H3063 C3047 0.961 1_554 S
H3064 C3048 0.931 . S
H3065 C3053 0.930 . S
H3066 C3054 0.956 1_565 S
H3067 C3054 0.961 1_565 S
H3068 C3054 0.961 . S
H3069 C3055 0.958 . S
H3070 C3055 0.961 . S
H3071 C3055 0.960 . S
C3072 C3073 1.391 . S
C3072 C3074 1.394 . S
C3072 H3088 0.931 . S
C3073 C3072 1.391 . S
C3073 C3077 1.376 . S
C3074 C3072 1.394 . S
C3074 C3075 1.369 . S
C3074 C3078 1.531 . S
C3075 C3074 1.369 . S
C3075 C3076 1.410 . S
C3075 C3083 1.503 . S
C3076 C3075 1.410 . S
C3076 C3077 1.392 . S
C3076 C3079 1.511 . S
C3077 C3073 1.376 . S
C3077 C3076 1.392 . S
C3077 H3089 0.929 . S
C3078 C3074 1.531 . S
C3078 H3090 0.960 . S
C3078 H3091 0.962 . S
C3078 H3092 0.960 . S
C3079 C3076 1.511 . S
C3079 H3093 0.961 . S
C3079 H3094 0.961 . S
C3079 H3095 0.961 . S
C3080 C3081 1.370 . S
C3080 C3082 1.363 . S
C3080 H3096 0.931 . S
C3081 C3080 1.370 . S
C3081 C3085 1.408 . S
C3082 C3080 1.363 . S
C3082 C3083 1.370 . S
C3082 C3086 1.524 . S
C3083 C3075 1.503 . S
C3083 C3082 1.370 . S
C3083 C3084 1.403 . S
C3084 C3083 1.403 . S
C3084 C3085 1.404 . S
C3084 C3087 1.539 . S
C3085 C3081 1.408 . S
C3085 C3084 1.404 . S
C3085 H3097 0.930 . S
C3086 C3082 1.524 . S
C3086 H3098 0.956 . S
C3086 H3099 0.961 . S
C3086 H3100 0.961 . S
C3087 C3084 1.539 . S
C3087 H3101 0.958 . S
C3087 H3102 0.961 . S
C3087 H3103 0.960 . S
H3088 C3072 0.931 . S
H3089 C3077 0.929 . S
H3090 C3078 0.960 . S
H3091 C3078 0.962 . S
H3092 C3078 0.960 . S
H3093 C3079 0.961 . S
H3094 C3079 0.961 . S
H3095 C3079 0.961 . S
H3096 C3080 0.931 . S
H3097 C3085 0.930 . S
H3098 C3086 0.956 . S
H3099 C3086 0.961 . S
H3100 C3086 0.961 . S
H3101 C3087 0.958 . S
H3102 C3087 0.961 . S
H3103 C3087 0.960 . S
C3104 C3105 1.391 . S
C3104 C3106 1.394 . S
C3104 H3120 0.931 . S
C3105 C3104 1.391 . S
C3105 C3109 1.376 . S
C3106 C3104 1.394 . S
C3106 C3107 1.369 . S
C3106 C3110 1.531 1_554 S
C3107 C3106 1.369 . S
C3107 C3108 1.410 . S
C3107 C3115 1.503 1_455 S
C3108 C3107 1.410 . S
C3108 C3109 1.392 . S
C3108 C3111 1.511 . S
C3109 C3105 1.376 . S
C3109 C3108 1.392 . S
C3109 H3121 0.929 . S
C3110 C3106 1.531 1_556 S
C3110 H3122 0.960 1_455 S
C3110 H3123 0.962 1_556 S
C3110 H3124 0.960 . S
C3111 C3108 1.511 . S
C3111 H3125 0.961 . S
C3111 H3126 0.961 1_455 S
C3111 H3127 0.961 . S
C3112 C3113 1.370 . S
C3112 C3114 1.363 . S
C3112 H3128 0.931 . S
C3113 C3112 1.370 . S
C3113 C3117 1.408 1_554 S
C3114 C3112 1.363 . S
C3114 C3115 1.370 . S
C3114 C3118 1.524 . S
C3115 C3107 1.503 1_655 S
C3115 C3114 1.370 . S
C3115 C3116 1.403 1_554 S
C3116 C3115 1.403 1_556 S
C3116 C3117 1.404 . S
C3116 C3119 1.539 . S
C3117 C3113 1.408 1_556 S
C3117 C3116 1.404 . S
C3117 H3129 0.930 . S
C3118 C3114 1.524 . S
C3118 H3130 0.981 . S
C3118 H3131 0.920 1_655 S
C3118 H3132 0.961 . S
C3119 C3116 1.539 . S
C3119 H3133 0.958 . S
C3119 H3134 0.961 . S
C3119 H3135 0.966 . S
H3120 C3104 0.931 . S
H3121 C3109 0.929 . S
H3122 C3110 0.960 1_655 S
H3123 C3110 0.962 1_554 S
H3124 C3110 0.960 . S
H3125 C3111 0.961 . S
H3126 C3111 0.961 1_655 S
H3127 C3111 0.961 . S
H3128 C3112 0.931 . S
H3129 C3117 0.930 . S
H3130 C3118 0.981 . S
H3131 C3118 0.920 1_455 S
H3132 C3118 0.961 . S
H3133 C3119 0.958 . S
H3134 C3119 0.961 . S
H3135 C3119 0.966 . S
C3136 C3137 1.391 . S
C3136 C3138 1.394 . S
C3136 H3152 0.931 . S
C3137 C3136 1.391 . S
C3137 C3141 1.376 . S
C3138 C3136 1.394 . S
C3138 C3139 1.369 . S
C3138 C3142 1.531 . S
C3139 C3138 1.369 . S
C3139 C3140 1.410 . S
C3139 C3147 1.503 . S
C3140 C3139 1.410 . S
C3140 C3141 1.392 . S
C3140 C3143 1.511 . S
C3141 C3137 1.376 . S
C3141 C3140 1.392 . S
C3141 H3153 0.929 . S
C3142 C3138 1.531 . S
C3142 H3154 0.960 . S
C3142 H3155 0.962 . S
C3142 H3156 0.960 . S
C3143 C3140 1.511 . S
C3143 H3157 0.961 . S
C3143 H3158 0.961 . S
C3143 H3159 0.961 . S
C3144 C3145 1.370 . S
C3144 C3146 1.363 . S
C3144 H3160 0.931 . S
C3145 C3144 1.370 . S
C3145 C3149 1.408 . S
C3146 C3144 1.363 . S
C3146 C3147 1.370 . S
C3146 C3150 1.524 . S
C3147 C3139 1.503 . S
C3147 C3146 1.370 . S
C3147 C3148 1.403 . S
C3148 C3147 1.403 . S
C3148 C3149 1.404 . S
C3148 C3151 1.539 . S
C3149 C3145 1.408 . S
C3149 C3148 1.404 . S
C3149 H3161 0.930 . S
C3150 C3146 1.524 . S
C3150 H3162 0.956 . S
C3150 H3163 0.961 . S
C3150 H3164 0.961 . S
C3151 C3148 1.539 . S
C3151 H3165 0.958 . S
C3151 H3166 0.961 . S
C3151 H3167 0.960 . S
H3152 C3136 0.931 . S
H3153 C3141 0.929 . S
H3154 C3142 0.960 . S
H3155 C3142 0.962 . S
H3156 C3142 0.960 . S
H3157 C3143 0.961 . S
H3158 C3143 0.961 . S
H3159 C3143 0.961 . S
H3160 C3144 0.931 . S
H3161 C3149 0.930 . S
H3162 C3150 0.956 . S
H3163 C3150 0.961 . S
H3164 C3150 0.961 . S
H3165 C3151 0.958 . S
H3166 C3151 0.961 . S
H3167 C3151 0.960 . S
C3168 C3169 1.391 . S
C3168 C3170 1.394 . S
C3168 H3184 0.931 . S
C3169 C3168 1.391 . S
C3169 C3173 1.376 . S
C3170 C3168 1.394 . S
C3170 C3171 1.369 . S
C3170 C3174 1.531 . S
C3171 C3170 1.369 . S
C3171 C3172 1.410 . S
C3171 C3179 1.503 . S
C3172 C3171 1.410 . S
C3172 C3173 1.392 . S
C3172 C3175 1.511 . S
C3173 C3169 1.376 . S
C3173 C3172 1.392 . S
C3173 H3185 0.929 . S
C3174 C3170 1.531 . S
C3174 H3186 0.960 . S
C3174 H3187 0.962 . S
C3174 H3188 0.960 . S
C3175 C3172 1.511 . S
C3175 H3189 0.961 . S
C3175 H3190 0.961 . S
C3175 H3191 0.961 . S
C3176 C3177 1.370 . S
C3176 C3178 1.363 . S
C3176 H3192 0.931 . S
C3177 C3176 1.370 . S
C3177 C3181 1.408 . S
C3178 C3176 1.363 . S
C3178 C3179 1.370 . S
C3178 C3182 1.524 . S
C3179 C3171 1.503 . S
C3179 C3178 1.370 . S
C3179 C3180 1.403 . S
C3180 C3179 1.403 . S
C3180 C3181 1.404 . S
C3180 C3183 1.539 . S
C3181 C3177 1.408 . S
C3181 C3180 1.404 . S
C3181 H3193 0.930 . S
C3182 C3178 1.524 . S
C3182 H3194 0.956 . S
C3182 H3195 0.961 . S
C3182 H3196 0.961 . S
C3183 C3180 1.539 . S
C3183 H3197 0.958 . S
C3183 H3198 0.961 . S
C3183 H3199 0.960 . S
H3184 C3168 0.931 . S
H3185 C3173 0.929 . S
H3186 C3174 0.960 . S
H3187 C3174 0.962 . S
H3188 C3174 0.960 . S
H3189 C3175 0.961 . S
H3190 C3175 0.961 . S
H3191 C3175 0.961 . S
H3192 C3176 0.931 . S
H3193 C3181 0.930 . S
H3194 C3182 0.956 . S
H3195 C3182 0.961 . S
H3196 C3182 0.961 . S
H3197 C3183 0.958 . S
H3198 C3183 0.961 . S
H3199 C3183 0.960 . S
C3200 C3201 1.391 . S
C3200 C3202 1.394 . S
C3200 H3216 0.931 . S
C3201 C3200 1.391 . S
C3201 C3205 1.376 . S
C3202 C3200 1.394 . S
C3202 C3203 1.369 . S
C3202 C3206 1.531 . S
C3203 C3202 1.369 . S
C3203 C3204 1.410 . S
C3203 C3211 1.503 . S
C3204 C3203 1.410 . S
C3204 C3205 1.392 . S
C3204 C3207 1.511 . S
C3205 C3201 1.376 . S
C3205 C3204 1.392 . S
C3205 H3217 0.929 . S
C3206 C3202 1.531 . S
C3206 H3218 0.960 . S
C3206 H3219 0.962 . S
C3206 H3220 0.960 . S
C3207 C3204 1.511 . S
C3207 H3221 0.961 . S
C3207 H3222 0.961 . S
C3207 H3223 0.961 . S
C3208 C3209 1.370 . S
C3208 C3210 1.363 . S
C3208 H3224 0.931 . S
C3209 C3208 1.370 . S
C3209 C3213 1.408 . S
C3210 C3208 1.363 . S
C3210 C3211 1.370 . S
C3210 C3214 1.524 . S
C3211 C3203 1.503 . S
C3211 C3210 1.370 . S
C3211 C3212 1.403 . S
C3212 C3211 1.403 . S
C3212 C3213 1.404 . S
C3212 C3215 1.539 . S
C3213 C3209 1.408 . S
C3213 C3212 1.404 . S
C3213 H3225 0.930 . S
C3214 C3210 1.524 . S
C3214 H3226 0.956 . S
C3214 H3227 0.961 . S
C3214 H3228 0.961 . S
C3215 C3212 1.539 . S
C3215 H3229 0.958 . S
C3215 H3230 0.961 . S
C3215 H3231 0.960 . S
H3216 C3200 0.931 . S
H3217 C3205 0.929 . S
H3218 C3206 0.960 . S
H3219 C3206 0.962 . S
H3220 C3206 0.960 . S
H3221 C3207 0.961 . S
H3222 C3207 0.961 . S
H3223 C3207 0.961 . S
H3224 C3208 0.931 . S
H3225 C3213 0.930 . S
H3226 C3214 0.956 . S
H3227 C3214 0.961 . S
H3228 C3214 0.961 . S
H3229 C3215 0.958 . S
H3230 C3215 0.961 . S
H3231 C3215 0.960 . S
C3232 C3233 1.391 1_554 S
C3232 C3234 1.394 . S
C3232 H3248 0.931 . S
C3233 C3232 1.391 1_556 S
C3233 C3237 1.376 . S
C3234 C3232 1.394 . S
C3234 C3235 1.369 1_554 S
C3234 C3238 1.531 . S
C3235 C3234 1.369 1_556 S
C3235 C3236 1.410 . S
C3235 C3243 1.503 1_655 S
C3236 C3235 1.410 . S
C3236 C3237 1.392 . S
C3236 C3239 1.511 . S
C3237 C3233 1.376 . S
C3237 C3236 1.392 . S
C3237 H3249 0.929 . S
C3238 C3234 1.531 . S
C3238 H3250 0.960 1_655 S
C3238 H3251 0.962 . S
C3238 H3252 0.960 . S
C3239 C3236 1.511 . S
C3239 H3253 0.961 . S
C3239 H3254 0.961 1_655 S
C3239 H3255 0.961 . S
C3240 C3241 1.370 . S
C3240 C3242 1.363 . S
C3240 H3256 0.931 . S
C3241 C3240 1.370 . S
C3241 C3245 1.408 . S
C3242 C3240 1.363 . S
C3242 C3243 1.370 . S
C3242 C3246 1.524 1_556 S
C3243 C3235 1.503 1_455 S
C3243 C3242 1.370 . S
C3243 C3244 1.403 . S
C3244 C3243 1.403 . S
C3244 C3245 1.404 . S
C3244 C3247 1.539 . S
C3245 C3241 1.408 . S
C3245 C3244 1.404 . S
C3245 H3257 0.930 . S
C3246 C3242 1.524 1_554 S
C3246 H3258 0.983 . S
C3246 H3259 0.919 1_454 S
C3246 H3260 0.961 . S
C3247 C3244 1.539 . S
C3247 H3261 0.958 . S
C3247 H3262 0.961 . S
C3247 H3263 0.966 . S
H3248 C3232 0.931 . S
H3249 C3237 0.929 . S
H3250 C3238 0.960 1_455 S
H3251 C3238 0.962 . S
H3252 C3238 0.960 . S
H3253 C3239 0.961 . S
H3254 C3239 0.961 1_455 S
H3255 C3239 0.961 . S
H3256 C3240 0.931 . S
H3257 C3245 0.930 . S
H3258 C3246 0.983 . S
H3259 C3246 0.919 1_656 S
H3260 C3246 0.961 . S
H3261 C3247 0.958 . S
H3262 C3247 0.961 . S
H3263 C3247 0.966 . S
C3264 C3265 1.391 . S
C3264 C3266 1.394 . S
C3264 H3280 0.931 . S
C3265 C3264 1.391 . S
C3265 C3269 1.376 . S
C3266 C3264 1.394 . S
C3266 C3267 1.369 . S
C3266 C3270 1.531 . S
C3267 C3266 1.369 . S
C3267 C3268 1.410 . S
C3267 C3275 1.503 . S
C3268 C3267 1.410 . S
C3268 C3269 1.392 . S
C3268 C3271 1.511 . S
C3269 C3265 1.376 . S
C3269 C3268 1.392 . S
C3269 H3281 0.929 . S
C3270 C3266 1.531 . S
C3270 H3282 0.960 . S
C3270 H3283 0.962 . S
C3270 H3284 0.960 . S
C3271 C3268 1.511 . S
C3271 H3285 0.961 . S
C3271 H3286 0.961 . S
C3271 H3287 0.961 . S
C3272 C3273 1.370 . S
C3272 C3274 1.363 . S
C3272 H3288 0.931 . S
C3273 C3272 1.370 . S
C3273 C3277 1.408 . S
C3274 C3272 1.363 . S
C3274 C3275 1.370 . S
C3274 C3278 1.524 . S
C3275 C3267 1.503 . S
C3275 C3274 1.370 . S
C3275 C3276 1.403 . S
C3276 C3275 1.403 . S
C3276 C3277 1.404 . S
C3276 C3279 1.539 . S
C3277 C3273 1.408 . S
C3277 C3276 1.404 . S
C3277 H3289 0.930 . S
C3278 C3274 1.524 . S
C3278 H3290 0.956 . S
C3278 H3291 0.961 . S
C3278 H3292 0.961 . S
C3279 C3276 1.539 . S
C3279 H3293 0.958 . S
C3279 H3294 0.961 . S
C3279 H3295 0.960 . S
H3280 C3264 0.931 . S
H3281 C3269 0.929 . S
H3282 C3270 0.960 . S
H3283 C3270 0.962 . S
H3284 C3270 0.960 . S
H3285 C3271 0.961 . S
H3286 C3271 0.961 . S
H3287 C3271 0.961 . S
H3288 C3272 0.931 . S
H3289 C3277 0.930 . S
H3290 C3278 0.956 . S
H3291 C3278 0.961 . S
H3292 C3278 0.961 . S
H3293 C3279 0.958 . S
H3294 C3279 0.961 . S
H3295 C3279 0.960 . S
C3296 C3297 1.391 . S
C3296 C3298 1.394 . S
C3296 H3312 0.931 . S
C3297 C3296 1.391 . S
C3297 C3301 1.376 . S
C3298 C3296 1.394 . S
C3298 C3299 1.369 . S
C3298 C3302 1.531 . S
C3299 C3298 1.369 . S
C3299 C3300 1.410 . S
C3299 C3307 1.503 . S
C3300 C3299 1.410 . S
C3300 C3301 1.392 . S
C3300 C3303 1.511 . S
C3301 C3297 1.376 . S
C3301 C3300 1.392 . S
C3301 H3313 0.929 . S
C3302 C3298 1.531 . S
C3302 H3314 0.960 . S
C3302 H3315 0.962 . S
C3302 H3316 0.960 . S
C3303 C3300 1.511 . S
C3303 H3317 0.961 . S
C3303 H3318 0.961 . S
C3303 H3319 0.961 . S
C3304 C3305 1.370 . S
C3304 C3306 1.363 . S
C3304 H3320 0.931 . S
C3305 C3304 1.370 . S
C3305 C3309 1.408 . S
C3306 C3304 1.363 . S
C3306 C3307 1.370 . S
C3306 C3310 1.524 . S
C3307 C3299 1.503 . S
C3307 C3306 1.370 . S
C3307 C3308 1.403 . S
C3308 C3307 1.403 . S
C3308 C3309 1.404 . S
C3308 C3311 1.539 . S
C3309 C3305 1.408 . S
C3309 C3308 1.404 . S
C3309 H3321 0.930 . S
C3310 C3306 1.524 . S
C3310 H3322 0.956 . S
C3310 H3323 0.961 . S
C3310 H3324 0.961 . S
C3311 C3308 1.539 . S
C3311 H3325 0.958 . S
C3311 H3326 0.961 . S
C3311 H3327 0.960 . S
H3312 C3296 0.931 . S
H3313 C3301 0.929 . S
H3314 C3302 0.960 . S
H3315 C3302 0.962 . S
H3316 C3302 0.960 . S
H3317 C3303 0.961 . S
H3318 C3303 0.961 . S
H3319 C3303 0.961 . S
H3320 C3304 0.931 . S
H3321 C3309 0.930 . S
H3322 C3310 0.956 . S
H3323 C3310 0.961 . S
H3324 C3310 0.961 . S
H3325 C3311 0.958 . S
H3326 C3311 0.961 . S
H3327 C3311 0.960 . S
C3328 C3329 1.391 . S
C3328 C3330 1.394 . S
C3328 H3344 0.931 . S
C3329 C3328 1.391 . S
C3329 C3333 1.376 . S
C3330 C3328 1.394 . S
C3330 C3331 1.369 . S
C3330 C3334 1.531 . S
C3331 C3330 1.369 . S
C3331 C3332 1.410 . S
C3331 C3339 1.503 . S
C3332 C3331 1.410 . S
C3332 C3333 1.392 . S
C3332 C3335 1.511 . S
C3333 C3329 1.376 . S
C3333 C3332 1.392 . S
C3333 H3345 0.929 . S
C3334 C3330 1.531 . S
C3334 H3346 0.960 . S
C3334 H3347 0.962 . S
C3334 H3348 0.960 . S
C3335 C3332 1.511 . S
C3335 H3349 0.961 . S
C3335 H3350 0.961 . S
C3335 H3351 0.961 . S
C3336 C3337 1.370 . S
C3336 C3338 1.363 . S
C3336 H3352 0.931 . S
C3337 C3336 1.370 . S
C3337 C3341 1.408 . S
C3338 C3336 1.363 . S
C3338 C3339 1.370 . S
C3338 C3342 1.524 . S
C3339 C3331 1.503 . S
C3339 C3338 1.370 . S
C3339 C3340 1.403 . S
C3340 C3339 1.403 . S
C3340 C3341 1.404 . S
C3340 C3343 1.539 . S
C3341 C3337 1.408 . S
C3341 C3340 1.404 . S
C3341 H3353 0.930 . S
C3342 C3338 1.524 . S
C3342 H3354 0.956 . S
C3342 H3355 0.961 . S
C3342 H3356 0.961 . S
C3343 C3340 1.539 . S
C3343 H3357 0.958 . S
C3343 H3358 0.961 . S
C3343 H3359 0.960 . S
H3344 C3328 0.931 . S
H3345 C3333 0.929 . S
H3346 C3334 0.960 . S
H3347 C3334 0.962 . S
H3348 C3334 0.960 . S
H3349 C3335 0.961 . S
H3350 C3335 0.961 . S
H3351 C3335 0.961 . S
H3352 C3336 0.931 . S
H3353 C3341 0.930 . S
H3354 C3342 0.956 . S
H3355 C3342 0.961 . S
H3356 C3342 0.961 . S
H3357 C3343 0.958 . S
H3358 C3343 0.961 . S
H3359 C3343 0.960 . S
C3360 C3361 1.391 . S
C3360 C3362 1.394 . S
C3360 H3376 0.931 . S
C3361 C3360 1.391 . S
C3361 C3365 1.376 . S
C3362 C3360 1.394 . S
C3362 C3363 1.369 . S
C3362 C3366 1.531 . S
C3363 C3362 1.369 . S
C3363 C3364 1.410 . S
C3363 C3371 1.503 . S
C3364 C3363 1.410 . S
C3364 C3365 1.392 . S
C3364 C3367 1.511 . S
C3365 C3361 1.376 . S
C3365 C3364 1.392 . S
C3365 H3377 0.929 . S
C3366 C3362 1.531 . S
C3366 H3378 0.960 . S
C3366 H3379 0.962 . S
C3366 H3380 0.960 . S
C3367 C3364 1.511 . S
C3367 H3381 0.961 . S
C3367 H3382 0.961 . S
C3367 H3383 0.961 . S
C3368 C3369 1.370 . S
C3368 C3370 1.363 . S
C3368 H3384 0.931 . S
C3369 C3368 1.370 . S
C3369 C3373 1.408 . S
C3370 C3368 1.363 . S
C3370 C3371 1.370 . S
C3370 C3374 1.524 . S
C3371 C3363 1.503 . S
C3371 C3370 1.370 . S
C3371 C3372 1.403 . S
C3372 C3371 1.403 . S
C3372 C3373 1.404 . S
C3372 C3375 1.539 . S
C3373 C3369 1.408 . S
C3373 C3372 1.404 . S
C3373 H3385 0.930 . S
C3374 C3370 1.524 . S
C3374 H3386 0.956 . S
C3374 H3387 0.961 . S
C3374 H3388 0.961 . S
C3375 C3372 1.539 . S
C3375 H3389 0.958 . S
C3375 H3390 0.961 . S
C3375 H3391 0.960 . S
H3376 C3360 0.931 . S
H3377 C3365 0.929 . S
H3378 C3366 0.960 . S
H3379 C3366 0.962 . S
H3380 C3366 0.960 . S
H3381 C3367 0.961 . S
H3382 C3367 0.961 . S
H3383 C3367 0.961 . S
H3384 C3368 0.931 . S
H3385 C3373 0.930 . S
H3386 C3374 0.956 . S
H3387 C3374 0.961 . S
H3388 C3374 0.961 . S
H3389 C3375 0.958 . S
H3390 C3375 0.961 . S
H3391 C3375 0.960 . S
C3392 C3393 1.391 . S
C3392 C3394 1.394 . S
C3392 H3408 0.931 . S
C3393 C3392 1.391 . S
C3393 C3397 1.376 . S
C3394 C3392 1.394 . S
C3394 C3395 1.369 . S
C3394 C3398 1.531 . S
C3395 C3394 1.369 . S
C3395 C3396 1.410 . S
C3395 C3403 1.503 . S
C3396 C3395 1.410 . S
C3396 C3397 1.392 . S
C3396 C3399 1.511 . S
C3397 C3393 1.376 . S
C3397 C3396 1.392 . S
C3397 H3409 0.929 . S
C3398 C3394 1.531 . S
C3398 H3410 0.960 . S
C3398 H3411 0.962 . S
C3398 H3412 0.960 . S
C3399 C3396 1.511 . S
C3399 H3413 0.961 . S
C3399 H3414 0.961 . S
C3399 H3415 0.961 . S
C3400 C3401 1.370 . S
C3400 C3402 1.363 . S
C3400 H3416 0.931 . S
C3401 C3400 1.370 . S
C3401 C3405 1.408 . S
C3402 C3400 1.363 . S
C3402 C3403 1.370 . S
C3402 C3406 1.524 . S
C3403 C3395 1.503 . S
C3403 C3402 1.370 . S
C3403 C3404 1.403 . S
C3404 C3403 1.403 . S
C3404 C3405 1.404 . S
C3404 C3407 1.539 . S
C3405 C3401 1.408 . S
C3405 C3404 1.404 . S
C3405 H3417 0.930 . S
C3406 C3402 1.524 . S
C3406 H3418 0.956 . S
C3406 H3419 0.961 . S
C3406 H3420 0.961 . S
C3407 C3404 1.539 . S
C3407 H3421 0.958 . S
C3407 H3422 0.961 . S
C3407 H3423 0.960 . S
H3408 C3392 0.931 . S
H3409 C3397 0.929 . S
H3410 C3398 0.960 . S
H3411 C3398 0.962 . S
H3412 C3398 0.960 . S
H3413 C3399 0.961 . S
H3414 C3399 0.961 . S
H3415 C3399 0.961 . S
H3416 C3400 0.931 . S
H3417 C3405 0.930 . S
H3418 C3406 0.956 . S
H3419 C3406 0.961 . S
H3420 C3406 0.961 . S
H3421 C3407 0.958 . S
H3422 C3407 0.961 . S
H3423 C3407 0.960 . S
C3424 C3425 1.391 . S
C3424 C3426 1.394 . S
C3424 H3440 0.931 . S
C3425 C3424 1.391 . S
C3425 C3429 1.376 . S
C3426 C3424 1.394 . S
C3426 C3427 1.369 . S
C3426 C3430 1.531 . S
C3427 C3426 1.369 . S
C3427 C3428 1.410 . S
C3427 C3435 1.503 . S
C3428 C3427 1.410 . S
C3428 C3429 1.392 . S
C3428 C3431 1.511 . S
C3429 C3425 1.376 . S
C3429 C3428 1.392 . S
C3429 H3441 0.929 . S
C3430 C3426 1.531 . S
C3430 H3442 0.960 . S
C3430 H3443 0.962 . S
C3430 H3444 0.960 . S
C3431 C3428 1.511 . S
C3431 H3445 0.961 . S
C3431 H3446 0.961 . S
C3431 H3447 0.961 . S
C3432 C3433 1.370 . S
C3432 C3434 1.363 . S
C3432 H3448 0.931 . S
C3433 C3432 1.370 . S
C3433 C3437 1.408 . S
C3434 C3432 1.363 . S
C3434 C3435 1.370 . S
C3434 C3438 1.524 . S
C3435 C3427 1.503 . S
C3435 C3434 1.370 . S
C3435 C3436 1.403 . S
C3436 C3435 1.403 . S
C3436 C3437 1.404 . S
C3436 C3439 1.539 . S
C3437 C3433 1.408 . S
C3437 C3436 1.404 . S
C3437 H3449 0.930 . S
C3438 C3434 1.524 . S
C3438 H3450 0.956 . S
C3438 H3451 0.961 . S
C3438 H3452 0.961 . S
C3439 C3436 1.539 . S
C3439 H3453 0.958 . S
C3439 H3454 0.961 . S
C3439 H3455 0.960 . S
H3440 C3424 0.931 . S
H3441 C3429 0.929 . S
H3442 C3430 0.960 . S
H3443 C3430 0.962 . S
H3444 C3430 0.960 . S
H3445 C3431 0.961 . S
H3446 C3431 0.961 . S
H3447 C3431 0.961 . S
H3448 C3432 0.931 . S
H3449 C3437 0.930 . S
H3450 C3438 0.956 . S
H3451 C3438 0.961 . S
H3452 C3438 0.961 . S
H3453 C3439 0.958 . S
H3454 C3439 0.961 . S
H3455 C3439 0.960 . S
C3456 C3457 1.391 . S
C3456 C3458 1.394 . S
C3456 H3472 0.931 . S
C3457 C3456 1.391 . S
C3457 C3461 1.376 . S
C3458 C3456 1.394 . S
C3458 C3459 1.369 . S
C3458 C3462 1.531 . S
C3459 C3458 1.369 . S
C3459 C3460 1.410 . S
C3459 C3467 1.503 . S
C3460 C3459 1.410 . S
C3460 C3461 1.392 . S
C3460 C3463 1.511 . S
C3461 C3457 1.376 . S
C3461 C3460 1.392 . S
C3461 H3473 0.929 . S
C3462 C3458 1.531 . S
C3462 H3474 0.960 . S
C3462 H3475 0.962 . S
C3462 H3476 0.960 . S
C3463 C3460 1.511 . S
C3463 H3477 0.961 . S
C3463 H3478 0.961 . S
C3463 H3479 0.961 . S
C3464 C3465 1.370 . S
C3464 C3466 1.363 . S
C3464 H3480 0.931 . S
C3465 C3464 1.370 . S
C3465 C3469 1.408 . S
C3466 C3464 1.363 . S
C3466 C3467 1.370 . S
C3466 C3470 1.524 . S
C3467 C3459 1.503 . S
C3467 C3466 1.370 . S
C3467 C3468 1.403 . S
C3468 C3467 1.403 . S
C3468 C3469 1.404 . S
C3468 C3471 1.539 . S
C3469 C3465 1.408 . S
C3469 C3468 1.404 . S
C3469 H3481 0.930 . S
C3470 C3466 1.524 . S
C3470 H3482 0.956 . S
C3470 H3483 0.961 . S
C3470 H3484 0.961 . S
C3471 C3468 1.539 . S
C3471 H3485 0.958 . S
C3471 H3486 0.961 . S
C3471 H3487 0.960 . S
H3472 C3456 0.931 . S
H3473 C3461 0.929 . S
H3474 C3462 0.960 . S
H3475 C3462 0.962 . S
H3476 C3462 0.960 . S
H3477 C3463 0.961 . S
H3478 C3463 0.961 . S
H3479 C3463 0.961 . S
H3480 C3464 0.931 . S
H3481 C3469 0.930 . S
H3482 C3470 0.956 . S
H3483 C3470 0.961 . S
H3484 C3470 0.961 . S
H3485 C3471 0.958 . S
H3486 C3471 0.961 . S
H3487 C3471 0.960 . S
C3488 C3489 1.391 . S
C3488 C3490 1.394 . S
C3488 H3504 0.931 . S
C3489 C3488 1.391 . S
C3489 C3493 1.376 . S
C3490 C3488 1.394 . S
C3490 C3491 1.369 . S
C3490 C3494 1.531 . S
C3491 C3490 1.369 . S
C3491 C3492 1.410 . S
C3491 C3499 1.503 . S
C3492 C3491 1.410 . S
C3492 C3493 1.392 . S
C3492 C3495 1.511 . S
C3493 C3489 1.376 . S
C3493 C3492 1.392 . S
C3493 H3505 0.929 . S
C3494 C3490 1.531 . S
C3494 H3506 0.960 . S
C3494 H3507 0.962 . S
C3494 H3508 0.960 . S
C3495 C3492 1.511 . S
C3495 H3509 0.961 . S
C3495 H3510 0.961 . S
C3495 H3511 0.961 . S
C3496 C3497 1.370 . S
C3496 C3498 1.363 . S
C3496 H3512 0.931 . S
C3497 C3496 1.370 . S
C3497 C3501 1.408 . S
C3498 C3496 1.363 . S
C3498 C3499 1.370 . S
C3498 C3502 1.524 . S
C3499 C3491 1.503 . S
C3499 C3498 1.370 . S
C3499 C3500 1.403 . S
C3500 C3499 1.403 . S
C3500 C3501 1.404 . S
C3500 C3503 1.539 . S
C3501 C3497 1.408 . S
C3501 C3500 1.404 . S
C3501 H3513 0.930 . S
C3502 C3498 1.524 . S
C3502 H3514 0.956 . S
C3502 H3515 0.961 . S
C3502 H3516 0.961 . S
C3503 C3500 1.539 . S
C3503 H3517 0.958 . S
C3503 H3518 0.961 . S
C3503 H3519 0.960 . S
H3504 C3488 0.931 . S
H3505 C3493 0.929 . S
H3506 C3494 0.960 . S
H3507 C3494 0.962 . S
H3508 C3494 0.960 . S
H3509 C3495 0.961 . S
H3510 C3495 0.961 . S
H3511 C3495 0.961 . S
H3512 C3496 0.931 . S
H3513 C3501 0.930 . S
H3514 C3502 0.956 . S
H3515 C3502 0.961 . S
H3516 C3502 0.961 . S
H3517 C3503 0.958 . S
H3518 C3503 0.961 . S
H3519 C3503 0.960 . S
C3520 C3521 1.391 . S
C3520 C3522 1.394 . S
C3520 H3536 0.931 . S
C3521 C3520 1.391 . S
C3521 C3525 1.376 . S
C3522 C3520 1.394 . S
C3522 C3523 1.369 . S
C3522 C3526 1.531 . S
C3523 C3522 1.369 . S
C3523 C3524 1.410 . S
C3523 C3531 1.503 1_455 S
C3524 C3523 1.410 . S
C3524 C3525 1.392 . S
C3524 C3527 1.511 1_554 S
C3525 C3521 1.376 . S
C3525 C3524 1.392 . S
C3525 H3537 0.929 . S
C3526 C3522 1.531 . S
C3526 H3538 0.960 1_455 S
C3526 H3539 0.962 . S
C3526 H3540 0.960 . S
C3527 C3524 1.511 1_556 S
C3527 H3541 0.961 . S
C3527 H3542 0.961 1_456 S
C3527 H3543 0.961 . S
C3528 C3529 1.370 . S
C3528 C3530 1.363 . S
C3528 H3544 0.931 . S
C3529 C3528 1.370 . S
C3529 C3533 1.408 1_554 S
C3530 C3528 1.363 . S
C3530 C3531 1.370 . S
C3530 C3534 1.524 . S
C3531 C3523 1.503 1_655 S
C3531 C3530 1.370 . S
C3531 C3532 1.403 1_554 S
C3532 C3531 1.403 1_556 S
C3532 C3533 1.404 . S
C3532 C3535 1.539 . S
C3533 C3529 1.408 1_556 S
C3533 C3532 1.404 . S
C3533 H3545 0.930 . S
C3534 C3530 1.524 . S
C3534 H3546 0.981 . S
C3534 H3547 0.920 1_655 S
C3534 H3548 0.961 . S
C3535 C3532 1.539 . S
C3535 H3549 0.958 . S
C3535 H3550 0.961 . S
C3535 H3551 0.966 . S
H3536 C3520 0.931 . S
H3537 C3525 0.929 . S
H3538 C3526 0.960 1_655 S
H3539 C3526 0.962 . S
H3540 C3526 0.960 . S
H3541 C3527 0.961 . S
H3542 C3527 0.961 1_654 S
H3543 C3527 0.961 . S
H3544 C3528 0.931 . S
H3545 C3533 0.930 . S
H3546 C3534 0.981 . S
H3547 C3534 0.920 1_455 S
H3548 C3534 0.961 . S
H3549 C3535 0.958 . S
H3550 C3535 0.961 . S
H3551 C3535 0.966 . S
C3552 C3553 1.391 . S
C3552 C3554 1.394 . S
C3552 H3568 0.931 . S
C3553 C3552 1.391 . S
C3553 C3557 1.376 . S
C3554 C3552 1.394 . S
C3554 C3555 1.369 . S
C3554 C3558 1.531 . S
C3555 C3554 1.369 . S
C3555 C3556 1.410 . S
C3555 C3563 1.503 . S
C3556 C3555 1.410 . S
C3556 C3557 1.392 . S
C3556 C3559 1.511 . S
C3557 C3553 1.376 . S
C3557 C3556 1.392 . S
C3557 H3569 0.929 . S
C3558 C3554 1.531 . S
C3558 H3570 0.960 . S
C3558 H3571 0.962 . S
C3558 H3572 0.960 . S
C3559 C3556 1.511 . S
C3559 H3573 0.961 . S
C3559 H3574 0.961 . S
C3559 H3575 0.961 . S
C3560 C3561 1.370 . S
C3560 C3562 1.363 . S
C3560 H3576 0.931 . S
C3561 C3560 1.370 . S
C3561 C3565 1.408 . S
C3562 C3560 1.363 . S
C3562 C3563 1.370 . S
C3562 C3566 1.524 . S
C3563 C3555 1.503 . S
C3563 C3562 1.370 . S
C3563 C3564 1.403 . S
C3564 C3563 1.403 . S
C3564 C3565 1.404 . S
C3564 C3567 1.539 . S
C3565 C3561 1.408 . S
C3565 C3564 1.404 . S
C3565 H3577 0.930 . S
C3566 C3562 1.524 . S
C3566 H3578 0.956 . S
C3566 H3579 0.961 . S
C3566 H3580 0.961 . S
C3567 C3564 1.539 . S
C3567 H3581 0.958 . S
C3567 H3582 0.961 . S
C3567 H3583 0.960 . S
H3568 C3552 0.931 . S
H3569 C3557 0.929 . S
H3570 C3558 0.960 . S
H3571 C3558 0.962 . S
H3572 C3558 0.960 . S
H3573 C3559 0.961 . S
H3574 C3559 0.961 . S
H3575 C3559 0.961 . S
H3576 C3560 0.931 . S
H3577 C3565 0.930 . S
H3578 C3566 0.956 . S
H3579 C3566 0.961 . S
H3580 C3566 0.961 . S
H3581 C3567 0.958 . S
H3582 C3567 0.961 . S
H3583 C3567 0.960 . S
C3584 C3585 1.391 . S
C3584 C3586 1.394 . S
C3584 H3600 0.931 1_556 S
C3585 C3584 1.391 . S
C3585 C3589 1.376 . S
C3586 C3584 1.394 . S
C3586 C3587 1.369 . S
C3586 C3590 1.531 1_556 S
C3587 C3586 1.369 . S
C3587 C3588 1.410 . S
C3587 C3595 1.503 1_455 S
C3588 C3587 1.410 . S
C3588 C3589 1.392 . S
C3588 C3591 1.511 . S
C3589 C3585 1.376 . S
C3589 C3588 1.392 . S
C3589 H3601 0.929 . S
C3590 C3586 1.531 1_554 S
C3590 H3602 0.960 1_455 S
C3590 H3603 0.963 1_554 S
C3590 H3604 0.960 . S
C3591 C3588 1.511 . S
C3591 H3605 0.961 . S
C3591 H3606 0.961 1_455 S
C3591 H3607 0.961 . S
C3592 C3593 1.370 . S
C3592 C3594 1.363 . S
C3592 H3608 0.931 . S
C3593 C3592 1.370 . S
C3593 C3597 1.408 1_556 S
C3594 C3592 1.363 . S
C3594 C3595 1.370 . S
C3594 C3598 1.524 . S
C3595 C3587 1.503 1_655 S
C3595 C3594 1.370 . S
C3595 C3596 1.403 1_556 S
C3596 C3595 1.403 1_554 S
C3596 C3597 1.404 . S
C3596 C3599 1.539 . S
C3597 C3593 1.408 1_554 S
C3597 C3596 1.404 . S
C3597 H3609 0.930 . S
C3598 C3594 1.524 . S
C3598 H3610 0.981 . S
C3598 H3611 0.920 1_655 S
C3598 H3612 0.961 . S
C3599 C3596 1.539 . S
C3599 H3613 0.958 . S
C3599 H3614 0.961 . S
C3599 H3615 0.966 . S
H3600 C3584 0.931 1_554 S
H3601 C3589 0.929 . S
H3602 C3590 0.960 1_655 S
H3603 C3590 0.963 1_556 S
H3604 C3590 0.960 . S
H3605 C3591 0.961 . S
H3606 C3591 0.961 1_655 S
H3607 C3591 0.961 . S
H3608 C3592 0.931 . S
H3609 C3597 0.930 . S
H3610 C3598 0.981 . S
H3611 C3598 0.920 1_455 S
H3612 C3598 0.961 . S
H3613 C3599 0.958 . S
H3614 C3599 0.961 . S
H3615 C3599 0.966 . S
C1057 N2 1.428 . S
C1065 N13 1.472 . S
C1089 N46 1.468 . S
C1097 N35 1.452 1_556 S
C1121 N79 1.460 . S
C1129 N68 1.460 . S
C1153 N112 1.434 . S
C1161 N101 1.469 . S
C1185 N145 1.441 . S
C1193 N134 1.464 . S
C1217 N178 1.472 . S
C1225 N167 1.451 . S
C1249 N200 1.482 . S
C1257 N211 1.451 . S
C1281 N233 1.459 1_554 S
C1289 N244 1.458 . S
C1313 N266 1.462 . S
C1321 N277 1.460 . S
C1345 N299 1.436 1_554 S
C1353 N310 1.470 . S
C1377 N332 1.451 . S
C1385 N343 1.464 . S
C1409 N376 1.434 . S
C1417 N365 1.468 . S
C1441 N398 1.429 . S
C1449 N409 1.472 . S
C1473 N431 1.433 . S
C1481 N442 1.471 . S
C1505 N475 1.481 . S
C1513 N464 1.449 . S
C1537 N497 1.481 1_556 S
C1545 N508 1.450 . S
C1569 N541 1.465 . S
C1577 N530 1.457 . S
C1601 N574 1.435 . S
C1609 N563 1.469 . S
C1633 N607 1.444 . S
C1641 N596 1.463 . S
C1665 N640 1.462 . S
C1673 N629 1.455 1_556 S
C1697 N673 1.474 . S
C1705 N662 1.453 . S
C1729 N706 1.438 . S
C1737 N695 1.468 1_554 S
C1761 N739 1.439 . S
C1769 N728 1.465 . S
C1793 N761 1.450 . S
C1801 N772 1.465 . S
C1825 N805 1.433 . S
C1833 N794 1.470 . S
C1857 N838 1.450 . S
C1865 N827 1.460 . S
C1889 N871 1.432 . S
C1897 N860 1.470 . S
C1921 N893 1.476 1_554 S
C1929 N904 1.452 . S
C1953 N926 1.464 . S
C1961 N937 1.459 . S
C1985 N959 1.428 1_556 S
C1993 N970 1.472 . S
C2017 N1003 1.434 . S
C2025 N992 1.468 . S
C2049 N1025 1.444 . S
C2057 N1036 1.467 . S
C2081 C777 1.067 . S
C2089 C18 1.075 . S
C2113 C678 1.063 . S
C2121 C51 1.076 . S
C2145 C711 1.078 . S
C2153 C84 1.071 . S
C2177 C744 1.063 . S
C2185 C117 1.076 . S
C2209 C579 1.073 . S
C2217 C150 1.071 . S
C2241 C612 1.064 . S
C2249 C183 1.075 . S
C2273 C645 1.076 . S
C2281 C216 1.072 . S
C2305 C546 1.064 . S
C2313 C249 1.076 . S
C2337 C1041 1.063 . S
C2345 C282 1.076 . S
C2369 C942 1.072 . S
C2377 C315 1.072 . S
C2401 C348 1.075 . S
C2409 C975 1.072 . S
C2433 C381 1.073 . S
C2441 C1008 1.072 . S
C2465 C414 1.072 . S
C2473 C843 1.072 . S
C2497 C447 1.073 . S
C2505 C876 1.072 . S
C2529 C480 1.067 . S
C2537 C909 1.074 . S
C2561 C810 1.078 . S
C2569 C513 1.070 . S
C2593 C139 1.426 . S
C2601 C7 1.413 . S
C2625 C40 1.399 . S
C2633 C172 1.417 . S
C2657 C205 1.403 . S
C2665 C73 1.406 . S
C2689 C106 1.428 . S
C2697 C238 1.423 . S
C2721 C271 1.390 . S
C2729 C403 1.407 . S
C2753 C436 1.413 . S
C2761 C304 1.411 . S
C2785 C469 1.429 . S
C2793 C337 1.418 . S
C2817 C502 1.410 . S
C2825 C370 1.419 . S
C2849 C667 1.414 . S
C2857 C535 1.408 . S
C2881 C568 1.392 . S
C2889 C700 1.407 . S
C2913 C601 1.390 . S
C2921 C733 1.408 . S
C2945 C634 1.391 . S
C2953 C766 1.408 . S
C2977 C931 1.424 . S
C2985 C799 1.415 . S
C3009 C964 1.390 . S
C3017 C832 1.408 . S
C3041 C997 1.425 . S
C3049 C865 1.416 . S
C3073 C898 1.390 . S
C3081 C1030 1.408 . S
C3105 C21 1.450 . S
C3113 C417 1.455 . S
C3137 C978 1.441 . S
C3145 C54 1.452 . S
C3169 C87 1.465 . S
C3177 C483 1.463 . S
C3201 C1044 1.459 . S
C3209 C120 1.461 . S
C3233 C285 1.466 . S
C3241 C153 1.462 . S
C3265 C186 1.466 . S
C3273 C846 1.462 . S
C3297 C219 1.456 . S
C3305 C351 1.458 . S
C3329 C252 1.449 . S
C3337 C912 1.455 . S
C3361 C714 1.446 . S
C3369 C318 1.453 . S
C3393 C780 1.446 . S
C3401 C384 1.454 . S
C3425 C582 1.447 . S
C3433 C450 1.454 . S
C3457 C648 1.454 . S
C3465 C516 1.458 . S
C3489 C549 1.460 . S
C3497 C945 1.461 . S
C3521 C1011 1.451 . S
C3529 C615 1.457 . S
C3553 C681 1.454 . S
C3561 C813 1.457 . S
C3585 C879 1.461 . S
C3593 C747 1.461 . S
