# Generated by pormake.
# Topology vba, (4)-cn, num edge types: 1
# Building blocks:
#     Node 0, Type 0, BuildingBlock: ESEHIV_clean_sbu_0, # of connection points: 4
#     Node 1, Type 0, BuildingBlock: ESEHIV_clean_sbu_0, # of connection points: 4
#     Node 2, Type 0, BuildingBlock: ESEHIV_clean_sbu_0, # of connection points: 4
#     Node 3, Type 0, BuildingBlock: ESEHIV_clean_sbu_0, # of connection points: 4
#     Node 4, Type 0, BuildingBlock: ESEHIV_clean_sbu_0, # of connection points: 4
#     Node 5, Type 0, BuildingBlock: ESEHIV_clean_sbu_0, # of connection points: 4
#     Node 6, Type 0, BuildingBlock: ESEHIV_clean_sbu_0, # of connection points: 4
#     Node 7, Type 0, BuildingBlock: ESEHIV_clean_sbu_0, # of connection points: 4
#     Node 8, Type 0, BuildingBlock: ESEHIV_clean_sbu_0, # of connection points: 4
#     Node 9, Type 0, BuildingBlock: ESEHIV_clean_sbu_0, # of connection points: 4
#     Node 10, Type 0, BuildingBlock: ESEHIV_clean_sbu_0, # of connection points: 4
#     Node 11, Type 0, BuildingBlock: ESEHIV_clean_sbu_0, # of connection points: 4
#     Node 12, Type 0, BuildingBlock: ESEHIV_clean_sbu_0, # of connection points: 4
#     Node 13, Type 0, BuildingBlock: ESEHIV_clean_sbu_0, # of connection points: 4
#     Node 14, Type 0, BuildingBlock: ESEHIV_clean_sbu_0, # of connection points: 4
#     Node 15, Type 0, BuildingBlock: ESEHIV_clean_sbu_0, # of connection points: 4
#     Node 16, Type 0, BuildingBlock: ESEHIV_clean_sbu_0, # of connection points: 4
#     Node 17, Type 0, BuildingBlock: ESEHIV_clean_sbu_0, # of connection points: 4
#     Node 18, Type 0, BuildingBlock: ESEHIV_clean_sbu_0, # of connection points: 4
#     Node 19, Type 0, BuildingBlock: ESEHIV_clean_sbu_0, # of connection points: 4
#     Node 20, Type 0, BuildingBlock: ESEHIV_clean_sbu_0, # of connection points: 4
#     Node 21, Type 0, BuildingBlock: ESEHIV_clean_sbu_0, # of connection points: 4
#     Node 22, Type 0, BuildingBlock: ESEHIV_clean_sbu_0, # of connection points: 4
#     Node 23, Type 0, BuildingBlock: ESEHIV_clean_sbu_0, # of connection points: 4
#     Node 24, Type 0, BuildingBlock: ESEHIV_clean_sbu_0, # of connection points: 4
#     Node 25, Type 0, BuildingBlock: ESEHIV_clean_sbu_0, # of connection points: 4
#     Node 26, Type 0, BuildingBlock: ESEHIV_clean_sbu_0, # of connection points: 4
#     Node 27, Type 0, BuildingBlock: ESEHIV_clean_sbu_0, # of connection points: 4
#     Node 28, Type 0, BuildingBlock: ESEHIV_clean_sbu_0, # of connection points: 4
#     Node 29, Type 0, BuildingBlock: ESEHIV_clean_sbu_0, # of connection points: 4
#     Node 30, Type 0, BuildingBlock: ESEHIV_clean_sbu_0, # of connection points: 4
#     Node 31, Type 0, BuildingBlock: ESEHIV_clean_sbu_0, # of connection points: 4
#     Edge 32, Type (0, 0), BuildingBlock: XIVTED_clean_linker_0, # of connection points: 2
#     Edge 33, Type (0, 0), BuildingBlock: XIVTED_clean_linker_0, # of connection points: 2
#     Edge 34, Type (0, 0), BuildingBlock: XIVTED_clean_linker_0, # of connection points: 2
#     Edge 35, Type (0, 0), BuildingBlock: XIVTED_clean_linker_0, # of connection points: 2
#     Edge 36, Type (0, 0), BuildingBlock: XIVTED_clean_linker_0, # of connection points: 2
#     Edge 37, Type (0, 0), BuildingBlock: XIVTED_clean_linker_0, # of connection points: 2
#     Edge 38, Type (0, 0), BuildingBlock: XIVTED_clean_linker_0, # of connection points: 2
#     Edge 39, Type (0, 0), BuildingBlock: XIVTED_clean_linker_0, # of connection points: 2
#     Edge 40, Type (0, 0), BuildingBlock: XIVTED_clean_linker_0, # of connection points: 2
#     Edge 41, Type (0, 0), BuildingBlock: XIVTED_clean_linker_0, # of connection points: 2
#     Edge 42, Type (0, 0), BuildingBlock: XIVTED_clean_linker_0, # of connection points: 2
#     Edge 43, Type (0, 0), BuildingBlock: XIVTED_clean_linker_0, # of connection points: 2
#     Edge 44, Type (0, 0), BuildingBlock: XIVTED_clean_linker_0, # of connection points: 2
#     Edge 45, Type (0, 0), BuildingBlock: XIVTED_clean_linker_0, # of connection points: 2
#     Edge 46, Type (0, 0), BuildingBlock: XIVTED_clean_linker_0, # of connection points: 2
#     Edge 47, Type (0, 0), BuildingBlock: XIVTED_clean_linker_0, # of connection points: 2
#     Edge 48, Type (0, 0), BuildingBlock: XIVTED_clean_linker_0, # of connection points: 2
#     Edge 49, Type (0, 0), BuildingBlock: XIVTED_clean_linker_0, # of connection points: 2
#     Edge 50, Type (0, 0), BuildingBlock: XIVTED_clean_linker_0, # of connection points: 2
#     Edge 51, Type (0, 0), BuildingBlock: XIVTED_clean_linker_0, # of connection points: 2
#     Edge 52, Type (0, 0), BuildingBlock: XIVTED_clean_linker_0, # of connection points: 2
#     Edge 53, Type (0, 0), BuildingBlock: XIVTED_clean_linker_0, # of connection points: 2
#     Edge 54, Type (0, 0), BuildingBlock: XIVTED_clean_linker_0, # of connection points: 2
#     Edge 55, Type (0, 0), BuildingBlock: XIVTED_clean_linker_0, # of connection points: 2
#     Edge 56, Type (0, 0), BuildingBlock: XIVTED_clean_linker_0, # of connection points: 2
#     Edge 57, Type (0, 0), BuildingBlock: XIVTED_clean_linker_0, # of connection points: 2
#     Edge 58, Type (0, 0), BuildingBlock: XIVTED_clean_linker_0, # of connection points: 2
#     Edge 59, Type (0, 0), BuildingBlock: XIVTED_clean_linker_0, # of connection points: 2
#     Edge 60, Type (0, 0), BuildingBlock: XIVTED_clean_linker_0, # of connection points: 2
#     Edge 61, Type (0, 0), BuildingBlock: XIVTED_clean_linker_0, # of connection points: 2
#     Edge 62, Type (0, 0), BuildingBlock: XIVTED_clean_linker_0, # of connection points: 2
#     Edge 63, Type (0, 0), BuildingBlock: XIVTED_clean_linker_0, # of connection points: 2
#     Edge 64, Type (0, 0), BuildingBlock: XIVTED_clean_linker_0, # of connection points: 2
#     Edge 65, Type (0, 0), BuildingBlock: XIVTED_clean_linker_0, # of connection points: 2
#     Edge 66, Type (0, 0), BuildingBlock: XIVTED_clean_linker_0, # of connection points: 2
#     Edge 67, Type (0, 0), BuildingBlock: XIVTED_clean_linker_0, # of connection points: 2
#     Edge 68, Type (0, 0), BuildingBlock: XIVTED_clean_linker_0, # of connection points: 2
#     Edge 69, Type (0, 0), BuildingBlock: XIVTED_clean_linker_0, # of connection points: 2
#     Edge 70, Type (0, 0), BuildingBlock: XIVTED_clean_linker_0, # of connection points: 2
#     Edge 71, Type (0, 0), BuildingBlock: XIVTED_clean_linker_0, # of connection points: 2
#     Edge 72, Type (0, 0), BuildingBlock: XIVTED_clean_linker_0, # of connection points: 2
#     Edge 73, Type (0, 0), BuildingBlock: XIVTED_clean_linker_0, # of connection points: 2
#     Edge 74, Type (0, 0), BuildingBlock: XIVTED_clean_linker_0, # of connection points: 2
#     Edge 75, Type (0, 0), BuildingBlock: XIVTED_clean_linker_0, # of connection points: 2
#     Edge 76, Type (0, 0), BuildingBlock: XIVTED_clean_linker_0, # of connection points: 2
#     Edge 77, Type (0, 0), BuildingBlock: XIVTED_clean_linker_0, # of connection points: 2
#     Edge 78, Type (0, 0), BuildingBlock: XIVTED_clean_linker_0, # of connection points: 2
#     Edge 79, Type (0, 0), BuildingBlock: XIVTED_clean_linker_0, # of connection points: 2
#     Edge 80, Type (0, 0), BuildingBlock: XIVTED_clean_linker_0, # of connection points: 2
#     Edge 81, Type (0, 0), BuildingBlock: XIVTED_clean_linker_0, # of connection points: 2
#     Edge 82, Type (0, 0), BuildingBlock: XIVTED_clean_linker_0, # of connection points: 2
#     Edge 83, Type (0, 0), BuildingBlock: XIVTED_clean_linker_0, # of connection points: 2
#     Edge 84, Type (0, 0), BuildingBlock: XIVTED_clean_linker_0, # of connection points: 2
#     Edge 85, Type (0, 0), BuildingBlock: XIVTED_clean_linker_0, # of connection points: 2
#     Edge 86, Type (0, 0), BuildingBlock: XIVTED_clean_linker_0, # of connection points: 2
#     Edge 87, Type (0, 0), BuildingBlock: XIVTED_clean_linker_0, # of connection points: 2
#     Edge 88, Type (0, 0), BuildingBlock: XIVTED_clean_linker_0, # of connection points: 2
#     Edge 89, Type (0, 0), BuildingBlock: XIVTED_clean_linker_0, # of connection points: 2
#     Edge 90, Type (0, 0), BuildingBlock: XIVTED_clean_linker_0, # of connection points: 2
#     Edge 91, Type (0, 0), BuildingBlock: XIVTED_clean_linker_0, # of connection points: 2
#     Edge 92, Type (0, 0), BuildingBlock: XIVTED_clean_linker_0, # of connection points: 2
#     Edge 93, Type (0, 0), BuildingBlock: XIVTED_clean_linker_0, # of connection points: 2
#     Edge 94, Type (0, 0), BuildingBlock: XIVTED_clean_linker_0, # of connection points: 2
#     Edge 95, Type (0, 0), BuildingBlock: XIVTED_clean_linker_0, # of connection points: 2
# Relax obj value: 0.005
# Max RMSD: 0.021
# Mean RMSD: 0.020
data_MOF--net-vba--node1-ESEHIV_clean_sbu_0--edge1-XIVTED_clean_linker_0
_symmetry_space_group_name_H-M    P1
_symmetry_Int_Tables_number       1
_symmetry_cell_setting            triclinic
loop_
_symmetry_equiv_pos_as_xyz
'x, y, z'
_cell_length_a     25.062544
_cell_length_b     115.36026
_cell_length_c     53.214823
_cell_angle_alpha  89.952245
_cell_angle_beta   90.054439
_cell_angle_gamma 89.866361
loop_
_atom_site_label
_atom_site_type_symbol
_atom_site_fract_x
_atom_site_fract_y
_atom_site_fract_z
_atom_type_partial_charge
Cu0 Cu 0.31407 0.08663 1.00607 0.0
N1 N 0.24463 0.0924 1.00042 0.0
N2 N 0.18591 0.10719 0.99852 0.0
C3 C 0.23774 0.10397 0.99834 0.0
C4 C 0.15878 0.09711 1.00082 0.0
C5 C 0.19511 0.088 1.00207 0.0
O6 O 0.32039 0.09001 0.04204 0.0
C7 C 0.33281 0.09226 0.9585 0.0
O8 O 0.29428 0.08456 0.95806 0.0
H9 H 0.27087 0.10996 0.99832 0.0
H10 H 0.18607 0.07895 1.00519 0.0
N11 N 0.33147 0.0707 1.00138 0.0
N12 N 0.38352 0.05466 1.00048 0.0
C13 C 0.38056 0.06616 1.00573 0.0
C14 C 0.30208 0.06176 0.99299 0.0
C15 C 0.33384 0.05191 0.99248 0.0
C16 C 0.29225 0.08291 0.05488 0.0
O17 O 0.26996 0.07412 0.04332 0.0
H18 H 0.41343 0.07128 1.01277 0.0
H19 H 0.26063 0.06237 0.98745 0.0
O20 O 0.35385 0.09481 0.97974 0.0
H21 H 0.11588 0.09634 1.00222 0.0
H22 H 0.32124 0.04343 0.98621 0.0
Cu23 Cu 0.94513 0.21127 0.03338 0.0
N24 N 1.01071 0.20523 0.02193 0.0
N25 N 0.06324 0.19007 1.01176 0.0
C26 C 0.01994 0.19377 0.0246 0.0
C27 C 0.08273 0.19977 1.0008 0.0
C28 C 0.05011 0.2091 1.00699 0.0
O29 O 0.95189 0.20924 0.07006 0.0
C30 C 0.90594 0.20465 0.98933 0.0
O31 O 0.93844 0.21327 0.98442 0.0
H32 H 0.99348 0.1882 0.03512 0.0
H33 H 0.05321 0.21786 0.99988 0.0
N34 N 0.92588 0.22697 0.0268 0.0
N35 N 0.87227 0.24265 0.02279 0.0
C36 C 0.87576 0.23128 0.02918 0.0
C37 C 0.95528 0.23593 0.01849 0.0
C38 C 0.92257 0.24556 0.01608 0.0
C39 C 0.98638 0.21622 0.07931 0.0
O40 O 1.00765 0.22395 0.06423 0.0
H41 H 0.84252 0.22611 0.03562 0.0
H42 H 0.99744 0.23548 0.01427 0.0
O43 O 0.89708 0.20201 1.01234 0.0
H44 H 0.11645 0.20007 0.98814 0.0
H45 H 0.93497 0.25399 1.00942 0.0
Cu46 Cu 0.32059 0.20801 0.25394 0.0
N47 N 0.33316 0.19221 0.24709 0.0
N48 N 0.3202 0.17293 0.24768 0.0
C49 C 0.30841 0.18324 0.25849 0.0
C50 C 0.35469 0.17553 0.22902 0.0
C51 C 0.36243 0.1874 0.22864 0.0
O52 O 0.25554 0.21238 0.23504 0.0
C53 C 0.30656 0.21788 0.30372 0.0
O54 O 0.29789 0.22787 0.29255 0.0
H55 H 0.28099 0.18432 0.27401 0.0
H56 H 0.38606 0.19221 0.21524 0.0
N57 N 0.37718 0.2176 0.24233 0.0
N58 N 0.4395 0.2316 0.23852 0.0
C59 C 0.40947 0.22518 0.25463 0.0
C60 C 0.38776 0.21929 0.21782 0.0
C61 C 0.42573 0.22783 0.21542 0.0
C62 C 0.21431 0.20593 0.23309 0.0
O63 O 0.21116 0.19655 0.24696 0.0
H64 H 0.4092 0.22636 0.27481 0.0
H65 H 0.36765 0.21486 0.20262 0.0
O66 O 0.31467 0.20888 0.29045 0.0
H67 H 0.37116 0.16938 0.21577 0.0
H68 H 0.44151 0.23115 0.19791 0.0
Cu69 Cu 0.01694 0.07647 0.25127 0.0
N70 N 0.07862 0.08251 0.26673 0.0
N71 N 0.14071 0.09625 0.273 0.0
C72 C 0.09014 0.09393 0.26576 0.0
C73 C 0.16186 0.08582 0.27896 0.0
C74 C 0.12356 0.07737 0.27506 0.0
O75 O 0.03312 0.07911 0.21559 0.0
C76 C 0.95734 0.0828 0.29076 0.0
O77 O 0.99758 0.07714 0.3008 0.0
H78 H 0.06298 0.10031 0.25803 0.0
H79 H 0.12937 0.06812 0.27671 0.0
N80 N 1.00009 0.06064 0.25681 0.0
N81 N 0.94721 0.04493 0.2606 0.0
C82 C 0.95019 0.0563 0.25437 0.0
C83 C 0.02987 0.05168 0.26504 0.0
C84 C 0.99758 0.04202 0.26725 0.0
C85 C 0.07244 0.07289 0.20829 0.0
O86 O 0.09025 0.06484 0.22366 0.0
H87 H 0.91661 0.06148 0.24818 0.0
H88 H 0.07189 0.05213 0.26946 0.0
O89 O 0.95659 0.08435 0.26699 0.0
H90 H 0.20263 0.08433 0.28487 0.0
H91 H 1.01018 0.03357 0.27386 0.0
Cu92 Cu 0.78337 0.9714 1.01305 0.0
N93 N 0.85431 0.96727 0.02109 0.0
N94 N 0.92161 0.95434 0.02274 0.0
C95 C 0.86823 0.95597 0.0223 0.0
C96 C 0.94232 0.96515 0.02193 0.0
C97 C 0.90076 0.97311 0.02087 0.0
O98 O 0.78311 0.96703 0.97747 0.0
C99 C 0.75793 0.96511 0.06015 0.0
O100 O 0.79471 0.97311 0.06283 0.0
H101 H 0.83937 0.94904 0.02087 0.0
H102 H 0.90441 0.98238 0.01845 0.0
N103 N 0.76169 0.98716 0.01625 0.0
N104 N 0.70776 1.00291 0.01612 0.0
C105 C 0.71234 0.9914 1.01106 0.0
C106 C 0.78929 0.99628 0.02503 0.0
C107 C 0.75647 1.00593 0.02491 0.0
C108 C 0.81606 0.97334 0.96529 0.0
O109 O 0.83446 0.98271 0.97628 0.0
H110 H 0.68043 0.98609 1.00372 0.0
H111 H 0.83019 0.99591 0.03147 0.0
O112 O 0.74214 0.96266 0.03791 0.0
H113 H 0.98441 0.96718 0.02118 0.0
H114 H 0.7676 1.01447 0.03141 0.0
Cu115 Cu 0.08671 0.84081 1.00259 0.0
N116 N 0.099 0.85664 0.99556 0.0
N117 N 0.08728 0.87601 0.99639 0.0
C118 C 0.07606 0.86572 1.00752 0.0
C119 C 0.1194 0.87324 0.97689 0.0
C120 C 0.12639 0.86135 0.9764 0.0
O121 O 0.02219 0.83619 0.98349 0.0
C122 C 0.04038 0.83911 0.05286 0.0
O123 O 0.99359 0.83757 0.04226 0.0
H124 H 0.05011 0.8647 0.0236 0.0
H125 H 0.14822 0.85646 0.96244 0.0
N126 N 0.14385 0.83121 0.99125 0.0
N127 N 0.20546 0.81697 0.98758 0.0
C128 C 0.17426 0.82321 1.00356 0.0
C129 C 0.15674 0.82993 0.96688 0.0
C130 C 0.19429 0.82125 0.96457 0.0
C131 C 0.98344 0.84305 0.97834 0.0
O132 O 0.98197 0.8533 0.98899 0.0
H133 H 0.17168 0.82162 0.02357 0.0
H134 H 0.1384 0.83471 0.95164 0.0
O135 O 0.08195 0.83993 0.03922 0.0
H136 H 0.13481 0.87929 0.96316 0.0
H137 H 0.21147 0.81818 0.94713 0.0
Cu138 Cu 0.7283 0.83186 0.77519 0.0
N139 N 0.79345 0.83804 0.76347 0.0
N140 N 0.8485 0.85271 0.75358 0.0
C141 C 0.80488 0.84939 0.76658 0.0
C142 C 0.86566 0.843 0.7419 0.0
C143 C 0.83184 0.83395 0.74814 0.0
O144 O 0.73336 0.83451 0.81178 0.0
C145 C 0.68552 0.83769 0.7307 0.0
O146 O 0.72555 0.83078 0.72527 0.0
H147 H 0.77951 0.85526 0.77702 0.0
H148 H 0.83353 0.8252 0.74088 0.0
N149 N 0.7131 0.81594 0.76974 0.0
N150 N 0.66259 0.79982 0.7664 0.0
C151 C 0.66384 0.81127 0.7722 0.0
C152 C 0.74434 0.80715 0.76199 0.0
C153 C 0.71351 0.79725 0.76 0.0
C154 C 0.76865 0.82801 0.82213 0.0
O155 O 0.79223 0.82016 0.80811 0.0
H156 H 0.62955 0.81626 0.77821 0.0
H157 H 0.78642 0.80789 0.75785 0.0
O158 O 0.67539 0.83978 0.75387 0.0
H159 H 0.89943 0.84253 0.72927 0.0
H160 H 0.72761 0.78886 0.7538 0.0
Cu161 Cu 0.06778 0.96095 0.76087 0.0
N162 N 0.01541 0.95163 0.74515 0.0
N163 N 0.96996 0.93518 0.73792 0.0
C164 C 1.0059 0.94064 0.75266 0.0
C165 C 0.95606 0.94309 0.72034 0.0
C166 C 0.98387 0.95325 0.72493 0.0
O167 O 0.05211 0.95951 0.79687 0.0
C168 C 0.13613 0.95748 0.72335 0.0
O169 O 0.09333 0.96188 0.71277 0.0
H170 H 0.02636 0.93661 0.76833 0.0
H171 H 0.98199 0.96115 0.71401 0.0
N172 N 0.07139 0.97696 0.75362 0.0
N173 N 0.11403 0.99402 0.74907 0.0
C174 C 0.11727 0.98289 0.75695 0.0
C175 C 0.03721 0.98462 0.74333 0.0
C176 C 0.06333 0.99516 0.74061 0.0
C177 C 1.00308 0.96164 0.80178 0.0
O178 O 0.9717 0.96493 0.78329 0.0
H179 H 0.15275 0.97896 0.76485 0.0
H180 H 0.9968 0.98264 0.73766 0.0
O181 O 0.13575 0.95555 0.74702 0.0
H182 H 0.92782 0.94164 0.70527 0.0
H183 H 0.04662 1.00293 0.73232 0.0
Cu184 Cu 0.2858 0.58216 0.50343 0.0
N185 N 0.22458 0.58725 0.48623 0.0
N186 N 0.17007 0.60182 0.47451 0.0
C187 C 0.19975 0.59714 0.49317 0.0
C188 C 0.1762 0.59446 0.45495 0.0
C189 C 0.21012 0.58556 0.46215 0.0
O190 O 0.26783 0.58511 0.53909 0.0
C191 C 0.37509 0.58724 0.4717 0.0
O192 O 0.39283 0.57683 0.47705 0.0
H193 H 0.20843 0.60151 0.51068 0.0
H194 H 0.22716 0.57905 0.44993 0.0
N195 N 0.30435 0.56626 0.49976 0.0
N196 N 0.35583 0.55017 0.50142 0.0
C197 C 0.34621 0.56088 0.51101 0.0
C198 C 0.28591 0.55857 0.48291 0.0
C199 C 0.31725 0.5487 0.48391 0.0
C200 C 0.22376 0.58044 0.54588 0.0
O201 O 0.19887 0.5738 0.52961 0.0
H202 H 0.37097 0.56508 0.52493 0.0
H203 H 0.25374 0.56024 0.46984 0.0
O204 O 0.3389 0.59171 0.48561 0.0
H205 H 0.16027 0.59579 0.43626 0.0
H206 H 0.31354 0.54131 0.47156 0.0
Cu207 Cu 0.9473 0.70829 0.51254 0.0
N208 N 0.99199 0.69969 0.49113 0.0
N209 N 0.03542 0.68381 0.47754 0.0
C210 C 1.00637 0.68865 0.49621 0.0
C211 C 0.03988 0.69226 0.46004 0.0
C212 C 0.01322 0.70205 0.46849 0.0
O213 O 0.98474 0.70978 0.54524 0.0
C214 C 0.85223 0.69564 0.49842 0.0
O215 O 0.80899 0.68985 0.50433 0.0
H216 H 0.99354 0.68413 0.51297 0.0
H217 H 1.00838 0.71015 0.45851 0.0
N218 N 0.92371 0.72299 0.50101 0.0
N219 N 0.87119 0.73883 0.49707 0.0
C220 C 0.87628 0.72799 0.50678 0.0
C221 C 0.94957 0.73091 0.48708 0.0
C222 C 0.91748 0.74062 0.48461 0.0
C223 C 0.03575 0.71014 0.54673 0.0
O224 O 0.06378 0.71001 0.52589 0.0
H225 H 0.84665 0.72384 0.51848 0.0
H226 H 0.98931 0.72978 0.47955 0.0
O227 O 0.88313 0.69902 0.51609 0.0
H228 H 0.06044 0.69145 0.44226 0.0
H229 H 0.9277 0.74841 0.47436 0.0
Cu230 Cu 0.28458 0.71403 0.75659 0.0
N231 N 0.22442 0.70622 0.76938 0.0
N232 N 0.18011 0.68995 0.77947 0.0
C233 C 0.22488 0.69454 0.76959 0.0
C234 C 0.14965 0.69922 0.78561 0.0
C235 C 0.17719 0.70928 0.77943 0.0
O236 O 0.27485 0.71179 0.71998 0.0
C237 C 0.32906 0.70889 0.80055 0.0
O238 O 0.28768 0.7155 0.80557 0.0
H239 H 0.25784 0.68952 0.76223 0.0
H240 H 0.16384 0.71811 0.78219 0.0
N241 N 0.29569 0.73006 0.76243 0.0
N242 N 0.34434 0.74641 0.76631 0.0
C243 C 0.34424 0.73504 0.75996 0.0
C244 C 0.2635 0.73858 0.77071 0.0
C245 C 0.29325 0.74866 0.77301 0.0
C246 C 0.23152 0.71672 0.71276 0.0
O247 O 0.20578 0.72309 0.72925 0.0
H248 H 0.37899 0.73029 0.75365 0.0
H249 H 0.22172 0.73752 0.77519 0.0
O250 O 0.34044 0.70682 0.77746 0.0
H251 H 0.11061 0.69882 0.79423 0.0
H252 H 0.27844 0.75691 0.77973 0.0
Cu253 Cu 0.99732 0.58094 0.76027 0.0
N254 N 0.05925 0.58843 0.77211 0.0
N255 N 0.10521 0.60461 0.78123 0.0
C256 C 0.05943 0.6001 0.77222 0.0
C257 C 0.13573 0.59527 0.78691 0.0
C258 C 0.10714 0.58527 0.78136 0.0
O259 O 1.00249 0.58412 0.72381 0.0
C260 C 0.95925 0.58518 0.80587 0.0
O261 O 0.99942 0.57795 0.80873 0.0
H262 H 0.02615 0.6052 0.76537 0.0
H263 H 0.12028 0.57641 0.78394 0.0
N264 N 0.98605 0.56479 0.76451 0.0
N265 N 0.93721 0.54842 0.76786 0.0
C266 C 0.93686 0.56 0.76341 0.0
C267 C 0.01918 0.55594 0.76985 0.0
C268 C 0.9893 0.54586 0.77186 0.0
C269 C 0.0466 0.58015 0.71505 0.0
O270 O 0.07681 0.5739 0.73005 0.0
H271 H 0.90138 0.56502 0.75938 0.0
H272 H 0.06181 0.55675 0.77246 0.0
O273 O 0.94512 0.58792 0.78344 0.0
H274 H 0.17552 0.5956 0.79479 0.0
H275 H 1.00492 0.53737 0.77646 0.0
Cu276 Cu 0.75629 0.46804 0.52365 0.0
N277 N 0.82107 0.46343 0.53857 0.0
N278 N 0.87696 0.44906 0.54972 0.0
C279 C 0.84007 0.4528 0.5331 0.0
C280 C 0.88193 0.45782 0.5664 0.0
C281 C 0.8474 0.4667 0.55946 0.0
O282 O 0.76944 0.46426 0.48813 0.0
C283 C 0.70747 0.46259 0.56673 0.0
O284 O 0.73184 0.47241 0.57154 0.0
H285 H 0.82294 0.44742 0.51853 0.0
H286 H 0.83909 0.47449 0.57007 0.0
N287 N 0.73484 0.48381 0.52592 0.0
N288 N 0.68049 0.49946 0.52518 0.0
C289 C 0.68462 0.48781 0.52204 0.0
C290 C 0.76371 0.49324 0.53171 0.0
C291 C 0.73055 0.50284 0.53126 0.0
C292 C 0.81132 0.46939 0.48005 0.0
O293 O 0.83429 0.47703 0.49481 0.0
H294 H 0.65165 0.48218 0.51734 0.0
H295 H 0.80591 0.49314 0.53599 0.0
O296 O 0.70696 0.45888 0.5441 0.0
H297 H 0.90658 0.4576 0.5831 0.0
H298 H 0.74291 0.51166 0.53492 0.0
Cu299 Cu 0.06753 0.34021 0.51703 0.0
N300 N 0.02256 0.34879 0.53828 0.0
N301 N 0.98476 0.36537 0.55155 0.0
C302 C 1.00846 0.35973 0.53231 0.0
C303 C 0.98367 0.35757 0.57053 0.0
C304 C 1.00702 0.34734 0.56228 0.0
O305 O 0.03207 0.33897 0.48392 0.0
C306 C 0.15354 0.35513 0.53314 0.0
O307 O 0.19243 0.36238 0.52812 0.0
H308 H 0.01891 0.36371 0.51457 0.0
H309 H 0.01496 0.3397 0.57348 0.0
N310 N 0.09003 0.32537 0.52791 0.0
N311 N 0.14276 0.30959 0.53204 0.0
C312 C 0.13549 0.31998 0.52056 0.0
C313 C 0.06733 0.3181 0.54449 0.0
C314 C 0.09958 0.30842 0.54709 0.0
C315 C 0.98159 0.33759 0.48191 0.0
O316 O 0.95296 0.33671 0.50249 0.0
H317 H 0.16282 0.32373 0.50711 0.0
H318 H 0.03032 0.31978 0.55428 0.0
O319 O 0.13087 0.34986 0.51486 0.0
H320 H 0.96863 0.35921 0.58924 0.0
H321 H 0.09207 0.30121 0.55959 0.0
Cu322 Cu 0.75814 0.32837 0.26622 0.0
N323 N 0.81721 0.33666 0.25337 0.0
N324 N 0.86323 0.35289 0.24453 0.0
C325 C 0.81713 0.34836 0.25323 0.0
C326 C 0.89386 0.34357 0.23895 0.0
C327 C 0.86534 0.33357 0.24434 0.0
O328 O 0.76483 0.3313 0.30283 0.0
C329 C 0.71038 0.33298 0.22226 0.0
O330 O 0.75438 0.32736 0.21655 0.0
H331 H 0.7839 0.35345 0.26012 0.0
H332 H 0.879 0.32473 0.24215 0.0
N333 N 0.75318 0.31208 0.2611 0.0
N334 N 0.71277 0.29466 0.25793 0.0
C335 C 0.70624 0.30631 0.2594 0.0
C336 C 0.7909 0.30375 0.26043 0.0
C337 C 0.76616 0.29304 0.25861 0.0
C338 C 0.81029 0.32784 0.31105 0.0
O339 O 0.84132 0.32214 0.29549 0.0
H340 H 0.66779 0.31059 0.25998 0.0
H341 H 0.83337 0.30529 0.26156 0.0
O342 O 0.69961 0.33462 0.24554 0.0
H343 H 0.93395 0.34392 0.23146 0.0
H344 H 0.78605 0.28472 0.25776 0.0
Cu345 Cu 0.04997 0.46309 0.2704 0.0
N346 N 0.9972 0.45418 0.25398 0.0
N347 N 0.95565 0.43761 0.24341 0.0
C348 C 0.9976 0.44249 0.25532 0.0
C349 C 0.92754 0.44668 0.23412 0.0
C350 C 0.95332 0.45688 0.24059 0.0
O351 O 0.03682 0.46024 0.30632 0.0
C352 C 0.11245 0.46128 0.23038 0.0
O353 O 0.06883 0.46644 0.22245 0.0
H354 H 0.02774 0.4377 0.26557 0.0
H355 H 0.94056 0.46561 0.23614 0.0
N356 N 0.05259 0.47937 0.26633 0.0
N357 N 0.09395 0.49672 0.2653 0.0
C358 C 0.09809 0.48529 0.27077 0.0
C359 C 0.01773 0.48734 0.2578 0.0
C360 C 0.04305 0.49804 0.25723 0.0
C361 C 0.98841 0.46255 0.31221 0.0
O362 O 0.95681 0.46679 0.29476 0.0
H363 H 0.13389 0.48114 0.27776 0.0
H364 H 0.97732 0.4855 0.25192 0.0
O365 O 0.11561 0.45822 0.25347 0.0
H366 H 0.89101 0.44602 0.22336 0.0
H367 H 0.02556 0.50608 0.25069 0.0
Cu368 Cu 0.80854 0.08719 0.50724 0.0
N369 N 0.8229 0.1029 0.51409 0.0
N370 N 0.80865 0.12219 0.51459 0.0
C371 C 0.78713 0.11156 0.51082 0.0
C372 C 0.86024 0.12005 0.52053 0.0
C373 C 0.8689 0.10819 0.52014 0.0
O374 O 0.74139 0.08437 0.52531 0.0
C375 C 0.7917 0.07906 0.45528 0.0
O376 O 0.77734 0.06884 0.46375 0.0
H377 H 0.7465 0.11006 0.50479 0.0
H378 H 0.90644 0.10379 0.52337 0.0
N379 N 0.86405 0.077 0.5182 0.0
N380 N 0.91999 0.06167 0.52233 0.0
C381 C 0.88119 0.0668 0.50822 0.0
C382 C 0.89316 0.07833 0.53923 0.0
C383 C 0.92739 0.06902 0.54178 0.0
C384 C 0.73309 0.0759 0.54018 0.0
O385 O 0.76813 0.06743 0.54125 0.0
H386 H 0.86463 0.06309 0.49128 0.0
H387 H 0.88925 0.08555 0.55207 0.0
O388 O 0.80342 0.08709 0.47069 0.0
H389 H 0.88994 0.12657 0.52469 0.0
H390 H 0.95575 0.06785 0.55691 0.0
Cu391 Cu 0.5079 0.22036 0.51722 0.0
N392 N 0.56924 0.21396 0.50198 0.0
N393 N 0.62997 0.19987 0.49539 0.0
C394 C 0.58217 0.2027 0.50545 0.0
C395 C 0.64782 0.20985 0.485 0.0
C396 C 0.6103 0.21851 0.48907 0.0
O397 O 0.51827 0.21586 0.55249 0.0
C398 C 0.44886 0.21879 0.47539 0.0
O399 O 0.48744 0.22599 0.46956 0.0
H400 H 0.55763 0.19683 0.51628 0.0
H401 H 0.61354 0.22752 0.48364 0.0
N402 N 0.49712 0.23665 0.51646 0.0
N403 N 0.44993 0.25334 0.51762 0.0
C404 C 0.44873 0.24163 0.51985 0.0
C405 C 0.53053 0.24551 0.51191 0.0
C406 C 0.50167 0.25577 0.51263 0.0
C407 C 0.56325 0.21954 0.5606 0.0
O408 O 0.59115 0.22644 0.54602 0.0
H409 H 0.41303 0.23663 0.52332 0.0
H410 H 0.57273 0.2446 0.50818 0.0
O411 O 0.44833 0.2143 0.49737 0.0
H412 H 0.6855 0.21088 0.47537 0.0
H413 H 0.51794 0.26435 0.50979 0.0
Cu414 Cu 0.78953 0.21197 0.77195 0.0
N415 N 0.72439 0.20583 0.78354 0.0
N416 N 0.67306 0.19008 0.78925 0.0
C417 C 0.70825 0.19554 0.77422 0.0
C418 C 0.66607 0.19732 0.80893 0.0
C419 C 0.69774 0.20704 0.80536 0.0
O420 O 0.78331 0.20904 0.7357 0.0
C421 C 0.83617 0.20703 0.81635 0.0
O422 O 0.81014 0.2167 0.82072 0.0
H423 H 0.72686 0.19151 0.75807 0.0
H424 H 0.70455 0.21388 0.81886 0.0
N425 N 0.80457 0.22802 0.7758 0.0
N426 N 0.85257 0.24456 0.77535 0.0
C427 C 0.85267 0.23295 0.77133 0.0
C428 C 0.77274 0.23681 0.78295 0.0
C429 C 0.80205 0.24698 0.78267 0.0
C430 C 0.741 0.21393 0.72725 0.0
O431 O 0.71389 0.22071 0.74243 0.0
H432 H 0.88694 0.22805 0.76495 0.0
H433 H 0.7312 0.2359 0.78807 0.0
O434 O 0.83863 0.2033 0.79374 0.0
H435 H 0.64246 0.19542 0.82544 0.0
H436 H 0.78719 0.25546 0.78782 0.0
Cu437 Cu 0.47847 0.0836 0.74215 0.0
N438 N 0.54333 0.09022 0.75287 0.0
N439 N 0.59109 0.10587 0.76407 0.0
C440 C 0.55131 0.10169 0.74958 0.0
C441 C 0.6096 0.09657 0.77687 0.0
C442 C 0.58016 0.08692 0.76991 0.0
O443 O 0.48089 0.08519 0.70529 0.0
C444 C 0.43869 0.09026 0.78614 0.0
O445 O 0.47373 0.08215 0.79146 0.0
H446 H 0.52477 0.10707 0.73851 0.0
H447 H 0.58252 0.0784 0.77833 0.0
N448 N 0.46428 0.06779 0.74953 0.0
N449 N 0.41667 0.0513 0.753 0.0
C450 C 0.41636 0.06262 0.74614 0.0
C451 C 0.49617 0.05946 0.75895 0.0
C452 C 0.4671 0.04933 0.76107 0.0
C453 C 0.51355 0.07798 0.69538 0.0
O454 O 0.53818 0.07059 0.71019 0.0
H455 H 0.38207 0.06713 0.73851 0.0
H456 H 0.53762 0.06065 0.76394 0.0
O457 O 0.42835 0.09242 0.76303 0.0
H458 H 0.64036 0.09681 0.79115 0.0
H459 H 0.48208 0.04119 0.76835 0.0
Cu460 Cu 0.22361 0.95982 0.50427 0.0
N461 N 0.20295 0.94422 0.49979 0.0
N462 N 0.20909 0.92475 0.50076 0.0
C463 C 0.23483 0.93496 0.50406 0.0
C464 C 0.15886 0.92779 0.49415 0.0
C465 C 0.15515 0.93975 0.49369 0.0
O466 O 0.28723 0.96214 0.48303 0.0
C467 C 0.25531 0.96819 0.55472 0.0
O468 O 0.26693 0.97845 0.54554 0.0
H469 H 0.27622 0.93575 0.50958 0.0
H470 H 0.11973 0.9448 0.48974 0.0
N471 N 0.16856 0.97048 0.49504 0.0
N472 N 0.1138 0.98606 0.49186 0.0
C473 C 0.15312 0.98074 0.50536 0.0
C474 C 0.13786 0.96932 0.47447 0.0
C475 C 0.10433 0.97876 0.47252 0.0
C476 C 0.28761 0.9574 0.46131 0.0
O477 O 0.24487 0.9518 0.45384 0.0
H478 H 0.1712 0.98437 0.52206 0.0
H479 H 0.14016 0.96213 0.46149 0.0
O480 O 0.23843 0.96024 0.54021 0.0
H481 H 0.12648 0.92183 0.49058 0.0
H482 H 0.07499 0.98006 0.45786 0.0
Cu483 Cu 0.49422 0.82652 0.51701 0.0
N484 N 0.42284 0.8309 0.52229 0.0
N485 N 0.35764 0.84434 0.52148 0.0
C486 C 0.41005 0.84219 0.52532 0.0
C487 C 0.33644 0.83387 0.51594 0.0
C488 C 0.37677 0.82562 0.5163 0.0
O489 O 0.5015 0.83157 0.48198 0.0
C490 C 0.51434 0.83196 0.56573 0.0
O491 O 0.47402 0.82472 0.56697 0.0
H492 H 0.43988 0.84885 0.52787 0.0
H493 H 0.37342 0.81666 0.51056 0.0
N494 N 0.51208 0.81052 0.51979 0.0
N495 N 0.56154 0.7941 0.51881 0.0
C496 C 0.55979 0.80566 0.5139 0.0
C497 C 0.48255 0.80176 0.52886 0.0
C498 C 0.51264 0.7917 0.52825 0.0
C499 C 0.48116 0.82454 0.46608 0.0
O500 O 0.46738 0.81416 0.47371 0.0
H501 H 0.59252 0.81059 0.50613 0.0
H502 H 0.44219 0.80265 0.53578 0.0
O503 O 0.53334 0.8344 0.54404 0.0
H504 H 0.29534 0.83234 0.5107 0.0
H505 H 0.49942 0.78331 0.53482 0.0
Cu506 Cu 0.20769 0.83428 0.26699 0.0
N507 N 0.26526 0.84152 0.25053 0.0
N508 N 0.31472 0.85719 0.24127 0.0
C509 C 0.28247 0.85202 0.2582 0.0
C510 C 0.31836 0.84956 0.2221 0.0
C511 C 0.28788 0.83989 0.22786 0.0
O512 O 0.2265 0.83619 0.30274 0.0
C513 C 0.14025 0.83798 0.22844 0.0
O514 O 0.17347 0.83008 0.2201 0.0
H515 H 0.268 0.85619 0.2751 0.0
H516 H 0.28022 0.83257 0.2157 0.0
N517 N 0.19496 0.81821 0.26229 0.0
N518 N 0.14551 0.8019 0.26161 0.0
C519 C 0.14836 0.81316 0.26877 0.0
C520 C 0.22315 0.80986 0.25066 0.0
C521 C 0.19292 0.79981 0.25029 0.0
C522 C 0.26943 0.83051 0.30724 0.0
O523 O 0.29062 0.82456 0.28869 0.0
H524 H 0.11676 0.81782 0.27821 0.0
H525 H 0.2621 0.81108 0.24234 0.0
O526 O 0.1459 0.84176 0.25093 0.0
H527 H 0.33989 0.85102 0.20477 0.0
H528 H 0.20453 0.79173 0.24154 0.0
Cu529 Cu 0.56192 0.96043 0.27137 0.0
N530 N 0.49471 0.95434 0.2625 0.0
N531 N 0.43847 0.93958 0.25502 0.0
C532 C 0.48427 0.94298 0.26613 0.0
C533 C 0.41882 0.94926 0.24403 0.0
C534 C 0.45343 0.95837 0.24879 0.0
O535 O 0.56524 0.95674 0.30748 0.0
C536 C 0.5958 0.95489 0.225 0.0
O537 O 0.55398 0.96155 0.2213 0.0
H538 H 0.51177 0.93715 0.27549 0.0
H539 H 0.45017 0.96711 0.24157 0.0
N540 N 0.5758 0.97638 0.26624 0.0
N541 N 0.62651 0.99242 0.26254 0.0
C542 C 0.62563 0.98084 0.26682 0.0
C543 C 0.54358 0.98544 0.26132 0.0
C544 C 0.57463 0.99532 0.25909 0.0
C545 C 0.55662 0.96459 0.32398 0.0
O546 O 0.55951 0.97551 0.31725 0.0
H547 H 0.66056 0.97561 0.27067 0.0
H548 H 0.50068 0.98492 0.25947 0.0
O549 O 0.61052 0.95284 0.24761 0.0
H550 H 0.3828 0.94966 0.23282 0.0
H551 H 0.55991 1.00394 0.25494 0.0
Cu552 Cu 0.75906 0.58063 0.01859 0.0
N553 N 0.70088 0.5897 1.00709 0.0
N554 N 0.66218 0.60691 0.99878 0.0
C555 C 0.69945 0.60115 1.01228 0.0
C556 C 0.63861 0.59867 0.98455 0.0
C557 C 0.66235 0.58805 0.98979 0.0
O558 O 0.75395 0.58307 0.05535 0.0
C559 C 0.80299 0.58454 0.97386 0.0
O560 O 0.76176 0.57781 0.96973 0.0
H561 H 0.7281 0.60533 0.0245 0.0
H562 H 0.65427 0.57991 0.9805 0.0
N563 N 0.76076 0.56433 1.01281 0.0
N564 N 0.7959 0.54639 1.00802 0.0
C565 C 0.8053 0.55763 0.01409 0.0
C566 C 0.72166 0.55707 1.00575 0.0
C567 C 0.74302 0.54607 1.00283 0.0
C568 C 0.70861 0.57944 0.06326 0.0
O569 O 0.67771 0.57405 0.04712 0.0
H570 H 0.8442 0.56106 0.01878 0.0
H571 H 0.68059 0.5596 1.00266 0.0
O572 O 0.81549 0.58686 0.99669 0.0
H573 H 0.60759 0.60026 0.9708 0.0
H574 H 0.72091 0.53845 0.99732 0.0
Cu575 Cu 0.51906 0.71892 0.01476 0.0
N576 N 0.57995 0.71054 1.004 0.0
N577 N 0.62099 0.69348 0.99676 0.0
C578 C 0.58481 0.69929 1.01072 0.0
C579 C 0.64033 0.70146 0.98057 0.0
C580 C 0.61513 0.71199 0.98512 0.0
O581 O 0.51874 0.71536 0.05121 0.0
C582 C 0.48006 0.71629 0.96831 0.0
O583 O 0.51718 0.72426 0.96645 0.0
H584 H 0.55862 0.69518 0.0242 0.0
H585 H 0.61946 0.71984 0.97421 0.0
N586 N 0.51494 0.73539 1.01176 0.0
N587 N 0.47583 0.75306 1.00998 0.0
C588 C 0.46871 0.74141 1.00895 0.0
C589 C 0.55278 0.74355 0.01456 0.0
C590 C 0.52888 0.75439 0.01352 0.0
C591 C 0.56404 0.71767 0.06132 0.0
O592 O 0.60089 0.72251 0.04729 0.0
H593 H 0.43019 0.73728 1.00702 0.0
H594 H 0.59465 0.74177 0.01766 0.0
O595 O 0.46712 0.71277 0.99034 0.0
H596 H 0.66893 0.69971 0.96582 0.0
H597 H 0.54913 0.76263 0.01529 0.0
Cu598 Cu 0.76973 0.71508 0.28034 0.0
N599 N 0.70706 0.70974 0.29575 0.0
N600 N 0.65075 0.6956 0.30731 0.0
C601 C 0.70048 0.69829 0.29965 0.0
C602 C 0.62465 0.70585 0.30835 0.0
C603 C 0.65959 0.71459 0.30128 0.0
O604 O 0.75621 0.71227 0.24425 0.0
C605 C 0.85863 0.70968 0.31293 0.0
O606 O 0.87997 0.71972 0.3073 0.0
H607 H 0.73103 0.69195 0.29539 0.0
H608 H 0.65022 0.7237 0.29921 0.0
N609 N 0.78715 0.73088 0.28502 0.0
N610 N 0.83702 0.74711 0.28401 0.0
C611 C 0.82926 0.73635 0.27444 0.0
C612 C 0.76691 0.73851 0.30159 0.0
C613 C 0.79731 0.7485 0.30093 0.0
C614 C 0.71574 0.71783 0.23572 0.0
O615 O 0.6921 0.72529 0.25069 0.0
H616 H 0.85516 0.73226 0.2608 0.0
H617 H 0.73401 0.73673 0.31414 0.0
O618 O 0.82172 0.70559 0.29895 0.0
H619 H 0.58304 0.70695 0.31324 0.0
H620 H 0.79217 0.75596 0.31302 0.0
Cu621 Cu 0.44839 0.58867 0.2695 0.0
N622 N 0.49247 0.59703 0.29154 0.0
N623 N 0.53119 0.61298 0.3073 0.0
C624 C 0.49772 0.60863 0.2898 0.0
C625 C 0.54784 0.60366 0.32063 0.0
C626 C 0.52376 0.59383 0.31091 0.0
O627 O 0.48266 0.58884 0.23603 0.0
C628 C 0.35534 0.60228 0.28709 0.0
O629 O 0.31285 0.60832 0.28084 0.0
H630 H 0.47777 0.61375 0.27555 0.0
H631 H 0.52865 0.58503 0.31753 0.0
N632 N 0.43187 0.5731 0.2776 0.0
N633 N 0.38463 0.55653 0.28007 0.0
C634 C 0.38474 0.56781 0.27287 0.0
C635 C 0.46282 0.5649 0.28814 0.0
C636 C 0.43393 0.55472 0.28972 0.0
C637 C 0.53327 0.58784 0.23353 0.0
O638 O 0.56282 0.5867 0.25378 0.0
H639 H 0.3515 0.57216 0.26389 0.0
H640 H 0.5036 0.56621 0.29415 0.0
O641 O 0.38147 0.59733 0.26933 0.0
H642 H 0.57507 0.60392 0.33641 0.0
H643 H 0.44828 0.54664 0.29758 0.0
Cu644 Cu 0.18261 0.4575 1.00498 0.0
N645 N 0.16584 0.44169 1.00078 0.0
N646 N 0.17495 0.42229 1.00289 0.0
C647 C 0.19721 0.43274 1.00796 0.0
C648 C 0.12748 0.42488 0.99211 0.0
C649 C 0.12196 0.43679 0.9909 0.0
O650 O 0.24755 0.46048 0.98473 0.0
C651 C 0.20818 0.46688 0.05522 0.0
O652 O 0.21722 0.47713 0.04533 0.0
H653 H 0.23544 0.43395 0.01701 0.0
H654 H 0.08831 0.44153 0.98333 0.0
N655 N 0.12534 0.46723 0.99417 0.0
N656 N 0.05954 0.4806 0.99075 0.0
C657 C 0.0982 0.47596 1.00575 0.0
C658 C 0.10339 0.4665 0.97118 0.0
C659 C 0.06324 0.4746 0.96904 0.0
C660 C 0.25371 0.45509 0.96389 0.0
O661 O 0.21561 0.44814 0.95621 0.0
H662 H 0.10614 0.47875 0.0248 0.0
H663 H 0.11592 0.46045 0.95682 0.0
O664 O 0.19451 0.45849 0.04115 0.0
H665 H 0.09873 0.41865 0.98528 0.0
H666 H 0.03911 0.47606 0.95245 0.0
Cu667 Cu 0.47131 0.32506 0.01722 0.0
N668 N 0.40309 0.33014 0.02736 0.0
N669 N 0.33968 0.34389 0.03049 0.0
C670 C 0.39197 0.34158 0.02696 0.0
C671 C 0.31675 0.33337 0.03338 0.0
C672 C 0.35595 0.32489 0.03142 0.0
O673 O 0.46812 0.32943 0.9814 0.0
C674 C 0.50556 0.33017 0.06388 0.0
O675 O 0.46575 0.32293 0.06714 0.0
H676 H 0.42168 0.34804 0.02243 0.0
H677 H 0.34988 0.31562 0.03163 0.0
N678 N 0.48965 0.30911 0.02004 0.0
N679 N 0.54305 0.29331 0.02207 0.0
C680 C 0.53998 0.3049 0.01783 0.0
C681 C 0.45963 0.29987 0.02598 0.0
C682 C 0.49219 0.29017 0.02716 0.0
C683 C 0.42998 0.32408 0.97035 0.0
O684 O 0.40704 0.3155 0.98243 0.0
H685 H 0.57374 0.31034 0.01331 0.0
H686 H 0.41725 0.30016 0.02966 0.0
O687 O 0.51867 0.33284 0.04134 0.0
H688 H 0.27454 0.33185 0.03601 0.0
H689 H 0.47921 0.28152 0.03204 0.0
Cu690 Cu 0.20801 0.33518 0.75795 0.0
N691 N 0.26933 0.34259 0.74537 0.0
N692 N 0.31953 0.35846 0.73886 0.0
C693 C 0.27471 0.35408 0.74918 0.0
C694 C 0.34375 0.34922 0.72807 0.0
C695 C 0.31252 0.33943 0.73201 0.0
O696 O 0.21357 0.33866 0.79421 0.0
C697 C 0.1587 0.33718 0.71311 0.0
O698 O 0.19362 0.3288 0.71008 0.0
H699 H 0.24591 0.35909 0.75973 0.0
H700 H 0.32063 0.33073 0.7255 0.0
N701 N 0.19883 0.31886 0.75599 0.0
N702 N 0.15335 0.30198 0.75712 0.0
C703 C 0.15105 0.31368 0.75959 0.0
C704 C 0.23303 0.31016 0.75111 0.0
C705 C 0.20521 0.29978 0.7518 0.0
C706 C 0.25879 0.33523 0.80282 0.0
O707 O 0.29113 0.32966 0.78759 0.0
H708 H 0.11527 0.31849 0.76413 0.0
H709 H 0.27504 0.31126 0.74716 0.0
O710 O 0.15414 0.34177 0.73496 0.0
H711 H 0.3809 0.3495 0.71775 0.0
H712 H 0.22205 0.29129 0.74825 0.0
Cu713 Cu 0.55549 0.462 0.78121 0.0
N714 N 0.48977 0.45594 0.77009 0.0
N715 N 0.43523 0.44126 0.75938 0.0
C716 C 0.48523 0.44446 0.76575 0.0
C717 C 0.40675 0.45125 0.75991 0.0
C718 C 0.44049 0.46029 0.76655 0.0
O719 O 0.55209 0.45851 0.81748 0.0
C720 C 0.5914 0.45621 0.73589 0.0
O721 O 0.55305 0.46379 0.73199 0.0
H722 H 0.51825 0.4385 0.76809 0.0
H723 H 0.42959 0.46929 0.76904 0.0
N724 N 0.57153 0.47791 0.77589 0.0
N725 N 0.62251 0.49395 0.77211 0.0
C726 C 0.6212 0.48246 0.7776 0.0
C727 C 0.54009 0.48682 0.76893 0.0
C728 C 0.57121 0.49667 0.76668 0.0
C729 C 0.53367 0.4663 0.83228 0.0
O730 O 0.52926 0.47697 0.82393 0.0
H731 H 0.65574 0.47737 0.78287 0.0
H732 H 0.49768 0.48618 0.76547 0.0
O733 O 0.60463 0.45384 0.75858 0.0
H734 H 0.36455 0.452 0.75593 0.0
H735 H 0.55702 0.50514 0.76096 0.0
H736 H 0.22803 0.10021 0.07297 0.0
H737 H 0.14692 0.05897 0.18719 0.0
H738 H 0.31201 0.06921 0.09482 0.0
H739 H 0.07148 0.0923 0.17687 0.0
H740 H 0.20729 0.06325 0.15303 0.0
H741 H 0.17356 0.09875 0.11142 0.0
C742 C 0.23675 0.09343 0.08649 0.0
C743 C 0.27547 0.08496 0.08107 0.0
C744 C 0.17769 0.06969 0.15806 0.0
C745 C 0.21169 0.08289 0.12425 0.0
C746 C 0.14267 0.06721 0.17759 0.0
C747 C 0.10376 0.07528 0.18506 0.0
C748 C 0.17425 0.08035 0.14542 0.0
C749 C 0.10053 0.08578 0.17166 0.0
C750 C 0.20497 0.09247 0.10817 0.0
C751 C 0.28343 0.07605 0.09856 0.0
N752 N 0.13537 0.08802 0.15245 0.0
N753 N 0.2516 0.0752 0.11913 0.0
H754 H 0.13092 0.1919 0.21915 0.0
H755 H 0.03933 0.23284 0.10521 0.0
H756 H 0.2041 0.22469 0.20122 0.0
H757 H 0.98563 0.19751 0.1125 0.0
H758 H 0.08914 0.23085 0.14421 0.0
H759 H 0.06863 0.19464 0.18415 0.0
C760 C 0.13365 0.19975 0.20806 0.0
C761 C 0.17319 0.20808 0.21325 0.0
C762 C 0.06622 0.22353 0.1375 0.0
C763 C 0.10147 0.21124 0.17293 0.0
C764 C 0.03742 0.22466 0.11518 0.0
C765 C 1.00833 0.21529 0.10532 0.0
C766 C 0.06643 0.21293 0.15039 0.0
C767 C 1.00728 0.20497 0.11936 0.0
C768 C 0.09805 0.20127 0.18798 0.0
C769 C 0.17455 0.21803 0.19803 0.0
N770 N 0.03632 0.20403 0.14107 0.0
N771 N 0.13942 0.21931 0.17863 0.0
H772 H 0.05218 0.96399 0.84806 0.0
H773 H 0.77745 0.9598 0.92609 0.0
H774 H 0.89988 0.95709 0.81344 0.0
H775 H 0.91815 0.97763 0.95209 0.0
H776 H 0.82565 0.95475 0.88711 0.0
H777 H 1.00749 0.96484 0.88921 0.0
C778 C 1.00962 0.96246 0.84916 0.0
C779 C 0.97965 0.96061 0.82729 0.0
C780 C 0.84587 0.95971 0.9015 0.0
C781 C 0.92829 0.96153 0.87411 0.0
C782 C 0.8184 0.96256 0.92369 0.0
C783 C 0.84342 0.96932 0.94213 0.0
C784 C 0.89894 0.96344 0.8981 0.0
C785 C 0.89679 0.97262 0.93815 0.0
C786 C 0.98403 0.96301 0.87258 0.0
C787 C 0.92445 0.95871 0.82981 0.0
N788 N 0.92261 0.96967 0.91667 0.0
N789 N 0.90055 0.95927 0.8527 0.0
H790 H 0.82254 0.81233 0.85054 0.0
H791 H 0.90231 0.85673 0.96005 0.0
H792 H 0.76275 0.84739 0.85329 0.0
H793 H 0.97425 0.82303 0.95017 0.0
H794 H 0.84317 0.85284 0.92443 0.0
H795 H 0.86884 0.81545 0.89015 0.0
C796 C 0.81855 0.82069 0.85963 0.0
C797 C 0.78873 0.82963 0.84834 0.0
C798 C 0.87158 0.84626 0.93016 0.0
C799 C 0.84284 0.83333 0.89411 0.0
C800 C 0.90542 0.84845 0.9506 0.0
C801 C 0.94376 0.84021 0.95824 0.0
C802 C 0.87564 0.83572 0.91712 0.0
C803 C 0.94558 0.82966 0.94508 0.0
C804 C 0.84532 0.82247 0.88232 0.0
C805 C 0.78501 0.84023 0.86127 0.0
N806 N 0.91229 0.82776 0.92521 0.0
N807 N 0.81216 0.84181 0.88334 0.0
H808 H 0.26819 0.58844 0.59052 0.0
H809 H 0.99397 0.58247 0.66918 0.0
H810 H 0.11919 0.57736 0.55791 0.0
H811 H 0.14985 0.58405 0.70327 0.0
H812 H 0.03646 0.58424 0.62748 0.0
H813 H 0.22289 0.59039 0.63141 0.0
C814 C 0.22601 0.58652 0.59186 0.0
C815 C 0.19779 0.5826 0.57073 0.0
C816 C 0.06122 0.58433 0.64416 0.0
C817 C 0.1454 0.58491 0.61739 0.0
C818 C 0.03686 0.58341 0.66794 0.0
C819 C 0.06835 0.58303 0.68973 0.0
C820 C 0.11733 0.58504 0.64225 0.0
C821 C 0.12398 0.58419 0.68696 0.0
C822 C 0.20012 0.5876 0.61521 0.0
C823 C 0.14295 0.58026 0.57369 0.0
N824 N 0.14656 0.5851 0.6638 0.0
N825 N 0.11874 0.58142 0.59644 0.0
H826 H 0.99386 0.71344 0.59419 0.0
H827 H 0.27389 0.70765 0.66816 0.0
H828 H 0.14306 0.70758 0.55584 0.0
H829 H 0.12898 0.72149 0.70015 0.0
H830 H 0.22668 0.7055 0.62758 0.0
H831 H 0.0425 0.7143 0.63412 0.0
C832 C 0.03677 0.71231 0.59412 0.0
C833 C 0.0642 0.71051 0.57147 0.0
C834 C 0.20545 0.709 0.64358 0.0
C835 C 0.12057 0.71141 0.61738 0.0
C836 C 0.23238 0.7102 0.66675 0.0
C837 C 0.20575 0.71484 0.68769 0.0
C838 C 0.15134 0.7123 0.64149 0.0
C839 C 0.15172 0.71798 0.68463 0.0
C840 C 0.06467 0.71282 0.61696 0.0
C841 C 0.12007 0.70907 0.57274 0.0
N842 N 0.12659 0.71663 0.6622 0.0
N843 N 0.1463 0.70954 0.5952 0.0
H844 H 0.88578 0.45747 0.32357 0.0
H845 H 0.91503 0.47314 0.46809 0.0
H846 H 0.03804 0.4637 0.35875 0.0
H847 H 0.77045 0.45868 0.43734 0.0
H848 H 0.96045 0.46937 0.42857 0.0
H849 H 0.84348 0.45727 0.36483 0.0
C850 C 0.91052 0.45867 0.34007 0.0
C851 C 0.96561 0.46069 0.33766 0.0
C852 C 0.91893 0.46693 0.4304 0.0
C853 C 0.91688 0.46063 0.3852 0.0
C854 C 0.89265 0.46914 0.45299 0.0
C855 C 0.83841 0.46635 0.45604 0.0
C856 C 0.8909 0.46201 0.4103 0.0
C857 C 0.81211 0.46103 0.43583 0.0
C858 C 0.88621 0.45854 0.36366 0.0
C859 C 0.99556 0.46209 0.35971 0.0
N860 N 0.83843 0.45916 0.41371 0.0
N861 N 0.97067 0.46221 0.38254 0.0
H862 H 0.91453 0.32947 0.32341 0.0
H863 H 0.87409 0.3363 0.47178 0.0
H864 H 0.75814 0.33278 0.35644 0.0
H865 H 0.0269 0.33755 0.43464 0.0
H866 H 0.83021 0.33502 0.43069 0.0
H867 H 0.95467 0.33253 0.3643 0.0
C868 C 0.88836 0.33087 0.33932 0.0
C869 C 0.83257 0.33076 0.33633 0.0
C870 C 0.87329 0.33562 0.43152 0.0
C871 C 0.8792 0.33426 0.38397 0.0
C872 C 0.89857 0.33632 0.45502 0.0
C873 C 0.95459 0.33699 0.45684 0.0
C874 C 0.90408 0.33551 0.4095 0.0
C875 C 0.98379 0.33702 0.43433 0.0
C876 C 0.91159 0.33265 0.3628 0.0
C877 C 0.80123 0.33279 0.35778 0.0
N878 N 0.95828 0.33624 0.41174 0.0
N879 N 0.82497 0.33435 0.38075 0.0
H880 H 0.67113 0.09462 0.55439 0.0
H881 H 0.53575 0.0592 0.66713 0.0
H882 H 0.69441 0.05817 0.56902 0.0
H883 H 0.52779 0.09646 0.66254 0.0
H884 H 0.57953 0.05866 0.62635 0.0
H885 H 0.60654 0.0954 0.58913 0.0
C886 C 0.66206 0.08674 0.56459 0.0
C887 C 0.6886 0.07631 0.55878 0.0
C888 C 0.56773 0.06698 0.63396 0.0
C889 C 0.61467 0.07718 0.5986 0.0
C890 C 0.54231 0.06729 0.65724 0.0
C891 C 0.52814 0.07789 0.66832 0.0
C892 C 0.58005 0.07737 0.62152 0.0
C893 C 0.53767 0.08809 0.6546 0.0
C894 C 0.62535 0.08722 0.58451 0.0
C895 C 0.67537 0.06642 0.57282 0.0
N896 N 0.56378 0.0876 0.63203 0.0
N897 N 0.6397 0.06712 0.59202 0.0
H898 H 0.51433 0.21199 0.60442 0.0
H899 H 0.79122 0.20996 0.68161 0.0
H900 H 0.66865 0.2185 0.57155 0.0
H901 H 0.63615 0.21229 0.71628 0.0
H902 H 0.74724 0.20886 0.64019 0.0
H903 H 0.55873 0.20795 0.64487 0.0
C904 C 0.55742 0.21242 0.60562 0.0
C905 C 0.58768 0.21576 0.58471 0.0
C906 C 0.72292 0.20947 0.65695 0.0
C907 C 0.63876 0.2111 0.63065 0.0
C908 C 0.74807 0.21002 0.68053 0.0
C909 C 0.71733 0.21137 0.70232 0.0
C910 C 0.66678 0.21013 0.65529 0.0
C911 C 0.66143 0.21144 0.69988 0.0
C912 C 0.58279 0.21016 0.62868 0.0
C913 C 0.64356 0.21616 0.58731 0.0
N914 N 0.63803 0.21091 0.67688 0.0
N915 N 0.66717 0.21393 0.60978 0.0
H916 H 0.37446 0.97227 0.46218 0.0
H917 H 0.50432 0.94456 0.33757 0.0
H918 H 0.30894 0.94318 0.42176 0.0
H919 H 0.54591 0.97848 0.36538 0.0
H920 H 0.44495 0.94201 0.3737 0.0
H921 H 0.44846 0.97295 0.43173 0.0
C922 C 0.37582 0.96598 0.44709 0.0
C923 C 0.33502 0.95774 0.44442 0.0
C924 C 0.46767 0.94995 0.3721 0.0
C925 C 0.41977 0.95837 0.40972 0.0
C926 C 0.50208 0.95136 0.35157 0.0
C927 C 0.53009 0.96178 0.34829 0.0
C928 C 0.46132 0.95898 0.38963 0.0
C929 C 0.5249 0.97032 0.36702 0.0
C930 C 0.41798 0.96638 0.4297 0.0
C931 C 0.339 0.94979 0.42446 0.0
N932 N 0.49094 0.96878 0.38672 0.0
N933 N 0.38034 0.95032 0.40797 0.0
H934 H 0.42261 0.84397 0.45339 0.0
H935 H 0.33807 0.81416 0.32344 0.0
H936 H 0.49061 0.81274 0.42265 0.0
H937 H 0.2678 0.84658 0.34677 0.0
H938 H 0.39451 0.8143 0.36017 0.0
H939 H 0.36932 0.84636 0.41462 0.0
C940 C 0.42786 0.83788 0.4381 0.0
C941 C 0.46171 0.82823 0.44102 0.0
C942 C 0.36691 0.82144 0.35753 0.0
C943 C 0.39969 0.83065 0.39723 0.0
C944 C 0.33422 0.82134 0.33644 0.0
C945 C 0.29798 0.83039 0.33182 0.0
C946 C 0.36401 0.83066 0.37463 0.0
C947 C 0.29488 0.83938 0.34964 0.0
C948 C 0.39679 0.83914 0.41618 0.0
C949 C 0.46554 0.82037 0.42107 0.0
N950 N 0.32767 0.83931 0.37029 0.0
N951 N 0.43482 0.82172 0.40024 0.0
H952 H 0.76038 0.58631 0.10754 0.0
H953 H 0.48594 0.58696 0.18676 0.0
H954 H 0.60515 0.57797 0.07749 0.0
H955 H 0.64043 0.58824 0.22246 0.0
H956 H 0.53014 0.58584 0.14584 0.0
H957 H 0.71861 0.58914 0.14922 0.0
C958 C 0.71776 0.58512 0.1096 0.0
C959 C 0.68653 0.58179 0.08889 0.0
C960 C 0.55448 0.58639 0.16261 0.0
C961 C 0.63843 0.58511 0.13634 0.0
C962 C 0.52912 0.58706 0.18604 0.0
C963 C 0.55928 0.58763 0.20823 0.0
C964 C 0.61065 0.58636 0.16114 0.0
C965 C 0.61536 0.58774 0.20592 0.0
C966 C 0.69392 0.58671 0.13339 0.0
C967 C 0.63131 0.5804 0.09279 0.0
N968 N 0.63916 0.5871 0.1829 0.0
N969 N 0.60932 0.58206 0.11582 0.0
H970 H 0.75927 0.70658 0.19425 0.0
H971 H 0.50484 0.71969 0.10523 0.0
H972 H 0.61747 0.72446 0.2191 0.0
H973 H 0.65898 0.70931 0.07723 0.0
H974 H 0.53997 0.71815 0.14846 0.0
H975 H 0.71832 0.70447 0.15237 0.0
C976 C 0.71958 0.71 0.191 0.0
C977 C 0.69222 0.71582 0.21025 0.0
C978 C 0.56584 0.71606 0.13282 0.0
C979 C 0.6447 0.71333 0.16246 0.0
C980 C 0.54554 0.71682 0.10818 0.0
C981 C 0.57902 0.71466 0.08761 0.0
C982 C 0.61979 0.713 0.13685 0.0
C983 C 0.63183 0.71113 0.09256 0.0
C984 C 0.69614 0.70881 0.16709 0.0
C985 C 0.64059 0.72003 0.20486 0.0
N986 N 0.65056 0.71047 0.11652 0.0
N987 N 0.61871 0.71872 0.18162 0.0
H988 H 0.4908 0.44532 0.84676 0.0
H989 H 0.33124 0.47225 0.96456 0.0
H990 H 0.50978 0.48064 0.87158 0.0
H991 H 0.28798 0.44052 0.92696 0.0
H992 H 0.40761 0.47419 0.93572 0.0
H993 H 0.42853 0.442 0.8816 0.0
C994 C 0.48302 0.45229 0.85988 0.0
C995 C 0.5056 0.46328 0.85613 0.0
C996 C 0.38152 0.46676 0.93395 0.0
C997 C 0.43348 0.45961 0.89594 0.0
C998 C 0.33799 0.46565 0.95045 0.0
C999 C 0.30267 0.45627 0.9481 0.0
C1000 C 0.39027 0.45836 0.91517 0.0
C1001 C 0.3136 0.44798 0.92939 0.0
C1002 C 0.44694 0.45044 0.87964 0.0
C1003 C 0.49321 0.47203 0.87364 0.0
N1004 N 0.35611 0.44922 0.91373 0.0
N1005 N 0.45787 0.47004 0.8926 0.0
H1006 H 0.2042 0.33325 0.84786 0.0
H1007 H 0.47285 0.33725 0.93129 0.0
H1008 H 0.35845 0.34133 0.81685 0.0
H1009 H 0.32829 0.32027 0.95516 0.0
H1010 H 0.42791 0.34252 0.89153 0.0
H1011 H 0.24497 0.33253 0.89003 0.0
C1012 C 0.24622 0.33519 0.85001 0.0
C1013 C 0.27797 0.33733 0.82885 0.0
C1014 C 0.40609 0.3377 0.90563 0.0
C1015 C 0.32515 0.33637 0.87682 0.0
C1016 C 0.43177 0.3347 0.92829 0.0
C1017 C 0.40477 0.32814 0.94647 0.0
C1018 C 0.35278 0.33429 0.90136 0.0
C1019 C 0.35126 0.32514 0.94157 0.0
C1020 C 0.2697 0.33465 0.87401 0.0
C1021 C 0.33256 0.33959 0.83269 0.0
N1022 N 0.32725 0.32821 0.91963 0.0
N1023 N 0.35442 0.33899 0.85607 0.0
H1024 H 0.38527 0.03089 1.00209 0.0
H1025 H 0.70488 0.02661 0.01371 0.0
H1026 H 0.48917 0.06066 1.00386 0.0
H1027 H 0.60244 0.99661 1.012 0.0
H1028 H 0.62642 0.03905 1.01007 0.0
H1029 H 0.46349 1.01826 1.00536 0.0
C1030 C 0.42431 0.03484 1.00304 0.0
C1031 C 0.42984 0.047 1.00265 0.0
C1032 C 0.62098 0.02975 1.01048 0.0
C1033 C 0.52062 0.03236 1.00665 0.0
C1034 C 0.66605 1.02257 1.0127 0.0
C1035 C 0.66103 1.0104 0.01332 0.0
C1036 C 0.56976 0.02485 1.00884 0.0
C1037 C 0.60897 1.00586 1.01144 0.0
C1038 C 0.4692 0.02755 1.00504 0.0
C1039 C 0.48214 0.05142 1.00433 0.0
N1040 N 0.56568 1.01305 1.00935 0.0
N1041 N 0.52509 0.04415 1.00622 0.0
H1042 H 0.54758 0.2696 0.01936 0.0
H1043 H 0.86817 0.26637 0.02375 0.0
H1044 H 0.64835 0.2998 0.02433 0.0
H1045 H 0.76709 0.23616 0.02182 0.0
H1046 H 0.78863 0.27868 0.02324 0.0
H1047 H 0.6271 0.25733 0.0198 0.0
C1048 C 0.58617 0.27372 0.02066 0.0
C1049 C 0.59041 0.28589 0.02188 0.0
C1050 C 0.78378 0.26935 0.02294 0.0
C1051 C 0.68287 0.27167 0.02213 0.0
C1052 C 0.82945 0.26227 0.0231 0.0
C1053 C 0.82504 0.25009 0.02279 0.0
C1054 C 0.7327 0.26433 0.02239 0.0
C1055 C 0.77309 0.24543 0.02234 0.0
C1056 C 0.63187 0.26665 0.02079 0.0
C1057 C 0.64235 0.29055 0.02312 0.0
N1058 N 0.7293 0.25252 0.0221 0.0
N1059 N 0.68617 0.28347 0.02323 0.0
H1060 H 0.51248 0.23319 0.27658 0.0
H1061 H 0.61567 0.29637 0.23521 0.0
H1062 H 0.45088 0.25161 0.21234 0.0
H1063 H 0.71498 0.27269 0.27706 0.0
H1064 H 0.54715 0.28126 0.23206 0.0
H1065 H 0.57901 0.24873 0.28257 0.0
C1066 C 0.51254 0.24055 0.26394 0.0
C1067 C 0.47614 0.24104 0.24385 0.0
C1068 C 0.58388 0.27936 0.24199 0.0
C1069 C 0.55184 0.25891 0.25066 0.0
C1070 C 0.62297 0.28802 0.2439 0.0
C1071 C 0.67148 0.28583 0.25634 0.0
C1072 C 0.59252 0.26842 0.25299 0.0
C1073 C 0.6786 0.27476 0.26705 0.0
C1074 C 0.55073 0.24938 0.26723 0.0
C1075 C 0.47841 0.25078 0.22791 0.0
N1076 N 0.63962 0.26652 0.26526 0.0
N1077 N 0.51523 0.25929 0.23171 0.0
H1078 H 0.73133 0.98625 0.25671 0.0
H1079 H 0.84241 0.0515 0.26373 0.0
H1080 H 0.62946 1.01611 0.26673 0.0
H1081 H 0.94346 1.0213 0.25775 0.0
H1082 H 0.76411 0.03885 0.26383 0.0
H1083 H 0.80875 0.999 0.25637 0.0
C1084 C 0.7249 0.99546 0.25899 0.0
C1085 C 0.67303 0.99999 0.26189 0.0
C1086 C 0.80342 0.03498 0.26248 0.0
C1087 C 0.7628 1.01483 0.26117 0.0
C1088 C 0.84836 0.04223 0.26228 0.0
C1089 C 0.90018 0.03754 0.26068 0.0
C1090 C 0.80985 1.02288 0.261 0.0
C1091 C 0.90473 0.02539 0.25927 0.0
C1092 C 0.76948 1.00278 0.25865 0.0
C1093 C 0.66815 1.01212 0.26425 0.0
N1094 N 0.86041 1.01854 0.25941 0.0
N1095 N 0.71223 1.01907 0.26386 0.0
H1096 H 0.47635 0.77435 0.03241 0.0
H1097 H 0.21731 0.79744 0.95983 0.0
H1098 H 0.38226 0.75266 0.98371 0.0
H1099 H 0.27511 0.81415 0.02683 0.0
H1100 H 0.28147 0.78169 0.9664 0.0
H1101 H 0.40833 0.78965 0.02872 0.0
C1102 C 0.44153 0.7728 0.02087 0.0
C1103 C 0.43538 0.76213 1.00831 0.0
C1104 C 0.2801 0.78874 0.9798 0.0
C1105 C 0.35698 0.77976 1.0039 0.0
C1106 C 0.24348 0.79779 0.97601 0.0
C1107 C 0.24067 0.80719 0.99277 0.0
C1108 C 0.31546 0.78909 1.0003 0.0
C1109 C 0.27553 0.80706 0.01352 0.0
C1110 C 0.40245 0.78153 0.01892 0.0
C1111 C 0.3888 0.76065 0.99388 0.0
N1112 N 0.3118 0.79825 0.01653 0.0
N1113 N 0.3519 0.76935 0.9919 0.0
H1114 H 0.66281 0.7761 0.76767 0.0
H1115 H 0.34291 0.77017 0.76591 0.0
H1116 H 0.55623 0.80553 0.76566 0.0
H1117 H 0.45077 0.74096 0.76724 0.0
H1118 H 0.41982 0.78322 0.76626 0.0
H1119 H 0.58565 0.76322 0.76757 0.0
C1120 C 0.62337 0.77992 0.76709 0.0
C1121 C 0.61674 0.79205 0.76663 0.0
C1122 C 0.42665 0.77395 0.76645 0.0
C1123 C 0.52709 0.77713 0.76675 0.0
C1124 C 0.38255 0.76644 0.76637 0.0
C1125 C 0.38969 0.75433 0.76648 0.0
C1126 C 0.47879 0.7694 0.76671 0.0
C1127 C 0.44263 0.75016 0.76679 0.0
C1128 C 0.57906 0.7725 0.76716 0.0
C1129 C 0.56395 0.79631 0.76629 0.0
N1130 N 0.48477 0.75764 0.76691 0.0
N1131 N 0.52147 0.7889 0.76632 0.0
H1132 H 0.10526 1.01769 0.7474 0.0
H1133 H 0.42272 0.02765 0.75291 0.0
H1134 H 0.22155 0.99007 0.75019 0.0
H1135 H 0.30929 0.05583 0.75052 0.0
H1136 H 0.349 1.01392 0.75169 0.0
H1137 H 0.17834 0.03182 0.74781 0.0
C1138 C 0.14595 1.01455 0.74801 0.0
C1139 C 0.15671 1.00257 0.74893 0.0
C1140 C 0.3401 0.02311 0.75142 0.0
C1141 C 0.24109 1.01882 0.74954 0.0
C1142 C 0.38244 0.03101 0.75226 0.0
C1143 C 0.37283 0.04304 0.75192 0.0
C1144 C 0.28715 0.02713 0.75023 0.0
C1145 C 0.31918 0.04671 0.7506 0.0
C1146 C 0.18779 1.02266 0.74835 0.0
C1147 C 0.21068 0.99914 0.7499 0.0
N1148 N 0.27859 0.03882 0.74986 0.0
N1149 N 0.25047 1.00718 0.75019 0.0
H1150 H 0.66593 0.52172 0.54191 0.0
H1151 H 0.36547 0.52711 0.49011 0.0
H1152 H 0.58493 0.49412 0.50273 0.0
H1153 H 0.45139 0.55551 0.52383 0.0
H1154 H 0.44364 0.51472 0.49618 0.0
H1155 H 0.58688 0.53387 0.53691 0.0
C1156 C 0.63188 0.51816 0.53215 0.0
C1157 C 0.63305 0.50675 0.52268 0.0
C1158 C 0.44538 0.52366 0.50231 0.0
C1159 C 0.54091 0.52082 0.51712 0.0
C1160 C 0.40057 0.53081 0.49876 0.0
C1161 C 0.40116 0.54252 0.5063 0.0
C1162 C 0.49171 0.52814 0.51357 0.0
C1163 C 0.44819 0.5466 0.51783 0.0
C1164 C 0.58635 0.52515 0.52941 0.0
C1165 C 0.5865 0.50274 0.51059 0.0
N1166 N 0.49128 0.53947 0.52101 0.0
N1167 N 0.54269 0.50974 0.50816 0.0
H1168 H 0.55918 0.77032 0.51965 0.0
H1169 H 0.87269 0.76245 0.49244 0.0
H1170 H 0.66703 0.79908 0.50964 0.0
H1171 H 0.76707 0.73392 0.50846 0.0
H1172 H 0.79774 0.77587 0.49726 0.0
H1173 H 0.63394 0.75698 0.51454 0.0
C1174 C 0.59837 0.77392 0.51651 0.0
C1175 C 0.60596 0.78602 0.51526 0.0
C1176 C 0.79087 0.76668 0.49973 0.0
C1177 C 0.6929 0.7705 0.509 0.0
C1178 C 0.83381 0.75895 0.49683 0.0
C1179 C 0.82676 0.74692 0.49998 0.0
C1180 C 0.73986 0.76245 0.50576 0.0
C1181 C 0.77504 0.74306 0.50607 0.0
C1182 C 0.64131 0.76621 0.51347 0.0
C1183 C 0.65837 0.78993 0.51065 0.0
N1184 N 0.73386 0.75076 0.50868 0.0
N1185 N 0.69948 0.78223 0.50773 0.0
H1186 H 0.83138 0.55402 0.77286 0.0
H1187 H 0.72832 0.48803 0.76867 0.0
H1188 H 0.93707 0.52466 0.76487 0.0
H1189 H 0.62367 0.51766 0.77461 0.0
H1190 H 0.80494 0.50115 0.76793 0.0
H1191 H 0.75556 0.54081 0.77379 0.0
C1192 C 0.83901 0.54483 0.77114 0.0
C1193 C 0.89152 0.54058 0.76866 0.0
C1194 C 0.7652 0.50478 0.7694 0.0
C1195 C 0.80348 0.5252 0.77005 0.0
C1196 C 0.72115 0.49726 0.76996 0.0
C1197 C 0.66872 0.50163 0.77172 0.0
C1198 C 0.75736 0.51685 0.77066 0.0
C1199 C 0.6628 0.51378 0.77296 0.0
C1200 C 0.79532 0.53724 0.77182 0.0
C1201 C 0.89786 0.52845 0.767 0.0
N1202 N 0.70627 0.52089 0.77243 0.0
N1203 N 0.85463 0.52125 0.7677 0.0
H1204 H 0.24213 0.31394 0.51264 0.0
H1205 H 0.35175 0.24947 0.53862 0.0
H1206 H 0.14717 0.28667 0.54539 0.0
H1207 H 0.44464 0.27595 0.50171 0.0
H1208 H 0.27732 0.26305 0.54162 0.0
H1209 H 0.31662 0.30034 0.50883 0.0
C1210 C 0.2365 0.30511 0.51894 0.0
C1211 C 0.18754 0.30157 0.5294 0.0
C1212 C 0.31397 0.2659 0.53284 0.0
C1213 C 0.27397 0.28583 0.52527 0.0
C1214 C 0.35677 0.25809 0.53098 0.0
C1215 C 0.40529 0.26142 0.51978 0.0
C1216 C 0.31911 0.27725 0.52351 0.0
C1217 C 0.40869 0.27289 0.5107 0.0
C1218 C 0.27945 0.29733 0.51684 0.0
C1219 C 0.18382 0.28996 0.53748 0.0
N1220 N 0.36642 0.28033 0.51276 0.0
N1221 N 0.22618 0.28257 0.53525 0.0
H1222 H 0.20182 0.49316 0.26741 0.0
H1223 H 0.27758 0.56074 0.27461 0.0
H1224 H 0.08339 0.52039 0.26677 0.0
H1225 H 0.3923 0.5329 0.27984 0.0
H1226 H 0.20625 0.54637 0.27053 0.0
H1227 H 0.27143 0.50772 0.27107 0.0
C1228 C 0.19006 0.50218 0.26821 0.0
C1229 C 0.1359 0.50542 0.26698 0.0
C1230 C 0.24705 0.54341 0.27259 0.0
C1231 C 0.21687 0.52238 0.27082 0.0
C1232 C 0.28805 0.55164 0.2748 0.0
C1233 C 0.3416 0.54813 0.27763 0.0
C1234 C 0.25932 0.5315 0.27309 0.0
C1235 C 0.35197 0.53612 0.27803 0.0
C1236 C 0.23024 0.51055 0.27016 0.0
C1237 C 0.12424 0.51738 0.26752 0.0
N1238 N 0.31147 0.52832 0.27577 0.0
N1239 N 0.1642 0.52538 0.26943 0.0
H1240 H 0.06179 0.99964 0.4575 0.0
H1241 H 0.97359 0.04841 0.55691 0.0
H1242 H 0.105 0.99832 0.53595 0.0
H1243 H 0.93008 0.04934 0.47846 0.0
H1244 H 0.02185 0.03034 0.54966 0.0
H1245 H 0.01432 1.01775 0.46497 0.0
C1246 C 0.06122 1.00306 0.47641 0.0
C1247 C 0.08745 0.9972 0.49615 0.0
C1248 C 1.00183 0.03448 0.534 0.0
C1249 C 0.03271 1.01837 0.5048 0.0
C1250 C 0.97423 0.04492 0.53807 0.0
C1251 C 0.94754 0.05064 0.51825 0.0
C1252 C 1.0032 0.02955 0.50988 0.0
C1253 C 0.94949 0.04534 0.49443 0.0
C1254 C 0.03408 1.01353 0.48061 0.0
C1255 C 0.0858 1.00244 0.52006 0.0
N1256 N 0.97678 0.03518 0.49095 0.0
N1257 N 0.05887 1.01265 0.52369 0.0
H1258 H 0.95976 0.23979 0.77489 0.0
H1259 H 0.04584 0.30635 0.75539 0.0
H1260 H 0.84759 0.2681 0.76915 0.0
H1261 H 0.15938 0.27844 0.7642 0.0
H1262 H 0.97336 0.29243 0.75986 0.0
H1263 H 0.03303 0.25362 0.77014 0.0
C1264 C 0.95024 0.24888 0.77251 0.0
C1265 C 0.89676 0.25267 0.77247 0.0
C1266 C 0.01413 0.28933 0.76083 0.0
C1267 C 0.98146 0.26871 0.76714 0.0
C1268 C 0.05591 0.29734 0.7584 0.0
C1269 C 0.1096 0.29371 0.75949 0.0
C1270 C 0.02544 0.2775 0.76438 0.0
C1271 C 0.1191 0.28176 0.76299 0.0
C1272 C 0.99237 0.25681 0.76992 0.0
C1273 C 0.88774 0.26467 0.76962 0.0
N1274 N 0.07768 0.27414 0.76532 0.0
N1275 N 0.92938 0.27219 0.76707 0.0
H1276 H 0.04167 0.80739 0.27271 0.0
H1277 H 0.93698 0.74167 0.26699 0.0
H1278 H 0.14453 0.77823 0.25678 0.0
H1279 H 0.83967 0.77055 0.29067 0.0
H1280 H 1.01195 0.75494 0.26091 0.0
H1281 H 0.967 0.79412 0.27759 0.0
C1282 C 0.04905 0.79822 0.27036 0.0
C1283 C 0.10039 0.79404 0.26442 0.0
C1284 C 0.97417 0.75839 0.26739 0.0
C1285 C 0.01345 0.77863 0.26969 0.0
C1286 C 0.93101 0.7508 0.2707 0.0
C1287 C 0.88143 0.75493 0.27938 0.0
C1288 C 0.96805 0.77026 0.27263 0.0
C1289 C 0.87698 0.76689 0.28422 0.0
C1290 C 1.00591 0.79061 0.27304 0.0
C1291 C 0.1061 0.78197 0.26118 0.0
N1292 N 0.91948 0.77409 0.28077 0.0
N1293 N 0.06339 0.77474 0.26386 0.0
H1294 H 0.07031 0.49926 0.02248 0.0
H1295 H 0.78549 0.52613 0.98194 0.0
H1296 H 0.96063 0.48332 0.97058 0.0
H1297 H 0.89457 0.54446 0.03038 0.0
H1298 H 0.84873 0.51013 0.97957 0.0
H1299 H 1.00652 0.51542 0.02783 0.0
C1300 C 0.03283 0.49908 1.01236 0.0
C1301 C 0.02141 0.48988 0.99583 0.0
C1302 C 0.85904 0.51763 0.99078 0.0
C1303 C 0.94803 0.50844 1.0018 0.0
C1304 C 0.82251 0.52682 0.99228 0.0
C1305 C 0.834 0.5368 1.00648 0.0
C1306 C 0.90811 0.51822 1.00359 0.0
C1307 C 0.88369 0.53707 0.01901 0.0
C1308 C 0.9965 0.50836 0.0153 0.0
C1309 C 0.97204 0.49024 0.98316 0.0
N1310 N 0.91868 0.52795 0.01731 0.0
N1311 N 0.93764 0.49929 0.98638 0.0
H1312 H 0.43236 0.09933 0.94177 0.0
H1313 H 0.3346 0.09396 0.80051 0.0
H1314 H 0.26718 0.09702 0.91971 0.0
H1315 H 0.49743 0.10101 0.82129 0.0
H1316 H 0.30673 0.09895 0.84342 0.0
H1317 H 0.45576 0.10365 0.89782 0.0
C1318 C 0.40098 0.10004 0.92784 0.0
C1319 C 0.34798 0.09762 0.93426 0.0
C1320 C 0.34844 0.09974 0.83843 0.0
C1321 C 0.37411 0.10235 0.88406 0.0
C1322 C 0.36409 0.09704 0.81381 0.0
C1323 C 0.41824 0.09709 0.80747 0.0
C1324 C 0.38744 0.10231 0.85675 0.0
C1325 C 0.45518 0.10085 0.82557 0.0
C1326 C 0.41423 0.10244 0.90272 0.0
C1327 C 0.30877 0.09861 0.91545 0.0
N1328 N 0.43933 0.10309 0.84949 0.0
N1329 N 0.32265 0.10071 0.89124 0.0
H1330 H 0.80532 0.20189 0.96988 0.0
H1331 H 0.93339 0.20092 0.83644 0.0
H1332 H 0.97007 0.19277 0.95819 0.0
H1333 H 0.764 0.19766 0.84764 0.0
H1334 H 0.94771 0.19506 0.88036 0.0
H1335 H 0.78706 0.1974 0.92559 0.0
C1336 C 0.83701 0.19839 0.9583 0.0
C1337 C 0.88908 0.19758 0.96768 0.0
C1338 C 0.90743 0.19525 0.87301 0.0
C1339 C 0.86949 0.19305 0.91676 0.0
C1340 C 0.89943 0.19848 0.84784 0.0
C1341 C 0.84754 0.19967 0.83842 0.0
C1342 C 0.8631 0.19352 0.88889 0.0
C1343 C 0.80469 0.19676 0.85421 0.0
C1344 C 0.82689 0.19598 0.93289 0.0
C1345 C 0.92922 0.1934 0.95163 0.0
N1346 N 0.81328 0.19407 0.87876 0.0
N1347 N 0.91894 0.19156 0.92687 0.0
H1348 H 0.42235 0.19862 0.45107 0.0
H1349 H 0.29409 0.2353 0.33842 0.0
H1350 H 0.38518 0.23503 0.45487 0.0
H1351 H 0.33348 0.19896 0.33258 0.0
H1352 H 0.31355 0.23447 0.38338 0.0
H1353 H 0.3751 0.19754 0.41055 0.0
C1354 C 0.4023 0.20626 0.44386 0.0
C1355 C 0.40698 0.2169 0.45636 0.0
C1356 C 0.31745 0.22664 0.37235 0.0
C1357 C 0.35481 0.21588 0.40978 0.0
C1358 C 0.30632 0.22711 0.3466 0.0
C1359 C 0.31269 0.21723 0.33153 0.0
C1360 C 0.33549 0.21621 0.38323 0.0
C1361 C 0.32839 0.20684 0.34335 0.0
C1362 C 0.37603 0.2057 0.42057 0.0
C1363 C 0.3819 0.22664 0.44586 0.0
N1364 N 0.33979 0.20664 0.36839 0.0
N1365 N 0.35747 0.22594 0.42311 0.0
H1366 H 0.82234 0.09918 0.43213 0.0
H1367 H 0.8723 0.06893 0.29911 0.0
H1368 H 0.78119 0.06364 0.41592 0.0
H1369 H 0.94357 0.10116 0.3219 0.0
H1370 H 0.81805 0.06903 0.33749 0.0
H1371 H 0.84709 0.10189 0.38823 0.0
C1372 C 0.8179 0.09195 0.41932 0.0
C1373 C 0.8003 0.08109 0.42794 0.0
C1374 C 0.84427 0.07628 0.33374 0.0
C1375 C 0.82875 0.08421 0.37734 0.0
C1376 C 0.87449 0.07632 0.31163 0.0
C1377 C 0.91144 0.0852 0.30714 0.0
C1378 C 0.85148 0.08513 0.35154 0.0
C1379 C 0.91458 0.09432 0.32444 0.0
C1380 C 0.8321 0.09353 0.39418 0.0
C1381 C 0.79499 0.07213 0.41024 0.0
N1382 N 0.88544 0.09399 0.346 0.0
N1383 N 0.80966 0.07385 0.38586 0.0
H1384 H 0.66088 0.9542 0.06796 0.0
H1385 H 0.70449 0.95384 0.21721 0.0
H1386 H 0.80837 0.96313 0.10495 0.0
H1387 H 0.55311 0.94782 0.18109 0.0
H1388 H 0.74813 0.95284 0.17589 0.0
H1389 H 0.62521 0.9477 0.10868 0.0
C1390 C 0.68599 0.95461 0.08451 0.0
C1391 C 0.73723 0.95941 0.08314 0.0
C1392 C 0.70548 0.95147 0.17708 0.0
C1393 C 0.69701 0.95203 0.12968 0.0
C1394 C 0.68078 0.95191 0.20071 0.0
C1395 C 0.62521 0.95099 0.20247 0.0
C1396 C 0.67421 0.95013 0.1552 0.0
C1397 C 0.59612 0.94868 0.18045 0.0
C1398 C 0.66568 0.95093 0.10777 0.0
C1399 C 0.76819 0.95971 0.1052 0.0
N1400 N 0.62076 0.94849 0.15774 0.0
N1401 N 0.74749 0.9562 0.1275 0.0
H1402 H 0.97158 0.83185 0.09004 0.0
H1403 H 0.15501 0.85726 0.20046 0.0
H1404 H 0.11909 0.85031 0.07871 0.0
H1405 H 0.0479 0.82862 0.21154 0.0
H1406 H 0.12166 0.85937 0.15738 0.0
H1407 H 0.98201 0.83445 0.13569 0.0
C1408 C 1.00593 0.8365 0.09711 0.0
C1409 C 0.0449 0.84073 0.08052 0.0
C1410 C 0.10405 0.85288 0.1695 0.0
C1411 C 0.05626 0.84399 0.13259 0.0
C1412 C 0.12219 0.85186 0.1943 0.0
C1413 C 0.10337 0.84291 0.20974 0.0
C1414 C 0.06689 0.84486 0.16009 0.0
C1415 C 0.06254 0.8358 0.20039 0.0
C1416 C 1.01176 0.838 0.12314 0.0
C1417 C 0.08847 0.84674 0.09077 0.0
N1418 N 0.04616 0.8368 0.17606 0.0
N1419 N 0.09292 0.84819 0.11605 0.0
H1420 H 0.57634 0.83781 0.72422 0.0
H1421 H 0.61209 0.84241 0.57476 0.0
H1422 H 0.724 0.84676 0.68776 0.0
H1423 H 0.46657 0.83197 0.61154 0.0
H1424 H 0.64944 0.84752 0.61605 0.0
H1425 H 0.53043 0.83946 0.68347 0.0
C1426 C 0.59862 0.84056 0.70784 0.0
C1427 C 0.6539 0.84217 0.7093 0.0
C1428 C 0.60906 0.84424 0.61501 0.0
C1429 C 0.60243 0.8437 0.66257 0.0
C1430 C 0.58777 0.84135 0.59141 0.0
C1431 C 0.53647 0.83659 0.58966 0.0
C1432 C 0.57875 0.84238 0.63697 0.0
C1433 C 0.50668 0.83543 0.61194 0.0
C1434 C 0.57268 0.84134 0.68449 0.0
C1435 C 0.68123 0.84543 0.68737 0.0
N1436 N 0.52834 0.83818 0.63457 0.0
N1437 N 0.65547 0.84594 0.66491 0.0
H1438 H 0.27357 0.98358 0.59348 0.0
H1439 H 0.1685 0.93902 0.69577 0.0
H1440 H 0.24147 0.94746 0.57887 0.0
H1441 H 0.20506 0.97464 0.71212 0.0
H1442 H 0.21509 0.94086 0.65558 0.0
H1443 H 0.26585 0.97971 0.63865 0.0
C1444 C 0.2656 0.97482 0.59973 0.0
C1445 C 0.25729 0.96589 0.58224 0.0
C1446 C 0.21467 0.94819 0.66827 0.0
C1447 C 0.24838 0.96138 0.63399 0.0
C1448 C 0.18898 0.94704 0.69148 0.0
C1449 C 0.18382 0.95663 0.70743 0.0
C1450 C 0.23415 0.95909 0.66076 0.0
C1451 C 0.20917 0.96698 0.70051 0.0
C1452 C 0.26125 0.9726 0.62556 0.0
C1453 C 0.24738 0.95468 0.59155 0.0
N1454 N 0.2322 0.96803 0.67747 0.0
N1455 N 0.24262 0.95279 0.61667 0.0
H1456 H 0.44445 0.57886 0.43643 0.0
H1457 H 0.33643 0.61843 0.32345 0.0
H1458 H 0.32714 0.60583 0.44743 0.0
H1459 H 0.40378 0.58443 0.31368 0.0
H1460 H 0.34904 0.61651 0.36898 0.0
H1461 H 0.44752 0.58366 0.39181 0.0
C1462 C 0.42001 0.58595 0.42963 0.0
C1463 C 0.38513 0.59187 0.4459 0.0
C1464 C 0.36186 0.60954 0.35677 0.0
C1465 C 0.38844 0.59738 0.39437 0.0
C1466 C 0.35482 0.61061 0.33073 0.0
C1467 C 0.36998 0.60161 0.31433 0.0
C1468 C 0.38446 0.59937 0.36668 0.0
C1469 C 0.39309 0.5917 0.32509 0.0
C1470 C 0.42161 0.58863 0.40402 0.0
C1471 C 0.35465 0.60101 0.43574 0.0
N1472 N 0.3996 0.59084 0.35045 0.0
N1473 N 0.35672 0.60342 0.41062 0.0
H1474 H 0.94903 0.70822 0.34195 0.0
H1475 H 0.91823 0.684 0.46637 0.0
H1476 H 0.77906 0.7027 0.34441 0.0
H1477 H 0.80336 0.71174 0.46882 0.0
H1478 H 0.92675 0.68679 0.42064 0.0
H1479 H 0.95341 0.70445 0.38759 0.0
C1480 C 0.91288 0.706 0.35199 0.0
C1481 C 0.86379 0.70553 0.33927 0.0
C1482 C 0.9005 0.6924 0.43131 0.0
C1483 C 0.86821 0.70183 0.39139 0.0
C1484 C 0.89632 0.69095 0.45739 0.0
C1485 C 0.86255 0.69813 0.47154 0.0
C1486 C 0.86829 0.70064 0.41917 0.0
C1487 C 0.8314 0.70634 0.45868 0.0
C1488 C 0.91541 0.70392 0.37795 0.0
C1489 C 0.8179 0.70289 0.35333 0.0
N1490 N 0.83458 0.7073 0.43318 0.0
N1491 N 0.82108 0.70135 0.37868 0.0
H1492 H 0.5374 0.71354 0.92595 0.0
H1493 H 0.2865 0.69801 0.84047 0.0
H1494 H 0.38065 0.70699 0.95606 0.0
H1495 H 0.43646 0.71025 0.81142 0.0
H1496 H 0.32599 0.69658 0.88238 0.0
H1497 H 0.50624 0.70795 0.88445 0.0
C1498 C 0.49629 0.71081 0.92387 0.0
C1499 C 0.46127 0.71094 0.94452 0.0
C1500 C 0.35076 0.6993 0.86681 0.0
C1501 C 0.42514 0.70451 0.89655 0.0
C1502 C 0.32848 0.69999 0.84279 0.0
C1503 C 0.35842 0.70419 0.82241 0.0
C1504 C 0.40345 0.70293 0.87062 0.0
C1505 C 0.41225 0.7068 0.8265 0.0
C1506 C 0.47861 0.7076 0.90007 0.0
C1507 C 0.4089 0.70707 0.94069 0.0
N1508 N 0.43284 0.7063 0.85024 0.0
N1509 N 0.39217 0.70417 0.91704 0.0
H1510 H 0.85346 0.59056 0.81637 0.0
H1511 H 0.91066 0.5879 0.9641 0.0
H1512 H 1.01119 0.59027 0.84876 0.0
H1513 H 0.75383 0.59217 0.93204 0.0
H1514 H 0.94941 0.5917 0.92236 0.0
H1515 H 0.81639 0.59408 0.85856 0.0
C1516 C 0.88027 0.59154 0.83219 0.0
C1517 C 0.93531 0.58998 0.82912 0.0
C1518 C 0.9065 0.59203 0.92459 0.0
C1519 C 0.89359 0.59376 0.87739 0.0
C1520 C 0.88456 0.58997 0.94848 0.0
C1521 C 0.82908 0.58961 0.95144 0.0
C1522 C 0.87258 0.59368 0.90365 0.0
C1523 C 0.79693 0.59221 0.93047 0.0
C1524 C 0.85923 0.59346 0.85633 0.0
C1525 C 0.96833 0.59123 0.85036 0.0
N1526 N 0.81898 0.59396 0.90749 0.0
N1527 N 0.94703 0.59288 0.87353 0.0
H1528 H 0.60985 0.45334 0.57954 0.0
H1529 H 0.69712 0.45375 0.7226 0.0
H1530 H 0.77295 0.45621 0.60427 0.0
H1531 H 0.53695 0.44676 0.69753 0.0
H1532 H 0.72908 0.45048 0.67951 0.0
H1533 H 0.5849 0.44678 0.62192 0.0
C1534 C 0.6406 0.45217 0.59364 0.0
C1535 C 0.69336 0.45533 0.58855 0.0
C1536 C 0.68709 0.44934 0.68355 0.0
C1537 C 0.66532 0.44825 0.63713 0.0
C1538 C 0.66909 0.45107 0.70824 0.0
C1539 C 0.61443 0.45057 0.7135 0.0
C1540 C 0.64996 0.44723 0.66412 0.0
C1541 C 0.57948 0.4473 0.69411 0.0
C1542 C 0.62644 0.44854 0.61792 0.0
C1543 C 0.73169 0.45389 0.60758 0.0
N1544 N 0.59761 0.44597 0.67025 0.0
N1545 N 0.71685 0.45066 0.6311 0.0
H1546 H 0.1227 0.37157 0.56717 0.0
H1547 H 0.14978 0.35979 0.69649 0.0
H1548 H 0.15404 0.33505 0.56032 0.0
H1549 H 0.11456 0.32451 0.67608 0.0
H1550 H 0.13677 0.36556 0.65246 0.0
H1551 H 0.10731 0.36893 0.61241 0.0
C1552 C 0.12541 0.36295 0.57516 0.0
C1553 C 0.13782 0.35342 0.55978 0.0
C1554 C 0.12982 0.35663 0.65768 0.0
C1555 C 0.12215 0.35034 0.61173 0.0
C1556 C 0.13678 0.35337 0.68297 0.0
C1557 C 0.13278 0.34167 0.68999 0.0
C1558 C 0.11914 0.34809 0.63937 0.0
C1559 C 0.11776 0.33363 0.67149 0.0
C1560 C 0.11705 0.36146 0.60105 0.0
C1561 C 0.14169 0.34249 0.57111 0.0
N1562 N 0.11246 0.33694 0.6471 0.0
N1563 N 0.1339 0.34126 0.59628 0.0
H1564 H 0.60868 0.33863 0.06863 0.0
H1565 H 0.60004 0.33419 0.21936 0.0
H1566 H 0.46666 0.33114 0.11134 0.0
H1567 H 0.74333 0.34002 0.17648 0.0
H1568 H 0.54751 0.33646 0.1805 0.0
H1569 H 0.65612 0.34247 0.10828 0.0
C1570 C 0.58728 0.338 0.08625 0.0
C1571 C 0.53388 0.33441 0.08665 0.0
C1572 C 0.59043 0.33743 0.1797 0.0
C1573 C 0.58771 0.33869 0.13207 0.0
C1574 C 0.62025 0.33624 0.20194 0.0
C1575 C 0.67605 0.33681 0.20109 0.0
C1576 C 0.61674 0.33923 0.15657 0.0
C1577 C 0.70034 0.33937 0.17792 0.0
C1578 C 0.61434 0.34013 0.10891 0.0
C1579 C 0.50811 0.3337 0.1101 0.0
N1580 N 0.67074 0.34035 0.15663 0.0
N1581 N 0.53527 0.3357 0.13177 0.0
H1582 H 0.18169 0.47762 0.21476 0.0
H1583 H 0.19482 0.44656 0.08112 0.0
H1584 H 0.13345 0.44237 0.20165 0.0
H1585 H 0.22692 0.48291 0.0927 0.0
H1586 H 0.19083 0.44382 0.12653 0.0
H1587 H 0.21969 0.47836 0.17241 0.0
C1588 C 0.18173 0.46982 0.2034 0.0
C1589 C 0.15545 0.45984 0.21187 0.0
C1590 C 0.19929 0.45238 0.11919 0.0
C1591 C 0.19606 0.4608 0.16284 0.0
C1592 C 0.20146 0.45398 0.09318 0.0
C1593 C 0.2105 0.46504 0.08293 0.0
C1594 C 0.20605 0.4619 0.13529 0.0
C1595 C 0.21936 0.47425 0.09967 0.0
C1596 C 0.20244 0.47032 0.17902 0.0
C1597 C 0.15454 0.45014 0.19604 0.0
N1598 N 0.21638 0.4725 0.12497 0.0
N1599 N 0.17367 0.45092 0.17214 0.0
H1600 H 0.16071 0.1823 0.99564 0.0
H1601 H 0.08893 0.11496 0.01535 0.0
H1602 H 1.0069 0.17017 0.02079 0.0
H1603 H 0.23623 0.1268 0.98225 0.0
H1604 H 0.05844 0.1351 0.0177 0.0
H1605 H 0.18957 0.1621 0.99108 0.0
C1606 C 0.13285 0.17546 1.00016 0.0
C1607 C 0.08122 0.17812 1.00882 0.0
C1608 C 0.09743 0.13329 1.00988 0.0
C1609 C 0.11441 0.1548 1.00376 0.0
C1610 C 0.11483 0.12172 1.0084 0.0
C1611 C 0.16561 0.11903 0.99877 0.0
C1612 C 0.13092 0.14232 1.00172 0.0
C1613 C 0.19727 0.12834 0.99029 0.0
C1614 C 0.14948 0.16388 0.99761 0.0
C1615 C 0.04734 0.16873 0.01452 0.0
N1616 N 0.17957 0.13949 0.99206 0.0
N1617 N 0.06451 0.15758 1.01194 0.0
H1618 H 0.36347 0.15156 0.23974 0.0
H1619 H 0.0966 0.11766 0.27809 0.0
H1620 H 0.22209 0.16859 0.2676 0.0
H1621 H 0.24629 0.10034 0.26419 0.0
H1622 H 0.14131 0.13636 0.27314 0.0
H1623 H 0.32096 0.13275 0.24727 0.0
C1624 C 0.32355 0.15136 0.24746 0.0
C1625 C 0.29651 0.16173 0.25306 0.0
C1626 C 0.16451 0.12848 0.27129 0.0
C1627 C 0.24733 0.14015 0.2617 0.0
C1628 C 0.13889 0.11778 0.27401 0.0
C1629 C 0.16756 0.10735 0.27153 0.0
C1630 C 0.21932 0.12885 0.26574 0.0
C1631 C 0.22256 0.1081 0.26651 0.0
C1632 C 0.29935 0.1406 0.25187 0.0
C1633 C 0.24489 0.16088 0.26326 0.0
N1634 N 0.24648 0.11863 0.26361 0.0
N1635 N 0.22199 0.15032 0.26709 0.0
H1636 H 0.99606 0.88101 0.02238 0.0
H1637 H 0.02022 0.94992 1.00288 0.0
H1638 H 0.1278 0.89721 0.98391 0.0
H1639 H 0.8864 0.93327 0.03868 0.0
H1640 H 0.06292 0.93092 0.99794 0.0
H1641 H 0.95824 0.90016 0.03057 0.0
C1642 C 0.01748 0.88856 0.01583 0.0
C1643 C 0.06545 0.88737 1.00235 0.0
C1644 C 0.02428 0.93143 1.00696 0.0
C1645 C 0.02153 0.90953 1.01151 0.0
C1646 C 0.99996 0.94232 1.00995 0.0
C1647 C 0.94929 0.94328 0.02112 0.0
C1648 C 0.99802 0.92136 0.01527 0.0
C1649 C 0.92498 0.93301 0.02961 0.0
C1650 C 0.99554 0.89954 0.0204 0.0
C1651 C 0.09053 0.8976 0.99409 0.0
N1652 N 0.9494 0.92255 0.02648 0.0
N1653 N 0.06832 0.9082 0.99875 0.0
H1654 H 0.89347 0.8627 0.71231 0.0
H1655 H 0.95591 0.92293 0.78097 0.0
H1656 H 0.84888 0.86961 0.78905 0.0
H1657 H 0.94306 0.92019 0.70044 0.0
H1658 H 0.92751 0.90268 0.78482 0.0
H1659 H 0.9231 0.88292 0.70812 0.0
C1660 C 0.89039 0.86843 0.72834 0.0
C1661 C 0.86861 0.86443 0.75108 0.0
C1662 C 0.93081 0.90651 0.76629 0.0
C1663 C 0.90256 0.88761 0.74643 0.0
C1664 C 0.94727 0.91806 0.76408 0.0
C1665 C 0.95188 0.9233 0.74034 0.0
C1666 C 0.91968 0.9 0.7446 0.0
C1667 C 0.9396 0.91655 0.71911 0.0
C1668 C 0.90689 0.88 0.72588 0.0
C1669 C 0.865 0.87232 0.77114 0.0
N1670 N 0.9245 0.90525 0.72172 0.0
N1671 N 0.882 0.88347 0.7684 0.0
H1672 H 0.06189 0.67126 0.43573 0.0
H1673 H 0.13375 0.61393 0.51483 0.0
H1674 H 0.05323 0.66896 0.51657 0.0
H1675 H 0.15177 0.61617 0.43436 0.0
H1676 H 0.10062 0.63384 0.51529 0.0
H1677 H 0.09242 0.65108 0.43438 0.0
C1678 C 0.06661 0.66658 0.45322 0.0
C1679 C 0.05469 0.67193 0.47631 0.0
C1680 C 0.11164 0.62999 0.49749 0.0
C1681 C 0.0892 0.64864 0.47484 0.0
C1682 C 0.13075 0.61858 0.49722 0.0
C1683 C 0.14607 0.61329 0.47455 0.0
C1684 C 0.10763 0.63628 0.47493 0.0
C1685 C 0.14021 0.61978 0.45229 0.0
C1686 C 0.08377 0.655 0.45241 0.0
C1687 C 0.06104 0.66526 0.49828 0.0
N1688 N 0.12176 0.63092 0.45306 0.0
N1689 N 0.07777 0.65404 0.49698 0.0
H1690 H 0.08246 0.67958 0.78308 0.0
H1691 H 0.20339 0.61488 0.78205 0.0
H1692 H 0.25117 0.67205 0.78259 0.0
H1693 H 0.03507 0.62254 0.78622 0.0
H1694 H 0.22203 0.63574 0.78365 0.0
H1695 H 0.06441 0.65874 0.78562 0.0
C1696 C 0.11575 0.67359 0.78367 0.0
C1697 C 0.16845 0.67768 0.78232 0.0
C1698 C 0.181 0.63284 0.78426 0.0
C1699 C 0.14803 0.65367 0.78505 0.0
C1700 C 0.17036 0.6209 0.78347 0.0
C1701 C 0.11752 0.61685 0.78369 0.0
C1702 C 0.13855 0.64085 0.78534 0.0
C1703 C 0.0764 0.62517 0.78542 0.0
C1704 C 0.10542 0.66165 0.785 0.0
C1705 C 0.20986 0.66939 0.78301 0.0
N1706 N 0.08775 0.6367 0.78607 0.0
N1707 N 0.19878 0.65785 0.78423 0.0
H1708 H 0.9069 0.43675 0.59145 0.0
H1709 H 0.95621 0.37865 0.5116 0.0
H1710 H 0.89548 0.43451 0.51075 0.0
H1711 H 0.9769 0.37993 0.59203 0.0
H1712 H 0.9341 0.39919 0.51162 0.0
H1713 H 0.93433 0.41627 0.59272 0.0
C1714 C 0.91079 0.43202 0.57399 0.0
C1715 C 0.89848 0.43739 0.55095 0.0
C1716 C 0.94348 0.39503 0.52933 0.0
C1717 C 0.92912 0.41388 0.5523 0.0
C1718 C 0.95634 0.38324 0.52932 0.0
C1719 C 0.96884 0.37747 0.55183 0.0
C1720 C 0.94284 0.40124 0.55203 0.0
C1721 C 0.96715 0.38394 0.57424 0.0
C1722 C 0.92604 0.42029 0.57474 0.0
C1723 C 0.90369 0.43074 0.52897 0.0
N1724 N 0.95453 0.39547 0.57377 0.0
N1725 N 0.91832 0.41939 0.53021 0.0
H1726 H 0.7948 0.37114 0.23929 0.0
H1727 H 0.02472 0.41936 0.247 0.0
H1728 H 0.96221 0.36282 0.24518 0.0
H1729 H 0.85818 0.42752 0.23632 0.0
H1730 H 1.00281 0.39873 0.24619 0.0
H1731 H 0.81734 0.39172 0.23796 0.0
C1732 C 0.83636 0.37361 0.2404 0.0
C1733 C 0.87656 0.36512 0.24255 0.0
C1734 C 0.97102 0.40502 0.24396 0.0
C1735 C 0.90285 0.3889 0.24084 0.0
C1736 C 0.98346 0.41686 0.24456 0.0
C1737 C 0.94327 0.42532 0.24189 0.0
C1738 C 0.91782 0.40149 0.24076 0.0
C1739 C 0.89066 0.4214 0.2383 0.0
C1740 C 0.84924 0.38541 0.23949 0.0
C1741 C 0.92979 0.36897 0.24338 0.0
N1742 N 0.87952 0.40983 0.23798 0.0
N1743 N 0.94129 0.38053 0.24266 0.0
H1744 H 0.70193 0.12696 0.51643 0.0
H1745 H 0.73693 0.19532 0.49173 0.0
H1746 H 0.85509 0.14329 0.5061 0.0
H1747 H 0.58484 0.17864 0.5028 0.0
H1748 H 0.78097 0.17643 0.49604 0.0
H1749 H 0.65877 0.14579 0.51088 0.0
C1750 C 0.72666 0.13446 0.51288 0.0
C1751 C 0.78255 0.1334 0.51172 0.0
C1752 C 0.73793 0.17691 0.49751 0.0
C1753 C 0.73284 0.15522 0.50549 0.0
C1754 C 0.71263 0.18772 0.49489 0.0
C1755 C 0.65682 0.1887 0.49699 0.0
C1756 C 0.70741 0.16692 0.50219 0.0
C1757 C 0.62786 0.17845 0.5014 0.0
C1758 C 0.70185 0.14527 0.50982 0.0
C1759 C 0.81209 0.14359 0.50745 0.0
N1760 N 0.65337 0.16806 0.50385 0.0
N1761 N 0.78697 0.15402 0.50446 0.0
H1762 H 0.58605 0.12302 0.72929 0.0
H1763 H 0.65622 0.1741 0.8263 0.0
H1764 H 0.62523 0.11657 0.80694 0.0
H1765 H 0.65263 0.17861 0.74592 0.0
H1766 H 0.63627 0.15341 0.82055 0.0
H1767 H 0.60298 0.14368 0.73583 0.0
C1768 C 0.5983 0.12595 0.74773 0.0
C1769 C 0.60432 0.11799 0.76754 0.0
C1770 C 0.63963 0.15894 0.80418 0.0
C1771 C 0.6235 0.14179 0.77531 0.0
C1772 C 0.65048 0.17079 0.80748 0.0
C1773 C 0.65611 0.17813 0.78655 0.0
C1774 C 0.63376 0.1544 0.77979 0.0
C1775 C 0.64904 0.17327 0.76257 0.0
C1776 C 0.60808 0.13776 0.75146 0.0
C1777 C 0.62069 0.12233 0.79103 0.0
N1778 N 0.63823 0.16177 0.75986 0.0
N1779 N 0.62938 0.13392 0.79429 0.0
H1780 H 0.29559 0.91815 0.52866 0.0
H1781 H 0.26818 0.85051 0.49504 0.0
H1782 H 0.17097 0.90447 0.48126 0.0
H1783 H 0.38986 0.86439 0.54382 0.0
H1784 H 0.23069 0.87002 0.49048 0.0
H1785 H 0.33011 0.89852 0.53446 0.0
C1786 C 0.27552 0.91107 0.51932 0.0
C1787 C 0.23013 0.91311 0.50436 0.0
C1788 C 0.26552 0.86879 0.50225 0.0
C1789 C 0.26954 0.89037 0.51122 0.0
C1790 C 0.28683 0.8576 0.50501 0.0
C1791 C 0.33263 0.8557 0.51979 0.0
C1792 C 0.28998 0.87823 0.51433 0.0
C1793 C 0.35513 0.86537 0.53194 0.0
C1794 C 0.29516 0.8998 0.52279 0.0
C1795 C 0.20563 0.90342 0.49315 0.0
N1796 N 0.33376 0.87615 0.52889 0.0
N1797 N 0.22564 0.89253 0.49676 0.0
H1798 H 0.4464 0.92275 0.29042 0.0
H1799 H 0.33057 0.8723 0.20251 0.0
H1800 H 0.38592 0.92939 0.21595 0.0
H1801 H 0.34398 0.86914 0.28298 0.0
H1802 H 0.3597 0.89258 0.20567 0.0
H1803 H 0.41723 0.90256 0.28684 0.0
C1804 C 0.42694 0.91995 0.2733 0.0
C1805 C 0.41858 0.92781 0.25348 0.0
C1806 C 0.35631 0.88744 0.22263 0.0
C1807 C 0.3854 0.90457 0.2491 0.0
C1808 C 0.34014 0.87582 0.22081 0.0
C1809 C 0.33477 0.86897 0.24252 0.0
C1810 C 0.36805 0.89223 0.24629 0.0
C1811 C 0.3471 0.87409 0.26577 0.0
C1812 C 0.41013 0.90843 0.27129 0.0
C1813 C 0.39271 0.92369 0.23179 0.0
N1814 N 0.36331 0.88535 0.26702 0.0
N1815 N 0.37745 0.91235 0.2301 0.0
H1816 H 0.62168 0.67937 0.03748 0.0
H1817 H 0.6345 0.62031 0.95852 0.0
H1818 H 0.64009 0.67912 0.95701 0.0
H1819 H 0.67269 0.6221 0.03738 0.0
H1820 H 0.62624 0.64157 0.95761 0.0
H1821 H 0.63119 0.65821 0.03791 0.0
C1822 C 0.62789 0.67486 0.0199 0.0
C1823 C 0.63027 0.68106 0.9972 0.0
C1824 C 0.63638 0.6373 0.97511 0.0
C1825 C 0.64043 0.65671 0.99746 0.0
C1826 C 0.64063 0.62515 0.97569 0.0
C1827 C 0.6543 0.61937 0.99808 0.0
C1828 C 0.64493 0.64375 0.99718 0.0
C1829 C 0.66248 0.62616 0.01968 0.0
C1830 C 0.63342 0.66277 0.02014 0.0
C1831 C 0.6386 0.67472 0.97496 0.0
N1832 N 0.6574 0.63793 0.01872 0.0
N1833 N 0.64289 0.66291 0.97562 0.0
H1834 H 0.54914 0.68803 0.29914 0.0
H1835 H 0.62339 0.6214 0.3274 0.0
H1836 H 0.7049 0.67652 0.32306 0.0
H1837 H 0.47444 0.63223 0.29407 0.0
H1838 H 0.65042 0.64174 0.33013 0.0
H1839 H 0.51761 0.66792 0.30142 0.0
C1840 C 0.57654 0.68131 0.30517 0.0
C1841 C 0.62991 0.68399 0.31074 0.0
C1842 C 0.61174 0.63967 0.32227 0.0
C1843 C 0.59418 0.66089 0.31324 0.0
C1844 C 0.59613 0.62803 0.32084 0.0
C1845 C 0.54667 0.62501 0.31028 0.0
C1846 C 0.57761 0.64844 0.31323 0.0
C1847 C 0.51331 0.63407 0.30192 0.0
C1848 C 0.55863 0.66981 0.3063 0.0
C1849 C 0.66369 0.67486 0.31822 0.0
N1850 N 0.52937 0.64532 0.30353 0.0
N1851 N 0.64537 0.66377 0.31918 0.0
H1852 H 0.12272 0.40145 1.00345 0.0
H1853 H 0.38543 0.36497 0.0383 0.0
H1854 H 0.27855 0.41663 0.01382 0.0
H1855 H 0.23575 0.34892 0.01868 0.0
H1856 H 0.34477 0.38396 0.03217 0.0
H1857 H 0.16131 0.38232 1.01127 0.0
C1858 C 0.16501 0.40084 1.00726 0.0
C1859 C 0.19714 0.41085 1.00785 0.0
C1860 C 0.32068 0.3763 0.02922 0.0
C1861 C 0.24166 0.38875 0.01724 0.0
C1862 C 0.34401 0.36539 0.03264 0.0
C1863 C 0.31436 0.35521 0.02875 0.0
C1864 C 0.26696 0.37718 0.02192 0.0
C1865 C 0.26031 0.35646 0.02201 0.0
C1866 C 0.187 0.38985 1.01186 0.0
C1867 C 0.25168 0.40932 0.01335 0.0
N1868 N 0.23849 0.36721 0.01872 0.0
N1869 N 0.27203 0.39854 0.01779 0.0
H1870 H 0.33352 0.43281 0.76251 0.0
H1871 H 0.42058 0.36701 0.73302 0.0
H1872 H 0.49481 0.42263 0.74453 0.0
H1873 H 0.25799 0.37771 0.74639 0.0
H1874 H 0.44846 0.38731 0.73634 0.0
H1875 H 0.30496 0.41276 0.75587 0.0
C1876 C 0.36297 0.42643 0.75702 0.0
C1877 C 0.4169 0.42953 0.75435 0.0
C1878 C 0.40665 0.38521 0.73852 0.0
C1879 C 0.38433 0.40635 0.74689 0.0
C1880 C 0.39063 0.37358 0.7365 0.0
C1881 C 0.33679 0.3705 0.73965 0.0
C1882 C 0.36867 0.3939 0.7437 0.0
C1883 C 0.30005 0.37951 0.74432 0.0
C1884 C 0.34663 0.41492 0.75334 0.0
C1885 C 0.45305 0.42072 0.74735 0.0
N1886 N 0.31663 0.39072 0.74627 0.0
N1887 N 0.43621 0.4096 0.74398 0.0
loop_
_geom_bond_atom_site_label_1
_geom_bond_atom_site_label_2
_geom_bond_distance
_geom_bond_site_symmetry_2
_ccdc_geom_bond_type
Cu0 N1 1.999 . S
Cu0 O6 1.974 . S
Cu0 N11 1.985 . S
Cu0 O20 1.959 1_554 S
N1 Cu0 1.999 . S
N1 C3 1.263 . S
N1 C5 1.389 1_554 S
N2 C3 1.358 . S
N2 C4 1.400 1_554 S
C3 N1 1.263 . S
C3 N2 1.358 . S
C3 H9 0.930 . S
C4 N2 1.400 1_556 S
C4 C5 1.351 . S
C4 H21 0.930 . S
C5 N1 1.389 1_556 S
C5 C4 1.351 . S
C5 H10 0.930 . S
O6 Cu0 1.974 . S
O6 C16 1.282 . S
C7 O8 1.261 . S
C7 O20 1.251 . S
O8 C7 1.261 . S
H9 C3 0.930 . S
H10 C5 0.930 . S
N11 Cu0 1.985 . S
N11 C13 1.336 . S
N11 C14 1.390 . S
N12 C13 1.345 . S
N12 C15 1.336 . S
C13 N11 1.336 . S
C13 N12 1.345 . S
C13 H18 0.928 1_554 S
C14 N11 1.390 . S
C14 C15 1.346 . S
C14 H19 0.930 . S
C15 N12 1.336 . S
C15 C14 1.346 . S
C15 H22 0.929 . S
C16 O6 1.282 . S
C16 O17 1.216 . S
O17 C16 1.216 . S
H18 C13 0.928 1_556 S
H19 C14 0.930 . S
O20 Cu0 1.959 1_556 S
O20 C7 1.251 . S
H21 C4 0.930 . S
H22 C15 0.929 . S
Cu23 N24 1.999 . S
Cu23 O29 1.974 . S
Cu23 N34 1.985 . S
Cu23 O43 1.959 1_554 S
N24 Cu23 1.999 . S
N24 C26 1.263 1_655 S
N24 C28 1.389 1_554 S
N25 C26 1.358 . S
N25 C27 1.394 1_454 S
C26 N24 1.263 1_455 S
C26 N25 1.358 . S
C26 H32 0.930 . S
C27 N25 1.394 1_656 S
C27 C28 1.356 . S
C27 H44 0.932 . S
C28 N24 1.389 1_556 S
C28 C27 1.356 . S
C28 H33 0.930 . S
O29 Cu23 1.974 . S
O29 C39 1.282 1_655 S
C30 O31 1.261 . S
C30 O43 1.251 . S
O31 C30 1.261 . S
H32 C26 0.930 . S
H33 C28 0.930 . S
N34 Cu23 1.985 . S
N34 C36 1.336 . S
N34 C37 1.390 . S
N35 C36 1.345 . S
N35 C38 1.336 . S
C36 N34 1.336 . S
C36 N35 1.345 . S
C36 H41 0.928 1_554 S
C37 N34 1.390 . S
C37 C38 1.346 . S
C37 H42 0.930 . S
C38 N35 1.336 . S
C38 C37 1.346 . S
C38 H45 0.929 . S
C39 O29 1.282 1_455 S
C39 O40 1.216 . S
O40 C39 1.216 . S
H41 C36 0.928 1_556 S
H42 C37 0.930 . S
O43 Cu23 1.959 1_556 S
O43 C30 1.251 . S
H44 C27 0.932 . S
H45 C38 0.929 . S
Cu46 N47 1.999 . S
Cu46 O52 1.974 . S
Cu46 N57 1.985 . S
Cu46 O66 1.959 . S
N47 Cu46 1.999 . S
N47 C49 1.263 . S
N47 C51 1.389 . S
N48 C49 1.358 . S
N48 C50 1.400 . S
C49 N47 1.263 . S
C49 N48 1.358 . S
C49 H55 0.930 . S
C50 N48 1.400 . S
C50 C51 1.351 . S
C50 H67 0.930 . S
C51 N47 1.389 . S
C51 C50 1.351 . S
C51 H56 0.930 . S
O52 Cu46 1.974 . S
O52 C62 1.282 . S
C53 O54 1.261 . S
C53 O66 1.251 . S
O54 C53 1.261 . S
H55 C49 0.930 . S
H56 C51 0.930 . S
N57 Cu46 1.985 . S
N57 C59 1.335 . S
N57 C60 1.390 . S
N58 C59 1.345 . S
N58 C61 1.336 . S
C59 N57 1.335 . S
C59 N58 1.345 . S
C59 H64 0.930 . S
C60 N57 1.390 . S
C60 C61 1.346 . S
C60 H65 0.930 . S
C61 N58 1.336 . S
C61 C60 1.346 . S
C61 H68 0.929 . S
C62 O52 1.282 . S
C62 O63 1.216 . S
O63 C62 1.216 . S
H64 C59 0.930 . S
H65 C60 0.930 . S
O66 Cu46 1.959 . S
O66 C53 1.251 . S
H67 C50 0.930 . S
H68 C61 0.929 . S
Cu69 N70 1.999 . S
Cu69 O75 1.974 . S
Cu69 N80 1.985 . S
Cu69 O89 1.959 . S
N70 Cu69 1.999 . S
N70 C72 1.263 1_655 S
N70 C74 1.389 . S
N71 C72 1.358 . S
N71 C73 1.395 1_455 S
C72 N70 1.263 1_455 S
C72 N71 1.358 . S
C72 H78 0.930 . S
C73 N71 1.395 1_655 S
C73 C74 1.355 . S
C73 H90 0.931 . S
C74 N70 1.389 . S
C74 C73 1.355 . S
C74 H79 0.930 . S
O75 Cu69 1.974 . S
O75 C85 1.282 1_655 S
C76 O77 1.261 . S
C76 O89 1.251 . S
O77 C76 1.261 . S
H78 C72 0.930 . S
H79 C74 0.930 . S
N80 Cu69 1.985 . S
N80 C82 1.335 . S
N80 C83 1.390 . S
N81 C82 1.345 . S
N81 C84 1.336 . S
C82 N80 1.335 . S
C82 N81 1.345 . S
C82 H87 0.930 . S
C83 N80 1.390 . S
C83 C84 1.346 . S
C83 H88 0.930 . S
C84 N81 1.336 . S
C84 C83 1.346 . S
C84 H91 0.929 . S
C85 O75 1.282 1_455 S
C85 O86 1.216 . S
O86 C85 1.216 . S
H87 C82 0.930 . S
H88 C83 0.930 . S
O89 Cu69 1.959 . S
O89 C76 1.251 . S
H90 C73 0.931 . S
H91 C84 0.929 . S
Cu92 N93 1.999 . S
Cu92 O98 1.974 . S
Cu92 N103 1.985 . S
Cu92 O112 1.959 1_556 S
N93 Cu92 1.999 . S
N93 C95 1.263 . S
N93 C97 1.389 1_556 S
N94 C95 1.358 . S
N94 C96 1.400 1_556 S
C95 N93 1.263 . S
C95 N94 1.358 . S
C95 H101 0.930 . S
C96 N94 1.400 1_554 S
C96 C97 1.351 . S
C96 H113 0.930 . S
C97 N93 1.389 1_554 S
C97 C96 1.351 . S
C97 H102 0.930 . S
O98 Cu92 1.974 . S
O98 C108 1.282 . S
C99 O100 1.261 . S
C99 O112 1.251 . S
O100 C99 1.261 . S
H101 C95 0.930 . S
H102 C97 0.930 . S
N103 Cu92 1.985 . S
N103 C105 1.336 . S
N103 C106 1.390 . S
N104 C105 1.345 . S
N104 C107 1.336 . S
C105 N103 1.336 . S
C105 N104 1.345 . S
C105 H110 0.928 1_556 S
C106 N103 1.390 . S
C106 C107 1.346 . S
C106 H111 0.930 . S
C107 N104 1.336 . S
C107 C106 1.346 . S
C107 H114 0.929 . S
C108 O98 1.282 . S
C108 O109 1.216 . S
O109 C108 1.216 . S
H110 C105 0.928 1_554 S
H111 C106 0.930 . S
O112 Cu92 1.959 1_554 S
O112 C99 1.251 . S
H113 C96 0.930 . S
H114 C107 0.929 . S
Cu115 N116 1.999 . S
Cu115 O121 1.974 . S
Cu115 N126 1.985 . S
Cu115 O135 1.959 1_556 S
N116 Cu115 1.999 . S
N116 C118 1.263 1_455 S
N116 C120 1.389 1_556 S
N117 C118 1.358 . S
N117 C119 1.394 1_656 S
C118 N116 1.263 1_655 S
C118 N117 1.358 . S
C118 H124 0.930 . S
C119 N117 1.394 1_454 S
C119 C120 1.356 . S
C119 H136 0.932 . S
C120 N116 1.389 1_554 S
C120 C119 1.356 . S
C120 H125 0.930 . S
O121 Cu115 1.974 . S
O121 C131 1.282 1_455 S
C122 O123 1.261 . S
C122 O135 1.251 . S
O123 C122 1.261 . S
H124 C118 0.930 . S
H125 C120 0.930 . S
N126 Cu115 1.985 . S
N126 C128 1.336 . S
N126 C129 1.390 . S
N127 C128 1.345 . S
N127 C130 1.336 . S
C128 N126 1.336 . S
C128 N127 1.345 . S
C128 H133 0.928 1_556 S
C129 N126 1.390 . S
C129 C130 1.346 . S
C129 H134 0.930 . S
C130 N127 1.336 . S
C130 C129 1.346 . S
C130 H137 0.929 . S
C131 O121 1.282 1_655 S
C131 O132 1.216 . S
O132 C131 1.216 . S
H133 C128 0.928 1_554 S
H134 C129 0.930 . S
O135 Cu115 1.959 1_554 S
O135 C122 1.251 . S
H136 C119 0.932 . S
H137 C130 0.929 . S
Cu138 N139 1.999 . S
Cu138 O144 1.974 . S
Cu138 N149 1.985 . S
Cu138 O158 1.959 . S
N139 Cu138 1.999 . S
N139 C141 1.263 . S
N139 C143 1.389 . S
N140 C141 1.358 . S
N140 C142 1.400 . S
C141 N139 1.263 . S
C141 N140 1.358 . S
C141 H147 0.930 . S
C142 N140 1.400 . S
C142 C143 1.351 . S
C142 H159 0.930 . S
C143 N139 1.389 . S
C143 C142 1.351 . S
C143 H148 0.930 . S
O144 Cu138 1.974 . S
O144 C154 1.282 . S
C145 O146 1.261 . S
C145 O158 1.251 . S
O146 C145 1.261 . S
H147 C141 0.930 . S
H148 C143 0.930 . S
N149 Cu138 1.985 . S
N149 C151 1.335 . S
N149 C152 1.390 . S
N150 C151 1.345 . S
N150 C153 1.336 . S
C151 N149 1.335 . S
C151 N150 1.345 . S
C151 H156 0.930 . S
C152 N149 1.390 . S
C152 C153 1.346 . S
C152 H157 0.930 . S
C153 N150 1.336 . S
C153 C152 1.346 . S
C153 H160 0.929 . S
C154 O144 1.282 . S
C154 O155 1.216 . S
O155 C154 1.216 . S
H156 C151 0.930 . S
H157 C152 0.930 . S
O158 Cu138 1.959 . S
O158 C145 1.251 . S
H159 C142 0.930 . S
H160 C153 0.929 . S
Cu161 N162 1.999 . S
Cu161 O167 1.974 . S
Cu161 N172 1.985 . S
Cu161 O181 1.959 . S
N162 Cu161 1.999 . S
N162 C164 1.263 1_455 S
N162 C166 1.389 . S
N163 C164 1.358 . S
N163 C165 1.395 1_655 S
C164 N162 1.263 1_655 S
C164 N163 1.358 . S
C164 H170 0.930 . S
C165 N163 1.395 1_455 S
C165 C166 1.355 . S
C165 H182 0.931 . S
C166 N162 1.389 . S
C166 C165 1.355 . S
C166 H171 0.930 . S
O167 Cu161 1.974 . S
O167 C177 1.282 1_455 S
C168 O169 1.261 . S
C168 O181 1.251 . S
O169 C168 1.261 . S
H170 C164 0.930 . S
H171 C166 0.930 . S
N172 Cu161 1.985 . S
N172 C174 1.335 . S
N172 C175 1.390 . S
N173 C174 1.345 . S
N173 C176 1.336 . S
C174 N172 1.335 . S
C174 N173 1.345 . S
C174 H179 0.930 . S
C175 N172 1.390 . S
C175 C176 1.346 . S
C175 H180 0.930 . S
C176 N173 1.336 . S
C176 C175 1.346 . S
C176 H183 0.929 . S
C177 O167 1.282 1_655 S
C177 O178 1.216 . S
O178 C177 1.216 . S
H179 C174 0.930 . S
H180 C175 0.930 . S
O181 Cu161 1.959 . S
O181 C168 1.251 . S
H182 C165 0.931 . S
H183 C176 0.929 . S
Cu184 N185 1.999 . S
Cu184 O190 1.974 . S
Cu184 N195 1.985 . S
Cu184 O204 1.959 . S
N185 Cu184 1.999 . S
N185 C187 1.263 . S
N185 C189 1.389 . S
N186 C187 1.358 . S
N186 C188 1.400 . S
C187 N185 1.263 . S
C187 N186 1.358 . S
C187 H193 0.930 . S
C188 N186 1.400 . S
C188 C189 1.351 . S
C188 H205 0.930 . S
C189 N185 1.389 . S
C189 C188 1.351 . S
C189 H194 0.930 . S
O190 Cu184 1.974 . S
O190 C200 1.282 . S
C191 O192 1.261 . S
C191 O204 1.251 . S
O192 C191 1.261 . S
H193 C187 0.930 . S
H194 C189 0.930 . S
N195 Cu184 1.985 . S
N195 C197 1.335 . S
N195 C198 1.390 . S
N196 C197 1.345 . S
N196 C199 1.336 . S
C197 N195 1.335 . S
C197 N196 1.345 . S
C197 H202 0.930 . S
C198 N195 1.390 . S
C198 C199 1.346 . S
C198 H203 0.930 . S
C199 N196 1.336 . S
C199 C198 1.346 . S
C199 H206 0.929 . S
C200 O190 1.282 . S
C200 O201 1.216 . S
O201 C200 1.216 . S
H202 C197 0.930 . S
H203 C198 0.930 . S
O204 Cu184 1.959 . S
O204 C191 1.251 . S
H205 C188 0.930 . S
H206 C199 0.929 . S
Cu207 N208 1.999 . S
Cu207 O213 1.974 . S
Cu207 N218 1.985 . S
Cu207 O227 1.959 . S
N208 Cu207 1.999 . S
N208 C210 1.263 1_655 S
N208 C212 1.389 . S
N209 C210 1.358 . S
N209 C211 1.397 1_455 S
C210 N208 1.263 1_455 S
C210 N209 1.358 . S
C210 H216 0.930 . S
C211 N209 1.397 1_655 S
C211 C212 1.353 . S
C211 H228 0.931 . S
C212 N208 1.389 . S
C212 C211 1.353 . S
C212 H217 0.930 . S
O213 Cu207 1.974 . S
O213 C223 1.282 1_655 S
C214 O215 1.261 . S
C214 O227 1.251 . S
O215 C214 1.261 . S
H216 C210 0.930 . S
H217 C212 0.930 . S
N218 Cu207 1.985 . S
N218 C220 1.335 . S
N218 C221 1.390 . S
N219 C220 1.345 . S
N219 C222 1.336 . S
C220 N218 1.335 . S
C220 N219 1.345 . S
C220 H225 0.930 . S
C221 N218 1.390 . S
C221 C222 1.346 . S
C221 H226 0.930 . S
C222 N219 1.336 . S
C222 C221 1.346 . S
C222 H229 0.929 . S
C223 O213 1.282 1_455 S
C223 O224 1.216 . S
O224 C223 1.216 . S
H225 C220 0.930 . S
H226 C221 0.930 . S
O227 Cu207 1.959 . S
O227 C214 1.251 . S
H228 C211 0.931 . S
H229 C222 0.929 . S
Cu230 N231 1.999 . S
Cu230 O236 1.974 . S
Cu230 N241 1.985 . S
Cu230 O250 1.959 . S
N231 Cu230 1.999 . S
N231 C233 1.263 . S
N231 C235 1.389 . S
N232 C233 1.358 . S
N232 C234 1.400 . S
C233 N231 1.263 . S
C233 N232 1.358 . S
C233 H239 0.930 . S
C234 N232 1.400 . S
C234 C235 1.351 . S
C234 H251 0.930 . S
C235 N231 1.389 . S
C235 C234 1.351 . S
C235 H240 0.930 . S
O236 Cu230 1.974 . S
O236 C246 1.282 . S
C237 O238 1.261 . S
C237 O250 1.251 . S
O238 C237 1.261 . S
H239 C233 0.930 . S
H240 C235 0.930 . S
N241 Cu230 1.985 . S
N241 C243 1.335 . S
N241 C244 1.390 . S
N242 C243 1.345 . S
N242 C245 1.336 . S
C243 N241 1.335 . S
C243 N242 1.345 . S
C243 H248 0.930 . S
C244 N241 1.390 . S
C244 C245 1.346 . S
C244 H249 0.930 . S
C245 N242 1.336 . S
C245 C244 1.346 . S
C245 H252 0.929 . S
C246 O236 1.282 . S
C246 O247 1.216 . S
O247 C246 1.216 . S
H248 C243 0.930 . S
H249 C244 0.930 . S
O250 Cu230 1.959 . S
O250 C237 1.251 . S
H251 C234 0.930 . S
H252 C245 0.929 . S
Cu253 N254 1.999 . S
Cu253 O259 1.974 . S
Cu253 N264 1.985 . S
Cu253 O273 1.959 . S
N254 Cu253 1.999 . S
N254 C256 1.263 1_655 S
N254 C258 1.389 . S
N255 C256 1.358 . S
N255 C257 1.397 1_455 S
C256 N254 1.263 1_455 S
C256 N255 1.358 . S
C256 H262 0.930 . S
C257 N255 1.397 1_655 S
C257 C258 1.354 . S
C257 H274 0.931 . S
C258 N254 1.389 . S
C258 C257 1.354 . S
C258 H263 0.930 . S
O259 Cu253 1.974 . S
O259 C269 1.282 1_655 S
C260 O261 1.261 . S
C260 O273 1.251 . S
O261 C260 1.261 . S
H262 C256 0.930 . S
H263 C258 0.930 . S
N264 Cu253 1.985 . S
N264 C266 1.335 . S
N264 C267 1.390 . S
N265 C266 1.345 . S
N265 C268 1.336 . S
C266 N264 1.335 . S
C266 N265 1.345 . S
C266 H271 0.930 . S
C267 N264 1.390 . S
C267 C268 1.346 . S
C267 H272 0.930 . S
C268 N265 1.336 . S
C268 C267 1.346 . S
C268 H275 0.929 . S
C269 O259 1.282 1_455 S
C269 O270 1.216 . S
O270 C269 1.216 . S
H271 C266 0.930 . S
H272 C267 0.930 . S
O273 Cu253 1.959 . S
O273 C260 1.251 . S
H274 C257 0.931 . S
H275 C268 0.929 . S
Cu276 N277 1.999 . S
Cu276 O282 1.974 . S
Cu276 N287 1.985 . S
Cu276 O296 1.959 . S
N277 Cu276 1.999 . S
N277 C279 1.263 . S
N277 C281 1.389 . S
N278 C279 1.358 . S
N278 C280 1.400 . S
C279 N277 1.263 . S
C279 N278 1.358 . S
C279 H285 0.930 . S
C280 N278 1.400 . S
C280 C281 1.351 . S
C280 H297 0.930 . S
C281 N277 1.389 . S
C281 C280 1.351 . S
C281 H286 0.930 . S
O282 Cu276 1.974 . S
O282 C292 1.282 . S
C283 O284 1.261 . S
C283 O296 1.251 . S
O284 C283 1.261 . S
H285 C279 0.930 . S
H286 C281 0.930 . S
N287 Cu276 1.985 . S
N287 C289 1.335 . S
N287 C290 1.390 . S
N288 C289 1.345 . S
N288 C291 1.336 . S
C289 N287 1.335 . S
C289 N288 1.345 . S
C289 H294 0.930 . S
C290 N287 1.390 . S
C290 C291 1.346 . S
C290 H295 0.930 . S
C291 N288 1.336 . S
C291 C290 1.346 . S
C291 H298 0.929 . S
C292 O282 1.282 . S
C292 O293 1.216 . S
O293 C292 1.216 . S
H294 C289 0.930 . S
H295 C290 0.930 . S
O296 Cu276 1.959 . S
O296 C283 1.251 . S
H297 C280 0.930 . S
H298 C291 0.929 . S
Cu299 N300 1.999 . S
Cu299 O305 1.974 . S
Cu299 N310 1.985 . S
Cu299 O319 1.959 . S
N300 Cu299 1.999 . S
N300 C302 1.263 1_455 S
N300 C304 1.389 . S
N301 C302 1.358 . S
N301 C303 1.397 1_655 S
C302 N300 1.263 1_655 S
C302 N301 1.358 . S
C302 H308 0.930 . S
C303 N301 1.397 1_455 S
C303 C304 1.353 . S
C303 H320 0.931 . S
C304 N300 1.389 . S
C304 C303 1.353 . S
C304 H309 0.930 . S
O305 Cu299 1.974 . S
O305 C315 1.282 1_455 S
C306 O307 1.261 . S
C306 O319 1.251 . S
O307 C306 1.261 . S
H308 C302 0.930 . S
H309 C304 0.930 . S
N310 Cu299 1.985 . S
N310 C312 1.335 . S
N310 C313 1.390 . S
N311 C312 1.345 . S
N311 C314 1.336 . S
C312 N310 1.335 . S
C312 N311 1.345 . S
C312 H317 0.930 . S
C313 N310 1.390 . S
C313 C314 1.346 . S
C313 H318 0.930 . S
C314 N311 1.336 . S
C314 C313 1.346 . S
C314 H321 0.929 . S
C315 O305 1.282 1_655 S
C315 O316 1.216 . S
O316 C315 1.216 . S
H317 C312 0.930 . S
H318 C313 0.930 . S
O319 Cu299 1.959 . S
O319 C306 1.251 . S
H320 C303 0.931 . S
H321 C314 0.929 . S
Cu322 N323 1.999 . S
Cu322 O328 1.974 . S
Cu322 N333 1.985 . S
Cu322 O342 1.959 . S
N323 Cu322 1.999 . S
N323 C325 1.263 . S
N323 C327 1.389 . S
N324 C325 1.358 . S
N324 C326 1.400 . S
C325 N323 1.263 . S
C325 N324 1.358 . S
C325 H331 0.930 . S
C326 N324 1.400 . S
C326 C327 1.351 . S
C326 H343 0.930 . S
C327 N323 1.389 . S
C327 C326 1.351 . S
C327 H332 0.930 . S
O328 Cu322 1.974 . S
O328 C338 1.282 . S
C329 O330 1.261 . S
C329 O342 1.251 . S
O330 C329 1.261 . S
H331 C325 0.930 . S
H332 C327 0.930 . S
N333 Cu322 1.985 . S
N333 C335 1.335 . S
N333 C336 1.390 . S
N334 C335 1.345 . S
N334 C337 1.336 . S
C335 N333 1.335 . S
C335 N334 1.345 . S
C335 H340 0.930 . S
C336 N333 1.390 . S
C336 C337 1.346 . S
C336 H341 0.930 . S
C337 N334 1.336 . S
C337 C336 1.346 . S
C337 H344 0.929 . S
C338 O328 1.282 . S
C338 O339 1.216 . S
O339 C338 1.216 . S
H340 C335 0.930 . S
H341 C336 0.930 . S
O342 Cu322 1.959 . S
O342 C329 1.251 . S
H343 C326 0.930 . S
H344 C337 0.929 . S
Cu345 N346 1.999 . S
Cu345 O351 1.974 . S
Cu345 N356 1.985 . S
Cu345 O365 1.959 . S
N346 Cu345 1.999 . S
N346 C348 1.263 1_455 S
N346 C350 1.389 . S
N347 C348 1.358 . S
N347 C349 1.397 1_655 S
C348 N346 1.263 1_655 S
C348 N347 1.358 . S
C348 H354 0.930 . S
C349 N347 1.397 1_455 S
C349 C350 1.354 . S
C349 H366 0.931 . S
C350 N346 1.389 . S
C350 C349 1.354 . S
C350 H355 0.930 . S
O351 Cu345 1.974 . S
O351 C361 1.282 1_455 S
C352 O353 1.261 . S
C352 O365 1.251 . S
O353 C352 1.261 . S
H354 C348 0.930 . S
H355 C350 0.930 . S
N356 Cu345 1.985 . S
N356 C358 1.335 . S
N356 C359 1.390 . S
N357 C358 1.345 . S
N357 C360 1.336 . S
C358 N356 1.335 . S
C358 N357 1.345 . S
C358 H363 0.930 . S
C359 N356 1.390 . S
C359 C360 1.346 . S
C359 H364 0.930 . S
C360 N357 1.336 . S
C360 C359 1.346 . S
C360 H367 0.929 . S
C361 O351 1.282 1_655 S
C361 O362 1.216 . S
O362 C361 1.216 . S
H363 C358 0.930 . S
H364 C359 0.930 . S
O365 Cu345 1.959 . S
O365 C352 1.251 . S
H366 C349 0.931 . S
H367 C360 0.929 . S
Cu368 N369 1.999 . S
Cu368 O374 1.974 . S
Cu368 N379 1.985 . S
Cu368 O388 1.959 . S
N369 Cu368 1.999 . S
N369 C371 1.263 . S
N369 C373 1.389 . S
N370 C371 1.358 . S
N370 C372 1.400 . S
C371 N369 1.263 . S
C371 N370 1.358 . S
C371 H377 0.930 . S
C372 N370 1.400 . S
C372 C373 1.351 . S
C372 H389 0.930 . S
C373 N369 1.389 . S
C373 C372 1.351 . S
C373 H378 0.930 . S
O374 Cu368 1.974 . S
O374 C384 1.282 . S
C375 O376 1.261 . S
C375 O388 1.251 . S
O376 C375 1.261 . S
H377 C371 0.930 . S
H378 C373 0.930 . S
N379 Cu368 1.985 . S
N379 C381 1.335 . S
N379 C382 1.390 . S
N380 C381 1.345 . S
N380 C383 1.336 . S
C381 N379 1.335 . S
C381 N380 1.345 . S
C381 H386 0.930 . S
C382 N379 1.390 . S
C382 C383 1.346 . S
C382 H387 0.930 . S
C383 N380 1.336 . S
C383 C382 1.346 . S
C383 H390 0.929 . S
C384 O374 1.282 . S
C384 O385 1.216 . S
O385 C384 1.216 . S
H386 C381 0.930 . S
H387 C382 0.930 . S
O388 Cu368 1.959 . S
O388 C375 1.251 . S
H389 C372 0.930 . S
H390 C383 0.929 . S
Cu391 N392 1.999 . S
Cu391 O397 1.974 . S
Cu391 N402 1.985 . S
Cu391 O411 1.959 . S
N392 Cu391 1.999 . S
N392 C394 1.263 . S
N392 C396 1.389 . S
N393 C394 1.358 . S
N393 C395 1.400 . S
C394 N392 1.263 . S
C394 N393 1.358 . S
C394 H400 0.930 . S
C395 N393 1.400 . S
C395 C396 1.351 . S
C395 H412 0.930 . S
C396 N392 1.389 . S
C396 C395 1.351 . S
C396 H401 0.930 . S
O397 Cu391 1.974 . S
O397 C407 1.282 . S
C398 O399 1.261 . S
C398 O411 1.251 . S
O399 C398 1.261 . S
H400 C394 0.930 . S
H401 C396 0.930 . S
N402 Cu391 1.985 . S
N402 C404 1.335 . S
N402 C405 1.390 . S
N403 C404 1.345 . S
N403 C406 1.336 . S
C404 N402 1.335 . S
C404 N403 1.345 . S
C404 H409 0.930 . S
C405 N402 1.390 . S
C405 C406 1.346 . S
C405 H410 0.930 . S
C406 N403 1.336 . S
C406 C405 1.346 . S
C406 H413 0.929 . S
C407 O397 1.282 . S
C407 O408 1.216 . S
O408 C407 1.216 . S
H409 C404 0.930 . S
H410 C405 0.930 . S
O411 Cu391 1.959 . S
O411 C398 1.251 . S
H412 C395 0.930 . S
H413 C406 0.929 . S
Cu414 N415 1.999 . S
Cu414 O420 1.974 . S
Cu414 N425 1.985 . S
Cu414 O434 1.959 . S
N415 Cu414 1.999 . S
N415 C417 1.263 . S
N415 C419 1.389 . S
N416 C417 1.358 . S
N416 C418 1.400 . S
C417 N415 1.263 . S
C417 N416 1.358 . S
C417 H423 0.930 . S
C418 N416 1.400 . S
C418 C419 1.351 . S
C418 H435 0.930 . S
C419 N415 1.389 . S
C419 C418 1.351 . S
C419 H424 0.930 . S
O420 Cu414 1.974 . S
O420 C430 1.282 . S
C421 O422 1.261 . S
C421 O434 1.251 . S
O422 C421 1.261 . S
H423 C417 0.930 . S
H424 C419 0.930 . S
N425 Cu414 1.985 . S
N425 C427 1.335 . S
N425 C428 1.390 . S
N426 C427 1.345 . S
N426 C429 1.336 . S
C427 N425 1.335 . S
C427 N426 1.345 . S
C427 H432 0.930 . S
C428 N425 1.390 . S
C428 C429 1.346 . S
C428 H433 0.930 . S
C429 N426 1.336 . S
C429 C428 1.346 . S
C429 H436 0.929 . S
C430 O420 1.282 . S
C430 O431 1.216 . S
O431 C430 1.216 . S
H432 C427 0.930 . S
H433 C428 0.930 . S
O434 Cu414 1.959 . S
O434 C421 1.251 . S
H435 C418 0.930 . S
H436 C429 0.929 . S
Cu437 N438 1.999 . S
Cu437 O443 1.974 . S
Cu437 N448 1.985 . S
Cu437 O457 1.959 . S
N438 Cu437 1.999 . S
N438 C440 1.263 . S
N438 C442 1.389 . S
N439 C440 1.358 . S
N439 C441 1.400 . S
C440 N438 1.263 . S
C440 N439 1.358 . S
C440 H446 0.930 . S
C441 N439 1.400 . S
C441 C442 1.351 . S
C441 H458 0.930 . S
C442 N438 1.389 . S
C442 C441 1.351 . S
C442 H447 0.930 . S
O443 Cu437 1.974 . S
O443 C453 1.282 . S
C444 O445 1.261 . S
C444 O457 1.251 . S
O445 C444 1.261 . S
H446 C440 0.930 . S
H447 C442 0.930 . S
N448 Cu437 1.985 . S
N448 C450 1.335 . S
N448 C451 1.390 . S
N449 C450 1.345 . S
N449 C452 1.336 . S
C450 N448 1.335 . S
C450 N449 1.345 . S
C450 H455 0.930 . S
C451 N448 1.390 . S
C451 C452 1.346 . S
C451 H456 0.930 . S
C452 N449 1.336 . S
C452 C451 1.346 . S
C452 H459 0.929 . S
C453 O443 1.282 . S
C453 O454 1.216 . S
O454 C453 1.216 . S
H455 C450 0.930 . S
H456 C451 0.930 . S
O457 Cu437 1.959 . S
O457 C444 1.251 . S
H458 C441 0.930 . S
H459 C452 0.929 . S
Cu460 N461 1.999 . S
Cu460 O466 1.974 . S
Cu460 N471 1.985 . S
Cu460 O480 1.959 . S
N461 Cu460 1.999 . S
N461 C463 1.263 . S
N461 C465 1.389 . S
N462 C463 1.358 . S
N462 C464 1.400 . S
C463 N461 1.263 . S
C463 N462 1.358 . S
C463 H469 0.930 . S
C464 N462 1.400 . S
C464 C465 1.351 . S
C464 H481 0.930 . S
C465 N461 1.389 . S
C465 C464 1.351 . S
C465 H470 0.930 . S
O466 Cu460 1.974 . S
O466 C476 1.282 . S
C467 O468 1.261 . S
C467 O480 1.251 . S
O468 C467 1.261 . S
H469 C463 0.930 . S
H470 C465 0.930 . S
N471 Cu460 1.985 . S
N471 C473 1.335 . S
N471 C474 1.390 . S
N472 C473 1.345 . S
N472 C475 1.336 . S
C473 N471 1.335 . S
C473 N472 1.345 . S
C473 H478 0.930 . S
C474 N471 1.390 . S
C474 C475 1.346 . S
C474 H479 0.930 . S
C475 N472 1.336 . S
C475 C474 1.346 . S
C475 H482 0.929 . S
C476 O466 1.282 . S
C476 O477 1.216 . S
O477 C476 1.216 . S
H478 C473 0.930 . S
H479 C474 0.930 . S
O480 Cu460 1.959 . S
O480 C467 1.251 . S
H481 C464 0.930 . S
H482 C475 0.929 . S
Cu483 N484 1.999 . S
Cu483 O489 1.974 . S
Cu483 N494 1.985 . S
Cu483 O503 1.959 . S
N484 Cu483 1.999 . S
N484 C486 1.263 . S
N484 C488 1.389 . S
N485 C486 1.358 . S
N485 C487 1.400 . S
C486 N484 1.263 . S
C486 N485 1.358 . S
C486 H492 0.930 . S
C487 N485 1.400 . S
C487 C488 1.351 . S
C487 H504 0.930 . S
C488 N484 1.389 . S
C488 C487 1.351 . S
C488 H493 0.930 . S
O489 Cu483 1.974 . S
O489 C499 1.282 . S
C490 O491 1.261 . S
C490 O503 1.251 . S
O491 C490 1.261 . S
H492 C486 0.930 . S
H493 C488 0.930 . S
N494 Cu483 1.985 . S
N494 C496 1.335 . S
N494 C497 1.390 . S
N495 C496 1.345 . S
N495 C498 1.336 . S
C496 N494 1.335 . S
C496 N495 1.345 . S
C496 H501 0.930 . S
C497 N494 1.390 . S
C497 C498 1.346 . S
C497 H502 0.930 . S
C498 N495 1.336 . S
C498 C497 1.346 . S
C498 H505 0.929 . S
C499 O489 1.282 . S
C499 O500 1.216 . S
O500 C499 1.216 . S
H501 C496 0.930 . S
H502 C497 0.930 . S
O503 Cu483 1.959 . S
O503 C490 1.251 . S
H504 C487 0.930 . S
H505 C498 0.929 . S
Cu506 N507 1.999 . S
Cu506 O512 1.974 . S
Cu506 N517 1.985 . S
Cu506 O526 1.959 . S
N507 Cu506 1.999 . S
N507 C509 1.263 . S
N507 C511 1.389 . S
N508 C509 1.358 . S
N508 C510 1.400 . S
C509 N507 1.263 . S
C509 N508 1.358 . S
C509 H515 0.930 . S
C510 N508 1.400 . S
C510 C511 1.351 . S
C510 H527 0.930 . S
C511 N507 1.389 . S
C511 C510 1.351 . S
C511 H516 0.930 . S
O512 Cu506 1.974 . S
O512 C522 1.282 . S
C513 O514 1.261 . S
C513 O526 1.251 . S
O514 C513 1.261 . S
H515 C509 0.930 . S
H516 C511 0.930 . S
N517 Cu506 1.985 . S
N517 C519 1.335 . S
N517 C520 1.390 . S
N518 C519 1.345 . S
N518 C521 1.336 . S
C519 N517 1.335 . S
C519 N518 1.345 . S
C519 H524 0.930 . S
C520 N517 1.390 . S
C520 C521 1.346 . S
C520 H525 0.930 . S
C521 N518 1.336 . S
C521 C520 1.346 . S
C521 H528 0.929 . S
C522 O512 1.282 . S
C522 O523 1.216 . S
O523 C522 1.216 . S
H524 C519 0.930 . S
H525 C520 0.930 . S
O526 Cu506 1.959 . S
O526 C513 1.251 . S
H527 C510 0.930 . S
H528 C521 0.929 . S
Cu529 N530 1.999 . S
Cu529 O535 1.974 . S
Cu529 N540 1.985 . S
Cu529 O549 1.959 . S
N530 Cu529 1.999 . S
N530 C532 1.263 . S
N530 C534 1.389 . S
N531 C532 1.358 . S
N531 C533 1.400 . S
C532 N530 1.263 . S
C532 N531 1.358 . S
C532 H538 0.930 . S
C533 N531 1.400 . S
C533 C534 1.351 . S
C533 H550 0.930 . S
C534 N530 1.389 . S
C534 C533 1.351 . S
C534 H539 0.930 . S
O535 Cu529 1.974 . S
O535 C545 1.282 . S
C536 O537 1.261 . S
C536 O549 1.251 . S
O537 C536 1.261 . S
H538 C532 0.930 . S
H539 C534 0.930 . S
N540 Cu529 1.985 . S
N540 C542 1.335 . S
N540 C543 1.390 . S
N541 C542 1.345 . S
N541 C544 1.336 . S
C542 N540 1.335 . S
C542 N541 1.345 . S
C542 H547 0.930 . S
C543 N540 1.390 . S
C543 C544 1.346 . S
C543 H548 0.930 . S
C544 N541 1.336 . S
C544 C543 1.346 . S
C544 H551 0.929 . S
C545 O535 1.282 . S
C545 O546 1.216 . S
O546 C545 1.216 . S
H547 C542 0.930 . S
H548 C543 0.930 . S
O549 Cu529 1.959 . S
O549 C536 1.251 . S
H550 C533 0.930 . S
H551 C544 0.929 . S
Cu552 N553 1.999 . S
Cu552 O558 1.974 . S
Cu552 N563 1.985 . S
Cu552 O572 1.959 1_554 S
N553 Cu552 1.999 . S
N553 C555 1.263 . S
N553 C557 1.389 1_554 S
N554 C555 1.358 . S
N554 C556 1.400 1_554 S
C555 N553 1.263 . S
C555 N554 1.358 . S
C555 H561 0.930 . S
C556 N554 1.400 1_556 S
C556 C557 1.351 . S
C556 H573 0.930 . S
C557 N553 1.389 1_556 S
C557 C556 1.351 . S
C557 H562 0.930 . S
O558 Cu552 1.974 . S
O558 C568 1.282 . S
C559 O560 1.261 . S
C559 O572 1.251 . S
O560 C559 1.261 . S
H561 C555 0.930 . S
H562 C557 0.930 . S
N563 Cu552 1.985 . S
N563 C565 1.336 . S
N563 C566 1.390 . S
N564 C565 1.345 . S
N564 C567 1.336 . S
C565 N563 1.336 . S
C565 N564 1.345 . S
C565 H570 0.928 1_554 S
C566 N563 1.390 . S
C566 C567 1.346 . S
C566 H571 0.930 . S
C567 N564 1.336 . S
C567 C566 1.346 . S
C567 H574 0.929 . S
C568 O558 1.282 . S
C568 O569 1.216 . S
O569 C568 1.216 . S
H570 C565 0.928 1_556 S
H571 C566 0.930 . S
O572 Cu552 1.959 1_556 S
O572 C559 1.251 . S
H573 C556 0.930 . S
H574 C567 0.929 . S
Cu575 N576 1.999 . S
Cu575 O581 1.974 . S
Cu575 N586 1.985 . S
Cu575 O595 1.959 1_554 S
N576 Cu575 1.999 . S
N576 C578 1.263 . S
N576 C580 1.389 1_554 S
N577 C578 1.358 . S
N577 C579 1.400 1_554 S
C578 N576 1.263 . S
C578 N577 1.358 . S
C578 H584 0.930 . S
C579 N577 1.400 1_556 S
C579 C580 1.351 . S
C579 H596 0.930 . S
C580 N576 1.389 1_556 S
C580 C579 1.351 . S
C580 H585 0.930 . S
O581 Cu575 1.974 . S
O581 C591 1.282 . S
C582 O583 1.261 . S
C582 O595 1.251 . S
O583 C582 1.261 . S
H584 C578 0.930 . S
H585 C580 0.930 . S
N586 Cu575 1.985 . S
N586 C588 1.337 . S
N586 C589 1.390 . S
N587 C588 1.346 . S
N587 C590 1.336 . S
C588 N586 1.337 . S
C588 N587 1.346 . S
C588 H593 0.927 1_554 S
C589 N586 1.390 . S
C589 C590 1.346 . S
C589 H594 0.930 . S
C590 N587 1.336 . S
C590 C589 1.346 . S
C590 H597 0.929 . S
C591 O581 1.282 . S
C591 O592 1.216 . S
O592 C591 1.216 . S
H593 C588 0.927 1_556 S
H594 C589 0.930 . S
O595 Cu575 1.959 1_556 S
O595 C582 1.251 . S
H596 C579 0.930 . S
H597 C590 0.929 . S
Cu598 N599 1.999 . S
Cu598 O604 1.974 . S
Cu598 N609 1.985 . S
Cu598 O618 1.959 . S
N599 Cu598 1.999 . S
N599 C601 1.263 . S
N599 C603 1.389 . S
N600 C601 1.358 . S
N600 C602 1.400 . S
C601 N599 1.263 . S
C601 N600 1.358 . S
C601 H607 0.930 . S
C602 N600 1.400 . S
C602 C603 1.351 . S
C602 H619 0.930 . S
C603 N599 1.389 . S
C603 C602 1.351 . S
C603 H608 0.930 . S
O604 Cu598 1.974 . S
O604 C614 1.282 . S
C605 O606 1.261 . S
C605 O618 1.251 . S
O606 C605 1.261 . S
H607 C601 0.930 . S
H608 C603 0.930 . S
N609 Cu598 1.985 . S
N609 C611 1.335 . S
N609 C612 1.390 . S
N610 C611 1.345 . S
N610 C613 1.336 . S
C611 N609 1.335 . S
C611 N610 1.345 . S
C611 H616 0.930 . S
C612 N609 1.390 . S
C612 C613 1.346 . S
C612 H617 0.930 . S
C613 N610 1.336 . S
C613 C612 1.346 . S
C613 H620 0.929 . S
C614 O604 1.282 . S
C614 O615 1.216 . S
O615 C614 1.216 . S
H616 C611 0.930 . S
H617 C612 0.930 . S
O618 Cu598 1.959 . S
O618 C605 1.251 . S
H619 C602 0.930 . S
H620 C613 0.929 . S
Cu621 N622 1.999 . S
Cu621 O627 1.974 . S
Cu621 N632 1.985 . S
Cu621 O641 1.959 . S
N622 Cu621 1.999 . S
N622 C624 1.263 . S
N622 C626 1.389 . S
N623 C624 1.358 . S
N623 C625 1.400 . S
C624 N622 1.263 . S
C624 N623 1.358 . S
C624 H630 0.930 . S
C625 N623 1.400 . S
C625 C626 1.351 . S
C625 H642 0.930 . S
C626 N622 1.389 . S
C626 C625 1.351 . S
C626 H631 0.930 . S
O627 Cu621 1.974 . S
O627 C637 1.282 . S
C628 O629 1.261 . S
C628 O641 1.251 . S
O629 C628 1.261 . S
H630 C624 0.930 . S
H631 C626 0.930 . S
N632 Cu621 1.985 . S
N632 C634 1.335 . S
N632 C635 1.390 . S
N633 C634 1.345 . S
N633 C636 1.336 . S
C634 N632 1.335 . S
C634 N633 1.345 . S
C634 H639 0.930 . S
C635 N632 1.390 . S
C635 C636 1.346 . S
C635 H640 0.930 . S
C636 N633 1.336 . S
C636 C635 1.346 . S
C636 H643 0.929 . S
C637 O627 1.282 . S
C637 O638 1.216 . S
O638 C637 1.216 . S
H639 C634 0.930 . S
H640 C635 0.930 . S
O641 Cu621 1.959 . S
O641 C628 1.251 . S
H642 C625 0.930 . S
H643 C636 0.929 . S
Cu644 N645 1.999 . S
Cu644 O650 1.974 . S
Cu644 N655 1.985 . S
Cu644 O664 1.959 1_556 S
N645 Cu644 1.999 . S
N645 C647 1.263 . S
N645 C649 1.389 1_556 S
N646 C647 1.358 . S
N646 C648 1.400 1_556 S
C647 N645 1.263 . S
C647 N646 1.358 . S
C647 H653 0.930 . S
C648 N646 1.400 1_554 S
C648 C649 1.351 . S
C648 H665 0.930 . S
C649 N645 1.389 1_554 S
C649 C648 1.351 . S
C649 H654 0.930 . S
O650 Cu644 1.974 . S
O650 C660 1.282 . S
C651 O652 1.261 . S
C651 O664 1.251 . S
O652 C651 1.261 . S
H653 C647 0.930 . S
H654 C649 0.930 . S
N655 Cu644 1.985 . S
N655 C657 1.336 . S
N655 C658 1.390 . S
N656 C657 1.345 . S
N656 C659 1.336 . S
C657 N655 1.336 . S
C657 N656 1.345 . S
C657 H662 0.928 1_556 S
C658 N655 1.390 . S
C658 C659 1.346 . S
C658 H663 0.930 . S
C659 N656 1.336 . S
C659 C658 1.346 . S
C659 H666 0.929 . S
C660 O650 1.282 . S
C660 O661 1.216 . S
O661 C660 1.216 . S
H662 C657 0.928 1_554 S
H663 C658 0.930 . S
O664 Cu644 1.959 1_554 S
O664 C651 1.251 . S
H665 C648 0.930 . S
H666 C659 0.929 . S
Cu667 N668 1.999 . S
Cu667 O673 1.974 . S
Cu667 N678 1.985 . S
Cu667 O687 1.959 1_556 S
N668 Cu667 1.999 . S
N668 C670 1.263 . S
N668 C672 1.389 1_556 S
N669 C670 1.358 . S
N669 C671 1.400 1_556 S
C670 N668 1.263 . S
C670 N669 1.358 . S
C670 H676 0.930 . S
C671 N669 1.400 1_554 S
C671 C672 1.351 . S
C671 H688 0.930 . S
C672 N668 1.389 1_554 S
C672 C671 1.351 . S
C672 H677 0.930 . S
O673 Cu667 1.974 . S
O673 C683 1.282 . S
C674 O675 1.261 . S
C674 O687 1.251 . S
O675 C674 1.261 . S
H676 C670 0.930 . S
H677 C672 0.930 . S
N678 Cu667 1.985 . S
N678 C680 1.337 . S
N678 C681 1.390 . S
N679 C680 1.346 . S
N679 C682 1.336 . S
C680 N678 1.337 . S
C680 N679 1.346 . S
C680 H685 0.927 1_556 S
C681 N678 1.390 . S
C681 C682 1.346 . S
C681 H686 0.930 . S
C682 N679 1.336 . S
C682 C681 1.346 . S
C682 H689 0.929 . S
C683 O673 1.282 . S
C683 O684 1.216 . S
O684 C683 1.216 . S
H685 C680 0.927 1_554 S
H686 C681 0.930 . S
O687 Cu667 1.959 1_554 S
O687 C674 1.251 . S
H688 C671 0.930 . S
H689 C682 0.929 . S
Cu690 N691 1.999 . S
Cu690 O696 1.974 . S
Cu690 N701 1.985 . S
Cu690 O710 1.959 . S
N691 Cu690 1.999 . S
N691 C693 1.263 . S
N691 C695 1.389 . S
N692 C693 1.358 . S
N692 C694 1.400 . S
C693 N691 1.263 . S
C693 N692 1.358 . S
C693 H699 0.930 . S
C694 N692 1.400 . S
C694 C695 1.351 . S
C694 H711 0.930 . S
C695 N691 1.389 . S
C695 C694 1.351 . S
C695 H700 0.930 . S
O696 Cu690 1.974 . S
O696 C706 1.282 . S
C697 O698 1.261 . S
C697 O710 1.251 . S
O698 C697 1.261 . S
H699 C693 0.930 . S
H700 C695 0.930 . S
N701 Cu690 1.985 . S
N701 C703 1.335 . S
N701 C704 1.390 . S
N702 C703 1.345 . S
N702 C705 1.336 . S
C703 N701 1.335 . S
C703 N702 1.345 . S
C703 H708 0.930 . S
C704 N701 1.390 . S
C704 C705 1.346 . S
C704 H709 0.930 . S
C705 N702 1.336 . S
C705 C704 1.346 . S
C705 H712 0.929 . S
C706 O696 1.282 . S
C706 O707 1.216 . S
O707 C706 1.216 . S
H708 C703 0.930 . S
H709 C704 0.930 . S
O710 Cu690 1.959 . S
O710 C697 1.251 . S
H711 C694 0.930 . S
H712 C705 0.929 . S
Cu713 N714 1.999 . S
Cu713 O719 1.974 . S
Cu713 N724 1.985 . S
Cu713 O733 1.959 . S
N714 Cu713 1.999 . S
N714 C716 1.263 . S
N714 C718 1.389 . S
N715 C716 1.358 . S
N715 C717 1.400 . S
C716 N714 1.263 . S
C716 N715 1.358 . S
C716 H722 0.930 . S
C717 N715 1.400 . S
C717 C718 1.351 . S
C717 H734 0.930 . S
C718 N714 1.389 . S
C718 C717 1.351 . S
C718 H723 0.930 . S
O719 Cu713 1.974 . S
O719 C729 1.282 . S
C720 O721 1.261 . S
C720 O733 1.251 . S
O721 C720 1.261 . S
H722 C716 0.930 . S
H723 C718 0.930 . S
N724 Cu713 1.985 . S
N724 C726 1.335 . S
N724 C727 1.390 . S
N725 C726 1.345 . S
N725 C728 1.336 . S
C726 N724 1.335 . S
C726 N725 1.345 . S
C726 H731 0.930 . S
C727 N724 1.390 . S
C727 C728 1.346 . S
C727 H732 0.930 . S
C728 N725 1.336 . S
C728 C727 1.346 . S
C728 H735 0.929 . S
C729 O719 1.282 . S
C729 O730 1.216 . S
O730 C729 1.216 . S
H731 C726 0.930 . S
H732 C727 0.930 . S
O733 Cu713 1.959 . S
O733 C720 1.251 . S
H734 C717 0.930 . S
H735 C728 0.929 . S
H736 C742 0.930 . S
H737 C746 0.930 . S
H738 C751 0.929 . S
H739 C749 0.929 . S
H740 C744 0.929 . S
H741 C750 0.929 . S
C742 H736 0.930 . S
C742 C743 1.367 . S
C742 C750 1.378 . S
C743 C742 1.367 . S
C743 C751 1.433 . S
C744 H740 0.929 . S
C744 C746 1.378 . S
C744 C748 1.350 . S
C745 C748 1.463 . S
C745 C750 1.350 . S
C745 N753 1.427 . S
C746 H737 0.930 . S
C746 C744 1.378 . S
C746 C747 1.367 . S
C747 C746 1.367 . S
C747 C749 1.433 . S
C748 C744 1.350 . S
C748 C745 1.463 . S
C748 N752 1.427 . S
C749 H739 0.929 . S
C749 C747 1.433 . S
C749 N752 1.384 . S
C750 H741 0.929 . S
C750 C742 1.378 . S
C750 C745 1.350 . S
C751 H738 0.929 . S
C751 C743 1.433 . S
C751 N753 1.384 . S
N752 C748 1.427 . S
N752 C749 1.384 . S
N753 C745 1.427 . S
N753 C751 1.384 . S
H754 C760 0.930 . S
H755 C764 0.930 . S
H756 C769 0.929 . S
H757 C767 0.929 . S
H758 C762 0.929 . S
H759 C768 0.929 . S
C760 H754 0.930 . S
C760 C761 1.367 . S
C760 C768 1.378 . S
C761 C760 1.367 . S
C761 C769 1.433 . S
C762 H758 0.929 . S
C762 C764 1.378 . S
C762 C766 1.350 . S
C763 C766 1.463 . S
C763 C768 1.350 . S
C763 N771 1.427 . S
C764 H755 0.930 . S
C764 C762 1.378 . S
C764 C765 1.367 . S
C765 C764 1.367 . S
C765 C767 1.433 . S
C766 C762 1.350 . S
C766 C763 1.463 . S
C766 N770 1.427 . S
C767 H757 0.929 . S
C767 C765 1.433 . S
C767 N770 1.384 . S
C768 H759 0.929 . S
C768 C760 1.378 . S
C768 C763 1.350 . S
C769 H756 0.929 . S
C769 C761 1.433 . S
C769 N771 1.384 . S
N770 C766 1.427 . S
N770 C767 1.384 . S
N771 C763 1.427 . S
N771 C769 1.384 . S
H772 C778 0.930 . S
H773 C782 0.930 . S
H774 C787 0.929 . S
H775 C785 0.929 . S
H776 C780 0.929 . S
H777 C786 0.929 . S
C778 H772 0.930 . S
C778 C779 1.367 . S
C778 C786 1.378 . S
C779 C778 1.367 . S
C779 C787 1.433 . S
C780 H776 0.929 . S
C780 C782 1.378 . S
C780 C784 1.350 . S
C781 C784 1.463 . S
C781 C786 1.350 . S
C781 N789 1.427 . S
C782 H773 0.930 . S
C782 C780 1.378 . S
C782 C783 1.367 . S
C783 C782 1.367 . S
C783 C785 1.433 . S
C784 C780 1.350 . S
C784 C781 1.463 . S
C784 N788 1.427 . S
C785 H775 0.929 . S
C785 C783 1.433 . S
C785 N788 1.384 . S
C786 H777 0.929 . S
C786 C778 1.378 . S
C786 C781 1.350 . S
C787 H774 0.929 . S
C787 C779 1.433 . S
C787 N789 1.384 . S
N788 C784 1.427 . S
N788 C785 1.384 . S
N789 C781 1.427 . S
N789 C787 1.384 . S
H790 C796 0.930 . S
H791 C800 0.930 . S
H792 C805 0.929 . S
H793 C803 0.929 1_455 S
H794 C798 0.929 . S
H795 C804 0.929 . S
C796 H790 0.930 . S
C796 C797 1.367 . S
C796 C804 1.378 . S
C797 C796 1.367 . S
C797 C805 1.433 . S
C798 H794 0.929 . S
C798 C800 1.378 . S
C798 C802 1.350 . S
C799 C802 1.463 . S
C799 C804 1.350 . S
C799 N807 1.427 . S
C800 H791 0.930 . S
C800 C798 1.378 . S
C800 C801 1.367 . S
C801 C800 1.367 . S
C801 C803 1.433 . S
C802 C798 1.350 . S
C802 C799 1.463 . S
C802 N806 1.427 . S
C803 H793 0.929 1_655 S
C803 C801 1.433 . S
C803 N806 1.384 . S
C804 H795 0.929 . S
C804 C796 1.378 . S
C804 C799 1.350 . S
C805 H792 0.929 . S
C805 C797 1.433 . S
C805 N807 1.384 . S
N806 C802 1.427 . S
N806 C803 1.384 . S
N807 C799 1.427 . S
N807 C805 1.384 . S
H808 C814 0.930 . S
H809 C818 0.930 . S
H810 C823 0.929 . S
H811 C821 0.929 . S
H812 C816 0.929 . S
H813 C822 0.929 . S
C814 H808 0.930 . S
C814 C815 1.367 . S
C814 C822 1.378 . S
C815 C814 1.367 . S
C815 C823 1.433 . S
C816 H812 0.929 . S
C816 C818 1.378 . S
C816 C820 1.350 . S
C817 C820 1.463 . S
C817 C822 1.350 . S
C817 N825 1.427 . S
C818 H809 0.930 . S
C818 C816 1.378 . S
C818 C819 1.367 . S
C819 C818 1.367 . S
C819 C821 1.433 . S
C820 C816 1.350 . S
C820 C817 1.463 . S
C820 N824 1.427 . S
C821 H811 0.929 . S
C821 C819 1.433 . S
C821 N824 1.384 . S
C822 H813 0.929 . S
C822 C814 1.378 . S
C822 C817 1.350 . S
C823 H810 0.929 . S
C823 C815 1.433 . S
C823 N825 1.384 . S
N824 C820 1.427 . S
N824 C821 1.384 . S
N825 C817 1.427 . S
N825 C823 1.384 . S
H826 C832 0.930 . S
H827 C836 0.930 . S
H828 C841 0.929 . S
H829 C839 0.929 . S
H830 C834 0.929 . S
H831 C840 0.929 . S
C832 H826 0.930 . S
C832 C833 1.367 . S
C832 C840 1.378 . S
C833 C832 1.367 . S
C833 C841 1.433 . S
C834 H830 0.929 . S
C834 C836 1.378 . S
C834 C838 1.350 . S
C835 C838 1.463 . S
C835 C840 1.350 . S
C835 N843 1.427 . S
C836 H827 0.930 . S
C836 C834 1.378 . S
C836 C837 1.367 . S
C837 C836 1.367 . S
C837 C839 1.433 . S
C838 C834 1.350 . S
C838 C835 1.463 . S
C838 N842 1.427 . S
C839 H829 0.929 . S
C839 C837 1.433 . S
C839 N842 1.384 . S
C840 H831 0.929 . S
C840 C832 1.378 . S
C840 C835 1.350 . S
C841 H828 0.929 . S
C841 C833 1.433 . S
C841 N843 1.384 . S
N842 C838 1.427 . S
N842 C839 1.384 . S
N843 C835 1.427 . S
N843 C841 1.384 . S
H844 C850 0.930 . S
H845 C854 0.930 . S
H846 C859 0.929 . S
H847 C857 0.929 . S
H848 C852 0.929 . S
H849 C858 0.929 . S
C850 H844 0.930 . S
C850 C851 1.367 . S
C850 C858 1.378 . S
C851 C850 1.367 . S
C851 C859 1.433 . S
C852 H848 0.929 . S
C852 C854 1.378 . S
C852 C856 1.350 . S
C853 C856 1.463 . S
C853 C858 1.350 . S
C853 N861 1.427 . S
C854 H845 0.930 . S
C854 C852 1.378 . S
C854 C855 1.367 . S
C855 C854 1.367 . S
C855 C857 1.433 . S
C856 C852 1.350 . S
C856 C853 1.463 . S
C856 N860 1.427 . S
C857 H847 0.929 . S
C857 C855 1.433 . S
C857 N860 1.384 . S
C858 H849 0.929 . S
C858 C850 1.378 . S
C858 C853 1.350 . S
C859 H846 0.929 . S
C859 C851 1.433 . S
C859 N861 1.384 . S
N860 C856 1.427 . S
N860 C857 1.384 . S
N861 C853 1.427 . S
N861 C859 1.384 . S
H862 C868 0.930 . S
H863 C872 0.930 . S
H864 C877 0.929 . S
H865 C875 0.939 . S
H866 C870 0.929 . S
H867 C876 0.929 . S
C868 H862 0.930 . S
C868 C869 1.367 . S
C868 C876 1.378 . S
C869 C868 1.367 . S
C869 C877 1.433 . S
C870 H866 0.929 . S
C870 C872 1.378 . S
C870 C874 1.350 . S
C871 C874 1.463 . S
C871 C876 1.350 . S
C871 N879 1.427 . S
C872 H863 0.930 . S
C872 C870 1.378 . S
C872 C873 1.367 . S
C873 C872 1.367 . S
C873 C875 1.433 . S
C874 C870 1.350 . S
C874 C871 1.463 . S
C874 N878 1.427 . S
C875 H865 0.939 . S
C875 C873 1.433 . S
C875 N878 1.384 . S
C876 H867 0.929 . S
C876 C868 1.378 . S
C876 C871 1.350 . S
C877 H864 0.929 . S
C877 C869 1.433 . S
C877 N879 1.384 . S
N878 C874 1.427 . S
N878 C875 1.384 . S
N879 C871 1.427 . S
N879 C877 1.384 . S
H880 C886 0.930 . S
H881 C890 0.930 . S
H882 C895 0.929 . S
H883 C893 0.929 . S
H884 C888 0.929 . S
H885 C894 0.929 . S
C886 H880 0.930 . S
C886 C887 1.367 . S
C886 C894 1.378 . S
C887 C886 1.367 . S
C887 C895 1.433 . S
C888 H884 0.929 . S
C888 C890 1.378 . S
C888 C892 1.350 . S
C889 C892 1.463 . S
C889 C894 1.350 . S
C889 N897 1.427 . S
C890 H881 0.930 . S
C890 C888 1.378 . S
C890 C891 1.367 . S
C891 C890 1.367 . S
C891 C893 1.433 . S
C892 C888 1.350 . S
C892 C889 1.463 . S
C892 N896 1.427 . S
C893 H883 0.929 . S
C893 C891 1.433 . S
C893 N896 1.384 . S
C894 H885 0.929 . S
C894 C886 1.378 . S
C894 C889 1.350 . S
C895 H882 0.929 . S
C895 C887 1.433 . S
C895 N897 1.384 . S
N896 C892 1.427 . S
N896 C893 1.384 . S
N897 C889 1.427 . S
N897 C895 1.384 . S
H898 C904 0.930 . S
H899 C908 0.930 . S
H900 C913 0.929 . S
H901 C911 0.929 . S
H902 C906 0.929 . S
H903 C912 0.929 . S
C904 H898 0.930 . S
C904 C905 1.367 . S
C904 C912 1.378 . S
C905 C904 1.367 . S
C905 C913 1.433 . S
C906 H902 0.929 . S
C906 C908 1.378 . S
C906 C910 1.350 . S
C907 C910 1.463 . S
C907 C912 1.350 . S
C907 N915 1.427 . S
C908 H899 0.930 . S
C908 C906 1.378 . S
C908 C909 1.367 . S
C909 C908 1.367 . S
C909 C911 1.433 . S
C910 C906 1.350 . S
C910 C907 1.463 . S
C910 N914 1.427 . S
C911 H901 0.929 . S
C911 C909 1.433 . S
C911 N914 1.384 . S
C912 H903 0.929 . S
C912 C904 1.378 . S
C912 C907 1.350 . S
C913 H900 0.929 . S
C913 C905 1.433 . S
C913 N915 1.384 . S
N914 C910 1.427 . S
N914 C911 1.384 . S
N915 C907 1.427 . S
N915 C913 1.384 . S
H916 C922 0.930 . S
H917 C926 0.930 . S
H918 C931 0.929 . S
H919 C929 0.929 . S
H920 C924 0.929 . S
H921 C930 0.929 . S
C922 H916 0.930 . S
C922 C923 1.367 . S
C922 C930 1.378 . S
C923 C922 1.367 . S
C923 C931 1.433 . S
C924 H920 0.929 . S
C924 C926 1.378 . S
C924 C928 1.350 . S
C925 C928 1.463 . S
C925 C930 1.350 . S
C925 N933 1.427 . S
C926 H917 0.930 . S
C926 C924 1.378 . S
C926 C927 1.367 . S
C927 C926 1.367 . S
C927 C929 1.433 . S
C928 C924 1.350 . S
C928 C925 1.463 . S
C928 N932 1.427 . S
C929 H919 0.929 . S
C929 C927 1.433 . S
C929 N932 1.384 . S
C930 H921 0.929 . S
C930 C922 1.378 . S
C930 C925 1.350 . S
C931 H918 0.929 . S
C931 C923 1.433 . S
C931 N933 1.384 . S
N932 C928 1.427 . S
N932 C929 1.384 . S
N933 C925 1.427 . S
N933 C931 1.384 . S
H934 C940 0.930 . S
H935 C944 0.930 . S
H936 C949 0.929 . S
H937 C947 0.929 . S
H938 C942 0.929 . S
H939 C948 0.929 . S
C940 H934 0.930 . S
C940 C941 1.367 . S
C940 C948 1.378 . S
C941 C940 1.367 . S
C941 C949 1.433 . S
C942 H938 0.929 . S
C942 C944 1.378 . S
C942 C946 1.350 . S
C943 C946 1.463 . S
C943 C948 1.350 . S
C943 N951 1.427 . S
C944 H935 0.930 . S
C944 C942 1.378 . S
C944 C945 1.367 . S
C945 C944 1.367 . S
C945 C947 1.433 . S
C946 C942 1.350 . S
C946 C943 1.463 . S
C946 N950 1.427 . S
C947 H937 0.929 . S
C947 C945 1.433 . S
C947 N950 1.384 . S
C948 H939 0.929 . S
C948 C940 1.378 . S
C948 C943 1.350 . S
C949 H936 0.929 . S
C949 C941 1.433 . S
C949 N951 1.384 . S
N950 C946 1.427 . S
N950 C947 1.384 . S
N951 C943 1.427 . S
N951 C949 1.384 . S
H952 C958 0.930 . S
H953 C962 0.930 . S
H954 C967 0.929 . S
H955 C965 0.929 . S
H956 C960 0.929 . S
H957 C966 0.929 . S
C958 H952 0.930 . S
C958 C959 1.367 . S
C958 C966 1.378 . S
C959 C958 1.367 . S
C959 C967 1.433 . S
C960 H956 0.929 . S
C960 C962 1.378 . S
C960 C964 1.350 . S
C961 C964 1.463 . S
C961 C966 1.350 . S
C961 N969 1.427 . S
C962 H953 0.930 . S
C962 C960 1.378 . S
C962 C963 1.367 . S
C963 C962 1.367 . S
C963 C965 1.433 . S
C964 C960 1.350 . S
C964 C961 1.463 . S
C964 N968 1.427 . S
C965 H955 0.929 . S
C965 C963 1.433 . S
C965 N968 1.384 . S
C966 H957 0.929 . S
C966 C958 1.378 . S
C966 C961 1.350 . S
C967 H954 0.929 . S
C967 C959 1.433 . S
C967 N969 1.384 . S
N968 C964 1.427 . S
N968 C965 1.384 . S
N969 C961 1.427 . S
N969 C967 1.384 . S
H970 C976 0.930 . S
H971 C980 0.930 . S
H972 C985 0.929 . S
H973 C983 0.929 . S
H974 C978 0.929 . S
H975 C984 0.929 . S
C976 H970 0.930 . S
C976 C977 1.367 . S
C976 C984 1.378 . S
C977 C976 1.367 . S
C977 C985 1.433 . S
C978 H974 0.929 . S
C978 C980 1.378 . S
C978 C982 1.350 . S
C979 C982 1.463 . S
C979 C984 1.350 . S
C979 N987 1.427 . S
C980 H971 0.930 . S
C980 C978 1.378 . S
C980 C981 1.367 . S
C981 C980 1.367 . S
C981 C983 1.433 . S
C982 C978 1.350 . S
C982 C979 1.463 . S
C982 N986 1.427 . S
C983 H973 0.929 . S
C983 C981 1.433 . S
C983 N986 1.384 . S
C984 H975 0.929 . S
C984 C976 1.378 . S
C984 C979 1.350 . S
C985 H972 0.929 . S
C985 C977 1.433 . S
C985 N987 1.384 . S
N986 C982 1.427 . S
N986 C983 1.384 . S
N987 C979 1.427 . S
N987 C985 1.384 . S
H988 C994 0.930 . S
H989 C998 0.930 . S
H990 C1003 0.929 . S
H991 C1001 0.929 . S
H992 C996 0.929 . S
H993 C1002 0.929 . S
C994 H988 0.930 . S
C994 C995 1.367 . S
C994 C1002 1.378 . S
C995 C994 1.367 . S
C995 C1003 1.433 . S
C996 H992 0.929 . S
C996 C998 1.378 . S
C996 C1000 1.350 . S
C997 C1000 1.463 . S
C997 C1002 1.350 . S
C997 N1005 1.427 . S
C998 H989 0.930 . S
C998 C996 1.378 . S
C998 C999 1.367 . S
C999 C998 1.367 . S
C999 C1001 1.433 . S
C1000 C996 1.350 . S
C1000 C997 1.463 . S
C1000 N1004 1.427 . S
C1001 H991 0.929 . S
C1001 C999 1.433 . S
C1001 N1004 1.384 . S
C1002 H993 0.929 . S
C1002 C994 1.378 . S
C1002 C997 1.350 . S
C1003 H990 0.929 . S
C1003 C995 1.433 . S
C1003 N1005 1.384 . S
N1004 C1000 1.427 . S
N1004 C1001 1.384 . S
N1005 C997 1.427 . S
N1005 C1003 1.384 . S
H1006 C1012 0.930 . S
H1007 C1016 0.930 . S
H1008 C1021 0.929 . S
H1009 C1019 0.929 . S
H1010 C1014 0.929 . S
H1011 C1020 0.929 . S
C1012 H1006 0.930 . S
C1012 C1013 1.367 . S
C1012 C1020 1.378 . S
C1013 C1012 1.367 . S
C1013 C1021 1.433 . S
C1014 H1010 0.929 . S
C1014 C1016 1.378 . S
C1014 C1018 1.350 . S
C1015 C1018 1.463 . S
C1015 C1020 1.350 . S
C1015 N1023 1.427 . S
C1016 H1007 0.930 . S
C1016 C1014 1.378 . S
C1016 C1017 1.367 . S
C1017 C1016 1.367 . S
C1017 C1019 1.433 . S
C1018 C1014 1.350 . S
C1018 C1015 1.463 . S
C1018 N1022 1.427 . S
C1019 H1009 0.929 . S
C1019 C1017 1.433 . S
C1019 N1022 1.384 . S
C1020 H1011 0.929 . S
C1020 C1012 1.378 . S
C1020 C1015 1.350 . S
C1021 H1008 0.929 . S
C1021 C1013 1.433 . S
C1021 N1023 1.384 . S
N1022 C1018 1.427 . S
N1022 C1019 1.384 . S
N1023 C1015 1.427 . S
N1023 C1021 1.384 . S
H1024 C1030 0.930 . S
H1025 C1034 0.930 . S
H1026 C1039 0.929 . S
H1027 C1037 0.929 . S
H1028 C1032 0.929 1_545 S
H1029 C1038 0.929 1_565 S
C1030 H1024 0.930 . S
C1030 C1031 1.367 . S
C1030 C1038 1.378 . S
C1031 C1030 1.367 . S
C1031 C1039 1.433 1_554 S
C1032 H1028 0.929 1_565 S
C1032 C1034 1.378 . S
C1032 C1036 1.350 . S
C1033 C1036 1.463 1_544 S
C1033 C1038 1.350 . S
C1033 N1041 1.427 1_554 S
C1034 H1025 0.930 . S
C1034 C1032 1.378 . S
C1034 C1035 1.367 . S
C1035 C1034 1.367 . S
C1035 C1037 1.433 1_556 S
C1036 C1032 1.350 . S
C1036 C1033 1.463 1_566 S
C1036 N1040 1.427 1_556 S
C1037 H1027 0.929 . S
C1037 C1035 1.433 1_554 S
C1037 N1040 1.384 . S
C1038 H1029 0.929 1_545 S
C1038 C1030 1.378 . S
C1038 C1033 1.350 . S
C1039 H1026 0.929 . S
C1039 C1031 1.433 1_556 S
C1039 N1041 1.384 . S
N1040 C1036 1.427 1_554 S
N1040 C1037 1.384 . S
N1041 C1033 1.427 1_556 S
N1041 C1039 1.384 . S
H1042 C1048 0.930 . S
H1043 C1052 0.930 . S
H1044 C1057 0.929 . S
H1045 C1055 0.929 . S
H1046 C1050 0.929 . S
H1047 C1056 0.929 . S
C1048 H1042 0.930 . S
C1048 C1049 1.367 . S
C1048 C1056 1.378 . S
C1049 C1048 1.367 . S
C1049 C1057 1.433 1_556 S
C1050 H1046 0.929 . S
C1050 C1052 1.378 . S
C1050 C1054 1.350 . S
C1051 C1054 1.463 1_556 S
C1051 C1056 1.350 . S
C1051 N1059 1.427 1_556 S
C1052 H1043 0.930 . S
C1052 C1050 1.378 . S
C1052 C1053 1.367 . S
C1053 C1052 1.367 . S
C1053 C1055 1.433 1_554 S
C1054 C1050 1.350 . S
C1054 C1051 1.463 1_554 S
C1054 N1058 1.427 1_554 S
C1055 H1045 0.929 . S
C1055 C1053 1.433 1_556 S
C1055 N1058 1.384 . S
C1056 H1047 0.929 . S
C1056 C1048 1.378 . S
C1056 C1051 1.350 . S
C1057 H1044 0.929 . S
C1057 C1049 1.433 1_554 S
C1057 N1059 1.384 . S
N1058 C1054 1.427 1_556 S
N1058 C1055 1.384 . S
N1059 C1051 1.427 1_554 S
N1059 C1057 1.384 . S
H1060 C1066 0.930 . S
H1061 C1070 0.930 . S
H1062 C1075 0.929 . S
H1063 C1073 0.929 . S
H1064 C1068 0.929 . S
H1065 C1074 0.929 . S
C1066 H1060 0.930 . S
C1066 C1067 1.367 . S
C1066 C1074 1.378 . S
C1067 C1066 1.367 . S
C1067 C1075 1.433 . S
C1068 H1064 0.929 . S
C1068 C1070 1.378 . S
C1068 C1072 1.350 . S
C1069 C1072 1.463 . S
C1069 C1074 1.350 . S
C1069 N1077 1.427 . S
C1070 H1061 0.930 . S
C1070 C1068 1.378 . S
C1070 C1071 1.367 . S
C1071 C1070 1.367 . S
C1071 C1073 1.433 . S
C1072 C1068 1.350 . S
C1072 C1069 1.463 . S
C1072 N1076 1.427 . S
C1073 H1063 0.929 . S
C1073 C1071 1.433 . S
C1073 N1076 1.384 . S
C1074 H1065 0.929 . S
C1074 C1066 1.378 . S
C1074 C1069 1.350 . S
C1075 H1062 0.929 . S
C1075 C1067 1.433 . S
C1075 N1077 1.384 . S
N1076 C1072 1.427 . S
N1076 C1073 1.384 . S
N1077 C1069 1.427 . S
N1077 C1075 1.384 . S
H1078 C1084 0.930 . S
H1079 C1088 0.930 . S
H1080 C1093 0.929 . S
H1081 C1091 0.929 . S
H1082 C1086 0.929 . S
H1083 C1092 0.929 . S
C1084 H1078 0.930 . S
C1084 C1085 1.367 . S
C1084 C1092 1.378 . S
C1085 C1084 1.367 . S
C1085 C1093 1.433 . S
C1086 H1082 0.929 . S
C1086 C1088 1.378 . S
C1086 C1090 1.350 . S
C1087 C1090 1.463 1_565 S
C1087 C1092 1.350 . S
C1087 N1095 1.427 . S
C1088 H1079 0.930 . S
C1088 C1086 1.378 . S
C1088 C1089 1.367 . S
C1089 C1088 1.367 . S
C1089 C1091 1.433 . S
C1090 C1086 1.350 . S
C1090 C1087 1.463 1_545 S
C1090 N1094 1.427 . S
C1091 H1081 0.929 . S
C1091 C1089 1.433 . S
C1091 N1094 1.384 . S
C1092 H1083 0.929 . S
C1092 C1084 1.378 . S
C1092 C1087 1.350 . S
C1093 H1080 0.929 . S
C1093 C1085 1.433 . S
C1093 N1095 1.384 . S
N1094 C1090 1.427 . S
N1094 C1091 1.384 . S
N1095 C1087 1.427 . S
N1095 C1093 1.384 . S
H1096 C1102 0.930 . S
H1097 C1106 0.930 . S
H1098 C1111 0.929 . S
H1099 C1109 0.929 . S
H1100 C1104 0.928 . S
H1101 C1110 0.928 . S
C1102 H1096 0.930 . S
C1102 C1103 1.367 . S
C1102 C1110 1.379 . S
C1103 C1102 1.367 . S
C1103 C1111 1.433 . S
C1104 H1100 0.928 . S
C1104 C1106 1.379 . S
C1104 C1108 1.350 . S
C1105 C1108 1.462 1_554 S
C1105 C1110 1.350 . S
C1105 N1113 1.428 . S
C1106 H1097 0.930 . S
C1106 C1104 1.379 . S
C1106 C1107 1.367 . S
C1107 C1106 1.367 . S
C1107 C1109 1.433 . S
C1108 C1104 1.350 . S
C1108 C1105 1.462 1_556 S
C1108 N1112 1.428 . S
C1109 H1099 0.929 . S
C1109 C1107 1.433 . S
C1109 N1112 1.384 . S
C1110 H1101 0.928 . S
C1110 C1102 1.379 . S
C1110 C1105 1.350 . S
C1111 H1098 0.929 . S
C1111 C1103 1.433 . S
C1111 N1113 1.384 . S
N1112 C1108 1.428 . S
N1112 C1109 1.384 . S
N1113 C1105 1.428 . S
N1113 C1111 1.384 . S
H1114 C1120 0.930 . S
H1115 C1124 0.930 . S
H1116 C1129 0.929 . S
H1117 C1127 0.929 . S
H1118 C1122 0.929 . S
H1119 C1128 0.929 . S
C1120 H1114 0.930 . S
C1120 C1121 1.367 . S
C1120 C1128 1.378 . S
C1121 C1120 1.367 . S
C1121 C1129 1.433 . S
C1122 H1118 0.929 . S
C1122 C1124 1.378 . S
C1122 C1126 1.350 . S
C1123 C1126 1.463 . S
C1123 C1128 1.350 . S
C1123 N1131 1.427 . S
C1124 H1115 0.930 . S
C1124 C1122 1.378 . S
C1124 C1125 1.367 . S
C1125 C1124 1.367 . S
C1125 C1127 1.433 . S
C1126 C1122 1.350 . S
C1126 C1123 1.463 . S
C1126 N1130 1.427 . S
C1127 H1117 0.929 . S
C1127 C1125 1.433 . S
C1127 N1130 1.384 . S
C1128 H1119 0.929 . S
C1128 C1120 1.378 . S
C1128 C1123 1.350 . S
C1129 H1116 0.929 . S
C1129 C1121 1.433 . S
C1129 N1131 1.384 . S
N1130 C1126 1.427 . S
N1130 C1127 1.384 . S
N1131 C1123 1.427 . S
N1131 C1129 1.384 . S
H1132 C1138 0.930 . S
H1133 C1142 0.930 . S
H1134 C1147 0.929 . S
H1135 C1145 0.929 . S
H1136 C1140 0.929 . S
H1137 C1146 0.929 . S
C1138 H1132 0.930 . S
C1138 C1139 1.367 . S
C1138 C1146 1.378 . S
C1139 C1138 1.367 . S
C1139 C1147 1.433 . S
C1140 H1136 0.929 . S
C1140 C1142 1.378 . S
C1140 C1144 1.350 . S
C1141 C1144 1.463 1_565 S
C1141 C1146 1.350 . S
C1141 N1149 1.427 . S
C1142 H1133 0.930 . S
C1142 C1140 1.378 . S
C1142 C1143 1.367 . S
C1143 C1142 1.367 . S
C1143 C1145 1.433 . S
C1144 C1140 1.350 . S
C1144 C1141 1.463 1_545 S
C1144 N1148 1.427 . S
C1145 H1135 0.929 . S
C1145 C1143 1.433 . S
C1145 N1148 1.384 . S
C1146 H1137 0.929 . S
C1146 C1138 1.378 . S
C1146 C1141 1.350 . S
C1147 H1134 0.929 . S
C1147 C1139 1.433 . S
C1147 N1149 1.384 . S
N1148 C1144 1.427 . S
N1148 C1145 1.384 . S
N1149 C1141 1.427 . S
N1149 C1147 1.384 . S
H1150 C1156 0.930 . S
H1151 C1160 0.930 . S
H1152 C1165 0.929 . S
H1153 C1163 0.929 . S
H1154 C1158 0.929 . S
H1155 C1164 0.929 . S
C1156 H1150 0.930 . S
C1156 C1157 1.367 . S
C1156 C1164 1.378 . S
C1157 C1156 1.367 . S
C1157 C1165 1.433 . S
C1158 H1154 0.929 . S
C1158 C1160 1.378 . S
C1158 C1162 1.350 . S
C1159 C1162 1.463 . S
C1159 C1164 1.350 . S
C1159 N1167 1.427 . S
C1160 H1151 0.930 . S
C1160 C1158 1.378 . S
C1160 C1161 1.367 . S
C1161 C1160 1.367 . S
C1161 C1163 1.433 . S
C1162 C1158 1.350 . S
C1162 C1159 1.463 . S
C1162 N1166 1.427 . S
C1163 H1153 0.929 . S
C1163 C1161 1.433 . S
C1163 N1166 1.384 . S
C1164 H1155 0.929 . S
C1164 C1156 1.378 . S
C1164 C1159 1.350 . S
C1165 H1152 0.929 . S
C1165 C1157 1.433 . S
C1165 N1167 1.384 . S
N1166 C1162 1.427 . S
N1166 C1163 1.384 . S
N1167 C1159 1.427 . S
N1167 C1165 1.384 . S
H1168 C1174 0.930 . S
H1169 C1178 0.930 . S
H1170 C1183 0.929 . S
H1171 C1181 0.929 . S
H1172 C1176 0.929 . S
H1173 C1182 0.929 . S
C1174 H1168 0.930 . S
C1174 C1175 1.367 . S
C1174 C1182 1.378 . S
C1175 C1174 1.367 . S
C1175 C1183 1.433 . S
C1176 H1172 0.929 . S
C1176 C1178 1.378 . S
C1176 C1180 1.350 . S
C1177 C1180 1.463 . S
C1177 C1182 1.350 . S
C1177 N1185 1.427 . S
C1178 H1169 0.930 . S
C1178 C1176 1.378 . S
C1178 C1179 1.367 . S
C1179 C1178 1.367 . S
C1179 C1181 1.433 . S
C1180 C1176 1.350 . S
C1180 C1177 1.463 . S
C1180 N1184 1.427 . S
C1181 H1171 0.929 . S
C1181 C1179 1.433 . S
C1181 N1184 1.384 . S
C1182 H1173 0.929 . S
C1182 C1174 1.378 . S
C1182 C1177 1.350 . S
C1183 H1170 0.929 . S
C1183 C1175 1.433 . S
C1183 N1185 1.384 . S
N1184 C1180 1.427 . S
N1184 C1181 1.384 . S
N1185 C1177 1.427 . S
N1185 C1183 1.384 . S
H1186 C1192 0.930 . S
H1187 C1196 0.930 . S
H1188 C1201 0.929 . S
H1189 C1199 0.929 . S
H1190 C1194 0.929 . S
H1191 C1200 0.929 . S
C1192 H1186 0.930 . S
C1192 C1193 1.367 . S
C1192 C1200 1.378 . S
C1193 C1192 1.367 . S
C1193 C1201 1.433 . S
C1194 H1190 0.929 . S
C1194 C1196 1.378 . S
C1194 C1198 1.350 . S
C1195 C1198 1.463 . S
C1195 C1200 1.350 . S
C1195 N1203 1.427 . S
C1196 H1187 0.930 . S
C1196 C1194 1.378 . S
C1196 C1197 1.367 . S
C1197 C1196 1.367 . S
C1197 C1199 1.433 . S
C1198 C1194 1.350 . S
C1198 C1195 1.463 . S
C1198 N1202 1.427 . S
C1199 H1189 0.929 . S
C1199 C1197 1.433 . S
C1199 N1202 1.384 . S
C1200 H1191 0.929 . S
C1200 C1192 1.378 . S
C1200 C1195 1.350 . S
C1201 H1188 0.929 . S
C1201 C1193 1.433 . S
C1201 N1203 1.384 . S
N1202 C1198 1.427 . S
N1202 C1199 1.384 . S
N1203 C1195 1.427 . S
N1203 C1201 1.384 . S
H1204 C1210 0.930 . S
H1205 C1214 0.930 . S
H1206 C1219 0.929 . S
H1207 C1217 0.929 . S
H1208 C1212 0.929 . S
H1209 C1218 0.929 . S
C1210 H1204 0.930 . S
C1210 C1211 1.367 . S
C1210 C1218 1.378 . S
C1211 C1210 1.367 . S
C1211 C1219 1.433 . S
C1212 H1208 0.929 . S
C1212 C1214 1.378 . S
C1212 C1216 1.350 . S
C1213 C1216 1.463 . S
C1213 C1218 1.350 . S
C1213 N1221 1.427 . S
C1214 H1205 0.930 . S
C1214 C1212 1.378 . S
C1214 C1215 1.367 . S
C1215 C1214 1.367 . S
C1215 C1217 1.433 . S
C1216 C1212 1.350 . S
C1216 C1213 1.463 . S
C1216 N1220 1.427 . S
C1217 H1207 0.929 . S
C1217 C1215 1.433 . S
C1217 N1220 1.384 . S
C1218 H1209 0.929 . S
C1218 C1210 1.378 . S
C1218 C1213 1.350 . S
C1219 H1206 0.929 . S
C1219 C1211 1.433 . S
C1219 N1221 1.384 . S
N1220 C1216 1.427 . S
N1220 C1217 1.384 . S
N1221 C1213 1.427 . S
N1221 C1219 1.384 . S
H1222 C1228 0.930 . S
H1223 C1232 0.930 . S
H1224 C1237 0.929 . S
H1225 C1235 0.929 . S
H1226 C1230 0.929 . S
H1227 C1236 0.929 . S
C1228 H1222 0.930 . S
C1228 C1229 1.367 . S
C1228 C1236 1.378 . S
C1229 C1228 1.367 . S
C1229 C1237 1.433 . S
C1230 H1226 0.929 . S
C1230 C1232 1.378 . S
C1230 C1234 1.350 . S
C1231 C1234 1.463 . S
C1231 C1236 1.350 . S
C1231 N1239 1.427 . S
C1232 H1223 0.930 . S
C1232 C1230 1.378 . S
C1232 C1233 1.367 . S
C1233 C1232 1.367 . S
C1233 C1235 1.433 . S
C1234 C1230 1.350 . S
C1234 C1231 1.463 . S
C1234 N1238 1.427 . S
C1235 H1225 0.929 . S
C1235 C1233 1.433 . S
C1235 N1238 1.384 . S
C1236 H1227 0.929 . S
C1236 C1228 1.378 . S
C1236 C1231 1.350 . S
C1237 H1224 0.929 . S
C1237 C1229 1.433 . S
C1237 N1239 1.384 . S
N1238 C1234 1.427 . S
N1238 C1235 1.384 . S
N1239 C1231 1.427 . S
N1239 C1237 1.384 . S
H1240 C1246 0.930 . S
H1241 C1250 0.930 . S
H1242 C1255 0.929 . S
H1243 C1253 0.929 . S
H1244 C1248 0.929 1_565 S
H1245 C1254 0.929 1_545 S
C1246 H1240 0.930 . S
C1246 C1247 1.367 . S
C1246 C1254 1.378 . S
C1247 C1246 1.367 . S
C1247 C1255 1.433 . S
C1248 H1244 0.929 1_545 S
C1248 C1250 1.378 . S
C1248 C1252 1.350 . S
C1249 C1252 1.463 1_465 S
C1249 C1254 1.350 . S
C1249 N1257 1.427 . S
C1250 H1241 0.930 . S
C1250 C1248 1.378 . S
C1250 C1251 1.367 . S
C1251 C1250 1.367 . S
C1251 C1253 1.433 . S
C1252 C1248 1.350 . S
C1252 C1249 1.463 1_645 S
C1252 N1256 1.427 . S
C1253 H1243 0.929 . S
C1253 C1251 1.433 . S
C1253 N1256 1.384 . S
C1254 H1245 0.929 1_565 S
C1254 C1246 1.378 . S
C1254 C1249 1.350 . S
C1255 H1242 0.929 . S
C1255 C1247 1.433 . S
C1255 N1257 1.384 . S
N1256 C1252 1.427 . S
N1256 C1253 1.384 . S
N1257 C1249 1.427 . S
N1257 C1255 1.384 . S
H1258 C1264 0.930 . S
H1259 C1268 0.930 . S
H1260 C1273 0.929 . S
H1261 C1271 0.929 . S
H1262 C1266 0.929 . S
H1263 C1272 0.929 . S
C1264 H1258 0.930 . S
C1264 C1265 1.367 . S
C1264 C1272 1.378 . S
C1265 C1264 1.367 . S
C1265 C1273 1.433 . S
C1266 H1262 0.929 . S
C1266 C1268 1.378 . S
C1266 C1270 1.350 . S
C1267 C1270 1.463 1_655 S
C1267 C1272 1.350 . S
C1267 N1275 1.427 . S
C1268 H1259 0.930 . S
C1268 C1266 1.378 . S
C1268 C1269 1.367 . S
C1269 C1268 1.367 . S
C1269 C1271 1.433 . S
C1270 C1266 1.350 . S
C1270 C1267 1.463 1_455 S
C1270 N1274 1.427 . S
C1271 H1261 0.929 . S
C1271 C1269 1.433 . S
C1271 N1274 1.384 . S
C1272 H1263 0.929 . S
C1272 C1264 1.378 . S
C1272 C1267 1.350 . S
C1273 H1260 0.929 . S
C1273 C1265 1.433 . S
C1273 N1275 1.384 . S
N1274 C1270 1.427 . S
N1274 C1271 1.384 . S
N1275 C1267 1.427 . S
N1275 C1273 1.384 . S
H1276 C1282 0.930 . S
H1277 C1286 0.930 . S
H1278 C1291 0.929 . S
H1279 C1289 0.929 . S
H1280 C1284 0.929 . S
H1281 C1290 0.929 . S
C1282 H1276 0.930 . S
C1282 C1283 1.367 . S
C1282 C1290 1.378 . S
C1283 C1282 1.367 . S
C1283 C1291 1.433 . S
C1284 H1280 0.929 . S
C1284 C1286 1.378 . S
C1284 C1288 1.350 . S
C1285 C1288 1.463 1_455 S
C1285 C1290 1.350 . S
C1285 N1293 1.427 . S
C1286 H1277 0.930 . S
C1286 C1284 1.378 . S
C1286 C1287 1.367 . S
C1287 C1286 1.367 . S
C1287 C1289 1.433 . S
C1288 C1284 1.350 . S
C1288 C1285 1.463 1_655 S
C1288 N1292 1.427 . S
C1289 H1279 0.929 . S
C1289 C1287 1.433 . S
C1289 N1292 1.384 . S
C1290 H1281 0.929 . S
C1290 C1282 1.378 . S
C1290 C1285 1.350 . S
C1291 H1278 0.929 . S
C1291 C1283 1.433 . S
C1291 N1293 1.384 . S
N1292 C1288 1.427 . S
N1292 C1289 1.384 . S
N1293 C1285 1.427 . S
N1293 C1291 1.384 . S
H1294 C1300 0.930 . S
H1295 C1304 0.930 . S
H1296 C1309 0.929 . S
H1297 C1307 0.929 . S
H1298 C1302 0.929 . S
H1299 C1308 0.929 . S
C1300 H1294 0.930 . S
C1300 C1301 1.367 1_554 S
C1300 C1308 1.378 . S
C1301 C1300 1.367 1_556 S
C1301 C1309 1.433 . S
C1302 H1298 0.929 . S
C1302 C1304 1.378 . S
C1302 C1306 1.351 1_556 S
C1303 C1306 1.463 1_456 S
C1303 C1308 1.351 1_556 S
C1303 N1311 1.426 . S
C1304 H1295 0.930 . S
C1304 C1302 1.378 . S
C1304 C1305 1.367 1_556 S
C1305 C1304 1.367 1_554 S
C1305 C1307 1.433 . S
C1306 C1302 1.351 1_554 S
C1306 C1303 1.463 1_654 S
C1306 N1310 1.426 . S
C1307 H1297 0.929 . S
C1307 C1305 1.433 . S
C1307 N1310 1.384 . S
C1308 H1299 0.929 . S
C1308 C1300 1.378 . S
C1308 C1303 1.351 1_554 S
C1309 H1296 0.929 . S
C1309 C1301 1.433 . S
C1309 N1311 1.384 . S
N1310 C1306 1.426 . S
N1310 C1307 1.384 . S
N1311 C1303 1.426 . S
N1311 C1309 1.384 . S
H1312 C1318 0.930 . S
H1313 C1322 0.930 . S
H1314 C1327 0.929 . S
H1315 C1325 0.929 . S
H1316 C1320 0.929 . S
H1317 C1326 0.929 . S
C1318 H1312 0.930 . S
C1318 C1319 1.367 . S
C1318 C1326 1.378 . S
C1319 C1318 1.367 . S
C1319 C1327 1.433 . S
C1320 H1316 0.929 . S
C1320 C1322 1.378 . S
C1320 C1324 1.350 . S
C1321 C1324 1.463 . S
C1321 C1326 1.350 . S
C1321 N1329 1.427 . S
C1322 H1313 0.930 . S
C1322 C1320 1.378 . S
C1322 C1323 1.367 . S
C1323 C1322 1.367 . S
C1323 C1325 1.433 . S
C1324 C1320 1.350 . S
C1324 C1321 1.463 . S
C1324 N1328 1.427 . S
C1325 H1315 0.929 . S
C1325 C1323 1.433 . S
C1325 N1328 1.384 . S
C1326 H1317 0.929 . S
C1326 C1318 1.378 . S
C1326 C1321 1.350 . S
C1327 H1314 0.929 . S
C1327 C1319 1.433 . S
C1327 N1329 1.384 . S
N1328 C1324 1.427 . S
N1328 C1325 1.384 . S
N1329 C1321 1.427 . S
N1329 C1327 1.384 . S
H1330 C1336 0.930 . S
H1331 C1340 0.930 . S
H1332 C1345 0.929 . S
H1333 C1343 0.929 . S
H1334 C1338 0.929 . S
H1335 C1344 0.929 . S
C1336 H1330 0.930 . S
C1336 C1337 1.367 . S
C1336 C1344 1.378 . S
C1337 C1336 1.367 . S
C1337 C1345 1.433 . S
C1338 H1334 0.929 . S
C1338 C1340 1.378 . S
C1338 C1342 1.350 . S
C1339 C1342 1.463 . S
C1339 C1344 1.350 . S
C1339 N1347 1.427 . S
C1340 H1331 0.930 . S
C1340 C1338 1.378 . S
C1340 C1341 1.367 . S
C1341 C1340 1.367 . S
C1341 C1343 1.433 . S
C1342 C1338 1.350 . S
C1342 C1339 1.463 . S
C1342 N1346 1.427 . S
C1343 H1333 0.929 . S
C1343 C1341 1.433 . S
C1343 N1346 1.384 . S
C1344 H1335 0.929 . S
C1344 C1336 1.378 . S
C1344 C1339 1.350 . S
C1345 H1332 0.929 . S
C1345 C1337 1.433 . S
C1345 N1347 1.384 . S
N1346 C1342 1.427 . S
N1346 C1343 1.384 . S
N1347 C1339 1.427 . S
N1347 C1345 1.384 . S
H1348 C1354 0.930 . S
H1349 C1358 0.930 . S
H1350 C1363 0.929 . S
H1351 C1361 0.929 . S
H1352 C1356 0.929 . S
H1353 C1362 0.929 . S
C1354 H1348 0.930 . S
C1354 C1355 1.367 . S
C1354 C1362 1.378 . S
C1355 C1354 1.367 . S
C1355 C1363 1.433 . S
C1356 H1352 0.929 . S
C1356 C1358 1.378 . S
C1356 C1360 1.350 . S
C1357 C1360 1.463 . S
C1357 C1362 1.350 . S
C1357 N1365 1.427 . S
C1358 H1349 0.930 . S
C1358 C1356 1.378 . S
C1358 C1359 1.367 . S
C1359 C1358 1.367 . S
C1359 C1361 1.433 . S
C1360 C1356 1.350 . S
C1360 C1357 1.463 . S
C1360 N1364 1.427 . S
C1361 H1351 0.929 . S
C1361 C1359 1.433 . S
C1361 N1364 1.384 . S
C1362 H1353 0.929 . S
C1362 C1354 1.378 . S
C1362 C1357 1.350 . S
C1363 H1350 0.929 . S
C1363 C1355 1.433 . S
C1363 N1365 1.384 . S
N1364 C1360 1.427 . S
N1364 C1361 1.384 . S
N1365 C1357 1.427 . S
N1365 C1363 1.384 . S
H1366 C1372 0.930 . S
H1367 C1376 0.930 . S
H1368 C1381 0.929 . S
H1369 C1379 0.929 . S
H1370 C1374 0.929 . S
H1371 C1380 0.929 . S
C1372 H1366 0.930 . S
C1372 C1373 1.367 . S
C1372 C1380 1.378 . S
C1373 C1372 1.367 . S
C1373 C1381 1.433 . S
C1374 H1370 0.929 . S
C1374 C1376 1.378 . S
C1374 C1378 1.350 . S
C1375 C1378 1.463 . S
C1375 C1380 1.350 . S
C1375 N1383 1.427 . S
C1376 H1367 0.930 . S
C1376 C1374 1.378 . S
C1376 C1377 1.367 . S
C1377 C1376 1.367 . S
C1377 C1379 1.433 . S
C1378 C1374 1.350 . S
C1378 C1375 1.463 . S
C1378 N1382 1.427 . S
C1379 H1369 0.929 . S
C1379 C1377 1.433 . S
C1379 N1382 1.384 . S
C1380 H1371 0.929 . S
C1380 C1372 1.378 . S
C1380 C1375 1.350 . S
C1381 H1368 0.929 . S
C1381 C1373 1.433 . S
C1381 N1383 1.384 . S
N1382 C1378 1.427 . S
N1382 C1379 1.384 . S
N1383 C1375 1.427 . S
N1383 C1381 1.384 . S
H1384 C1390 0.930 . S
H1385 C1394 0.930 . S
H1386 C1399 0.929 . S
H1387 C1397 0.929 . S
H1388 C1392 0.929 . S
H1389 C1398 0.929 . S
C1390 H1384 0.930 . S
C1390 C1391 1.367 . S
C1390 C1398 1.378 . S
C1391 C1390 1.367 . S
C1391 C1399 1.433 . S
C1392 H1388 0.929 . S
C1392 C1394 1.378 . S
C1392 C1396 1.350 . S
C1393 C1396 1.463 . S
C1393 C1398 1.350 . S
C1393 N1401 1.427 . S
C1394 H1385 0.930 . S
C1394 C1392 1.378 . S
C1394 C1395 1.367 . S
C1395 C1394 1.367 . S
C1395 C1397 1.433 . S
C1396 C1392 1.350 . S
C1396 C1393 1.463 . S
C1396 N1400 1.427 . S
C1397 H1387 0.929 . S
C1397 C1395 1.433 . S
C1397 N1400 1.384 . S
C1398 H1389 0.929 . S
C1398 C1390 1.378 . S
C1398 C1393 1.350 . S
C1399 H1386 0.929 . S
C1399 C1391 1.433 . S
C1399 N1401 1.384 . S
N1400 C1396 1.427 . S
N1400 C1397 1.384 . S
N1401 C1393 1.427 . S
N1401 C1399 1.384 . S
H1402 C1408 0.930 . S
H1403 C1412 0.930 . S
H1404 C1417 0.929 . S
H1405 C1415 0.929 . S
H1406 C1410 0.929 . S
H1407 C1416 0.929 . S
C1408 H1402 0.930 . S
C1408 C1409 1.367 . S
C1408 C1416 1.378 . S
C1409 C1408 1.367 . S
C1409 C1417 1.433 . S
C1410 H1406 0.929 . S
C1410 C1412 1.378 . S
C1410 C1414 1.350 . S
C1411 C1414 1.463 . S
C1411 C1416 1.350 . S
C1411 N1419 1.427 . S
C1412 H1403 0.930 . S
C1412 C1410 1.378 . S
C1412 C1413 1.367 . S
C1413 C1412 1.367 . S
C1413 C1415 1.433 . S
C1414 C1410 1.350 . S
C1414 C1411 1.463 . S
C1414 N1418 1.427 . S
C1415 H1405 0.929 . S
C1415 C1413 1.433 . S
C1415 N1418 1.384 . S
C1416 H1407 0.929 . S
C1416 C1408 1.378 . S
C1416 C1411 1.350 . S
C1417 H1404 0.929 . S
C1417 C1409 1.433 . S
C1417 N1419 1.384 . S
N1418 C1414 1.427 . S
N1418 C1415 1.384 . S
N1419 C1411 1.427 . S
N1419 C1417 1.384 . S
H1420 C1426 0.930 . S
H1421 C1430 0.930 . S
H1422 C1435 0.929 . S
H1423 C1433 0.929 . S
H1424 C1428 0.929 . S
H1425 C1434 0.929 . S
C1426 H1420 0.930 . S
C1426 C1427 1.367 . S
C1426 C1434 1.378 . S
C1427 C1426 1.367 . S
C1427 C1435 1.433 . S
C1428 H1424 0.929 . S
C1428 C1430 1.378 . S
C1428 C1432 1.350 . S
C1429 C1432 1.463 . S
C1429 C1434 1.350 . S
C1429 N1437 1.427 . S
C1430 H1421 0.930 . S
C1430 C1428 1.378 . S
C1430 C1431 1.367 . S
C1431 C1430 1.367 . S
C1431 C1433 1.433 . S
C1432 C1428 1.350 . S
C1432 C1429 1.463 . S
C1432 N1436 1.427 . S
C1433 H1423 0.929 . S
C1433 C1431 1.433 . S
C1433 N1436 1.384 . S
C1434 H1425 0.929 . S
C1434 C1426 1.378 . S
C1434 C1429 1.350 . S
C1435 H1422 0.929 . S
C1435 C1427 1.433 . S
C1435 N1437 1.384 . S
N1436 C1432 1.427 . S
N1436 C1433 1.384 . S
N1437 C1429 1.427 . S
N1437 C1435 1.384 . S
H1438 C1444 0.930 . S
H1439 C1448 0.930 . S
H1440 C1453 0.929 . S
H1441 C1451 0.929 . S
H1442 C1446 0.929 . S
H1443 C1452 0.929 . S
C1444 H1438 0.930 . S
C1444 C1445 1.367 . S
C1444 C1452 1.378 . S
C1445 C1444 1.367 . S
C1445 C1453 1.433 . S
C1446 H1442 0.929 . S
C1446 C1448 1.378 . S
C1446 C1450 1.350 . S
C1447 C1450 1.463 . S
C1447 C1452 1.350 . S
C1447 N1455 1.427 . S
C1448 H1439 0.930 . S
C1448 C1446 1.378 . S
C1448 C1449 1.367 . S
C1449 C1448 1.367 . S
C1449 C1451 1.433 . S
C1450 C1446 1.350 . S
C1450 C1447 1.463 . S
C1450 N1454 1.427 . S
C1451 H1441 0.929 . S
C1451 C1449 1.433 . S
C1451 N1454 1.384 . S
C1452 H1443 0.929 . S
C1452 C1444 1.378 . S
C1452 C1447 1.350 . S
C1453 H1440 0.929 . S
C1453 C1445 1.433 . S
C1453 N1455 1.384 . S
N1454 C1450 1.427 . S
N1454 C1451 1.384 . S
N1455 C1447 1.427 . S
N1455 C1453 1.384 . S
H1456 C1462 0.930 . S
H1457 C1466 0.930 . S
H1458 C1471 0.929 . S
H1459 C1469 0.929 . S
H1460 C1464 0.929 . S
H1461 C1470 0.929 . S
C1462 H1456 0.930 . S
C1462 C1463 1.367 . S
C1462 C1470 1.378 . S
C1463 C1462 1.367 . S
C1463 C1471 1.433 . S
C1464 H1460 0.929 . S
C1464 C1466 1.378 . S
C1464 C1468 1.350 . S
C1465 C1468 1.463 . S
C1465 C1470 1.350 . S
C1465 N1473 1.427 . S
C1466 H1457 0.930 . S
C1466 C1464 1.378 . S
C1466 C1467 1.367 . S
C1467 C1466 1.367 . S
C1467 C1469 1.433 . S
C1468 C1464 1.350 . S
C1468 C1465 1.463 . S
C1468 N1472 1.427 . S
C1469 H1459 0.929 . S
C1469 C1467 1.433 . S
C1469 N1472 1.384 . S
C1470 H1461 0.929 . S
C1470 C1462 1.378 . S
C1470 C1465 1.350 . S
C1471 H1458 0.929 . S
C1471 C1463 1.433 . S
C1471 N1473 1.384 . S
N1472 C1468 1.427 . S
N1472 C1469 1.384 . S
N1473 C1465 1.427 . S
N1473 C1471 1.384 . S
H1474 C1480 0.930 . S
H1475 C1484 0.930 . S
H1476 C1489 0.929 . S
H1477 C1487 0.929 . S
H1478 C1482 0.929 . S
H1479 C1488 0.929 . S
C1480 H1474 0.930 . S
C1480 C1481 1.367 . S
C1480 C1488 1.378 . S
C1481 C1480 1.367 . S
C1481 C1489 1.433 . S
C1482 H1478 0.929 . S
C1482 C1484 1.378 . S
C1482 C1486 1.350 . S
C1483 C1486 1.463 . S
C1483 C1488 1.350 . S
C1483 N1491 1.427 . S
C1484 H1475 0.930 . S
C1484 C1482 1.378 . S
C1484 C1485 1.367 . S
C1485 C1484 1.367 . S
C1485 C1487 1.433 . S
C1486 C1482 1.350 . S
C1486 C1483 1.463 . S
C1486 N1490 1.427 . S
C1487 H1477 0.929 . S
C1487 C1485 1.433 . S
C1487 N1490 1.384 . S
C1488 H1479 0.929 . S
C1488 C1480 1.378 . S
C1488 C1483 1.350 . S
C1489 H1476 0.929 . S
C1489 C1481 1.433 . S
C1489 N1491 1.384 . S
N1490 C1486 1.427 . S
N1490 C1487 1.384 . S
N1491 C1483 1.427 . S
N1491 C1489 1.384 . S
H1492 C1498 0.930 . S
H1493 C1502 0.930 . S
H1494 C1507 0.929 . S
H1495 C1505 0.929 . S
H1496 C1500 0.929 . S
H1497 C1506 0.929 . S
C1498 H1492 0.930 . S
C1498 C1499 1.367 . S
C1498 C1506 1.378 . S
C1499 C1498 1.367 . S
C1499 C1507 1.433 . S
C1500 H1496 0.929 . S
C1500 C1502 1.378 . S
C1500 C1504 1.350 . S
C1501 C1504 1.463 . S
C1501 C1506 1.350 . S
C1501 N1509 1.427 . S
C1502 H1493 0.930 . S
C1502 C1500 1.378 . S
C1502 C1503 1.367 . S
C1503 C1502 1.367 . S
C1503 C1505 1.433 . S
C1504 C1500 1.350 . S
C1504 C1501 1.463 . S
C1504 N1508 1.427 . S
C1505 H1495 0.929 . S
C1505 C1503 1.433 . S
C1505 N1508 1.384 . S
C1506 H1497 0.929 . S
C1506 C1498 1.378 . S
C1506 C1501 1.350 . S
C1507 H1494 0.929 . S
C1507 C1499 1.433 . S
C1507 N1509 1.384 . S
N1508 C1504 1.427 . S
N1508 C1505 1.384 . S
N1509 C1501 1.427 . S
N1509 C1507 1.384 . S
H1510 C1516 0.930 . S
H1511 C1520 0.930 . S
H1512 C1525 0.929 . S
H1513 C1523 0.929 . S
H1514 C1518 0.929 . S
H1515 C1524 0.929 . S
C1516 H1510 0.930 . S
C1516 C1517 1.367 . S
C1516 C1524 1.378 . S
C1517 C1516 1.367 . S
C1517 C1525 1.433 . S
C1518 H1514 0.929 . S
C1518 C1520 1.378 . S
C1518 C1522 1.350 . S
C1519 C1522 1.463 . S
C1519 C1524 1.350 . S
C1519 N1527 1.427 . S
C1520 H1511 0.930 . S
C1520 C1518 1.378 . S
C1520 C1521 1.367 . S
C1521 C1520 1.367 . S
C1521 C1523 1.433 . S
C1522 C1518 1.350 . S
C1522 C1519 1.463 . S
C1522 N1526 1.427 . S
C1523 H1513 0.929 . S
C1523 C1521 1.433 . S
C1523 N1526 1.384 . S
C1524 H1515 0.929 . S
C1524 C1516 1.378 . S
C1524 C1519 1.350 . S
C1525 H1512 0.929 . S
C1525 C1517 1.433 . S
C1525 N1527 1.384 . S
N1526 C1522 1.427 . S
N1526 C1523 1.384 . S
N1527 C1519 1.427 . S
N1527 C1525 1.384 . S
H1528 C1534 0.930 . S
H1529 C1538 0.930 . S
H1530 C1543 0.929 . S
H1531 C1541 0.929 . S
H1532 C1536 0.929 . S
H1533 C1542 0.929 . S
C1534 H1528 0.930 . S
C1534 C1535 1.367 . S
C1534 C1542 1.378 . S
C1535 C1534 1.367 . S
C1535 C1543 1.433 . S
C1536 H1532 0.929 . S
C1536 C1538 1.378 . S
C1536 C1540 1.350 . S
C1537 C1540 1.463 . S
C1537 C1542 1.350 . S
C1537 N1545 1.427 . S
C1538 H1529 0.930 . S
C1538 C1536 1.378 . S
C1538 C1539 1.367 . S
C1539 C1538 1.367 . S
C1539 C1541 1.433 . S
C1540 C1536 1.350 . S
C1540 C1537 1.463 . S
C1540 N1544 1.427 . S
C1541 H1531 0.929 . S
C1541 C1539 1.433 . S
C1541 N1544 1.384 . S
C1542 H1533 0.929 . S
C1542 C1534 1.378 . S
C1542 C1537 1.350 . S
C1543 H1530 0.929 . S
C1543 C1535 1.433 . S
C1543 N1545 1.384 . S
N1544 C1540 1.427 . S
N1544 C1541 1.384 . S
N1545 C1537 1.427 . S
N1545 C1543 1.384 . S
H1546 C1552 0.930 . S
H1547 C1556 0.930 . S
H1548 C1561 0.929 . S
H1549 C1559 0.929 . S
H1550 C1554 0.929 . S
H1551 C1560 0.929 . S
C1552 H1546 0.930 . S
C1552 C1553 1.367 . S
C1552 C1560 1.378 . S
C1553 C1552 1.367 . S
C1553 C1561 1.433 . S
C1554 H1550 0.929 . S
C1554 C1556 1.378 . S
C1554 C1558 1.350 . S
C1555 C1558 1.463 . S
C1555 C1560 1.350 . S
C1555 N1563 1.427 . S
C1556 H1547 0.930 . S
C1556 C1554 1.378 . S
C1556 C1557 1.367 . S
C1557 C1556 1.367 . S
C1557 C1559 1.433 . S
C1558 C1554 1.350 . S
C1558 C1555 1.463 . S
C1558 N1562 1.427 . S
C1559 H1549 0.929 . S
C1559 C1557 1.433 . S
C1559 N1562 1.384 . S
C1560 H1551 0.929 . S
C1560 C1552 1.378 . S
C1560 C1555 1.350 . S
C1561 H1548 0.929 . S
C1561 C1553 1.433 . S
C1561 N1563 1.384 . S
N1562 C1558 1.427 . S
N1562 C1559 1.384 . S
N1563 C1555 1.427 . S
N1563 C1561 1.384 . S
H1564 C1570 0.930 . S
H1565 C1574 0.930 . S
H1566 C1579 0.929 . S
H1567 C1577 0.929 . S
H1568 C1572 0.929 . S
H1569 C1578 0.929 . S
C1570 H1564 0.930 . S
C1570 C1571 1.367 . S
C1570 C1578 1.378 . S
C1571 C1570 1.367 . S
C1571 C1579 1.433 . S
C1572 H1568 0.929 . S
C1572 C1574 1.378 . S
C1572 C1576 1.350 . S
C1573 C1576 1.463 . S
C1573 C1578 1.350 . S
C1573 N1581 1.427 . S
C1574 H1565 0.930 . S
C1574 C1572 1.378 . S
C1574 C1575 1.367 . S
C1575 C1574 1.367 . S
C1575 C1577 1.433 . S
C1576 C1572 1.350 . S
C1576 C1573 1.463 . S
C1576 N1580 1.427 . S
C1577 H1567 0.929 . S
C1577 C1575 1.433 . S
C1577 N1580 1.384 . S
C1578 H1569 0.929 . S
C1578 C1570 1.378 . S
C1578 C1573 1.350 . S
C1579 H1566 0.929 . S
C1579 C1571 1.433 . S
C1579 N1581 1.384 . S
N1580 C1576 1.427 . S
N1580 C1577 1.384 . S
N1581 C1573 1.427 . S
N1581 C1579 1.384 . S
H1582 C1588 0.930 . S
H1583 C1592 0.930 . S
H1584 C1597 0.929 . S
H1585 C1595 0.929 . S
H1586 C1590 0.929 . S
H1587 C1596 0.929 . S
C1588 H1582 0.930 . S
C1588 C1589 1.367 . S
C1588 C1596 1.378 . S
C1589 C1588 1.367 . S
C1589 C1597 1.433 . S
C1590 H1586 0.929 . S
C1590 C1592 1.378 . S
C1590 C1594 1.350 . S
C1591 C1594 1.463 . S
C1591 C1596 1.350 . S
C1591 N1599 1.427 . S
C1592 H1583 0.930 . S
C1592 C1590 1.378 . S
C1592 C1593 1.367 . S
C1593 C1592 1.367 . S
C1593 C1595 1.433 . S
C1594 C1590 1.350 . S
C1594 C1591 1.463 . S
C1594 N1598 1.427 . S
C1595 H1585 0.929 . S
C1595 C1593 1.433 . S
C1595 N1598 1.384 . S
C1596 H1587 0.929 . S
C1596 C1588 1.378 . S
C1596 C1591 1.350 . S
C1597 H1584 0.929 . S
C1597 C1589 1.433 . S
C1597 N1599 1.384 . S
N1598 C1594 1.427 . S
N1598 C1595 1.384 . S
N1599 C1591 1.427 . S
N1599 C1597 1.384 . S
H1600 C1606 0.930 . S
H1601 C1610 0.930 . S
H1602 C1615 0.929 . S
H1603 C1613 0.929 . S
H1604 C1608 0.929 . S
H1605 C1614 0.929 . S
C1606 H1600 0.930 . S
C1606 C1607 1.367 . S
C1606 C1614 1.378 . S
C1607 C1606 1.367 . S
C1607 C1615 1.433 . S
C1608 H1604 0.929 . S
C1608 C1610 1.378 . S
C1608 C1612 1.350 . S
C1609 C1612 1.463 . S
C1609 C1614 1.350 . S
C1609 N1617 1.427 . S
C1610 H1601 0.930 . S
C1610 C1608 1.378 . S
C1610 C1611 1.367 . S
C1611 C1610 1.367 . S
C1611 C1613 1.433 . S
C1612 C1608 1.350 . S
C1612 C1609 1.463 . S
C1612 N1616 1.427 . S
C1613 H1603 0.929 . S
C1613 C1611 1.433 . S
C1613 N1616 1.384 . S
C1614 H1605 0.929 . S
C1614 C1606 1.378 . S
C1614 C1609 1.350 . S
C1615 H1602 0.929 . S
C1615 C1607 1.433 . S
C1615 N1617 1.384 . S
N1616 C1612 1.427 . S
N1616 C1613 1.384 . S
N1617 C1609 1.427 . S
N1617 C1615 1.384 . S
H1618 C1624 0.930 . S
H1619 C1628 0.930 . S
H1620 C1633 0.929 . S
H1621 C1631 0.929 . S
H1622 C1626 0.929 . S
H1623 C1632 0.929 . S
C1624 H1618 0.930 . S
C1624 C1625 1.367 . S
C1624 C1632 1.378 . S
C1625 C1624 1.367 . S
C1625 C1633 1.433 . S
C1626 H1622 0.929 . S
C1626 C1628 1.378 . S
C1626 C1630 1.350 . S
C1627 C1630 1.463 . S
C1627 C1632 1.350 . S
C1627 N1635 1.427 . S
C1628 H1619 0.930 . S
C1628 C1626 1.378 . S
C1628 C1629 1.367 . S
C1629 C1628 1.367 . S
C1629 C1631 1.433 . S
C1630 C1626 1.350 . S
C1630 C1627 1.463 . S
C1630 N1634 1.427 . S
C1631 H1621 0.929 . S
C1631 C1629 1.433 . S
C1631 N1634 1.384 . S
C1632 H1623 0.929 . S
C1632 C1624 1.378 . S
C1632 C1627 1.350 . S
C1633 H1620 0.929 . S
C1633 C1625 1.433 . S
C1633 N1635 1.384 . S
N1634 C1630 1.427 . S
N1634 C1631 1.384 . S
N1635 C1627 1.427 . S
N1635 C1633 1.384 . S
H1636 C1642 0.930 . S
H1637 C1646 0.930 . S
H1638 C1651 0.929 . S
H1639 C1649 0.929 . S
H1640 C1644 0.929 . S
H1641 C1650 0.929 . S
C1642 H1636 0.930 . S
C1642 C1643 1.367 . S
C1642 C1650 1.378 . S
C1643 C1642 1.367 . S
C1643 C1651 1.433 1_556 S
C1644 H1640 0.929 . S
C1644 C1646 1.378 . S
C1644 C1648 1.350 1_554 S
C1645 C1648 1.463 . S
C1645 C1650 1.350 . S
C1645 N1653 1.427 1_556 S
C1646 H1637 0.930 . S
C1646 C1644 1.378 . S
C1646 C1647 1.367 1_554 S
C1647 C1646 1.367 1_556 S
C1647 C1649 1.433 . S
C1648 C1644 1.350 1_556 S
C1648 C1645 1.463 . S
C1648 N1652 1.427 . S
C1649 H1639 0.929 . S
C1649 C1647 1.433 . S
C1649 N1652 1.384 . S
C1650 H1641 0.929 . S
C1650 C1642 1.378 . S
C1650 C1645 1.350 . S
C1651 H1638 0.929 . S
C1651 C1643 1.433 1_554 S
C1651 N1653 1.384 . S
N1652 C1648 1.427 . S
N1652 C1649 1.384 . S
N1653 C1645 1.427 1_554 S
N1653 C1651 1.384 . S
H1654 C1660 0.930 . S
H1655 C1664 0.930 . S
H1656 C1669 0.929 . S
H1657 C1667 0.929 . S
H1658 C1662 0.929 . S
H1659 C1668 0.929 . S
C1660 H1654 0.930 . S
C1660 C1661 1.367 . S
C1660 C1668 1.378 . S
C1661 C1660 1.367 . S
C1661 C1669 1.433 . S
C1662 H1658 0.929 . S
C1662 C1664 1.378 . S
C1662 C1666 1.350 . S
C1663 C1666 1.463 . S
C1663 C1668 1.350 . S
C1663 N1671 1.427 . S
C1664 H1655 0.930 . S
C1664 C1662 1.378 . S
C1664 C1665 1.367 . S
C1665 C1664 1.367 . S
C1665 C1667 1.433 . S
C1666 C1662 1.350 . S
C1666 C1663 1.463 . S
C1666 N1670 1.427 . S
C1667 H1657 0.929 . S
C1667 C1665 1.433 . S
C1667 N1670 1.384 . S
C1668 H1659 0.929 . S
C1668 C1660 1.378 . S
C1668 C1663 1.350 . S
C1669 H1656 0.929 . S
C1669 C1661 1.433 . S
C1669 N1671 1.384 . S
N1670 C1666 1.427 . S
N1670 C1667 1.384 . S
N1671 C1663 1.427 . S
N1671 C1669 1.384 . S
H1672 C1678 0.930 . S
H1673 C1682 0.930 . S
H1674 C1687 0.929 . S
H1675 C1685 0.929 . S
H1676 C1680 0.929 . S
H1677 C1686 0.929 . S
C1678 H1672 0.930 . S
C1678 C1679 1.367 . S
C1678 C1686 1.378 . S
C1679 C1678 1.367 . S
C1679 C1687 1.433 . S
C1680 H1676 0.929 . S
C1680 C1682 1.378 . S
C1680 C1684 1.350 . S
C1681 C1684 1.463 . S
C1681 C1686 1.350 . S
C1681 N1689 1.427 . S
C1682 H1673 0.930 . S
C1682 C1680 1.378 . S
C1682 C1683 1.367 . S
C1683 C1682 1.367 . S
C1683 C1685 1.433 . S
C1684 C1680 1.350 . S
C1684 C1681 1.463 . S
C1684 N1688 1.427 . S
C1685 H1675 0.929 . S
C1685 C1683 1.433 . S
C1685 N1688 1.384 . S
C1686 H1677 0.929 . S
C1686 C1678 1.378 . S
C1686 C1681 1.350 . S
C1687 H1674 0.929 . S
C1687 C1679 1.433 . S
C1687 N1689 1.384 . S
N1688 C1684 1.427 . S
N1688 C1685 1.384 . S
N1689 C1681 1.427 . S
N1689 C1687 1.384 . S
H1690 C1696 0.930 . S
H1691 C1700 0.930 . S
H1692 C1705 0.929 . S
H1693 C1703 0.929 . S
H1694 C1698 0.929 . S
H1695 C1704 0.929 . S
C1696 H1690 0.930 . S
C1696 C1697 1.367 . S
C1696 C1704 1.378 . S
C1697 C1696 1.367 . S
C1697 C1705 1.433 . S
C1698 H1694 0.929 . S
C1698 C1700 1.378 . S
C1698 C1702 1.350 . S
C1699 C1702 1.463 . S
C1699 C1704 1.350 . S
C1699 N1707 1.427 . S
C1700 H1691 0.930 . S
C1700 C1698 1.378 . S
C1700 C1701 1.367 . S
C1701 C1700 1.367 . S
C1701 C1703 1.433 . S
C1702 C1698 1.350 . S
C1702 C1699 1.463 . S
C1702 N1706 1.427 . S
C1703 H1693 0.929 . S
C1703 C1701 1.433 . S
C1703 N1706 1.384 . S
C1704 H1695 0.929 . S
C1704 C1696 1.378 . S
C1704 C1699 1.350 . S
C1705 H1692 0.929 . S
C1705 C1697 1.433 . S
C1705 N1707 1.384 . S
N1706 C1702 1.427 . S
N1706 C1703 1.384 . S
N1707 C1699 1.427 . S
N1707 C1705 1.384 . S
H1708 C1714 0.930 . S
H1709 C1718 0.930 . S
H1710 C1723 0.929 . S
H1711 C1721 0.929 . S
H1712 C1716 0.929 . S
H1713 C1722 0.929 . S
C1714 H1708 0.930 . S
C1714 C1715 1.367 . S
C1714 C1722 1.378 . S
C1715 C1714 1.367 . S
C1715 C1723 1.433 . S
C1716 H1712 0.929 . S
C1716 C1718 1.378 . S
C1716 C1720 1.350 . S
C1717 C1720 1.463 . S
C1717 C1722 1.350 . S
C1717 N1725 1.427 . S
C1718 H1709 0.930 . S
C1718 C1716 1.378 . S
C1718 C1719 1.367 . S
C1719 C1718 1.367 . S
C1719 C1721 1.433 . S
C1720 C1716 1.350 . S
C1720 C1717 1.463 . S
C1720 N1724 1.427 . S
C1721 H1711 0.929 . S
C1721 C1719 1.433 . S
C1721 N1724 1.384 . S
C1722 H1713 0.929 . S
C1722 C1714 1.378 . S
C1722 C1717 1.350 . S
C1723 H1710 0.929 . S
C1723 C1715 1.433 . S
C1723 N1725 1.384 . S
N1724 C1720 1.427 . S
N1724 C1721 1.384 . S
N1725 C1717 1.427 . S
N1725 C1723 1.384 . S
H1726 C1732 0.930 . S
H1727 C1736 0.930 . S
H1728 C1741 0.929 . S
H1729 C1739 0.929 . S
H1730 C1734 0.929 . S
H1731 C1740 0.929 . S
C1732 H1726 0.930 . S
C1732 C1733 1.367 . S
C1732 C1740 1.378 . S
C1733 C1732 1.367 . S
C1733 C1741 1.433 . S
C1734 H1730 0.929 . S
C1734 C1736 1.378 . S
C1734 C1738 1.350 . S
C1735 C1738 1.463 . S
C1735 C1740 1.350 . S
C1735 N1743 1.427 . S
C1736 H1727 0.930 . S
C1736 C1734 1.378 . S
C1736 C1737 1.367 . S
C1737 C1736 1.367 . S
C1737 C1739 1.433 . S
C1738 C1734 1.350 . S
C1738 C1735 1.463 . S
C1738 N1742 1.427 . S
C1739 H1729 0.929 . S
C1739 C1737 1.433 . S
C1739 N1742 1.384 . S
C1740 H1731 0.929 . S
C1740 C1732 1.378 . S
C1740 C1735 1.350 . S
C1741 H1728 0.929 . S
C1741 C1733 1.433 . S
C1741 N1743 1.384 . S
N1742 C1738 1.427 . S
N1742 C1739 1.384 . S
N1743 C1735 1.427 . S
N1743 C1741 1.384 . S
H1744 C1750 0.930 . S
H1745 C1754 0.930 . S
H1746 C1759 0.929 . S
H1747 C1757 0.929 . S
H1748 C1752 0.929 . S
H1749 C1758 0.929 . S
C1750 H1744 0.930 . S
C1750 C1751 1.367 . S
C1750 C1758 1.378 . S
C1751 C1750 1.367 . S
C1751 C1759 1.433 . S
C1752 H1748 0.929 . S
C1752 C1754 1.378 . S
C1752 C1756 1.350 . S
C1753 C1756 1.463 . S
C1753 C1758 1.350 . S
C1753 N1761 1.427 . S
C1754 H1745 0.930 . S
C1754 C1752 1.378 . S
C1754 C1755 1.367 . S
C1755 C1754 1.367 . S
C1755 C1757 1.433 . S
C1756 C1752 1.350 . S
C1756 C1753 1.463 . S
C1756 N1760 1.427 . S
C1757 H1747 0.929 . S
C1757 C1755 1.433 . S
C1757 N1760 1.384 . S
C1758 H1749 0.929 . S
C1758 C1750 1.378 . S
C1758 C1753 1.350 . S
C1759 H1746 0.929 . S
C1759 C1751 1.433 . S
C1759 N1761 1.384 . S
N1760 C1756 1.427 . S
N1760 C1757 1.384 . S
N1761 C1753 1.427 . S
N1761 C1759 1.384 . S
H1762 C1768 0.930 . S
H1763 C1772 0.930 . S
H1764 C1777 0.929 . S
H1765 C1775 0.929 . S
H1766 C1770 0.929 . S
H1767 C1776 0.929 . S
C1768 H1762 0.930 . S
C1768 C1769 1.367 . S
C1768 C1776 1.378 . S
C1769 C1768 1.367 . S
C1769 C1777 1.433 . S
C1770 H1766 0.929 . S
C1770 C1772 1.378 . S
C1770 C1774 1.350 . S
C1771 C1774 1.463 . S
C1771 C1776 1.350 . S
C1771 N1779 1.427 . S
C1772 H1763 0.930 . S
C1772 C1770 1.378 . S
C1772 C1773 1.367 . S
C1773 C1772 1.367 . S
C1773 C1775 1.433 . S
C1774 C1770 1.350 . S
C1774 C1771 1.463 . S
C1774 N1778 1.427 . S
C1775 H1765 0.929 . S
C1775 C1773 1.433 . S
C1775 N1778 1.384 . S
C1776 H1767 0.929 . S
C1776 C1768 1.378 . S
C1776 C1771 1.350 . S
C1777 H1764 0.929 . S
C1777 C1769 1.433 . S
C1777 N1779 1.384 . S
N1778 C1774 1.427 . S
N1778 C1775 1.384 . S
N1779 C1771 1.427 . S
N1779 C1777 1.384 . S
H1780 C1786 0.930 . S
H1781 C1790 0.930 . S
H1782 C1795 0.929 . S
H1783 C1793 0.929 . S
H1784 C1788 0.929 . S
H1785 C1794 0.929 . S
C1786 H1780 0.930 . S
C1786 C1787 1.367 . S
C1786 C1794 1.378 . S
C1787 C1786 1.367 . S
C1787 C1795 1.433 . S
C1788 H1784 0.929 . S
C1788 C1790 1.378 . S
C1788 C1792 1.350 . S
C1789 C1792 1.463 . S
C1789 C1794 1.350 . S
C1789 N1797 1.427 . S
C1790 H1781 0.930 . S
C1790 C1788 1.378 . S
C1790 C1791 1.367 . S
C1791 C1790 1.367 . S
C1791 C1793 1.433 . S
C1792 C1788 1.350 . S
C1792 C1789 1.463 . S
C1792 N1796 1.427 . S
C1793 H1783 0.929 . S
C1793 C1791 1.433 . S
C1793 N1796 1.384 . S
C1794 H1785 0.929 . S
C1794 C1786 1.378 . S
C1794 C1789 1.350 . S
C1795 H1782 0.929 . S
C1795 C1787 1.433 . S
C1795 N1797 1.384 . S
N1796 C1792 1.427 . S
N1796 C1793 1.384 . S
N1797 C1789 1.427 . S
N1797 C1795 1.384 . S
H1798 C1804 0.930 . S
H1799 C1808 0.930 . S
H1800 C1813 0.929 . S
H1801 C1811 0.929 . S
H1802 C1806 0.929 . S
H1803 C1812 0.929 . S
C1804 H1798 0.930 . S
C1804 C1805 1.367 . S
C1804 C1812 1.378 . S
C1805 C1804 1.367 . S
C1805 C1813 1.433 . S
C1806 H1802 0.929 . S
C1806 C1808 1.378 . S
C1806 C1810 1.350 . S
C1807 C1810 1.463 . S
C1807 C1812 1.350 . S
C1807 N1815 1.427 . S
C1808 H1799 0.930 . S
C1808 C1806 1.378 . S
C1808 C1809 1.367 . S
C1809 C1808 1.367 . S
C1809 C1811 1.433 . S
C1810 C1806 1.350 . S
C1810 C1807 1.463 . S
C1810 N1814 1.427 . S
C1811 H1801 0.929 . S
C1811 C1809 1.433 . S
C1811 N1814 1.384 . S
C1812 H1803 0.929 . S
C1812 C1804 1.378 . S
C1812 C1807 1.350 . S
C1813 H1800 0.929 . S
C1813 C1805 1.433 . S
C1813 N1815 1.384 . S
N1814 C1810 1.427 . S
N1814 C1811 1.384 . S
N1815 C1807 1.427 . S
N1815 C1813 1.384 . S
H1816 C1822 0.930 . S
H1817 C1826 0.930 . S
H1818 C1831 0.929 . S
H1819 C1829 0.929 . S
H1820 C1824 0.929 . S
H1821 C1830 0.929 . S
C1822 H1816 0.930 . S
C1822 C1823 1.367 . S
C1822 C1830 1.378 . S
C1823 C1822 1.367 . S
C1823 C1831 1.433 1_554 S
C1824 H1820 0.929 . S
C1824 C1826 1.378 . S
C1824 C1828 1.350 1_556 S
C1825 C1828 1.463 . S
C1825 C1830 1.350 . S
C1825 N1833 1.427 1_554 S
C1826 H1817 0.930 . S
C1826 C1824 1.378 . S
C1826 C1827 1.367 1_556 S
C1827 C1826 1.367 1_554 S
C1827 C1829 1.433 . S
C1828 C1824 1.350 1_554 S
C1828 C1825 1.463 . S
C1828 N1832 1.427 . S
C1829 H1819 0.929 . S
C1829 C1827 1.433 . S
C1829 N1832 1.384 . S
C1830 H1821 0.929 . S
C1830 C1822 1.378 . S
C1830 C1825 1.350 . S
C1831 H1818 0.929 . S
C1831 C1823 1.433 1_556 S
C1831 N1833 1.384 . S
N1832 C1828 1.427 . S
N1832 C1829 1.384 . S
N1833 C1825 1.427 1_556 S
N1833 C1831 1.384 . S
H1834 C1840 0.930 . S
H1835 C1844 0.930 . S
H1836 C1849 0.929 . S
H1837 C1847 0.929 . S
H1838 C1842 0.929 . S
H1839 C1848 0.929 . S
C1840 H1834 0.930 . S
C1840 C1841 1.367 . S
C1840 C1848 1.378 . S
C1841 C1840 1.367 . S
C1841 C1849 1.433 . S
C1842 H1838 0.929 . S
C1842 C1844 1.378 . S
C1842 C1846 1.350 . S
C1843 C1846 1.463 . S
C1843 C1848 1.350 . S
C1843 N1851 1.427 . S
C1844 H1835 0.930 . S
C1844 C1842 1.378 . S
C1844 C1845 1.367 . S
C1845 C1844 1.367 . S
C1845 C1847 1.433 . S
C1846 C1842 1.350 . S
C1846 C1843 1.463 . S
C1846 N1850 1.427 . S
C1847 H1837 0.929 . S
C1847 C1845 1.433 . S
C1847 N1850 1.384 . S
C1848 H1839 0.929 . S
C1848 C1840 1.378 . S
C1848 C1843 1.350 . S
C1849 H1836 0.929 . S
C1849 C1841 1.433 . S
C1849 N1851 1.384 . S
N1850 C1846 1.427 . S
N1850 C1847 1.384 . S
N1851 C1843 1.427 . S
N1851 C1849 1.384 . S
H1852 C1858 0.930 . S
H1853 C1862 0.930 . S
H1854 C1867 0.929 . S
H1855 C1865 0.929 . S
H1856 C1860 0.929 . S
H1857 C1866 0.929 . S
C1858 H1852 0.930 . S
C1858 C1859 1.367 1_554 S
C1858 C1866 1.378 . S
C1859 C1858 1.367 1_556 S
C1859 C1867 1.433 . S
C1860 H1856 0.929 . S
C1860 C1862 1.378 . S
C1860 C1864 1.350 . S
C1861 C1864 1.463 . S
C1861 C1866 1.350 1_556 S
C1861 N1869 1.427 . S
C1862 H1853 0.930 . S
C1862 C1860 1.378 . S
C1862 C1863 1.367 . S
C1863 C1862 1.367 . S
C1863 C1865 1.433 1_556 S
C1864 C1860 1.350 . S
C1864 C1861 1.463 . S
C1864 N1868 1.427 1_556 S
C1865 H1855 0.929 . S
C1865 C1863 1.433 1_554 S
C1865 N1868 1.384 . S
C1866 H1857 0.929 . S
C1866 C1858 1.378 . S
C1866 C1861 1.350 1_554 S
C1867 H1854 0.929 . S
C1867 C1859 1.433 . S
C1867 N1869 1.384 . S
N1868 C1864 1.427 1_554 S
N1868 C1865 1.384 . S
N1869 C1861 1.427 . S
N1869 C1867 1.384 . S
H1870 C1876 0.930 . S
H1871 C1880 0.930 . S
H1872 C1885 0.929 . S
H1873 C1883 0.929 . S
H1874 C1878 0.929 . S
H1875 C1884 0.929 . S
C1876 H1870 0.930 . S
C1876 C1877 1.367 . S
C1876 C1884 1.378 . S
C1877 C1876 1.367 . S
C1877 C1885 1.433 . S
C1878 H1874 0.929 . S
C1878 C1880 1.378 . S
C1878 C1882 1.350 . S
C1879 C1882 1.463 . S
C1879 C1884 1.350 . S
C1879 N1887 1.427 . S
C1880 H1871 0.930 . S
C1880 C1878 1.378 . S
C1880 C1881 1.367 . S
C1881 C1880 1.367 . S
C1881 C1883 1.433 . S
C1882 C1878 1.350 . S
C1882 C1879 1.463 . S
C1882 N1886 1.427 . S
C1883 H1873 0.929 . S
C1883 C1881 1.433 . S
C1883 N1886 1.384 . S
C1884 H1875 0.929 . S
C1884 C1876 1.378 . S
C1884 C1879 1.350 . S
C1885 H1872 0.929 . S
C1885 C1877 1.433 . S
C1885 N1887 1.384 . S
N1886 C1882 1.427 . S
N1886 C1883 1.384 . S
N1887 C1879 1.427 . S
N1887 C1885 1.384 . S
C743 C16 1.538 . S
C747 C85 1.534 . S
C761 C62 1.538 . S
C765 C39 1.534 . S
C779 C177 1.534 . S
C783 C108 1.539 . S
C797 C154 1.534 . S
C801 C131 1.536 . S
C815 C200 1.535 . S
C819 C269 1.540 . S
C833 C223 1.538 . S
C837 C246 1.540 . S
C851 C361 1.534 . S
C855 C292 1.539 . S
C869 C338 1.534 . S
C873 C315 1.536 . S
C887 C384 1.539 . S
C891 C453 1.534 . S
C905 C407 1.537 . S
C909 C430 1.540 . S
C923 C476 1.534 . S
C927 C545 1.540 . S
C941 C499 1.538 . S
C945 C522 1.534 . S
C959 C568 1.537 . S
C963 C637 1.540 . S
C977 C614 1.539 . S
C981 C591 1.540 . S
C995 C729 1.540 . S
C999 C660 1.535 . S
C1013 C706 1.534 . S
C1017 C683 1.538 . S
C1031 N12 1.540 . S
C1035 N104 1.540 . S
C1049 N679 1.540 . S
C1053 N35 1.540 . S
C1067 N58 1.548 . S
C1071 N334 1.548 . S
C1085 N541 1.548 . S
C1089 N81 1.548 . S
C1103 N587 1.543 . S
C1107 N127 1.543 . S
C1121 N150 1.545 . S
C1125 N242 1.545 . S
C1139 N173 1.541 . S
C1143 N449 1.541 . S
C1157 N288 1.540 . S
C1161 N196 1.540 . S
C1175 N495 1.540 . S
C1179 N219 1.540 . S
C1193 N265 1.548 . S
C1197 N725 1.548 . S
C1211 N311 1.541 . S
C1215 N403 1.541 . S
C1229 N357 1.544 . S
C1233 N633 1.544 . S
C1247 N472 1.543 . S
C1251 N380 1.543 . S
C1265 N426 1.548 . S
C1269 N702 1.548 . S
C1283 N518 1.548 . S
C1287 N610 1.548 . S
C1301 N656 1.545 . S
C1305 N564 1.545 . S
C1319 C7 1.428 . S
C1323 C444 1.428 . S
C1337 C30 1.427 . S
C1341 C421 1.424 . S
C1355 C398 1.425 . S
C1359 C53 1.428 . S
C1373 C375 1.426 . S
C1377 C76 1.428 . S
C1391 C99 1.428 . S
C1395 C536 1.426 . S
C1409 C122 1.427 . S
C1413 C513 1.425 . S
C1427 C145 1.428 . S
C1431 C490 1.426 . S
C1445 C467 1.428 . S
C1449 C168 1.425 . S
C1463 C191 1.426 . S
C1467 C628 1.424 . S
C1481 C605 1.427 . S
C1485 C214 1.425 . S
C1499 C582 1.426 . S
C1503 C237 1.424 . S
C1517 C260 1.426 . S
C1521 C559 1.428 . S
C1535 C283 1.428 . S
C1539 C720 1.426 . S
C1553 C306 1.425 . S
C1557 C697 1.427 . S
C1571 C674 1.424 . S
C1575 C329 1.426 . S
C1589 C352 1.428 . S
C1593 C651 1.426 . S
C1607 N25 1.482 . S
C1611 N2 1.483 . S
C1625 N48 1.467 . S
C1629 N71 1.471 . S
C1643 N117 1.482 . S
C1647 N94 1.478 . S
C1661 N140 1.468 . S
C1665 N163 1.472 . S
C1679 N209 1.472 . S
C1683 N186 1.477 . S
C1697 N232 1.482 . S
C1701 N255 1.482 . S
C1715 N278 1.469 . S
C1719 N301 1.474 . S
C1733 N324 1.466 . S
C1737 N347 1.466 . S
C1751 N370 1.481 . S
C1755 N393 1.477 . S
C1769 N439 1.479 . S
C1773 N416 1.475 . S
C1787 N462 1.481 . S
C1791 N485 1.478 . S
C1805 N531 1.480 . S
C1809 N508 1.476 . S
C1823 N577 1.479 . S
C1827 N554 1.474 . S
C1841 N600 1.481 . S
C1845 N623 1.483 . S
C1859 N646 1.467 . S
C1863 N669 1.471 . S
C1877 N715 1.483 . S
C1881 N692 1.481 . S
