# Generated by pormake.
# Topology bsn, (6)-cn, num edge types: 1
# Building blocks:
#     Node 0, Type 0, BuildingBlock: FUNLAD_clean_sbu_0, # of connection points: 6
#     Node 1, Type 0, BuildingBlock: FUNLAD_clean_sbu_0, # of connection points: 6
#     Node 2, Type 0, BuildingBlock: FUNLAD_clean_sbu_0, # of connection points: 6
#     Node 3, Type 0, BuildingBlock: FUNLAD_clean_sbu_0, # of connection points: 6
#     Edge 4, Type (0, 0), BuildingBlock: FUNLAD_clean_linker_0, # of connection points: 2
#     Edge 5, Type (0, 0), BuildingBlock: FUNLAD_clean_linker_0, # of connection points: 2
#     Edge 6, Type (0, 0), BuildingBlock: FUNLAD_clean_linker_0, # of connection points: 2
#     Edge 7, Type (0, 0), BuildingBlock: FUNLAD_clean_linker_0, # of connection points: 2
#     Edge 8, Type (0, 0), BuildingBlock: FUNLAD_clean_linker_0, # of connection points: 2
#     Edge 9, Type (0, 0), BuildingBlock: FUNLAD_clean_linker_0, # of connection points: 2
#     Edge 10, Type (0, 0), BuildingBlock: FUNLAD_clean_linker_0, # of connection points: 2
#     Edge 11, Type (0, 0), BuildingBlock: FUNLAD_clean_linker_0, # of connection points: 2
#     Edge 12, Type (0, 0), BuildingBlock: FUNLAD_clean_linker_0, # of connection points: 2
#     Edge 13, Type (0, 0), BuildingBlock: FUNLAD_clean_linker_0, # of connection points: 2
#     Edge 14, Type (0, 0), BuildingBlock: FUNLAD_clean_linker_0, # of connection points: 2
#     Edge 15, Type (0, 0), BuildingBlock: FUNLAD_clean_linker_0, # of connection points: 2
# Relax obj value: 0.424
# Max RMSD: 0.262
# Mean RMSD: 0.262
data_MOF--net-bsn--node1-FUNLAD_clean_sbu_0--edge1-FUNLAD_clean_linker_0
_symmetry_space_group_name_H-M    P1
_symmetry_Int_Tables_number       1
_symmetry_cell_setting            triclinic
loop_
_symmetry_equiv_pos_as_xyz
'x, y, z'
_cell_length_a     32.394857
_cell_length_b     32.248077
_cell_length_c     23.71543
_cell_angle_alpha  89.670288
_cell_angle_beta   92.783988
_cell_angle_gamma 96.348629
loop_
_atom_site_label
_atom_site_type_symbol
_atom_site_fract_x
_atom_site_fract_y
_atom_site_fract_z
_atom_type_partial_charge
C0 C 0.14197 0.28305 0.35182 0.0
N1 N 0.05004 0.27959 0.227 0.0
C2 C 0.0718 0.31279 0.20246 0.0
C3 C 0.06863 0.31805 0.14426 0.0
C4 C 0.0428 0.28883 0.11147 0.0
C5 C 1.02072 0.25485 0.13793 0.0
C6 C 1.02492 0.25075 0.19617 0.0
Zn7 Zn 0.05323 0.27441 0.31111 0.0
C8 C 0.05689 0.18718 0.35367 0.0
N9 N 0.06096 0.26635 0.4869 0.0
C10 C 0.08688 0.29305 0.51999 0.0
C11 C 0.03182 0.23818 0.50914 0.0
C12 C 1.0266 0.23725 0.5668 0.0
C13 C 0.05154 0.2657 0.60172 0.0
C14 C 0.08261 0.29331 0.57812 0.0
Zn15 Zn 0.05971 0.27102 0.40266 0.0
O16 O 0.11686 0.28514 0.30978 0.0
C17 C 0.05693 0.35807 0.36899 0.0
O18 O 0.12784 0.27521 0.40054 0.0
H19 H 1.01137 0.21748 0.48187 0.0
H20 H 0.09157 0.33527 0.22808 0.0
H21 H 0.10975 0.31514 0.50107 0.0
O22 O 0.04961 0.34219 0.31986 0.0
O23 O 0.06323 0.33435 0.41023 0.0
H24 H 1.00776 0.22479 0.21686 0.0
O25 O 0.99049 0.26713 0.40079 0.0
O26 O 0.99029 0.26383 0.30879 0.0
O27 O 0.05734 0.20775 0.39868 0.0
O28 O 0.05604 0.20619 0.30633 0.0
C29 C 0.97042 0.26284 0.35315 0.0
H30 H 0.08657 0.3443 0.1251 0.0
H31 H 1.00016 0.23193 0.11392 0.0
H32 H 1.00201 0.21584 0.58348 0.0
H33 H 0.10267 0.31538 0.60414 0.0
C34 C 0.11245 0.79289 0.60852 0.0
N35 N 1.0206 0.794 0.47529 0.0
C36 C 0.04736 0.82484 0.45375 0.0
C37 C 0.04702 0.8321 0.39599 0.0
C38 C 1.01936 0.8069 0.35999 0.0
C39 C 0.99183 0.77542 0.38338 0.0
C40 C 0.99286 0.7696 0.44163 0.0
Zn41 Zn 1.02311 0.7858 0.55933 0.0
C42 C 1.02625 0.69765 0.58783 0.0
N43 N 0.03222 0.77184 0.73504 0.0
C44 C 0.0554 0.80107 0.76763 0.0
C45 C 1.00816 0.73948 0.75803 0.0
C46 C 1.00532 0.73663 0.81629 0.0
C47 C 1.02764 0.76731 0.85077 0.0
C48 C 0.05361 0.79935 0.82603 0.0
Zn49 Zn 1.02989 0.77919 0.65091 0.0
O50 O 0.09229 0.79095 0.56076 0.0
C51 C 1.02596 0.86778 0.61358 0.0
O52 O 0.09279 0.78931 0.65315 0.0
H53 H 0.99005 0.71662 0.73107 0.0
H54 H 0.06911 0.84389 0.48143 0.0
H55 H 0.07422 0.82652 0.74822 0.0
O56 O 1.02469 0.84863 0.56739 0.0
O57 O 1.02768 0.84735 0.65971 0.0
H58 H 0.97189 0.74533 0.45995 0.0
O59 O 0.96625 0.76885 0.65213 0.0
O60 O 0.95494 0.78067 0.56204 0.0
O61 O 0.03286 0.71182 0.63803 0.0
O62 O 1.02047 0.72272 0.54788 0.0
C63 C 0.94097 0.77178 0.61054 0.0
H64 H 0.06832 0.85709 0.37976 0.0
H65 H 0.97044 0.75488 0.35696 0.0
H66 H 0.98531 0.71125 0.83408 0.0
H67 H 0.07094 0.82383 0.85134 0.0
C68 C 0.62357 0.77915 0.85835 0.0
N69 N 0.54126 0.78599 0.72553 0.0
C70 C 0.56547 0.81902 0.70435 0.0
C71 C 0.56588 0.82555 0.64636 0.0
C72 C 0.54087 0.79796 0.6103 0.0
C73 C 0.51646 0.76394 0.63321 0.0
C74 C 0.51722 0.75843 0.6914 0.0
Zn75 Zn 0.53933 0.77919 0.8095 0.0
C76 C 0.5319 0.68996 0.84794 0.0
N77 N 0.5347 0.76618 -0.0167 0.0
C78 C 0.5647 0.78803 0.01658 0.0
C79 C 0.50243 0.74196 0.0055 0.0
C80 C 0.49887 0.73988 0.06369 0.0
C81 C 0.52871 0.76317 0.09899 0.0
C82 C 0.56223 0.78709 0.0749 0.0
Zn83 Zn 0.53685 0.77219 0.89926 0.0
O84 O 0.60262 0.78872 0.815 0.0
C85 C 0.54467 0.86096 0.86971 0.0
O86 O 0.60469 0.76715 0.90262 0.0
H87 H 0.47905 0.72479 0.97799 0.0
H88 H 0.58421 0.84055 0.7325 0.0
H89 H 0.58998 0.80712 -0.00221 0.0
O90 O 0.53681 0.8469 0.81971 0.0
O91 O 0.54848 0.83551 0.90969 0.0
H92 H 0.49832 0.73239 0.7094 0.0
O93 O 0.4692 0.77712 0.89128 0.0
O94 O 0.47583 0.76976 0.80069 0.0
O95 O 0.52526 0.70909 0.8922 0.0
O96 O 0.54213 0.71086 0.80386 0.0
C97 C 0.45266 0.7722 0.84147 0.0
H98 H 0.58497 0.85219 0.62995 0.0
H99 H 0.49728 0.74169 0.6064 0.0
H100 H 0.47288 0.72065 0.0808 0.0
H101 H 0.58557 0.80597 0.10065 0.0
C102 C 0.62832 0.28688 0.1237 0.0
N103 N 0.54807 0.28812 0.9793 0.0
C104 C 0.57947 0.31389 0.95768 0.0
C105 C 0.5801 0.32105 0.89993 0.0
C106 C 0.54839 0.30103 0.86418 0.0
C107 C 0.51716 0.27337 0.88746 0.0
C108 C 0.51749 0.2675 0.94563 0.0
Zn109 Zn 0.54491 0.28483 0.06338 0.0
C110 C 0.53588 0.19805 0.1008 0.0
N111 N 0.53778 0.28146 0.23743 0.0
C112 C 0.56085 0.31213 0.26773 0.0
C113 C 0.51167 0.25174 0.26247 0.0
C114 C 0.50752 0.2526 0.32058 0.0
C115 C 0.53083 0.28409 0.35265 0.0
C116 C 0.55792 0.31397 0.3258 0.0
Zn117 Zn 0.54103 0.28278 0.15334 0.0
O118 O 0.61231 0.2798 0.07397 0.0
C119 C 0.54936 0.36984 0.10706 0.0
O120 O 0.60468 0.29183 0.16329 0.0
H121 H 0.49366 0.22773 0.23724 0.0
H122 H 0.60336 0.33003 -0.01454 0.0
H123 H 0.58116 0.33553 0.2467 0.0
O124 O 0.55661 0.34834 0.0653 0.0
O125 O 0.5384 0.35128 0.15248 0.0
H126 H 0.4929 0.24717 0.96402 0.0
O127 O 0.47791 0.27351 0.1468 0.0
O128 O 0.47695 0.28975 0.05711 0.0
O129 O 0.54288 0.21454 0.14968 0.0
O130 O 0.53323 0.22139 0.05817 0.0
C131 C 0.45752 0.28033 0.1018 0.0
H132 H 0.60449 0.34293 0.88374 0.0
H133 H 0.49262 0.25669 0.86112 0.0
H134 H 0.48658 0.2289 0.34025 0.0
H135 H 0.57602 0.33896 0.34934 0.0
C136 C 0.08112 0.41966 0.42857 0.0
C137 C 0.05699 0.40297 0.38141 0.0
C138 C 0.07614 0.45901 0.44944 0.0
C139 C 0.04648 0.48271 0.42402 0.0
C140 C 1.02438 0.46734 0.3744 0.0
C141 C 1.0295 0.42768 0.35325 0.0
C142 C 0.03802 0.52334 0.44825 0.0
C143 C 0.04452 0.5332 0.50373 0.0
C144 C 0.03633 0.57382 0.52835 0.0
C145 C 0.05706 0.58772 0.5796 0.0
C146 C 0.05215 0.62711 0.60176 0.0
C147 C 1.02628 0.65314 0.57294 0.0
H148 H 0.99012 0.58883 0.46406 0.0
C149 C 1.00359 0.63806 0.52377 0.0
C150 C 1.00831 0.59892 0.50192 0.0
H151 H 0.98281 0.65715 0.50107 0.0
H152 H 0.10311 0.40157 0.45068 0.0
H153 H 0.09533 0.47038 0.48591 0.0
H154 H 1.00187 0.48531 0.35328 0.0
H155 H 1.0104 0.41554 0.31701 0.0
H156 H 1.02529 0.54524 0.41917 0.0
H157 H 0.0571 0.51107 0.53265 0.0
H158 H 0.0783 0.5687 0.60148 0.0
H159 H 0.07009 0.63796 0.6396 0.0
C160 C 0.68905 0.81186 0.82106 0.0
C161 C 0.66861 0.77905 0.85193 0.0
C162 C 0.72582 0.80689 0.79481 0.0
C163 C 0.74299 0.76878 0.79859 0.0
C164 C 0.72486 0.73742 0.83415 0.0
C165 C 0.68771 0.74237 0.86037 0.0
C166 C 0.77906 0.7608 0.76499 0.0
C167 C 0.78567 0.77773 0.71328 0.0
C168 C 0.82208 0.77137 0.6792 0.0
C169 C 0.83426 0.80066 0.63709 0.0
C170 C 0.87124 0.7986 0.60912 0.0
C171 C 0.89644 0.76698 0.62267 0.0
H172 H 0.83662 0.71333 0.71865 0.0
C173 C 0.88243 0.73573 0.66103 0.0
C174 C 0.84562 0.73767 0.6887 0.0
H175 H 0.90141 0.711 0.67227 0.0
H176 H 0.67485 0.84044 0.81372 0.0
H177 H 0.73987 0.83247 0.76998 0.0
H178 H 0.73794 0.70801 0.83867 0.0
H179 H 0.67219 0.71629 0.88294 0.0
H180 H 0.79981 0.7396 0.78319 0.0
H181 H 0.76418 0.79846 0.69554 0.0
H182 H 0.81639 0.82661 0.6281 0.0
H183 H 0.88168 0.82347 0.58052 0.0
C184 C 0.58259 0.43502 0.06655 0.0
C185 C 0.54997 0.41509 0.0972 0.0
C186 C 0.57774 0.47168 0.0365 0.0
C187 C 0.53985 0.48915 0.03597 0.0
C188 C 0.50872 0.47149 0.07116 0.0
C189 C 0.5136 0.43457 0.10133 0.0
C190 C 0.53144 0.52487 -0.0017 0.0
C191 C 0.55015 0.53326 0.94894 0.0
C192 C 0.54177 0.56919 0.91174 0.0
C193 C 0.57358 0.58852 0.87895 0.0
C194 C 0.56861 0.62604 0.85029 0.0
C195 C 0.53149 0.64438 0.85344 0.0
H196 H 0.47735 0.57054 0.93233 0.0
C197 C 0.49825 0.62266 0.8811 0.0
C198 C 0.50323 0.58545 0.9098 0.0
H199 H 0.46942 0.6364 0.88463 0.0
H200 H 0.61087 0.42042 0.06236 0.0
H201 H 0.60325 0.48527 0.0122 0.0
H202 H 0.47946 0.48473 0.07244 0.0
H203 H 0.48762 0.41941 0.12353 0.0
H204 H 0.50805 0.54405 0.01118 0.0
H205 H 0.57363 0.51425 0.93594 0.0
H206 H 0.60338 0.57623 0.87881 0.0
H207 H 0.59506 0.6426 0.83052 0.0
C208 C 0.90607 0.23116 0.30341 0.0
C209 C 0.92467 0.25844 0.34571 0.0
C210 C 0.86594 0.23487 0.28137 0.0
C211 C 0.84348 0.26634 0.30078 0.0
C212 C 0.86061 0.29118 0.3467 0.0
C213 C 0.90106 0.28742 0.3689 0.0
C214 C 0.80282 0.27463 0.27317 0.0
C215 C 0.79227 0.26655 0.21796 0.0
C216 C 0.75211 0.27567 0.18953 0.0
C217 C 0.73671 0.25336 0.14055 0.0
C218 C 0.69747 0.25899 0.11552 0.0
C219 C 0.67317 0.28721 0.13908 0.0
H220 H 0.74025 0.32549 0.24592 0.0
C221 C 0.68992 0.31158 0.18545 0.0
C222 C 0.72889 0.30611 0.21018 0.0
H223 H 0.67206 0.334 0.20413 0.0
H224 H 0.92367 0.20844 0.28487 0.0
H225 H 0.85322 0.2138 0.24799 0.0
H226 H 0.84365 0.3152 0.36321 0.0
H227 H 0.91489 0.30923 0.40086 0.0
H228 H 0.7818 0.28919 0.29908 0.0
H229 H 0.81352 0.2521 0.19224 0.0
H230 H 0.75428 0.23024 0.12301 0.0
H231 H 0.68522 0.23958 0.08011 0.0
C232 C 0.39175 0.24587 0.13551 0.0
C233 C 0.41225 0.27955 0.1063 0.0
C234 C 0.35502 0.25014 0.16231 0.0
C235 C 0.33799 0.28837 0.16069 0.0
C236 C 0.3561 0.32064 0.12653 0.0
C237 C 0.39322 0.31642 0.09986 0.0
C238 C 0.30226 0.29565 0.19537 0.0
C239 C 0.29604 0.27765 0.24652 0.0
C240 C 0.26016 0.28373 0.2818 0.0
C241 C 0.24773 0.25342 0.3225 0.0
C242 C 0.21109 0.25536 0.35129 0.0
C243 C 0.18653 0.28788 0.34006 0.0
H244 H 0.24665 0.34326 0.24595 0.0
C245 C 0.20089 0.32003 0.30324 0.0
C246 C 0.23737 0.31821 0.27474 0.0
H247 H 0.18232 0.34539 0.29367 0.0
H248 H 0.40605 0.21723 0.14157 0.0
H249 H 0.341 0.22396 0.1861 0.0
H250 H 0.34315 0.35019 0.12371 0.0
H251 H 0.40888 0.34317 0.07881 0.0
H252 H 0.28155 0.31742 0.17862 0.0
H253 H 0.31742 0.25631 0.26284 0.0
H254 H 0.26505 0.22683 0.32962 0.0
H255 H 0.20029 0.22975 0.37855 0.0
C256 C 0.39058 0.74553 0.78229 0.0
C257 C 0.4076 0.77099 0.82745 0.0
C258 C 0.35172 0.75085 0.7571 0.0
C259 C 0.32894 0.78224 0.77604 0.0
C260 C 0.34449 0.80556 0.82411 0.0
C261 C 0.38363 0.8001 0.8496 0.0
C262 C 0.28918 0.79141 0.74652 0.0
C263 C 0.27926 0.78276 0.6913 0.0
C264 C 0.23898 0.7909 0.66246 0.0
C265 C 0.22233 0.7655 0.61685 0.0
C266 C 0.18206 0.76894 0.59377 0.0
C267 C 0.15818 0.7982 0.61568 0.0
H268 H 0.22866 0.84411 0.71365 0.0
C269 C 0.17634 0.82607 0.65755 0.0
C270 C 0.2163 0.82266 0.68052 0.0
H271 H 0.15843 0.84888 0.67525 0.0
H272 H 0.40832 0.72256 0.76464 0.0
H273 H 0.34017 0.73074 0.72215 0.0
H274 H 0.32723 0.82944 0.84035 0.0
H275 H 0.3962 0.82044 0.88392 0.0
H276 H 0.26778 0.80642 0.77134 0.0
H277 H 0.30054 0.76772 0.66637 0.0
H278 H 0.23945 0.74123 0.60139 0.0
H279 H 0.1685 0.7466 0.56229 0.0
C280 C 0.57342 0.91961 0.93193 0.0
C281 C 0.54778 0.90567 0.8847 0.0
C282 C 0.57071 0.9585 0.95598 0.0
C283 C 0.54181 0.98443 0.93377 0.0
C284 C 0.51828 0.97182 0.884 0.0
C285 C 0.52115 0.93267 0.85963 0.0
C286 C 0.53537 1.02448 0.96153 0.0
C287 C 0.54449 0.03278 0.01702 0.0
C288 C 0.53793 0.07296 0.04423 0.0
C289 C 0.56329 0.08749 0.09161 0.0
C290 C 0.56052 0.1272 0.11433 0.0
C291 C 0.53209 0.15271 0.09006 0.0
H292 H 0.48569 0.08652 -0.01115 0.0
C293 C 0.50452 0.1367 0.04584 0.0
C294 C 0.5072 0.09729 0.02337 0.0
H295 H 0.48199 0.15564 0.02667 0.0
H296 H 0.59469 0.89961 0.95175 0.0
H297 H 0.59094 0.96764 -0.00756 0.0
H298 H 0.4963 0.99152 0.8653 0.0
H299 H 0.50085 0.92261 0.8235 0.0
H300 H 0.52179 0.04752 0.93511 0.0
H301 H 0.55825 1.01001 0.04365 0.0
H302 H 0.58672 0.06899 0.10926 0.0
H303 H 0.58239 0.13896 0.14802 0.0
C304 C 0.99456 0.92907 0.57733 0.0
C305 C 1.02702 0.91341 0.60945 0.0
C306 C 1.00142 0.96665 0.54774 0.0
C307 C 0.04109 0.98937 0.54952 0.0
C308 C 0.07222 0.97606 0.58668 0.0
C309 C 0.06538 0.93817 0.61604 0.0
C310 C 0.05138 1.02589 0.51173 0.0
C311 C 0.03288 1.02988 0.45977 0.0
C312 C 0.04301 0.06634 0.42178 0.0
C313 C 1.01209 0.07857 0.38334 0.0
C314 C 1.01859 0.11618 0.35325 0.0
C315 C 0.05641 0.14174 0.36038 0.0
H316 H 0.10745 0.0808 0.45155 0.0
C317 C 0.08872 0.12731 0.39414 0.0
C318 C 0.08222 0.08999 0.42439 0.0
H319 H 0.11795 0.14685 0.40117 0.0
H320 H 0.96491 0.9102 0.5707 0.0
H321 H 0.97611 0.97673 0.52156 0.0
H322 H 0.10289 0.99334 0.58968 0.0
H323 H 0.09129 0.92629 0.63909 0.0
H324 H 0.07612 0.04927 0.52665 0.0
H325 H 1.0082 1.00638 0.44494 0.0
H326 H 0.98179 0.06059 0.37969 0.0
H327 H 0.99276 0.12712 0.32888 0.0
C328 C 0.04105 0.25771 0.01588 0.0
C329 C 0.03972 0.29296 0.04972 0.0
C330 C 0.03853 0.26117 0.95752 0.0
C331 C 0.03431 0.29999 0.93188 0.0
C332 C 0.0337 0.33542 0.96557 0.0
C333 C 0.03614 0.33193 0.02424 0.0
C334 C 0.03347 0.30434 0.87009 0.0
C335 C 1.01681 0.27311 0.83613 0.0
C336 C 1.02395 0.2724 0.77541 0.0
C337 C 1.02529 0.23359 0.74971 0.0
C338 C 0.03503 0.23139 0.69344 0.0
C339 C 0.04316 0.26804 0.66187 0.0
H340 H 1.02908 0.33949 0.76159 0.0
C341 C 0.0409 0.3069 0.68716 0.0
C342 C 1.03121 0.30911 0.74351 0.0
H343 H 0.04587 0.33553 0.66309 0.0
H344 H 0.04497 0.22756 0.03451 0.0
H345 H 0.0411 0.23358 0.93273 0.0
H346 H 1.03113 0.3657 0.94649 0.0
H347 H 0.03495 0.35955 0.04961 0.0
H348 H 0.04901 0.33286 0.85293 0.0
H349 H 1.00094 0.24505 0.85425 0.0
H350 H 1.01978 0.20492 0.77359 0.0
H351 H 0.03657 0.20105 0.67476 0.0
C352 C 0.05622 0.77715 0.9497 0.0
C353 C 1.02188 0.76777 0.9119 0.0
C354 C 0.05044 0.78189 0.00691 0.0
C355 C 1.01009 0.77767 0.02716 0.0
C356 C 0.97594 0.76623 -0.01013 0.0
C357 C 0.98172 0.76153 0.93251 0.0
C358 C 1.003 0.78438 0.08712 0.0
C359 C 1.02806 0.81179 0.11903 0.0
C360 C 1.02442 0.81469 0.18038 0.0
C361 C 0.06092 0.8218 0.21457 0.0
C362 C 0.05918 0.82009 0.27302 0.0
C363 C 1.02073 0.81204 0.29823 0.0
H364 H 0.95699 0.80436 0.17978 0.0
C365 C 0.98396 0.80727 0.26389 0.0
C366 C 0.98576 0.80853 0.20533 0.0
H367 H 0.95385 0.80213 0.28224 0.0
H368 H 0.08754 0.78118 0.93491 0.0
H369 H 0.07762 0.78876 0.03506 0.0
H370 H 0.94467 0.76221 0.00484 0.0
H371 H 0.95469 0.75451 0.90408 0.0
H372 H 0.97672 0.76602 0.10521 0.0
H373 H 0.05422 0.83022 0.10076 0.0
H374 H 0.09099 0.8268 0.19602 0.0
H375 H 0.08812 0.82351 0.29827 0.0
C376 C 0.55908 0.76456 0.19768 0.0
C377 C 0.52404 0.76432 0.16045 0.0
C378 C 0.55536 0.7695 0.25534 0.0
C379 C 0.51646 0.77425 0.2767 0.0
C380 C 0.48112 0.77195 0.24001 0.0
C381 C 0.48488 0.76739 0.18216 0.0
C382 C 0.51208 0.78089 0.33728 0.0
C383 C 0.54155 0.8039 0.36891 0.0
C384 C 0.54015 0.80711 0.43073 0.0
C385 C 0.57782 0.81346 0.46279 0.0
C386 C 0.57809 0.81183 0.5215 0.0
C387 C 0.54057 0.80403 0.54884 0.0
H388 H 0.47276 0.79896 0.435 0.0
C389 C 0.50275 0.80023 0.51695 0.0
C390 C 0.50247 0.80203 0.45832 0.0
H391 H 0.4734 0.79533 0.53739 0.0
H392 H 0.58945 0.76117 0.1822 0.0
H393 H 0.58289 0.76941 0.2831 0.0
H394 H 0.4508 0.77501 0.25592 0.0
H395 H 0.45737 0.7676 0.15437 0.0
H396 H 0.48408 0.76623 0.35566 0.0
H397 H 0.56921 0.81849 0.34944 0.0
H398 H 0.6072 0.81791 0.44237 0.0
H399 H 0.60764 0.81494 0.54535 0.0
C400 C 0.56298 0.29274 0.44943 0.0
C401 C 0.52702 0.28629 0.41394 0.0
C402 C 0.55985 0.29736 0.50716 0.0
C403 C 0.52059 0.29617 0.53035 0.0
C404 C 0.48461 0.28822 0.49511 0.0
C405 C 0.48776 0.28342 0.43713 0.0
C406 C 0.51657 0.30113 0.59147 0.0
C407 C 0.54593 0.32346 0.62404 0.0
C408 C 0.54593 0.32161 0.68589 0.0
C409 C 0.58391 0.32012 0.71618 0.0
C410 C 0.58478 0.31361 0.77424 0.0
C411 C 0.54764 0.30934 0.80298 0.0
H412 H 0.47928 0.32123 0.6923 0.0
C413 C 0.50977 0.31293 0.77285 0.0
C414 C 0.50888 0.31893 0.71466 0.0
H415 H 0.48081 0.31102 0.7942 0.0
H416 H 0.59357 0.29404 0.43249 0.0
H417 H 0.58829 0.30124 0.53338 0.0
H418 H 0.45408 0.28642 0.51233 0.0
H419 H 0.45961 0.27848 0.41032 0.0
H420 H 0.48948 0.28465 0.61016 0.0
H421 H 0.57296 0.34009 0.60547 0.0
H422 H 0.61279 0.32221 0.69457 0.0
H423 H 0.61441 0.31074 0.79625 0.0
loop_
_geom_bond_atom_site_label_1
_geom_bond_atom_site_label_2
_geom_bond_distance
_geom_bond_site_symmetry_2
_ccdc_geom_bond_type
C0 O16 1.251 . S
C0 O18 1.254 . S
N1 C2 1.333 . S
N1 C6 1.307 1_455 S
N1 Zn7 2.020 . S
C2 N1 1.333 . S
C2 C3 1.379 . S
C2 H20 0.952 . S
C3 C2 1.379 . S
C3 C4 1.390 . S
C3 H30 0.949 . S
C4 C3 1.390 . S
C4 C5 1.357 1_455 S
C5 C4 1.357 1_655 S
C5 C6 1.370 . S
C5 H31 0.950 . S
C6 N1 1.307 1_655 S
C6 C5 1.370 . S
C6 H24 0.948 . S
Zn7 N1 2.020 . S
Zn7 O16 2.039 . S
Zn7 O22 2.034 . S
Zn7 O26 2.025 1_455 S
Zn7 O28 2.024 . S
C8 O27 1.246 . S
C8 O28 1.249 . S
N9 C10 1.307 . S
N9 C11 1.333 1_455 S
N9 Zn15 2.020 . S
C10 N9 1.307 . S
C10 C14 1.370 . S
C10 H21 0.948 . S
C11 N9 1.333 1_655 S
C11 C12 1.379 . S
C11 H19 0.952 . S
C12 C11 1.379 . S
C12 C13 1.390 1_655 S
C12 H32 0.949 . S
C13 C12 1.390 1_455 S
C13 C14 1.357 . S
C14 C10 1.370 . S
C14 C13 1.357 . S
C14 H33 0.950 . S
Zn15 N9 2.020 . S
Zn15 O18 2.025 . S
Zn15 O23 2.024 . S
Zn15 O25 2.039 1_455 S
Zn15 O27 2.034 . S
O16 C0 1.251 . S
O16 Zn7 2.039 . S
C17 O22 1.246 . S
C17 O23 1.249 . S
O18 C0 1.254 . S
O18 Zn15 2.025 . S
H19 C11 0.952 . S
H20 C2 0.952 . S
H21 C10 0.948 . S
O22 Zn7 2.034 . S
O22 C17 1.246 . S
O23 Zn15 2.024 . S
O23 C17 1.249 . S
H24 C6 0.948 . S
O25 Zn15 2.039 1_655 S
O25 C29 1.251 . S
O26 Zn7 2.025 1_655 S
O26 C29 1.254 . S
O27 C8 1.246 . S
O27 Zn15 2.034 . S
O28 Zn7 2.024 . S
O28 C8 1.249 . S
C29 O25 1.251 . S
C29 O26 1.254 . S
H30 C3 0.949 . S
H31 C5 0.950 . S
H32 C12 0.949 . S
H33 C14 0.950 . S
C34 O50 1.251 . S
C34 O52 1.254 . S
N35 C36 1.333 1_655 S
N35 C40 1.307 . S
N35 Zn41 2.020 1_655 S
C36 N35 1.333 1_455 S
C36 C37 1.379 . S
C36 H54 0.952 . S
C37 C36 1.379 . S
C37 C38 1.390 . S
C37 H64 0.949 . S
C38 C37 1.390 . S
C38 C39 1.357 1_455 S
C39 C38 1.357 1_655 S
C39 C40 1.370 . S
C39 H65 0.950 . S
C40 N35 1.307 . S
C40 C39 1.370 . S
C40 H58 0.948 . S
Zn41 N35 2.020 1_455 S
Zn41 O50 2.047 . S
Zn41 O56 2.034 . S
Zn41 O60 2.017 1_455 S
Zn41 O62 2.025 1_455 S
C42 O61 1.245 . S
C42 O62 1.248 1_455 S
N43 C44 1.307 . S
N43 C45 1.333 1_455 S
N43 Zn49 2.020 . S
C44 N43 1.307 . S
C44 C48 1.370 . S
C44 H55 0.948 . S
C45 N43 1.333 1_655 S
C45 C46 1.379 . S
C45 H53 0.952 . S
C46 C45 1.379 . S
C46 C47 1.390 1_655 S
C46 H66 0.949 . S
C47 C46 1.390 1_455 S
C47 C48 1.357 . S
C48 C44 1.370 . S
C48 C47 1.357 . S
C48 H67 0.950 . S
Zn49 N43 2.020 . S
Zn49 O52 2.025 . S
Zn49 O57 2.024 . S
Zn49 O59 2.039 1_455 S
Zn49 O61 2.034 . S
O50 C34 1.251 . S
O50 Zn41 2.047 . S
C51 O56 1.246 . S
C51 O57 1.249 . S
O52 C34 1.254 . S
O52 Zn49 2.025 . S
H53 C45 0.952 . S
H54 C36 0.952 . S
H55 C44 0.948 . S
O56 Zn41 2.034 . S
O56 C51 1.246 . S
O57 Zn49 2.024 . S
O57 C51 1.249 . S
H58 C40 0.948 . S
O59 Zn49 2.039 1_655 S
O59 C63 1.251 . S
O60 Zn41 2.017 1_655 S
O60 C63 1.254 . S
O61 C42 1.245 . S
O61 Zn49 2.034 . S
O62 Zn41 2.025 1_655 S
O62 C42 1.248 1_655 S
C63 O59 1.251 . S
C63 O60 1.254 . S
H64 C37 0.949 . S
H65 C39 0.950 . S
H66 C46 0.949 . S
H67 C48 0.950 . S
C68 O84 1.251 . S
C68 O86 1.254 . S
N69 C70 1.333 . S
N69 C74 1.307 . S
N69 Zn75 2.020 . S
C70 N69 1.333 . S
C70 C71 1.379 . S
C70 H88 0.952 . S
C71 C70 1.379 . S
C71 C72 1.390 . S
C71 H98 0.949 . S
C72 C71 1.390 . S
C72 C73 1.357 . S
C73 C72 1.357 . S
C73 C74 1.370 . S
C73 H99 0.950 . S
C74 N69 1.307 . S
C74 C73 1.370 . S
C74 H92 0.948 . S
Zn75 N69 2.020 . S
Zn75 O84 2.039 . S
Zn75 O90 2.034 . S
Zn75 O94 2.025 . S
Zn75 O96 2.024 . S
C76 O95 1.246 . S
C76 O96 1.249 . S
N77 C78 1.307 . S
N77 C79 1.333 . S
N77 Zn83 2.020 1_554 S
C78 N77 1.307 . S
C78 C82 1.370 . S
C78 H89 0.948 . S
C79 N77 1.333 . S
C79 C80 1.379 . S
C79 H87 0.952 . S
C80 C79 1.379 . S
C80 C81 1.390 . S
C80 H100 0.949 . S
C81 C80 1.390 . S
C81 C82 1.357 . S
C82 C78 1.370 . S
C82 C81 1.357 . S
C82 H101 0.950 . S
Zn83 N77 2.020 1_556 S
Zn83 O86 2.025 . S
Zn83 O91 2.024 . S
Zn83 O93 2.039 . S
Zn83 O95 2.034 . S
O84 C68 1.251 . S
O84 Zn75 2.039 . S
C85 O90 1.246 . S
C85 O91 1.249 . S
O86 C68 1.254 . S
O86 Zn83 2.025 . S
H87 C79 0.952 . S
H88 C70 0.952 . S
H89 C78 0.948 . S
O90 Zn75 2.034 . S
O90 C85 1.246 . S
O91 Zn83 2.024 . S
O91 C85 1.249 . S
H92 C74 0.948 . S
O93 Zn83 2.039 . S
O93 C97 1.251 . S
O94 Zn75 2.025 . S
O94 C97 1.254 . S
O95 C76 1.246 . S
O95 Zn83 2.034 . S
O96 Zn75 2.024 . S
O96 C76 1.249 . S
C97 O93 1.251 . S
C97 O94 1.254 . S
H98 C71 0.949 . S
H99 C73 0.950 . S
H100 C80 0.949 . S
H101 C82 0.950 . S
C102 O118 1.251 . S
C102 O120 1.254 . S
N103 C104 1.333 . S
N103 C108 1.307 . S
N103 Zn109 2.020 1_556 S
C104 N103 1.333 . S
C104 C105 1.379 . S
C104 H122 0.952 . S
C105 C104 1.379 . S
C105 C106 1.390 . S
C105 H132 0.949 . S
C106 C105 1.390 . S
C106 C107 1.357 . S
C107 C106 1.357 . S
C107 C108 1.370 . S
C107 H133 0.950 . S
C108 N103 1.307 . S
C108 C107 1.370 . S
C108 H126 0.948 . S
Zn109 N103 2.020 1_554 S
Zn109 O118 2.039 . S
Zn109 O124 2.034 . S
Zn109 O128 2.025 . S
Zn109 O130 2.024 . S
C110 O129 1.246 . S
C110 O130 1.249 . S
N111 C112 1.307 . S
N111 C113 1.333 . S
N111 Zn117 2.020 . S
C112 N111 1.307 . S
C112 C116 1.370 . S
C112 H123 0.948 . S
C113 N111 1.333 . S
C113 C114 1.379 . S
C113 H121 0.952 . S
C114 C113 1.379 . S
C114 C115 1.390 . S
C114 H134 0.949 . S
C115 C114 1.390 . S
C115 C116 1.357 . S
C116 C112 1.370 . S
C116 C115 1.357 . S
C116 H135 0.950 . S
Zn117 N111 2.020 . S
Zn117 O120 2.025 . S
Zn117 O125 2.024 . S
Zn117 O127 2.039 . S
Zn117 O129 2.034 . S
O118 C102 1.251 . S
O118 Zn109 2.039 . S
C119 O124 1.246 . S
C119 O125 1.249 . S
O120 C102 1.254 . S
O120 Zn117 2.025 . S
H121 C113 0.952 . S
H122 C104 0.952 . S
H123 C112 0.948 . S
O124 Zn109 2.034 . S
O124 C119 1.246 . S
O125 Zn117 2.024 . S
O125 C119 1.249 . S
H126 C108 0.948 . S
O127 Zn117 2.039 . S
O127 C131 1.251 . S
O128 Zn109 2.025 . S
O128 C131 1.254 . S
O129 C110 1.246 . S
O129 Zn117 2.034 . S
O130 Zn109 2.024 . S
O130 C110 1.249 . S
C131 O127 1.251 . S
C131 O128 1.254 . S
H132 C105 0.949 . S
H133 C107 0.950 . S
H134 C114 0.949 . S
H135 C116 0.950 . S
C136 C137 1.386 . S
C136 C138 1.383 . S
C136 H152 0.951 . S
C137 C136 1.386 . S
C137 C141 1.383 1_455 S
C138 C136 1.383 . S
C138 C139 1.402 1_455 S
C138 H153 0.951 . S
C139 C138 1.402 1_655 S
C139 C140 1.375 . S
C139 C142 1.481 . S
C140 C139 1.375 . S
C140 C141 1.367 . S
C140 H154 0.951 . S
C141 C137 1.383 1_655 S
C141 C140 1.367 . S
C141 H155 0.950 . S
C142 C139 1.481 . S
C142 C143 1.297 1_655 S
C142 H156 0.950 . S
C143 C142 1.297 1_455 S
C143 C144 1.479 . S
C143 H157 0.950 . S
C144 C143 1.479 . S
C144 C145 1.375 . S
C144 C150 1.404 1_455 S
C145 C144 1.375 . S
C145 C146 1.369 . S
C145 H158 0.950 . S
C146 C145 1.369 . S
C146 C147 1.392 . S
C146 H159 0.951 . S
C147 C146 1.392 . S
C147 C149 1.384 1_455 S
H148 C150 0.949 . S
C149 C147 1.384 1_655 S
C149 C150 1.385 . S
C149 H151 0.950 . S
C150 C144 1.404 1_655 S
C150 H148 0.949 . S
C150 C149 1.385 . S
H151 C149 0.950 . S
H152 C136 0.951 . S
H153 C138 0.951 . S
H154 C140 0.951 . S
H155 C141 0.950 . S
H156 C142 0.950 . S
H157 C143 0.950 . S
H158 C145 0.950 . S
H159 C146 0.951 . S
C160 C161 1.386 . S
C160 C162 1.383 . S
C160 H176 0.951 . S
C161 C160 1.386 . S
C161 C165 1.383 . S
C162 C160 1.383 . S
C162 C163 1.402 . S
C162 H177 0.951 . S
C163 C162 1.402 . S
C163 C164 1.375 . S
C163 C166 1.481 . S
C164 C163 1.375 . S
C164 C165 1.367 . S
C164 H178 0.951 . S
C165 C161 1.383 . S
C165 C164 1.367 . S
C165 H179 0.950 . S
C166 C163 1.481 . S
C166 C167 1.297 . S
C166 H180 0.950 . S
C167 C166 1.297 . S
C167 C168 1.479 . S
C167 H181 0.950 . S
C168 C167 1.479 . S
C168 C169 1.375 . S
C168 C174 1.404 . S
C169 C168 1.375 . S
C169 C170 1.369 . S
C169 H182 0.950 . S
C170 C169 1.369 . S
C170 C171 1.392 . S
C170 H183 0.951 . S
C171 C170 1.392 . S
C171 C173 1.384 . S
H172 C174 0.949 . S
C173 C171 1.384 . S
C173 C174 1.385 . S
C173 H175 0.950 . S
C174 C168 1.404 . S
C174 H172 0.949 . S
C174 C173 1.385 . S
H175 C173 0.950 . S
H176 C160 0.951 . S
H177 C162 0.951 . S
H178 C164 0.951 . S
H179 C165 0.950 . S
H180 C166 0.950 . S
H181 C167 0.950 . S
H182 C169 0.950 . S
H183 C170 0.951 . S
C184 C185 1.386 . S
C184 C186 1.383 . S
C184 H200 0.951 . S
C185 C184 1.386 . S
C185 C189 1.383 . S
C186 C184 1.383 . S
C186 C187 1.402 . S
C186 H201 0.951 . S
C187 C186 1.402 . S
C187 C188 1.375 1_554 S
C187 C190 1.481 1_554 S
C188 C187 1.375 1_556 S
C188 C189 1.367 1_556 S
C188 H202 0.951 . S
C189 C185 1.383 . S
C189 C188 1.367 1_554 S
C189 H203 0.950 . S
C190 C187 1.481 1_556 S
C190 C191 1.297 . S
C190 H204 0.950 . S
C191 C190 1.297 . S
C191 C192 1.479 . S
C191 H205 0.950 1_556 S
C192 C191 1.479 . S
C192 C193 1.375 . S
C192 C198 1.404 . S
C193 C192 1.375 . S
C193 C194 1.369 . S
C193 H206 0.950 1_556 S
C194 C193 1.369 . S
C194 C195 1.392 . S
C194 H207 0.951 . S
C195 C194 1.392 . S
C195 C197 1.384 . S
H196 C198 0.949 . S
C197 C195 1.384 . S
C197 C198 1.385 . S
C197 H199 0.950 . S
C198 C192 1.404 . S
C198 H196 0.949 . S
C198 C197 1.385 . S
H199 C197 0.950 . S
H200 C184 0.951 . S
H201 C186 0.951 . S
H202 C188 0.951 . S
H203 C189 0.950 . S
H204 C190 0.950 . S
H205 C191 0.950 1_554 S
H206 C193 0.950 1_554 S
H207 C194 0.951 . S
C208 C209 1.386 . S
C208 C210 1.383 . S
C208 H224 0.951 . S
C209 C208 1.386 . S
C209 C213 1.383 . S
C210 C208 1.383 . S
C210 C211 1.402 . S
C210 H225 0.951 . S
C211 C210 1.402 . S
C211 C212 1.375 . S
C211 C214 1.481 . S
C212 C211 1.375 . S
C212 C213 1.367 . S
C212 H226 0.951 . S
C213 C209 1.383 . S
C213 C212 1.367 . S
C213 H227 0.950 . S
C214 C211 1.481 . S
C214 C215 1.297 . S
C214 H228 0.950 . S
C215 C214 1.297 . S
C215 C216 1.479 . S
C215 H229 0.950 . S
C216 C215 1.479 . S
C216 C217 1.375 . S
C216 C222 1.404 . S
C217 C216 1.375 . S
C217 C218 1.369 . S
C217 H230 0.950 . S
C218 C217 1.369 . S
C218 C219 1.392 . S
C218 H231 0.951 . S
C219 C218 1.392 . S
C219 C221 1.384 . S
H220 C222 0.949 . S
C221 C219 1.384 . S
C221 C222 1.385 . S
C221 H223 0.950 . S
C222 C216 1.404 . S
C222 H220 0.949 . S
C222 C221 1.385 . S
H223 C221 0.950 . S
H224 C208 0.951 . S
H225 C210 0.951 . S
H226 C212 0.951 . S
H227 C213 0.950 . S
H228 C214 0.950 . S
H229 C215 0.950 . S
H230 C217 0.950 . S
H231 C218 0.951 . S
C232 C233 1.386 . S
C232 C234 1.383 . S
C232 H248 0.951 . S
C233 C232 1.386 . S
C233 C237 1.383 . S
C234 C232 1.383 . S
C234 C235 1.402 . S
C234 H249 0.951 . S
C235 C234 1.402 . S
C235 C236 1.375 . S
C235 C238 1.481 . S
C236 C235 1.375 . S
C236 C237 1.367 . S
C236 H250 0.951 . S
C237 C233 1.383 . S
C237 C236 1.367 . S
C237 H251 0.950 . S
C238 C235 1.481 . S
C238 C239 1.297 . S
C238 H252 0.950 . S
C239 C238 1.297 . S
C239 C240 1.479 . S
C239 H253 0.950 . S
C240 C239 1.479 . S
C240 C241 1.375 . S
C240 C246 1.404 . S
C241 C240 1.375 . S
C241 C242 1.369 . S
C241 H254 0.950 . S
C242 C241 1.369 . S
C242 C243 1.392 . S
C242 H255 0.951 . S
C243 C242 1.392 . S
C243 C245 1.384 . S
H244 C246 0.949 . S
C245 C243 1.384 . S
C245 C246 1.385 . S
C245 H247 0.950 . S
C246 C240 1.404 . S
C246 H244 0.949 . S
C246 C245 1.385 . S
H247 C245 0.950 . S
H248 C232 0.951 . S
H249 C234 0.951 . S
H250 C236 0.951 . S
H251 C237 0.950 . S
H252 C238 0.950 . S
H253 C239 0.950 . S
H254 C241 0.950 . S
H255 C242 0.951 . S
C256 C257 1.386 . S
C256 C258 1.383 . S
C256 H272 0.951 . S
C257 C256 1.386 . S
C257 C261 1.383 . S
C258 C256 1.383 . S
C258 C259 1.402 . S
C258 H273 0.951 . S
C259 C258 1.402 . S
C259 C260 1.375 . S
C259 C262 1.481 . S
C260 C259 1.375 . S
C260 C261 1.367 . S
C260 H274 0.951 . S
C261 C257 1.383 . S
C261 C260 1.367 . S
C261 H275 0.950 . S
C262 C259 1.481 . S
C262 C263 1.297 . S
C262 H276 0.950 . S
C263 C262 1.297 . S
C263 C264 1.479 . S
C263 H277 0.950 . S
C264 C263 1.479 . S
C264 C265 1.375 . S
C264 C270 1.404 . S
C265 C264 1.375 . S
C265 C266 1.369 . S
C265 H278 0.950 . S
C266 C265 1.369 . S
C266 C267 1.392 . S
C266 H279 0.951 . S
C267 C266 1.392 . S
C267 C269 1.384 . S
H268 C270 0.949 . S
C269 C267 1.384 . S
C269 C270 1.385 . S
C269 H271 0.950 . S
C270 C264 1.404 . S
C270 H268 0.949 . S
C270 C269 1.385 . S
H271 C269 0.950 . S
H272 C256 0.951 . S
H273 C258 0.951 . S
H274 C260 0.951 . S
H275 C261 0.950 . S
H276 C262 0.950 . S
H277 C263 0.950 . S
H278 C265 0.950 . S
H279 C266 0.951 . S
C280 C281 1.386 . S
C280 C282 1.383 . S
C280 H296 0.951 . S
C281 C280 1.386 . S
C281 C285 1.383 . S
C282 C280 1.383 . S
C282 C283 1.402 . S
C282 H297 0.951 . S
C283 C282 1.402 . S
C283 C284 1.375 . S
C283 C286 1.481 . S
C284 C283 1.375 . S
C284 C285 1.367 . S
C284 H298 0.951 . S
C285 C281 1.383 . S
C285 C284 1.367 . S
C285 H299 0.950 . S
C286 C283 1.481 . S
C286 C287 1.297 1_565 S
C286 H300 0.950 . S
C287 C286 1.297 1_545 S
C287 C288 1.479 1_556 S
C287 H301 0.950 . S
C288 C287 1.479 1_554 S
C288 C289 1.375 . S
C288 C294 1.404 . S
C289 C288 1.375 . S
C289 C290 1.369 . S
C289 H302 0.950 . S
C290 C289 1.369 . S
C290 C291 1.392 . S
C290 H303 0.951 . S
C291 C290 1.392 . S
C291 C293 1.384 . S
H292 C294 0.949 . S
C293 C291 1.384 . S
C293 C294 1.385 . S
C293 H295 0.950 . S
C294 C288 1.404 . S
C294 H292 0.949 . S
C294 C293 1.385 . S
H295 C293 0.950 . S
H296 C280 0.951 . S
H297 C282 0.951 . S
H298 C284 0.951 . S
H299 C285 0.950 . S
H300 C286 0.950 . S
H301 C287 0.950 . S
H302 C289 0.950 . S
H303 C290 0.951 . S
C304 C305 1.386 1_655 S
C304 C306 1.381 1_655 S
C304 H320 0.951 . S
C305 C304 1.386 1_455 S
C305 C309 1.383 . S
C306 C304 1.381 1_455 S
C306 C307 1.411 . S
C306 H321 0.943 1_455 S
C307 C306 1.411 . S
C307 C308 1.375 . S
C307 C310 1.481 . S
C308 C307 1.375 . S
C308 C309 1.367 . S
C308 H322 0.951 . S
C309 C305 1.383 . S
C309 C308 1.367 . S
C309 H323 0.950 . S
C310 C307 1.481 . S
C310 C311 1.297 1_565 S
C310 H324 0.950 . S
C311 C310 1.297 1_545 S
C311 C312 1.479 . S
C311 H325 0.950 . S
C312 C311 1.479 . S
C312 C313 1.375 . S
C312 C318 1.404 . S
C313 C312 1.375 . S
C313 C314 1.369 1_455 S
C313 H326 0.950 1_455 S
C314 C313 1.369 1_655 S
C314 C315 1.392 1_655 S
C314 H327 0.951 . S
C315 C314 1.392 1_455 S
C315 C317 1.384 . S
H316 C318 0.949 . S
C317 C315 1.384 . S
C317 C318 1.385 . S
C317 H319 0.950 . S
C318 C312 1.404 . S
C318 H316 0.949 . S
C318 C317 1.385 . S
H319 C317 0.950 . S
H320 C304 0.951 . S
H321 C306 0.943 1_655 S
H322 C308 0.951 . S
H323 C309 0.950 . S
H324 C310 0.950 . S
H325 C311 0.950 . S
H326 C313 0.950 1_655 S
H327 C314 0.951 . S
C328 C329 1.386 1_655 S
C328 C330 1.383 1_554 S
C328 H344 0.951 . S
C329 C328 1.386 1_455 S
C329 C333 1.383 . S
C330 C328 1.383 1_556 S
C330 C331 1.402 1_655 S
C330 H345 0.951 . S
C331 C330 1.402 1_455 S
C331 C332 1.375 . S
C331 C334 1.481 . S
C332 C331 1.375 . S
C332 C333 1.367 1_556 S
C332 H346 0.951 . S
C333 C329 1.383 . S
C333 C332 1.367 1_554 S
C333 H347 0.950 . S
C334 C331 1.481 . S
C334 C335 1.297 1_455 S
C334 H348 0.950 . S
C335 C334 1.297 1_655 S
C335 C336 1.479 . S
C335 H349 0.950 . S
C336 C335 1.479 . S
C336 C337 1.375 . S
C336 C342 1.404 1_655 S
C337 C336 1.375 . S
C337 C338 1.369 . S
C337 H350 0.950 . S
C338 C337 1.369 . S
C338 C339 1.392 1_655 S
C338 H351 0.951 . S
C339 C338 1.392 1_455 S
C339 C341 1.384 . S
H340 C342 0.949 . S
C341 C339 1.384 . S
C341 C342 1.385 . S
C341 H343 0.950 . S
C342 C336 1.404 1_455 S
C342 H340 0.949 . S
C342 C341 1.385 . S
H343 C341 0.950 . S
H344 C328 0.951 . S
H345 C330 0.951 . S
H346 C332 0.951 . S
H347 C333 0.950 . S
H348 C334 0.950 . S
H349 C335 0.950 . S
H350 C337 0.950 . S
H351 C338 0.951 . S
C352 C353 1.386 . S
C352 C354 1.383 1_556 S
C352 H368 0.951 . S
C353 C352 1.386 . S
C353 C357 1.383 1_455 S
C354 C352 1.383 1_554 S
C354 C355 1.394 1_455 S
C354 H369 0.951 . S
C355 C354 1.394 1_655 S
C355 C356 1.382 . S
C355 C358 1.482 . S
C356 C355 1.382 . S
C356 C357 1.367 1_554 S
C356 H370 0.951 . S
C357 C353 1.383 1_655 S
C357 C356 1.367 1_556 S
C357 H371 0.950 . S
C358 C355 1.482 . S
C358 C359 1.297 1_655 S
C358 H372 0.950 . S
C359 C358 1.297 1_455 S
C359 C360 1.479 . S
C359 H373 0.950 . S
C360 C359 1.479 . S
C360 C361 1.375 . S
C360 C366 1.404 1_455 S
C361 C360 1.375 . S
C361 C362 1.369 . S
C361 H374 0.950 . S
C362 C361 1.369 . S
C362 C363 1.392 . S
C362 H375 0.951 . S
C363 C362 1.392 . S
C363 C365 1.384 1_455 S
H364 C366 0.949 . S
C365 C363 1.384 1_655 S
C365 C366 1.385 . S
C365 H367 0.950 . S
C366 C360 1.404 1_655 S
C366 H364 0.949 . S
C366 C365 1.385 . S
H367 C365 0.950 . S
H368 C352 0.951 . S
H369 C354 0.951 . S
H370 C356 0.951 . S
H371 C357 0.950 . S
H372 C358 0.950 . S
H373 C359 0.950 . S
H374 C361 0.950 . S
H375 C362 0.951 . S
C376 C377 1.386 . S
C376 C378 1.383 . S
C376 H392 0.951 . S
C377 C376 1.386 . S
C377 C381 1.383 . S
C378 C376 1.383 . S
C378 C379 1.402 . S
C378 H393 0.951 . S
C379 C378 1.402 . S
C379 C380 1.375 . S
C379 C382 1.481 . S
C380 C379 1.375 . S
C380 C381 1.367 . S
C380 H394 0.951 . S
C381 C377 1.383 . S
C381 C380 1.367 . S
C381 H395 0.950 . S
C382 C379 1.481 . S
C382 C383 1.297 . S
C382 H396 0.950 . S
C383 C382 1.297 . S
C383 C384 1.479 . S
C383 H397 0.950 . S
C384 C383 1.479 . S
C384 C385 1.375 . S
C384 C390 1.404 . S
C385 C384 1.375 . S
C385 C386 1.369 . S
C385 H398 0.950 . S
C386 C385 1.369 . S
C386 C387 1.392 . S
C386 H399 0.951 . S
C387 C386 1.392 . S
C387 C389 1.384 . S
H388 C390 0.949 . S
C389 C387 1.384 . S
C389 C390 1.385 . S
C389 H391 0.950 . S
C390 C384 1.404 . S
C390 H388 0.949 . S
C390 C389 1.385 . S
H391 C389 0.950 . S
H392 C376 0.951 . S
H393 C378 0.951 . S
H394 C380 0.951 . S
H395 C381 0.950 . S
H396 C382 0.950 . S
H397 C383 0.950 . S
H398 C385 0.950 . S
H399 C386 0.951 . S
C400 C401 1.386 . S
C400 C402 1.383 . S
C400 H416 0.951 . S
C401 C400 1.386 . S
C401 C405 1.383 . S
C402 C400 1.383 . S
C402 C403 1.402 . S
C402 H417 0.951 . S
C403 C402 1.402 . S
C403 C404 1.375 . S
C403 C406 1.481 . S
C404 C403 1.375 . S
C404 C405 1.367 . S
C404 H418 0.951 . S
C405 C401 1.383 . S
C405 C404 1.367 . S
C405 H419 0.950 . S
C406 C403 1.481 . S
C406 C407 1.297 . S
C406 H420 0.950 . S
C407 C406 1.297 . S
C407 C408 1.479 . S
C407 H421 0.950 . S
C408 C407 1.479 . S
C408 C409 1.375 . S
C408 C414 1.404 . S
C409 C408 1.375 . S
C409 C410 1.369 . S
C409 H422 0.950 . S
C410 C409 1.369 . S
C410 C411 1.392 . S
C410 H423 0.951 . S
C411 C410 1.392 . S
C411 C413 1.384 . S
H412 C414 0.949 . S
C413 C411 1.384 . S
C413 C414 1.385 . S
C413 H415 0.950 . S
C414 C408 1.404 . S
C414 H412 0.949 . S
C414 C413 1.385 . S
H415 C413 0.950 . S
H416 C400 0.951 . S
H417 C402 0.951 . S
H418 C404 0.951 . S
H419 C405 0.950 . S
H420 C406 0.950 . S
H421 C407 0.950 . S
H422 C409 0.950 . S
H423 C410 0.951 . S
C137 C17 1.978 . S
C147 C42 1.920 . S
C161 C68 2.114 . S
C171 C63 2.078 . S
C185 C119 2.027 . S
C195 C76 2.050 . S
C209 C29 1.911 . S
C219 C102 1.897 . S
C233 C131 2.096 . S
C243 C0 2.125 . S
C257 C97 1.897 . S
C267 C34 1.857 . S
C281 C85 1.976 . S
C291 C110 1.914 . S
C305 C51 2.033 . S
C315 C8 2.027 . S
C329 C4 0.532 . S
C339 C13 0.552 . S
C353 C47 0.533 . S
C363 C38 0.551 . S
C377 C81 0.537 . S
C387 C72 0.544 . S
C401 C115 0.544 . S
C411 C106 0.519 . S
