# Generated by pormake.
# Topology dmp, (4)-cn, num edge types: 1
# Building blocks:
#     Node 0, Type 0, BuildingBlock: ESEHIV_clean_sbu_0, # of connection points: 4
#     Node 1, Type 0, BuildingBlock: ESEHIV_clean_sbu_0, # of connection points: 4
#     Node 2, Type 0, BuildingBlock: ESEHIV_clean_sbu_0, # of connection points: 4
#     Node 3, Type 0, BuildingBlock: ESEHIV_clean_sbu_0, # of connection points: 4
#     Edge 4, Type (0, 0), BuildingBlock: MIFKUJ_clean_linker_0, # of connection points: 2
#     Edge 5, Type (0, 0), BuildingBlock: MIFKUJ_clean_linker_0, # of connection points: 2
#     Edge 6, Type (0, 0), BuildingBlock: MIFKUJ_clean_linker_0, # of connection points: 2
#     Edge 7, Type (0, 0), BuildingBlock: MIFKUJ_clean_linker_0, # of connection points: 2
#     Edge 8, Type (0, 0), BuildingBlock: MIFKUJ_clean_linker_0, # of connection points: 2
#     Edge 9, Type (0, 0), BuildingBlock: MIFKUJ_clean_linker_0, # of connection points: 2
#     Edge 10, Type (0, 0), BuildingBlock: MIFKUJ_clean_linker_0, # of connection points: 2
#     Edge 11, Type (0, 0), BuildingBlock: MIFKUJ_clean_linker_0, # of connection points: 2
# Relax obj value: 0.000
# Max RMSD: 0.012
# Mean RMSD: 0.012
data_MOF--net-dmp--node1-ESEHIV_clean_sbu_0--edge1-MIFKUJ_clean_linker_0
_symmetry_space_group_name_H-M    P1
_symmetry_Int_Tables_number       1
_symmetry_cell_setting            triclinic
loop_
_symmetry_equiv_pos_as_xyz
'x, y, z'
_cell_length_a     50.043045
_cell_length_b     31.491801
_cell_length_c     7.3850966
_cell_angle_alpha  89.855592
_cell_angle_beta   89.920709
_cell_angle_gamma 97.575937
loop_
_atom_site_label
_atom_site_type_symbol
_atom_site_fract_x
_atom_site_fract_y
_atom_site_fract_z
_atom_type_partial_charge
Cu0 Cu 0.14845 0.27921 0.26317 0.0
N1 N 0.17467 0.25881 0.11519 0.0
N2 N 0.20283 0.21317 0.02361 0.0
C3 C 0.17979 0.21773 0.11308 0.0
C4 C 0.21247 0.25298 0.96556 0.0
C5 C 0.19511 0.28101 0.02215 0.0
O6 O 0.12041 0.22968 0.30174 0.0
C7 C 0.19151 0.30927 0.50895 0.0
O8 O 0.20517 0.28082 0.4359 0.0
H9 H 0.16786 0.19221 0.18721 0.0
H10 H 0.19821 0.31546 0.00689 0.0
N11 N 0.13271 0.32502 0.1629 0.0
N12 N 0.10917 0.38097 0.16845 0.0
C13 C 0.11271 0.34296 0.24379 0.0
C14 C 0.14212 0.35271 0.03119 0.0
C15 C 0.12763 0.38719 0.03431 0.0
C16 C 0.10093 0.22317 0.18887 0.0
O17 O 0.09884 0.2518 0.0619 0.0
H18 H 0.10217 0.32972 0.3635 0.0
H19 H 0.15918 0.34935 0.94515 0.0
O20 O 0.16629 0.307 0.47706 0.0
H21 H 0.23123 0.26152 0.89306 0.0
H22 H 0.13084 0.41512 0.94735 0.0
Cu23 Cu 0.38539 0.76002 0.21817 0.0
N24 N 0.35942 0.78244 0.07431 0.0
N25 N 0.33252 0.83023 0.98437 0.0
C26 C 0.35397 0.82323 0.08606 0.0
C27 C 0.32424 0.7922 0.9044 0.0
C28 C 0.34084 0.76283 0.96 0.0
O29 O 0.41402 0.80826 0.25418 0.0
C30 C 0.34252 0.72584 0.45565 0.0
O31 O 0.32829 0.75252 0.37508 0.0
H32 H 0.36477 0.84675 0.17514 0.0
H33 H 0.33873 0.72922 0.92538 0.0
N34 N 0.40173 0.7159 0.11182 0.0
N35 N 0.42658 0.66153 0.11571 0.0
C36 C 0.42125 0.69787 0.19698 0.0
C37 C 0.39435 0.69009 0.97052 0.0
C38 C 0.40968 0.65655 0.97244 0.0
C39 C 0.4252 0.82166 0.10513 0.0
O40 O 0.41732 0.80101 0.95604 0.0
H41 H 0.43002 0.70975 0.32396 0.0
H42 H 0.37814 0.69405 0.87811 0.0
O43 O 0.36797 0.7303 0.43041 0.0
H44 H 0.30712 0.78576 0.81457 0.0
H45 H 0.40795 0.63004 0.87854 0.0
Cu46 Cu 0.88736 0.76938 0.72699 0.0
N47 N 0.86266 0.79088 0.88417 0.0
N48 N 0.83478 0.83688 0.97783 0.0
C49 C 0.85664 0.83144 0.87665 0.0
C50 C 0.82694 0.79813 0.05377 0.0
C51 C 0.84405 0.76987 -0.00456 0.0
O52 O 0.91441 0.81918 0.67157 0.0
C53 C 0.84182 0.73932 0.50239 0.0
O54 O 0.82995 0.76974 0.57668 0.0
H55 H 0.86692 0.85564 0.78756 0.0
H56 H 0.84188 0.73588 0.02309 0.0
N57 N 0.90496 0.72524 0.82509 0.0
N58 N 0.93013 0.67128 0.81876 0.0
C59 C 0.9251 0.7083 0.74094 0.0
C60 C 0.89708 0.69799 0.96162 0.0
C61 C 0.91253 0.66471 0.95783 0.0
C62 C 0.93383 0.82789 0.78373 0.0
O63 O 0.93615 0.80133 0.91835 0.0
H64 H 0.93467 0.72141 0.61774 0.0
H65 H 0.88041 0.70076 0.05192 0.0
O66 O 0.86709 0.7394 0.52634 0.0
H67 H 0.8095 0.79023 0.14025 0.0
H68 H 0.91053 0.63726 0.04772 0.0
Cu69 Cu 0.64412 0.28117 0.76003 0.0
N70 N 0.67062 0.25958 0.90269 0.0
N71 N 0.69842 0.21292 0.98911 0.0
C72 C 0.67746 0.21974 0.88285 0.0
C73 C 0.70505 0.24985 0.08049 0.0
C74 C 0.68774 0.27845 0.02825 0.0
O75 O 0.61682 0.23122 0.72072 0.0
C76 C 0.67896 0.34359 0.59489 0.0
O77 O 0.68339 0.35107 0.76755 0.0
H78 H 0.66782 0.19664 0.78713 0.0
H79 H 0.68812 0.31095 0.07593 0.0
N80 N 0.62592 0.32322 0.86778 0.0
N81 N 0.59881 0.37459 0.87026 0.0
C82 C 0.60665 0.34116 0.77945 0.0
C83 C 0.63047 0.34599 0.02132 0.0
C84 C 0.61378 0.37778 0.02299 0.0
C85 C 0.60617 0.21663 0.86971 0.0
O86 O 0.61365 0.23729 0.01948 0.0
H87 H 0.59959 0.33121 0.6457 0.0
H88 H 0.64548 0.34098 0.12152 0.0
O89 O 0.66195 0.31145 0.54946 0.0
H90 H 0.72133 0.25579 0.17737 0.0
H91 H 0.61308 0.40174 0.12702 0.0
H92 H 0.27961 0.83697 0.92657 0.0
H93 H 0.25811 0.90218 0.92511 0.0
H94 H 0.33515 0.97755 0.02206 0.0
H95 H 0.35665 0.91212 0.02665 0.0
H96 H 0.30037 1.00645 0.22593 0.0
H97 H 0.30026 0.96821 0.60267 0.0
H98 H 0.29104 0.91857 0.3471 0.0
H99 H 0.20591 0.91433 0.43508 0.0
H100 H 0.21462 0.96173 0.6994 0.0
H101 H 0.25657 0.20839 0.03245 0.0
H102 H 0.27872 0.14359 0.02531 0.0
H103 H 0.20123 0.0661 0.98486 0.0
H104 H 0.17897 0.13104 -0.00575 0.0
H105 H 0.23657 0.03927 0.74849 0.0
H106 H 0.23737 0.07746 0.3747 0.0
H107 H 0.24709 0.1277 0.62762 0.0
H108 H 0.33201 0.1334 0.52668 0.0
H109 H 0.32273 0.08514 0.26547 0.0
C110 C 0.29206 0.86742 0.94523 0.0
C111 C 0.31993 0.86913 0.97612 0.0
C112 C 0.27972 0.9049 0.94411 0.0
C113 C 0.29493 0.94529 0.97102 0.0
C114 C 0.32282 0.94703 0.00119 0.0
C115 C 0.33514 0.90949 0.004 0.0
C116 C 0.28169 0.98541 0.97337 0.0
C117 C 0.2867 1.01377 0.11996 0.0
C118 C 0.26343 0.99511 0.83687 0.0
C119 C 0.25813 0.96812 0.67288 0.0
C120 C 0.27956 0.95638 0.56896 0.0
C121 C 0.27442 0.9285 0.42263 0.0
C122 C 0.24789 0.91341 0.37427 0.0
C123 C 0.22645 0.92603 0.47276 0.0
C124 C 0.23149 0.95315 0.62183 0.0
C125 C 0.24425 0.17759 0.02077 0.0
C126 C 0.21597 0.17493 0.01342 0.0
C127 C 0.25693 0.14046 0.01815 0.0
C128 C 0.24172 0.0997 0.00522 0.0
C129 C 0.21349 0.09703 -0.0051 0.0
C130 C 0.20075 0.13415 0.00092 0.0
C131 C 0.25525 0.06 0.0009 0.0
C132 C 0.25028 0.03182 0.85401 0.0
C133 C 0.27366 0.05058 0.13642 0.0
C134 C 0.27931 0.07815 0.29836 0.0
C135 C 0.25812 0.08977 0.40489 0.0
C136 C 0.26356 0.11798 0.5498 0.0
C137 C 0.29017 0.1337 0.5936 0.0
C138 C 0.3114 0.12124 0.49239 0.0
C139 C 0.30605 0.09368 0.34505 0.0
H140 H 0.29438 0.15566 0.70544 0.0
H141 H 0.24392 0.89181 0.26098 0.0
H142 H 0.17215 0.38547 0.57546 0.0
H143 H 0.19862 0.45558 0.6179 0.0
H144 H 0.27154 0.39662 0.63924 0.0
H145 H 0.24517 0.32616 0.59638 0.0
H146 H 0.27525 0.46619 0.86534 0.0
H147 H 0.25094 0.43542 0.24604 0.0
H148 H 0.21765 0.41134 0.01016 0.0
H149 H 0.17617 0.51978 0.11421 0.0
H150 H 0.20868 0.54366 0.35601 0.0
H151 H 0.36399 0.65309 0.55912 0.0
H152 H 0.33929 0.58192 0.61608 0.0
H153 H 0.264 0.63385 0.57173 0.0
H154 H 0.28847 0.70476 0.51351 0.0
H155 H 0.26299 0.56623 0.36093 0.0
H156 H 0.28911 0.59763 0.98043 0.0
H157 H 0.32377 0.62147 0.20692 0.0
H158 H 0.36391 0.51205 0.09337 0.0
H159 H 0.32992 0.4884 0.86008 0.0
C160 C 0.19374 0.38711 0.59372 0.0
C161 C 0.20651 0.35 0.57957 0.0
C162 C 0.20892 0.42742 0.61695 0.0
C163 C 0.23723 0.43171 0.62809 0.0
C164 C 0.2498 0.39437 0.63003 0.0
C165 C 0.23464 0.354 0.60523 0.0
C166 C 0.25367 0.47502 0.61863 0.0
C167 C 0.27269 0.48796 0.75456 0.0
C168 C 0.25051 0.50368 0.47411 0.0
C169 C 0.23209 0.4911 0.32038 0.0
C170 C 0.2347 0.45411 0.21886 0.0
C171 C 0.21592 0.44043 0.08441 0.0
C172 C 0.19481 0.46405 0.0471 0.0
C173 C 0.19253 0.50152 0.14346 0.0
C174 C 0.21109 0.51509 0.27959 0.0
C175 C 0.3422 0.64965 0.56637 0.0
C176 C 0.32828 0.68485 0.53036 0.0
C177 C 0.32802 0.60874 0.59879 0.0
C178 C 0.29963 0.60214 0.59713 0.0
C179 C 0.28584 0.63777 0.57168 0.0
C180 C 0.29993 0.67853 0.53954 0.0
C181 C 0.28411 0.55811 0.61022 0.0
C182 C 0.26544 0.54476 0.47304 0.0
C183 C 0.28783 0.52912 0.75262 0.0
C184 C 0.30708 0.54142 0.90188 0.0
C185 C 0.30532 0.57863 0.00369 0.0
C186 C 0.32489 0.59215 0.13323 0.0
C187 C 0.346 0.56818 0.16564 0.0
C188 C 0.34752 0.53054 0.06852 0.0
C189 C 0.32813 0.51711 0.9372 0.0
H190 H 0.36121 0.57883 0.26554 0.0
H191 H 0.18019 0.45332 0.94376 0.0
H192 H 0.67501 0.13042 -0.00712 0.0
H193 H 0.69782 0.06594 -0.00213 0.0
H194 H 0.77498 0.14518 -0.00517 0.0
H195 H 0.75212 0.20962 -0.00378 0.0
H196 H 0.77233 0.07911 0.74298 0.0
H197 H 0.75099 0.09631 0.37182 0.0
H198 H 0.71893 0.1065 0.61532 0.0
H199 H 0.67399 0.98392 0.49785 0.0
H200 H 0.70515 0.97392 0.24695 0.0
H201 H 0.85669 0.9199 0.9328 0.0
H202 H 0.83323 0.98319 0.93295 0.0
H203 H 0.75784 0.90318 0.03326 0.0
H204 H 0.78131 0.83991 0.03595 0.0
H205 H 0.7584 0.96953 0.22946 0.0
H206 H 0.7797 0.94989 0.60824 0.0
H207 H 0.81012 0.93985 0.35457 0.0
H208 H 0.85254 0.06581 0.43961 0.0
H209 H 0.82336 0.07568 0.70127 0.0
C210 C 0.69683 0.13395 -0.00596 0.0
C211 C 0.71182 0.17499 -0.00534 0.0
C212 C 0.70986 0.09714 -0.00269 0.0
C213 C 0.73819 0.10057 -0.00399 0.0
C214 C 0.75315 0.14161 -0.00484 0.0
C215 C 0.74011 0.17841 -0.00299 0.0
C216 C 0.75223 0.06147 -0.00519 0.0
C217 C 0.76959 0.05537 0.85038 0.0
C218 C 0.74806 0.02979 0.13209 0.0
C219 C 0.73024 0.03459 0.28929 0.0
C220 C 0.73419 0.07161 0.39716 0.0
C221 C 0.71615 0.07736 0.53655 0.0
C222 C 0.69446 0.04578 0.57285 0.0
C223 C 0.69082 1.00833 0.46974 0.0
C224 C 0.7086 1.00269 0.32831 0.0
C225 C 0.8351 0.91571 0.954 0.0
C226 C 0.82097 0.87459 0.98391 0.0
C227 C 0.82161 0.95204 0.95325 0.0
C228 C 0.79352 0.9483 0.97997 0.0
C229 C 0.77945 0.90728 0.01225 0.0
C230 C 0.79297 0.87096 0.01448 0.0
C231 C 0.77891 0.98703 0.97778 0.0
C232 C 0.76131 0.9931 0.12149 0.0
C233 C 0.78266 1.01847 0.83839 0.0
C234 C 0.79953 1.01327 0.67636 0.0
C235 C 0.79566 0.97533 0.57412 0.0
C236 C 0.81273 0.96964 0.42891 0.0
C237 C 0.83321 1.00223 0.38047 0.0
C238 C 0.83668 0.04057 0.47742 0.0
C239 C 0.81998 0.04612 0.62504 0.0
H240 H 0.84648 0.99778 0.26833 0.0
H241 H 0.68039 0.05035 0.68018 0.0
H242 H 0.7871 0.7264 0.4566 0.0
H243 H 0.75842 0.6585 0.41099 0.0
H244 H 0.82878 0.59401 0.35518 0.0
H245 H 0.85779 0.66216 0.40095 0.0
H246 H 0.7901 0.55884 0.13096 0.0
H247 H 0.79443 0.59862 0.75509 0.0
H248 H 0.79075 0.64848 0.00707 0.0
H249 H 0.70568 0.64256 0.91326 0.0
H250 H 0.70912 0.59458 0.65337 0.0
H251 H 0.7278 0.35012 0.42735 0.0
H252 H 0.75444 0.41789 0.33912 0.0
H253 H 0.68448 0.48285 0.41111 0.0
H254 H 0.65801 0.41502 0.49928 0.0
H255 H 0.72326 0.51792 0.61787 0.0
H256 H 0.71892 0.47502 -0.00218 0.0
H257 H 0.72323 0.42424 0.7521 0.0
H258 H 0.80854 0.43386 0.8431 0.0
H259 H 0.80451 0.48313 0.09773 0.0
C260 C 0.7966 0.69801 0.43143 0.0
C261 C 0.82486 0.69989 0.4352 0.0
C262 C 0.78008 0.65898 0.4063 0.0
C263 C 0.7913 0.62067 0.38389 0.0
C264 C 0.81953 0.6229 0.37376 0.0
C265 C 0.83614 0.66204 0.39962 0.0
C266 C 0.77361 0.57832 0.38201 0.0
C267 C 0.77559 0.54979 0.23798 0.0
C268 C 0.75444 0.56628 0.52088 0.0
C269 C 0.75213 0.59348 0.6827 0.0
C270 C 0.77497 0.60823 0.78696 0.0
C271 C 0.77293 0.63627 0.93109 0.0
C272 C 0.74798 0.64867 0.97638 0.0
C273 C 0.72501 0.633 0.87771 0.0
C274 C 0.72702 0.6056 0.73116 0.0
C275 C 0.71777 0.37841 0.41367 0.0
C276 C 0.6907 0.37712 0.46685 0.0
C277 C 0.73309 0.41742 0.36482 0.0
C278 C 0.72171 0.456 0.37054 0.0
C279 C 0.69395 0.45384 0.40712 0.0
C280 C 0.67864 0.41485 0.45466 0.0
C281 C 0.73917 0.49864 0.36427 0.0
C282 C 0.73743 0.52709 0.50893 0.0
C283 C 0.75861 0.51034 0.22671 0.0
C284 C 0.76133 0.48235 0.06863 0.0
C285 C 0.73859 0.46606 0.96677 0.0
C286 C 0.74099 0.43745 0.8257 0.0
C287 C 0.76617 0.42579 0.78114 0.0
C288 C 0.78903 0.44286 0.87783 0.0
C289 C 0.78667 0.47097 0.02136 0.0
H290 H 0.76799 0.40343 0.67227 0.0
H291 H 0.74642 0.67054 0.08739 0.0
H292 H 0.04846 0.21172 0.08491 0.0
H293 H 0.01985 0.14421 0.02201 0.0
H294 H 0.08349 0.07389 0.19725 0.0
H295 H 0.11209 0.14176 0.26552 0.0
H296 H 0.06136 0.05141 0.84049 0.0
H297 H 0.03272 0.06953 0.4453 0.0
H298 H 1.01496 0.1046 0.7085 0.0
H299 H 0.94047 0.11089 0.42898 0.0
H300 H 0.95802 0.07696 0.16114 0.0
H301 H 0.98676 0.84122 0.87314 0.0
H302 H 1.01479 0.90962 0.92855 0.0
H303 H 0.94928 0.97714 0.76402 0.0
H304 H 0.92122 0.90829 0.70344 0.0
H305 H 0.97198 1.00171 0.11185 0.0
H306 H 1.00016 0.98317 0.5087 0.0
H307 H 0.01764 0.94811 0.24456 0.0
H308 H 0.09272 0.94302 0.51827 0.0
H309 H 0.07545 0.97689 0.7872 0.0
C310 C 0.05617 0.18187 0.11407 0.0
C311 C 0.08247 0.1821 0.18157 0.0
C312 C 0.0398 0.14327 0.07748 0.0
C313 C 0.04951 0.10389 0.10389 0.0
C314 C 0.07557 0.10388 0.17555 0.0
C315 C 0.09179 0.14264 0.21627 0.0
C316 C 0.0329 0.06322 0.04682 0.0
C317 C 0.04205 0.04004 0.90213 0.0
C318 C 1.00718 0.04938 0.12245 0.0
C319 C 0.99685 0.07104 0.28167 0.0
C320 C 1.01271 0.07896 0.43832 0.0
C321 C 1.00262 0.09845 0.58898 0.0
C322 C 0.97661 0.10989 0.58575 0.0
C323 C 0.96064 0.10201 0.43136 0.0
C324 C 0.97066 0.08267 0.2799 0.0
C325 C 0.97854 0.87065 0.84415 0.0
C326 C 0.95187 0.86935 0.78214 0.0
C327 C 0.99457 0.90977 0.87656 0.0
C328 C 0.98417 0.94863 0.85139 0.0
C329 C 0.95775 0.94757 0.78458 0.0
C330 C 0.94183 0.90827 0.74806 0.0
C331 C 1.00048 0.9898 0.90587 0.0
C332 C 0.99128 1.0131 0.05001 0.0
C333 C 0.02613 1.00379 0.82955 0.0
C334 C 0.03636 0.98227 0.66957 0.0
C335 C 0.02025 0.97403 0.5142 0.0
C336 C 0.03018 0.95454 0.36298 0.0
C337 C 0.05628 0.94345 0.36427 0.0
C338 C 0.07249 0.95166 0.51735 0.0
C339 C 0.06263 0.97097 0.66942 0.0
H340 H 0.06394 0.92851 0.24663 0.0
H341 H 0.96882 0.12483 0.70294 0.0
H342 H 0.58223 0.18139 0.17497 0.0
H343 H 0.55263 0.11445 0.21032 0.0
H344 H 0.55639 0.09219 0.63561 0.0
H345 H 0.5865 0.16006 0.59813 0.0
H346 H 0.50594 0.07136 0.76098 0.0
H347 H 0.59279 0.04069 0.94513 0.0
H348 H 0.63544 0.0507 0.11568 0.0
H349 H 0.59169 0.02918 0.61505 0.0
H350 H 0.54873 1.01989 0.44805 0.0
H351 H 0.45024 0.85484 0.79966 0.0
H352 H 0.48104 0.92053 0.76287 0.0
H353 H 0.47739 0.94417 0.33648 0.0
H354 H 0.446 0.8777 0.37536 0.0
H355 H 0.52812 0.96397 0.21038 0.0
H356 H 0.44138 0.99507 0.02735 0.0
H357 H 0.39865 0.98535 0.85797 0.0
H358 H 0.44213 1.00669 0.35747 0.0
H359 H 0.4852 1.01557 0.52339 0.0
C360 C 0.57692 0.16245 0.05498 0.0
C361 C 0.58704 0.1762 0.88336 0.0
C362 C 0.56 0.12382 0.07612 0.0
C363 C 0.55277 0.09744 0.92669 0.0
C364 C 0.56206 0.11156 0.75367 0.0
C365 C 0.57922 0.15044 0.73218 0.0
C366 C 0.53533 0.0555 0.95321 0.0
C367 C 0.51103 0.04756 0.85689 0.0
C368 C 0.54153 0.02483 0.08272 0.0
C369 C 0.56744 0.03003 0.1837 0.0
C370 C 0.59221 0.03843 0.09135 0.0
C371 C 0.61647 0.04396 0.18751 0.0
C372 C 0.61627 0.04074 0.37621 0.0
C373 C 0.59182 0.03177 0.46899 0.0
C374 C 0.5675 0.02636 0.37356 0.0
C375 C 0.45585 0.87381 0.91911 0.0
C376 C 0.4453 0.86096 0.09073 0.0
C377 C 0.47349 0.91168 0.8972 0.0
C378 C 0.48106 0.93817 0.04583 0.0
C379 C 0.47147 0.92475 0.21903 0.0
C380 C 0.45357 0.88667 0.24128 0.0
C381 C 0.49874 0.97983 0.01798 0.0
C382 C 0.52306 0.98773 0.11418 0.0
C383 C 0.49256 1.0105 0.88845 0.0
C384 C 0.4666 1.00547 0.78812 0.0
C385 C 0.44188 0.9973 0.88112 0.0
C386 C 0.41757 0.99195 0.7856 0.0
C387 C 0.41768 0.99522 0.59691 0.0
C388 C 0.44208 1.00403 0.50351 0.0
C389 C 0.46646 1.00921 0.59831 0.0
H390 H 0.39884 0.99107 0.52311 0.0
H391 H 0.63504 0.04511 0.45052 0.0
H392 H 0.98066 0.6936 0.68934 0.0
H393 H 1.01269 0.64551 0.59362 0.0
H394 H 0.95288 0.53651 0.70069 0.0
H395 H 0.92188 0.5846 0.81127 0.0
H396 H 0.99774 0.51523 0.79023 0.0
H397 H 0.97002 0.59131 0.26846 0.0
H398 H 0.9657 0.65933 0.11421 0.0
H399 H 0.05177 0.68756 0.07648 0.0
H400 H 0.05675 0.62166 0.24686 0.0
H401 H 0.05824 0.3605 0.29308 0.0
H402 H 0.02696 0.40979 0.38807 0.0
H403 H 0.08827 0.51701 0.28597 0.0
H404 H 0.11868 0.46773 0.17683 0.0
H405 H 0.04329 0.53974 0.19518 0.0
H406 H 0.0709 0.46325 0.71491 0.0
H407 H 0.07515 0.39491 0.86665 0.0
H408 H 0.98907 0.36712 0.90624 0.0
H409 H 0.98416 0.43343 0.73868 0.0
C410 C 0.97444 0.65935 0.69208 0.0
C411 C 0.9487 0.6429 0.7565 0.0
C412 C 0.99274 0.63175 0.6369 0.0
C413 C 0.98516 0.58702 0.63402 0.0
C414 C 0.95943 0.57069 0.70022 0.0
C415 C 0.94158 0.59822 0.76255 0.0
C416 C 1.00348 0.55714 0.5586 0.0
C417 C 1.00743 0.52049 0.65912 0.0
C418 C 0.01681 0.56404 0.38871 0.0
C419 C 1.01375 0.60175 0.2731 0.0
C420 C 0.98806 0.61208 0.22832 0.0
C421 C 0.9855 0.65046 0.13904 0.0
C422 C 1.00842 0.67762 0.08404 0.0
C423 C 0.03402 0.66656 0.11951 0.0
C424 C 0.03673 0.62894 0.21466 0.0
C425 C 0.06498 0.39461 0.29112 0.0
C426 C 0.09099 0.41019 0.22873 0.0
C427 C 0.0471 0.42289 0.34579 0.0
C428 C 0.05532 0.46743 0.35006 0.0
C429 C 0.08127 0.48296 0.28538 0.0
C430 C 0.09876 0.45475 0.22378 0.0
C431 C 0.0374 0.49778 0.42643 0.0
C432 C 0.03357 0.53452 0.32625 0.0
C433 C 0.02416 0.49095 0.59653 0.0
C434 C 0.02717 0.45313 0.71163 0.0
C435 C 0.05285 0.44253 0.75506 0.0
C436 C 0.05537 0.40394 0.84276 0.0
C437 C 0.03242 0.37679 0.89737 0.0
C438 C 1.00685 0.38812 0.86343 0.0
C439 C 1.00417 0.42597 0.76996 0.0
H440 H 0.03447 0.34699 0.96602 0.0
H441 H 1.00633 0.70722 0.01398 0.0
H442 H 0.42177 0.57503 0.07078 0.0
H443 H 0.451 0.52581 0.19635 0.0
H444 H 0.5007 0.63222 0.44368 0.0
H445 H 0.47208 0.6816 0.3135 0.0
H446 H 0.53158 0.57706 0.30136 0.0
H447 H 0.45383 0.56755 0.68938 0.0
H448 H 0.40508 0.5563 0.75685 0.0
H449 H 0.39946 0.42779 0.55524 0.0
H450 H 0.448 0.43851 0.48181 0.0
H451 H 0.60022 0.45969 0.93781 0.0
H452 H 0.57018 0.50802 0.81402 0.0
H453 H 0.52532 0.40218 0.53121 0.0
H454 H 0.55509 0.35372 0.65652 0.0
H455 H 0.49192 0.45658 0.6925 0.0
H456 H 0.57027 0.46695 0.30695 0.0
H457 H 0.61923 0.47855 0.24799 0.0
H458 H 0.62379 0.60668 0.45318 0.0
H459 H 0.575 0.59549 0.51869 0.0
C460 C 0.43918 0.58805 0.14899 0.0
C461 C 0.4445 0.63239 0.18179 0.0
C462 C 0.45574 0.55978 0.2228 0.0
C463 C 0.47794 0.57512 0.33201 0.0
C464 C 0.48369 0.61946 0.36074 0.0
C465 C 0.46715 0.64768 0.28719 0.0
C466 C 0.49491 0.54512 0.4193 0.0
C467 C 0.52289 0.55103 0.38841 0.0
C468 C 0.48366 0.51067 0.53137 0.0
C469 C 0.45453 0.50398 0.57824 0.0
C470 C 0.44217 0.53698 0.65805 0.0
C471 C 0.41459 0.53071 0.69757 0.0
C472 C 0.39922 0.49141 0.66046 0.0
C473 C 0.41139 0.45824 0.58379 0.0
C474 C 0.43893 0.4644 0.54299 0.0
C475 C 0.5837 0.44659 0.85189 0.0
C476 C 0.58013 0.4028 0.80701 0.0
C477 C 0.56665 0.47432 0.77982 0.0
C478 C 0.54557 0.45886 0.66174 0.0
C479 C 0.54143 0.41493 0.62157 0.0
C480 C 0.5586 0.3873 0.69231 0.0
C481 C 0.52851 0.48862 0.57451 0.0
C482 C 0.50054 0.48264 0.60539 0.0
C483 C 0.53977 0.52314 0.46317 0.0
C484 C 0.569 0.53023 0.41961 0.0
C485 C 0.58173 0.4975 0.34092 0.0
C486 C 0.60945 0.50399 0.30618 0.0
C487 C 0.62459 0.5433 0.34672 0.0
C488 C 0.61204 0.57623 0.42198 0.0
C489 C 0.58436 0.56981 0.45821 0.0
H490 H 0.64604 0.54824 0.3197 0.0
H491 H 0.37788 0.48664 0.69125 0.0
loop_
_geom_bond_atom_site_label_1
_geom_bond_atom_site_label_2
_geom_bond_distance
_geom_bond_site_symmetry_2
_ccdc_geom_bond_type
Cu0 N1 1.999 . S
Cu0 O6 1.974 . S
Cu0 N11 1.985 . S
Cu0 O20 1.959 . S
N1 Cu0 1.999 . S
N1 C3 1.263 . S
N1 C5 1.389 . S
N2 C3 1.358 . S
N2 C4 1.400 . S
C3 N1 1.263 . S
C3 N2 1.358 . S
C3 H9 0.930 . S
C4 N2 1.400 . S
C4 C5 1.351 . S
C4 H21 0.930 . S
C5 N1 1.389 . S
C5 C4 1.351 . S
C5 H10 0.930 . S
O6 Cu0 1.974 . S
O6 C16 1.282 . S
C7 O8 1.261 . S
C7 O20 1.251 . S
O8 C7 1.261 . S
H9 C3 0.930 . S
H10 C5 0.930 . S
N11 Cu0 1.985 . S
N11 C13 1.335 . S
N11 C14 1.390 . S
N12 C13 1.345 . S
N12 C15 1.336 . S
C13 N11 1.335 . S
C13 N12 1.345 . S
C13 H18 0.930 . S
C14 N11 1.390 . S
C14 C15 1.346 . S
C14 H19 0.930 . S
C15 N12 1.336 . S
C15 C14 1.346 . S
C15 H22 0.929 . S
C16 O6 1.282 . S
C16 O17 1.216 . S
O17 C16 1.216 . S
H18 C13 0.930 . S
H19 C14 0.930 . S
O20 Cu0 1.959 . S
O20 C7 1.251 . S
H21 C4 0.930 . S
H22 C15 0.929 . S
Cu23 N24 1.999 . S
Cu23 O29 1.974 . S
Cu23 N34 1.985 . S
Cu23 O43 1.959 . S
N24 Cu23 1.999 . S
N24 C26 1.263 . S
N24 C28 1.389 . S
N25 C26 1.358 . S
N25 C27 1.400 . S
C26 N24 1.263 . S
C26 N25 1.358 . S
C26 H32 0.930 . S
C27 N25 1.400 . S
C27 C28 1.351 . S
C27 H44 0.930 . S
C28 N24 1.389 . S
C28 C27 1.351 . S
C28 H33 0.930 . S
O29 Cu23 1.974 . S
O29 C39 1.282 . S
C30 O31 1.261 . S
C30 O43 1.251 . S
O31 C30 1.261 . S
H32 C26 0.930 . S
H33 C28 0.930 . S
N34 Cu23 1.985 . S
N34 C36 1.335 . S
N34 C37 1.390 . S
N35 C36 1.345 . S
N35 C38 1.336 . S
C36 N34 1.335 . S
C36 N35 1.345 . S
C36 H41 0.930 . S
C37 N34 1.390 . S
C37 C38 1.346 . S
C37 H42 0.930 . S
C38 N35 1.336 . S
C38 C37 1.346 . S
C38 H45 0.929 . S
C39 O29 1.282 . S
C39 O40 1.216 . S
O40 C39 1.216 . S
H41 C36 0.930 . S
H42 C37 0.930 . S
O43 Cu23 1.959 . S
O43 C30 1.251 . S
H44 C27 0.930 . S
H45 C38 0.929 . S
Cu46 N47 1.999 . S
Cu46 O52 1.974 . S
Cu46 N57 1.985 . S
Cu46 O66 1.959 . S
N47 Cu46 1.999 . S
N47 C49 1.263 . S
N47 C51 1.389 . S
N48 C49 1.358 . S
N48 C50 1.400 . S
C49 N47 1.263 . S
C49 N48 1.358 . S
C49 H55 0.930 . S
C50 N48 1.400 . S
C50 C51 1.351 . S
C50 H67 0.930 . S
C51 N47 1.389 . S
C51 C50 1.351 . S
C51 H56 0.930 . S
O52 Cu46 1.974 . S
O52 C62 1.282 . S
C53 O54 1.261 . S
C53 O66 1.251 . S
O54 C53 1.261 . S
H55 C49 0.930 . S
H56 C51 0.930 . S
N57 Cu46 1.985 . S
N57 C59 1.335 . S
N57 C60 1.390 . S
N58 C59 1.345 . S
N58 C61 1.336 . S
C59 N57 1.335 . S
C59 N58 1.345 . S
C59 H64 0.930 . S
C60 N57 1.390 . S
C60 C61 1.346 . S
C60 H65 0.930 . S
C61 N58 1.336 . S
C61 C60 1.346 . S
C61 H68 0.929 . S
C62 O52 1.282 . S
C62 O63 1.216 . S
O63 C62 1.216 . S
H64 C59 0.930 . S
H65 C60 0.930 . S
O66 Cu46 1.959 . S
O66 C53 1.251 . S
H67 C50 0.930 . S
H68 C61 0.929 . S
Cu69 N70 1.999 . S
Cu69 O75 1.974 . S
Cu69 N80 1.985 . S
Cu69 O89 1.959 . S
N70 Cu69 1.999 . S
N70 C72 1.263 . S
N70 C74 1.389 . S
N71 C72 1.358 . S
N71 C73 1.400 . S
C72 N70 1.263 . S
C72 N71 1.358 . S
C72 H78 0.930 . S
C73 N71 1.400 . S
C73 C74 1.351 . S
C73 H90 0.930 . S
C74 N70 1.389 . S
C74 C73 1.351 . S
C74 H79 0.930 . S
O75 Cu69 1.974 . S
O75 C85 1.282 . S
C76 O77 1.261 . S
C76 O89 1.251 . S
O77 C76 1.261 . S
H78 C72 0.930 . S
H79 C74 0.930 . S
N80 Cu69 1.985 . S
N80 C82 1.335 . S
N80 C83 1.390 . S
N81 C82 1.345 . S
N81 C84 1.336 . S
C82 N80 1.335 . S
C82 N81 1.345 . S
C82 H87 0.930 . S
C83 N80 1.390 . S
C83 C84 1.346 . S
C83 H88 0.930 . S
C84 N81 1.336 . S
C84 C83 1.346 . S
C84 H91 0.929 . S
C85 O75 1.282 . S
C85 O86 1.216 . S
O86 C85 1.216 . S
H87 C82 0.930 . S
H88 C83 0.930 . S
O89 Cu69 1.959 . S
O89 C76 1.251 . S
H90 C73 0.930 . S
H91 C84 0.929 . S
H92 C110 0.951 . S
H93 C112 0.951 . S
H94 C114 0.950 . S
H95 C115 0.950 . S
H96 C117 0.950 . S
H97 C120 0.950 . S
H98 C121 0.950 . S
H99 C123 0.950 . S
H100 C124 0.950 . S
H101 C125 0.951 . S
H102 C127 0.951 . S
H103 C129 0.950 . S
H104 C130 0.950 . S
H105 C132 0.950 . S
H106 C135 0.950 . S
H107 C136 0.950 . S
H108 C138 0.950 . S
H109 C139 0.950 . S
C110 H92 0.951 . S
C110 C111 1.366 . S
C110 C112 1.388 . S
C111 C110 1.366 . S
C111 C115 1.385 . S
C112 H93 0.951 . S
C112 C110 1.388 . S
C112 C113 1.366 . S
C113 C112 1.366 . S
C113 C114 1.414 . S
C113 C116 1.499 . S
C114 H94 0.950 . S
C114 C113 1.414 . S
C114 C115 1.374 . S
C115 H95 0.950 . S
C115 C111 1.385 . S
C115 C114 1.374 . S
C116 C113 1.499 . S
C116 C117 1.373 1_565 S
C116 C118 1.389 . S
C117 H96 0.950 . S
C117 C116 1.373 1_545 S
C117 C133 1.377 . S
C118 C116 1.389 . S
C118 C119 1.524 . S
C118 C132 1.377 . S
C119 C118 1.524 . S
C119 C120 1.397 1_554 S
C119 C124 1.363 . S
C120 H97 0.950 . S
C120 C119 1.397 1_556 S
C120 C121 1.334 . S
C121 H98 0.950 . S
C121 C120 1.334 . S
C121 C122 1.287 . S
C122 C121 1.287 . S
C122 C123 1.524 1_556 S
C122 H141 0.913 . S
C123 H99 0.950 . S
C123 C122 1.524 1_554 S
C123 C124 1.415 . S
C124 H100 0.950 . S
C124 C119 1.363 . S
C124 C123 1.415 . S
C125 H101 0.951 . S
C125 C126 1.366 . S
C125 C127 1.388 . S
C126 C125 1.366 . S
C126 C130 1.385 . S
C127 H102 0.951 . S
C127 C125 1.388 . S
C127 C128 1.366 . S
C128 C127 1.366 . S
C128 C129 1.414 . S
C128 C131 1.499 . S
C129 H103 0.950 . S
C129 C128 1.414 . S
C129 C130 1.374 . S
C130 H104 0.950 . S
C130 C126 1.385 . S
C130 C129 1.374 . S
C131 C128 1.499 . S
C131 C132 1.373 1_545 S
C131 C133 1.389 . S
C132 H105 0.950 . S
C132 C118 1.377 . S
C132 C131 1.373 1_565 S
C133 C117 1.377 . S
C133 C131 1.389 . S
C133 C134 1.524 . S
C134 C133 1.524 . S
C134 C135 1.397 . S
C134 C139 1.363 . S
C135 H106 0.950 . S
C135 C134 1.397 . S
C135 C136 1.334 . S
C136 H107 0.950 . S
C136 C135 1.334 . S
C136 C137 1.287 . S
C137 C136 1.287 . S
C137 C138 1.524 . S
C137 H140 0.999 . S
C138 H108 0.950 . S
C138 C137 1.524 . S
C138 C139 1.415 . S
C139 H109 0.950 . S
C139 C134 1.363 . S
C139 C138 1.415 . S
H140 C137 0.999 . S
H141 C122 0.913 . S
H142 C160 0.951 . S
H143 C162 0.951 . S
H144 C164 0.950 . S
H145 C165 0.950 . S
H146 C167 0.950 . S
H147 C170 0.950 . S
H148 C171 0.950 . S
H149 C173 0.950 . S
H150 C174 0.950 . S
H151 C175 0.951 . S
H152 C177 0.951 . S
H153 C179 0.950 . S
H154 C180 0.950 . S
H155 C182 0.950 . S
H156 C185 0.950 . S
H157 C186 0.950 . S
H158 C188 0.950 . S
H159 C189 0.950 . S
C160 H142 0.951 . S
C160 C161 1.366 . S
C160 C162 1.388 . S
C161 C160 1.366 . S
C161 C165 1.385 . S
C162 H143 0.951 . S
C162 C160 1.388 . S
C162 C163 1.366 . S
C163 C162 1.366 . S
C163 C164 1.414 . S
C163 C166 1.499 . S
C164 H144 0.950 . S
C164 C163 1.414 . S
C164 C165 1.374 . S
C165 H145 0.950 . S
C165 C161 1.385 . S
C165 C164 1.374 . S
C166 C163 1.499 . S
C166 C167 1.373 . S
C166 C168 1.389 . S
C167 H146 0.950 . S
C167 C166 1.373 . S
C167 C183 1.377 . S
C168 C166 1.389 . S
C168 C169 1.524 1_554 S
C168 C182 1.377 . S
C169 C168 1.524 1_556 S
C169 C170 1.397 . S
C169 C174 1.363 . S
C170 H147 0.950 . S
C170 C169 1.397 . S
C170 C171 1.334 . S
C171 H148 0.950 . S
C171 C170 1.334 . S
C171 C172 1.287 . S
C172 C171 1.287 . S
C172 C173 1.524 . S
C172 H191 0.913 . S
C173 H149 0.950 . S
C173 C172 1.524 . S
C173 C174 1.415 . S
C174 H150 0.950 . S
C174 C169 1.363 . S
C174 C173 1.415 . S
C175 H151 0.951 . S
C175 C176 1.366 . S
C175 C177 1.388 . S
C176 C175 1.366 . S
C176 C180 1.385 . S
C177 H152 0.951 . S
C177 C175 1.388 . S
C177 C178 1.366 . S
C178 C177 1.366 . S
C178 C179 1.414 . S
C178 C181 1.499 . S
C179 H153 0.950 . S
C179 C178 1.414 . S
C179 C180 1.374 . S
C180 H154 0.950 . S
C180 C176 1.385 . S
C180 C179 1.374 . S
C181 C178 1.499 . S
C181 C182 1.373 . S
C181 C183 1.389 . S
C182 H155 0.950 . S
C182 C168 1.377 . S
C182 C181 1.373 . S
C183 C167 1.377 . S
C183 C181 1.389 . S
C183 C184 1.524 . S
C184 C183 1.524 . S
C184 C185 1.397 . S
C184 C189 1.363 . S
C185 H156 0.950 . S
C185 C184 1.397 . S
C185 C186 1.334 . S
C186 H157 0.950 . S
C186 C185 1.334 . S
C186 C187 1.287 . S
C187 C186 1.287 . S
C187 C188 1.524 . S
C187 H190 0.999 1_556 S
C188 H158 0.950 . S
C188 C187 1.524 . S
C188 C189 1.415 . S
C189 H159 0.950 . S
C189 C184 1.363 . S
C189 C188 1.415 . S
H190 C187 0.999 1_554 S
H191 C172 0.913 . S
H192 C210 0.951 . S
H193 C212 0.951 . S
H194 C214 0.950 . S
H195 C215 0.950 . S
H196 C217 0.950 . S
H197 C220 0.950 . S
H198 C221 0.950 . S
H199 C223 0.950 . S
H200 C224 0.950 1_556 S
H201 C225 0.951 . S
H202 C227 0.951 . S
H203 C229 0.950 . S
H204 C230 0.950 . S
H205 C232 0.950 . S
H206 C235 0.950 . S
H207 C236 0.950 . S
H208 C238 0.950 . S
H209 C239 0.950 . S
C210 H192 0.951 . S
C210 C211 1.366 . S
C210 C212 1.388 . S
C211 C210 1.366 . S
C211 C215 1.385 . S
C212 H193 0.951 . S
C212 C210 1.388 . S
C212 C213 1.366 . S
C213 C212 1.366 . S
C213 C214 1.414 . S
C213 C216 1.499 . S
C214 H194 0.950 . S
C214 C213 1.414 . S
C214 C215 1.374 . S
C215 H195 0.950 . S
C215 C211 1.385 . S
C215 C214 1.374 . S
C216 C213 1.499 . S
C216 C217 1.373 . S
C216 C218 1.389 1_545 S
C217 H196 0.950 . S
C217 C216 1.373 . S
C217 C233 1.377 . S
C218 C216 1.389 1_565 S
C218 C219 1.524 1_556 S
C218 C232 1.377 . S
C219 C218 1.524 1_554 S
C219 C220 1.397 1_565 S
C219 C224 1.363 . S
C220 H197 0.950 . S
C220 C219 1.397 1_545 S
C220 C221 1.334 . S
C221 H198 0.950 . S
C221 C220 1.334 . S
C221 C222 1.287 1_545 S
C222 C221 1.287 1_565 S
C222 C223 1.524 . S
C222 H241 0.913 . S
C223 H199 0.950 . S
C223 C222 1.524 . S
C223 C224 1.415 . S
C224 H200 0.950 1_554 S
C224 C219 1.363 . S
C224 C223 1.415 . S
C225 H201 0.951 . S
C225 C226 1.366 . S
C225 C227 1.388 . S
C226 C225 1.366 . S
C226 C230 1.385 . S
C227 H202 0.951 . S
C227 C225 1.388 . S
C227 C228 1.366 . S
C228 C227 1.366 . S
C228 C229 1.414 . S
C228 C231 1.499 . S
C229 H203 0.950 . S
C229 C228 1.414 . S
C229 C230 1.374 . S
C230 H204 0.950 . S
C230 C226 1.385 . S
C230 C229 1.374 . S
C231 C228 1.499 . S
C231 C232 1.373 . S
C231 C233 1.389 1_565 S
C232 H205 0.950 . S
C232 C218 1.377 . S
C232 C231 1.373 . S
C233 C217 1.377 . S
C233 C231 1.389 1_545 S
C233 C234 1.524 . S
C234 C233 1.524 . S
C234 C235 1.397 1_545 S
C234 C239 1.363 . S
C235 H206 0.950 . S
C235 C234 1.397 1_565 S
C235 C236 1.334 . S
C236 H207 0.950 . S
C236 C235 1.334 . S
C236 C237 1.287 1_565 S
C237 C236 1.287 1_545 S
C237 C238 1.524 . S
C237 H240 0.999 . S
C238 H208 0.950 . S
C238 C237 1.524 . S
C238 C239 1.415 . S
C239 H209 0.950 . S
C239 C234 1.363 . S
C239 C238 1.415 . S
H240 C237 0.999 . S
H241 C222 0.913 . S
H242 C260 0.951 . S
H243 C262 0.951 . S
H244 C264 0.950 . S
H245 C265 0.950 . S
H246 C267 0.950 . S
H247 C270 0.950 . S
H248 C271 0.950 . S
H249 C273 0.950 . S
H250 C274 0.950 . S
H251 C275 0.951 . S
H252 C277 0.951 . S
H253 C279 0.950 . S
H254 C280 0.950 . S
H255 C282 0.950 1_554 S
H256 C285 0.950 . S
H257 C286 0.950 . S
H258 C288 0.950 1_556 S
H259 C289 0.950 . S
C260 H242 0.951 . S
C260 C261 1.366 . S
C260 C262 1.388 . S
C261 C260 1.366 . S
C261 C265 1.385 . S
C262 H243 0.951 . S
C262 C260 1.388 . S
C262 C263 1.366 . S
C263 C262 1.366 . S
C263 C264 1.414 . S
C263 C266 1.499 . S
C264 H244 0.950 . S
C264 C263 1.414 . S
C264 C265 1.374 . S
C265 H245 0.950 . S
C265 C261 1.385 . S
C265 C264 1.374 . S
C266 C263 1.499 . S
C266 C267 1.373 . S
C266 C268 1.389 . S
C267 H246 0.950 . S
C267 C266 1.373 . S
C267 C283 1.377 . S
C268 C266 1.389 . S
C268 C269 1.524 1_556 S
C268 C282 1.377 . S
C269 C268 1.524 1_554 S
C269 C270 1.397 . S
C269 C274 1.363 . S
C270 H247 0.950 . S
C270 C269 1.397 . S
C270 C271 1.334 . S
C271 H248 0.950 . S
C271 C270 1.334 . S
C271 C272 1.287 . S
C272 C271 1.287 . S
C272 C273 1.524 . S
C272 H291 0.913 . S
C273 H249 0.950 . S
C273 C272 1.524 . S
C273 C274 1.415 . S
C274 H250 0.950 . S
C274 C269 1.363 . S
C274 C273 1.415 . S
C275 H251 0.951 . S
C275 C276 1.366 . S
C275 C277 1.388 . S
C276 C275 1.366 . S
C276 C280 1.385 . S
C277 H252 0.951 . S
C277 C275 1.388 . S
C277 C278 1.366 . S
C278 C277 1.366 . S
C278 C279 1.414 . S
C278 C281 1.499 . S
C279 H253 0.950 . S
C279 C278 1.414 . S
C279 C280 1.374 . S
C280 H254 0.950 . S
C280 C276 1.385 . S
C280 C279 1.374 . S
C281 C278 1.499 . S
C281 C282 1.373 . S
C281 C283 1.389 . S
C282 H255 0.950 1_556 S
C282 C268 1.377 . S
C282 C281 1.373 . S
C283 C267 1.377 . S
C283 C281 1.389 . S
C283 C284 1.524 . S
C284 C283 1.524 . S
C284 C285 1.397 . S
C284 C289 1.363 . S
C285 H256 0.950 . S
C285 C284 1.397 . S
C285 C286 1.334 . S
C286 H257 0.950 . S
C286 C285 1.334 . S
C286 C287 1.287 . S
C287 C286 1.287 . S
C287 C288 1.524 . S
C287 H290 0.999 1_554 S
C288 H258 0.950 1_554 S
C288 C287 1.524 . S
C288 C289 1.415 . S
C289 H259 0.950 . S
C289 C284 1.363 . S
C289 C288 1.415 . S
H290 C287 0.999 1_556 S
H291 C272 0.913 . S
H292 C310 0.951 . S
H293 C312 0.951 . S
H294 C314 0.950 . S
H295 C315 0.950 . S
H296 C317 0.950 . S
H297 C320 0.950 . S
H298 C321 0.950 . S
H299 C323 0.950 . S
H300 C324 0.950 . S
H301 C325 0.951 . S
H302 C327 0.951 . S
H303 C329 0.950 . S
H304 C330 0.950 . S
H305 C332 0.950 . S
H306 C335 0.950 . S
H307 C336 0.950 . S
H308 C338 0.950 . S
H309 C339 0.950 . S
C310 H292 0.951 . S
C310 C311 1.366 . S
C310 C312 1.388 . S
C311 C310 1.366 . S
C311 C315 1.385 . S
C312 H293 0.951 . S
C312 C310 1.388 . S
C312 C313 1.366 . S
C313 C312 1.366 . S
C313 C314 1.414 . S
C313 C316 1.499 . S
C314 H294 0.950 . S
C314 C313 1.414 . S
C314 C315 1.374 . S
C315 H295 0.950 . S
C315 C311 1.385 . S
C315 C314 1.374 . S
C316 C313 1.499 . S
C316 C317 1.373 1_554 S
C316 C318 1.389 1_455 S
C317 H296 0.950 . S
C317 C316 1.373 1_556 S
C317 C333 1.377 1_545 S
C318 C316 1.389 1_655 S
C318 C319 1.524 . S
C318 C332 1.377 1_545 S
C319 C318 1.524 . S
C319 C320 1.397 1_655 S
C319 C324 1.363 . S
C320 H297 0.950 . S
C320 C319 1.397 1_455 S
C320 C321 1.334 . S
C321 H298 0.950 . S
C321 C320 1.334 . S
C321 C322 1.287 1_455 S
C322 C321 1.287 1_655 S
C322 C323 1.524 . S
C322 H341 0.913 . S
C323 H299 0.950 . S
C323 C322 1.524 . S
C323 C324 1.415 . S
C324 H300 0.950 . S
C324 C319 1.363 . S
C324 C323 1.415 . S
C325 H301 0.951 . S
C325 C326 1.366 . S
C325 C327 1.388 . S
C326 C325 1.366 . S
C326 C330 1.385 . S
C327 H302 0.951 . S
C327 C325 1.388 . S
C327 C328 1.366 . S
C328 C327 1.366 . S
C328 C329 1.414 . S
C328 C331 1.499 . S
C329 H303 0.950 . S
C329 C328 1.414 . S
C329 C330 1.374 . S
C330 H304 0.950 . S
C330 C326 1.385 . S
C330 C329 1.374 . S
C331 C328 1.499 . S
C331 C332 1.373 1_556 S
C331 C333 1.389 1_655 S
C332 H305 0.950 . S
C332 C318 1.377 1_565 S
C332 C331 1.373 1_554 S
C333 C317 1.377 1_565 S
C333 C331 1.389 1_455 S
C333 C334 1.524 . S
C334 C333 1.524 . S
C334 C335 1.397 1_455 S
C334 C339 1.363 . S
C335 H306 0.950 . S
C335 C334 1.397 1_655 S
C335 C336 1.334 . S
C336 H307 0.950 . S
C336 C335 1.334 . S
C336 C337 1.287 1_655 S
C337 C336 1.287 1_455 S
C337 C338 1.524 . S
C337 H340 0.999 . S
C338 H308 0.950 . S
C338 C337 1.524 . S
C338 C339 1.415 . S
C339 H309 0.950 . S
C339 C334 1.363 . S
C339 C338 1.415 . S
H340 C337 0.999 . S
H341 C322 0.913 . S
H342 C360 0.951 . S
H343 C362 0.951 . S
H344 C364 0.950 . S
H345 C365 0.950 . S
H346 C367 0.950 . S
H347 C370 0.950 . S
H348 C371 0.950 1_556 S
H349 C373 0.950 . S
H350 C374 0.950 . S
H351 C375 0.951 . S
H352 C377 0.951 . S
H353 C379 0.950 . S
H354 C380 0.950 . S
H355 C382 0.950 . S
H356 C385 0.950 . S
H357 C386 0.950 1_554 S
H358 C388 0.950 . S
H359 C389 0.950 . S
C360 H342 0.951 . S
C360 C361 1.366 1_554 S
C360 C362 1.388 . S
C361 C360 1.366 1_556 S
C361 C365 1.385 . S
C362 H343 0.951 . S
C362 C360 1.388 . S
C362 C363 1.366 1_554 S
C363 C362 1.366 1_556 S
C363 C364 1.414 . S
C363 C366 1.499 . S
C364 H344 0.950 . S
C364 C363 1.414 . S
C364 C365 1.374 . S
C365 H345 0.950 . S
C365 C361 1.385 . S
C365 C364 1.374 . S
C366 C363 1.499 . S
C366 C367 1.373 . S
C366 C368 1.389 1_556 S
C367 H346 0.950 . S
C367 C366 1.373 . S
C367 C383 1.377 1_545 S
C368 C366 1.389 1_554 S
C368 C369 1.525 1_545 S
C368 C382 1.377 1_545 S
C369 C368 1.525 1_565 S
C369 C370 1.397 1_564 S
C369 C374 1.363 . S
C370 H347 0.950 . S
C370 C369 1.397 1_546 S
C370 C371 1.334 1_556 S
C371 H348 0.950 1_554 S
C371 C370 1.334 1_554 S
C371 C372 1.287 1_545 S
C372 C371 1.287 1_565 S
C372 C373 1.524 . S
C372 H391 0.913 . S
C373 H349 0.950 . S
C373 C372 1.524 . S
C373 C374 1.415 . S
C374 H350 0.950 . S
C374 C369 1.363 . S
C374 C373 1.415 . S
C375 H351 0.951 . S
C375 C376 1.366 1_556 S
C375 C377 1.388 . S
C376 C375 1.366 1_554 S
C376 C380 1.385 . S
C377 H352 0.951 . S
C377 C375 1.388 . S
C377 C378 1.366 1_556 S
C378 C377 1.366 1_554 S
C378 C379 1.414 . S
C378 C381 1.499 . S
C379 H353 0.950 . S
C379 C378 1.414 . S
C379 C380 1.374 . S
C380 H354 0.950 . S
C380 C376 1.385 . S
C380 C379 1.374 . S
C381 C378 1.499 . S
C381 C382 1.373 . S
C381 C383 1.389 1_554 S
C382 H355 0.950 . S
C382 C368 1.377 1_565 S
C382 C381 1.373 . S
C383 C367 1.377 1_565 S
C383 C381 1.389 1_556 S
C383 C384 1.525 1_565 S
C384 C383 1.525 1_545 S
C384 C385 1.397 1_546 S
C384 C389 1.363 . S
C385 H356 0.950 . S
C385 C384 1.397 1_564 S
C385 C386 1.334 1_554 S
C386 H357 0.950 1_556 S
C386 C385 1.334 1_556 S
C386 C387 1.287 1_565 S
C387 C386 1.287 1_545 S
C387 C388 1.524 . S
C387 H390 0.999 . S
C388 H358 0.950 . S
C388 C387 1.524 . S
C388 C389 1.415 . S
C389 H359 0.950 . S
C389 C384 1.363 . S
C389 C388 1.415 . S
H390 C387 0.999 . S
H391 C372 0.913 . S
H392 C410 0.951 . S
H393 C412 0.951 . S
H394 C414 0.950 . S
H395 C415 0.950 . S
H396 C417 0.950 . S
H397 C420 0.950 . S
H398 C421 0.950 . S
H399 C423 0.950 . S
H400 C424 0.950 . S
H401 C425 0.951 . S
H402 C427 0.951 . S
H403 C429 0.950 . S
H404 C430 0.950 . S
H405 C432 0.950 . S
H406 C435 0.950 . S
H407 C436 0.950 . S
H408 C438 0.950 . S
H409 C439 0.950 . S
C410 H392 0.951 . S
C410 C411 1.366 . S
C410 C412 1.388 . S
C411 C410 1.366 . S
C411 C415 1.385 . S
C412 H393 0.951 . S
C412 C410 1.388 . S
C412 C413 1.366 . S
C413 C412 1.366 . S
C413 C414 1.414 . S
C413 C416 1.499 . S
C414 H394 0.950 . S
C414 C413 1.414 . S
C414 C415 1.374 . S
C415 H395 0.950 . S
C415 C411 1.385 . S
C415 C414 1.374 . S
C416 C413 1.499 . S
C416 C417 1.373 . S
C416 C418 1.389 . S
C417 H396 0.950 . S
C417 C416 1.373 . S
C417 C433 1.377 1_655 S
C418 C416 1.389 . S
C418 C419 1.524 . S
C418 C432 1.377 1_655 S
C419 C418 1.524 . S
C419 C420 1.397 . S
C419 C424 1.363 1_655 S
C420 H397 0.950 . S
C420 C419 1.397 . S
C420 C421 1.334 1_554 S
C421 H398 0.950 . S
C421 C420 1.334 1_556 S
C421 C422 1.287 . S
C422 C421 1.287 . S
C422 C423 1.524 1_655 S
C422 H441 0.913 . S
C423 H399 0.950 . S
C423 C422 1.524 1_455 S
C423 C424 1.415 1_556 S
C424 H400 0.950 . S
C424 C419 1.363 1_455 S
C424 C423 1.415 1_554 S
C425 H401 0.951 . S
C425 C426 1.366 . S
C425 C427 1.388 . S
C426 C425 1.366 . S
C426 C430 1.385 . S
C427 H402 0.951 . S
C427 C425 1.388 . S
C427 C428 1.366 . S
C428 C427 1.366 . S
C428 C429 1.414 . S
C428 C431 1.499 . S
C429 H403 0.950 . S
C429 C428 1.414 . S
C429 C430 1.374 . S
C430 H404 0.950 . S
C430 C426 1.385 . S
C430 C429 1.374 . S
C431 C428 1.499 . S
C431 C432 1.373 . S
C431 C433 1.389 . S
C432 H405 0.950 . S
C432 C418 1.377 1_455 S
C432 C431 1.373 . S
C433 C417 1.377 1_455 S
C433 C431 1.389 . S
C433 C434 1.524 . S
C434 C433 1.524 . S
C434 C435 1.397 . S
C434 C439 1.363 1_455 S
C435 H406 0.950 . S
C435 C434 1.397 . S
C435 C436 1.334 1_556 S
C436 H407 0.950 . S
C436 C435 1.334 1_554 S
C436 C437 1.287 . S
C437 C436 1.287 . S
C437 C438 1.524 1_455 S
C437 H440 0.999 . S
C438 H408 0.950 . S
C438 C437 1.524 1_655 S
C438 C439 1.415 1_554 S
C439 H409 0.950 . S
C439 C434 1.363 1_655 S
C439 C438 1.415 1_556 S
H440 C437 0.999 . S
H441 C422 0.913 . S
H442 C460 0.951 . S
H443 C462 0.951 . S
H444 C464 0.950 . S
H445 C465 0.950 . S
H446 C467 0.950 . S
H447 C470 0.950 . S
H448 C471 0.950 . S
H449 C473 0.950 . S
H450 C474 0.950 . S
H451 C475 0.951 . S
H452 C477 0.951 . S
H453 C479 0.950 . S
H454 C480 0.950 . S
H455 C482 0.950 . S
H456 C485 0.950 . S
H457 C486 0.950 . S
H458 C488 0.950 . S
H459 C489 0.950 . S
C460 H442 0.951 . S
C460 C461 1.366 . S
C460 C462 1.388 . S
C461 C460 1.366 . S
C461 C465 1.385 . S
C462 H443 0.951 . S
C462 C460 1.388 . S
C462 C463 1.366 . S
C463 C462 1.366 . S
C463 C464 1.414 . S
C463 C466 1.499 . S
C464 H444 0.950 . S
C464 C463 1.414 . S
C464 C465 1.374 . S
C465 H445 0.950 . S
C465 C461 1.385 . S
C465 C464 1.374 . S
C466 C463 1.499 . S
C466 C467 1.373 . S
C466 C468 1.389 . S
C467 H446 0.950 . S
C467 C466 1.373 . S
C467 C483 1.377 . S
C468 C466 1.389 . S
C468 C469 1.524 . S
C468 C482 1.377 . S
C469 C468 1.524 . S
C469 C470 1.397 . S
C469 C474 1.363 . S
C470 H447 0.950 . S
C470 C469 1.397 . S
C470 C471 1.334 1_556 S
C471 H448 0.950 . S
C471 C470 1.334 1_554 S
C471 C472 1.287 . S
C472 C471 1.287 . S
C472 C473 1.524 . S
C472 H491 0.913 . S
C473 H449 0.950 . S
C473 C472 1.524 . S
C473 C474 1.415 1_554 S
C474 H450 0.950 . S
C474 C469 1.363 . S
C474 C473 1.415 1_556 S
C475 H451 0.951 . S
C475 C476 1.366 . S
C475 C477 1.388 . S
C476 C475 1.366 . S
C476 C480 1.385 . S
C477 H452 0.951 . S
C477 C475 1.388 . S
C477 C478 1.366 . S
C478 C477 1.366 . S
C478 C479 1.414 . S
C478 C481 1.499 . S
C479 H453 0.950 . S
C479 C478 1.414 . S
C479 C480 1.374 . S
C480 H454 0.950 . S
C480 C476 1.385 . S
C480 C479 1.374 . S
C481 C478 1.499 . S
C481 C482 1.373 . S
C481 C483 1.389 . S
C482 H455 0.950 . S
C482 C468 1.377 . S
C482 C481 1.373 . S
C483 C467 1.377 . S
C483 C481 1.389 . S
C483 C484 1.524 . S
C484 C483 1.524 . S
C484 C485 1.397 . S
C484 C489 1.363 . S
C485 H456 0.950 . S
C485 C484 1.397 . S
C485 C486 1.334 1_554 S
C486 H457 0.950 . S
C486 C485 1.334 1_556 S
C486 C487 1.287 . S
C487 C486 1.287 . S
C487 C488 1.524 . S
C487 H490 0.999 . S
C488 H458 0.950 . S
C488 C487 1.524 . S
C488 C489 1.415 1_556 S
C489 H459 0.950 . S
C489 C484 1.363 . S
C489 C488 1.415 1_554 S
H490 C487 0.999 . S
H491 C472 0.913 . S
C111 N25 1.449 . S
C126 N2 1.449 . S
C161 C7 1.485 . S
C176 C30 1.485 . S
C211 N71 1.448 . S
C226 N48 1.449 . S
C261 C53 1.485 . S
C276 C76 1.485 . S
C311 C16 1.484 . S
C326 C62 1.484 . S
C361 C85 1.483 . S
C376 C39 1.483 . S
C411 N58 1.469 . S
C426 N12 1.469 . S
C461 N35 1.469 . S
C476 N81 1.469 . S
