# Generated by pormake.
# Topology uki, (4)-cn, num edge types: 1
# Building blocks:
#     Node 0, Type 0, BuildingBlock: QUQFOY_clean_sbu_3, # of connection points: 4
#     Node 1, Type 0, BuildingBlock: QUQFOY_clean_sbu_3, # of connection points: 4
#     Node 2, Type 0, BuildingBlock: QUQFOY_clean_sbu_3, # of connection points: 4
#     Node 3, Type 0, BuildingBlock: QUQFOY_clean_sbu_3, # of connection points: 4
#     Node 4, Type 0, BuildingBlock: QUQFOY_clean_sbu_3, # of connection points: 4
#     Node 5, Type 0, BuildingBlock: QUQFOY_clean_sbu_3, # of connection points: 4
#     Node 6, Type 0, BuildingBlock: QUQFOY_clean_sbu_3, # of connection points: 4
#     Node 7, Type 0, BuildingBlock: QUQFOY_clean_sbu_3, # of connection points: 4
#     Node 8, Type 0, BuildingBlock: QUQFOY_clean_sbu_3, # of connection points: 4
#     Node 9, Type 0, BuildingBlock: QUQFOY_clean_sbu_3, # of connection points: 4
#     Node 10, Type 0, BuildingBlock: QUQFOY_clean_sbu_3, # of connection points: 4
#     Node 11, Type 0, BuildingBlock: QUQFOY_clean_sbu_3, # of connection points: 4
#     Node 12, Type 0, BuildingBlock: QUQFOY_clean_sbu_3, # of connection points: 4
#     Node 13, Type 0, BuildingBlock: QUQFOY_clean_sbu_3, # of connection points: 4
#     Node 14, Type 0, BuildingBlock: QUQFOY_clean_sbu_3, # of connection points: 4
#     Node 15, Type 0, BuildingBlock: QUQFOY_clean_sbu_3, # of connection points: 4
#     Edge 16, Type (0, 0), BuildingBlock: AJUNOK_clean_linker_0, # of connection points: 2
#     Edge 17, Type (0, 0), BuildingBlock: AJUNOK_clean_linker_0, # of connection points: 2
#     Edge 18, Type (0, 0), BuildingBlock: AJUNOK_clean_linker_0, # of connection points: 2
#     Edge 19, Type (0, 0), BuildingBlock: AJUNOK_clean_linker_0, # of connection points: 2
#     Edge 20, Type (0, 0), BuildingBlock: AJUNOK_clean_linker_0, # of connection points: 2
#     Edge 21, Type (0, 0), BuildingBlock: AJUNOK_clean_linker_0, # of connection points: 2
#     Edge 22, Type (0, 0), BuildingBlock: AJUNOK_clean_linker_0, # of connection points: 2
#     Edge 23, Type (0, 0), BuildingBlock: AJUNOK_clean_linker_0, # of connection points: 2
#     Edge 24, Type (0, 0), BuildingBlock: AJUNOK_clean_linker_0, # of connection points: 2
#     Edge 25, Type (0, 0), BuildingBlock: AJUNOK_clean_linker_0, # of connection points: 2
#     Edge 26, Type (0, 0), BuildingBlock: AJUNOK_clean_linker_0, # of connection points: 2
#     Edge 27, Type (0, 0), BuildingBlock: AJUNOK_clean_linker_0, # of connection points: 2
#     Edge 28, Type (0, 0), BuildingBlock: AJUNOK_clean_linker_0, # of connection points: 2
#     Edge 29, Type (0, 0), BuildingBlock: AJUNOK_clean_linker_0, # of connection points: 2
#     Edge 30, Type (0, 0), BuildingBlock: AJUNOK_clean_linker_0, # of connection points: 2
#     Edge 31, Type (0, 0), BuildingBlock: AJUNOK_clean_linker_0, # of connection points: 2
#     Edge 32, Type (0, 0), BuildingBlock: AJUNOK_clean_linker_0, # of connection points: 2
#     Edge 33, Type (0, 0), BuildingBlock: AJUNOK_clean_linker_0, # of connection points: 2
#     Edge 34, Type (0, 0), BuildingBlock: AJUNOK_clean_linker_0, # of connection points: 2
#     Edge 35, Type (0, 0), BuildingBlock: AJUNOK_clean_linker_0, # of connection points: 2
#     Edge 36, Type (0, 0), BuildingBlock: AJUNOK_clean_linker_0, # of connection points: 2
#     Edge 37, Type (0, 0), BuildingBlock: AJUNOK_clean_linker_0, # of connection points: 2
#     Edge 38, Type (0, 0), BuildingBlock: AJUNOK_clean_linker_0, # of connection points: 2
#     Edge 39, Type (0, 0), BuildingBlock: AJUNOK_clean_linker_0, # of connection points: 2
#     Edge 40, Type (0, 0), BuildingBlock: AJUNOK_clean_linker_0, # of connection points: 2
#     Edge 41, Type (0, 0), BuildingBlock: AJUNOK_clean_linker_0, # of connection points: 2
#     Edge 42, Type (0, 0), BuildingBlock: AJUNOK_clean_linker_0, # of connection points: 2
#     Edge 43, Type (0, 0), BuildingBlock: AJUNOK_clean_linker_0, # of connection points: 2
#     Edge 44, Type (0, 0), BuildingBlock: AJUNOK_clean_linker_0, # of connection points: 2
#     Edge 45, Type (0, 0), BuildingBlock: AJUNOK_clean_linker_0, # of connection points: 2
#     Edge 46, Type (0, 0), BuildingBlock: AJUNOK_clean_linker_0, # of connection points: 2
#     Edge 47, Type (0, 0), BuildingBlock: AJUNOK_clean_linker_0, # of connection points: 2
# Relax obj value: 0.094
# Max RMSD: 0.199
# Mean RMSD: 0.197
data_MOF--net-uki--node1-QUQFOY_clean_sbu_3--edge1-AJUNOK_clean_linker_0
_symmetry_space_group_name_H-M    P1
_symmetry_Int_Tables_number       1
_symmetry_cell_setting            triclinic
loop_
_symmetry_equiv_pos_as_xyz
'x, y, z'
_cell_length_a     23.255737
_cell_length_b     23.218229
_cell_length_c     55.869588
_cell_angle_alpha  89.823905
_cell_angle_beta   90.11818
_cell_angle_gamma 89.893039
loop_
_atom_site_label
_atom_site_type_symbol
_atom_site_fract_x
_atom_site_fract_y
_atom_site_fract_z
_atom_type_partial_charge
C0 C 0.0571 0.10584 0.25652 0.0
O1 O 0.06211 0.13593 0.23764 0.0
Cd2 Cd 0.05726 0.23788 0.24238 0.0
O3 O 0.06015 0.12906 0.27706 0.0
Cd4 Cd 0.07776 0.21702 0.29965 0.0
C5 C 0.94198 0.23039 0.28281 0.0
O6 O 0.12718 0.27306 0.2697 0.0
O7 O 0.08565 0.3209 0.29814 0.0
O8 O 0.16501 0.17732 0.31699 0.0
C9 C 0.11672 0.3212 0.27948 0.0
O10 O 0.96501 0.23785 0.26237 0.0
C11 C 0.151 0.18579 0.33864 0.0
O12 O 0.97229 0.22227 0.30157 0.0
O13 O 0.10121 0.20684 0.34236 0.0
C14 C 0.2336 0.77341 0.75546 0.0
O15 O 0.19309 0.79064 0.76882 0.0
Cd16 Cd 0.1393 0.87453 0.7557 0.0
O17 O 0.24133 0.7958 0.73497 0.0
Cd18 Cd 0.20779 0.86333 0.70488 0.0
C19 C 0.26197 0.95547 0.74435 0.0
O20 O 0.10718 0.87798 0.71472 0.0
O21 O 0.15204 0.9459 0.69546 0.0
O22 O 0.20152 0.78499 0.67679 0.0
C23 C 0.10611 0.92778 0.705 0.0
O24 O 0.21782 0.9431 0.75683 0.0
C25 C 0.23034 0.80934 0.66035 0.0
O26 O 0.27212 0.93084 0.72441 0.0
O27 O 0.24999 0.85936 0.66469 0.0
C28 C 0.9439 0.88529 0.25872 0.0
O29 O 0.9292 0.86057 0.23946 0.0
Cd30 Cd 0.93032 0.75907 0.24393 0.0
O31 O 0.93907 0.85936 0.27874 0.0
Cd32 Cd 0.90483 0.77154 0.29907 0.0
C33 C 0.04078 0.75696 0.28761 0.0
O34 O 0.85267 0.72452 0.26738 0.0
O35 O 0.89718 0.66815 0.29229 0.0
O36 O 0.81915 0.81674 0.31539 0.0
C37 C 0.86221 0.67385 0.27496 0.0
O38 O 0.02046 0.7545 0.26643 0.0
C39 C 0.82696 0.79984 0.33678 0.0
O40 O 0.00789 0.76143 0.3057 0.0
O41 O 0.87325 0.77229 0.34106 0.0
C42 C 0.78235 0.17614 0.77893 0.0
O43 O 0.82358 0.14662 0.78746 0.0
Cd44 Cd 0.88241 0.08412 0.7631 0.0
O45 O 0.77098 0.17543 0.75663 0.0
Cd46 Cd 0.80217 0.13187 0.71897 0.0
C47 C 0.76685 0.00491 0.74313 0.0
O48 O 0.90533 0.12085 0.72449 0.0
O49 O 0.86363 0.06404 0.69931 0.0
O50 O 0.79432 0.22023 0.69514 0.0
C51 C 0.9096 0.08004 0.70946 0.0
O52 O 0.81469 0.0075 0.75426 0.0
C53 C 0.76309 0.1978 0.67897 0.0
O54 O 0.74755 0.04722 0.7309 0.0
O55 O 0.7482 0.14568 0.68201 0.0
C56 C 0.01762 0.35741 0.98162 0.0
O57 O 0.01998 0.32261 -0.00084 0.0
Cd58 Cd 0.02529 0.22242 0.991 0.0
O59 O 0.02958 0.34061 0.96051 0.0
Cd60 Cd 0.06198 0.25881 0.93611 0.0
C61 C 0.92407 0.23269 0.94422 0.0
O62 O 0.10659 0.2031 0.96725 0.0
O63 O 0.07717 0.15474 0.93661 0.0
O64 O 0.15016 0.3064 0.92364 0.0
C65 C 0.10368 0.15529 0.95649 0.0
O66 O 0.94101 0.22108 0.96538 0.0
C67 C 0.14338 0.29747 0.9014 0.0
O68 O 0.9589 0.24904 0.928 0.0
O69 O 0.09662 0.27349 0.89505 0.0
C70 C 0.25515 0.78568 0.98587 0.0
O71 O 0.2969 0.80268 0.9731 0.0
Cd72 Cd 0.35055 0.8853 0.98743 0.0
O73 O 0.24677 0.80678 0.00651 0.0
Cd74 Cd 0.27743 0.87055 0.03818 0.0
C75 C 0.22619 0.96449 -0.00199 0.0
O76 O 0.37846 0.88305 0.02888 0.0
O77 O 0.33793 0.94539 0.05245 0.0
O78 O 0.27762 0.78861 0.06491 0.0
C79 C 0.38235 0.92884 0.04132 0.0
O80 O 0.27074 0.95199 0.98584 0.0
C81 C 0.24839 0.81274 0.08126 0.0
O82 O 0.21591 0.94105 0.01824 0.0
O83 O 0.23082 0.86382 0.07728 0.0
C84 C 0.9143 0.5843 0.98816 0.0
O85 O 0.90241 0.60732 0.00809 0.0
Cd86 Cd 0.90787 0.70955 0.00783 0.0
O87 O 0.914 0.6144 0.96909 0.0
Cd88 Cd 0.89242 0.70961 0.95225 0.0
C89 C 0.027 0.71968 0.96954 0.0
O90 O 0.83532 0.7532 0.98351 0.0
O91 O 0.88598 0.81144 0.96171 0.0
O92 O 0.80808 0.67571 0.93076 0.0
C93 C 0.84698 0.8045 0.97732 0.0
O94 O 0.0033 0.71896 0.99009 0.0
C95 C 0.82431 0.69259 0.91024 0.0
O96 O -0.00311 0.71778 0.9505 0.0
O97 O 0.87356 0.71621 0.909 0.0
C98 C 0.70327 0.18226 0.96936 0.0
O99 O 0.66457 0.15092 0.96004 0.0
Cd100 Cd 0.60339 0.08563 0.98228 0.0
O101 O 0.71301 0.18097 0.99181 0.0
Cd102 Cd 0.68276 0.13337 0.02892 0.0
C103 C 0.71696 0.00524 0.00361 0.0
O104 O 0.58117 0.12268 0.02061 0.0
O105 O 0.61472 0.07618 0.05111 0.0
O106 O 0.69186 0.22038 0.05321 0.0
C107 C 0.57235 0.08751 0.03766 0.0
O108 O 0.67057 0.00899 0.99152 0.0
C109 C 0.72334 0.19677 0.06911 0.0
O110 O 0.73481 0.04634 0.01678 0.0
O111 O 0.7386 0.14498 0.06542 0.0
C112 C 0.57878 0.57701 0.75142 0.0
O113 O 0.58979 0.60104 0.73156 0.0
Cd114 Cd 0.58085 0.70313 0.73252 0.0
O115 O 0.57821 0.60659 0.77055 0.0
Cd116 Cd 0.59605 0.70163 0.78782 0.0
C117 C 0.46128 0.70643 0.7707 0.0
O118 O 0.65146 0.74913 0.75698 0.0
O119 O 0.59762 0.80388 0.779 0.0
O120 O 0.68254 0.66994 0.80827 0.0
C121 C 0.63772 0.79947 0.76372 0.0
O122 O 0.48521 0.70799 0.75022 0.0
C123 C 0.66775 0.68678 0.82894 0.0
O124 O 0.49123 0.70523 0.78981 0.0
O125 O 0.61751 0.70809 0.83096 0.0
C126 C 0.72021 0.29576 0.25893 0.0
O127 O 0.67993 0.32002 0.27042 0.0
Cd128 Cd 0.6223 0.39455 0.2518 0.0
O129 O 0.72983 0.30863 0.23716 0.0
Cd130 Cd 0.6978 0.36855 0.20368 0.0
C131 C 0.73961 0.47885 0.23758 0.0
O132 O 0.59545 0.37636 0.21133 0.0
O133 O 0.63443 0.44339 0.18988 0.0
O134 O 0.70286 0.2857 0.1774 0.0
C135 C 0.58952 0.4227 0.19937 0.0
O136 O 0.69243 0.47151 0.24873 0.0
C137 C 0.72962 0.31115 0.16065 0.0
O138 O 0.75672 0.4441 0.22143 0.0
O139 O 0.74325 0.36349 0.16408 0.0
C140 C 0.47596 0.35012 0.75871 0.0
O141 O 0.47718 0.31421 0.74164 0.0
Cd142 Cd 0.46872 0.21452 0.75077 0.0
O143 O 0.45959 0.33467 0.77952 0.0
Cd144 Cd 0.42194 0.25429 0.80361 0.0
C145 C 0.56051 0.22345 0.80068 0.0
O146 O 0.38231 0.1979 0.77163 0.0
O147 O 0.40446 0.15061 0.80375 0.0
O148 O 0.33242 0.30348 0.81349 0.0
C149 C 0.38228 0.15062 0.78297 0.0
O150 O 0.54785 0.21085 0.77913 0.0
C151 C 0.33583 0.29485 0.8359 0.0
O152 O 0.52295 0.24254 0.81521 0.0
O153 O 0.38153 0.27075 0.84354 0.0
C154 C 0.26678 0.69956 0.26904 0.0
O155 O 0.30945 0.6783 0.28017 0.0
Cd156 Cd 0.36085 0.60055 0.26092 0.0
O157 O 0.25596 0.68485 0.24762 0.0
Cd158 Cd 0.28542 0.629 0.21305 0.0
C159 C 0.23728 0.52292 0.24754 0.0
O160 O 0.38765 0.61382 0.21964 0.0
O161 O 0.34136 0.55176 0.19788 0.0
O162 O 0.28451 0.71451 0.18807 0.0
C163 C 0.38838 0.56805 0.20708 0.0
O164 O 0.28258 0.5313 0.25991 0.0
C165 C 0.2531 0.69304 0.17176 0.0
O166 O 0.22485 0.55392 0.22938 0.0
O167 O 0.23578 0.64162 0.17482 0.0
C168 C 0.53334 0.86697 0.49151 0.0
O169 O 0.53529 0.83307 0.50933 0.0
Cd170 Cd 0.53311 0.73312 0.5004 0.0
O171 O 0.54298 0.84824 0.47046 0.0
Cd172 Cd 0.5703 0.76396 0.44626 0.0
C173 C 0.43124 0.74747 0.45416 0.0
O174 O 0.61347 0.70487 0.47707 0.0
O175 O 0.57858 0.6594 0.44659 0.0
O176 O 0.66097 0.80405 0.43183 0.0
C177 C 0.60687 0.65772 0.46603 0.0
O178 O 0.44738 0.73693 0.47552 0.0
C179 C 0.64976 0.79727 0.40977 0.0
O180 O 0.46729 0.75856 0.43767 0.0
O181 O 0.60034 0.77746 0.40459 0.0
C182 C 0.7583 0.28085 0.48939 0.0
O183 O 0.80081 0.29898 0.47736 0.0
Cd184 Cd 0.85191 0.38153 0.49221 0.0
O185 O 0.74785 0.30071 0.51014 0.0
Cd186 Cd 0.77889 0.36495 0.5423 0.0
C187 C 0.72654 0.45998 0.50331 0.0
O188 O 0.87993 0.37749 0.53342 0.0
O189 O 0.83657 0.44585 0.55277 0.0
O190 O 0.78137 0.28561 0.57055 0.0
C191 C 0.88234 0.42657 0.54349 0.0
O192 O 0.77146 0.44864 0.49115 0.0
C193 C 0.75337 0.31113 0.5869 0.0
O194 O 0.71584 0.43474 0.52312 0.0
O195 O 0.73523 0.36168 0.58227 0.0
C196 C 0.42489 0.0919 0.49375 0.0
O197 O 0.4114 0.11801 0.51284 0.0
Cd198 Cd 0.41658 0.2206 0.50826 0.0
O199 O 0.42322 0.1183 0.4738 0.0
Cd200 Cd 0.3984 0.20673 0.45272 0.0
C201 C 0.53353 0.21673 0.46859 0.0
O202 O 0.34779 0.26481 0.48214 0.0
O203 O 0.39691 0.30956 0.45472 0.0
O204 O 0.31031 0.16768 0.43629 0.0
C205 C 0.36139 0.31191 0.47191 0.0
O206 O 0.5101 0.22197 0.48906 0.0
C207 C 0.32167 0.17926 0.41459 0.0
O208 O 0.50332 0.21107 0.44968 0.0
O209 O 0.37105 0.20059 0.4103 0.0
C210 C 0.20669 0.69343 0.47126 0.0
O211 O 0.16479 0.67011 0.46046 0.0
Cd212 Cd 0.11298 0.59479 0.48107 0.0
O213 O 0.21748 0.68133 0.49303 0.0
Cd214 Cd 0.18827 0.62802 0.52861 0.0
C215 C 0.23524 0.51665 0.49671 0.0
O216 O 0.08592 0.61579 0.52165 0.0
O217 O 0.12877 0.55489 0.54522 0.0
O218 O 0.19159 0.71465 0.55299 0.0
C219 C 0.08267 0.57207 0.5354 0.0
O220 O 0.19035 0.52425 0.48395 0.0
C221 C 0.22236 0.69248 0.56943 0.0
O222 O 0.24756 0.54955 0.51419 0.0
O223 O 0.23841 0.64059 0.56659 0.0
C224 C 0.1555 0.41921 0.28636 0.0
C225 C 0.14172 0.3749 0.27028 0.0
C226 C 0.18489 0.46824 0.27861 0.0
C227 C 0.19983 0.47517 0.25445 0.0
H228 H 0.14579 0.41489 0.30524 0.0
H229 H 0.19702 0.50046 0.29167 0.0
S230 S 0.16933 0.37408 0.20493 0.0
N231 N 0.14255 0.3423 0.22893 0.0
N232 N 0.19643 0.43581 0.21426 0.0
C233 C 0.18378 0.43274 0.23796 0.0
C234 C 0.15506 0.38211 0.24593 0.0
C235 C 0.36901 0.74165 0.78852 0.0
C236 C 0.39789 0.70772 0.77154 0.0
C237 C 0.31088 0.75641 0.78521 0.0
C238 C 0.28053 0.73746 0.76488 0.0
H239 H 0.39263 0.76136 0.80307 0.0
H240 H 0.29182 0.78794 0.79706 0.0
S241 S 0.33274 0.63564 0.71892 0.0
N242 N 0.38874 0.64609 0.7366 0.0
N243 N 0.28006 0.67464 0.73029 0.0
C244 C 0.30693 0.69754 0.74968 0.0
C245 C 0.36567 0.68253 0.75301 0.0
C246 C 0.74911 0.5832 0.24489 0.0
C247 C 0.77475 0.52848 0.24424 0.0
C248 C 0.7788 0.63046 0.25411 0.0
C249 C 0.83438 0.62403 0.26367 0.0
H250 H 0.70539 0.58925 0.23859 0.0
H251 H 0.7572 0.67183 0.25461 0.0
S252 S 0.92071 0.48957 0.26543 0.0
N253 N 0.85925 0.47043 0.25289 0.0
N254 N 0.91484 0.55916 0.2711 0.0
C255 C 0.86092 0.56963 0.26272 0.0
C256 C 0.83112 0.52177 0.25273 0.0
C257 C 0.65595 0.26499 0.79504 0.0
C258 C 0.62182 0.22358 0.80665 0.0
C259 C 0.71305 0.25287 0.78901 0.0
C260 C 0.73774 0.1994 0.7948 0.0
H261 H 0.63633 0.30374 0.78783 0.0
H262 H 0.73567 0.28263 0.7774 0.0
S263 S 0.6696 0.08182 0.82954 0.0
N264 N 0.61876 0.13126 0.82692 0.0
N265 N 0.72706 0.10893 0.81634 0.0
C266 C 0.70665 0.16136 0.80951 0.0
C267 C 0.6481 0.17334 0.81525 0.0
C268 C 0.16862 0.05405 0.00232 0.0
C269 C 0.18694 0.00788 0.98812 0.0
C270 C 0.14005 0.10108 0.99198 0.0
C271 C 0.12807 0.1027 0.96726 0.0
H272 H 0.17915 0.05527 0.02121 0.0
H273 H 0.12851 0.13699 0.00335 0.0
S274 S 0.16139 -0.01159 0.92315 0.0
N275 N 0.18743 0.96383 0.94873 0.0
N276 N 0.13254 0.05168 0.92932 0.0
C277 C 0.14305 0.05493 0.95322 0.0
C278 C 0.1729 0.0076 0.96367 0.0
C279 C 0.17992 0.71255 0.99106 0.0
C280 C 0.20789 0.75149 0.97577 0.0
C281 C 0.12216 0.69856 0.98756 0.0
C282 C 0.09035 0.72298 0.96863 0.0
H283 H 0.20114 0.69731 0.00718 0.0
H284 H 0.1012 0.67168 0.00081 0.0
S285 S 0.14673 0.81911 0.92117 0.0
N286 N 0.20221 0.80793 0.93913 0.0
N287 N 0.09314 0.78105 0.93239 0.0
C288 C 0.11955 0.75646 0.95158 0.0
C289 C 0.17868 0.7708 0.95518 0.0
C290 C 0.84139 0.90864 0.98783 0.0
C291 C 0.81538 0.85399 0.98719 0.0
C292 C 0.81019 0.95742 0.99484 0.0
C293 C 0.75178 0.95303 0.00082 0.0
H294 H 0.88577 0.91395 0.9824 0.0
H295 H 0.83099 -0.00087 0.99431 0.0
S296 S 0.66467 0.81975 0.00347 0.0
N297 N 0.72885 0.79798 0.99466 0.0
N298 N 0.66986 0.89011 0.00706 0.0
C299 C 0.72587 0.89853 0.00109 0.0
C300 C 0.75783 0.84878 0.99448 0.0
C301 C 0.77648 0.17446 0.93747 0.0
C302 C 0.74731 0.20918 0.95417 0.0
C303 C 0.83346 0.18678 0.93096 0.0
C304 C 0.86173 0.23476 0.94058 0.0
H305 H 0.75821 0.13372 0.93191 0.0
H306 H 0.85732 0.15524 0.92071 0.0
S307 S 0.79925 0.34609 0.98011 0.0
N308 N 0.7472 0.29848 0.97663 0.0
N309 N 0.85351 0.32255 0.96379 0.0
C310 C 0.83004 0.27408 0.95432 0.0
C311 C 0.77275 0.26108 0.96127 0.0
C312 C 0.6429 0.90508 0.75593 0.0
C313 C 0.66948 0.8506 0.75552 0.0
C314 C 0.67403 0.95507 0.75058 0.0
C315 C 0.73291 0.95202 0.74528 0.0
H316 H 0.59804 0.90923 0.76083 0.0
H317 H 0.65258 -0.00356 0.75171 0.0
S318 S 0.82185 0.81998 0.74053 0.0
N319 N 0.75732 0.79648 0.74797 0.0
N320 N 0.81606 0.89073 0.7386 0.0
C321 C 0.75956 0.89785 0.74409 0.0
C322 C 0.72771 0.84695 0.74901 0.0
C323 C 0.84936 0.2715 0.29731 0.0
C324 C 0.87885 0.23044 0.28359 0.0
C325 C 0.79267 0.28718 0.29138 0.0
C326 C 0.76474 0.26236 0.27154 0.0
H327 H 0.87201 0.29591 0.31086 0.0
H328 H 0.77345 0.3235 0.30053 0.0
S329 S 0.81926 0.14314 0.23402 0.0
N330 N 0.87262 0.15753 0.2526 0.0
N331 N 0.76668 0.18768 0.24127 0.0
C332 C 0.7913 0.2161 0.25989 0.0
C333 C 0.84844 0.19997 0.26597 0.0
C334 C 0.30828 0.0069 0.77804 0.0
C335 C 0.3001 0.001 0.75323 0.0
C336 C 0.33739 0.05431 0.78745 0.0
C337 C 0.35817 0.09801 0.77237 0.0
H338 H 0.2908 0.97529 0.79033 0.0
H339 H 0.34136 0.05793 0.80671 0.0
S340 S 0.35137 0.10063 0.70599 0.0
N341 N 0.31819 0.04053 0.71365 0.0
N342 N 0.37217 0.13063 0.73133 0.0
C343 C 0.35229 0.09152 0.74745 0.0
C344 C 0.3235 0.04262 0.73786 0.0
C345 C 0.13605 0.78889 0.27371 0.0
C346 C 0.1037 0.75651 0.29016 0.0
C347 C 0.19387 0.77617 0.26954 0.0
C348 C 0.22107 0.73067 0.2817 0.0
H349 H 0.11516 0.82074 0.26241 0.0
H350 H 0.21544 0.79768 0.25485 0.0
S351 S 0.15807 0.64072 0.32985 0.0
N352 N 0.10494 0.68357 0.32136 0.0
N353 N 0.21425 0.65932 0.3135 0.0
C354 C 0.19139 0.70324 0.30045 0.0
C355 C 0.13221 0.71619 0.30467 0.0
C356 C 0.67147 0.55037 0.50949 0.0
C357 C 0.6881 0.50526 0.49436 0.0
C358 C 0.64365 0.59912 0.50022 0.0
C359 C 0.63065 0.60357 0.47566 0.0
H360 H 0.68274 0.54938 0.52832 0.0
H361 H 0.63341 0.63408 0.5123 0.0
S362 S 0.66003 0.49346 0.42926 0.0
N363 N 0.68645 0.4656 0.4542 0.0
N364 N 0.63271 0.55656 0.43678 0.0
C365 C 0.6441 0.55702 0.46065 0.0
C366 C 0.67333 0.50798 0.47002 0.0
C367 C 0.6837 0.20608 0.49194 0.0
C368 C 0.71253 0.24709 0.47796 0.0
C369 C 0.62678 0.19136 0.48694 0.0
C370 C 0.59677 0.21742 0.46787 0.0
H371 H 0.70326 0.18972 0.50823 0.0
H372 H 0.60453 0.16326 0.49936 0.0
S373 S 0.65642 0.31946 0.42344 0.0
N374 N 0.71009 0.3071 0.44221 0.0
N375 N 0.60234 0.27934 0.43287 0.0
C376 C 0.62717 0.25293 0.45201 0.0
C377 C 0.68552 0.26781 0.45706 0.0
C378 C 0.286 0.42648 0.50832 0.0
C379 C 0.27297 0.46821 0.4909 0.0
C380 C 0.3154 0.37595 0.50212 0.0
C381 C 0.33384 0.36666 0.47848 0.0
H382 H 0.27125 0.43181 0.52657 0.0
H383 H 0.3233 0.34378 0.51583 0.0
S384 S 0.31297 0.46537 0.4268 0.0
N385 N 0.28187 0.49851 0.44947 0.0
N386 N 0.33892 0.40459 0.43786 0.0
C387 C 0.32302 0.40943 0.46117 0.0
C388 C 0.29201 0.46002 0.46738 0.0
C389 C 0.33583 0.7838 0.46528 0.0
C390 C 0.36907 0.74977 0.4498 0.0
C391 C 0.27796 0.77118 0.46932 0.0
C392 C 0.25179 0.72408 0.45803 0.0
H393 H 0.35621 0.81633 0.47627 0.0
H394 H 0.25572 0.79388 0.48349 0.0
S395 S 0.31737 0.62992 0.41208 0.0
N396 N 0.36981 0.6738 0.42011 0.0
N397 N 0.26036 0.64984 0.42763 0.0
C398 C 0.28229 0.69517 0.43995 0.0
C399 C 0.34151 0.70798 0.43589 0.0
C400 C 0.29375 0.17551 0.37133 0.0
C401 C 0.27754 0.17326 0.39554 0.0
C402 C 0.25239 0.17669 0.35304 0.0
C403 C 0.19314 0.17677 0.35824 0.0
H404 H 0.33876 0.17769 0.36645 0.0
H405 H 0.26711 0.18001 0.3347 0.0
S406 S 0.12786 0.16715 0.41862 0.0
N407 N 0.19783 0.16744 0.42368 0.0
N408 N 0.12034 0.17091 0.38926 0.0
C409 C 0.17628 0.17247 0.3823 0.0
C410 C 0.2184 0.17033 0.40095 0.0
C411 C 0.23643 0.69233 0.61358 0.0
C412 C 0.23347 0.72347 0.592 0.0
C413 C 0.23761 0.72069 0.63564 0.0
C414 C 0.2374 0.78117 0.6369 0.0
H415 H 0.23471 0.6457 0.61351 0.0
H416 H 0.23724 0.69502 0.65188 0.0
S417 S 0.23668 0.88243 0.58544 0.0
N418 N 0.23457 0.81791 0.57309 0.0
N419 N 0.23869 0.87133 0.61465 0.0
C420 C 0.2382 0.81283 0.61542 0.0
C421 C 0.23566 0.78393 0.59293 0.0
C422 C 0.75289 0.80043 0.39731 0.0
C423 C 0.69437 0.80615 0.39121 0.0
C424 C 0.79578 0.80035 0.37968 0.0
C425 C 0.78192 0.80723 0.35532 0.0
H426 H 0.76556 0.79325 0.41575 0.0
H427 H 0.84 0.79353 0.38515 0.0
S428 S 0.63542 0.82947 0.33022 0.0
N429 N 0.62507 0.82245 0.35931 0.0
N430 N 0.70551 0.8238 0.32621 0.0
C431 C 0.72378 0.81613 0.34912 0.0
C432 C 0.68005 0.81514 0.36705 0.0
C433 C 0.74692 0.19626 0.63493 0.0
C434 C 0.75104 0.22822 0.65621 0.0
C435 C 0.74532 0.22366 0.61257 0.0
C436 C 0.74625 0.28404 0.61068 0.0
H437 H 0.74814 0.14962 0.63542 0.0
H438 H 0.74493 0.19727 0.59661 0.0
S439 S 0.75001 0.38745 0.66115 0.0
N440 N 0.75176 0.32345 0.67414 0.0
N441 N 0.74681 0.37513 0.63207 0.0
C442 C 0.74653 0.31661 0.63187 0.0
C443 C 0.74951 0.28864 0.65466 0.0
C444 C 0.24814 0.30823 0.89276 0.0
C445 C 0.19106 0.30731 0.88428 0.0
C446 C 0.29488 0.30703 0.87695 0.0
C447 C 0.28643 0.30604 0.85202 0.0
H448 H 0.25697 0.30662 0.9118 0.0
H449 H 0.33792 0.30488 0.88436 0.0
S450 S 0.14544 0.31058 0.82065 0.0
N451 N 0.12871 0.31024 0.84936 0.0
N452 N 0.21639 0.30941 0.81958 0.0
C453 C 0.22959 0.30916 0.84329 0.0
C454 C 0.18196 0.30936 0.85942 0.0
C455 C 0.2393 0.69409 0.12757 0.0
C456 C 0.24227 0.72456 0.14923 0.0
C457 C 0.23881 0.72318 0.10557 0.0
C458 C 0.23973 0.7837 0.1045 0.0
H459 H 0.24062 0.64744 0.12754 0.0
H460 H 0.23937 0.69805 0.08926 0.0
S461 S 0.24083 0.88331 0.15627 0.0
N462 N 0.24188 0.81837 0.16842 0.0
N463 N 0.23913 0.87316 0.12703 0.0
C464 C 0.23884 0.81468 0.12607 0.0
C465 C 0.24066 0.78504 0.14847 0.0
C466 C 0.72586 0.6849 0.89251 0.0
C467 C 0.78582 0.68778 0.88918 0.0
C468 C 0.6879 0.68408 0.87297 0.0
C469 C 0.70851 0.6847 0.84934 0.0
H470 H 0.70791 0.68486 0.91039 0.0
H471 H 0.64208 0.68308 0.8764 0.0
S472 S 0.86181 0.68997 0.83089 0.0
N473 N 0.86404 0.69024 0.86043 0.0
N474 N 0.79298 0.68721 0.82369 0.0
C475 C 0.76846 0.6861 0.84575 0.0
C476 C 0.80703 0.68807 0.86566 0.0
C477 C 0.73073 0.28634 0.09376 0.0
C478 C 0.73568 0.22606 0.09209 0.0
C479 C 0.73295 0.3142 0.11601 0.0
C480 C 0.73881 0.28256 0.13738 0.0
H481 H 0.72313 0.31206 0.07785 0.0
H482 H 0.72658 0.36041 0.11654 0.0
S483 S 0.75925 0.12469 0.14276 0.0
N484 N 0.75204 0.13625 0.11373 0.0
N485 N 0.75442 0.18861 0.15547 0.0
C486 C 0.74673 0.22272 0.1359 0.0
C487 C 0.7457 0.19446 0.11326 0.0
C488 C 0.96788 0.97796 0.23813 0.0
C489 C 0.97506 0.94048 0.25772 0.0
C490 C -0.00199 0.03009 0.23689 0.0
C491 C 0.03649 0.04612 0.25515 0.0
H492 H 0.93775 0.96767 0.22397 0.0
H493 H 0.98891 0.05919 0.22216 0.0
S494 S 0.07771 0.95898 0.3082 0.0
N495 N 0.02865 0.92004 0.29435 0.0
N496 N 0.08485 0.01801 0.29196 0.0
C497 C 0.04646 0.00758 0.2741 0.0
C498 C 0.01577 0.95479 0.27543 0.0
C499 C 0.95327 0.9827 0.70515 0.0
C500 C 0.96046 0.04232 0.7088 0.0
C501 C 0.00055 0.94535 0.70468 0.0
C502 C 0.05654 0.96666 0.70726 0.0
H503 H 0.91072 0.96457 0.70287 0.0
H504 H -0.00664 0.89983 0.7017 0.0
S505 S 0.09828 0.11858 0.71824 0.0
N506 N 0.02746 0.12041 0.71607 0.0
N507 N 0.1168 0.0505 0.71448 0.0
C508 C 0.06433 0.02602 0.71118 0.0
C509 C 0.0161 0.06381 0.71216 0.0
C510 C -0.00542 0.45435 0.96534 0.0
C511 C -0.0064 0.41588 0.9848 0.0
C512 C 0.96703 0.50758 0.96646 0.0
C513 C 0.93754 0.52509 0.98718 0.0
H514 H 0.01643 0.44322 0.94887 0.0
H515 H 0.96992 0.53558 0.95097 0.0
S516 S 0.92063 0.43996 0.04304 0.0
N517 N 0.95951 0.39842 0.0254 0.0
N518 N 0.90815 0.49943 0.02759 0.0
C519 C 0.93606 0.48722 0.00686 0.0
C520 C 0.96409 0.43253 0.00568 0.0
C521 C 0.45743 0.98212 0.01862 0.0
C522 C 0.43283 0.96647 0.04063 0.0
C523 C 0.50088 0.02386 0.01756 0.0
C524 C 0.52168 0.04999 0.03854 0.0
H525 H 0.44197 0.96317 0.00213 0.0
H526 H 0.51919 0.03457 0.00033 0.0
S527 S 0.47175 0.02284 0.10047 0.0
N528 N 0.43162 0.98033 0.0837 0.0
N529 N 0.51507 0.05687 0.08181 0.0
C530 C 0.49778 0.03408 0.0606 0.0
C531 C 0.4528 -0.00723 0.06162 0.0
C532 C 0.51043 0.44219 0.77601 0.0
C533 C 0.50113 0.40814 0.75561 0.0
C534 C 0.53813 0.49517 0.77446 0.0
C535 C 0.55735 0.51709 0.75239 0.0
H536 H 0.49675 0.42776 0.79355 0.0
H537 H 0.54333 0.51958 0.79082 0.0
S538 S 0.545 0.44443 0.69347 0.0
N539 N 0.51465 0.3994 0.71254 0.0
N540 N 0.56629 0.5 0.70957 0.0
C541 C 0.54908 0.48336 0.73177 0.0
C542 C 0.52095 0.42882 0.73338 0.0
C543 C 0.5425 0.51901 0.20101 0.0
C544 C 0.53751 0.45852 0.2014 0.0
C545 C 0.49415 0.55445 0.20351 0.0
C546 C 0.43918 0.5305 0.20586 0.0
H547 H 0.58419 0.53923 0.19908 0.0
H548 H 0.49966 0.60077 0.20308 0.0
S549 S 0.40313 0.37492 0.20856 0.0
N550 N 0.47364 0.37637 0.20512 0.0
N551 N 0.38227 0.44293 0.20911 0.0
C552 C 0.43356 0.47015 0.20637 0.0
C553 C 0.48291 0.43413 0.20434 0.0
C554 C 0.48284 0.01557 0.4743 0.0
C555 C 0.45172 0.03412 0.49446 0.0
C556 C 0.5118 0.96305 0.47421 0.0
C557 C 0.51066 0.92617 0.49417 0.0
H558 H 0.48542 0.04195 0.45831 0.0
H559 H 0.53423 0.95082 0.45801 0.0
S560 S 0.43676 0.95489 0.55185 0.0
N561 N 0.42291 0.01234 0.53531 0.0
N562 N 0.47682 0.9124 0.53506 0.0
C563 C 0.48082 0.9445 0.51475 0.0
C564 C 0.45137 -0.00138 0.51488 0.0
C565 C 0.98809 0.44096 0.54241 0.0
C566 C 0.93259 0.4642 0.5408 0.0
C567 C 0.03639 0.47652 0.54076 0.0
C568 C 0.0307 0.53624 0.53683 0.0
H569 H -0.0058 0.39524 0.54544 0.0
H570 H 0.07854 0.45692 0.54238 0.0
S571 S 0.89441 0.61736 0.52981 0.0
N572 N 0.87421 0.55004 0.53432 0.0
N573 N 0.96541 0.61666 0.53055 0.0
C574 C 0.97543 0.55974 0.53453 0.0
C575 C 0.92619 0.52374 0.53672 0.0
loop_
_geom_bond_atom_site_label_1
_geom_bond_atom_site_label_2
_geom_bond_distance
_geom_bond_site_symmetry_2
_ccdc_geom_bond_type
C0 O1 1.306 . S
C0 O3 1.160 . S
O1 C0 1.306 . S
O1 Cd2 2.228 . S
Cd2 O1 2.228 . S
Cd2 O6 2.273 . S
Cd2 O10 2.277 . S
O3 C0 1.160 . S
O3 Cd4 2.203 . S
Cd4 O3 2.203 . S
Cd4 O6 2.411 . S
Cd4 O7 2.333 . S
Cd4 O8 2.352 . S
Cd4 O12 2.277 . S
Cd4 O13 2.356 . S
C5 O10 1.209 1_655 S
C5 O12 1.226 1_655 S
O6 Cd2 2.273 . S
O6 Cd4 2.411 . S
O6 C9 1.320 . S
O7 Cd4 2.333 . S
O7 C9 1.214 . S
O8 Cd4 2.352 . S
O8 C11 1.258 . S
C9 O6 1.320 . S
C9 O7 1.214 . S
O10 Cd2 2.277 . S
O10 C5 1.209 1_455 S
C11 O8 1.258 . S
C11 O13 1.282 . S
O12 Cd4 2.277 . S
O12 C5 1.226 1_455 S
O13 Cd4 2.356 . S
O13 C11 1.282 . S
C14 O15 1.306 . S
C14 O17 1.160 . S
O15 C14 1.306 . S
O15 Cd16 2.228 . S
Cd16 O15 2.228 . S
Cd16 O20 2.273 . S
Cd16 O24 2.277 . S
O17 C14 1.160 . S
O17 Cd18 2.203 . S
Cd18 O17 2.203 . S
Cd18 O20 2.411 . S
Cd18 O21 2.333 . S
Cd18 O22 2.352 . S
Cd18 O26 2.277 . S
Cd18 O27 2.356 . S
C19 O24 1.209 1_545 S
C19 O26 1.226 1_545 S
O20 Cd16 2.273 . S
O20 Cd18 2.411 . S
O20 C23 1.320 . S
O21 Cd18 2.333 . S
O21 C23 1.214 . S
O22 Cd18 2.352 . S
O22 C25 1.258 . S
C23 O20 1.320 . S
C23 O21 1.214 . S
O24 Cd16 2.277 . S
O24 C19 1.209 1_565 S
C25 O22 1.258 . S
C25 O27 1.282 . S
O26 Cd18 2.277 . S
O26 C19 1.226 1_565 S
O27 Cd18 2.356 . S
O27 C25 1.282 . S
C28 O29 1.306 . S
C28 O31 1.160 . S
O29 C28 1.306 . S
O29 Cd30 2.228 . S
Cd30 O29 2.228 . S
Cd30 O34 2.273 . S
Cd30 O38 2.277 . S
O31 C28 1.160 . S
O31 Cd32 2.203 . S
Cd32 O31 2.203 . S
Cd32 O34 2.411 . S
Cd32 O35 2.333 . S
Cd32 O36 2.352 . S
Cd32 O40 2.277 . S
Cd32 O41 2.356 . S
C33 O38 1.209 1_455 S
C33 O40 1.226 1_455 S
O34 Cd30 2.273 . S
O34 Cd32 2.411 . S
O34 C37 1.320 . S
O35 Cd32 2.333 . S
O35 C37 1.214 . S
O36 Cd32 2.352 . S
O36 C39 1.258 . S
C37 O34 1.320 . S
C37 O35 1.214 . S
O38 Cd30 2.277 . S
O38 C33 1.209 1_655 S
C39 O36 1.258 . S
C39 O41 1.282 . S
O40 Cd32 2.277 . S
O40 C33 1.226 1_655 S
O41 Cd32 2.356 . S
O41 C39 1.282 . S
C42 O43 1.306 . S
C42 O45 1.160 . S
O43 C42 1.306 . S
O43 Cd44 2.228 . S
Cd44 O43 2.228 . S
Cd44 O48 2.273 . S
Cd44 O52 2.277 . S
O45 C42 1.160 . S
O45 Cd46 2.203 . S
Cd46 O45 2.203 . S
Cd46 O48 2.411 . S
Cd46 O49 2.333 . S
Cd46 O50 2.352 . S
Cd46 O54 2.277 . S
Cd46 O55 2.356 . S
C47 O52 1.209 1_565 S
C47 O54 1.226 1_565 S
O48 Cd44 2.273 . S
O48 Cd46 2.411 . S
O48 C51 1.320 . S
O49 Cd46 2.333 . S
O49 C51 1.214 . S
O50 Cd46 2.352 . S
O50 C53 1.258 . S
C51 O48 1.320 . S
C51 O49 1.214 . S
O52 Cd44 2.277 . S
O52 C47 1.209 1_545 S
C53 O50 1.258 . S
C53 O55 1.282 . S
O54 Cd46 2.277 . S
O54 C47 1.226 1_545 S
O55 Cd46 2.356 . S
O55 C53 1.282 . S
C56 O57 1.306 . S
C56 O59 1.160 . S
O57 C56 1.306 . S
O57 Cd58 2.228 1_556 S
Cd58 O57 2.228 1_554 S
Cd58 O62 2.273 1_554 S
Cd58 O66 2.277 1_554 S
O59 C56 1.160 . S
O59 Cd60 2.203 . S
Cd60 O59 2.203 . S
Cd60 O62 2.411 . S
Cd60 O63 2.333 . S
Cd60 O64 2.352 . S
Cd60 O68 2.277 . S
Cd60 O69 2.356 . S
C61 O66 1.209 1_655 S
C61 O68 1.226 1_655 S
O62 Cd58 2.273 1_556 S
O62 Cd60 2.411 . S
O62 C65 1.320 . S
O63 Cd60 2.333 . S
O63 C65 1.214 . S
O64 Cd60 2.352 . S
O64 C67 1.258 . S
C65 O62 1.320 . S
C65 O63 1.214 . S
O66 Cd58 2.277 1_556 S
O66 C61 1.209 1_455 S
C67 O64 1.258 . S
C67 O69 1.282 . S
O68 Cd60 2.277 . S
O68 C61 1.226 1_455 S
O69 Cd60 2.356 . S
O69 C67 1.282 . S
C70 O71 1.306 1_554 S
C70 O73 1.160 . S
O71 C70 1.306 1_556 S
O71 Cd72 2.228 . S
Cd72 O71 2.228 . S
Cd72 O76 2.273 1_556 S
Cd72 O80 2.277 1_556 S
O73 C70 1.160 . S
O73 Cd74 2.203 . S
Cd74 O73 2.203 . S
Cd74 O76 2.411 . S
Cd74 O77 2.333 . S
Cd74 O78 2.352 . S
Cd74 O82 2.277 . S
Cd74 O83 2.356 . S
C75 O80 1.209 1_545 S
C75 O82 1.226 1_545 S
O76 Cd72 2.273 1_554 S
O76 Cd74 2.411 . S
O76 C79 1.320 . S
O77 Cd74 2.333 . S
O77 C79 1.214 . S
O78 Cd74 2.352 . S
O78 C81 1.258 . S
C79 O76 1.320 . S
C79 O77 1.214 . S
O80 Cd72 2.277 1_554 S
O80 C75 1.209 1_565 S
C81 O78 1.258 . S
C81 O83 1.282 . S
O82 Cd74 2.277 . S
O82 C75 1.226 1_565 S
O83 Cd74 2.356 . S
O83 C81 1.282 . S
C84 O85 1.306 . S
C84 O87 1.160 . S
O85 C84 1.306 . S
O85 Cd86 2.228 1_556 S
Cd86 O85 2.228 1_554 S
Cd86 O90 2.273 1_554 S
Cd86 O94 2.277 1_554 S
O87 C84 1.160 . S
O87 Cd88 2.203 . S
Cd88 O87 2.203 . S
Cd88 O90 2.411 . S
Cd88 O91 2.333 . S
Cd88 O92 2.352 . S
Cd88 O96 2.277 . S
Cd88 O97 2.356 . S
C89 O94 1.209 1_455 S
C89 O96 1.226 1_455 S
O90 Cd86 2.273 1_556 S
O90 Cd88 2.411 . S
O90 C93 1.320 . S
O91 Cd88 2.333 . S
O91 C93 1.214 . S
O92 Cd88 2.352 . S
O92 C95 1.258 . S
C93 O90 1.320 . S
C93 O91 1.214 . S
O94 Cd86 2.277 1_556 S
O94 C89 1.209 1_655 S
C95 O92 1.258 . S
C95 O97 1.282 . S
O96 Cd88 2.277 . S
O96 C89 1.226 1_655 S
O97 Cd88 2.356 . S
O97 C95 1.282 . S
C98 O99 1.306 1_554 S
C98 O101 1.160 . S
O99 C98 1.306 1_556 S
O99 Cd100 2.228 . S
Cd100 O99 2.228 . S
Cd100 O104 2.273 1_556 S
Cd100 O108 2.277 1_556 S
O101 C98 1.160 . S
O101 Cd102 2.203 . S
Cd102 O101 2.203 . S
Cd102 O104 2.411 . S
Cd102 O105 2.333 . S
Cd102 O106 2.352 . S
Cd102 O110 2.277 . S
Cd102 O111 2.356 . S
C103 O108 1.209 1_565 S
C103 O110 1.226 1_565 S
O104 Cd100 2.273 1_554 S
O104 Cd102 2.411 . S
O104 C107 1.320 . S
O105 Cd102 2.333 . S
O105 C107 1.214 . S
O106 Cd102 2.352 . S
O106 C109 1.258 . S
C107 O104 1.320 . S
C107 O105 1.214 . S
O108 Cd100 2.277 1_554 S
O108 C103 1.209 1_545 S
C109 O106 1.258 . S
C109 O111 1.282 . S
O110 Cd102 2.277 . S
O110 C103 1.226 1_545 S
O111 Cd102 2.356 . S
O111 C109 1.282 . S
C112 O113 1.306 . S
C112 O115 1.160 . S
O113 C112 1.306 . S
O113 Cd114 2.228 . S
Cd114 O113 2.228 . S
Cd114 O118 2.273 . S
Cd114 O122 2.277 . S
O115 C112 1.160 . S
O115 Cd116 2.203 . S
Cd116 O115 2.203 . S
Cd116 O118 2.411 . S
Cd116 O119 2.333 . S
Cd116 O120 2.352 . S
Cd116 O124 2.277 . S
Cd116 O125 2.356 . S
C117 O122 1.209 . S
C117 O124 1.226 . S
O118 Cd114 2.273 . S
O118 Cd116 2.411 . S
O118 C121 1.320 . S
O119 Cd116 2.333 . S
O119 C121 1.214 . S
O120 Cd116 2.352 . S
O120 C123 1.258 . S
C121 O118 1.320 . S
C121 O119 1.214 . S
O122 Cd114 2.277 . S
O122 C117 1.209 . S
C123 O120 1.258 . S
C123 O125 1.282 . S
O124 Cd116 2.277 . S
O124 C117 1.226 . S
O125 Cd116 2.356 . S
O125 C123 1.282 . S
C126 O127 1.306 . S
C126 O129 1.160 . S
O127 C126 1.306 . S
O127 Cd128 2.228 . S
Cd128 O127 2.228 . S
Cd128 O132 2.273 . S
Cd128 O136 2.277 . S
O129 C126 1.160 . S
O129 Cd130 2.203 . S
Cd130 O129 2.203 . S
Cd130 O132 2.411 . S
Cd130 O133 2.333 . S
Cd130 O134 2.352 . S
Cd130 O138 2.277 . S
Cd130 O139 2.356 . S
C131 O136 1.209 . S
C131 O138 1.226 . S
O132 Cd128 2.273 . S
O132 Cd130 2.411 . S
O132 C135 1.320 . S
O133 Cd130 2.333 . S
O133 C135 1.214 . S
O134 Cd130 2.352 . S
O134 C137 1.258 . S
C135 O132 1.320 . S
C135 O133 1.214 . S
O136 Cd128 2.277 . S
O136 C131 1.209 . S
C137 O134 1.258 . S
C137 O139 1.282 . S
O138 Cd130 2.277 . S
O138 C131 1.226 . S
O139 Cd130 2.356 . S
O139 C137 1.282 . S
C140 O141 1.306 . S
C140 O143 1.160 . S
O141 C140 1.306 . S
O141 Cd142 2.228 . S
Cd142 O141 2.228 . S
Cd142 O146 2.273 . S
Cd142 O150 2.277 . S
O143 C140 1.160 . S
O143 Cd144 2.203 . S
Cd144 O143 2.203 . S
Cd144 O146 2.411 . S
Cd144 O147 2.333 . S
Cd144 O148 2.352 . S
Cd144 O152 2.277 . S
Cd144 O153 2.356 . S
C145 O150 1.209 . S
C145 O152 1.226 . S
O146 Cd142 2.273 . S
O146 Cd144 2.411 . S
O146 C149 1.320 . S
O147 Cd144 2.333 . S
O147 C149 1.214 . S
O148 Cd144 2.352 . S
O148 C151 1.258 . S
C149 O146 1.320 . S
C149 O147 1.214 . S
O150 Cd142 2.277 . S
O150 C145 1.209 . S
C151 O148 1.258 . S
C151 O153 1.282 . S
O152 Cd144 2.277 . S
O152 C145 1.226 . S
O153 Cd144 2.356 . S
O153 C151 1.282 . S
C154 O155 1.306 . S
C154 O157 1.160 . S
O155 C154 1.306 . S
O155 Cd156 2.228 . S
Cd156 O155 2.228 . S
Cd156 O160 2.273 . S
Cd156 O164 2.277 . S
O157 C154 1.160 . S
O157 Cd158 2.203 . S
Cd158 O157 2.203 . S
Cd158 O160 2.411 . S
Cd158 O161 2.333 . S
Cd158 O162 2.352 . S
Cd158 O166 2.277 . S
Cd158 O167 2.356 . S
C159 O164 1.209 . S
C159 O166 1.226 . S
O160 Cd156 2.273 . S
O160 Cd158 2.411 . S
O160 C163 1.320 . S
O161 Cd158 2.333 . S
O161 C163 1.214 . S
O162 Cd158 2.352 . S
O162 C165 1.258 . S
C163 O160 1.320 . S
C163 O161 1.214 . S
O164 Cd156 2.277 . S
O164 C159 1.209 . S
C165 O162 1.258 . S
C165 O167 1.282 . S
O166 Cd158 2.277 . S
O166 C159 1.226 . S
O167 Cd158 2.356 . S
O167 C165 1.282 . S
C168 O169 1.306 . S
C168 O171 1.160 . S
O169 C168 1.306 . S
O169 Cd170 2.228 . S
Cd170 O169 2.228 . S
Cd170 O174 2.273 . S
Cd170 O178 2.277 . S
O171 C168 1.160 . S
O171 Cd172 2.203 . S
Cd172 O171 2.203 . S
Cd172 O174 2.411 . S
Cd172 O175 2.333 . S
Cd172 O176 2.352 . S
Cd172 O180 2.277 . S
Cd172 O181 2.356 . S
C173 O178 1.209 . S
C173 O180 1.226 . S
O174 Cd170 2.273 . S
O174 Cd172 2.411 . S
O174 C177 1.320 . S
O175 Cd172 2.333 . S
O175 C177 1.214 . S
O176 Cd172 2.352 . S
O176 C179 1.258 . S
C177 O174 1.320 . S
C177 O175 1.214 . S
O178 Cd170 2.277 . S
O178 C173 1.209 . S
C179 O176 1.258 . S
C179 O181 1.282 . S
O180 Cd172 2.277 . S
O180 C173 1.226 . S
O181 Cd172 2.356 . S
O181 C179 1.282 . S
C182 O183 1.306 . S
C182 O185 1.160 . S
O183 C182 1.306 . S
O183 Cd184 2.228 . S
Cd184 O183 2.228 . S
Cd184 O188 2.273 . S
Cd184 O192 2.277 . S
O185 C182 1.160 . S
O185 Cd186 2.203 . S
Cd186 O185 2.203 . S
Cd186 O188 2.411 . S
Cd186 O189 2.333 . S
Cd186 O190 2.352 . S
Cd186 O194 2.277 . S
Cd186 O195 2.356 . S
C187 O192 1.209 . S
C187 O194 1.226 . S
O188 Cd184 2.273 . S
O188 Cd186 2.411 . S
O188 C191 1.320 . S
O189 Cd186 2.333 . S
O189 C191 1.214 . S
O190 Cd186 2.352 . S
O190 C193 1.258 . S
C191 O188 1.320 . S
C191 O189 1.214 . S
O192 Cd184 2.277 . S
O192 C187 1.209 . S
C193 O190 1.258 . S
C193 O195 1.282 . S
O194 Cd186 2.277 . S
O194 C187 1.226 . S
O195 Cd186 2.356 . S
O195 C193 1.282 . S
C196 O197 1.306 . S
C196 O199 1.160 . S
O197 C196 1.306 . S
O197 Cd198 2.228 . S
Cd198 O197 2.228 . S
Cd198 O202 2.273 . S
Cd198 O206 2.277 . S
O199 C196 1.160 . S
O199 Cd200 2.203 . S
Cd200 O199 2.203 . S
Cd200 O202 2.411 . S
Cd200 O203 2.333 . S
Cd200 O204 2.352 . S
Cd200 O208 2.277 . S
Cd200 O209 2.356 . S
C201 O206 1.209 . S
C201 O208 1.226 . S
O202 Cd198 2.273 . S
O202 Cd200 2.411 . S
O202 C205 1.320 . S
O203 Cd200 2.333 . S
O203 C205 1.214 . S
O204 Cd200 2.352 . S
O204 C207 1.258 . S
C205 O202 1.320 . S
C205 O203 1.214 . S
O206 Cd198 2.277 . S
O206 C201 1.209 . S
C207 O204 1.258 . S
C207 O209 1.282 . S
O208 Cd200 2.277 . S
O208 C201 1.226 . S
O209 Cd200 2.356 . S
O209 C207 1.282 . S
C210 O211 1.306 . S
C210 O213 1.160 . S
O211 C210 1.306 . S
O211 Cd212 2.228 . S
Cd212 O211 2.228 . S
Cd212 O216 2.273 . S
Cd212 O220 2.277 . S
O213 C210 1.160 . S
O213 Cd214 2.203 . S
Cd214 O213 2.203 . S
Cd214 O216 2.411 . S
Cd214 O217 2.333 . S
Cd214 O218 2.352 . S
Cd214 O222 2.277 . S
Cd214 O223 2.356 . S
C215 O220 1.209 . S
C215 O222 1.226 . S
O216 Cd212 2.273 . S
O216 Cd214 2.411 . S
O216 C219 1.320 . S
O217 Cd214 2.333 . S
O217 C219 1.214 . S
O218 Cd214 2.352 . S
O218 C221 1.258 . S
C219 O216 1.320 . S
C219 O217 1.214 . S
O220 Cd212 2.277 . S
O220 C215 1.209 . S
C221 O218 1.258 . S
C221 O223 1.282 . S
O222 Cd214 2.277 . S
O222 C215 1.226 . S
O223 Cd214 2.356 . S
O223 C221 1.282 . S
C224 C225 1.369 . S
C224 C226 1.419 . S
C224 H228 0.930 . S
C225 C224 1.369 . S
C225 C234 1.429 . S
C226 C224 1.419 . S
C226 C227 1.363 . S
C226 H229 0.929 . S
C227 C226 1.363 . S
C227 C233 1.428 . S
H228 C224 0.930 . S
H229 C226 0.929 . S
S230 N231 1.613 . S
S230 N232 1.610 . S
N231 S230 1.613 . S
N231 C234 1.350 . S
N232 S230 1.610 . S
N232 C233 1.351 . S
C233 C227 1.428 . S
C233 N232 1.351 . S
C233 C234 1.434 . S
C234 C225 1.429 . S
C234 N231 1.350 . S
C234 C233 1.434 . S
C235 C236 1.369 . S
C235 C237 1.419 . S
C235 H239 0.930 . S
C236 C235 1.369 . S
C236 C245 1.429 . S
C237 C235 1.419 . S
C237 C238 1.363 . S
C237 H240 0.929 . S
C238 C237 1.363 . S
C238 C244 1.428 . S
H239 C235 0.930 . S
H240 C237 0.929 . S
S241 N242 1.613 . S
S241 N243 1.610 . S
N242 S241 1.613 . S
N242 C245 1.350 . S
N243 S241 1.610 . S
N243 C244 1.351 . S
C244 C238 1.428 . S
C244 N243 1.351 . S
C244 C245 1.434 . S
C245 C236 1.429 . S
C245 N242 1.350 . S
C245 C244 1.434 . S
C246 C247 1.369 . S
C246 C248 1.419 . S
C246 H250 0.930 . S
C247 C246 1.369 . S
C247 C256 1.429 . S
C248 C246 1.419 . S
C248 C249 1.363 . S
C248 H251 0.929 . S
C249 C248 1.363 . S
C249 C255 1.428 . S
H250 C246 0.930 . S
H251 C248 0.929 . S
S252 N253 1.613 . S
S252 N254 1.610 . S
N253 S252 1.613 . S
N253 C256 1.350 . S
N254 S252 1.610 . S
N254 C255 1.351 . S
C255 C249 1.428 . S
C255 N254 1.351 . S
C255 C256 1.434 . S
C256 C247 1.429 . S
C256 N253 1.350 . S
C256 C255 1.434 . S
C257 C258 1.369 . S
C257 C259 1.419 . S
C257 H261 0.930 . S
C258 C257 1.369 . S
C258 C267 1.429 . S
C259 C257 1.419 . S
C259 C260 1.363 . S
C259 H262 0.929 . S
C260 C259 1.363 . S
C260 C266 1.428 . S
H261 C257 0.930 . S
H262 C259 0.929 . S
S263 N264 1.613 . S
S263 N265 1.610 . S
N264 S263 1.613 . S
N264 C267 1.350 . S
N265 S263 1.610 . S
N265 C266 1.351 . S
C266 C260 1.428 . S
C266 N265 1.351 . S
C266 C267 1.434 . S
C267 C258 1.429 . S
C267 N264 1.350 . S
C267 C266 1.434 . S
C268 C269 1.369 . S
C268 C270 1.419 . S
C268 H272 0.930 . S
C269 C268 1.369 . S
C269 C278 1.429 1_554 S
C270 C268 1.419 . S
C270 C271 1.363 1_554 S
C270 H273 0.929 . S
C271 C270 1.363 1_556 S
C271 C277 1.428 . S
H272 C268 0.930 . S
H273 C270 0.929 . S
S274 N275 1.613 . S
S274 N276 1.610 . S
N275 S274 1.613 . S
N275 C278 1.350 . S
N276 S274 1.610 . S
N276 C277 1.351 . S
C277 C271 1.428 . S
C277 N276 1.351 . S
C277 C278 1.434 . S
C278 C269 1.429 1_556 S
C278 N275 1.350 . S
C278 C277 1.434 . S
C279 C280 1.369 . S
C279 C281 1.419 . S
C279 H283 0.930 . S
C280 C279 1.369 . S
C280 C289 1.429 . S
C281 C279 1.419 . S
C281 C282 1.363 . S
C281 H284 0.929 . S
C282 C281 1.363 . S
C282 C288 1.428 . S
H283 C279 0.930 . S
H284 C281 0.929 . S
S285 N286 1.610 1_556 S
S285 N287 1.617 . S
N286 S285 1.610 1_554 S
N286 C289 1.350 1_554 S
N287 S285 1.617 . S
N287 C288 1.351 . S
C288 C282 1.428 . S
C288 N287 1.351 . S
C288 C289 1.434 . S
C289 C280 1.429 . S
C289 N286 1.350 1_556 S
C289 C288 1.434 . S
C290 C291 1.369 1_554 S
C290 C292 1.419 . S
C290 H294 0.930 . S
C291 C290 1.369 1_556 S
C291 C300 1.429 . S
C292 C290 1.419 . S
C292 C293 1.363 . S
C292 H295 0.929 . S
C293 C292 1.363 . S
C293 C299 1.428 1_554 S
H294 C290 0.930 . S
H295 C292 0.929 . S
S296 N297 1.613 . S
S296 N298 1.610 . S
N297 S296 1.613 . S
N297 C300 1.350 . S
N298 S296 1.610 . S
N298 C299 1.351 . S
C299 C293 1.428 1_556 S
C299 N298 1.351 . S
C299 C300 1.434 . S
C300 C291 1.429 . S
C300 N297 1.350 . S
C300 C299 1.434 . S
C301 C302 1.369 . S
C301 C303 1.419 . S
C301 H305 0.930 . S
C302 C301 1.369 . S
C302 C311 1.429 . S
C303 C301 1.419 . S
C303 C304 1.363 . S
C303 H306 0.929 . S
C304 C303 1.363 . S
C304 C310 1.428 . S
H305 C301 0.930 . S
H306 C303 0.929 . S
S307 N308 1.613 . S
S307 N309 1.610 . S
N308 S307 1.613 . S
N308 C311 1.350 . S
N309 S307 1.610 . S
N309 C310 1.351 . S
C310 C304 1.428 . S
C310 N309 1.351 . S
C310 C311 1.434 . S
C311 C302 1.429 . S
C311 N308 1.350 . S
C311 C310 1.434 . S
C312 C313 1.369 . S
C312 C314 1.419 . S
C312 H316 0.930 . S
C313 C312 1.369 . S
C313 C322 1.429 . S
C314 C312 1.419 . S
C314 C315 1.363 . S
C314 H317 0.929 . S
C315 C314 1.363 . S
C315 C321 1.428 . S
H316 C312 0.930 . S
H317 C314 0.929 . S
S318 N319 1.613 . S
S318 N320 1.610 . S
N319 S318 1.613 . S
N319 C322 1.350 . S
N320 S318 1.610 . S
N320 C321 1.351 . S
C321 C315 1.428 . S
C321 N320 1.351 . S
C321 C322 1.434 . S
C322 C313 1.429 . S
C322 N319 1.350 . S
C322 C321 1.434 . S
C323 C324 1.369 . S
C323 C325 1.419 . S
C323 H327 0.930 . S
C324 C323 1.369 . S
C324 C333 1.429 . S
C325 C323 1.419 . S
C325 C326 1.363 . S
C325 H328 0.929 . S
C326 C325 1.363 . S
C326 C332 1.428 . S
H327 C323 0.930 . S
H328 C325 0.929 . S
S329 N330 1.613 . S
S329 N331 1.610 . S
N330 S329 1.613 . S
N330 C333 1.350 . S
N331 S329 1.610 . S
N331 C332 1.351 . S
C332 C326 1.428 . S
C332 N331 1.351 . S
C332 C333 1.434 . S
C333 C324 1.429 . S
C333 N330 1.350 . S
C333 C332 1.434 . S
C334 C335 1.369 . S
C334 C336 1.419 . S
C334 H338 0.930 . S
C335 C334 1.369 . S
C335 C344 1.429 . S
C336 C334 1.419 . S
C336 C337 1.363 . S
C336 H339 0.929 . S
C337 C336 1.363 . S
C337 C343 1.428 . S
H338 C334 0.930 . S
H339 C336 0.929 . S
S340 N341 1.613 . S
S340 N342 1.610 . S
N341 S340 1.613 . S
N341 C344 1.350 . S
N342 S340 1.610 . S
N342 C343 1.351 . S
C343 C337 1.428 . S
C343 N342 1.351 . S
C343 C344 1.434 . S
C344 C335 1.429 . S
C344 N341 1.350 . S
C344 C343 1.434 . S
C345 C346 1.369 . S
C345 C347 1.419 . S
C345 H349 0.930 . S
C346 C345 1.369 . S
C346 C355 1.429 . S
C347 C345 1.419 . S
C347 C348 1.363 . S
C347 H350 0.929 . S
C348 C347 1.363 . S
C348 C354 1.428 . S
H349 C345 0.930 . S
H350 C347 0.929 . S
S351 N352 1.613 . S
S351 N353 1.610 . S
N352 S351 1.613 . S
N352 C355 1.350 . S
N353 S351 1.610 . S
N353 C354 1.351 . S
C354 C348 1.428 . S
C354 N353 1.351 . S
C354 C355 1.434 . S
C355 C346 1.429 . S
C355 N352 1.350 . S
C355 C354 1.434 . S
C356 C357 1.369 . S
C356 C358 1.419 . S
C356 H360 0.930 . S
C357 C356 1.369 . S
C357 C366 1.429 . S
C358 C356 1.419 . S
C358 C359 1.363 . S
C358 H361 0.929 . S
C359 C358 1.363 . S
C359 C365 1.428 . S
H360 C356 0.930 . S
H361 C358 0.929 . S
S362 N363 1.613 . S
S362 N364 1.610 . S
N363 S362 1.613 . S
N363 C366 1.350 . S
N364 S362 1.610 . S
N364 C365 1.351 . S
C365 C359 1.428 . S
C365 N364 1.351 . S
C365 C366 1.434 . S
C366 C357 1.429 . S
C366 N363 1.350 . S
C366 C365 1.434 . S
C367 C368 1.369 . S
C367 C369 1.419 . S
C367 H371 0.930 . S
C368 C367 1.369 . S
C368 C377 1.429 . S
C369 C367 1.419 . S
C369 C370 1.363 . S
C369 H372 0.929 . S
C370 C369 1.363 . S
C370 C376 1.428 . S
H371 C367 0.930 . S
H372 C369 0.929 . S
S373 N374 1.613 . S
S373 N375 1.610 . S
N374 S373 1.613 . S
N374 C377 1.350 . S
N375 S373 1.610 . S
N375 C376 1.351 . S
C376 C370 1.428 . S
C376 N375 1.351 . S
C376 C377 1.434 . S
C377 C368 1.429 . S
C377 N374 1.350 . S
C377 C376 1.434 . S
C378 C379 1.369 . S
C378 C380 1.419 . S
C378 H382 0.930 . S
C379 C378 1.369 . S
C379 C388 1.429 . S
C380 C378 1.419 . S
C380 C381 1.363 . S
C380 H383 0.929 . S
C381 C380 1.363 . S
C381 C387 1.428 . S
H382 C378 0.930 . S
H383 C380 0.929 . S
S384 N385 1.613 . S
S384 N386 1.610 . S
N385 S384 1.613 . S
N385 C388 1.350 . S
N386 S384 1.610 . S
N386 C387 1.351 . S
C387 C381 1.428 . S
C387 N386 1.351 . S
C387 C388 1.434 . S
C388 C379 1.429 . S
C388 N385 1.350 . S
C388 C387 1.434 . S
C389 C390 1.369 . S
C389 C391 1.419 . S
C389 H393 0.930 . S
C390 C389 1.369 . S
C390 C399 1.429 . S
C391 C389 1.419 . S
C391 C392 1.363 . S
C391 H394 0.929 . S
C392 C391 1.363 . S
C392 C398 1.428 . S
H393 C389 0.930 . S
H394 C391 0.929 . S
S395 N396 1.613 . S
S395 N397 1.610 . S
N396 S395 1.613 . S
N396 C399 1.350 . S
N397 S395 1.610 . S
N397 C398 1.351 . S
C398 C392 1.428 . S
C398 N397 1.351 . S
C398 C399 1.434 . S
C399 C390 1.429 . S
C399 N396 1.350 . S
C399 C398 1.434 . S
C400 C401 1.369 . S
C400 C402 1.419 . S
C400 H404 0.930 . S
C401 C400 1.369 . S
C401 C410 1.429 . S
C402 C400 1.419 . S
C402 C403 1.363 . S
C402 H405 0.929 . S
C403 C402 1.363 . S
C403 C409 1.428 . S
H404 C400 0.930 . S
H405 C402 0.929 . S
S406 N407 1.613 . S
S406 N408 1.610 . S
N407 S406 1.613 . S
N407 C410 1.350 . S
N408 S406 1.610 . S
N408 C409 1.351 . S
C409 C403 1.428 . S
C409 N408 1.351 . S
C409 C410 1.434 . S
C410 C401 1.429 . S
C410 N407 1.350 . S
C410 C409 1.434 . S
C411 C412 1.369 . S
C411 C413 1.419 . S
C411 H415 0.930 . S
C412 C411 1.369 . S
C412 C421 1.429 . S
C413 C411 1.419 . S
C413 C414 1.363 . S
C413 H416 0.929 . S
C414 C413 1.363 . S
C414 C420 1.428 . S
H415 C411 0.930 . S
H416 C413 0.929 . S
S417 N418 1.613 . S
S417 N419 1.610 . S
N418 S417 1.613 . S
N418 C421 1.350 . S
N419 S417 1.610 . S
N419 C420 1.351 . S
C420 C414 1.428 . S
C420 N419 1.351 . S
C420 C421 1.434 . S
C421 C412 1.429 . S
C421 N418 1.350 . S
C421 C420 1.434 . S
C422 C423 1.369 . S
C422 C424 1.419 . S
C422 H426 0.930 . S
C423 C422 1.369 . S
C423 C432 1.429 . S
C424 C422 1.419 . S
C424 C425 1.363 . S
C424 H427 0.929 . S
C425 C424 1.363 . S
C425 C431 1.428 . S
H426 C422 0.930 . S
H427 C424 0.929 . S
S428 N429 1.613 . S
S428 N430 1.610 . S
N429 S428 1.613 . S
N429 C432 1.350 . S
N430 S428 1.610 . S
N430 C431 1.351 . S
C431 C425 1.428 . S
C431 N430 1.351 . S
C431 C432 1.434 . S
C432 C423 1.429 . S
C432 N429 1.350 . S
C432 C431 1.434 . S
C433 C434 1.369 . S
C433 C435 1.419 . S
C433 H437 0.930 . S
C434 C433 1.369 . S
C434 C443 1.429 . S
C435 C433 1.419 . S
C435 C436 1.363 . S
C435 H438 0.929 . S
C436 C435 1.363 . S
C436 C442 1.428 . S
H437 C433 0.930 . S
H438 C435 0.929 . S
S439 N440 1.613 . S
S439 N441 1.610 . S
N440 S439 1.613 . S
N440 C443 1.350 . S
N441 S439 1.610 . S
N441 C442 1.351 . S
C442 C436 1.428 . S
C442 N441 1.351 . S
C442 C443 1.434 . S
C443 C434 1.429 . S
C443 N440 1.350 . S
C443 C442 1.434 . S
C444 C445 1.369 . S
C444 C446 1.419 . S
C444 H448 0.930 . S
C445 C444 1.369 . S
C445 C454 1.429 . S
C446 C444 1.419 . S
C446 C447 1.363 . S
C446 H449 0.929 . S
C447 C446 1.363 . S
C447 C453 1.428 . S
H448 C444 0.930 . S
H449 C446 0.929 . S
S450 N451 1.613 . S
S450 N452 1.610 . S
N451 S450 1.613 . S
N451 C454 1.350 . S
N452 S450 1.610 . S
N452 C453 1.351 . S
C453 C447 1.428 . S
C453 N452 1.351 . S
C453 C454 1.434 . S
C454 C445 1.429 . S
C454 N451 1.350 . S
C454 C453 1.434 . S
C455 C456 1.369 . S
C455 C457 1.419 . S
C455 H459 0.930 . S
C456 C455 1.369 . S
C456 C465 1.429 . S
C457 C455 1.419 . S
C457 C458 1.363 . S
C457 H460 0.929 . S
C458 C457 1.363 . S
C458 C464 1.428 . S
H459 C455 0.930 . S
H460 C457 0.929 . S
S461 N462 1.613 . S
S461 N463 1.610 . S
N462 S461 1.613 . S
N462 C465 1.350 . S
N463 S461 1.610 . S
N463 C464 1.351 . S
C464 C458 1.428 . S
C464 N463 1.351 . S
C464 C465 1.434 . S
C465 C456 1.429 . S
C465 N462 1.350 . S
C465 C464 1.434 . S
C466 C467 1.369 . S
C466 C468 1.419 . S
C466 H470 0.930 . S
C467 C466 1.369 . S
C467 C476 1.429 . S
C468 C466 1.419 . S
C468 C469 1.363 . S
C468 H471 0.929 . S
C469 C468 1.363 . S
C469 C475 1.428 . S
H470 C466 0.930 . S
H471 C468 0.929 . S
S472 N473 1.613 . S
S472 N474 1.610 . S
N473 S472 1.613 . S
N473 C476 1.350 . S
N474 S472 1.610 . S
N474 C475 1.351 . S
C475 C469 1.428 . S
C475 N474 1.351 . S
C475 C476 1.434 . S
C476 C467 1.429 . S
C476 N473 1.350 . S
C476 C475 1.434 . S
C477 C478 1.369 . S
C477 C479 1.419 . S
C477 H481 0.930 . S
C478 C477 1.369 . S
C478 C487 1.429 . S
C479 C477 1.419 . S
C479 C480 1.363 . S
C479 H482 0.929 . S
C480 C479 1.363 . S
C480 C486 1.428 . S
H481 C477 0.930 . S
H482 C479 0.929 . S
S483 N484 1.613 . S
S483 N485 1.610 . S
N484 S483 1.613 . S
N484 C487 1.350 . S
N485 S483 1.610 . S
N485 C486 1.351 . S
C486 C480 1.428 . S
C486 N485 1.351 . S
C486 C487 1.434 . S
C487 C478 1.429 . S
C487 N484 1.350 . S
C487 C486 1.434 . S
C488 C489 1.360 1_545 S
C488 C490 1.423 1_655 S
C488 H492 0.931 . S
C489 C488 1.360 1_565 S
C489 C498 1.420 1_655 S
C490 C488 1.423 1_455 S
C490 C491 1.367 . S
C490 H493 0.929 1_455 S
C491 C490 1.367 . S
C491 C497 1.428 1_545 S
H492 C488 0.931 . S
H493 C490 0.929 1_655 S
S494 N495 1.613 . S
S494 N496 1.610 . S
N495 S494 1.613 . S
N495 C498 1.351 . S
N496 S494 1.610 . S
N496 C497 1.351 . S
C497 C491 1.428 1_565 S
C497 N496 1.351 . S
C497 C498 1.443 . S
C498 C489 1.420 1_455 S
C498 N495 1.351 . S
C498 C497 1.443 . S
C499 C500 1.369 1_565 S
C499 C501 1.419 . S
C499 H503 0.930 . S
C500 C499 1.369 1_545 S
C500 C509 1.429 1_655 S
C501 C499 1.419 . S
C501 C502 1.363 1_655 S
C501 H504 0.929 . S
C502 C501 1.363 1_455 S
C502 C508 1.428 1_565 S
H503 C499 0.930 . S
H504 C501 0.929 . S
S505 N506 1.613 . S
S505 N507 1.610 . S
N506 S505 1.613 . S
N506 C509 1.350 . S
N507 S505 1.610 . S
N507 C508 1.351 . S
C508 C502 1.428 1_545 S
C508 N507 1.351 . S
C508 C509 1.434 . S
C509 C500 1.429 1_455 S
C509 N506 1.350 . S
C509 C508 1.434 . S
C510 C511 1.369 . S
C510 C512 1.419 . S
C510 H514 0.930 . S
C511 C510 1.369 . S
C511 C520 1.429 1_455 S
C512 C510 1.419 . S
C512 C513 1.363 1_455 S
C512 H515 0.929 . S
C513 C512 1.363 1_655 S
C513 C519 1.428 . S
H514 C510 0.930 . S
H515 C512 0.929 . S
S516 N517 1.613 . S
S516 N518 1.610 . S
N517 S516 1.613 . S
N517 C520 1.350 . S
N518 S516 1.610 . S
N518 C519 1.351 . S
C519 C513 1.428 . S
C519 N518 1.351 . S
C519 C520 1.434 . S
C520 C511 1.429 1_655 S
C520 N517 1.350 . S
C520 C519 1.434 . S
C521 C522 1.369 . S
C521 C523 1.419 1_565 S
C521 H525 0.930 1_554 S
C522 C521 1.369 . S
C522 C531 1.429 . S
C523 C521 1.419 1_545 S
C523 C524 1.363 . S
C523 H526 0.929 1_554 S
C524 C523 1.363 . S
C524 C530 1.428 . S
H525 C521 0.930 1_556 S
H526 C523 0.929 1_556 S
S527 N528 1.613 1_545 S
S527 N529 1.610 . S
N528 S527 1.613 1_565 S
N528 C531 1.350 . S
N529 S527 1.610 . S
N529 C530 1.351 . S
C530 C524 1.428 . S
C530 N529 1.351 . S
C530 C531 1.434 1_545 S
C531 C522 1.429 . S
C531 N528 1.350 . S
C531 C530 1.434 1_565 S
C532 C533 1.369 . S
C532 C534 1.419 . S
C532 H536 0.930 . S
C533 C532 1.369 . S
C533 C542 1.429 . S
C534 C532 1.419 . S
C534 C535 1.363 . S
C534 H537 0.929 . S
C535 C534 1.363 . S
C535 C541 1.428 . S
H536 C532 0.930 . S
H537 C534 0.929 . S
S538 N539 1.613 . S
S538 N540 1.610 . S
N539 S538 1.613 . S
N539 C542 1.350 . S
N540 S538 1.610 . S
N540 C541 1.351 . S
C541 C535 1.428 . S
C541 N540 1.351 . S
C541 C542 1.434 . S
C542 C533 1.429 . S
C542 N539 1.350 . S
C542 C541 1.434 . S
C543 C544 1.369 . S
C543 C545 1.419 . S
C543 H547 0.930 . S
C544 C543 1.369 . S
C544 C553 1.429 . S
C545 C543 1.419 . S
C545 C546 1.363 . S
C545 H548 0.929 . S
C546 C545 1.363 . S
C546 C552 1.428 . S
H547 C543 0.930 . S
H548 C545 0.929 . S
S549 N550 1.613 . S
S549 N551 1.610 . S
N550 S549 1.613 . S
N550 C553 1.350 . S
N551 S549 1.610 . S
N551 C552 1.351 . S
C552 C546 1.428 . S
C552 N551 1.351 . S
C552 C553 1.434 . S
C553 C544 1.429 . S
C553 N550 1.350 . S
C553 C552 1.434 . S
C554 C555 1.369 . S
C554 C556 1.419 . S
C554 H558 0.930 . S
C555 C554 1.369 . S
C555 C564 1.429 1_545 S
C556 C554 1.419 . S
C556 C557 1.363 1_545 S
C556 H559 0.929 . S
C557 C556 1.363 1_565 S
C557 C563 1.428 . S
H558 C554 0.930 . S
H559 C556 0.929 . S
S560 N561 1.613 . S
S560 N562 1.610 . S
N561 S560 1.613 . S
N561 C564 1.350 . S
N562 S560 1.610 . S
N562 C563 1.351 . S
C563 C557 1.428 . S
C563 N562 1.351 . S
C563 C564 1.434 . S
C564 C555 1.429 1_565 S
C564 N561 1.350 . S
C564 C563 1.434 . S
C565 C566 1.369 1_455 S
C565 C567 1.419 . S
C565 H569 0.930 . S
C566 C565 1.369 1_655 S
C566 C575 1.429 . S
C567 C565 1.419 . S
C567 C568 1.363 . S
C567 H570 0.929 . S
C568 C567 1.363 . S
C568 C574 1.428 1_455 S
H569 C565 0.930 . S
H570 C567 0.929 . S
S571 N572 1.613 . S
S571 N573 1.610 . S
N572 S571 1.613 . S
N572 C575 1.350 . S
N573 S571 1.610 . S
N573 C574 1.351 . S
C574 C568 1.428 1_655 S
C574 N573 1.351 . S
C574 C575 1.434 . S
C575 C566 1.429 . S
C575 N572 1.350 . S
C575 C574 1.434 . S
C225 C9 1.287 . S
C227 C159 1.329 . S
C236 C117 1.348 . S
C238 C14 1.307 . S
C247 C131 1.329 . S
C249 C37 1.278 . S
C258 C145 1.350 . S
C260 C42 1.305 . S
C269 C75 1.328 . S
C271 C65 1.279 . S
C280 C70 1.304 1_556 S
C282 C89 1.350 . S
C291 C93 1.278 . S
C293 C103 1.328 . S
C302 C98 1.314 1_556 S
C304 C61 1.348 . S
C313 C121 1.279 . S
C315 C47 1.328 . S
C324 C5 1.348 . S
C326 C126 1.313 . S
C335 C19 1.330 . S
C337 C149 1.286 . S
C346 C33 1.350 . S
C348 C154 1.308 . S
C357 C187 1.328 . S
C359 C177 1.279 . S
C368 C182 1.306 . S
C370 C201 1.348 . S
C379 C215 1.328 . S
C381 C205 1.278 . S
C390 C173 1.351 . S
C392 C210 1.305 . S
C401 C207 1.548 . S
C403 C11 1.551 . S
C412 C221 1.587 . S
C414 C25 1.589 . S
C423 C179 1.550 . S
C425 C39 1.549 . S
C434 C53 1.587 . S
C436 C193 1.589 . S
C445 C67 1.551 . S
C447 C151 1.550 . S
C456 C165 1.587 . S
C458 C81 1.589 . S
C467 C95 1.551 . S
C469 C123 1.548 . S
C478 C109 1.589 . S
C480 C137 1.587 . S
C489 C28 1.365 . S
C491 C0 1.368 . S
C500 C51 1.395 . S
C502 C23 1.388 . S
C511 C56 1.361 . S
C513 C84 1.371 . S
C522 C79 1.387 . S
C524 C107 1.394 . S
C533 C140 1.372 . S
C535 C112 1.363 . S
C544 C135 1.398 . S
C546 C163 1.389 . S
C555 C196 1.371 . S
C557 C168 1.363 . S
C566 C191 1.389 . S
C568 C219 1.397 . S
