# Generated by pormake.
# Topology eta-c, (3)-cn, num edge types: 1
# Building blocks:
#     Node 0, Type 0, BuildingBlock: WUSLED_clean_sbu_0, # of connection points: 3
#     Node 1, Type 0, BuildingBlock: WUSLED_clean_sbu_0, # of connection points: 3
#     Node 2, Type 0, BuildingBlock: WUSLED_clean_sbu_0, # of connection points: 3
#     Node 3, Type 0, BuildingBlock: WUSLED_clean_sbu_0, # of connection points: 3
#     Node 4, Type 0, BuildingBlock: WUSLED_clean_sbu_0, # of connection points: 3
#     Node 5, Type 0, BuildingBlock: WUSLED_clean_sbu_0, # of connection points: 3
#     Edge 6, Type (0, 0), BuildingBlock: UVAHIK_clean_linker_0, # of connection points: 2
#     Edge 7, Type (0, 0), BuildingBlock: UVAHIK_clean_linker_0, # of connection points: 2
#     Edge 8, Type (0, 0), BuildingBlock: UVAHIK_clean_linker_0, # of connection points: 2
#     Edge 9, Type (0, 0), BuildingBlock: UVAHIK_clean_linker_0, # of connection points: 2
#     Edge 10, Type (0, 0), BuildingBlock: UVAHIK_clean_linker_0, # of connection points: 2
#     Edge 11, Type (0, 0), BuildingBlock: UVAHIK_clean_linker_0, # of connection points: 2
#     Edge 12, Type (0, 0), BuildingBlock: UVAHIK_clean_linker_0, # of connection points: 2
#     Edge 13, Type (0, 0), BuildingBlock: UVAHIK_clean_linker_0, # of connection points: 2
#     Edge 14, Type (0, 0), BuildingBlock: UVAHIK_clean_linker_0, # of connection points: 2
# Relax obj value: 0.000
# Max RMSD: 0.005
# Mean RMSD: 0.004
data_MOF--net-eta-c--node1-WUSLED_clean_sbu_0--edge1-UVAHIK_clean_linker_0
_symmetry_space_group_name_H-M    P1
_symmetry_Int_Tables_number       1
_symmetry_cell_setting            triclinic
loop_
_symmetry_equiv_pos_as_xyz
'x, y, z'
_cell_length_a     79.155366
_cell_length_b     80.113851
_cell_length_c     32.844778
_cell_angle_alpha  91.013089
_cell_angle_beta   89.507004
_cell_angle_gamma 118.96449
loop_
_atom_site_label
_atom_site_type_symbol
_atom_site_fract_x
_atom_site_fract_y
_atom_site_fract_z
_atom_type_partial_charge
C0 C 0.40237 0.81131 0.13756 0.0
C1 C 0.39408 0.79147 0.13209 0.0
C2 C 0.37953 0.78647 0.19974 0.0
C3 C 0.38278 0.77916 0.16295 0.0
C4 C 0.38799 0.8064 0.20495 0.0
C5 C 0.39929 0.81866 0.17416 0.0
U6 U 0.42417 0.82163 0.03026 0.0
O7 O 0.42723 0.84367 0.98729 0.0
O8 O 0.45305 0.84332 1.00996 0.0
C9 C 0.4462 0.85247 0.98872 0.0
C10 C 0.41415 0.82455 0.10547 0.0
C11 C 0.45575 0.87331 0.99525 0.0
C12 C 0.45932 0.90148 0.03207 0.0
C13 C 0.45027 0.88158 0.02717 0.0
C14 C 0.47955 0.90499 0.97356 0.0
C15 C 0.47403 0.91346 1.00517 0.0
C16 C 0.47048 0.88515 0.96867 0.0
C17 C 0.41343 0.77935 0.95752 0.0
C18 C 0.42801 0.78207 0.89073 0.0
C19 C 0.40231 0.75154 0.91285 0.0
C20 C 0.40121 0.75989 0.94979 0.0
C21 C 0.41569 0.7625 0.88277 0.0
C22 C 0.42685 0.79044 0.92779 0.0
C23 C 0.41183 0.78764 0.9968 0.0
O24 O 0.43024 0.82437 0.09603 0.0
O25 O 0.4046 0.82505 0.07342 0.0
O26 O 0.40192 0.79688 0.99633 0.0
O27 O 0.42774 0.79639 0.01851 0.0
H28 H 0.39627 0.78554 0.10391 0.0
H29 H 0.37634 0.7639 0.15774 0.0
H30 H 0.38606 0.81255 0.23304 0.0
H31 H 0.40563 0.83394 0.17896 0.0
H32 H 0.45457 0.90746 0.05651 0.0
H33 H 0.43892 0.87266 0.04805 0.0
H34 H 0.49103 0.91369 0.95274 0.0
H35 H 0.47497 0.87903 0.94398 0.0
H36 H 0.43836 0.79096 0.86812 0.0
H37 H 0.39281 0.7364 0.90808 0.0
H38 H 0.3908 0.7511 0.97244 0.0
H39 H 0.43638 0.80553 0.93321 0.0
C40 C 0.61178 0.39382 0.47293 0.0
C41 C 0.62344 0.38521 0.46734 0.0
C42 C 0.61482 0.37144 0.53509 0.0
C43 C 0.62494 0.3741 0.49814 0.0
C44 C 0.60314 0.38011 0.54031 0.0
C45 C 0.60165 0.39118 0.50954 0.0
U46 U 0.62298 0.41551 0.36654 0.0
O47 O 0.60411 0.41923 0.3231 0.0
O48 O 0.62976 0.44432 0.34733 0.0
C49 C 0.61393 0.43796 0.32551 0.0
C50 C 0.61003 0.4056 0.44108 0.0
C51 C 0.60254 0.44789 0.33202 0.0
C52 C 0.57615 0.45064 0.36418 0.0
C53 C 0.58696 0.44111 0.35938 0.0
C54 C 0.59657 0.47398 0.31489 0.0
C55 C 0.58082 0.4672 0.34195 0.0
C56 C 0.60728 0.46441 0.30998 0.0
C57 C 0.65529 0.40443 0.29496 0.0
C58 C 0.66251 0.41453 0.22457 0.0
C59 C 0.67704 0.39723 0.25521 0.0
C60 C 0.66747 0.39635 0.29172 0.0
C61 C 0.67462 0.40622 0.22103 0.0
C62 C 0.65291 0.41362 0.26125 0.0
C63 C 0.64514 0.40288 0.33366 0.0
O64 O 0.62593 0.42139 0.43255 0.0
O65 O 0.60028 0.3963 0.40846 0.0
O66 O 0.62618 0.39342 0.33202 0.0
O67 O 0.65184 0.41853 0.3561 0.0
H68 H 0.6314 0.38712 0.43923 0.0
H69 H 0.63422 0.36782 0.49321 0.0
H70 H 0.5949 0.37813 0.568 0.0
H71 H 0.59253 0.39766 0.51431 0.0
H72 H 0.56426 0.44516 0.3856 0.0
H73 H 0.58313 0.42844 0.3769 0.0
H74 H 0.60043 0.48653 0.29692 0.0
H75 H 0.61922 0.46985 0.28867 0.0
H76 H 0.66019 0.42142 0.19881 0.0
H77 H 0.68649 0.39098 0.25389 0.0
H78 H 0.66955 0.38928 0.3175 0.0
H79 H 0.64353 0.41995 0.26323 0.0
C80 C 0.2336 0.64078 0.58187 0.0
C81 C 0.25309 0.64526 0.5817 0.0
C82 C 0.25901 0.66472 0.5214 0.0
C83 C 0.26567 0.65706 0.55163 0.0
C84 C 0.23947 0.66022 0.52195 0.0
C85 C 0.22692 0.64836 0.55186 0.0
U86 U 0.22259 0.61705 0.68625 0.0
O87 O 0.19961 0.61239 0.73011 0.0
O88 O 0.20111 0.58786 0.70334 0.0
C89 C 0.1913 0.59371 0.72641 0.0
C90 C 0.22003 0.62826 0.61294 0.0
C91 C 0.17023 0.58376 0.72024 0.0
C92 C 0.14156 0.57888 0.68356 0.0
C93 C 0.16171 0.5882 0.68784 0.0
C94 C 0.13833 0.56044 0.74362 0.0
C95 C 0.1296 0.56499 0.71166 0.0
C96 C 0.15842 0.56975 0.74784 0.0
C97 C 0.2651 0.6274 0.75773 0.0
C98 C 0.2625 0.61957 0.82959 0.0
C99 C 0.29324 0.63143 0.79501 0.0
C100 C 0.28472 0.63261 0.75886 0.0
C101 C 0.28231 0.62506 0.831 0.0
C102 C 0.25397 0.62073 0.79325 0.0
C103 C 0.25681 0.62947 0.71939 0.0
O104 O 0.2205 0.61238 0.61988 0.0
O105 O 0.21886 0.63688 0.64641 0.0
O106 O 0.24694 0.63874 0.72197 0.0
O107 O 0.2486 0.6142 0.69575 0.0
H108 H 0.25857 0.63963 0.60481 0.0
H109 H 0.28066 0.66041 0.55238 0.0
H110 H 0.23379 0.66566 0.49889 0.0
H111 H 0.21192 0.64505 0.55147 0.0
H112 H 0.13534 0.58284 0.6588 0.0
H113 H 0.17063 0.59899 0.66618 0.0
H114 H 0.12964 0.54961 0.76538 0.0
H115 H 0.16474 0.56606 0.77291 0.0
H116 H 0.25367 0.61473 0.85673 0.0
H117 H 0.30841 0.63541 0.79465 0.0
H118 H 0.29353 0.63771 0.7317 0.0
H119 H 0.23876 0.61662 0.79296 0.0
C120 C 0.61056 0.22301 0.91575 0.0
C121 C 0.62251 0.24271 0.92167 0.0
C122 C 0.61398 0.24876 0.85432 0.0
C123 C 0.62421 0.25547 0.89123 0.0
C124 C 0.602 0.22897 0.84876 0.0
C125 C 0.60033 0.21625 0.87917 0.0
U126 U 0.62128 0.21153 0.02197 0.0
O127 O 0.60224 0.18962 0.06501 0.0
O128 O 0.62797 0.18915 0.04109 0.0
C129 C 0.61211 0.18034 0.06278 0.0
C130 C 0.60859 0.20933 0.9473 0.0
C131 C 0.60075 0.15954 0.05608 0.0
C132 C 0.57628 0.13175 0.01943 0.0
C133 C 0.58702 0.15161 0.02473 0.0
C134 C 0.59304 0.1276 0.07643 0.0
C135 C 0.57919 0.11949 0.04522 0.0
C136 C 0.60368 0.1474 0.08177 0.0
C137 C 0.65358 0.25338 0.094 0.0
C138 C 0.65967 0.25047 0.16534 0.0
C139 C 0.67667 0.28113 0.13262 0.0
C140 C 0.66702 0.27285 0.09619 0.0
C141 C 0.67305 0.27012 0.1678 0.0
C142 C 0.65 0.24217 0.12872 0.0
C143 C 0.64343 0.24526 0.05527 0.0
O144 O 0.62441 0.20864 0.95597 0.0
O145 O 0.59874 0.20921 0.97982 0.0
O146 O 0.62447 0.2366 0.0568 0.0
O147 O 0.65015 0.23608 0.03273 0.0
H148 H 0.63055 0.24818 0.94976 0.0
H149 H 0.63371 0.27058 0.89643 0.0
H150 H 0.59368 0.22329 0.82109 0.0
H151 H 0.59098 0.20109 0.87414 0.0
H152 H 0.56588 0.126 0.99485 0.0
H153 H 0.58461 0.16077 1.00443 0.0
H154 H 0.59548 0.11862 0.09719 0.0
H155 H 0.61418 0.15326 0.10619 0.0
H156 H 0.65643 0.24158 0.19186 0.0
H157 H 0.68712 0.29619 0.13307 0.0
H158 H 0.67004 0.28169 0.06964 0.0
H159 H 0.63967 0.22708 0.12755 0.0
C160 C 0.40449 0.60804 0.24811 0.0
C161 C 0.3859 0.60564 0.25526 0.0
C162 C 0.38328 0.61247 0.18418 0.0
C163 C 0.37537 0.60774 0.22355 0.0
C164 C 0.40196 0.61506 0.17733 0.0
C165 C 0.4124 0.61281 0.20891 0.0
U166 U 0.4252 0.6164 0.3566 0.0
O167 O 0.42773 0.59651 0.39824 0.0
O168 O 0.45382 0.62184 0.37749 0.0
C169 C 0.44671 0.60585 0.39776 0.0
C170 C 0.41576 0.60531 0.28053 0.0
C171 C 0.45627 0.59419 0.39088 0.0
C172 C 0.46183 0.57156 0.35041 0.0
C173 C 0.45272 0.58273 0.35577 0.0
C174 C 0.4782 0.58334 0.41502 0.0
C175 C 0.47464 0.57166 0.3801 0.0
C176 C 0.4691 0.59445 0.42031 0.0
C177 C 0.41435 0.64774 0.43113 0.0
C178 C 0.42907 0.65876 0.49788 0.0
C179 C 0.40281 0.66412 0.47711 0.0
C180 C 0.40181 0.65505 0.43975 0.0
C181 C 0.41643 0.66608 0.50672 0.0
C182 C 0.428 0.64961 0.46042 0.0
C183 C 0.41293 0.63839 0.39134 0.0
O184 O 0.43197 0.6205 0.29107 0.0
O185 O 0.40598 0.59504 0.31181 0.0
O186 O 0.40285 0.61967 0.39066 0.0
O187 O 0.42898 0.645 0.37008 0.0
H188 H 0.37945 0.60207 0.28526 0.0
H189 H 0.3611 0.60585 0.22994 0.0
H190 H 0.40839 0.61848 0.1473 0.0
H191 H 0.42667 0.61467 0.20262 0.0
H192 H 0.45859 0.56262 0.32334 0.0
H193 H 0.44284 0.58234 0.33268 0.0
H194 H 0.48822 0.58408 0.43815 0.0
H195 H 0.47209 0.60328 0.44753 0.0
H196 H 0.4396 0.65987 0.52013 0.0
H197 H 0.39306 0.66982 0.48258 0.0
H198 H 0.39123 0.65381 0.41745 0.0
H199 H 0.43778 0.644 0.45432 0.0
C200 C 0.81402 0.39226 0.5831 0.0
C201 C 0.7991 0.37363 0.59033 0.0
C202 C 0.78807 0.37058 0.52006 0.0
C203 C 0.78631 0.36287 0.55904 0.0
C204 C 0.80293 0.38927 0.51313 0.0
C205 C 0.81577 0.39995 0.54426 0.0
U206 U 0.82737 0.41344 0.69166 0.0
O207 O 0.85151 0.41757 0.7309 0.0
O208 O 0.84902 0.44238 0.71159 0.0
C209 C 0.85956 0.43629 0.7303 0.0
C210 C 0.82812 0.40388 0.615 0.0
C211 C 0.88048 0.44674 0.7218 0.0
C212 C 0.90901 0.45043 0.68547 0.0
C213 C 0.88898 0.44048 0.69177 0.0
C214 C 0.91216 0.47313 0.73854 0.0
C215 C 0.92086 0.46687 0.70888 0.0
C216 C 0.89221 0.46316 0.74491 0.0
C217 C 0.78672 0.40178 0.77004 0.0
C218 C 0.78865 0.41946 0.83247 0.0
C219 C 0.76162 0.3878 0.82149 0.0
C220 C 0.76935 0.3866 0.7838 0.0
C221 C 0.77111 0.40428 0.84625 0.0
C222 C 0.79642 0.4182 0.79475 0.0
C223 C 0.79402 0.40028 0.72942 0.0
O224 O 0.82792 0.4196 0.62638 0.0
O225 O 0.83019 0.39465 0.64562 0.0
O226 O 0.80393 0.39103 0.7275 0.0
O227 O 0.80157 0.41582 0.70751 0.0
H228 H 0.79733 0.36736 0.62007 0.0
H229 H 0.77491 0.34859 0.56546 0.0
H230 H 0.80486 0.39556 0.48336 0.0
H231 H 0.8272 0.41423 0.53791 0.0
H232 H 0.9152 0.44532 0.66211 0.0
H233 H 0.88016 0.42788 0.67341 0.0
H234 H 0.92083 0.48554 0.75752 0.0
H235 H 0.88594 0.46818 0.7683 0.0
H236 H 0.79643 0.43226 0.85097 0.0
H237 H 0.74799 0.37595 0.83085 0.0
H238 H 0.76161 0.37384 0.76513 0.0
H239 H 0.80992 0.43007 0.7848 0.0
C240 C 0.48865 0.94635 0.97543 0.0
C241 C 0.48364 0.93468 1.00987 0.0
C242 C 0.49817 0.96624 0.97961 0.0
C243 C 0.52821 1.00531 0.0521 0.0
H244 H 0.5167 0.0361 0.97941 0.0
C245 C 0.57679 0.08699 0.04411 0.0
C246 C 0.56783 0.09834 0.03992 0.0
C247 C 0.5661 0.06711 0.04043 0.0
C248 C 0.52 0.02774 1.00022 0.0
H249 H 0.48466 0.93499 0.07586 0.0
H250 H 0.50084 0.96965 0.08319 0.0
H251 H 0.49829 1.00141 0.97417 0.0
H252 H 0.54052 0.09756 0.02854 0.0
H253 H 0.52184 0.06286 0.0223 0.0
H254 H 0.54965 0.03161 0.07868 0.0
C255 C 0.49766 0.96339 0.05284 0.0
C256 C 0.50958 1.00781 0.99689 0.0
C257 C 0.48815 0.94348 0.04865 0.0
C258 C 0.54793 0.08928 0.03146 0.0
C259 C 0.53721 0.06936 0.02788 0.0
C260 C 0.53861 0.02523 0.05545 0.0
C261 C 0.50291 0.97506 0.01836 0.0
C262 C 0.5136 0.99631 0.02265 0.0
C263 C 0.54614 0.05799 0.03255 0.0
C264 C 0.53473 0.03673 0.02941 0.0
H265 H 0.48518 0.94011 0.94509 0.0
H266 H 0.50213 0.97472 0.95233 0.0
H267 H 0.53188 0.99698 0.07219 0.0
H268 H 0.59215 0.09349 0.0499 0.0
H269 H 0.57357 0.05888 0.04336 0.0
C270 C 0.48691 0.5505 0.40846 0.0
C271 C 0.4843 0.55971 0.37492 0.0
C272 C 0.49655 0.53984 0.40409 0.0
C273 C 0.53112 0.53383 0.33676 0.0
H274 H 0.5147 0.48749 0.3978 0.0
C275 C 0.5785 0.49741 0.3479 0.0
C276 C 0.5693 0.47735 0.34656 0.0
C277 C 0.56773 0.50699 0.35105 0.0
C278 C 0.5194 0.50031 0.38023 0.0
H279 H 0.48973 0.56468 0.31024 0.0
H280 H 0.50615 0.54573 0.30242 0.0
H281 H 0.49617 0.50445 0.40245 0.0
H282 H 0.54145 0.45168 0.34736 0.0
H283 H 0.52263 0.46838 0.3526 0.0
H284 H 0.55412 0.5295 0.31391 0.0
C285 C 0.50097 0.547 0.33231 0.0
C286 C 0.50889 0.51018 0.38328 0.0
C287 C 0.49133 0.55769 0.3367 0.0
C288 C 0.54903 0.46713 0.34884 0.0
C289 C 0.53823 0.47673 0.35186 0.0
C290 C 0.54161 0.52395 0.33367 0.0
C291 C 0.50382 0.53802 0.36601 0.0
C292 C 0.51466 0.52714 0.36176 0.0
C293 C 0.54743 0.4968 0.35281 0.0
C294 C 0.53598 0.50711 0.35554 0.0
H295 H 0.48147 0.5515 0.43825 0.0
H296 H 0.49861 0.53332 0.43083 0.0
H297 H 0.53614 0.54693 0.32006 0.0
H298 H 0.5941 0.50574 0.34691 0.0
H299 H 0.57536 0.52244 0.35255 0.0
C300 C 0.09668 0.55191 0.74351 0.0
C301 C 0.10811 0.55546 0.70833 0.0
C302 C 0.07654 0.54277 0.74081 0.0
C303 C 0.03557 0.5115 0.67362 0.0
H304 H 1.00723 0.5283 0.74477 0.0
C305 C 0.95266 0.46734 0.69793 0.0
C306 C 0.94224 0.47731 0.70324 0.0
C307 C 0.97286 0.47719 0.69541 0.0
C308 C 1.01488 0.52352 0.72434 0.0
H309 H 0.10716 0.55209 0.6426 0.0
H310 H 0.07196 0.5364 0.63782 0.0
H311 H 0.04234 0.54519 0.74602 0.0
H312 H 0.94491 0.50551 0.70803 0.0
H313 H 0.98002 0.52264 0.70343 0.0
H314 H 1.00802 0.48994 0.65162 0.0
C315 C 0.07863 0.54053 0.66759 0.0
C316 C 0.03506 0.53308 0.72544 0.0
C317 C 0.09883 0.54972 0.67029 0.0
C318 C 0.95249 0.49737 0.70475 0.0
C319 C 0.97265 0.5072 0.70215 0.0
C320 C 1.01534 0.50191 0.67254 0.0
C321 C 0.06722 0.53694 0.70285 0.0
C322 C 0.0457 0.52713 0.70034 0.0
C323 C 0.98315 0.49725 0.69805 0.0
C324 C 1.00471 0.50774 0.69805 0.0
H325 H 0.10329 0.55633 0.77328 0.0
H326 H 0.06826 0.54007 0.76866 0.0
H327 H 0.04327 0.50642 0.65408 0.0
H328 H 0.94527 0.45189 0.69708 0.0
H329 H 0.98045 0.46903 0.69272 0.0
C330 C 0.36864 0.75715 0.2425 0.0
C331 C 0.36731 0.77349 0.23256 0.0
C332 C 0.35745 0.74526 0.274 0.0
C333 C 0.32967 0.74496 0.36605 0.0
H334 H 0.30647 0.68998 0.3549 0.0
C335 C 0.27144 0.69368 0.47728 0.0
C336 C 0.2723 0.67735 0.48936 0.0
C337 C 0.2836 0.70536 0.44669 0.0
C338 C 0.31304 0.70532 0.35872 0.0
H339 H 0.35267 0.78974 0.2473 0.0
H340 H 0.33316 0.76905 0.30188 0.0
H341 H 0.32638 0.71024 0.29991 0.0
H342 H 0.28667 0.66052 0.4785 0.0
H343 H 0.30806 0.68103 0.42532 0.0
H344 H 0.3162 0.74005 0.42467 0.0
C345 C 0.34315 0.76561 0.28599 0.0
C346 C 0.32447 0.71695 0.32716 0.0
C347 C 0.35435 0.77749 0.2546 0.0
C348 C 0.28573 0.67307 0.47019 0.0
C349 C 0.29785 0.68472 0.4394 0.0
C350 C 0.31822 0.73334 0.39751 0.0
C351 C 0.34462 0.74939 0.29632 0.0
C352 C 0.33284 0.73694 0.33029 0.0
C353 C 0.29693 0.70101 0.42723 0.0
C354 C 0.30964 0.71336 0.39418 0.0
H355 H 0.37863 0.75375 0.22649 0.0
H356 H 0.35914 0.73303 0.28138 0.0
H357 H 0.33619 0.76029 0.36994 0.0
H358 H 0.26141 0.69752 0.49167 0.0
H359 H 0.28235 0.71767 0.43784 0.0
C360 C 0.61714 0.36517 0.6092 0.0
C361 C 0.61631 0.35962 0.56806 0.0
C362 C 0.6179 0.35383 0.64025 0.0
C363 C 0.62922 0.3149 0.66072 0.0
H364 H 0.59794 0.30768 0.75713 0.0
C365 C 0.61626 0.25768 0.78048 0.0
C366 C 0.61562 0.26227 0.82183 0.0
C367 C 0.61722 0.27006 0.7499 0.0
C368 C 0.60698 0.30973 0.73071 0.0
H369 H 0.6157 0.33766 0.52754 0.0
H370 H 0.61708 0.31789 0.58169 0.0
H371 H 0.59806 0.32824 0.70327 0.0
H372 H 0.61562 0.28367 0.86321 0.0
H373 H 0.61769 0.30542 0.80998 0.0
H374 H 0.63808 0.29632 0.68815 0.0
C375 C 0.61736 0.33117 0.5899 0.0
C376 C 0.60704 0.32154 0.69974 0.0
C377 C 0.61658 0.34253 0.55881 0.0
C378 C 0.61624 0.27971 0.83176 0.0
C379 C 0.61719 0.2921 0.80116 0.0
C380 C 0.62918 0.3031 0.69173 0.0
C381 C 0.61789 0.33661 0.63106 0.0
C382 C 0.61811 0.32424 0.66428 0.0
C383 C 0.61758 0.28739 0.7598 0.0
C384 C 0.61801 0.30031 0.7271 0.0
H385 H 0.61734 0.37841 0.61748 0.0
H386 H 0.61866 0.35864 0.67154 0.0
H387 H 0.63814 0.31687 0.63413 0.0
H388 H 0.61606 0.2445 0.77166 0.0
H389 H 0.61731 0.26586 0.71843 0.0
C390 C 0.3811 0.62943 0.1224 0.0
C391 C 0.37208 0.61447 0.15016 0.0
C392 C 0.37085 0.63093 0.08948 0.0
C393 C 0.32113 0.614 0.04964 0.0
H394 H 0.34785 0.62959 0.94626 0.0
C395 C 0.28222 0.60906 0.89668 0.0
C396 C 0.2917 0.6243 0.86965 0.0
C397 C 0.29147 0.60808 0.93206 0.0
C398 C 0.34022 0.62542 0.97499 0.0
H399 H 0.34511 0.5894 0.16511 0.0
H400 H 0.32725 0.59184 0.10738 0.0
H401 H 0.36492 0.62748 1.00548 0.0
H402 H 0.31808 0.6509 0.85987 0.0
H403 H 0.33418 0.6491 0.92111 0.0
H404 H 0.29632 0.61171 0.01868 0.0
C405 C 0.34219 0.60263 0.11142 0.0
C406 C 0.35003 0.62423 1.00906 0.0
C407 C 0.35244 0.60121 0.14453 0.0
C408 C 0.31049 0.63872 0.87941 0.0
C409 C 0.31973 0.63771 0.91461 0.0
C410 C 0.31127 0.6151 1.01542 0.0
C411 C 0.3513 0.61743 0.08321 0.0
C412 C 0.34067 0.61859 0.04694 0.0
C413 C 0.31044 0.62229 0.94119 0.0
C414 C 0.32073 0.62091 0.97771 0.0
H415 H 0.39612 0.64007 0.12624 0.0
H416 H 0.37826 0.64276 0.06899 0.0
H417 H 0.3135 0.60983 0.07837 0.0
H418 H 0.26783 0.5976 0.89 0.0
H419 H 0.28395 0.59592 0.95169 0.0
C420 C 0.76724 0.36776 0.46017 0.0
C421 C 0.77465 0.35922 0.48648 0.0
C422 C 0.75536 0.35744 0.42746 0.0
C423 C 0.72492 0.30824 0.38589 0.0
H424 H 0.73263 0.33486 0.28421 0.0
C425 C 0.69017 0.26999 0.23227 0.0
C426 C 0.68324 0.27924 0.20667 0.0
C427 C 0.70056 0.27909 0.26768 0.0
C428 C 0.73012 0.32725 0.31248 0.0
H429 H 0.77517 0.33302 0.49918 0.0
H430 H 0.75461 0.31504 0.44178 0.0
H431 H 0.75206 0.35184 0.34328 0.0
H432 H 0.68107 0.30501 0.19954 0.0
H433 H 0.69921 0.32084 0.26086 0.0
H434 H 0.70308 0.28355 0.35459 0.0
C435 C 0.75774 0.32965 0.4468 0.0
C436 C 0.74126 0.33701 0.34646 0.0
C437 C 0.76956 0.33997 0.47971 0.0
C438 C 0.68656 0.29761 0.21795 0.0
C439 C 0.69696 0.3067 0.25318 0.0
C440 C 0.7138 0.29843 0.35174 0.0
C441 C 0.75064 0.33832 0.41996 0.0
C442 C 0.73876 0.32769 0.38374 0.0
C443 C 0.7043 0.29766 0.27827 0.0
C444 C 0.7162 0.30786 0.31467 0.0
H445 H 0.77058 0.38245 0.46496 0.0
H446 H 0.74982 0.36448 0.40807 0.0
H447 H 0.72242 0.30064 0.41417 0.0
H448 H 0.68805 0.25592 0.22438 0.0
H449 H 0.70614 0.27178 0.28615 0.0
C450 C 0.4351 0.68857 0.5644 0.0
C451 C 0.41729 0.67569 0.54655 0.0
C452 C 0.43576 0.69802 0.60118 0.0
C453 C 0.4061 0.69522 0.69152 0.0
H454 H 0.44228 0.74919 0.70425 0.0
C455 C 0.39962 0.73984 0.82399 0.0
C456 C 0.41665 0.75342 0.84341 0.0
C457 C 0.4004 0.73065 0.78801 0.0
C458 C 0.43224 0.73407 0.70142 0.0
H459 H 0.38622 0.66233 0.55407 0.0
H460 H 0.38737 0.67893 0.61765 0.0
H461 H 0.4425 0.73235 0.64171 0.0
H462 H 0.44791 0.76808 0.83977 0.0
H463 H 0.44928 0.75202 0.77688 0.0
H464 H 0.39579 0.69688 0.75105 0.0
C465 C 0.40085 0.68168 0.60342 0.0
C466 C 0.43238 0.7244 0.66554 0.0
C467 C 0.40019 0.67231 0.56667 0.0
C468 C 0.43451 0.75784 0.82542 0.0
C469 C 0.43529 0.74862 0.78936 0.0
C470 C 0.40598 0.70486 0.72734 0.0
C471 C 0.41863 0.69472 0.62111 0.0
C472 C 0.41917 0.70488 0.65998 0.0
C473 C 0.41823 0.73476 0.77039 0.0
C474 C 0.41891 0.72445 0.73264 0.0
H475 H 0.44855 0.69163 0.54957 0.0
H476 H 0.44971 0.70783 0.61412 0.0
H477 H 0.39598 0.68012 0.68865 0.0
H478 H 0.38561 0.73635 0.8365 0.0
H479 H 0.38696 0.72039 0.77381 0.0
C480 C 0.7539 0.38978 0.9117 0.0
C481 C 0.76252 0.40561 0.88595 0.0
C482 C 0.74519 0.39073 0.94827 0.0
C483 C 0.72354 0.4172 1.00013 0.0
H484 H 0.72909 0.39305 0.09656 0.0
C485 C 0.69299 0.4232 0.15805 0.0
C486 C 0.68461 0.40672 0.18197 0.0
C487 C 0.70286 0.42373 0.12205 0.0
C488 C 0.72721 0.3997 0.06982 0.0
H489 H 0.76875 0.4349 0.87872 0.0
H490 H 0.75375 0.43663 0.94285 0.0
H491 H 0.74594 0.39294 0.03422 0.0
H492 H 0.67952 0.37764 0.18578 0.0
H493 H 0.69664 0.37855 0.12326 0.0
H494 H 0.70469 0.42383 0.03573 0.0
C495 C 0.7536 0.42342 0.93452 0.0
C496 C 0.7369 0.39965 0.03404 0.0
C497 C 0.76239 0.42249 0.89797 0.0
C498 C 0.68612 0.39071 0.16862 0.0
C499 C 0.69597 0.39124 0.13271 0.0
C500 C 0.71382 0.41723 0.03596 0.0
C501 C 0.74482 0.40752 0.96007 0.0
C502 C 0.73508 0.40826 0.99862 0.0
C503 C 0.7046 0.40779 0.10907 0.0
C504 C 0.7154 0.40834 0.07119 0.0
H505 H 0.7539 0.37662 0.90362 0.0
H506 H 0.73841 0.37815 0.96695 0.0
H507 H 0.72161 0.42376 0.9733 0.0
H508 H 0.69229 0.43586 0.16761 0.0
H509 H 0.70949 0.43679 0.10484 0.0
loop_
_geom_bond_atom_site_label_1
_geom_bond_atom_site_label_2
_geom_bond_distance
_geom_bond_site_symmetry_2
_ccdc_geom_bond_type
C0 C1 1.264 . S
C0 C5 1.479 . S
C0 C10 1.465 . S
C1 C0 1.264 . S
C1 C3 1.339 . S
C1 H28 0.931 . S
C2 C3 1.395 . S
C2 C4 1.320 . S
C3 C1 1.339 . S
C3 C2 1.395 . S
C3 H29 0.929 . S
C4 C2 1.320 . S
C4 C5 1.405 . S
C4 H30 0.930 . S
C5 C0 1.479 . S
C5 C4 1.405 . S
C5 H31 0.931 . S
U6 O7 2.454 . S
U6 O8 2.458 1_554 S
U6 C9 2.984 . S
U6 C10 2.847 . S
U6 C23 2.882 1_554 S
U6 O24 2.441 . S
U6 O25 2.420 . S
U6 O26 2.455 1_554 S
U6 O27 2.449 1_554 S
O7 U6 2.454 . S
O7 C9 1.353 . S
O8 U6 2.458 1_556 S
O8 C9 1.286 1_556 S
C9 U6 2.984 . S
C9 O7 1.353 . S
C9 O8 1.286 1_554 S
C9 C11 1.363 . S
C10 C0 1.465 . S
C10 U6 2.847 . S
C10 O24 1.249 . S
C10 O25 1.202 . S
C11 C9 1.363 . S
C11 C13 1.408 . S
C11 C16 1.342 1_554 S
C12 C13 1.310 . S
C12 C15 1.461 . S
C12 H32 0.932 . S
C13 C11 1.408 . S
C13 C12 1.310 . S
C13 H33 0.930 . S
C14 C15 1.474 1_556 S
C14 C16 1.285 . S
C14 H34 0.929 . S
C15 C12 1.461 . S
C15 C14 1.474 1_554 S
C16 C11 1.342 1_556 S
C16 C14 1.285 . S
C16 H35 0.930 . S
C17 C20 1.424 . S
C17 C22 1.245 . S
C17 C23 1.428 . S
C18 C21 1.260 . S
C18 C22 1.477 . S
C18 H36 0.932 . S
C19 C20 1.384 . S
C19 C21 1.479 . S
C19 H37 0.929 . S
C20 C17 1.424 . S
C20 C19 1.384 . S
C20 H38 0.928 . S
C21 C18 1.260 . S
C21 C19 1.479 . S
C22 C17 1.245 . S
C22 C18 1.477 . S
C22 H39 0.932 . S
C23 U6 2.882 1_556 S
C23 C17 1.428 . S
C23 O26 1.301 . S
C23 O27 1.282 . S
O24 U6 2.441 . S
O24 C10 1.249 . S
O25 U6 2.420 . S
O25 C10 1.202 . S
O26 U6 2.455 1_556 S
O26 C23 1.301 . S
O27 U6 2.449 1_556 S
O27 C23 1.282 . S
H28 C1 0.931 . S
H29 C3 0.929 . S
H30 C4 0.930 . S
H31 C5 0.931 . S
H32 C12 0.932 . S
H33 C13 0.930 . S
H34 C14 0.929 . S
H35 C16 0.930 . S
H36 C18 0.932 . S
H37 C19 0.929 . S
H38 C20 0.928 . S
H39 C22 0.932 . S
C40 C41 1.264 . S
C40 C45 1.479 . S
C40 C50 1.465 . S
C41 C40 1.264 . S
C41 C43 1.339 . S
C41 H68 0.931 . S
C42 C43 1.395 . S
C42 C44 1.320 . S
C43 C41 1.339 . S
C43 C42 1.395 . S
C43 H69 0.929 . S
C44 C42 1.320 . S
C44 C45 1.405 . S
C44 H70 0.930 . S
C45 C40 1.479 . S
C45 C44 1.405 . S
C45 H71 0.931 . S
U46 O47 2.454 . S
U46 O48 2.458 . S
U46 C49 2.984 . S
U46 C50 2.847 . S
U46 C63 2.882 . S
U46 O64 2.441 . S
U46 O65 2.420 . S
U46 O66 2.455 . S
U46 O67 2.449 . S
O47 U46 2.454 . S
O47 C49 1.353 . S
O48 U46 2.458 . S
O48 C49 1.286 . S
C49 U46 2.984 . S
C49 O47 1.353 . S
C49 O48 1.286 . S
C49 C51 1.363 . S
C50 C40 1.465 . S
C50 U46 2.847 . S
C50 O64 1.249 . S
C50 O65 1.202 . S
C51 C49 1.363 . S
C51 C53 1.408 . S
C51 C56 1.342 . S
C52 C53 1.310 . S
C52 C55 1.461 . S
C52 H72 0.932 . S
C53 C51 1.408 . S
C53 C52 1.310 . S
C53 H73 0.930 . S
C54 C55 1.474 . S
C54 C56 1.285 . S
C54 H74 0.929 . S
C55 C52 1.461 . S
C55 C54 1.474 . S
C56 C51 1.342 . S
C56 C54 1.285 . S
C56 H75 0.930 . S
C57 C60 1.424 . S
C57 C62 1.245 . S
C57 C63 1.428 . S
C58 C61 1.260 . S
C58 C62 1.477 . S
C58 H76 0.932 . S
C59 C60 1.384 . S
C59 C61 1.479 . S
C59 H77 0.929 . S
C60 C57 1.424 . S
C60 C59 1.384 . S
C60 H78 0.928 . S
C61 C58 1.260 . S
C61 C59 1.479 . S
C62 C57 1.245 . S
C62 C58 1.477 . S
C62 H79 0.932 . S
C63 U46 2.882 . S
C63 C57 1.428 . S
C63 O66 1.301 . S
C63 O67 1.282 . S
O64 U46 2.441 . S
O64 C50 1.249 . S
O65 U46 2.420 . S
O65 C50 1.202 . S
O66 U46 2.455 . S
O66 C63 1.301 . S
O67 U46 2.449 . S
O67 C63 1.282 . S
H68 C41 0.931 . S
H69 C43 0.929 . S
H70 C44 0.930 . S
H71 C45 0.931 . S
H72 C52 0.932 . S
H73 C53 0.930 . S
H74 C54 0.929 . S
H75 C56 0.930 . S
H76 C58 0.932 . S
H77 C59 0.929 . S
H78 C60 0.928 . S
H79 C62 0.932 . S
C80 C81 1.264 . S
C80 C85 1.479 . S
C80 C90 1.465 . S
C81 C80 1.264 . S
C81 C83 1.339 . S
C81 H108 0.931 . S
C82 C83 1.395 . S
C82 C84 1.320 . S
C83 C81 1.339 . S
C83 C82 1.395 . S
C83 H109 0.929 . S
C84 C82 1.320 . S
C84 C85 1.405 . S
C84 H110 0.930 . S
C85 C80 1.479 . S
C85 C84 1.405 . S
C85 H111 0.931 . S
U86 O87 2.454 . S
U86 O88 2.458 . S
U86 C89 2.984 . S
U86 C90 2.847 . S
U86 C103 2.882 . S
U86 O104 2.441 . S
U86 O105 2.420 . S
U86 O106 2.455 . S
U86 O107 2.449 . S
O87 U86 2.454 . S
O87 C89 1.353 . S
O88 U86 2.458 . S
O88 C89 1.286 . S
C89 U86 2.984 . S
C89 O87 1.353 . S
C89 O88 1.286 . S
C89 C91 1.363 . S
C90 C80 1.465 . S
C90 U86 2.847 . S
C90 O104 1.249 . S
C90 O105 1.202 . S
C91 C89 1.363 . S
C91 C93 1.408 . S
C91 C96 1.342 . S
C92 C93 1.310 . S
C92 C95 1.461 . S
C92 H112 0.932 . S
C93 C91 1.408 . S
C93 C92 1.310 . S
C93 H113 0.930 . S
C94 C95 1.474 . S
C94 C96 1.285 . S
C94 H114 0.929 . S
C95 C92 1.461 . S
C95 C94 1.474 . S
C96 C91 1.342 . S
C96 C94 1.285 . S
C96 H115 0.930 . S
C97 C100 1.424 . S
C97 C102 1.245 . S
C97 C103 1.428 . S
C98 C101 1.260 . S
C98 C102 1.477 . S
C98 H116 0.932 . S
C99 C100 1.384 . S
C99 C101 1.479 . S
C99 H117 0.929 . S
C100 C97 1.424 . S
C100 C99 1.384 . S
C100 H118 0.928 . S
C101 C98 1.260 . S
C101 C99 1.479 . S
C102 C97 1.245 . S
C102 C98 1.477 . S
C102 H119 0.932 . S
C103 U86 2.882 . S
C103 C97 1.428 . S
C103 O106 1.301 . S
C103 O107 1.282 . S
O104 U86 2.441 . S
O104 C90 1.249 . S
O105 U86 2.420 . S
O105 C90 1.202 . S
O106 U86 2.455 . S
O106 C103 1.301 . S
O107 U86 2.449 . S
O107 C103 1.282 . S
H108 C81 0.931 . S
H109 C83 0.929 . S
H110 C84 0.930 . S
H111 C85 0.931 . S
H112 C92 0.932 . S
H113 C93 0.930 . S
H114 C94 0.929 . S
H115 C96 0.930 . S
H116 C98 0.932 . S
H117 C99 0.929 . S
H118 C100 0.928 . S
H119 C102 0.932 . S
C120 C121 1.264 . S
C120 C125 1.479 . S
C120 C130 1.465 . S
C121 C120 1.264 . S
C121 C123 1.339 . S
C121 H148 0.931 . S
C122 C123 1.395 . S
C122 C124 1.320 . S
C123 C121 1.339 . S
C123 C122 1.395 . S
C123 H149 0.929 . S
C124 C122 1.320 . S
C124 C125 1.405 . S
C124 H150 0.930 . S
C125 C120 1.479 . S
C125 C124 1.405 . S
C125 H151 0.931 . S
U126 O127 2.454 1_554 S
U126 O128 2.458 . S
U126 C129 2.984 . S
U126 C130 2.847 1_554 S
U126 C143 2.882 . S
U126 O144 2.441 1_554 S
U126 O145 2.420 1_554 S
U126 O146 2.455 . S
U126 O147 2.449 . S
O127 U126 2.454 1_556 S
O127 C129 1.353 1_556 S
O128 U126 2.458 . S
O128 C129 1.286 . S
C129 U126 2.984 . S
C129 O127 1.353 1_554 S
C129 O128 1.286 . S
C129 C131 1.363 . S
C130 C120 1.465 . S
C130 U126 2.847 1_556 S
C130 O144 1.249 . S
C130 O145 1.202 . S
C131 C129 1.363 . S
C131 C133 1.408 1_554 S
C131 C136 1.342 . S
C132 C133 1.310 . S
C132 C135 1.461 1_556 S
C132 H152 0.932 . S
C133 C131 1.408 1_556 S
C133 C132 1.310 . S
C133 H153 0.930 . S
C134 C135 1.474 . S
C134 C136 1.285 . S
C134 H154 0.929 . S
C135 C132 1.461 1_554 S
C135 C134 1.474 . S
C136 C131 1.342 . S
C136 C134 1.285 . S
C136 H155 0.930 . S
C137 C140 1.424 . S
C137 C142 1.245 . S
C137 C143 1.428 . S
C138 C141 1.260 . S
C138 C142 1.477 . S
C138 H156 0.932 . S
C139 C140 1.384 . S
C139 C141 1.479 . S
C139 H157 0.929 . S
C140 C137 1.424 . S
C140 C139 1.384 . S
C140 H158 0.928 . S
C141 C138 1.260 . S
C141 C139 1.479 . S
C142 C137 1.245 . S
C142 C138 1.477 . S
C142 H159 0.932 . S
C143 U126 2.882 . S
C143 C137 1.428 . S
C143 O146 1.301 . S
C143 O147 1.282 . S
O144 U126 2.441 1_556 S
O144 C130 1.249 . S
O145 U126 2.420 1_556 S
O145 C130 1.202 . S
O146 U126 2.455 . S
O146 C143 1.301 . S
O147 U126 2.449 . S
O147 C143 1.282 . S
H148 C121 0.931 . S
H149 C123 0.929 . S
H150 C124 0.930 . S
H151 C125 0.931 . S
H152 C132 0.932 . S
H153 C133 0.930 . S
H154 C134 0.929 . S
H155 C136 0.930 . S
H156 C138 0.932 . S
H157 C139 0.929 . S
H158 C140 0.928 . S
H159 C142 0.932 . S
C160 C161 1.264 . S
C160 C165 1.479 . S
C160 C170 1.465 . S
C161 C160 1.264 . S
C161 C163 1.339 . S
C161 H188 0.931 . S
C162 C163 1.395 . S
C162 C164 1.320 . S
C163 C161 1.339 . S
C163 C162 1.395 . S
C163 H189 0.929 . S
C164 C162 1.320 . S
C164 C165 1.405 . S
C164 H190 0.930 . S
C165 C160 1.479 . S
C165 C164 1.405 . S
C165 H191 0.931 . S
U166 O167 2.454 . S
U166 O168 2.458 . S
U166 C169 2.984 . S
U166 C170 2.847 . S
U166 C183 2.882 . S
U166 O184 2.441 . S
U166 O185 2.420 . S
U166 O186 2.455 . S
U166 O187 2.449 . S
O167 U166 2.454 . S
O167 C169 1.353 . S
O168 U166 2.458 . S
O168 C169 1.286 . S
C169 U166 2.984 . S
C169 O167 1.353 . S
C169 O168 1.286 . S
C169 C171 1.363 . S
C170 C160 1.465 . S
C170 U166 2.847 . S
C170 O184 1.249 . S
C170 O185 1.202 . S
C171 C169 1.363 . S
C171 C173 1.408 . S
C171 C176 1.342 . S
C172 C173 1.310 . S
C172 C175 1.461 . S
C172 H192 0.932 . S
C173 C171 1.408 . S
C173 C172 1.310 . S
C173 H193 0.930 . S
C174 C175 1.474 . S
C174 C176 1.285 . S
C174 H194 0.929 . S
C175 C172 1.461 . S
C175 C174 1.474 . S
C176 C171 1.342 . S
C176 C174 1.285 . S
C176 H195 0.930 . S
C177 C180 1.424 . S
C177 C182 1.245 . S
C177 C183 1.428 . S
C178 C181 1.260 . S
C178 C182 1.477 . S
C178 H196 0.932 . S
C179 C180 1.384 . S
C179 C181 1.479 . S
C179 H197 0.929 . S
C180 C177 1.424 . S
C180 C179 1.384 . S
C180 H198 0.928 . S
C181 C178 1.260 . S
C181 C179 1.479 . S
C182 C177 1.245 . S
C182 C178 1.477 . S
C182 H199 0.932 . S
C183 U166 2.882 . S
C183 C177 1.428 . S
C183 O186 1.301 . S
C183 O187 1.282 . S
O184 U166 2.441 . S
O184 C170 1.249 . S
O185 U166 2.420 . S
O185 C170 1.202 . S
O186 U166 2.455 . S
O186 C183 1.301 . S
O187 U166 2.449 . S
O187 C183 1.282 . S
H188 C161 0.931 . S
H189 C163 0.929 . S
H190 C164 0.930 . S
H191 C165 0.931 . S
H192 C172 0.932 . S
H193 C173 0.930 . S
H194 C174 0.929 . S
H195 C176 0.930 . S
H196 C178 0.932 . S
H197 C179 0.929 . S
H198 C180 0.928 . S
H199 C182 0.932 . S
C200 C201 1.264 . S
C200 C205 1.479 . S
C200 C210 1.465 . S
C201 C200 1.264 . S
C201 C203 1.339 . S
C201 H228 0.931 . S
C202 C203 1.395 . S
C202 C204 1.320 . S
C203 C201 1.339 . S
C203 C202 1.395 . S
C203 H229 0.929 . S
C204 C202 1.320 . S
C204 C205 1.405 . S
C204 H230 0.930 . S
C205 C200 1.479 . S
C205 C204 1.405 . S
C205 H231 0.931 . S
U206 O207 2.454 . S
U206 O208 2.458 . S
U206 C209 2.984 . S
U206 C210 2.847 . S
U206 C223 2.882 . S
U206 O224 2.441 . S
U206 O225 2.420 . S
U206 O226 2.455 . S
U206 O227 2.449 . S
O207 U206 2.454 . S
O207 C209 1.353 . S
O208 U206 2.458 . S
O208 C209 1.286 . S
C209 U206 2.984 . S
C209 O207 1.353 . S
C209 O208 1.286 . S
C209 C211 1.363 . S
C210 C200 1.465 . S
C210 U206 2.847 . S
C210 O224 1.249 . S
C210 O225 1.202 . S
C211 C209 1.363 . S
C211 C213 1.408 . S
C211 C216 1.342 . S
C212 C213 1.310 . S
C212 C215 1.461 . S
C212 H232 0.932 . S
C213 C211 1.408 . S
C213 C212 1.310 . S
C213 H233 0.930 . S
C214 C215 1.474 . S
C214 C216 1.285 . S
C214 H234 0.929 . S
C215 C212 1.461 . S
C215 C214 1.474 . S
C216 C211 1.342 . S
C216 C214 1.285 . S
C216 H235 0.930 . S
C217 C220 1.424 . S
C217 C222 1.245 . S
C217 C223 1.428 . S
C218 C221 1.260 . S
C218 C222 1.477 . S
C218 H236 0.932 . S
C219 C220 1.384 . S
C219 C221 1.479 . S
C219 H237 0.929 . S
C220 C217 1.424 . S
C220 C219 1.384 . S
C220 H238 0.928 . S
C221 C218 1.260 . S
C221 C219 1.479 . S
C222 C217 1.245 . S
C222 C218 1.477 . S
C222 H239 0.932 . S
C223 U206 2.882 . S
C223 C217 1.428 . S
C223 O226 1.301 . S
C223 O227 1.282 . S
O224 U206 2.441 . S
O224 C210 1.249 . S
O225 U206 2.420 . S
O225 C210 1.202 . S
O226 U206 2.455 . S
O226 C223 1.301 . S
O227 U206 2.449 . S
O227 C223 1.282 . S
H228 C201 0.931 . S
H229 C203 0.929 . S
H230 C204 0.930 . S
H231 C205 0.931 . S
H232 C212 0.932 . S
H233 C213 0.930 . S
H234 C214 0.929 . S
H235 C216 0.930 . S
H236 C218 0.932 . S
H237 C219 0.929 . S
H238 C220 0.928 . S
H239 C222 0.932 . S
C240 C241 1.349 1_556 S
C240 C242 1.327 . S
C240 H265 0.950 . S
C241 C240 1.349 1_554 S
C241 C257 1.349 . S
C242 C240 1.327 . S
C242 C261 1.429 1_556 S
C242 H266 0.950 . S
C243 C260 1.574 1_565 S
C243 C262 1.368 . S
C243 H267 0.949 . S
H244 C248 0.949 . S
C245 C246 1.349 . S
C245 C247 1.327 . S
C245 H268 0.950 . S
C246 C245 1.349 . S
C246 C258 1.349 1_554 S
C247 C245 1.327 . S
C247 C263 1.429 . S
C247 H269 0.950 . S
C248 H244 0.949 . S
C248 C256 1.574 1_545 S
C248 C264 1.368 1_556 S
H249 C257 0.950 . S
H250 C255 0.950 . S
H251 C256 0.949 . S
H252 C258 0.950 . S
H253 C259 0.950 . S
H254 C260 0.949 . S
C255 H250 0.950 . S
C255 C257 1.327 . S
C255 C261 1.429 . S
C256 C248 1.574 1_565 S
C256 H251 0.949 . S
C256 C262 1.368 1_556 S
C257 C241 1.349 . S
C257 H249 0.950 . S
C257 C255 1.327 . S
C258 C246 1.349 1_556 S
C258 H252 0.950 . S
C258 C259 1.327 . S
C259 H253 0.950 . S
C259 C258 1.327 . S
C259 C263 1.429 1_556 S
C260 C243 1.574 1_545 S
C260 H254 0.949 . S
C260 C264 1.368 . S
C261 C242 1.429 1_554 S
C261 C255 1.429 . S
C261 C262 1.523 . S
C262 C243 1.368 . S
C262 C256 1.368 1_554 S
C262 C261 1.523 . S
C263 C247 1.429 . S
C263 C259 1.429 1_554 S
C263 C264 1.523 . S
C264 C248 1.368 1_554 S
C264 C260 1.368 . S
C264 C263 1.523 . S
H265 C240 0.950 . S
H266 C242 0.950 . S
H267 C243 0.949 . S
H268 C245 0.950 . S
H269 C247 0.950 . S
C270 C271 1.349 . S
C270 C272 1.327 . S
C270 H295 0.950 . S
C271 C270 1.349 . S
C271 C287 1.349 . S
C272 C270 1.327 . S
C272 C291 1.429 . S
C272 H296 0.950 . S
C273 C290 1.574 . S
C273 C292 1.368 . S
C273 H297 0.949 . S
H274 C278 0.949 . S
C275 C276 1.349 . S
C275 C277 1.327 . S
C275 H298 0.950 . S
C276 C275 1.349 . S
C276 C288 1.349 . S
C277 C275 1.327 . S
C277 C293 1.429 . S
C277 H299 0.950 . S
C278 H274 0.949 . S
C278 C286 1.574 . S
C278 C294 1.368 . S
H279 C287 0.950 . S
H280 C285 0.950 . S
H281 C286 0.949 . S
H282 C288 0.950 . S
H283 C289 0.950 . S
H284 C290 0.949 . S
C285 H280 0.950 . S
C285 C287 1.327 . S
C285 C291 1.429 . S
C286 C278 1.574 . S
C286 H281 0.949 . S
C286 C292 1.368 . S
C287 C271 1.349 . S
C287 H279 0.950 . S
C287 C285 1.327 . S
C288 C276 1.349 . S
C288 H282 0.950 . S
C288 C289 1.327 . S
C289 H283 0.950 . S
C289 C288 1.327 . S
C289 C293 1.429 . S
C290 C273 1.574 . S
C290 H284 0.949 . S
C290 C294 1.368 . S
C291 C272 1.429 . S
C291 C285 1.429 . S
C291 C292 1.523 . S
C292 C273 1.368 . S
C292 C286 1.368 . S
C292 C291 1.523 . S
C293 C277 1.429 . S
C293 C289 1.429 . S
C293 C294 1.523 . S
C294 C278 1.368 . S
C294 C290 1.368 . S
C294 C293 1.523 . S
H295 C270 0.950 . S
H296 C272 0.950 . S
H297 C273 0.949 . S
H298 C275 0.950 . S
H299 C277 0.950 . S
C300 C301 1.349 . S
C300 C302 1.327 . S
C300 H325 0.950 . S
C301 C300 1.349 . S
C301 C317 1.349 . S
C302 C300 1.327 . S
C302 C321 1.429 . S
C302 H326 0.950 . S
C303 C320 1.574 1_455 S
C303 C322 1.368 . S
C303 H327 0.949 . S
H304 C308 0.949 . S
C305 C306 1.349 . S
C305 C307 1.327 . S
C305 H328 0.950 . S
C306 C305 1.349 . S
C306 C318 1.349 . S
C307 C305 1.327 . S
C307 C323 1.429 . S
C307 H329 0.950 . S
C308 H304 0.949 . S
C308 C316 1.574 1_655 S
C308 C324 1.368 . S
H309 C317 0.950 . S
H310 C315 0.950 . S
H311 C316 0.949 . S
H312 C318 0.950 . S
H313 C319 0.950 . S
H314 C320 0.949 . S
C315 H310 0.950 . S
C315 C317 1.327 . S
C315 C321 1.429 . S
C316 C308 1.574 1_455 S
C316 H311 0.949 . S
C316 C322 1.368 . S
C317 C301 1.349 . S
C317 H309 0.950 . S
C317 C315 1.327 . S
C318 C306 1.349 . S
C318 H312 0.950 . S
C318 C319 1.327 . S
C319 H313 0.950 . S
C319 C318 1.327 . S
C319 C323 1.429 . S
C320 C303 1.574 1_655 S
C320 H314 0.949 . S
C320 C324 1.368 . S
C321 C302 1.429 . S
C321 C315 1.429 . S
C321 C322 1.523 . S
C322 C303 1.368 . S
C322 C316 1.368 . S
C322 C321 1.523 . S
C323 C307 1.429 . S
C323 C319 1.429 . S
C323 C324 1.523 . S
C324 C308 1.368 . S
C324 C320 1.368 . S
C324 C323 1.523 . S
H325 C300 0.950 . S
H326 C302 0.950 . S
H327 C303 0.949 . S
H328 C305 0.950 . S
H329 C307 0.950 . S
C330 C331 1.349 . S
C330 C332 1.327 . S
C330 H355 0.950 . S
C331 C330 1.349 . S
C331 C347 1.349 . S
C332 C330 1.327 . S
C332 C351 1.429 . S
C332 H356 0.950 . S
C333 C350 1.574 . S
C333 C352 1.368 . S
C333 H357 0.949 . S
H334 C338 0.949 . S
C335 C336 1.349 . S
C335 C337 1.327 . S
C335 H358 0.950 . S
C336 C335 1.349 . S
C336 C348 1.349 . S
C337 C335 1.327 . S
C337 C353 1.429 . S
C337 H359 0.950 . S
C338 H334 0.949 . S
C338 C346 1.574 . S
C338 C354 1.368 . S
H339 C347 0.950 . S
H340 C345 0.950 . S
H341 C346 0.949 . S
H342 C348 0.950 . S
H343 C349 0.950 . S
H344 C350 0.949 . S
C345 H340 0.950 . S
C345 C347 1.327 . S
C345 C351 1.429 . S
C346 C338 1.574 . S
C346 H341 0.949 . S
C346 C352 1.368 . S
C347 C331 1.349 . S
C347 H339 0.950 . S
C347 C345 1.327 . S
C348 C336 1.349 . S
C348 H342 0.950 . S
C348 C349 1.327 . S
C349 H343 0.950 . S
C349 C348 1.327 . S
C349 C353 1.429 . S
C350 C333 1.574 . S
C350 H344 0.949 . S
C350 C354 1.368 . S
C351 C332 1.429 . S
C351 C345 1.429 . S
C351 C352 1.523 . S
C352 C333 1.368 . S
C352 C346 1.368 . S
C352 C351 1.523 . S
C353 C337 1.429 . S
C353 C349 1.429 . S
C353 C354 1.523 . S
C354 C338 1.368 . S
C354 C350 1.368 . S
C354 C353 1.523 . S
H355 C330 0.950 . S
H356 C332 0.950 . S
H357 C333 0.949 . S
H358 C335 0.950 . S
H359 C337 0.950 . S
C360 C361 1.349 . S
C360 C362 1.327 . S
C360 H385 0.950 . S
C361 C360 1.349 . S
C361 C377 1.349 . S
C362 C360 1.327 . S
C362 C381 1.429 . S
C362 H386 0.950 . S
C363 C380 1.574 . S
C363 C382 1.368 . S
C363 H387 0.949 . S
H364 C368 0.949 . S
C365 C366 1.349 . S
C365 C367 1.327 . S
C365 H388 0.950 . S
C366 C365 1.349 . S
C366 C378 1.349 . S
C367 C365 1.327 . S
C367 C383 1.429 . S
C367 H389 0.950 . S
C368 H364 0.949 . S
C368 C376 1.574 . S
C368 C384 1.368 . S
H369 C377 0.950 . S
H370 C375 0.950 . S
H371 C376 0.949 . S
H372 C378 0.950 . S
H373 C379 0.950 . S
H374 C380 0.949 . S
C375 H370 0.950 . S
C375 C377 1.327 . S
C375 C381 1.429 . S
C376 C368 1.574 . S
C376 H371 0.949 . S
C376 C382 1.368 . S
C377 C361 1.349 . S
C377 H369 0.950 . S
C377 C375 1.327 . S
C378 C366 1.349 . S
C378 H372 0.950 . S
C378 C379 1.327 . S
C379 H373 0.950 . S
C379 C378 1.327 . S
C379 C383 1.429 . S
C380 C363 1.574 . S
C380 H374 0.949 . S
C380 C384 1.368 . S
C381 C362 1.429 . S
C381 C375 1.429 . S
C381 C382 1.523 . S
C382 C363 1.368 . S
C382 C376 1.368 . S
C382 C381 1.523 . S
C383 C367 1.429 . S
C383 C379 1.429 . S
C383 C384 1.523 . S
C384 C368 1.368 . S
C384 C380 1.368 . S
C384 C383 1.523 . S
H385 C360 0.950 . S
H386 C362 0.950 . S
H387 C363 0.949 . S
H388 C365 0.950 . S
H389 C367 0.950 . S
C390 C391 1.349 . S
C390 C392 1.327 . S
C390 H415 0.950 . S
C391 C390 1.349 . S
C391 C407 1.349 . S
C392 C390 1.327 . S
C392 C411 1.429 . S
C392 H416 0.950 . S
C393 C410 1.574 1_554 S
C393 C412 1.368 . S
C393 H417 0.949 . S
H394 C398 0.949 . S
C395 C396 1.349 . S
C395 C397 1.327 . S
C395 H418 0.950 . S
C396 C395 1.349 . S
C396 C408 1.349 . S
C397 C395 1.327 . S
C397 C413 1.429 . S
C397 H419 0.950 . S
C398 H394 0.949 . S
C398 C406 1.574 1_556 S
C398 C414 1.368 . S
H399 C407 0.950 . S
H400 C405 0.950 . S
H401 C406 0.949 . S
H402 C408 0.950 . S
H403 C409 0.950 . S
H404 C410 0.949 . S
C405 H400 0.950 . S
C405 C407 1.327 . S
C405 C411 1.429 . S
C406 C398 1.574 1_554 S
C406 H401 0.949 . S
C406 C412 1.368 . S
C407 C391 1.349 . S
C407 H399 0.950 . S
C407 C405 1.327 . S
C408 C396 1.349 . S
C408 H402 0.950 . S
C408 C409 1.327 . S
C409 H403 0.950 . S
C409 C408 1.327 . S
C409 C413 1.429 . S
C410 C393 1.574 1_556 S
C410 H404 0.949 . S
C410 C414 1.368 . S
C411 C392 1.429 . S
C411 C405 1.429 . S
C411 C412 1.523 . S
C412 C393 1.368 . S
C412 C406 1.368 . S
C412 C411 1.523 . S
C413 C397 1.429 . S
C413 C409 1.429 . S
C413 C414 1.523 . S
C414 C398 1.368 . S
C414 C410 1.368 . S
C414 C413 1.523 . S
H415 C390 0.950 . S
H416 C392 0.950 . S
H417 C393 0.949 . S
H418 C395 0.950 . S
H419 C397 0.950 . S
C420 C421 1.349 . S
C420 C422 1.327 . S
C420 H445 0.950 . S
C421 C420 1.349 . S
C421 C437 1.349 . S
C422 C420 1.327 . S
C422 C441 1.429 . S
C422 H446 0.950 . S
C423 C440 1.574 . S
C423 C442 1.368 . S
C423 H447 0.949 . S
H424 C428 0.949 . S
C425 C426 1.349 . S
C425 C427 1.327 . S
C425 H448 0.950 . S
C426 C425 1.349 . S
C426 C438 1.349 . S
C427 C425 1.327 . S
C427 C443 1.429 . S
C427 H449 0.950 . S
C428 H424 0.949 . S
C428 C436 1.574 . S
C428 C444 1.368 . S
H429 C437 0.950 . S
H430 C435 0.950 . S
H431 C436 0.949 . S
H432 C438 0.950 . S
H433 C439 0.950 . S
H434 C440 0.949 . S
C435 H430 0.950 . S
C435 C437 1.327 . S
C435 C441 1.429 . S
C436 C428 1.574 . S
C436 H431 0.949 . S
C436 C442 1.368 . S
C437 C421 1.349 . S
C437 H429 0.950 . S
C437 C435 1.327 . S
C438 C426 1.349 . S
C438 H432 0.950 . S
C438 C439 1.327 . S
C439 H433 0.950 . S
C439 C438 1.327 . S
C439 C443 1.429 . S
C440 C423 1.574 . S
C440 H434 0.949 . S
C440 C444 1.368 . S
C441 C422 1.429 . S
C441 C435 1.429 . S
C441 C442 1.523 . S
C442 C423 1.368 . S
C442 C436 1.368 . S
C442 C441 1.523 . S
C443 C427 1.429 . S
C443 C439 1.429 . S
C443 C444 1.523 . S
C444 C428 1.368 . S
C444 C440 1.368 . S
C444 C443 1.523 . S
H445 C420 0.950 . S
H446 C422 0.950 . S
H447 C423 0.949 . S
H448 C425 0.950 . S
H449 C427 0.950 . S
C450 C451 1.349 . S
C450 C452 1.327 . S
C450 H475 0.950 . S
C451 C450 1.349 . S
C451 C467 1.349 . S
C452 C450 1.327 . S
C452 C471 1.429 . S
C452 H476 0.950 . S
C453 C470 1.574 . S
C453 C472 1.368 . S
C453 H477 0.949 . S
H454 C458 0.949 . S
C455 C456 1.349 . S
C455 C457 1.327 . S
C455 H478 0.950 . S
C456 C455 1.349 . S
C456 C468 1.349 . S
C457 C455 1.327 . S
C457 C473 1.429 . S
C457 H479 0.950 . S
C458 H454 0.949 . S
C458 C466 1.574 . S
C458 C474 1.368 . S
H459 C467 0.950 . S
H460 C465 0.950 . S
H461 C466 0.949 . S
H462 C468 0.950 . S
H463 C469 0.950 . S
H464 C470 0.949 . S
C465 H460 0.950 . S
C465 C467 1.327 . S
C465 C471 1.429 . S
C466 C458 1.574 . S
C466 H461 0.949 . S
C466 C472 1.368 . S
C467 C451 1.349 . S
C467 H459 0.950 . S
C467 C465 1.327 . S
C468 C456 1.349 . S
C468 H462 0.950 . S
C468 C469 1.327 . S
C469 H463 0.950 . S
C469 C468 1.327 . S
C469 C473 1.429 . S
C470 C453 1.574 . S
C470 H464 0.949 . S
C470 C474 1.368 . S
C471 C452 1.429 . S
C471 C465 1.429 . S
C471 C472 1.523 . S
C472 C453 1.368 . S
C472 C466 1.368 . S
C472 C471 1.523 . S
C473 C457 1.429 . S
C473 C469 1.429 . S
C473 C474 1.523 . S
C474 C458 1.368 . S
C474 C470 1.368 . S
C474 C473 1.523 . S
H475 C450 0.950 . S
H476 C452 0.950 . S
H477 C453 0.949 . S
H478 C455 0.950 . S
H479 C457 0.950 . S
C480 C481 1.349 . S
C480 C482 1.327 . S
C480 H505 0.950 . S
C481 C480 1.349 . S
C481 C497 1.349 . S
C482 C480 1.327 . S
C482 C501 1.429 . S
C482 H506 0.950 . S
C483 C500 1.574 1_556 S
C483 C502 1.368 . S
C483 H507 0.949 . S
H484 C488 0.949 . S
C485 C486 1.349 . S
C485 C487 1.327 . S
C485 H508 0.950 . S
C486 C485 1.349 . S
C486 C498 1.349 . S
C487 C485 1.327 . S
C487 C503 1.429 . S
C487 H509 0.950 . S
C488 H484 0.949 . S
C488 C496 1.574 . S
C488 C504 1.368 . S
H489 C497 0.950 . S
H490 C495 0.950 . S
H491 C496 0.949 . S
H492 C498 0.950 . S
H493 C499 0.950 . S
H494 C500 0.949 . S
C495 H490 0.950 . S
C495 C497 1.327 . S
C495 C501 1.429 . S
C496 C488 1.574 . S
C496 H491 0.949 . S
C496 C502 1.368 1_554 S
C497 C481 1.349 . S
C497 H489 0.950 . S
C497 C495 1.327 . S
C498 C486 1.349 . S
C498 H492 0.950 . S
C498 C499 1.327 . S
C499 H493 0.950 . S
C499 C498 1.327 . S
C499 C503 1.429 . S
C500 C483 1.574 1_554 S
C500 H494 0.949 . S
C500 C504 1.368 . S
C501 C482 1.429 . S
C501 C495 1.429 . S
C501 C502 1.523 . S
C502 C483 1.368 . S
C502 C496 1.368 1_556 S
C502 C501 1.523 . S
C503 C487 1.429 . S
C503 C499 1.429 . S
C503 C504 1.523 . S
C504 C488 1.368 . S
C504 C500 1.368 . S
C504 C503 1.523 . S
H505 C480 0.950 . S
H506 C482 0.950 . S
H507 C483 0.949 . S
H508 C485 0.950 . S
H509 C487 0.950 . S
C241 C15 1.500 . S
C246 C135 1.500 . S
C271 C175 1.501 . S
C276 C55 1.501 . S
C301 C95 1.504 . S
C306 C215 1.504 . S
C331 C2 1.488 . S
C336 C82 1.490 . S
C361 C42 1.487 . S
C366 C122 1.488 . S
C391 C162 1.488 . S
C396 C101 1.491 . S
C421 C202 1.493 . S
C426 C141 1.493 . S
C451 C181 1.488 . S
C456 C21 1.489 . S
C481 C221 1.495 . S
C486 C61 1.491 . S
