# Generated by pormake.
# Topology bcu, (8)-cn, num edge types: 1
# Building blocks:
#     Node 0, Type 0, BuildingBlock: TAGTUT_clean_sbu_1, # of connection points: 8
#     Node 1, Type 0, BuildingBlock: TAGTUT_clean_sbu_1, # of connection points: 8
#     Edge 2, Type (0, 0), BuildingBlock: ZUJKAS_clean_linker_0, # of connection points: 2
#     Edge 3, Type (0, 0), BuildingBlock: ZUJKAS_clean_linker_0, # of connection points: 2
#     Edge 4, Type (0, 0), BuildingBlock: ZUJKAS_clean_linker_0, # of connection points: 2
#     Edge 5, Type (0, 0), BuildingBlock: ZUJKAS_clean_linker_0, # of connection points: 2
#     Edge 6, Type (0, 0), BuildingBlock: ZUJKAS_clean_linker_0, # of connection points: 2
#     Edge 7, Type (0, 0), BuildingBlock: ZUJKAS_clean_linker_0, # of connection points: 2
#     Edge 8, Type (0, 0), BuildingBlock: ZUJKAS_clean_linker_0, # of connection points: 2
#     Edge 9, Type (0, 0), BuildingBlock: ZUJKAS_clean_linker_0, # of connection points: 2
# Relax obj value: 0.021
# Max RMSD: 0.083
# Mean RMSD: 0.083
data_MOF--net-bcu--node1-TAGTUT_clean_sbu_1--edge1-ZUJKAS_clean_linker_0
_symmetry_space_group_name_H-M    P1
_symmetry_Int_Tables_number       1
_symmetry_cell_setting            triclinic
loop_
_symmetry_equiv_pos_as_xyz
'x, y, z'
_cell_length_a     24.869315
_cell_length_b     23.515609
_cell_length_c     27.225861
_cell_angle_alpha  90.423571
_cell_angle_beta   93.738297
_cell_angle_gamma 106.67737
loop_
_atom_site_label
_atom_site_type_symbol
_atom_site_fract_x
_atom_site_fract_y
_atom_site_fract_z
_atom_type_partial_charge
C0 C 0.88202 0.12865 0.04615 0.0
C1 C 0.92457 0.11846 0.8964 0.0
C2 C 0.9075 0.88737 0.93706 0.0
Mg3 Mg 0.99274 0.13469 -0.00301 0.0
O4 O 0.96654 0.05294 0.00737 0.0
Mg5 Mg 0.88906 0.00959 -0.02063 0.0
Mg6 Mg 1.00809 -0.00205 -0.01541 0.0
O7 O 0.04944 0.94269 0.96193 0.0
Mg8 Mg 0.02291 0.86199 0.97611 0.0
Mg9 Mg 0.12726 0.98594 -0.01128 0.0
C10 C 0.10961 0.10875 0.03266 0.0
C11 C 0.09076 0.0624 0.90117 0.0
O12 O 0.85922 0.07785 0.02441 0.0
O13 O 0.93374 0.15776 0.04228 0.0
O14 O 0.89439 0.06932 0.9122 0.0
O15 O 0.96819 0.15014 0.92161 0.0
O16 O 0.08091 0.14566 0.02321 0.0
O17 O 0.08799 0.05231 0.02672 0.0
C18 C 0.92406 0.93202 0.06697 0.0
O19 O 0.97338 0.94062 0.05138 0.0
O20 O 0.88724 0.95354 0.04572 0.0
O21 O 0.15547 0.91575 0.94384 0.0
O22 O 0.08029 0.8352 0.93152 0.0
O23 O 0.1229 0.92837 0.05695 0.0
C24 C 0.13148 0.86366 0.92468 0.0
O25 O 0.04683 0.84991 0.05196 0.0
O26 O 0.93557 0.85072 0.94927 0.0
C27 C 0.09188 0.8814 0.07523 0.0
O28 O 0.92904 0.94394 0.94156 0.0
O29 O 0.04215 0.05474 0.91787 0.0
O30 O 0.12782 0.04062 0.92165 0.0
C31 C 0.3873 0.6339 0.54095 0.0
C32 C 0.42004 0.61226 0.38892 0.0
C33 C 0.40665 0.38322 0.43667 0.0
Mg34 Mg 0.49284 0.63205 0.48613 0.0
O35 O 0.46465 0.55177 0.50044 0.0
Mg36 Mg 0.38576 0.50933 0.47708 0.0
Mg37 Mg 0.50233 0.493 0.47959 0.0
O38 O 0.53996 0.43203 0.46086 0.0
Mg39 Mg 0.51042 0.35338 0.48266 0.0
Mg40 Mg 0.6192 0.47456 0.48434 0.0
C41 C 0.60735 0.6026 0.52293 0.0
C42 C 0.58441 0.54765 0.39297 0.0
O43 O 0.3617 0.58185 0.52248 0.0
O44 O 0.43838 0.66114 0.53269 0.0
O45 O 0.38905 0.56599 0.40823 0.0
O46 O 0.46617 0.64336 0.41086 0.0
O47 O 0.58039 0.64031 0.51084 0.0
O48 O 0.58402 0.54623 0.51988 0.0
C49 C 0.42151 0.43563 0.5665 0.0
O50 O 0.4696 0.44193 0.54944 0.0
O51 O 0.38447 0.45634 0.54495 0.0
O52 O 0.63927 0.39742 0.44227 0.0
O53 O 0.55983 0.32057 0.43308 0.0
O54 O 0.61917 0.42376 0.55599 0.0
C55 C 0.6114 0.34561 0.4244 0.0
O56 O 0.54417 0.34492 0.55659 0.0
O57 O 0.42297 0.35729 0.4735 0.0
C58 C 0.59033 0.37781 0.577 0.0
O59 O 0.42093 0.44026 0.43613 0.0
O60 O 0.53695 0.54462 0.41033 0.0
O61 O 0.6196 0.52411 0.41431 0.0
H62 H 0.18344 0.04651 0.06343 0.0
H63 H 0.2679 0.08358 0.11886 0.0
H64 H 0.24945 0.26026 0.11167 0.0
H65 H 0.16687 0.22444 0.0549 0.0
H66 H 0.361 0.26146 0.12616 0.0
H67 H 0.22634 0.11133 0.2564 0.0
H68 H 0.24506 0.07726 0.20346 0.0
H69 H 0.19908 0.12369 0.1958 0.0
C70 C 0.1983 0.09356 0.07237 0.0
C71 C 0.16734 0.13218 0.05588 0.0
C72 C 0.24655 0.11461 0.10421 0.0
C73 C 0.26374 0.17423 0.12056 0.0
C74 C 0.23658 0.21392 0.09985 0.0
H75 H 0.37333 0.42008 0.34802 0.0
H76 H 0.35546 0.3657 0.26907 0.0
C77 C 0.18895 0.19317 0.06761 0.0
C78 C 0.3025 0.194 0.16487 0.0
H79 H 0.30334 0.18527 0.28981 0.0
C80 C 0.34934 0.24397 0.16195 0.0
C81 C 0.28726 0.17089 0.21153 0.0
C82 C 0.2366 0.11809 0.21736 0.0
C83 C 0.37891 0.27396 0.20465 0.0
C84 C 0.36055 0.2537 0.25113 0.0
C85 C 0.31701 0.20083 0.254 0.0
C86 C 0.38005 0.29006 0.29685 0.0
C87 C 0.42811 0.32824 0.19958 0.0
C88 C 0.39887 0.26518 0.33881 0.0
C89 C 0.40797 0.29557 0.38416 0.0
C90 C 0.39855 0.35164 0.38837 0.0
C91 C 0.38117 0.37715 0.34596 0.0
C92 C 0.3717 0.34646 0.30067 0.0
H93 H 0.44922 0.32524 0.16533 0.0
H94 H 0.41269 0.36807 0.19734 0.0
H95 H 0.45948 0.33442 0.23158 0.0
H96 H 0.40492 0.22141 0.33672 0.0
H97 H 0.42174 0.27465 0.41595 0.0
H98 H 0.91684 0.23025 0.10373 0.0
H99 H 0.86518 0.2628 0.16616 0.0
H100 H 0.7203 0.11339 0.12817 0.0
H101 H 0.77179 0.07973 0.06603 0.0
H102 H 0.7633 0.29167 0.15908 0.0
H103 H 0.7509 0.09634 0.27645 0.0
H104 H 0.79691 0.11421 0.22666 0.0
H105 H 0.72293 0.07915 0.21383 0.0
C106 C 0.87386 0.20441 0.10828 0.0
C107 C 0.84871 0.15199 0.08011 0.0
C108 C 0.84443 0.22312 0.14404 0.0
C109 C 0.7894 0.18981 0.1524 0.0
C110 C 0.76323 0.13894 0.123 0.0
H111 H 0.56361 0.24357 0.36886 0.0
H112 H 0.60529 0.20362 0.3026 0.0
C113 C 0.79265 0.12005 0.08726 0.0
C114 C 0.76002 0.20815 0.19246 0.0
H115 H 0.7057 0.16568 0.30294 0.0
C116 C 0.75061 0.26413 0.1905 0.0
C117 C 0.74348 0.17195 0.23332 0.0
C118 C 0.75439 0.11225 0.23813 0.0
C119 C 0.72512 0.28503 0.22841 0.0
C120 C 0.70955 0.24932 0.26965 0.0
C121 C 0.7179 0.19287 0.27124 0.0
C122 C 0.68579 0.2707 0.31203 0.0
C123 C 0.71474 0.345 0.2239 0.0
C124 C 0.71804 0.32034 0.34022 0.0
C125 C 0.69455 0.34323 0.37812 0.0
C126 C 0.63834 0.3167 0.38867 0.0
C127 C 0.60698 0.26518 0.36175 0.0
C128 C 0.63061 0.24233 0.32379 0.0
H129 H 0.7158 0.35979 0.18522 0.0
H130 H 0.67343 0.34415 0.2376 0.0
H131 H 0.74803 0.37834 0.24646 0.0
H132 H 0.76113 0.34205 0.33229 0.0
H133 H 0.72012 0.38264 0.39827 0.0
H134 H 0.9275 0.8183 0.08249 0.0
H135 H 0.869 0.74925 0.13877 0.0
H136 H 0.81894 0.89379 0.2011 0.0
H137 H 0.87627 0.96216 0.14487 0.0
H138 H 0.85642 0.74808 0.24668 0.0
H139 H 0.6716 0.7775 0.13508 0.0
H140 H 0.74184 0.79948 0.11409 0.0
H141 H 0.72158 0.84527 0.15823 0.0
C142 C 0.90576 0.83546 0.10963 0.0
C143 C 0.90616 0.89525 0.1096 0.0
C144 C 0.87198 0.79606 0.14132 0.0
C145 C 0.83865 0.8164 0.17305 0.0
C146 C 0.84351 0.87715 0.17617 0.0
H147 H 0.58127 0.66029 0.37209 0.0
H148 H 0.63993 0.72558 0.31375 0.0
C149 C 0.87668 0.91619 0.14447 0.0
C150 C 0.79512 0.77415 0.19985 0.0
H151 H 0.65279 0.72321 0.20823 0.0
C152 C 0.81191 0.74223 0.23813 0.0
C153 C 0.73708 0.76693 0.18853 0.0
C154 C 0.71671 0.79867 0.14648 0.0
C155 C 0.77211 0.70417 0.26632 0.0
C156 C 0.71405 0.69711 0.25513 0.0
C157 C 0.69727 0.72883 0.21666 0.0
C158 C 0.67047 0.65645 0.28305 0.0
C159 C 0.79261 0.67288 0.30863 0.0
C160 C 0.66554 0.59561 0.28257 0.0
C161 C 0.63234 0.55867 0.31556 0.0
C162 C 0.60284 0.58178 0.34905 0.0
C163 C 0.60315 0.64143 0.34619 0.0
C164 C 0.637 0.67872 0.31329 0.0
H165 H 0.83777 0.69407 0.31983 0.0
H166 H 0.76768 0.67256 0.34108 0.0
H167 H 0.78765 0.62614 0.29726 0.0
H168 H 0.69003 0.57738 0.25871 0.0
H169 H 0.63265 0.51271 0.31716 0.0
H170 H 0.18356 0.9378 0.13641 0.0
H171 H 0.23807 0.89022 0.19124 0.0
H172 H 0.10965 0.72281 0.16786 0.0
H173 H 0.05492 0.76972 0.11219 0.0
H174 H 0.21954 0.82035 0.27602 0.0
H175 H 0.25031 0.69284 0.11267 0.0
H176 H 0.22154 0.75497 0.10751 0.0
H177 H 0.17826 0.68381 0.12494 0.0
C178 C 0.16609 0.89113 0.14378 0.0
C179 C 0.1154 0.85728 0.119 0.0
C180 C 0.19745 0.86402 0.17509 0.0
C181 C 0.17867 0.80271 0.18224 0.0
C182 C 0.12546 0.76996 0.16169 0.0
H183 H 0.32706 0.55588 0.3292 0.0
H184 H 0.27186 0.6033 0.27488 0.0
C185 C 0.09397 0.79703 0.13029 0.0
C186 C 0.21688 0.77266 0.20776 0.0
H187 H 0.29062 0.67298 0.18928 0.0
C188 C 0.23515 0.78816 0.25713 0.0
C189 C 0.23751 0.7311 0.18272 0.0
C190 C 0.22141 0.71492 0.12892 0.0
C191 C 0.27268 0.76224 0.28256 0.0
C192 C 0.29326 0.72066 0.25753 0.0
C193 C 0.275 0.70515 0.20816 0.0
C194 C 0.33156 0.69069 0.28299 0.0
C195 C 0.28896 0.77853 0.33632 0.0
C196 C 0.38506 0.72344 0.30293 0.0
C197 C 0.41696 0.69644 0.33396 0.0
C198 C 0.39564 0.63627 0.34555 0.0
C199 C 0.34447 0.60246 0.32154 0.0
C200 C 0.31273 0.62948 0.29053 0.0
H201 H 0.26027 0.8009 0.35257 0.0
H202 H 0.28865 0.73847 0.35778 0.0
H203 H 0.33222 0.8094 0.34019 0.0
H204 H 0.40086 0.77053 0.29649 0.0
H205 H 0.45632 0.72375 0.35153 0.0
H206 H 0.23577 0.91449 0.89102 0.0
H207 H 0.27994 0.87607 0.82565 0.0
H208 H 0.14063 0.71635 0.81356 0.0
H209 H 0.09587 0.75422 0.87843 0.0
H210 H 0.31091 0.7685 0.81683 0.0
H211 H 0.14624 0.78223 0.67318 0.0
H212 H 0.15466 0.81928 0.73271 0.0
H213 H 0.11998 0.74098 0.72615 0.0
C214 C 0.21474 0.8709 0.87489 0.0
C215 C 0.16194 0.83774 0.88974 0.0
C216 C 0.24002 0.84911 0.83746 0.0
C217 C 0.21291 0.794 0.81414 0.0
C218 C 0.1616 0.7596 0.83039 0.0
H219 H 0.28331 0.58631 0.57603 0.0
H220 H 0.2415 0.62699 0.64168 0.0
C221 C 0.13628 0.78125 0.86773 0.0
C222 C 0.23765 0.77284 0.77215 0.0
H223 H 0.21319 0.73474 0.64969 0.0
C224 C 0.28978 0.76139 0.78021 0.0
C225 C 0.20984 0.76368 0.72447 0.0
C226 C 0.15481 0.77763 0.7133 0.0
C227 C 0.31435 0.73964 0.742 0.0
C228 C 0.28643 0.73025 0.69435 0.0
C229 C 0.23441 0.74198 0.68627 0.0
C230 C 0.31036 0.70765 0.65254 0.0
C231 C 0.36926 0.72547 0.75323 0.0
C232 C 0.36205 0.74046 0.63587 0.0
C233 C 0.38609 0.71746 0.59834 0.0
C234 C 0.3587 0.66123 0.57655 0.0
C235 C 0.30567 0.62965 0.59197 0.0
C236 C 0.28172 0.65275 0.62957 0.0
H237 H 0.378 0.72131 0.79338 0.0
H238 H 0.36912 0.68352 0.73415 0.0
H239 H 0.40416 0.76179 0.74003 0.0
H240 H 0.3842 0.78356 0.65239 0.0
H241 H 0.42675 0.74326 0.58723 0.0
H242 H 0.37917 0.47287 0.64463 0.0
H243 H 0.32533 0.41003 0.70602 0.0
H244 H 0.36805 0.25904 0.64692 0.0
H245 H 0.42353 0.32268 0.5861 0.0
H246 H 0.23297 0.31986 0.67443 0.0
H247 H 0.37901 0.23354 0.79467 0.0
H248 H 0.40318 0.29767 0.75715 0.0
H249 H 0.38528 0.22413 0.72999 0.0
C250 C 0.37899 0.42676 0.64622 0.0
C251 C 0.40552 0.40237 0.61113 0.0
C252 C 0.34793 0.39088 0.68097 0.0
C253 C 0.34249 0.32991 0.68089 0.0
C254 C 0.37243 0.3062 0.64811 0.0
H255 H 0.13379 0.02971 0.82151 0.0
H256 H 0.18861 0.09618 0.76273 0.0
C257 C 0.40426 0.34247 0.61353 0.0
C258 C 0.2998 0.29058 0.71044 0.0
H259 H 0.28112 0.18649 0.79902 0.0
C260 C 0.2435 0.29093 0.70195 0.0
C261 C 0.3137 0.25288 0.74606 0.0
C262 C 0.37363 0.25225 0.75794 0.0
C263 C 0.20047 0.25373 0.72759 0.0
C264 C 0.21432 0.2157 0.76291 0.0
C265 C 0.27066 0.21561 0.77164 0.0
C266 C 0.17137 0.17481 0.79116 0.0
C267 C 0.14052 0.25439 0.7159 0.0
C268 C 0.1411 0.19663 0.8249 0.0
C269 C 0.10874 0.15831 0.85801 0.0
C270 C 0.10725 0.09825 0.85793 0.0
C271 C 0.13413 0.07591 0.82183 0.0
C272 C 0.16575 0.11385 0.78858 0.0
H273 H 0.13536 0.27528 0.6801 0.0
H274 H 0.11133 0.20865 0.71479 0.0
H275 H 0.12814 0.28032 0.7451 0.0
H276 H 0.14555 0.24373 0.8279 0.0
H277 H 0.08919 0.1765 0.88627 0.0
H278 H 0.83577 0.06272 0.83198 0.0
H279 H 0.7822 0.10996 0.7762 0.0
H280 H 0.90514 0.27962 0.80724 0.0
H281 H 0.95875 0.23284 0.86417 0.0
H282 H 0.79793 0.28173 0.82305 0.0
H283 H 0.79898 0.17747 0.64028 0.0
H284 H 0.77769 0.1238 0.68697 0.0
H285 H 0.84805 0.17354 0.69111 0.0
C286 C 0.85244 0.10984 0.82601 0.0
C287 C 0.90144 0.144 0.85302 0.0
C288 C 0.82171 0.13681 0.79385 0.0
C289 C 0.8396 0.19837 0.78744 0.0
C290 C 0.8905 0.23203 0.81169 0.0
H291 H 0.68377 0.4391 0.63433 0.0
H292 H 0.74193 0.39682 0.69021 0.0
C293 C 0.92136 0.20508 0.84396 0.0
C294 C 0.80217 0.22803 0.75975 0.0
H295 H 0.72841 0.22701 0.6493 0.0
C296 C 0.78319 0.27024 0.78488 0.0
C297 C 0.78258 0.2127 0.7101 0.0
C298 C 0.80329 0.16982 0.68038 0.0
C299 C 0.74423 0.29648 0.76206 0.0
C300 C 0.7241 0.28048 0.71267 0.0
C301 C 0.74342 0.2387 0.6874 0.0
C302 C 0.68456 0.30796 0.68562 0.0
C303 C 0.72392 0.34004 0.7913 0.0
C304 C 0.63216 0.27244 0.66553 0.0
C305 C 0.59856 0.29652 0.63358 0.0
C306 C 0.61726 0.35645 0.62054 0.0
C307 C 0.66805 0.39276 0.64346 0.0
C308 C 0.70142 0.36868 0.67554 0.0
H309 H 0.73202 0.33614 0.83157 0.0
H310 H 0.74652 0.38589 0.78116 0.0
H311 H 0.67816 0.33329 0.783 0.0
H312 H 0.61834 0.22545 0.67292 0.0
H313 H 0.55987 0.26717 0.61655 0.0
H314 H 0.6519 0.54572 0.59458 0.0
H315 H 0.70998 0.5968 0.66635 0.0
H316 H 0.73974 0.76351 0.59267 0.0
H317 H 0.68141 0.71295 0.52074 0.0
H318 H 0.82076 0.6921 0.69174 0.0
H319 H 0.62491 0.75996 0.70367 0.0
H320 H 0.62862 0.69989 0.66361 0.0
H321 H 0.65927 0.7755 0.64712 0.0
C322 C 0.67318 0.59271 0.59252 0.0
C323 C 0.6607 0.62585 0.55288 0.0
C324 C 0.7061 0.62186 0.63373 0.0
C325 C 0.72719 0.68391 0.635 0.0
C326 C 0.72266 0.71561 0.59236 0.0
H327 H 0.86313 0.94345 0.86472 0.0
H328 H 0.80661 0.89206 0.79223 0.0
C329 C 0.68957 0.68662 0.5513 0.0
C330 C 0.74352 0.71583 0.68272 0.0
H331 H 0.69712 0.79678 0.7663 0.0
C332 C 0.79393 0.71501 0.70814 0.0
C333 C 0.70769 0.74501 0.70385 0.0
C334 C 0.65184 0.74498 0.67848 0.0
C335 C 0.81021 0.74392 0.75418 0.0
C336 C 0.77438 0.77308 0.77532 0.0
C337 C 0.72398 0.77391 0.74987 0.0
C338 C 0.79051 0.80479 0.82315 0.0
C339 C 0.86605 0.74393 0.77956 0.0
C340 C 0.7952 0.77295 0.86566 0.0
C341 C 0.82739 0.80208 0.90708 0.0
C342 C 0.85514 0.86317 0.90604 0.0
C343 C 0.84264 0.89622 0.86635 0.0
C344 C 0.81065 0.86692 0.82476 0.0
H345 H 0.89312 0.72933 0.75427 0.0
H346 H 0.88913 0.78891 0.79474 0.0
H347 H 0.85861 0.71306 0.81068 0.0
H348 H 0.77879 0.72497 0.86509 0.0
H349 H 0.83562 0.77581 0.93766 0.0
loop_
_geom_bond_atom_site_label_1
_geom_bond_atom_site_label_2
_geom_bond_distance
_geom_bond_site_symmetry_2
_ccdc_geom_bond_type
C0 O12 1.241 . S
C0 O13 1.280 . S
C1 O14 1.277 . S
C1 O15 1.245 . S
C2 O26 1.247 . S
C2 O28 1.289 . S
Mg3 O4 1.926 . S
Mg3 O13 1.984 . S
Mg3 O15 1.988 1_554 S
Mg3 O16 2.061 1_655 S
O4 Mg3 1.926 . S
O4 Mg5 1.986 1_554 S
O4 Mg6 1.917 1_655 S
Mg5 O4 1.986 1_556 S
Mg5 O12 2.042 1_556 S
Mg5 O14 2.041 . S
Mg5 O20 2.038 1_546 S
Mg5 O28 2.238 1_545 S
Mg6 O4 1.917 1_455 S
Mg6 O7 1.917 1_544 S
Mg6 O17 2.106 . S
Mg6 O19 2.079 1_445 S
Mg6 O28 2.106 1_444 S
Mg6 O29 2.079 1_554 S
O7 Mg6 1.917 1_566 S
O7 Mg8 1.926 . S
O7 Mg9 1.986 1_556 S
Mg8 O7 1.926 . S
Mg8 O22 1.984 . S
Mg8 O25 1.988 1_556 S
Mg8 O26 2.061 1_455 S
Mg9 O7 1.986 1_554 S
Mg9 O17 2.238 1_565 S
Mg9 O21 2.042 1_554 S
Mg9 O23 2.041 . S
Mg9 O30 2.038 1_564 S
C10 O16 1.247 . S
C10 O17 1.289 . S
C11 O29 1.245 . S
C11 O30 1.274 . S
O12 C0 1.241 . S
O12 Mg5 2.042 1_554 S
O13 C0 1.280 . S
O13 Mg3 1.984 . S
O14 C1 1.277 . S
O14 Mg5 2.041 . S
O15 C1 1.245 . S
O15 Mg3 1.988 1_556 S
O16 Mg3 2.061 1_455 S
O16 C10 1.247 . S
O17 Mg6 2.106 . S
O17 Mg9 2.238 1_545 S
O17 C10 1.289 . S
C18 O19 1.245 . S
C18 O20 1.274 . S
O19 Mg6 2.079 1_665 S
O19 C18 1.245 . S
O20 Mg5 2.038 1_564 S
O20 C18 1.274 . S
O21 Mg9 2.042 1_556 S
O21 C24 1.241 . S
O22 Mg8 1.984 . S
O22 C24 1.280 . S
O23 Mg9 2.041 . S
O23 C27 1.277 . S
C24 O21 1.241 . S
C24 O22 1.280 . S
O25 Mg8 1.988 1_554 S
O25 C27 1.245 . S
O26 C2 1.247 . S
O26 Mg8 2.061 1_655 S
C27 O23 1.277 . S
C27 O25 1.245 . S
O28 C2 1.289 . S
O28 Mg5 2.238 1_565 S
O28 Mg6 2.106 1_666 S
O29 Mg6 2.079 1_556 S
O29 C11 1.245 . S
O30 Mg9 2.038 1_546 S
O30 C11 1.274 . S
C31 O43 1.241 . S
C31 O44 1.280 . S
C32 O45 1.277 . S
C32 O46 1.245 . S
C33 O57 1.247 . S
C33 O59 1.289 . S
Mg34 O35 1.926 . S
Mg34 O44 1.984 . S
Mg34 O46 1.988 . S
Mg34 O47 2.061 . S
O35 Mg34 1.926 . S
O35 Mg36 1.986 . S
O35 Mg37 1.917 . S
Mg36 O35 1.986 . S
Mg36 O43 2.042 . S
Mg36 O45 2.041 . S
Mg36 O51 2.038 . S
Mg36 O59 2.238 . S
Mg37 O35 1.917 . S
Mg37 O38 1.917 . S
Mg37 O48 2.106 . S
Mg37 O50 2.079 . S
Mg37 O59 2.106 . S
Mg37 O60 2.079 . S
O38 Mg37 1.917 . S
O38 Mg39 1.926 . S
O38 Mg40 1.986 . S
Mg39 O38 1.926 . S
Mg39 O53 1.984 . S
Mg39 O56 1.988 . S
Mg39 O57 2.061 . S
Mg40 O38 1.986 . S
Mg40 O48 2.238 . S
Mg40 O52 2.042 . S
Mg40 O54 2.041 . S
Mg40 O61 2.038 . S
C41 O47 1.247 . S
C41 O48 1.289 . S
C42 O60 1.245 . S
C42 O61 1.274 . S
O43 C31 1.241 . S
O43 Mg36 2.042 . S
O44 C31 1.280 . S
O44 Mg34 1.984 . S
O45 C32 1.277 . S
O45 Mg36 2.041 . S
O46 C32 1.245 . S
O46 Mg34 1.988 . S
O47 Mg34 2.061 . S
O47 C41 1.247 . S
O48 Mg37 2.106 . S
O48 Mg40 2.238 . S
O48 C41 1.289 . S
C49 O50 1.245 . S
C49 O51 1.274 . S
O50 Mg37 2.079 . S
O50 C49 1.245 . S
O51 Mg36 2.038 . S
O51 C49 1.274 . S
O52 Mg40 2.042 . S
O52 C55 1.241 . S
O53 Mg39 1.984 . S
O53 C55 1.280 . S
O54 Mg40 2.041 . S
O54 C58 1.277 . S
C55 O52 1.241 . S
C55 O53 1.280 . S
O56 Mg39 1.988 . S
O56 C58 1.245 . S
O57 C33 1.247 . S
O57 Mg39 2.061 . S
C58 O54 1.277 . S
C58 O56 1.245 . S
O59 C33 1.289 . S
O59 Mg36 2.238 . S
O59 Mg37 2.106 . S
O60 Mg37 2.079 . S
O60 C42 1.245 . S
O61 Mg40 2.038 . S
O61 C42 1.274 . S
H62 C70 0.929 . S
H63 C72 0.930 . S
H64 C74 0.930 . S
H65 C77 0.929 . S
H66 C80 0.930 . S
H67 C82 0.960 . S
H68 C82 0.960 . S
H69 C82 0.960 . S
C70 H62 0.929 . S
C70 C71 1.377 . S
C70 C72 1.384 . S
C71 C70 1.377 . S
C71 C77 1.390 . S
C72 H63 0.930 . S
C72 C70 1.384 . S
C72 C73 1.372 . S
C73 C72 1.372 . S
C73 C74 1.400 . S
C73 C78 1.490 . S
C74 H64 0.930 . S
C74 C73 1.400 . S
C74 C77 1.386 . S
H75 C91 0.930 . S
H76 C92 0.931 . S
C77 H65 0.929 . S
C77 C71 1.390 . S
C77 C74 1.386 . S
C78 C73 1.490 . S
C78 C80 1.395 . S
C78 C81 1.403 . S
H79 C85 0.930 . S
C80 H66 0.930 . S
C80 C78 1.395 . S
C80 C83 1.403 . S
C81 C78 1.403 . S
C81 C82 1.524 . S
C81 C85 1.400 . S
C82 H67 0.960 . S
C82 H68 0.960 . S
C82 H69 0.960 . S
C82 C81 1.524 . S
C83 C80 1.403 . S
C83 C84 1.392 . S
C83 C87 1.495 . S
C84 C83 1.392 . S
C84 C85 1.385 . S
C84 C86 1.478 . S
C85 H79 0.930 . S
C85 C81 1.400 . S
C85 C84 1.385 . S
C86 C84 1.478 . S
C86 C88 1.381 . S
C86 C92 1.383 . S
C87 C83 1.495 . S
C87 H93 0.959 . S
C87 H94 0.961 . S
C87 H95 0.960 . S
C88 C86 1.381 . S
C88 C89 1.394 . S
C88 H96 0.930 . S
C89 C88 1.394 . S
C89 C90 1.383 . S
C89 H97 0.929 . S
C90 C89 1.383 . S
C90 C91 1.377 . S
C91 H75 0.930 . S
C91 C90 1.377 . S
C91 C92 1.379 . S
C92 H76 0.931 . S
C92 C86 1.383 . S
C92 C91 1.379 . S
H93 C87 0.959 . S
H94 C87 0.961 . S
H95 C87 0.960 . S
H96 C88 0.930 . S
H97 C89 0.929 . S
H98 C106 0.929 . S
H99 C108 0.930 . S
H100 C110 0.930 . S
H101 C113 0.929 . S
H102 C116 0.930 . S
H103 C118 0.960 . S
H104 C118 0.960 . S
H105 C118 0.960 . S
C106 H98 0.929 . S
C106 C107 1.377 . S
C106 C108 1.384 . S
C107 C106 1.377 . S
C107 C113 1.390 . S
C108 H99 0.930 . S
C108 C106 1.384 . S
C108 C109 1.372 . S
C109 C108 1.372 . S
C109 C110 1.400 . S
C109 C114 1.490 . S
C110 H100 0.930 . S
C110 C109 1.400 . S
C110 C113 1.386 . S
H111 C127 0.930 . S
H112 C128 0.931 . S
C113 H101 0.929 . S
C113 C107 1.390 . S
C113 C110 1.386 . S
C114 C109 1.490 . S
C114 C116 1.395 . S
C114 C117 1.403 . S
H115 C121 0.930 . S
C116 H102 0.930 . S
C116 C114 1.395 . S
C116 C119 1.403 . S
C117 C114 1.403 . S
C117 C118 1.524 . S
C117 C121 1.400 . S
C118 H103 0.960 . S
C118 H104 0.960 . S
C118 H105 0.960 . S
C118 C117 1.524 . S
C119 C116 1.403 . S
C119 C120 1.392 . S
C119 C123 1.495 . S
C120 C119 1.392 . S
C120 C121 1.385 . S
C120 C122 1.478 . S
C121 H115 0.930 . S
C121 C117 1.400 . S
C121 C120 1.385 . S
C122 C120 1.478 . S
C122 C124 1.381 . S
C122 C128 1.383 . S
C123 C119 1.495 . S
C123 H129 0.959 . S
C123 H130 0.961 . S
C123 H131 0.960 . S
C124 C122 1.381 . S
C124 C125 1.394 . S
C124 H132 0.930 . S
C125 C124 1.394 . S
C125 C126 1.383 . S
C125 H133 0.929 . S
C126 C125 1.383 . S
C126 C127 1.377 . S
C127 H111 0.930 . S
C127 C126 1.377 . S
C127 C128 1.379 . S
C128 H112 0.931 . S
C128 C122 1.383 . S
C128 C127 1.379 . S
H129 C123 0.959 . S
H130 C123 0.961 . S
H131 C123 0.960 . S
H132 C124 0.930 . S
H133 C125 0.929 . S
H134 C142 0.929 . S
H135 C144 0.930 . S
H136 C146 0.930 . S
H137 C149 0.929 . S
H138 C152 0.930 . S
H139 C154 0.960 . S
H140 C154 0.960 . S
H141 C154 0.960 . S
C142 H134 0.929 . S
C142 C143 1.377 . S
C142 C144 1.384 . S
C143 C142 1.377 . S
C143 C149 1.390 . S
C144 H135 0.930 . S
C144 C142 1.384 . S
C144 C145 1.372 . S
C145 C144 1.372 . S
C145 C146 1.400 . S
C145 C150 1.490 . S
C146 H136 0.930 . S
C146 C145 1.400 . S
C146 C149 1.386 . S
H147 C163 0.930 . S
H148 C164 0.931 . S
C149 H137 0.929 . S
C149 C143 1.390 . S
C149 C146 1.386 . S
C150 C145 1.490 . S
C150 C152 1.395 . S
C150 C153 1.403 . S
H151 C157 0.930 . S
C152 H138 0.930 . S
C152 C150 1.395 . S
C152 C155 1.403 . S
C153 C150 1.403 . S
C153 C154 1.524 . S
C153 C157 1.400 . S
C154 H139 0.960 . S
C154 H140 0.960 . S
C154 H141 0.960 . S
C154 C153 1.524 . S
C155 C152 1.403 . S
C155 C156 1.392 . S
C155 C159 1.495 . S
C156 C155 1.392 . S
C156 C157 1.385 . S
C156 C158 1.478 . S
C157 H151 0.930 . S
C157 C153 1.400 . S
C157 C156 1.385 . S
C158 C156 1.478 . S
C158 C160 1.381 . S
C158 C164 1.383 . S
C159 C155 1.495 . S
C159 H165 0.959 . S
C159 H166 0.961 . S
C159 H167 0.960 . S
C160 C158 1.381 . S
C160 C161 1.394 . S
C160 H168 0.930 . S
C161 C160 1.394 . S
C161 C162 1.383 . S
C161 H169 0.929 . S
C162 C161 1.383 . S
C162 C163 1.377 . S
C163 H147 0.930 . S
C163 C162 1.377 . S
C163 C164 1.379 . S
C164 H148 0.931 . S
C164 C158 1.383 . S
C164 C163 1.379 . S
H165 C159 0.959 . S
H166 C159 0.961 . S
H167 C159 0.960 . S
H168 C160 0.930 . S
H169 C161 0.929 . S
H170 C178 0.929 . S
H171 C180 0.930 . S
H172 C182 0.930 . S
H173 C185 0.929 . S
H174 C188 0.930 . S
H175 C190 0.960 . S
H176 C190 0.960 . S
H177 C190 0.960 . S
C178 H170 0.929 . S
C178 C179 1.377 . S
C178 C180 1.384 . S
C179 C178 1.377 . S
C179 C185 1.390 . S
C180 H171 0.930 . S
C180 C178 1.384 . S
C180 C181 1.372 . S
C181 C180 1.372 . S
C181 C182 1.400 . S
C181 C186 1.490 . S
C182 H172 0.930 . S
C182 C181 1.400 . S
C182 C185 1.386 . S
H183 C199 0.930 . S
H184 C200 0.931 . S
C185 H173 0.929 . S
C185 C179 1.390 . S
C185 C182 1.386 . S
C186 C181 1.490 . S
C186 C188 1.395 . S
C186 C189 1.403 . S
H187 C193 0.930 . S
C188 H174 0.930 . S
C188 C186 1.395 . S
C188 C191 1.403 . S
C189 C186 1.403 . S
C189 C190 1.524 . S
C189 C193 1.400 . S
C190 H175 0.960 . S
C190 H176 0.960 . S
C190 H177 0.960 . S
C190 C189 1.524 . S
C191 C188 1.403 . S
C191 C192 1.392 . S
C191 C195 1.495 . S
C192 C191 1.392 . S
C192 C193 1.385 . S
C192 C194 1.478 . S
C193 H187 0.930 . S
C193 C189 1.400 . S
C193 C192 1.385 . S
C194 C192 1.478 . S
C194 C196 1.381 . S
C194 C200 1.383 . S
C195 C191 1.495 . S
C195 H201 0.959 . S
C195 H202 0.961 . S
C195 H203 0.960 . S
C196 C194 1.381 . S
C196 C197 1.394 . S
C196 H204 0.930 . S
C197 C196 1.394 . S
C197 C198 1.383 . S
C197 H205 0.929 . S
C198 C197 1.383 . S
C198 C199 1.377 . S
C199 H183 0.930 . S
C199 C198 1.377 . S
C199 C200 1.379 . S
C200 H184 0.931 . S
C200 C194 1.383 . S
C200 C199 1.379 . S
H201 C195 0.959 . S
H202 C195 0.961 . S
H203 C195 0.960 . S
H204 C196 0.930 . S
H205 C197 0.929 . S
H206 C214 0.929 . S
H207 C216 0.930 . S
H208 C218 0.930 . S
H209 C221 0.929 . S
H210 C224 0.930 . S
H211 C226 0.960 . S
H212 C226 0.960 . S
H213 C226 0.960 . S
C214 H206 0.929 . S
C214 C215 1.377 . S
C214 C216 1.384 . S
C215 C214 1.377 . S
C215 C221 1.390 . S
C216 H207 0.930 . S
C216 C214 1.384 . S
C216 C217 1.372 . S
C217 C216 1.372 . S
C217 C218 1.400 . S
C217 C222 1.490 . S
C218 H208 0.930 . S
C218 C217 1.400 . S
C218 C221 1.386 . S
H219 C235 0.930 . S
H220 C236 0.931 . S
C221 H209 0.929 . S
C221 C215 1.390 . S
C221 C218 1.386 . S
C222 C217 1.490 . S
C222 C224 1.395 . S
C222 C225 1.403 . S
H223 C229 0.930 . S
C224 H210 0.930 . S
C224 C222 1.395 . S
C224 C227 1.403 . S
C225 C222 1.403 . S
C225 C226 1.524 . S
C225 C229 1.400 . S
C226 H211 0.960 . S
C226 H212 0.960 . S
C226 H213 0.960 . S
C226 C225 1.524 . S
C227 C224 1.403 . S
C227 C228 1.392 . S
C227 C231 1.495 . S
C228 C227 1.392 . S
C228 C229 1.385 . S
C228 C230 1.478 . S
C229 H223 0.930 . S
C229 C225 1.400 . S
C229 C228 1.385 . S
C230 C228 1.478 . S
C230 C232 1.381 . S
C230 C236 1.383 . S
C231 C227 1.495 . S
C231 H237 0.959 . S
C231 H238 0.961 . S
C231 H239 0.960 . S
C232 C230 1.381 . S
C232 C233 1.394 . S
C232 H240 0.930 . S
C233 C232 1.394 . S
C233 C234 1.383 . S
C233 H241 0.929 . S
C234 C233 1.383 . S
C234 C235 1.377 . S
C235 H219 0.930 . S
C235 C234 1.377 . S
C235 C236 1.379 . S
C236 H220 0.931 . S
C236 C230 1.383 . S
C236 C235 1.379 . S
H237 C231 0.959 . S
H238 C231 0.961 . S
H239 C231 0.960 . S
H240 C232 0.930 . S
H241 C233 0.929 . S
H242 C250 0.929 . S
H243 C252 0.930 . S
H244 C254 0.930 . S
H245 C257 0.929 . S
H246 C260 0.930 . S
H247 C262 0.960 . S
H248 C262 0.960 . S
H249 C262 0.960 . S
C250 H242 0.929 . S
C250 C251 1.377 . S
C250 C252 1.384 . S
C251 C250 1.377 . S
C251 C257 1.390 . S
C252 H243 0.930 . S
C252 C250 1.384 . S
C252 C253 1.372 . S
C253 C252 1.372 . S
C253 C254 1.400 . S
C253 C258 1.490 . S
C254 H244 0.930 . S
C254 C253 1.400 . S
C254 C257 1.386 . S
H255 C271 0.930 . S
H256 C272 0.931 . S
C257 H245 0.929 . S
C257 C251 1.390 . S
C257 C254 1.386 . S
C258 C253 1.490 . S
C258 C260 1.395 . S
C258 C261 1.403 . S
H259 C265 0.930 . S
C260 H246 0.930 . S
C260 C258 1.395 . S
C260 C263 1.403 . S
C261 C258 1.403 . S
C261 C262 1.524 . S
C261 C265 1.400 . S
C262 H247 0.960 . S
C262 H248 0.960 . S
C262 H249 0.960 . S
C262 C261 1.524 . S
C263 C260 1.403 . S
C263 C264 1.392 . S
C263 C267 1.495 . S
C264 C263 1.392 . S
C264 C265 1.385 . S
C264 C266 1.478 . S
C265 H259 0.930 . S
C265 C261 1.400 . S
C265 C264 1.385 . S
C266 C264 1.478 . S
C266 C268 1.381 . S
C266 C272 1.383 . S
C267 C263 1.495 . S
C267 H273 0.959 . S
C267 H274 0.961 . S
C267 H275 0.960 . S
C268 C266 1.381 . S
C268 C269 1.394 . S
C268 H276 0.930 . S
C269 C268 1.394 . S
C269 C270 1.383 . S
C269 H277 0.929 . S
C270 C269 1.383 . S
C270 C271 1.377 . S
C271 H255 0.930 . S
C271 C270 1.377 . S
C271 C272 1.379 . S
C272 H256 0.931 . S
C272 C266 1.383 . S
C272 C271 1.379 . S
H273 C267 0.959 . S
H274 C267 0.961 . S
H275 C267 0.960 . S
H276 C268 0.930 . S
H277 C269 0.929 . S
H278 C286 0.929 . S
H279 C288 0.930 . S
H280 C290 0.930 . S
H281 C293 0.929 . S
H282 C296 0.930 . S
H283 C298 0.960 . S
H284 C298 0.960 . S
H285 C298 0.960 . S
C286 H278 0.929 . S
C286 C287 1.377 . S
C286 C288 1.384 . S
C287 C286 1.377 . S
C287 C293 1.390 . S
C288 H279 0.930 . S
C288 C286 1.384 . S
C288 C289 1.372 . S
C289 C288 1.372 . S
C289 C290 1.400 . S
C289 C294 1.490 . S
C290 H280 0.930 . S
C290 C289 1.400 . S
C290 C293 1.386 . S
H291 C307 0.930 . S
H292 C308 0.931 . S
C293 H281 0.929 . S
C293 C287 1.390 . S
C293 C290 1.386 . S
C294 C289 1.490 . S
C294 C296 1.395 . S
C294 C297 1.403 . S
H295 C301 0.930 . S
C296 H282 0.930 . S
C296 C294 1.395 . S
C296 C299 1.403 . S
C297 C294 1.403 . S
C297 C298 1.524 . S
C297 C301 1.400 . S
C298 H283 0.960 . S
C298 H284 0.960 . S
C298 H285 0.960 . S
C298 C297 1.524 . S
C299 C296 1.403 . S
C299 C300 1.392 . S
C299 C303 1.495 . S
C300 C299 1.392 . S
C300 C301 1.385 . S
C300 C302 1.478 . S
C301 H295 0.930 . S
C301 C297 1.400 . S
C301 C300 1.385 . S
C302 C300 1.478 . S
C302 C304 1.381 . S
C302 C308 1.383 . S
C303 C299 1.495 . S
C303 H309 0.959 . S
C303 H310 0.961 . S
C303 H311 0.960 . S
C304 C302 1.381 . S
C304 C305 1.394 . S
C304 H312 0.930 . S
C305 C304 1.394 . S
C305 C306 1.383 . S
C305 H313 0.929 . S
C306 C305 1.383 . S
C306 C307 1.377 . S
C307 H291 0.930 . S
C307 C306 1.377 . S
C307 C308 1.379 . S
C308 H292 0.931 . S
C308 C302 1.383 . S
C308 C307 1.379 . S
H309 C303 0.959 . S
H310 C303 0.961 . S
H311 C303 0.960 . S
H312 C304 0.930 . S
H313 C305 0.929 . S
H314 C322 0.929 . S
H315 C324 0.930 . S
H316 C326 0.930 . S
H317 C329 0.929 . S
H318 C332 0.930 . S
H319 C334 0.960 . S
H320 C334 0.960 . S
H321 C334 0.960 . S
C322 H314 0.929 . S
C322 C323 1.377 . S
C322 C324 1.384 . S
C323 C322 1.377 . S
C323 C329 1.390 . S
C324 H315 0.930 . S
C324 C322 1.384 . S
C324 C325 1.372 . S
C325 C324 1.372 . S
C325 C326 1.400 . S
C325 C330 1.490 . S
C326 H316 0.930 . S
C326 C325 1.400 . S
C326 C329 1.386 . S
H327 C343 0.930 . S
H328 C344 0.931 . S
C329 H317 0.929 . S
C329 C323 1.390 . S
C329 C326 1.386 . S
C330 C325 1.490 . S
C330 C332 1.395 . S
C330 C333 1.403 . S
H331 C337 0.930 . S
C332 H318 0.930 . S
C332 C330 1.395 . S
C332 C335 1.403 . S
C333 C330 1.403 . S
C333 C334 1.524 . S
C333 C337 1.400 . S
C334 H319 0.960 . S
C334 H320 0.960 . S
C334 H321 0.960 . S
C334 C333 1.524 . S
C335 C332 1.403 . S
C335 C336 1.392 . S
C335 C339 1.495 . S
C336 C335 1.392 . S
C336 C337 1.385 . S
C336 C338 1.478 . S
C337 H331 0.930 . S
C337 C333 1.400 . S
C337 C336 1.385 . S
C338 C336 1.478 . S
C338 C340 1.381 . S
C338 C344 1.383 . S
C339 C335 1.495 . S
C339 H345 0.959 . S
C339 H346 0.961 . S
C339 H347 0.960 . S
C340 C338 1.381 . S
C340 C341 1.394 . S
C340 H348 0.930 . S
C341 C340 1.394 . S
C341 C342 1.383 . S
C341 H349 0.929 . S
C342 C341 1.383 . S
C342 C343 1.377 . S
C343 H327 0.930 . S
C343 C342 1.377 . S
C343 C344 1.379 . S
C344 H328 0.931 . S
C344 C338 1.383 . S
C344 C343 1.379 . S
H345 C339 0.959 . S
H346 C339 0.961 . S
H347 C339 0.960 . S
H348 C340 0.930 . S
H349 C341 0.929 . S
C71 C10 0.721 . S
C90 C33 0.708 . S
C107 C0 1.658 . S
C126 C55 1.666 . S
C143 C18 1.499 . S
C162 C42 1.472 . S
C179 C27 1.820 . S
C198 C32 1.797 . S
C215 C24 1.657 . S
C234 C31 1.646 . S
C251 C49 1.506 . S
C270 C11 1.489 . S
C287 C1 1.822 . S
C306 C58 1.837 . S
C323 C41 0.703 . S
C342 C2 0.666 . S
