# Generated by pormake.
# Topology dmp, (4)-cn, num edge types: 1
# Building blocks:
#     Node 0, Type 0, BuildingBlock: CEKHIL_clean_sbu_0, # of connection points: 4
#     Node 1, Type 0, BuildingBlock: CEKHIL_clean_sbu_0, # of connection points: 4
#     Node 2, Type 0, BuildingBlock: CEKHIL_clean_sbu_0, # of connection points: 4
#     Node 3, Type 0, BuildingBlock: CEKHIL_clean_sbu_0, # of connection points: 4
#     Edge 4, Type (0, 0), BuildingBlock: FUNLAD_clean_linker_1, # of connection points: 2
#     Edge 5, Type (0, 0), BuildingBlock: FUNLAD_clean_linker_1, # of connection points: 2
#     Edge 6, Type (0, 0), BuildingBlock: FUNLAD_clean_linker_1, # of connection points: 2
#     Edge 7, Type (0, 0), BuildingBlock: FUNLAD_clean_linker_1, # of connection points: 2
#     Edge 8, Type (0, 0), BuildingBlock: FUNLAD_clean_linker_1, # of connection points: 2
#     Edge 9, Type (0, 0), BuildingBlock: FUNLAD_clean_linker_1, # of connection points: 2
#     Edge 10, Type (0, 0), BuildingBlock: FUNLAD_clean_linker_1, # of connection points: 2
#     Edge 11, Type (0, 0), BuildingBlock: FUNLAD_clean_linker_1, # of connection points: 2
# Relax obj value: 0.088
# Max RMSD: 0.196
# Mean RMSD: 0.196
data_MOF--net-dmp--node1-CEKHIL_clean_sbu_0--edge1-FUNLAD_clean_linker_1
_symmetry_space_group_name_H-M    P1
_symmetry_Int_Tables_number       1
_symmetry_cell_setting            triclinic
loop_
_symmetry_equiv_pos_as_xyz
'x, y, z'
_cell_length_a     41.064233
_cell_length_b     19.774173
_cell_length_c     15.005323
_cell_angle_alpha  90.100671
_cell_angle_beta   90.069773
_cell_angle_gamma 91.596974
loop_
_atom_site_label
_atom_site_type_symbol
_atom_site_fract_x
_atom_site_fract_y
_atom_site_fract_z
_atom_type_partial_charge
Co0 Co 0.0961 0.24928 0.26315 0.0
O1 O 0.06379 0.31798 0.26828 0.0
O2 O 0.09357 0.285 0.38277 0.0
C3 C 0.06533 0.17503 0.18393 0.0
O4 O 0.13123 0.18 0.28506 0.0
Co5 Co 0.12448 0.19731 0.08415 0.0
O6 O 0.14093 0.12305 0.15874 0.0
C7 C 0.14964 0.32593 0.16376 0.0
C8 C 0.07115 0.32387 0.35217 0.0
C9 C 0.14469 0.13178 0.24229 0.0
O10 O 0.13063 0.319 0.23129 0.0
O11 O 0.14995 0.28488 0.09763 0.0
O12 O 0.06182 0.17856 0.26994 0.0
O13 O 0.08544 0.21829 0.14877 0.0
Co14 Co 0.39977 0.74055 0.27385 0.0
O15 O 0.43339 0.67465 0.27929 0.0
O16 O 0.40281 0.70511 0.39342 0.0
C17 C 0.42921 0.81727 0.19572 0.0
O18 O 0.36329 0.80694 0.29497 0.0
Co19 Co 0.37077 0.78994 0.09439 0.0
O20 O 0.35458 0.86479 0.16896 0.0
C21 C 0.3483 0.65893 0.17229 0.0
C22 C 0.42605 0.66821 0.36304 0.0
C23 C 0.35031 0.85564 0.25216 0.0
O24 O 0.36661 0.66812 0.24099 0.0
O25 O 0.34758 0.69959 0.10594 0.0
O26 O 0.43265 0.81397 0.28177 0.0
O27 O 0.41007 0.77232 0.1599 0.0
Co28 Co 0.89907 0.75869 0.73218 0.0
O29 O 0.93278 0.69317 0.72412 0.0
O30 O 0.90606 0.73468 0.60893 0.0
C31 C 0.92541 0.82732 0.82961 0.0
O32 O 0.8637 0.82796 0.71302 0.0
Co33 Co 0.86392 0.78829 0.91154 0.0
O34 O 0.84442 0.86334 0.84484 0.0
C35 C 0.8465 0.6648 0.80843 0.0
C36 C 0.92808 0.69444 0.63855 0.0
C37 C 0.84558 0.8663 0.76007 0.0
O38 O 0.86525 0.68364 0.74411 0.0
O39 O 0.84426 0.69704 0.88218 0.0
O40 O 0.93191 0.83173 0.74494 0.0
O41 O 0.9054 0.77931 0.85275 0.0
Co42 Co 0.59631 0.23883 0.7596 0.0
O43 O 0.56606 0.31076 0.74646 0.0
O44 O 0.59189 0.26184 0.63499 0.0
C45 C 0.56551 0.17782 0.8555 0.0
O46 O 0.62856 0.16258 0.74645 0.0
Co47 Co 0.62723 0.20314 0.94266 0.0
O48 O 0.63841 0.11823 0.88131 0.0
C49 C 0.65524 0.31558 0.83381 0.0
C50 C 0.57137 0.30655 0.66139 0.0
C51 C 0.64094 0.1173 0.79686 0.0
O52 O 0.63358 0.30608 0.7729 0.0
O53 O 0.65628 0.28163 0.90633 0.0
O54 O 0.5601 0.17308 0.77027 0.0
O55 O 0.58743 0.22187 0.87999 0.0
H56 H 0.30552 0.86233 0.33072 0.0
C57 C 0.32366 0.89233 0.29445 0.0
H58 H 0.3365 0.98534 0.23648 0.0
H59 H 0.20103 0.0654 0.0932 0.0
H60 H 0.23464 0.06441 0.96143 0.0
H61 H 0.29061 0.02273 0.9674 0.0
H62 H 0.31342 0.9835 0.10518 0.0
C63 C 0.31767 0.95646 0.27172 0.0
C64 C 0.28375 0.98204 0.27037 0.0
C65 C 0.27031 0.00228 0.18756 0.0
C66 C 0.23748 0.02304 0.18305 0.0
C67 C 0.22533 0.04644 0.10034 0.0
C68 C 0.24444 0.04659 0.02387 0.0
C69 C 0.27595 0.02339 0.02731 0.0
C70 C 0.28882 0.00132 0.10767 0.0
H71 H 0.18452 0.12088 0.33926 0.0
C72 C 0.17097 0.09482 0.28658 0.0
H73 H 0.16871 0.01271 0.19795 0.0
H74 H 0.30319 0.95891 0.44192 0.0
H75 H 0.26866 0.95532 0.57323 0.0
H76 H 0.21003 0.97816 0.56189 0.0
H77 H 0.18575 0.00655 0.41965 0.0
C78 C 0.18252 0.03792 0.25087 0.0
C79 C 0.21746 0.0203 0.26013 0.0
C80 C 0.23087 0.00064 0.34298 0.0
C81 C 0.26433 0.98362 0.34862 0.0
C82 C 0.27762 0.96883 0.4332 0.0
C83 C 0.25813 0.96717 0.50915 0.0
C84 C 0.22514 0.98031 0.50283 0.0
C85 C 0.21153 -0.00313 0.42087 0.0
H86 H 0.16694 0.4294 0.19781 0.0
C87 C 0.17335 0.38279 0.16444 0.0
H88 H 0.20981 0.3284 0.09934 0.0
H89 H 0.29781 0.56858 0.96179 0.0
H90 H 0.28151 0.51213 0.82479 0.0
H91 H 0.23988 0.41979 0.82568 0.0
H92 H 0.21473 0.38267 0.96361 0.0
C93 C 0.20338 0.37576 0.13084 0.0
C94 C 0.22814 0.43203 0.13136 0.0
C95 C 0.24194 0.45424 0.04951 0.0
C96 C 0.2652 0.50878 0.04861 0.0
C97 C 0.27947 0.52841 0.96629 0.0
C98 C 0.2704 0.49632 0.88703 0.0
C99 C 0.24702 0.44426 0.88756 0.0
C100 C 0.23285 0.42331 0.9675 0.0
H101 H 0.33123 0.55728 0.21506 0.0
C102 C 0.32583 0.59981 0.1722 0.0
H103 H 0.29202 0.643 0.08442 0.0
H104 H 0.21266 0.3924 0.30223 0.0
H105 H 0.22579 0.45383 0.43795 0.0
H106 H 0.25879 0.55996 0.43337 0.0
H107 H 0.27993 0.60341 0.29358 0.0
C108 C 0.29766 0.60023 0.12661 0.0
C109 C 0.27382 0.54239 0.12911 0.0
C110 C 0.25944 0.52119 0.2108 0.0
C111 C 0.23796 0.46365 0.21248 0.0
C112 C 0.22701 0.4388 0.29611 0.0
C113 C 0.2347 0.47315 0.37479 0.0
C114 C 0.25344 0.53261 0.37228 0.0
C115 C 0.26572 0.55661 0.2915 0.0
H116 H 0.67019 0.02646 0.80196 0.0
C117 C 0.66391 0.06886 0.75975 0.0
H118 H 0.67868 0.12935 0.65059 0.0
H119 H 0.82413 0.06628 0.76174 0.0
H120 H 0.82252 0.18846 0.77956 0.0
H121 H 0.77173 0.24906 0.75203 0.0
H122 H 0.72246 0.18829 0.70603 0.0
C123 C 0.68302 0.08421 0.68953 0.0
C124 C 0.71504 0.05106 0.68146 0.0
C125 C 0.74387 0.08795 0.70545 0.0
C126 C 0.77304 0.05305 0.72247 0.0
C127 C 0.80127 0.09054 0.74911 0.0
C128 C 0.80069 0.16056 0.75926 0.0
C129 C 0.77211 0.19468 0.74364 0.0
C130 C 0.74395 0.15909 0.71727 0.0
H131 H 0.82268 0.9118 0.64103 0.0
C132 C 0.82275 0.91091 0.71345 0.0
H133 H 0.80013 0.9446 0.83119 0.0
H134 H 0.66632 0.96897 0.61599 0.0
H135 H 0.6682 0.84707 0.59424 0.0
H136 H 0.71814 0.78554 0.62873 0.0
H137 H 0.76647 0.84513 0.68395 0.0
C138 C 0.80006 0.94461 0.75878 0.0
C139 C 0.77332 0.98165 0.71535 0.0
C140 C 0.74543 0.94568 0.68239 0.0
C141 C 0.71635 0.98073 0.66451 0.0
C142 C 0.68872 0.94408 0.63218 0.0
C143 C 0.68955 0.87439 0.61913 0.0
C144 C 0.71769 0.83977 0.63842 0.0
C145 C 0.74532 0.87467 0.67004 0.0
H146 H 0.83384 0.56528 0.74833 0.0
C147 C 0.8263 0.60287 0.79646 0.0
H148 H 0.79114 0.63115 0.89064 0.0
H149 H 0.7171 0.37625 0.67069 0.0
H150 H 0.72534 0.44149 0.53528 0.0
H151 H 0.75625 0.55028 0.53832 0.0
H152 H 0.78006 0.59307 0.67566 0.0
C153 C 0.79859 0.59329 0.84272 0.0
C154 C 0.77891 0.52926 0.83867 0.0
C155 C 0.76349 0.50761 0.75842 0.0
C156 C 0.74356 0.44769 0.75789 0.0
C157 C 0.73074 0.4237 0.67571 0.0
C158 C 0.73554 0.46031 0.5974 0.0
C159 C 0.75309 0.52135 0.59903 0.0
C160 C 0.7669 0.54506 0.6784 0.0
H161 H 0.67374 0.41526 0.78799 0.0
C162 C 0.68053 0.36811 0.81916 0.0
H163 H 0.71811 0.30973 0.87161 0.0
H164 H 0.80806 0.55215 1.00096 0.0
H165 H 0.79826 0.48882 0.13676 0.0
H166 H 0.75962 0.39111 0.13885 0.0
H167 H 0.73101 0.35558 0.00513 0.0
C168 C 0.71157 0.35787 0.84265 0.0
C169 C 0.73677 0.4132 0.83889 0.0
C170 C 0.75288 0.43375 0.91848 0.0
C171 C 0.77436 0.49127 0.91797 0.0
C172 C 0.7908 0.50986 0.99789 0.0
C173 C 0.78553 0.47378 0.07639 0.0
C174 C 0.76384 0.41872 0.07751 0.0
C175 C 0.7476 0.39877 0.99987 0.0
H176 H 0.05427 0.12526 0.05675 0.0
C177 C 0.04779 0.12585 0.12703 0.0
H178 H 0.01639 0.08436 0.22568 0.0
H179 H 0.94462 0.03217 0.82948 0.0
H180 H 0.93526 0.15276 0.83383 0.0
H181 H 0.95693 0.22346 0.95714 0.0
H182 H 0.98823 0.17403 0.07654 0.0
C183 C 0.02322 0.08566 0.15577 0.0
C184 C 0.00532 0.04157 0.09078 0.0
C185 C 0.98639 0.07099 0.0226 0.0
C186 C 0.97342 0.03008 0.95244 0.0
C187 C 0.95501 0.0609 0.88452 0.0
C188 C 0.94939 0.13005 0.88626 0.0
C189 C 0.96164 0.16987 0.95559 0.0
C190 C 0.97981 0.14094 0.02331 0.0
H191 H 0.93074 0.86809 0.96511 0.0
C192 C 0.93969 0.87299 0.89718 0.0
H193 H 0.97322 0.92347 0.81193 0.0
H194 H 0.0377 0.96894 0.21604 0.0
H195 H 0.04637 0.84794 0.21355 0.0
H196 H 0.02511 0.77706 0.08995 0.0
H197 H 0.99491 0.82642 0.96862 0.0
C198 C 0.96422 0.91693 0.87953 0.0
C199 C 0.97868 0.95961 0.95186 0.0
C200 C 0.99682 0.92983 0.02153 0.0
C201 C 0.00973 0.97085 0.09178 0.0
C202 C 0.02759 0.94005 0.16077 0.0
C203 C 0.03274 0.87072 0.16016 0.0
C204 C 0.0207 0.83078 0.09067 0.0
C205 C 0.00313 0.85974 0.02175 0.0
H206 H 0.55732 0.13867 0.99063 0.0
C207 C 0.54942 0.13378 0.92166 0.0
H208 H 0.51791 0.08205 0.83173 0.0
H209 H 0.50612 0.82822 0.09029 0.0
H210 H 0.53933 0.78336 0.97168 0.0
H211 H 0.55994 0.85725 0.85078 0.0
H212 H 0.54764 0.97649 0.84817 0.0
C213 C 0.52555 0.08909 0.90057 0.0
C214 C 0.51111 0.04422 0.97023 0.0
C215 C 0.51801 0.97445 0.96959 0.0
C216 C 0.5056 0.93163 0.03823 0.0
C217 C 0.51398 0.86259 0.03809 0.0
C218 C 0.53328 0.83629 0.97082 0.0
C219 C 0.54493 0.87791 0.90286 0.0
C220 C 0.53762 0.94627 0.90212 0.0
H221 H 0.43942 0.86815 0.06909 0.0
C222 C 0.44554 0.86848 0.13966 0.0
H223 H 0.47492 0.91432 0.24004 0.0
H224 H 0.49179 0.17521 0.98867 0.0
H225 H 0.45928 0.22013 0.10869 0.0
H226 H 0.43853 0.14593 0.22908 0.0
H227 H 0.45007 0.02613 0.22983 0.0
C228 C 0.46861 0.91197 0.16974 0.0
C229 C 0.4855 0.95835 0.10587 0.0
C230 C 0.47923 0.02837 0.10774 0.0
C231 C 0.49172 0.07133 0.03922 0.0
C232 C 0.48381 0.14061 0.04046 0.0
C233 C 0.46494 0.16698 0.10861 0.0
C234 C 0.45319 0.12517 0.1763 0.0
C235 C 0.46001 0.05655 0.17594 0.0
H236 H 0.93867 0.64811 0.50804 0.0
C237 C 0.94594 0.65015 0.57769 0.0
H238 H 0.97684 0.61199 0.67694 0.0
H239 H -0.00045 0.33226 0.49066 0.0
H240 H 0.96708 0.29854 0.6185 0.0
H241 H 0.94263 0.38398 0.71575 0.0
H242 H 0.95034 0.50358 0.68535 0.0
C243 C 0.97007 0.61127 0.60689 0.0
C244 C 0.9856 0.56055 0.54829 0.0
C245 C 0.98137 0.49069 0.568 0.0
C246 C 0.99589 0.4414 0.51271 0.0
C247 C 0.99003 0.37198 0.53189 0.0
C248 C 0.97118 0.35183 0.60474 0.0
C249 C 0.95738 0.39991 0.65942 0.0
C250 C 0.96215 0.46852 0.64134 0.0
H251 H 0.06296 0.37711 0.47939 0.0
C252 C 0.05498 0.37272 0.41048 0.0
H253 H 0.02324 0.40833 0.31128 0.0
H254 H 0.00109 0.69039 0.49596 0.0
H255 H 0.03312 0.72402 0.36717 0.0
H256 H 0.05734 0.6385 0.26959 0.0
H257 H 0.04984 0.51882 0.30062 0.0
C258 C 0.03078 0.41116 0.38068 0.0
C259 C 0.01518 0.46214 0.4387 0.0
C260 C 0.01925 0.53195 0.41867 0.0
C261 C 0.00477 0.58127 0.47405 0.0
C262 C 0.01054 0.65067 0.45462 0.0
C263 C 0.02914 0.67075 0.38124 0.0
C264 C 0.04281 0.62261 0.32636 0.0
C265 C 0.0382 0.55401 0.34482 0.0
H266 H 0.43574 0.61699 0.4907 0.0
C267 C 0.44325 0.62108 0.42144 0.0
H268 H 0.4749 0.58614 0.32156 0.0
H269 H 0.55207 0.50192 0.69361 0.0
H270 H 0.5593 0.62249 0.71846 0.0
H271 H 0.53327 0.7045 0.61941 0.0
H272 H 0.49972 0.66638 0.49527 0.0
C273 C 0.46782 0.58379 0.39128 0.0
C274 C 0.48459 0.53484 0.44968 0.0
C275 C 0.50446 0.55809 0.52146 0.0
C276 C 0.51982 0.51078 0.57788 0.0
C277 C 0.53959 0.53545 0.64898 0.0
C278 C 0.5441 0.60462 0.66383 0.0
C279 C 0.52942 0.65078 0.60812 0.0
C280 C 0.50998 0.62813 0.53742 0.0
H281 H 0.56263 0.35035 0.52819 0.0
C282 C 0.55502 0.35098 0.59752 0.0
H283 H 0.5239 0.39329 0.69314 0.0
H284 H 0.44937 0.47365 0.3155 0.0
H285 H 0.44231 0.35304 0.28989 0.0
H286 H 0.46774 0.27086 0.38987 0.0
H287 H 0.50058 0.30872 0.51549 0.0
C288 C 0.53109 0.39168 0.6235 0.0
C289 C 0.51572 0.44032 0.5617 0.0
C290 C 0.49612 0.41707 0.48925 0.0
C291 C 0.4809 0.46447 0.43257 0.0
C292 C 0.46153 0.43996 0.3606 0.0
C293 C 0.45718 0.37082 0.34526 0.0
C294 C 0.47153 0.32456 0.40148 0.0
C295 C 0.49059 0.34708 0.47304 0.0
loop_
_geom_bond_atom_site_label_1
_geom_bond_atom_site_label_2
_geom_bond_distance
_geom_bond_site_symmetry_2
_ccdc_geom_bond_type
Co0 O1 2.216 . S
Co0 O2 2.091 . S
Co0 O4 2.004 . S
Co0 O10 2.021 . S
Co0 O12 2.137 . S
Co0 O13 2.244 . S
O1 Co0 2.216 . S
O1 C8 1.247 . S
O2 Co0 2.091 . S
O2 C8 1.261 . S
C3 O12 1.247 . S
C3 O13 1.272 . S
O4 Co0 2.004 . S
O4 C9 1.259 . S
Co5 O6 2.061 . S
Co5 O11 2.052 . S
Co5 O13 2.135 . S
O6 Co5 2.061 . S
O6 C9 1.235 . S
C7 O10 1.238 . S
C7 O11 1.241 . S
C8 O1 1.247 . S
C8 O2 1.261 . S
C9 O4 1.259 . S
C9 O6 1.235 . S
O10 Co0 2.021 . S
O10 C7 1.238 . S
O11 Co5 2.052 . S
O11 C7 1.241 . S
O12 Co0 2.137 . S
O12 C3 1.247 . S
O13 Co0 2.244 . S
O13 C3 1.272 . S
O13 Co5 2.135 . S
Co14 O15 2.216 . S
Co14 O16 2.091 . S
Co14 O18 2.004 . S
Co14 O24 2.021 . S
Co14 O26 2.137 . S
Co14 O27 2.244 . S
O15 Co14 2.216 . S
O15 C22 1.247 . S
O16 Co14 2.091 . S
O16 C22 1.261 . S
C17 O26 1.247 . S
C17 O27 1.272 . S
O18 Co14 2.004 . S
O18 C23 1.259 . S
Co19 O20 2.061 . S
Co19 O25 2.052 . S
Co19 O27 2.135 . S
O20 Co19 2.061 . S
O20 C23 1.235 . S
C21 O24 1.238 . S
C21 O25 1.241 . S
C22 O15 1.247 . S
C22 O16 1.261 . S
C23 O18 1.259 . S
C23 O20 1.235 . S
O24 Co14 2.021 . S
O24 C21 1.238 . S
O25 Co19 2.052 . S
O25 C21 1.241 . S
O26 Co14 2.137 . S
O26 C17 1.247 . S
O27 Co14 2.244 . S
O27 C17 1.272 . S
O27 Co19 2.135 . S
Co28 O29 2.216 . S
Co28 O30 2.091 . S
Co28 O32 2.004 . S
Co28 O38 2.021 . S
Co28 O40 2.137 . S
Co28 O41 2.244 . S
O29 Co28 2.216 . S
O29 C36 1.247 . S
O30 Co28 2.091 . S
O30 C36 1.261 . S
C31 O40 1.247 . S
C31 O41 1.272 . S
O32 Co28 2.004 . S
O32 C37 1.259 . S
Co33 O34 2.061 . S
Co33 O39 2.052 . S
Co33 O41 2.135 . S
O34 Co33 2.061 . S
O34 C37 1.235 . S
C35 O38 1.238 . S
C35 O39 1.241 . S
C36 O29 1.247 . S
C36 O30 1.261 . S
C37 O32 1.259 . S
C37 O34 1.235 . S
O38 Co28 2.021 . S
O38 C35 1.238 . S
O39 Co33 2.052 . S
O39 C35 1.241 . S
O40 Co28 2.137 . S
O40 C31 1.247 . S
O41 Co28 2.244 . S
O41 C31 1.272 . S
O41 Co33 2.135 . S
Co42 O43 2.216 . S
Co42 O44 2.091 . S
Co42 O46 2.004 . S
Co42 O52 2.021 . S
Co42 O54 2.137 . S
Co42 O55 2.244 . S
O43 Co42 2.216 . S
O43 C50 1.247 . S
O44 Co42 2.091 . S
O44 C50 1.261 . S
C45 O54 1.247 . S
C45 O55 1.272 . S
O46 Co42 2.004 . S
O46 C51 1.259 . S
Co47 O48 2.061 . S
Co47 O53 2.052 . S
Co47 O55 2.135 . S
O48 Co47 2.061 . S
O48 C51 1.235 . S
C49 O52 1.238 . S
C49 O53 1.241 . S
C50 O43 1.247 . S
C50 O44 1.261 . S
C51 O46 1.259 . S
C51 O48 1.235 . S
O52 Co42 2.021 . S
O52 C49 1.238 . S
O53 Co47 2.052 . S
O53 C49 1.241 . S
O54 Co42 2.137 . S
O54 C45 1.247 . S
O55 Co42 2.244 . S
O55 C45 1.272 . S
O55 Co47 2.135 . S
H56 C57 0.951 . S
C57 H56 0.951 . S
C57 C63 1.265 . S
H58 C63 0.950 . S
H59 C67 0.949 . S
H60 C68 0.950 . S
H61 C69 0.951 . S
H62 C70 0.951 1_565 S
C63 C57 1.265 . S
C63 H58 0.950 . S
C63 C64 1.478 . S
C64 C63 1.478 . S
C64 C65 1.397 1_565 S
C64 C81 1.394 . S
C65 C64 1.397 1_545 S
C65 C66 1.438 . S
C65 C70 1.429 . S
C66 C65 1.438 . S
C66 C67 1.428 . S
C66 C79 1.394 . S
C67 H59 0.949 . S
C67 C66 1.428 . S
C67 C68 1.345 . S
C68 H60 0.950 . S
C68 C67 1.345 . S
C68 C69 1.424 . S
C69 H61 0.951 . S
C69 C68 1.424 . S
C69 C70 1.347 . S
C70 H62 0.951 1_545 S
C70 C65 1.429 . S
C70 C69 1.347 . S
H71 C72 0.951 . S
C72 H71 0.951 . S
C72 C78 1.265 . S
H73 C78 0.950 . S
H74 C82 0.949 . S
H75 C83 0.950 . S
H76 C84 0.951 . S
H77 C85 0.951 1_545 S
C78 C72 1.265 . S
C78 H73 0.950 . S
C78 C79 1.478 . S
C79 C66 1.394 . S
C79 C78 1.478 . S
C79 C80 1.397 1_545 S
C80 C79 1.397 1_565 S
C80 C81 1.438 . S
C80 C85 1.429 . S
C81 C64 1.394 . S
C81 C80 1.438 . S
C81 C82 1.428 . S
C82 H74 0.949 . S
C82 C81 1.428 . S
C82 C83 1.345 . S
C83 H75 0.950 . S
C83 C82 1.345 . S
C83 C84 1.424 . S
C84 H76 0.951 . S
C84 C83 1.424 . S
C84 C85 1.347 . S
C85 H77 0.951 1_565 S
C85 C80 1.429 . S
C85 C84 1.347 . S
H86 C87 0.951 . S
C87 H86 0.951 . S
C87 C93 1.265 . S
H88 C93 0.950 . S
H89 C97 0.949 . S
H90 C98 0.950 . S
H91 C99 0.951 . S
H92 C100 0.951 . S
C93 C87 1.265 . S
C93 H88 0.950 . S
C93 C94 1.478 . S
C94 C93 1.478 . S
C94 C95 1.397 . S
C94 C111 1.394 . S
C95 C94 1.397 . S
C95 C96 1.438 . S
C95 C100 1.429 . S
C96 C95 1.438 . S
C96 C97 1.428 . S
C96 C109 1.394 . S
C97 H89 0.949 . S
C97 C96 1.428 . S
C97 C98 1.345 1_554 S
C98 H90 0.950 . S
C98 C97 1.345 1_556 S
C98 C99 1.424 . S
C99 H91 0.951 . S
C99 C98 1.424 . S
C99 C100 1.347 1_556 S
C100 H92 0.951 . S
C100 C95 1.429 . S
C100 C99 1.347 1_554 S
H101 C102 0.951 . S
C102 H101 0.951 . S
C102 C108 1.265 . S
H103 C108 0.950 . S
H104 C112 0.949 . S
H105 C113 0.950 . S
H106 C114 0.951 . S
H107 C115 0.951 . S
C108 C102 1.265 . S
C108 H103 0.950 . S
C108 C109 1.478 . S
C109 C96 1.394 . S
C109 C108 1.478 . S
C109 C110 1.397 . S
C110 C109 1.397 . S
C110 C111 1.438 . S
C110 C115 1.429 . S
C111 C94 1.394 . S
C111 C110 1.438 . S
C111 C112 1.428 . S
C112 H104 0.949 . S
C112 C111 1.428 . S
C112 C113 1.345 . S
C113 H105 0.950 . S
C113 C112 1.345 . S
C113 C114 1.424 . S
C114 H106 0.951 . S
C114 C113 1.424 . S
C114 C115 1.347 . S
C115 H107 0.951 . S
C115 C110 1.429 . S
C115 C114 1.347 . S
H116 C117 0.951 . S
C117 H116 0.951 . S
C117 C123 1.265 . S
H118 C123 0.950 . S
H119 C127 0.948 . S
H120 C128 0.950 . S
H121 C129 0.951 . S
H122 C130 0.951 . S
C123 C117 1.265 . S
C123 H118 0.950 . S
C123 C124 1.478 . S
C124 C123 1.478 . S
C124 C125 1.397 . S
C124 C141 1.394 1_545 S
C125 C124 1.397 . S
C125 C126 1.438 . S
C125 C130 1.429 . S
C126 C125 1.438 . S
C126 C127 1.428 . S
C126 C139 1.394 1_545 S
C127 H119 0.948 . S
C127 C126 1.428 . S
C127 C128 1.345 . S
C128 H120 0.950 . S
C128 C127 1.345 . S
C128 C129 1.424 . S
C129 H121 0.951 . S
C129 C128 1.424 . S
C129 C130 1.347 . S
C130 H122 0.951 . S
C130 C125 1.429 . S
C130 C129 1.347 . S
H131 C132 0.951 . S
C132 H131 0.951 . S
C132 C138 1.265 . S
H133 C138 0.950 . S
H134 C142 0.948 . S
H135 C143 0.950 . S
H136 C144 0.951 . S
H137 C145 0.951 . S
C138 C132 1.265 . S
C138 H133 0.950 . S
C138 C139 1.478 . S
C139 C126 1.394 1_565 S
C139 C138 1.478 . S
C139 C140 1.397 . S
C140 C139 1.397 . S
C140 C141 1.438 . S
C140 C145 1.429 . S
C141 C124 1.394 1_565 S
C141 C140 1.438 . S
C141 C142 1.428 . S
C142 H134 0.948 . S
C142 C141 1.428 . S
C142 C143 1.345 . S
C143 H135 0.950 . S
C143 C142 1.345 . S
C143 C144 1.424 . S
C144 H136 0.951 . S
C144 C143 1.424 . S
C144 C145 1.347 . S
C145 H137 0.951 . S
C145 C140 1.429 . S
C145 C144 1.347 . S
H146 C147 0.951 . S
C147 H146 0.951 . S
C147 C153 1.265 . S
H148 C153 0.950 . S
H149 C157 0.949 . S
H150 C158 0.950 . S
H151 C159 0.951 . S
H152 C160 0.951 . S
C153 C147 1.265 . S
C153 H148 0.950 . S
C153 C154 1.478 . S
C154 C153 1.478 . S
C154 C155 1.397 . S
C154 C171 1.394 . S
C155 C154 1.397 . S
C155 C156 1.438 . S
C155 C160 1.429 . S
C156 C155 1.438 . S
C156 C157 1.428 . S
C156 C169 1.394 . S
C157 H149 0.949 . S
C157 C156 1.428 . S
C157 C158 1.345 . S
C158 H150 0.950 . S
C158 C157 1.345 . S
C158 C159 1.424 . S
C159 H151 0.951 . S
C159 C158 1.424 . S
C159 C160 1.347 . S
C160 H152 0.951 . S
C160 C155 1.429 . S
C160 C159 1.347 . S
H161 C162 0.951 . S
C162 H161 0.951 . S
C162 C168 1.265 . S
H163 C168 0.950 . S
H164 C172 0.949 . S
H165 C173 0.950 . S
H166 C174 0.951 . S
H167 C175 0.951 . S
C168 C162 1.265 . S
C168 H163 0.950 . S
C168 C169 1.478 . S
C169 C156 1.394 . S
C169 C168 1.478 . S
C169 C170 1.397 . S
C170 C169 1.397 . S
C170 C171 1.438 . S
C170 C175 1.429 . S
C171 C154 1.394 . S
C171 C170 1.438 . S
C171 C172 1.428 . S
C172 H164 0.949 . S
C172 C171 1.428 . S
C172 C173 1.345 1_556 S
C173 H165 0.950 . S
C173 C172 1.345 1_554 S
C173 C174 1.424 . S
C174 H166 0.951 . S
C174 C173 1.424 . S
C174 C175 1.347 1_554 S
C175 H167 0.951 . S
C175 C170 1.429 . S
C175 C174 1.347 1_556 S
H176 C177 0.951 . S
C177 H176 0.951 . S
C177 C183 1.265 . S
H178 C183 0.950 . S
H179 C187 0.949 1_565 S
H180 C188 0.950 . S
H181 C189 0.951 . S
H182 C190 0.951 1_455 S
C183 C177 1.265 . S
C183 H178 0.950 . S
C183 C184 1.478 . S
C184 C183 1.478 . S
C184 C185 1.397 1_454 S
C184 C201 1.394 1_545 S
C185 C184 1.397 1_656 S
C185 C186 1.438 . S
C185 C190 1.429 . S
C186 C185 1.438 . S
C186 C187 1.428 . S
C186 C199 1.394 1_545 S
C187 H179 0.949 1_545 S
C187 C186 1.428 . S
C187 C188 1.345 . S
C188 H180 0.950 . S
C188 C187 1.345 . S
C188 C189 1.424 . S
C189 H181 0.951 . S
C189 C188 1.424 . S
C189 C190 1.347 . S
C190 H182 0.951 1_655 S
C190 C185 1.429 . S
C190 C189 1.347 . S
H191 C192 0.951 . S
C192 H191 0.951 . S
C192 C198 1.265 . S
H193 C198 0.950 . S
H194 C202 0.949 1_545 S
H195 C203 0.950 . S
H196 C204 0.951 . S
H197 C205 0.951 1_655 S
C198 C192 1.265 . S
C198 H193 0.950 . S
C198 C199 1.478 . S
C199 C186 1.394 1_565 S
C199 C198 1.478 . S
C199 C200 1.397 1_656 S
C200 C199 1.397 1_454 S
C200 C201 1.438 . S
C200 C205 1.429 . S
C201 C184 1.394 1_565 S
C201 C200 1.438 . S
C201 C202 1.428 . S
C202 H194 0.949 1_565 S
C202 C201 1.428 . S
C202 C203 1.345 . S
C203 H195 0.950 . S
C203 C202 1.345 . S
C203 C204 1.424 . S
C204 H196 0.951 . S
C204 C203 1.424 . S
C204 C205 1.347 . S
C205 H197 0.951 1_455 S
C205 C200 1.429 . S
C205 C204 1.347 . S
H206 C207 0.951 . S
C207 H206 0.951 . S
C207 C213 1.265 . S
H208 C213 0.950 . S
H209 C217 0.949 . S
H210 C218 0.950 . S
H211 C219 0.951 . S
H212 C220 0.951 . S
C213 C207 1.265 . S
C213 H208 0.950 . S
C213 C214 1.478 . S
C214 C213 1.478 . S
C214 C215 1.397 1_545 S
C214 C231 1.394 1_556 S
C215 C214 1.397 1_565 S
C215 C216 1.438 . S
C215 C220 1.429 . S
C216 C215 1.438 . S
C216 C217 1.428 . S
C216 C229 1.394 1_556 S
C217 H209 0.949 . S
C217 C216 1.428 . S
C217 C218 1.345 . S
C218 H210 0.950 . S
C218 C217 1.345 . S
C218 C219 1.424 . S
C219 H211 0.951 . S
C219 C218 1.424 . S
C219 C220 1.347 . S
C220 H212 0.951 . S
C220 C215 1.429 . S
C220 C219 1.347 . S
H221 C222 0.951 . S
C222 H221 0.951 . S
C222 C228 1.265 . S
H223 C228 0.950 . S
H224 C232 0.949 . S
H225 C233 0.950 . S
H226 C234 0.951 . S
H227 C235 0.951 . S
C228 C222 1.265 . S
C228 H223 0.950 . S
C228 C229 1.478 . S
C229 C216 1.394 1_554 S
C229 C228 1.478 . S
C229 C230 1.397 1_565 S
C230 C229 1.397 1_545 S
C230 C231 1.438 . S
C230 C235 1.429 . S
C231 C214 1.394 1_554 S
C231 C230 1.438 . S
C231 C232 1.428 . S
C232 H224 0.949 . S
C232 C231 1.428 . S
C232 C233 1.345 . S
C233 H225 0.950 . S
C233 C232 1.345 . S
C233 C234 1.424 . S
C234 H226 0.951 . S
C234 C233 1.424 . S
C234 C235 1.347 . S
C235 H227 0.951 . S
C235 C230 1.429 . S
C235 C234 1.347 . S
H236 C237 0.951 . S
C237 H236 0.951 . S
C237 C243 1.265 . S
H238 C243 0.950 . S
H239 C247 0.949 . S
H240 C248 0.950 . S
H241 C249 0.951 . S
H242 C250 0.951 1_655 S
C243 C237 1.265 . S
C243 H238 0.950 . S
C243 C244 1.478 . S
C244 C243 1.478 . S
C244 C245 1.397 1_655 S
C244 C261 1.394 . S
C245 C244 1.397 1_455 S
C245 C246 1.438 . S
C245 C250 1.429 . S
C246 C245 1.438 . S
C246 C247 1.428 . S
C246 C259 1.394 . S
C247 H239 0.949 . S
C247 C246 1.428 . S
C247 C248 1.345 . S
C248 H240 0.950 . S
C248 C247 1.345 . S
C248 C249 1.424 . S
C249 H241 0.951 . S
C249 C248 1.424 . S
C249 C250 1.347 . S
C250 H242 0.951 1_455 S
C250 C245 1.429 . S
C250 C249 1.347 . S
H251 C252 0.951 . S
C252 H251 0.951 . S
C252 C258 1.265 . S
H253 C258 0.950 . S
H254 C262 0.949 . S
H255 C263 0.950 . S
H256 C264 0.951 . S
H257 C265 0.951 1_455 S
C258 C252 1.265 . S
C258 H253 0.950 . S
C258 C259 1.478 . S
C259 C246 1.394 . S
C259 C258 1.478 . S
C259 C260 1.397 1_455 S
C260 C259 1.397 1_655 S
C260 C261 1.438 . S
C260 C265 1.429 . S
C261 C244 1.394 . S
C261 C260 1.438 . S
C261 C262 1.428 . S
C262 H254 0.949 . S
C262 C261 1.428 . S
C262 C263 1.345 . S
C263 H255 0.950 . S
C263 C262 1.345 . S
C263 C264 1.424 . S
C264 H256 0.951 . S
C264 C263 1.424 . S
C264 C265 1.347 . S
C265 H257 0.951 1_655 S
C265 C260 1.429 . S
C265 C264 1.347 . S
H266 C267 0.951 . S
C267 H266 0.951 . S
C267 C273 1.265 . S
H268 C273 0.950 . S
H269 C277 0.949 . S
H270 C278 0.950 . S
H271 C279 0.951 . S
H272 C280 0.951 . S
C273 C267 1.265 . S
C273 H268 0.950 . S
C273 C274 1.478 . S
C274 C273 1.478 . S
C274 C275 1.397 . S
C274 C291 1.394 . S
C275 C274 1.397 . S
C275 C276 1.438 . S
C275 C280 1.429 . S
C276 C275 1.438 . S
C276 C277 1.428 . S
C276 C289 1.394 . S
C277 H269 0.949 . S
C277 C276 1.428 . S
C277 C278 1.345 . S
C278 H270 0.950 . S
C278 C277 1.345 . S
C278 C279 1.424 . S
C279 H271 0.951 . S
C279 C278 1.424 . S
C279 C280 1.347 . S
C280 H272 0.951 . S
C280 C275 1.429 . S
C280 C279 1.347 . S
H281 C282 0.951 . S
C282 H281 0.951 . S
C282 C288 1.265 . S
H283 C288 0.950 . S
H284 C292 0.949 . S
H285 C293 0.950 . S
H286 C294 0.951 . S
H287 C295 0.951 . S
C288 C282 1.265 . S
C288 H283 0.950 . S
C288 C289 1.478 . S
C289 C276 1.394 . S
C289 C288 1.478 . S
C289 C290 1.397 . S
C290 C289 1.397 . S
C290 C291 1.438 . S
C290 C295 1.429 . S
C291 C274 1.394 . S
C291 C290 1.438 . S
C291 C292 1.428 . S
C292 H284 0.949 . S
C292 C291 1.428 . S
C292 C293 1.345 . S
C293 H285 0.950 . S
C293 C292 1.345 . S
C293 C294 1.424 . S
C294 H286 0.951 . S
C294 C293 1.424 . S
C294 C295 1.347 . S
C295 H287 0.951 . S
C295 C290 1.429 . S
C295 C294 1.347 . S
C57 C23 1.013 . S
C72 C9 1.013 . S
C87 C7 1.003 . S
C102 C21 1.002 . S
C117 C51 1.026 . S
C132 C37 1.095 . S
C147 C35 1.002 . S
C162 C49 1.004 . S
C177 C3 1.509 . S
C192 C31 1.509 . S
C207 C45 1.537 . S
C222 C17 1.537 . S
C237 C36 1.527 . S
C252 C8 1.527 . S
C267 C22 1.519 . S
C282 C50 1.519 . S
