# Generated by pormake.
# Topology rob, (6)-cn, num edge types: 1
# Building blocks:
#     Node 0, Type 0, BuildingBlock: KUMJIN_clean_sbu_0, # of connection points: 6
#     Node 1, Type 0, BuildingBlock: KUMJIN_clean_sbu_0, # of connection points: 6
#     Node 2, Type 0, BuildingBlock: KUMJIN_clean_sbu_0, # of connection points: 6
#     Node 3, Type 0, BuildingBlock: KUMJIN_clean_sbu_0, # of connection points: 6
#     Edge 4, Type (0, 0), BuildingBlock: MIFKUJ_clean_linker_0, # of connection points: 2
#     Edge 5, Type (0, 0), BuildingBlock: MIFKUJ_clean_linker_0, # of connection points: 2
#     Edge 6, Type (0, 0), BuildingBlock: MIFKUJ_clean_linker_0, # of connection points: 2
#     Edge 7, Type (0, 0), BuildingBlock: MIFKUJ_clean_linker_0, # of connection points: 2
#     Edge 8, Type (0, 0), BuildingBlock: MIFKUJ_clean_linker_0, # of connection points: 2
#     Edge 9, Type (0, 0), BuildingBlock: MIFKUJ_clean_linker_0, # of connection points: 2
#     Edge 10, Type (0, 0), BuildingBlock: MIFKUJ_clean_linker_0, # of connection points: 2
#     Edge 11, Type (0, 0), BuildingBlock: MIFKUJ_clean_linker_0, # of connection points: 2
#     Edge 12, Type (0, 0), BuildingBlock: MIFKUJ_clean_linker_0, # of connection points: 2
#     Edge 13, Type (0, 0), BuildingBlock: MIFKUJ_clean_linker_0, # of connection points: 2
#     Edge 14, Type (0, 0), BuildingBlock: MIFKUJ_clean_linker_0, # of connection points: 2
#     Edge 15, Type (0, 0), BuildingBlock: MIFKUJ_clean_linker_0, # of connection points: 2
# Relax obj value: 0.032
# Max RMSD: 0.150
# Mean RMSD: 0.150
data_MOF--net-rob--node1-KUMJIN_clean_sbu_0--edge1-MIFKUJ_clean_linker_0
_symmetry_space_group_name_H-M    P1
_symmetry_Int_Tables_number       1
_symmetry_cell_setting            triclinic
loop_
_symmetry_equiv_pos_as_xyz
'x, y, z'
_cell_length_a     19.981082
_cell_length_b     34.046064
_cell_length_c     41.990338
_cell_angle_alpha  118.26381
_cell_angle_beta   90.128444
_cell_angle_gamma 89.948138
loop_
_atom_site_label
_atom_site_type_symbol
_atom_site_fract_x
_atom_site_fract_y
_atom_site_fract_z
_atom_type_partial_charge
Eu0 Eu 0.19111 0.28803 0.03869 0.0
C1 C 0.34586 0.10749 0.9517 0.0
C2 C 0.45139 0.11572 0.98277 0.0
C3 C 0.40359 0.04191 0.94674 0.0
C4 C 0.39589 0.13462 0.9742 0.0
C5 C 0.34945 0.06079 0.93745 0.0
C6 C 0.45469 0.06928 0.96907 0.0
C7 C 0.24943 0.05443 0.90289 0.0
N8 N 0.29557 0.12658 0.94206 0.0
C9 C 0.24859 0.10077 0.91722 0.0
C10 C 0.29984 0.03435 0.9132 0.0
Eu11 Eu 0.29896 0.20514 0.96674 0.0
N12 N 0.3925 0.17917 0.98581 0.0
C13 C 0.4443 0.20645 1.00459 0.0
C14 C 0.50312 0.14392 1.00367 0.0
C15 C 0.49971 0.18945 0.01444 0.0
H16 H 0.20966 0.11583 0.90881 0.0
H17 H 0.54005 0.21141 0.02999 0.0
H18 H 0.49743 0.05398 0.97469 0.0
H19 H 0.21148 0.0342 0.8837 0.0
H20 H 0.44259 0.24156 0.0124 0.0
H21 H 0.95242 0.27399 0.97042 0.0
H22 H 0.54667 0.13077 1.01081 0.0
H23 H 0.27176 0.38056 0.09802 0.0
H24 H 0.04739 0.24776 0.99297 0.0
H25 H 0.26809 0.46162 0.11953 0.0
H26 H 0.40745 0.00611 0.93594 0.0
H27 H 0.94679 0.35288 0.98365 0.0
H28 H 0.99574 0.4301 0.01545 0.0
H29 H 0.3008 0.99842 0.90161 0.0
H30 H 0.08157 0.48122 0.05609 0.0
N31 N 0.09607 0.31084 0.0179 0.0
C32 C 0.04546 0.28229 0.99904 0.0
C33 C 0.98863 0.34155 0.99362 0.0
C34 C 0.03876 0.3712 0.01474 0.0
C35 C 0.99155 0.29702 0.98617 0.0
C36 C 0.09229 0.35466 0.02688 0.0
H37 H 0.18288 0.49343 0.09542 0.0
N38 N 0.18978 0.36639 0.06178 0.0
C39 C 0.23235 0.43999 0.09958 0.0
C40 C 0.14059 0.38336 0.04957 0.0
C41 C 0.23412 0.39403 0.08744 0.0
C42 C 0.1841 0.45778 0.08593 0.0
C43 C 0.13677 0.42949 0.06099 0.0
O44 O 0.19204 0.30321 0.09529 0.0
O45 O 0.27392 0.23889 0.02533 0.0
O46 O 0.23506 0.16839 0.98808 0.0
O47 O 0.14541 0.2179 1.01073 0.0
O48 O 0.28581 0.29852 0.07179 0.0
O49 O 0.10088 0.27917 0.06425 0.0
O50 O 0.30044 0.18891 0.90988 0.0
O51 O 0.21709 0.25479 0.98033 0.0
O52 O 0.25694 0.32518 0.0186 0.0
O53 O 0.34591 0.27508 0.99433 0.0
O54 O 0.20534 0.19624 0.93323 0.0
O55 O 0.39001 0.21473 0.94226 0.0
C56 C 0.31233 0.25995 0.05198 0.0
C57 C 0.0912 0.32648 0.12745 0.0
C58 C 0.03913 0.34626 0.18596 0.0
C59 C 0.06836 0.31435 0.15322 0.0
C60 C 0.03239 0.39042 0.19168 0.0
C61 C 0.08234 0.37026 0.1335 0.0
C62 C 0.05293 0.40199 0.16544 0.0
C63 C 0.17263 0.17793 0.99961 0.0
C64 C 0.12899 0.29405 0.09592 0.0
C65 C 0.08503 0.44594 0.04789 0.0
C66 C 0.03615 0.41683 0.02477 0.0
C67 C 0.17927 0.23481 0.95331 0.0
C68 C 0.40334 0.16649 0.87942 0.0
C69 C 0.42641 0.17812 0.85344 0.0
C70 C 0.45889 0.14648 0.82184 0.0
C71 C 0.46948 0.10326 0.81741 0.0
C72 C 0.41503 0.12343 0.87455 0.0
C73 C 0.44823 0.09208 0.84377 0.0
C74 C 0.31901 0.31538 1.00645 0.0
C75 C 0.36349 0.19877 0.9101 0.0
H76 H 0.07417 0.28004 0.14761 0.0
H77 H 0.01255 0.41658 0.2167 0.0
H78 H 0.09927 0.38016 0.11394 0.0
H79 H 0.04729 0.43599 0.17025 0.0
H80 H 0.41856 0.21181 0.85786 0.0
H81 H 0.49299 0.07769 0.79327 0.0
H82 H 0.39782 0.11383 0.8942 0.0
H83 H 0.45649 0.05872 0.84 0.0
Eu84 Eu 0.68344 0.79186 0.04888 0.0
C85 C 0.87832 0.62846 0.97809 0.0
C86 C 0.97932 0.65034 0.0144 0.0
C87 C 0.94798 0.57209 0.98173 0.0
C88 C 0.92109 0.66158 1.00149 0.0
C89 C 0.89147 0.58331 0.96779 0.0
C90 C 0.99215 0.6055 1.0047 0.0
C91 C 0.79582 0.56323 0.92781 0.0
N92 N 0.82529 0.64022 0.96421 0.0
C93 C 0.78572 0.60834 0.9382 0.0
C94 C 0.84838 0.55071 0.94306 0.0
Eu95 Eu 0.81011 0.71744 0.98462 0.0
N96 N 0.90753 0.70459 1.01025 0.0
C97 C 0.9514 0.73784 0.03065 0.0
C98 C 0.02396 0.68438 0.03575 0.0
C99 C 0.00989 0.72832 0.04398 0.0
H100 H 0.74495 0.61779 0.92633 0.0
H101 H 0.04445 0.75479 0.06024 0.0
H102 H 0.03665 0.59618 0.01428 0.0
H103 H 0.76316 0.53817 0.90804 0.0
H104 H 0.94143 0.77184 0.03678 0.0
H105 H 0.4558 0.74654 0.9664 0.0
H106 H 0.07027 0.67696 0.04511 0.0
H107 H 0.73773 0.89318 0.10867 0.0
H108 H 0.55393 0.73361 0.99564 0.0
H109 H 0.71358 0.97226 0.12689 0.0
H110 H 0.95893 0.53759 0.97413 0.0
H111 H 0.43001 0.82261 0.97639 0.0
H112 H 0.45724 0.90447 1.00838 0.0
H113 H 0.85614 0.51577 0.93503 0.0
H114 H 0.52701 0.96594 0.05227 0.0
N115 N 0.58524 0.8015 0.02138 0.0
C116 C 0.54352 0.76704 1.00045 0.0
C117 C 0.47335 0.81715 0.98935 0.0
C118 C 0.5141 0.85273 0.01245 0.0
C119 C 0.48767 0.7742 0.98371 0.0
C120 C 0.57015 0.84373 0.02845 0.0
H121 H 0.62207 0.9916 0.09696 0.0
N122 N 0.66135 0.86824 0.0686 0.0
C123 C 0.68402 0.94614 0.10594 0.0
C124 C 0.6094 0.87821 0.05291 0.0
C125 C 0.69745 0.90138 0.09565 0.0
C126 C 0.63244 0.95691 0.08893 0.0
C127 C 0.59381 0.92281 0.06235 0.0
O128 O 0.67244 0.81764 0.10722 0.0
O129 O 0.77479 0.75088 0.04161 0.0
O130 O 0.75088 0.67678 1.00414 0.0
O131 O 0.65236 0.71835 0.02125 0.0
O132 O 0.77288 0.81213 0.08687 0.0
O133 O 0.60295 0.76814 0.07039 0.0
O134 O 0.8158 0.69839 0.92731 0.0
O135 O 0.72019 0.7595 0.99218 0.0
O136 O 0.74447 0.83337 0.03077 0.0
O137 O 0.84216 0.79077 1.0119 0.0
O138 O 0.72083 0.69817 0.94672 0.0
O139 O 0.89958 0.73249 0.96224 0.0
C140 C 0.80681 0.77581 0.06999 0.0
C141 C 0.56337 0.81783 0.12876 0.0
C142 C 0.50059 0.83399 0.18341 0.0
C143 C 0.55527 0.81379 0.16032 0.0
C144 C 0.45467 0.85882 0.17476 0.0
C145 C 0.51749 0.84309 0.12072 0.0
C146 C 0.46346 0.86356 0.14373 0.0
C147 C 0.68661 0.68121 0.0125 0.0
C148 C 0.61878 0.79437 0.10409 0.0
C149 C 0.53947 0.93193 0.0456 0.0
C150 C 0.49975 0.89693 0.02062 0.0
C151 C 0.68807 0.73502 0.96369 0.0
C152 C 0.92184 0.68423 0.90016 0.0
C153 C 0.94193 0.69705 0.87441 0.0
C154 C 0.97713 0.66725 0.84333 0.0
C155 C 0.99447 0.62502 0.83908 0.0
C156 C 0.94015 0.64218 0.89574 0.0
C157 C 0.97678 0.61286 0.86542 0.0
C158 C 0.80831 0.82825 0.02127 0.0
C159 C 0.87639 0.7134 0.92925 0.0
H160 H 0.59052 0.794 0.1664 0.0
H161 H 0.41226 0.87483 0.19216 0.0
H162 H 0.52311 0.84661 0.09656 0.0
H163 H 0.42801 0.8829 0.13737 0.0
H164 H 0.92766 0.72949 0.87779 0.0
H165 H 0.02178 0.60151 0.81543 0.0
H166 H 0.92511 0.6317 0.91527 0.0
H167 H 0.99037 0.58029 0.86198 0.0
Eu168 Eu 0.18213 0.7258 0.48892 0.0
C169 C 0.37656 0.89031 0.55722 0.0
C170 C 0.4744 0.86842 0.51871 0.0
C171 C 0.44165 0.94643 0.55075 0.0
C172 C 0.41886 0.8573 0.53353 0.0
C173 C 0.38789 0.93533 0.56647 0.0
C174 C 0.485 0.91306 0.52703 0.0
C175 C 0.29588 0.95546 0.60859 0.0
N176 N 0.32558 0.87854 0.57223 0.0
C177 C 0.28707 0.9104 0.59879 0.0
C178 C 0.34569 0.9679 0.59185 0.0
Eu179 Eu 0.31062 0.80138 0.55216 0.0
N180 N 0.40695 0.81448 0.52585 0.0
C181 C 0.45086 0.78144 0.50522 0.0
C182 C 0.51829 0.83444 0.49651 0.0
C183 C 0.50671 0.7908 0.48996 0.0
H184 H 0.24803 0.90094 0.61156 0.0
H185 H 0.54074 0.76434 0.47316 0.0
H186 H 0.5271 0.92219 0.51568 0.0
H187 H 0.26403 0.98051 0.62887 0.0
H188 H 0.44241 0.74758 0.49988 0.0
H189 H 0.95723 0.76629 0.57241 0.0
H190 H 0.56183 0.84171 0.48489 0.0
H191 H 0.23983 0.62546 0.42873 0.0
H192 H 0.05182 0.78106 0.54204 0.0
H193 H 0.22186 0.54609 0.41176 0.0
H194 H 0.451 0.98082 0.5574 0.0
H195 H 0.93823 0.69011 0.56389 0.0
H196 H 0.97071 0.60908 0.53276 0.0
H197 H 0.35212 1.00278 0.59929 0.0
H198 H 0.04232 0.54908 0.48881 0.0
N199 N 0.08742 0.71419 0.51726 0.0
C200 C 0.0441 0.74763 0.53794 0.0
C201 C 0.97991 0.6964 0.55047 0.0
C202 C 0.02215 0.66175 0.5275 0.0
C203 C 0.99037 0.7394 0.55526 0.0
C204 C 0.07588 0.67181 0.51086 0.0
H205 H 0.13547 0.52518 0.44317 0.0
N206 N 0.16531 0.64901 0.46968 0.0
C207 C 0.19186 0.57165 0.43282 0.0
C208 C 0.11602 0.63812 0.48621 0.0
C209 C 0.20177 0.61655 0.4424 0.0
C210 C 0.14316 0.56 0.45068 0.0
C211 C 0.10386 0.59334 0.47741 0.0
O212 O 0.16899 0.70232 0.43103 0.0
O213 O 0.27241 0.76724 0.49562 0.0
O214 O 0.24821 0.84148 0.53318 0.0
O215 O 0.1503 0.79903 0.51668 0.0
O216 O 0.26868 0.7069 0.44927 0.0
O217 O 0.09489 0.74601 0.46871 0.0
O218 O 0.31821 0.82143 0.60966 0.0
O219 O 0.22107 0.7593 0.54528 0.0
O220 O 0.24582 0.68541 0.50697 0.0
O221 O 0.34358 0.72815 0.52395 0.0
O222 O 0.22274 0.82044 0.59091 0.0
O223 O 0.39986 0.78515 0.574 0.0
C224 C 0.30293 0.74304 0.46655 0.0
C225 C 0.05858 0.69647 0.40929 0.0
C226 C 0.99353 0.67977 0.35483 0.0
C227 C 0.04303 0.70489 0.38043 0.0
C228 C 0.95963 0.64624 0.359 0.0
C229 C 0.02415 0.66301 0.41294 0.0
C230 C 0.97481 0.6381 0.38788 0.0
C231 C 0.18383 0.83622 0.52475 0.0
C232 C 0.11178 0.72245 0.43483 0.0
C233 C 0.05211 0.58325 0.49495 0.0
C234 C 0.01135 0.61742 0.51999 0.0
C235 C 0.1897 0.7837 0.57399 0.0
C236 C 0.42546 0.83371 0.63564 0.0
C237 C 0.44051 0.82324 0.66339 0.0
C238 C 0.4809 0.85161 0.6929 0.0
C239 C 0.50729 0.89035 0.69362 0.0
C240 C 0.45225 0.87237 0.63678 0.0
C241 C 0.49328 0.90043 0.66562 0.0
C242 C 0.31038 0.69051 0.51488 0.0
C243 C 0.37814 0.80527 0.60724 0.0
H244 H 0.06935 0.73127 0.37816 0.0
H245 H 0.92212 0.62571 0.33962 0.0
H246 H 0.03557 0.65608 0.435 0.0
H247 H 0.94855 0.61211 0.39069 0.0
H248 H 0.41918 0.79346 0.66235 0.0
H249 H 0.53929 0.91264 0.71563 0.0
H250 H 0.44098 0.88104 0.61566 0.0
H251 H 0.51388 0.9303 0.66644 0.0
Eu252 Eu 0.68913 0.21575 0.47405 0.0
C253 C 0.85691 0.39183 0.55286 0.0
C254 C 0.95982 0.37794 0.51893 0.0
C255 C 0.91534 0.45325 0.55087 0.0
C256 C 0.90481 0.3623 0.53066 0.0
C257 C 0.86202 0.43774 0.56362 0.0
C258 C 0.96423 0.42341 0.52861 0.0
C259 C 0.76375 0.44993 0.6006 0.0
N260 N 0.80646 0.37583 0.56497 0.0
C261 C 0.76116 0.4042 0.58942 0.0
C262 C 0.81409 0.46677 0.58742 0.0
Eu263 Eu 0.80361 0.29774 0.54334 0.0
N264 N 0.89935 0.31864 0.52197 0.0
C265 C 0.94929 0.28929 0.50356 0.0
C266 C 0.0097 0.34762 0.49866 0.0
C267 C 0.00474 0.30315 0.49117 0.0
H268 H 0.7219 0.39144 0.59959 0.0
H269 H 0.04361 0.27958 0.47596 0.0
H270 H 0.00589 0.43595 0.51958 0.0
H271 H 0.72692 0.47216 0.61936 0.0
H272 H 0.94587 0.25488 0.49773 0.0
H273 H 0.45333 0.24304 0.54732 0.0
H274 H 0.05287 0.35861 0.48952 0.0
H275 H 0.75935 0.1189 0.41539 0.0
H276 H 0.54914 0.26325 0.52119 0.0
H277 H 0.74945 0.03866 0.3972 0.0
H278 H 0.91995 0.48836 0.55864 0.0
H279 H 0.44209 0.16599 0.53811 0.0
H280 H 0.48458 0.08704 0.50845 0.0
H281 H 0.81616 0.50224 0.59625 0.0
H282 H 0.56481 0.03127 0.46728 0.0
N283 N 0.59292 0.1986 0.49803 0.0
C284 C 0.54482 0.22946 0.51675 0.0
C285 C 0.48431 0.17467 0.52653 0.0
C286 C 0.53164 0.14256 0.50546 0.0
C287 C 0.49037 0.21815 0.53169 0.0
C288 C 0.58577 0.15569 0.49115 0.0
H289 H 0.66302 0.01277 0.42513 0.0
N290 N 0.68022 0.13814 0.45364 0.0
C291 C 0.71591 0.06244 0.41729 0.0
C292 C 0.63079 0.1244 0.46813 0.0
C293 C 0.72128 0.10786 0.42758 0.0
C294 C 0.66717 0.04798 0.43319 0.0
C295 C 0.6232 0.07899 0.45859 0.0
O296 O 0.68693 0.19489 0.41625 0.0
O297 O 0.77526 0.26194 0.48508 0.0
O298 O 0.74155 0.33384 0.52063 0.0
O299 O 0.64835 0.28715 0.50087 0.0
O300 O 0.78205 0.20099 0.43928 0.0
O301 O 0.60196 0.22976 0.44941 0.0
O302 O 0.80859 0.321 0.60154 0.0
O303 O 0.71904 0.25076 0.53182 0.0
O304 O 0.75478 0.17836 0.49425 0.0
O305 O 0.84618 0.22686 0.51672 0.0
O306 O 0.71112 0.31016 0.57837 0.0
O307 O 0.88988 0.28175 0.56708 0.0
C308 C 0.81145 0.23883 0.45796 0.0
C309 C 0.58175 0.17965 0.38764 0.0
C310 C 0.52597 0.15969 0.32996 0.0
C311 C 0.56589 0.18917 0.35938 0.0
C312 C 0.50204 0.1206 0.32973 0.0
C313 C 0.55683 0.14082 0.38696 0.0
C314 C 0.51708 0.11151 0.35811 0.0
C315 C 0.67833 0.32588 0.51024 0.0
C316 C 0.6266 0.20967 0.4168 0.0
C317 C 0.57112 0.06594 0.47398 0.0
C318 C 0.52545 0.0977 0.49742 0.0
C319 C 0.68296 0.27205 0.5592 0.0
C320 C 0.91615 0.33272 0.62775 0.0
C321 C 0.93036 0.32495 0.6571 0.0
C322 C 0.97768 0.35138 0.68352 0.0
C323 C 0.00992 0.38601 0.68023 0.0
C324 C 0.9487 0.36745 0.62502 0.0
C325 C 0.99528 0.39399 0.65123 0.0
C326 C 0.81744 0.18734 0.50581 0.0
C327 C 0.86772 0.30404 0.60014 0.0
H328 H 0.58463 0.21967 0.36053 0.0
H329 H 0.47254 0.09653 0.30734 0.0
H330 H 0.56857 0.13301 0.4085 0.0
H331 H 0.49842 0.08133 0.35752 0.0
H332 H 0.90549 0.29781 0.65894 0.0
H333 H 0.04599 0.40724 0.70029 0.0
H334 H 0.93826 0.37392 0.60265 0.0
H335 H 0.02024 0.4208 0.64903 0.0
H336 H 0.74076 0.60366 1.00555 0.0
H337 H 0.68165 0.53992 1.00372 0.0
H338 H 0.49335 0.60775 0.01623 0.0
H339 H 0.55187 0.67158 0.01784 0.0
H340 H 0.50408 0.57152 0.06125 0.0
H341 H 0.54345 0.52611 0.93577 0.0
H342 H 0.6111 0.50942 0.88183 0.0
H343 H 0.71574 0.40712 0.89403 0.0
H344 H 0.65047 0.42426 0.94876 0.0
H345 H 0.27581 0.39603 0.01565 0.0
H346 H 0.34261 0.45655 0.01716 0.0
H347 H 0.52182 0.37816 0.99957 0.0
H348 H 0.45488 0.3168 0.99767 0.0
H349 H 0.52095 0.41855 0.95823 0.0
H350 H 0.48519 0.46402 0.08354 0.0
H351 H 0.42069 0.48108 0.13858 0.0
H352 H 0.31074 0.58179 0.1267 0.0
H353 H 0.37408 0.565 0.07133 0.0
C354 C 0.68671 0.60488 1.00747 0.0
C355 C 0.65098 0.64255 1.01139 0.0
C356 C 0.65305 0.56841 1.0065 0.0
C357 C 0.5831 0.56896 1.00946 0.0
C358 C 0.54738 0.60667 0.01382 0.0
C359 C 0.58095 0.6431 0.01469 0.0
C360 C 0.547 0.5306 1.00874 0.0
C361 C 0.50713 0.53815 0.03854 0.0
C362 C 0.55279 0.48687 0.97954 0.0
C363 C 0.59257 0.4769 0.94672 0.0
C364 C 0.58155 0.5005 0.92728 0.0
C365 C 0.6195 0.49094 0.89652 0.0
C366 C 0.66799 0.4574 0.8846 0.0
C367 C 0.67857 0.43333 0.90341 0.0
C368 C 0.64118 0.44301 0.93435 0.0
C369 C 0.3295 0.39164 0.01242 0.0
C370 C 0.36015 0.35174 1.00701 0.0
C371 C 0.36765 0.42638 0.01331 0.0
C372 C 0.43734 0.42219 1.00912 0.0
C373 C 0.4681 0.38213 1.00305 0.0
C374 C 0.42982 0.34716 1.00201 0.0
C375 C 0.47761 0.45957 1.01063 0.0
C376 C 0.51822 0.45187 0.98101 0.0
C377 C 0.47284 0.50319 0.04006 0.0
C378 C 0.43414 0.51305 0.07316 0.0
C379 C 0.44694 0.48959 0.09251 0.0
C380 C 0.41073 0.49931 0.12383 0.0
C381 C 0.36183 0.53261 0.13619 0.0
C382 C 0.34881 0.55612 0.11716 0.0
C383 C 0.3849 0.54655 0.08583 0.0
H384 H 0.33387 0.54008 0.16045 0.0
H385 H 0.6972 0.44997 0.86072 0.0
H386 H 0.44606 0.67938 0.51466 0.0
H387 H 0.50646 0.61541 0.51197 0.0
H388 H 0.31902 0.55066 0.50844 0.0
H389 H 0.25816 0.61458 0.51157 0.0
H390 H 0.40705 0.54685 0.55684 0.0
H391 H 0.40744 0.5158 0.43322 0.0
H392 H 0.42583 0.53125 0.38218 0.0
H393 H 0.63595 0.54914 0.40653 0.0
H394 H 0.61866 0.53442 0.45809 0.0
H395 H 0.5424 0.33134 0.50526 0.0
H396 H 0.47849 0.39238 0.50474 0.0
H397 H 0.66184 0.46342 0.51303 0.0
H398 H 0.72618 0.40265 0.51337 0.0
H399 H 0.57352 0.46232 0.46092 0.0
H400 H 0.57164 0.49449 0.58545 0.0
H401 H 0.55253 0.47747 0.6356 0.0
H402 H 0.34361 0.45625 0.60859 0.0
H403 H 0.3617 0.47243 0.55785 0.0
C404 C 0.41765 0.65154 0.51328 0.0
C405 C 0.34732 0.65192 0.51303 0.0
C406 C 0.45225 0.61495 0.51158 0.0
C407 C 0.41712 0.5782 0.50965 0.0
C408 C 0.34698 0.57867 0.50979 0.0
C409 C 0.31235 0.61513 0.51134 0.0
C410 C 0.45366 0.53955 0.50811 0.0
C411 C 0.44274 0.52794 0.53559 0.0
C412 C 0.50104 0.5155 0.48071 0.0
C413 C 0.51163 0.52447 0.44977 0.0
C414 C 0.45748 0.52343 0.42791 0.0
C415 C 0.46773 0.53197 0.39884 0.0
C416 C 0.53199 0.54129 0.39118 0.0
C417 C 0.58618 0.54198 0.41253 0.0
C418 C 0.57619 0.53351 0.44167 0.0
C419 C 0.56914 0.3599 0.50691 0.0
C420 C 0.63929 0.36233 0.50965 0.0
C421 C 0.53255 0.39474 0.5067 0.0
C422 C 0.56556 0.4324 0.50907 0.0
C423 C 0.63557 0.43459 0.5112 0.0
C424 C 0.67214 0.39996 0.51164 0.0
C425 C 0.52707 0.46984 0.50972 0.0
C426 C 0.53766 0.48119 0.48209 0.0
C427 C 0.47926 0.49357 0.53691 0.0
C428 C 0.46816 0.4842 0.5676 0.0
C429 C 0.52172 0.48582 0.59 0.0
C430 C 0.51106 0.47638 0.61857 0.0
C431 C 0.44692 0.46567 0.62522 0.0
C432 C 0.39328 0.46449 0.60337 0.0
C433 C 0.4037 0.47381 0.57471 0.0
H434 H 0.43876 0.45838 0.64736 0.0
H435 H 0.53983 0.54788 0.36865 0.0
H436 H 0.0391 0.18039 0.01523 0.0
H437 H 0.97255 0.12171 0.01778 0.0
H438 H 0.14601 0.03619 0.9879 0.0
H439 H 0.21298 0.09447 0.98548 0.0
H440 H 0.0328 0.99169 0.95097 0.0
H441 H 0.09858 0.09162 0.07405 0.0
H442 H 0.10763 0.1649 0.12852 0.0
H443 H 0.89344 0.17577 0.13488 0.0
H444 H 0.8831 0.10288 0.08002 0.0
H445 H 0.93993 0.83269 1.00542 0.0
H446 H 0.99622 0.8934 1.00085 0.0
H447 H 0.81315 0.96954 0.02985 0.0
H448 H 0.7559 0.90878 0.03395 0.0
H449 H 0.9245 0.0201 0.06621 0.0
H450 H 0.85608 0.92195 0.94541 0.0
H451 H 0.84289 0.85008 0.89008 0.0
H452 H 0.05637 0.83662 0.87871 0.0
H453 H 0.07091 0.90843 0.93426 0.0
C454 C 0.0631 0.14906 1.00907 0.0
C455 C 0.13138 0.14213 1.00002 0.0
C456 C 0.02498 0.1156 1.01058 0.0
C457 C 0.05453 0.07476 1.00324 0.0
C458 C 0.12225 0.06743 0.99353 0.0
C459 C 0.16042 0.10085 0.99214 0.0
C460 C 0.01552 0.03998 1.0066 0.0
C461 C 0.00971 0.99772 0.97624 0.0
C462 C 0.98389 0.04839 0.03936 0.0
C463 C 0.99008 0.09197 0.07267 0.0
C464 C 0.0534 0.10978 0.08688 0.0
C465 C 0.05877 0.15124 0.11785 0.0
C466 C 0.00115 0.17504 0.13508 0.0
C467 C 0.93803 0.15734 0.12145 0.0
C468 C 0.93239 0.11595 0.09043 0.0
C469 C 0.91153 0.86236 1.01099 0.0
C470 C 0.8434 0.8659 0.0203 0.0
C471 C 0.94381 0.89697 1.00826 0.0
C472 C 0.90866 0.93576 0.01479 0.0
C473 C 0.84111 0.93987 0.0248 0.0
C474 C 0.80858 0.90512 0.02725 0.0
C475 C 0.94252 0.97172 1.01071 0.0
C476 C 0.94737 0.01415 0.0409 0.0
C477 C 0.97284 0.9636 0.97774 0.0
C478 C 0.96458 0.9204 0.94424 0.0
C479 C 0.90026 0.90351 0.9313 0.0
C480 C 0.89252 0.8628 0.89986 0.0
C481 C 0.94874 0.83867 0.88096 0.0
C482 C 0.01286 0.85532 0.89342 0.0
C483 C 0.02088 0.89609 0.92486 0.0
H484 H 0.94257 0.80719 0.8566 0.0
H485 H 0.00538 0.20711 0.15904 0.0
H486 H 0.95136 0.18769 0.51995 0.0
H487 H 0.01568 0.12894 0.52367 0.0
H488 H 0.83841 0.0471 0.49757 0.0
H489 H 0.77331 0.106 0.49492 0.0
H490 H 0.90417 0.04813 0.55348 0.0
H491 H 0.96073 0.0266 0.43486 0.0
H492 H 0.00191 0.04932 0.39069 0.0
H493 H 0.19299 0.08258 0.44399 0.0
H494 H 0.15261 0.06069 0.48883 0.0
H495 H 0.05015 0.84116 0.51307 0.0
H496 H 0.99071 0.90196 0.51029 0.0
H497 H 0.17455 0.97699 0.53283 0.0
H498 H 0.23511 0.91543 0.53392 0.0
H499 H 0.10811 0.98151 0.48039 0.0
H500 H 0.05289 1.00172 0.5983 0.0
H501 H 0.01224 0.97876 0.64241 0.0
H502 H 0.81935 0.94851 0.59101 0.0
H503 H 0.85914 0.97067 0.54624 0.0
C504 C 0.92604 0.15715 0.51489 0.0
C505 C 0.85728 0.15138 0.50677 0.0
C506 C 0.96298 0.12354 0.51686 0.0
C507 C 0.93192 0.08351 0.51049 0.0
C508 C 0.86335 0.07771 0.50246 0.0
C509 C 0.82634 0.11131 0.50064 0.0
C510 C 0.9704 0.04796 0.513 0.0
C511 C 0.94833 0.03316 0.5372 0.0
C512 C 0.029 0.02941 0.49246 0.0
C513 C 0.0534 0.04244 0.46543 0.0
C514 C 0.01135 0.03911 0.43734 0.0
C515 C 0.03458 0.05177 0.41216 0.0
C516 C 0.09996 0.06749 0.41459 0.0
C517 C 0.14232 0.07046 0.44217 0.0
C518 C 0.1193 0.0579 0.46746 0.0
C519 C 0.07806 0.87059 0.51754 0.0
C520 C 0.14731 0.87367 0.52429 0.0
C521 C 0.04386 0.90546 0.51614 0.0
C522 C 0.07799 0.94434 0.52202 0.0
C523 C 0.14717 0.94739 0.52846 0.0
C524 C 0.18159 0.91232 0.52946 0.0
C525 C 0.04163 0.98144 0.52072 0.0
C526 C 0.06411 0.99658 0.49679 0.0
C527 C 0.98346 1.00041 0.54158 0.0
C528 C 0.95919 0.98752 0.56873 0.0
C529 C 0.00193 0.9899 0.59626 0.0
C530 C 0.97903 0.97706 0.6214 0.0
C531 C 0.9133 0.9621 0.61947 0.0
C532 C 0.87027 0.96007 0.59245 0.0
C533 C 0.89295 0.97281 0.56721 0.0
H534 H 0.89568 0.95215 0.63894 0.0
H535 H 0.11786 0.07728 0.39506 0.0
H536 H 0.60559 0.2001 0.30024 0.0
H537 H 0.57902 0.2147 0.24995 0.0
H538 H 0.38555 0.15363 0.23864 0.0
H539 H 0.40988 0.14086 0.28998 0.0
H540 H 0.4642 0.12294 0.17193 0.0
H541 H 0.38889 0.2599 0.27599 0.0
H542 H 0.40592 0.32668 0.33498 0.0
H543 H 0.56255 0.37101 0.28972 0.0
H544 H 0.54717 0.30411 0.2306 0.0
H545 H 0.28775 0.18267 0.05468 0.0
H546 H 0.33668 0.1609 0.09723 0.0
H547 H 0.47854 0.26922 0.13162 0.0
H548 H 0.42514 0.29315 0.09127 0.0
H549 H 0.43492 0.27533 0.18691 0.0
H550 H 0.53195 0.14383 0.09017 0.0
H551 H 0.54292 0.07378 0.03305 0.0
H552 H 0.37302 0.01933 0.06103 0.0
H553 H 0.36326 0.08839 0.11929 0.0
C554 C 0.55685 0.19041 0.28759 0.0
C555 C 0.50999 0.16917 0.29942 0.0
C556 C 0.54203 0.1985 0.2586 0.0
C557 C 0.48039 0.18514 0.24054 0.0
C558 C 0.43362 0.1639 0.25206 0.0
C559 C 0.44792 0.15639 0.28136 0.0
C560 C 0.46452 0.19306 0.2095 0.0
C561 C 0.45709 0.15621 0.17511 0.0
C562 C 0.45845 0.23647 0.21344 0.0
C563 C 0.4673 0.27679 0.24897 0.0
C564 C 0.42736 0.28369 0.2787 0.0
C565 C 0.43666 0.32159 0.31216 0.0
C566 C 0.48545 0.353 0.31614 0.0
C567 C 0.52492 0.34661 0.28664 0.0
C568 C 0.51589 0.30873 0.25315 0.0
C569 C 0.33067 0.20094 0.07057 0.0
C570 C 0.35301 0.23944 0.0696 0.0
C571 C 0.35917 0.18832 0.0949 0.0
C572 C 0.412 0.21314 0.11798 0.0
C573 C 0.43744 0.24964 0.11472 0.0
C574 C 0.40739 0.26315 0.09138 0.0
C575 C 0.43457 0.20498 0.14844 0.0
C576 C 0.44273 0.24186 0.18309 0.0
C577 C 0.44392 0.1616 0.14449 0.0
C578 C 0.44625 0.12141 0.1087 0.0
C579 C 0.4965 0.11708 0.08393 0.0
C580 C 0.50279 0.07745 0.05149 0.0
C581 C 0.45797 0.04238 0.04308 0.0
C582 C 0.40741 0.04662 0.06744 0.0
C583 C 0.40191 0.0858 0.10034 0.0
H584 H 0.46278 0.0118 0.01784 0.0
H585 H 0.49254 0.38234 0.34205 0.0
H586 H 0.38761 0.8062 0.20285 0.0
H587 H 0.36941 0.79734 0.25659 0.0
H588 H 0.5715 0.84159 0.29198 0.0
H589 H 0.59065 0.84838 0.23709 0.0
H590 H 0.54701 0.77976 0.3071 0.0
H591 H 0.42843 0.91079 0.33066 0.0
H592 H 0.35087 0.95957 0.31977 0.0
H593 H 0.18597 0.87518 0.31307 0.0
H594 H 0.26267 0.82553 0.32343 0.0
H595 H 0.31674 0.82891 0.47751 0.0
H596 H 0.3724 0.85298 0.43811 0.0
H597 H 0.43019 0.7168 0.36685 0.0
H598 H 0.37946 0.69355 0.40801 0.0
H599 H 0.3381 0.83778 0.37754 0.0
H600 H 0.55027 0.70525 0.30949 0.0
H601 H 0.63926 0.66912 0.3272 0.0
H602 H 0.63587 0.7776 0.43553 0.0
H603 H 0.54708 0.81453 0.41837 0.0
C604 C 0.42804 0.81412 0.22217 0.0
C605 C 0.4903 0.82836 0.21602 0.0
C606 C 0.41755 0.80931 0.25303 0.0
C607 C 0.46845 0.8199 0.27903 0.0
C608 C 0.53122 0.83341 0.27255 0.0
C609 C 0.54215 0.83735 0.24123 0.0
C610 C 0.45594 0.81634 0.31261 0.0
C611 C 0.50147 0.79263 0.32262 0.0
C612 C 0.3979 0.83458 0.33391 0.0
C613 C 0.35144 0.86426 0.32758 0.0
C614 C 0.3757 0.90246 0.32662 0.0
C615 C 0.33187 0.93029 0.32058 0.0
C616 C 0.26355 0.92044 0.31568 0.0
C617 C 0.23891 0.88276 0.31686 0.0
C618 C 0.28253 0.85479 0.32286 0.0
C619 C 0.34392 0.80448 0.45437 0.0
C620 C 0.34505 0.75948 0.44636 0.0
C621 C 0.37508 0.81815 0.43145 0.0
C622 C 0.40614 0.7869 0.3993 0.0
C623 C 0.40851 0.74203 0.39179 0.0
C624 C 0.37883 0.7286 0.41521 0.0
C625 C 0.42818 0.79995 0.37159 0.0
C626 C 0.38421 0.82536 0.36248 0.0
C627 C 0.48902 0.78489 0.35217 0.0
C628 C 0.54149 0.76241 0.36276 0.0
C629 C 0.56848 0.7214 0.33709 0.0
C630 C 0.61884 0.70076 0.34703 0.0
C631 C 0.64292 0.72095 0.38252 0.0
C632 C 0.61676 0.76185 0.40813 0.0
C633 C 0.56627 0.78256 0.39836 0.0
H634 H 0.68201 0.70497 0.39015 0.0
H635 H 0.2297 0.94205 0.31102 0.0
H636 H 0.61358 0.68562 0.90417 0.0
H637 H 0.56706 0.70873 0.86162 0.0
H638 H 0.62766 0.84423 0.93209 0.0
H639 H 0.67689 0.821 0.97402 0.0
H640 H 0.48494 0.82293 0.89178 0.0
H641 H 0.72784 0.80513 0.87605 0.0
H642 H 0.83298 0.76388 0.86826 0.0
H643 H 0.75291 0.65217 0.77385 0.0
H644 H 0.6467 0.69279 0.7814 0.0
H645 H 0.48398 0.90902 0.76591 0.0
H646 H 0.50772 0.89137 0.81491 0.0
H647 H 0.52973 0.75243 0.73707 0.0
H648 H 0.50886 0.7701 0.68797 0.0
H649 H 0.62747 0.77618 0.78314 0.0
H650 H 0.3919 0.79494 0.79161 0.0
H651 H 0.2821 0.83091 0.79831 0.0
H652 H 0.33716 0.93265 0.90446 0.0
H653 H 0.44842 0.89858 0.89778 0.0
C654 C 0.6157 0.72053 0.91098 0.0
C655 C 0.64834 0.75153 0.94264 0.0
C656 C 0.58907 0.73365 0.88669 0.0
C657 C 0.59399 0.77813 0.89375 0.0
C658 C 0.62297 0.80979 0.92633 0.0
C659 C 0.65081 0.79649 0.95037 0.0
C660 C 0.57581 0.79016 0.86522 0.0
C661 C 0.51631 0.81347 0.86821 0.0
C662 C 0.61576 0.77626 0.83402 0.0
C663 C 0.67923 0.75175 0.82954 0.0
C664 C 0.73244 0.77159 0.85387 0.0
C665 C 0.79227 0.74834 0.84945 0.0
C666 C 0.79956 0.70528 0.82067 0.0
C667 C 0.74705 0.68544 0.79622 0.0
C668 C 0.68705 0.70857 0.80054 0.0
C669 C 0.4944 0.87474 0.7592 0.0
C670 C 0.49453 0.84098 0.72293 0.0
C671 C 0.50711 0.86461 0.78731 0.0
C672 C 0.51981 0.82046 0.77981 0.0
C673 C 0.51987 0.78673 0.74364 0.0
C674 C 0.5074 0.79685 0.71555 0.0
C675 C 0.5362 0.80956 0.80938 0.0
C676 C 0.59564 0.78612 0.80661 0.0
C677 C 0.49533 0.82289 0.84045 0.0
C678 C 0.42915 0.8445 0.84394 0.0
C679 C 0.38122 0.82551 0.8161 0.0
C680 C 0.3186 0.8456 0.81989 0.0
C681 C 0.30284 0.88434 0.85165 0.0
C682 C 0.34967 0.90303 0.87967 0.0
C683 C 0.41263 0.8834 0.87585 0.0
H684 H 0.25418 0.8997 0.85466 0.0
H685 H 0.84584 0.68731 0.81718 0.0
H686 H 0.58123 0.30895 0.60648 0.0
H687 H 0.53353 0.28229 0.64637 0.0
H688 H 0.65683 0.16432 0.59575 0.0
H689 H 0.70168 0.18988 0.5547 0.0
H690 H 0.54985 0.14238 0.61637 0.0
H691 H 0.70613 0.25858 0.67434 0.0
H692 H 0.7601 0.33164 0.69437 0.0
H693 H 0.58535 0.3976 0.75593 0.0
H694 H 0.52988 0.32487 0.73578 0.0
H695 H 0.57017 0.11765 0.77812 0.0
H696 H 0.60143 0.1344 0.72958 0.0
H697 H 0.4289 0.21956 0.75275 0.0
H698 H 0.39506 0.2014 0.80005 0.0
H699 H 0.56281 0.25561 0.7459 0.0
H700 H 0.41791 0.12458 0.68608 0.0
H701 H 0.39172 0.04712 0.67155 0.0
H702 H 0.57929 1.00318 0.61618 0.0
H703 H 0.60762 0.08062 0.63135 0.0
C704 C 0.59658 0.27675 0.60329 0.0
C705 C 0.64492 0.25147 0.57752 0.0
C706 C 0.56982 0.26166 0.62624 0.0
C707 C 0.59311 0.22192 0.62493 0.0
C708 C 0.63823 0.1952 0.59754 0.0
C709 C 0.66386 0.20982 0.57398 0.0
C710 C 0.57508 0.2105 0.65399 0.0
C711 C 0.55302 0.16716 0.64465 0.0
C712 C 0.58065 0.24235 0.6911 0.0
C713 C 0.61353 0.28627 0.70321 0.0
C714 C 0.67897 0.28867 0.6919 0.0
C715 C 0.70987 0.33002 0.70331 0.0
C716 C 0.67608 0.36924 0.72632 0.0
C717 C 0.61138 0.36718 0.73803 0.0
C718 C 0.58018 0.3259 0.72663 0.0
C719 C 0.5382 0.13949 0.77269 0.0
C720 C 0.47983 0.15803 0.79316 0.0
C721 C 0.55653 0.14924 0.74506 0.0
C722 C 0.51732 0.17807 0.73759 0.0
C723 C 0.45988 0.19732 0.75825 0.0
C724 C 0.44093 0.1871 0.7855 0.0
C725 C 0.53605 0.1882 0.70815 0.0
C726 C 0.5589 0.2312 0.71754 0.0
C727 C 0.53439 0.15541 0.67133 0.0
C728 C 0.51526 0.10855 0.66027 0.0
C729 C 0.45381 0.09848 0.67103 0.0
C730 C 0.43869 0.05459 0.66278 0.0
C731 C 0.48412 0.02033 0.64326 0.0
C732 C 0.54438 0.02981 0.63152 0.0
C733 C 0.56001 0.07371 0.63996 0.0
H734 H 0.47248 0.9864 0.63705 0.0
H735 H 0.7001 0.40123 0.73517 0.0
H736 H 0.88392 0.8264 0.12796 0.0
H737 H 0.9281 0.80619 0.17261 0.0
H738 H 0.86485 0.67025 0.10591 0.0
H739 H 0.81905 0.69058 0.06152 0.0
H740 H 0.83835 0.77447 0.2067 0.0
H741 H 0.961 0.60769 0.12309 0.0
H742 H 0.0425 0.56751 0.07404 0.0
H743 H 0.14443 0.6906 0.10178 0.0
H744 H 0.06227 0.73152 0.1502 0.0
H745 H 0.87102 0.67692 0.32363 0.0
H746 H 0.84666 0.68883 0.27182 0.0
H747 H 0.05556 0.71532 0.26448 0.0
H748 H 0.08092 0.70099 0.31489 0.0
H749 H 0.00884 0.66478 0.19971 0.0
H750 H 0.93177 0.79995 0.30325 0.0
H751 H 0.86437 0.84327 0.3581 0.0
H752 H 0.68369 0.79165 0.29672 0.0
H753 H 0.75008 0.74763 0.24158 0.0
C754 C 0.88113 0.79192 0.12231 0.0
C755 C 0.84806 0.76014 0.09118 0.0
C756 C 0.9063 0.78043 0.14788 0.0
C757 C 0.89954 0.73678 0.14273 0.0
C758 C 0.8711 0.70407 0.11035 0.0
C759 C 0.84511 0.71572 0.08487 0.0
C760 C 0.91312 0.72741 0.17333 0.0
C761 C 0.87558 0.75041 0.20517 0.0
C762 C 0.96129 0.69606 0.17145 0.0
C763 C 0.00534 0.67256 0.13983 0.0
C764 C 0.00025 0.62615 0.11826 0.0
C765 C 0.04656 0.60328 0.09066 0.0
C766 C 0.09872 0.62648 0.08487 0.0
C767 C 0.10401 0.67268 0.1063 0.0
C768 C 0.0571 0.6958 0.13347 0.0
C769 C 0.91201 0.68477 0.31079 0.0
C770 C 0.97804 0.68808 0.32368 0.0
C771 C 0.8978 0.69212 0.28136 0.0
C772 C 0.94908 0.7036 0.26443 0.0
C773 C 0.01501 0.70666 0.27709 0.0
C774 C 0.02935 0.69895 0.30628 0.0
C775 C 0.9346 0.71217 0.23341 0.0
C776 C 0.97131 0.68872 0.20133 0.0
C777 C 0.88581 0.74343 0.23526 0.0
C778 C 0.84594 0.77015 0.26837 0.0
C779 C 0.87769 0.79762 0.3015 0.0
C780 C 0.83966 0.82233 0.33263 0.0
C781 C 0.7698 0.8201 0.33091 0.0
C782 C 0.7378 0.79329 0.29803 0.0
C783 C 0.77561 0.76849 0.26682 0.0
H784 H 0.74046 0.83923 0.35505 0.0
H785 H 0.13491 0.60869 0.06372 0.0
H786 H 0.90701 0.1941 0.40854 0.0
H787 H 0.95874 0.21593 0.36651 0.0
H788 H 0.86267 0.34446 0.42187 0.0
H789 H 0.81013 0.32243 0.46357 0.0
H790 H 0.83049 0.29731 0.34945 0.0
H791 H 0.04044 0.33544 0.42021 0.0
H792 H 0.13781 0.31852 0.44826 0.0
H793 H 0.18504 0.20475 0.34703 0.0
H794 H 0.08905 0.2212 0.31823 0.0
H795 H 0.93918 0.38428 0.23707 0.0
H796 H 0.91151 0.36923 0.28628 0.0
H797 H 0.05551 0.26199 0.24705 0.0
H798 H 0.09029 0.28083 0.20067 0.0
H799 H 0.06561 0.29727 0.31219 0.0
H800 H 0.87208 0.24939 0.23882 0.0
H801 H 0.77453 0.25051 0.2032 0.0
H802 H 0.68891 0.35844 0.29798 0.0
H803 H 0.78641 0.35844 0.33408 0.0
C804 C 0.89877 0.22754 0.41241 0.0
C805 C 0.85492 0.25664 0.43941 0.0
C806 C 0.92855 0.24006 0.38847 0.0
C807 C 0.91475 0.28189 0.39105 0.0
C808 C 0.87421 0.31207 0.41946 0.0
C809 C 0.84451 0.29957 0.44346 0.0
C810 C 0.93373 0.29138 0.36116 0.0
C811 C 0.88199 0.29829 0.3417 0.0
C812 C 0.00051 0.28944 0.34949 0.0
C813 C 0.05732 0.27937 0.36719 0.0
C814 C 0.07135 0.30665 0.40405 0.0
C815 C 0.12632 0.29724 0.42004 0.0
C816 C 0.16705 0.26047 0.39955 0.0
C817 C 0.15335 0.23317 0.36292 0.0
C818 C 0.09895 0.24264 0.3467 0.0
C819 C 0.96637 0.35807 0.23909 0.0
C820 C 0.01773 0.3342 0.21449 0.0
C821 C 0.94907 0.34871 0.26703 0.0
C822 C 0.9802 0.31377 0.27031 0.0
C823 C 0.03043 0.28918 0.24539 0.0
C824 C 0.04955 0.2996 0.21822 0.0
C825 C 0.96225 0.30406 0.30045 0.0
C826 C 0.01396 0.29676 0.31987 0.0
C827 C 0.895 0.30327 0.31094 0.0
C828 C 0.83702 0.30424 0.28909 0.0
C829 C 0.83282 0.2737 0.252 0.0
C830 C 0.77742 0.27406 0.23173 0.0
C831 C 0.7256 0.30459 0.2483 0.0
C832 C 0.7291 0.33484 0.28516 0.0
C833 C 0.78443 0.33468 0.30554 0.0
H834 H 0.68267 0.30473 0.23259 0.0
H835 H 0.20942 0.25325 0.41204 0.0
H836 H 0.8912 0.33392 0.72593 0.0
H837 H 0.919 0.32013 0.77667 0.0
H838 H 0.12879 0.33563 0.76135 0.0
H839 H 0.10145 0.34887 0.7104 0.0
H840 H 0.10728 0.26391 0.7715 0.0
H841 H 0.05125 0.41795 0.82998 0.0
H842 H 0.98011 0.48206 0.84017 0.0
H843 H 0.82101 0.42981 0.8775 0.0
H844 H 0.89081 0.36493 0.86708 0.0
H845 H 0.18869 0.32079 0.9636 0.0
H846 H 0.142 0.34872 0.92412 0.0
H847 H 0.03827 0.22408 0.86266 0.0
H848 H 0.08385 0.19635 0.90236 0.0
H849 H 0.01144 0.35615 0.8939 0.0
H850 H 0.09427 0.18676 0.77534 0.0
H851 H 0.17493 0.12675 0.76464 0.0
H852 H 0.30006 0.22046 0.85007 0.0
H853 H 0.22173 0.28099 0.86036 0.0
C854 C 0.94327 0.33411 0.73324 0.0
C855 C 0.99412 0.34264 0.7142 0.0
C856 C 0.95905 0.32655 0.7624 0.0
C857 C 0.02598 0.32718 0.773 0.0
C858 C 0.07683 0.33508 0.75372 0.0
C859 C 0.06108 0.34296 0.72477 0.0
C860 C 0.04312 0.3194 0.80407 0.0
C861 C 0.08611 0.28402 0.79817 0.0
C862 C 0.01709 0.3464 0.83919 0.0
C863 C 0.97599 0.38636 0.84738 0.0
C864 C 0.00097 0.42005 0.84027 0.0
C865 C 0.96088 0.45647 0.84603 0.0
C866 C 0.89583 0.45972 0.85912 0.0
C867 C 0.87118 0.42697 0.86709 0.0
C868 C 0.91105 0.39043 0.86136 0.0
C869 C 0.15378 0.30007 0.94263 0.0
C870 C 0.1397 0.25639 0.93608 0.0
C871 C 0.12711 0.31608 0.92006 0.0
C872 C 0.0872 0.2883 0.89025 0.0
C873 C 0.06909 0.24601 0.88544 0.0
C874 C 0.09527 0.23017 0.90807 0.0
C875 C 0.07393 0.29987 0.86087 0.0
C876 C 0.03208 0.33596 0.86712 0.0
C877 C 0.10265 0.27439 0.8262 0.0
C878 C 0.15158 0.23829 0.81895 0.0
C879 C 0.13932 0.19455 0.79161 0.0
C880 C 0.18477 0.16043 0.78558 0.0
C881 C 0.24265 0.1697 0.80669 0.0
C882 C 0.2554 0.21317 0.83369 0.0
C883 C 0.21052 0.24741 0.83961 0.0
H884 H 0.27766 0.14327 0.80212 0.0
H885 H 0.86461 0.48768 0.86317 0.0
H886 H 0.10278 0.83064 0.62817 0.0
H887 H 0.05503 0.80877 0.67121 0.0
H888 H 0.14457 0.67861 0.61194 0.0
H889 H 0.19212 0.70029 0.56885 0.0
H890 H 0.97177 0.73876 0.66738 0.0
H891 H 0.21793 0.65695 0.67358 0.0
H892 H 0.3396 0.66235 0.66614 0.0
H893 H 0.31866 0.80148 0.69726 0.0
H894 H 0.19705 0.79663 0.70436 0.0
H895 H 0.94997 0.61936 0.77127 0.0
H896 H 0.9743 0.63978 0.72372 0.0
H897 H 0.06359 0.76282 0.80299 0.0
H898 H 0.03812 0.74295 0.85078 0.0
H899 H 0.14366 0.70796 0.73823 0.0
H900 H 0.92776 0.77547 0.77561 0.0
H901 H 0.80743 0.77844 0.78936 0.0
H902 H 0.76733 0.6794 0.67996 0.0
H903 H 0.88765 0.67551 0.66559 0.0
C904 C 0.11077 0.797 0.62387 0.0
C905 C 0.15068 0.76709 0.59504 0.0
C906 C 0.08345 0.78453 0.6484 0.0
C907 C 0.09674 0.74223 0.64497 0.0
C908 C 0.13396 0.71151 0.61518 0.0
C909 C 0.16074 0.72383 0.59041 0.0
C910 C 0.07722 0.73191 0.67433 0.0
C911 C 0.00923 0.73167 0.68269 0.0
C912 C 0.12606 0.72361 0.69486 0.0
C913 C 0.19857 0.7263 0.68913 0.0
C914 C 0.23942 0.68857 0.67858 0.0
C915 C 0.3083 0.69151 0.67437 0.0
C916 C 0.33687 0.73214 0.68103 0.0
C917 C 0.29656 0.76989 0.69173 0.0
C918 C 0.22759 0.76702 0.69569 0.0
C919 C 0.97498 0.65068 0.77847 0.0
C920 C 0.99272 0.67944 0.8146 0.0
C921 C 0.98831 0.66244 0.75139 0.0
C922 C 0.02059 0.70279 0.7599 0.0
C923 C 0.03857 0.73153 0.79593 0.0
C924 C 0.02403 0.7202 0.82314 0.0
C925 C 0.03824 0.71405 0.73092 0.0
C926 C 0.10601 0.71447 0.72265 0.0
C927 C 0.98911 0.72304 0.71092 0.0
C928 C 0.91686 0.72486 0.7196 0.0
C929 C 0.89343 0.75395 0.75457 0.0
C930 C 0.82518 0.75593 0.76245 0.0
C931 C 0.7798 0.72907 0.73557 0.0
C932 C 0.80257 0.70017 0.70076 0.0
C933 C 0.87078 0.69812 0.6927 0.0
H934 H 0.72696 0.73073 0.74166 0.0
H935 H 0.39027 0.73433 0.67804 0.0
loop_
_geom_bond_atom_site_label_1
_geom_bond_atom_site_label_2
_geom_bond_distance
_geom_bond_site_symmetry_2
_ccdc_geom_bond_type
Eu0 N31 2.657 . S
Eu0 N38 2.609 . S
Eu0 O44 2.558 . S
Eu0 O45 2.612 . S
Eu0 O47 2.339 . S
Eu0 O48 2.563 . S
Eu0 O49 2.419 . S
Eu0 O51 2.380 1_554 S
Eu0 O52 2.432 . S
Eu0 C64 2.848 . S
C1 C4 1.429 . S
C1 C5 1.411 . S
C1 N8 1.377 . S
C2 C4 1.420 1_554 S
C2 C6 1.423 . S
C2 C14 1.392 . S
C3 C5 1.420 . S
C3 C6 1.351 1_556 S
C3 H26 0.931 . S
C4 C1 1.429 . S
C4 C2 1.420 1_556 S
C4 N12 1.362 . S
C5 C1 1.411 . S
C5 C3 1.420 . S
C5 C10 1.395 . S
C6 C2 1.423 . S
C6 C3 1.351 1_554 S
C6 H18 0.930 . S
C7 C9 1.400 . S
C7 C10 1.386 . S
C7 H19 0.930 . S
N8 C1 1.377 . S
N8 C9 1.321 . S
N8 Eu11 2.609 . S
C9 C7 1.400 . S
C9 N8 1.321 . S
C9 H16 0.930 . S
C10 C5 1.395 . S
C10 C7 1.386 . S
C10 H29 0.930 . S
Eu11 N8 2.609 . S
Eu11 N12 2.657 . S
Eu11 O45 2.380 1_556 S
Eu11 O46 2.432 . S
Eu11 O50 2.558 . S
Eu11 O51 2.612 . S
Eu11 O53 2.339 . S
Eu11 O54 2.563 . S
Eu11 O55 2.419 . S
Eu11 C75 2.848 . S
N12 C4 1.362 . S
N12 Eu11 2.657 . S
N12 C13 1.334 1_556 S
C13 N12 1.334 1_554 S
C13 C15 1.413 . S
C13 H20 0.929 . S
C14 C2 1.392 . S
C14 C15 1.367 . S
C14 H22 0.930 . S
C15 C13 1.413 . S
C15 C14 1.367 . S
C15 H17 0.930 . S
H16 C9 0.930 . S
H17 C15 0.930 . S
H18 C6 0.930 . S
H19 C7 0.930 . S
H20 C13 0.929 . S
H21 C35 0.930 . S
H22 C14 0.930 . S
H23 C41 0.930 . S
H24 C32 0.929 . S
H25 C39 0.930 . S
H26 C3 0.931 . S
H27 C33 0.930 . S
H28 C66 0.930 . S
H29 C10 0.930 . S
H30 C65 0.931 . S
N31 Eu0 2.657 . S
N31 C32 1.334 1_554 S
N31 C36 1.362 . S
C32 H24 0.929 . S
C32 N31 1.334 1_556 S
C32 C35 1.413 1_455 S
C33 H27 0.930 . S
C33 C34 1.392 . S
C33 C35 1.367 . S
C34 C33 1.392 . S
C34 C36 1.420 1_656 S
C34 C66 1.423 . S
C35 H21 0.930 . S
C35 C32 1.413 1_655 S
C35 C33 1.367 . S
C36 N31 1.362 . S
C36 C34 1.420 1_454 S
C36 C40 1.429 . S
H37 C42 0.930 . S
N38 Eu0 2.609 . S
N38 C40 1.377 . S
N38 C41 1.321 . S
C39 H25 0.930 . S
C39 C41 1.400 . S
C39 C42 1.386 . S
C40 C36 1.429 . S
C40 N38 1.377 . S
C40 C43 1.411 . S
C41 H23 0.930 . S
C41 N38 1.321 . S
C41 C39 1.400 . S
C42 H37 0.930 . S
C42 C39 1.386 . S
C42 C43 1.395 . S
C43 C40 1.411 . S
C43 C42 1.395 . S
C43 C65 1.420 1_455 S
O44 Eu0 2.558 . S
O44 C64 1.257 . S
O45 Eu0 2.612 . S
O45 Eu11 2.380 1_554 S
O45 C56 1.276 . S
O46 Eu11 2.432 . S
O46 C63 1.264 . S
O47 Eu0 2.339 . S
O47 C63 1.254 1_554 S
O48 Eu0 2.563 . S
O48 C56 1.235 . S
O49 Eu0 2.419 . S
O49 C64 1.249 . S
O50 Eu11 2.558 . S
O50 C75 1.257 . S
O51 Eu0 2.380 1_556 S
O51 Eu11 2.612 . S
O51 C67 1.276 . S
O52 Eu0 2.432 . S
O52 C74 1.264 . S
O53 Eu11 2.339 . S
O53 C74 1.254 1_556 S
O54 Eu11 2.563 . S
O54 C67 1.235 . S
O55 Eu11 2.419 . S
O55 C75 1.249 . S
C56 O45 1.276 . S
C56 O48 1.235 . S
C57 C59 1.393 . S
C57 C61 1.395 . S
C57 C64 1.492 . S
C58 C59 1.392 . S
C58 C60 1.386 . S
C59 C57 1.393 . S
C59 C58 1.392 . S
C59 H76 0.930 . S
C60 C58 1.386 . S
C60 C62 1.395 . S
C60 H77 0.930 . S
C61 C57 1.395 . S
C61 C62 1.379 . S
C61 H78 0.930 . S
C62 C60 1.395 . S
C62 C61 1.379 . S
C62 H79 0.930 . S
C63 O46 1.264 . S
C63 O47 1.254 1_556 S
C64 Eu0 2.848 . S
C64 O44 1.257 . S
C64 O49 1.249 . S
C64 C57 1.492 . S
C65 H30 0.931 . S
C65 C43 1.420 1_655 S
C65 C66 1.351 1_554 S
C66 H28 0.930 . S
C66 C34 1.423 . S
C66 C65 1.351 1_556 S
C67 O51 1.276 . S
C67 O54 1.235 . S
C68 C69 1.393 . S
C68 C72 1.395 . S
C68 C75 1.492 . S
C69 C68 1.393 . S
C69 C70 1.392 . S
C69 H80 0.930 . S
C70 C69 1.392 . S
C70 C71 1.386 . S
C71 C70 1.386 . S
C71 C73 1.395 . S
C71 H81 0.930 . S
C72 C68 1.395 . S
C72 C73 1.379 . S
C72 H82 0.930 . S
C73 C71 1.395 . S
C73 C72 1.379 . S
C73 H83 0.930 . S
C74 O52 1.264 . S
C74 O53 1.254 1_554 S
C75 Eu11 2.848 . S
C75 O50 1.257 . S
C75 O55 1.249 . S
C75 C68 1.492 . S
H76 C59 0.930 . S
H77 C60 0.930 . S
H78 C61 0.930 . S
H79 C62 0.930 . S
H80 C69 0.930 . S
H81 C71 0.930 . S
H82 C72 0.930 . S
H83 C73 0.930 . S
Eu84 N115 2.657 . S
Eu84 N122 2.609 . S
Eu84 O128 2.558 . S
Eu84 O129 2.612 . S
Eu84 O131 2.339 . S
Eu84 O132 2.563 . S
Eu84 O133 2.419 . S
Eu84 O135 2.380 1_554 S
Eu84 O136 2.432 . S
Eu84 C148 2.848 . S
C85 C88 1.429 . S
C85 C89 1.411 . S
C85 N92 1.377 . S
C86 C88 1.420 1_454 S
C86 C90 1.423 . S
C86 C98 1.392 . S
C87 C89 1.420 1_455 S
C87 C90 1.351 1_556 S
C87 H110 0.931 . S
C88 C85 1.429 . S
C88 C86 1.420 1_656 S
C88 N96 1.362 . S
C89 C85 1.411 . S
C89 C87 1.420 1_655 S
C89 C94 1.395 . S
C90 C86 1.423 . S
C90 C87 1.351 1_554 S
C90 H102 0.930 . S
C91 C93 1.400 . S
C91 C94 1.386 . S
C91 H103 0.930 . S
N92 C85 1.377 . S
N92 C93 1.321 . S
N92 Eu95 2.609 . S
C93 C91 1.400 . S
C93 N92 1.321 . S
C93 H100 0.930 . S
C94 C89 1.395 . S
C94 C91 1.386 . S
C94 H113 0.930 . S
Eu95 N92 2.609 . S
Eu95 N96 2.657 . S
Eu95 O129 2.380 1_556 S
Eu95 O130 2.432 . S
Eu95 O134 2.558 . S
Eu95 O135 2.612 . S
Eu95 O137 2.339 . S
Eu95 O138 2.563 . S
Eu95 O139 2.419 . S
Eu95 C159 2.848 . S
N96 C88 1.362 . S
N96 Eu95 2.657 . S
N96 C97 1.334 1_556 S
C97 N96 1.334 1_554 S
C97 C99 1.413 1_655 S
C97 H104 0.929 . S
C98 C86 1.392 . S
C98 C99 1.367 . S
C98 H106 0.930 . S
C99 C97 1.413 1_455 S
C99 C98 1.367 . S
C99 H101 0.930 . S
H100 C93 0.930 . S
H101 C99 0.930 . S
H102 C90 0.930 . S
H103 C91 0.930 . S
H104 C97 0.929 . S
H105 C119 0.930 . S
H106 C98 0.930 . S
H107 C125 0.930 . S
H108 C116 0.929 . S
H109 C123 0.930 . S
H110 C87 0.931 . S
H111 C117 0.930 . S
H112 C150 0.930 . S
H113 C94 0.930 . S
H114 C149 0.931 . S
N115 Eu84 2.657 . S
N115 C116 1.334 1_554 S
N115 C120 1.362 . S
C116 H108 0.929 . S
C116 N115 1.334 1_556 S
C116 C119 1.413 . S
C117 H111 0.930 . S
C117 C118 1.392 . S
C117 C119 1.367 . S
C118 C117 1.392 . S
C118 C120 1.420 1_556 S
C118 C150 1.423 . S
C119 H105 0.930 . S
C119 C116 1.413 . S
C119 C117 1.367 . S
C120 N115 1.362 . S
C120 C118 1.420 1_554 S
C120 C124 1.429 . S
H121 C126 0.930 . S
N122 Eu84 2.609 . S
N122 C124 1.377 . S
N122 C125 1.321 . S
C123 H109 0.930 . S
C123 C125 1.400 . S
C123 C126 1.386 . S
C124 C120 1.429 . S
C124 N122 1.377 . S
C124 C127 1.411 . S
C125 H107 0.930 . S
C125 N122 1.321 . S
C125 C123 1.400 . S
C126 H121 0.930 . S
C126 C123 1.386 . S
C126 C127 1.395 . S
C127 C124 1.411 . S
C127 C126 1.395 . S
C127 C149 1.420 . S
O128 Eu84 2.558 . S
O128 C148 1.257 . S
O129 Eu84 2.612 . S
O129 Eu95 2.380 1_554 S
O129 C140 1.276 . S
O130 Eu95 2.432 . S
O130 C147 1.264 . S
O131 Eu84 2.339 . S
O131 C147 1.254 1_554 S
O132 Eu84 2.563 . S
O132 C140 1.235 . S
O133 Eu84 2.419 . S
O133 C148 1.249 . S
O134 Eu95 2.558 . S
O134 C159 1.257 . S
O135 Eu84 2.380 1_556 S
O135 Eu95 2.612 . S
O135 C151 1.276 . S
O136 Eu84 2.432 . S
O136 C158 1.264 . S
O137 Eu95 2.339 . S
O137 C158 1.254 1_556 S
O138 Eu95 2.563 . S
O138 C151 1.235 . S
O139 Eu95 2.419 . S
O139 C159 1.249 . S
C140 O129 1.276 . S
C140 O132 1.235 . S
C141 C143 1.393 . S
C141 C145 1.395 . S
C141 C148 1.492 . S
C142 C143 1.392 . S
C142 C144 1.386 . S
C143 C141 1.393 . S
C143 C142 1.392 . S
C143 H160 0.930 . S
C144 C142 1.386 . S
C144 C146 1.395 . S
C144 H161 0.930 . S
C145 C141 1.395 . S
C145 C146 1.379 . S
C145 H162 0.930 . S
C146 C144 1.395 . S
C146 C145 1.379 . S
C146 H163 0.930 . S
C147 O130 1.264 . S
C147 O131 1.254 1_556 S
C148 Eu84 2.848 . S
C148 O128 1.257 . S
C148 O133 1.249 . S
C148 C141 1.492 . S
C149 H114 0.931 . S
C149 C127 1.420 . S
C149 C150 1.351 1_554 S
C150 H112 0.930 . S
C150 C118 1.423 . S
C150 C149 1.351 1_556 S
C151 O135 1.276 . S
C151 O138 1.235 . S
C152 C153 1.393 . S
C152 C156 1.395 . S
C152 C159 1.492 . S
C153 C152 1.393 . S
C153 C154 1.392 . S
C153 H164 0.930 . S
C154 C153 1.392 . S
C154 C155 1.386 . S
C155 C154 1.386 . S
C155 C157 1.395 . S
C155 H165 0.930 . S
C156 C152 1.395 . S
C156 C157 1.379 . S
C156 H166 0.930 . S
C157 C155 1.395 . S
C157 C156 1.379 . S
C157 H167 0.930 . S
C158 O136 1.264 . S
C158 O137 1.254 1_554 S
C159 Eu95 2.848 . S
C159 O134 1.257 . S
C159 O139 1.249 . S
C159 C152 1.492 . S
H160 C143 0.930 . S
H161 C144 0.930 . S
H162 C145 0.930 . S
H163 C146 0.930 . S
H164 C153 0.930 . S
H165 C155 0.930 . S
H166 C156 0.930 . S
H167 C157 0.930 . S
Eu168 N199 2.657 . S
Eu168 N206 2.609 . S
Eu168 O212 2.558 . S
Eu168 O213 2.612 . S
Eu168 O215 2.339 . S
Eu168 O216 2.563 . S
Eu168 O217 2.419 . S
Eu168 O219 2.380 . S
Eu168 O220 2.432 . S
Eu168 C232 2.848 . S
C169 C172 1.429 . S
C169 C173 1.411 . S
C169 N176 1.377 . S
C170 C172 1.420 . S
C170 C174 1.423 . S
C170 C182 1.392 . S
C171 C173 1.420 . S
C171 C174 1.351 . S
C171 H194 0.931 . S
C172 C169 1.429 . S
C172 C170 1.420 . S
C172 N180 1.362 . S
C173 C169 1.411 . S
C173 C171 1.420 . S
C173 C178 1.395 . S
C174 C170 1.423 . S
C174 C171 1.351 . S
C174 H186 0.930 . S
C175 C177 1.400 . S
C175 C178 1.386 . S
C175 H187 0.930 . S
N176 C169 1.377 . S
N176 C177 1.321 . S
N176 Eu179 2.609 . S
C177 C175 1.400 . S
C177 N176 1.321 . S
C177 H184 0.930 . S
C178 C173 1.395 . S
C178 C175 1.386 . S
C178 H197 0.930 . S
Eu179 N176 2.609 . S
Eu179 N180 2.657 . S
Eu179 O213 2.380 . S
Eu179 O214 2.432 . S
Eu179 O218 2.558 . S
Eu179 O219 2.612 . S
Eu179 O221 2.339 . S
Eu179 O222 2.563 . S
Eu179 O223 2.419 . S
Eu179 C243 2.848 . S
N180 C172 1.362 . S
N180 Eu179 2.657 . S
N180 C181 1.334 . S
C181 N180 1.334 . S
C181 C183 1.413 . S
C181 H188 0.929 . S
C182 C170 1.392 . S
C182 C183 1.367 . S
C182 H190 0.930 . S
C183 C181 1.413 . S
C183 C182 1.367 . S
C183 H185 0.930 . S
H184 C177 0.930 . S
H185 C183 0.930 . S
H186 C174 0.930 . S
H187 C175 0.930 . S
H188 C181 0.929 . S
H189 C203 0.930 . S
H190 C182 0.930 . S
H191 C209 0.930 . S
H192 C200 0.929 . S
H193 C207 0.930 . S
H194 C171 0.931 . S
H195 C201 0.930 . S
H196 C234 0.930 . S
H197 C178 0.930 . S
H198 C233 0.931 . S
N199 Eu168 2.657 . S
N199 C200 1.334 . S
N199 C204 1.362 . S
C200 H192 0.929 . S
C200 N199 1.334 . S
C200 C203 1.413 1_455 S
C201 H195 0.930 . S
C201 C202 1.392 . S
C201 C203 1.367 . S
C202 C201 1.392 . S
C202 C204 1.420 1_655 S
C202 C234 1.423 . S
C203 H189 0.930 . S
C203 C200 1.413 1_655 S
C203 C201 1.367 . S
C204 N199 1.362 . S
C204 C202 1.420 1_455 S
C204 C208 1.429 . S
H205 C210 0.930 . S
N206 Eu168 2.609 . S
N206 C208 1.377 . S
N206 C209 1.321 . S
C207 H193 0.930 . S
C207 C209 1.400 . S
C207 C210 1.386 . S
C208 C204 1.429 . S
C208 N206 1.377 . S
C208 C211 1.411 . S
C209 H191 0.930 . S
C209 N206 1.321 . S
C209 C207 1.400 . S
C210 H205 0.930 . S
C210 C207 1.386 . S
C210 C211 1.395 . S
C211 C208 1.411 . S
C211 C210 1.395 . S
C211 C233 1.420 1_455 S
O212 Eu168 2.558 . S
O212 C232 1.257 . S
O213 Eu168 2.612 . S
O213 Eu179 2.380 . S
O213 C224 1.276 . S
O214 Eu179 2.432 . S
O214 C231 1.264 . S
O215 Eu168 2.339 . S
O215 C231 1.254 . S
O216 Eu168 2.563 . S
O216 C224 1.235 . S
O217 Eu168 2.419 . S
O217 C232 1.249 . S
O218 Eu179 2.558 . S
O218 C243 1.257 . S
O219 Eu168 2.380 . S
O219 Eu179 2.612 . S
O219 C235 1.276 . S
O220 Eu168 2.432 . S
O220 C242 1.264 . S
O221 Eu179 2.339 . S
O221 C242 1.254 . S
O222 Eu179 2.563 . S
O222 C235 1.235 . S
O223 Eu179 2.419 . S
O223 C243 1.249 . S
C224 O213 1.276 . S
C224 O216 1.235 . S
C225 C227 1.393 . S
C225 C229 1.395 . S
C225 C232 1.492 . S
C226 C227 1.392 . S
C226 C228 1.386 . S
C227 C225 1.393 . S
C227 C226 1.392 . S
C227 H244 0.930 . S
C228 C226 1.386 . S
C228 C230 1.395 . S
C228 H245 0.930 . S
C229 C225 1.395 . S
C229 C230 1.379 . S
C229 H246 0.930 . S
C230 C228 1.395 . S
C230 C229 1.379 . S
C230 H247 0.930 . S
C231 O214 1.264 . S
C231 O215 1.254 . S
C232 Eu168 2.848 . S
C232 O212 1.257 . S
C232 O217 1.249 . S
C232 C225 1.492 . S
C233 H198 0.931 . S
C233 C211 1.420 1_655 S
C233 C234 1.351 . S
C234 H196 0.930 . S
C234 C202 1.423 . S
C234 C233 1.351 . S
C235 O219 1.276 . S
C235 O222 1.235 . S
C236 C237 1.393 . S
C236 C240 1.395 . S
C236 C243 1.492 . S
C237 C236 1.393 . S
C237 C238 1.392 . S
C237 H248 0.930 . S
C238 C237 1.392 . S
C238 C239 1.386 . S
C239 C238 1.386 . S
C239 C241 1.395 . S
C239 H249 0.930 . S
C240 C236 1.395 . S
C240 C241 1.379 . S
C240 H250 0.930 . S
C241 C239 1.395 . S
C241 C240 1.379 . S
C241 H251 0.930 . S
C242 O220 1.264 . S
C242 O221 1.254 . S
C243 Eu179 2.848 . S
C243 O218 1.257 . S
C243 O223 1.249 . S
C243 C236 1.492 . S
H244 C227 0.930 . S
H245 C228 0.930 . S
H246 C229 0.930 . S
H247 C230 0.930 . S
H248 C237 0.930 . S
H249 C239 0.930 . S
H250 C240 0.930 . S
H251 C241 0.930 . S
Eu252 N283 2.657 . S
Eu252 N290 2.609 . S
Eu252 O296 2.558 . S
Eu252 O297 2.612 . S
Eu252 O299 2.339 . S
Eu252 O300 2.563 . S
Eu252 O301 2.419 . S
Eu252 O303 2.380 . S
Eu252 O304 2.432 . S
Eu252 C316 2.848 . S
C253 C256 1.429 . S
C253 C257 1.411 . S
C253 N260 1.377 . S
C254 C256 1.420 1_455 S
C254 C258 1.423 . S
C254 C266 1.392 . S
C255 C257 1.420 1_455 S
C255 C258 1.351 . S
C255 H278 0.931 . S
C256 C253 1.429 . S
C256 C254 1.420 1_655 S
C256 N264 1.362 . S
C257 C253 1.411 . S
C257 C255 1.420 1_655 S
C257 C262 1.395 . S
C258 C254 1.423 . S
C258 C255 1.351 . S
C258 H270 0.930 . S
C259 C261 1.400 . S
C259 C262 1.386 . S
C259 H271 0.930 . S
N260 C253 1.377 . S
N260 C261 1.321 . S
N260 Eu263 2.609 . S
C261 C259 1.400 . S
C261 N260 1.321 . S
C261 H268 0.930 . S
C262 C257 1.395 . S
C262 C259 1.386 . S
C262 H281 0.930 . S
Eu263 N260 2.609 . S
Eu263 N264 2.657 . S
Eu263 O297 2.380 . S
Eu263 O298 2.432 . S
Eu263 O302 2.558 . S
Eu263 O303 2.612 . S
Eu263 O305 2.339 . S
Eu263 O306 2.563 . S
Eu263 O307 2.419 . S
Eu263 C327 2.848 . S
N264 C256 1.362 . S
N264 Eu263 2.657 . S
N264 C265 1.334 . S
C265 N264 1.334 . S
C265 C267 1.413 1_655 S
C265 H272 0.929 . S
C266 C254 1.392 . S
C266 C267 1.367 . S
C266 H274 0.930 . S
C267 C265 1.413 1_455 S
C267 C266 1.367 . S
C267 H269 0.930 . S
H268 C261 0.930 . S
H269 C267 0.930 . S
H270 C258 0.930 . S
H271 C259 0.930 . S
H272 C265 0.929 . S
H273 C287 0.930 . S
H274 C266 0.930 . S
H275 C293 0.930 . S
H276 C284 0.929 . S
H277 C291 0.930 . S
H278 C255 0.931 . S
H279 C285 0.930 . S
H280 C318 0.930 . S
H281 C262 0.930 . S
H282 C317 0.931 . S
N283 Eu252 2.657 . S
N283 C284 1.334 . S
N283 C288 1.362 . S
C284 H276 0.929 . S
C284 N283 1.334 . S
C284 C287 1.413 . S
C285 H279 0.930 . S
C285 C286 1.392 . S
C285 C287 1.367 . S
C286 C285 1.392 . S
C286 C288 1.420 . S
C286 C318 1.423 . S
C287 H273 0.930 . S
C287 C284 1.413 . S
C287 C285 1.367 . S
C288 N283 1.362 . S
C288 C286 1.420 . S
C288 C292 1.429 . S
H289 C294 0.930 . S
N290 Eu252 2.609 . S
N290 C292 1.377 . S
N290 C293 1.321 . S
C291 H277 0.930 . S
C291 C293 1.400 . S
C291 C294 1.386 . S
C292 C288 1.429 . S
C292 N290 1.377 . S
C292 C295 1.411 . S
C293 H275 0.930 . S
C293 N290 1.321 . S
C293 C291 1.400 . S
C294 H289 0.930 . S
C294 C291 1.386 . S
C294 C295 1.395 . S
C295 C292 1.411 . S
C295 C294 1.395 . S
C295 C317 1.420 . S
O296 Eu252 2.558 . S
O296 C316 1.257 . S
O297 Eu252 2.612 . S
O297 Eu263 2.380 . S
O297 C308 1.276 . S
O298 Eu263 2.432 . S
O298 C315 1.264 . S
O299 Eu252 2.339 . S
O299 C315 1.254 . S
O300 Eu252 2.563 . S
O300 C308 1.235 . S
O301 Eu252 2.419 . S
O301 C316 1.249 . S
O302 Eu263 2.558 . S
O302 C327 1.257 . S
O303 Eu252 2.380 . S
O303 Eu263 2.612 . S
O303 C319 1.276 . S
O304 Eu252 2.432 . S
O304 C326 1.264 . S
O305 Eu263 2.339 . S
O305 C326 1.254 . S
O306 Eu263 2.563 . S
O306 C319 1.235 . S
O307 Eu263 2.419 . S
O307 C327 1.249 . S
C308 O297 1.276 . S
C308 O300 1.235 . S
C309 C311 1.393 . S
C309 C313 1.395 . S
C309 C316 1.492 . S
C310 C311 1.392 . S
C310 C312 1.386 . S
C311 C309 1.393 . S
C311 C310 1.392 . S
C311 H328 0.930 . S
C312 C310 1.386 . S
C312 C314 1.395 . S
C312 H329 0.930 . S
C313 C309 1.395 . S
C313 C314 1.379 . S
C313 H330 0.930 . S
C314 C312 1.395 . S
C314 C313 1.379 . S
C314 H331 0.930 . S
C315 O298 1.264 . S
C315 O299 1.254 . S
C316 Eu252 2.848 . S
C316 O296 1.257 . S
C316 O301 1.249 . S
C316 C309 1.492 . S
C317 H282 0.931 . S
C317 C295 1.420 . S
C317 C318 1.351 . S
C318 H280 0.930 . S
C318 C286 1.423 . S
C318 C317 1.351 . S
C319 O303 1.276 . S
C319 O306 1.235 . S
C320 C321 1.393 . S
C320 C324 1.395 . S
C320 C327 1.492 . S
C321 C320 1.393 . S
C321 C322 1.392 . S
C321 H332 0.930 . S
C322 C321 1.392 . S
C322 C323 1.386 . S
C323 C322 1.386 . S
C323 C325 1.395 . S
C323 H333 0.930 . S
C324 C320 1.395 . S
C324 C325 1.379 . S
C324 H334 0.930 . S
C325 C323 1.395 . S
C325 C324 1.379 . S
C325 H335 0.930 . S
C326 O304 1.264 . S
C326 O305 1.254 . S
C327 Eu263 2.848 . S
C327 O302 1.257 . S
C327 O307 1.249 . S
C327 C320 1.492 . S
H328 C311 0.930 . S
H329 C312 0.930 . S
H330 C313 0.930 . S
H331 C314 0.930 . S
H332 C321 0.930 . S
H333 C323 0.930 . S
H334 C324 0.930 . S
H335 C325 0.930 . S
H336 C354 0.951 . S
H337 C356 0.951 . S
H338 C358 0.950 . S
H339 C359 0.950 . S
H340 C361 0.950 . S
H341 C364 0.950 . S
H342 C365 0.950 . S
H343 C367 0.950 . S
H344 C368 0.950 . S
H345 C369 0.951 . S
H346 C371 0.951 . S
H347 C373 0.950 . S
H348 C374 0.950 . S
H349 C376 0.950 . S
H350 C379 0.950 . S
H351 C380 0.950 . S
H352 C382 0.950 . S
H353 C383 0.950 . S
C354 H336 0.951 . S
C354 C355 1.366 . S
C354 C356 1.388 . S
C355 C354 1.366 . S
C355 C359 1.385 1_556 S
C356 H337 0.951 . S
C356 C354 1.388 . S
C356 C357 1.366 . S
C357 C356 1.366 . S
C357 C358 1.414 1_556 S
C357 C360 1.506 . S
C358 H338 0.950 . S
C358 C357 1.414 1_554 S
C358 C359 1.374 . S
C359 H339 0.950 . S
C359 C355 1.385 1_554 S
C359 C358 1.374 . S
C360 C357 1.506 . S
C360 C361 1.357 1_556 S
C360 C362 1.398 . S
C361 H340 0.950 . S
C361 C360 1.357 1_554 S
C361 C377 1.377 . S
C362 C360 1.398 . S
C362 C363 1.524 . S
C362 C376 1.377 . S
C363 C362 1.524 . S
C363 C364 1.397 . S
C363 C368 1.363 . S
C364 H341 0.950 . S
C364 C363 1.397 . S
C364 C365 1.334 . S
C365 H342 0.950 . S
C365 C364 1.334 . S
C365 C366 1.287 . S
C366 C365 1.287 . S
C366 C367 1.524 . S
C366 H385 0.913 . S
C367 H343 0.950 . S
C367 C366 1.524 . S
C367 C368 1.415 . S
C368 H344 0.950 . S
C368 C363 1.363 . S
C368 C367 1.415 . S
C369 H345 0.951 . S
C369 C370 1.366 . S
C369 C371 1.388 . S
C370 C369 1.366 . S
C370 C374 1.385 1_554 S
C371 H346 0.951 . S
C371 C369 1.388 . S
C371 C372 1.366 . S
C372 C371 1.366 . S
C372 C373 1.414 1_554 S
C372 C375 1.512 . S
C373 H347 0.950 . S
C373 C372 1.414 1_556 S
C373 C374 1.374 . S
C374 H348 0.950 . S
C374 C370 1.385 1_556 S
C374 C373 1.374 . S
C375 C372 1.512 . S
C375 C376 1.341 1_554 S
C375 C377 1.407 . S
C376 H349 0.950 . S
C376 C362 1.377 . S
C376 C375 1.341 1_556 S
C377 C361 1.377 . S
C377 C375 1.407 . S
C377 C378 1.524 . S
C378 C377 1.524 . S
C378 C379 1.397 . S
C378 C383 1.363 . S
C379 H350 0.950 . S
C379 C378 1.397 . S
C379 C380 1.334 . S
C380 H351 0.950 . S
C380 C379 1.334 . S
C380 C381 1.287 . S
C381 C380 1.287 . S
C381 C382 1.524 . S
C381 H384 0.999 . S
C382 H352 0.950 . S
C382 C381 1.524 . S
C382 C383 1.415 . S
C383 H353 0.950 . S
C383 C378 1.363 . S
C383 C382 1.415 . S
H384 C381 0.999 . S
H385 C366 0.913 . S
H386 C404 0.951 . S
H387 C406 0.951 . S
H388 C408 0.950 . S
H389 C409 0.950 . S
H390 C411 0.950 . S
H391 C414 0.950 . S
H392 C415 0.950 . S
H393 C417 0.950 . S
H394 C418 0.950 . S
H395 C419 0.951 . S
H396 C421 0.951 . S
H397 C423 0.950 . S
H398 C424 0.950 . S
H399 C426 0.950 . S
H400 C429 0.950 . S
H401 C430 0.950 . S
H402 C432 0.950 . S
H403 C433 0.950 . S
C404 H386 0.951 . S
C404 C405 1.366 . S
C404 C406 1.388 . S
C405 C404 1.366 . S
C405 C409 1.385 . S
C406 H387 0.951 . S
C406 C404 1.388 . S
C406 C407 1.366 . S
C407 C406 1.366 . S
C407 C408 1.414 . S
C407 C410 1.499 . S
C408 H388 0.950 . S
C408 C407 1.414 . S
C408 C409 1.374 . S
C409 H389 0.950 . S
C409 C405 1.385 . S
C409 C408 1.374 . S
C410 C407 1.499 . S
C410 C411 1.373 . S
C410 C412 1.389 . S
C411 H390 0.950 . S
C411 C410 1.373 . S
C411 C427 1.377 . S
C412 C410 1.389 . S
C412 C413 1.524 . S
C412 C426 1.377 . S
C413 C412 1.524 . S
C413 C414 1.397 . S
C413 C418 1.363 . S
C414 H391 0.950 . S
C414 C413 1.397 . S
C414 C415 1.334 . S
C415 H392 0.950 . S
C415 C414 1.334 . S
C415 C416 1.287 . S
C416 C415 1.287 . S
C416 C417 1.524 . S
C416 H435 0.913 . S
C417 H393 0.950 . S
C417 C416 1.524 . S
C417 C418 1.415 . S
C418 H394 0.950 . S
C418 C413 1.363 . S
C418 C417 1.415 . S
C419 H395 0.951 . S
C419 C420 1.366 . S
C419 C421 1.388 . S
C420 C419 1.366 . S
C420 C424 1.385 . S
C421 H396 0.951 . S
C421 C419 1.388 . S
C421 C422 1.366 . S
C422 C421 1.366 . S
C422 C423 1.414 . S
C422 C425 1.499 . S
C423 H397 0.950 . S
C423 C422 1.414 . S
C423 C424 1.374 . S
C424 H398 0.950 . S
C424 C420 1.385 . S
C424 C423 1.374 . S
C425 C422 1.499 . S
C425 C426 1.373 . S
C425 C427 1.389 . S
C426 H399 0.950 . S
C426 C412 1.377 . S
C426 C425 1.373 . S
C427 C411 1.377 . S
C427 C425 1.389 . S
C427 C428 1.524 . S
C428 C427 1.524 . S
C428 C429 1.397 . S
C428 C433 1.363 . S
C429 H400 0.950 . S
C429 C428 1.397 . S
C429 C430 1.334 . S
C430 H401 0.950 . S
C430 C429 1.334 . S
C430 C431 1.287 . S
C431 C430 1.287 . S
C431 C432 1.524 . S
C431 H434 0.999 . S
C432 H402 0.950 . S
C432 C431 1.524 . S
C432 C433 1.415 . S
C433 H403 0.950 . S
C433 C428 1.363 . S
C433 C432 1.415 . S
H434 C431 0.999 . S
H435 C416 0.913 . S
H436 C454 0.951 . S
H437 C456 0.951 . S
H438 C458 0.950 . S
H439 C459 0.950 . S
H440 C461 0.950 . S
H441 C464 0.950 . S
H442 C465 0.950 . S
H443 C467 0.950 1_655 S
H444 C468 0.950 . S
H445 C469 0.951 . S
H446 C471 0.951 . S
H447 C473 0.950 . S
H448 C474 0.950 . S
H449 C476 0.950 . S
H450 C479 0.950 . S
H451 C480 0.950 . S
H452 C482 0.950 1_455 S
H453 C483 0.950 . S
C454 H436 0.951 . S
C454 C455 1.366 1_554 S
C454 C456 1.388 . S
C455 C454 1.366 1_556 S
C455 C459 1.385 . S
C456 H437 0.951 . S
C456 C454 1.388 . S
C456 C457 1.366 . S
C457 C456 1.366 . S
C457 C458 1.401 1_554 S
C457 C460 1.499 . S
C458 H438 0.950 . S
C458 C457 1.401 1_556 S
C458 C459 1.374 . S
C459 H439 0.950 . S
C459 C455 1.385 . S
C459 C458 1.374 . S
C460 C457 1.499 . S
C460 C461 1.358 1_544 S
C460 C462 1.415 . S
C461 H440 0.950 . S
C461 C460 1.358 1_566 S
C461 C477 1.377 1_455 S
C462 C460 1.415 . S
C462 C463 1.524 . S
C462 C476 1.377 1_455 S
C463 C462 1.524 . S
C463 C464 1.397 . S
C463 C468 1.363 1_455 S
C464 H441 0.950 . S
C464 C463 1.397 . S
C464 C465 1.334 . S
C465 H442 0.950 . S
C465 C464 1.334 . S
C465 C466 1.287 . S
C466 C465 1.287 . S
C466 C467 1.524 . S
C466 H485 0.913 . S
C467 H443 0.950 1_455 S
C467 C466 1.524 . S
C467 C468 1.415 1_455 S
C468 H444 0.950 . S
C468 C463 1.363 1_655 S
C468 C467 1.415 1_655 S
C469 H445 0.951 . S
C469 C470 1.366 1_556 S
C469 C471 1.388 . S
C470 C469 1.366 1_554 S
C470 C474 1.385 . S
C471 H446 0.951 . S
C471 C469 1.388 . S
C471 C472 1.366 . S
C472 C471 1.366 . S
C472 C473 1.409 1_556 S
C472 C475 1.499 . S
C473 H447 0.950 . S
C473 C472 1.409 1_554 S
C473 C474 1.374 . S
C474 H448 0.950 . S
C474 C470 1.385 . S
C474 C473 1.374 . S
C475 C472 1.499 . S
C475 C476 1.367 1_566 S
C475 C477 1.400 . S
C476 H449 0.950 . S
C476 C462 1.377 1_655 S
C476 C475 1.367 1_544 S
C477 C461 1.377 1_655 S
C477 C475 1.400 . S
C477 C478 1.524 . S
C478 C477 1.524 . S
C478 C479 1.397 . S
C478 C483 1.363 1_655 S
C479 H450 0.950 . S
C479 C478 1.397 . S
C479 C480 1.334 . S
C480 H451 0.950 . S
C480 C479 1.334 . S
C480 C481 1.287 . S
C481 C480 1.287 . S
C481 C482 1.524 . S
C481 H484 0.999 . S
C482 H452 0.950 1_655 S
C482 C481 1.524 . S
C482 C483 1.415 1_655 S
C483 H453 0.950 . S
C483 C478 1.363 1_455 S
C483 C482 1.415 1_455 S
H484 C481 0.999 . S
H485 C466 0.913 . S
H486 C504 0.951 . S
H487 C506 0.951 . S
H488 C508 0.950 . S
H489 C509 0.950 . S
H490 C511 0.950 . S
H491 C514 0.950 . S
H492 C515 0.950 . S
H493 C517 0.950 . S
H494 C518 0.950 . S
H495 C519 0.951 . S
H496 C521 0.951 . S
H497 C523 0.950 . S
H498 C524 0.950 . S
H499 C526 0.950 . S
H500 C529 0.950 . S
H501 C530 0.950 . S
H502 C532 0.950 . S
H503 C533 0.950 . S
C504 H486 0.951 . S
C504 C505 1.366 . S
C504 C506 1.388 . S
C505 C504 1.366 . S
C505 C509 1.385 . S
C506 H487 0.951 . S
C506 C504 1.388 . S
C506 C507 1.366 . S
C507 C506 1.366 . S
C507 C508 1.414 . S
C507 C510 1.499 . S
C508 H488 0.950 . S
C508 C507 1.414 . S
C508 C509 1.374 . S
C509 H489 0.950 . S
C509 C505 1.385 . S
C509 C508 1.374 . S
C510 C507 1.499 . S
C510 C511 1.373 . S
C510 C512 1.389 1_655 S
C511 H490 0.950 . S
C511 C510 1.373 . S
C511 C527 1.377 1_545 S
C512 C510 1.389 1_455 S
C512 C513 1.524 . S
C512 C526 1.377 1_545 S
C513 C512 1.524 . S
C513 C514 1.397 . S
C513 C518 1.363 . S
C514 H491 0.950 . S
C514 C513 1.397 . S
C514 C515 1.334 . S
C515 H492 0.950 . S
C515 C514 1.334 . S
C515 C516 1.287 . S
C516 C515 1.287 . S
C516 C517 1.524 . S
C516 H535 0.913 . S
C517 H493 0.950 . S
C517 C516 1.524 . S
C517 C518 1.415 . S
C518 H494 0.950 . S
C518 C513 1.363 . S
C518 C517 1.415 . S
C519 H495 0.951 . S
C519 C520 1.366 . S
C519 C521 1.388 . S
C520 C519 1.366 . S
C520 C524 1.385 . S
C521 H496 0.951 . S
C521 C519 1.388 . S
C521 C522 1.366 . S
C522 C521 1.366 . S
C522 C523 1.414 . S
C522 C525 1.499 . S
C523 H497 0.950 . S
C523 C522 1.414 . S
C523 C524 1.374 . S
C524 H498 0.950 . S
C524 C520 1.385 . S
C524 C523 1.374 . S
C525 C522 1.499 . S
C525 C526 1.373 . S
C525 C527 1.389 1_455 S
C526 H499 0.950 . S
C526 C512 1.377 1_565 S
C526 C525 1.373 . S
C527 C511 1.377 1_565 S
C527 C525 1.389 1_655 S
C527 C528 1.524 . S
C528 C527 1.524 . S
C528 C529 1.397 . S
C528 C533 1.363 . S
C529 H500 0.950 . S
C529 C528 1.397 . S
C529 C530 1.334 . S
C530 H501 0.950 . S
C530 C529 1.334 . S
C530 C531 1.287 . S
C531 C530 1.287 . S
C531 C532 1.524 . S
C531 H534 0.999 . S
C532 H502 0.950 . S
C532 C531 1.524 . S
C532 C533 1.415 . S
C533 H503 0.950 . S
C533 C528 1.363 . S
C533 C532 1.415 . S
H534 C531 0.999 . S
H535 C516 0.913 . S
H536 C554 0.951 . S
H537 C556 0.951 . S
H538 C558 0.950 . S
H539 C559 0.950 . S
H540 C561 0.950 . S
H541 C564 0.950 . S
H542 C565 0.950 . S
H543 C567 0.950 . S
H544 C568 0.950 . S
H545 C569 0.951 . S
H546 C571 0.951 . S
H547 C573 0.950 . S
H548 C574 0.950 . S
H549 C576 0.950 . S
H550 C579 0.950 . S
H551 C580 0.950 . S
H552 C582 0.950 . S
H553 C583 0.950 . S
C554 H536 0.951 . S
C554 C555 1.366 . S
C554 C556 1.388 . S
C555 C554 1.366 . S
C555 C559 1.385 . S
C556 H537 0.951 . S
C556 C554 1.388 . S
C556 C557 1.366 . S
C557 C556 1.366 . S
C557 C558 1.414 . S
C557 C560 1.499 . S
C558 H538 0.950 . S
C558 C557 1.414 . S
C558 C559 1.374 . S
C559 H539 0.950 . S
C559 C555 1.385 . S
C559 C558 1.374 . S
C560 C557 1.499 . S
C560 C561 1.373 . S
C560 C562 1.389 . S
C561 H540 0.950 . S
C561 C560 1.373 . S
C561 C577 1.377 . S
C562 C560 1.389 . S
C562 C563 1.524 . S
C562 C576 1.377 . S
C563 C562 1.524 . S
C563 C564 1.397 . S
C563 C568 1.363 . S
C564 H541 0.950 . S
C564 C563 1.397 . S
C564 C565 1.334 . S
C565 H542 0.950 . S
C565 C564 1.334 . S
C565 C566 1.287 . S
C566 C565 1.287 . S
C566 C567 1.524 . S
C566 H585 0.913 . S
C567 H543 0.950 . S
C567 C566 1.524 . S
C567 C568 1.415 . S
C568 H544 0.950 . S
C568 C563 1.363 . S
C568 C567 1.415 . S
C569 H545 0.951 . S
C569 C570 1.366 . S
C569 C571 1.388 . S
C570 C569 1.366 . S
C570 C574 1.385 . S
C571 H546 0.951 . S
C571 C569 1.388 . S
C571 C572 1.366 . S
C572 C571 1.366 . S
C572 C573 1.414 . S
C572 C575 1.499 . S
C573 H547 0.950 . S
C573 C572 1.414 . S
C573 C574 1.374 . S
C574 H548 0.950 . S
C574 C570 1.385 . S
C574 C573 1.374 . S
C575 C572 1.499 . S
C575 C576 1.373 . S
C575 C577 1.389 . S
C576 H549 0.950 . S
C576 C562 1.377 . S
C576 C575 1.373 . S
C577 C561 1.377 . S
C577 C575 1.389 . S
C577 C578 1.524 . S
C578 C577 1.524 . S
C578 C579 1.397 . S
C578 C583 1.363 . S
C579 H550 0.950 . S
C579 C578 1.397 . S
C579 C580 1.334 . S
C580 H551 0.950 . S
C580 C579 1.334 . S
C580 C581 1.287 . S
C581 C580 1.287 . S
C581 C582 1.524 . S
C581 H584 0.999 . S
C582 H552 0.950 . S
C582 C581 1.524 . S
C582 C583 1.415 . S
C583 H553 0.950 . S
C583 C578 1.363 . S
C583 C582 1.415 . S
H584 C581 0.999 . S
H585 C566 0.913 . S
H586 C604 0.951 . S
H587 C606 0.951 . S
H588 C608 0.950 . S
H589 C609 0.950 . S
H590 C611 0.950 . S
H591 C614 0.950 . S
H592 C615 0.950 . S
H593 C617 0.950 . S
H594 C618 0.950 . S
H595 C619 0.951 . S
H596 C621 0.951 . S
H597 C623 0.950 . S
H598 C624 0.950 . S
H599 C626 0.950 . S
H600 C629 0.950 . S
H601 C630 0.950 . S
H602 C632 0.950 . S
H603 C633 0.950 . S
C604 H586 0.951 . S
C604 C605 1.366 . S
C604 C606 1.388 . S
C605 C604 1.366 . S
C605 C609 1.385 . S
C606 H587 0.951 . S
C606 C604 1.388 . S
C606 C607 1.366 . S
C607 C606 1.366 . S
C607 C608 1.414 . S
C607 C610 1.499 . S
C608 H588 0.950 . S
C608 C607 1.414 . S
C608 C609 1.374 . S
C609 H589 0.950 . S
C609 C605 1.385 . S
C609 C608 1.374 . S
C610 C607 1.499 . S
C610 C611 1.373 . S
C610 C612 1.389 . S
C611 H590 0.950 . S
C611 C610 1.373 . S
C611 C627 1.377 . S
C612 C610 1.389 . S
C612 C613 1.524 . S
C612 C626 1.377 . S
C613 C612 1.524 . S
C613 C614 1.397 . S
C613 C618 1.363 . S
C614 H591 0.950 . S
C614 C613 1.397 . S
C614 C615 1.334 . S
C615 H592 0.950 . S
C615 C614 1.334 . S
C615 C616 1.287 . S
C616 C615 1.287 . S
C616 C617 1.524 . S
C616 H635 0.913 . S
C617 H593 0.950 . S
C617 C616 1.524 . S
C617 C618 1.415 . S
C618 H594 0.950 . S
C618 C613 1.363 . S
C618 C617 1.415 . S
C619 H595 0.951 . S
C619 C620 1.366 . S
C619 C621 1.388 . S
C620 C619 1.366 . S
C620 C624 1.385 . S
C621 H596 0.951 . S
C621 C619 1.388 . S
C621 C622 1.366 . S
C622 C621 1.366 . S
C622 C623 1.414 . S
C622 C625 1.499 . S
C623 H597 0.950 . S
C623 C622 1.414 . S
C623 C624 1.374 . S
C624 H598 0.950 . S
C624 C620 1.385 . S
C624 C623 1.374 . S
C625 C622 1.499 . S
C625 C626 1.373 . S
C625 C627 1.389 . S
C626 H599 0.950 . S
C626 C612 1.377 . S
C626 C625 1.373 . S
C627 C611 1.377 . S
C627 C625 1.389 . S
C627 C628 1.524 . S
C628 C627 1.524 . S
C628 C629 1.397 . S
C628 C633 1.363 . S
C629 H600 0.950 . S
C629 C628 1.397 . S
C629 C630 1.334 . S
C630 H601 0.950 . S
C630 C629 1.334 . S
C630 C631 1.287 . S
C631 C630 1.287 . S
C631 C632 1.524 . S
C631 H634 0.999 . S
C632 H602 0.950 . S
C632 C631 1.524 . S
C632 C633 1.415 . S
C633 H603 0.950 . S
C633 C628 1.363 . S
C633 C632 1.415 . S
H634 C631 0.999 . S
H635 C616 0.913 . S
H636 C654 0.951 . S
H637 C656 0.951 . S
H638 C658 0.950 . S
H639 C659 0.950 . S
H640 C661 0.950 . S
H641 C664 0.950 . S
H642 C665 0.950 . S
H643 C667 0.950 . S
H644 C668 0.950 . S
H645 C669 0.951 . S
H646 C671 0.951 . S
H647 C673 0.950 . S
H648 C674 0.950 . S
H649 C676 0.950 . S
H650 C679 0.950 . S
H651 C680 0.950 . S
H652 C682 0.950 . S
H653 C683 0.950 . S
C654 H636 0.951 . S
C654 C655 1.366 . S
C654 C656 1.388 . S
C655 C654 1.366 . S
C655 C659 1.385 . S
C656 H637 0.951 . S
C656 C654 1.388 . S
C656 C657 1.366 . S
C657 C656 1.366 . S
C657 C658 1.414 . S
C657 C660 1.499 . S
C658 H638 0.950 . S
C658 C657 1.414 . S
C658 C659 1.374 . S
C659 H639 0.950 . S
C659 C655 1.385 . S
C659 C658 1.374 . S
C660 C657 1.499 . S
C660 C661 1.373 . S
C660 C662 1.389 . S
C661 H640 0.950 . S
C661 C660 1.373 . S
C661 C677 1.377 . S
C662 C660 1.389 . S
C662 C663 1.524 . S
C662 C676 1.377 . S
C663 C662 1.524 . S
C663 C664 1.397 . S
C663 C668 1.363 . S
C664 H641 0.950 . S
C664 C663 1.397 . S
C664 C665 1.334 . S
C665 H642 0.950 . S
C665 C664 1.334 . S
C665 C666 1.287 . S
C666 C665 1.287 . S
C666 C667 1.524 . S
C666 H685 0.913 . S
C667 H643 0.950 . S
C667 C666 1.524 . S
C667 C668 1.415 . S
C668 H644 0.950 . S
C668 C663 1.363 . S
C668 C667 1.415 . S
C669 H645 0.951 . S
C669 C670 1.366 . S
C669 C671 1.388 . S
C670 C669 1.366 . S
C670 C674 1.385 . S
C671 H646 0.951 . S
C671 C669 1.388 . S
C671 C672 1.366 . S
C672 C671 1.366 . S
C672 C673 1.414 . S
C672 C675 1.499 . S
C673 H647 0.950 . S
C673 C672 1.414 . S
C673 C674 1.374 . S
C674 H648 0.950 . S
C674 C670 1.385 . S
C674 C673 1.374 . S
C675 C672 1.499 . S
C675 C676 1.373 . S
C675 C677 1.389 . S
C676 H649 0.950 . S
C676 C662 1.377 . S
C676 C675 1.373 . S
C677 C661 1.377 . S
C677 C675 1.389 . S
C677 C678 1.524 . S
C678 C677 1.524 . S
C678 C679 1.397 . S
C678 C683 1.363 . S
C679 H650 0.950 . S
C679 C678 1.397 . S
C679 C680 1.334 . S
C680 H651 0.950 . S
C680 C679 1.334 . S
C680 C681 1.287 . S
C681 C680 1.287 . S
C681 C682 1.524 . S
C681 H684 0.999 . S
C682 H652 0.950 . S
C682 C681 1.524 . S
C682 C683 1.415 . S
C683 H653 0.950 . S
C683 C678 1.363 . S
C683 C682 1.415 . S
H684 C681 0.999 . S
H685 C666 0.913 . S
H686 C704 0.951 . S
H687 C706 0.951 . S
H688 C708 0.950 . S
H689 C709 0.950 . S
H690 C711 0.950 . S
H691 C714 0.950 . S
H692 C715 0.950 . S
H693 C717 0.950 . S
H694 C718 0.950 . S
H695 C719 0.951 . S
H696 C721 0.951 . S
H697 C723 0.950 . S
H698 C724 0.950 . S
H699 C726 0.950 . S
H700 C729 0.950 . S
H701 C730 0.950 . S
H702 C732 0.950 . S
H703 C733 0.950 . S
C704 H686 0.951 . S
C704 C705 1.366 . S
C704 C706 1.388 . S
C705 C704 1.366 . S
C705 C709 1.385 . S
C706 H687 0.951 . S
C706 C704 1.388 . S
C706 C707 1.366 . S
C707 C706 1.366 . S
C707 C708 1.414 . S
C707 C710 1.499 . S
C708 H688 0.950 . S
C708 C707 1.414 . S
C708 C709 1.374 . S
C709 H689 0.950 . S
C709 C705 1.385 . S
C709 C708 1.374 . S
C710 C707 1.499 . S
C710 C711 1.373 . S
C710 C712 1.389 . S
C711 H690 0.950 . S
C711 C710 1.373 . S
C711 C727 1.377 . S
C712 C710 1.389 . S
C712 C713 1.524 . S
C712 C726 1.377 . S
C713 C712 1.524 . S
C713 C714 1.397 . S
C713 C718 1.363 . S
C714 H691 0.950 . S
C714 C713 1.397 . S
C714 C715 1.334 . S
C715 H692 0.950 . S
C715 C714 1.334 . S
C715 C716 1.287 . S
C716 C715 1.287 . S
C716 C717 1.524 . S
C716 H735 0.913 . S
C717 H693 0.950 . S
C717 C716 1.524 . S
C717 C718 1.415 . S
C718 H694 0.950 . S
C718 C713 1.363 . S
C718 C717 1.415 . S
C719 H695 0.951 . S
C719 C720 1.366 . S
C719 C721 1.388 . S
C720 C719 1.366 . S
C720 C724 1.385 . S
C721 H696 0.951 . S
C721 C719 1.388 . S
C721 C722 1.366 . S
C722 C721 1.366 . S
C722 C723 1.414 . S
C722 C725 1.499 . S
C723 H697 0.950 . S
C723 C722 1.414 . S
C723 C724 1.374 . S
C724 H698 0.950 . S
C724 C720 1.385 . S
C724 C723 1.374 . S
C725 C722 1.499 . S
C725 C726 1.373 . S
C725 C727 1.389 . S
C726 H699 0.950 . S
C726 C712 1.377 . S
C726 C725 1.373 . S
C727 C711 1.377 . S
C727 C725 1.389 . S
C727 C728 1.524 . S
C728 C727 1.524 . S
C728 C729 1.397 . S
C728 C733 1.363 . S
C729 H700 0.950 . S
C729 C728 1.397 . S
C729 C730 1.334 . S
C730 H701 0.950 . S
C730 C729 1.334 . S
C730 C731 1.287 . S
C731 C730 1.287 . S
C731 C732 1.524 . S
C731 H734 0.999 . S
C732 H702 0.950 . S
C732 C731 1.524 . S
C732 C733 1.415 . S
C733 H703 0.950 . S
C733 C728 1.363 . S
C733 C732 1.415 . S
H734 C731 0.999 . S
H735 C716 0.913 . S
H736 C754 0.951 . S
H737 C756 0.951 . S
H738 C758 0.950 . S
H739 C759 0.950 . S
H740 C761 0.950 . S
H741 C764 0.950 . S
H742 C765 0.950 . S
H743 C767 0.950 . S
H744 C768 0.950 . S
H745 C769 0.951 . S
H746 C771 0.951 . S
H747 C773 0.950 . S
H748 C774 0.950 . S
H749 C776 0.950 1_455 S
H750 C779 0.950 . S
H751 C780 0.950 . S
H752 C782 0.950 . S
H753 C783 0.950 . S
C754 H736 0.951 . S
C754 C755 1.366 . S
C754 C756 1.388 . S
C755 C754 1.366 . S
C755 C759 1.385 . S
C756 H737 0.951 . S
C756 C754 1.388 . S
C756 C757 1.366 . S
C757 C756 1.366 . S
C757 C758 1.414 . S
C757 C760 1.499 . S
C758 H738 0.950 . S
C758 C757 1.414 . S
C758 C759 1.374 . S
C759 H739 0.950 . S
C759 C755 1.385 . S
C759 C758 1.374 . S
C760 C757 1.499 . S
C760 C761 1.373 . S
C760 C762 1.389 . S
C761 H740 0.950 . S
C761 C760 1.373 . S
C761 C777 1.377 . S
C762 C760 1.389 . S
C762 C763 1.524 1_655 S
C762 C776 1.377 . S
C763 C762 1.524 1_455 S
C763 C764 1.397 1_455 S
C763 C768 1.363 . S
C764 H741 0.950 . S
C764 C763 1.397 1_655 S
C764 C765 1.334 . S
C765 H742 0.950 . S
C765 C764 1.334 . S
C765 C766 1.287 1_655 S
C766 C765 1.287 1_455 S
C766 C767 1.524 . S
C766 H785 0.913 . S
C767 H743 0.950 . S
C767 C766 1.524 . S
C767 C768 1.415 . S
C768 H744 0.950 . S
C768 C763 1.363 . S
C768 C767 1.415 . S
C769 H745 0.951 . S
C769 C770 1.366 1_655 S
C769 C771 1.388 . S
C770 C769 1.366 1_455 S
C770 C774 1.385 . S
C771 H746 0.951 . S
C771 C769 1.388 . S
C771 C772 1.366 . S
C772 C771 1.366 . S
C772 C773 1.414 1_655 S
C772 C775 1.499 . S
C773 H747 0.950 . S
C773 C772 1.414 1_455 S
C773 C774 1.374 . S
C774 H748 0.950 . S
C774 C770 1.385 . S
C774 C773 1.374 . S
C775 C772 1.499 . S
C775 C776 1.373 . S
C775 C777 1.389 . S
C776 H749 0.950 1_655 S
C776 C762 1.377 . S
C776 C775 1.373 . S
C777 C761 1.377 . S
C777 C775 1.389 . S
C777 C778 1.524 . S
C778 C777 1.524 . S
C778 C779 1.397 . S
C778 C783 1.363 . S
C779 H750 0.950 . S
C779 C778 1.397 . S
C779 C780 1.334 . S
C780 H751 0.950 . S
C780 C779 1.334 . S
C780 C781 1.287 . S
C781 C780 1.287 . S
C781 C782 1.524 . S
C781 H784 0.999 . S
C782 H752 0.950 . S
C782 C781 1.524 . S
C782 C783 1.415 . S
C783 H753 0.950 . S
C783 C778 1.363 . S
C783 C782 1.415 . S
H784 C781 0.999 . S
H785 C766 0.913 . S
H786 C804 0.951 . S
H787 C806 0.951 . S
H788 C808 0.950 . S
H789 C809 0.950 . S
H790 C811 0.950 . S
H791 C814 0.950 . S
H792 C815 0.950 . S
H793 C817 0.950 . S
H794 C818 0.950 . S
H795 C819 0.951 . S
H796 C821 0.951 . S
H797 C823 0.950 . S
H798 C824 0.950 . S
H799 C826 0.950 1_455 S
H800 C829 0.950 . S
H801 C830 0.950 . S
H802 C832 0.950 . S
H803 C833 0.950 . S
C804 H786 0.951 . S
C804 C805 1.366 . S
C804 C806 1.388 . S
C805 C804 1.366 . S
C805 C809 1.385 . S
C806 H787 0.951 . S
C806 C804 1.388 . S
C806 C807 1.366 . S
C807 C806 1.366 . S
C807 C808 1.414 . S
C807 C810 1.499 . S
C808 H788 0.950 . S
C808 C807 1.414 . S
C808 C809 1.374 . S
C809 H789 0.950 . S
C809 C805 1.385 . S
C809 C808 1.374 . S
C810 C807 1.499 . S
C810 C811 1.373 . S
C810 C812 1.389 . S
C811 H790 0.950 . S
C811 C810 1.373 . S
C811 C827 1.377 . S
C812 C810 1.389 . S
C812 C813 1.524 1_655 S
C812 C826 1.377 . S
C813 C812 1.524 1_455 S
C813 C814 1.397 . S
C813 C818 1.363 . S
C814 H791 0.950 . S
C814 C813 1.397 . S
C814 C815 1.334 . S
C815 H792 0.950 . S
C815 C814 1.334 . S
C815 C816 1.287 . S
C816 C815 1.287 . S
C816 C817 1.524 . S
C816 H835 0.913 . S
C817 H793 0.950 . S
C817 C816 1.524 . S
C817 C818 1.415 . S
C818 H794 0.950 . S
C818 C813 1.363 . S
C818 C817 1.415 . S
C819 H795 0.951 . S
C819 C820 1.366 1_655 S
C819 C821 1.388 . S
C820 C819 1.366 1_455 S
C820 C824 1.385 . S
C821 H796 0.951 . S
C821 C819 1.388 . S
C821 C822 1.366 . S
C822 C821 1.366 . S
C822 C823 1.414 1_655 S
C822 C825 1.499 . S
C823 H797 0.950 . S
C823 C822 1.414 1_455 S
C823 C824 1.374 . S
C824 H798 0.950 . S
C824 C820 1.385 . S
C824 C823 1.374 . S
C825 C822 1.499 . S
C825 C826 1.373 . S
C825 C827 1.389 . S
C826 H799 0.950 1_655 S
C826 C812 1.377 . S
C826 C825 1.373 . S
C827 C811 1.377 . S
C827 C825 1.389 . S
C827 C828 1.524 . S
C828 C827 1.524 . S
C828 C829 1.397 . S
C828 C833 1.363 . S
C829 H800 0.950 . S
C829 C828 1.397 . S
C829 C830 1.334 . S
C830 H801 0.950 . S
C830 C829 1.334 . S
C830 C831 1.287 . S
C831 C830 1.287 . S
C831 C832 1.524 . S
C831 H834 0.999 . S
C832 H802 0.950 . S
C832 C831 1.524 . S
C832 C833 1.415 . S
C833 H803 0.950 . S
C833 C828 1.363 . S
C833 C832 1.415 . S
H834 C831 0.999 . S
H835 C816 0.913 . S
H836 C854 0.951 . S
H837 C856 0.951 . S
H838 C858 0.950 . S
H839 C859 0.950 . S
H840 C861 0.950 . S
H841 C864 0.950 . S
H842 C865 0.950 . S
H843 C867 0.950 . S
H844 C868 0.950 . S
H845 C869 0.951 . S
H846 C871 0.951 . S
H847 C873 0.950 . S
H848 C874 0.950 . S
H849 C876 0.950 . S
H850 C879 0.950 . S
H851 C880 0.950 . S
H852 C882 0.950 . S
H853 C883 0.950 . S
C854 H836 0.951 . S
C854 C855 1.366 . S
C854 C856 1.388 . S
C855 C854 1.366 . S
C855 C859 1.385 1_655 S
C856 H837 0.951 . S
C856 C854 1.388 . S
C856 C857 1.366 1_655 S
C857 C856 1.366 1_455 S
C857 C858 1.414 . S
C857 C860 1.499 . S
C858 H838 0.950 . S
C858 C857 1.414 . S
C858 C859 1.374 . S
C859 H839 0.950 . S
C859 C855 1.385 1_455 S
C859 C858 1.374 . S
C860 C857 1.499 . S
C860 C861 1.373 . S
C860 C862 1.389 . S
C861 H840 0.950 . S
C861 C860 1.373 . S
C861 C877 1.377 . S
C862 C860 1.389 . S
C862 C863 1.524 . S
C862 C876 1.377 . S
C863 C862 1.524 . S
C863 C864 1.397 . S
C863 C868 1.363 1_455 S
C864 H841 0.950 . S
C864 C863 1.397 . S
C864 C865 1.334 . S
C865 H842 0.950 . S
C865 C864 1.334 . S
C865 C866 1.287 . S
C866 C865 1.287 . S
C866 C867 1.524 1_455 S
C866 H885 0.913 . S
C867 H843 0.950 . S
C867 C866 1.524 1_655 S
C867 C868 1.415 . S
C868 H844 0.950 . S
C868 C863 1.363 1_655 S
C868 C867 1.415 . S
C869 H845 0.951 . S
C869 C870 1.366 . S
C869 C871 1.388 . S
C870 C869 1.366 . S
C870 C874 1.385 . S
C871 H846 0.951 . S
C871 C869 1.388 . S
C871 C872 1.366 . S
C872 C871 1.366 . S
C872 C873 1.414 . S
C872 C875 1.499 . S
C873 H847 0.950 . S
C873 C872 1.414 . S
C873 C874 1.374 . S
C874 H848 0.950 . S
C874 C870 1.385 . S
C874 C873 1.374 . S
C875 C872 1.499 . S
C875 C876 1.373 . S
C875 C877 1.389 . S
C876 H849 0.950 . S
C876 C862 1.377 . S
C876 C875 1.373 . S
C877 C861 1.377 . S
C877 C875 1.389 . S
C877 C878 1.524 . S
C878 C877 1.524 . S
C878 C879 1.397 . S
C878 C883 1.363 . S
C879 H850 0.950 . S
C879 C878 1.397 . S
C879 C880 1.334 . S
C880 H851 0.950 . S
C880 C879 1.334 . S
C880 C881 1.287 . S
C881 C880 1.287 . S
C881 C882 1.524 . S
C881 H884 0.999 . S
C882 H852 0.950 . S
C882 C881 1.524 . S
C882 C883 1.415 . S
C883 H853 0.950 . S
C883 C878 1.363 . S
C883 C882 1.415 . S
H884 C881 0.999 . S
H885 C866 0.913 . S
H886 C904 0.951 . S
H887 C906 0.951 . S
H888 C908 0.950 . S
H889 C909 0.950 . S
H890 C911 0.949 . S
H891 C914 0.950 . S
H892 C915 0.950 . S
H893 C917 0.950 . S
H894 C918 0.950 . S
H895 C919 0.951 . S
H896 C921 0.951 . S
H897 C923 0.950 . S
H898 C924 0.950 . S
H899 C926 0.950 . S
H900 C929 0.950 . S
H901 C930 0.950 . S
H902 C932 0.950 . S
H903 C933 0.950 . S
C904 H886 0.951 . S
C904 C905 1.366 . S
C904 C906 1.388 . S
C905 C904 1.366 . S
C905 C909 1.385 . S
C906 H887 0.951 . S
C906 C904 1.388 . S
C906 C907 1.366 . S
C907 C906 1.366 . S
C907 C908 1.414 . S
C907 C910 1.499 . S
C908 H888 0.950 . S
C908 C907 1.414 . S
C908 C909 1.374 . S
C909 H889 0.950 . S
C909 C905 1.385 . S
C909 C908 1.374 . S
C910 C907 1.499 . S
C910 C911 1.373 . S
C910 C912 1.389 . S
C911 H890 0.949 . S
C911 C910 1.373 . S
C911 C927 1.377 . S
C912 C910 1.389 . S
C912 C913 1.524 . S
C912 C926 1.377 . S
C913 C912 1.524 . S
C913 C914 1.397 . S
C913 C918 1.363 . S
C914 H891 0.950 . S
C914 C913 1.397 . S
C914 C915 1.334 . S
C915 H892 0.950 . S
C915 C914 1.334 . S
C915 C916 1.287 . S
C916 C915 1.287 . S
C916 C917 1.524 . S
C916 H935 0.913 . S
C917 H893 0.950 . S
C917 C916 1.524 . S
C917 C918 1.415 . S
C918 H894 0.950 . S
C918 C913 1.363 . S
C918 C917 1.415 . S
C919 H895 0.951 . S
C919 C920 1.366 . S
C919 C921 1.388 . S
C920 C919 1.366 . S
C920 C924 1.385 1_655 S
C921 H896 0.951 . S
C921 C919 1.388 . S
C921 C922 1.366 1_655 S
C922 C921 1.366 1_455 S
C922 C923 1.414 . S
C922 C925 1.499 . S
C923 H897 0.950 . S
C923 C922 1.414 . S
C923 C924 1.374 . S
C924 H898 0.950 . S
C924 C920 1.385 1_455 S
C924 C923 1.374 . S
C925 C922 1.499 . S
C925 C926 1.373 . S
C925 C927 1.389 . S
C926 H899 0.950 . S
C926 C912 1.377 . S
C926 C925 1.373 . S
C927 C911 1.377 . S
C927 C925 1.389 . S
C927 C928 1.524 1_455 S
C928 C927 1.524 1_655 S
C928 C929 1.397 . S
C928 C933 1.363 . S
C929 H900 0.950 . S
C929 C928 1.397 . S
C929 C930 1.334 . S
C930 H901 0.950 . S
C930 C929 1.334 . S
C930 C931 1.287 . S
C931 C930 1.287 . S
C931 C932 1.524 . S
C931 H934 0.999 . S
C932 H902 0.950 . S
C932 C931 1.524 . S
C932 C933 1.415 . S
C933 H903 0.950 . S
C933 C928 1.363 . S
C933 C932 1.415 . S
H934 C931 0.999 . S
H935 C916 0.913 . S
C355 C147 1.497 . S
C370 C74 1.497 . S
C405 C242 1.497 . S
C420 C315 1.497 . S
C455 C63 1.496 . S
C470 C158 1.496 . S
C505 C326 1.497 . S
C520 C231 1.497 . S
C555 C310 1.106 . S
C570 C56 1.109 . S
C605 C142 1.108 . S
C620 C224 1.110 . S
C655 C151 1.110 . S
C670 C238 1.107 . S
C705 C319 1.110 . S
C720 C70 1.108 . S
C755 C140 1.109 . S
C770 C226 1.107 . S
C805 C308 1.109 . S
C820 C58 1.107 . S
C855 C322 1.108 . S
C870 C67 1.110 . S
C905 C235 1.110 . S
C920 C154 1.107 . S
