# Generated by pormake.
# Topology zfd, (5)-cn, num edge types: 1
# Building blocks:
#     Node 0, Type 0, BuildingBlock: BEQFEK_clean_sbu_0, # of connection points: 5
#     Node 1, Type 0, BuildingBlock: BEQFEK_clean_sbu_0, # of connection points: 5
#     Node 2, Type 0, BuildingBlock: BEQFEK_clean_sbu_0, # of connection points: 5
#     Node 3, Type 0, BuildingBlock: BEQFEK_clean_sbu_0, # of connection points: 5
#     Node 4, Type 0, BuildingBlock: BEQFEK_clean_sbu_0, # of connection points: 5
#     Node 5, Type 0, BuildingBlock: BEQFEK_clean_sbu_0, # of connection points: 5
#     Node 6, Type 0, BuildingBlock: BEQFEK_clean_sbu_0, # of connection points: 5
#     Node 7, Type 0, BuildingBlock: BEQFEK_clean_sbu_0, # of connection points: 5
#     Node 8, Type 0, BuildingBlock: BEQFEK_clean_sbu_0, # of connection points: 5
#     Node 9, Type 0, BuildingBlock: BEQFEK_clean_sbu_0, # of connection points: 5
#     Node 10, Type 0, BuildingBlock: BEQFEK_clean_sbu_0, # of connection points: 5
#     Node 11, Type 0, BuildingBlock: BEQFEK_clean_sbu_0, # of connection points: 5
#     Node 12, Type 0, BuildingBlock: BEQFEK_clean_sbu_0, # of connection points: 5
#     Node 13, Type 0, BuildingBlock: BEQFEK_clean_sbu_0, # of connection points: 5
#     Node 14, Type 0, BuildingBlock: BEQFEK_clean_sbu_0, # of connection points: 5
#     Node 15, Type 0, BuildingBlock: BEQFEK_clean_sbu_0, # of connection points: 5
#     Edge 16, Type (0, 0), BuildingBlock: KIFKEQ_clean_linker_1, # of connection points: 2
#     Edge 17, Type (0, 0), BuildingBlock: KIFKEQ_clean_linker_1, # of connection points: 2
#     Edge 18, Type (0, 0), BuildingBlock: KIFKEQ_clean_linker_1, # of connection points: 2
#     Edge 19, Type (0, 0), BuildingBlock: KIFKEQ_clean_linker_1, # of connection points: 2
#     Edge 20, Type (0, 0), BuildingBlock: KIFKEQ_clean_linker_1, # of connection points: 2
#     Edge 21, Type (0, 0), BuildingBlock: KIFKEQ_clean_linker_1, # of connection points: 2
#     Edge 22, Type (0, 0), BuildingBlock: KIFKEQ_clean_linker_1, # of connection points: 2
#     Edge 23, Type (0, 0), BuildingBlock: KIFKEQ_clean_linker_1, # of connection points: 2
#     Edge 24, Type (0, 0), BuildingBlock: KIFKEQ_clean_linker_1, # of connection points: 2
#     Edge 25, Type (0, 0), BuildingBlock: KIFKEQ_clean_linker_1, # of connection points: 2
#     Edge 26, Type (0, 0), BuildingBlock: KIFKEQ_clean_linker_1, # of connection points: 2
#     Edge 27, Type (0, 0), BuildingBlock: KIFKEQ_clean_linker_1, # of connection points: 2
#     Edge 28, Type (0, 0), BuildingBlock: KIFKEQ_clean_linker_1, # of connection points: 2
#     Edge 29, Type (0, 0), BuildingBlock: KIFKEQ_clean_linker_1, # of connection points: 2
#     Edge 30, Type (0, 0), BuildingBlock: KIFKEQ_clean_linker_1, # of connection points: 2
#     Edge 31, Type (0, 0), BuildingBlock: KIFKEQ_clean_linker_1, # of connection points: 2
#     Edge 32, Type (0, 0), BuildingBlock: KIFKEQ_clean_linker_1, # of connection points: 2
#     Edge 33, Type (0, 0), BuildingBlock: KIFKEQ_clean_linker_1, # of connection points: 2
#     Edge 34, Type (0, 0), BuildingBlock: KIFKEQ_clean_linker_1, # of connection points: 2
#     Edge 35, Type (0, 0), BuildingBlock: KIFKEQ_clean_linker_1, # of connection points: 2
#     Edge 36, Type (0, 0), BuildingBlock: KIFKEQ_clean_linker_1, # of connection points: 2
#     Edge 37, Type (0, 0), BuildingBlock: KIFKEQ_clean_linker_1, # of connection points: 2
#     Edge 38, Type (0, 0), BuildingBlock: KIFKEQ_clean_linker_1, # of connection points: 2
#     Edge 39, Type (0, 0), BuildingBlock: KIFKEQ_clean_linker_1, # of connection points: 2
#     Edge 40, Type (0, 0), BuildingBlock: KIFKEQ_clean_linker_1, # of connection points: 2
#     Edge 41, Type (0, 0), BuildingBlock: KIFKEQ_clean_linker_1, # of connection points: 2
#     Edge 42, Type (0, 0), BuildingBlock: KIFKEQ_clean_linker_1, # of connection points: 2
#     Edge 43, Type (0, 0), BuildingBlock: KIFKEQ_clean_linker_1, # of connection points: 2
#     Edge 44, Type (0, 0), BuildingBlock: KIFKEQ_clean_linker_1, # of connection points: 2
#     Edge 45, Type (0, 0), BuildingBlock: KIFKEQ_clean_linker_1, # of connection points: 2
#     Edge 46, Type (0, 0), BuildingBlock: KIFKEQ_clean_linker_1, # of connection points: 2
#     Edge 47, Type (0, 0), BuildingBlock: KIFKEQ_clean_linker_1, # of connection points: 2
#     Edge 48, Type (0, 0), BuildingBlock: KIFKEQ_clean_linker_1, # of connection points: 2
#     Edge 49, Type (0, 0), BuildingBlock: KIFKEQ_clean_linker_1, # of connection points: 2
#     Edge 50, Type (0, 0), BuildingBlock: KIFKEQ_clean_linker_1, # of connection points: 2
#     Edge 51, Type (0, 0), BuildingBlock: KIFKEQ_clean_linker_1, # of connection points: 2
#     Edge 52, Type (0, 0), BuildingBlock: KIFKEQ_clean_linker_1, # of connection points: 2
#     Edge 53, Type (0, 0), BuildingBlock: KIFKEQ_clean_linker_1, # of connection points: 2
#     Edge 54, Type (0, 0), BuildingBlock: KIFKEQ_clean_linker_1, # of connection points: 2
#     Edge 55, Type (0, 0), BuildingBlock: KIFKEQ_clean_linker_1, # of connection points: 2
# Relax obj value: 0.178
# Max RMSD: 0.095
# Mean RMSD: 0.095
data_MOF--net-zfd--node1-BEQFEK_clean_sbu_0--edge1-KIFKEQ_clean_linker_1
_symmetry_space_group_name_H-M    P1
_symmetry_Int_Tables_number       1
_symmetry_cell_setting            triclinic
loop_
_symmetry_equiv_pos_as_xyz
'x, y, z'
_cell_length_a     63.600033
_cell_length_b     63.605148
_cell_length_c     23.249723
_cell_angle_alpha  90.020128
_cell_angle_beta   90.107009
_cell_angle_gamma 89.879782
loop_
_atom_site_label
_atom_site_type_symbol
_atom_site_fract_x
_atom_site_fract_y
_atom_site_fract_z
_atom_type_partial_charge
Co0 Co 0.15562 0.23505 0.98734 0.0
Co1 Co 0.13126 0.26587 0.06175 0.0
C2 C 0.15027 0.22852 0.11796 0.0
O3 O 0.15707 0.22417 0.06801 0.0
O4 O 0.13824 0.24443 0.12489 0.0
C5 C 0.14991 0.19473 0.9546 0.0
O6 O 0.13391 0.19795 0.98919 0.0
C7 C 0.09769 0.28783 0.12145 0.0
C8 C 0.10415 0.32099 0.09881 0.0
C9 C 0.08985 0.30806 0.12593 0.0
N10 N 0.11575 0.28865 0.09218 0.0
N11 N 0.11976 0.30852 0.07958 0.0
C12 C 0.08799 0.26792 0.14306 0.0
H13 H 0.09519 0.25406 0.12171 0.0
H14 H 0.07075 0.26792 0.13599 0.0
H15 H 0.09078 0.26675 0.19008 0.0
C16 C 0.11749 0.24077 0.90876 0.0
N17 N 0.12812 0.24379 0.95897 0.0
N18 N 0.11665 0.25558 0.99313 0.0
C19 C 0.09811 0.2599 0.96602 0.0
C20 C 0.09781 0.25055 0.91146 0.0
C21 C 0.12612 0.22927 0.8578 0.0
H22 H 0.14274 0.22476 0.86439 0.0
H23 H 0.11642 0.21514 0.84929 0.0
H24 H 0.12519 0.23936 0.81905 0.0
O25 O 0.17698 0.25832 0.98258 0.0
O26 O 0.15847 0.27912 0.0399 0.0
H27 H 0.08894 0.28949 1.00187 0.0
H28 H 0.06919 0.27769 0.95679 0.0
C29 C 0.08163 0.27441 0.98907 0.0
H30 H 0.07431 0.26714 1.02737 0.0
H31 H 0.13258 0.31348 0.05522 0.0
O32 O 0.16296 0.20953 0.94563 0.0
C33 C 0.17494 0.27556 1.01031 0.0
Co34 Co 0.81901 0.14952 1.00267 0.0
Co35 Co 0.78947 0.12642 0.07986 0.0
C36 C 0.82622 0.14614 0.13424 0.0
O37 O 0.82952 0.1525 0.08331 0.0
O38 O 0.81105 0.13344 0.14337 0.0
C39 C 0.86051 0.14636 0.9741 0.0
O40 O 0.85904 0.12907 1.00465 0.0
C41 C 0.76254 0.10331 0.15959 0.0
C42 C 0.73243 0.1033 0.11151 0.0
C43 C 0.74171 0.09709 0.16255 0.0
N44 N 0.76537 0.11318 0.10943 0.0
N45 N 0.74732 0.11333 0.08106 0.0
C46 C 0.77991 0.09845 0.20105 0.0
H47 H 0.79515 0.09743 0.17805 0.0
H48 H 0.77694 0.08345 0.22396 0.0
H49 H 0.78092 0.11129 0.23328 0.0
C50 C 0.81439 0.11027 0.92858 0.0
N51 N 0.81114 0.12159 0.97737 0.0
N52 N 0.79981 0.11044 1.01326 0.0
C53 C 0.79617 0.09127 0.98892 0.0
C54 C 0.80515 0.09041 0.93376 0.0
C55 C 0.82548 0.11844 0.87643 0.0
H56 H 0.83581 0.1318 0.88694 0.0
H57 H 0.83481 0.10575 0.85582 0.0
H58 H 0.81361 0.12408 0.84496 0.0
O59 O 0.79615 0.17073 0.99282 0.0
O60 O 0.77647 0.1538 0.05554 0.0
H61 H 0.77149 0.06837 0.98483 0.0
H62 H 0.79378 0.06093 1.02751 0.0
C63 C 0.78334 0.07427 1.01599 0.0
H64 H 0.7755 0.07979 0.05554 0.0
H65 H 0.74525 0.12007 0.04058 0.0
O66 O 0.84426 0.15744 0.96373 0.0
C67 C 0.77945 0.16954 1.02278 0.0
Co68 Co 0.91452 0.82054 0.9917 0.0
Co69 Co 0.93538 0.7938 0.08351 0.0
C70 C 0.9124 0.83333 0.1188 0.0
O71 O 0.90791 0.836 0.06573 0.0
O72 O 0.92426 0.81797 0.13399 0.0
C73 C 0.90695 0.85878 0.92896 0.0
O74 O 0.90925 0.86877 0.978 0.0
C75 C 0.96288 0.77428 0.1698 0.0
C76 C 0.96035 0.74088 0.14354 0.0
C77 C 0.97017 0.75421 0.18199 0.0
N78 N 0.94924 0.77281 0.12608 0.0
N79 N 0.94757 0.75282 0.11107 0.0
C80 C 0.97038 0.79467 0.19434 0.0
H81 H 0.96624 0.8079 0.16529 0.0
H82 H 0.98765 0.7942 0.2013 0.0
H83 H 0.9627 0.79731 0.23655 0.0
C84 C 0.95774 0.81611 0.93607 0.0
N85 N 0.94405 0.81318 0.98011 0.0
N86 N 0.95343 0.80198 1.02002 0.0
C87 C 0.97338 0.79751 1.00226 0.0
C88 C 0.97686 0.80627 0.94772 0.0
C89 C 0.95277 0.82817 0.88297 0.0
H90 H 0.94088 0.81922 0.85819 0.0
H91 H 0.94646 0.84372 0.89541 0.0
H92 H 0.96681 0.8307 0.85566 0.0
O93 O 0.8951 0.79564 0.98709 0.0
O94 O 0.91054 0.77767 0.05632 0.0
H95 H 0.9813 0.76796 0.04022 0.0
H96 H 1.00362 0.78224 1.01232 0.0
C97 C 0.98832 0.78378 0.03485 0.0
H98 H 0.99093 0.79048 0.0783 0.0
H99 H 0.93838 0.74741 0.07708 0.0
O100 O 0.90727 0.83883 0.92781 0.0
C101 C 0.89597 0.77947 1.01926 0.0
Co102 Co 0.23551 0.91515 1.00056 0.0
Co103 Co 0.26437 0.9382 0.08258 0.0
C104 C 0.22765 0.91678 0.13224 0.0
O105 O 0.22444 0.91065 0.08083 0.0
O106 O 0.24237 0.92992 0.14245 0.0
C107 C 0.19515 0.91995 0.96233 0.0
O108 O 0.19663 0.93611 0.99726 0.0
C109 C 0.28888 0.96284 0.16515 0.0
C110 C 0.31963 0.96433 0.12082 0.0
C111 C 0.30924 0.97035 0.17035 0.0
N112 N 0.28741 0.95249 0.11519 0.0
N113 N 0.30584 0.95328 0.08904 0.0
C114 C 0.2706 0.96695 0.20407 0.0
H115 H 0.25571 0.9668 0.17916 0.0
H116 H 0.27228 0.98231 0.22624 0.0
H117 H 0.26988 0.95435 0.23703 0.0
C118 C 0.24002 0.95557 0.9321 0.0
N119 N 0.24317 0.94361 0.97972 0.0
N120 N 0.25444 0.95427 1.0168 0.0
C121 C 0.25841 0.97362 0.99445 0.0
C122 C 0.24934 0.97536 0.93938 0.0
C123 C 0.23045 0.94731 0.8778 0.0
H124 H 0.23127 0.9299 0.87661 0.0
H125 H 0.21375 0.9522 0.87564 0.0
H126 H 0.23862 0.95387 0.83968 0.0
O127 O 0.25958 0.89504 0.9908 0.0
O128 O 0.27794 0.91129 0.05826 0.0
H129 H 0.28763 0.9881 1.01587 0.0
H130 H 0.26574 1.00612 1.01155 0.0
C131 C 0.27066 0.99016 1.02548 0.0
H132 H 0.26843 0.98859 0.07258 0.0
H133 H 0.3089 0.9465 0.0491 0.0
O134 O 0.21095 0.90796 0.95483 0.0
C135 C 0.27569 0.89599 1.02347 0.0
Co136 Co 0.1572 0.82436 0.5853 0.0
Co137 Co 0.1329 0.7972 0.50234 0.0
C138 C 0.1536 0.83442 0.45455 0.0
O139 O 0.16069 0.83656 0.50549 0.0
O140 O 0.14011 0.82005 0.44405 0.0
C141 C 0.1514 0.86366 0.62451 0.0
O142 O 0.13594 0.86142 0.58748 0.0
C143 C 0.10477 0.77422 0.42495 0.0
C144 C 0.10568 0.74264 0.46508 0.0
C145 C 0.09674 0.75405 0.42072 0.0
N146 N 0.11804 0.77465 0.46965 0.0
N147 N 0.11875 0.75572 0.49301 0.0
C148 C 0.09823 0.79328 0.39166 0.0
H149 H 0.10138 0.80776 0.41684 0.0
H150 H 0.08127 0.79253 0.38045 0.0
H151 H 0.1074 0.79397 0.35116 0.0
C152 C 0.1178 0.81875 0.65727 0.0
N153 N 0.12904 0.8164 0.60809 0.0
N154 N 0.11768 0.80617 0.57041 0.0
C155 C 0.09852 0.80216 0.59387 0.0
C156 C 0.0977 0.81 0.65053 0.0
C157 C 0.12705 0.8271 0.71191 0.0
H158 H 0.14444 0.8258 0.71115 0.0
H159 H 0.12271 0.84388 0.71674 0.0
H160 H 0.12082 0.81839 0.74956 0.0
O161 O 0.17727 0.8001 0.59143 0.0
O162 O 0.16006 0.78311 0.52303 0.0
H163 H 0.08303 0.77401 0.5675 0.0
H164 H 0.0656 0.7961 0.57862 0.0
C165 C 0.08123 0.79125 0.5621 0.0
H166 H 0.08216 0.79494 0.5156 0.0
H167 H 0.12766 0.75191 0.52928 0.0
O168 O 0.16423 0.84856 0.63268 0.0
C169 C 0.17573 0.78454 0.55698 0.0
Co170 Co 0.237 0.1565 0.57468 0.0
Co171 Co 0.26598 0.13234 0.49489 0.0
C172 C 0.22833 0.15245 0.44414 0.0
O173 O 0.22501 0.15925 0.49479 0.0
O174 O 0.24365 0.13985 0.43508 0.0
C175 C 0.19715 0.15154 0.61156 0.0
O176 O 0.19932 0.13603 0.5747 0.0
C177 C 0.28739 0.10123 0.42351 0.0
C178 C 0.31957 0.10241 0.4599 0.0
C179 C 0.30698 0.09167 0.42133 0.0
N180 N 0.2882 0.11655 0.46291 0.0
N181 N 0.30754 0.11749 0.48373 0.0
C182 C 0.26815 0.09604 0.38907 0.0
H183 H 0.25638 0.08829 0.41704 0.0
H184 H 0.27192 0.08562 0.35221 0.0
H185 H 0.26097 0.11074 0.37251 0.0
C186 C 0.24168 0.11707 0.64745 0.0
N187 N 0.245 0.12845 0.59886 0.0
N188 N 0.2563 0.11726 0.563 0.0
C189 C 0.26014 0.09814 0.58735 0.0
C190 C 0.25093 0.09715 0.64223 0.0
C191 C 0.23181 0.12589 0.70064 0.0
H192 H 0.23266 0.1433 0.70069 0.0
H193 H 0.21511 0.12107 0.70237 0.0
H194 H 0.23977 0.11964 0.7396 0.0
O195 O 0.26113 0.17693 0.58002 0.0
O196 O 0.27988 0.15953 0.51538 0.0
H197 H 0.28925 0.0845 0.56073 0.0
H198 H 0.2692 0.06547 0.57849 0.0
C199 C 0.2722 0.08097 0.55829 0.0
H200 H 0.26763 0.08012 0.51245 0.0
H201 H 0.31227 0.12779 0.5161 0.0
O202 O 0.2125 0.16395 0.62056 0.0
C203 C 0.27735 0.17546 0.5479 0.0
Co204 Co 0.91387 0.24028 0.56918 0.0
Co205 Co 0.93664 0.26234 0.47249 0.0
C206 C 0.91222 0.22385 0.44386 0.0
O207 O 0.9067 0.22342 0.49673 0.0
O208 O 0.92562 0.23745 0.42683 0.0
C209 C 0.91023 0.20369 0.63698 0.0
O210 O 0.91727 0.19411 0.5908 0.0
C211 C 0.95569 0.28175 0.37064 0.0
C212 C 0.97058 0.30956 0.41071 0.0
C213 C 0.96765 0.29946 0.35857 0.0
N214 N 0.95215 0.28131 0.42745 0.0
N215 N 0.96071 0.29816 0.45099 0.0
C216 C 0.9461 0.26655 0.32907 0.0
H217 H 0.9297 0.26307 0.34202 0.0
H218 H 0.95512 0.2516 0.33006 0.0
H219 H 0.94597 0.27294 0.28467 0.0
C220 C 0.95614 0.24534 0.62786 0.0
N221 N 0.94328 0.24698 0.58152 0.0
N222 N 0.95396 0.25481 0.53853 0.0
C223 C 0.97436 0.25728 0.55565 0.0
C224 C 0.97661 0.25122 0.61354 0.0
C225 C 0.94841 0.24138 0.68721 0.0
H226 H 0.93206 0.24726 0.69107 0.0
H227 H 0.94913 0.22426 0.69556 0.0
H228 H 0.95829 0.24951 0.71968 0.0
O229 O 0.89585 0.26583 0.56838 0.0
O230 O 0.91126 0.27992 0.49266 0.0
H231 H 0.99373 0.28191 0.52319 0.0
H232 H 1.0066 0.25681 0.52804 0.0
C233 C 0.99156 0.26475 0.51707 0.0
H234 H 0.98753 0.2617 0.47138 0.0
H235 H 0.95987 0.30179 0.49456 0.0
O236 O 0.90609 0.22321 0.63518 0.0
C237 C 0.8967 0.28013 0.53022 0.0
Co238 Co 0.82054 0.91374 0.55654 0.0
Co239 Co 0.79267 0.93738 0.47572 0.0
C240 C 0.82916 0.91598 0.42547 0.0
O241 O 0.83144 0.9095 0.47672 0.0
O242 O 0.815 0.92973 0.41488 0.0
C243 C 0.86156 0.91633 0.58681 0.0
O244 O 0.86016 0.93333 0.55498 0.0
C245 C 0.77005 0.96913 0.40902 0.0
C246 C 0.73729 0.96283 0.43617 0.0
C247 C 0.74956 0.97651 0.40464 0.0
N248 N 0.76992 0.95218 0.44312 0.0
N249 N 0.7503 0.94827 0.45845 0.0
C250 C 0.78937 0.97755 0.38048 0.0
H251 H 0.79767 0.98837 0.41014 0.0
H252 H 0.78527 0.98623 0.34059 0.0
H253 H 0.80029 0.96451 0.36997 0.0
C254 C 0.81625 0.95314 0.6297 0.0
N255 N 0.81343 0.94195 0.58045 0.0
N256 N 0.80207 0.95303 0.5443 0.0
C257 C 0.79754 0.97189 0.56952 0.0
C258 C 0.80649 0.97278 0.6248 0.0
C259 C 0.82692 0.94486 0.68255 0.0
H260 H 0.83787 0.93195 0.67249 0.0
H261 H 0.83553 0.95764 0.70496 0.0
H262 H 0.81483 0.93861 0.7123 0.0
O263 O 0.79663 0.8939 0.56627 0.0
O264 O 0.77883 0.91017 0.49769 0.0
H265 H 0.77864 1.00019 0.57609 0.0
H266 H 0.79021 0.99525 0.50665 0.0
C267 C 0.78278 0.9878 0.54451 0.0
H268 H 0.76814 0.97995 0.53032 0.0
H269 H 0.74587 0.93617 0.48608 0.0
O270 O 0.84529 0.90537 0.5973 0.0
C271 C 0.7808 0.89488 0.53268 0.0
Co272 Co 0.64935 0.74216 0.48405 0.0
Co273 Co 0.62839 0.76743 0.57839 0.0
C274 C 0.65085 0.72849 0.61267 0.0
O275 O 0.65591 0.72694 0.5596 0.0
O276 O 0.63821 0.74305 0.62877 0.0
C277 C 0.65241 0.70267 0.42602 0.0
O278 O 0.64789 0.69426 0.47605 0.0
C279 C 0.6048 0.78986 0.66831 0.0
C280 C 0.60467 0.82187 0.63075 0.0
C281 C 0.59796 0.8103 0.67747 0.0
N282 N 0.61536 0.78947 0.6186 0.0
N283 N 0.61545 0.80866 0.59671 0.0
C284 C 0.59964 0.77068 0.7027 0.0
H285 H 0.60164 0.7563 0.67624 0.0
H286 H 0.58327 0.77156 0.71906 0.0
H287 H 0.61043 0.76976 0.74018 0.0
C288 C 0.60733 0.74951 0.42587 0.0
N289 N 0.62037 0.75066 0.47191 0.0
N290 N 0.61044 0.76008 0.51396 0.0
C291 C 0.59043 0.76445 0.49639 0.0
C292 C 0.58754 0.75757 0.43939 0.0
C293 C 0.61445 0.7439 0.36695 0.0
H294 H 0.63152 0.74697 0.36275 0.0
H295 H 0.61083 0.72709 0.35956 0.0
H296 H 0.60593 0.75328 0.33401 0.0
O297 O 0.66896 0.76659 0.47865 0.0
O298 O 0.65452 0.78217 0.55358 0.0
H299 H 0.57647 0.79253 0.5289 0.0
H300 H 0.55829 0.77106 0.51963 0.0
C301 C 0.57449 0.77527 0.53316 0.0
H302 H 0.57691 0.77099 0.57895 0.0
H303 H 0.62243 0.8126 0.55764 0.0
O304 O 0.65521 0.72238 0.42185 0.0
C305 C 0.66883 0.78138 0.51554 0.0
Co306 Co 0.32208 0.64583 0.50415 0.0
Co307 Co 0.29477 0.62422 0.59228 0.0
C308 C 0.33276 0.64621 0.63483 0.0
O309 O 0.33544 0.65164 0.58244 0.0
O310 O 0.31794 0.63346 0.64766 0.0
C311 C 0.3619 0.64355 0.45581 0.0
O312 O 0.36608 0.63358 0.50395 0.0
C313 C 0.27135 0.60063 0.6794 0.0
C314 C 0.24011 0.59879 0.63739 0.0
C315 C 0.25104 0.59319 0.6865 0.0
N316 N 0.27226 0.61053 0.6287 0.0
N317 N 0.25354 0.60956 0.60399 0.0
C318 C 0.29005 0.59675 0.7171 0.0
H319 H 0.30473 0.59736 0.69144 0.0
H320 H 0.28888 0.58125 0.73874 0.0
H321 H 0.29076 0.60916 0.7506 0.0
C322 C 0.3167 0.60444 0.44203 0.0
N323 N 0.31401 0.61713 0.48829 0.0
N324 N 0.30365 0.60687 0.52788 0.0
C325 C 0.3001 0.58693 0.50862 0.0
C326 C 0.30849 0.58447 0.45297 0.0
C327 C 0.32446 0.61205 0.38525 0.0
H328 H 0.32122 0.6291 0.38064 0.0
H329 H 0.3416 0.60909 0.38274 0.0
H330 H 0.31669 0.60354 0.34937 0.0
O331 O 0.29799 0.66591 0.49619 0.0
O332 O 0.28068 0.65092 0.5674 0.0
H333 H 0.27179 0.57168 0.5341 0.0
H334 H 0.29441 0.55458 0.53114 0.0
C335 C 0.2889 0.57057 0.54296 0.0
H336 H 0.29147 0.57327 0.58959 0.0
H337 H 0.25006 0.61593 0.56379 0.0
O338 O 0.34386 0.6517 0.44791 0.0
C339 C 0.2825 0.66571 0.53088 0.0
Co340 Co 0.41075 0.32662 0.49059 0.0
Co341 Co 0.43421 0.29774 0.57146 0.0
C342 C 0.41393 0.33463 0.62236 0.0
O343 O 0.40721 0.33765 0.57142 0.0
O344 O 0.42713 0.31987 0.63185 0.0
C345 C 0.41684 0.36674 0.45643 0.0
O346 O 0.43247 0.36385 0.49257 0.0
C347 C 0.45964 0.27325 0.65197 0.0
C348 C 0.46026 0.2422 0.60883 0.0
C349 C 0.46702 0.25284 0.65727 0.0
N350 N 0.44862 0.27454 0.60305 0.0
N351 N 0.44888 0.25595 0.57758 0.0
C352 C 0.46441 0.29169 0.68979 0.0
H353 H 0.46448 0.30638 0.66409 0.0
H354 H 0.47984 0.28976 0.7115 0.0
H355 H 0.45201 0.29304 0.72313 0.0
C356 C 0.45077 0.32105 0.41938 0.0
N357 N 0.43893 0.31827 0.46745 0.0
N358 N 0.44992 0.30752 0.50511 0.0
C359 C 0.4694 0.30385 0.4831 0.0
C360 C 0.47076 0.31229 0.42743 0.0
C361 C 0.44307 0.33142 0.36554 0.0
H362 H 0.42627 0.33577 0.36881 0.0
H363 H 0.45272 0.34554 0.35663 0.0
H364 H 0.44502 0.32058 0.32856 0.0
O365 O 0.39 0.30307 0.4824 0.0
O366 O 0.40663 0.28473 0.54938 0.0
H367 H 0.48201 0.27414 0.50797 0.0
H368 H 0.50165 0.29388 0.49467 0.0
C369 C 0.48583 0.29105 0.51304 0.0
H370 H 0.48586 0.29475 0.55968 0.0
H371 H 0.44153 0.25274 0.53845 0.0
O372 O 0.40401 0.3518 0.44675 0.0
C373 C 0.39097 0.28714 0.51573 0.0
Co374 Co 0.73936 0.40728 0.47843 0.0
Co375 Co 0.76739 0.43129 0.56005 0.0
C376 C 0.7307 0.41023 0.61006 0.0
O377 O 0.72803 0.40338 0.55906 0.0
O378 O 0.74517 0.42368 0.6199 0.0
C379 C 0.69949 0.41316 0.44242 0.0
O380 O 0.70202 0.42856 0.47943 0.0
C381 C 0.79302 0.45545 0.64151 0.0
C382 C 0.82297 0.45726 0.59332 0.0
C383 C 0.81349 0.46279 0.64458 0.0
N384 N 0.79063 0.44563 0.59103 0.0
N385 N 0.80859 0.44661 0.56259 0.0
C386 C 0.7755 0.45913 0.68324 0.0
H387 H 0.76016 0.45927 0.66044 0.0
H388 H 0.77762 0.47424 0.7064 0.0
H389 H 0.77536 0.44619 0.71522 0.0
C390 C 0.74428 0.44708 0.40744 0.0
N391 N 0.74707 0.4356 0.45608 0.0
N392 N 0.75766 0.44679 0.49341 0.0
C393 C 0.7615 0.46604 0.47035 0.0
C394 C 0.75312 0.46715 0.41428 0.0
C395 C 0.73553 0.43808 0.35297 0.0
H396 H 0.73671 0.42067 0.35332 0.0
H397 H 0.71876 0.44255 0.3489 0.0
H398 H 0.74405 0.44437 0.31511 0.0
O399 O 0.76358 0.3872 0.46956 0.0
O400 O 0.78113 0.40434 0.5369 0.0
H401 H 0.78996 0.48183 0.49253 0.0
H402 H 0.76725 0.4988 0.48801 0.0
C403 C 0.7729 0.48307 0.50185 0.0
H404 H 0.77063 0.48131 0.5489 0.0
H405 H 0.81093 0.44017 0.52184 0.0
O406 O 0.71461 0.40048 0.43284 0.0
C407 C 0.7795 0.38877 0.50277 0.0
Co408 Co 0.65257 0.32751 0.06692 0.0
Co409 Co 0.62834 0.29903 0.98624 0.0
C410 C 0.65044 0.33557 0.93577 0.0
O411 O 0.65676 0.33885 0.98694 0.0
O412 O 0.63724 0.32085 0.92618 0.0
C413 C 0.64779 0.36752 0.10451 0.0
O414 O 0.63194 0.36568 0.06856 0.0
C415 C 0.59795 0.27766 0.912 0.0
C416 C 0.59853 0.24566 0.94945 0.0
C417 C 0.58849 0.25807 0.90904 0.0
N418 N 0.61258 0.27699 0.95343 0.0
N419 N 0.61314 0.25776 0.97494 0.0
C420 C 0.5933 0.29675 0.87641 0.0
H421 H 0.5848 0.30853 0.90283 0.0
H422 H 0.58371 0.29277 0.83802 0.0
H423 H 0.60823 0.30401 0.86217 0.0
C424 C 0.61271 0.32317 0.13814 0.0
N425 N 0.62411 0.32015 0.08944 0.0
N426 N 0.61283 0.3094 0.05259 0.0
C427 C 0.59359 0.30573 0.07615 0.0
C428 C 0.59261 0.31435 0.13188 0.0
C429 C 0.62179 0.33203 0.19236 0.0
H430 H 0.63919 0.3309 0.19195 0.0
H431 H 0.61723 0.34877 0.19623 0.0
H432 H 0.61556 0.32356 0.23041 0.0
O433 O 0.67241 0.30308 0.07471 0.0
O434 O 0.65449 0.28409 1.01167 0.0
H435 H 0.57887 0.27709 0.0503 0.0
H436 H 0.56072 0.2985 0.06325 0.0
C437 C 0.57636 0.29427 0.04562 0.0
H438 H 0.57662 0.2982 0.99932 0.0
H439 H 0.62291 0.25313 1.00871 0.0
O440 O 0.66005 0.35195 0.1128 0.0
C441 C 0.67027 0.28633 0.04499 0.0
Co442 Co 0.74339 0.64711 0.04941 0.0
Co443 Co 0.77175 0.62382 0.96854 0.0
C444 C 0.73442 0.64567 0.91921 0.0
O445 O 0.73138 0.65148 0.9708 0.0
O446 O 0.74944 0.63286 0.90841 0.0
C447 C 0.70337 0.64375 0.08871 0.0
O448 O 0.70396 0.62685 0.05631 0.0
C449 C 0.79246 0.59187 0.89874 0.0
C450 C 0.82553 0.59562 0.92693 0.0
C451 C 0.81241 0.58322 0.89387 0.0
N452 N 0.79367 0.6083 0.93452 0.0
N453 N 0.81349 0.61071 0.9505 0.0
C454 C 0.77262 0.58505 0.86939 0.0
H455 H 0.76314 0.57531 0.89908 0.0
H456 H 0.77611 0.57579 0.83007 0.0
H457 H 0.76306 0.59899 0.85763 0.0
C458 C 0.74731 0.60728 0.12009 0.0
N459 N 0.75064 0.6188 0.07177 0.0
N460 N 0.7619 0.60778 0.0354 0.0
C461 C 0.76575 0.58857 0.05941 0.0
C462 C 0.75652 0.58744 0.11414 0.0
C463 C 0.73559 0.61521 0.17153 0.0
H464 H 0.73708 0.63253 0.17501 0.0
H465 H 0.71874 0.61113 0.16684 0.0
H466 H 0.74139 0.60783 0.21171 0.0
O467 O 0.76741 0.66709 0.05757 0.0
O468 O 0.78674 0.65006 0.99369 0.0
H469 H 0.79513 0.57928 1.02258 0.0
H470 H 0.78229 0.5588 0.06304 0.0
C471 C 0.77973 0.57222 0.03336 0.0
H472 H 0.77249 0.56631 0.99316 0.0
H473 H 0.81865 0.62207 0.97955 0.0
O474 O 0.71965 0.65511 0.09481 0.0
C475 C 0.78414 0.66557 1.02771 0.0
Co476 Co 0.40773 0.74355 0.07925 0.0
Co477 Co 0.43059 0.76949 0.99092 0.0
C478 C 0.40949 0.73062 0.95057 0.0
O479 O 0.4031 0.72884 1.00235 0.0
O480 O 0.42239 0.74527 0.93773 0.0
C481 C 0.41126 0.70521 0.13057 0.0
O482 O 0.4229 0.7022 0.08469 0.0
C483 C 0.46192 0.78821 0.9161 0.0
C484 C 0.45905 0.82176 0.94045 0.0
C485 C 0.47112 0.80779 0.90898 0.0
N486 N 0.44564 0.79045 0.95191 0.0
N487 N 0.44367 0.81055 0.96533 0.0
C488 C 0.46812 0.76769 0.88931 0.0
H489 H 0.47669 0.75793 0.92118 0.0
H490 H 0.47818 0.77013 0.85096 0.0
H491 H 0.45385 0.75889 0.87635 0.0
C492 C 0.44772 0.75082 0.14755 0.0
N493 N 0.43606 0.75216 0.09865 0.0
N494 N 0.44691 0.76211 0.05934 0.0
C495 C 0.4662 0.76679 0.08179 0.0
C496 C 0.46748 0.75973 0.13887 0.0
C497 C 0.43997 0.74153 0.20248 0.0
H498 H 0.42285 0.74438 0.20674 0.0
H499 H 0.4432 0.72442 0.20191 0.0
H500 H 0.44809 0.7482 0.24044 0.0
O501 O 0.38777 0.76784 0.08209 0.0
O502 O 0.40379 0.78443 1.01102 0.0
H503 H 0.47593 0.7949 0.03928 0.0
H504 H 0.49667 0.78188 0.07869 0.0
C505 C 0.48257 0.77939 0.05134 0.0
H506 H 0.48731 0.77114 1.01148 0.0
H507 H 0.43255 0.81645 0.99407 0.0
O508 O 0.40114 0.72234 0.13624 0.0
C509 C 0.38859 0.78305 0.04643 0.0
Co510 Co 0.32831 0.40569 0.08184 0.0
Co511 Co 0.29949 0.43049 1.00289 0.0
C512 C 0.33671 0.41028 0.95129 0.0
O513 O 0.33973 0.40313 1.00169 0.0
O514 O 0.32185 0.42345 0.94262 0.0
C515 C 0.36808 0.41154 0.11744 0.0
O516 O 0.36507 0.42727 0.08175 0.0
C517 C 0.27778 0.46265 0.9357 0.0
C518 C 0.24511 0.45876 0.9667 0.0
C519 C 0.25778 0.47131 0.93284 0.0
N520 N 0.27708 0.44611 0.97119 0.0
N521 N 0.25748 0.4436 0.98879 0.0
C522 C 0.2972 0.46957 0.90465 0.0
H523 H 0.30737 0.47871 0.93419 0.0
H524 H 0.29323 0.47939 0.8667 0.0
H525 H 0.30628 0.45564 0.89026 0.0
C526 C 0.32216 0.44425 0.15804 0.0
N527 N 0.31976 0.43351 0.10786 0.0
N528 N 0.30889 0.44511 0.07183 0.0
C529 C 0.3045 0.46385 0.09761 0.0
C530 C 0.31281 0.46411 0.15348 0.0
C531 C 0.33293 0.4356 0.21021 0.0
H532 H 0.33498 0.41835 0.2068 0.0
H533 H 0.34848 0.44323 0.21503 0.0
H534 H 0.32373 0.4392 0.24945 0.0
O535 O 0.30465 0.38491 0.08605 0.0
O536 O 0.28571 0.40331 1.02375 0.0
H537 H 0.28921 0.49433 0.10044 0.0
H538 H 0.29766 0.48566 1.03022 0.0
C539 C 0.29085 0.48052 0.07165 0.0
H540 H 0.27502 0.47398 0.06313 0.0
H541 H 0.25273 0.43212 1.01795 0.0
O542 O 0.35328 0.39848 0.12626 0.0
C543 C 0.28819 0.38702 0.05499 0.0
H544 H 0.21719 0.27111 0.98362 0.0
H545 H 0.17153 0.31645 0.04321 0.0
H546 H 0.24513 0.29742 0.99616 0.0
H547 H 0.19908 0.34228 0.05603 0.0
H548 H 0.24866 0.39057 1.01105 0.0
H549 H 0.22248 0.36338 0.99718 0.0
H550 H 0.26397 0.31783 0.07552 0.0
H551 H 0.29064 0.34534 0.08916 0.0
C552 C 0.21306 0.28668 0.99875 0.0
C553 C 0.19203 0.29162 1.01211 0.0
C554 C 0.22909 0.30168 1.0066 0.0
C555 C 0.22439 0.322 1.02722 0.0
C556 C 0.20333 0.32691 0.03956 0.0
C557 C 0.18746 0.31199 1.03226 0.0
C558 C 0.2523 0.37482 1.02576 0.0
C559 C 0.27183 0.37025 0.05155 0.0
C560 C 0.23718 0.35918 1.01783 0.0
C561 C 0.24105 0.33836 0.03517 0.0
C562 C 0.26055 0.33366 0.06115 0.0
C563 C 0.27574 0.34947 0.06959 0.0
H564 H 0.71187 0.28833 0.07955 0.0
H565 H 0.66547 0.24567 1.0107 0.0
H566 H 0.73862 0.26051 0.07239 0.0
H567 H 0.69195 0.21818 1.00373 0.0
H568 H 0.73897 0.16762 0.06064 0.0
H569 H 0.71334 0.19592 0.06847 0.0
H570 H 0.7579 0.23928 0.99484 0.0
H571 H 0.78381 0.21072 0.98684 0.0
C572 C 0.70731 0.27302 0.06351 0.0
C573 C 0.68646 0.26928 0.04591 0.0
C574 C 0.72269 0.25714 0.05881 0.0
C575 C 0.71747 0.23709 0.03732 0.0
C576 C 0.69654 0.23333 1.02085 0.0
C577 C 0.68132 0.24918 1.02479 0.0
C578 C 0.74335 0.18313 0.0457 0.0
C579 C 0.76351 0.18681 1.02287 0.0
C580 C 0.72859 0.19939 0.05015 0.0
C581 C 0.73353 0.21993 1.03248 0.0
C582 C 0.75365 0.22369 1.0094 0.0
C583 C 0.76842 0.20728 1.00424 0.0
H584 H 0.82505 0.66252 0.99346 0.0
H585 H 0.78039 0.70668 0.06427 0.0
H586 H 0.85154 0.6901 0.98934 0.0
H587 H 0.80707 0.73449 0.05953 0.0
H588 H 0.85535 0.78209 0.97767 0.0
H589 H 0.82798 0.75489 0.98154 0.0
H590 H 0.87223 0.71199 0.05961 0.0
H591 H 0.89931 0.73897 0.05638 0.0
C592 C 0.82088 0.6781 1.00845 0.0
C593 C 0.80055 0.6823 1.02944 0.0
C594 C 0.83612 0.69393 1.00611 0.0
C595 C 0.83143 0.71454 1.02385 0.0
C596 C 0.81113 0.71882 0.04501 0.0
C597 C 0.79591 0.70284 0.04826 0.0
C598 C 0.85925 0.76679 0.99515 0.0
C599 C 0.87958 0.76274 1.01652 0.0
C600 C 0.84352 0.75128 0.9979 0.0
C601 C 0.84789 0.73127 1.02105 0.0
C602 C 0.86834 0.72716 0.04123 0.0
C603 C 0.88388 0.74269 0.0394 0.0
H604 H 0.35846 0.79257 0.12762 0.0
H605 H 0.37958 0.80962 0.95749 0.0
H606 H 0.33049 0.8191 0.12086 0.0
H607 H 0.35152 0.83572 0.95059 0.0
H608 H 0.28394 0.86529 0.94203 0.0
H609 H 0.31061 0.83729 0.94726 0.0
H610 H 0.32978 0.85959 0.11452 0.0
H611 H 0.30368 0.88755 0.10913 0.0
C612 C 0.35711 0.80188 0.08878 0.0
C613 C 0.37138 0.79899 0.04331 0.0
C614 C 0.34111 0.81709 0.08491 0.0
C615 C 0.33873 0.82946 0.03502 0.0
C616 C 0.35278 0.82633 0.9893 0.0
C617 C 0.36898 0.81145 0.99357 0.0
C618 C 0.29386 0.8642 0.97981 0.0
C619 C 0.29167 0.87877 1.02495 0.0
C620 C 0.30915 0.84821 0.9828 0.0
C621 C 0.32223 0.84616 1.03152 0.0
C622 C 0.31984 0.86058 0.07673 0.0
C623 C 0.30493 0.87673 0.0733 0.0
H624 H 0.20596 0.77376 0.63755 0.0
H625 H 0.18317 0.75763 0.46812 0.0
H626 H 0.23231 0.74553 0.63053 0.0
H627 H 0.20952 0.72992 0.46098 0.0
H628 H 0.27474 0.69641 0.44935 0.0
H629 H 0.24981 0.72586 0.4559 0.0
H630 H 0.23103 0.70496 0.6246 0.0
H631 H 0.25546 0.67551 0.61791 0.0
C632 C 0.20664 0.76434 0.59878 0.0
C633 C 0.19235 0.76797 0.5536 0.0
C634 C 0.22167 0.74813 0.59479 0.0
C635 C 0.22306 0.73551 0.54504 0.0
C636 C 0.20904 0.73944 0.49959 0.0
C637 C 0.19381 0.75529 0.50399 0.0
C638 C 0.26524 0.69807 0.4877 0.0
C639 C 0.2671 0.68347 0.53288 0.0
C640 C 0.25096 0.71492 0.49148 0.0
C641 C 0.23853 0.71784 0.54101 0.0
C642 C 0.24052 0.70334 0.58621 0.0
C643 C 0.25444 0.68632 0.58201 0.0
H644 H 0.3599 0.2783 0.43573 0.0
H645 H 0.38199 0.26091 0.60493 0.0
H646 H 0.33154 0.25225 0.44399 0.0
H647 H 0.35359 0.23544 0.6134 0.0
H648 H 0.28606 0.20692 0.62683 0.0
H649 H 0.31262 0.23482 0.6187 0.0
H650 H 0.33036 0.21139 0.45157 0.0
H651 H 0.3044 0.18345 0.45995 0.0
C652 C 0.35868 0.26905 0.47468 0.0
C653 C 0.37337 0.27166 0.5194 0.0
C654 C 0.34246 0.25412 0.47942 0.0
C655 C 0.34024 0.24184 0.52955 0.0
C656 C 0.35469 0.24476 0.57453 0.0
C657 C 0.37111 0.25928 0.56933 0.0
C658 C 0.29562 0.20775 0.58841 0.0
C659 C 0.29312 0.19281 0.5443 0.0
C660 C 0.31085 0.2237 0.58375 0.0
C661 C 0.32354 0.2254 0.53427 0.0
C662 C 0.32074 0.21069 0.48991 0.0
C663 C 0.30592 0.19455 0.49507 0.0
H664 H 0.80817 0.38246 0.58802 0.0
H665 H 0.78911 0.35782 0.42283 0.0
H666 H 0.83596 0.35628 0.59391 0.0
H667 H 0.81746 0.33151 0.42869 0.0
H668 H 0.88711 0.30579 0.43908 0.0
H669 H 0.8583 0.33113 0.43068 0.0
H670 H 0.83889 0.31661 0.60383 0.0
H671 H 0.86752 0.29103 0.61217 0.0
C672 C 0.8099 0.37147 0.55273 0.0
C673 C 0.7963 0.37233 0.50482 0.0
C674 C 0.82583 0.35634 0.55641 0.0
C675 C 0.82893 0.34174 0.51194 0.0
C676 C 0.81552 0.34261 0.46361 0.0
C677 C 0.79922 0.35761 0.46034 0.0
C678 C 0.87677 0.30803 0.47555 0.0
C679 C 0.87976 0.29638 0.52649 0.0
C680 C 0.86012 0.32243 0.47043 0.0
C681 C 0.84623 0.32585 0.51644 0.0
C682 C 0.84935 0.31441 0.56762 0.0
C683 C 0.86578 0.29974 0.57241 0.0
H684 H 0.75218 0.88686 0.44798 0.0
H685 H 0.77313 0.86403 0.61345 0.0
H686 H 0.72614 0.85887 0.44322 0.0
H687 H 0.74664 0.83605 0.60884 0.0
H688 H 0.67861 0.80783 0.60398 0.0
H689 H 0.70622 0.83427 0.60861 0.0
H690 H 0.72518 0.8185 0.43581 0.0
H691 H 0.69758 0.79161 0.43122 0.0
C692 C 0.75122 0.87591 0.48354 0.0
C693 C 0.76479 0.87778 0.53126 0.0
C694 C 0.73636 0.85974 0.48048 0.0
C695 C 0.73436 0.84517 0.52547 0.0
C696 C 0.74777 0.84708 0.57351 0.0
C697 C 0.76296 0.86307 0.57613 0.0
C698 C 0.68864 0.80991 0.56681 0.0
C699 C 0.68578 0.79756 0.51705 0.0
C700 C 0.70459 0.825 0.56976 0.0
C701 C 0.71794 0.82846 0.52273 0.0
C702 C 0.71508 0.81624 0.47275 0.0
C703 C 0.69931 0.80081 0.47013 0.0
H704 H 0.98341 0.27283 0.27709 0.0
H705 H 0.97872 0.33856 0.32289 0.0
H706 H 1.00854 0.28133 0.20332 0.0
H707 H 1.00495 0.347 0.24961 0.0
H708 H 0.07886 0.33207 0.21733 0.0
H709 H 0.04347 0.33566 0.25743 0.0
H710 H 1.01814 0.30109 0.11306 0.0
H711 H 0.05356 0.29747 0.07358 0.0
C712 C 0.98683 0.28924 0.26952 0.0
C713 C 0.9788 0.30506 0.30535 0.0
C714 C 1.00145 0.29412 0.22727 0.0
C715 C 1.00866 0.31483 0.22089 0.0
C716 C 0.99959 0.33092 0.25386 0.0
C717 C 0.98467 0.32606 0.29569 0.0
C718 C 0.06557 0.32584 0.19364 0.0
C719 C 0.06867 0.31402 0.14366 0.0
C720 C 0.04536 0.32804 0.21607 0.0
C721 C 1.02818 0.31843 0.18845 0.0
C722 C 1.03118 0.30845 0.13528 0.0
C723 C 0.05135 0.30626 0.11302 0.0
H724 H 0.71312 0.98337 0.34628 0.0
H725 H 0.76874 1.0145 0.40999 0.0
H726 H 0.70206 1.01599 0.29897 0.0
H727 H 0.75852 0.04645 0.36099 0.0
H728 H 0.74147 0.10281 0.27814 0.0
H729 H 0.73514 0.07551 0.3499 0.0
H730 H 0.71595 0.03293 0.21455 0.0
H731 H 0.7214 0.06053 0.14384 0.0
C732 C 0.72291 0.99722 0.35014 0.0
C733 C 0.74222 0.9963 0.37929 0.0
C734 C 0.7166 1.01583 0.32333 0.0
C735 C 0.72947 0.03374 0.32582 0.0
C736 C 0.74808 0.03305 0.35853 0.0
C737 C 0.75429 1.01455 0.38532 0.0
C738 C 0.73515 0.08781 0.26443 0.0
C739 C 0.73241 0.08336 0.20593 0.0
C740 C 0.73158 0.07221 0.30523 0.0
C741 C 0.7257 0.05191 0.28761 0.0
C742 C 0.72048 0.04839 0.2296 0.0
C743 C 0.72371 0.06413 0.18897 0.0
H744 H 0.06154 0.73394 0.45493 0.0
H745 H 0.09292 0.75889 0.30531 0.0
H746 H 1.02972 0.72813 0.39761 0.0
H747 H 0.06123 0.75289 0.24789 0.0
H748 H 1.00325 0.72933 0.15548 0.0
H749 H 0.03463 0.72301 0.21421 0.0
H750 H 1.00733 0.75946 0.35205 0.0
H751 H 0.97606 0.7659 0.29321 0.0
C752 C 0.06175 0.73761 0.40942 0.0
C753 C 0.07935 0.74712 0.38427 0.0
C754 C 0.04363 0.73434 0.37691 0.0
C755 C 0.04318 0.74016 0.31877 0.0
C756 C 0.06136 0.74817 0.29267 0.0
C757 C 0.07933 0.75175 0.3254 0.0
C758 C 1.00386 0.73562 0.19877 0.0
C759 C 0.98758 0.74836 0.21991 0.0
C760 C 1.02172 0.73202 0.2321 0.0
C761 C 1.02321 0.74075 0.28728 0.0
C762 C 1.00635 0.75242 0.30967 0.0
C763 C 0.98865 0.75631 0.27598 0.0
H764 H 0.28401 0.05598 0.42023 0.0
H765 H 0.34289 0.08227 0.36316 0.0
H766 H 0.29135 1.02385 0.36802 0.0
H767 H 0.35087 0.04946 0.31197 0.0
H768 H 0.3302 1.00676 0.15387 0.0
H769 H 0.33577 0.0343 0.22506 0.0
H770 H 0.31269 0.9929 0.3582 0.0
H771 H 0.30647 0.96565 0.28615 0.0
C772 C 0.29857 0.05479 0.39637 0.0
C773 C 0.3125 0.07177 0.39338 0.0
C774 C 0.30305 0.0362 0.36756 0.0
C775 C 0.3217 0.03413 0.33573 0.0
C776 C 0.33628 0.05073 0.3357 0.0
C777 C 0.33174 0.06942 0.36474 0.0
C778 C 0.32691 1.00343 0.19866 0.0
C779 C 0.31732 0.98452 0.21475 0.0
C780 C 0.33022 1.01911 0.23952 0.0
C781 C 0.3242 1.0159 0.29698 0.0
C782 C 0.31695 0.99597 0.31391 0.0
C783 C 0.31338 0.98043 0.2729 0.0
H784 H 0.06965 0.77738 0.67225 0.0
H785 H 0.08521 0.83974 0.73085 0.0
H786 H 0.04148 0.77557 0.7435 0.0
H787 H 0.05767 0.83758 0.80365 0.0
H788 H 1.0178 0.81989 0.96383 0.0
H789 H 0.04677 0.82045 0.89385 0.0
H790 H 1.00695 0.78986 0.76906 0.0
H791 H 0.97819 0.78944 0.83895 0.0
C792 C 0.06706 0.79084 0.6998 0.0
C793 C 0.08003 0.80874 0.69481 0.0
C794 C 0.05084 0.78974 0.74133 0.0
C795 C 0.04705 0.80637 0.78036 0.0
C796 C 0.06009 0.82422 0.77555 0.0
C797 C 0.0761 0.82544 0.73348 0.0
C798 C 1.01535 0.81302 0.92173 0.0
C799 C 0.99557 0.8045 0.9075 0.0
C800 C 0.03194 0.81353 0.88111 0.0
C801 C 1.02948 0.80527 0.82494 0.0
C802 C 1.0098 0.79624 0.81154 0.0
C803 C 0.99318 0.796 0.85182 0.0
H804 H 0.21741 0.99035 0.86973 0.0
H805 H 0.28237 1.0021 0.91113 0.0
H806 H 0.2181 1.01854 0.79891 0.0
H807 H 0.28289 1.03114 0.84226 0.0
H808 H 0.28387 0.07111 0.67633 0.0
H809 H 0.28363 0.04229 0.74595 0.0
H810 H 0.21805 0.05446 0.7804 0.0
H811 H 0.21818 0.08248 0.70886 0.0
C812 C 0.23193 0.99892 0.8639 0.0
C813 C 0.24983 0.9936 0.89682 0.0
C814 C 0.23227 1.01549 0.82339 0.0
C815 C 0.25054 1.02763 0.81385 0.0
C816 C 0.26847 1.02231 0.84703 0.0
C817 C 0.26811 1.00568 0.8876 0.0
C818 C 0.26929 0.06748 0.69813 0.0
C819 C 0.25101 0.0793 0.68599 0.0
C820 C 0.2692 0.05099 0.73909 0.0
C821 C 0.25081 0.04558 0.76987 0.0
C822 C 0.23256 0.05756 0.75774 0.0
C823 C 0.23268 0.07401 0.71681 0.0
H824 H 0.98792 0.22126 0.69331 0.0
H825 H 1.00923 0.28038 0.62462 0.0
H826 H 1.01645 0.22158 0.7633 0.0
H827 H 0.03833 0.2805 0.69417 0.0
H828 H 0.09933 0.26463 0.79851 0.0
H829 H 0.07138 0.26465 0.72571 0.0
H830 H 1.02847 0.23847 0.84992 0.0
H831 H 0.0566 0.23816 0.92208 0.0
C832 C 0.99862 0.23447 0.69311 0.0
C833 C 0.99578 0.25094 0.65307 0.0
C834 C 1.01515 0.23465 0.73368 0.0
C835 C 1.0299 0.25118 0.73574 0.0
C836 C 1.02754 0.26736 0.69438 0.0
C837 C 1.01077 0.26727 0.65397 0.0
C838 C 0.08402 0.2586 0.81015 0.0
C839 C 0.08048 0.25106 0.86637 0.0
C840 C 0.06779 0.25887 0.76835 0.0
C841 C 0.04737 0.25143 0.78094 0.0
C842 C 0.04388 0.24404 0.83751 0.0
C843 C 0.06005 0.24398 0.87936 0.0
H844 H 0.79475 0.09295 0.81833 0.0
H845 H 0.81358 0.04787 0.94664 0.0
H846 H 0.79464 0.06541 0.74541 0.0
H847 H 0.81355 1.02013 0.87384 0.0
H848 H 0.79569 0.96996 0.73999 0.0
H849 H 0.79495 0.99747 0.81309 0.0
H850 H 0.81383 0.04298 0.6856 0.0
H851 H 0.81434 1.01528 0.61255 0.0
C852 C 0.7991 0.07718 0.83115 0.0
C853 C 0.80428 0.07293 0.88904 0.0
C854 C 0.79905 0.06118 0.78888 0.0
C855 C 0.80419 0.04012 0.80249 0.0
C856 C 0.80915 0.03586 0.86076 0.0
C857 C 0.80916 0.0519 0.90306 0.0
C858 C 0.79987 0.98579 0.72746 0.0
C859 C 0.8052 0.99014 0.66981 0.0
C860 C 0.79947 1.00176 0.76982 0.0
C861 C 0.80441 1.02287 0.75649 0.0
C862 C 0.80958 1.0272 0.69846 0.0
C863 C 0.80993 1.0112 0.6561 0.0
H864 H 0.59981 0.80446 0.79317 0.0
H865 H 0.56235 0.8322 0.65805 0.0
H866 H 0.5712 0.81024 0.86136 0.0
H867 H 0.53341 0.83705 0.72469 0.0
H868 H 0.48227 0.84318 0.85132 0.0
H869 H 0.51632 0.85077 0.80722 0.0
H870 H 0.53987 0.79085 0.86797 0.0
H871 H 0.50671 0.78421 0.91485 0.0
C872 C 0.58551 0.81205 0.77851 0.0
C873 C 0.58288 0.81745 0.7206 0.0
C874 C 0.56917 0.81535 0.81725 0.0
C875 C 0.54984 0.8236 0.79806 0.0
C876 C 0.54807 0.83077 0.74108 0.0
C877 C 0.56457 0.82785 0.70272 0.0
C878 C 0.49489 0.83182 0.85542 0.0
C879 C 0.49164 0.81266 0.88377 0.0
C880 C 0.51433 0.83614 0.83035 0.0
C881 C 0.53073 0.82132 0.83347 0.0
C882 C 0.5277 0.80273 0.86497 0.0
C883 C 0.50844 0.79857 0.89041 0.0
H884 H 0.22131 0.48025 0.8766 0.0
H885 H 0.27943 0.50796 0.93517 0.0
H886 H 0.21205 0.51324 0.82831 0.0
H887 H 0.27097 0.54021 0.88501 0.0
H888 H 0.25498 0.59794 0.80216 0.0
H889 H 0.24963 0.57064 0.87453 0.0
H890 H 0.22574 0.52905 0.74251 0.0
H891 H 0.2303 0.55664 0.67131 0.0
C892 C 0.23204 0.49343 0.87908 0.0
C893 C 0.25148 0.49141 0.90711 0.0
C894 C 0.22677 0.51224 0.85163 0.0
C895 C 0.24085 0.52926 0.8523 0.0
C896 C 0.25964 0.52753 0.8839 0.0
C897 C 0.2648 0.50884 0.91141 0.0
C898 C 0.24807 0.5831 0.78932 0.0
C899 C 0.24356 0.57899 0.73145 0.0
C900 C 0.24501 0.56752 0.83049 0.0
C901 C 0.2378 0.54752 0.81392 0.0
C902 C 0.23125 0.54428 0.75682 0.0
C903 C 0.234 0.56 0.71589 0.0
H904 H 0.55284 0.28111 0.90301 0.0
H905 H 0.58009 0.2219 0.85092 0.0
H906 H 0.52107 0.27303 0.8498 0.0
H907 H 0.54769 0.21328 0.7984 0.0
H908 H 0.50382 0.2325 0.63946 0.0
H909 H 0.53196 0.22788 0.70983 0.0
H910 H 0.4906 0.25031 0.84402 0.0
H911 H 0.46275 0.25553 0.77294 0.0
C912 C 0.55197 0.26635 0.87987 0.0
C913 C 0.56906 0.25245 0.87891 0.0
C914 C 0.53361 0.26147 0.85051 0.0
C915 C 0.53188 0.24246 0.82007 0.0
C916 C 0.54869 0.22808 0.82127 0.0
C917 C 0.56714 0.233 0.85101 0.0
C918 C 0.50064 0.23578 0.68435 0.0
C919 C 0.48154 0.2449 0.70106 0.0
C920 C 0.51666 0.23304 0.72468 0.0
C921 C 0.51357 0.23922 0.78209 0.0
C922 C 0.49352 0.24593 0.79971 0.0
C923 C 0.47764 0.24891 0.75928 0.0
H924 H 0.84793 0.57455 0.83344 0.0
H925 H 0.7909 0.54654 0.89797 0.0
H926 H 0.85646 0.54171 0.78341 0.0
H927 H 0.79866 0.51441 0.84648 0.0
H928 H 0.81288 0.4572 0.7604 0.0
H929 H 0.82022 0.48404 0.83285 0.0
H930 H 0.84077 0.52635 0.69868 0.0
H931 H 0.83418 0.49924 0.62718 0.0
C932 C 0.8373 0.56133 0.83692 0.0
C933 C 0.81833 0.56322 0.86713 0.0
C934 C 0.84217 0.5426 0.80854 0.0
C935 C 0.82816 0.52554 0.81057 0.0
C936 C 0.80992 0.52713 0.84433 0.0
C937 C 0.80514 0.54575 0.87264 0.0
C938 C 0.81952 0.47208 0.747 0.0
C939 C 0.82242 0.47658 0.68861 0.0
C940 C 0.82373 0.48739 0.78822 0.0
C941 C 0.83051 0.50747 0.77124 0.0
C942 C 0.8356 0.51104 0.71325 0.0
C943 C 0.83169 0.4956 0.67218 0.0
H944 H 0.565 0.28175 0.15761 0.0
H945 H 0.57938 0.34538 0.2075 0.0
H946 H 0.53622 0.28104 0.22719 0.0
H947 H 0.55115 0.3444 0.27861 0.0
H948 H 0.51056 0.329 0.43948 0.0
H949 H 0.53959 0.32937 0.36999 0.0
H950 H 0.50131 0.29486 0.24935 0.0
H951 H 0.47247 0.29447 0.31911 0.0
C952 C 0.562 0.29573 0.18284 0.0
C953 C 0.57477 0.31369 0.17577 0.0
C954 C 0.54541 0.29528 0.22337 0.0
C955 C 0.54102 0.31265 0.25939 0.0
C956 C 0.55396 0.33052 0.25275 0.0
C957 C 0.57036 0.33106 0.21168 0.0
C958 C 0.50837 0.32139 0.39822 0.0
C959 C 0.48899 0.31176 0.38526 0.0
C960 C 0.52504 0.32174 0.35789 0.0
C961 C 0.52311 0.31219 0.30316 0.0
C962 C 0.50374 0.30229 0.29073 0.0
C963 C 0.48701 0.3022 0.33078 0.0
H964 H 0.74073 0.54731 0.10277 0.0
H965 H 0.77339 0.58676 0.22374 0.0
H966 H 0.74007 0.51876 0.17383 0.0
H967 H 0.77273 0.55838 0.29508 0.0
H968 H 0.78551 0.49537 0.39136 0.0
H969 H 0.78665 0.52381 0.3207 0.0
H970 H 0.72405 0.50788 0.26448 0.0
H971 H 0.72261 0.48002 0.33654 0.0
C972 C 0.74782 0.5499 0.14457 0.0
C973 C 0.75693 0.56953 0.15735 0.0
C974 C 0.74732 0.53351 0.18576 0.0
C975 C 0.75624 0.53598 0.24114 0.0
C976 C 0.76577 0.55556 0.25327 0.0
C977 C 0.76601 0.57201 0.21232 0.0
C978 C 0.77178 0.49807 0.36482 0.0
C979 C 0.75395 0.48505 0.37058 0.0
C980 C 0.77249 0.51447 0.32366 0.0
C981 C 0.75549 0.51841 0.28586 0.0
C982 C 0.73768 0.50535 0.29159 0.0
C983 C 0.73688 0.48916 0.33322 0.0
H984 H 0.55894 0.79025 0.41949 0.0
H985 H 0.57281 0.72676 0.36721 0.0
H986 H 0.53063 0.79189 0.34756 0.0
H987 H 0.54502 0.72839 0.29526 0.0
H988 H 0.50726 0.74269 0.13201 0.0
H989 H 0.53535 0.7428 0.20441 0.0
H990 H 0.49636 0.78023 0.31666 0.0
H991 H 0.46857 0.78038 0.24347 0.0
C992 C 0.55587 0.77653 0.39327 0.0
C993 C 0.56856 0.75845 0.39937 0.0
C994 C 0.53958 0.77747 0.35149 0.0
C995 C 0.53542 0.76039 0.31402 0.0
C996 C 0.54782 0.74217 0.32152 0.0
C997 C 0.56389 0.7412 0.36331 0.0
C998 C 0.50476 0.7511 0.17194 0.0
C999 C 0.48545 0.76135 0.18173 0.0
C1000 C 0.52086 0.75101 0.21407 0.0
C1001 C 0.51837 0.76132 0.26765 0.0
C1002 C 0.49921 0.77214 0.27646 0.0
C1003 C 0.48309 0.77211 0.23441 0.0
H1004 H 0.2774 0.55451 0.43046 0.0
H1005 H 0.34071 0.57097 0.38296 0.0
H1006 H 0.27806 0.5256 0.36039 0.0
H1007 H 0.34113 0.54279 0.31204 0.0
H1008 H 0.32787 0.50455 0.14698 0.0
H1009 H 0.32655 0.53257 0.21938 0.0
H1010 H 0.29337 0.49116 0.33455 0.0
H1011 H 0.29466 0.46325 0.26166 0.0
C1012 C 0.29155 0.55196 0.40565 0.0
C1013 C 0.3089 0.56553 0.41265 0.0
C1014 C 0.29191 0.53532 0.36494 0.0
C1015 C 0.30957 0.53174 0.32921 0.0
C1016 C 0.327 0.5451 0.33721 0.0
C1017 C 0.32673 0.56145 0.37824 0.0
C1018 C 0.3203 0.50141 0.18777 0.0
C1019 C 0.31161 0.48143 0.19833 0.0
C1020 C 0.31962 0.51751 0.22973 0.0
C1021 C 0.30994 0.51439 0.28379 0.0
C1022 C 0.3009 0.49444 0.29382 0.0
C1023 C 0.30183 0.47826 0.25204 0.0
H1024 H 0.19113 0.17426 0.45152 0.0
H1025 H 0.23547 0.15097 0.32656 0.0
H1026 H 0.171 0.19119 0.37547 0.0
H1027 H 0.21574 0.16858 0.25017 0.0
H1028 H 0.16902 0.18973 0.11465 0.0
H1029 H 0.18625 0.17039 0.19157 0.0
H1030 H 0.16912 0.21932 0.31167 0.0
H1031 H 0.15117 0.23835 0.23438 0.0
C1032 C 0.19662 0.17265 0.40766 0.0
C1033 C 0.21504 0.16104 0.39566 0.0
C1034 C 0.18509 0.18265 0.3637 0.0
C1035 C 0.19156 0.18164 0.30578 0.0
C1036 C 0.20983 0.16967 0.29368 0.0
C1037 C 0.2213 0.15949 0.33775 0.0
C1038 C 0.16865 0.19632 0.15761 0.0
C1039 C 0.15851 0.21572 0.16783 0.0
C1040 C 0.17885 0.18524 0.20202 0.0
C1041 C 0.17955 0.19315 0.25866 0.0
C1042 C 0.1689 0.21235 0.26922 0.0
C1043 C 0.15851 0.22339 0.22465 0.0
H1044 H 0.85504 0.17774 0.12573 0.0
H1045 H 0.82795 0.13603 0.25153 0.0
H1046 H 0.87554 0.19469 0.19955 0.0
H1047 H 0.84964 0.15248 0.32647 0.0
H1048 H 0.8763 0.20018 0.4585 0.0
H1049 H 0.85633 0.18061 0.38683 0.0
H1050 H 0.90352 0.19526 0.25956 0.0
H1051 H 0.92273 0.21575 0.33066 0.0
C1052 C 0.85365 0.17185 0.16925 0.0
C1053 C 0.83966 0.15527 0.18191 0.0
C1054 C 0.86575 0.1816 0.21219 0.0
C1055 C 0.86479 0.17511 0.27012 0.0
C1056 C 0.8509 0.15834 0.28295 0.0
C1057 C 0.83847 0.14867 0.23968 0.0
C1058 C 0.88253 0.19912 0.41528 0.0
C1059 C 0.90126 0.20976 0.40087 0.0
C1060 C 0.87101 0.1877 0.37376 0.0
C1061 C 0.87785 0.18623 0.31611 0.0
C1062 C 0.89707 0.19627 0.30248 0.0
C1063 C 0.90839 0.20795 0.34378 0.0
H1064 H 0.85434 0.88132 0.43559 0.0
H1065 H 0.83412 0.92679 0.30947 0.0
H1066 H 0.87435 0.86285 0.36342 0.0
H1067 H 0.85538 0.90881 0.23655 0.0
H1068 H 0.87948 0.86092 0.10349 0.0
H1069 H 0.86036 0.88128 0.17472 0.0
H1070 H 0.90279 0.85885 0.30664 0.0
H1071 H 0.92111 0.83752 0.23534 0.0
C1072 C 0.85439 0.88769 0.3924 0.0
C1073 C 0.84243 0.90579 0.37908 0.0
C1074 C 0.86621 0.87703 0.35044 0.0
C1075 C 0.867 0.88407 0.29296 0.0
C1076 C 0.85519 0.9024 0.27963 0.0
C1077 C 0.84302 0.91297 0.32179 0.0
C1078 C 0.88486 0.86036 0.14769 0.0
C1079 C 0.90199 0.84735 0.1631 0.0
C1080 C 0.87383 0.87229 0.18903 0.0
C1081 C 0.87959 0.87199 0.24772 0.0
C1082 C 0.89719 0.85938 0.26272 0.0
C1083 C 0.90801 0.84717 0.22141 0.0
H1084 H 0.20096 0.88311 0.12481 0.0
H1085 H 0.226 0.92693 0.24869 0.0
H1086 H 0.18282 0.86447 0.20059 0.0
H1087 H 0.20677 0.90891 0.32507 0.0
H1088 H 0.18789 0.86039 0.46031 0.0
H1089 H 0.20452 0.8806 0.38483 0.0
H1090 H 0.15636 0.86058 0.2655 0.0
H1091 H 0.14037 0.8393 0.34115 0.0
C1092 C 0.20234 0.88909 0.16827 0.0
C1093 C 0.21511 0.90671 0.18 0.0
C1094 C 0.19167 0.87834 0.21228 0.0
C1095 C 0.193 0.88486 0.27018 0.0
C1096 C 0.20544 0.90285 0.28175 0.0
C1097 C 0.21641 0.91347 0.23759 0.0
C1098 C 0.1807 0.8603 0.41805 0.0
C1099 C 0.16264 0.84802 0.40741 0.0
C1100 C 0.19027 0.87217 0.37428 0.0
C1101 C 0.18207 0.87259 0.31786 0.0
C1102 C 0.16367 0.86059 0.30753 0.0
C1103 C 0.15425 0.84842 0.35133 0.0
H1104 H 0.91775 0.84237 0.82592 0.0
H1105 H 0.89919 0.90055 0.90698 0.0
H1106 H 0.92389 0.86022 0.73746 0.0
H1107 H 0.89968 0.91764 0.81312 0.0
H1108 H 0.88701 0.94271 0.64739 0.0
H1109 H 0.9098 0.93123 0.72623 0.0
H1110 H 0.89993 0.86655 0.67283 0.0
H1111 H 0.87872 0.87829 0.59463 0.0
C1112 C 0.91504 0.85909 0.82502 0.0
C1113 C 0.90842 0.87008 0.87401 0.0
C1114 C 0.91801 0.86933 0.77333 0.0
C1115 C 0.91135 0.8902 0.76664 0.0
C1116 C 0.90513 0.90155 0.81604 0.0
C1117 C 0.90424 0.89166 0.86972 0.0
C1118 C 0.89086 0.92617 0.65144 0.0
C1119 C 0.88086 0.91116 0.61691 0.0
C1120 C 0.9036 0.91954 0.69695 0.0
C1121 C 0.90601 0.89791 0.70817 0.0
C1122 C 0.8986 0.88335 0.66704 0.0
C1123 C 0.88615 0.88999 0.62183 0.0
H1124 H 0.11742 0.8808 0.67683 0.0
H1125 H 0.18494 0.88551 0.66293 0.0
H1126 H 0.11837 0.90218 0.76462 0.0
H1127 H 0.18565 0.90803 0.74798 0.0
H1128 H 0.177 0.95112 0.90002 0.0
H1129 H 0.15791 0.94547 0.80962 0.0
H1130 H 0.1534 0.87931 0.84836 0.0
H1131 H 0.17393 0.88462 0.93588 0.0
C1132 C 0.13228 0.88735 0.69091 0.0
C1133 C 0.15121 0.88133 0.66449 0.0
C1134 C 0.13273 0.89966 0.74057 0.0
C1135 C 0.15202 0.90672 0.76208 0.0
C1136 C 0.17059 0.90291 0.7312 0.0
C1137 C 0.17024 0.88994 0.68314 0.0
C1138 C 0.17117 0.93555 0.89013 0.0
C1139 C 0.1773 0.91813 0.92328 0.0
C1140 C 0.1601 0.93242 0.83897 0.0
C1141 C 0.15433 0.91203 0.82279 0.0
C1142 C 0.15758 0.8952 0.86078 0.0
C1143 C 0.16942 0.89817 0.91038 0.0
H1144 H 0.17885 0.11768 0.66124 0.0
H1145 H 0.17627 0.18545 0.65218 0.0
H1146 H 0.15864 0.11858 0.75086 0.0
H1147 H 0.15475 0.18617 0.73894 0.0
H1148 H 0.18279 0.17058 0.92199 0.0
H1149 H 0.18443 0.15035 0.83292 0.0
H1150 H 0.1182 0.16107 0.80493 0.0
H1151 H 0.11618 0.1799 0.89663 0.0
C1152 C 0.17294 0.13263 0.67671 0.0
C1153 C 0.17943 0.15158 0.65131 0.0
C1154 C 0.16127 0.13306 0.72745 0.0
C1155 C 0.15523 0.1524 0.75097 0.0
C1156 C 0.15912 0.17108 0.72073 0.0
C1157 C 0.17154 0.17072 0.67163 0.0
C1158 C 0.16839 0.16746 0.89856 0.0
C1159 C 0.14949 0.17699 0.91491 0.0
C1160 C 0.16924 0.15579 0.84806 0.0
C1161 C 0.15141 0.15437 0.81261 0.0
C1162 C 0.13198 0.16178 0.8323 0.0
C1163 C 0.13094 0.17268 0.88427 0.0
H1164 H 0.87612 0.18505 0.96874 0.0
H1165 H 0.88863 0.12103 0.91841 0.0
H1166 H 0.89853 0.19766 0.89499 0.0
H1167 H 0.91289 0.13342 0.84453 0.0
H1168 H 0.90692 0.16164 0.66085 0.0
H1169 H 0.90632 0.14551 0.75569 0.0
H1170 H 0.9213 0.206 0.83152 0.0
H1171 H 0.91561 0.22225 0.74061 0.0
C1172 C 0.88464 0.17366 0.94296 0.0
C1173 C 0.88014 0.15229 0.94694 0.0
C1174 C 0.89787 0.18082 0.90024 0.0
C1175 C 0.90689 0.16661 0.86057 0.0
C1176 C 0.90531 0.14489 0.87191 0.0
C1177 C 0.89172 0.13772 0.91476 0.0
C1178 C 0.90959 0.17137 0.6984 0.0
C1179 C 0.9112 0.19324 0.69318 0.0
C1180 C 0.90986 0.16209 0.75294 0.0
C1181 C 0.91305 0.17448 0.80271 0.0
C1182 C 0.91741 0.19594 0.79556 0.0
C1183 C 0.91482 0.20535 0.74247 0.0
H1184 H 0.73164 0.6364 0.80162 0.0
H1185 H 0.70694 0.67853 0.93028 0.0
H1186 H 0.71046 0.6543 0.72823 0.0
H1187 H 0.68696 0.69698 0.85785 0.0
H1188 H 0.64082 0.72184 0.72728 0.0
H1189 H 0.65926 0.70037 0.79807 0.0
H1190 H 0.70467 0.68243 0.66887 0.0
H1191 H 0.68543 0.7029 0.59782 0.0
C1192 C 0.72175 0.64945 0.81443 0.0
C1193 C 0.72109 0.65572 0.87255 0.0
C1194 C 0.70961 0.65999 0.77201 0.0
C1195 C 0.69657 0.6774 0.78593 0.0
C1196 C 0.69609 0.68352 0.84426 0.0
C1197 C 0.70789 0.67286 0.88642 0.0
C1198 C 0.65461 0.71313 0.71377 0.0
C1199 C 0.66142 0.71425 0.65626 0.0
C1200 C 0.6655 0.70086 0.75487 0.0
C1201 C 0.68397 0.68949 0.74056 0.0
C1202 C 0.69053 0.69045 0.68259 0.0
C1203 C 0.67943 0.70243 0.64136 0.0
H1204 H 0.3594 0.67998 0.62441 0.0
H1205 H 0.33574 0.63671 0.75129 0.0
H1206 H 0.37815 0.69911 0.69869 0.0
H1207 H 0.3555 0.65515 0.8259 0.0
H1208 H 0.37575 0.70388 0.95958 0.0
H1209 H 0.35849 0.68332 0.88547 0.0
H1210 H 0.40491 0.70386 0.76228 0.0
H1211 H 0.42148 0.72542 0.83647 0.0
C1212 C 0.35847 0.67423 0.66817 0.0
C1213 C 0.34589 0.65661 0.68118 0.0
C1214 C 0.36947 0.68527 0.71134 0.0
C1215 C 0.36867 0.67904 0.76963 0.0
C1216 C 0.35644 0.66103 0.78235 0.0
C1217 C 0.34515 0.65016 0.73912 0.0
C1218 C 0.38243 0.70397 0.91677 0.0
C1219 C 0.40018 0.7165 0.90468 0.0
C1220 C 0.37249 0.69192 0.87373 0.0
C1221 C 0.37998 0.69155 0.81656 0.0
C1222 C 0.39809 0.70377 0.80485 0.0
C1223 C 0.40787 0.71611 0.84788 0.0
H1224 H 0.33917 0.42291 0.83673 0.0
H1225 H 0.36362 0.37667 0.955 0.0
H1226 H 0.35926 0.40663 0.75888 0.0
H1227 H 0.38258 0.35976 0.87768 0.0
H1228 H 0.42635 0.33754 0.73686 0.0
H1229 H 0.40964 0.35742 0.81433 0.0
H1230 H 0.36235 0.37961 0.69501 0.0
H1231 H 0.37972 0.36084 0.61787 0.0
C1232 C 0.3488 0.40929 0.84627 0.0
C1233 C 0.34969 0.40133 0.90272 0.0
C1234 C 0.36027 0.39968 0.80126 0.0
C1235 C 0.37281 0.38155 0.81082 0.0
C1236 C 0.3737 0.37381 0.86761 0.0
C1237 C 0.36254 0.38356 0.91249 0.0
C1238 C 0.41252 0.34687 0.7271 0.0
C1239 C 0.40459 0.3475 0.67057 0.0
C1240 C 0.40268 0.35821 0.77192 0.0
C1241 C 0.38428 0.37034 0.76213 0.0
C1242 C 0.37657 0.37101 0.70524 0.0
C1243 C 0.38657 0.35998 0.66049 0.0
H1244 H 0.72685 0.423 0.72412 0.0
H1245 H 0.70464 0.37597 0.60517 0.0
H1246 H 0.70614 0.40683 0.80061 0.0
H1247 H 0.68499 0.35914 0.68142 0.0
H1248 H 0.63961 0.33737 0.81967 0.0
H1249 H 0.6572 0.35666 0.74265 0.0
H1250 H 0.70249 0.3803 0.86536 0.0
H1251 H 0.68428 0.36209 0.9418 0.0
C1252 C 0.71761 0.40919 0.71416 0.0
C1253 C 0.71752 0.40101 0.65787 0.0
C1254 C 0.70576 0.39965 0.75844 0.0
C1255 C 0.69361 0.38133 0.74843 0.0
C1256 C 0.69355 0.37332 0.69181 0.0
C1257 C 0.70511 0.38301 0.64757 0.0
C1258 C 0.65318 0.34689 0.83025 0.0
C1259 C 0.66029 0.34809 0.88756 0.0
C1260 C 0.66354 0.3579 0.7857 0.0
C1261 C 0.68164 0.37029 0.79656 0.0
C1262 C 0.68853 0.3715 0.85419 0.0
C1263 C 0.67803 0.36079 0.89859 0.0
H1264 H 0.38453 0.44553 0.17097 0.0
H1265 H 0.39127 0.3783 0.15275 0.0
H1266 H 0.40546 0.44438 0.2595 0.0
H1267 H 0.41344 0.37744 0.2385 0.0
H1268 H 0.38403 0.39126 0.4255 0.0
H1269 H 0.38219 0.41228 0.33788 0.0
H1270 H 0.44816 0.40105 0.30735 0.0
H1271 H 0.45039 0.38138 0.39776 0.0
C1272 C 0.3915 0.43074 0.18419 0.0
C1273 C 0.38604 0.41188 0.15653 0.0
C1274 C 0.40359 0.43018 0.23427 0.0
C1275 C 0.411 0.41088 0.25503 0.0
C1276 C 0.40806 0.39253 0.22246 0.0
C1277 C 0.39525 0.39295 0.17396 0.0
C1278 C 0.39835 0.39439 0.40181 0.0
C1279 C 0.41722 0.38455 0.41709 0.0
C1280 C 0.39738 0.40653 0.35217 0.0
C1281 C 0.41506 0.4081 0.31639 0.0
C1282 C 0.43449 0.40023 0.335 0.0
C1283 C 0.43566 0.38884 0.38616 0.0
H1284 H 0.68264 0.447 0.38872 0.0
H1285 H 0.67663 0.37976 0.40772 0.0
H1286 H 0.66171 0.44554 0.30015 0.0
H1287 H 0.6544 0.3786 0.3221 0.0
H1288 H 0.68231 0.38924 0.13607 0.0
H1289 H 0.68555 0.41041 0.22314 0.0
H1290 H 0.61883 0.40486 0.25243 0.0
H1291 H 0.61527 0.38512 0.16236 0.0
C1292 C 0.67583 0.43214 0.37566 0.0
C1293 C 0.6815 0.41336 0.4035 0.0
C1294 C 0.66374 0.4314 0.32557 0.0
C1295 C 0.65652 0.41201 0.30514 0.0
C1296 C 0.65966 0.39375 0.33793 0.0
C1297 C 0.67248 0.39434 0.38635 0.0
C1298 C 0.66822 0.39362 0.15937 0.0
C1299 C 0.64867 0.38533 0.14388 0.0
C1300 C 0.67 0.40584 0.20867 0.0
C1301 C 0.6524 0.40906 0.24392 0.0
C1302 C 0.63247 0.40274 0.22516 0.0
C1303 C 0.63054 0.3913 0.17421 0.0
H1304 H 0.67798 0.61708 0.14883 0.0
H1305 H 0.68769 0.6821 0.10372 0.0
H1306 H 0.65444 0.62788 0.227 0.0
H1307 H 0.66547 0.69303 0.18072 0.0
H1308 H 0.64088 0.7166 0.321 0.0
H1309 H 0.63676 0.69731 0.23399 0.0
H1310 H 0.66286 0.64237 0.31782 0.0
H1311 H 0.6611 0.66071 0.41033 0.0
C1312 C 0.6744 0.63361 0.15451 0.0
C1313 C 0.6848 0.64894 0.12196 0.0
C1314 C 0.66114 0.6398 0.19935 0.0
C1315 C 0.6583 0.6613 0.21133 0.0
C1316 C 0.66685 0.6763 0.17334 0.0
C1317 C 0.67993 0.67013 0.12915 0.0
C1318 C 0.64402 0.70005 0.32258 0.0
C1319 C 0.65081 0.69019 0.3731 0.0
C1320 C 0.64227 0.68898 0.27177 0.0
C1321 C 0.65054 0.66862 0.26786 0.0
C1322 C 0.65639 0.65812 0.31893 0.0
C1323 C 0.65593 0.66874 0.37172 0.0
H1324 H 0.35313 0.6407 0.34251 0.0
H1325 H 0.40465 0.64691 0.46256 0.0
H1326 H 0.37686 0.64486 0.26312 0.0
H1327 H 0.42835 0.65417 0.38139 0.0
H1328 H 0.42046 0.66322 0.12797 0.0
H1329 H 0.41938 0.63883 0.21003 0.0
H1330 H 0.40705 0.69096 0.32398 0.0
H1331 H 0.40579 0.71461 0.24296 0.0
C1332 C 0.36968 0.64212 0.35196 0.0
C1333 C 0.37707 0.64346 0.40863 0.0
C1334 C 0.38338 0.64428 0.30624 0.0
C1335 C 0.40437 0.64965 0.31641 0.0
C1336 C 0.41227 0.64952 0.37286 0.0
C1337 C 0.39867 0.64589 0.419 0.0
C1338 C 0.41786 0.66938 0.17082 0.0
C1339 C 0.41285 0.69068 0.17921 0.0
C1340 C 0.41782 0.65557 0.21756 0.0
C1341 C 0.41374 0.66324 0.27302 0.0
C1342 C 0.41089 0.68484 0.28172 0.0
C1343 C 0.40973 0.69831 0.2351 0.0
loop_
_geom_bond_atom_site_label_1
_geom_bond_atom_site_label_2
_geom_bond_distance
_geom_bond_site_symmetry_2
_ccdc_geom_bond_type
Co0 O3 1.970 1_556 S
Co0 N17 1.989 . S
Co0 O25 1.967 . S
Co0 O32 1.920 . S
Co1 O4 1.966 . S
Co1 N10 2.022 . S
Co1 N18 1.993 1_554 S
Co1 O26 1.941 . S
C2 O3 1.258 . S
C2 O4 1.263 . S
O3 Co0 1.970 1_554 S
O3 C2 1.258 . S
O4 Co1 1.966 . S
O4 C2 1.263 . S
C5 O6 1.235 . S
C5 O32 1.289 . S
O6 C5 1.235 . S
C7 C9 1.400 . S
C7 N10 1.351 . S
C7 C12 1.501 . S
C8 C9 1.387 . S
C8 N11 1.341 . S
C9 C7 1.400 . S
C9 C8 1.387 . S
N10 Co1 2.022 . S
N10 C7 1.351 . S
N10 N11 1.365 . S
N11 C8 1.341 . S
N11 N10 1.365 . S
N11 H31 0.862 . S
C12 C7 1.501 . S
C12 H13 0.961 . S
C12 H14 0.961 . S
C12 H15 0.960 . S
H13 C12 0.961 . S
H14 C12 0.961 . S
H15 C12 0.960 . S
C16 N17 1.342 . S
C16 C20 1.401 . S
C16 C21 1.499 . S
N17 Co0 1.989 . S
N17 C16 1.342 . S
N17 N18 1.388 . S
N18 Co1 1.993 1_556 S
N18 N17 1.388 . S
N18 C19 1.346 . S
C19 N18 1.346 . S
C19 C20 1.396 . S
C19 C29 1.510 . S
C20 C16 1.401 . S
C20 C19 1.396 . S
C21 C16 1.499 . S
C21 H22 0.959 . S
C21 H23 0.960 . S
C21 H24 0.961 . S
H22 C21 0.959 . S
H23 C21 0.960 . S
H24 C21 0.961 . S
O25 Co0 1.967 . S
O25 C33 1.258 1_556 S
O26 Co1 1.941 . S
O26 C33 1.266 . S
H27 C29 0.959 . S
H28 C29 0.961 . S
C29 C19 1.510 . S
C29 H27 0.959 . S
C29 H28 0.961 . S
C29 H30 0.960 1_556 S
H30 C29 0.960 1_554 S
H31 N11 0.862 . S
O32 Co0 1.920 . S
O32 C5 1.289 . S
C33 O25 1.258 1_554 S
C33 O26 1.266 . S
Co34 O37 1.970 1_556 S
Co34 N51 1.989 . S
Co34 O59 1.967 . S
Co34 O66 1.920 . S
Co35 O38 1.966 . S
Co35 N44 2.022 . S
Co35 N52 1.993 1_554 S
Co35 O60 1.941 . S
C36 O37 1.258 . S
C36 O38 1.263 . S
O37 Co34 1.970 1_554 S
O37 C36 1.258 . S
O38 Co35 1.966 . S
O38 C36 1.263 . S
C39 O40 1.235 . S
C39 O66 1.289 . S
O40 C39 1.235 . S
C41 C43 1.400 . S
C41 N44 1.351 . S
C41 C46 1.501 . S
C42 C43 1.387 . S
C42 N45 1.341 . S
C43 C41 1.400 . S
C43 C42 1.387 . S
N44 Co35 2.022 . S
N44 C41 1.351 . S
N44 N45 1.365 . S
N45 C42 1.341 . S
N45 N44 1.365 . S
N45 H65 0.862 . S
C46 C41 1.501 . S
C46 H47 0.961 . S
C46 H48 0.961 . S
C46 H49 0.960 . S
H47 C46 0.961 . S
H48 C46 0.961 . S
H49 C46 0.960 . S
C50 N51 1.342 . S
C50 C54 1.401 . S
C50 C55 1.499 . S
N51 Co34 1.989 . S
N51 C50 1.342 . S
N51 N52 1.388 . S
N52 Co35 1.993 1_556 S
N52 N51 1.388 . S
N52 C53 1.346 . S
C53 N52 1.346 . S
C53 C54 1.396 . S
C53 C63 1.510 . S
C54 C50 1.401 . S
C54 C53 1.396 . S
C55 C50 1.499 . S
C55 H56 0.959 . S
C55 H57 0.960 . S
C55 H58 0.961 . S
H56 C55 0.959 . S
H57 C55 0.960 . S
H58 C55 0.961 . S
O59 Co34 1.967 . S
O59 C67 1.258 1_556 S
O60 Co35 1.941 . S
O60 C67 1.266 . S
H61 C63 0.959 . S
H62 C63 0.961 . S
C63 C53 1.510 . S
C63 H61 0.959 . S
C63 H62 0.961 . S
C63 H64 0.960 1_556 S
H64 C63 0.960 1_554 S
H65 N45 0.862 . S
O66 Co34 1.920 . S
O66 C39 1.289 . S
C67 O59 1.258 1_554 S
C67 O60 1.266 . S
Co68 O71 1.970 1_556 S
Co68 N85 1.989 . S
Co68 O93 1.967 . S
Co68 O100 1.920 . S
Co69 O72 1.966 . S
Co69 N78 2.022 . S
Co69 N86 1.993 1_554 S
Co69 O94 1.941 . S
C70 O71 1.258 . S
C70 O72 1.263 . S
O71 Co68 1.970 1_554 S
O71 C70 1.258 . S
O72 Co69 1.966 . S
O72 C70 1.263 . S
C73 O74 1.235 . S
C73 O100 1.289 . S
O74 C73 1.235 . S
C75 C77 1.400 . S
C75 N78 1.351 . S
C75 C80 1.501 . S
C76 C77 1.387 . S
C76 N79 1.341 . S
C77 C75 1.400 . S
C77 C76 1.387 . S
N78 Co69 2.022 . S
N78 C75 1.351 . S
N78 N79 1.365 . S
N79 C76 1.341 . S
N79 N78 1.365 . S
N79 H99 0.862 . S
C80 C75 1.501 . S
C80 H81 0.961 . S
C80 H82 0.961 . S
C80 H83 0.960 . S
H81 C80 0.961 . S
H82 C80 0.961 . S
H83 C80 0.960 . S
C84 N85 1.342 . S
C84 C88 1.401 . S
C84 C89 1.499 . S
N85 Co68 1.989 . S
N85 C84 1.342 . S
N85 N86 1.388 . S
N86 Co69 1.993 1_556 S
N86 N85 1.388 . S
N86 C87 1.346 . S
C87 N86 1.346 . S
C87 C88 1.396 . S
C87 C97 1.510 . S
C88 C84 1.401 . S
C88 C87 1.396 . S
C89 C84 1.499 . S
C89 H90 0.959 . S
C89 H91 0.960 . S
C89 H92 0.961 . S
H90 C89 0.959 . S
H91 C89 0.960 . S
H92 C89 0.961 . S
O93 Co68 1.967 . S
O93 C101 1.258 1_556 S
O94 Co69 1.941 . S
O94 C101 1.266 . S
H95 C97 0.959 . S
H96 C97 0.961 . S
C97 C87 1.510 . S
C97 H95 0.959 . S
C97 H96 0.961 . S
C97 H98 0.960 1_556 S
H98 C97 0.960 1_554 S
H99 N79 0.862 . S
O100 Co68 1.920 . S
O100 C73 1.289 . S
C101 O93 1.258 1_554 S
C101 O94 1.266 . S
Co102 O105 1.970 1_556 S
Co102 N119 1.989 . S
Co102 O127 1.967 . S
Co102 O134 1.920 . S
Co103 O106 1.966 . S
Co103 N112 2.022 . S
Co103 N120 1.993 1_554 S
Co103 O128 1.941 . S
C104 O105 1.258 . S
C104 O106 1.263 . S
O105 Co102 1.970 1_554 S
O105 C104 1.258 . S
O106 Co103 1.966 . S
O106 C104 1.263 . S
C107 O108 1.235 . S
C107 O134 1.289 . S
O108 C107 1.235 . S
C109 C111 1.400 . S
C109 N112 1.351 . S
C109 C114 1.501 . S
C110 C111 1.387 . S
C110 N113 1.341 . S
C111 C109 1.400 . S
C111 C110 1.387 . S
N112 Co103 2.022 . S
N112 C109 1.351 . S
N112 N113 1.365 . S
N113 C110 1.341 . S
N113 N112 1.365 . S
N113 H133 0.862 . S
C114 C109 1.501 . S
C114 H115 0.961 . S
C114 H116 0.961 . S
C114 H117 0.960 . S
H115 C114 0.961 . S
H116 C114 0.961 . S
H117 C114 0.960 . S
C118 N119 1.342 . S
C118 C122 1.401 . S
C118 C123 1.499 . S
N119 Co102 1.989 . S
N119 C118 1.342 . S
N119 N120 1.388 . S
N120 Co103 1.993 1_556 S
N120 N119 1.388 . S
N120 C121 1.346 . S
C121 N120 1.346 . S
C121 C122 1.396 . S
C121 C131 1.510 . S
C122 C118 1.401 . S
C122 C121 1.396 . S
C123 C118 1.499 . S
C123 H124 0.959 . S
C123 H125 0.960 . S
C123 H126 0.961 . S
H124 C123 0.959 . S
H125 C123 0.960 . S
H126 C123 0.961 . S
O127 Co102 1.967 . S
O127 C135 1.258 1_556 S
O128 Co103 1.941 . S
O128 C135 1.266 . S
H129 C131 0.959 . S
H130 C131 0.961 . S
C131 C121 1.510 . S
C131 H129 0.959 . S
C131 H130 0.961 . S
C131 H132 0.960 1_556 S
H132 C131 0.960 1_554 S
H133 N113 0.862 . S
O134 Co102 1.920 . S
O134 C107 1.289 . S
C135 O127 1.258 1_554 S
C135 O128 1.266 . S
Co136 O139 1.970 . S
Co136 N153 1.989 . S
Co136 O161 1.967 . S
Co136 O168 1.920 . S
Co137 O140 1.966 . S
Co137 N146 2.022 . S
Co137 N154 1.993 . S
Co137 O162 1.941 . S
C138 O139 1.258 . S
C138 O140 1.263 . S
O139 Co136 1.970 . S
O139 C138 1.258 . S
O140 Co137 1.966 . S
O140 C138 1.263 . S
C141 O142 1.235 . S
C141 O168 1.289 . S
O142 C141 1.235 . S
C143 C145 1.400 . S
C143 N146 1.351 . S
C143 C148 1.501 . S
C144 C145 1.387 . S
C144 N147 1.341 . S
C145 C143 1.400 . S
C145 C144 1.387 . S
N146 Co137 2.022 . S
N146 C143 1.351 . S
N146 N147 1.365 . S
N147 C144 1.341 . S
N147 N146 1.365 . S
N147 H167 0.862 . S
C148 C143 1.501 . S
C148 H149 0.961 . S
C148 H150 0.961 . S
C148 H151 0.960 . S
H149 C148 0.961 . S
H150 C148 0.961 . S
H151 C148 0.960 . S
C152 N153 1.342 . S
C152 C156 1.401 . S
C152 C157 1.499 . S
N153 Co136 1.989 . S
N153 C152 1.342 . S
N153 N154 1.388 . S
N154 Co137 1.993 . S
N154 N153 1.388 . S
N154 C155 1.346 . S
C155 N154 1.346 . S
C155 C156 1.396 . S
C155 C165 1.510 . S
C156 C152 1.401 . S
C156 C155 1.396 . S
C157 C152 1.499 . S
C157 H158 0.959 . S
C157 H159 0.960 . S
C157 H160 0.961 . S
H158 C157 0.959 . S
H159 C157 0.960 . S
H160 C157 0.961 . S
O161 Co136 1.967 . S
O161 C169 1.258 . S
O162 Co137 1.941 . S
O162 C169 1.266 . S
H163 C165 0.959 . S
H164 C165 0.961 . S
C165 C155 1.510 . S
C165 H163 0.959 . S
C165 H164 0.961 . S
C165 H166 0.960 . S
H166 C165 0.960 . S
H167 N147 0.862 . S
O168 Co136 1.920 . S
O168 C141 1.289 . S
C169 O161 1.258 . S
C169 O162 1.266 . S
Co170 O173 1.970 . S
Co170 N187 1.989 . S
Co170 O195 1.967 . S
Co170 O202 1.920 . S
Co171 O174 1.966 . S
Co171 N180 2.022 . S
Co171 N188 1.993 . S
Co171 O196 1.941 . S
C172 O173 1.258 . S
C172 O174 1.263 . S
O173 Co170 1.970 . S
O173 C172 1.258 . S
O174 Co171 1.966 . S
O174 C172 1.263 . S
C175 O176 1.235 . S
C175 O202 1.289 . S
O176 C175 1.235 . S
C177 C179 1.400 . S
C177 N180 1.351 . S
C177 C182 1.501 . S
C178 C179 1.387 . S
C178 N181 1.341 . S
C179 C177 1.400 . S
C179 C178 1.387 . S
N180 Co171 2.022 . S
N180 C177 1.351 . S
N180 N181 1.365 . S
N181 C178 1.341 . S
N181 N180 1.365 . S
N181 H201 0.862 . S
C182 C177 1.501 . S
C182 H183 0.961 . S
C182 H184 0.961 . S
C182 H185 0.960 . S
H183 C182 0.961 . S
H184 C182 0.961 . S
H185 C182 0.960 . S
C186 N187 1.342 . S
C186 C190 1.401 . S
C186 C191 1.499 . S
N187 Co170 1.989 . S
N187 C186 1.342 . S
N187 N188 1.388 . S
N188 Co171 1.993 . S
N188 N187 1.388 . S
N188 C189 1.346 . S
C189 N188 1.346 . S
C189 C190 1.396 . S
C189 C199 1.510 . S
C190 C186 1.401 . S
C190 C189 1.396 . S
C191 C186 1.499 . S
C191 H192 0.959 . S
C191 H193 0.960 . S
C191 H194 0.961 . S
H192 C191 0.959 . S
H193 C191 0.960 . S
H194 C191 0.961 . S
O195 Co170 1.967 . S
O195 C203 1.258 . S
O196 Co171 1.941 . S
O196 C203 1.266 . S
H197 C199 0.959 . S
H198 C199 0.961 . S
C199 C189 1.510 . S
C199 H197 0.959 . S
C199 H198 0.961 . S
C199 H200 0.960 . S
H200 C199 0.960 . S
H201 N181 0.862 . S
O202 Co170 1.920 . S
O202 C175 1.289 . S
C203 O195 1.258 . S
C203 O196 1.266 . S
Co204 O207 1.970 . S
Co204 N221 1.989 . S
Co204 O229 1.967 . S
Co204 O236 1.920 . S
Co205 O208 1.966 . S
Co205 N214 2.022 . S
Co205 N222 1.993 . S
Co205 O230 1.941 . S
C206 O207 1.258 . S
C206 O208 1.263 . S
O207 Co204 1.970 . S
O207 C206 1.258 . S
O208 Co205 1.966 . S
O208 C206 1.263 . S
C209 O210 1.235 . S
C209 O236 1.289 . S
O210 C209 1.235 . S
C211 C213 1.400 . S
C211 N214 1.351 . S
C211 C216 1.501 . S
C212 C213 1.387 . S
C212 N215 1.341 . S
C213 C211 1.400 . S
C213 C212 1.387 . S
N214 Co205 2.022 . S
N214 C211 1.351 . S
N214 N215 1.365 . S
N215 C212 1.341 . S
N215 N214 1.365 . S
N215 H235 0.862 . S
C216 C211 1.501 . S
C216 H217 0.961 . S
C216 H218 0.961 . S
C216 H219 0.960 . S
H217 C216 0.961 . S
H218 C216 0.961 . S
H219 C216 0.960 . S
C220 N221 1.342 . S
C220 C224 1.401 . S
C220 C225 1.499 . S
N221 Co204 1.989 . S
N221 C220 1.342 . S
N221 N222 1.388 . S
N222 Co205 1.993 . S
N222 N221 1.388 . S
N222 C223 1.346 . S
C223 N222 1.346 . S
C223 C224 1.396 . S
C223 C233 1.510 . S
C224 C220 1.401 . S
C224 C223 1.396 . S
C225 C220 1.499 . S
C225 H226 0.959 . S
C225 H227 0.960 . S
C225 H228 0.961 . S
H226 C225 0.959 . S
H227 C225 0.960 . S
H228 C225 0.961 . S
O229 Co204 1.967 . S
O229 C237 1.258 . S
O230 Co205 1.941 . S
O230 C237 1.266 . S
H231 C233 0.959 . S
H232 C233 0.961 . S
C233 C223 1.510 . S
C233 H231 0.959 . S
C233 H232 0.961 . S
C233 H234 0.960 . S
H234 C233 0.960 . S
H235 N215 0.862 . S
O236 Co204 1.920 . S
O236 C209 1.289 . S
C237 O229 1.258 . S
C237 O230 1.266 . S
Co238 O241 1.970 . S
Co238 N255 1.989 . S
Co238 O263 1.967 . S
Co238 O270 1.920 . S
Co239 O242 1.966 . S
Co239 N248 2.022 . S
Co239 N256 1.993 . S
Co239 O264 1.941 . S
C240 O241 1.258 . S
C240 O242 1.263 . S
O241 Co238 1.970 . S
O241 C240 1.258 . S
O242 Co239 1.966 . S
O242 C240 1.263 . S
C243 O244 1.235 . S
C243 O270 1.289 . S
O244 C243 1.235 . S
C245 C247 1.400 . S
C245 N248 1.351 . S
C245 C250 1.501 . S
C246 C247 1.387 . S
C246 N249 1.341 . S
C247 C245 1.400 . S
C247 C246 1.387 . S
N248 Co239 2.022 . S
N248 C245 1.351 . S
N248 N249 1.365 . S
N249 C246 1.341 . S
N249 N248 1.365 . S
N249 H269 0.862 . S
C250 C245 1.501 . S
C250 H251 0.961 . S
C250 H252 0.961 . S
C250 H253 0.960 . S
H251 C250 0.961 . S
H252 C250 0.961 . S
H253 C250 0.960 . S
C254 N255 1.342 . S
C254 C258 1.401 . S
C254 C259 1.499 . S
N255 Co238 1.989 . S
N255 C254 1.342 . S
N255 N256 1.388 . S
N256 Co239 1.993 . S
N256 N255 1.388 . S
N256 C257 1.346 . S
C257 N256 1.346 . S
C257 C258 1.396 . S
C257 C267 1.510 . S
C258 C254 1.401 . S
C258 C257 1.396 . S
C259 C254 1.499 . S
C259 H260 0.959 . S
C259 H261 0.960 . S
C259 H262 0.961 . S
H260 C259 0.959 . S
H261 C259 0.960 . S
H262 C259 0.961 . S
O263 Co238 1.967 . S
O263 C271 1.258 . S
O264 Co239 1.941 . S
O264 C271 1.266 . S
H265 C267 0.959 . S
H266 C267 0.961 . S
C267 C257 1.510 . S
C267 H265 0.959 . S
C267 H266 0.961 . S
C267 H268 0.960 . S
H268 C267 0.960 . S
H269 N249 0.862 . S
O270 Co238 1.920 . S
O270 C243 1.289 . S
C271 O263 1.258 . S
C271 O264 1.266 . S
Co272 O275 1.970 . S
Co272 N289 1.989 . S
Co272 O297 1.967 . S
Co272 O304 1.920 . S
Co273 O276 1.966 . S
Co273 N282 2.022 . S
Co273 N290 1.993 . S
Co273 O298 1.941 . S
C274 O275 1.258 . S
C274 O276 1.263 . S
O275 Co272 1.970 . S
O275 C274 1.258 . S
O276 Co273 1.966 . S
O276 C274 1.263 . S
C277 O278 1.235 . S
C277 O304 1.289 . S
O278 C277 1.235 . S
C279 C281 1.400 . S
C279 N282 1.351 . S
C279 C284 1.501 . S
C280 C281 1.387 . S
C280 N283 1.341 . S
C281 C279 1.400 . S
C281 C280 1.387 . S
N282 Co273 2.022 . S
N282 C279 1.351 . S
N282 N283 1.365 . S
N283 C280 1.341 . S
N283 N282 1.365 . S
N283 H303 0.862 . S
C284 C279 1.501 . S
C284 H285 0.961 . S
C284 H286 0.961 . S
C284 H287 0.960 . S
H285 C284 0.961 . S
H286 C284 0.961 . S
H287 C284 0.960 . S
C288 N289 1.342 . S
C288 C292 1.401 . S
C288 C293 1.499 . S
N289 Co272 1.989 . S
N289 C288 1.342 . S
N289 N290 1.388 . S
N290 Co273 1.993 . S
N290 N289 1.388 . S
N290 C291 1.346 . S
C291 N290 1.346 . S
C291 C292 1.396 . S
C291 C301 1.510 . S
C292 C288 1.401 . S
C292 C291 1.396 . S
C293 C288 1.499 . S
C293 H294 0.959 . S
C293 H295 0.960 . S
C293 H296 0.961 . S
H294 C293 0.959 . S
H295 C293 0.960 . S
H296 C293 0.961 . S
O297 Co272 1.967 . S
O297 C305 1.258 . S
O298 Co273 1.941 . S
O298 C305 1.266 . S
H299 C301 0.959 . S
H300 C301 0.961 . S
C301 C291 1.510 . S
C301 H299 0.959 . S
C301 H300 0.961 . S
C301 H302 0.960 . S
H302 C301 0.960 . S
H303 N283 0.862 . S
O304 Co272 1.920 . S
O304 C277 1.289 . S
C305 O297 1.258 . S
C305 O298 1.266 . S
Co306 O309 1.970 . S
Co306 N323 1.989 . S
Co306 O331 1.967 . S
Co306 O338 1.920 . S
Co307 O310 1.966 . S
Co307 N316 2.022 . S
Co307 N324 1.993 . S
Co307 O332 1.941 . S
C308 O309 1.258 . S
C308 O310 1.263 . S
O309 Co306 1.970 . S
O309 C308 1.258 . S
O310 Co307 1.966 . S
O310 C308 1.263 . S
C311 O312 1.235 . S
C311 O338 1.289 . S
O312 C311 1.235 . S
C313 C315 1.400 . S
C313 N316 1.351 . S
C313 C318 1.501 . S
C314 C315 1.387 . S
C314 N317 1.341 . S
C315 C313 1.400 . S
C315 C314 1.387 . S
N316 Co307 2.022 . S
N316 C313 1.351 . S
N316 N317 1.365 . S
N317 C314 1.341 . S
N317 N316 1.365 . S
N317 H337 0.862 . S
C318 C313 1.501 . S
C318 H319 0.961 . S
C318 H320 0.961 . S
C318 H321 0.960 . S
H319 C318 0.961 . S
H320 C318 0.961 . S
H321 C318 0.960 . S
C322 N323 1.342 . S
C322 C326 1.401 . S
C322 C327 1.499 . S
N323 Co306 1.989 . S
N323 C322 1.342 . S
N323 N324 1.388 . S
N324 Co307 1.993 . S
N324 N323 1.388 . S
N324 C325 1.346 . S
C325 N324 1.346 . S
C325 C326 1.396 . S
C325 C335 1.510 . S
C326 C322 1.401 . S
C326 C325 1.396 . S
C327 C322 1.499 . S
C327 H328 0.959 . S
C327 H329 0.960 . S
C327 H330 0.961 . S
H328 C327 0.959 . S
H329 C327 0.960 . S
H330 C327 0.961 . S
O331 Co306 1.967 . S
O331 C339 1.258 . S
O332 Co307 1.941 . S
O332 C339 1.266 . S
H333 C335 0.959 . S
H334 C335 0.961 . S
C335 C325 1.510 . S
C335 H333 0.959 . S
C335 H334 0.961 . S
C335 H336 0.960 . S
H336 C335 0.960 . S
H337 N317 0.862 . S
O338 Co306 1.920 . S
O338 C311 1.289 . S
C339 O331 1.258 . S
C339 O332 1.266 . S
Co340 O343 1.970 . S
Co340 N357 1.989 . S
Co340 O365 1.967 . S
Co340 O372 1.920 . S
Co341 O344 1.966 . S
Co341 N350 2.022 . S
Co341 N358 1.993 . S
Co341 O366 1.941 . S
C342 O343 1.258 . S
C342 O344 1.263 . S
O343 Co340 1.970 . S
O343 C342 1.258 . S
O344 Co341 1.966 . S
O344 C342 1.263 . S
C345 O346 1.235 . S
C345 O372 1.289 . S
O346 C345 1.235 . S
C347 C349 1.400 . S
C347 N350 1.351 . S
C347 C352 1.501 . S
C348 C349 1.387 . S
C348 N351 1.341 . S
C349 C347 1.400 . S
C349 C348 1.387 . S
N350 Co341 2.022 . S
N350 C347 1.351 . S
N350 N351 1.365 . S
N351 C348 1.341 . S
N351 N350 1.365 . S
N351 H371 0.862 . S
C352 C347 1.501 . S
C352 H353 0.961 . S
C352 H354 0.961 . S
C352 H355 0.960 . S
H353 C352 0.961 . S
H354 C352 0.961 . S
H355 C352 0.960 . S
C356 N357 1.342 . S
C356 C360 1.401 . S
C356 C361 1.499 . S
N357 Co340 1.989 . S
N357 C356 1.342 . S
N357 N358 1.388 . S
N358 Co341 1.993 . S
N358 N357 1.388 . S
N358 C359 1.346 . S
C359 N358 1.346 . S
C359 C360 1.396 . S
C359 C369 1.510 . S
C360 C356 1.401 . S
C360 C359 1.396 . S
C361 C356 1.499 . S
C361 H362 0.959 . S
C361 H363 0.960 . S
C361 H364 0.961 . S
H362 C361 0.959 . S
H363 C361 0.960 . S
H364 C361 0.961 . S
O365 Co340 1.967 . S
O365 C373 1.258 . S
O366 Co341 1.941 . S
O366 C373 1.266 . S
H367 C369 0.959 . S
H368 C369 0.961 . S
C369 C359 1.510 . S
C369 H367 0.959 . S
C369 H368 0.961 . S
C369 H370 0.960 . S
H370 C369 0.960 . S
H371 N351 0.862 . S
O372 Co340 1.920 . S
O372 C345 1.289 . S
C373 O365 1.258 . S
C373 O366 1.266 . S
Co374 O377 1.970 . S
Co374 N391 1.989 . S
Co374 O399 1.967 . S
Co374 O406 1.920 . S
Co375 O378 1.966 . S
Co375 N384 2.022 . S
Co375 N392 1.993 . S
Co375 O400 1.941 . S
C376 O377 1.258 . S
C376 O378 1.263 . S
O377 Co374 1.970 . S
O377 C376 1.258 . S
O378 Co375 1.966 . S
O378 C376 1.263 . S
C379 O380 1.235 . S
C379 O406 1.289 . S
O380 C379 1.235 . S
C381 C383 1.400 . S
C381 N384 1.351 . S
C381 C386 1.501 . S
C382 C383 1.387 . S
C382 N385 1.341 . S
C383 C381 1.400 . S
C383 C382 1.387 . S
N384 Co375 2.022 . S
N384 C381 1.351 . S
N384 N385 1.365 . S
N385 C382 1.341 . S
N385 N384 1.365 . S
N385 H405 0.862 . S
C386 C381 1.501 . S
C386 H387 0.961 . S
C386 H388 0.961 . S
C386 H389 0.960 . S
H387 C386 0.961 . S
H388 C386 0.961 . S
H389 C386 0.960 . S
C390 N391 1.342 . S
C390 C394 1.401 . S
C390 C395 1.499 . S
N391 Co374 1.989 . S
N391 C390 1.342 . S
N391 N392 1.388 . S
N392 Co375 1.993 . S
N392 N391 1.388 . S
N392 C393 1.346 . S
C393 N392 1.346 . S
C393 C394 1.396 . S
C393 C403 1.510 . S
C394 C390 1.401 . S
C394 C393 1.396 . S
C395 C390 1.499 . S
C395 H396 0.959 . S
C395 H397 0.960 . S
C395 H398 0.961 . S
H396 C395 0.959 . S
H397 C395 0.960 . S
H398 C395 0.961 . S
O399 Co374 1.967 . S
O399 C407 1.258 . S
O400 Co375 1.941 . S
O400 C407 1.266 . S
H401 C403 0.959 . S
H402 C403 0.961 . S
C403 C393 1.510 . S
C403 H401 0.959 . S
C403 H402 0.961 . S
C403 H404 0.960 . S
H404 C403 0.960 . S
H405 N385 0.862 . S
O406 Co374 1.920 . S
O406 C379 1.289 . S
C407 O399 1.258 . S
C407 O400 1.266 . S
Co408 O411 1.970 1_554 S
Co408 N425 1.989 . S
Co408 O433 1.967 . S
Co408 O440 1.920 . S
Co409 O412 1.966 . S
Co409 N418 2.022 . S
Co409 N426 1.993 1_556 S
Co409 O434 1.941 . S
C410 O411 1.258 . S
C410 O412 1.263 . S
O411 Co408 1.970 1_556 S
O411 C410 1.258 . S
O412 Co409 1.966 . S
O412 C410 1.263 . S
C413 O414 1.235 . S
C413 O440 1.289 . S
O414 C413 1.235 . S
C415 C417 1.400 . S
C415 N418 1.351 . S
C415 C420 1.501 . S
C416 C417 1.387 . S
C416 N419 1.341 . S
C417 C415 1.400 . S
C417 C416 1.387 . S
N418 Co409 2.022 . S
N418 C415 1.351 . S
N418 N419 1.365 . S
N419 C416 1.341 . S
N419 N418 1.365 . S
N419 H439 0.862 . S
C420 C415 1.501 . S
C420 H421 0.961 . S
C420 H422 0.961 . S
C420 H423 0.960 . S
H421 C420 0.961 . S
H422 C420 0.961 . S
H423 C420 0.960 . S
C424 N425 1.342 . S
C424 C428 1.401 . S
C424 C429 1.499 . S
N425 Co408 1.989 . S
N425 C424 1.342 . S
N425 N426 1.388 . S
N426 Co409 1.993 1_554 S
N426 N425 1.388 . S
N426 C427 1.346 . S
C427 N426 1.346 . S
C427 C428 1.396 . S
C427 C437 1.510 . S
C428 C424 1.401 . S
C428 C427 1.396 . S
C429 C424 1.499 . S
C429 H430 0.959 . S
C429 H431 0.960 . S
C429 H432 0.961 . S
H430 C429 0.959 . S
H431 C429 0.960 . S
H432 C429 0.961 . S
O433 Co408 1.967 . S
O433 C441 1.258 1_554 S
O434 Co409 1.941 . S
O434 C441 1.266 . S
H435 C437 0.959 . S
H436 C437 0.961 . S
C437 C427 1.510 . S
C437 H435 0.959 . S
C437 H436 0.961 . S
C437 H438 0.960 1_554 S
H438 C437 0.960 1_556 S
H439 N419 0.862 . S
O440 Co408 1.920 . S
O440 C413 1.289 . S
C441 O433 1.258 1_556 S
C441 O434 1.266 . S
Co442 O445 1.970 1_554 S
Co442 N459 1.989 . S
Co442 O467 1.967 . S
Co442 O474 1.920 . S
Co443 O446 1.966 . S
Co443 N452 2.022 . S
Co443 N460 1.993 1_556 S
Co443 O468 1.941 . S
C444 O445 1.258 . S
C444 O446 1.263 . S
O445 Co442 1.970 1_556 S
O445 C444 1.258 . S
O446 Co443 1.966 . S
O446 C444 1.263 . S
C447 O448 1.235 . S
C447 O474 1.289 . S
O448 C447 1.235 . S
C449 C451 1.400 . S
C449 N452 1.351 . S
C449 C454 1.501 . S
C450 C451 1.387 . S
C450 N453 1.341 . S
C451 C449 1.400 . S
C451 C450 1.387 . S
N452 Co443 2.022 . S
N452 C449 1.351 . S
N452 N453 1.365 . S
N453 C450 1.341 . S
N453 N452 1.365 . S
N453 H473 0.862 . S
C454 C449 1.501 . S
C454 H455 0.961 . S
C454 H456 0.961 . S
C454 H457 0.960 . S
H455 C454 0.961 . S
H456 C454 0.961 . S
H457 C454 0.960 . S
C458 N459 1.342 . S
C458 C462 1.401 . S
C458 C463 1.499 . S
N459 Co442 1.989 . S
N459 C458 1.342 . S
N459 N460 1.388 . S
N460 Co443 1.993 1_554 S
N460 N459 1.388 . S
N460 C461 1.346 . S
C461 N460 1.346 . S
C461 C462 1.396 . S
C461 C471 1.510 . S
C462 C458 1.401 . S
C462 C461 1.396 . S
C463 C458 1.499 . S
C463 H464 0.959 . S
C463 H465 0.960 . S
C463 H466 0.961 . S
H464 C463 0.959 . S
H465 C463 0.960 . S
H466 C463 0.961 . S
O467 Co442 1.967 . S
O467 C475 1.258 1_554 S
O468 Co443 1.941 . S
O468 C475 1.266 . S
H469 C471 0.959 . S
H470 C471 0.961 . S
C471 C461 1.510 . S
C471 H469 0.959 . S
C471 H470 0.961 . S
C471 H472 0.960 1_554 S
H472 C471 0.960 1_556 S
H473 N453 0.862 . S
O474 Co442 1.920 . S
O474 C447 1.289 . S
C475 O467 1.258 1_556 S
C475 O468 1.266 . S
Co476 O479 1.970 1_554 S
Co476 N493 1.989 . S
Co476 O501 1.967 . S
Co476 O508 1.920 . S
Co477 O480 1.966 . S
Co477 N486 2.022 . S
Co477 N494 1.993 1_556 S
Co477 O502 1.941 . S
C478 O479 1.258 . S
C478 O480 1.263 . S
O479 Co476 1.970 1_556 S
O479 C478 1.258 . S
O480 Co477 1.966 . S
O480 C478 1.263 . S
C481 O482 1.235 . S
C481 O508 1.289 . S
O482 C481 1.235 . S
C483 C485 1.400 . S
C483 N486 1.351 . S
C483 C488 1.501 . S
C484 C485 1.387 . S
C484 N487 1.341 . S
C485 C483 1.400 . S
C485 C484 1.387 . S
N486 Co477 2.022 . S
N486 C483 1.351 . S
N486 N487 1.365 . S
N487 C484 1.341 . S
N487 N486 1.365 . S
N487 H507 0.862 . S
C488 C483 1.501 . S
C488 H489 0.961 . S
C488 H490 0.961 . S
C488 H491 0.960 . S
H489 C488 0.961 . S
H490 C488 0.961 . S
H491 C488 0.960 . S
C492 N493 1.342 . S
C492 C496 1.401 . S
C492 C497 1.499 . S
N493 Co476 1.989 . S
N493 C492 1.342 . S
N493 N494 1.388 . S
N494 Co477 1.993 1_554 S
N494 N493 1.388 . S
N494 C495 1.346 . S
C495 N494 1.346 . S
C495 C496 1.396 . S
C495 C505 1.510 . S
C496 C492 1.401 . S
C496 C495 1.396 . S
C497 C492 1.499 . S
C497 H498 0.959 . S
C497 H499 0.960 . S
C497 H500 0.961 . S
H498 C497 0.959 . S
H499 C497 0.960 . S
H500 C497 0.961 . S
O501 Co476 1.967 . S
O501 C509 1.258 1_554 S
O502 Co477 1.941 . S
O502 C509 1.266 . S
H503 C505 0.959 . S
H504 C505 0.961 . S
C505 C495 1.510 . S
C505 H503 0.959 . S
C505 H504 0.961 . S
C505 H506 0.960 1_554 S
H506 C505 0.960 1_556 S
H507 N487 0.862 . S
O508 Co476 1.920 . S
O508 C481 1.289 . S
C509 O501 1.258 1_556 S
C509 O502 1.266 . S
Co510 O513 1.970 1_554 S
Co510 N527 1.989 . S
Co510 O535 1.967 . S
Co510 O542 1.920 . S
Co511 O514 1.966 . S
Co511 N520 2.022 . S
Co511 N528 1.993 1_556 S
Co511 O536 1.941 . S
C512 O513 1.258 . S
C512 O514 1.263 . S
O513 Co510 1.970 1_556 S
O513 C512 1.258 . S
O514 Co511 1.966 . S
O514 C512 1.263 . S
C515 O516 1.235 . S
C515 O542 1.289 . S
O516 C515 1.235 . S
C517 C519 1.400 . S
C517 N520 1.351 . S
C517 C522 1.501 . S
C518 C519 1.387 . S
C518 N521 1.341 . S
C519 C517 1.400 . S
C519 C518 1.387 . S
N520 Co511 2.022 . S
N520 C517 1.351 . S
N520 N521 1.365 . S
N521 C518 1.341 . S
N521 N520 1.365 . S
N521 H541 0.862 . S
C522 C517 1.501 . S
C522 H523 0.961 . S
C522 H524 0.961 . S
C522 H525 0.960 . S
H523 C522 0.961 . S
H524 C522 0.961 . S
H525 C522 0.960 . S
C526 N527 1.342 . S
C526 C530 1.401 . S
C526 C531 1.499 . S
N527 Co510 1.989 . S
N527 C526 1.342 . S
N527 N528 1.388 . S
N528 Co511 1.993 1_554 S
N528 N527 1.388 . S
N528 C529 1.346 . S
C529 N528 1.346 . S
C529 C530 1.396 . S
C529 C539 1.510 . S
C530 C526 1.401 . S
C530 C529 1.396 . S
C531 C526 1.499 . S
C531 H532 0.959 . S
C531 H533 0.960 . S
C531 H534 0.961 . S
H532 C531 0.959 . S
H533 C531 0.960 . S
H534 C531 0.961 . S
O535 Co510 1.967 . S
O535 C543 1.258 1_554 S
O536 Co511 1.941 . S
O536 C543 1.266 . S
H537 C539 0.959 . S
H538 C539 0.961 . S
C539 C529 1.510 . S
C539 H537 0.959 . S
C539 H538 0.961 . S
C539 H540 0.960 1_554 S
H540 C539 0.960 1_556 S
H541 N521 0.862 . S
O542 Co510 1.920 . S
O542 C515 1.289 . S
C543 O535 1.258 1_556 S
C543 O536 1.266 . S
H544 C552 0.950 . S
H545 C557 0.950 . S
H546 C554 0.950 . S
H547 C556 0.950 . S
H548 C558 0.950 . S
H549 C560 0.950 . S
H550 C562 0.950 . S
H551 C563 0.950 . S
C552 H544 0.950 . S
C552 C553 1.386 1_556 S
C552 C554 1.391 . S
C553 C552 1.386 1_554 S
C553 C557 1.393 . S
C554 H546 0.950 . S
C554 C552 1.391 . S
C554 C555 1.391 1_556 S
C555 C554 1.391 1_554 S
C555 C556 1.408 . S
C555 C561 1.490 . S
C556 H547 0.950 . S
C556 C555 1.408 . S
C556 C557 1.391 . S
C557 H545 0.950 . S
C557 C553 1.393 . S
C557 C556 1.391 . S
C558 H548 0.950 . S
C558 C559 1.386 1_554 S
C558 C560 1.391 . S
C559 C558 1.386 1_556 S
C559 C563 1.393 . S
C560 H549 0.950 . S
C560 C558 1.391 . S
C560 C561 1.400 . S
C561 C555 1.490 . S
C561 C560 1.400 . S
C561 C562 1.398 1_554 S
C562 H550 0.950 . S
C562 C561 1.398 1_556 S
C562 C563 1.391 . S
C563 H551 0.950 . S
C563 C559 1.393 . S
C563 C562 1.391 . S
H564 C572 0.950 . S
H565 C577 0.950 . S
H566 C574 0.950 . S
H567 C576 0.950 . S
H568 C578 0.950 . S
H569 C580 0.950 . S
H570 C582 0.950 . S
H571 C583 0.950 . S
C572 H564 0.950 . S
C572 C573 1.386 1_554 S
C572 C574 1.391 . S
C573 C572 1.386 1_556 S
C573 C577 1.393 . S
C574 H566 0.950 . S
C574 C572 1.391 . S
C574 C575 1.402 . S
C575 C574 1.402 . S
C575 C576 1.397 1_554 S
C575 C581 1.491 . S
C576 H567 0.950 . S
C576 C575 1.397 1_556 S
C576 C577 1.391 . S
C577 H565 0.950 . S
C577 C573 1.393 . S
C577 C576 1.391 . S
C578 H568 0.950 . S
C578 C579 1.386 1_556 S
C578 C580 1.391 . S
C579 C578 1.386 1_554 S
C579 C583 1.393 . S
C580 H569 0.950 . S
C580 C578 1.391 . S
C580 C581 1.396 1_556 S
C581 C575 1.491 . S
C581 C580 1.396 1_554 S
C581 C582 1.402 . S
C582 H570 0.950 . S
C582 C581 1.402 . S
C582 C583 1.391 . S
C583 H571 0.950 . S
C583 C579 1.393 . S
C583 C582 1.391 . S
H584 C592 0.950 . S
H585 C597 0.950 . S
H586 C594 0.950 . S
H587 C596 0.950 . S
H588 C598 0.950 . S
H589 C600 0.950 . S
H590 C602 0.950 . S
H591 C603 0.950 . S
C592 H584 0.950 . S
C592 C593 1.386 . S
C592 C594 1.391 . S
C593 C592 1.386 . S
C593 C597 1.393 . S
C594 H586 0.950 . S
C594 C592 1.391 . S
C594 C595 1.400 . S
C595 C594 1.400 . S
C595 C596 1.398 . S
C595 C601 1.491 1_556 S
C596 H587 0.950 . S
C596 C595 1.398 . S
C596 C597 1.391 . S
C597 H585 0.950 . S
C597 C593 1.393 . S
C597 C596 1.391 . S
C598 H588 0.950 . S
C598 C599 1.386 . S
C598 C600 1.391 . S
C599 C598 1.386 . S
C599 C603 1.393 . S
C600 H589 0.950 . S
C600 C598 1.391 . S
C600 C601 1.400 . S
C601 C595 1.491 1_554 S
C601 C600 1.400 . S
C601 C602 1.398 . S
C602 H590 0.950 . S
C602 C601 1.398 . S
C602 C603 1.391 . S
C603 H591 0.950 . S
C603 C599 1.393 . S
C603 C602 1.391 . S
H604 C612 0.950 . S
H605 C617 0.950 . S
H606 C614 0.950 . S
H607 C616 0.950 . S
H608 C618 0.950 . S
H609 C620 0.950 . S
H610 C622 0.950 . S
H611 C623 0.950 . S
C612 H604 0.950 . S
C612 C613 1.386 1_554 S
C612 C614 1.391 . S
C613 C612 1.386 1_556 S
C613 C617 1.393 . S
C614 H606 0.950 . S
C614 C612 1.391 . S
C614 C615 1.400 1_554 S
C615 C614 1.400 1_556 S
C615 C616 1.398 . S
C615 C621 1.491 1_556 S
C616 H607 0.950 . S
C616 C615 1.398 . S
C616 C617 1.391 . S
C617 H605 0.950 . S
C617 C613 1.393 . S
C617 C616 1.391 . S
C618 H608 0.950 . S
C618 C619 1.386 1_556 S
C618 C620 1.391 . S
C619 C618 1.386 1_554 S
C619 C623 1.393 . S
C620 H609 0.950 . S
C620 C618 1.391 . S
C620 C621 1.400 1_556 S
C621 C615 1.491 1_554 S
C621 C620 1.400 1_554 S
C621 C622 1.398 . S
C622 H610 0.950 . S
C622 C621 1.398 . S
C622 C623 1.391 . S
C623 H611 0.950 . S
C623 C619 1.393 . S
C623 C622 1.391 . S
H624 C632 0.950 . S
H625 C637 0.950 . S
H626 C634 0.950 . S
H627 C636 0.950 . S
H628 C638 0.950 . S
H629 C640 0.950 . S
H630 C642 0.950 . S
H631 C643 0.950 . S
C632 H624 0.950 . S
C632 C633 1.386 . S
C632 C634 1.391 . S
C633 C632 1.386 . S
C633 C637 1.393 . S
C634 H626 0.950 . S
C634 C632 1.391 . S
C634 C635 1.400 . S
C635 C634 1.400 . S
C635 C636 1.398 . S
C635 C641 1.491 . S
C636 H627 0.950 . S
C636 C635 1.398 . S
C636 C637 1.391 . S
C637 H625 0.950 . S
C637 C633 1.393 . S
C637 C636 1.391 . S
C638 H628 0.950 . S
C638 C639 1.386 . S
C638 C640 1.391 . S
C639 C638 1.386 . S
C639 C643 1.393 . S
C640 H629 0.950 . S
C640 C638 1.391 . S
C640 C641 1.400 . S
C641 C635 1.491 . S
C641 C640 1.400 . S
C641 C642 1.398 . S
C642 H630 0.950 . S
C642 C641 1.398 . S
C642 C643 1.391 . S
C643 H631 0.950 . S
C643 C639 1.393 . S
C643 C642 1.391 . S
H644 C652 0.950 . S
H645 C657 0.950 . S
H646 C654 0.950 . S
H647 C656 0.950 . S
H648 C658 0.950 . S
H649 C660 0.950 . S
H650 C662 0.950 . S
H651 C663 0.950 . S
C652 H644 0.950 . S
C652 C653 1.386 . S
C652 C654 1.391 . S
C653 C652 1.386 . S
C653 C657 1.393 . S
C654 H646 0.950 . S
C654 C652 1.391 . S
C654 C655 1.400 . S
C655 C654 1.400 . S
C655 C656 1.398 . S
C655 C661 1.491 . S
C656 H647 0.950 . S
C656 C655 1.398 . S
C656 C657 1.391 . S
C657 H645 0.950 . S
C657 C653 1.393 . S
C657 C656 1.391 . S
C658 H648 0.950 . S
C658 C659 1.386 . S
C658 C660 1.391 . S
C659 C658 1.386 . S
C659 C663 1.393 . S
C660 H649 0.950 . S
C660 C658 1.391 . S
C660 C661 1.400 . S
C661 C655 1.491 . S
C661 C660 1.400 . S
C661 C662 1.398 . S
C662 H650 0.950 . S
C662 C661 1.398 . S
C662 C663 1.391 . S
C663 H651 0.950 . S
C663 C659 1.393 . S
C663 C662 1.391 . S
H664 C672 0.950 . S
H665 C677 0.950 . S
H666 C674 0.950 . S
H667 C676 0.950 . S
H668 C678 0.950 . S
H669 C680 0.950 . S
H670 C682 0.950 . S
H671 C683 0.950 . S
C672 H664 0.950 . S
C672 C673 1.386 . S
C672 C674 1.391 . S
C673 C672 1.386 . S
C673 C677 1.393 . S
C674 H666 0.950 . S
C674 C672 1.391 . S
C674 C675 1.400 . S
C675 C674 1.400 . S
C675 C676 1.398 . S
C675 C681 1.491 . S
C676 H667 0.950 . S
C676 C675 1.398 . S
C676 C677 1.391 . S
C677 H665 0.950 . S
C677 C673 1.393 . S
C677 C676 1.391 . S
C678 H668 0.950 . S
C678 C679 1.386 . S
C678 C680 1.391 . S
C679 C678 1.386 . S
C679 C683 1.393 . S
C680 H669 0.950 . S
C680 C678 1.391 . S
C680 C681 1.400 . S
C681 C675 1.491 . S
C681 C680 1.400 . S
C681 C682 1.398 . S
C682 H670 0.950 . S
C682 C681 1.398 . S
C682 C683 1.391 . S
C683 H671 0.950 . S
C683 C679 1.393 . S
C683 C682 1.391 . S
H684 C692 0.950 . S
H685 C697 0.950 . S
H686 C694 0.950 . S
H687 C696 0.950 . S
H688 C698 0.950 . S
H689 C700 0.950 . S
H690 C702 0.950 . S
H691 C703 0.950 . S
C692 H684 0.950 . S
C692 C693 1.386 . S
C692 C694 1.391 . S
C693 C692 1.386 . S
C693 C697 1.393 . S
C694 H686 0.950 . S
C694 C692 1.391 . S
C694 C695 1.400 . S
C695 C694 1.400 . S
C695 C696 1.398 . S
C695 C701 1.491 . S
C696 H687 0.950 . S
C696 C695 1.398 . S
C696 C697 1.391 . S
C697 H685 0.950 . S
C697 C693 1.393 . S
C697 C696 1.391 . S
C698 H688 0.950 . S
C698 C699 1.386 . S
C698 C700 1.391 . S
C699 C698 1.386 . S
C699 C703 1.393 . S
C700 H689 0.950 . S
C700 C698 1.391 . S
C700 C701 1.400 . S
C701 C695 1.491 . S
C701 C700 1.400 . S
C701 C702 1.398 . S
C702 H690 0.950 . S
C702 C701 1.398 . S
C702 C703 1.391 . S
C703 H691 0.950 . S
C703 C699 1.393 . S
C703 C702 1.391 . S
H704 C712 0.950 . S
H705 C717 0.950 . S
H706 C714 0.950 . S
H707 C716 0.950 . S
H708 C718 0.950 . S
H709 C720 0.950 . S
H710 C722 0.950 . S
H711 C723 0.950 . S
C712 H704 0.950 . S
C712 C713 1.386 . S
C712 C714 1.391 . S
C713 C712 1.386 . S
C713 C717 1.393 . S
C714 H706 0.950 . S
C714 C712 1.391 . S
C714 C715 1.400 . S
C715 C714 1.400 . S
C715 C716 1.398 . S
C715 C721 1.491 1_655 S
C716 H707 0.950 . S
C716 C715 1.398 . S
C716 C717 1.391 . S
C717 H705 0.950 . S
C717 C713 1.393 . S
C717 C716 1.391 . S
C718 H708 0.950 . S
C718 C719 1.386 . S
C718 C720 1.391 . S
C719 C718 1.386 . S
C719 C723 1.393 . S
C720 H709 0.950 . S
C720 C718 1.391 . S
C720 C721 1.400 . S
C721 C715 1.491 1_455 S
C721 C720 1.400 . S
C721 C722 1.398 . S
C722 H710 0.950 . S
C722 C721 1.398 . S
C722 C723 1.391 . S
C723 H711 0.950 . S
C723 C719 1.393 . S
C723 C722 1.391 . S
H724 C732 0.950 . S
H725 C737 0.950 . S
H726 C734 0.950 . S
H727 C736 0.950 1_545 S
H728 C738 0.950 . S
H729 C740 0.950 . S
H730 C742 0.950 1_565 S
H731 C743 0.950 . S
C732 H724 0.950 . S
C732 C733 1.386 . S
C732 C734 1.391 . S
C733 C732 1.386 . S
C733 C737 1.393 . S
C734 H726 0.950 . S
C734 C732 1.391 . S
C734 C735 1.400 . S
C735 C734 1.400 . S
C735 C736 1.398 . S
C735 C741 1.491 1_565 S
C736 H727 0.950 1_565 S
C736 C735 1.398 . S
C736 C737 1.391 . S
C737 H725 0.950 . S
C737 C733 1.393 . S
C737 C736 1.391 . S
C738 H728 0.950 . S
C738 C739 1.386 . S
C738 C740 1.391 . S
C739 C738 1.386 . S
C739 C743 1.393 . S
C740 H729 0.950 . S
C740 C738 1.391 . S
C740 C741 1.400 . S
C741 C735 1.491 1_545 S
C741 C740 1.400 . S
C741 C742 1.398 . S
C742 H730 0.950 1_545 S
C742 C741 1.398 . S
C742 C743 1.391 . S
C743 H731 0.950 . S
C743 C739 1.393 . S
C743 C742 1.391 . S
H744 C752 0.950 . S
H745 C757 0.950 . S
H746 C754 0.950 . S
H747 C756 0.950 . S
H748 C758 0.950 . S
H749 C760 0.950 . S
H750 C762 0.950 . S
H751 C763 0.950 . S
C752 H744 0.950 . S
C752 C753 1.386 . S
C752 C754 1.391 . S
C753 C752 1.386 . S
C753 C757 1.393 . S
C754 H746 0.950 . S
C754 C752 1.391 . S
C754 C755 1.400 . S
C755 C754 1.400 . S
C755 C756 1.398 . S
C755 C761 1.491 1_455 S
C756 H747 0.950 . S
C756 C755 1.398 . S
C756 C757 1.391 . S
C757 H745 0.950 . S
C757 C753 1.393 . S
C757 C756 1.391 . S
C758 H748 0.950 . S
C758 C759 1.386 . S
C758 C760 1.391 . S
C759 C758 1.386 . S
C759 C763 1.393 . S
C760 H749 0.950 . S
C760 C758 1.391 . S
C760 C761 1.400 . S
C761 C755 1.491 1_655 S
C761 C760 1.400 . S
C761 C762 1.398 . S
C762 H750 0.950 . S
C762 C761 1.398 . S
C762 C763 1.391 . S
C763 H751 0.950 . S
C763 C759 1.393 . S
C763 C762 1.391 . S
H764 C772 0.950 . S
H765 C777 0.950 . S
H766 C774 0.950 1_565 S
H767 C776 0.950 . S
H768 C778 0.950 . S
H769 C780 0.950 1_545 S
H770 C782 0.950 . S
H771 C783 0.950 . S
C772 H764 0.950 . S
C772 C773 1.386 . S
C772 C774 1.391 . S
C773 C772 1.386 . S
C773 C777 1.393 . S
C774 H766 0.950 1_545 S
C774 C772 1.391 . S
C774 C775 1.400 . S
C775 C774 1.400 . S
C775 C776 1.398 . S
C775 C781 1.491 1_545 S
C776 H767 0.950 . S
C776 C775 1.398 . S
C776 C777 1.391 . S
C777 H765 0.950 . S
C777 C773 1.393 . S
C777 C776 1.391 . S
C778 H768 0.950 . S
C778 C779 1.386 . S
C778 C780 1.391 . S
C779 C778 1.386 . S
C779 C783 1.393 . S
C780 H769 0.950 1_565 S
C780 C778 1.391 . S
C780 C781 1.400 . S
C781 C775 1.491 1_565 S
C781 C780 1.400 . S
C781 C782 1.398 . S
C782 H770 0.950 . S
C782 C781 1.398 . S
C782 C783 1.391 . S
C783 H771 0.950 . S
C783 C779 1.393 . S
C783 C782 1.391 . S
H784 C792 0.950 . S
H785 C797 0.950 . S
H786 C794 0.944 1_655 S
H787 C796 0.950 . S
H788 C798 0.950 . S
H789 C800 0.944 1_455 S
H790 C802 0.950 . S
H791 C803 0.950 . S
C792 H784 0.950 . S
C792 C793 1.386 . S
C792 C794 1.391 . S
C793 C792 1.386 . S
C793 C797 1.393 . S
C794 H786 0.944 1_455 S
C794 C792 1.391 . S
C794 C795 1.400 . S
C795 C794 1.400 . S
C795 C796 1.398 . S
C795 C801 1.491 1_455 S
C796 H787 0.950 . S
C796 C795 1.398 . S
C796 C797 1.391 . S
C797 H785 0.950 . S
C797 C793 1.393 . S
C797 C796 1.391 . S
C798 H788 0.950 . S
C798 C799 1.386 . S
C798 C800 1.391 . S
C799 C798 1.386 . S
C799 C803 1.393 . S
C800 H789 0.944 1_655 S
C800 C798 1.391 . S
C800 C801 1.400 . S
C801 C795 1.491 1_655 S
C801 C800 1.400 . S
C801 C802 1.398 . S
C802 H790 0.950 . S
C802 C801 1.398 . S
C802 C803 1.391 . S
C803 H791 0.950 . S
C803 C799 1.393 . S
C803 C802 1.391 . S
H804 C812 0.950 . S
H805 C817 0.950 . S
H806 C814 0.950 . S
H807 C816 0.950 . S
H808 C818 0.950 . S
H809 C820 0.950 . S
H810 C822 0.950 . S
H811 C823 0.950 . S
C812 H804 0.950 . S
C812 C813 1.386 . S
C812 C814 1.391 . S
C813 C812 1.386 . S
C813 C817 1.393 . S
C814 H806 0.950 . S
C814 C812 1.391 . S
C814 C815 1.400 . S
C815 C814 1.400 . S
C815 C816 1.398 . S
C815 C821 1.491 1_565 S
C816 H807 0.950 . S
C816 C815 1.398 . S
C816 C817 1.391 . S
C817 H805 0.950 . S
C817 C813 1.393 . S
C817 C816 1.391 . S
C818 H808 0.950 . S
C818 C819 1.386 . S
C818 C820 1.391 . S
C819 C818 1.386 . S
C819 C823 1.393 . S
C820 H809 0.950 . S
C820 C818 1.391 . S
C820 C821 1.400 . S
C821 C815 1.491 1_545 S
C821 C820 1.400 . S
C821 C822 1.398 . S
C822 H810 0.950 . S
C822 C821 1.398 . S
C822 C823 1.391 . S
C823 H811 0.950 . S
C823 C819 1.393 . S
C823 C822 1.391 . S
H824 C832 0.950 . S
H825 C837 0.950 . S
H826 C834 0.950 . S
H827 C836 0.950 1_455 S
H828 C838 0.950 . S
H829 C840 0.950 . S
H830 C842 0.950 1_655 S
H831 C843 0.950 . S
C832 H824 0.950 . S
C832 C833 1.386 . S
C832 C834 1.391 . S
C833 C832 1.386 . S
C833 C837 1.393 . S
C834 H826 0.950 . S
C834 C832 1.391 . S
C834 C835 1.400 . S
C835 C834 1.400 . S
C835 C836 1.398 . S
C835 C841 1.491 1_655 S
C836 H827 0.950 1_655 S
C836 C835 1.398 . S
C836 C837 1.391 . S
C837 H825 0.950 . S
C837 C833 1.393 . S
C837 C836 1.391 . S
C838 H828 0.950 . S
C838 C839 1.386 . S
C838 C840 1.391 . S
C839 C838 1.386 . S
C839 C843 1.393 . S
C840 H829 0.950 . S
C840 C838 1.391 . S
C840 C841 1.400 . S
C841 C835 1.491 1_455 S
C841 C840 1.400 . S
C841 C842 1.398 . S
C842 H830 0.950 1_455 S
C842 C841 1.398 . S
C842 C843 1.391 . S
C843 H831 0.950 . S
C843 C839 1.393 . S
C843 C842 1.391 . S
H844 C852 0.950 . S
H845 C857 0.950 . S
H846 C854 0.950 . S
H847 C856 0.950 1_565 S
H848 C858 0.950 . S
H849 C860 0.950 . S
H850 C862 0.950 1_545 S
H851 C863 0.950 . S
C852 H844 0.950 . S
C852 C853 1.386 . S
C852 C854 1.391 . S
C853 C852 1.386 . S
C853 C857 1.393 . S
C854 H846 0.950 . S
C854 C852 1.391 . S
C854 C855 1.400 . S
C855 C854 1.400 . S
C855 C856 1.398 . S
C855 C861 1.491 1_545 S
C856 H847 0.950 1_545 S
C856 C855 1.398 . S
C856 C857 1.391 . S
C857 H845 0.950 . S
C857 C853 1.393 . S
C857 C856 1.391 . S
C858 H848 0.950 . S
C858 C859 1.386 . S
C858 C860 1.391 . S
C859 C858 1.386 . S
C859 C863 1.393 . S
C860 H849 0.950 . S
C860 C858 1.391 . S
C860 C861 1.400 . S
C861 C855 1.491 1_565 S
C861 C860 1.400 . S
C861 C862 1.398 . S
C862 H850 0.950 1_565 S
C862 C861 1.398 . S
C862 C863 1.391 . S
C863 H851 0.950 . S
C863 C859 1.393 . S
C863 C862 1.391 . S
H864 C872 0.950 . S
H865 C877 0.950 . S
H866 C874 0.950 . S
H867 C876 0.950 . S
H868 C878 0.950 . S
H869 C880 0.950 . S
H870 C882 0.950 . S
H871 C883 0.950 . S
C872 H864 0.950 . S
C872 C873 1.386 . S
C872 C874 1.391 . S
C873 C872 1.386 . S
C873 C877 1.393 . S
C874 H866 0.950 . S
C874 C872 1.391 . S
C874 C875 1.400 . S
C875 C874 1.400 . S
C875 C876 1.398 . S
C875 C881 1.491 . S
C876 H867 0.950 . S
C876 C875 1.398 . S
C876 C877 1.391 . S
C877 H865 0.950 . S
C877 C873 1.393 . S
C877 C876 1.391 . S
C878 H868 0.950 . S
C878 C879 1.386 . S
C878 C880 1.391 . S
C879 C878 1.386 . S
C879 C883 1.393 . S
C880 H869 0.950 . S
C880 C878 1.391 . S
C880 C881 1.400 . S
C881 C875 1.491 . S
C881 C880 1.400 . S
C881 C882 1.398 . S
C882 H870 0.950 . S
C882 C881 1.398 . S
C882 C883 1.391 . S
C883 H871 0.950 . S
C883 C879 1.393 . S
C883 C882 1.391 . S
H884 C892 0.950 . S
H885 C897 0.950 . S
H886 C894 0.950 . S
H887 C896 0.950 . S
H888 C898 0.950 . S
H889 C900 0.950 . S
H890 C902 0.950 . S
H891 C903 0.950 . S
C892 H884 0.950 . S
C892 C893 1.386 . S
C892 C894 1.391 . S
C893 C892 1.386 . S
C893 C897 1.393 . S
C894 H886 0.950 . S
C894 C892 1.391 . S
C894 C895 1.400 . S
C895 C894 1.400 . S
C895 C896 1.398 . S
C895 C901 1.491 . S
C896 H887 0.950 . S
C896 C895 1.398 . S
C896 C897 1.391 . S
C897 H885 0.950 . S
C897 C893 1.393 . S
C897 C896 1.391 . S
C898 H888 0.950 . S
C898 C899 1.386 . S
C898 C900 1.391 . S
C899 C898 1.386 . S
C899 C903 1.393 . S
C900 H889 0.950 . S
C900 C898 1.391 . S
C900 C901 1.400 . S
C901 C895 1.491 . S
C901 C900 1.400 . S
C901 C902 1.398 . S
C902 H890 0.950 . S
C902 C901 1.398 . S
C902 C903 1.391 . S
C903 H891 0.950 . S
C903 C899 1.393 . S
C903 C902 1.391 . S
H904 C912 0.950 . S
H905 C917 0.950 . S
H906 C914 0.950 . S
H907 C916 0.950 . S
H908 C918 0.950 . S
H909 C920 0.950 . S
H910 C922 0.950 . S
H911 C923 0.950 . S
C912 H904 0.950 . S
C912 C913 1.386 . S
C912 C914 1.391 . S
C913 C912 1.386 . S
C913 C917 1.393 . S
C914 H906 0.950 . S
C914 C912 1.391 . S
C914 C915 1.400 . S
C915 C914 1.400 . S
C915 C916 1.398 . S
C915 C921 1.491 . S
C916 H907 0.950 . S
C916 C915 1.398 . S
C916 C917 1.391 . S
C917 H905 0.950 . S
C917 C913 1.393 . S
C917 C916 1.391 . S
C918 H908 0.950 . S
C918 C919 1.386 . S
C918 C920 1.391 . S
C919 C918 1.386 . S
C919 C923 1.393 . S
C920 H909 0.950 . S
C920 C918 1.391 . S
C920 C921 1.400 . S
C921 C915 1.491 . S
C921 C920 1.400 . S
C921 C922 1.398 . S
C922 H910 0.950 . S
C922 C921 1.398 . S
C922 C923 1.391 . S
C923 H911 0.950 . S
C923 C919 1.393 . S
C923 C922 1.391 . S
H924 C932 0.950 . S
H925 C937 0.950 . S
H926 C934 0.950 . S
H927 C936 0.950 . S
H928 C938 0.950 . S
H929 C940 0.950 . S
H930 C942 0.950 . S
H931 C943 0.950 . S
C932 H924 0.950 . S
C932 C933 1.386 . S
C932 C934 1.391 . S
C933 C932 1.386 . S
C933 C937 1.393 . S
C934 H926 0.950 . S
C934 C932 1.391 . S
C934 C935 1.400 . S
C935 C934 1.400 . S
C935 C936 1.398 . S
C935 C941 1.491 . S
C936 H927 0.950 . S
C936 C935 1.398 . S
C936 C937 1.391 . S
C937 H925 0.950 . S
C937 C933 1.393 . S
C937 C936 1.391 . S
C938 H928 0.950 . S
C938 C939 1.386 . S
C938 C940 1.391 . S
C939 C938 1.386 . S
C939 C943 1.393 . S
C940 H929 0.950 . S
C940 C938 1.391 . S
C940 C941 1.400 . S
C941 C935 1.491 . S
C941 C940 1.400 . S
C941 C942 1.398 . S
C942 H930 0.950 . S
C942 C941 1.398 . S
C942 C943 1.391 . S
C943 H931 0.950 . S
C943 C939 1.393 . S
C943 C942 1.391 . S
H944 C952 0.950 . S
H945 C957 0.950 . S
H946 C954 0.950 . S
H947 C956 0.950 . S
H948 C958 0.950 . S
H949 C960 0.950 . S
H950 C962 0.950 . S
H951 C963 0.950 . S
C952 H944 0.950 . S
C952 C953 1.386 . S
C952 C954 1.391 . S
C953 C952 1.386 . S
C953 C957 1.393 . S
C954 H946 0.950 . S
C954 C952 1.391 . S
C954 C955 1.400 . S
C955 C954 1.400 . S
C955 C956 1.398 . S
C955 C961 1.491 . S
C956 H947 0.950 . S
C956 C955 1.398 . S
C956 C957 1.391 . S
C957 H945 0.950 . S
C957 C953 1.393 . S
C957 C956 1.391 . S
C958 H948 0.950 . S
C958 C959 1.386 . S
C958 C960 1.391 . S
C959 C958 1.386 . S
C959 C963 1.393 . S
C960 H949 0.950 . S
C960 C958 1.391 . S
C960 C961 1.400 . S
C961 C955 1.491 . S
C961 C960 1.400 . S
C961 C962 1.398 . S
C962 H950 0.950 . S
C962 C961 1.398 . S
C962 C963 1.391 . S
C963 H951 0.950 . S
C963 C959 1.393 . S
C963 C962 1.391 . S
H964 C972 0.950 . S
H965 C977 0.950 . S
H966 C974 0.950 . S
H967 C976 0.950 . S
H968 C978 0.950 . S
H969 C980 0.950 . S
H970 C982 0.950 . S
H971 C983 0.950 . S
C972 H964 0.950 . S
C972 C973 1.386 . S
C972 C974 1.391 . S
C973 C972 1.386 . S
C973 C977 1.393 . S
C974 H966 0.950 . S
C974 C972 1.391 . S
C974 C975 1.400 . S
C975 C974 1.400 . S
C975 C976 1.398 . S
C975 C981 1.491 . S
C976 H967 0.950 . S
C976 C975 1.398 . S
C976 C977 1.391 . S
C977 H965 0.950 . S
C977 C973 1.393 . S
C977 C976 1.391 . S
C978 H968 0.950 . S
C978 C979 1.386 . S
C978 C980 1.391 . S
C979 C978 1.386 . S
C979 C983 1.393 . S
C980 H969 0.950 . S
C980 C978 1.391 . S
C980 C981 1.400 . S
C981 C975 1.491 . S
C981 C980 1.400 . S
C981 C982 1.398 . S
C982 H970 0.950 . S
C982 C981 1.398 . S
C982 C983 1.391 . S
C983 H971 0.950 . S
C983 C979 1.393 . S
C983 C982 1.391 . S
H984 C992 0.950 . S
H985 C997 0.950 . S
H986 C994 0.950 . S
H987 C996 0.950 . S
H988 C998 0.950 . S
H989 C1000 0.950 . S
H990 C1002 0.950 . S
H991 C1003 0.950 . S
C992 H984 0.950 . S
C992 C993 1.386 . S
C992 C994 1.391 . S
C993 C992 1.386 . S
C993 C997 1.393 . S
C994 H986 0.950 . S
C994 C992 1.391 . S
C994 C995 1.400 . S
C995 C994 1.400 . S
C995 C996 1.398 . S
C995 C1001 1.491 . S
C996 H987 0.950 . S
C996 C995 1.398 . S
C996 C997 1.391 . S
C997 H985 0.950 . S
C997 C993 1.393 . S
C997 C996 1.391 . S
C998 H988 0.950 . S
C998 C999 1.386 . S
C998 C1000 1.391 . S
C999 C998 1.386 . S
C999 C1003 1.393 . S
C1000 H989 0.950 . S
C1000 C998 1.391 . S
C1000 C1001 1.400 . S
C1001 C995 1.491 . S
C1001 C1000 1.400 . S
C1001 C1002 1.398 . S
C1002 H990 0.950 . S
C1002 C1001 1.398 . S
C1002 C1003 1.391 . S
C1003 H991 0.950 . S
C1003 C999 1.393 . S
C1003 C1002 1.391 . S
H1004 C1012 0.950 . S
H1005 C1017 0.950 . S
H1006 C1014 0.950 . S
H1007 C1016 0.950 . S
H1008 C1018 0.950 . S
H1009 C1020 0.950 . S
H1010 C1022 0.950 . S
H1011 C1023 0.950 . S
C1012 H1004 0.950 . S
C1012 C1013 1.386 . S
C1012 C1014 1.391 . S
C1013 C1012 1.386 . S
C1013 C1017 1.393 . S
C1014 H1006 0.950 . S
C1014 C1012 1.391 . S
C1014 C1015 1.400 . S
C1015 C1014 1.400 . S
C1015 C1016 1.398 . S
C1015 C1021 1.491 . S
C1016 H1007 0.950 . S
C1016 C1015 1.398 . S
C1016 C1017 1.391 . S
C1017 H1005 0.950 . S
C1017 C1013 1.393 . S
C1017 C1016 1.391 . S
C1018 H1008 0.950 . S
C1018 C1019 1.386 . S
C1018 C1020 1.391 . S
C1019 C1018 1.386 . S
C1019 C1023 1.393 . S
C1020 H1009 0.950 . S
C1020 C1018 1.391 . S
C1020 C1021 1.400 . S
C1021 C1015 1.491 . S
C1021 C1020 1.400 . S
C1021 C1022 1.398 . S
C1022 H1010 0.950 . S
C1022 C1021 1.398 . S
C1022 C1023 1.391 . S
C1023 H1011 0.950 . S
C1023 C1019 1.393 . S
C1023 C1022 1.391 . S
H1024 C1032 0.950 . S
H1025 C1037 0.950 . S
H1026 C1034 0.950 . S
H1027 C1036 0.950 . S
H1028 C1038 0.950 . S
H1029 C1040 0.950 . S
H1030 C1042 0.950 . S
H1031 C1043 0.950 . S
C1032 H1024 0.950 . S
C1032 C1033 1.386 . S
C1032 C1034 1.391 . S
C1033 C1032 1.386 . S
C1033 C1037 1.393 . S
C1034 H1026 0.950 . S
C1034 C1032 1.391 . S
C1034 C1035 1.400 . S
C1035 C1034 1.400 . S
C1035 C1036 1.398 . S
C1035 C1041 1.491 . S
C1036 H1027 0.950 . S
C1036 C1035 1.398 . S
C1036 C1037 1.391 . S
C1037 H1025 0.950 . S
C1037 C1033 1.393 . S
C1037 C1036 1.391 . S
C1038 H1028 0.950 . S
C1038 C1039 1.386 . S
C1038 C1040 1.391 . S
C1039 C1038 1.386 . S
C1039 C1043 1.393 . S
C1040 H1029 0.950 . S
C1040 C1038 1.391 . S
C1040 C1041 1.400 . S
C1041 C1035 1.491 . S
C1041 C1040 1.400 . S
C1041 C1042 1.398 . S
C1042 H1030 0.950 . S
C1042 C1041 1.398 . S
C1042 C1043 1.391 . S
C1043 H1031 0.950 . S
C1043 C1039 1.393 . S
C1043 C1042 1.391 . S
H1044 C1052 0.950 . S
H1045 C1057 0.950 . S
H1046 C1054 0.950 . S
H1047 C1056 0.950 . S
H1048 C1058 0.950 . S
H1049 C1060 0.950 . S
H1050 C1062 0.950 . S
H1051 C1063 0.950 . S
C1052 H1044 0.950 . S
C1052 C1053 1.386 . S
C1052 C1054 1.391 . S
C1053 C1052 1.386 . S
C1053 C1057 1.393 . S
C1054 H1046 0.950 . S
C1054 C1052 1.391 . S
C1054 C1055 1.400 . S
C1055 C1054 1.400 . S
C1055 C1056 1.398 . S
C1055 C1061 1.491 . S
C1056 H1047 0.950 . S
C1056 C1055 1.398 . S
C1056 C1057 1.391 . S
C1057 H1045 0.950 . S
C1057 C1053 1.393 . S
C1057 C1056 1.391 . S
C1058 H1048 0.950 . S
C1058 C1059 1.386 . S
C1058 C1060 1.391 . S
C1059 C1058 1.386 . S
C1059 C1063 1.393 . S
C1060 H1049 0.950 . S
C1060 C1058 1.391 . S
C1060 C1061 1.400 . S
C1061 C1055 1.491 . S
C1061 C1060 1.400 . S
C1061 C1062 1.398 . S
C1062 H1050 0.950 . S
C1062 C1061 1.398 . S
C1062 C1063 1.391 . S
C1063 H1051 0.950 . S
C1063 C1059 1.393 . S
C1063 C1062 1.391 . S
H1064 C1072 0.950 . S
H1065 C1077 0.950 . S
H1066 C1074 0.950 . S
H1067 C1076 0.950 . S
H1068 C1078 0.950 . S
H1069 C1080 0.950 . S
H1070 C1082 0.950 . S
H1071 C1083 0.950 . S
C1072 H1064 0.950 . S
C1072 C1073 1.386 . S
C1072 C1074 1.391 . S
C1073 C1072 1.386 . S
C1073 C1077 1.393 . S
C1074 H1066 0.950 . S
C1074 C1072 1.391 . S
C1074 C1075 1.400 . S
C1075 C1074 1.400 . S
C1075 C1076 1.398 . S
C1075 C1081 1.491 . S
C1076 H1067 0.950 . S
C1076 C1075 1.398 . S
C1076 C1077 1.391 . S
C1077 H1065 0.950 . S
C1077 C1073 1.393 . S
C1077 C1076 1.391 . S
C1078 H1068 0.950 . S
C1078 C1079 1.386 . S
C1078 C1080 1.391 . S
C1079 C1078 1.386 . S
C1079 C1083 1.393 . S
C1080 H1069 0.950 . S
C1080 C1078 1.391 . S
C1080 C1081 1.400 . S
C1081 C1075 1.491 . S
C1081 C1080 1.400 . S
C1081 C1082 1.398 . S
C1082 H1070 0.950 . S
C1082 C1081 1.398 . S
C1082 C1083 1.391 . S
C1083 H1071 0.950 . S
C1083 C1079 1.393 . S
C1083 C1082 1.391 . S
H1084 C1092 0.950 . S
H1085 C1097 0.950 . S
H1086 C1094 0.950 . S
H1087 C1096 0.950 . S
H1088 C1098 0.950 . S
H1089 C1100 0.950 . S
H1090 C1102 0.950 . S
H1091 C1103 0.950 . S
C1092 H1084 0.950 . S
C1092 C1093 1.386 . S
C1092 C1094 1.391 . S
C1093 C1092 1.386 . S
C1093 C1097 1.393 . S
C1094 H1086 0.950 . S
C1094 C1092 1.391 . S
C1094 C1095 1.400 . S
C1095 C1094 1.400 . S
C1095 C1096 1.398 . S
C1095 C1101 1.491 . S
C1096 H1087 0.950 . S
C1096 C1095 1.398 . S
C1096 C1097 1.391 . S
C1097 H1085 0.950 . S
C1097 C1093 1.393 . S
C1097 C1096 1.391 . S
C1098 H1088 0.950 . S
C1098 C1099 1.386 . S
C1098 C1100 1.391 . S
C1099 C1098 1.386 . S
C1099 C1103 1.393 . S
C1100 H1089 0.950 . S
C1100 C1098 1.391 . S
C1100 C1101 1.400 . S
C1101 C1095 1.491 . S
C1101 C1100 1.400 . S
C1101 C1102 1.398 . S
C1102 H1090 0.950 . S
C1102 C1101 1.398 . S
C1102 C1103 1.391 . S
C1103 H1091 0.950 . S
C1103 C1099 1.393 . S
C1103 C1102 1.391 . S
H1104 C1112 0.950 . S
H1105 C1117 0.950 . S
H1106 C1114 0.950 . S
H1107 C1116 0.950 . S
H1108 C1118 0.950 . S
H1109 C1120 0.950 . S
H1110 C1122 0.950 . S
H1111 C1123 0.950 . S
C1112 H1104 0.950 . S
C1112 C1113 1.386 . S
C1112 C1114 1.391 . S
C1113 C1112 1.386 . S
C1113 C1117 1.393 . S
C1114 H1106 0.950 . S
C1114 C1112 1.391 . S
C1114 C1115 1.400 . S
C1115 C1114 1.400 . S
C1115 C1116 1.398 . S
C1115 C1121 1.491 . S
C1116 H1107 0.950 . S
C1116 C1115 1.398 . S
C1116 C1117 1.391 . S
C1117 H1105 0.950 . S
C1117 C1113 1.393 . S
C1117 C1116 1.391 . S
C1118 H1108 0.950 . S
C1118 C1119 1.386 . S
C1118 C1120 1.391 . S
C1119 C1118 1.386 . S
C1119 C1123 1.393 . S
C1120 H1109 0.950 . S
C1120 C1118 1.391 . S
C1120 C1121 1.400 . S
C1121 C1115 1.491 . S
C1121 C1120 1.400 . S
C1121 C1122 1.398 . S
C1122 H1110 0.950 . S
C1122 C1121 1.398 . S
C1122 C1123 1.391 . S
C1123 H1111 0.950 . S
C1123 C1119 1.393 . S
C1123 C1122 1.391 . S
H1124 C1132 0.950 . S
H1125 C1137 0.950 . S
H1126 C1134 0.950 . S
H1127 C1136 0.950 . S
H1128 C1138 0.950 . S
H1129 C1140 0.950 . S
H1130 C1142 0.950 . S
H1131 C1143 0.950 . S
C1132 H1124 0.950 . S
C1132 C1133 1.386 . S
C1132 C1134 1.391 . S
C1133 C1132 1.386 . S
C1133 C1137 1.393 . S
C1134 H1126 0.950 . S
C1134 C1132 1.391 . S
C1134 C1135 1.400 . S
C1135 C1134 1.400 . S
C1135 C1136 1.398 . S
C1135 C1141 1.491 . S
C1136 H1127 0.950 . S
C1136 C1135 1.398 . S
C1136 C1137 1.391 . S
C1137 H1125 0.950 . S
C1137 C1133 1.393 . S
C1137 C1136 1.391 . S
C1138 H1128 0.950 . S
C1138 C1139 1.386 . S
C1138 C1140 1.391 . S
C1139 C1138 1.386 . S
C1139 C1143 1.393 . S
C1140 H1129 0.950 . S
C1140 C1138 1.391 . S
C1140 C1141 1.400 . S
C1141 C1135 1.491 . S
C1141 C1140 1.400 . S
C1141 C1142 1.398 . S
C1142 H1130 0.950 . S
C1142 C1141 1.398 . S
C1142 C1143 1.391 . S
C1143 H1131 0.950 . S
C1143 C1139 1.393 . S
C1143 C1142 1.391 . S
H1144 C1152 0.950 . S
H1145 C1157 0.950 . S
H1146 C1154 0.950 . S
H1147 C1156 0.950 . S
H1148 C1158 0.950 . S
H1149 C1160 0.950 . S
H1150 C1162 0.950 . S
H1151 C1163 0.950 . S
C1152 H1144 0.950 . S
C1152 C1153 1.386 . S
C1152 C1154 1.391 . S
C1153 C1152 1.386 . S
C1153 C1157 1.393 . S
C1154 H1146 0.950 . S
C1154 C1152 1.391 . S
C1154 C1155 1.400 . S
C1155 C1154 1.400 . S
C1155 C1156 1.398 . S
C1155 C1161 1.491 . S
C1156 H1147 0.950 . S
C1156 C1155 1.398 . S
C1156 C1157 1.391 . S
C1157 H1145 0.950 . S
C1157 C1153 1.393 . S
C1157 C1156 1.391 . S
C1158 H1148 0.950 . S
C1158 C1159 1.386 . S
C1158 C1160 1.391 . S
C1159 C1158 1.386 . S
C1159 C1163 1.393 . S
C1160 H1149 0.950 . S
C1160 C1158 1.391 . S
C1160 C1161 1.400 . S
C1161 C1155 1.491 . S
C1161 C1160 1.400 . S
C1161 C1162 1.398 . S
C1162 H1150 0.950 . S
C1162 C1161 1.398 . S
C1162 C1163 1.391 . S
C1163 H1151 0.950 . S
C1163 C1159 1.393 . S
C1163 C1162 1.391 . S
H1164 C1172 0.950 . S
H1165 C1177 0.950 . S
H1166 C1174 0.950 . S
H1167 C1176 0.950 . S
H1168 C1178 0.950 . S
H1169 C1180 0.950 . S
H1170 C1182 0.950 . S
H1171 C1183 0.950 . S
C1172 H1164 0.950 . S
C1172 C1173 1.386 . S
C1172 C1174 1.391 . S
C1173 C1172 1.386 . S
C1173 C1177 1.393 . S
C1174 H1166 0.950 . S
C1174 C1172 1.391 . S
C1174 C1175 1.400 . S
C1175 C1174 1.400 . S
C1175 C1176 1.398 . S
C1175 C1181 1.491 . S
C1176 H1167 0.950 . S
C1176 C1175 1.398 . S
C1176 C1177 1.391 . S
C1177 H1165 0.950 . S
C1177 C1173 1.393 . S
C1177 C1176 1.391 . S
C1178 H1168 0.950 . S
C1178 C1179 1.386 . S
C1178 C1180 1.391 . S
C1179 C1178 1.386 . S
C1179 C1183 1.393 . S
C1180 H1169 0.950 . S
C1180 C1178 1.391 . S
C1180 C1181 1.400 . S
C1181 C1175 1.491 . S
C1181 C1180 1.400 . S
C1181 C1182 1.398 . S
C1182 H1170 0.950 . S
C1182 C1181 1.398 . S
C1182 C1183 1.391 . S
C1183 H1171 0.950 . S
C1183 C1179 1.393 . S
C1183 C1182 1.391 . S
H1184 C1192 0.950 . S
H1185 C1197 0.950 . S
H1186 C1194 0.950 . S
H1187 C1196 0.950 . S
H1188 C1198 0.950 . S
H1189 C1200 0.950 . S
H1190 C1202 0.950 . S
H1191 C1203 0.950 . S
C1192 H1184 0.950 . S
C1192 C1193 1.386 . S
C1192 C1194 1.391 . S
C1193 C1192 1.386 . S
C1193 C1197 1.393 . S
C1194 H1186 0.950 . S
C1194 C1192 1.391 . S
C1194 C1195 1.400 . S
C1195 C1194 1.400 . S
C1195 C1196 1.398 . S
C1195 C1201 1.491 . S
C1196 H1187 0.950 . S
C1196 C1195 1.398 . S
C1196 C1197 1.391 . S
C1197 H1185 0.950 . S
C1197 C1193 1.393 . S
C1197 C1196 1.391 . S
C1198 H1188 0.950 . S
C1198 C1199 1.386 . S
C1198 C1200 1.391 . S
C1199 C1198 1.386 . S
C1199 C1203 1.393 . S
C1200 H1189 0.950 . S
C1200 C1198 1.391 . S
C1200 C1201 1.400 . S
C1201 C1195 1.491 . S
C1201 C1200 1.400 . S
C1201 C1202 1.398 . S
C1202 H1190 0.950 . S
C1202 C1201 1.398 . S
C1202 C1203 1.391 . S
C1203 H1191 0.950 . S
C1203 C1199 1.393 . S
C1203 C1202 1.391 . S
H1204 C1212 0.950 . S
H1205 C1217 0.950 . S
H1206 C1214 0.950 . S
H1207 C1216 0.950 . S
H1208 C1218 0.950 . S
H1209 C1220 0.950 . S
H1210 C1222 0.950 . S
H1211 C1223 0.950 . S
C1212 H1204 0.950 . S
C1212 C1213 1.386 . S
C1212 C1214 1.391 . S
C1213 C1212 1.386 . S
C1213 C1217 1.393 . S
C1214 H1206 0.950 . S
C1214 C1212 1.391 . S
C1214 C1215 1.400 . S
C1215 C1214 1.400 . S
C1215 C1216 1.398 . S
C1215 C1221 1.491 . S
C1216 H1207 0.950 . S
C1216 C1215 1.398 . S
C1216 C1217 1.391 . S
C1217 H1205 0.950 . S
C1217 C1213 1.393 . S
C1217 C1216 1.391 . S
C1218 H1208 0.950 . S
C1218 C1219 1.386 . S
C1218 C1220 1.391 . S
C1219 C1218 1.386 . S
C1219 C1223 1.393 . S
C1220 H1209 0.950 . S
C1220 C1218 1.391 . S
C1220 C1221 1.400 . S
C1221 C1215 1.491 . S
C1221 C1220 1.400 . S
C1221 C1222 1.398 . S
C1222 H1210 0.950 . S
C1222 C1221 1.398 . S
C1222 C1223 1.391 . S
C1223 H1211 0.950 . S
C1223 C1219 1.393 . S
C1223 C1222 1.391 . S
H1224 C1232 0.950 . S
H1225 C1237 0.950 . S
H1226 C1234 0.950 . S
H1227 C1236 0.950 . S
H1228 C1238 0.950 . S
H1229 C1240 0.950 . S
H1230 C1242 0.950 . S
H1231 C1243 0.950 . S
C1232 H1224 0.950 . S
C1232 C1233 1.386 . S
C1232 C1234 1.391 . S
C1233 C1232 1.386 . S
C1233 C1237 1.393 . S
C1234 H1226 0.950 . S
C1234 C1232 1.391 . S
C1234 C1235 1.400 . S
C1235 C1234 1.400 . S
C1235 C1236 1.398 . S
C1235 C1241 1.491 . S
C1236 H1227 0.950 . S
C1236 C1235 1.398 . S
C1236 C1237 1.391 . S
C1237 H1225 0.950 . S
C1237 C1233 1.393 . S
C1237 C1236 1.391 . S
C1238 H1228 0.950 . S
C1238 C1239 1.386 . S
C1238 C1240 1.391 . S
C1239 C1238 1.386 . S
C1239 C1243 1.393 . S
C1240 H1229 0.950 . S
C1240 C1238 1.391 . S
C1240 C1241 1.400 . S
C1241 C1235 1.491 . S
C1241 C1240 1.400 . S
C1241 C1242 1.398 . S
C1242 H1230 0.950 . S
C1242 C1241 1.398 . S
C1242 C1243 1.391 . S
C1243 H1231 0.950 . S
C1243 C1239 1.393 . S
C1243 C1242 1.391 . S
H1244 C1252 0.950 . S
H1245 C1257 0.950 . S
H1246 C1254 0.950 . S
H1247 C1256 0.950 . S
H1248 C1258 0.950 . S
H1249 C1260 0.950 . S
H1250 C1262 0.950 . S
H1251 C1263 0.950 . S
C1252 H1244 0.950 . S
C1252 C1253 1.386 . S
C1252 C1254 1.391 . S
C1253 C1252 1.386 . S
C1253 C1257 1.393 . S
C1254 H1246 0.950 . S
C1254 C1252 1.391 . S
C1254 C1255 1.400 . S
C1255 C1254 1.400 . S
C1255 C1256 1.398 . S
C1255 C1261 1.491 . S
C1256 H1247 0.950 . S
C1256 C1255 1.398 . S
C1256 C1257 1.391 . S
C1257 H1245 0.950 . S
C1257 C1253 1.393 . S
C1257 C1256 1.391 . S
C1258 H1248 0.950 . S
C1258 C1259 1.386 . S
C1258 C1260 1.391 . S
C1259 C1258 1.386 . S
C1259 C1263 1.393 . S
C1260 H1249 0.950 . S
C1260 C1258 1.391 . S
C1260 C1261 1.400 . S
C1261 C1255 1.491 . S
C1261 C1260 1.400 . S
C1261 C1262 1.398 . S
C1262 H1250 0.950 . S
C1262 C1261 1.398 . S
C1262 C1263 1.391 . S
C1263 H1251 0.950 . S
C1263 C1259 1.393 . S
C1263 C1262 1.391 . S
H1264 C1272 0.950 . S
H1265 C1277 0.950 . S
H1266 C1274 0.950 . S
H1267 C1276 0.950 . S
H1268 C1278 0.950 . S
H1269 C1280 0.950 . S
H1270 C1282 0.950 . S
H1271 C1283 0.950 . S
C1272 H1264 0.950 . S
C1272 C1273 1.386 . S
C1272 C1274 1.391 . S
C1273 C1272 1.386 . S
C1273 C1277 1.393 . S
C1274 H1266 0.950 . S
C1274 C1272 1.391 . S
C1274 C1275 1.400 . S
C1275 C1274 1.400 . S
C1275 C1276 1.398 . S
C1275 C1281 1.491 . S
C1276 H1267 0.950 . S
C1276 C1275 1.398 . S
C1276 C1277 1.391 . S
C1277 H1265 0.950 . S
C1277 C1273 1.393 . S
C1277 C1276 1.391 . S
C1278 H1268 0.950 . S
C1278 C1279 1.386 . S
C1278 C1280 1.391 . S
C1279 C1278 1.386 . S
C1279 C1283 1.393 . S
C1280 H1269 0.950 . S
C1280 C1278 1.391 . S
C1280 C1281 1.400 . S
C1281 C1275 1.491 . S
C1281 C1280 1.400 . S
C1281 C1282 1.398 . S
C1282 H1270 0.950 . S
C1282 C1281 1.398 . S
C1282 C1283 1.391 . S
C1283 H1271 0.950 . S
C1283 C1279 1.393 . S
C1283 C1282 1.391 . S
H1284 C1292 0.950 . S
H1285 C1297 0.950 . S
H1286 C1294 0.950 . S
H1287 C1296 0.950 . S
H1288 C1298 0.950 . S
H1289 C1300 0.950 . S
H1290 C1302 0.950 . S
H1291 C1303 0.950 . S
C1292 H1284 0.950 . S
C1292 C1293 1.386 . S
C1292 C1294 1.391 . S
C1293 C1292 1.386 . S
C1293 C1297 1.393 . S
C1294 H1286 0.950 . S
C1294 C1292 1.391 . S
C1294 C1295 1.400 . S
C1295 C1294 1.400 . S
C1295 C1296 1.398 . S
C1295 C1301 1.491 . S
C1296 H1287 0.950 . S
C1296 C1295 1.398 . S
C1296 C1297 1.391 . S
C1297 H1285 0.950 . S
C1297 C1293 1.393 . S
C1297 C1296 1.391 . S
C1298 H1288 0.950 . S
C1298 C1299 1.386 . S
C1298 C1300 1.391 . S
C1299 C1298 1.386 . S
C1299 C1303 1.393 . S
C1300 H1289 0.950 . S
C1300 C1298 1.391 . S
C1300 C1301 1.400 . S
C1301 C1295 1.491 . S
C1301 C1300 1.400 . S
C1301 C1302 1.398 . S
C1302 H1290 0.950 . S
C1302 C1301 1.398 . S
C1302 C1303 1.391 . S
C1303 H1291 0.950 . S
C1303 C1299 1.393 . S
C1303 C1302 1.391 . S
H1304 C1312 0.950 . S
H1305 C1317 0.950 . S
H1306 C1314 0.950 . S
H1307 C1316 0.950 . S
H1308 C1318 0.950 . S
H1309 C1320 0.950 . S
H1310 C1322 0.950 . S
H1311 C1323 0.950 . S
C1312 H1304 0.950 . S
C1312 C1313 1.386 . S
C1312 C1314 1.391 . S
C1313 C1312 1.386 . S
C1313 C1317 1.393 . S
C1314 H1306 0.950 . S
C1314 C1312 1.391 . S
C1314 C1315 1.400 . S
C1315 C1314 1.400 . S
C1315 C1316 1.398 . S
C1315 C1321 1.491 . S
C1316 H1307 0.950 . S
C1316 C1315 1.398 . S
C1316 C1317 1.391 . S
C1317 H1305 0.950 . S
C1317 C1313 1.393 . S
C1317 C1316 1.391 . S
C1318 H1308 0.950 . S
C1318 C1319 1.386 . S
C1318 C1320 1.391 . S
C1319 C1318 1.386 . S
C1319 C1323 1.393 . S
C1320 H1309 0.950 . S
C1320 C1318 1.391 . S
C1320 C1321 1.400 . S
C1321 C1315 1.491 . S
C1321 C1320 1.400 . S
C1321 C1322 1.398 . S
C1322 H1310 0.950 . S
C1322 C1321 1.398 . S
C1322 C1323 1.391 . S
C1323 H1311 0.950 . S
C1323 C1319 1.393 . S
C1323 C1322 1.391 . S
H1324 C1332 0.950 . S
H1325 C1337 0.950 . S
H1326 C1334 0.950 . S
H1327 C1336 0.950 . S
H1328 C1338 0.950 . S
H1329 C1340 0.950 . S
H1330 C1342 0.950 . S
H1331 C1343 0.950 . S
C1332 H1324 0.950 . S
C1332 C1333 1.386 . S
C1332 C1334 1.391 . S
C1333 C1332 1.386 . S
C1333 C1337 1.393 . S
C1334 H1326 0.950 . S
C1334 C1332 1.391 . S
C1334 C1335 1.400 . S
C1335 C1334 1.400 . S
C1335 C1336 1.398 . S
C1335 C1341 1.491 . S
C1336 H1327 0.950 . S
C1336 C1335 1.398 . S
C1336 C1337 1.391 . S
C1337 H1325 0.950 . S
C1337 C1333 1.393 . S
C1337 C1336 1.391 . S
C1338 H1328 0.950 . S
C1338 C1339 1.386 . S
C1338 C1340 1.391 . S
C1339 C1338 1.386 . S
C1339 C1343 1.393 . S
C1340 H1329 0.950 . S
C1340 C1338 1.391 . S
C1340 C1341 1.400 . S
C1341 C1335 1.491 . S
C1341 C1340 1.400 . S
C1341 C1342 1.398 . S
C1342 H1330 0.950 . S
C1342 C1341 1.398 . S
C1342 C1343 1.391 . S
C1343 H1331 0.950 . S
C1343 C1339 1.393 . S
C1343 C1342 1.391 . S
C553 C33 1.125 . S
C559 C543 1.119 . S
C573 C441 1.124 . S
C579 C67 1.120 . S
C593 C475 1.122 . S
C599 C101 1.123 . S
C613 C509 1.126 . S
C619 C135 1.120 . S
C633 C169 1.126 . S
C639 C339 1.119 . S
C653 C373 1.126 . S
C659 C203 1.120 . S
C673 C407 1.118 . S
C679 C237 1.127 . S
C693 C271 1.118 . S
C699 C305 1.127 . S
C713 C213 0.590 . S
C719 C9 0.614 . S
C733 C247 0.571 . S
C739 C43 0.604 . S
C753 C145 0.613 . S
C759 C77 0.594 . S
C773 C179 0.618 . S
C779 C111 0.577 . S
C793 C156 2.240 . S
C799 C88 2.238 . S
C813 C122 2.239 . S
C819 C190 2.240 . S
C833 C224 2.239 . S
C839 C20 2.240 . S
C853 C54 2.238 . S
C859 C258 2.240 . S
C873 C281 0.571 . S
C879 C485 0.615 . S
C893 C519 0.570 . S
C899 C315 0.607 . S
C913 C417 0.617 . S
C919 C349 0.582 . S
C933 C451 0.570 . S
C939 C383 0.605 . S
C953 C428 2.239 . S
C959 C360 2.239 . S
C973 C462 2.240 . S
C979 C394 2.238 . S
C993 C292 2.239 . S
C999 C496 2.239 . S
C1013 C326 2.240 . S
C1019 C530 2.238 . S
C1033 C172 2.833 . S
C1039 C2 2.835 . S
C1053 C36 2.833 . S
C1059 C206 2.834 . S
C1073 C240 2.833 . S
C1079 C70 2.835 . S
C1093 C104 2.833 . S
C1099 C138 2.835 . S
C1113 C73 0.951 . S
C1119 C243 0.927 . S
C1133 C141 0.956 . S
C1139 C107 0.929 . S
C1153 C175 0.947 . S
C1159 C5 0.946 . S
C1173 C39 0.927 . S
C1179 C209 0.950 . S
C1193 C444 2.835 . S
C1199 C274 2.834 . S
C1213 C308 2.834 . S
C1219 C478 2.835 . S
C1233 C512 2.835 . S
C1239 C342 2.833 . S
C1253 C376 2.835 . S
C1259 C410 2.833 . S
C1273 C515 0.945 . S
C1279 C345 0.948 . S
C1293 C379 0.954 . S
C1299 C413 0.937 . S
C1313 C447 0.956 . S
C1319 C277 0.929 . S
C1333 C311 0.943 . S
C1339 C481 0.931 . S
