# Generated by pormake.
# Topology qtz-x, (6)-cn, num edge types: 1
# Building blocks:
#     Node 0, Type 0, BuildingBlock: INOVEN_clean_sbu_0, # of connection points: 6
#     Node 1, Type 0, BuildingBlock: INOVEN_clean_sbu_0, # of connection points: 6
#     Node 2, Type 0, BuildingBlock: INOVEN_clean_sbu_0, # of connection points: 6
#     Edge 3, Type (0, 0), BuildingBlock: KIFKEQ_clean_linker_1, # of connection points: 2
#     Edge 4, Type (0, 0), BuildingBlock: KIFKEQ_clean_linker_1, # of connection points: 2
#     Edge 5, Type (0, 0), BuildingBlock: KIFKEQ_clean_linker_1, # of connection points: 2
#     Edge 6, Type (0, 0), BuildingBlock: KIFKEQ_clean_linker_1, # of connection points: 2
#     Edge 7, Type (0, 0), BuildingBlock: KIFKEQ_clean_linker_1, # of connection points: 2
#     Edge 8, Type (0, 0), BuildingBlock: KIFKEQ_clean_linker_1, # of connection points: 2
#     Edge 9, Type (0, 0), BuildingBlock: KIFKEQ_clean_linker_1, # of connection points: 2
#     Edge 10, Type (0, 0), BuildingBlock: KIFKEQ_clean_linker_1, # of connection points: 2
#     Edge 11, Type (0, 0), BuildingBlock: KIFKEQ_clean_linker_1, # of connection points: 2
# Relax obj value: 0.219
# Max RMSD: 0.265
# Mean RMSD: 0.238
data_MOF--net-qtz-x--node1-INOVEN_clean_sbu_0--edge1-KIFKEQ_clean_linker_1
_symmetry_space_group_name_H-M    P1
_symmetry_Int_Tables_number       1
_symmetry_cell_setting            triclinic
loop_
_symmetry_equiv_pos_as_xyz
'x, y, z'
_cell_length_a     15.049468
_cell_length_b     15.068103
_cell_length_c     53.888356
_cell_angle_alpha  69.922915
_cell_angle_beta   114.31599
_cell_angle_gamma 121.36647
loop_
_atom_site_label
_atom_site_type_symbol
_atom_site_fract_x
_atom_site_fract_y
_atom_site_fract_z
_atom_type_partial_charge
Gd0 Gd 1.01536 0.61218 0.19605 0.0
Gd1 Gd 0.22333 0.74959 0.18553 0.0
C2 C 0.23591 0.69081 0.24763 0.0
C3 C 0.8627 0.4673 0.21842 0.0
C4 C 0.85078 0.43367 0.24679 0.0
C5 C 0.76857 0.43848 0.25163 0.0
C6 C 0.92069 0.39661 0.26925 0.0
C7 C 0.82633 0.36996 0.30073 0.0
C8 C 0.9086 0.36524 0.29582 0.0
C9 C 0.75666 0.40738 0.27825 0.0
C10 C 0.06445 0.8202 0.18665 0.0
C11 C 1.00846 0.67814 0.13334 0.0
C12 C 0.37757 0.89097 0.16374 0.0
C13 C 0.39167 0.90165 0.13729 0.0
C14 C 0.32182 0.82023 0.12151 0.0
C15 C 0.47306 -0.00695 0.12739 0.0
C16 C 0.41663 0.92029 0.08637 0.0
C17 C 0.48559 0.00235 0.10214 0.0
C18 C 0.33406 0.82945 0.09629 0.0
C19 C 0.17371 0.54125 0.19426 0.0
O20 O 0.13808 0.6146 0.23885 0.0
O21 O 0.28365 0.76799 0.22971 0.0
O22 O 0.86521 0.55893 0.20522 0.0
O23 O 0.93268 0.45013 0.2147 0.0
O24 O 0.96973 0.7473 0.17635 0.0
O25 O 0.12941 0.77997 0.20145 0.0
O26 O 0.10496 0.75351 0.14283 0.0
O27 O 0.95756 0.59945 0.15071 0.0
O28 O 0.38422 0.80942 0.18203 0.0
O29 O 0.29548 0.90401 0.16176 0.0
O30 O 0.26897 0.61476 0.20366 0.0
O31 O 0.10843 0.5814 0.17998 0.0
H32 H 0.71317 0.4662 0.23476 0.0
H33 H 0.98526 0.39203 0.2664 0.0
H34 H 0.96483 0.33841 0.31261 0.0
H35 H 0.69165 0.41111 0.28113 0.0
H36 H 0.25836 0.74892 0.12885 0.0
H37 H 0.52702 0.05699 0.13921 0.0
H38 H 0.54913 0.0739 0.09493 0.0
H39 H 0.28052 0.76417 0.08494 0.0
Gd40 Gd 0.85912 0.18549 0.55935 0.0
Gd41 Gd 0.74217 0.94068 0.55047 0.0
C42 C 0.82396 -0.00795 0.6124 0.0
C43 C 0.89903 0.36638 0.56573 0.0
C44 C 0.90774 0.41007 0.58754 0.0
C45 C 0.97753 0.51684 0.5892 0.0
C46 C 0.85908 0.34439 0.60865 0.0
C47 C 0.95669 0.49091 0.6339 0.0
C48 C 0.88286 0.38479 0.63162 0.0
C49 C 1.00202 0.55701 0.61221 0.0
C50 C 1.00573 0.12607 0.56045 0.0
C51 C 0.77569 0.1353 0.49747 0.0
C52 C 0.7041 0.77413 0.53641 0.0
C53 C 0.6715 0.75083 0.50851 0.0
C54 C 0.57809 0.65889 0.50035 0.0
C55 C 0.72455 0.82553 0.48875 0.0
C56 C 0.58631 0.72056 0.45273 0.0
C57 C 0.68263 0.81044 0.46123 0.0
C58 C 0.53593 0.64385 0.4728 0.0
C59 C 0.59337 -0.00193 0.54885 0.0
O60 O 0.84558 0.0927 0.60183 0.0
O61 O 0.79305 0.92099 0.59735 0.0
O62 O 0.97444 0.33704 0.57182 0.0
O63 O 0.80221 0.2996 0.55328 0.0
O64 O 1.03133 0.21786 0.56427 0.0
O65 O 0.90438 0.07285 0.55696 0.0
O66 O 0.74484 0.03328 0.50746 0.0
O67 O 0.81548 0.20703 0.51301 0.0
O68 O 0.63126 0.78175 0.54174 0.0
O69 O 0.80275 0.84718 0.54525 0.0
O70 O 0.57043 0.90585 0.54587 0.0
O71 O 0.69466 0.05416 0.55193 0.0
H72 H 1.0165 0.56828 0.57317 0.0
H73 H 0.80623 0.26128 0.60789 0.0
H74 H 0.84749 0.332 0.64816 0.0
H75 H 0.05825 0.63928 0.61334 0.0
H76 H 0.53539 0.60031 0.51513 0.0
H77 H 0.796 0.89795 0.49424 0.0
H78 H 0.72307 0.87179 0.44638 0.0
H79 H 0.46267 0.57285 0.46712 0.0
Gd80 Gd 0.79313 0.82784 0.8633 0.0
Gd81 Gd 0.95828 0.75021 0.88097 0.0
C82 C 0.90525 0.76514 0.92993 0.0
C83 C 0.63094 0.85581 0.85876 0.0
C84 C 0.60457 0.87889 0.87855 0.0
C85 C 0.68787 0.92756 0.90091 0.0
C86 C 0.49596 0.84481 0.87661 0.0
C87 C 0.55425 0.90242 0.92017 0.0
C88 C 0.47093 0.85685 0.89724 0.0
C89 C 0.66302 0.93952 0.92144 0.0
C90 C 0.99773 -0.01752 0.86581 0.0
C91 C 0.84816 0.81335 0.81489 0.0
C92 C 0.12038 0.72483 0.88458 0.0
C93 C 0.15859 0.7311 0.86259 0.0
C94 C 0.16654 0.64407 0.86136 0.0
C95 C 0.16851 0.81504 0.84027 0.0
C96 C 0.17252 0.71562 0.81387 0.0
C97 C 0.17552 0.80731 0.81613 0.0
C98 C 0.17358 0.63634 0.83717 0.0
C99 C 0.75398 0.59478 0.87868 0.0
O100 O 0.82579 0.7853 0.91022 0.0
O101 O 0.97733 0.75788 0.92378 0.0
O102 O 0.71608 0.93045 0.85082 0.0
O103 O 0.62821 0.76286 0.86477 0.0
O104 O 0.91162 -0.01401 0.84664 0.0
O105 O 0.97153 0.89946 0.88336 0.0
O106 O 0.93493 0.80763 0.83462 0.0
O107 O 0.76812 0.80562 0.82122 0.0
O108 O 1.0251 0.64647 0.88546 0.0
O109 O 0.1314 0.81298 0.88759 0.0
O110 O 0.84083 0.59155 0.89754 0.0
O111 O 0.77932 0.67801 0.86107 0.0
H112 H 0.77227 0.95398 0.9029 0.0
H113 H 0.43052 0.80631 0.85959 0.0
H114 H 0.38648 0.82692 0.89581 0.0
H115 H 0.72918 -0.02357 0.93859 0.0
H116 H 0.15922 0.57857 0.87835 0.0
H117 H 0.16344 0.88363 0.84067 0.0
H118 H 0.17693 0.87049 0.79865 0.0
H119 H 0.17123 0.56473 0.83603 0.0
H120 H 0.94047 0.92325 0.15295 0.0
H121 H 0.2289 0.9589 0.22177 0.0
H122 H 0.96584 0.09527 0.15429 0.0
H123 H 0.25179 0.12821 0.22438 0.0
H124 H 0.32672 0.47166 0.20952 0.0
H125 H 0.30215 0.30256 0.20671 0.0
H126 H 0.95408 0.19698 0.17524 0.0
H127 H 0.98059 0.36993 0.17664 0.0
C128 C 1.00924 0.96784 0.1685 0.0
C129 C 0.08283 0.92721 0.18716 0.0
C130 C 1.0234 0.06663 0.16951 0.0
C131 C 0.11091 0.12767 0.18953 0.0
C132 C 0.18446 0.08615 0.20822 0.0
C133 C 0.17116 -0.01189 0.20689 0.0
C134 C 0.2448 0.41238 0.20197 0.0
C135 C 0.15567 0.43484 0.19328 0.0
C136 C 0.23034 0.31417 0.20055 0.0
C137 C 0.1258 0.23368 0.19084 0.0
C138 C 1.03629 0.25627 0.18239 0.0
C139 C 1.05113 0.35555 0.1834 0.0
H140 H 0.38014 0.86602 0.54294 0.0
H141 H 0.61512 0.18089 0.55859 0.0
H142 H 0.24007 0.89151 0.54648 0.0
H143 H 0.47277 0.20971 0.56072 0.0
H144 H 0.22026 0.20383 0.5881 0.0
H145 H 0.36113 0.17586 0.58545 0.0
H146 H 0.1193 0.96369 0.52721 0.0
H147 H 0.97802 -0.00996 0.53083 0.0
C148 C 0.4021 0.94189 0.54681 0.0
C149 C 0.51004 0.0217 0.55028 0.0
C150 C 0.32049 0.95691 0.54861 0.0
C151 C 0.34272 0.05306 0.55374 0.0
C152 C 0.45111 0.13365 0.55709 0.0
C153 C 0.53348 0.11796 0.55553 0.0
C154 C 0.19682 0.14982 0.57502 0.0
C155 C 0.08688 0.09728 0.56018 0.0
C156 C 0.27844 0.13476 0.57317 0.0
C157 C 0.25379 0.06771 0.55598 0.0
C158 C 0.14294 0.01448 0.54118 0.0
C159 C 0.06084 0.02881 0.54332 0.0
H160 H 0.1799 0.01727 0.9106 0.0
H161 H 0.06839 0.14249 0.82505 0.0
H162 H 0.36039 0.16499 0.91382 0.0
H163 H 0.24965 0.28655 0.82743 0.0
H164 H 0.55768 0.59008 0.84396 0.0
H165 H 0.37697 0.44374 0.84162 0.0
H166 H 0.52165 0.24653 0.9041 0.0
H167 H 0.70046 0.39555 0.90777 0.0
C168 C 0.19453 0.07595 0.89237 0.0
C169 C 0.10967 0.06878 0.86766 0.0
C170 C 0.29864 0.16078 0.89408 0.0
C171 C 0.32141 0.23978 0.87092 0.0
C172 C 0.23617 0.23012 0.84601 0.0
C173 C 0.13184 0.14655 0.84451 0.0
C174 C 0.5504 0.51564 0.85735 0.0
C175 C 0.64343 0.50495 0.87622 0.0
C176 C 0.44647 0.43066 0.85583 0.0
C177 C 0.43274 0.33152 0.87266 0.0
C178 C 0.52694 0.32119 0.8912 0.0
C179 C 0.63033 0.4068 0.89314 0.0
H180 H 0.64761 0.85552 0.97506 0.0
H181 H 0.40204 0.95625 0.91817 0.0
H182 H 0.61154 0.86532 1.01376 0.0
H183 H 0.36572 0.96627 0.95724 0.0
H184 H 0.26237 0.85621 0.0378 0.0
H185 H 0.29188 0.85378 0.99675 0.0
H186 H 0.63916 -0.00042 1.03487 0.0
H187 H 0.60986 -0.00178 0.07614 0.0
C188 C 0.58668 0.881 0.97081 0.0
C189 C 0.52883 0.90656 0.94352 0.0
C190 C 0.56599 0.88664 0.99303 0.0
C191 C 0.48682 0.91798 0.98861 0.0
C192 C 0.42699 0.94147 0.96133 0.0
C193 C 0.44778 0.93577 0.93897 0.0
C194 C 0.34502 0.88757 0.03741 0.0
C195 C 0.43379 0.92687 0.06037 0.0
C196 C 0.36188 0.88716 1.01377 0.0
C197 C 0.46785 0.92567 1.01263 0.0
C198 C 0.55643 0.96783 1.03524 0.0
C199 C 0.53966 0.96829 0.0588 0.0
H200 H 0.68384 0.01323 0.45762 0.0
H201 H 0.85843 0.33815 0.46942 0.0
H202 H 0.69149 0.06921 0.41017 0.0
H203 H 0.86629 0.39429 0.42184 0.0
H204 H 0.78058 0.46246 0.32702 0.0
H205 H 0.76002 0.40597 0.37342 0.0
H206 H 0.82454 0.14405 0.38551 0.0
H207 H 0.84205 0.19877 0.33896 0.0
C208 C 0.72388 0.0967 0.45015 0.0
C209 C 0.77139 0.17084 0.46764 0.0
C210 C 0.7286 0.12892 0.42285 0.0
C211 C 0.78047 0.23643 0.41208 0.0
C212 C 0.82494 0.31088 0.42927 0.0
C213 C 0.82059 0.27856 0.45666 0.0
C214 C 0.78935 0.39222 0.33947 0.0
C215 C 0.81314 0.33539 0.32913 0.0
C216 C 0.77863 0.36037 0.36624 0.0
C217 C 0.79055 0.27028 0.38336 0.0
C218 C 0.81356 0.21311 0.37291 0.0
C219 C 0.82491 0.24528 0.34625 0.0
H220 H 1.019 0.90931 0.79342 0.0
H221 H 0.66838 0.76322 0.7692 0.0
H222 H 1.01506 0.94596 0.74522 0.0
H223 H 0.66444 0.79858 0.72079 0.0
H224 H 0.71757 0.79465 0.64049 0.0
H225 H 0.72191 0.74649 0.68932 0.0
H226 H 0.95342 0.06627 0.70141 0.0
H227 H 0.94751 0.11492 0.65282 0.0
C228 C 0.94091 0.88384 0.77786 0.0
C229 C 0.84403 0.83293 0.78533 0.0
C230 C 0.93871 0.90554 0.75015 0.0
C231 C 0.83945 0.8751 0.72904 0.0
C232 C 0.7423 0.82234 0.73651 0.0
C233 C 0.74457 0.80266 0.76425 0.0
C234 C 0.77007 0.85445 0.65362 0.0
C235 C 0.83226 0.95875 0.64257 0.0
C236 C 0.77191 0.82699 0.68157 0.0
C237 C 0.83791 0.90252 0.69935 0.0
C238 C 0.90212 0.00592 0.68843 0.0
C239 C 0.89845 0.03383 0.66047 0.0
H240 H 0.80082 0.81262 0.95144 0.0
H241 H 1.02507 0.68026 0.97584 0.0
H242 H 0.81164 0.78518 0.9999 0.0
H243 H 1.03378 0.65096 1.02421 0.0
H244 H 0.92832 0.51888 0.10501 0.0
H245 H 0.89792 0.53625 0.05539 0.0
H246 H 0.97018 0.86232 0.0438 0.0
H247 H 1.00393 0.84576 0.09331 0.0
C248 C 0.85214 0.77738 0.96705 0.0
C249 C 0.91226 0.74902 0.95957 0.0
C250 C 0.85826 0.76163 0.99486 0.0
C251 C 0.92278 0.71495 1.01593 0.0
C252 C 0.98213 0.6857 1.00847 0.0
C253 C 0.97772 0.70334 0.98072 0.0
C254 C 0.93476 0.5933 0.09169 0.0
C255 C 0.96672 0.68048 0.10297 0.0
C256 C 0.91878 0.60371 0.06337 0.0
C257 C 0.93185 0.70081 0.04564 0.0
C258 C 0.95876 0.78637 0.0568 0.0
C259 C 0.97759 0.77674 0.08513 0.0
H260 H 0.16152 0.54357 0.29036 0.0
H261 H 0.43167 0.83967 0.27332 0.0
H262 H 0.24705 0.54617 0.33971 0.0
H263 H 0.51623 0.84352 0.3227 0.0
H264 H 0.68757 0.77068 0.41407 0.0
H265 H 0.60488 0.76057 0.36492 0.0
H266 H 0.28769 0.63821 0.37447 0.0
H267 H 0.3702 0.64799 0.42351 0.0
C268 C 0.23914 0.60935 0.2971 0.0
C269 C 0.28954 0.6914 0.27778 0.0
C270 C 0.28802 0.61118 0.32548 0.0
C271 C 0.38868 0.69519 0.33533 0.0
C272 C 0.43951 0.77679 0.31597 0.0
C273 C 0.39061 0.7749 0.28758 0.0
C274 C 0.6002 0.74181 0.40568 0.0
C275 C 0.53572 0.70988 0.42288 0.0
C276 C 0.5527 0.73618 0.37744 0.0
C277 C 0.4394 0.69863 0.36559 0.0
C278 C 0.37492 0.66583 0.38286 0.0
C279 C 0.42237 0.67134 0.41108 0.0
H280 H 1.02663 0.74949 0.76577 0.0
H281 H 0.26966 0.63402 0.80039 0.0
H282 H 0.97842 0.70192 0.72153 0.0
H283 H 0.21989 0.58458 0.756 0.0
H284 H 0.16362 0.6055 0.66341 0.0
H285 H 0.22245 0.66822 0.70637 0.0
H286 H 0.88736 0.52774 0.70533 0.0
H287 H 0.82848 0.46552 0.66226 0.0
C288 C 0.07122 0.71578 0.76376 0.0
C289 C 0.15256 0.69621 0.78648 0.0
C290 C 1.04253 0.68726 0.73854 0.0
C291 C 0.0949 0.63897 0.73542 0.0
C292 C 0.17862 0.62224 0.75784 0.0
C293 C 0.20675 0.65002 0.78322 0.0
C294 C 0.10259 0.58899 0.67225 0.0
C295 C 0.99145 0.53109 0.65949 0.0
C296 C 0.13632 0.62404 0.69692 0.0
C297 C 0.05949 0.60293 0.70912 0.0
C298 C 0.94827 0.54593 0.69621 0.0
C299 C 0.91459 0.50975 0.67172 0.0
loop_
_geom_bond_atom_site_label_1
_geom_bond_atom_site_label_2
_geom_bond_distance
_geom_bond_site_symmetry_2
_ccdc_geom_bond_type
Gd0 C3 2.818 . S
Gd0 O20 2.377 1_655 S
Gd0 O22 2.448 . S
Gd0 O23 2.506 . S
Gd0 O24 2.435 . S
Gd0 O25 2.717 1_655 S
Gd0 O27 2.395 . S
Gd0 O31 2.327 . S
Gd1 C12 2.818 . S
Gd1 O21 2.395 . S
Gd1 O25 2.327 . S
Gd1 O26 2.377 1_455 S
Gd1 O28 2.448 . S
Gd1 O29 2.506 . S
Gd1 O30 2.435 . S
Gd1 O31 2.717 1_455 S
C2 O20 1.240 . S
C2 O21 1.240 . S
C3 Gd0 2.818 . S
C3 C4 1.510 . S
C3 O22 1.249 . S
C3 O23 1.252 . S
C4 C3 1.510 . S
C4 C5 1.404 . S
C4 C6 1.352 . S
C5 C4 1.404 . S
C5 C9 1.389 . S
C5 H32 0.930 . S
C6 C4 1.352 . S
C6 C8 1.374 . S
C6 H33 0.931 . S
C7 C8 1.359 . S
C7 C9 1.364 . S
C8 C6 1.374 . S
C8 C7 1.359 . S
C8 H34 0.931 . S
C9 C5 1.389 . S
C9 C7 1.364 . S
C9 H35 0.931 . S
C10 O24 1.256 . S
C10 O25 1.257 1_655 S
C11 O26 1.240 . S
C11 O27 1.240 . S
C12 Gd1 2.818 . S
C12 C13 1.510 . S
C12 O28 1.249 . S
C12 O29 1.252 . S
C13 C12 1.510 . S
C13 C14 1.404 . S
C13 C15 1.352 . S
C14 C13 1.404 . S
C14 C18 1.389 . S
C14 H36 0.930 . S
C15 C13 1.352 . S
C15 C17 1.374 1_565 S
C15 H37 0.931 . S
C16 C17 1.359 1_565 S
C16 C18 1.364 . S
C17 C15 1.374 1_545 S
C17 C16 1.359 1_545 S
C17 H38 0.931 . S
C18 C14 1.389 . S
C18 C16 1.364 . S
C18 H39 0.931 . S
C19 O30 1.256 . S
C19 O31 1.257 1_455 S
O20 Gd0 2.377 1_455 S
O20 C2 1.240 . S
O21 Gd1 2.395 . S
O21 C2 1.240 . S
O22 Gd0 2.448 . S
O22 C3 1.249 . S
O23 Gd0 2.506 . S
O23 C3 1.252 . S
O24 Gd0 2.435 . S
O24 C10 1.256 . S
O25 Gd0 2.717 1_455 S
O25 Gd1 2.327 . S
O25 C10 1.257 1_455 S
O26 Gd1 2.377 1_655 S
O26 C11 1.240 . S
O27 Gd0 2.395 . S
O27 C11 1.240 . S
O28 Gd1 2.448 . S
O28 C12 1.249 . S
O29 Gd1 2.506 . S
O29 C12 1.252 . S
O30 Gd1 2.435 . S
O30 C19 1.256 . S
O31 Gd0 2.327 . S
O31 Gd1 2.717 1_655 S
O31 C19 1.257 1_655 S
H32 C5 0.930 . S
H33 C6 0.931 . S
H34 C8 0.931 . S
H35 C9 0.931 . S
H36 C14 0.930 . S
H37 C15 0.931 . S
H38 C17 0.931 . S
H39 C18 0.931 . S
Gd40 C43 2.818 . S
Gd40 O60 2.377 . S
Gd40 O62 2.448 . S
Gd40 O63 2.506 . S
Gd40 O64 2.435 . S
Gd40 O65 2.717 1_545 S
Gd40 O67 2.395 . S
Gd40 O71 2.327 . S
Gd41 C52 2.818 . S
Gd41 O61 2.395 . S
Gd41 O65 2.327 . S
Gd41 O66 2.377 1_565 S
Gd41 O68 2.448 . S
Gd41 O69 2.506 . S
Gd41 O70 2.435 . S
Gd41 O71 2.717 1_565 S
C42 O60 1.240 1_565 S
C42 O61 1.240 . S
C43 Gd40 2.818 . S
C43 C44 1.510 . S
C43 O62 1.249 . S
C43 O63 1.252 . S
C44 C43 1.510 . S
C44 C45 1.404 1_655 S
C44 C46 1.352 . S
C45 C44 1.404 1_455 S
C45 C49 1.389 . S
C45 H72 0.930 . S
C46 C44 1.352 . S
C46 C48 1.374 . S
C46 H73 0.931 . S
C47 C48 1.359 . S
C47 C49 1.364 1_655 S
C48 C46 1.374 . S
C48 C47 1.359 . S
C48 H74 0.931 . S
C49 C45 1.389 . S
C49 C47 1.364 1_455 S
C49 H75 0.931 . S
C50 O64 1.256 . S
C50 O65 1.257 1_545 S
C51 O66 1.240 . S
C51 O67 1.240 . S
C52 Gd41 2.818 . S
C52 C53 1.510 . S
C52 O68 1.249 . S
C52 O69 1.252 . S
C53 C52 1.510 . S
C53 C54 1.404 . S
C53 C55 1.352 . S
C54 C53 1.404 . S
C54 C58 1.389 . S
C54 H76 0.930 . S
C55 C53 1.352 . S
C55 C57 1.374 . S
C55 H77 0.931 . S
C56 C57 1.359 . S
C56 C58 1.364 . S
C57 C55 1.374 . S
C57 C56 1.359 . S
C57 H78 0.931 . S
C58 C54 1.389 . S
C58 C56 1.364 . S
C58 H79 0.931 . S
C59 O70 1.256 . S
C59 O71 1.257 1_565 S
O60 Gd40 2.377 . S
O60 C42 1.240 1_545 S
O61 Gd41 2.395 . S
O61 C42 1.240 . S
O62 Gd40 2.448 . S
O62 C43 1.249 . S
O63 Gd40 2.506 . S
O63 C43 1.252 . S
O64 Gd40 2.435 . S
O64 C50 1.256 . S
O65 Gd40 2.717 1_565 S
O65 Gd41 2.327 . S
O65 C50 1.257 1_565 S
O66 Gd41 2.377 1_545 S
O66 C51 1.240 . S
O67 Gd40 2.395 . S
O67 C51 1.240 . S
O68 Gd41 2.448 . S
O68 C52 1.249 . S
O69 Gd41 2.506 . S
O69 C52 1.252 . S
O70 Gd41 2.435 . S
O70 C59 1.256 . S
O71 Gd40 2.327 . S
O71 Gd41 2.717 1_545 S
O71 C59 1.257 1_545 S
H72 C45 0.930 . S
H73 C46 0.931 . S
H74 C48 0.931 . S
H75 C49 0.931 . S
H76 C54 0.930 . S
H77 C55 0.931 . S
H78 C57 0.931 . S
H79 C58 0.931 . S
Gd80 C83 2.818 . S
Gd80 O100 2.377 1_545 S
Gd80 O102 2.448 . S
Gd80 O103 2.506 1_545 S
Gd80 O104 2.435 . S
Gd80 O105 2.717 . S
Gd80 O107 2.395 . S
Gd80 O111 2.327 1_545 S
Gd81 C92 2.818 1_655 S
Gd81 O101 2.395 . S
Gd81 O105 2.327 1_565 S
Gd81 O106 2.377 . S
Gd81 O108 2.448 . S
Gd81 O109 2.506 1_655 S
Gd81 O110 2.435 . S
Gd81 O111 2.717 . S
C82 O100 1.240 . S
C82 O101 1.240 . S
C83 Gd80 2.818 . S
C83 C84 1.510 . S
C83 O102 1.249 . S
C83 O103 1.252 1_545 S
C84 C83 1.510 . S
C84 C85 1.404 . S
C84 C86 1.352 1_545 S
C85 C84 1.404 . S
C85 C89 1.389 . S
C85 H112 0.930 . S
C86 C84 1.352 1_565 S
C86 C88 1.374 . S
C86 H113 0.931 . S
C87 C88 1.359 1_545 S
C87 C89 1.364 . S
C88 C86 1.374 . S
C88 C87 1.359 1_565 S
C88 H114 0.931 . S
C89 C85 1.389 . S
C89 C87 1.364 . S
C89 H115 0.931 . S
C90 O104 1.256 1_455 S
C90 O105 1.257 1_455 S
C91 O106 1.240 . S
C91 O107 1.240 1_565 S
C92 Gd81 2.818 1_455 S
C92 C93 1.510 . S
C92 O108 1.249 1_455 S
C92 O109 1.252 . S
C93 C92 1.510 . S
C93 C94 1.404 1_455 S
C93 C95 1.352 . S
C94 C93 1.404 1_655 S
C94 C98 1.389 1_655 S
C94 H116 0.930 . S
C95 C93 1.352 . S
C95 C97 1.374 . S
C95 H117 0.931 . S
C96 C97 1.359 . S
C96 C98 1.364 . S
C97 C95 1.374 . S
C97 C96 1.359 . S
C97 H118 0.931 . S
C98 C94 1.389 1_455 S
C98 C96 1.364 . S
C98 H119 0.931 1_455 S
C99 O110 1.256 . S
C99 O111 1.257 . S
O100 Gd80 2.377 1_565 S
O100 C82 1.240 . S
O101 Gd81 2.395 . S
O101 C82 1.240 . S
O102 Gd80 2.448 . S
O102 C83 1.249 . S
O103 Gd80 2.506 1_565 S
O103 C83 1.252 1_565 S
O104 Gd80 2.435 . S
O104 C90 1.256 1_655 S
O105 Gd80 2.717 . S
O105 Gd81 2.327 1_545 S
O105 C90 1.257 1_655 S
O106 Gd81 2.377 . S
O106 C91 1.240 . S
O107 Gd80 2.395 . S
O107 C91 1.240 1_545 S
O108 Gd81 2.448 . S
O108 C92 1.249 1_655 S
O109 Gd81 2.506 1_455 S
O109 C92 1.252 . S
O110 Gd81 2.435 . S
O110 C99 1.256 . S
O111 Gd80 2.327 1_565 S
O111 Gd81 2.717 . S
O111 C99 1.257 . S
H112 C85 0.930 . S
H113 C86 0.931 . S
H114 C88 0.931 . S
H115 C89 0.931 . S
H116 C94 0.930 . S
H117 C95 0.931 . S
H118 C97 0.931 . S
H119 C98 0.931 1_655 S
H120 C128 0.950 . S
H121 C133 0.950 . S
H122 C130 0.950 . S
H123 C132 0.950 . S
H124 C134 0.950 . S
H125 C136 0.950 . S
H126 C138 0.950 . S
H127 C139 0.950 . S
C128 H120 0.950 . S
C128 C129 1.386 1_655 S
C128 C130 1.391 1_565 S
C129 C128 1.386 1_455 S
C129 C133 1.393 1_565 S
C130 H122 0.950 . S
C130 C128 1.391 1_545 S
C130 C131 1.400 1_655 S
C131 C130 1.400 1_455 S
C131 C132 1.398 . S
C131 C137 1.491 1_455 S
C132 H123 0.950 . S
C132 C131 1.398 . S
C132 C133 1.391 . S
C133 H121 0.950 . S
C133 C129 1.393 1_545 S
C133 C132 1.391 . S
C134 H124 0.950 . S
C134 C135 1.386 1_455 S
C134 C136 1.391 . S
C135 C134 1.386 1_655 S
C135 C139 1.393 . S
C136 H125 0.950 . S
C136 C134 1.391 . S
C136 C137 1.400 1_455 S
C137 C131 1.491 1_655 S
C137 C136 1.400 1_655 S
C137 C138 1.398 . S
C138 H126 0.950 . S
C138 C137 1.398 . S
C138 C139 1.391 . S
C139 H127 0.950 . S
C139 C135 1.393 . S
C139 C138 1.391 . S
H140 C148 0.950 . S
H141 C153 0.950 . S
H142 C150 0.950 . S
H143 C152 0.950 . S
H144 C154 0.950 . S
H145 C156 0.950 . S
H146 C158 0.950 . S
H147 C159 0.950 1_655 S
C148 H140 0.950 . S
C148 C149 1.386 1_565 S
C148 C150 1.391 . S
C149 C148 1.386 1_545 S
C149 C153 1.393 . S
C150 H142 0.950 . S
C150 C148 1.391 . S
C150 C151 1.400 1_565 S
C151 C150 1.400 1_545 S
C151 C152 1.398 . S
C151 C157 1.491 . S
C152 H143 0.950 . S
C152 C151 1.398 . S
C152 C153 1.391 . S
C153 H141 0.950 . S
C153 C149 1.393 . S
C153 C152 1.391 . S
C154 H144 0.950 . S
C154 C155 1.386 . S
C154 C156 1.391 . S
C155 C154 1.386 . S
C155 C159 1.393 1_545 S
C156 H145 0.950 . S
C156 C154 1.391 . S
C156 C157 1.400 . S
C157 C151 1.491 . S
C157 C156 1.400 . S
C157 C158 1.398 1_545 S
C158 H146 0.950 . S
C158 C157 1.398 1_565 S
C158 C159 1.391 . S
C159 H147 0.950 1_455 S
C159 C155 1.393 1_565 S
C159 C158 1.391 . S
H160 C168 0.950 . S
H161 C173 0.950 . S
H162 C170 0.950 . S
H163 C172 0.950 . S
H164 C174 0.950 . S
H165 C176 0.950 . S
H166 C178 0.950 . S
H167 C179 0.950 . S
C168 H160 0.950 . S
C168 C169 1.386 . S
C168 C170 1.391 . S
C169 C168 1.386 . S
C169 C173 1.393 . S
C170 H162 0.950 . S
C170 C168 1.391 . S
C170 C171 1.400 . S
C171 C170 1.400 . S
C171 C172 1.398 . S
C171 C177 1.491 . S
C172 H163 0.950 . S
C172 C171 1.398 . S
C172 C173 1.391 . S
C173 H161 0.950 . S
C173 C169 1.393 . S
C173 C172 1.391 . S
C174 H164 0.950 . S
C174 C175 1.386 . S
C174 C176 1.391 . S
C175 C174 1.386 . S
C175 C179 1.393 . S
C176 H165 0.950 . S
C176 C174 1.391 . S
C176 C177 1.400 . S
C177 C171 1.491 . S
C177 C176 1.400 . S
C177 C178 1.398 . S
C178 H166 0.950 . S
C178 C177 1.398 . S
C178 C179 1.391 . S
C179 H167 0.950 . S
C179 C175 1.393 . S
C179 C178 1.391 . S
H180 C188 0.950 . S
H181 C193 0.950 1_565 S
H182 C190 0.950 . S
H183 C192 0.950 . S
H184 C194 0.957 1_556 S
H185 C196 0.950 . S
H186 C198 0.950 . S
H187 C199 0.950 . S
C188 H180 0.950 . S
C188 C189 1.386 . S
C188 C190 1.391 . S
C189 C188 1.386 . S
C189 C193 1.393 . S
C190 H182 0.950 . S
C190 C188 1.391 . S
C190 C191 1.400 . S
C191 C190 1.400 . S
C191 C192 1.398 1_545 S
C191 C197 1.491 . S
C192 H183 0.950 . S
C192 C191 1.398 1_565 S
C192 C193 1.391 1_565 S
C193 H181 0.950 1_545 S
C193 C189 1.393 . S
C193 C192 1.391 1_545 S
C194 H184 0.957 1_554 S
C194 C195 1.400 . S
C194 C196 1.375 1_554 S
C195 C194 1.400 . S
C195 C199 1.393 1_565 S
C196 H185 0.950 . S
C196 C194 1.375 1_556 S
C196 C197 1.400 1_565 S
C197 C191 1.491 . S
C197 C196 1.400 1_545 S
C197 C198 1.398 1_556 S
C198 H186 0.950 . S
C198 C197 1.398 1_554 S
C198 C199 1.391 . S
C199 H187 0.950 . S
C199 C195 1.393 1_545 S
C199 C198 1.391 . S
H200 C208 0.950 . S
H201 C213 0.950 . S
H202 C210 0.950 . S
H203 C212 0.950 . S
H204 C214 0.950 . S
H205 C216 0.950 . S
H206 C218 0.950 . S
H207 C219 0.950 . S
C208 H200 0.950 . S
C208 C209 1.386 . S
C208 C210 1.391 . S
C209 C208 1.386 . S
C209 C213 1.393 . S
C210 H202 0.950 . S
C210 C208 1.391 . S
C210 C211 1.400 . S
C211 C210 1.400 . S
C211 C212 1.398 . S
C211 C217 1.491 . S
C212 H203 0.950 . S
C212 C211 1.398 . S
C212 C213 1.391 . S
C213 H201 0.950 . S
C213 C209 1.393 . S
C213 C212 1.391 . S
C214 H204 0.950 . S
C214 C215 1.386 . S
C214 C216 1.391 . S
C215 C214 1.386 . S
C215 C219 1.393 . S
C216 H205 0.950 . S
C216 C214 1.391 . S
C216 C217 1.400 . S
C217 C211 1.491 . S
C217 C216 1.400 . S
C217 C218 1.398 . S
C218 H206 0.950 . S
C218 C217 1.398 . S
C218 C219 1.391 . S
C219 H207 0.950 . S
C219 C215 1.393 . S
C219 C218 1.391 . S
H220 C228 0.950 . S
H221 C233 0.950 . S
H222 C230 0.950 . S
H223 C232 0.950 . S
H224 C234 0.950 . S
H225 C236 0.950 . S
H226 C238 0.950 1_545 S
H227 C239 0.950 1_545 S
C228 H220 0.950 . S
C228 C229 1.386 1_545 S
C228 C230 1.391 . S
C229 C228 1.386 1_565 S
C229 C233 1.393 . S
C230 H222 0.950 . S
C230 C228 1.391 . S
C230 C231 1.400 1_545 S
C231 C230 1.400 1_565 S
C231 C232 1.398 . S
C231 C237 1.491 . S
C232 H223 0.950 . S
C232 C231 1.398 . S
C232 C233 1.391 . S
C233 H221 0.950 . S
C233 C229 1.393 . S
C233 C232 1.391 . S
C234 H224 0.950 . S
C234 C235 1.386 . S
C234 C236 1.391 . S
C235 C234 1.386 . S
C235 C239 1.393 . S
C236 H225 0.950 . S
C236 C234 1.391 . S
C236 C237 1.400 . S
C237 C231 1.491 . S
C237 C236 1.400 . S
C237 C238 1.398 . S
C238 H226 0.950 1_565 S
C238 C237 1.398 . S
C238 C239 1.391 . S
C239 H227 0.950 1_565 S
C239 C235 1.393 . S
C239 C238 1.391 . S
H240 C248 0.950 . S
H241 C253 0.950 1_455 S
H242 C250 0.950 . S
H243 C252 0.950 . S
H244 C254 0.950 . S
H245 C256 0.950 . S
H246 C258 0.950 1_556 S
H247 C259 0.950 . S
C248 H240 0.950 . S
C248 C249 1.386 . S
C248 C250 1.391 . S
C249 C248 1.386 . S
C249 C253 1.393 . S
C250 H242 0.950 . S
C250 C248 1.391 . S
C250 C251 1.400 . S
C251 C250 1.400 . S
C251 C252 1.398 . S
C251 C257 1.491 1_556 S
C252 H243 0.950 . S
C252 C251 1.398 . S
C252 C253 1.391 . S
C253 H241 0.950 1_655 S
C253 C249 1.393 . S
C253 C252 1.391 . S
C254 H244 0.950 . S
C254 C255 1.386 . S
C254 C256 1.391 . S
C255 C254 1.386 . S
C255 C259 1.393 . S
C256 H245 0.950 . S
C256 C254 1.391 . S
C256 C257 1.400 . S
C257 C251 1.491 1_554 S
C257 C256 1.400 . S
C257 C258 1.398 . S
C258 H246 0.950 1_554 S
C258 C257 1.398 . S
C258 C259 1.391 . S
C259 H247 0.950 . S
C259 C255 1.393 . S
C259 C258 1.391 . S
H260 C268 0.950 . S
H261 C273 0.950 . S
H262 C270 0.950 . S
H263 C272 0.950 . S
H264 C274 0.950 . S
H265 C276 0.950 . S
H266 C278 0.950 . S
H267 C279 0.950 . S
C268 H260 0.950 . S
C268 C269 1.386 . S
C268 C270 1.391 . S
C269 C268 1.386 . S
C269 C273 1.393 . S
C270 H262 0.950 . S
C270 C268 1.391 . S
C270 C271 1.400 . S
C271 C270 1.400 . S
C271 C272 1.398 . S
C271 C277 1.491 . S
C272 H263 0.950 . S
C272 C271 1.398 . S
C272 C273 1.391 . S
C273 H261 0.950 . S
C273 C269 1.393 . S
C273 C272 1.391 . S
C274 H264 0.950 . S
C274 C275 1.386 . S
C274 C276 1.391 . S
C275 C274 1.386 . S
C275 C279 1.393 . S
C276 H265 0.950 . S
C276 C274 1.391 . S
C276 C277 1.400 . S
C277 C271 1.491 . S
C277 C276 1.400 . S
C277 C278 1.398 . S
C278 H266 0.950 . S
C278 C277 1.398 . S
C278 C279 1.391 . S
C279 H267 0.950 . S
C279 C275 1.393 . S
C279 C278 1.391 . S
H280 C288 0.950 1_655 S
H281 C293 0.950 . S
H282 C290 0.950 1_655 S
H283 C292 0.950 . S
H284 C294 0.950 . S
H285 C296 0.950 . S
H286 C298 0.950 . S
H287 C299 0.950 . S
C288 H280 0.950 1_455 S
C288 C289 1.386 . S
C288 C290 1.391 . S
C289 C288 1.386 . S
C289 C293 1.393 . S
C290 H282 0.950 1_455 S
C290 C288 1.391 . S
C290 C291 1.400 . S
C291 C290 1.400 . S
C291 C292 1.398 . S
C291 C297 1.491 . S
C292 H283 0.950 . S
C292 C291 1.398 . S
C292 C293 1.391 . S
C293 H281 0.950 . S
C293 C289 1.393 . S
C293 C292 1.391 . S
C294 H284 0.950 . S
C294 C295 1.386 . S
C294 C296 1.391 . S
C295 C294 1.386 . S
C295 C299 1.393 1_455 S
C296 H285 0.950 . S
C296 C294 1.391 . S
C296 C297 1.400 . S
C297 C291 1.491 . S
C297 C296 1.400 . S
C297 C298 1.398 1_455 S
C298 H286 0.950 . S
C298 C297 1.398 1_655 S
C298 C299 1.391 . S
C299 H287 0.950 . S
C299 C295 1.393 1_655 S
C299 C298 1.391 . S
C129 C10 1.537 1_455 S
C135 C19 1.537 1_655 S
C149 C59 1.628 1_545 S
C155 C50 1.628 1_455 S
C169 C90 1.346 . S
C175 C99 1.346 . S
C189 C87 0.987 . S
C195 C16 0.981 . S
C209 C51 1.989 . S
C215 C7 1.920 . S
C229 C91 2.450 . S
C235 C42 2.444 . S
C249 C82 2.343 . S
C255 C11 2.289 . S
C269 C2 1.705 . S
C275 C56 1.605 . S
C289 C96 0.992 . S
C295 C47 0.983 1_455 S
