# Generated by pormake.
# Topology smk, (6)-cn, num edge types: 1
# Building blocks:
#     Node 0, Type 0, BuildingBlock: JUFBIX_clean_sbu_0, # of connection points: 6
#     Node 1, Type 0, BuildingBlock: JUFBIX_clean_sbu_0, # of connection points: 6
#     Node 2, Type 0, BuildingBlock: JUFBIX_clean_sbu_0, # of connection points: 6
#     Node 3, Type 0, BuildingBlock: JUFBIX_clean_sbu_0, # of connection points: 6
#     Node 4, Type 0, BuildingBlock: JUFBIX_clean_sbu_0, # of connection points: 6
#     Node 5, Type 0, BuildingBlock: JUFBIX_clean_sbu_0, # of connection points: 6
#     Edge 6, Type (0, 0), BuildingBlock: KIFKEQ_clean_linker_1, # of connection points: 2
#     Edge 7, Type (0, 0), BuildingBlock: KIFKEQ_clean_linker_1, # of connection points: 2
#     Edge 8, Type (0, 0), BuildingBlock: KIFKEQ_clean_linker_1, # of connection points: 2
#     Edge 9, Type (0, 0), BuildingBlock: KIFKEQ_clean_linker_1, # of connection points: 2
#     Edge 10, Type (0, 0), BuildingBlock: KIFKEQ_clean_linker_1, # of connection points: 2
#     Edge 11, Type (0, 0), BuildingBlock: KIFKEQ_clean_linker_1, # of connection points: 2
#     Edge 12, Type (0, 0), BuildingBlock: KIFKEQ_clean_linker_1, # of connection points: 2
#     Edge 13, Type (0, 0), BuildingBlock: KIFKEQ_clean_linker_1, # of connection points: 2
#     Edge 14, Type (0, 0), BuildingBlock: KIFKEQ_clean_linker_1, # of connection points: 2
#     Edge 15, Type (0, 0), BuildingBlock: KIFKEQ_clean_linker_1, # of connection points: 2
#     Edge 16, Type (0, 0), BuildingBlock: KIFKEQ_clean_linker_1, # of connection points: 2
#     Edge 17, Type (0, 0), BuildingBlock: KIFKEQ_clean_linker_1, # of connection points: 2
#     Edge 18, Type (0, 0), BuildingBlock: KIFKEQ_clean_linker_1, # of connection points: 2
#     Edge 19, Type (0, 0), BuildingBlock: KIFKEQ_clean_linker_1, # of connection points: 2
#     Edge 20, Type (0, 0), BuildingBlock: KIFKEQ_clean_linker_1, # of connection points: 2
#     Edge 21, Type (0, 0), BuildingBlock: KIFKEQ_clean_linker_1, # of connection points: 2
#     Edge 22, Type (0, 0), BuildingBlock: KIFKEQ_clean_linker_1, # of connection points: 2
#     Edge 23, Type (0, 0), BuildingBlock: KIFKEQ_clean_linker_1, # of connection points: 2
# Relax obj value: 0.366
# Max RMSD: 0.250
# Mean RMSD: 0.250
data_MOF--net-smk--node1-JUFBIX_clean_sbu_0--edge1-KIFKEQ_clean_linker_1
_symmetry_space_group_name_H-M    P1
_symmetry_Int_Tables_number       1
_symmetry_cell_setting            triclinic
loop_
_symmetry_equiv_pos_as_xyz
'x, y, z'
_cell_length_a     46.034591
_cell_length_b     46.044208
_cell_length_c     15.167873
_cell_angle_alpha  89.872443
_cell_angle_beta   89.950944
_cell_angle_gamma 119.97494
loop_
_atom_site_label
_atom_site_type_symbol
_atom_site_fract_x
_atom_site_fract_y
_atom_site_fract_z
_atom_type_partial_charge
Co0 Co 0.42404 0.19223 0.51305 0.0
C1 C 0.40326 0.12446 0.52035 0.0
Co2 Co 0.46615 0.18197 0.51502 0.0
C3 C 0.38542 0.22509 0.5522 0.0
C4 C 0.36172 0.18567 0.45753 0.0
N5 N 0.38912 0.20146 0.50901 0.0
N6 N 0.35686 0.22476 0.52909 0.0
C7 C 0.34193 0.19988 0.46963 0.0
H8 H 0.40364 0.24255 0.59843 0.0
H9 H 0.35654 0.16518 0.41355 0.0
C10 C 0.4876 0.24943 0.50395 0.0
N11 N 0.50054 0.17206 0.51848 0.0
C12 C 0.52712 0.18425 0.57343 0.0
C13 C 0.50262 0.14864 0.4702 0.0
N14 N 0.54567 0.1692 0.56181 0.0
C15 C 0.53024 0.14683 0.49653 0.0
C16 C 0.44465 0.18491 0.34672 0.0
O17 O 0.45629 0.23923 0.50798 0.0
O18 O 0.4975 0.22817 0.50756 0.0
O19 O 0.46523 0.17949 0.38946 0.0
O20 O 0.42443 0.19102 0.38858 0.0
O21 O 0.43468 0.13585 0.52195 0.0
H22 H 0.48464 0.13318 0.42071 0.0
H23 H 0.53247 0.20359 0.62154 0.0
O24 O 0.39231 0.14491 0.51626 0.0
O25 O 0.42401 0.19344 0.63839 0.0
O26 O 0.46665 0.18459 0.63958 0.0
C27 C 0.44554 0.1895 0.68125 0.0
H28 H 0.31813 0.19213 0.43783 0.0
H29 H 0.53764 0.12952 0.47125 0.0
Co30 Co 0.20627 0.40877 0.7758 0.0
C31 C 0.13869 0.38813 0.76902 0.0
Co32 Co 0.19632 0.45108 0.77341 0.0
C33 C 0.23942 0.37038 0.73778 0.0
C34 C 0.19957 0.34635 0.83177 0.0
N35 N 0.21556 0.3739 0.7805 0.0
N36 N 0.23903 0.34178 0.76094 0.0
C37 C 0.21388 0.32664 0.81999 0.0
H38 H 0.25705 0.38874 0.69176 0.0
H39 H 0.17884 0.341 0.8753 0.0
C40 C 0.2636 0.4724 0.78398 0.0
N41 N 0.1863 0.48538 0.7691 0.0
C42 C 0.19932 0.51243 0.71532 0.0
C43 C 0.16131 0.48639 0.81297 0.0
N44 N 0.18306 0.52991 0.72298 0.0
C45 C 0.15915 0.51363 0.78442 0.0
C46 C 0.19883 0.42956 0.9419 0.0
O47 O 0.25321 0.44102 0.78309 0.0
O48 O 0.24252 0.48245 0.77755 0.0
O49 O 0.19492 0.45109 0.89881 0.0
O50 O 0.2037 0.40844 0.90043 0.0
O51 O 0.15019 0.41955 0.76971 0.0
H52 H 0.14497 0.46785 0.86057 0.0
H53 H 0.21935 0.51836 0.66864 0.0
O54 O 0.15901 0.377 0.77043 0.0
O55 O 0.20878 0.40949 0.65026 0.0
O56 O 0.1978 0.45071 0.64902 0.0
C57 C 0.20368 0.4303 0.60735 0.0
H58 H 0.20601 0.30275 0.85167 0.0
H59 H 0.14122 0.52076 0.80645 0.0
Co60 Co 0.82136 0.21685 0.84789 0.0
C61 C 0.88893 0.26496 0.85384 0.0
Co62 Co 0.83068 0.26888 0.84924 0.0
C63 C 0.78951 0.14527 0.88715 0.0
C64 C 0.83276 0.16309 0.80388 0.0
N65 N 0.81344 0.17311 0.84592 0.0
N66 N 0.79363 0.11857 0.87325 0.0
C67 C 0.82082 0.12971 0.82114 0.0
H68 H 0.77017 0.14483 0.92875 0.0
H69 H 0.85453 0.1792 0.76425 0.0
C70 C 0.76343 0.22176 0.83923 0.0
N71 N 0.83964 0.31289 0.85082 0.0
C72 C 0.82787 0.3275 0.90652 0.0
C73 C 0.86213 0.33808 0.79962 0.0
N74 N 0.8423 0.36093 0.89251 0.0
C75 C 0.86383 0.36752 0.82493 0.0
C76 C 0.82822 0.24422 0.68125 0.0
O77 O 0.77425 0.20111 0.83993 0.0
O78 O 0.78418 0.25297 0.84586 0.0
O79 O 0.83155 0.26945 0.72384 0.0
O80 O 0.82401 0.21849 0.72321 0.0
O81 O 0.87712 0.28463 0.85198 0.0
H82 H 0.8771 0.33537 0.7488 0.0
H83 H 0.80933 0.31379 0.95694 0.0
O84 O 0.86882 0.2335 0.8541 0.0
O85 O 0.81876 0.21555 -0.02668 0.0
O86 O 0.82968 0.26772 -0.02624 0.0
C87 C 0.82384 0.24146 0.01583 0.0
H88 H 0.83135 0.11474 0.79757 0.0
H89 H 0.88054 0.39202 0.79731 0.0
Co90 Co 0.60245 0.78251 0.11172 0.0
C91 C 0.62173 0.73417 0.10494 0.0
Co92 Co 0.55972 0.73054 0.11038 0.0
C93 C 0.64249 0.85407 0.07232 0.0
C94 C 0.66764 0.83605 0.15583 0.0
N95 N 0.63836 0.82618 0.11376 0.0
N96 N 0.67338 0.88064 0.08613 0.0
C97 C 0.68925 0.86936 0.13838 0.0
H98 H 0.62371 0.85462 0.03054 0.0
H99 H 0.67315 0.81985 0.1955 0.0
C100 C 0.53964 0.77773 0.12094 0.0
N101 N 0.52461 0.68663 0.10863 0.0
C102 C 0.49841 0.67222 0.05249 0.0
C103 C 0.52166 0.6613 0.15964 0.0
N104 N 0.47929 0.63878 0.06597 0.0
C105 C 0.49394 0.63196 0.13373 0.0
C106 C 0.58195 0.75507 0.27835 0.0
O107 O 0.57111 0.7984 0.1203 0.0
O108 O 0.52923 0.74655 0.11406 0.0
O109 O 0.56 0.72988 0.23579 0.0
O110 O 0.6035 0.78077 0.23636 0.0
O111 O 0.59025 0.71462 0.10724 0.0
H112 H 0.53919 0.66384 0.21065 0.0
H113 H 0.49381 0.68608 0.00206 0.0
O114 O 0.63319 0.76567 0.10485 0.0
O115 O 0.60112 0.78394 -0.01372 0.0
O116 O 0.5599 0.73178 -0.01413 0.0
C117 C 0.58029 0.75805 0.94379 0.0
H118 H 0.71476 0.8842 0.16179 0.0
H119 H 0.48601 0.60738 0.16099 0.0
Co120 Co 0.79638 0.59052 0.17334 0.0
C121 C 0.74833 0.61013 0.17934 0.0
Co122 Co 0.74426 0.54791 0.17599 0.0
C123 C 0.86782 0.63257 0.21442 0.0
C124 C 0.85075 0.65237 0.11182 0.0
N125 N 0.8402 0.62624 0.16782 0.0
N126 N 0.89515 0.66177 0.18967 0.0
C127 C 0.88429 0.67407 0.12482 0.0
H128 H 0.86769 0.61633 0.26628 0.0
H129 H 0.835 0.65545 0.06425 0.0
C130 C 0.79128 0.52759 0.16647 0.0
N131 N 0.70025 0.51293 0.18034 0.0
C132 C 0.68622 0.48632 0.23564 0.0
C133 C 0.67454 0.51044 0.13213 0.0
N134 N 0.65265 0.46736 0.22426 0.0
C135 C 0.64537 0.48259 0.15883 0.0
C136 C 0.76836 0.56913 0.00731 0.0
O137 O 0.81209 0.55899 0.16975 0.0
O138 O 0.76003 0.5173 0.16974 0.0
O139 O 0.74247 0.54844 0.05038 0.0
O140 O 0.79457 0.5896 0.04885 0.0
O141 O 0.72871 0.57867 0.18185 0.0
H142 H 0.67674 0.52832 0.08243 0.0
H143 H 0.70045 0.48127 0.28384 0.0
O144 O 0.7798 0.62154 0.17509 0.0
O145 O 0.79772 0.59095 0.29876 0.0
O146 O 0.74656 0.54776 0.30048 0.0
C147 C 0.7724 0.56918 0.34188 0.0
H148 H 0.89952 0.69701 0.08833 0.0
H149 H 0.6206 0.47492 0.13363 0.0
Co150 Co 0.22852 0.80684 0.44927 0.0
C151 C 0.2766 0.87435 0.44319 0.0
Co152 Co 0.2806 0.81607 0.44656 0.0
C153 C 0.15709 0.77745 0.40793 0.0
C154 C 0.17413 0.81446 0.50971 0.0
N155 N 0.1847 0.7988 0.45431 0.0
N156 N 0.12975 0.77935 0.43223 0.0
C157 C 0.14058 0.8026 0.49657 0.0
H158 H 0.15724 0.76125 0.35656 0.0
H159 H 0.18987 0.83336 0.55701 0.0
C160 C 0.23348 0.7489 0.45615 0.0
N161 N 0.32468 0.82514 0.44282 0.0
C162 C 0.33915 0.81323 0.38702 0.0
C163 C 0.35006 0.8479 0.49263 0.0
N164 N 0.37266 0.8278 0.39975 0.0
C165 C 0.37945 0.84959 0.46648 0.0
C166 C 0.25635 0.81312 0.61528 0.0
O167 O 0.21279 0.75967 0.45378 0.0
O168 O 0.26477 0.76964 0.4521 0.0
O169 O 0.28212 0.81796 0.57228 0.0
O170 O 0.23026 0.80779 0.5737 0.0
O171 O 0.29616 0.86241 0.44131 0.0
H172 H 0.3475 0.86304 0.54309 0.0
H173 H 0.32529 0.79446 0.33751 0.0
O174 O 0.24511 0.85437 0.44674 0.0
O175 O 0.22725 0.80584 0.32379 0.0
O176 O 0.27852 0.81403 0.32214 0.0
C177 C 0.25262 0.80953 0.28072 0.0
H178 H 0.12533 0.81036 0.53264 0.0
H179 H 0.40405 0.86646 0.49295 0.0
H180 H 0.41642 0.21117 0.2388 0.0
H181 H 0.47303 0.15948 0.23492 0.0
H182 H 0.4174 0.21327 0.0788 0.0
H183 H 0.47267 0.16005 0.07412 0.0
H184 H 0.49552 0.19615 0.79038 0.0
H185 H 0.49556 0.19543 0.95077 0.0
H186 H 0.39504 0.18055 0.95228 0.0
H187 H 0.39578 0.18293 0.79189 0.0
C188 C 0.42875 0.19988 0.20358 0.0
C189 C 0.44466 0.18515 0.24938 0.0
C190 C 0.42914 0.20089 0.11163 0.0
C191 C 0.44501 0.18674 0.06307 0.0
C192 C 0.46069 0.17173 0.10915 0.0
C193 C 0.46073 0.17117 0.20134 0.0
C194 C 0.4735 0.19288 0.82511 0.0
C195 C 0.44567 0.18968 0.7786 0.0
C196 C 0.47339 0.19218 0.91716 0.0
C197 C 0.44526 0.18779 0.96491 0.0
C198 C 0.4174 0.18456 0.91803 0.0
C199 C 0.41771 0.18576 0.82596 0.0
H200 H 0.17867 0.45977 0.49946 0.0
H201 H 0.22806 0.40095 0.49534 0.0
H202 H 0.17661 0.45894 0.33953 0.0
H203 H 0.22753 0.40144 0.33453 0.0
H204 H 0.191 0.37918 0.05153 0.0
H205 H 0.19192 0.3792 0.21191 0.0
H206 H 0.20934 0.48063 0.21227 0.0
H207 H 0.20676 0.47986 0.05189 0.0
C208 C 0.18947 0.44696 0.46421 0.0
C209 C 0.20352 0.43039 0.50997 0.0
C210 C 0.18848 0.44667 0.37228 0.0
C211 C 0.20198 0.43021 0.32363 0.0
C212 C 0.21635 0.41388 0.36964 0.0
C213 C 0.21689 0.41377 0.46184 0.0
C214 C 0.19487 0.40142 0.08602 0.0
C215 C 0.1987 0.42949 0.03923 0.0
C216 C 0.19569 0.40156 0.17805 0.0
C217 C 0.20086 0.42997 0.22548 0.0
C218 C 0.20473 0.45807 0.17829 0.0
C219 C 0.2034 0.45773 0.08624 0.0
H220 H 0.84815 0.29573 0.12391 0.0
H221 H 0.79993 0.18763 0.12764 0.0
H222 H 0.85016 0.29662 0.28394 0.0
H223 H 0.8004 0.18829 0.28835 0.0
H224 H 0.81955 0.28624 0.57134 0.0
H225 H 0.81719 0.28484 0.41102 0.0
H226 H 0.83602 0.20172 0.41107 0.0
H227 H 0.83673 0.2022 0.57154 0.0
C228 C 0.83761 0.27209 0.15907 0.0
C229 C 0.82391 0.24159 0.1132 0.0
C230 C 0.83857 0.27257 0.25103 0.0
C231 C 0.82539 0.24253 0.29952 0.0
C232 C 0.81135 0.21197 0.25338 0.0
C233 C 0.81083 0.21153 0.16122 0.0
C234 C 0.82325 0.26773 0.53696 0.0
C235 C 0.82829 0.24432 0.58392 0.0
C236 C 0.82206 0.267 0.44493 0.0
C237 C 0.82642 0.24316 0.39767 0.0
C238 C 0.8319 0.22002 0.44501 0.0
C239 C 0.83258 0.22044 0.53708 0.0
H240 H 0.6325 0.797 0.38789 0.0
H241 H 0.53121 0.71317 0.38844 0.0
H242 H 0.63224 0.79756 0.54836 0.0
H243 H 0.53023 0.71466 0.54875 0.0
H244 H 0.55021 0.70378 0.83579 0.0
H245 H 0.55133 0.70284 0.67578 0.0
H246 H 0.61011 0.81115 0.67114 0.0
H247 H 0.61031 0.81186 0.83187 0.0
C248 C 0.61009 0.77882 0.42243 0.0
C249 C 0.58192 0.75498 0.37567 0.0
C250 C 0.60982 0.7793 0.51449 0.0
C251 C 0.58117 0.75625 0.56193 0.0
C252 C 0.55296 0.73244 0.51477 0.0
C253 C 0.55343 0.73165 0.42274 0.0
C254 C 0.56336 0.7274 0.80059 0.0
C255 C 0.58022 0.75791 0.84641 0.0
C256 C 0.56383 0.72689 0.70863 0.0
C257 C 0.58075 0.75691 0.66008 0.0
C258 C 0.59733 0.78748 0.70616 0.0
C259 C 0.59726 0.78795 0.79833 0.0
H260 H 0.81495 0.61919 0.45232 0.0
H261 H 0.72961 0.51878 0.45119 0.0
H262 H 0.81319 0.61964 0.61277 0.0
H263 H 0.72875 0.51849 0.61153 0.0
H264 H 0.71462 0.54012 0.8956 0.0
H265 H 0.71562 0.54076 0.73477 0.0
H266 H 0.82404 0.59738 0.7393 0.0
H267 H 0.82284 0.59805 0.89929 0.0
C268 C 0.79608 0.59706 0.48648 0.0
C269 C 0.77242 0.56899 0.43923 0.0
C270 C 0.79513 0.59722 0.57856 0.0
C271 C 0.7708 0.56909 0.62551 0.0
C272 C 0.74742 0.54085 0.57786 0.0
C273 C 0.74808 0.5409 0.48582 0.0
C274 C 0.7386 0.55276 0.86198 0.0
C275 C 0.76861 0.56912 0.90997 0.0
C276 C 0.73924 0.55296 0.76978 0.0
C277 C 0.76994 0.56913 0.72366 0.0
C278 C 0.79991 0.58526 0.77218 0.0
C279 C 0.79924 0.58546 0.86412 0.0
H280 H 0.21007 0.81706 0.16994 0.0
H281 H 0.29529 0.80172 0.17178 0.0
H282 H 0.21173 0.81912 0.00944 0.0
H283 H 0.29604 0.80212 0.01146 0.0
H284 H 0.31011 0.8376 0.72686 0.0
H285 H 0.30917 0.83734 0.88767 0.0
H286 H 0.20076 0.78597 0.88339 0.0
H287 H 0.20191 0.78777 0.72336 0.0
C288 C 0.22889 0.81372 0.13593 0.0
C289 C 0.25256 0.80929 0.18338 0.0
C290 C 0.22978 0.81473 0.04383 0.0
C291 C 0.25405 0.8108 -0.00292 0.0
C292 C 0.27742 0.80592 0.04495 0.0
C293 C 0.27683 0.80541 0.13698 0.0
C294 C 0.28614 0.82636 0.76054 0.0
C295 C 0.25612 0.81283 0.71261 0.0
C296 C 0.28553 0.82598 0.85273 0.0
C297 C 0.25486 0.81161 0.89892 0.0
C298 C 0.22487 0.79787 0.85046 0.0
C299 C 0.22551 0.7987 0.75851 0.0
H300 H 0.418 0.07665 0.56868 0.0
H301 H 0.33733 0.08916 0.46655 0.0
H302 H 0.38427 1.01653 0.54884 0.0
H303 H 0.30342 0.02827 0.4446 0.0
H304 H 0.24669 0.91053 0.49577 0.0
H305 H 0.27443 0.97144 0.51833 0.0
H306 H 0.36696 0.98164 0.41824 0.0
H307 H 0.33982 0.92149 0.39777 0.0
C308 C 0.39292 0.06651 0.54229 0.0
C309 C 0.38049 0.08772 0.51818 0.0
C310 C 0.37363 0.032 0.53036 0.0
C311 C 0.34146 1.01767 0.49312 0.0
C312 C 0.32817 0.03859 0.47321 0.0
C313 C 0.34756 0.0734 0.48575 0.0
C314 C 0.27284 0.92595 0.47767 0.0
C315 C 0.29119 0.91118 0.44614 0.0
C316 C 0.2887 0.96077 0.49055 0.0
C317 C 0.32308 0.98126 0.47193 0.0
C318 C 0.34071 0.9665 0.43573 0.0
C319 C 0.32506 0.93198 0.42344 0.0
H320 H 0.31684 0.24262 0.44183 0.0
H321 H 0.36833 0.25517 0.68877 0.0
H322 H 0.2918 0.27442 0.49898 0.0
H323 H 0.34402 0.28804 0.74537 0.0
H324 H 0.25647 0.30138 0.84815 0.0
H325 H 0.28849 0.27652 0.79118 0.0
H326 H 0.30325 0.32976 0.54541 0.0
H327 H 0.27017 0.35388 0.60177 0.0
C328 C 0.32296 0.25231 0.50826 0.0
C329 C 0.34432 0.24597 0.56104 0.0
C330 C 0.30892 0.27096 0.54068 0.0
C331 C 0.31579 0.28375 0.6269 0.0
C332 C 0.3379 0.27824 0.67896 0.0
C333 C 0.3521 0.25966 0.64629 0.0
C334 C 0.26646 0.30776 0.78189 0.0
C335 C 0.26038 0.32935 0.7292 0.0
C336 C 0.28523 0.29383 0.74958 0.0
C337 C 0.2984 0.30103 0.66358 0.0
C338 C 0.29315 0.32339 0.61164 0.0
C339 C 0.27445 0.33746 0.64419 0.0
H340 H 0.93664 0.32869 0.89192 0.0
H341 H 0.92434 0.23371 0.80683 0.0
H342 H 0.99671 0.35494 0.86963 0.0
H343 H 0.9851 0.26049 0.78216 0.0
H344 H 0.10296 0.32281 0.82791 0.0
H345 H 0.04207 0.28981 0.85223 0.0
H346 H 1.03125 0.37004 0.73878 0.0
H347 H 0.09141 0.40291 0.71688 0.0
C348 C 0.94682 0.31335 0.86872 0.0
C349 C 0.9257 0.27921 0.85018 0.0
C350 C 0.98129 0.32847 0.85531 0.0
C351 C 0.99562 0.31 0.82203 0.0
C352 C 0.97478 0.2754 0.80763 0.0
C353 C 0.94005 0.26009 0.82172 0.0
C354 C 0.08738 0.33304 0.80712 0.0
C355 C 0.10194 0.36559 0.77164 0.0
C356 C 0.05258 0.3142 0.82107 0.0
C357 C 1.03194 0.32765 0.79939 0.0
C358 C 0.04651 0.35934 0.7588 0.0
C359 C 0.08101 0.37811 0.74562 0.0
H360 H 0.64659 0.92122 0.08455 0.0
H361 H 0.73294 0.91467 0.00535 0.0
H362 H 0.67456 0.98003 0.03682 0.0
H363 H 0.76021 0.9722 0.95222 0.0
H364 H 0.8185 0.0835 0.95158 0.0
H365 H 0.78762 1.02595 0.00426 0.0
H366 H 0.69464 1.02006 0.92368 0.0
H367 H 0.72615 0.07888 0.87633 0.0
C368 C 0.67132 0.93233 0.05518 0.0
C369 C 0.68787 0.91378 0.04924 0.0
C370 C 0.68739 0.96596 0.02757 0.0
C371 C 0.72009 0.9814 -0.00808 0.0
C372 C 0.73566 0.96189 -0.0178 0.0
C373 C 0.71996 0.92874 0.01164 0.0
C374 C 0.79143 0.06985 0.94599 0.0
C375 C 0.77465 0.08537 0.90966 0.0
C376 C 0.77362 0.03669 -0.0248 0.0
C377 C 0.73847 1.01772 0.96653 0.0
C378 C 0.72158 0.03371 0.93209 0.0
C379 C 0.73952 0.06734 0.9047 0.0
H380 H 0.77757 0.67562 0.12171 0.0
H381 H 0.6859 0.59476 0.23063 0.0
H382 H 0.74961 0.70867 0.09985 0.0
H383 H 0.65856 0.62769 0.21118 0.0
H384 H 0.60532 0.67052 0.06443 0.0
H385 H 0.63892 0.64388 0.08342 0.0
H386 H 0.72224 0.73767 0.17239 0.0
H387 H 0.68847 0.76486 0.15095 0.0
C388 C 0.75171 0.66518 0.14239 0.0
C389 C 0.73379 0.63244 0.17676 0.0
C390 C 0.73572 0.68408 0.12991 0.0
C391 C 0.70163 0.67051 0.15192 0.0
C392 C 0.68452 0.63853 0.19096 0.0
C393 C 0.70029 0.61971 0.20272 0.0
C394 C 0.6309 0.68564 0.08733 0.0
C395 C 0.64411 0.71972 0.10715 0.0
C396 C 0.65013 0.67028 0.09883 0.0
C397 C 0.68303 0.68844 0.13149 0.0
C398 C 0.69695 0.72298 0.14732 0.0
C399 C 0.67764 0.73853 0.1351 0.0
H400 H 0.92545 0.63168 0.27455 0.0
H401 H 0.94163 0.72789 0.18593 0.0
H402 H 0.98255 0.65905 0.33377 0.0
H403 H 0.99848 0.75468 0.24095 0.0
H404 H 0.08316 0.7989 0.4349 0.0
H405 H 1.0263 0.7687 0.38 0.0
H406 H 0.04242 0.68897 0.28953 0.0
H407 H 0.09953 0.71884 0.34864 0.0
C408 C 0.94106 0.65857 0.26761 0.0
C409 C 0.92877 0.67748 0.22523 0.0
C410 C 0.97394 0.67421 0.30063 0.0
C411 C 0.99514 0.70911 0.29243 0.0
C412 C 0.9828 0.72784 0.24966 0.0
C413 C 0.95015 0.71232 0.21694 0.0
C414 C 0.07468 0.77477 0.40444 0.0
C415 C 0.09611 0.76135 0.39676 0.0
C416 C 0.04202 0.75757 0.37179 0.0
C417 C 1.02974 0.72645 0.32969 0.0
C418 C 0.051 0.71278 0.32213 0.0
C419 C 0.08387 0.7301 0.35508 0.0
H420 H 0.55593 0.28017 0.50903 0.0
H421 H 0.47477 0.29877 0.45067 0.0
H422 H 0.59607 0.33522 0.45031 0.0
H423 H 0.5151 0.35403 0.39235 0.0
H424 H 0.58994 0.42 0.17421 0.0
H425 H 0.55017 0.3707 0.25624 0.0
H426 H 0.62165 0.39716 0.46769 0.0
H427 H 0.66152 0.44717 0.38642 0.0
C428 C 0.5467 0.29628 0.48531 0.0
C429 C 0.5121 0.28495 0.48378 0.0
C430 C 0.56976 0.32789 0.45193 0.0
C431 C 0.55872 0.34879 0.41571 0.0
C432 C 0.52429 0.33824 0.41865 0.0
C433 C 0.50123 0.3067 0.45272 0.0
C434 C 0.59719 0.41581 0.23866 0.0
C435 C 0.62914 0.43786 0.27328 0.0
C436 C 0.57425 0.38745 0.28586 0.0
C437 C 0.58265 0.38015 0.36875 0.0
C438 C 0.61452 0.40204 0.4037 0.0
C439 C 0.63745 0.43065 0.35672 0.0
H440 H 0.13622 0.54318 0.65918 0.0
H441 H 0.24282 0.582 0.6739 0.0
H442 H 0.14572 0.593 0.57831 0.0
H443 H 0.25284 0.63281 0.59746 0.0
H444 H 0.26526 0.71409 0.41612 0.0
H445 H 0.25105 0.65841 0.46783 0.0
H446 H 0.16311 0.64907 0.59817 0.0
H447 H 0.17641 0.7038 0.54163 0.0
C448 C 0.16174 0.56263 0.64555 0.0
C449 C 0.18882 0.55893 0.67309 0.0
C450 C 0.16726 0.59129 0.59947 0.0
C451 C 0.20009 0.61731 0.58137 0.0
C452 C 0.22716 0.61321 0.60824 0.0
C453 C 0.22154 0.5842 0.65272 0.0
C454 C 0.24249 0.69971 0.45423 0.0
C455 C 0.22196 0.71327 0.47499 0.0
C456 C 0.23452 0.66792 0.4849 0.0
C457 C 0.20622 0.64921 0.53886 0.0
C458 C 0.18489 0.66232 0.55609 0.0
C459 C 0.19252 0.69384 0.52379 0.0
H460 H 0.71494 0.15985 0.78262 0.0
H461 H 0.73168 0.25835 0.8481 0.0
H462 H 0.65963 0.14469 0.7248 0.0
H463 H 0.67666 0.24326 0.7897 0.0
H464 H 0.56525 0.19687 0.72504 0.0
H465 H 0.61511 0.20658 0.80571 0.0
H466 H 0.64241 0.16339 0.59123 0.0
H467 H 0.59312 0.15419 0.50997 0.0
C468 C 0.70659 0.17804 0.78629 0.0
C469 C 0.72784 0.2104 0.81926 0.0
C470 C 0.67503 0.16945 0.75249 0.0
C471 C 0.66396 0.19293 0.75164 0.0
C472 C 0.68436 0.22455 0.7897 0.0
C473 C 0.71598 0.23323 0.8229 0.0
C474 C 0.58194 0.18965 0.69461 0.0
C475 C 0.575 0.17478 0.61053 0.0
C476 C 0.61045 0.19506 0.74121 0.0
C477 C 0.63258 0.18553 0.70516 0.0
C478 C 0.62551 0.1704 0.62167 0.0
C479 C 0.59718 0.16518 0.5749 0.0
H480 H 0.46087 0.64642 0.90042 0.0
H481 H 0.43127 0.57659 0.11847 0.0
H482 H 0.41157 0.60607 0.81847 0.0
H483 H 0.38268 0.5363 0.03578 0.0
H484 H 0.31232 0.45964 0.84297 0.0
H485 H 0.36721 0.5002 0.90191 0.0
H486 H 0.34947 0.58103 0.83253 0.0
H487 H 0.29477 0.54065 0.77322 0.0
C488 C 0.44395 0.62264 0.93124 0.0
C489 C 0.45025 0.61496 0.01655 0.0
C490 C 0.41577 0.59943 0.88389 0.0
C491 C 0.39341 0.5679 0.92035 0.0
C492 C 0.39981 0.56011 0.00508 0.0
C493 C 0.42775 0.58334 0.05265 0.0
C494 C 0.32043 0.4861 0.83851 0.0
C495 C 0.29905 0.49689 0.80415 0.0
C496 C 0.35175 0.5093 0.87293 0.0
C497 C 0.36245 0.54376 0.8729 0.0
C498 C 0.342 0.55468 0.83326 0.0
C499 C 0.31059 0.53149 0.79954 0.0
H500 H 0.8531 0.5407 0.10891 0.0
H501 H 0.75474 0.45941 0.17872 0.0
H502 H 0.86805 0.50022 0.05217 0.0
H503 H 0.76963 0.41914 0.12162 0.0
H504 H 0.85675 0.42306 0.83849 0.0
H505 H 0.84821 0.46359 0.91943 0.0
H506 H 0.8067 0.39439 0.13778 0.0
H507 H 0.81586 0.3538 0.05754 0.0
C508 C 0.83493 0.51421 0.11389 0.0
C509 C 0.80265 0.50329 0.14761 0.0
C510 C 0.84339 0.49105 0.08072 0.0
C511 C 0.81986 0.45652 0.08143 0.0
C512 C 0.78836 0.44553 0.12042 0.0
C513 C 0.7798 0.46866 0.15284 0.0
C514 C 0.8463 0.41649 0.9042 0.0
C515 C 0.83704 0.38494 0.94104 0.0
C516 C 0.84146 0.43987 0.95078 0.0
C517 C 0.82699 0.43231 0.03526 0.0
C518 C 0.81775 0.40087 0.07253 0.0
C519 C 0.82283 0.37751 0.02615 0.0
H520 H 0.47143 0.74131 0.10857 0.0
H521 H 0.5526 0.83912 0.18123 0.0
H522 H 0.43103 0.75579 0.16718 0.0
H523 H 0.51199 0.85369 0.23931 0.0
H524 H 0.43469 0.84196 0.45293 0.0
H525 H 0.47523 0.83355 0.37129 0.0
H526 H 0.40604 0.79249 0.15376 0.0
H527 H 0.36539 0.80144 0.23492 0.0
C528 C 0.48064 0.76618 0.1354 0.0
C529 C 0.51528 0.78896 0.14098 0.0
C530 C 0.45743 0.77451 0.16872 0.0
C531 C 0.46832 0.80573 0.20889 0.0
C532 C 0.50287 0.82923 0.20995 0.0
C533 C 0.52611 0.82099 0.176 0.0
C534 C 0.42813 0.83162 0.38726 0.0
C535 C 0.39658 0.82245 0.35088 0.0
C536 C 0.45151 0.82686 0.34026 0.0
C537 C 0.44398 0.81259 0.25574 0.0
C538 C 0.41252 0.80338 0.21901 0.0
C539 C 0.38913 0.80836 0.26587 0.0
loop_
_geom_bond_atom_site_label_1
_geom_bond_atom_site_label_2
_geom_bond_distance
_geom_bond_site_symmetry_2
_ccdc_geom_bond_type
Co0 N5 2.057 . S
Co0 O17 2.021 . S
Co0 O20 2.062 . S
Co0 O24 2.117 . S
Co0 O25 2.020 . S
C1 O21 1.259 . S
C1 O24 1.258 . S
Co2 N11 2.057 . S
Co2 O18 2.117 . S
Co2 O19 2.020 . S
Co2 O21 2.021 . S
Co2 O26 2.062 . S
C3 N5 1.316 . S
C3 N6 1.347 . S
C3 H8 0.931 . S
C4 N5 1.375 . S
C4 C7 1.350 . S
C4 H9 0.930 . S
N5 Co0 2.057 . S
N5 C3 1.316 . S
N5 C4 1.375 . S
N6 C3 1.347 . S
N6 C7 1.373 . S
C7 C4 1.350 . S
C7 N6 1.373 . S
C7 H28 0.931 . S
H8 C3 0.931 . S
H9 C4 0.930 . S
C10 O17 1.259 . S
C10 O18 1.258 . S
N11 Co2 2.057 . S
N11 C12 1.316 . S
N11 C13 1.375 . S
C12 N11 1.316 . S
C12 N14 1.347 . S
C12 H23 0.931 . S
C13 N11 1.375 . S
C13 C15 1.350 . S
C13 H22 0.930 . S
N14 C12 1.347 . S
N14 C15 1.373 . S
C15 C13 1.350 . S
C15 N14 1.373 . S
C15 H29 0.931 . S
C16 O19 1.256 . S
C16 O20 1.255 . S
O17 Co0 2.021 . S
O17 C10 1.259 . S
O18 Co2 2.117 . S
O18 C10 1.258 . S
O19 Co2 2.020 . S
O19 C16 1.256 . S
O20 Co0 2.062 . S
O20 C16 1.255 . S
O21 C1 1.259 . S
O21 Co2 2.021 . S
H22 C13 0.930 . S
H23 C12 0.931 . S
O24 Co0 2.117 . S
O24 C1 1.258 . S
O25 Co0 2.020 . S
O25 C27 1.256 . S
O26 Co2 2.062 . S
O26 C27 1.255 . S
C27 O25 1.256 . S
C27 O26 1.255 . S
H28 C7 0.931 . S
H29 C15 0.931 . S
Co30 N35 2.057 . S
Co30 O47 2.021 . S
Co30 O50 2.062 . S
Co30 O54 2.117 . S
Co30 O55 2.020 . S
C31 O51 1.259 . S
C31 O54 1.258 . S
Co32 N41 2.057 . S
Co32 O48 2.117 . S
Co32 O49 2.020 . S
Co32 O51 2.021 . S
Co32 O56 2.062 . S
C33 N35 1.316 . S
C33 N36 1.347 . S
C33 H38 0.931 . S
C34 N35 1.375 . S
C34 C37 1.350 . S
C34 H39 0.930 . S
N35 Co30 2.057 . S
N35 C33 1.316 . S
N35 C34 1.375 . S
N36 C33 1.347 . S
N36 C37 1.373 . S
C37 C34 1.350 . S
C37 N36 1.373 . S
C37 H58 0.931 . S
H38 C33 0.931 . S
H39 C34 0.930 . S
C40 O47 1.259 . S
C40 O48 1.258 . S
N41 Co32 2.057 . S
N41 C42 1.316 . S
N41 C43 1.375 . S
C42 N41 1.316 . S
C42 N44 1.347 . S
C42 H53 0.931 . S
C43 N41 1.375 . S
C43 C45 1.350 . S
C43 H52 0.930 . S
N44 C42 1.347 . S
N44 C45 1.373 . S
C45 C43 1.350 . S
C45 N44 1.373 . S
C45 H59 0.931 . S
C46 O49 1.256 . S
C46 O50 1.255 . S
O47 Co30 2.021 . S
O47 C40 1.259 . S
O48 Co32 2.117 . S
O48 C40 1.258 . S
O49 Co32 2.020 . S
O49 C46 1.256 . S
O50 Co30 2.062 . S
O50 C46 1.255 . S
O51 C31 1.259 . S
O51 Co32 2.021 . S
H52 C43 0.930 . S
H53 C42 0.931 . S
O54 Co30 2.117 . S
O54 C31 1.258 . S
O55 Co30 2.020 . S
O55 C57 1.256 . S
O56 Co32 2.062 . S
O56 C57 1.255 . S
C57 O55 1.256 . S
C57 O56 1.255 . S
H58 C37 0.931 . S
H59 C45 0.931 . S
Co60 N65 2.057 . S
Co60 O77 2.021 . S
Co60 O80 2.062 . S
Co60 O84 2.117 . S
Co60 O85 2.020 1_556 S
C61 O81 1.259 . S
C61 O84 1.258 . S
Co62 N71 2.057 . S
Co62 O78 2.117 . S
Co62 O79 2.020 . S
Co62 O81 2.021 . S
Co62 O86 2.062 1_556 S
C63 N65 1.316 . S
C63 N66 1.347 . S
C63 H68 0.931 . S
C64 N65 1.375 . S
C64 C67 1.350 . S
C64 H69 0.930 . S
N65 Co60 2.057 . S
N65 C63 1.316 . S
N65 C64 1.375 . S
N66 C63 1.347 . S
N66 C67 1.373 . S
C67 C64 1.350 . S
C67 N66 1.373 . S
C67 H88 0.931 . S
H68 C63 0.931 . S
H69 C64 0.930 . S
C70 O77 1.259 . S
C70 O78 1.258 . S
N71 Co62 2.057 . S
N71 C72 1.316 1_556 S
N71 C73 1.375 . S
C72 N71 1.316 1_554 S
C72 N74 1.347 . S
C72 H83 0.931 . S
C73 N71 1.375 . S
C73 C75 1.350 . S
C73 H82 0.930 . S
N74 C72 1.347 . S
N74 C75 1.373 1_554 S
C75 C73 1.350 . S
C75 N74 1.373 1_556 S
C75 H89 0.931 1_556 S
C76 O79 1.256 . S
C76 O80 1.255 . S
O77 Co60 2.021 . S
O77 C70 1.259 . S
O78 Co62 2.117 . S
O78 C70 1.258 . S
O79 Co62 2.020 . S
O79 C76 1.256 . S
O80 Co60 2.062 . S
O80 C76 1.255 . S
O81 C61 1.259 . S
O81 Co62 2.021 . S
H82 C73 0.930 . S
H83 C72 0.931 . S
O84 Co60 2.117 . S
O84 C61 1.258 . S
O85 Co60 2.020 1_554 S
O85 C87 1.256 . S
O86 Co62 2.062 1_554 S
O86 C87 1.255 . S
C87 O85 1.256 . S
C87 O86 1.255 . S
H88 C67 0.931 . S
H89 C75 0.931 1_554 S
Co90 N95 2.057 . S
Co90 O107 2.021 . S
Co90 O110 2.062 . S
Co90 O114 2.117 . S
Co90 O115 2.020 1_554 S
C91 O111 1.259 . S
C91 O114 1.258 . S
Co92 N101 2.057 . S
Co92 O108 2.117 . S
Co92 O109 2.020 . S
Co92 O111 2.021 . S
Co92 O116 2.062 1_554 S
C93 N95 1.316 . S
C93 N96 1.347 . S
C93 H98 0.931 . S
C94 N95 1.375 . S
C94 C97 1.350 . S
C94 H99 0.930 . S
N95 Co90 2.057 . S
N95 C93 1.316 . S
N95 C94 1.375 . S
N96 C93 1.347 . S
N96 C97 1.373 . S
C97 C94 1.350 . S
C97 N96 1.373 . S
C97 H118 0.931 . S
H98 C93 0.931 . S
H99 C94 0.930 . S
C100 O107 1.259 . S
C100 O108 1.258 . S
N101 Co92 2.057 . S
N101 C102 1.316 . S
N101 C103 1.375 . S
C102 N101 1.316 . S
C102 N104 1.347 . S
C102 H113 0.931 . S
C103 N101 1.375 . S
C103 C105 1.350 . S
C103 H112 0.930 . S
N104 C102 1.347 . S
N104 C105 1.373 . S
C105 C103 1.350 . S
C105 N104 1.373 . S
C105 H119 0.931 . S
C106 O109 1.256 . S
C106 O110 1.255 . S
O107 Co90 2.021 . S
O107 C100 1.259 . S
O108 Co92 2.117 . S
O108 C100 1.258 . S
O109 Co92 2.020 . S
O109 C106 1.256 . S
O110 Co90 2.062 . S
O110 C106 1.255 . S
O111 C91 1.259 . S
O111 Co92 2.021 . S
H112 C103 0.930 . S
H113 C102 0.931 . S
O114 Co90 2.117 . S
O114 C91 1.258 . S
O115 Co90 2.020 1_556 S
O115 C117 1.256 . S
O116 Co92 2.062 1_556 S
O116 C117 1.255 . S
C117 O115 1.256 . S
C117 O116 1.255 . S
H118 C97 0.931 . S
H119 C105 0.931 . S
Co120 N125 2.057 . S
Co120 O137 2.021 . S
Co120 O140 2.062 . S
Co120 O144 2.117 . S
Co120 O145 2.020 . S
C121 O141 1.259 . S
C121 O144 1.258 . S
Co122 N131 2.057 . S
Co122 O138 2.117 . S
Co122 O139 2.020 . S
Co122 O141 2.021 . S
Co122 O146 2.062 . S
C123 N125 1.316 . S
C123 N126 1.347 . S
C123 H128 0.931 . S
C124 N125 1.375 . S
C124 C127 1.350 . S
C124 H129 0.930 . S
N125 Co120 2.057 . S
N125 C123 1.316 . S
N125 C124 1.375 . S
N126 C123 1.347 . S
N126 C127 1.373 . S
C127 C124 1.350 . S
C127 N126 1.373 . S
C127 H148 0.931 . S
H128 C123 0.931 . S
H129 C124 0.930 . S
C130 O137 1.259 . S
C130 O138 1.258 . S
N131 Co122 2.057 . S
N131 C132 1.316 . S
N131 C133 1.375 . S
C132 N131 1.316 . S
C132 N134 1.347 . S
C132 H143 0.931 . S
C133 N131 1.375 . S
C133 C135 1.350 . S
C133 H142 0.930 . S
N134 C132 1.347 . S
N134 C135 1.373 . S
C135 C133 1.350 . S
C135 N134 1.373 . S
C135 H149 0.931 . S
C136 O139 1.256 . S
C136 O140 1.255 . S
O137 Co120 2.021 . S
O137 C130 1.259 . S
O138 Co122 2.117 . S
O138 C130 1.258 . S
O139 Co122 2.020 . S
O139 C136 1.256 . S
O140 Co120 2.062 . S
O140 C136 1.255 . S
O141 C121 1.259 . S
O141 Co122 2.021 . S
H142 C133 0.930 . S
H143 C132 0.931 . S
O144 Co120 2.117 . S
O144 C121 1.258 . S
O145 Co120 2.020 . S
O145 C147 1.256 . S
O146 Co122 2.062 . S
O146 C147 1.255 . S
C147 O145 1.256 . S
C147 O146 1.255 . S
H148 C127 0.931 . S
H149 C135 0.931 . S
Co150 N155 2.057 . S
Co150 O167 2.021 . S
Co150 O170 2.062 . S
Co150 O174 2.117 . S
Co150 O175 2.020 . S
C151 O171 1.259 . S
C151 O174 1.258 . S
Co152 N161 2.057 . S
Co152 O168 2.117 . S
Co152 O169 2.020 . S
Co152 O171 2.021 . S
Co152 O176 2.062 . S
C153 N155 1.316 . S
C153 N156 1.347 . S
C153 H158 0.931 . S
C154 N155 1.375 . S
C154 C157 1.350 . S
C154 H159 0.930 . S
N155 Co150 2.057 . S
N155 C153 1.316 . S
N155 C154 1.375 . S
N156 C153 1.347 . S
N156 C157 1.373 . S
C157 C154 1.350 . S
C157 N156 1.373 . S
C157 H178 0.931 . S
H158 C153 0.931 . S
H159 C154 0.930 . S
C160 O167 1.259 . S
C160 O168 1.258 . S
N161 Co152 2.057 . S
N161 C162 1.316 . S
N161 C163 1.375 . S
C162 N161 1.316 . S
C162 N164 1.347 . S
C162 H173 0.931 . S
C163 N161 1.375 . S
C163 C165 1.350 . S
C163 H172 0.930 . S
N164 C162 1.347 . S
N164 C165 1.373 . S
C165 C163 1.350 . S
C165 N164 1.373 . S
C165 H179 0.931 . S
C166 O169 1.256 . S
C166 O170 1.255 . S
O167 Co150 2.021 . S
O167 C160 1.259 . S
O168 Co152 2.117 . S
O168 C160 1.258 . S
O169 Co152 2.020 . S
O169 C166 1.256 . S
O170 Co150 2.062 . S
O170 C166 1.255 . S
O171 C151 1.259 . S
O171 Co152 2.021 . S
H172 C163 0.930 . S
H173 C162 0.931 . S
O174 Co150 2.117 . S
O174 C151 1.258 . S
O175 Co150 2.020 . S
O175 C177 1.256 . S
O176 Co152 2.062 . S
O176 C177 1.255 . S
C177 O175 1.256 . S
C177 O176 1.255 . S
H178 C157 0.931 . S
H179 C165 0.931 . S
H180 C188 0.950 . S
H181 C193 0.950 . S
H182 C190 0.950 . S
H183 C192 0.950 . S
H184 C194 0.950 . S
H185 C196 0.950 . S
H186 C198 0.950 . S
H187 C199 0.950 . S
C188 H180 0.950 . S
C188 C189 1.386 . S
C188 C190 1.391 . S
C189 C188 1.386 . S
C189 C193 1.393 . S
C190 H182 0.950 . S
C190 C188 1.391 . S
C190 C191 1.400 . S
C191 C190 1.400 . S
C191 C192 1.398 . S
C191 C197 1.491 . S
C192 H183 0.950 . S
C192 C191 1.398 . S
C192 C193 1.391 . S
C193 H181 0.950 . S
C193 C189 1.393 . S
C193 C192 1.391 . S
C194 H184 0.950 . S
C194 C195 1.386 . S
C194 C196 1.391 1_556 S
C195 C194 1.386 . S
C195 C199 1.393 . S
C196 H185 0.950 . S
C196 C194 1.391 1_554 S
C196 C197 1.400 . S
C197 C191 1.491 . S
C197 C196 1.400 . S
C197 C198 1.398 . S
C198 H186 0.950 . S
C198 C197 1.398 . S
C198 C199 1.391 1_554 S
C199 H187 0.950 . S
C199 C195 1.393 . S
C199 C198 1.391 1_556 S
H200 C208 0.950 . S
H201 C213 0.950 . S
H202 C210 0.950 . S
H203 C212 0.950 . S
H204 C214 0.950 1_556 S
H205 C216 0.950 . S
H206 C218 0.950 . S
H207 C219 0.950 1_556 S
C208 H200 0.950 . S
C208 C209 1.386 . S
C208 C210 1.391 . S
C209 C208 1.386 . S
C209 C213 1.393 . S
C210 H202 0.950 . S
C210 C208 1.391 . S
C210 C211 1.400 . S
C211 C210 1.400 . S
C211 C212 1.398 . S
C211 C217 1.491 . S
C212 H203 0.950 . S
C212 C211 1.398 . S
C212 C213 1.391 . S
C213 H201 0.950 . S
C213 C209 1.393 . S
C213 C212 1.391 . S
C214 H204 0.950 1_554 S
C214 C215 1.386 1_554 S
C214 C216 1.391 . S
C215 C214 1.386 1_556 S
C215 C219 1.393 1_556 S
C216 H205 0.950 . S
C216 C214 1.391 . S
C216 C217 1.400 . S
C217 C211 1.491 . S
C217 C216 1.400 . S
C217 C218 1.398 . S
C218 H206 0.950 . S
C218 C217 1.398 . S
C218 C219 1.391 . S
C219 H207 0.950 1_554 S
C219 C215 1.393 1_554 S
C219 C218 1.391 . S
H220 C228 0.950 . S
H221 C233 0.950 . S
H222 C230 0.950 . S
H223 C232 0.950 . S
H224 C234 0.950 . S
H225 C236 0.950 . S
H226 C238 0.950 . S
H227 C239 0.950 . S
C228 H220 0.950 . S
C228 C229 1.386 . S
C228 C230 1.391 . S
C229 C228 1.386 . S
C229 C233 1.393 . S
C230 H222 0.950 . S
C230 C228 1.391 . S
C230 C231 1.400 . S
C231 C230 1.400 . S
C231 C232 1.398 . S
C231 C237 1.491 . S
C232 H223 0.950 . S
C232 C231 1.398 . S
C232 C233 1.391 . S
C233 H221 0.950 . S
C233 C229 1.393 . S
C233 C232 1.391 . S
C234 H224 0.950 . S
C234 C235 1.386 . S
C234 C236 1.391 . S
C235 C234 1.386 . S
C235 C239 1.393 . S
C236 H225 0.950 . S
C236 C234 1.391 . S
C236 C237 1.400 . S
C237 C231 1.491 . S
C237 C236 1.400 . S
C237 C238 1.398 . S
C238 H226 0.950 . S
C238 C237 1.398 . S
C238 C239 1.391 . S
C239 H227 0.950 . S
C239 C235 1.393 . S
C239 C238 1.391 . S
H240 C248 0.950 . S
H241 C253 0.950 . S
H242 C250 0.950 . S
H243 C252 0.950 . S
H244 C254 0.950 . S
H245 C256 0.950 . S
H246 C258 0.950 . S
H247 C259 0.950 . S
C248 H240 0.950 . S
C248 C249 1.386 . S
C248 C250 1.391 . S
C249 C248 1.386 . S
C249 C253 1.393 . S
C250 H242 0.950 . S
C250 C248 1.391 . S
C250 C251 1.400 . S
C251 C250 1.400 . S
C251 C252 1.398 . S
C251 C257 1.491 . S
C252 H243 0.950 . S
C252 C251 1.398 . S
C252 C253 1.391 . S
C253 H241 0.950 . S
C253 C249 1.393 . S
C253 C252 1.391 . S
C254 H244 0.950 . S
C254 C255 1.386 . S
C254 C256 1.391 . S
C255 C254 1.386 . S
C255 C259 1.393 . S
C256 H245 0.950 . S
C256 C254 1.391 . S
C256 C257 1.400 . S
C257 C251 1.491 . S
C257 C256 1.400 . S
C257 C258 1.398 . S
C258 H246 0.950 . S
C258 C257 1.398 . S
C258 C259 1.391 . S
C259 H247 0.950 . S
C259 C255 1.393 . S
C259 C258 1.391 . S
H260 C268 0.950 . S
H261 C273 0.950 . S
H262 C270 0.950 . S
H263 C272 0.950 . S
H264 C274 0.950 . S
H265 C276 0.950 . S
H266 C278 0.950 . S
H267 C279 0.950 . S
C268 H260 0.950 . S
C268 C269 1.386 . S
C268 C270 1.391 . S
C269 C268 1.386 . S
C269 C273 1.393 . S
C270 H262 0.950 . S
C270 C268 1.391 . S
C270 C271 1.400 . S
C271 C270 1.400 . S
C271 C272 1.398 . S
C271 C277 1.491 . S
C272 H263 0.950 . S
C272 C271 1.398 . S
C272 C273 1.391 . S
C273 H261 0.950 . S
C273 C269 1.393 . S
C273 C272 1.391 . S
C274 H264 0.950 . S
C274 C275 1.386 . S
C274 C276 1.391 1_554 S
C275 C274 1.386 . S
C275 C279 1.393 . S
C276 H265 0.950 . S
C276 C274 1.391 1_556 S
C276 C277 1.400 . S
C277 C271 1.491 . S
C277 C276 1.400 . S
C277 C278 1.398 . S
C278 H266 0.950 . S
C278 C277 1.398 . S
C278 C279 1.391 1_556 S
C279 H267 0.950 . S
C279 C275 1.393 . S
C279 C278 1.391 1_554 S
H280 C288 0.950 . S
H281 C293 0.950 . S
H282 C290 0.950 . S
H283 C292 0.950 . S
H284 C294 0.950 . S
H285 C296 0.950 . S
H286 C298 0.950 . S
H287 C299 0.950 . S
C288 H280 0.950 . S
C288 C289 1.386 . S
C288 C290 1.391 1_554 S
C289 C288 1.386 . S
C289 C293 1.393 . S
C290 H282 0.950 . S
C290 C288 1.391 1_556 S
C290 C291 1.400 . S
C291 C290 1.400 . S
C291 C292 1.398 . S
C291 C297 1.491 . S
C292 H283 0.950 . S
C292 C291 1.398 . S
C292 C293 1.391 1_556 S
C293 H281 0.950 . S
C293 C289 1.393 . S
C293 C292 1.391 1_554 S
C294 H284 0.950 . S
C294 C295 1.386 . S
C294 C296 1.391 . S
C295 C294 1.386 . S
C295 C299 1.393 . S
C296 H285 0.950 . S
C296 C294 1.391 . S
C296 C297 1.400 . S
C297 C291 1.491 . S
C297 C296 1.400 . S
C297 C298 1.398 . S
C298 H286 0.950 . S
C298 C297 1.398 . S
C298 C299 1.391 . S
C299 H287 0.950 . S
C299 C295 1.393 . S
C299 C298 1.391 . S
H300 C308 0.950 . S
H301 C313 0.950 . S
H302 C310 0.950 1_565 S
H303 C312 0.950 1_565 S
H304 C314 0.950 . S
H305 C316 0.950 . S
H306 C318 0.950 . S
H307 C319 0.950 . S
C308 H300 0.950 . S
C308 C309 1.386 . S
C308 C310 1.391 . S
C309 C308 1.386 . S
C309 C313 1.393 . S
C310 H302 0.950 1_545 S
C310 C308 1.391 . S
C310 C311 1.400 1_545 S
C311 C310 1.400 1_565 S
C311 C312 1.398 1_565 S
C311 C317 1.491 . S
C312 H303 0.950 1_545 S
C312 C311 1.398 1_545 S
C312 C313 1.391 . S
C313 H301 0.950 . S
C313 C309 1.393 . S
C313 C312 1.391 . S
C314 H304 0.950 . S
C314 C315 1.386 . S
C314 C316 1.391 . S
C315 C314 1.386 . S
C315 C319 1.393 . S
C316 H305 0.950 . S
C316 C314 1.391 . S
C316 C317 1.400 . S
C317 C311 1.491 . S
C317 C316 1.400 . S
C317 C318 1.398 . S
C318 H306 0.950 . S
C318 C317 1.398 . S
C318 C319 1.391 . S
C319 H307 0.950 . S
C319 C315 1.393 . S
C319 C318 1.391 . S
H320 C328 0.950 . S
H321 C333 0.950 . S
H322 C330 0.950 . S
H323 C332 0.950 . S
H324 C334 0.950 . S
H325 C336 0.950 . S
H326 C338 0.950 . S
H327 C339 0.950 . S
C328 H320 0.950 . S
C328 C329 1.386 . S
C328 C330 1.391 . S
C329 C328 1.386 . S
C329 C333 1.393 . S
C330 H322 0.950 . S
C330 C328 1.391 . S
C330 C331 1.400 . S
C331 C330 1.400 . S
C331 C332 1.398 . S
C331 C337 1.491 . S
C332 H323 0.950 . S
C332 C331 1.398 . S
C332 C333 1.391 . S
C333 H321 0.950 . S
C333 C329 1.393 . S
C333 C332 1.391 . S
C334 H324 0.950 . S
C334 C335 1.386 . S
C334 C336 1.391 . S
C335 C334 1.386 . S
C335 C339 1.393 . S
C336 H325 0.950 . S
C336 C334 1.391 . S
C336 C337 1.400 . S
C337 C331 1.491 . S
C337 C336 1.400 . S
C337 C338 1.398 . S
C338 H326 0.950 . S
C338 C337 1.398 . S
C338 C339 1.391 . S
C339 H327 0.950 . S
C339 C335 1.393 . S
C339 C338 1.391 . S
H340 C348 0.950 . S
H341 C353 0.950 . S
H342 C350 0.950 . S
H343 C352 0.950 . S
H344 C354 0.950 . S
H345 C356 0.950 1_655 S
H346 C358 0.950 1_655 S
H347 C359 0.950 . S
C348 H340 0.950 . S
C348 C349 1.386 . S
C348 C350 1.391 . S
C349 C348 1.386 . S
C349 C353 1.393 . S
C350 H342 0.950 . S
C350 C348 1.391 . S
C350 C351 1.400 . S
C351 C350 1.400 . S
C351 C352 1.398 . S
C351 C357 1.491 . S
C352 H343 0.950 . S
C352 C351 1.398 . S
C352 C353 1.391 . S
C353 H341 0.950 . S
C353 C349 1.393 . S
C353 C352 1.391 . S
C354 H344 0.950 . S
C354 C355 1.386 . S
C354 C356 1.391 . S
C355 C354 1.386 . S
C355 C359 1.393 . S
C356 H345 0.950 1_455 S
C356 C354 1.391 . S
C356 C357 1.400 1_455 S
C357 C351 1.491 . S
C357 C356 1.400 1_655 S
C357 C358 1.398 1_655 S
C358 H346 0.950 1_455 S
C358 C357 1.398 1_455 S
C358 C359 1.391 . S
C359 H347 0.950 . S
C359 C355 1.393 . S
C359 C358 1.391 . S
H360 C368 0.950 . S
H361 C373 0.950 . S
H362 C370 0.950 . S
H363 C372 0.950 . S
H364 C374 0.950 . S
H365 C376 0.950 . S
H366 C378 0.950 . S
H367 C379 0.950 . S
C368 H360 0.950 . S
C368 C369 1.386 1_556 S
C368 C370 1.391 . S
C369 C368 1.386 1_554 S
C369 C373 1.393 . S
C370 H362 0.950 . S
C370 C368 1.391 . S
C370 C371 1.400 1_556 S
C371 C370 1.400 1_554 S
C371 C372 1.398 . S
C371 C377 1.491 1_554 S
C372 H363 0.950 . S
C372 C371 1.398 . S
C372 C373 1.391 . S
C373 H361 0.950 . S
C373 C369 1.393 . S
C373 C372 1.391 . S
C374 H364 0.950 . S
C374 C375 1.386 1_554 S
C374 C376 1.391 . S
C375 C374 1.386 1_556 S
C375 C379 1.393 . S
C376 H365 0.950 . S
C376 C374 1.391 . S
C376 C377 1.400 1_544 S
C377 C371 1.491 1_556 S
C377 C376 1.400 1_566 S
C377 C378 1.398 . S
C378 H366 0.950 . S
C378 C377 1.398 . S
C378 C379 1.391 1_565 S
C379 H367 0.950 . S
C379 C375 1.393 . S
C379 C378 1.391 1_545 S
H380 C388 0.950 . S
H381 C393 0.950 . S
H382 C390 0.950 . S
H383 C392 0.950 . S
H384 C394 0.950 . S
H385 C396 0.950 . S
H386 C398 0.950 . S
H387 C399 0.950 1_556 S
C388 H380 0.950 . S
C388 C389 1.386 . S
C388 C390 1.391 . S
C389 C388 1.386 . S
C389 C393 1.393 . S
C390 H382 0.950 . S
C390 C388 1.391 . S
C390 C391 1.400 . S
C391 C390 1.400 . S
C391 C392 1.398 . S
C391 C397 1.491 . S
C392 H383 0.950 . S
C392 C391 1.398 . S
C392 C393 1.391 . S
C393 H381 0.950 . S
C393 C389 1.393 . S
C393 C392 1.391 . S
C394 H384 0.950 . S
C394 C395 1.386 . S
C394 C396 1.391 . S
C395 C394 1.386 . S
C395 C399 1.393 . S
C396 H385 0.950 . S
C396 C394 1.391 . S
C396 C397 1.400 . S
C397 C391 1.491 . S
C397 C396 1.400 . S
C397 C398 1.398 . S
C398 H386 0.950 . S
C398 C397 1.398 . S
C398 C399 1.391 . S
C399 H387 0.950 1_554 S
C399 C395 1.393 . S
C399 C398 1.391 . S
H400 C408 0.950 . S
H401 C413 0.950 . S
H402 C410 0.950 . S
H403 C412 0.950 . S
H404 C414 0.950 . S
H405 C416 0.950 1_655 S
H406 C418 0.948 . S
H407 C419 0.950 . S
C408 H400 0.950 . S
C408 C409 1.386 . S
C408 C410 1.391 . S
C409 C408 1.386 . S
C409 C413 1.393 . S
C410 H402 0.950 . S
C410 C408 1.391 . S
C410 C411 1.400 . S
C411 C410 1.400 . S
C411 C412 1.398 . S
C411 C417 1.491 . S
C412 H403 0.950 . S
C412 C411 1.398 . S
C412 C413 1.391 . S
C413 H401 0.950 . S
C413 C409 1.393 . S
C413 C412 1.391 . S
C414 H404 0.950 . S
C414 C415 1.386 . S
C414 C416 1.391 . S
C415 C414 1.386 . S
C415 C419 1.393 . S
C416 H405 0.950 1_455 S
C416 C414 1.391 . S
C416 C417 1.400 1_455 S
C417 C411 1.491 . S
C417 C416 1.400 1_655 S
C417 C418 1.398 1_655 S
C418 H406 0.948 . S
C418 C417 1.398 1_455 S
C418 C419 1.391 . S
C419 H407 0.950 . S
C419 C415 1.393 . S
C419 C418 1.391 . S
H420 C428 0.950 . S
H421 C433 0.950 . S
H422 C430 0.950 . S
H423 C432 0.950 . S
H424 C434 0.950 . S
H425 C436 0.950 . S
H426 C438 0.950 . S
H427 C439 0.950 . S
C428 H420 0.950 . S
C428 C429 1.386 . S
C428 C430 1.391 . S
C429 C428 1.386 . S
C429 C433 1.393 . S
C430 H422 0.950 . S
C430 C428 1.391 . S
C430 C431 1.400 . S
C431 C430 1.400 . S
C431 C432 1.398 . S
C431 C437 1.491 . S
C432 H423 0.950 . S
C432 C431 1.398 . S
C432 C433 1.391 . S
C433 H421 0.950 . S
C433 C429 1.393 . S
C433 C432 1.391 . S
C434 H424 0.950 . S
C434 C435 1.386 . S
C434 C436 1.391 . S
C435 C434 1.386 . S
C435 C439 1.393 . S
C436 H425 0.950 . S
C436 C434 1.391 . S
C436 C437 1.400 . S
C437 C431 1.491 . S
C437 C436 1.400 . S
C437 C438 1.398 . S
C438 H426 0.950 . S
C438 C437 1.398 . S
C438 C439 1.391 . S
C439 H427 0.950 . S
C439 C435 1.393 . S
C439 C438 1.391 . S
H440 C448 0.950 . S
H441 C453 0.950 . S
H442 C450 0.950 . S
H443 C452 0.950 . S
H444 C454 0.950 . S
H445 C456 0.950 . S
H446 C458 0.950 . S
H447 C459 0.950 . S
C448 H440 0.950 . S
C448 C449 1.386 . S
C448 C450 1.391 . S
C449 C448 1.386 . S
C449 C453 1.393 . S
C450 H442 0.950 . S
C450 C448 1.391 . S
C450 C451 1.400 . S
C451 C450 1.400 . S
C451 C452 1.398 . S
C451 C457 1.491 . S
C452 H443 0.950 . S
C452 C451 1.398 . S
C452 C453 1.391 . S
C453 H441 0.950 . S
C453 C449 1.393 . S
C453 C452 1.391 . S
C454 H444 0.950 . S
C454 C455 1.386 . S
C454 C456 1.391 . S
C455 C454 1.386 . S
C455 C459 1.393 . S
C456 H445 0.950 . S
C456 C454 1.391 . S
C456 C457 1.400 . S
C457 C451 1.491 . S
C457 C456 1.400 . S
C457 C458 1.398 . S
C458 H446 0.950 . S
C458 C457 1.398 . S
C458 C459 1.391 . S
C459 H447 0.950 . S
C459 C455 1.393 . S
C459 C458 1.391 . S
H460 C468 0.950 . S
H461 C473 0.950 . S
H462 C470 0.950 . S
H463 C472 0.950 . S
H464 C474 0.950 . S
H465 C476 0.950 . S
H466 C478 0.950 . S
H467 C479 0.950 . S
C468 H460 0.950 . S
C468 C469 1.386 . S
C468 C470 1.391 . S
C469 C468 1.386 . S
C469 C473 1.393 . S
C470 H462 0.950 . S
C470 C468 1.391 . S
C470 C471 1.400 . S
C471 C470 1.400 . S
C471 C472 1.398 . S
C471 C477 1.491 . S
C472 H463 0.950 . S
C472 C471 1.398 . S
C472 C473 1.391 . S
C473 H461 0.950 . S
C473 C469 1.393 . S
C473 C472 1.391 . S
C474 H464 0.950 . S
C474 C475 1.386 . S
C474 C476 1.391 . S
C475 C474 1.386 . S
C475 C479 1.393 . S
C476 H465 0.950 . S
C476 C474 1.391 . S
C476 C477 1.400 . S
C477 C471 1.491 . S
C477 C476 1.400 . S
C477 C478 1.398 . S
C478 H466 0.950 . S
C478 C477 1.398 . S
C478 C479 1.391 . S
C479 H467 0.950 . S
C479 C475 1.393 . S
C479 C478 1.391 . S
H480 C488 0.950 . S
H481 C493 0.950 . S
H482 C490 0.950 . S
H483 C492 0.950 . S
H484 C494 0.950 . S
H485 C496 0.950 . S
H486 C498 0.950 . S
H487 C499 0.950 . S
C488 H480 0.950 . S
C488 C489 1.386 . S
C488 C490 1.391 . S
C489 C488 1.386 . S
C489 C493 1.393 . S
C490 H482 0.950 . S
C490 C488 1.391 . S
C490 C491 1.400 . S
C491 C490 1.400 . S
C491 C492 1.398 . S
C491 C497 1.491 . S
C492 H483 0.950 . S
C492 C491 1.398 . S
C492 C493 1.391 . S
C493 H481 0.950 . S
C493 C489 1.393 . S
C493 C492 1.391 . S
C494 H484 0.950 . S
C494 C495 1.386 . S
C494 C496 1.391 . S
C495 C494 1.386 . S
C495 C499 1.393 . S
C496 H485 0.950 . S
C496 C494 1.391 . S
C496 C497 1.400 . S
C497 C491 1.491 . S
C497 C496 1.400 . S
C497 C498 1.398 . S
C498 H486 0.950 . S
C498 C497 1.398 . S
C498 C499 1.391 . S
C499 H487 0.950 . S
C499 C495 1.393 . S
C499 C498 1.391 . S
H500 C508 0.950 . S
H501 C513 0.950 . S
H502 C510 0.950 . S
H503 C512 0.950 . S
H504 C514 0.950 1_556 S
H505 C516 0.950 . S
H506 C518 0.950 . S
H507 C519 0.950 . S
C508 H500 0.950 . S
C508 C509 1.386 . S
C508 C510 1.391 . S
C509 C508 1.386 . S
C509 C513 1.393 . S
C510 H502 0.950 . S
C510 C508 1.391 . S
C510 C511 1.400 . S
C511 C510 1.400 . S
C511 C512 1.398 . S
C511 C517 1.491 . S
C512 H503 0.950 . S
C512 C511 1.398 . S
C512 C513 1.391 . S
C513 H501 0.950 . S
C513 C509 1.393 . S
C513 C512 1.391 . S
C514 H504 0.950 1_554 S
C514 C515 1.386 . S
C514 C516 1.391 . S
C515 C514 1.386 . S
C515 C519 1.393 . S
C516 H505 0.950 . S
C516 C514 1.391 . S
C516 C517 1.400 . S
C517 C511 1.491 . S
C517 C516 1.400 . S
C517 C518 1.398 . S
C518 H506 0.950 . S
C518 C517 1.398 . S
C518 C519 1.391 . S
C519 H507 0.950 . S
C519 C515 1.393 . S
C519 C518 1.391 . S
H520 C528 0.950 . S
H521 C533 0.950 . S
H522 C530 0.950 . S
H523 C532 0.950 . S
H524 C534 0.950 . S
H525 C536 0.950 . S
H526 C538 0.950 . S
H527 C539 0.950 . S
C528 H520 0.950 . S
C528 C529 1.386 . S
C528 C530 1.391 . S
C529 C528 1.386 . S
C529 C533 1.393 . S
C530 H522 0.950 . S
C530 C528 1.391 . S
C530 C531 1.400 . S
C531 C530 1.400 . S
C531 C532 1.398 . S
C531 C537 1.491 . S
C532 H523 0.950 . S
C532 C531 1.398 . S
C532 C533 1.391 . S
C533 H521 0.950 . S
C533 C529 1.393 . S
C533 C532 1.391 . S
C534 H524 0.950 . S
C534 C535 1.386 . S
C534 C536 1.391 . S
C535 C534 1.386 . S
C535 C539 1.393 . S
C536 H525 0.950 . S
C536 C534 1.391 . S
C536 C537 1.400 . S
C537 C531 1.491 . S
C537 C536 1.400 . S
C537 C538 1.398 . S
C538 H526 0.950 . S
C538 C537 1.398 . S
C538 C539 1.391 . S
C539 H527 0.950 . S
C539 C535 1.393 . S
C539 C538 1.391 . S
C189 C16 0.965 . S
C195 C27 0.965 . S
C209 C57 0.965 . S
C215 C46 0.965 . S
C229 C87 0.968 . S
C235 C76 0.968 . S
C249 C106 0.967 . S
C255 C117 0.967 . S
C269 C147 0.965 . S
C275 C136 0.965 . S
C289 C177 0.965 . S
C295 C166 0.965 . S
C309 C1 1.958 . S
C315 C151 1.959 . S
C329 N6 1.606 . S
C335 N36 1.610 . S
C349 C61 1.960 . S
C355 C31 1.957 . S
C369 N96 1.620 . S
C375 N66 1.616 . S
C389 C121 1.940 . S
C395 C91 1.950 . S
C409 N126 1.623 . S
C415 N156 1.625 . S
C429 C10 1.876 . S
C435 N134 1.732 . S
C449 N44 1.719 . S
C455 C160 1.879 . S
C469 C70 1.888 . S
C475 N14 1.735 . S
C489 N104 1.743 1_556 S
C495 C40 1.878 . S
C509 C130 1.888 . S
C515 N74 1.746 . S
C529 C100 1.878 . S
C535 N164 1.742 . S
