# Generated by pormake.
# Topology vcm, (7)-cn, num edge types: 1
# Building blocks:
#     Node 0, Type 0, BuildingBlock: HICVOG_clean_sbu_0, # of connection points: 7
#     Node 1, Type 0, BuildingBlock: HICVOG_clean_sbu_0, # of connection points: 7
#     Node 2, Type 0, BuildingBlock: HICVOG_clean_sbu_0, # of connection points: 7
#     Node 3, Type 0, BuildingBlock: HICVOG_clean_sbu_0, # of connection points: 7
#     Node 4, Type 0, BuildingBlock: HICVOG_clean_sbu_0, # of connection points: 7
#     Node 5, Type 0, BuildingBlock: HICVOG_clean_sbu_0, # of connection points: 7
#     Node 6, Type 0, BuildingBlock: HICVOG_clean_sbu_0, # of connection points: 7
#     Node 7, Type 0, BuildingBlock: HICVOG_clean_sbu_0, # of connection points: 7
#     Edge 8, Type (0, 0), BuildingBlock: MIFKUJ_clean_linker_0, # of connection points: 2
#     Edge 9, Type (0, 0), BuildingBlock: MIFKUJ_clean_linker_0, # of connection points: 2
#     Edge 10, Type (0, 0), BuildingBlock: MIFKUJ_clean_linker_0, # of connection points: 2
#     Edge 11, Type (0, 0), BuildingBlock: MIFKUJ_clean_linker_0, # of connection points: 2
#     Edge 12, Type (0, 0), BuildingBlock: MIFKUJ_clean_linker_0, # of connection points: 2
#     Edge 13, Type (0, 0), BuildingBlock: MIFKUJ_clean_linker_0, # of connection points: 2
#     Edge 14, Type (0, 0), BuildingBlock: MIFKUJ_clean_linker_0, # of connection points: 2
#     Edge 15, Type (0, 0), BuildingBlock: MIFKUJ_clean_linker_0, # of connection points: 2
#     Edge 16, Type (0, 0), BuildingBlock: MIFKUJ_clean_linker_0, # of connection points: 2
#     Edge 17, Type (0, 0), BuildingBlock: MIFKUJ_clean_linker_0, # of connection points: 2
#     Edge 18, Type (0, 0), BuildingBlock: MIFKUJ_clean_linker_0, # of connection points: 2
#     Edge 19, Type (0, 0), BuildingBlock: MIFKUJ_clean_linker_0, # of connection points: 2
#     Edge 20, Type (0, 0), BuildingBlock: MIFKUJ_clean_linker_0, # of connection points: 2
#     Edge 21, Type (0, 0), BuildingBlock: MIFKUJ_clean_linker_0, # of connection points: 2
#     Edge 22, Type (0, 0), BuildingBlock: MIFKUJ_clean_linker_0, # of connection points: 2
#     Edge 23, Type (0, 0), BuildingBlock: MIFKUJ_clean_linker_0, # of connection points: 2
#     Edge 24, Type (0, 0), BuildingBlock: MIFKUJ_clean_linker_0, # of connection points: 2
#     Edge 25, Type (0, 0), BuildingBlock: MIFKUJ_clean_linker_0, # of connection points: 2
#     Edge 26, Type (0, 0), BuildingBlock: MIFKUJ_clean_linker_0, # of connection points: 2
#     Edge 27, Type (0, 0), BuildingBlock: MIFKUJ_clean_linker_0, # of connection points: 2
#     Edge 28, Type (0, 0), BuildingBlock: MIFKUJ_clean_linker_0, # of connection points: 2
#     Edge 29, Type (0, 0), BuildingBlock: MIFKUJ_clean_linker_0, # of connection points: 2
#     Edge 30, Type (0, 0), BuildingBlock: MIFKUJ_clean_linker_0, # of connection points: 2
#     Edge 31, Type (0, 0), BuildingBlock: MIFKUJ_clean_linker_0, # of connection points: 2
#     Edge 32, Type (0, 0), BuildingBlock: MIFKUJ_clean_linker_0, # of connection points: 2
#     Edge 33, Type (0, 0), BuildingBlock: MIFKUJ_clean_linker_0, # of connection points: 2
#     Edge 34, Type (0, 0), BuildingBlock: MIFKUJ_clean_linker_0, # of connection points: 2
#     Edge 35, Type (0, 0), BuildingBlock: MIFKUJ_clean_linker_0, # of connection points: 2
# Relax obj value: 0.259
# Max RMSD: 0.251
# Mean RMSD: 0.251
data_MOF--net-vcm--node1-HICVOG_clean_sbu_0--edge1-MIFKUJ_clean_linker_0
_symmetry_space_group_name_H-M    P1
_symmetry_Int_Tables_number       1
_symmetry_cell_setting            triclinic
loop_
_symmetry_equiv_pos_as_xyz
'x, y, z'
_cell_length_a     48.95908
_cell_length_b     42.339777
_cell_length_c     35.021338
_cell_angle_alpha  89.956723
_cell_angle_beta   89.780471
_cell_angle_gamma 89.865955
loop_
_atom_site_label
_atom_site_type_symbol
_atom_site_fract_x
_atom_site_fract_y
_atom_site_fract_z
_atom_type_partial_charge
Zn0 Zn 0.01856 0.31043 0.19067 0.0
C1 C 0.057 0.36467 0.11435 0.0
N2 N 0.04302 0.34748 0.08893 0.0
C3 C 0.03209 0.32457 0.11067 0.0
N4 N 0.03924 0.3275 0.14778 0.0
N5 N 0.05541 0.3525 0.14988 0.0
C6 C 0.06285 0.41986 0.22062 0.0
O7 O 0.04329 0.40106 0.23262 0.0
O8 O 0.01129 0.26391 0.18496 0.0
Zn9 Zn 0.08204 0.36177 0.18931 0.0
N10 N 0.98442 0.33398 0.19439 0.0
C11 C 0.96355 0.38461 0.18939 0.0
C12 C 0.98632 0.36516 0.18557 0.0
C13 C 0.96033 0.32126 0.20675 0.0
N14 N 0.93974 0.37219 0.20226 0.0
C15 C 0.93725 0.341 0.21109 0.0
O16 O 0.07665 0.34014 0.2404 0.0
C17 C 0.05884 0.32391 0.25817 0.0
O18 O 0.03735 0.31385 0.24191 0.0
H19 H 1.00555 0.37499 0.17616 0.0
H20 H 0.95944 0.29648 0.21424 0.0
C21 C 0.14106 0.35883 0.18779 0.0
C22 C 0.16664 0.35051 0.17216 0.0
C23 C 0.14414 0.3243 0.12135 0.0
C24 C 0.11893 0.33211 0.13722 0.0
N25 N 0.11779 0.34971 0.16968 0.0
N26 N 0.16731 0.33366 0.13908 0.0
H27 H 0.13959 0.37265 0.21369 0.0
C28 C 0.03206 0.2459 0.18661 0.0
O29 O 0.05649 0.25867 0.18733 0.0
O30 O 0.08208 0.4084 0.20042 0.0
H31 H 0.10045 0.32421 0.12356 0.0
H32 H 0.96485 0.4095 0.18264 0.0
H33 H 0.14532 0.31069 0.09526 0.0
Zn34 Zn 0.51221 0.63659 0.69418 0.0
C35 C 0.56159 0.6705 0.6114 0.0
N36 N 0.55017 0.64688 0.59153 0.0
C37 C 0.5356 0.63173 0.6183 0.0
N38 N 0.53746 0.6456 0.65278 0.0
N39 N 0.55421 0.66994 0.64863 0.0
C40 C 0.56093 0.75367 0.68238 0.0
O41 O 0.5366 0.74082 0.68521 0.0
O42 O 0.51152 0.59003 0.70476 0.0
Zn43 Zn 0.57477 0.68969 0.68941 0.0
N44 N 0.47611 0.64965 0.67759 0.0
C45 C 0.44873 0.67776 0.63301 0.0
C46 C 0.47427 0.66856 0.64631 0.0
C47 C 0.45331 0.64021 0.69685 0.0
N48 N 0.426 0.66825 0.65199 0.0
C49 C 0.42738 0.64987 0.68386 0.0
O50 O 0.55592 0.68929 0.74064 0.0
C51 C 0.53611 0.6776 0.75944 0.0
O52 O 0.51952 0.65818 0.74449 0.0
H53 H 0.49248 0.6764 0.63164 0.0
H54 H 0.45545 0.62515 0.72163 0.0
C55 C 0.63252 0.67996 0.70828 0.0
C56 C 0.65575 0.66073 0.71372 0.0
C57 C 0.63099 0.61662 0.69052 0.0
C58 C 0.60807 0.63559 0.68543 0.0
N59 N 0.60908 0.66675 0.69464 0.0
N60 N 0.65412 0.62952 0.70473 0.0
H61 H 0.63277 0.70474 0.71583 0.0
C62 C 0.53298 0.57698 0.7176 0.0
O63 O 0.55501 0.59416 0.72231 0.0
O64 O 0.58174 0.73576 0.68014 0.0
H65 H 0.58943 0.62539 0.67466 0.0
H66 H 0.44694 0.69253 0.60792 0.0
H67 H 0.63035 0.59174 0.68358 0.0
Zn68 Zn 0.01335 0.6919 0.83192 0.0
C69 C 0.05412 0.63569 0.90404 0.0
N70 N 0.03985 0.65152 0.93062 0.0
C71 C 0.02789 0.67448 0.9101 0.0
N72 N 0.03454 0.67284 0.87267 0.0
N73 N 0.05133 0.64842 0.86899 0.0
C74 C 0.08999 0.58521 0.78566 0.0
O75 O 0.0986 0.60665 0.76133 0.0
O76 O 1.00797 0.73866 0.84043 0.0
Zn77 Zn 0.07757 0.64079 0.82855 0.0
N78 N 0.97878 0.66939 0.83023 0.0
C79 C 0.95826 0.61878 0.83637 0.0
C80 C 0.98133 0.63779 0.83608 0.0
C81 C 0.95381 0.68285 0.8239 0.0
N82 N 0.93344 0.63205 0.83041 0.0
C83 C 0.93027 0.66358 0.82397 0.0
O84 O 0.06955 0.66214 0.77808 0.0
C85 C 0.05142 0.67868 0.76146 0.0
O86 O 0.03052 0.68899 0.77928 0.0
H87 H 1.00126 0.62743 0.84058 0.0
H88 H 0.95237 0.70809 0.81948 0.0
C89 C 0.13678 0.64508 0.83353 0.0
C90 C 0.16137 0.65654 0.84901 0.0
C91 C 0.13582 0.68921 0.89116 0.0
C92 C 0.11162 0.6782 0.87536 0.0
N93 N 0.11247 0.6561 0.84721 0.0
N94 N 0.16001 0.67819 0.87769 0.0
H95 H 0.13691 0.62738 0.8113 0.0
C96 C 0.02885 0.75501 0.83164 0.0
O97 O 0.05161 0.74024 0.8226 0.0
O98 O 0.08027 0.59408 0.81765 0.0
H99 H 0.09228 0.68715 0.88569 0.0
H100 H 0.96001 0.59362 0.84124 0.0
H101 H 0.13541 0.70654 0.91384 0.0
Zn102 Zn 0.5783 0.30802 0.33456 0.0
C103 C 0.53942 0.3673 0.40443 0.0
N104 N 0.5533 0.3517 0.43146 0.0
C105 C 0.56351 0.32686 0.4122 0.0
N106 N 0.55646 0.32746 0.3749 0.0
N107 N 0.54085 0.35282 0.37024 0.0
C108 C 0.53157 0.42284 0.30525 0.0
O109 O 0.55512 0.40824 0.30127 0.0
O110 O 0.58368 0.2611 0.34267 0.0
Zn111 Zn 0.51545 0.36109 0.32906 0.0
N112 N 0.61303 0.33058 0.33313 0.0
C113 C 0.63329 0.38125 0.34005 0.0
C114 C 0.61037 0.36203 0.34 0.0
C115 C 0.63804 0.31749 0.32561 0.0
N116 N 0.65811 0.36836 0.33289 0.0
C117 C 0.66148 0.337 0.32549 0.0
O118 O 0.52483 0.34147 0.27813 0.0
C119 C 0.54245 0.32343 0.26261 0.0
O120 O 0.56194 0.31134 0.28166 0.0
H121 H 0.59049 0.37217 0.3454 0.0
H122 H 0.63959 0.29238 0.32032 0.0
C123 C 0.45668 0.35462 0.32885 0.0
C124 C 0.43159 0.34177 0.34113 0.0
C125 C 0.45554 0.30938 0.38527 0.0
C126 C 0.48025 0.32187 0.37271 0.0
N127 N 0.48038 0.34436 0.34499 0.0
N128 N 0.43193 0.31955 0.36928 0.0
H129 H 0.45754 0.37271 0.30706 0.0
C130 C 0.56386 0.24432 0.33104 0.0
O131 O 0.5415 0.25854 0.31943 0.0
O132 O 0.51138 0.40771 0.31887 0.0
H133 H 0.49918 0.31367 0.38504 0.0
H134 H 0.6314 0.40629 0.34565 0.0
H135 H 0.45511 0.29153 0.40734 0.0
Zn136 Zn 0.51254 0.8078 0.1881 0.0
C137 C 0.55395 0.86403 0.11592 0.0
N138 N 0.5392 0.84897 0.08943 0.0
C139 C 0.52677 0.82628 0.10985 0.0
N140 N 0.53363 0.82732 0.14719 0.0
N141 N 0.55107 0.85105 0.15089 0.0
C142 C 0.58456 0.91463 0.23834 0.0
O143 O 0.59454 0.89332 0.26178 0.0
O144 O 0.50537 0.76166 0.17819 0.0
Zn145 Zn 0.57613 0.8594 0.19248 0.0
N146 N 0.47871 0.83162 0.19279 0.0
C147 C 0.45922 0.88308 0.19084 0.0
C148 C 0.48189 0.86333 0.18899 0.0
C149 C 0.45355 0.8187 0.19907 0.0
N150 N 0.43419 0.87035 0.19673 0.0
C151 C 0.43043 0.83868 0.2011 0.0
O152 O 0.56911 0.83549 0.2416 0.0
C153 C 0.55169 0.81746 0.25745 0.0
O154 O 0.53078 0.80766 0.23964 0.0
H155 H 0.50198 0.8732 0.18441 0.0
H156 H 0.45161 0.79334 0.20177 0.0
C157 C 0.6355 0.8582 0.19106 0.0
C158 C 0.66117 0.848 0.17742 0.0
C159 C 0.6388 0.81675 0.13075 0.0
C160 C 0.61353 0.82633 0.14494 0.0
N161 N 0.61228 0.84716 0.17445 0.0
N162 N 0.6619 0.82768 0.1473 0.0
H163 H 0.6339 0.87473 0.21444 0.0
C164 C 0.52619 0.74397 0.18235 0.0
O165 O 0.55006 0.75722 0.18823 0.0
O166 O 0.57555 0.90588 0.20598 0.0
H167 H 0.59504 0.81715 0.13243 0.0
H168 H 0.46145 0.90835 0.18764 0.0
H169 H 0.64007 0.8004 0.1071 0.0
Zn170 Zn 0.02108 0.14027 0.68993 0.0
C171 C 0.06891 0.17886 0.60965 0.0
N172 N 0.05776 0.15616 0.58798 0.0
C173 C 0.04458 0.13834 0.61378 0.0
N174 N 0.04696 0.14986 0.64951 0.0
N175 N 0.06265 0.17525 0.64703 0.0
C176 C 0.06976 0.257 0.6882 0.0
O177 O 0.04581 0.24419 0.69503 0.0
O178 O 0.02101 0.09339 0.701 0.0
Zn179 Zn 0.08437 0.19235 0.68843 0.0
N180 N 0.9852 0.15326 0.67135 0.0
C181 C 0.95978 0.18373 0.62664 0.0
C182 C 0.98467 0.17423 0.64191 0.0
C183 C 0.96155 0.14197 0.68678 0.0
N184 N 0.93626 0.17261 0.64208 0.0
C185 C 0.93622 0.15212 0.67208 0.0
O186 O 0.06749 0.18811 0.74127 0.0
C187 C 0.04612 0.17799 0.75813 0.0
O188 O 0.02806 0.16203 0.74063 0.0
H189 H 1.00342 0.18357 0.63021 0.0
H190 H 0.96251 0.12517 0.70991 0.0
C191 C 0.1433 0.18464 0.69981 0.0
C192 C 0.16839 0.1687 0.6946 0.0
C193 C 0.14488 0.12646 0.66476 0.0
C194 C 0.12018 0.14221 0.66998 0.0
N195 N 0.11978 0.17111 0.68687 0.0
N196 N 0.16831 0.14007 0.67695 0.0
H197 H 0.14255 0.20772 0.71302 0.0
C198 C 1.01039 0.08357 0.73202 0.0
O199 O 0.99953 0.10411 0.75575 0.0
O200 O 0.09009 0.23903 0.68178 0.0
H201 H 0.10147 0.13158 0.6601 0.0
H202 H 0.95912 0.20011 0.60293 0.0
H203 H 0.14548 0.10361 0.65097 0.0
Zn204 Zn 0.52273 0.18997 0.83674 0.0
C205 C 0.56427 0.13138 0.90408 0.0
N206 N 0.55212 0.14759 0.93231 0.0
C207 C 0.54096 0.17213 0.91357 0.0
N208 N 0.5458 0.17077 0.87554 0.0
N209 N 0.56087 0.14519 0.8698 0.0
C210 C 0.56533 0.07631 0.80552 0.0
O211 O 0.54338 0.09354 0.79959 0.0
O212 O 0.51922 0.23678 0.84412 0.0
Zn213 Zn 0.58479 0.13638 0.82719 0.0
N214 N 0.48674 0.1704 0.84086 0.0
C215 C 0.46086 0.12771 0.86643 0.0
C216 C 0.48586 0.1422 0.85947 0.0
C217 C 0.46338 0.18425 0.82766 0.0
N218 N 0.4376 0.14174 0.8541 0.0
C219 C 0.43803 0.16954 0.83461 0.0
O220 O 0.57416 0.15614 0.77683 0.0
C221 C 0.55594 0.17388 0.76226 0.0
O222 O 0.53688 0.18593 0.78241 0.0
H223 H 0.50441 0.13109 0.86929 0.0
H224 H 0.46446 0.20665 0.81282 0.0
C225 C 0.64411 0.14145 0.82402 0.0
C226 C 0.66955 0.15261 0.83691 0.0
C227 C 0.64673 0.18421 0.88309 0.0
C228 C 0.62166 0.17334 0.87009 0.0
N229 N 0.62074 0.15185 0.84127 0.0
N230 N 0.66999 0.17357 0.86636 0.0
H231 H 0.64285 0.12436 0.80113 0.0
C232 C 0.54028 0.25293 0.83589 0.0
O233 O 0.56314 0.23808 0.82753 0.0
O234 O 0.58656 0.08954 0.81867 0.0
H235 H 0.60306 0.18188 0.8832 0.0
H236 H 0.45991 0.10548 0.88163 0.0
H237 H 0.64774 0.20103 0.90628 0.0
Zn238 Zn 0.07302 0.8094 0.33089 0.0
C239 C 0.03402 0.86558 0.40473 0.0
N240 N 0.04813 0.84917 0.43086 0.0
C241 C 0.05926 0.82579 0.40999 0.0
N242 N 0.05226 0.82776 0.37277 0.0
N243 N 0.03597 0.85267 0.36962 0.0
C244 C 0.02788 0.91969 0.29916 0.0
O245 O 0.04825 0.90148 0.28835 0.0
O246 O 0.08046 0.76301 0.33807 0.0
Zn247 Zn 1.0096 0.86121 0.32961 0.0
N248 N 0.10689 0.83308 0.326 0.0
C249 C 0.12726 0.88398 0.32899 0.0
C250 C 0.10472 0.86444 0.33373 0.0
C251 C 0.13104 0.82028 0.31388 0.0
N252 N 0.15113 0.87146 0.31633 0.0
C253 C 0.15388 0.8401 0.30861 0.0
O254 O 0.01578 0.8394 0.27876 0.0
C255 C 0.03329 0.82172 0.26236 0.0
O256 O 0.05406 0.81122 0.28 0.0
H257 H 0.08545 0.87434 0.343 0.0
H258 H 0.13216 0.79534 0.30728 0.0
C259 C 0.95058 0.85795 0.33227 0.0
C260 C 0.92529 0.84836 0.3477 0.0
C261 C 0.94879 0.81968 0.39579 0.0
C262 C 0.9737 0.8288 0.3801 0.0
N263 N 0.97418 0.84809 0.34902 0.0
N264 N 0.92528 0.82963 0.37932 0.0
H265 H 0.95162 0.8733 0.3076 0.0
C266 C 0.05968 0.74516 0.33575 0.0
O267 O 0.0353 0.75811 0.33374 0.0
O268 O 1.00844 0.90771 0.31841 0.0
H269 H 0.99248 0.82056 0.39278 0.0
H270 H 0.12574 0.90901 0.33486 0.0
H271 H 0.94812 0.80462 0.42075 0.0
H272 H 0.21386 0.36782 0.13734 0.0
H273 H 0.25881 0.37436 0.16622 0.0
H274 H 0.22412 0.35628 0.27753 0.0
H275 H 0.17884 0.35065 0.2488 0.0
H276 H 0.263 0.39972 0.28289 0.0
H277 H 0.25584 0.29739 0.22488 0.0
H278 H 0.24701 0.25963 0.17281 0.0
H279 H 0.31125 0.30129 0.10601 0.0
H280 H 0.32021 0.3396 0.15751 0.0
H281 H 0.38174 0.34072 0.37565 0.0
H282 H 0.33713 0.34998 0.34697 0.0
H283 H 0.37586 0.37228 0.23952 0.0
H284 H 0.42063 0.36226 0.26767 0.0
H285 H 0.33565 0.32986 0.23092 0.0
H286 H 0.34482 0.42988 0.29351 0.0
H287 H 0.35349 0.46555 0.34772 0.0
H288 H 0.28548 0.42576 0.40861 0.0
H289 H 0.27663 0.38952 0.35497 0.0
C290 C 0.21575 0.36571 0.16805 0.0
C291 C 0.19284 0.35864 0.19077 0.0
C292 C 0.24147 0.36932 0.18452 0.0
C293 C 0.24501 0.36508 0.22396 0.0
C294 C 0.22193 0.35957 0.24701 0.0
C295 C 0.19603 0.35643 0.23057 0.0
C296 C 0.27291 0.3645 0.24068 0.0
C297 C 0.27882 0.38425 0.27176 0.0
C298 C 0.29375 0.34469 0.2258 0.0
C299 C 0.2885 0.32156 0.19488 0.0
C300 C 0.26795 0.29863 0.19898 0.0
C301 C 0.26294 0.27712 0.16958 0.0
C302 C 0.2785 0.27811 0.13608 0.0
C303 C 0.29917 0.30058 0.13195 0.0
C304 C 0.30424 0.32219 0.16124 0.0
C305 C 0.38086 0.34793 0.34599 0.0
C306 C 0.40491 0.35094 0.32415 0.0
C307 C 0.35529 0.35345 0.32971 0.0
C308 C 0.35312 0.36218 0.29119 0.0
C309 C 0.37706 0.36579 0.2694 0.0
C310 C 0.40272 0.36032 0.2857 0.0
C311 C 0.32582 0.36513 0.27306 0.0
C312 C 0.31996 0.34563 0.24181 0.0
C313 C 0.30502 0.3849 0.28809 0.0
C314 C 0.3102 0.40681 0.32031 0.0
C315 C 0.33183 0.42857 0.31857 0.0
C316 C 0.33676 0.44892 0.34918 0.0
C317 C 0.32008 0.44788 0.38162 0.0
C318 C 0.29839 0.42653 0.38347 0.0
C319 C 0.29339 0.40611 0.35295 0.0
H320 H 0.32393 0.46365 0.40529 0.0
H321 H 0.27459 0.26143 0.11336 0.0
H322 H 0.17667 0.64125 0.77546 0.0
H323 H 0.22292 0.63158 0.7518 0.0
H324 H 0.25422 0.64044 0.86629 0.0
H325 H 0.20808 0.65063 0.89003 0.0
H326 H 0.28281 0.6754 0.82016 0.0
H327 H 0.25275 0.56845 0.81827 0.0
H328 H 0.22167 0.5245 0.80316 0.0
H329 H 0.23353 0.54108 0.68328 0.0
H330 H 0.26435 0.58549 0.69765 0.0
H331 H 0.41844 0.64118 0.76114 0.0
H332 H 0.37447 0.63336 0.79321 0.0
H333 H 0.33384 0.63316 0.68416 0.0
H334 H 0.37764 0.6404 0.65188 0.0
H335 H 0.31166 0.58938 0.73268 0.0
H336 H 0.33841 0.69925 0.73601 0.0
H337 H 0.36856 0.74391 0.75173 0.0
H338 H 0.36203 0.7215 0.87099 0.0
H339 H 0.33238 0.67618 0.8559 0.0
C340 C 0.19327 0.64036 0.79577 0.0
C341 C 0.18864 0.64657 0.83471 0.0
C342 C 0.21978 0.63485 0.78217 0.0
C343 C 0.24213 0.63504 0.80729 0.0
C344 C 0.23738 0.64024 0.84633 0.0
C345 C 0.21096 0.64603 0.85986 0.0
C346 C 0.27059 0.63223 0.79256 0.0
C347 C 0.28925 0.65618 0.80171 0.0
C348 C 0.27891 0.60751 0.76786 0.0
C349 C 0.26072 0.58048 0.75906 0.0
C350 C 0.24861 0.56286 0.78868 0.0
C351 C 0.23104 0.53785 0.78025 0.0
C352 C 0.22559 0.53004 0.74229 0.0
C353 C 0.23777 0.54717 0.71268 0.0
C354 C 0.25531 0.57224 0.72095 0.0
C355 C 0.40028 0.63864 0.74388 0.0
C356 C 0.4016 0.64138 0.70385 0.0
C357 C 0.3751 0.63443 0.76231 0.0
C358 C 0.35082 0.63296 0.74109 0.0
C359 C 0.35228 0.6342 0.70112 0.0
C360 C 0.37734 0.63855 0.68273 0.0
C361 C 0.32369 0.6326 0.76024 0.0
C362 C 0.30527 0.60821 0.75174 0.0
C363 C 0.31556 0.65684 0.78573 0.0
C364 C 0.33348 0.68404 0.79477 0.0
C365 C 0.34365 0.70362 0.76555 0.0
C366 C 0.36063 0.72907 0.77435 0.0
C367 C 0.36729 0.73547 0.81233 0.0
C368 C 0.35689 0.71648 0.84158 0.0
C369 C 0.34007 0.69085 0.83292 0.0
H370 H 0.38044 0.75518 0.81909 0.0
H371 H 0.21196 0.51068 0.73582 0.0
H372 H 0.68331 0.71563 0.69603 0.0
H373 H 0.72947 0.73051 0.71716 0.0
H374 H 0.73283 0.64726 0.78801 0.0
H375 H 0.68728 0.63216 0.76668 0.0
H376 H 0.75392 0.70218 0.8238 0.0
H377 H 0.76043 0.64442 0.7032 0.0
H378 H 0.75083 0.63694 0.63471 0.0
H379 H 0.78762 0.72656 0.6094 0.0
H380 H 0.79709 0.73473 0.67789 0.0
H381 H 0.8832 0.63999 0.85295 0.0
H382 H 0.83658 0.65411 0.83681 0.0
H383 H 0.86602 0.72854 0.76337 0.0
H384 H 0.91329 0.71385 0.77876 0.0
H385 H 0.8283 0.69431 0.72762 0.0
H386 H 0.83123 0.7464 0.84655 0.0
H387 H 0.84125 0.75407 0.91483 0.0
H388 H 0.787 0.67817 0.94395 0.0
H389 H 0.77695 0.6697 0.8758 0.0
C390 C 0.69374 0.70092 0.71669 0.0
C391 C 0.68173 0.67274 0.72976 0.0
C392 C 0.72012 0.70933 0.72857 0.0
C393 C 0.73462 0.68993 0.7541 0.0
C394 C 0.72203 0.66264 0.76843 0.0
C395 C 0.69603 0.65398 0.75611 0.0
C396 C 0.76355 0.69631 0.76427 0.0
C397 C 0.77023 0.7006 0.80284 0.0
C398 C 0.78476 0.69535 0.73672 0.0
C399 C 0.77911 0.69038 0.69565 0.0
C400 C 0.76623 0.66265 0.68306 0.0
C401 C 0.76086 0.65826 0.64425 0.0
C402 C 0.76852 0.68131 0.61774 0.0
C403 C 0.78164 0.70876 0.62998 0.0
C404 C 0.78701 0.71329 0.66878 0.0
C405 C 0.8799 0.65966 0.83369 0.0
C406 C 0.90213 0.67581 0.81732 0.0
C407 C 0.85309 0.6679 0.82471 0.0
C408 C 0.84762 0.69272 0.79926 0.0
C409 C 0.8697 0.70946 0.78333 0.0
C410 C 0.89673 0.70121 0.79244 0.0
C411 C 0.81885 0.69904 0.78752 0.0
C412 C 0.81212 0.69699 0.74864 0.0
C413 C 0.79757 0.70232 0.81481 0.0
C414 C 0.80341 0.70735 0.85596 0.0
C415 C 0.82156 0.7312 0.86748 0.0
C416 C 0.82723 0.73571 0.90618 0.0
C417 C 0.81478 0.71661 0.93371 0.0
C418 C 0.79661 0.69297 0.92259 0.0
C419 C 0.79088 0.68835 0.88392 0.0
H420 H 0.8192 0.72013 0.96366 0.0
H421 H 0.76436 0.67786 0.5877 0.0
H422 H 0.90369 0.37168 0.26014 0.0
H423 H 0.85798 0.35667 0.28122 0.0
H424 H 0.86379 0.27047 0.2162 0.0
H425 H 0.91014 0.28531 0.19519 0.0
H426 H 0.81414 0.30726 0.20438 0.0
H427 H 0.8645 0.26166 0.30659 0.0
H428 H 0.8995 0.25983 0.35697 0.0
H429 H 0.86039 0.33713 0.41481 0.0
H430 H 0.82537 0.33977 0.36448 0.0
H431 H 0.67875 0.28632 0.28061 0.0
H432 H 0.72598 0.27276 0.26335 0.0
H433 H 0.75518 0.34916 0.33354 0.0
H434 H 0.70865 0.36199 0.35184 0.0
H435 H 0.788 0.3014 0.34118 0.0
H436 H 0.7454 0.35504 0.23349 0.0
H437 H 0.7114 0.36092 0.18212 0.0
H438 H 0.73646 0.27203 0.13437 0.0
H439 H 0.7704 0.26547 0.18576 0.0
C440 C 0.89542 0.34933 0.25062 0.0
C441 C 0.9106 0.32962 0.22616 0.0
C442 C 0.86929 0.34074 0.26278 0.0
C443 C 0.85749 0.31238 0.25046 0.0
C444 C 0.87258 0.2924 0.22618 0.0
C445 C 0.89909 0.30078 0.21445 0.0
C446 C 0.82895 0.3049 0.26209 0.0
C447 C 0.80842 0.30509 0.23422 0.0
C448 C 0.82146 0.3026 0.30105 0.0
C449 C 0.84236 0.30098 0.33162 0.0
C450 C 0.86345 0.27841 0.32991 0.0
C451 C 0.88329 0.27721 0.35849 0.0
C452 C 0.88219 0.29837 0.38905 0.0
C453 C 0.86121 0.32074 0.39113 0.0
C454 C 0.84133 0.32206 0.36261 0.0
C455 C 0.69524 0.29974 0.29309 0.0
C456 C 0.68974 0.32537 0.31761 0.0
C457 C 0.72229 0.29216 0.28284 0.0
C458 C 0.74427 0.31019 0.2967 0.0
C459 C 0.73874 0.33482 0.32236 0.0
C460 C 0.71195 0.34229 0.33263 0.0
C461 C 0.77302 0.30506 0.28358 0.0
C462 C 0.79366 0.3026 0.31123 0.0
C463 C 0.78057 0.30567 0.24445 0.0
C464 C 0.76015 0.30957 0.2137 0.0
C465 C 0.74349 0.33664 0.21219 0.0
C466 C 0.72427 0.34011 0.18306 0.0
C467 C 0.72172 0.31681 0.15507 0.0
C468 C 0.73842 0.29001 0.15612 0.0
C469 C 0.75764 0.28641 0.18523 0.0
H470 H 0.70689 0.31958 0.13247 0.0
H471 H 0.89757 0.29741 0.41115 0.0
H472 H 0.91274 0.85677 0.27162 0.0
H473 H 0.86746 0.86497 0.24415 0.0
H474 H 0.83227 0.86753 0.35726 0.0
H475 H 0.87736 0.85883 0.38484 0.0
H476 H 0.80475 0.82881 0.31478 0.0
H477 H 0.83695 0.93466 0.29922 0.0
H478 H 0.8689 0.97638 0.27883 0.0
H479 H 0.85948 0.94815 0.1619 0.0
H480 H 0.82775 0.90595 0.18163 0.0
H481 H 0.67112 0.86318 0.2529 0.0
H482 H 0.71547 0.87201 0.28264 0.0
H483 H 0.75518 0.86116 0.17331 0.0
H484 H 0.71089 0.85309 0.14308 0.0
H485 H 0.7794 0.90754 0.21601 0.0
H486 H 0.75053 0.79937 0.23257 0.0
H487 H 0.71885 0.75728 0.25273 0.0
H488 H 0.72252 0.79035 0.36847 0.0
H489 H 0.75396 0.83293 0.34887 0.0
C490 C 0.89549 0.85986 0.2907 0.0
C491 C 0.8987 0.8573 0.33049 0.0
C492 C 0.86954 0.86452 0.27493 0.0
C493 C 0.84639 0.8671 0.29863 0.0
C494 C 0.84975 0.86553 0.33836 0.0
C495 C 0.87557 0.86059 0.35409 0.0
C496 C 0.81846 0.869 0.28213 0.0
C497 C 0.79911 0.84647 0.29375 0.0
C498 C 0.81119 0.89149 0.25396 0.0
C499 C 0.83015 0.91696 0.24195 0.0
C500 C 0.84184 0.93719 0.26918 0.0
C501 C 0.85989 0.96096 0.25774 0.0
C502 C 0.86627 0.96487 0.2191 0.0
C503 C 0.85454 0.94507 0.19182 0.0
C504 C 0.8365 0.92125 0.20311 0.0
C505 C 0.68912 0.86355 0.23489 0.0
C506 C 0.68735 0.85744 0.19546 0.0
C507 C 0.71455 0.86832 0.25206 0.0
C508 C 0.73867 0.86687 0.23026 0.0
C509 C 0.73685 0.86236 0.19069 0.0
C510 C 0.7115 0.85755 0.17352 0.0
C511 C 0.76587 0.86749 0.24888 0.0
C512 C 0.78506 0.89025 0.23747 0.0
C513 C 0.77307 0.84525 0.27731 0.0
C514 C 0.75434 0.81953 0.28918 0.0
C515 C 0.74442 0.7978 0.26226 0.0
C516 C 0.72653 0.77384 0.27359 0.0
C517 C 0.71861 0.7712 0.31184 0.0
C518 C 0.72863 0.79247 0.33885 0.0
C519 C 0.74649 0.81651 0.32765 0.0
H520 H 0.70476 0.75264 0.32056 0.0
H521 H 0.88025 0.98328 0.2103 0.0
H522 H 0.68195 0.14382 0.76092 0.0
H523 H 0.72739 0.13552 0.73309 0.0
H524 H 0.76204 0.13137 0.84614 0.0
H525 H 0.71693 0.14064 0.87386 0.0
H526 H 0.79008 0.16993 0.80552 0.0
H527 H 0.757 0.0649 0.78496 0.0
H528 H 0.7249 0.02434 0.76215 0.0
H529 H 0.73622 0.05626 0.64678 0.0
H530 H 0.76812 0.0973 0.66896 0.0
H531 H 0.92427 0.13522 0.7467 0.0
H532 H 0.87919 0.12614 0.77446 0.0
H533 H 0.84222 0.13987 0.66412 0.0
H534 H 0.88729 0.14802 0.63576 0.0
H535 H 0.81608 0.09354 0.70433 0.0
H536 H 0.84641 0.20055 0.72616 0.0
H537 H 0.87845 0.24118 0.74901 0.0
H538 H 0.87189 0.20466 0.86309 0.0
H539 H 0.84005 0.16355 0.8408 0.0
C540 C 0.69918 0.14038 0.77979 0.0
C541 C 0.69589 0.14279 0.81958 0.0
C542 C 0.72519 0.13563 0.76387 0.0
C543 C 0.74825 0.13263 0.78749 0.0
C544 C 0.74468 0.13375 0.82726 0.0
C545 C 0.71886 0.13896 0.84309 0.0
C546 C 0.77635 0.13091 0.77107 0.0
C547 C 0.79581 0.15276 0.78393 0.0
C548 C 0.78382 0.10913 0.74213 0.0
C549 C 0.76477 0.08436 0.72867 0.0
C550 C 0.7525 0.06342 0.75475 0.0
C551 C 0.73436 0.04031 0.74193 0.0
C552 C 0.72848 0.03777 0.70305 0.0
C553 C 0.74078 0.05827 0.67689 0.0
C554 C 0.75892 0.08144 0.68957 0.0
C555 C 0.90674 0.13541 0.72798 0.0
C556 C 0.90953 0.14241 0.68885 0.0
C557 C 0.88087 0.13051 0.74406 0.0
C558 C 0.85728 0.13279 0.72147 0.0
C559 C 0.8601 0.13807 0.68213 0.0
C560 C 0.88592 0.14294 0.66603 0.0
C561 C 0.82962 0.13231 0.73917 0.0
C562 C 0.81028 0.11033 0.72632 0.0
C563 C 0.82218 0.1539 0.76825 0.0
C564 C 0.84109 0.1788 0.78175 0.0
C565 C 0.85194 0.20107 0.75607 0.0
C566 C 0.87004 0.2242 0.76893 0.0
C567 C 0.87726 0.22545 0.80746 0.0
C568 C 0.86631 0.20363 0.83324 0.0
C569 C 0.84823 0.18043 0.82052 0.0
H570 H 0.89128 0.24336 0.81736 0.0
H571 H 0.71442 0.01988 0.69318 0.0
H572 H 0.42325 0.18556 0.76186 0.0
H573 H 0.37685 0.19627 0.73913 0.0
H574 H 0.34715 0.1939 0.85538 0.0
H575 H 0.39318 0.18132 0.87759 0.0
H576 H 0.31649 0.15956 0.81723 0.0
H577 H 0.34917 0.26396 0.79536 0.0
H578 H 0.38039 0.30507 0.77123 0.0
H579 H 0.36498 0.27566 0.65602 0.0
H580 H 0.33395 0.23406 0.67948 0.0
H581 H 0.18034 0.19673 0.76331 0.0
H582 H 0.22603 0.20853 0.78833 0.0
H583 H 0.26195 0.18059 0.68093 0.0
H584 H 0.21654 0.16823 0.65613 0.0
H585 H 0.28762 0.23569 0.71744 0.0
H586 H 0.25929 0.12745 0.74306 0.0
H587 H 0.22763 0.0874 0.76868 0.0
H588 H 0.23468 0.12777 0.88066 0.0
H589 H 0.26608 0.16839 0.85551 0.0
C590 C 0.40687 0.18818 0.7825 0.0
C591 C 0.41173 0.18283 0.82146 0.0
C592 C 0.3803 0.19438 0.76956 0.0
C593 C 0.35824 0.19616 0.79548 0.0
C594 C 0.36359 0.19251 0.83466 0.0
C595 C 0.38994 0.18555 0.84742 0.0
C596 C 0.32939 0.19857 0.78178 0.0
C597 C 0.31022 0.17681 0.79607 0.0
C598 C 0.32094 0.22052 0.75352 0.0
C599 C 0.33939 0.24571 0.73923 0.0
C600 C 0.35257 0.26612 0.76489 0.0
C601 C 0.37022 0.28953 0.75133 0.0
C602 C 0.37472 0.29292 0.71212 0.0
C603 C 0.3615 0.27298 0.68639 0.0
C604 C 0.34384 0.24951 0.6998 0.0
C605 C 0.19792 0.19395 0.74474 0.0
C606 C 0.1949 0.18155 0.70778 0.0
C607 C 0.224 0.20059 0.75908 0.0
C608 C 0.24739 0.19537 0.73648 0.0
C609 C 0.24421 0.18495 0.69877 0.0
C610 C 0.21827 0.17776 0.68472 0.0
C611 C 0.27521 0.19696 0.75325 0.0
C612 C 0.29408 0.21909 0.73924 0.0
C613 C 0.28341 0.1757 0.78218 0.0
C614 C 0.26473 0.15116 0.79734 0.0
C615 C 0.25389 0.12795 0.77307 0.0
C616 C 0.23603 0.10512 0.78751 0.0
C617 C 0.22908 0.1051 0.82625 0.0
C618 C 0.24004 0.12786 0.85064 0.0
C619 C 0.25786 0.15078 0.83632 0.0
H620 H 0.21526 0.0874 0.83738 0.0
H621 H 0.38842 0.31104 0.70168 0.0
H622 H 0.1866 0.86953 0.25755 0.0
H623 H 0.23255 0.8547 0.23713 0.0
H624 H 0.22843 0.77077 0.3067 0.0
H625 H 0.18185 0.78544 0.32707 0.0
H626 H 0.27678 0.80828 0.31729 0.0
H627 H 0.22872 0.75934 0.21598 0.0
H628 H 0.19439 0.75499 0.16497 0.0
H629 H 0.23215 0.83172 0.10456 0.0
H630 H 0.26648 0.83687 0.15549 0.0
H631 H 0.41293 0.78725 0.24388 0.0
H632 H 0.36556 0.7733 0.25966 0.0
H633 H 0.33678 0.85078 0.19051 0.0
H634 H 0.38361 0.86434 0.17411 0.0
H635 H 0.3046 0.80078 0.18123 0.0
H636 H 0.34471 0.85723 0.2882 0.0
H637 H 0.37822 0.86475 0.3398 0.0
H638 H 0.35475 0.77609 0.38956 0.0
H639 H 0.32131 0.76789 0.33793 0.0
C640 C 0.19529 0.84768 0.26816 0.0
C641 C 0.18055 0.82858 0.29376 0.0
C642 C 0.22154 0.83917 0.25636 0.0
C643 C 0.23389 0.81154 0.27019 0.0
C644 C 0.21921 0.79212 0.29552 0.0
C645 C 0.19257 0.80039 0.30691 0.0
C646 C 0.26267 0.80447 0.25933 0.0
C647 C 0.28287 0.80571 0.28763 0.0
C648 C 0.27064 0.80164 0.2206 0.0
C649 C 0.25013 0.79857 0.1897 0.0
C650 C 0.22961 0.77544 0.19195 0.0
C651 C 0.21015 0.7728 0.16302 0.0
C652 C 0.21107 0.79308 0.13156 0.0
C653 C 0.23147 0.81601 0.12894 0.0
C654 C 0.25097 0.81876 0.15781 0.0
C655 C 0.3965 0.80084 0.23133 0.0
C656 C 0.40214 0.82699 0.20773 0.0
C657 C 0.3694 0.793 0.24067 0.0
C658 C 0.34753 0.81118 0.22659 0.0
C659 C 0.35319 0.83634 0.20175 0.0
C660 C 0.38008 0.8442 0.19257 0.0
C661 C 0.31875 0.80574 0.23905 0.0
C662 C 0.29854 0.80231 0.21099 0.0
C663 C 0.31077 0.80681 0.27797 0.0
C664 C 0.33081 0.81175 0.30898 0.0
C665 C 0.34686 0.83923 0.30999 0.0
C666 C 0.36581 0.84363 0.33926 0.0
C667 C 0.36869 0.82085 0.36787 0.0
C668 C 0.35255 0.79367 0.36733 0.0
C669 C 0.3336 0.78913 0.33808 0.0
H670 H 0.38336 0.82431 0.39051 0.0
H671 H 0.19599 0.79101 0.10919 0.0
H672 H 0.02156 0.69946 0.34766 0.0
H673 H 0.02457 0.64365 0.32978 0.0
H674 H 0.10712 0.65773 0.29011 0.0
H675 H 0.10448 0.71354 0.30863 0.0
H676 H 0.06954 0.62706 0.23626 0.0
H677 H 0.10146 0.61901 0.36588 0.0
H678 H 0.09886 0.62811 0.43534 0.0
H679 H 0.02329 0.57702 0.44072 0.0
H680 H 0.0252 0.56805 0.37115 0.0
H681 H 0.10033 0.46513 0.20131 0.0
H682 H 0.10118 0.5203 0.22189 0.0
H683 H 0.02621 0.50626 0.28473 0.0
H684 H 0.02546 0.451 0.26485 0.0
H685 H 0.06167 0.53748 0.32703 0.0
H686 H 0.02737 0.54581 0.2004 0.0
H687 H 0.0264 0.53745 0.13081 0.0
H688 H 0.10136 0.58893 0.11854 0.0
H689 H 0.10311 0.59706 0.18827 0.0
C690 C 0.0405 0.69055 0.33567 0.0
C691 C 0.0628 0.71081 0.3296 0.0
C692 C 0.04216 0.65872 0.32543 0.0
C693 C 0.06602 0.64669 0.30849 0.0
C694 C 0.08853 0.66666 0.30307 0.0
C695 C 0.08705 0.69842 0.31395 0.0
C696 C 0.06699 0.61345 0.29541 0.0
C697 C 0.06833 0.60738 0.25604 0.0
C698 C 0.06442 0.588 0.32129 0.0
C699 C 0.06335 0.59311 0.36321 0.0
C700 C 0.08416 0.60995 0.38181 0.0
C701 C 0.08284 0.61504 0.42122 0.0
C702 C 0.06089 0.60322 0.44242 0.0
C703 C 0.04026 0.5862 0.42426 0.0
C704 C 0.04147 0.58108 0.38484 0.0
C705 C 0.08398 0.47381 0.21942 0.0
C706 C 0.06286 0.45364 0.23152 0.0
C707 C 0.08444 0.5054 0.23104 0.0
C708 C 0.06368 0.51749 0.2547 0.0
C709 C 0.04249 0.49744 0.26658 0.0
C710 C 0.04204 0.46586 0.25504 0.0
C711 C 0.06427 0.55088 0.26771 0.0
C712 C 0.06311 0.55705 0.30711 0.0
C713 C 0.06654 0.57644 0.24175 0.0
C714 C 0.06556 0.5717 0.19971 0.0
C715 C 0.04382 0.55508 0.18294 0.0
C716 C 0.0431 0.55042 0.14344 0.0
C717 C 0.06386 0.56255 0.12025 0.0
C718 C 0.08533 0.57947 0.13655 0.0
C719 C 0.0862 0.58411 0.17608 0.0
H720 H 0.06327 0.5589 0.08967 0.0
H721 H 0.0599 0.60719 0.47293 0.0
H722 H 0.49415 0.28949 0.8332 0.0
H723 H 0.49123 0.34555 0.81645 0.0
H724 H 0.57912 0.35048 0.81042 0.0
H725 H 0.58224 0.29451 0.827 0.0
H726 H 0.55542 0.40296 0.84588 0.0
H727 H 0.54455 0.3406 0.73167 0.0
H728 H 0.5232 0.29982 0.69147 0.0
H729 H 0.44658 0.34919 0.69725 0.0
H730 H 0.46739 0.39003 0.73803 0.0
H731 H 0.57668 0.54023 0.73668 0.0
H732 H 0.5762 0.48566 0.75922 0.0
H733 H 0.48847 0.48346 0.74824 0.0
H734 H 0.4889 0.5377 0.7242 0.0
H735 H 0.50953 0.42995 0.72408 0.0
H736 H 0.51981 0.49317 0.83601 0.0
H737 H 0.54037 0.53414 0.87674 0.0
H738 H 0.61663 0.48386 0.87601 0.0
H739 H 0.59664 0.44279 0.83481 0.0
C740 C 0.51287 0.30262 0.8289 0.0
C741 C 0.53843 0.28754 0.8311 0.0
C742 C 0.51115 0.33459 0.81916 0.0
C743 C 0.53496 0.35198 0.81172 0.0
C744 C 0.56052 0.33741 0.81593 0.0
C745 C 0.56225 0.30542 0.82532 0.0
C746 C 0.53332 0.38489 0.79762 0.0
C747 C 0.54559 0.40889 0.81909 0.0
C748 C 0.51992 0.3926 0.7631 0.0
C749 C 0.50744 0.36813 0.73839 0.0
C750 C 0.52309 0.3426 0.7247 0.0
C751 C 0.5111 0.31951 0.70174 0.0
C752 C 0.48353 0.32186 0.69193 0.0
C753 C 0.46792 0.34737 0.70495 0.0
C754 C 0.4798 0.37049 0.72799 0.0
C755 C 0.55729 0.52808 0.73886 0.0
C756 C 0.5328 0.54338 0.72905 0.0
C757 C 0.55703 0.49694 0.75196 0.0
C758 C 0.53223 0.48067 0.7562 0.0
C759 C 0.50783 0.49558 0.74533 0.0
C760 C 0.50811 0.52661 0.7317 0.0
C761 C 0.53181 0.44815 0.77209 0.0
C762 C 0.51918 0.42417 0.75097 0.0
C763 C 0.54474 0.44049 0.80704 0.0
C764 C 0.55678 0.46503 0.83205 0.0
C765 C 0.54102 0.49095 0.84432 0.0
C766 C 0.55256 0.51418 0.86752 0.0
C767 C 0.5798 0.51164 0.87889 0.0
C768 C 0.59554 0.48581 0.86715 0.0
C769 C 0.5841 0.46253 0.84391 0.0
H770 H 0.58871 0.52965 0.89684 0.0
H771 H 0.47428 0.30396 0.67414 0.0
H772 H 0.07401 0.53436 0.82879 0.0
H773 H 0.07332 0.47881 0.80954 0.0
H774 H 0.10661 0.50407 0.69947 0.0
H775 H 0.10706 0.55957 0.71823 0.0
H776 H 0.06455 0.46436 0.6919 0.0
H777 H 0.14663 0.46905 0.76613 0.0
H778 H 0.17378 0.48187 0.82322 0.0
H779 H 0.12452 0.4191 0.89068 0.0
H780 H 0.09686 0.40618 0.83406 0.0
H781 H 0.11778 0.29009 0.68848 0.0
H782 H 0.12396 0.34636 0.702 0.0
H783 H 0.03671 0.35786 0.71264 0.0
H784 H 0.03032 0.3018 0.69902 0.0
H785 H 0.1097 0.37949 0.76657 0.0
H786 H 0.01958 0.43091 0.67957 0.0
H787 H 0.99391 0.41893 0.62087 0.0
H788 H 0.06375 0.37055 0.57464 0.0
H789 H 0.08997 0.38266 0.63279 0.0
C790 C 0.08129 0.52808 0.80055 0.0
C791 C 0.09057 0.5514 0.77503 0.0
C792 C 0.08096 0.49631 0.78963 0.0
C793 C 0.09005 0.48729 0.75312 0.0
C794 C 0.09945 0.51052 0.72773 0.0
C795 C 0.09979 0.54223 0.7386 0.0
C796 C 0.0893 0.45373 0.74103 0.0
C797 C 0.07445 0.44581 0.7082 0.0
C798 C 0.10258 0.42962 0.76197 0.0
C799 C 0.11956 0.43679 0.79589 0.0
C800 C 0.14151 0.45808 0.79317 0.0
C801 C 0.157 0.46536 0.82544 0.0
C802 C 0.15086 0.45132 0.86055 0.0
C803 C 0.12926 0.42993 0.86345 0.0
C804 C 0.1137 0.42258 0.83126 0.0
C805 C 0.09988 0.30467 0.69324 0.0
C806 C 0.07354 0.29147 0.69265 0.0
C807 C 0.10348 0.33676 0.70122 0.0
C808 C 0.08081 0.35627 0.70828 0.0
C809 C 0.05448 0.34328 0.70696 0.0
C810 C 0.05087 0.31121 0.69918 0.0
C811 C 0.08458 0.39011 0.71778 0.0
C812 C 0.09991 0.39807 0.75019 0.0
C813 C 0.07206 0.41434 0.69616 0.0
C814 C 0.05664 0.40747 0.66071 0.0
C815 C 0.02951 0.41786 0.65679 0.0
C816 C 0.01485 0.41102 0.62363 0.0
C817 C 0.02717 0.39391 0.59409 0.0
C818 C 0.05421 0.38371 0.59759 0.0
C819 C 0.06896 0.39053 0.63067 0.0
H820 H 0.01578 0.3886 0.56847 0.0
H821 H 0.16287 0.45697 0.8855 0.0
H822 H 0.47921 0.70898 0.18761 0.0
H823 H 0.47564 0.65237 0.20144 0.0
H824 H 0.56345 0.64418 0.19829 0.0
H825 H 0.56718 0.70043 0.1842 0.0
H826 H 0.53992 0.59354 0.16567 0.0
H827 H 0.53093 0.65228 0.28225 0.0
H828 H 0.5113 0.69216 0.32576 0.0
H829 H 0.43331 0.64622 0.32011 0.0
H830 H 0.45243 0.60627 0.27612 0.0
H831 H 0.57138 0.46452 0.28459 0.0
H832 H 0.5656 0.51695 0.25652 0.0
H833 H 0.47808 0.50671 0.26262 0.0
H834 H 0.48368 0.45439 0.29156 0.0
H835 H 0.49492 0.56458 0.28791 0.0
H836 H 0.50901 0.50049 0.17798 0.0
H837 H 0.53185 0.46035 0.13804 0.0
H838 H 0.60477 0.51647 0.13532 0.0
H839 H 0.58251 0.55675 0.17576 0.0
C840 C 0.49772 0.69499 0.1892 0.0
C841 C 0.52349 0.70924 0.18518 0.0
C842 C 0.49565 0.6627 0.1973 0.0
C843 C 0.51931 0.64415 0.20146 0.0
C844 C 0.54494 0.65802 0.19531 0.0
C845 C 0.54703 0.69024 0.18738 0.0
C846 C 0.51766 0.61084 0.21454 0.0
C847 C 0.5303 0.58722 0.19256 0.0
C848 C 0.50463 0.60249 0.24926 0.0
C849 C 0.493 0.62657 0.27546 0.0
C850 C 0.50952 0.65087 0.28998 0.0
C851 C 0.49851 0.67344 0.31479 0.0
C852 C 0.47105 0.67179 0.32557 0.0
C853 C 0.45456 0.64751 0.31164 0.0
C854 C 0.46547 0.6249 0.28677 0.0
C855 C 0.55089 0.47343 0.28008 0.0
C856 C 0.528 0.4553 0.29032 0.0
C857 C 0.54761 0.50331 0.26376 0.0
C858 C 0.5214 0.51553 0.25691 0.0
C859 C 0.49848 0.49764 0.26743 0.0
C860 C 0.50174 0.46783 0.28413 0.0
C861 C 0.51815 0.54743 0.23984 0.0
C862 C 0.50443 0.57078 0.26092 0.0
C863 C 0.53071 0.55561 0.20473 0.0
C864 C 0.54413 0.53155 0.18014 0.0
C865 C 0.52998 0.50418 0.1691 0.0
C866 C 0.54282 0.48141 0.14634 0.0
C867 C 0.56976 0.48583 0.13421 0.0
C868 C 0.5839 0.51307 0.14475 0.0
C869 C 0.57117 0.5359 0.16756 0.0
H870 H 0.57966 0.46817 0.11659 0.0
H871 H 0.46256 0.68927 0.34481 0.0
H872 H 0.55761 0.96325 0.20326 0.0
H873 H 0.55558 0.01847 0.2232 0.0
H874 H 0.60762 0.99744 0.31913 0.0
H875 H 0.60891 0.94191 0.30013 0.0
H876 H 0.56944 0.03691 0.34122 0.0
H877 H 0.63404 0.03586 0.23992 0.0
H878 H 0.65113 0.02025 0.17636 0.0
H879 H 0.58502 0.07039 0.12334 0.0
H880 H 0.56757 0.08641 0.18666 0.0
H881 H 0.60128 0.20429 0.36405 0.0
H882 H 0.60681 0.14735 0.35197 0.0
H883 H 0.53914 0.15013 0.27363 0.0
H884 H 0.53312 0.2064 0.28599 0.0
H885 H 0.58981 0.12019 0.24547 0.0
H886 H 0.52671 0.12047 0.35354 0.0
H887 H 0.51351 0.13457 0.41939 0.0
H888 H 0.58346 0.08491 0.4626 0.0
H889 H 0.59732 0.07095 0.39689 0.0
C890 C 0.56863 0.97037 0.22859 0.0
C891 C 0.58356 0.94823 0.24996 0.0
C892 C 0.56753 0.00199 0.23993 0.0
C893 C 0.58183 0.01229 0.27237 0.0
C894 C 0.59645 0.99012 0.29402 0.0
C895 C 0.59727 0.95839 0.28298 0.0
C896 C 0.58183 0.04629 0.28314 0.0
C897 C 0.57429 0.05507 0.32042 0.0
C898 C 0.58831 0.07011 0.25621 0.0
C899 C 0.59944 0.06218 0.21798 0.0
C900 C 0.6232 0.04364 0.21467 0.0
C901 C 0.63296 0.03474 0.17873 0.0
C902 C 0.61919 0.04432 0.14586 0.0
C903 C 0.59575 0.06311 0.14883 0.0
C904 C 0.58597 0.07222 0.18474 0.0
C905 C 0.5875 0.19264 0.34449 0.0
C906 C 0.56674 0.20978 0.32605 0.0
C907 C 0.59068 0.16021 0.33763 0.0
C908 C 0.57342 0.14469 0.3118 0.0
C909 C 0.55269 0.16175 0.29354 0.0
C910 C 0.5492 0.19387 0.30087 0.0
C911 C 0.57689 0.11068 0.3032 0.0
C912 C 0.58518 0.10196 0.26629 0.0
C913 C 0.5718 0.08701 0.3308 0.0
C914 C 0.56322 0.09499 0.37029 0.0
C915 C 0.53941 0.1128 0.37706 0.0
C916 C 0.53178 0.12072 0.41436 0.0
C917 C 0.54769 0.11074 0.44515 0.0
C918 C 0.57119 0.09269 0.43871 0.0
C919 C 0.57893 0.08475 0.40145 0.0
H920 H 0.54176 0.11691 0.47401 0.0
H921 H 0.62671 0.03708 0.11818 0.0
H922 H 0.06431 0.79275 0.79323 0.0
H923 H 0.05986 0.84875 0.77942 0.0
H924 H 0.98494 0.85227 0.84468 0.0
H925 H 0.98871 0.79537 0.85724 0.0
H926 H 0.97829 0.88398 0.78235 0.0
H927 H 0.04716 0.88476 0.8778 0.0
H928 H 0.0898 0.86895 0.90988 0.0
H929 H 0.13646 0.90029 0.81301 0.0
H930 H 0.09406 0.9159 0.7801 0.0
H931 H 0.9806 0.05388 0.78724 0.0
H932 H 0.98263 0.99823 0.8059 0.0
H933 H 0.04365 0.98102 0.71925 0.0
H934 H 0.04142 0.03665 0.69984 0.0
H935 H 0.05615 0.95786 0.79633 0.0
H936 H 0.98481 0.9556 0.70134 0.0
H937 H 0.94139 0.97329 0.67291 0.0
H938 H 0.89841 0.94674 0.77508 0.0
H939 H 0.94169 0.92937 0.80437 0.0
C940 C 0.04701 0.80543 0.80508 0.0
C941 C 0.02692 0.78964 0.82654 0.0
C942 C 0.04455 0.8376 0.79727 0.0
C943 C 0.02233 0.85503 0.81156 0.0
C944 C 1.00232 0.83939 0.8334 0.0
C945 C 1.00454 0.80693 0.84072 0.0
C946 C 0.01967 0.88922 0.80227 0.0
C947 C 0.99519 0.90019 0.78609 0.0
C948 C 0.0418 0.91047 0.80658 0.0
C949 C 0.06739 0.90128 0.82637 0.0
C950 C 0.0665 0.88809 0.86323 0.0
C951 C 0.09063 0.87919 0.88158 0.0
C952 C 0.11582 0.88356 0.86346 0.0
C953 C 0.11693 0.89691 0.82699 0.0
C954 C 0.09285 0.90582 0.8085 0.0
C955 C 0.99437 0.03825 0.772 0.0
C956 C 0.0109 0.04965 0.74211 0.0
C957 C 0.99545 0.00647 0.78268 0.0
C958 C 0.01328 0.98562 0.76395 0.0
C959 C 0.02979 0.99685 0.73405 0.0
C960 C 0.02841 0.02855 0.72293 0.0
C961 C 0.01504 0.95219 0.77611 0.0
C962 C 0.0393 0.94151 0.79289 0.0
C963 C 0.9926 0.93141 0.77295 0.0
C964 C 0.96653 0.94149 0.75519 0.0
C965 C 0.96614 0.95379 0.71787 0.0
C966 C 0.94155 0.96371 0.70158 0.0
C967 C 0.91717 0.96121 0.72222 0.0
C968 C 0.91732 0.94869 0.75915 0.0
C969 C 0.94187 0.93879 0.7756 0.0
H970 H 0.89814 0.96891 0.70956 0.0
H971 H 0.13448 0.87664 0.87771 0.0
H972 H 0.60631 0.78501 0.70688 0.0
H973 H 0.60915 0.84042 0.72654 0.0
H974 H 0.52561 0.85508 0.69213 0.0
H975 H 0.52243 0.79957 0.67302 0.0
H976 H 0.56254 0.9047 0.67046 0.0
H977 H 0.53409 0.84544 0.78091 0.0
H978 H 0.53673 0.80307 0.82898 0.0
H979 H 0.61611 0.83537 0.86282 0.0
H980 H 0.61386 0.8781 0.8149 0.0
H981 H 0.52546 0.04321 0.76902 0.0
H982 H 0.52737 0.98862 0.7468 0.0
H983 H 0.60807 0.97842 0.79427 0.0
H984 H 0.60629 0.03314 0.81692 0.0
H985 H 0.57561 0.92661 0.80845 0.0
H986 H 0.60152 0.98962 0.70077 0.0
H987 H 0.59691 0.03277 0.65391 0.0
H988 H 0.52143 0.99326 0.61444 0.0
H989 H 0.52537 0.9501 0.66149 0.0
C990 C 0.5887 0.80017 0.70286 0.0
C991 C 0.5641 0.78797 0.6885 0.0
C992 C 0.59031 0.83173 0.71433 0.0
C993 C 0.5675 0.85166 0.71111 0.0
C994 C 0.5434 0.83999 0.69491 0.0
C995 C 0.54162 0.80832 0.68403 0.0
C996 C 0.56835 0.88429 0.72614 0.0
C997 C 0.56519 0.90955 0.70064 0.0
C998 C 0.57234 0.89048 0.76542 0.0
C999 C 0.57395 0.86469 0.794 0.0
C1000 C 0.55221 0.84333 0.79837 0.0
C1001 C 0.5536 0.81933 0.82571 0.0
C1002 C 0.57662 0.81646 0.84893 0.0
C1003 C 0.59828 0.83765 0.84486 0.0
C1004 C 0.59693 0.86182 0.81767 0.0
C1005 C 0.54358 0.02935 0.77497 0.0
C1006 C 0.56583 0.0426 0.79444 0.0
C1007 C 0.54467 0.99819 0.76208 0.0
C1008 C 0.56804 0.97966 0.76833 0.0
C1009 C 0.58992 0.99241 0.78895 0.0
C1010 C 0.58889 0.02368 0.80178 0.0
C1011 C 0.56964 0.94715 0.75279 0.0
C1012 C 0.57326 0.92186 0.7782 0.0
C1013 C 0.566 0.94094 0.7134 0.0
C1014 C 0.56363 0.96677 0.6849 0.0
C1015 C 0.58383 0.99026 0.68231 0.0
C1016 C 0.58135 0.0147 0.65568 0.0
C1017 C 0.55886 0.0158 0.63127 0.0
C1018 C 0.53883 0.9924 0.63339 0.0
C1019 C 0.54119 0.96792 0.66001 0.0
H1020 H 0.55698 0.03474 0.61067 0.0
H1021 H 0.57765 0.7979 0.87015 0.0
H1022 H 0.0709 0.20015 0.17882 0.0
H1023 H 0.06739 0.14449 0.19685 0.0
H1024 H 0.98319 0.15854 0.22929 0.0
H1025 H 0.98643 0.21433 0.21094 0.0
H1026 H 0.01553 0.12643 0.28538 0.0
H1027 H 0.99443 0.12011 0.15186 0.0
H1028 H 1.00185 0.13027 0.08326 0.0
H1029 H 0.07826 0.08043 0.08764 0.0
H1030 H 0.07151 0.07041 0.15644 0.0
H1031 H 0.98721 0.96286 0.31236 0.0
H1032 H 0.98583 0.01812 0.29213 0.0
H1033 H 0.06599 0.00829 0.24185 0.0
H1034 H 0.06728 0.95288 0.26119 0.0
H1035 H 0.03295 0.03867 0.19459 0.0
H1036 H 0.05582 0.04605 0.32725 0.0
H1037 H 0.04958 0.03507 0.39589 0.0
H1038 H 0.9721 0.08274 0.39426 0.0
H1039 H 0.97765 0.09354 0.32538 0.0
C1040 C 0.05153 0.19133 0.18936 0.0
C1041 C 0.02893 0.2116 0.19338 0.0
C1042 C 0.04957 0.15954 0.19968 0.0
C1043 C 0.02505 0.14745 0.21448 0.0
C1044 C 1.00231 0.16748 0.21803 0.0
C1045 C 1.00414 0.19924 0.20723 0.0
C1046 C 0.02348 0.11398 0.22674 0.0
C1047 C 0.01888 0.10716 0.2655 0.0
C1048 C 0.02856 0.089 0.20088 0.0
C1049 C 0.03257 0.09475 0.15941 0.0
C1050 C 0.01293 0.11154 0.13828 0.0
C1051 C 0.01699 0.11723 0.09934 0.0
C1052 C 0.04054 0.10607 0.08113 0.0
C1053 C 0.06004 0.0891 0.1018 0.0
C1054 C 0.05609 0.08338 0.14076 0.0
C1055 C 1.00458 0.97248 0.29708 0.0
C1056 C 0.02735 0.95347 0.28834 0.0
C1057 C 1.0038 0.00411 0.28565 0.0
C1058 C 0.0259 0.01744 0.26571 0.0
C1059 C 0.04868 0.99851 0.25711 0.0
C1060 C 0.04942 0.96685 0.26833 0.0
C1061 C 0.02524 0.05099 0.25336 0.0
C1062 C 0.02945 0.05786 0.21455 0.0
C1063 C 0.02007 0.07599 0.27929 0.0
C1064 C 0.01703 0.07034 0.321 0.0
C1065 C 0.03737 0.05405 0.34145 0.0
C1066 C 0.03396 0.04785 0.38041 0.0
C1067 C 1.01042 0.05811 0.3994 0.0
C1068 C 0.99031 0.07475 0.37949 0.0
C1069 C 0.99358 0.08094 0.34048 0.0
H1070 H 1.00779 0.0532 0.42955 0.0
H1071 H 0.04365 0.1105 0.05098 0.0
H1072 H 0.05691 0.26778 0.10724 0.0
H1073 H 0.05346 0.2324 0.05226 0.0
H1074 H 0.98234 0.28309 0.01368 0.0
H1075 H 0.98634 0.31919 0.06802 0.0
H1076 H 0.99602 0.20138 1.00107 0.0
H1077 H 0.01635 0.31569 0.97082 0.0
H1078 H 0.04089 0.36551 0.9832 0.0
H1079 H 0.11712 0.3152 0.98549 0.0
H1080 H 0.0929 0.26501 0.97386 0.0
H1081 H 0.99789 0.17982 0.79816 0.0
H1082 H 0.99075 0.19616 0.8644 0.0
H1083 H 0.07768 0.20868 0.87759 0.0
H1084 H 0.08471 0.19399 0.81087 0.0
H1085 H 0.055 0.25589 0.90626 0.0
H1086 H 0.03776 0.14516 0.92047 0.0
H1087 H 0.01596 0.09407 0.90625 0.0
H1088 H 0.9375 0.13285 0.93542 0.0
H1089 H 0.95879 0.1843 0.94936 0.0
C1090 C 0.03944 0.27003 0.08852 0.0
C1091 C 0.02157 0.29586 0.09226 0.0
C1092 C 0.0377 0.25002 0.05678 0.0
C1093 C 0.01776 0.25529 0.02878 0.0
C1094 C 0.99778 0.27853 0.03509 0.0
C1095 C 0.99988 0.29895 0.06638 0.0
C1096 C 0.02142 0.24172 0.99002 0.0
C1097 C 1.00867 0.21329 0.98007 0.0
C1098 C 0.0385 0.25685 0.96309 0.0
C1099 C 0.05283 0.28667 0.97197 0.0
C1100 C 0.03829 0.31523 0.97458 0.0
C1101 C 0.05213 0.34352 0.98129 0.0
C1102 C 0.08054 0.3435 0.98493 0.0
C1103 C 0.09512 0.31515 0.98257 0.0
C1104 C 0.08135 0.28679 0.97602 0.0
C1105 C 0.01551 0.18583 0.81529 0.0
C1106 C 0.04188 0.18573 0.79913 0.0
C1107 C 0.01141 0.19495 0.85337 0.0
C1108 C 0.03367 0.20336 0.87652 0.0
C1109 C 0.06008 0.20247 0.86054 0.0
C1110 C 0.06411 0.19402 0.8223 0.0
C1111 C 0.0295 0.21519 0.9164 0.0
C1112 C 0.04229 0.24354 0.92685 0.0
C1113 C 0.01266 0.19964 0.94369 0.0
C1114 C 0.99985 0.16866 0.93563 0.0
C1115 C 0.01583 0.14285 0.92362 0.0
C1116 C 1.00357 0.11381 0.91565 0.0
C1117 C 0.97535 0.11024 0.91984 0.0
C1118 C 0.95935 0.13566 0.93215 0.0
C1119 C 0.97151 0.16475 0.94014 0.0
H1120 H 0.9659 0.08775 0.91363 0.0
H1121 H 0.09129 0.36548 0.98929 0.0
H1122 H 0.54377 0.73089 0.60764 0.0
H1123 H 0.54974 0.76436 0.55138 0.0
H1124 H 0.61173 0.70085 0.50892 0.0
H1125 H 0.60574 0.66743 0.56527 0.0
H1126 H 0.58783 0.79501 0.50314 0.0
H1127 H 0.58953 0.67672 0.42057 0.0
H1128 H 0.57712 0.6208 0.43054 0.0
H1129 H 0.51743 0.64822 0.51437 0.0
H1130 H 0.52912 0.70423 0.50442 0.0
H1131 H 0.59674 0.82684 0.3026 0.0
H1132 H 0.60421 0.80787 0.36771 0.0
H1133 H 0.52393 0.76603 0.36839 0.0
H1134 H 0.51661 0.78409 0.30311 0.0
H1135 H 0.55782 0.72622 0.39657 0.0
H1136 H 0.5396 0.8359 0.41775 0.0
H1137 H 0.54581 0.89325 0.40904 0.0
H1138 H 0.62808 0.88593 0.45019 0.0
H1139 H 0.62249 0.82844 0.45866 0.0
C1140 C 0.5601 0.72538 0.58779 0.0
C1141 C 0.5746 0.69686 0.59105 0.0
C1142 C 0.56322 0.7443 0.55524 0.0
C1143 C 0.58073 0.73468 0.52556 0.0
C1144 C 0.5979 0.70852 0.53132 0.0
C1145 C 0.59472 0.68962 0.56375 0.0
C1146 C 0.57706 0.74775 0.48651 0.0
C1147 C 0.58154 0.77999 0.4797 0.0
C1148 C 0.56792 0.72832 0.45621 0.0
C1149 C 0.56053 0.69465 0.46214 0.0
C1150 C 0.57374 0.6708 0.44108 0.0
C1151 C 0.56681 0.63909 0.44672 0.0
C1152 C 0.54662 0.63095 0.47325 0.0
C1153 C 0.53318 0.65452 0.49401 0.0
C1154 C 0.53997 0.68625 0.4884 0.0
C1155 C 0.58061 0.81371 0.31665 0.0
C1156 C 0.55605 0.80702 0.29751 0.0
C1157 C 0.58487 0.803 0.35402 0.0
C1158 C 0.56454 0.78575 0.37326 0.0
C1159 C 0.53997 0.77923 0.35424 0.0
C1160 C 0.53579 0.78967 0.31685 0.0
C1161 C 0.569 0.77356 0.4127 0.0
C1162 C 0.56452 0.74133 0.41971 0.0
C1163 C 0.57734 0.79324 0.44328 0.0
C1164 C 0.58071 0.82782 0.43846 0.0
C1165 C 0.55908 0.84649 0.42468 0.0
C1166 C 0.56248 0.87902 0.41982 0.0
C1167 C 0.58735 0.89321 0.42895 0.0
C1168 C 0.60885 0.8749 0.44307 0.0
C1169 C 0.60557 0.84234 0.44794 0.0
H1170 H 0.58994 0.9184 0.42516 0.0
H1171 H 0.54132 0.60641 0.47762 0.0
H1172 H 0.06919 0.79045 0.21584 0.0
H1173 H 0.06235 0.77327 0.15023 0.0
H1174 H 0.98138 0.81371 0.15124 0.0
H1175 H 0.98832 0.83172 0.21693 0.0
H1176 H 0.02856 0.73262 0.12338 0.0
H1177 H 0.96329 0.83363 0.05873 0.0
H1178 H 0.95712 0.89119 0.06591 0.0
H1179 H 0.03901 0.89959 0.10812 0.0
H1180 H 0.04579 0.84219 0.1007 0.0
H1181 H 0.98358 0.67085 0.95575 0.0
H1182 H 0.97633 0.70502 1.01106 0.0
H1183 H 0.03682 0.76972 0.96758 0.0
H1184 H 0.04373 0.73568 0.91188 0.0
H1185 H 0.99859 0.80004 0.01528 0.0
H1186 H 0.05874 0.71022 0.01694 0.0
H1187 H 0.07195 0.65443 1.00888 0.0
H1188 H 0.01142 0.62667 0.09123 0.0
H1189 H 0.9976 0.68241 0.09948 0.0
C1190 C 0.04995 0.79593 0.20215 0.0
C1191 C 0.02928 0.81242 0.22183 0.0
C1192 C 0.04605 0.78602 0.16454 0.0
C1193 C 0.02138 0.79222 0.14559 0.0
C1194 C 1.00075 0.80899 0.16496 0.0
C1195 C 1.00471 0.81916 0.20263 0.0
C1196 C 0.01704 0.77969 0.10631 0.0
C1197 C 0.02185 0.74744 0.09991 0.0
C1198 C 1.00867 0.79898 0.07534 0.0
C1199 C 1.00491 0.83356 0.07958 0.0
C1200 C 0.98 0.84779 0.06944 0.0
C1201 C 0.97639 0.88038 0.07356 0.0
C1202 C 0.99762 0.89902 0.0876 0.0
C1203 C 0.02254 0.88511 0.09741 0.0
C1204 C 0.02626 0.85254 0.0933 0.0
C1205 C 0.99398 0.6934 0.95678 0.0
C1206 C 0.01404 0.7008 0.9295 0.0
C1207 C 0.99008 0.71275 0.98863 0.0
C1208 C 1.00658 0.73946 0.99395 0.0
C1209 C 0.02392 0.74917 0.96413 0.0
C1210 C 0.02764 0.72988 0.932 0.0
C1211 C 1.00979 0.75305 0.03282 0.0
C1212 C 1.00488 0.78532 0.03905 0.0
C1213 C 0.01887 0.73403 0.06361 0.0
C1214 C 0.02687 0.70044 0.05842 0.0
C1215 C 0.04803 0.6922 0.03302 0.0
C1216 C 0.05566 0.66059 0.02846 0.0
C1217 C 0.04243 0.63698 0.04933 0.0
C1218 C 0.02158 0.64497 0.07495 0.0
C1219 C 0.01384 0.67658 0.0796 0.0
H1220 H 0.04841 0.61252 0.04578 0.0
H1221 H 0.99478 0.92424 0.09079 0.0
H1222 H 0.5498 0.26468 0.40712 0.0
H1223 H 0.55523 0.22616 0.45874 0.0
H1224 H 0.60613 0.29208 0.51955 0.0
H1225 H 0.60173 0.32974 0.46727 0.0
H1226 H 0.6194 0.23465 0.54084 0.0
H1227 H 0.53571 0.29442 0.52618 0.0
H1228 H 0.49411 0.31195 0.49266 0.0
H1229 H 0.46569 0.21616 0.48786 0.0
H1230 H 0.50741 0.19801 0.52075 0.0
H1231 H 0.53131 0.22322 0.72537 0.0
H1232 H 0.53748 0.23971 0.65916 0.0
H1233 H 0.59073 0.15997 0.6393 0.0
H1234 H 0.58543 0.14399 0.70608 0.0
H1235 H 0.5264 0.21693 0.59332 0.0
H1236 H 0.6386 0.17867 0.57223 0.0
H1237 H 0.67985 0.16894 0.61086 0.0
H1238 H 0.6511 0.23456 0.69546 0.0
H1239 H 0.60988 0.24495 0.65711 0.0
C1240 C 0.56371 0.26999 0.43019 0.0
C1241 C 0.57563 0.30002 0.433 0.0
C1242 C 0.56635 0.24822 0.46016 0.0
C1243 C 0.58044 0.25656 0.49365 0.0
C1244 C 0.59503 0.28505 0.49425 0.0
C1245 C 0.59259 0.3066 0.46423 0.0
C1246 C 0.57627 0.23893 0.53011 0.0
C1247 C 0.59907 0.23028 0.55205 0.0
C1248 C 0.54976 0.23398 0.54542 0.0
C1249 C 0.52476 0.24483 0.52553 0.0
C1250 C 0.52067 0.27709 0.51772 0.0
C1251 C 0.49708 0.28713 0.49885 0.0
C1252 C 0.47728 0.26517 0.48815 0.0
C1253 C 0.48107 0.23312 0.49614 0.0
C1254 C 0.50468 0.22294 0.51485 0.0
C1255 C 0.54421 0.20903 0.7069 0.0
C1256 C 0.558 0.18236 0.72116 0.0
C1257 C 0.5477 0.21848 0.66892 0.0
C1258 C 0.56487 0.20137 0.64413 0.0
C1259 C 0.57784 0.17401 0.65793 0.0
C1260 C 0.57469 0.1648 0.69612 0.0
C1261 C 0.56953 0.21284 0.60431 0.0
C1262 C 0.54677 0.22044 0.58179 0.0
C1263 C 0.59607 0.21783 0.5891 0.0
C1264 C 0.62103 0.21226 0.61202 0.0
C1265 C 0.64115 0.19109 0.59901 0.0
C1266 C 0.66451 0.18545 0.62087 0.0
C1267 C 0.66804 0.20102 0.65567 0.0
C1268 C 0.64829 0.22241 0.66858 0.0
C1269 C 0.62492 0.22817 0.64681 0.0
H1270 H 0.6861 0.19656 0.67259 0.0
H1271 H 0.45892 0.273 0.47386 0.0
H1272 H 0.54203 0.76502 0.11008 0.0
H1273 H 0.53483 0.7288 0.05698 0.0
H1274 H 0.47772 0.79445 1.00716 0.0
H1275 H 0.48421 0.83016 0.06118 0.0
H1276 H 0.46816 0.73182 0.98296 0.0
H1277 H 0.54067 0.80796 0.99055 0.0
H1278 H 0.5793 0.83421 0.02225 0.0
H1279 H 0.62388 0.74678 0.02341 0.0
H1280 H 0.58519 0.71982 0.99234 0.0
H1281 H 0.55294 0.73241 0.79251 0.0
H1282 H 0.54472 0.75027 0.8577 0.0
H1283 H 0.50251 0.66328 0.88281 0.0
H1284 H 0.50953 0.64593 0.81682 0.0
H1285 H 0.55988 0.73328 0.92202 0.0
H1286 H 0.45656 0.67309 0.95385 0.0
H1287 H 0.41679 0.65303 0.91827 0.0
H1288 H 0.43117 0.72111 0.82957 0.0
H1289 H 0.47081 0.74183 0.86485 0.0
C1290 C 0.52621 0.77048 0.08961 0.0
C1291 C 0.51317 0.80001 0.09024 0.0
C1292 C 0.52248 0.75002 0.05874 0.0
C1293 C 0.50612 0.7592 0.02774 0.0
C1294 C 0.49038 0.78683 0.03076 0.0
C1295 C 0.49402 0.8072 0.06174 0.0
C1296 C 0.51039 0.7446 0.9896 0.0
C1297 C 0.48821 0.73175 0.9697 0.0
C1298 C 0.53637 0.74561 0.97171 0.0
C1299 C 0.55994 0.76181 0.98954 0.0
C1300 C 0.55864 0.79429 0.9978 0.0
C1301 C 0.58053 0.80929 0.01566 0.0
C1302 C 0.60401 0.79218 0.02492 0.0
C1303 C 0.60565 0.76 0.01627 0.0
C1304 C 0.58374 0.74483 0.99855 0.0
C1305 C 0.54185 0.71708 0.81188 0.0
C1306 C 0.53177 0.68781 0.79945 0.0
C1307 C 0.53716 0.72733 0.84923 0.0
C1308 C 0.52259 0.70845 0.87526 0.0
C1309 C 0.51314 0.67876 0.86316 0.0
C1310 C 0.51732 0.66875 0.82546 0.0
C1311 C 0.51765 0.72007 0.91494 0.0
C1312 C 0.5398 0.73267 0.93521 0.0
C1313 C 0.49141 0.71989 0.93237 0.0
C1314 C 0.46683 0.70873 0.9118 0.0
C1315 C 0.4511 0.68392 0.9269 0.0
C1316 C 0.42863 0.6724 0.90675 0.0
C1317 C 0.42158 0.68565 0.87157 0.0
C1318 C 0.43674 0.71077 0.85672 0.0
C1319 C 0.45922 0.7224 0.87678 0.0
H1320 H 0.40439 0.67641 0.85582 0.0
H1321 H 0.62096 0.80388 0.03866 0.0
H1322 H 0.04646 0.2371 0.61023 0.0
H1323 H 0.05026 0.27423 0.55686 0.0
H1324 H 0.11775 0.22051 0.51132 0.0
H1325 H 0.11353 0.18297 0.56422 0.0
H1326 H 0.11504 0.29501 0.49645 0.0
H1327 H 0.06655 0.19229 0.48121 0.0
H1328 H 0.03249 0.15296 0.50203 0.0
H1329 H 0.97055 0.22494 0.50497 0.0
H1330 H 1.00436 0.26468 0.48421 0.0
H1331 H 0.10684 0.31066 0.29448 0.0
H1332 H 0.11314 0.29552 0.3613 0.0
H1333 H 0.02668 0.30808 0.3815 0.0
H1334 H 0.02022 0.32072 0.31408 0.0
H1335 H 0.03888 0.25942 0.41401 0.0
H1336 H 0.08185 0.36008 0.41692 0.0
H1337 H 0.1133 0.40244 0.39693 0.0
H1338 H 0.18207 0.34265 0.42104 0.0
H1339 H 0.15102 0.29976 0.44071 0.0
C1340 C 0.06329 0.23445 0.59029 0.0
C1341 C 0.07999 0.20747 0.59158 0.0
C1342 C 0.06524 0.25549 0.55952 0.0
C1343 C 0.08417 0.24997 0.53001 0.0
C1344 C 0.10317 0.22535 0.53394 0.0
C1345 C 0.10089 0.20402 0.56433 0.0
C1346 C 0.0801 0.26464 0.49194 0.0
C1347 C 0.09848 0.28734 0.4782 0.0
C1348 C 0.0581 0.25519 0.46865 0.0
C1349 C 0.03796 0.23141 0.48155 0.0
C1350 C 0.04572 0.19973 0.48663 0.0
C1351 C 0.02645 0.17737 0.49831 0.0
C1352 C 0.99937 0.18646 0.5049 0.0
C1353 C 0.99153 0.21794 0.49987 0.0
C1354 C 1.01071 0.24036 0.48809 0.0
C1355 C 0.08925 0.31028 0.31334 0.0
C1356 C 0.06303 0.31668 0.2991 0.0
C1357 C 0.09288 0.30196 0.35174 0.0
C1358 C 0.07049 0.30108 0.3771 0.0
C1359 C 0.04437 0.30835 0.36282 0.0
C1360 C 0.04064 0.31563 0.32423 0.0
C1361 C 0.07377 0.29039 0.41762 0.0
C1362 C 0.05528 0.26794 0.43197 0.0
C1363 C 0.09531 0.30085 0.44162 0.0
C1364 C 0.11408 0.32661 0.42998 0.0
C1365 C 0.10368 0.35589 0.41772 0.0
C1366 C 0.12144 0.38001 0.40649 0.0
C1367 C 0.14967 0.37521 0.40763 0.0
C1368 C 0.1602 0.34631 0.42014 0.0
C1369 C 0.14253 0.32211 0.43138 0.0
H1370 H 0.16338 0.39391 0.39891 0.0
H1371 H 0.9844 0.16914 0.51369 0.0
H1372 H 0.50319 0.16892 0.96954 0.0
H1373 H 0.49727 0.20735 0.02062 0.0
H1374 H 0.5481 0.27338 0.9591 0.0
H1375 H 0.55518 0.23395 0.90896 0.0
H1376 H 0.56793 0.26583 0.02519 0.0
H1377 H 0.47906 0.29012 0.98369 0.0
H1378 H 0.43239 0.28078 0.96016 0.0
H1379 H 0.41232 0.23169 0.06382 0.0
H1380 H 0.459 0.24027 0.08777 0.0
H1381 H 0.51023 0.35211 0.20865 0.0
H1382 H 0.50542 0.33781 0.14125 0.0
H1383 H 0.5624 0.26104 0.15694 0.0
H1384 H 0.56795 0.27574 0.2237 0.0
H1385 H 0.4869 0.28836 0.10619 0.0
H1386 H 0.59896 0.24646 0.07996 0.0
H1387 H 0.64534 0.26047 0.10126 0.0
H1388 H 0.61835 0.35469 0.12681 0.0
H1389 H 0.5719 0.34141 0.10517 0.0
C1390 C 0.51196 0.19223 0.96607 0.0
C1391 C 0.52899 0.19883 0.93476 0.0
C1392 C 0.50861 0.21428 0.99537 0.0
C1393 C 0.52213 0.2435 0.99387 0.0
C1394 C 0.53733 0.25111 0.96094 0.0
C1395 C 0.54086 0.22885 0.93172 0.0
C1396 C 0.52401 0.26329 0.02901 0.0
C1397 C 0.55012 0.27112 0.04258 0.0
C1398 C 0.50085 0.2709 0.0516 0.0
C1399 C 0.47263 0.26576 0.03748 0.0
C1400 C 0.46476 0.27715 1.00139 0.0
C1401 C 0.43829 0.27201 0.98798 0.0
C1402 C 0.41941 0.25563 1.01046 0.0
C1403 C 0.42696 0.2444 0.04644 0.0
C1404 C 0.45342 0.24945 0.05998 0.0
C1405 C 0.52189 0.33232 0.19765 0.0
C1406 C 0.53968 0.31526 0.22156 0.0
C1407 C 0.51905 0.32411 0.1591 0.0
C1408 C 0.53386 0.29864 0.1437 0.0
C1409 C 0.55127 0.28131 0.16774 0.0
C1410 C 0.55436 0.28969 0.20606 0.0
C1411 C 0.53083 0.28952 0.10281 0.0
C1412 C 0.50459 0.28366 0.08833 0.0
C1413 C 0.55381 0.28447 0.07888 0.0
C1414 C 0.58188 0.29285 0.09113 0.0
C1415 C 0.60295 0.27023 0.08986 0.0
C1416 C 0.62925 0.27803 0.10206 0.0
C1417 C 0.63476 0.30842 0.11546 0.0
C1418 C 0.61402 0.33113 0.11653 0.0
C1419 C 0.58771 0.32347 0.10433 0.0
H1420 H 0.6551 0.31438 0.12499 0.0
H1421 H 0.39893 0.25166 1.00002 0.0
H1422 H 0.04131 0.76539 0.41081 0.0
H1423 H 0.0478 0.72926 0.46452 0.0
H1424 H 0.10945 0.79097 0.51014 0.0
H1425 H 0.1031 0.82693 0.45629 0.0
H1426 H 0.08957 0.69766 0.51413 0.0
H1427 H 0.08279 0.81762 0.58821 0.0
H1428 H 0.06537 0.8714 0.57498 0.0
H1429 H 1.0031 0.83267 0.50288 0.0
H1430 H 0.02029 0.77899 0.51539 0.0
H1431 H 0.09693 0.67024 0.71639 0.0
H1432 H 0.1035 0.68688 0.6501 0.0
H1433 H 0.02065 0.72174 0.64715 0.0
H1434 H 0.0142 0.70606 0.71357 0.0
H1435 H 0.05161 0.76378 0.61879 0.0
H1436 H 0.04227 0.65297 0.59921 0.0
H1437 H 0.05202 0.59625 0.6078 0.0
H1438 H 0.13395 0.61014 0.56706 0.0
H1439 H 0.12482 0.66706 0.55876 0.0
C1440 C 0.05775 0.76995 0.43062 0.0
C1441 C 0.0721 0.79862 0.42902 0.0
C1442 C 0.06121 0.74944 0.46167 0.0
C1443 C 0.07888 0.75763 0.49154 0.0
C1444 C 0.09574 0.78419 0.48737 0.0
C1445 C 0.09225 0.80465 0.45644 0.0
C1446 C 0.07483 0.7437 0.53008 0.0
C1447 C 0.08154 0.71203 0.53724 0.0
C1448 C 0.06332 0.76213 0.55972 0.0
C1449 C 0.0529 0.79444 0.55256 0.0
C1450 C 0.06538 0.8207 0.56956 0.0
C1451 C 0.05561 0.85116 0.56206 0.0
C1452 C 0.03321 0.8555 0.53796 0.0
C1453 C 0.02057 0.82941 0.52127 0.0
C1454 C 0.03035 0.79899 0.52847 0.0
C1455 C 0.08002 0.68125 0.70155 0.0
C1456 C 0.05506 0.68695 0.72048 0.0
C1457 C 0.08378 0.6906 0.66349 0.0
C1458 C 0.06254 0.70544 0.64335 0.0
C1459 C 0.03743 0.71048 0.662 0.0
C1460 C 0.03375 0.70145 0.70008 0.0
C1461 C 0.06679 0.71752 0.60374 0.0
C1462 C 0.06001 0.74915 0.59618 0.0
C1463 C 0.07733 0.69854 0.57364 0.0
C1464 C 0.08295 0.66436 0.5788 0.0
C1465 C 0.06245 0.64399 0.59243 0.0
C1466 C 0.06785 0.61179 0.59718 0.0
C1467 C 0.09362 0.59962 0.5881 0.0
C1468 C 0.11402 0.61961 0.57416 0.0
C1469 C 0.10874 0.65185 0.56941 0.0
H1470 H 0.09775 0.57468 0.59179 0.0
H1471 H 0.02552 0.87902 0.53238 0.0
H1472 H 0.0506 0.42475 0.14021 0.0
H1473 H 0.06384 0.47257 0.10551 0.0
H1474 H 0.1076 0.4156 0.0234 0.0
H1475 H 0.0959 0.36807 0.05983 0.0
H1476 H 0.12902 0.47383 0.02437 0.0
H1477 H 0.03937 0.42768 0.01375 0.0
H1478 H 0.99587 0.40779 0.04005 0.0
H1479 H 0.97758 0.49979 0.08515 0.0
H1480 H 0.02117 0.5201 0.05949 0.0
H1481 H 0.04426 0.57683 0.87758 0.0
H1482 H 0.05666 0.5277 0.91046 0.0
H1483 H 0.10759 0.58036 0.98778 0.0
H1484 H 0.0953 0.62936 0.95468 0.0
H1485 H 0.04092 0.52216 0.98555 0.0
H1486 H 0.15672 0.52738 0.02294 0.0
H1487 H 0.19985 0.5434 0.99192 0.0
H1488 H 0.16462 0.52725 0.88158 0.0
H1489 H 0.12149 0.51059 0.91187 0.0
C1490 C 0.06457 0.42269 0.11631 0.0
C1491 C 0.07241 0.39289 0.10268 0.0
C1492 C 0.07176 0.44997 0.09602 0.0
C1493 C 0.08599 0.44757 0.0611 0.0
C1494 C 0.09641 0.41807 0.04997 0.0
C1495 C 0.08962 0.39092 0.07064 0.0
C1496 C 0.0854 0.47397 0.03299 0.0
C1497 C 0.10982 0.48463 0.01611 0.0
C1498 C 0.06025 0.48718 0.02088 0.0
C1499 C 0.0336 0.47532 0.03504 0.0
C1500 C 0.02607 0.44364 0.02933 0.0
C1501 C 1.00142 0.43228 0.04415 0.0
C1502 C 0.98399 0.4525 0.06432 0.0
C1503 C 0.99112 0.48415 0.06956 0.0
C1504 C 0.01578 0.4956 0.05488 0.0
C1505 C 0.05922 0.57761 0.90029 0.0
C1506 C 0.06908 0.60665 0.91351 0.0
C1507 C 0.06601 0.54964 0.91937 0.0
C1508 C 0.08289 0.55041 0.95174 0.0
C1509 C 0.09471 0.57915 0.96274 0.0
C1510 C 0.08773 0.6071 0.94384 0.0
C1511 C 0.08456 0.52261 0.97749 0.0
C1512 C 0.06022 0.51159 0.99389 0.0
C1513 C 0.10967 0.50864 0.9882 0.0
C1514 C 0.13575 0.51808 0.96976 0.0
C1515 C 0.15821 0.52711 0.99208 0.0
C1516 C 0.18267 0.53631 0.9746 0.0
C1517 C 0.18494 0.53645 0.93481 0.0
C1518 C 0.1628 0.52727 0.91239 0.0
C1519 C 0.13833 0.51799 0.92971 0.0
H1520 H 0.20388 0.54362 0.92134 0.0
H1521 H 0.96494 0.44365 0.07585 0.0
H1522 H 0.49002 0.62907 0.57549 0.0
H1523 H 0.47467 0.58276 0.5399 0.0
H1524 H 0.53301 0.525 0.60036 0.0
H1525 H 0.54794 0.57133 0.63627 0.0
H1526 H 0.50946 0.55789 0.49273 0.0
H1527 H 0.51766 0.44554 0.58862 0.0
H1528 H 0.50535 0.42831 0.65358 0.0
H1529 H 0.4441 0.50087 0.66009 0.0
H1530 H 0.45543 0.51796 0.59465 0.0
H1531 H 0.56372 0.42379 0.40155 0.0
H1532 H 0.54957 0.47061 0.43684 0.0
H1533 H 0.47256 0.4261 0.46369 0.0
H1534 H 0.4877 0.37833 0.42986 0.0
H1535 H 0.49319 0.44564 0.52547 0.0
H1536 H 0.47914 0.5003 0.40543 0.0
H1537 H 0.49064 0.51954 0.34102 0.0
H1538 H 0.56308 0.56364 0.38428 0.0
H1539 H 0.55168 0.54525 0.44919 0.0
C1540 C 0.4984 0.60611 0.58261 0.0
C1541 C 0.5197 0.60347 0.60906 0.0
C1542 C 0.48982 0.57971 0.56206 0.0
C1543 C 0.50272 0.55034 0.56727 0.0
C1544 C 0.52238 0.5472 0.59621 0.0
C1545 C 0.53082 0.57364 0.61696 0.0
C1546 C 0.49973 0.52522 0.53792 0.0
C1547 C 0.50549 0.53339 0.49989 0.0
C1548 C 0.49456 0.49325 0.54713 0.0
C1549 C 0.48755 0.48318 0.58665 0.0
C1550 C 0.50144 0.45774 0.60376 0.0
C1551 C 0.49463 0.44799 0.64072 0.0
C1552 C 0.47399 0.46353 0.661 0.0
C1553 C 0.46012 0.48888 0.64436 0.0
C1554 C 0.46673 0.49861 0.6073 0.0
C1555 C 0.54328 0.42465 0.41352 0.0
C1556 C 0.52652 0.3979 0.41239 0.0
C1557 C 0.53512 0.45148 0.43377 0.0
C1558 C 0.50977 0.4523 0.45281 0.0
C1559 C 0.49217 0.42621 0.44926 0.0
C1560 C 0.50059 0.39909 0.42947 0.0
C1561 C 0.50355 0.47827 0.48037 0.0
C1562 C 0.4964 0.47025 0.51816 0.0
C1563 C 0.5076 0.51049 0.47115 0.0
C1564 C 0.51465 0.52115 0.43204 0.0
C1565 C 0.49761 0.51391 0.40113 0.0
C1566 C 0.50413 0.52472 0.36451 0.0
C1567 C 0.52782 0.54243 0.3584 0.0
C1568 C 0.54483 0.54979 0.38901 0.0
C1569 C 0.53825 0.53936 0.42574 0.0
H1570 H 0.53301 0.55061 0.33007 0.0
H1571 H 0.46864 0.45584 0.68953 0.0
H1572 H 0.5419 0.92491 0.13135 0.0
H1573 H 0.55725 0.96996 0.09326 0.0
H1574 H 0.61746 0.91071 0.03808 0.0
H1575 H 0.60099 0.86537 0.07494 0.0
H1576 H 0.59708 0.00524 0.07466 0.0
H1577 H 0.62071 0.92752 0.94331 0.0
H1578 H 0.61004 0.87493 0.91718 0.0
H1579 H 0.53499 0.87324 0.98099 0.0
H1580 H 0.54514 0.92598 1.00726 0.0
H1581 H 0.61431 0.11945 0.93411 0.0
H1582 H 0.62761 0.07026 0.96618 0.0
H1583 H 0.55347 0.02621 0.92667 0.0
H1584 H 0.54123 0.07467 0.89285 0.0
H1585 H 0.58948 0.9825 0.93611 0.0
H1586 H 0.55467 0.06767 0.01834 0.0
H1587 H 0.55591 0.12275 0.04146 0.0
H1588 H 0.63982 0.11096 0.07395 0.0
H1589 H 0.63907 0.05591 0.05061 0.0
C1590 C 0.55919 0.92192 0.11228 0.0
C1591 C 0.57038 0.89186 0.10608 0.0
C1592 C 0.56788 0.94762 0.09024 0.0
C1593 C 0.58796 0.9436 0.06177 0.0
C1594 C 0.60139 0.91429 0.05899 0.0
C1595 C 0.5923 0.88847 0.08047 0.0
C1596 C 0.59219 0.96873 0.03241 0.0
C1597 C 0.59591 1.00008 0.04439 0.0
C1598 C 0.59006 0.9624 0.99267 0.0
C1599 C 0.58387 0.9305 0.97758 0.0
C1600 C 0.60194 0.91591 0.95175 0.0
C1601 C 0.59595 0.8861 0.93685 0.0
C1602 C 0.57182 0.87076 0.94733 0.0
C1603 C 0.55366 0.88516 0.97285 0.0
C1604 C 0.55955 0.91498 0.98783 0.0
C1605 C 0.60168 0.09867 0.93078 0.0
C1606 C 0.57693 0.10051 0.91091 0.0
C1607 C 0.60901 0.07073 0.94956 0.0
C1608 C 0.59106 0.04482 0.95008 0.0
C1609 C 0.56763 0.04583 0.92701 0.0
C1610 C 0.56066 0.07348 0.90752 0.0
C1611 C 0.59422 0.01882 0.97848 0.0
C1612 C 0.59169 0.9874 0.96635 0.0
C1613 C 0.59642 0.02512 0.01808 0.0
C1614 C 0.59677 0.05778 0.03302 0.0
C1615 C 0.57333 0.07687 0.03056 0.0
C1616 C 0.57396 0.10807 0.04357 0.0
C1617 C 0.59792 0.12034 0.05921 0.0
C1618 C 0.62129 0.10143 0.06184 0.0
C1619 C 0.62076 0.07023 0.04879 0.0
H1620 H 0.59838 0.14449 0.06928 0.0
H1621 H 0.56722 0.84771 0.9357 0.0
H1622 H 1.00506 0.13438 0.5608 0.0
H1623 H 0.99232 0.08683 0.52561 0.0
H1624 H 0.03898 0.03022 0.60464 0.0
H1625 H 0.05257 0.07825 0.63877 0.0
H1626 H 0.05551 0.02 0.53426 0.0
H1627 H 0.96867 0.02227 0.59623 0.0
H1628 H 0.9258 0.04656 0.61902 0.0
H1629 H 0.9023 0.06614 0.50337 0.0
H1630 H 0.94526 0.04239 0.47988 0.0
H1631 H 0.99387 0.87275 0.45718 0.0
H1632 H 0.98389 0.92164 0.49182 0.0
H1633 H 0.03311 0.97365 0.41112 0.0
H1634 H 0.04417 0.92442 0.37778 0.0
H1635 H 0.96596 0.98442 0.48431 0.0
H1636 H 0.07892 0.01307 0.46062 0.0
H1637 H 0.12128 0.98567 0.44091 0.0
H1638 H 0.09139 0.89909 0.48935 0.0
H1639 H 0.04916 0.92619 0.50985 0.0
C1640 C 0.01177 0.11163 0.57125 0.0
C1641 C 0.02958 0.10983 0.60244 0.0
C1642 C 1.00444 0.08443 0.55126 0.0
C1643 C 0.01475 0.05485 0.56233 0.0
C1644 C 0.03081 0.05278 0.5955 0.0
C1645 C 0.03822 0.08012 0.61541 0.0
C1646 C 0.0119 0.02714 0.53651 0.0
C1647 C 0.03586 0.01225 0.5236 0.0
C1648 C 0.98633 0.01688 0.52236 0.0
C1649 C 0.96028 0.03073 0.53631 0.0
C1650 C 0.95444 0.03193 0.57566 0.0
C1651 C 0.93012 0.04558 0.5887 0.0
C1652 C 0.91136 0.05794 0.56266 0.0
C1653 C 0.91686 0.05657 0.52351 0.0
C1654 C 0.94118 0.04297 0.5103 0.0
C1655 C 1.00162 0.89484 0.44606 0.0
C1656 C 0.01962 0.89495 0.41479 0.0
C1657 C 0.9958 0.9228 0.46572 0.0
C1658 C 1.00811 0.95122 0.45444 0.0
C1659 C 0.02351 0.95192 0.42044 0.0
C1660 C 0.02952 0.92386 0.40101 0.0
C1661 C 1.00955 0.97787 0.48197 0.0
C1662 C 0.98549 0.99244 0.49507 0.0
C1663 C 0.03497 0.98756 0.49706 0.0
C1664 C 0.06087 0.97156 0.48647 0.0
C1665 C 0.08154 0.98827 0.46731 0.0
C1666 C 0.10549 0.97279 0.45596 0.0
C1667 C 0.10901 0.94065 0.46378 0.0
C1668 C 0.08866 0.92396 0.48324 0.0
C1669 C 0.06474 0.93937 0.49475 0.0
H1670 H 0.12751 0.92869 0.45482 0.0
H1671 H 0.89255 0.06853 0.57282 0.0
loop_
_geom_bond_atom_site_label_1
_geom_bond_atom_site_label_2
_geom_bond_distance
_geom_bond_site_symmetry_2
_ccdc_geom_bond_type
Zn0 N4 2.020 . S
Zn0 O8 2.019 . S
Zn0 N10 2.119 1_455 S
Zn0 O18 1.975 . S
C1 N2 1.334 . S
C1 N5 1.336 . S
N2 C1 1.334 . S
N2 C3 1.334 . S
C3 N2 1.334 . S
C3 N4 1.336 . S
N4 Zn0 2.020 . S
N4 C3 1.336 . S
N4 N5 1.354 . S
N5 C1 1.336 . S
N5 N4 1.354 . S
N5 Zn9 2.020 . S
C6 O7 1.244 . S
C6 O30 1.257 . S
O7 C6 1.244 . S
O8 Zn0 2.019 . S
O8 C28 1.257 . S
Zn9 N5 2.020 . S
Zn9 O16 1.975 . S
Zn9 N25 2.119 . S
Zn9 O30 2.019 . S
N10 Zn0 2.119 1_655 S
N10 C12 1.334 . S
N10 C13 1.328 . S
C11 C12 1.391 . S
C11 N14 1.329 . S
C11 H32 0.930 . S
C12 N10 1.334 . S
C12 C11 1.391 . S
C12 H19 0.930 . S
C13 N10 1.328 . S
C13 C15 1.392 . S
C13 H20 0.930 . S
N14 C11 1.329 . S
N14 C15 1.331 . S
C15 C13 1.392 . S
C15 N14 1.331 . S
O16 Zn9 1.975 . S
O16 C17 1.252 . S
C17 O16 1.252 . S
C17 O18 1.252 . S
O18 Zn0 1.975 . S
O18 C17 1.252 . S
H19 C12 0.930 . S
H20 C13 0.930 . S
C21 C22 1.392 . S
C21 N25 1.328 . S
C21 H27 0.930 . S
C22 C21 1.392 . S
C22 N26 1.331 . S
C23 C24 1.391 . S
C23 N26 1.329 . S
C23 H33 0.930 . S
C24 C23 1.391 . S
C24 N25 1.334 . S
C24 H31 0.930 . S
N25 Zn9 2.119 . S
N25 C21 1.328 . S
N25 C24 1.334 . S
N26 C22 1.331 . S
N26 C23 1.329 . S
H27 C21 0.930 . S
C28 O8 1.257 . S
C28 O29 1.244 . S
O29 C28 1.244 . S
O30 C6 1.257 . S
O30 Zn9 2.019 . S
H31 C24 0.930 . S
H32 C11 0.930 . S
H33 C23 0.930 . S
Zn34 N38 2.020 . S
Zn34 O42 2.019 . S
Zn34 N44 2.119 . S
Zn34 O52 1.975 . S
C35 N36 1.334 . S
C35 N39 1.336 . S
N36 C35 1.334 . S
N36 C37 1.334 . S
C37 N36 1.334 . S
C37 N38 1.336 . S
N38 Zn34 2.020 . S
N38 C37 1.336 . S
N38 N39 1.354 . S
N39 C35 1.336 . S
N39 N38 1.354 . S
N39 Zn43 2.020 . S
C40 O41 1.244 . S
C40 O64 1.257 . S
O41 C40 1.244 . S
O42 Zn34 2.019 . S
O42 C62 1.257 . S
Zn43 N39 2.020 . S
Zn43 O50 1.975 . S
Zn43 N59 2.119 . S
Zn43 O64 2.019 . S
N44 Zn34 2.119 . S
N44 C46 1.334 . S
N44 C47 1.328 . S
C45 C46 1.391 . S
C45 N48 1.329 . S
C45 H66 0.930 . S
C46 N44 1.334 . S
C46 C45 1.391 . S
C46 H53 0.930 . S
C47 N44 1.328 . S
C47 C49 1.392 . S
C47 H54 0.930 . S
N48 C45 1.329 . S
N48 C49 1.331 . S
C49 C47 1.392 . S
C49 N48 1.331 . S
O50 Zn43 1.975 . S
O50 C51 1.252 . S
C51 O50 1.252 . S
C51 O52 1.252 . S
O52 Zn34 1.975 . S
O52 C51 1.252 . S
H53 C46 0.930 . S
H54 C47 0.930 . S
C55 C56 1.392 . S
C55 N59 1.328 . S
C55 H61 0.930 . S
C56 C55 1.392 . S
C56 N60 1.331 . S
C57 C58 1.391 . S
C57 N60 1.329 . S
C57 H67 0.930 . S
C58 C57 1.391 . S
C58 N59 1.334 . S
C58 H65 0.930 . S
N59 Zn43 2.119 . S
N59 C55 1.328 . S
N59 C58 1.334 . S
N60 C56 1.331 . S
N60 C57 1.329 . S
H61 C55 0.930 . S
C62 O42 1.257 . S
C62 O63 1.244 . S
O63 C62 1.244 . S
O64 C40 1.257 . S
O64 Zn43 2.019 . S
H65 C58 0.930 . S
H66 C45 0.930 . S
H67 C57 0.930 . S
Zn68 N72 2.020 . S
Zn68 O76 2.019 . S
Zn68 N78 2.119 1_455 S
Zn68 O86 1.975 . S
C69 N70 1.334 . S
C69 N73 1.336 . S
N70 C69 1.334 . S
N70 C71 1.334 . S
C71 N70 1.334 . S
C71 N72 1.336 . S
N72 Zn68 2.020 . S
N72 C71 1.336 . S
N72 N73 1.354 . S
N73 C69 1.336 . S
N73 N72 1.354 . S
N73 Zn77 2.020 . S
C74 O75 1.244 . S
C74 O98 1.257 . S
O75 C74 1.244 . S
O76 Zn68 2.019 . S
O76 C96 1.257 . S
Zn77 N73 2.020 . S
Zn77 O84 1.975 . S
Zn77 N93 2.119 . S
Zn77 O98 2.019 . S
N78 Zn68 2.119 1_655 S
N78 C80 1.334 . S
N78 C81 1.328 . S
C79 C80 1.391 . S
C79 N82 1.329 . S
C79 H100 0.930 . S
C80 N78 1.334 . S
C80 C79 1.391 . S
C80 H87 0.930 . S
C81 N78 1.328 . S
C81 C83 1.392 . S
C81 H88 0.930 . S
N82 C79 1.329 . S
N82 C83 1.331 . S
C83 C81 1.392 . S
C83 N82 1.331 . S
O84 Zn77 1.975 . S
O84 C85 1.252 . S
C85 O84 1.252 . S
C85 O86 1.252 . S
O86 Zn68 1.975 . S
O86 C85 1.252 . S
H87 C80 0.930 . S
H88 C81 0.930 . S
C89 C90 1.392 . S
C89 N93 1.328 . S
C89 H95 0.930 . S
C90 C89 1.392 . S
C90 N94 1.331 . S
C91 C92 1.391 . S
C91 N94 1.329 . S
C91 H101 0.930 . S
C92 C91 1.391 . S
C92 N93 1.334 . S
C92 H99 0.930 . S
N93 Zn77 2.119 . S
N93 C89 1.328 . S
N93 C92 1.334 . S
N94 C90 1.331 . S
N94 C91 1.329 . S
H95 C89 0.930 . S
C96 O76 1.257 . S
C96 O97 1.244 . S
O97 C96 1.244 . S
O98 C74 1.257 . S
O98 Zn77 2.019 . S
H99 C92 0.930 . S
H100 C79 0.930 . S
H101 C91 0.930 . S
Zn102 N106 2.020 . S
Zn102 O110 2.019 . S
Zn102 N112 2.119 . S
Zn102 O120 1.975 . S
C103 N104 1.334 . S
C103 N107 1.336 . S
N104 C103 1.334 . S
N104 C105 1.334 . S
C105 N104 1.334 . S
C105 N106 1.336 . S
N106 Zn102 2.020 . S
N106 C105 1.336 . S
N106 N107 1.354 . S
N107 C103 1.336 . S
N107 N106 1.354 . S
N107 Zn111 2.020 . S
C108 O109 1.244 . S
C108 O132 1.257 . S
O109 C108 1.244 . S
O110 Zn102 2.019 . S
O110 C130 1.257 . S
Zn111 N107 2.020 . S
Zn111 O118 1.975 . S
Zn111 N127 2.119 . S
Zn111 O132 2.019 . S
N112 Zn102 2.119 . S
N112 C114 1.334 . S
N112 C115 1.328 . S
C113 C114 1.391 . S
C113 N116 1.329 . S
C113 H134 0.930 . S
C114 N112 1.334 . S
C114 C113 1.391 . S
C114 H121 0.930 . S
C115 N112 1.328 . S
C115 C117 1.392 . S
C115 H122 0.930 . S
N116 C113 1.329 . S
N116 C117 1.331 . S
C117 C115 1.392 . S
C117 N116 1.331 . S
O118 Zn111 1.975 . S
O118 C119 1.252 . S
C119 O118 1.252 . S
C119 O120 1.252 . S
O120 Zn102 1.975 . S
O120 C119 1.252 . S
H121 C114 0.930 . S
H122 C115 0.930 . S
C123 C124 1.392 . S
C123 N127 1.328 . S
C123 H129 0.930 . S
C124 C123 1.392 . S
C124 N128 1.331 . S
C125 C126 1.391 . S
C125 N128 1.329 . S
C125 H135 0.930 . S
C126 C125 1.391 . S
C126 N127 1.334 . S
C126 H133 0.930 . S
N127 Zn111 2.119 . S
N127 C123 1.328 . S
N127 C126 1.334 . S
N128 C124 1.331 . S
N128 C125 1.329 . S
H129 C123 0.930 . S
C130 O110 1.257 . S
C130 O131 1.244 . S
O131 C130 1.244 . S
O132 C108 1.257 . S
O132 Zn111 2.019 . S
H133 C126 0.930 . S
H134 C113 0.930 . S
H135 C125 0.930 . S
Zn136 N140 2.020 . S
Zn136 O144 2.019 . S
Zn136 N146 2.119 . S
Zn136 O154 1.975 . S
C137 N138 1.334 . S
C137 N141 1.336 . S
N138 C137 1.334 . S
N138 C139 1.334 . S
C139 N138 1.334 . S
C139 N140 1.336 . S
N140 Zn136 2.020 . S
N140 C139 1.336 . S
N140 N141 1.354 . S
N141 C137 1.336 . S
N141 N140 1.354 . S
N141 Zn145 2.020 . S
C142 O143 1.244 . S
C142 O166 1.257 . S
O143 C142 1.244 . S
O144 Zn136 2.019 . S
O144 C164 1.257 . S
Zn145 N141 2.020 . S
Zn145 O152 1.975 . S
Zn145 N161 2.119 . S
Zn145 O166 2.019 . S
N146 Zn136 2.119 . S
N146 C148 1.334 . S
N146 C149 1.328 . S
C147 C148 1.391 . S
C147 N150 1.329 . S
C147 H168 0.930 . S
C148 N146 1.334 . S
C148 C147 1.391 . S
C148 H155 0.930 . S
C149 N146 1.328 . S
C149 C151 1.392 . S
C149 H156 0.930 . S
N150 C147 1.329 . S
N150 C151 1.331 . S
C151 C149 1.392 . S
C151 N150 1.331 . S
O152 Zn145 1.975 . S
O152 C153 1.252 . S
C153 O152 1.252 . S
C153 O154 1.252 . S
O154 Zn136 1.975 . S
O154 C153 1.252 . S
H155 C148 0.930 . S
H156 C149 0.930 . S
C157 C158 1.392 . S
C157 N161 1.328 . S
C157 H163 0.930 . S
C158 C157 1.392 . S
C158 N162 1.331 . S
C159 C160 1.391 . S
C159 N162 1.329 . S
C159 H169 0.930 . S
C160 C159 1.391 . S
C160 N161 1.334 . S
C160 H167 0.930 . S
N161 Zn145 2.119 . S
N161 C157 1.328 . S
N161 C160 1.334 . S
N162 C158 1.331 . S
N162 C159 1.329 . S
H163 C157 0.930 . S
C164 O144 1.257 . S
C164 O165 1.244 . S
O165 C164 1.244 . S
O166 C142 1.257 . S
O166 Zn145 2.019 . S
H167 C160 0.930 . S
H168 C147 0.930 . S
H169 C159 0.930 . S
Zn170 N174 2.020 . S
Zn170 O178 2.019 1_455 S
Zn170 N180 2.119 1_455 S
Zn170 O188 1.975 . S
C171 N172 1.334 . S
C171 N175 1.336 . S
N172 C171 1.334 . S
N172 C173 1.334 . S
C173 N172 1.334 . S
C173 N174 1.336 . S
N174 Zn170 2.020 . S
N174 C173 1.336 . S
N174 N175 1.354 . S
N175 C171 1.336 . S
N175 N174 1.354 . S
N175 Zn179 2.020 . S
C176 O177 1.244 . S
C176 O200 1.257 . S
O177 C176 1.244 . S
O178 Zn170 2.019 1_655 S
O178 C198 1.257 1_655 S
Zn179 N175 2.020 . S
Zn179 O186 1.975 . S
Zn179 N195 2.119 . S
Zn179 O200 2.019 . S
N180 Zn170 2.119 1_655 S
N180 C182 1.334 . S
N180 C183 1.328 . S
C181 C182 1.391 . S
C181 N184 1.329 . S
C181 H202 0.930 . S
C182 N180 1.334 . S
C182 C181 1.391 . S
C182 H189 0.930 . S
C183 N180 1.328 . S
C183 C185 1.392 . S
C183 H190 0.930 . S
N184 C181 1.329 . S
N184 C185 1.331 . S
C185 C183 1.392 . S
C185 N184 1.331 . S
O186 Zn179 1.975 . S
O186 C187 1.252 . S
C187 O186 1.252 . S
C187 O188 1.252 . S
O188 Zn170 1.975 . S
O188 C187 1.252 . S
H189 C182 0.930 . S
H190 C183 0.930 . S
C191 C192 1.392 . S
C191 N195 1.328 . S
C191 H197 0.930 . S
C192 C191 1.392 . S
C192 N196 1.331 . S
C193 C194 1.391 . S
C193 N196 1.329 . S
C193 H203 0.930 . S
C194 C193 1.391 . S
C194 N195 1.334 . S
C194 H201 0.930 . S
N195 Zn179 2.119 . S
N195 C191 1.328 . S
N195 C194 1.334 . S
N196 C192 1.331 . S
N196 C193 1.329 . S
H197 C191 0.930 . S
C198 O178 1.257 1_455 S
C198 O199 1.244 . S
O199 C198 1.244 . S
O200 C176 1.257 . S
O200 Zn179 2.019 . S
H201 C194 0.930 . S
H202 C181 0.930 . S
H203 C193 0.930 . S
Zn204 N208 2.020 . S
Zn204 O212 2.019 . S
Zn204 N214 2.119 . S
Zn204 O222 1.975 . S
C205 N206 1.334 . S
C205 N209 1.336 . S
N206 C205 1.334 . S
N206 C207 1.334 . S
C207 N206 1.334 . S
C207 N208 1.336 . S
N208 Zn204 2.020 . S
N208 C207 1.336 . S
N208 N209 1.354 . S
N209 C205 1.336 . S
N209 N208 1.354 . S
N209 Zn213 2.020 . S
C210 O211 1.244 . S
C210 O234 1.257 . S
O211 C210 1.244 . S
O212 Zn204 2.019 . S
O212 C232 1.257 . S
Zn213 N209 2.020 . S
Zn213 O220 1.975 . S
Zn213 N229 2.119 . S
Zn213 O234 2.019 . S
N214 Zn204 2.119 . S
N214 C216 1.334 . S
N214 C217 1.328 . S
C215 C216 1.391 . S
C215 N218 1.329 . S
C215 H236 0.930 . S
C216 N214 1.334 . S
C216 C215 1.391 . S
C216 H223 0.930 . S
C217 N214 1.328 . S
C217 C219 1.392 . S
C217 H224 0.930 . S
N218 C215 1.329 . S
N218 C219 1.331 . S
C219 C217 1.392 . S
C219 N218 1.331 . S
O220 Zn213 1.975 . S
O220 C221 1.252 . S
C221 O220 1.252 . S
C221 O222 1.252 . S
O222 Zn204 1.975 . S
O222 C221 1.252 . S
H223 C216 0.930 . S
H224 C217 0.930 . S
C225 C226 1.392 . S
C225 N229 1.328 . S
C225 H231 0.930 . S
C226 C225 1.392 . S
C226 N230 1.331 . S
C227 C228 1.391 . S
C227 N230 1.329 . S
C227 H237 0.930 . S
C228 C227 1.391 . S
C228 N229 1.334 . S
C228 H235 0.930 . S
N229 Zn213 2.119 . S
N229 C225 1.328 . S
N229 C228 1.334 . S
N230 C226 1.331 . S
N230 C227 1.329 . S
H231 C225 0.930 . S
C232 O212 1.257 . S
C232 O233 1.244 . S
O233 C232 1.244 . S
O234 C210 1.257 . S
O234 Zn213 2.019 . S
H235 C228 0.930 . S
H236 C215 0.930 . S
H237 C227 0.930 . S
Zn238 N242 2.020 . S
Zn238 O246 2.019 . S
Zn238 N248 2.119 . S
Zn238 O256 1.975 . S
C239 N240 1.334 . S
C239 N243 1.336 . S
N240 C239 1.334 . S
N240 C241 1.334 . S
C241 N240 1.334 . S
C241 N242 1.336 . S
N242 Zn238 2.020 . S
N242 C241 1.336 . S
N242 N243 1.354 . S
N243 C239 1.336 . S
N243 N242 1.354 . S
N243 Zn247 2.020 . S
C244 O245 1.244 . S
C244 O268 1.257 1_455 S
O245 C244 1.244 . S
O246 Zn238 2.019 . S
O246 C266 1.257 . S
Zn247 N243 2.020 . S
Zn247 O254 1.975 . S
Zn247 N263 2.119 1_455 S
Zn247 O268 2.019 1_455 S
N248 Zn238 2.119 . S
N248 C250 1.334 . S
N248 C251 1.328 . S
C249 C250 1.391 . S
C249 N252 1.329 . S
C249 H270 0.930 . S
C250 N248 1.334 . S
C250 C249 1.391 . S
C250 H257 0.930 . S
C251 N248 1.328 . S
C251 C253 1.392 . S
C251 H258 0.930 . S
N252 C249 1.329 . S
N252 C253 1.331 . S
C253 C251 1.392 . S
C253 N252 1.331 . S
O254 Zn247 1.975 . S
O254 C255 1.252 . S
C255 O254 1.252 . S
C255 O256 1.252 . S
O256 Zn238 1.975 . S
O256 C255 1.252 . S
H257 C250 0.930 . S
H258 C251 0.930 . S
C259 C260 1.392 . S
C259 N263 1.328 . S
C259 H265 0.930 . S
C260 C259 1.392 . S
C260 N264 1.331 . S
C261 C262 1.391 . S
C261 N264 1.329 . S
C261 H271 0.930 . S
C262 C261 1.391 . S
C262 N263 1.334 . S
C262 H269 0.930 . S
N263 Zn247 2.119 1_655 S
N263 C259 1.328 . S
N263 C262 1.334 . S
N264 C260 1.331 . S
N264 C261 1.329 . S
H265 C259 0.930 . S
C266 O246 1.257 . S
C266 O267 1.244 . S
O267 C266 1.244 . S
O268 C244 1.257 1_655 S
O268 Zn247 2.019 1_655 S
H269 C262 0.930 . S
H270 C249 0.930 . S
H271 C261 0.930 . S
H272 C290 0.951 . S
H273 C292 0.951 . S
H274 C294 0.950 . S
H275 C295 0.950 . S
H276 C297 0.950 . S
H277 C300 0.950 . S
H278 C301 0.950 . S
H279 C303 0.950 . S
H280 C304 0.950 . S
H281 C305 0.951 . S
H282 C307 0.951 . S
H283 C309 0.950 . S
H284 C310 0.950 . S
H285 C312 0.950 . S
H286 C315 0.950 . S
H287 C316 0.950 . S
H288 C318 0.950 . S
H289 C319 0.950 . S
C290 H272 0.951 . S
C290 C291 1.366 . S
C290 C292 1.388 . S
C291 C290 1.366 . S
C291 C295 1.385 . S
C292 H273 0.951 . S
C292 C290 1.388 . S
C292 C293 1.366 . S
C293 C292 1.366 . S
C293 C294 1.414 . S
C293 C296 1.499 . S
C294 H274 0.950 . S
C294 C293 1.414 . S
C294 C295 1.374 . S
C295 H275 0.950 . S
C295 C291 1.385 . S
C295 C294 1.374 . S
C296 C293 1.499 . S
C296 C297 1.373 . S
C296 C298 1.389 . S
C297 H276 0.950 . S
C297 C296 1.373 . S
C297 C313 1.377 . S
C298 C296 1.389 . S
C298 C299 1.524 . S
C298 C312 1.377 . S
C299 C298 1.524 . S
C299 C300 1.397 . S
C299 C304 1.363 . S
C300 H277 0.950 . S
C300 C299 1.397 . S
C300 C301 1.334 . S
C301 H278 0.950 . S
C301 C300 1.334 . S
C301 C302 1.287 . S
C302 C301 1.287 . S
C302 C303 1.524 . S
C302 H321 0.913 . S
C303 H279 0.950 . S
C303 C302 1.524 . S
C303 C304 1.415 . S
C304 H280 0.950 . S
C304 C299 1.363 . S
C304 C303 1.415 . S
C305 H281 0.951 . S
C305 C306 1.366 . S
C305 C307 1.388 . S
C306 C305 1.366 . S
C306 C310 1.385 . S
C307 H282 0.951 . S
C307 C305 1.388 . S
C307 C308 1.366 . S
C308 C307 1.366 . S
C308 C309 1.414 . S
C308 C311 1.499 . S
C309 H283 0.950 . S
C309 C308 1.414 . S
C309 C310 1.374 . S
C310 H284 0.950 . S
C310 C306 1.385 . S
C310 C309 1.374 . S
C311 C308 1.499 . S
C311 C312 1.373 . S
C311 C313 1.389 . S
C312 H285 0.950 . S
C312 C298 1.377 . S
C312 C311 1.373 . S
C313 C297 1.377 . S
C313 C311 1.389 . S
C313 C314 1.524 . S
C314 C313 1.524 . S
C314 C315 1.397 . S
C314 C319 1.363 . S
C315 H286 0.950 . S
C315 C314 1.397 . S
C315 C316 1.334 . S
C316 H287 0.950 . S
C316 C315 1.334 . S
C316 C317 1.287 . S
C317 C316 1.287 . S
C317 C318 1.524 . S
C317 H320 0.999 . S
C318 H288 0.950 . S
C318 C317 1.524 . S
C318 C319 1.415 . S
C319 H289 0.950 . S
C319 C314 1.363 . S
C319 C318 1.415 . S
H320 C317 0.999 . S
H321 C302 0.913 . S
H322 C340 0.951 . S
H323 C342 0.951 . S
H324 C344 0.950 . S
H325 C345 0.950 . S
H326 C347 0.950 . S
H327 C350 0.950 . S
H328 C351 0.950 . S
H329 C353 0.950 . S
H330 C354 0.950 . S
H331 C355 0.951 . S
H332 C357 0.951 . S
H333 C359 0.950 . S
H334 C360 0.950 . S
H335 C362 0.950 . S
H336 C365 0.950 . S
H337 C366 0.950 . S
H338 C368 0.950 . S
H339 C369 0.950 . S
C340 H322 0.951 . S
C340 C341 1.366 . S
C340 C342 1.388 . S
C341 C340 1.366 . S
C341 C345 1.385 . S
C342 H323 0.951 . S
C342 C340 1.388 . S
C342 C343 1.366 . S
C343 C342 1.366 . S
C343 C344 1.414 . S
C343 C346 1.499 . S
C344 H324 0.950 . S
C344 C343 1.414 . S
C344 C345 1.374 . S
C345 H325 0.950 . S
C345 C341 1.385 . S
C345 C344 1.374 . S
C346 C343 1.499 . S
C346 C347 1.373 . S
C346 C348 1.389 . S
C347 H326 0.950 . S
C347 C346 1.373 . S
C347 C363 1.377 . S
C348 C346 1.389 . S
C348 C349 1.524 . S
C348 C362 1.377 . S
C349 C348 1.524 . S
C349 C350 1.397 . S
C349 C354 1.363 . S
C350 H327 0.950 . S
C350 C349 1.397 . S
C350 C351 1.334 . S
C351 H328 0.950 . S
C351 C350 1.334 . S
C351 C352 1.287 . S
C352 C351 1.287 . S
C352 C353 1.524 . S
C352 H371 0.913 . S
C353 H329 0.950 . S
C353 C352 1.524 . S
C353 C354 1.415 . S
C354 H330 0.950 . S
C354 C349 1.363 . S
C354 C353 1.415 . S
C355 H331 0.951 . S
C355 C356 1.366 . S
C355 C357 1.388 . S
C356 C355 1.366 . S
C356 C360 1.385 . S
C357 H332 0.951 . S
C357 C355 1.388 . S
C357 C358 1.366 . S
C358 C357 1.366 . S
C358 C359 1.414 . S
C358 C361 1.499 . S
C359 H333 0.950 . S
C359 C358 1.414 . S
C359 C360 1.374 . S
C360 H334 0.950 . S
C360 C356 1.385 . S
C360 C359 1.374 . S
C361 C358 1.499 . S
C361 C362 1.373 . S
C361 C363 1.389 . S
C362 H335 0.950 . S
C362 C348 1.377 . S
C362 C361 1.373 . S
C363 C347 1.377 . S
C363 C361 1.389 . S
C363 C364 1.524 . S
C364 C363 1.524 . S
C364 C365 1.397 . S
C364 C369 1.363 . S
C365 H336 0.950 . S
C365 C364 1.397 . S
C365 C366 1.334 . S
C366 H337 0.950 . S
C366 C365 1.334 . S
C366 C367 1.287 . S
C367 C366 1.287 . S
C367 C368 1.524 . S
C367 H370 0.999 . S
C368 H338 0.950 . S
C368 C367 1.524 . S
C368 C369 1.415 . S
C369 H339 0.950 . S
C369 C364 1.363 . S
C369 C368 1.415 . S
H370 C367 0.999 . S
H371 C352 0.913 . S
H372 C390 0.951 . S
H373 C392 0.951 . S
H374 C394 0.950 . S
H375 C395 0.950 . S
H376 C397 0.950 . S
H377 C400 0.950 . S
H378 C401 0.950 . S
H379 C403 0.950 . S
H380 C404 0.950 . S
H381 C405 0.951 . S
H382 C407 0.951 . S
H383 C409 0.950 . S
H384 C410 0.950 . S
H385 C412 0.950 . S
H386 C415 0.950 . S
H387 C416 0.950 . S
H388 C418 0.950 . S
H389 C419 0.950 . S
C390 H372 0.951 . S
C390 C391 1.366 . S
C390 C392 1.388 . S
C391 C390 1.366 . S
C391 C395 1.385 . S
C392 H373 0.951 . S
C392 C390 1.388 . S
C392 C393 1.366 . S
C393 C392 1.366 . S
C393 C394 1.414 . S
C393 C396 1.499 . S
C394 H374 0.950 . S
C394 C393 1.414 . S
C394 C395 1.374 . S
C395 H375 0.950 . S
C395 C391 1.385 . S
C395 C394 1.374 . S
C396 C393 1.499 . S
C396 C397 1.373 . S
C396 C398 1.389 . S
C397 H376 0.950 . S
C397 C396 1.373 . S
C397 C413 1.377 . S
C398 C396 1.389 . S
C398 C399 1.524 . S
C398 C412 1.377 . S
C399 C398 1.524 . S
C399 C400 1.397 . S
C399 C404 1.363 . S
C400 H377 0.950 . S
C400 C399 1.397 . S
C400 C401 1.334 . S
C401 H378 0.950 . S
C401 C400 1.334 . S
C401 C402 1.287 . S
C402 C401 1.287 . S
C402 C403 1.524 . S
C402 H421 0.913 . S
C403 H379 0.950 . S
C403 C402 1.524 . S
C403 C404 1.415 . S
C404 H380 0.950 . S
C404 C399 1.363 . S
C404 C403 1.415 . S
C405 H381 0.951 . S
C405 C406 1.366 . S
C405 C407 1.388 . S
C406 C405 1.366 . S
C406 C410 1.385 . S
C407 H382 0.951 . S
C407 C405 1.388 . S
C407 C408 1.366 . S
C408 C407 1.366 . S
C408 C409 1.414 . S
C408 C411 1.499 . S
C409 H383 0.950 . S
C409 C408 1.414 . S
C409 C410 1.374 . S
C410 H384 0.950 . S
C410 C406 1.385 . S
C410 C409 1.374 . S
C411 C408 1.499 . S
C411 C412 1.373 . S
C411 C413 1.389 . S
C412 H385 0.950 . S
C412 C398 1.377 . S
C412 C411 1.373 . S
C413 C397 1.377 . S
C413 C411 1.389 . S
C413 C414 1.524 . S
C414 C413 1.524 . S
C414 C415 1.397 . S
C414 C419 1.363 . S
C415 H386 0.950 . S
C415 C414 1.397 . S
C415 C416 1.334 . S
C416 H387 0.950 . S
C416 C415 1.334 . S
C416 C417 1.287 . S
C417 C416 1.287 . S
C417 C418 1.524 . S
C417 H420 0.999 . S
C418 H388 0.950 . S
C418 C417 1.524 . S
C418 C419 1.415 . S
C419 H389 0.950 . S
C419 C414 1.363 . S
C419 C418 1.415 . S
H420 C417 0.999 . S
H421 C402 0.913 . S
H422 C440 0.951 . S
H423 C442 0.951 . S
H424 C444 0.950 . S
H425 C445 0.950 . S
H426 C447 0.950 . S
H427 C450 0.950 . S
H428 C451 0.950 . S
H429 C453 0.950 . S
H430 C454 0.950 . S
H431 C455 0.951 . S
H432 C457 0.951 . S
H433 C459 0.950 . S
H434 C460 0.950 . S
H435 C462 0.950 . S
H436 C465 0.950 . S
H437 C466 0.950 . S
H438 C468 0.950 . S
H439 C469 0.950 . S
C440 H422 0.951 . S
C440 C441 1.366 . S
C440 C442 1.388 . S
C441 C440 1.366 . S
C441 C445 1.385 . S
C442 H423 0.951 . S
C442 C440 1.388 . S
C442 C443 1.366 . S
C443 C442 1.366 . S
C443 C444 1.414 . S
C443 C446 1.499 . S
C444 H424 0.950 . S
C444 C443 1.414 . S
C444 C445 1.374 . S
C445 H425 0.950 . S
C445 C441 1.385 . S
C445 C444 1.374 . S
C446 C443 1.499 . S
C446 C447 1.373 . S
C446 C448 1.389 . S
C447 H426 0.950 . S
C447 C446 1.373 . S
C447 C463 1.377 . S
C448 C446 1.389 . S
C448 C449 1.524 . S
C448 C462 1.377 . S
C449 C448 1.524 . S
C449 C450 1.397 . S
C449 C454 1.363 . S
C450 H427 0.950 . S
C450 C449 1.397 . S
C450 C451 1.334 . S
C451 H428 0.950 . S
C451 C450 1.334 . S
C451 C452 1.287 . S
C452 C451 1.287 . S
C452 C453 1.524 . S
C452 H471 0.913 . S
C453 H429 0.950 . S
C453 C452 1.524 . S
C453 C454 1.415 . S
C454 H430 0.950 . S
C454 C449 1.363 . S
C454 C453 1.415 . S
C455 H431 0.951 . S
C455 C456 1.366 . S
C455 C457 1.388 . S
C456 C455 1.366 . S
C456 C460 1.385 . S
C457 H432 0.951 . S
C457 C455 1.388 . S
C457 C458 1.366 . S
C458 C457 1.366 . S
C458 C459 1.414 . S
C458 C461 1.499 . S
C459 H433 0.950 . S
C459 C458 1.414 . S
C459 C460 1.374 . S
C460 H434 0.950 . S
C460 C456 1.385 . S
C460 C459 1.374 . S
C461 C458 1.499 . S
C461 C462 1.373 . S
C461 C463 1.389 . S
C462 H435 0.950 . S
C462 C448 1.377 . S
C462 C461 1.373 . S
C463 C447 1.377 . S
C463 C461 1.389 . S
C463 C464 1.524 . S
C464 C463 1.524 . S
C464 C465 1.397 . S
C464 C469 1.363 . S
C465 H436 0.950 . S
C465 C464 1.397 . S
C465 C466 1.334 . S
C466 H437 0.950 . S
C466 C465 1.334 . S
C466 C467 1.287 . S
C467 C466 1.287 . S
C467 C468 1.524 . S
C467 H470 0.999 . S
C468 H438 0.950 . S
C468 C467 1.524 . S
C468 C469 1.415 . S
C469 H439 0.950 . S
C469 C464 1.363 . S
C469 C468 1.415 . S
H470 C467 0.999 . S
H471 C452 0.913 . S
H472 C490 0.951 . S
H473 C492 0.951 . S
H474 C494 0.950 . S
H475 C495 0.950 . S
H476 C497 0.950 . S
H477 C500 0.950 . S
H478 C501 0.950 . S
H479 C503 0.950 . S
H480 C504 0.950 . S
H481 C505 0.951 . S
H482 C507 0.951 . S
H483 C509 0.950 . S
H484 C510 0.950 . S
H485 C512 0.950 . S
H486 C515 0.950 . S
H487 C516 0.950 . S
H488 C518 0.950 . S
H489 C519 0.950 . S
C490 H472 0.951 . S
C490 C491 1.366 . S
C490 C492 1.388 . S
C491 C490 1.366 . S
C491 C495 1.385 . S
C492 H473 0.951 . S
C492 C490 1.388 . S
C492 C493 1.366 . S
C493 C492 1.366 . S
C493 C494 1.414 . S
C493 C496 1.499 . S
C494 H474 0.950 . S
C494 C493 1.414 . S
C494 C495 1.374 . S
C495 H475 0.950 . S
C495 C491 1.385 . S
C495 C494 1.374 . S
C496 C493 1.499 . S
C496 C497 1.373 . S
C496 C498 1.389 . S
C497 H476 0.950 . S
C497 C496 1.373 . S
C497 C513 1.377 . S
C498 C496 1.389 . S
C498 C499 1.524 . S
C498 C512 1.377 . S
C499 C498 1.524 . S
C499 C500 1.397 . S
C499 C504 1.363 . S
C500 H477 0.950 . S
C500 C499 1.397 . S
C500 C501 1.334 . S
C501 H478 0.950 . S
C501 C500 1.334 . S
C501 C502 1.287 . S
C502 C501 1.287 . S
C502 C503 1.524 . S
C502 H521 0.913 1_565 S
C503 H479 0.950 . S
C503 C502 1.524 . S
C503 C504 1.415 . S
C504 H480 0.950 . S
C504 C499 1.363 . S
C504 C503 1.415 . S
C505 H481 0.951 . S
C505 C506 1.366 . S
C505 C507 1.388 . S
C506 C505 1.366 . S
C506 C510 1.385 . S
C507 H482 0.951 . S
C507 C505 1.388 . S
C507 C508 1.366 . S
C508 C507 1.366 . S
C508 C509 1.414 . S
C508 C511 1.499 . S
C509 H483 0.950 . S
C509 C508 1.414 . S
C509 C510 1.374 . S
C510 H484 0.950 . S
C510 C506 1.385 . S
C510 C509 1.374 . S
C511 C508 1.499 . S
C511 C512 1.373 . S
C511 C513 1.389 . S
C512 H485 0.950 . S
C512 C498 1.377 . S
C512 C511 1.373 . S
C513 C497 1.377 . S
C513 C511 1.389 . S
C513 C514 1.524 . S
C514 C513 1.524 . S
C514 C515 1.397 . S
C514 C519 1.363 . S
C515 H486 0.950 . S
C515 C514 1.397 . S
C515 C516 1.334 . S
C516 H487 0.950 . S
C516 C515 1.334 . S
C516 C517 1.287 . S
C517 C516 1.287 . S
C517 C518 1.524 . S
C517 H520 0.999 . S
C518 H488 0.950 . S
C518 C517 1.524 . S
C518 C519 1.415 . S
C519 H489 0.950 . S
C519 C514 1.363 . S
C519 C518 1.415 . S
H520 C517 0.999 . S
H521 C502 0.913 1_545 S
H522 C540 0.951 . S
H523 C542 0.951 . S
H524 C544 0.950 . S
H525 C545 0.950 . S
H526 C547 0.950 . S
H527 C550 0.950 . S
H528 C551 0.950 . S
H529 C553 0.950 . S
H530 C554 0.950 . S
H531 C555 0.951 . S
H532 C557 0.951 . S
H533 C559 0.950 . S
H534 C560 0.950 . S
H535 C562 0.950 . S
H536 C565 0.950 . S
H537 C566 0.950 . S
H538 C568 0.950 . S
H539 C569 0.950 . S
C540 H522 0.951 . S
C540 C541 1.366 . S
C540 C542 1.388 . S
C541 C540 1.366 . S
C541 C545 1.385 . S
C542 H523 0.951 . S
C542 C540 1.388 . S
C542 C543 1.366 . S
C543 C542 1.366 . S
C543 C544 1.414 . S
C543 C546 1.499 . S
C544 H524 0.950 . S
C544 C543 1.414 . S
C544 C545 1.374 . S
C545 H525 0.950 . S
C545 C541 1.385 . S
C545 C544 1.374 . S
C546 C543 1.499 . S
C546 C547 1.373 . S
C546 C548 1.389 . S
C547 H526 0.950 . S
C547 C546 1.373 . S
C547 C563 1.377 . S
C548 C546 1.389 . S
C548 C549 1.524 . S
C548 C562 1.377 . S
C549 C548 1.524 . S
C549 C550 1.397 . S
C549 C554 1.363 . S
C550 H527 0.950 . S
C550 C549 1.397 . S
C550 C551 1.334 . S
C551 H528 0.950 . S
C551 C550 1.334 . S
C551 C552 1.287 . S
C552 C551 1.287 . S
C552 C553 1.524 . S
C552 H571 0.913 . S
C553 H529 0.950 . S
C553 C552 1.524 . S
C553 C554 1.415 . S
C554 H530 0.950 . S
C554 C549 1.363 . S
C554 C553 1.415 . S
C555 H531 0.951 . S
C555 C556 1.366 . S
C555 C557 1.388 . S
C556 C555 1.366 . S
C556 C560 1.385 . S
C557 H532 0.951 . S
C557 C555 1.388 . S
C557 C558 1.366 . S
C558 C557 1.366 . S
C558 C559 1.414 . S
C558 C561 1.499 . S
C559 H533 0.950 . S
C559 C558 1.414 . S
C559 C560 1.374 . S
C560 H534 0.950 . S
C560 C556 1.385 . S
C560 C559 1.374 . S
C561 C558 1.499 . S
C561 C562 1.373 . S
C561 C563 1.389 . S
C562 H535 0.950 . S
C562 C548 1.377 . S
C562 C561 1.373 . S
C563 C547 1.377 . S
C563 C561 1.389 . S
C563 C564 1.524 . S
C564 C563 1.524 . S
C564 C565 1.397 . S
C564 C569 1.363 . S
C565 H536 0.950 . S
C565 C564 1.397 . S
C565 C566 1.334 . S
C566 H537 0.950 . S
C566 C565 1.334 . S
C566 C567 1.287 . S
C567 C566 1.287 . S
C567 C568 1.524 . S
C567 H570 0.999 . S
C568 H538 0.950 . S
C568 C567 1.524 . S
C568 C569 1.415 . S
C569 H539 0.950 . S
C569 C564 1.363 . S
C569 C568 1.415 . S
H570 C567 0.999 . S
H571 C552 0.913 . S
H572 C590 0.951 . S
H573 C592 0.951 . S
H574 C594 0.950 . S
H575 C595 0.950 . S
H576 C597 0.950 . S
H577 C600 0.950 . S
H578 C601 0.950 . S
H579 C603 0.950 . S
H580 C604 0.950 . S
H581 C605 0.951 . S
H582 C607 0.951 . S
H583 C609 0.950 . S
H584 C610 0.950 . S
H585 C612 0.950 . S
H586 C615 0.950 . S
H587 C616 0.950 . S
H588 C618 0.950 . S
H589 C619 0.950 . S
C590 H572 0.951 . S
C590 C591 1.366 . S
C590 C592 1.388 . S
C591 C590 1.366 . S
C591 C595 1.385 . S
C592 H573 0.951 . S
C592 C590 1.388 . S
C592 C593 1.366 . S
C593 C592 1.366 . S
C593 C594 1.414 . S
C593 C596 1.499 . S
C594 H574 0.950 . S
C594 C593 1.414 . S
C594 C595 1.374 . S
C595 H575 0.950 . S
C595 C591 1.385 . S
C595 C594 1.374 . S
C596 C593 1.499 . S
C596 C597 1.373 . S
C596 C598 1.389 . S
C597 H576 0.950 . S
C597 C596 1.373 . S
C597 C613 1.377 . S
C598 C596 1.389 . S
C598 C599 1.524 . S
C598 C612 1.377 . S
C599 C598 1.524 . S
C599 C600 1.397 . S
C599 C604 1.363 . S
C600 H577 0.950 . S
C600 C599 1.397 . S
C600 C601 1.334 . S
C601 H578 0.950 . S
C601 C600 1.334 . S
C601 C602 1.287 . S
C602 C601 1.287 . S
C602 C603 1.524 . S
C602 H621 0.913 . S
C603 H579 0.950 . S
C603 C602 1.524 . S
C603 C604 1.415 . S
C604 H580 0.950 . S
C604 C599 1.363 . S
C604 C603 1.415 . S
C605 H581 0.951 . S
C605 C606 1.366 . S
C605 C607 1.388 . S
C606 C605 1.366 . S
C606 C610 1.385 . S
C607 H582 0.951 . S
C607 C605 1.388 . S
C607 C608 1.366 . S
C608 C607 1.366 . S
C608 C609 1.414 . S
C608 C611 1.499 . S
C609 H583 0.950 . S
C609 C608 1.414 . S
C609 C610 1.374 . S
C610 H584 0.950 . S
C610 C606 1.385 . S
C610 C609 1.374 . S
C611 C608 1.499 . S
C611 C612 1.373 . S
C611 C613 1.389 . S
C612 H585 0.950 . S
C612 C598 1.377 . S
C612 C611 1.373 . S
C613 C597 1.377 . S
C613 C611 1.389 . S
C613 C614 1.524 . S
C614 C613 1.524 . S
C614 C615 1.397 . S
C614 C619 1.363 . S
C615 H586 0.950 . S
C615 C614 1.397 . S
C615 C616 1.334 . S
C616 H587 0.950 . S
C616 C615 1.334 . S
C616 C617 1.287 . S
C617 C616 1.287 . S
C617 C618 1.524 . S
C617 H620 0.999 . S
C618 H588 0.950 . S
C618 C617 1.524 . S
C618 C619 1.415 . S
C619 H589 0.950 . S
C619 C614 1.363 . S
C619 C618 1.415 . S
H620 C617 0.999 . S
H621 C602 0.913 . S
H622 C640 0.951 . S
H623 C642 0.951 . S
H624 C644 0.950 . S
H625 C645 0.950 . S
H626 C647 0.950 . S
H627 C650 0.950 . S
H628 C651 0.950 . S
H629 C653 0.950 . S
H630 C654 0.950 . S
H631 C655 0.951 . S
H632 C657 0.951 . S
H633 C659 0.950 . S
H634 C660 0.950 . S
H635 C662 0.950 . S
H636 C665 0.950 . S
H637 C666 0.950 . S
H638 C668 0.950 . S
H639 C669 0.950 . S
C640 H622 0.951 . S
C640 C641 1.366 . S
C640 C642 1.388 . S
C641 C640 1.366 . S
C641 C645 1.385 . S
C642 H623 0.951 . S
C642 C640 1.388 . S
C642 C643 1.366 . S
C643 C642 1.366 . S
C643 C644 1.414 . S
C643 C646 1.499 . S
C644 H624 0.950 . S
C644 C643 1.414 . S
C644 C645 1.374 . S
C645 H625 0.950 . S
C645 C641 1.385 . S
C645 C644 1.374 . S
C646 C643 1.499 . S
C646 C647 1.373 . S
C646 C648 1.389 . S
C647 H626 0.950 . S
C647 C646 1.373 . S
C647 C663 1.377 . S
C648 C646 1.389 . S
C648 C649 1.524 . S
C648 C662 1.377 . S
C649 C648 1.524 . S
C649 C650 1.397 . S
C649 C654 1.363 . S
C650 H627 0.950 . S
C650 C649 1.397 . S
C650 C651 1.334 . S
C651 H628 0.950 . S
C651 C650 1.334 . S
C651 C652 1.287 . S
C652 C651 1.287 . S
C652 C653 1.524 . S
C652 H671 0.913 . S
C653 H629 0.950 . S
C653 C652 1.524 . S
C653 C654 1.415 . S
C654 H630 0.950 . S
C654 C649 1.363 . S
C654 C653 1.415 . S
C655 H631 0.951 . S
C655 C656 1.366 . S
C655 C657 1.388 . S
C656 C655 1.366 . S
C656 C660 1.385 . S
C657 H632 0.951 . S
C657 C655 1.388 . S
C657 C658 1.366 . S
C658 C657 1.366 . S
C658 C659 1.414 . S
C658 C661 1.499 . S
C659 H633 0.950 . S
C659 C658 1.414 . S
C659 C660 1.374 . S
C660 H634 0.950 . S
C660 C656 1.385 . S
C660 C659 1.374 . S
C661 C658 1.499 . S
C661 C662 1.373 . S
C661 C663 1.389 . S
C662 H635 0.950 . S
C662 C648 1.377 . S
C662 C661 1.373 . S
C663 C647 1.377 . S
C663 C661 1.389 . S
C663 C664 1.524 . S
C664 C663 1.524 . S
C664 C665 1.397 . S
C664 C669 1.363 . S
C665 H636 0.950 . S
C665 C664 1.397 . S
C665 C666 1.334 . S
C666 H637 0.950 . S
C666 C665 1.334 . S
C666 C667 1.287 . S
C667 C666 1.287 . S
C667 C668 1.524 . S
C667 H670 0.999 . S
C668 H638 0.950 . S
C668 C667 1.524 . S
C668 C669 1.415 . S
C669 H639 0.950 . S
C669 C664 1.363 . S
C669 C668 1.415 . S
H670 C667 0.999 . S
H671 C652 0.913 . S
H672 C690 0.951 . S
H673 C692 0.951 . S
H674 C694 0.950 . S
H675 C695 0.950 . S
H676 C697 0.950 . S
H677 C700 0.950 . S
H678 C701 0.950 . S
H679 C703 0.950 . S
H680 C704 0.950 . S
H681 C705 0.951 . S
H682 C707 0.951 . S
H683 C709 0.950 . S
H684 C710 0.950 . S
H685 C712 0.950 . S
H686 C715 0.950 . S
H687 C716 0.950 . S
H688 C718 0.950 . S
H689 C719 0.950 . S
C690 H672 0.951 . S
C690 C691 1.366 . S
C690 C692 1.388 . S
C691 C690 1.366 . S
C691 C695 1.385 . S
C692 H673 0.951 . S
C692 C690 1.388 . S
C692 C693 1.366 . S
C693 C692 1.366 . S
C693 C694 1.414 . S
C693 C696 1.499 . S
C694 H674 0.950 . S
C694 C693 1.414 . S
C694 C695 1.374 . S
C695 H675 0.950 . S
C695 C691 1.385 . S
C695 C694 1.374 . S
C696 C693 1.499 . S
C696 C697 1.373 . S
C696 C698 1.389 . S
C697 H676 0.950 . S
C697 C696 1.373 . S
C697 C713 1.377 . S
C698 C696 1.389 . S
C698 C699 1.524 . S
C698 C712 1.377 . S
C699 C698 1.524 . S
C699 C700 1.397 . S
C699 C704 1.363 1_455 S
C700 H677 0.950 . S
C700 C699 1.397 . S
C700 C701 1.334 . S
C701 H678 0.950 . S
C701 C700 1.334 . S
C701 C702 1.287 1_455 S
C702 C701 1.287 1_655 S
C702 C703 1.524 . S
C702 H721 0.913 . S
C703 H679 0.950 . S
C703 C702 1.524 . S
C703 C704 1.415 . S
C704 H680 0.950 . S
C704 C699 1.363 1_655 S
C704 C703 1.415 . S
C705 H681 0.951 . S
C705 C706 1.366 . S
C705 C707 1.388 . S
C706 C705 1.366 . S
C706 C710 1.385 . S
C707 H682 0.951 . S
C707 C705 1.388 . S
C707 C708 1.366 . S
C708 C707 1.366 . S
C708 C709 1.414 . S
C708 C711 1.499 . S
C709 H683 0.950 . S
C709 C708 1.414 . S
C709 C710 1.374 . S
C710 H684 0.950 . S
C710 C706 1.385 . S
C710 C709 1.374 . S
C711 C708 1.499 . S
C711 C712 1.373 . S
C711 C713 1.389 . S
C712 H685 0.950 . S
C712 C698 1.377 . S
C712 C711 1.373 . S
C713 C697 1.377 . S
C713 C711 1.389 . S
C713 C714 1.524 . S
C714 C713 1.524 . S
C714 C715 1.397 . S
C714 C719 1.363 . S
C715 H686 0.950 . S
C715 C714 1.397 . S
C715 C716 1.334 . S
C716 H687 0.950 . S
C716 C715 1.334 . S
C716 C717 1.287 . S
C717 C716 1.287 . S
C717 C718 1.524 . S
C717 H720 0.999 . S
C718 H688 0.950 . S
C718 C717 1.524 . S
C718 C719 1.415 . S
C719 H689 0.950 . S
C719 C714 1.363 . S
C719 C718 1.415 . S
H720 C717 0.999 . S
H721 C702 0.913 . S
H722 C740 0.951 . S
H723 C742 0.951 . S
H724 C744 0.950 . S
H725 C745 0.950 . S
H726 C747 0.950 . S
H727 C750 0.950 . S
H728 C751 0.950 . S
H729 C753 0.950 . S
H730 C754 0.950 . S
H731 C755 0.951 . S
H732 C757 0.951 . S
H733 C759 0.950 . S
H734 C760 0.950 . S
H735 C762 0.950 . S
H736 C765 0.950 . S
H737 C766 0.950 . S
H738 C768 0.950 . S
H739 C769 0.950 . S
C740 H722 0.951 . S
C740 C741 1.366 . S
C740 C742 1.388 . S
C741 C740 1.366 . S
C741 C745 1.385 . S
C742 H723 0.951 . S
C742 C740 1.388 . S
C742 C743 1.366 . S
C743 C742 1.366 . S
C743 C744 1.414 . S
C743 C746 1.499 . S
C744 H724 0.950 . S
C744 C743 1.414 . S
C744 C745 1.374 . S
C745 H725 0.950 . S
C745 C741 1.385 . S
C745 C744 1.374 . S
C746 C743 1.499 . S
C746 C747 1.373 . S
C746 C748 1.389 . S
C747 H726 0.950 . S
C747 C746 1.373 . S
C747 C763 1.377 . S
C748 C746 1.389 . S
C748 C749 1.524 . S
C748 C762 1.377 . S
C749 C748 1.524 . S
C749 C750 1.397 . S
C749 C754 1.363 . S
C750 H727 0.950 . S
C750 C749 1.397 . S
C750 C751 1.334 . S
C751 H728 0.950 . S
C751 C750 1.334 . S
C751 C752 1.287 . S
C752 C751 1.287 . S
C752 C753 1.524 . S
C752 H771 0.913 . S
C753 H729 0.950 . S
C753 C752 1.524 . S
C753 C754 1.415 . S
C754 H730 0.950 . S
C754 C749 1.363 . S
C754 C753 1.415 . S
C755 H731 0.951 . S
C755 C756 1.366 . S
C755 C757 1.388 . S
C756 C755 1.366 . S
C756 C760 1.385 . S
C757 H732 0.951 . S
C757 C755 1.388 . S
C757 C758 1.366 . S
C758 C757 1.366 . S
C758 C759 1.414 . S
C758 C761 1.499 . S
C759 H733 0.950 . S
C759 C758 1.414 . S
C759 C760 1.374 . S
C760 H734 0.950 . S
C760 C756 1.385 . S
C760 C759 1.374 . S
C761 C758 1.499 . S
C761 C762 1.373 . S
C761 C763 1.389 . S
C762 H735 0.950 . S
C762 C748 1.377 . S
C762 C761 1.373 . S
C763 C747 1.377 . S
C763 C761 1.389 . S
C763 C764 1.524 . S
C764 C763 1.524 . S
C764 C765 1.397 . S
C764 C769 1.363 . S
C765 H736 0.950 . S
C765 C764 1.397 . S
C765 C766 1.334 . S
C766 H737 0.950 . S
C766 C765 1.334 . S
C766 C767 1.287 . S
C767 C766 1.287 . S
C767 C768 1.524 . S
C767 H770 0.999 . S
C768 H738 0.950 . S
C768 C767 1.524 . S
C768 C769 1.415 . S
C769 H739 0.950 . S
C769 C764 1.363 . S
C769 C768 1.415 . S
H770 C767 0.999 . S
H771 C752 0.913 . S
H772 C790 0.951 . S
H773 C792 0.951 . S
H774 C794 0.950 . S
H775 C795 0.950 . S
H776 C797 0.950 . S
H777 C800 0.950 . S
H778 C801 0.950 . S
H779 C803 0.950 . S
H780 C804 0.950 . S
H781 C805 0.951 . S
H782 C807 0.951 . S
H783 C809 0.950 . S
H784 C810 0.950 . S
H785 C812 0.950 . S
H786 C815 0.950 . S
H787 C816 0.950 . S
H788 C818 0.950 . S
H789 C819 0.950 . S
C790 H772 0.951 . S
C790 C791 1.366 . S
C790 C792 1.388 . S
C791 C790 1.366 . S
C791 C795 1.385 . S
C792 H773 0.951 . S
C792 C790 1.388 . S
C792 C793 1.366 . S
C793 C792 1.366 . S
C793 C794 1.414 . S
C793 C796 1.499 . S
C794 H774 0.950 . S
C794 C793 1.414 . S
C794 C795 1.374 . S
C795 H775 0.950 . S
C795 C791 1.385 . S
C795 C794 1.374 . S
C796 C793 1.499 . S
C796 C797 1.373 . S
C796 C798 1.389 . S
C797 H776 0.950 . S
C797 C796 1.373 . S
C797 C813 1.377 . S
C798 C796 1.389 . S
C798 C799 1.524 . S
C798 C812 1.377 . S
C799 C798 1.524 . S
C799 C800 1.397 . S
C799 C804 1.363 . S
C800 H777 0.950 . S
C800 C799 1.397 . S
C800 C801 1.334 . S
C801 H778 0.950 . S
C801 C800 1.334 . S
C801 C802 1.287 . S
C802 C801 1.287 . S
C802 C803 1.524 . S
C802 H821 0.913 . S
C803 H779 0.950 . S
C803 C802 1.524 . S
C803 C804 1.415 . S
C804 H780 0.950 . S
C804 C799 1.363 . S
C804 C803 1.415 . S
C805 H781 0.951 . S
C805 C806 1.366 . S
C805 C807 1.388 . S
C806 C805 1.366 . S
C806 C810 1.385 . S
C807 H782 0.951 . S
C807 C805 1.388 . S
C807 C808 1.366 . S
C808 C807 1.366 . S
C808 C809 1.414 . S
C808 C811 1.499 . S
C809 H783 0.950 . S
C809 C808 1.414 . S
C809 C810 1.374 . S
C810 H784 0.950 . S
C810 C806 1.385 . S
C810 C809 1.374 . S
C811 C808 1.499 . S
C811 C812 1.373 . S
C811 C813 1.389 . S
C812 H785 0.950 . S
C812 C798 1.377 . S
C812 C811 1.373 . S
C813 C797 1.377 . S
C813 C811 1.389 . S
C813 C814 1.524 . S
C814 C813 1.524 . S
C814 C815 1.397 1_455 S
C814 C819 1.363 . S
C815 H786 0.950 . S
C815 C814 1.397 1_655 S
C815 C816 1.334 . S
C816 H787 0.950 . S
C816 C815 1.334 . S
C816 C817 1.287 . S
C817 C816 1.287 . S
C817 C818 1.524 . S
C817 H820 0.999 . S
C818 H788 0.950 . S
C818 C817 1.524 . S
C818 C819 1.415 1_655 S
C819 H789 0.950 . S
C819 C814 1.363 . S
C819 C818 1.415 1_455 S
H820 C817 0.999 . S
H821 C802 0.913 . S
H822 C840 0.951 . S
H823 C842 0.951 . S
H824 C844 0.950 . S
H825 C845 0.950 . S
H826 C847 0.950 . S
H827 C850 0.950 . S
H828 C851 0.950 . S
H829 C853 0.950 . S
H830 C854 0.950 . S
H831 C855 0.951 . S
H832 C857 0.951 . S
H833 C859 0.950 . S
H834 C860 0.950 . S
H835 C862 0.950 . S
H836 C865 0.950 . S
H837 C866 0.950 . S
H838 C868 0.950 . S
H839 C869 0.950 . S
C840 H822 0.951 . S
C840 C841 1.366 . S
C840 C842 1.388 . S
C841 C840 1.366 . S
C841 C845 1.385 . S
C842 H823 0.951 . S
C842 C840 1.388 . S
C842 C843 1.366 . S
C843 C842 1.366 . S
C843 C844 1.414 . S
C843 C846 1.499 . S
C844 H824 0.950 . S
C844 C843 1.414 . S
C844 C845 1.374 . S
C845 H825 0.950 . S
C845 C841 1.385 . S
C845 C844 1.374 . S
C846 C843 1.499 . S
C846 C847 1.373 . S
C846 C848 1.389 . S
C847 H826 0.950 . S
C847 C846 1.373 . S
C847 C863 1.377 . S
C848 C846 1.389 . S
C848 C849 1.524 . S
C848 C862 1.377 . S
C849 C848 1.524 . S
C849 C850 1.397 . S
C849 C854 1.363 . S
C850 H827 0.950 . S
C850 C849 1.397 . S
C850 C851 1.334 . S
C851 H828 0.950 . S
C851 C850 1.334 . S
C851 C852 1.287 . S
C852 C851 1.287 . S
C852 C853 1.524 . S
C852 H871 0.913 . S
C853 H829 0.950 . S
C853 C852 1.524 . S
C853 C854 1.415 . S
C854 H830 0.950 . S
C854 C849 1.363 . S
C854 C853 1.415 . S
C855 H831 0.951 . S
C855 C856 1.366 . S
C855 C857 1.388 . S
C856 C855 1.366 . S
C856 C860 1.385 . S
C857 H832 0.951 . S
C857 C855 1.388 . S
C857 C858 1.366 . S
C858 C857 1.366 . S
C858 C859 1.414 . S
C858 C861 1.499 . S
C859 H833 0.950 . S
C859 C858 1.414 . S
C859 C860 1.374 . S
C860 H834 0.950 . S
C860 C856 1.385 . S
C860 C859 1.374 . S
C861 C858 1.499 . S
C861 C862 1.373 . S
C861 C863 1.389 . S
C862 H835 0.950 . S
C862 C848 1.377 . S
C862 C861 1.373 . S
C863 C847 1.377 . S
C863 C861 1.389 . S
C863 C864 1.524 . S
C864 C863 1.524 . S
C864 C865 1.397 . S
C864 C869 1.363 . S
C865 H836 0.950 . S
C865 C864 1.397 . S
C865 C866 1.334 . S
C866 H837 0.950 . S
C866 C865 1.334 . S
C866 C867 1.287 . S
C867 C866 1.287 . S
C867 C868 1.524 . S
C867 H870 0.999 . S
C868 H838 0.950 . S
C868 C867 1.524 . S
C868 C869 1.415 . S
C869 H839 0.950 . S
C869 C864 1.363 . S
C869 C868 1.415 . S
H870 C867 0.999 . S
H871 C852 0.913 . S
H872 C890 0.951 . S
H873 C892 0.951 . S
H874 C894 0.962 . S
H875 C895 0.950 . S
H876 C897 0.950 . S
H877 C900 0.950 . S
H878 C901 0.950 . S
H879 C903 0.950 . S
H880 C904 0.950 . S
H881 C905 0.951 . S
H882 C907 0.951 . S
H883 C909 0.950 . S
H884 C910 0.950 . S
H885 C912 0.950 . S
H886 C915 0.950 . S
H887 C916 0.950 . S
H888 C918 0.950 . S
H889 C919 0.950 . S
C890 H872 0.951 . S
C890 C891 1.366 . S
C890 C892 1.388 1_565 S
C891 C890 1.366 . S
C891 C895 1.385 . S
C892 H873 0.951 . S
C892 C890 1.388 1_545 S
C892 C893 1.366 . S
C893 C892 1.366 . S
C893 C894 1.414 1_545 S
C893 C896 1.499 . S
C894 H874 0.962 . S
C894 C893 1.414 1_565 S
C894 C895 1.374 . S
C895 H875 0.950 . S
C895 C891 1.385 . S
C895 C894 1.374 . S
C896 C893 1.499 . S
C896 C897 1.373 . S
C896 C898 1.389 . S
C897 H876 0.950 . S
C897 C896 1.373 . S
C897 C913 1.377 . S
C898 C896 1.389 . S
C898 C899 1.524 . S
C898 C912 1.377 . S
C899 C898 1.524 . S
C899 C900 1.397 . S
C899 C904 1.363 . S
C900 H877 0.950 . S
C900 C899 1.397 . S
C900 C901 1.334 . S
C901 H878 0.950 . S
C901 C900 1.334 . S
C901 C902 1.287 . S
C902 C901 1.287 . S
C902 C903 1.524 . S
C902 H921 0.913 . S
C903 H879 0.950 . S
C903 C902 1.524 . S
C903 C904 1.415 . S
C904 H880 0.950 . S
C904 C899 1.363 . S
C904 C903 1.415 . S
C905 H881 0.951 . S
C905 C906 1.366 . S
C905 C907 1.388 . S
C906 C905 1.366 . S
C906 C910 1.385 . S
C907 H882 0.951 . S
C907 C905 1.388 . S
C907 C908 1.366 . S
C908 C907 1.366 . S
C908 C909 1.414 . S
C908 C911 1.499 . S
C909 H883 0.950 . S
C909 C908 1.414 . S
C909 C910 1.374 . S
C910 H884 0.950 . S
C910 C906 1.385 . S
C910 C909 1.374 . S
C911 C908 1.499 . S
C911 C912 1.373 . S
C911 C913 1.389 . S
C912 H885 0.950 . S
C912 C898 1.377 . S
C912 C911 1.373 . S
C913 C897 1.377 . S
C913 C911 1.389 . S
C913 C914 1.524 . S
C914 C913 1.524 . S
C914 C915 1.397 . S
C914 C919 1.363 . S
C915 H886 0.950 . S
C915 C914 1.397 . S
C915 C916 1.334 . S
C916 H887 0.950 . S
C916 C915 1.334 . S
C916 C917 1.287 . S
C917 C916 1.287 . S
C917 C918 1.524 . S
C917 H920 0.999 . S
C918 H888 0.950 . S
C918 C917 1.524 . S
C918 C919 1.415 . S
C919 H889 0.950 . S
C919 C914 1.363 . S
C919 C918 1.415 . S
H920 C917 0.999 . S
H921 C902 0.913 . S
H922 C940 0.951 . S
H923 C942 0.951 . S
H924 C944 0.950 . S
H925 C945 0.950 . S
H926 C947 0.950 1_655 S
H927 C950 0.950 . S
H928 C951 0.950 . S
H929 C953 0.950 . S
H930 C954 0.950 . S
H931 C955 0.940 1_655 S
H932 C957 0.951 1_565 S
H933 C959 0.950 . S
H934 C960 0.950 . S
H935 C962 0.950 . S
H936 C965 0.950 . S
H937 C966 0.950 . S
H938 C968 0.950 . S
H939 C969 0.950 . S
C940 H922 0.951 . S
C940 C941 1.366 . S
C940 C942 1.388 . S
C941 C940 1.366 . S
C941 C945 1.385 . S
C942 H923 0.951 . S
C942 C940 1.388 . S
C942 C943 1.366 . S
C943 C942 1.366 . S
C943 C944 1.414 . S
C943 C946 1.499 . S
C944 H924 0.950 . S
C944 C943 1.414 . S
C944 C945 1.374 . S
C945 H925 0.950 . S
C945 C941 1.385 . S
C945 C944 1.374 . S
C946 C943 1.499 . S
C946 C947 1.373 . S
C946 C948 1.389 . S
C947 H926 0.950 1_455 S
C947 C946 1.373 . S
C947 C963 1.377 1_455 S
C948 C946 1.389 . S
C948 C949 1.524 . S
C948 C962 1.377 . S
C949 C948 1.524 . S
C949 C950 1.397 . S
C949 C954 1.363 . S
C950 H927 0.950 . S
C950 C949 1.397 . S
C950 C951 1.334 . S
C951 H928 0.950 . S
C951 C950 1.334 . S
C951 C952 1.287 . S
C952 C951 1.287 . S
C952 C953 1.524 . S
C952 H971 0.913 . S
C953 H929 0.950 . S
C953 C952 1.524 . S
C953 C954 1.415 . S
C954 H930 0.950 . S
C954 C949 1.363 . S
C954 C953 1.415 . S
C955 H931 0.940 1_455 S
C955 C956 1.366 . S
C955 C957 1.388 . S
C956 C955 1.366 . S
C956 C960 1.385 . S
C957 H932 0.951 1_545 S
C957 C955 1.388 . S
C957 C958 1.366 1_545 S
C958 C957 1.366 1_565 S
C958 C959 1.414 . S
C958 C961 1.499 . S
C959 H933 0.950 . S
C959 C958 1.414 . S
C959 C960 1.374 1_565 S
C960 H934 0.950 . S
C960 C956 1.385 . S
C960 C959 1.374 1_545 S
C961 C958 1.499 . S
C961 C962 1.373 . S
C961 C963 1.389 1_455 S
C962 H935 0.950 . S
C962 C948 1.377 . S
C962 C961 1.373 . S
C963 C947 1.377 1_655 S
C963 C961 1.389 1_655 S
C963 C964 1.524 . S
C964 C963 1.524 . S
C964 C965 1.397 . S
C964 C969 1.363 . S
C965 H936 0.950 . S
C965 C964 1.397 . S
C965 C966 1.334 . S
C966 H937 0.950 . S
C966 C965 1.334 . S
C966 C967 1.287 . S
C967 C966 1.287 . S
C967 C968 1.524 . S
C967 H970 0.999 . S
C968 H938 0.950 . S
C968 C967 1.524 . S
C968 C969 1.415 . S
C969 H939 0.950 . S
C969 C964 1.363 . S
C969 C968 1.415 . S
H970 C967 0.999 . S
H971 C952 0.913 . S
H972 C990 0.951 . S
H973 C992 0.951 . S
H974 C994 0.950 . S
H975 C995 0.950 . S
H976 C997 0.950 . S
H977 C1000 0.950 . S
H978 C1001 0.950 . S
H979 C1003 0.950 . S
H980 C1004 0.950 . S
H981 C1005 0.951 . S
H982 C1007 0.951 . S
H983 C1009 0.950 . S
H984 C1010 0.950 . S
H985 C1012 0.950 . S
H986 C1015 0.950 . S
H987 C1016 0.935 1_545 S
H988 C1018 0.950 . S
H989 C1019 0.950 . S
C990 H972 0.951 . S
C990 C991 1.366 . S
C990 C992 1.388 . S
C991 C990 1.366 . S
C991 C995 1.385 . S
C992 H973 0.951 . S
C992 C990 1.388 . S
C992 C993 1.366 . S
C993 C992 1.366 . S
C993 C994 1.414 . S
C993 C996 1.499 . S
C994 H974 0.950 . S
C994 C993 1.414 . S
C994 C995 1.374 . S
C995 H975 0.950 . S
C995 C991 1.385 . S
C995 C994 1.374 . S
C996 C993 1.499 . S
C996 C997 1.373 . S
C996 C998 1.389 . S
C997 H976 0.950 . S
C997 C996 1.373 . S
C997 C1013 1.377 . S
C998 C996 1.389 . S
C998 C999 1.524 . S
C998 C1012 1.377 . S
C999 C998 1.524 . S
C999 C1000 1.397 . S
C999 C1004 1.363 . S
C1000 H977 0.950 . S
C1000 C999 1.397 . S
C1000 C1001 1.334 . S
C1001 H978 0.950 . S
C1001 C1000 1.334 . S
C1001 C1002 1.287 . S
C1002 C1001 1.287 . S
C1002 C1003 1.524 . S
C1002 H1021 0.913 . S
C1003 H979 0.950 . S
C1003 C1002 1.524 . S
C1003 C1004 1.415 . S
C1004 H980 0.950 . S
C1004 C999 1.363 . S
C1004 C1003 1.415 . S
C1005 H981 0.951 . S
C1005 C1006 1.366 . S
C1005 C1007 1.388 . S
C1006 C1005 1.366 . S
C1006 C1010 1.385 . S
C1007 H982 0.951 . S
C1007 C1005 1.388 . S
C1007 C1008 1.366 1_545 S
C1008 C1007 1.366 1_565 S
C1008 C1009 1.414 . S
C1008 C1011 1.499 . S
C1009 H983 0.950 . S
C1009 C1008 1.414 . S
C1009 C1010 1.374 1_565 S
C1010 H984 0.950 . S
C1010 C1006 1.385 . S
C1010 C1009 1.374 1_545 S
C1011 C1008 1.499 . S
C1011 C1012 1.373 . S
C1011 C1013 1.389 . S
C1012 H985 0.950 . S
C1012 C998 1.377 . S
C1012 C1011 1.373 . S
C1013 C997 1.377 . S
C1013 C1011 1.389 . S
C1013 C1014 1.524 . S
C1014 C1013 1.524 . S
C1014 C1015 1.397 . S
C1014 C1019 1.363 . S
C1015 H986 0.950 . S
C1015 C1014 1.397 . S
C1015 C1016 1.334 . S
C1016 H987 0.935 1_565 S
C1016 C1015 1.334 . S
C1016 C1017 1.287 . S
C1017 C1016 1.287 . S
C1017 C1018 1.524 . S
C1017 H1020 1.001 . S
C1018 H988 0.950 . S
C1018 C1017 1.524 . S
C1018 C1019 1.415 . S
C1019 H989 0.950 . S
C1019 C1014 1.363 . S
C1019 C1018 1.415 . S
H1020 C1017 1.001 . S
H1021 C1002 0.913 . S
H1022 C1040 0.951 . S
H1023 C1042 0.951 . S
H1024 C1044 0.950 1_655 S
H1025 C1045 0.950 1_655 S
H1026 C1047 0.950 . S
H1027 C1050 0.950 1_655 S
H1028 C1051 0.950 . S
H1029 C1053 0.950 . S
H1030 C1054 0.950 . S
H1031 C1055 0.951 . S
H1032 C1057 0.951 . S
H1033 C1059 0.949 1_545 S
H1034 C1060 0.950 . S
H1035 C1062 0.950 . S
H1036 C1065 0.950 . S
H1037 C1066 0.950 . S
H1038 C1068 0.950 . S
H1039 C1069 0.950 . S
C1040 H1022 0.951 . S
C1040 C1041 1.366 . S
C1040 C1042 1.388 . S
C1041 C1040 1.366 . S
C1041 C1045 1.385 . S
C1042 H1023 0.951 . S
C1042 C1040 1.388 . S
C1042 C1043 1.366 . S
C1043 C1042 1.366 . S
C1043 C1044 1.414 . S
C1043 C1046 1.499 . S
C1044 H1024 0.950 1_455 S
C1044 C1043 1.414 . S
C1044 C1045 1.374 . S
C1045 H1025 0.950 1_455 S
C1045 C1041 1.385 . S
C1045 C1044 1.374 . S
C1046 C1043 1.499 . S
C1046 C1047 1.373 . S
C1046 C1048 1.389 . S
C1047 H1026 0.950 . S
C1047 C1046 1.373 . S
C1047 C1063 1.377 . S
C1048 C1046 1.389 . S
C1048 C1049 1.524 . S
C1048 C1062 1.377 . S
C1049 C1048 1.524 . S
C1049 C1050 1.397 . S
C1049 C1054 1.363 . S
C1050 H1027 0.950 1_455 S
C1050 C1049 1.397 . S
C1050 C1051 1.334 . S
C1051 H1028 0.950 . S
C1051 C1050 1.334 . S
C1051 C1052 1.287 . S
C1052 C1051 1.287 . S
C1052 C1053 1.524 . S
C1052 H1071 0.913 . S
C1053 H1029 0.950 . S
C1053 C1052 1.524 . S
C1053 C1054 1.415 . S
C1054 H1030 0.950 . S
C1054 C1049 1.363 . S
C1054 C1053 1.415 . S
C1055 H1031 0.951 . S
C1055 C1056 1.366 1_655 S
C1055 C1057 1.388 1_565 S
C1056 C1055 1.366 1_455 S
C1056 C1060 1.385 . S
C1057 H1032 0.951 . S
C1057 C1055 1.388 1_545 S
C1057 C1058 1.366 1_655 S
C1058 C1057 1.366 1_455 S
C1058 C1059 1.414 1_545 S
C1058 C1061 1.499 . S
C1059 H1033 0.949 1_565 S
C1059 C1058 1.414 1_565 S
C1059 C1060 1.374 . S
C1060 H1034 0.950 . S
C1060 C1056 1.385 . S
C1060 C1059 1.374 . S
C1061 C1058 1.499 . S
C1061 C1062 1.373 . S
C1061 C1063 1.389 . S
C1062 H1035 0.950 . S
C1062 C1048 1.377 . S
C1062 C1061 1.373 . S
C1063 C1047 1.377 . S
C1063 C1061 1.389 . S
C1063 C1064 1.524 . S
C1064 C1063 1.524 . S
C1064 C1065 1.397 . S
C1064 C1069 1.363 1_455 S
C1065 H1036 0.950 . S
C1065 C1064 1.397 . S
C1065 C1066 1.334 . S
C1066 H1037 0.950 . S
C1066 C1065 1.334 . S
C1066 C1067 1.287 . S
C1067 C1066 1.287 . S
C1067 C1068 1.524 1_455 S
C1067 H1070 0.999 . S
C1068 H1038 0.950 . S
C1068 C1067 1.524 1_655 S
C1068 C1069 1.415 . S
C1069 H1039 0.950 . S
C1069 C1064 1.363 1_655 S
C1069 C1068 1.415 . S
H1070 C1067 0.999 . S
H1071 C1052 0.913 . S
H1072 C1090 0.951 . S
H1073 C1092 0.951 . S
H1074 C1094 0.950 1_655 S
H1075 C1095 0.950 1_655 S
H1076 C1097 0.962 1_655 S
H1077 C1100 0.950 . S
H1078 C1101 0.950 . S
H1079 C1103 0.950 . S
H1080 C1104 0.950 . S
H1081 C1105 0.951 1_655 S
H1082 C1107 0.951 1_655 S
H1083 C1109 0.950 . S
H1084 C1110 0.950 . S
H1085 C1112 0.950 . S
H1086 C1115 0.950 . S
H1087 C1116 0.950 . S
H1088 C1118 0.950 . S
H1089 C1119 0.950 . S
C1090 H1072 0.951 . S
C1090 C1091 1.366 . S
C1090 C1092 1.388 . S
C1091 C1090 1.366 . S
C1091 C1095 1.385 . S
C1092 H1073 0.951 . S
C1092 C1090 1.388 . S
C1092 C1093 1.366 . S
C1093 C1092 1.366 . S
C1093 C1094 1.414 . S
C1093 C1096 1.499 1_554 S
C1094 H1074 0.950 1_455 S
C1094 C1093 1.414 . S
C1094 C1095 1.374 . S
C1095 H1075 0.950 1_455 S
C1095 C1091 1.385 . S
C1095 C1094 1.374 . S
C1096 C1093 1.499 1_556 S
C1096 C1097 1.373 . S
C1096 C1098 1.389 . S
C1097 H1076 0.962 1_455 S
C1097 C1096 1.373 . S
C1097 C1113 1.377 . S
C1098 C1096 1.389 . S
C1098 C1099 1.524 . S
C1098 C1112 1.377 . S
C1099 C1098 1.524 . S
C1099 C1100 1.397 . S
C1099 C1104 1.363 . S
C1100 H1077 0.950 . S
C1100 C1099 1.397 . S
C1100 C1101 1.334 . S
C1101 H1078 0.950 . S
C1101 C1100 1.334 . S
C1101 C1102 1.287 . S
C1102 C1101 1.287 . S
C1102 C1103 1.524 . S
C1102 H1121 0.913 . S
C1103 H1079 0.950 . S
C1103 C1102 1.524 . S
C1103 C1104 1.415 . S
C1104 H1080 0.950 . S
C1104 C1099 1.363 . S
C1104 C1103 1.415 . S
C1105 H1081 0.951 1_455 S
C1105 C1106 1.366 . S
C1105 C1107 1.388 . S
C1106 C1105 1.366 . S
C1106 C1110 1.385 . S
C1107 H1082 0.951 1_455 S
C1107 C1105 1.388 . S
C1107 C1108 1.366 . S
C1108 C1107 1.366 . S
C1108 C1109 1.414 . S
C1108 C1111 1.499 . S
C1109 H1083 0.950 . S
C1109 C1108 1.414 . S
C1109 C1110 1.374 . S
C1110 H1084 0.950 . S
C1110 C1106 1.385 . S
C1110 C1109 1.374 . S
C1111 C1108 1.499 . S
C1111 C1112 1.373 . S
C1111 C1113 1.389 . S
C1112 H1085 0.950 . S
C1112 C1098 1.377 . S
C1112 C1111 1.373 . S
C1113 C1097 1.377 . S
C1113 C1111 1.389 . S
C1113 C1114 1.524 1_455 S
C1114 C1113 1.524 1_655 S
C1114 C1115 1.397 1_655 S
C1114 C1119 1.363 . S
C1115 H1086 0.950 . S
C1115 C1114 1.397 1_455 S
C1115 C1116 1.334 1_455 S
C1116 H1087 0.950 . S
C1116 C1115 1.334 1_655 S
C1116 C1117 1.287 . S
C1117 C1116 1.287 . S
C1117 C1118 1.524 . S
C1117 H1120 0.999 . S
C1118 H1088 0.950 . S
C1118 C1117 1.524 . S
C1118 C1119 1.415 . S
C1119 H1089 0.950 . S
C1119 C1114 1.363 . S
C1119 C1118 1.415 . S
H1120 C1117 0.999 . S
H1121 C1102 0.913 . S
H1122 C1140 0.951 . S
H1123 C1142 0.951 . S
H1124 C1144 0.950 . S
H1125 C1145 0.950 . S
H1126 C1147 0.950 . S
H1127 C1150 0.950 . S
H1128 C1151 0.950 . S
H1129 C1153 0.950 . S
H1130 C1154 0.950 . S
H1131 C1155 0.951 . S
H1132 C1157 0.951 . S
H1133 C1159 0.950 . S
H1134 C1160 0.950 . S
H1135 C1162 0.950 . S
H1136 C1165 0.950 . S
H1137 C1166 0.950 . S
H1138 C1168 0.950 . S
H1139 C1169 0.950 . S
C1140 H1122 0.951 . S
C1140 C1141 1.366 . S
C1140 C1142 1.388 . S
C1141 C1140 1.366 . S
C1141 C1145 1.385 . S
C1142 H1123 0.951 . S
C1142 C1140 1.388 . S
C1142 C1143 1.366 . S
C1143 C1142 1.366 . S
C1143 C1144 1.414 . S
C1143 C1146 1.499 . S
C1144 H1124 0.950 . S
C1144 C1143 1.414 . S
C1144 C1145 1.374 . S
C1145 H1125 0.950 . S
C1145 C1141 1.385 . S
C1145 C1144 1.374 . S
C1146 C1143 1.499 . S
C1146 C1147 1.373 . S
C1146 C1148 1.389 . S
C1147 H1126 0.950 . S
C1147 C1146 1.373 . S
C1147 C1163 1.377 . S
C1148 C1146 1.389 . S
C1148 C1149 1.524 . S
C1148 C1162 1.377 . S
C1149 C1148 1.524 . S
C1149 C1150 1.397 . S
C1149 C1154 1.363 . S
C1150 H1127 0.950 . S
C1150 C1149 1.397 . S
C1150 C1151 1.334 . S
C1151 H1128 0.950 . S
C1151 C1150 1.334 . S
C1151 C1152 1.287 . S
C1152 C1151 1.287 . S
C1152 C1153 1.524 . S
C1152 H1171 0.913 . S
C1153 H1129 0.950 . S
C1153 C1152 1.524 . S
C1153 C1154 1.415 . S
C1154 H1130 0.950 . S
C1154 C1149 1.363 . S
C1154 C1153 1.415 . S
C1155 H1131 0.951 . S
C1155 C1156 1.366 . S
C1155 C1157 1.388 . S
C1156 C1155 1.366 . S
C1156 C1160 1.385 . S
C1157 H1132 0.951 . S
C1157 C1155 1.388 . S
C1157 C1158 1.366 . S
C1158 C1157 1.366 . S
C1158 C1159 1.414 . S
C1158 C1161 1.499 . S
C1159 H1133 0.950 . S
C1159 C1158 1.414 . S
C1159 C1160 1.374 . S
C1160 H1134 0.950 . S
C1160 C1156 1.385 . S
C1160 C1159 1.374 . S
C1161 C1158 1.499 . S
C1161 C1162 1.373 . S
C1161 C1163 1.389 . S
C1162 H1135 0.950 . S
C1162 C1148 1.377 . S
C1162 C1161 1.373 . S
C1163 C1147 1.377 . S
C1163 C1161 1.389 . S
C1163 C1164 1.524 . S
C1164 C1163 1.524 . S
C1164 C1165 1.397 . S
C1164 C1169 1.363 . S
C1165 H1136 0.950 . S
C1165 C1164 1.397 . S
C1165 C1166 1.334 . S
C1166 H1137 0.950 . S
C1166 C1165 1.334 . S
C1166 C1167 1.287 . S
C1167 C1166 1.287 . S
C1167 C1168 1.524 . S
C1167 H1170 0.999 . S
C1168 H1138 0.950 . S
C1168 C1167 1.524 . S
C1168 C1169 1.415 . S
C1169 H1139 0.950 . S
C1169 C1164 1.363 . S
C1169 C1168 1.415 . S
H1170 C1167 0.999 . S
H1171 C1152 0.913 . S
H1172 C1190 0.951 . S
H1173 C1192 0.951 . S
H1174 C1194 0.950 1_655 S
H1175 C1195 0.950 1_655 S
H1176 C1197 0.950 . S
H1177 C1200 0.950 . S
H1178 C1201 0.950 . S
H1179 C1203 0.950 . S
H1180 C1204 0.950 . S
H1181 C1205 0.951 1_655 S
H1182 C1207 0.951 1_655 S
H1183 C1209 0.950 . S
H1184 C1210 0.950 . S
H1185 C1212 0.950 1_556 S
H1186 C1215 0.950 . S
H1187 C1216 0.950 . S
H1188 C1218 0.950 . S
H1189 C1219 0.950 . S
C1190 H1172 0.951 . S
C1190 C1191 1.366 . S
C1190 C1192 1.388 . S
C1191 C1190 1.366 . S
C1191 C1195 1.385 . S
C1192 H1173 0.951 . S
C1192 C1190 1.388 . S
C1192 C1193 1.366 . S
C1193 C1192 1.366 . S
C1193 C1194 1.414 . S
C1193 C1196 1.499 . S
C1194 H1174 0.950 1_455 S
C1194 C1193 1.414 . S
C1194 C1195 1.374 . S
C1195 H1175 0.950 1_455 S
C1195 C1191 1.385 . S
C1195 C1194 1.374 . S
C1196 C1193 1.499 . S
C1196 C1197 1.373 . S
C1196 C1198 1.389 . S
C1197 H1176 0.950 . S
C1197 C1196 1.373 . S
C1197 C1213 1.377 . S
C1198 C1196 1.389 . S
C1198 C1199 1.524 . S
C1198 C1212 1.377 . S
C1199 C1198 1.524 . S
C1199 C1200 1.397 . S
C1199 C1204 1.363 . S
C1200 H1177 0.950 . S
C1200 C1199 1.397 . S
C1200 C1201 1.334 . S
C1201 H1178 0.950 . S
C1201 C1200 1.334 . S
C1201 C1202 1.287 . S
C1202 C1201 1.287 . S
C1202 C1203 1.524 . S
C1202 H1221 0.913 . S
C1203 H1179 0.950 . S
C1203 C1202 1.524 . S
C1203 C1204 1.415 . S
C1204 H1180 0.950 . S
C1204 C1199 1.363 . S
C1204 C1203 1.415 . S
C1205 H1181 0.951 1_455 S
C1205 C1206 1.366 . S
C1205 C1207 1.388 . S
C1206 C1205 1.366 . S
C1206 C1210 1.385 . S
C1207 H1182 0.951 1_455 S
C1207 C1205 1.388 . S
C1207 C1208 1.366 . S
C1208 C1207 1.366 . S
C1208 C1209 1.414 . S
C1208 C1211 1.499 1_556 S
C1209 H1183 0.950 . S
C1209 C1208 1.414 . S
C1209 C1210 1.374 . S
C1210 H1184 0.950 . S
C1210 C1206 1.385 . S
C1210 C1209 1.374 . S
C1211 C1208 1.499 1_554 S
C1211 C1212 1.373 . S
C1211 C1213 1.389 . S
C1212 H1185 0.950 1_554 S
C1212 C1198 1.377 . S
C1212 C1211 1.373 . S
C1213 C1197 1.377 . S
C1213 C1211 1.389 . S
C1213 C1214 1.524 . S
C1214 C1213 1.524 . S
C1214 C1215 1.397 . S
C1214 C1219 1.363 1_455 S
C1215 H1186 0.950 . S
C1215 C1214 1.397 . S
C1215 C1216 1.334 . S
C1216 H1187 0.950 . S
C1216 C1215 1.334 . S
C1216 C1217 1.287 . S
C1217 C1216 1.287 . S
C1217 C1218 1.524 1_455 S
C1217 H1220 0.999 1_455 S
C1218 H1188 0.950 . S
C1218 C1217 1.524 1_655 S
C1218 C1219 1.415 . S
C1219 H1189 0.950 . S
C1219 C1214 1.363 1_655 S
C1219 C1218 1.415 . S
H1220 C1217 0.999 1_655 S
H1221 C1202 0.913 . S
H1222 C1240 0.951 . S
H1223 C1242 0.951 . S
H1224 C1244 0.950 . S
H1225 C1245 0.950 . S
H1226 C1247 0.950 . S
H1227 C1250 0.950 . S
H1228 C1251 0.950 . S
H1229 C1253 0.950 . S
H1230 C1254 0.950 . S
H1231 C1255 0.951 . S
H1232 C1257 0.951 . S
H1233 C1259 0.950 . S
H1234 C1260 0.950 . S
H1235 C1262 0.950 . S
H1236 C1265 0.950 . S
H1237 C1266 0.950 . S
H1238 C1268 0.950 . S
H1239 C1269 0.950 . S
C1240 H1222 0.951 . S
C1240 C1241 1.366 . S
C1240 C1242 1.388 . S
C1241 C1240 1.366 . S
C1241 C1245 1.385 . S
C1242 H1223 0.951 . S
C1242 C1240 1.388 . S
C1242 C1243 1.366 . S
C1243 C1242 1.366 . S
C1243 C1244 1.414 . S
C1243 C1246 1.499 . S
C1244 H1224 0.950 . S
C1244 C1243 1.414 . S
C1244 C1245 1.374 . S
C1245 H1225 0.950 . S
C1245 C1241 1.385 . S
C1245 C1244 1.374 . S
C1246 C1243 1.499 . S
C1246 C1247 1.373 . S
C1246 C1248 1.389 . S
C1247 H1226 0.950 . S
C1247 C1246 1.373 . S
C1247 C1263 1.377 . S
C1248 C1246 1.389 . S
C1248 C1249 1.524 . S
C1248 C1262 1.377 . S
C1249 C1248 1.524 . S
C1249 C1250 1.397 . S
C1249 C1254 1.363 . S
C1250 H1227 0.950 . S
C1250 C1249 1.397 . S
C1250 C1251 1.334 . S
C1251 H1228 0.950 . S
C1251 C1250 1.334 . S
C1251 C1252 1.287 . S
C1252 C1251 1.287 . S
C1252 C1253 1.524 . S
C1252 H1271 0.913 . S
C1253 H1229 0.950 . S
C1253 C1252 1.524 . S
C1253 C1254 1.415 . S
C1254 H1230 0.950 . S
C1254 C1249 1.363 . S
C1254 C1253 1.415 . S
C1255 H1231 0.951 . S
C1255 C1256 1.366 . S
C1255 C1257 1.388 . S
C1256 C1255 1.366 . S
C1256 C1260 1.385 . S
C1257 H1232 0.951 . S
C1257 C1255 1.388 . S
C1257 C1258 1.366 . S
C1258 C1257 1.366 . S
C1258 C1259 1.414 . S
C1258 C1261 1.499 . S
C1259 H1233 0.950 . S
C1259 C1258 1.414 . S
C1259 C1260 1.374 . S
C1260 H1234 0.950 . S
C1260 C1256 1.385 . S
C1260 C1259 1.374 . S
C1261 C1258 1.499 . S
C1261 C1262 1.373 . S
C1261 C1263 1.389 . S
C1262 H1235 0.950 . S
C1262 C1248 1.377 . S
C1262 C1261 1.373 . S
C1263 C1247 1.377 . S
C1263 C1261 1.389 . S
C1263 C1264 1.524 . S
C1264 C1263 1.524 . S
C1264 C1265 1.397 . S
C1264 C1269 1.363 . S
C1265 H1236 0.950 . S
C1265 C1264 1.397 . S
C1265 C1266 1.334 . S
C1266 H1237 0.950 . S
C1266 C1265 1.334 . S
C1266 C1267 1.287 . S
C1267 C1266 1.287 . S
C1267 C1268 1.524 . S
C1267 H1270 0.999 . S
C1268 H1238 0.950 . S
C1268 C1267 1.524 . S
C1268 C1269 1.415 . S
C1269 H1239 0.950 . S
C1269 C1264 1.363 . S
C1269 C1268 1.415 . S
H1270 C1267 0.999 . S
H1271 C1252 0.913 . S
H1272 C1290 0.951 . S
H1273 C1292 0.951 . S
H1274 C1294 0.950 . S
H1275 C1295 0.950 . S
H1276 C1297 0.950 . S
H1277 C1300 0.950 . S
H1278 C1301 0.950 . S
H1279 C1303 0.950 . S
H1280 C1304 0.950 . S
H1281 C1305 0.951 . S
H1282 C1307 0.951 . S
H1283 C1309 0.950 . S
H1284 C1310 0.950 . S
H1285 C1312 0.950 . S
H1286 C1315 0.950 . S
H1287 C1316 0.950 . S
H1288 C1318 0.950 . S
H1289 C1319 0.950 . S
C1290 H1272 0.951 . S
C1290 C1291 1.366 . S
C1290 C1292 1.388 . S
C1291 C1290 1.366 . S
C1291 C1295 1.385 . S
C1292 H1273 0.951 . S
C1292 C1290 1.388 . S
C1292 C1293 1.366 . S
C1293 C1292 1.366 . S
C1293 C1294 1.414 . S
C1293 C1296 1.499 1_554 S
C1294 H1274 0.950 . S
C1294 C1293 1.414 . S
C1294 C1295 1.374 . S
C1295 H1275 0.950 . S
C1295 C1291 1.385 . S
C1295 C1294 1.374 . S
C1296 C1293 1.499 1_556 S
C1296 C1297 1.373 . S
C1296 C1298 1.389 . S
C1297 H1276 0.950 . S
C1297 C1296 1.373 . S
C1297 C1313 1.377 . S
C1298 C1296 1.389 . S
C1298 C1299 1.524 1_556 S
C1298 C1312 1.377 . S
C1299 C1298 1.524 1_554 S
C1299 C1300 1.397 . S
C1299 C1304 1.363 . S
C1300 H1277 0.950 . S
C1300 C1299 1.397 . S
C1300 C1301 1.334 . S
C1301 H1278 0.950 . S
C1301 C1300 1.334 . S
C1301 C1302 1.287 . S
C1302 C1301 1.287 . S
C1302 C1303 1.524 . S
C1302 H1321 0.913 . S
C1303 H1279 0.950 . S
C1303 C1302 1.524 . S
C1303 C1304 1.415 . S
C1304 H1280 0.950 . S
C1304 C1299 1.363 . S
C1304 C1303 1.415 . S
C1305 H1281 0.951 . S
C1305 C1306 1.366 . S
C1305 C1307 1.388 . S
C1306 C1305 1.366 . S
C1306 C1310 1.385 . S
C1307 H1282 0.951 . S
C1307 C1305 1.388 . S
C1307 C1308 1.366 . S
C1308 C1307 1.366 . S
C1308 C1309 1.414 . S
C1308 C1311 1.499 . S
C1309 H1283 0.950 . S
C1309 C1308 1.414 . S
C1309 C1310 1.374 . S
C1310 H1284 0.950 . S
C1310 C1306 1.385 . S
C1310 C1309 1.374 . S
C1311 C1308 1.499 . S
C1311 C1312 1.373 . S
C1311 C1313 1.389 . S
C1312 H1285 0.950 . S
C1312 C1298 1.377 . S
C1312 C1311 1.373 . S
C1313 C1297 1.377 . S
C1313 C1311 1.389 . S
C1313 C1314 1.524 . S
C1314 C1313 1.524 . S
C1314 C1315 1.397 . S
C1314 C1319 1.363 . S
C1315 H1286 0.950 . S
C1315 C1314 1.397 . S
C1315 C1316 1.334 . S
C1316 H1287 0.950 . S
C1316 C1315 1.334 . S
C1316 C1317 1.287 . S
C1317 C1316 1.287 . S
C1317 C1318 1.524 . S
C1317 H1320 0.999 . S
C1318 H1288 0.950 . S
C1318 C1317 1.524 . S
C1318 C1319 1.415 . S
C1319 H1289 0.950 . S
C1319 C1314 1.363 . S
C1319 C1318 1.415 . S
H1320 C1317 0.999 . S
H1321 C1302 0.913 . S
H1322 C1340 0.951 . S
H1323 C1342 0.951 . S
H1324 C1344 0.950 . S
H1325 C1345 0.950 . S
H1326 C1347 0.950 . S
H1327 C1350 0.950 1_455 S
H1328 C1351 0.950 . S
H1329 C1353 0.950 . S
H1330 C1354 0.950 . S
H1331 C1355 0.951 . S
H1332 C1357 0.951 . S
H1333 C1359 0.950 . S
H1334 C1360 0.950 . S
H1335 C1362 0.950 . S
H1336 C1365 0.950 . S
H1337 C1366 0.950 . S
H1338 C1368 0.950 . S
H1339 C1369 0.950 . S
C1340 H1322 0.951 . S
C1340 C1341 1.366 . S
C1340 C1342 1.388 . S
C1341 C1340 1.366 . S
C1341 C1345 1.385 . S
C1342 H1323 0.951 . S
C1342 C1340 1.388 . S
C1342 C1343 1.366 . S
C1343 C1342 1.366 . S
C1343 C1344 1.414 . S
C1343 C1346 1.499 . S
C1344 H1324 0.950 . S
C1344 C1343 1.414 . S
C1344 C1345 1.374 . S
C1345 H1325 0.950 . S
C1345 C1341 1.385 . S
C1345 C1344 1.374 . S
C1346 C1343 1.499 . S
C1346 C1347 1.373 . S
C1346 C1348 1.389 . S
C1347 H1326 0.950 . S
C1347 C1346 1.373 . S
C1347 C1363 1.377 . S
C1348 C1346 1.389 . S
C1348 C1349 1.524 1_455 S
C1348 C1362 1.377 . S
C1349 C1348 1.524 1_655 S
C1349 C1350 1.397 . S
C1349 C1354 1.363 . S
C1350 H1327 0.950 1_655 S
C1350 C1349 1.397 . S
C1350 C1351 1.334 . S
C1351 H1328 0.950 . S
C1351 C1350 1.334 . S
C1351 C1352 1.287 . S
C1352 C1351 1.287 . S
C1352 C1353 1.524 . S
C1352 H1371 0.913 . S
C1353 H1329 0.950 . S
C1353 C1352 1.524 . S
C1353 C1354 1.415 . S
C1354 H1330 0.950 . S
C1354 C1349 1.363 . S
C1354 C1353 1.415 . S
C1355 H1331 0.951 . S
C1355 C1356 1.366 . S
C1355 C1357 1.388 . S
C1356 C1355 1.366 . S
C1356 C1360 1.385 . S
C1357 H1332 0.951 . S
C1357 C1355 1.388 . S
C1357 C1358 1.366 . S
C1358 C1357 1.366 . S
C1358 C1359 1.414 . S
C1358 C1361 1.499 . S
C1359 H1333 0.950 . S
C1359 C1358 1.414 . S
C1359 C1360 1.374 . S
C1360 H1334 0.950 . S
C1360 C1356 1.385 . S
C1360 C1359 1.374 . S
C1361 C1358 1.499 . S
C1361 C1362 1.373 . S
C1361 C1363 1.389 . S
C1362 H1335 0.950 . S
C1362 C1348 1.377 . S
C1362 C1361 1.373 . S
C1363 C1347 1.377 . S
C1363 C1361 1.389 . S
C1363 C1364 1.524 . S
C1364 C1363 1.524 . S
C1364 C1365 1.397 . S
C1364 C1369 1.363 . S
C1365 H1336 0.950 . S
C1365 C1364 1.397 . S
C1365 C1366 1.334 . S
C1366 H1337 0.950 . S
C1366 C1365 1.334 . S
C1366 C1367 1.287 . S
C1367 C1366 1.287 . S
C1367 C1368 1.524 . S
C1367 H1370 0.999 . S
C1368 H1338 0.950 . S
C1368 C1367 1.524 . S
C1368 C1369 1.415 . S
C1369 H1339 0.950 . S
C1369 C1364 1.363 . S
C1369 C1368 1.415 . S
H1370 C1367 0.999 . S
H1371 C1352 0.913 . S
H1372 C1390 0.951 . S
H1373 C1392 0.951 . S
H1374 C1394 0.950 . S
H1375 C1395 0.950 . S
H1376 C1397 0.950 1_556 S
H1377 C1400 0.950 1_556 S
H1378 C1401 0.950 1_556 S
H1379 C1403 0.950 . S
H1380 C1404 0.950 . S
H1381 C1405 0.951 . S
H1382 C1407 0.951 . S
H1383 C1409 0.950 . S
H1384 C1410 0.950 . S
H1385 C1412 0.950 . S
H1386 C1415 0.950 . S
H1387 C1416 0.950 . S
H1388 C1418 0.950 . S
H1389 C1419 0.950 . S
C1390 H1372 0.951 . S
C1390 C1391 1.366 . S
C1390 C1392 1.388 . S
C1391 C1390 1.366 . S
C1391 C1395 1.385 . S
C1392 H1373 0.951 . S
C1392 C1390 1.388 . S
C1392 C1393 1.366 . S
C1393 C1392 1.366 . S
C1393 C1394 1.414 . S
C1393 C1396 1.499 1_556 S
C1394 H1374 0.950 . S
C1394 C1393 1.414 . S
C1394 C1395 1.374 . S
C1395 H1375 0.950 . S
C1395 C1391 1.385 . S
C1395 C1394 1.374 . S
C1396 C1393 1.499 1_554 S
C1396 C1397 1.373 . S
C1396 C1398 1.389 . S
C1397 H1376 0.950 1_554 S
C1397 C1396 1.373 . S
C1397 C1413 1.377 . S
C1398 C1396 1.389 . S
C1398 C1399 1.524 . S
C1398 C1412 1.377 . S
C1399 C1398 1.524 . S
C1399 C1400 1.397 . S
C1399 C1404 1.363 . S
C1400 H1377 0.950 1_554 S
C1400 C1399 1.397 . S
C1400 C1401 1.334 . S
C1401 H1378 0.950 1_554 S
C1401 C1400 1.334 . S
C1401 C1402 1.287 . S
C1402 C1401 1.287 . S
C1402 C1403 1.524 . S
C1402 H1421 0.913 . S
C1403 H1379 0.950 . S
C1403 C1402 1.524 . S
C1403 C1404 1.415 . S
C1404 H1380 0.950 . S
C1404 C1399 1.363 . S
C1404 C1403 1.415 . S
C1405 H1381 0.951 . S
C1405 C1406 1.366 . S
C1405 C1407 1.388 . S
C1406 C1405 1.366 . S
C1406 C1410 1.385 . S
C1407 H1382 0.951 . S
C1407 C1405 1.388 . S
C1407 C1408 1.366 . S
C1408 C1407 1.366 . S
C1408 C1409 1.414 . S
C1408 C1411 1.499 . S
C1409 H1383 0.950 . S
C1409 C1408 1.414 . S
C1409 C1410 1.374 . S
C1410 H1384 0.950 . S
C1410 C1406 1.385 . S
C1410 C1409 1.374 . S
C1411 C1408 1.499 . S
C1411 C1412 1.373 . S
C1411 C1413 1.389 . S
C1412 H1385 0.950 . S
C1412 C1398 1.377 . S
C1412 C1411 1.373 . S
C1413 C1397 1.377 . S
C1413 C1411 1.389 . S
C1413 C1414 1.524 . S
C1414 C1413 1.524 . S
C1414 C1415 1.397 . S
C1414 C1419 1.363 . S
C1415 H1386 0.950 . S
C1415 C1414 1.397 . S
C1415 C1416 1.334 . S
C1416 H1387 0.950 . S
C1416 C1415 1.334 . S
C1416 C1417 1.287 . S
C1417 C1416 1.287 . S
C1417 C1418 1.524 . S
C1417 H1420 0.999 . S
C1418 H1388 0.950 . S
C1418 C1417 1.524 . S
C1418 C1419 1.415 . S
C1419 H1389 0.950 . S
C1419 C1414 1.363 . S
C1419 C1418 1.415 . S
H1420 C1417 0.999 . S
H1421 C1402 0.913 . S
H1422 C1440 0.951 . S
H1423 C1442 0.951 . S
H1424 C1444 0.950 . S
H1425 C1445 0.950 . S
H1426 C1447 0.950 . S
H1427 C1450 0.950 . S
H1428 C1451 0.950 . S
H1429 C1453 0.950 . S
H1430 C1454 0.950 . S
H1431 C1455 0.951 . S
H1432 C1457 0.951 . S
H1433 C1459 0.950 . S
H1434 C1460 0.950 . S
H1435 C1462 0.950 . S
H1436 C1465 0.950 . S
H1437 C1466 0.950 . S
H1438 C1468 0.950 . S
H1439 C1469 0.950 . S
C1440 H1422 0.951 . S
C1440 C1441 1.366 . S
C1440 C1442 1.388 . S
C1441 C1440 1.366 . S
C1441 C1445 1.385 . S
C1442 H1423 0.951 . S
C1442 C1440 1.388 . S
C1442 C1443 1.366 . S
C1443 C1442 1.366 . S
C1443 C1444 1.414 . S
C1443 C1446 1.499 . S
C1444 H1424 0.950 . S
C1444 C1443 1.414 . S
C1444 C1445 1.374 . S
C1445 H1425 0.950 . S
C1445 C1441 1.385 . S
C1445 C1444 1.374 . S
C1446 C1443 1.499 . S
C1446 C1447 1.373 . S
C1446 C1448 1.389 . S
C1447 H1426 0.950 . S
C1447 C1446 1.373 . S
C1447 C1463 1.377 . S
C1448 C1446 1.389 . S
C1448 C1449 1.524 . S
C1448 C1462 1.377 . S
C1449 C1448 1.524 . S
C1449 C1450 1.397 . S
C1449 C1454 1.363 . S
C1450 H1427 0.950 . S
C1450 C1449 1.397 . S
C1450 C1451 1.334 . S
C1451 H1428 0.950 . S
C1451 C1450 1.334 . S
C1451 C1452 1.287 . S
C1452 C1451 1.287 . S
C1452 C1453 1.524 . S
C1452 H1471 0.913 . S
C1453 H1429 0.950 . S
C1453 C1452 1.524 . S
C1453 C1454 1.415 . S
C1454 H1430 0.950 . S
C1454 C1449 1.363 . S
C1454 C1453 1.415 . S
C1455 H1431 0.951 . S
C1455 C1456 1.366 . S
C1455 C1457 1.388 . S
C1456 C1455 1.366 . S
C1456 C1460 1.385 . S
C1457 H1432 0.951 . S
C1457 C1455 1.388 . S
C1457 C1458 1.366 . S
C1458 C1457 1.366 . S
C1458 C1459 1.414 . S
C1458 C1461 1.499 . S
C1459 H1433 0.950 . S
C1459 C1458 1.414 . S
C1459 C1460 1.374 . S
C1460 H1434 0.950 . S
C1460 C1456 1.385 . S
C1460 C1459 1.374 . S
C1461 C1458 1.499 . S
C1461 C1462 1.373 . S
C1461 C1463 1.389 . S
C1462 H1435 0.950 . S
C1462 C1448 1.377 . S
C1462 C1461 1.373 . S
C1463 C1447 1.377 . S
C1463 C1461 1.389 . S
C1463 C1464 1.524 . S
C1464 C1463 1.524 . S
C1464 C1465 1.397 . S
C1464 C1469 1.363 . S
C1465 H1436 0.950 . S
C1465 C1464 1.397 . S
C1465 C1466 1.334 . S
C1466 H1437 0.950 . S
C1466 C1465 1.334 . S
C1466 C1467 1.287 . S
C1467 C1466 1.287 . S
C1467 C1468 1.524 . S
C1467 H1470 0.999 . S
C1468 H1438 0.950 . S
C1468 C1467 1.524 . S
C1468 C1469 1.415 . S
C1469 H1439 0.950 . S
C1469 C1464 1.363 . S
C1469 C1468 1.415 . S
H1470 C1467 0.999 . S
H1471 C1452 0.913 . S
H1472 C1490 0.951 . S
H1473 C1492 0.951 . S
H1474 C1494 0.950 . S
H1475 C1495 0.950 . S
H1476 C1497 0.950 . S
H1477 C1500 0.950 . S
H1478 C1501 0.950 . S
H1479 C1503 0.957 . S
H1480 C1504 0.950 . S
H1481 C1505 0.951 . S
H1482 C1507 0.951 . S
H1483 C1509 0.950 . S
H1484 C1510 0.950 . S
H1485 C1512 0.950 . S
H1486 C1515 0.950 . S
H1487 C1516 0.950 . S
H1488 C1518 0.950 . S
H1489 C1519 0.950 . S
C1490 H1472 0.951 . S
C1490 C1491 1.366 . S
C1490 C1492 1.388 . S
C1491 C1490 1.366 . S
C1491 C1495 1.385 . S
C1492 H1473 0.951 . S
C1492 C1490 1.388 . S
C1492 C1493 1.366 . S
C1493 C1492 1.366 . S
C1493 C1494 1.414 . S
C1493 C1496 1.499 . S
C1494 H1474 0.950 . S
C1494 C1493 1.414 . S
C1494 C1495 1.374 . S
C1495 H1475 0.950 . S
C1495 C1491 1.385 . S
C1495 C1494 1.374 . S
C1496 C1493 1.499 . S
C1496 C1497 1.373 1_554 S
C1496 C1498 1.389 . S
C1497 H1476 0.950 . S
C1497 C1496 1.373 1_556 S
C1497 C1513 1.377 . S
C1498 C1496 1.389 . S
C1498 C1499 1.524 . S
C1498 C1512 1.377 . S
C1499 C1498 1.524 . S
C1499 C1500 1.397 . S
C1499 C1504 1.363 . S
C1500 H1477 0.950 . S
C1500 C1499 1.397 . S
C1500 C1501 1.334 1_455 S
C1501 H1478 0.950 . S
C1501 C1500 1.334 1_655 S
C1501 C1502 1.287 . S
C1502 C1501 1.287 . S
C1502 C1503 1.549 . S
C1502 H1521 0.913 . S
C1503 H1479 0.957 . S
C1503 C1502 1.549 . S
C1503 C1504 1.383 1_655 S
C1504 H1480 0.950 . S
C1504 C1499 1.363 . S
C1504 C1503 1.383 1_455 S
C1505 H1481 0.951 . S
C1505 C1506 1.366 . S
C1505 C1507 1.388 . S
C1506 C1505 1.366 . S
C1506 C1510 1.385 . S
C1507 H1482 0.951 . S
C1507 C1505 1.388 . S
C1507 C1508 1.366 . S
C1508 C1507 1.366 . S
C1508 C1509 1.414 . S
C1508 C1511 1.499 . S
C1509 H1483 0.950 . S
C1509 C1508 1.414 . S
C1509 C1510 1.374 . S
C1510 H1484 0.950 . S
C1510 C1506 1.385 . S
C1510 C1509 1.374 . S
C1511 C1508 1.499 . S
C1511 C1512 1.373 1_556 S
C1511 C1513 1.389 . S
C1512 H1485 0.950 . S
C1512 C1498 1.377 . S
C1512 C1511 1.373 1_554 S
C1513 C1497 1.377 . S
C1513 C1511 1.389 . S
C1513 C1514 1.524 . S
C1514 C1513 1.524 . S
C1514 C1515 1.397 . S
C1514 C1519 1.363 . S
C1515 H1486 0.950 . S
C1515 C1514 1.397 . S
C1515 C1516 1.334 . S
C1516 H1487 0.950 . S
C1516 C1515 1.334 . S
C1516 C1517 1.287 . S
C1517 C1516 1.287 . S
C1517 C1518 1.524 . S
C1517 H1520 0.999 . S
C1518 H1488 0.950 . S
C1518 C1517 1.524 . S
C1518 C1519 1.415 . S
C1519 H1489 0.950 . S
C1519 C1514 1.363 . S
C1519 C1518 1.415 . S
H1520 C1517 0.999 . S
H1521 C1502 0.913 . S
H1522 C1540 0.951 . S
H1523 C1542 0.951 . S
H1524 C1544 0.950 . S
H1525 C1545 0.950 . S
H1526 C1547 0.950 . S
H1527 C1550 0.950 . S
H1528 C1551 0.950 . S
H1529 C1553 0.950 . S
H1530 C1554 0.950 . S
H1531 C1555 0.951 . S
H1532 C1557 0.951 . S
H1533 C1559 0.950 . S
H1534 C1560 0.950 . S
H1535 C1562 0.950 . S
H1536 C1565 0.950 . S
H1537 C1566 0.950 . S
H1538 C1568 0.950 . S
H1539 C1569 0.950 . S
C1540 H1522 0.951 . S
C1540 C1541 1.366 . S
C1540 C1542 1.388 . S
C1541 C1540 1.366 . S
C1541 C1545 1.385 . S
C1542 H1523 0.951 . S
C1542 C1540 1.388 . S
C1542 C1543 1.366 . S
C1543 C1542 1.366 . S
C1543 C1544 1.414 . S
C1543 C1546 1.499 . S
C1544 H1524 0.950 . S
C1544 C1543 1.414 . S
C1544 C1545 1.374 . S
C1545 H1525 0.950 . S
C1545 C1541 1.385 . S
C1545 C1544 1.374 . S
C1546 C1543 1.499 . S
C1546 C1547 1.373 . S
C1546 C1548 1.389 . S
C1547 H1526 0.950 . S
C1547 C1546 1.373 . S
C1547 C1563 1.377 . S
C1548 C1546 1.389 . S
C1548 C1549 1.524 . S
C1548 C1562 1.377 . S
C1549 C1548 1.524 . S
C1549 C1550 1.397 . S
C1549 C1554 1.363 . S
C1550 H1527 0.950 . S
C1550 C1549 1.397 . S
C1550 C1551 1.334 . S
C1551 H1528 0.950 . S
C1551 C1550 1.334 . S
C1551 C1552 1.287 . S
C1552 C1551 1.287 . S
C1552 C1553 1.524 . S
C1552 H1571 0.913 . S
C1553 H1529 0.950 . S
C1553 C1552 1.524 . S
C1553 C1554 1.415 . S
C1554 H1530 0.950 . S
C1554 C1549 1.363 . S
C1554 C1553 1.415 . S
C1555 H1531 0.951 . S
C1555 C1556 1.366 . S
C1555 C1557 1.388 . S
C1556 C1555 1.366 . S
C1556 C1560 1.385 . S
C1557 H1532 0.951 . S
C1557 C1555 1.388 . S
C1557 C1558 1.366 . S
C1558 C1557 1.366 . S
C1558 C1559 1.414 . S
C1558 C1561 1.499 . S
C1559 H1533 0.950 . S
C1559 C1558 1.414 . S
C1559 C1560 1.374 . S
C1560 H1534 0.950 . S
C1560 C1556 1.385 . S
C1560 C1559 1.374 . S
C1561 C1558 1.499 . S
C1561 C1562 1.373 . S
C1561 C1563 1.389 . S
C1562 H1535 0.950 . S
C1562 C1548 1.377 . S
C1562 C1561 1.373 . S
C1563 C1547 1.377 . S
C1563 C1561 1.389 . S
C1563 C1564 1.524 . S
C1564 C1563 1.524 . S
C1564 C1565 1.397 . S
C1564 C1569 1.363 . S
C1565 H1536 0.950 . S
C1565 C1564 1.397 . S
C1565 C1566 1.334 . S
C1566 H1537 0.950 . S
C1566 C1565 1.334 . S
C1566 C1567 1.287 . S
C1567 C1566 1.287 . S
C1567 C1568 1.524 . S
C1567 H1570 0.999 . S
C1568 H1538 0.950 . S
C1568 C1567 1.524 . S
C1568 C1569 1.415 . S
C1569 H1539 0.950 . S
C1569 C1564 1.363 . S
C1569 C1568 1.415 . S
H1570 C1567 0.999 . S
H1571 C1552 0.913 . S
H1572 C1590 0.951 . S
H1573 C1592 0.951 . S
H1574 C1594 0.950 . S
H1575 C1595 0.950 . S
H1576 C1597 0.950 . S
H1577 C1600 0.950 . S
H1578 C1601 0.950 . S
H1579 C1603 0.950 . S
H1580 C1604 0.950 . S
H1581 C1605 0.951 . S
H1582 C1607 0.951 . S
H1583 C1609 0.950 . S
H1584 C1610 0.950 . S
H1585 C1612 0.950 . S
H1586 C1615 0.950 . S
H1587 C1616 0.950 . S
H1588 C1618 0.950 . S
H1589 C1619 0.950 . S
C1590 H1572 0.951 . S
C1590 C1591 1.366 . S
C1590 C1592 1.388 . S
C1591 C1590 1.366 . S
C1591 C1595 1.385 . S
C1592 H1573 0.951 . S
C1592 C1590 1.388 . S
C1592 C1593 1.366 . S
C1593 C1592 1.366 . S
C1593 C1594 1.414 . S
C1593 C1596 1.499 . S
C1594 H1574 0.950 . S
C1594 C1593 1.414 . S
C1594 C1595 1.374 . S
C1595 H1575 0.950 . S
C1595 C1591 1.385 . S
C1595 C1594 1.374 . S
C1596 C1593 1.499 . S
C1596 C1597 1.373 . S
C1596 C1598 1.389 . S
C1597 H1576 0.950 . S
C1597 C1596 1.373 . S
C1597 C1613 1.377 1_564 S
C1598 C1596 1.389 . S
C1598 C1599 1.524 1_554 S
C1598 C1612 1.377 1_564 S
C1599 C1598 1.524 1_556 S
C1599 C1600 1.400 . S
C1599 C1604 1.362 1_556 S
C1600 H1577 0.950 . S
C1600 C1599 1.400 . S
C1600 C1601 1.334 . S
C1601 H1578 0.950 . S
C1601 C1600 1.334 . S
C1601 C1602 1.287 . S
C1602 C1601 1.287 . S
C1602 C1603 1.524 . S
C1602 H1621 0.913 . S
C1603 H1579 0.950 . S
C1603 C1602 1.524 . S
C1603 C1604 1.415 1_556 S
C1604 H1580 0.950 . S
C1604 C1599 1.362 1_554 S
C1604 C1603 1.415 1_554 S
C1605 H1581 0.951 . S
C1605 C1606 1.366 . S
C1605 C1607 1.388 . S
C1606 C1605 1.366 . S
C1606 C1610 1.385 . S
C1607 H1582 0.951 . S
C1607 C1605 1.388 . S
C1607 C1608 1.366 . S
C1608 C1607 1.366 . S
C1608 C1609 1.414 . S
C1608 C1611 1.499 . S
C1609 H1583 0.950 . S
C1609 C1608 1.414 . S
C1609 C1610 1.374 . S
C1610 H1584 0.950 . S
C1610 C1606 1.385 . S
C1610 C1609 1.374 . S
C1611 C1608 1.499 . S
C1611 C1612 1.373 . S
C1611 C1613 1.389 . S
C1612 H1585 0.950 . S
C1612 C1598 1.377 1_546 S
C1612 C1611 1.373 . S
C1613 C1597 1.377 1_546 S
C1613 C1611 1.389 . S
C1613 C1614 1.524 1_556 S
C1614 C1613 1.524 1_554 S
C1614 C1615 1.400 . S
C1614 C1619 1.362 1_554 S
C1615 H1586 0.950 . S
C1615 C1614 1.400 . S
C1615 C1616 1.334 . S
C1616 H1587 0.950 . S
C1616 C1615 1.334 . S
C1616 C1617 1.287 . S
C1617 C1616 1.287 . S
C1617 C1618 1.524 . S
C1617 H1620 0.999 . S
C1618 H1588 0.950 . S
C1618 C1617 1.524 . S
C1618 C1619 1.415 1_554 S
C1619 H1589 0.950 . S
C1619 C1614 1.362 1_556 S
C1619 C1618 1.415 1_556 S
H1620 C1617 0.999 . S
H1621 C1602 0.913 . S
H1622 C1640 0.951 . S
H1623 C1642 0.951 . S
H1624 C1644 0.950 . S
H1625 C1645 0.950 . S
H1626 C1647 0.953 . S
H1627 C1650 0.950 . S
H1628 C1651 0.950 . S
H1629 C1653 0.950 . S
H1630 C1654 0.950 . S
H1631 C1655 0.951 . S
H1632 C1657 0.951 . S
H1633 C1659 0.950 . S
H1634 C1660 0.950 . S
H1635 C1662 0.953 . S
H1636 C1665 0.950 . S
H1637 C1666 0.950 . S
H1638 C1668 0.950 . S
H1639 C1669 0.950 . S
C1640 H1622 0.951 . S
C1640 C1641 1.366 . S
C1640 C1642 1.388 . S
C1641 C1640 1.366 . S
C1641 C1645 1.385 . S
C1642 H1623 0.951 . S
C1642 C1640 1.388 . S
C1642 C1643 1.366 . S
C1643 C1642 1.366 . S
C1643 C1644 1.414 . S
C1643 C1646 1.499 . S
C1644 H1624 0.950 . S
C1644 C1643 1.414 . S
C1644 C1645 1.374 . S
C1645 H1625 0.950 . S
C1645 C1641 1.385 . S
C1645 C1644 1.374 . S
C1646 C1643 1.499 . S
C1646 C1647 1.346 1_545 S
C1646 C1648 1.389 1_455 S
C1647 H1626 0.953 . S
C1647 C1646 1.346 1_565 S
C1647 C1663 1.403 . S
C1648 C1646 1.389 1_655 S
C1648 C1649 1.524 . S
C1648 C1662 1.403 . S
C1649 C1648 1.524 . S
C1649 C1650 1.397 . S
C1649 C1654 1.363 . S
C1650 H1627 0.950 . S
C1650 C1649 1.397 . S
C1650 C1651 1.334 . S
C1651 H1628 0.950 . S
C1651 C1650 1.334 . S
C1651 C1652 1.287 . S
C1652 C1651 1.287 . S
C1652 C1653 1.524 . S
C1652 H1671 0.913 . S
C1653 H1629 0.950 . S
C1653 C1652 1.524 . S
C1653 C1654 1.415 . S
C1654 H1630 0.950 . S
C1654 C1649 1.363 . S
C1654 C1653 1.415 . S
C1655 H1631 0.951 . S
C1655 C1656 1.366 . S
C1655 C1657 1.388 . S
C1656 C1655 1.366 . S
C1656 C1660 1.385 . S
C1657 H1632 0.951 . S
C1657 C1655 1.388 . S
C1657 C1658 1.366 . S
C1658 C1657 1.366 . S
C1658 C1659 1.414 . S
C1658 C1661 1.499 . S
C1659 H1633 0.950 . S
C1659 C1658 1.414 . S
C1659 C1660 1.374 . S
C1660 H1634 0.950 . S
C1660 C1656 1.385 . S
C1660 C1659 1.374 . S
C1661 C1658 1.499 . S
C1661 C1662 1.346 1_465 S
C1661 C1663 1.389 . S
C1662 H1635 0.953 . S
C1662 C1648 1.403 . S
C1662 C1661 1.346 1_645 S
C1663 C1647 1.403 . S
C1663 C1661 1.389 . S
C1663 C1664 1.524 . S
C1664 C1663 1.524 . S
C1664 C1665 1.397 . S
C1664 C1669 1.363 . S
C1665 H1636 0.950 . S
C1665 C1664 1.397 . S
C1665 C1666 1.334 . S
C1666 H1637 0.950 . S
C1666 C1665 1.334 . S
C1666 C1667 1.287 . S
C1667 C1666 1.287 . S
C1667 C1668 1.524 . S
C1667 H1670 0.999 . S
C1668 H1638 0.950 . S
C1668 C1667 1.524 . S
C1668 C1669 1.415 . S
C1669 H1639 0.950 . S
C1669 C1664 1.363 . S
C1669 C1668 1.415 . S
H1670 C1667 0.999 . S
H1671 C1652 0.913 . S
C291 C22 1.190 . S
C306 C124 1.190 . S
C341 C90 1.189 . S
C356 C49 1.191 . S
C391 C56 2.119 . S
C406 C83 2.118 . S
C441 C15 2.119 . S
C456 C117 2.119 . S
C491 C260 1.189 . S
C506 C158 1.191 . S
C541 C226 1.189 . S
C556 C185 1.191 . S
C591 C219 2.118 . S
C606 C192 2.119 . S
C641 C253 2.118 . S
C656 C151 2.119 . S
C691 C266 0.910 . S
C706 C6 0.913 . S
C741 C232 0.911 . S
C756 C62 0.913 . S
C791 C74 0.913 . S
C806 C176 0.911 . S
C841 C164 0.911 . S
C856 C108 0.913 . S
C891 C142 0.913 . S
C906 C130 0.910 . S
C941 C96 0.911 . S
C956 C198 0.913 . S
C991 C40 0.911 . S
C1006 C210 0.913 . S
C1041 C28 0.910 . S
C1056 C244 0.914 . S
C1091 C3 1.427 . S
C1106 C187 1.533 . S
C1141 C35 1.427 . S
C1156 C153 1.533 . S
C1191 C255 1.533 . S
C1206 C71 1.427 . S
C1241 C105 1.427 . S
C1256 C221 1.534 . S
C1291 C139 1.427 . S
C1306 C51 1.534 . S
C1341 C171 1.427 . S
C1356 C17 1.534 . S
C1391 C207 1.426 . S
C1406 C119 1.534 . S
C1441 C241 1.427 . S
C1456 C85 1.533 . S
C1491 C1 1.918 . S
C1506 C69 1.917 . S
C1541 C37 1.917 . S
C1556 C103 1.917 . S
C1591 C137 1.918 . S
C1606 C205 1.917 . S
C1641 C173 1.917 . S
C1656 C239 1.918 . S
