# Generated by pormake.
# Topology zfc, (5)-cn, num edge types: 1
# Building blocks:
#     Node 0, Type 0, BuildingBlock: XOMCOT_clean_sbu_1, # of connection points: 5
#     Node 1, Type 0, BuildingBlock: XOMCOT_clean_sbu_1, # of connection points: 5
#     Node 2, Type 0, BuildingBlock: XOMCOT_clean_sbu_1, # of connection points: 5
#     Node 3, Type 0, BuildingBlock: XOMCOT_clean_sbu_1, # of connection points: 5
#     Node 4, Type 0, BuildingBlock: XOMCOT_clean_sbu_1, # of connection points: 5
#     Node 5, Type 0, BuildingBlock: XOMCOT_clean_sbu_1, # of connection points: 5
#     Node 6, Type 0, BuildingBlock: XOMCOT_clean_sbu_1, # of connection points: 5
#     Node 7, Type 0, BuildingBlock: XOMCOT_clean_sbu_1, # of connection points: 5
#     Node 8, Type 0, BuildingBlock: XOMCOT_clean_sbu_1, # of connection points: 5
#     Node 9, Type 0, BuildingBlock: XOMCOT_clean_sbu_1, # of connection points: 5
#     Node 10, Type 0, BuildingBlock: XOMCOT_clean_sbu_1, # of connection points: 5
#     Node 11, Type 0, BuildingBlock: XOMCOT_clean_sbu_1, # of connection points: 5
#     Node 12, Type 0, BuildingBlock: XOMCOT_clean_sbu_1, # of connection points: 5
#     Node 13, Type 0, BuildingBlock: XOMCOT_clean_sbu_1, # of connection points: 5
#     Node 14, Type 0, BuildingBlock: XOMCOT_clean_sbu_1, # of connection points: 5
#     Node 15, Type 0, BuildingBlock: XOMCOT_clean_sbu_1, # of connection points: 5
#     Edge 16, Type (0, 0), BuildingBlock: AJUNOK_clean_linker_0, # of connection points: 2
#     Edge 17, Type (0, 0), BuildingBlock: AJUNOK_clean_linker_0, # of connection points: 2
#     Edge 18, Type (0, 0), BuildingBlock: AJUNOK_clean_linker_0, # of connection points: 2
#     Edge 19, Type (0, 0), BuildingBlock: AJUNOK_clean_linker_0, # of connection points: 2
#     Edge 20, Type (0, 0), BuildingBlock: AJUNOK_clean_linker_0, # of connection points: 2
#     Edge 21, Type (0, 0), BuildingBlock: AJUNOK_clean_linker_0, # of connection points: 2
#     Edge 22, Type (0, 0), BuildingBlock: AJUNOK_clean_linker_0, # of connection points: 2
#     Edge 23, Type (0, 0), BuildingBlock: AJUNOK_clean_linker_0, # of connection points: 2
#     Edge 24, Type (0, 0), BuildingBlock: AJUNOK_clean_linker_0, # of connection points: 2
#     Edge 25, Type (0, 0), BuildingBlock: AJUNOK_clean_linker_0, # of connection points: 2
#     Edge 26, Type (0, 0), BuildingBlock: AJUNOK_clean_linker_0, # of connection points: 2
#     Edge 27, Type (0, 0), BuildingBlock: AJUNOK_clean_linker_0, # of connection points: 2
#     Edge 28, Type (0, 0), BuildingBlock: AJUNOK_clean_linker_0, # of connection points: 2
#     Edge 29, Type (0, 0), BuildingBlock: AJUNOK_clean_linker_0, # of connection points: 2
#     Edge 30, Type (0, 0), BuildingBlock: AJUNOK_clean_linker_0, # of connection points: 2
#     Edge 31, Type (0, 0), BuildingBlock: AJUNOK_clean_linker_0, # of connection points: 2
#     Edge 32, Type (0, 0), BuildingBlock: AJUNOK_clean_linker_0, # of connection points: 2
#     Edge 33, Type (0, 0), BuildingBlock: AJUNOK_clean_linker_0, # of connection points: 2
#     Edge 34, Type (0, 0), BuildingBlock: AJUNOK_clean_linker_0, # of connection points: 2
#     Edge 35, Type (0, 0), BuildingBlock: AJUNOK_clean_linker_0, # of connection points: 2
#     Edge 36, Type (0, 0), BuildingBlock: AJUNOK_clean_linker_0, # of connection points: 2
#     Edge 37, Type (0, 0), BuildingBlock: AJUNOK_clean_linker_0, # of connection points: 2
#     Edge 38, Type (0, 0), BuildingBlock: AJUNOK_clean_linker_0, # of connection points: 2
#     Edge 39, Type (0, 0), BuildingBlock: AJUNOK_clean_linker_0, # of connection points: 2
#     Edge 40, Type (0, 0), BuildingBlock: AJUNOK_clean_linker_0, # of connection points: 2
#     Edge 41, Type (0, 0), BuildingBlock: AJUNOK_clean_linker_0, # of connection points: 2
#     Edge 42, Type (0, 0), BuildingBlock: AJUNOK_clean_linker_0, # of connection points: 2
#     Edge 43, Type (0, 0), BuildingBlock: AJUNOK_clean_linker_0, # of connection points: 2
#     Edge 44, Type (0, 0), BuildingBlock: AJUNOK_clean_linker_0, # of connection points: 2
#     Edge 45, Type (0, 0), BuildingBlock: AJUNOK_clean_linker_0, # of connection points: 2
#     Edge 46, Type (0, 0), BuildingBlock: AJUNOK_clean_linker_0, # of connection points: 2
#     Edge 47, Type (0, 0), BuildingBlock: AJUNOK_clean_linker_0, # of connection points: 2
#     Edge 48, Type (0, 0), BuildingBlock: AJUNOK_clean_linker_0, # of connection points: 2
#     Edge 49, Type (0, 0), BuildingBlock: AJUNOK_clean_linker_0, # of connection points: 2
#     Edge 50, Type (0, 0), BuildingBlock: AJUNOK_clean_linker_0, # of connection points: 2
#     Edge 51, Type (0, 0), BuildingBlock: AJUNOK_clean_linker_0, # of connection points: 2
#     Edge 52, Type (0, 0), BuildingBlock: AJUNOK_clean_linker_0, # of connection points: 2
#     Edge 53, Type (0, 0), BuildingBlock: AJUNOK_clean_linker_0, # of connection points: 2
#     Edge 54, Type (0, 0), BuildingBlock: AJUNOK_clean_linker_0, # of connection points: 2
#     Edge 55, Type (0, 0), BuildingBlock: AJUNOK_clean_linker_0, # of connection points: 2
# Relax obj value: 0.155
# Max RMSD: 0.159
# Mean RMSD: 0.159
data_MOF--net-zfc--node1-XOMCOT_clean_sbu_1--edge1-AJUNOK_clean_linker_0
_symmetry_space_group_name_H-M    P1
_symmetry_Int_Tables_number       1
_symmetry_cell_setting            triclinic
loop_
_symmetry_equiv_pos_as_xyz
'x, y, z'
_cell_length_a     56.962203
_cell_length_b     56.995446
_cell_length_c     13.553697
_cell_angle_alpha  89.980311
_cell_angle_beta   90.057475
_cell_angle_gamma 89.99409
loop_
_atom_site_label
_atom_site_type_symbol
_atom_site_fract_x
_atom_site_fract_y
_atom_site_fract_z
_atom_type_partial_charge
C0 C 0.25515 0.094 0.21304 0.0
C1 C 0.2541 0.09343 0.31472 0.0
N2 N 0.27618 0.09257 0.35019 0.0
N3 N 0.27781 0.09391 0.18442 0.0
C4 C 0.29017 0.09272 0.26972 0.0
H5 H 0.24033 0.09511 0.16332 0.0
Co6 Co 0.28942 0.09724 0.05572 0.0
C7 C 0.32993 0.13062 0.08514 0.0
O8 O 0.32589 0.1414 1.00112 0.0
N9 N 0.30142 0.10001 0.92462 0.0
C10 C 0.32591 0.09597 0.79725 0.0
C11 C 0.32408 0.09678 0.89843 0.0
C12 C 0.2898 0.10048 0.83703 0.0
N13 N 0.30423 0.09799 0.75852 0.0
O14 O 0.30487 0.06701 0.06734 0.0
H15 H 0.33837 0.09412 0.9498 0.0
H16 H 0.27095 0.10083 0.83 0.0
O17 O 0.31696 0.11343 0.11153 0.0
C18 C 0.29598 0.05114 1.01211 0.0
O19 O 0.27816 0.05665 0.95505 0.0
N20 N 0.27217 0.1255 0.04267 0.0
C21 C 0.23964 0.16217 0.02209 0.0
C22 C 0.2597 0.16482 0.0816 0.0
C23 C 0.27562 0.14615 0.09199 0.0
C24 C 0.25219 0.12234 0.98904 0.0
C25 C 0.23609 0.14048 0.97565 0.0
H26 H 0.28991 0.14809 0.14354 0.0
H27 H 0.24817 0.10519 0.95967 0.0
H28 H 0.30915 0.09287 0.2731 0.0
H29 H 0.23833 0.09387 0.3592 0.0
H30 H 0.34196 0.09361 0.75585 0.0
H31 H 0.26256 0.18076 0.12335 0.0
H32 H 0.22064 0.13729 0.93097 0.0
C33 C 0.91195 0.2463 0.23917 0.0
C34 C 0.91256 0.24467 0.34066 0.0
N35 N 0.9137 0.26651 0.3785 0.0
N36 N 0.91248 0.26909 0.21246 0.0
C37 C 0.91436 0.28089 0.29905 0.0
H38 H 0.91049 0.23176 0.18837 0.0
Co39 Co 0.90852 0.28137 0.08419 0.0
C40 C 0.87657 0.3239 0.12404 0.0
O41 O 0.86785 0.32504 0.03445 0.0
N42 N 0.90525 0.29364 0.95359 0.0
C43 C 0.91019 0.31694 0.82278 0.0
C44 C 0.90965 0.31587 0.92443 0.0
C45 C 0.9038 0.2815 0.86749 0.0
N46 N 0.90651 0.29524 0.78672 0.0
O47 O 0.93867 0.29692 0.09517 0.0
H48 H 0.91357 0.33022 0.974 0.0
H49 H 0.90294 0.26264 0.86357 0.0
O50 O 0.89204 0.30835 0.14497 0.0
C51 C 0.95423 0.2877 0.0394 0.0
O52 O 0.9483 0.26974 0.98398 0.0
N53 N 0.88021 0.26409 0.07052 0.0
C54 C 0.84254 0.23341 0.03975 0.0
C55 C 0.83951 0.25414 0.09391 0.0
C56 C 0.85862 0.2692 0.10909 0.0
C57 C 0.88354 0.24345 0.02162 0.0
C58 C 0.86492 0.22812 1.00358 0.0
H59 H 0.85583 0.28448 0.15368 0.0
H60 H 0.90099 0.2387 0.99738 0.0
H61 H 0.91504 0.29983 0.30414 0.0
H62 H 0.91186 0.22862 0.38323 0.0
H63 H 0.91386 0.33239 0.779 0.0
H64 H 0.82254 0.25864 0.12448 0.0
H65 H 0.86812 0.21195 0.96382 0.0
C66 C 0.75502 0.91371 0.2263 0.0
C67 C 0.75618 0.91512 0.32784 0.0
N68 N 0.73414 0.91463 0.36393 0.0
N69 N 0.73236 0.9121 0.19834 0.0
C70 C 0.7201 0.91304 0.28377 0.0
H71 H 0.76978 0.91297 0.17628 0.0
Co72 Co 0.72115 0.90708 0.06997 0.0
C73 C 0.68264 0.87224 0.10419 0.0
O74 O 0.68935 0.86065 0.02532 0.0
N75 N 0.70964 0.9028 0.93823 0.0
C76 C 0.68546 0.90462 0.80831 0.0
C77 C 0.68688 0.90373 0.90977 0.0
C78 C 0.72162 0.90398 0.85171 0.0
N79 N 0.70739 0.90507 0.77198 0.0
O80 O 0.70559 0.93711 0.07304 0.0
H81 H 0.67215 0.90519 0.9596 0.0
H82 H 0.7404 0.90546 0.84626 0.0
O83 O 0.69339 0.89119 0.12716 0.0
C84 C 0.71644 0.95189 0.01884 0.0
O85 O 0.73585 0.94527 0.97461 0.0
N86 N 0.73869 0.87878 0.06487 0.0
C87 C 0.77057 0.8413 0.05137 0.0
C88 C 0.7519 0.84073 0.11928 0.0
C89 C 0.73627 0.85974 0.12554 0.0
C90 C 0.75785 0.88038 1.00535 0.0
C91 C 0.77334 0.86166 0.99434 0.0
H92 H 0.72299 0.85949 0.18224 0.0
H93 H 0.76188 0.89676 0.96954 0.0
H94 H 0.7012 0.91241 0.28756 0.0
H95 H 0.77207 0.91533 0.37168 0.0
H96 H 0.66958 0.9063 0.76495 0.0
H97 H 0.74985 0.82621 0.17001 0.0
H98 H 0.78775 0.8635 0.94289 0.0
C99 C 0.08413 0.75228 0.21087 0.0
C100 C 0.08249 0.75337 0.3125 0.0
N101 N 0.08838 0.73224 0.34977 0.0
N102 N 0.09113 0.7306 0.18421 0.0
C103 C 0.09337 0.7188 0.27056 0.0
H104 H 0.08102 0.76652 0.15976 0.0
Co105 Co 0.09746 0.71999 0.05578 0.0
C106 C 0.13616 0.68542 0.10732 0.0
O107 O 0.15056 0.694 0.04086 0.0
N108 N 0.10315 0.70892 0.92443 0.0
C109 C 0.10951 0.68619 0.79277 0.0
C110 C 0.11017 0.68741 0.89434 0.0
C111 C 0.09738 0.71997 0.83889 0.0
N112 N 0.10126 0.70669 0.75796 0.0
O113 O 0.06879 0.70204 0.05807 0.0
H114 H 0.11438 0.67291 0.94239 0.0
H115 H 0.0897 0.73722 0.8354 0.0
O116 O 0.11537 0.69368 0.11505 0.0
C117 C 0.05274 0.71301 1.01101 0.0
O118 O 0.05776 0.7335 0.97208 0.0
N119 N 0.12415 0.74003 0.0511 0.0
C120 C 0.15935 0.77426 0.03639 0.0
C121 C 0.16016 0.75717 0.11097 0.0
C122 C 0.142 0.74058 0.11861 0.0
C123 C 0.12249 0.75753 0.9829 0.0
C124 C 0.14014 0.77422 0.97196 0.0
H125 H 0.14184 0.72879 0.18063 0.0
H126 H 0.10686 0.75943 0.93942 0.0
H127 H 0.09869 0.70064 0.27619 0.0
H128 H 0.07816 0.76876 0.35558 0.0
H129 H 0.1138 0.67102 0.74822 0.0
H130 H 0.17419 0.75717 0.16492 0.0
H131 H 0.13845 0.78732 0.91447 0.0
C132 C 0.25464 0.9194 0.81083 0.0
C133 C 0.25358 0.92084 0.70923 0.0
N134 N 0.27494 0.91563 0.67248 0.0
N135 N 0.27652 0.91315 0.83807 0.0
C136 C 0.28849 0.91116 0.75215 0.0
H137 H 0.24023 0.92205 0.86154 0.0
Co138 Co 0.28699 0.90707 0.96656 0.0
C139 C 0.32039 0.86722 0.92695 0.0
O140 O 0.3123 0.85564 1.0036 0.0
N141 N 0.29797 0.90158 0.09813 0.0
C142 C 0.32178 0.89812 0.22858 0.0
C143 C 0.32036 0.89759 0.12704 0.0
C144 C 0.28644 0.90541 0.18432 0.0
N145 N 0.30042 0.9033 0.26439 0.0
O146 O 0.30566 0.93538 0.96243 0.0
H147 H 0.33512 0.89569 0.07772 0.0
H148 H 0.2684 0.91089 0.1892 0.0
O149 O 0.31276 0.88793 0.90924 0.0
C150 C 0.29586 0.95151 0.01345 0.0
O151 O 0.27594 0.94678 0.05785 0.0
N152 N 0.26627 0.88095 0.97248 0.0
C153 C 0.23154 0.84635 0.99037 0.0
C154 C 0.24933 0.84431 0.91927 0.0
C155 C 0.26614 0.86218 0.90957 0.0
C156 C 0.24793 0.88399 0.03562 0.0
C157 C 0.23095 0.86665 0.04848 0.0
H158 H 0.27848 0.86127 0.84943 0.0
H159 H 0.24572 0.90044 0.07323 0.0
H160 H 0.30682 0.90636 0.74744 0.0
H161 H 0.23804 0.92452 0.66589 0.0
H162 H 0.33756 0.8961 0.27241 0.0
H163 H 0.24977 0.82945 0.86948 0.0
H164 H 0.21724 0.86937 0.10257 0.0
C165 C 0.09029 0.2493 0.82165 0.0
C166 C 0.08906 0.24819 0.71999 0.0
N167 N 0.0915 0.27007 0.68352 0.0
N168 N 0.09378 0.27174 0.84929 0.0
C169 C 0.09422 0.28396 0.76352 0.0
H170 H 0.08946 0.23461 0.87209 0.0
Co171 Co 0.09932 0.28269 0.97778 0.0
C172 C 0.13571 0.31926 0.93441 0.0
O173 O 0.14875 0.31184 1.00818 0.0
N174 N 0.10418 0.29411 0.10917 0.0
C175 C 0.10614 0.31841 0.23832 0.0
C176 C 0.10688 0.31674 0.13703 0.0
C177 C 0.1009 0.28262 0.19598 0.0
N178 N 0.10216 0.29689 0.27544 0.0
O179 O 0.0695 0.2989 0.9752 0.0
H180 H 0.10805 0.33149 0.08724 0.0
H181 H 0.09571 0.26447 0.2016 0.0
O182 O 0.11556 0.31001 0.91972 0.0
C183 C 0.05405 0.28846 0.02755 0.0
O184 O 0.05984 0.26889 0.07256 0.0
N185 N 0.12748 0.26457 0.98173 0.0
C186 C 0.16536 0.23307 0.99259 0.0
C187 C 0.1646 0.25053 0.91945 0.0
C188 C 0.1453 0.26582 0.91414 0.0
C189 C 0.12723 0.24656 0.04785 0.0
C190 C 0.14615 0.23117 0.05665 0.0
H191 H 0.14439 0.27806 0.85347 0.0
H192 H 0.11179 0.24322 0.09103 0.0
H193 H 0.0975 0.30261 0.75924 0.0
H194 H 0.08689 0.23245 0.67626 0.0
H195 H 0.10795 0.33437 0.28088 0.0
H196 H 0.17828 0.25182 0.86436 0.0
H197 H 0.14542 0.21749 0.11207 0.0
C198 C 0.75722 0.09119 0.78092 0.0
C199 C 0.75886 0.09112 0.6794 0.0
N200 N 0.73699 0.09214 0.64165 0.0
N201 N 0.73444 0.09243 0.80724 0.0
C202 C 0.72255 0.09244 0.72066 0.0
H203 H 0.77176 0.09107 0.83228 0.0
Co204 Co 0.72292 0.09638 0.93565 0.0
C205 C 0.68344 0.13057 0.90715 0.0
O206 O 0.68917 0.14102 0.99013 0.0
N207 N 0.71123 0.09978 0.06706 0.0
C208 C 0.68733 0.09673 0.19693 0.0
C209 C 0.68868 0.0968 0.09545 0.0
C210 C 0.72324 0.10075 0.15355 0.0
N211 N 0.70915 0.09927 0.23356 0.0
O212 O 0.70743 0.06632 0.92763 0.0
H213 H 0.67418 0.09378 0.0455 0.0
H214 H 0.74209 0.10047 0.15881 0.0
O215 O 0.69514 0.11255 0.87977 0.0
C216 C 0.71744 0.05112 0.98277 0.0
O217 O 0.73608 0.05738 0.03341 0.0
N218 N 0.74034 0.1246 0.94567 0.0
C219 C 0.77113 0.16221 0.97316 0.0
C220 C 0.752 0.16423 0.90846 0.0
C221 C 0.73693 0.14503 0.89454 0.0
C222 C 0.76017 0.12182 1.0007 0.0
C223 C 0.77542 0.1405 0.01782 0.0
H224 H 0.72306 0.14654 0.84072 0.0
H225 H 0.76455 0.10471 0.02962 0.0
H226 H 0.70368 0.09339 0.7152 0.0
H227 H 0.77491 0.09057 0.63676 0.0
H228 H 0.67157 0.09427 0.24029 0.0
H229 H 0.74879 0.18044 0.8689 0.0
H230 H 0.79079 0.13782 0.06358 0.0
C231 C 0.90647 0.75318 0.79948 0.0
C232 C 0.907 0.75332 0.69774 0.0
N233 N 0.91088 0.73125 0.66546 0.0
N234 N 0.90986 0.73109 0.83193 0.0
C235 C 0.91304 0.71831 0.74879 0.0
H236 H 0.90294 0.76812 0.84627 0.0
Co237 Co 0.9074 0.71896 0.96041 0.0
C238 C 0.87661 0.67549 0.92401 0.0
O239 O 0.86968 0.67238 0.01541 0.0
N240 N 0.90547 0.70626 0.09006 0.0
C241 C 0.91351 0.68236 0.21601 0.0
C242 C 0.91225 0.68432 0.11501 0.0
C243 C 0.90307 0.71734 0.17811 0.0
N244 N 0.90769 0.70319 0.25588 0.0
O245 O 0.93752 0.70365 0.94416 0.0
H246 H 0.91743 0.67095 0.06276 0.0
H247 H 0.89925 0.73575 0.18611 0.0
O248 O 0.89056 0.69227 0.90244 0.0
C249 C 0.95327 0.71309 0.99837 0.0
O250 O 0.94752 0.73116 0.0534 0.0
N251 N 0.87926 0.73604 0.97909 0.0
C252 C 0.8424 0.76795 1.00974 0.0
C253 C 0.83893 0.7473 0.95469 0.0
C254 C 0.85754 0.73151 0.9407 0.0
C255 C 0.88314 0.75642 0.02887 0.0
C256 C 0.86496 0.77218 0.04757 0.0
H257 H 0.85447 0.71627 0.89581 0.0
H258 H 0.90072 0.76063 0.05345 0.0
H259 H 0.91671 0.69972 0.75017 0.0
H260 H 0.90377 0.76842 0.65122 0.0
H261 H 0.91978 0.66721 0.25627 0.0
H262 H 0.82227 0.74368 0.91942 0.0
H263 H 0.86878 0.78778 0.09018 0.0
C264 C 0.74576 0.58991 0.73563 0.0
C265 C 0.74383 0.58964 0.83718 0.0
N266 N 0.76545 0.59231 0.87605 0.0
N267 N 0.76847 0.59289 0.71047 0.0
C268 C 0.78 0.5939 0.79778 0.0
H269 H 0.73145 0.58867 0.68342 0.0
Co270 Co 0.78002 0.59741 0.58211 0.0
C271 C 0.8205 0.63065 0.61714 0.0
O272 O 0.81544 0.64273 0.53726 0.0
N273 N 0.79158 0.60142 0.45089 0.0
C274 C 0.8152 0.59941 0.31983 0.0
C275 C 0.81415 0.59949 0.42138 0.0
C276 C 0.77928 0.60171 0.36501 0.0
N277 N 0.79317 0.60083 0.28417 0.0
O278 O 0.79526 0.56717 0.58713 0.0
H279 H 0.82893 0.59701 0.47042 0.0
H280 H 0.76045 0.60041 0.36109 0.0
O281 O 0.80807 0.61271 0.63912 0.0
C282 C 0.7855 0.55216 0.5305 0.0
O283 O 0.76676 0.55839 0.48041 0.0
N284 N 0.76297 0.62586 0.57514 0.0
C285 C 0.73209 0.66371 0.55499 0.0
C286 C 0.75168 0.6653 0.61754 0.0
C287 C 0.76675 0.64597 0.62796 0.0
C288 C 0.74299 0.62359 0.52065 0.0
C289 C 0.72771 0.64242 0.50718 0.0
H290 H 0.78085 0.64708 0.68081 0.0
H291 H 0.73843 0.60673 0.48987 0.0
H292 H 0.79862 0.59656 0.80464 0.0
H293 H 0.72777 0.58775 0.87901 0.0
H294 H 0.83094 0.59764 0.2758 0.0
H295 H 0.75521 0.68123 0.65847 0.0
H296 H 0.71215 0.6401 0.46214 0.0
C297 C 0.41693 0.75077 0.7106 0.0
C298 C 0.41858 0.74982 0.81222 0.0
N299 N 0.41398 0.77133 0.84888 0.0
N300 N 0.41102 0.77271 0.68315 0.0
C301 C 0.40956 0.78483 0.76896 0.0
H302 H 0.41927 0.73628 0.66006 0.0
Co303 Co 0.40466 0.78331 0.55457 0.0
C304 C 0.36493 0.81636 0.60323 0.0
O305 O 0.35168 0.80731 0.53353 0.0
N306 N 0.39905 0.79444 0.423 0.0
C307 C 0.39309 0.81772 0.29247 0.0
C308 C 0.39222 0.81611 0.39388 0.0
C309 C 0.40495 0.7837 0.33696 0.0
N310 N 0.40119 0.79726 0.25676 0.0
O311 O 0.43313 0.80161 0.55772 0.0
H312 H 0.38789 0.83043 0.44265 0.0
H313 H 0.41335 0.76676 0.33245 0.0
O314 O 0.38613 0.8093 0.61338 0.0
C315 C 0.44925 0.79045 0.51198 0.0
O316 O 0.44425 0.76979 0.47459 0.0
N317 N 0.37812 0.76293 0.5493 0.0
C318 C 0.34312 0.7284 0.53558 0.0
C319 C 0.34291 0.74485 0.61272 0.0
C320 C 0.36093 0.76162 0.61959 0.0
C321 C 0.37918 0.74608 0.47808 0.0
C322 C 0.36157 0.72933 0.46763 0.0
H323 H 0.36147 0.77305 0.68299 0.0
H324 H 0.39431 0.74469 0.43151 0.0
H325 H 0.40442 0.80304 0.77335 0.0
H326 H 0.42261 0.73441 0.85576 0.0
H327 H 0.38838 0.8329 0.24875 0.0
H328 H 0.32943 0.74424 0.66899 0.0
H329 H 0.36275 0.71684 0.40762 0.0
C330 C 0.24845 0.41757 0.71138 0.0
C331 C 0.24955 0.41938 0.81295 0.0
N332 N 0.22825 0.4141 0.85013 0.0
N333 N 0.22662 0.41104 0.68467 0.0
C334 C 0.2147 0.40931 0.77088 0.0
H335 H 0.26281 0.42016 0.66038 0.0
Co336 Co 0.21603 0.40458 0.5562 0.0
C337 C 0.18173 0.36614 0.60544 0.0
O338 O 0.19071 0.35246 0.53721 0.0
N339 N 0.205 0.39906 0.42476 0.0
C340 C 0.18221 0.39332 0.29267 0.0
C341 C 0.18339 0.39242 0.39416 0.0
C342 C 0.21612 0.40499 0.33968 0.0
N343 N 0.20283 0.40139 0.25839 0.0
O344 O 0.19865 0.43373 0.5573 0.0
H345 H 0.1688 0.38833 0.44185 0.0
H346 H 0.23349 0.41251 0.33715 0.0
O347 O 0.18925 0.38719 0.61481 0.0
C348 C 0.20938 0.44993 0.5103 0.0
O349 O 0.22978 0.44511 0.4701 0.0
N350 N 0.23522 0.37696 0.55397 0.0
C351 C 0.26553 0.33817 0.54579 0.0
C352 C 0.25021 0.3412 0.62575 0.0
C353 C 0.2356 0.36099 0.62944 0.0
C354 C 0.25137 0.37503 0.48009 0.0
C355 C 0.26617 0.35559 0.47312 0.0
H356 H 0.22472 0.36357 0.69359 0.0
H357 H 0.2537 0.38896 0.4279 0.0
H358 H 0.19642 0.40435 0.77633 0.0
H359 H 0.26505 0.42333 0.85609 0.0
H360 H 0.167 0.3893 0.2478 0.0
H361 H 0.24955 0.32849 0.68506 0.0
H362 H 0.27862 0.3546 0.41288 0.0
C363 C 0.58976 0.2567 0.7304 0.0
C364 C 0.58906 0.25822 0.83191 0.0
N365 N 0.58811 0.23634 0.86948 0.0
N366 N 0.58947 0.23393 0.70346 0.0
C367 C 0.58766 0.22202 0.78981 0.0
H368 H 0.59117 0.27128 0.67974 0.0
Co369 Co 0.59357 0.22178 0.57528 0.0
C370 C 0.62728 0.18092 0.61367 0.0
O371 O 0.63666 0.18147 0.52524 0.0
N372 N 0.59697 0.2095 0.44444 0.0
C373 C 0.59304 0.18577 0.31422 0.0
C374 C 0.59357 0.18703 0.41592 0.0
C375 C 0.59783 0.22152 0.35786 0.0
N376 N 0.59578 0.20755 0.27757 0.0
O377 O 0.56384 0.20559 0.58698 0.0
H378 H 0.59043 0.17259 0.46595 0.0
H379 H 0.59783 0.24036 0.35285 0.0
O380 O 0.61071 0.19517 0.63561 0.0
C381 C 0.54791 0.21432 0.53155 0.0
O382 O 0.55328 0.23213 0.47433 0.0
N383 N 0.62144 0.23971 0.56145 0.0
C384 C 0.65838 0.27147 0.52975 0.0
C385 C 0.66141 0.25167 0.59044 0.0
C386 C 0.64273 0.23602 0.60541 0.0
C387 C 0.61779 0.25969 0.50845 0.0
C388 C 0.63605 0.27529 0.48891 0.0
H389 H 0.6454 0.22161 0.65529 0.0
H390 H 0.60034 0.26376 0.48215 0.0
H391 H 0.58716 0.20308 0.79455 0.0
H392 H 0.58958 0.27424 0.87467 0.0
H393 H 0.5901 0.17011 0.27078 0.0
H394 H 0.67778 0.24861 0.62893 0.0
H395 H 0.6325 0.29043 0.44299 0.0
C396 C 0.74812 0.41461 0.29718 0.0
C397 C 0.74692 0.41587 0.19564 0.0
N398 N 0.76893 0.41489 0.15932 0.0
N399 N 0.77075 0.41259 0.32494 0.0
C400 C 0.78298 0.41311 0.23937 0.0
H401 H 0.73338 0.41433 0.34739 0.0
Co402 Co 0.78195 0.40781 0.45337 0.0
C403 C 0.82022 0.37257 0.42135 0.0
O404 O 0.81358 0.36139 0.50138 0.0
N405 N 0.79348 0.40371 0.58506 0.0
C406 C 0.81766 0.40564 0.71491 0.0
C407 C 0.81623 0.40494 0.61342 0.0
C408 C 0.7815 0.40447 0.6716 0.0
N409 N 0.79572 0.40564 0.75128 0.0
O410 O 0.79779 0.43769 0.44831 0.0
H411 H 0.83092 0.40663 0.56347 0.0
H412 H 0.76269 0.40552 0.67722 0.0
O413 O 0.80951 0.39144 0.39695 0.0
C414 C 0.78713 0.45274 0.5018 0.0
O415 O 0.76803 0.44627 0.54875 0.0
N416 N 0.76405 0.37983 0.4603 0.0
C417 C 0.73137 0.34317 0.47732 0.0
C418 C 0.75031 0.3416 0.41099 0.0
C419 C 0.76633 0.36024 0.40283 0.0
C420 C 0.74467 0.38236 0.51798 0.0
C421 C 0.72875 0.36409 0.5307 0.0
H422 H 0.77983 0.35922 0.3472 0.0
H423 H 0.74092 0.39912 0.55124 0.0
H424 H 0.80187 0.41206 0.23541 0.0
H425 H 0.731 0.41638 0.15204 0.0
H426 H 0.83352 0.40747 0.75831 0.0
H427 H 0.75228 0.32657 0.36293 0.0
H428 H 0.71417 0.36666 0.58072 0.0
C429 C 0.59178 0.7474 0.28743 0.0
C430 C 0.59051 0.74619 0.1859 0.0
N431 N 0.58734 0.76803 0.15003 0.0
N432 N 0.58986 0.76996 0.31616 0.0
C433 C 0.58659 0.78201 0.23086 0.0
H434 H 0.59482 0.73279 0.33666 0.0
Co435 Co 0.59393 0.78221 0.44458 0.0
C436 C 0.62682 0.82378 0.40354 0.0
O437 O 0.63644 0.82384 0.49163 0.0
N438 N 0.59727 0.79455 0.57524 0.0
C439 C 0.59261 0.81861 0.70378 0.0
C440 C 0.59396 0.81711 0.60242 0.0
C441 C 0.59731 0.78268 0.66235 0.0
N442 N 0.5944 0.79683 0.74164 0.0
O443 O 0.56396 0.79809 0.43394 0.0
H444 H 0.59132 0.83149 0.55156 0.0
H445 H 0.59744 0.76381 0.66808 0.0
O446 O 0.61055 0.80904 0.38335 0.0
C447 C 0.54844 0.78904 0.49037 0.0
O448 O 0.55408 0.77059 0.54342 0.0
N449 N 0.62213 0.76477 0.45835 0.0
C450 C 0.65995 0.7345 0.49299 0.0
C451 C 0.66263 0.75432 0.43275 0.0
C452 C 0.64344 0.76918 0.41571 0.0
C453 C 0.61899 0.7447 0.5115 0.0
C454 C 0.63769 0.72958 0.53134 0.0
H455 H 0.64586 0.7837 0.36632 0.0
H456 H 0.60163 0.74015 0.53731 0.0
H457 H 0.5851 0.80092 0.22781 0.0
H458 H 0.59236 0.73049 0.14172 0.0
H459 H 0.58992 0.83452 0.74579 0.0
H460 H 0.6794 0.75827 0.39895 0.0
H461 H 0.6346 0.71385 0.57429 0.0
C462 C 0.25012 0.58384 0.29731 0.0
C463 C 0.25126 0.58344 0.19553 0.0
N464 N 0.22986 0.58874 0.15943 0.0
N465 N 0.22808 0.58929 0.32518 0.0
C466 C 0.2161 0.59178 0.2395 0.0
H467 H 0.26455 0.58093 0.34779 0.0
Co468 Co 0.21733 0.59419 0.45394 0.0
C469 C 0.18144 0.63217 0.42127 0.0
O470 O 0.1885 0.64332 0.50085 0.0
N471 N 0.20617 0.59861 0.58525 0.0
C472 C 0.18195 0.6 0.71463 0.0
C473 C 0.18341 0.59971 0.61322 0.0
C474 C 0.21806 0.59719 0.67193 0.0
N475 N 0.20382 0.59837 0.75123 0.0
O476 O 0.19961 0.56526 0.44675 0.0
H477 H 0.16861 0.59925 0.56323 0.0
H478 H 0.23668 0.59419 0.67821 0.0
O479 O 0.19087 0.61251 0.39883 0.0
C480 C 0.20908 0.5493 0.49978 0.0
O481 O 0.22836 0.55432 0.54857 0.0
N482 N 0.23704 0.62098 0.46289 0.0
C483 C 0.27133 0.65586 0.48646 0.0
C484 C 0.25238 0.65915 0.4215 0.0
C485 C 0.23571 0.64123 0.40886 0.0
C486 C 0.25626 0.61698 0.52032 0.0
C487 C 0.27308 0.63435 0.53606 0.0
H488 H 0.22236 0.64347 0.35319 0.0
H489 H 0.25903 0.59983 0.55183 0.0
H490 H 0.19757 0.5957 0.23542 0.0
H491 H 0.26678 0.58021 0.15154 0.0
H492 H 0.16601 0.60017 0.75805 0.0
H493 H 0.25089 0.67508 0.37841 0.0
H494 H 0.28751 0.63076 0.58588 0.0
C495 C 0.42735 0.24235 0.31362 0.0
C496 C 0.42711 0.24476 0.21235 0.0
N497 N 0.40839 0.23311 0.17534 0.0
N498 N 0.40894 0.22916 0.34158 0.0
C499 C 0.39748 0.2243 0.2562 0.0
H500 H 0.44048 0.24924 0.36344 0.0
Co501 Co 0.40237 0.21855 0.47077 0.0
C502 C 0.39609 0.17533 0.35433 0.0
O503 O 0.41868 0.17586 0.33541 0.0
N504 N 0.39568 0.20844 0.60031 0.0
C505 C 0.38451 0.18841 0.7335 0.0
C506 C 0.38634 0.188 0.63192 0.0
C507 C 0.3993 0.22095 0.684 0.0
N508 N 0.39274 0.20916 0.76597 0.0
O509 O 0.43278 0.20333 0.47735 0.0
H510 H 0.38133 0.17355 0.58475 0.0
H511 H 0.40649 0.23852 0.68502 0.0
O512 O 0.3873 0.19048 0.41349 0.0
C513 C 0.44801 0.21396 0.53014 0.0
O514 O 0.44216 0.23377 0.57281 0.0
N515 N 0.37428 0.2353 0.46975 0.0
C516 C 0.33641 0.26559 0.49737 0.0
C517 C 0.33272 0.24241 0.46559 0.0
C518 C 0.352 0.22733 0.4531 0.0
C519 C 0.37813 0.25791 0.49749 0.0
C520 C 0.35948 0.27334 0.51191 0.0
H521 H 0.34892 0.2093 0.43225 0.0
H522 H 0.3959 0.26381 0.51082 0.0
H523 H 0.38195 0.21355 0.25388 0.0
H524 H 0.44013 0.25408 0.16956 0.0
H525 H 0.37823 0.17432 0.78009 0.0
H526 H 0.31511 0.23588 0.45325 0.0
H527 H 0.36308 0.2912 0.5347 0.0
C528 C 0.27839 0.10943 0.61929 0.0
C529 C 0.29744 0.09623 0.65567 0.0
C530 C 0.27144 0.10802 0.51986 0.0
C531 C 0.28331 0.09342 0.45256 0.0
H532 H 0.26897 0.12119 0.66786 0.0
H533 H 0.25692 0.11876 0.49499 0.0
S534 S 0.33255 0.05328 0.5117 0.0
N535 N 0.32682 0.06661 0.61714 0.0
N536 N 0.31394 0.06433 0.43058 0.0
C537 C 0.30208 0.07983 0.48807 0.0
C538 C 0.30909 0.08113 0.5894 0.0
C539 C 0.92308 0.29945 0.61757 0.0
C540 C 0.908 0.28785 0.68428 0.0
C541 C 0.92492 0.29238 0.51825 0.0
C542 C 0.91195 0.27327 0.48144 0.0
H543 H 0.93381 0.31395 0.64251 0.0
H544 H 0.93682 0.30176 0.47006 0.0
S545 S 0.86796 0.23866 0.62174 0.0
N546 N 0.87846 0.25745 0.70326 0.0
N547 N 0.88215 0.24402 0.51801 0.0
C548 C 0.89654 0.26175 0.54679 0.0
C549 C 0.89452 0.26906 0.64761 0.0
C550 C 0.70845 0.89848 0.49507 0.0
C551 C 0.72713 0.91319 0.46643 0.0
C552 C 0.70202 0.89606 0.59472 0.0
C553 C 0.71407 0.90815 0.66981 0.0
H554 H 0.69907 0.88833 0.44026 0.0
H555 H 0.68781 0.88427 0.61349 0.0
S556 S 0.7622 0.95114 0.63306 0.0
N557 N 0.75622 0.94154 0.52084 0.0
N558 N 0.74418 0.93699 0.7076 0.0
C559 C 0.73232 0.92342 0.64198 0.0
C560 C 0.73884 0.92592 0.54054 0.0
C561 C 0.10985 0.71143 0.48259 0.0
C562 C 0.09098 0.72572 0.45241 0.0
C563 C 0.11296 0.70518 0.58209 0.0
C564 C 0.09732 0.71292 0.65563 0.0
H565 H 0.12258 0.70538 0.42904 0.0
H566 H 0.12799 0.69454 0.60194 0.0
S567 S 0.04349 0.7483 0.61341 0.0
N568 N 0.05549 0.74596 0.50296 0.0
N569 N 0.0611 0.73403 0.68944 0.0
C570 C 0.07802 0.72671 0.62599 0.0
C571 C 0.07493 0.73316 0.52465 0.0
C572 C 0.30329 0.89231 0.44069 0.0
C573 C 0.29419 0.90706 0.36663 0.0
C574 C 0.29708 0.89531 0.54028 0.0
C575 C 0.28156 0.91323 0.56988 0.0
H576 H 0.31496 0.87806 0.42112 0.0
H577 H 0.30414 0.88321 0.59429 0.0
S578 S 0.25527 0.95841 0.40647 0.0
N579 N 0.27047 0.94149 0.33106 0.0
N580 N 0.25881 0.94709 0.5177 0.0
C581 C 0.27285 0.92848 0.49686 0.0
C582 C 0.27916 0.92542 0.39549 0.0
C583 C 0.10429 0.26195 0.51199 0.0
C584 C 0.09329 0.27685 0.58076 0.0
C585 C 0.10698 0.26856 0.41266 0.0
C586 C 0.0988 0.29036 0.3778 0.0
H587 H 0.11135 0.24523 0.53556 0.0
H588 H 0.11594 0.25668 0.36304 0.0
S589 S 0.06638 0.33468 0.52518 0.0
N590 N 0.07262 0.31369 0.60499 0.0
N591 N 0.07756 0.32605 0.41887 0.0
C592 C 0.08724 0.30519 0.44524 0.0
C593 C 0.08453 0.29846 0.54641 0.0
C594 C 0.71063 0.08194 0.50277 0.0
C595 C 0.73031 0.09412 0.53901 0.0
C596 C 0.70378 0.08374 0.40332 0.0
C597 C 0.71623 0.09796 0.33617 0.0
H598 H 0.70067 0.07064 0.55148 0.0
H599 H 0.68883 0.0736 0.37857 0.0
S600 S 0.76737 0.13566 0.39705 0.0
N601 N 0.76113 0.1222 0.5017 0.0
N602 N 0.74813 0.12587 0.31573 0.0
C603 C 0.7356 0.11069 0.37227 0.0
C604 C 0.74266 0.10871 0.47332 0.0
C605 C 0.91701 0.73903 0.48704 0.0
C606 C 0.91086 0.72338 0.5634 0.0
C607 C 0.91594 0.73238 0.38727 0.0
C608 C 0.90872 0.70973 0.35908 0.0
H609 H 0.92285 0.75662 0.50436 0.0
H610 H 0.92111 0.74504 0.33186 0.0
S611 S 0.89022 0.66199 0.52791 0.0
N612 N 0.89697 0.68398 0.60187 0.0
N613 N 0.89493 0.67173 0.41512 0.0
C614 C 0.90265 0.69383 0.43414 0.0
C615 C 0.90374 0.70056 0.53587 0.0
C616 C 0.7993 0.58585 0.11392 0.0
C617 C 0.7859 0.59898 0.18182 0.0
C618 C 0.79248 0.58371 0.01458 0.0
C619 C 0.77187 0.59438 0.97899 0.0
H620 H 0.81504 0.57687 0.13786 0.0
H621 H 0.80328 0.57336 0.96532 0.0
S622 S 0.73176 0.63251 0.12296 0.0
N623 N 0.75186 0.6242 0.20357 0.0
N624 N 0.73891 0.61975 0.01783 0.0
C625 C 0.75845 0.60777 0.04544 0.0
C626 C 0.76549 0.61015 0.14644 0.0
C627 C 0.40002 0.76819 0.12108 0.0
C628 C 0.40527 0.79097 0.1547 0.0
C629 C 0.4032 0.76183 0.02172 0.0
C630 C 0.41186 0.77794 0.95179 0.0
H631 H 0.3929 0.75533 0.17166 0.0
H632 H 0.3983 0.74429 0.99909 0.0
S633 S 0.43104 0.83892 1.00466 0.0
N634 N 0.4213 0.8291 0.11169 0.0
N635 N 0.42753 0.81714 0.92575 0.0
C636 C 0.41786 0.80057 0.9852 0.0
C637 C 0.4145 0.80708 0.08629 0.0
C638 C 0.20096 0.38991 0.08235 0.0
C639 C 0.20912 0.40529 0.15613 0.0
C640 C 0.20712 0.39299 0.98281 0.0
C641 C 0.22176 0.41158 0.95278 0.0
H642 H 0.19003 0.37509 0.102 0.0
H643 H 0.20073 0.38045 0.92912 0.0
S644 S 0.24567 0.45832 0.11448 0.0
N645 N 0.2311 0.44095 0.1904 0.0
N646 N 0.24289 0.44652 1.00378 0.0
C647 C 0.22967 0.42737 0.02527 0.0
C648 C 0.2233 0.42429 0.12669 0.0
C649 C 0.57942 0.20293 0.10809 0.0
C650 C 0.59424 0.21481 0.17499 0.0
C651 C 0.57741 0.21007 1.00881 0.0
C652 C 0.58999 0.22949 0.97233 0.0
H653 H 0.56901 0.18819 0.13292 0.0
H654 H 0.56571 0.20049 0.96041 0.0
S655 S 0.63337 0.26476 0.11335 0.0
N656 N 0.6232 0.24573 0.19457 0.0
N657 N 0.61929 0.25922 1.00944 0.0
C658 C 0.60521 0.24122 0.0379 0.0
C659 C 0.60736 0.23387 0.13862 0.0
C660 C 0.79461 0.39878 0.02805 0.0
C661 C 0.77588 0.41343 0.05676 0.0
C662 C 0.80107 0.39644 0.9284 0.0
C663 C 0.789 0.40855 0.85342 0.0
H664 H 0.80404 0.38864 0.0828 0.0
H665 H 0.81534 0.38472 0.90952 0.0
S666 S 0.74074 0.45138 0.89023 0.0
N667 N 0.74673 0.44175 1.0024 0.0
N668 N 0.75882 0.43733 0.81568 0.0
C669 C 0.77069 0.42374 0.88128 0.0
C670 C 0.76415 0.42617 0.98269 0.0
C671 C 0.60298 0.76334 0.98002 0.0
C672 C 0.58815 0.7751 0.04712 0.0
C673 C 0.60487 0.7705 0.88091 0.0
C674 C 0.59197 0.78969 0.84409 0.0
H675 H 0.61373 0.74884 1.00492 0.0
H676 H 0.61688 0.76118 0.83305 0.0
S677 S 0.54838 0.82454 0.98586 0.0
N678 N 0.55899 0.80576 0.06727 0.0
N679 N 0.5622 0.81899 0.88142 0.0
C680 C 0.57655 0.80118 0.90969 0.0
C681 C 0.57473 0.79395 1.01083 0.0
C682 C 0.23279 0.57665 0.98421 0.0
C683 C 0.22329 0.59152 0.05697 0.0
C684 C 0.2265 0.57902 0.88431 0.0
C685 C 0.21043 0.59631 0.85361 0.0
H686 H 0.24491 0.56287 1.00495 0.0
H687 H 0.23393 0.56703 0.83085 0.0
S688 S 0.183 0.64156 1.01165 0.0
N689 N 0.19866 0.62554 0.08902 0.0
N690 N 0.18665 0.62961 0.90184 0.0
C691 C 0.20122 0.61156 0.92495 0.0
C692 C 0.20769 0.60928 0.02642 0.0
C693 C 0.42129 0.23069 0.99986 0.0
C694 C 0.40337 0.22842 0.07149 0.0
C695 C 0.4175 0.22501 0.90015 0.0
C696 C 0.39579 0.21633 0.86744 0.0
H697 H 0.43871 0.23633 0.02073 0.0
H698 H 0.43193 0.22667 0.84862 0.0
S699 S 0.34229 0.20856 0.01897 0.0
N700 N 0.36211 0.21851 0.09741 0.0
N701 N 0.35577 0.20668 0.91152 0.0
C702 C 0.37758 0.21426 0.93655 0.0
C703 C 0.38117 0.22057 0.03794 0.0
C704 C 0.34275 0.14225 0.25577 0.0
C705 C 0.34769 0.14027 0.15423 0.0
C706 C 0.35858 0.15329 0.32078 0.0
C707 C 0.38026 0.16202 0.28715 0.0
H708 H 0.32615 0.13601 0.28459 0.0
H709 H 0.35377 0.15514 0.3977 0.0
S710 S 0.4018 0.16035 0.02835 0.0
N711 N 0.37575 0.14771 0.02344 0.0
N712 N 0.40586 0.16754 0.14513 0.0
C713 C 0.38561 0.15951 0.18607 0.0
C714 C 0.36924 0.1489 0.11978 0.0
C715 C 0.84187 0.3714 0.25854 0.0
C716 C 0.83705 0.3612 0.35123 0.0
C717 C 0.85519 0.35954 0.18664 0.0
C718 C 0.8647 0.33716 0.20487 0.0
H719 H 0.83485 0.38844 0.23996 0.0
H720 H 0.85777 0.36785 0.11557 0.0
S721 S 0.85764 0.30267 0.43569 0.0
N722 N 0.84351 0.32737 0.45742 0.0
N723 N 0.8682 0.30526 0.32301 0.0
C724 C 0.86063 0.32706 0.29821 0.0
C725 C 0.84697 0.33903 0.37112 0.0
C726 C 0.64891 0.85907 0.3419 0.0
C727 C 0.63839 0.83722 0.32248 0.0
C728 C 0.66205 0.87092 0.26942 0.0
C729 C 0.66576 0.86119 0.17499 0.0
H730 H 0.64728 0.86694 0.41433 0.0
H731 H 0.6699 0.88752 0.28901 0.0
S732 S 0.6419 0.80433 0.08629 0.0
N733 N 0.63243 0.80647 0.20087 0.0
N734 N 0.65691 0.82855 0.06554 0.0
C735 C 0.65474 0.83964 0.15386 0.0
C736 C 0.64119 0.8277 0.22728 0.0
C737 C 0.17092 0.6696 0.33643 0.0
C738 C 0.16778 0.64519 0.34529 0.0
C739 C 0.16054 0.68231 0.25931 0.0
C740 C 0.14597 0.67134 0.18947 0.0
H741 H 0.18229 0.6789 0.38718 0.0
H742 H 0.1643 0.70086 0.25397 0.0
S743 S 0.1313 0.60809 0.18062 0.0
N744 N 0.14889 0.61053 0.27716 0.0
N745 N 0.12836 0.63483 0.13497 0.0
C746 C 0.14201 0.64713 0.19879 0.0
C747 C 0.15319 0.63396 0.27587 0.0
C748 C 0.36283 0.85111 0.71882 0.0
C749 C 0.35363 0.82965 0.68466 0.0
C750 C 0.35204 0.86342 0.79711 0.0
C751 C 0.33248 0.85404 0.84704 0.0
H752 H 0.37816 0.85861 0.68363 0.0
H753 H 0.3592 0.8802 0.81955 0.0
S754 S 0.30226 0.79806 0.78794 0.0
N755 N 0.32353 0.79991 0.70574 0.0
N756 N 0.30479 0.82169 0.85738 0.0
C757 C 0.32362 0.8323 0.81494 0.0
C758 C 0.3338 0.82045 0.73268 0.0
C759 C 0.17023 0.32752 0.82748 0.0
C760 C 0.14693 0.33278 0.85357 0.0
C761 C 0.18096 0.33811 0.7459 0.0
C762 C 0.16921 0.3551 0.68914 0.0
H763 H 0.18005 0.31444 0.86833 0.0
H764 H 0.19867 0.33286 0.72732 0.0
S765 S 0.10796 0.3751 0.72529 0.0
N766 N 0.1121 0.35557 0.81386 0.0
N767 N 0.13298 0.37667 0.66382 0.0
C768 C 0.14603 0.36085 0.71481 0.0
C769 C 0.13472 0.34938 0.79614 0.0
C770 C 0.66285 0.13306 0.74199 0.0
C771 C 0.66666 0.14221 0.83742 0.0
C772 C 0.6496 0.14535 0.67102 0.0
C773 C 0.63914 0.1671 0.69289 0.0
H774 H 0.67063 0.11655 0.7206 0.0
H775 H 0.64778 0.13788 0.59792 0.0
S776 S 0.64328 0.19876 0.93186 0.0
N777 N 0.65817 0.17435 0.95005 0.0
N778 N 0.63361 0.19727 0.81733 0.0
C779 C 0.64218 0.17611 0.78882 0.0
C780 C 0.65577 0.16371 0.86083 0.0
C781 C 0.8434 0.66455 0.6853 0.0
C782 C 0.83713 0.64069 0.69123 0.0
C783 C 0.85697 0.67533 0.75888 0.0
C784 C 0.86439 0.6629 0.84299 0.0
H785 H 0.83739 0.67526 0.62426 0.0
H786 H 0.86103 0.6938 0.75097 0.0
S787 S 0.85523 0.59953 0.88992 0.0
N788 N 0.84197 0.60433 0.78339 0.0
N789 N 0.86593 0.62513 0.92518 0.0
C790 C 0.85885 0.63894 0.84904 0.0
C791 C 0.84564 0.62772 0.77241 0.0
C792 C 0.30468 0.01348 0.92624 0.0
C793 C 0.30354 0.02628 0.01515 0.0
C794 C 0.30521 0.9888 0.92595 0.0
C795 C 0.30406 0.97613 0.01464 0.0
H796 H 0.30363 0.02258 0.85616 0.0
H797 H 0.30426 0.97968 0.85594 0.0
S798 S 0.30327 1.0012 0.26719 0.0
N799 N 0.30367 0.0244 0.19401 0.0
N800 N 0.30383 0.97808 0.19367 0.0
C801 C 0.30463 0.98872 0.10399 0.0
C802 C 0.30462 0.01382 0.10428 0.0
C803 C 0.01588 0.29675 0.94457 0.0
C804 C 0.02923 0.29595 0.0316 0.0
C805 C 0.99122 0.29613 0.94818 0.0
C806 C 0.9791 0.29525 0.03881 0.0
H807 H 0.02448 0.29572 0.87344 0.0
H808 H 0.98158 0.29485 0.8794 0.0
S809 S 0.00612 0.296 0.28736 0.0
N810 N 0.02868 0.29635 0.21078 0.0
N811 N 0.98235 0.296 0.21731 0.0
C812 C 0.99224 0.29663 0.12617 0.0
C813 C 0.01733 0.29673 0.12254 0.0
C814 C 0.7079 0.99106 0.09203 0.0
C815 C 0.70908 0.9766 1.00844 0.0
C816 C 0.70851 0.01561 0.08242 0.0
C817 C 0.70973 0.02643 0.98902 0.0
H818 H 0.70866 0.98343 0.16519 0.0
H819 H 0.70955 0.02618 0.14875 0.0
S820 S 0.71016 0.99615 0.74747 0.0
N821 N 0.70944 0.97469 0.82939 0.0
N822 N 0.70981 0.02081 0.81159 0.0
C823 C 0.70875 0.01217 0.90491 0.0
C824 C 0.70865 0.9872 0.91466 0.0
C825 C 0.99131 0.7063 0.91205 0.0
C826 C 0.978 0.70528 0.99905 0.0
C827 C 0.01598 0.70648 0.91591 0.0
C828 C 0.02808 0.70503 1.00651 0.0
H829 H 0.9827 0.70915 0.84174 0.0
H830 H 0.02564 0.7094 0.84815 0.0
S831 S 1.00113 0.69908 0.25361 0.0
N832 N 0.97856 0.70073 0.17724 0.0
N833 N 0.02488 0.7003 0.18383 0.0
C834 C 0.01495 0.70182 0.09286 0.0
C835 C 0.98988 0.70217 0.08923 0.0
C836 C 0.79374 0.48883 0.6009 0.0
C837 C 0.79423 0.47762 0.50822 0.0
C838 C 0.79361 0.51342 0.60871 0.0
C839 C 0.79335 0.52752 0.52385 0.0
H840 H 0.79193 0.4785 0.66762 0.0
H841 H 0.79159 0.52131 0.68093 0.0
S842 S 0.79681 0.50693 0.26473 0.0
N843 N 0.79676 0.48254 0.33074 0.0
N844 N 0.7957 0.52873 0.34496 0.0
C845 C 0.79547 0.51657 0.43123 0.0
C846 C 0.79615 0.49158 0.42345 0.0
C847 C 0.48545 0.79759 0.41446 0.0
C848 C 0.47386 0.79851 0.50625 0.0
C849 C 0.5101 0.79736 0.40839 0.0
C850 C 0.52389 0.79741 0.49426 0.0
H851 H 0.47537 0.79532 0.34727 0.0
H852 H 0.51826 0.79487 0.33698 0.0
S853 S 0.50225 0.80224 0.75151 0.0
N854 N 0.47811 0.8019 0.68375 0.0
N855 N 0.52438 0.80073 0.67297 0.0
C856 C 0.51256 0.80011 0.58584 0.0
C857 C 0.48751 0.80087 0.59176 0.0
C858 C 0.20173 0.48677 0.417 0.0
C859 C 0.20121 0.47455 0.50745 0.0
C860 C 0.20126 0.51144 0.41372 0.0
C861 C 0.20089 0.52468 0.50108 0.0
H862 H 0.20415 0.47721 0.34864 0.0
H863 H 0.20348 0.52013 0.34322 0.0
S864 S 0.19747 0.50121 0.75593 0.0
N865 N 0.19817 0.47757 0.68547 0.0
N866 N 0.19815 0.52387 0.67985 0.0
C867 C 0.19875 0.51266 0.59139 0.0
C868 C 0.19868 0.48758 0.59451 0.0
C869 C 0.51037 0.20457 0.44681 0.0
C870 C 0.52306 0.20686 0.53563 0.0
C871 C 0.48569 0.20417 0.44603 0.0
C872 C 0.47292 0.20671 0.53395 0.0
H873 H 0.51957 0.20454 0.37688 0.0
H874 H 0.47662 0.20399 0.3757 0.0
S875 S 0.49772 0.21107 0.78643 0.0
N876 N 0.521 0.20945 0.71408 0.0
N877 N 0.47466 0.2096 0.71263 0.0
C878 C 0.4854 0.20745 0.6236 0.0
C879 C 0.5105 0.20727 0.62452 0.0
C880 C 0.19744 0.17481 0.02111 0.0
C881 C 0.22135 0.18091 0.01431 0.0
C882 C 0.17969 0.1917 0.01282 0.0
C883 C 0.18491 0.2156 0.99821 0.0
H884 H 0.1923 0.15677 0.03387 0.0
H885 H 0.16162 0.18586 0.01739 0.0
S886 S 0.24468 0.24102 0.97523 0.0
N887 N 0.24931 0.21264 0.99022 0.0
N888 N 0.2159 0.24456 0.97825 0.0
C889 C 0.20874 0.22204 0.99135 0.0
C890 C 0.22692 0.20472 0.99912 0.0
C891 C 0.8171 0.20931 0.92767 0.0
C892 C 0.82281 0.21679 0.02377 0.0
C893 C 0.7996 0.19237 0.9113 0.0
C894 C 0.78753 0.18203 0.99063 0.0
H895 H 0.82644 0.21643 0.8648 0.0
H896 H 0.79609 0.18672 0.83641 0.0
S897 S 0.7955 0.19585 0.2559 0.0
N898 N 0.81456 0.21297 0.1989 0.0
N899 N 0.78193 0.18096 0.16824 0.0
C900 C 0.79277 0.18967 0.08679 0.0
C901 C 0.81033 0.20711 0.10335 0.0
C902 C 0.82917 0.80996 0.0182 0.0
C903 C 0.82341 0.78594 0.02241 0.0
C904 C 0.81214 0.82743 0.03004 0.0
C905 C 0.78826 0.8219 0.04401 0.0
H906 H 0.84704 0.81551 1.00447 0.0
H907 H 0.81792 0.84552 0.02823 0.0
S908 S 0.76356 0.76171 0.06162 0.0
N909 N 0.792 0.75753 0.04614 0.0
N910 N 0.75969 0.79041 0.06071 0.0
C911 C 0.78212 0.79795 0.04824 0.0
C912 C 0.79967 0.78003 0.03858 0.0
C913 C 0.20162 0.78695 0.02449 0.0
C914 C 0.17764 0.79286 0.02796 0.0
C915 C 0.21896 0.80425 1.0107 0.0
C916 C 0.21294 0.82811 1.00099 0.0
H917 H 0.207 0.76878 0.03081 0.0
H918 H 0.23721 0.79894 1.00877 0.0
S919 S 0.15263 0.85281 1.006 0.0
N920 N 0.14888 0.82438 0.02294 0.0
N921 N 0.18121 0.85662 0.9941 0.0
C922 C 0.18901 0.83421 1.00453 0.0
C923 C 0.17145 0.81668 0.01878 0.0
C924 C 0.69208 0.70829 0.43134 0.0
C925 C 0.67984 0.71817 0.51124 0.0
C926 C 0.70941 0.69114 0.44644 0.0
C927 C 0.71542 0.68354 0.54205 0.0
H928 H 0.68765 0.71324 0.35642 0.0
H929 H 0.71794 0.68348 0.3827 0.0
S930 S 0.68949 0.70491 0.77616 0.0
N931 N 0.67558 0.71984 0.68949 0.0
N932 N 0.70827 0.68774 0.71783 0.0
C933 C 0.70389 0.69387 0.62269 0.0
C934 C 0.68604 0.71111 0.60727 0.0
C935 C 0.3009 0.71513 0.5309 0.0
C936 C 0.32498 0.7096 0.52749 0.0
C937 C 0.28365 0.69777 0.51656 0.0
C938 C 0.28982 0.67418 0.49917 0.0
H939 H 0.29536 0.73309 0.54282 0.0
H940 H 0.26533 0.70281 0.51993 0.0
S941 S 0.35048 0.65049 0.48515 0.0
N942 N 0.35404 0.67866 0.50881 0.0
N943 N 0.32185 0.64639 0.4781 0.0
C944 C 0.31386 0.66846 0.49614 0.0
C945 C 0.33135 0.68604 0.51128 0.0
C946 C 0.30069 0.28732 0.43906 0.0
C947 C 0.31656 0.28196 0.51527 0.0
C948 C 0.28376 0.30504 0.45068 0.0
C949 C 0.28185 0.31781 0.5394 0.0
H950 H 0.302 0.27843 0.36864 0.0
H951 H 0.27234 0.30911 0.38904 0.0
S952 S 0.31825 0.30923 0.76365 0.0
N953 N 0.32851 0.28981 0.68419 0.0
N954 N 0.29676 0.32307 0.70604 0.0
C955 C 0.297 0.31189 0.61751 0.0
C956 C 0.31434 0.29401 0.60537 0.0
C957 C 0.6895 0.33019 0.49795 0.0
C958 C 0.71334 0.32415 0.48696 0.0
C959 C 0.67217 0.31314 0.51242 0.0
C960 C 0.67761 0.28904 0.51417 0.0
H961 H 0.684 0.34837 0.49546 0.0
H962 H 0.65431 0.31909 0.52356 0.0
S963 S 0.73721 0.26349 0.4841 0.0
N964 N 0.74151 0.29211 0.47889 0.0
N965 N 0.70866 0.25992 0.49878 0.0
C966 C 0.70131 0.28259 0.50082 0.0
C967 C 0.71915 0.30011 0.4883 0.0
loop_
_geom_bond_atom_site_label_1
_geom_bond_atom_site_label_2
_geom_bond_distance
_geom_bond_site_symmetry_2
_ccdc_geom_bond_type
C0 C1 1.351 . S
C0 N3 1.368 . S
C0 H5 0.931 . S
C1 C0 1.351 . S
C1 N2 1.373 . S
C1 H29 0.930 . S
N2 C1 1.373 . S
N2 C4 1.340 . S
N3 C0 1.368 . S
N3 C4 1.321 . S
N3 Co6 2.135 . S
C4 N2 1.340 . S
C4 N3 1.321 . S
C4 H28 0.930 . S
H5 C0 0.931 . S
Co6 N3 2.135 . S
Co6 N9 2.121 1_554 S
Co6 O14 2.055 . S
Co6 O17 2.039 . S
Co6 N20 2.140 . S
C7 O8 1.227 . S
C7 O17 1.265 . S
O8 C7 1.227 . S
N9 Co6 2.121 1_556 S
N9 C11 1.375 . S
N9 C12 1.313 . S
C10 C11 1.338 . S
C10 N13 1.377 . S
C10 H30 0.930 . S
C11 N9 1.375 . S
C11 C10 1.338 . S
C11 H15 0.931 . S
C12 N9 1.313 . S
C12 N13 1.344 . S
C12 H16 0.930 . S
N13 C10 1.377 . S
N13 C12 1.344 . S
O14 Co6 2.055 . S
O14 C18 1.253 . S
H15 C11 0.931 . S
H16 C12 0.930 . S
O17 Co6 2.039 . S
O17 C7 1.265 . S
C18 O14 1.253 . S
C18 O19 1.227 . S
O19 C18 1.227 . S
N20 Co6 2.140 . S
N20 C23 1.346 . S
N20 C24 1.345 . S
C21 C22 1.387 . S
C21 C25 1.391 1_554 S
C22 C21 1.387 . S
C22 C23 1.369 . S
C22 H31 0.929 . S
C23 N20 1.346 . S
C23 C22 1.369 . S
C23 H26 0.928 . S
C24 N20 1.345 . S
C24 C25 1.371 1_554 S
C24 H27 0.931 1_554 S
C25 C21 1.391 1_556 S
C25 C24 1.371 1_556 S
C25 H32 0.930 . S
H26 C23 0.928 . S
H27 C24 0.931 1_556 S
H28 C4 0.930 . S
H29 C1 0.930 . S
H30 C10 0.930 . S
H31 C22 0.929 . S
H32 C25 0.930 . S
C33 C34 1.351 . S
C33 N36 1.368 . S
C33 H38 0.931 . S
C34 C33 1.351 . S
C34 N35 1.373 . S
C34 H62 0.930 . S
N35 C34 1.373 . S
N35 C37 1.340 . S
N36 C33 1.368 . S
N36 C37 1.321 . S
N36 Co39 2.135 . S
C37 N35 1.340 . S
C37 N36 1.321 . S
C37 H61 0.930 . S
H38 C33 0.931 . S
Co39 N36 2.135 . S
Co39 N42 2.121 1_554 S
Co39 O47 2.055 . S
Co39 O50 2.039 . S
Co39 N53 2.140 . S
C40 O41 1.227 . S
C40 O50 1.265 . S
O41 C40 1.227 . S
N42 Co39 2.121 1_556 S
N42 C44 1.375 . S
N42 C45 1.313 . S
C43 C44 1.338 . S
C43 N46 1.377 . S
C43 H63 0.930 . S
C44 N42 1.375 . S
C44 C43 1.338 . S
C44 H48 0.931 . S
C45 N42 1.313 . S
C45 N46 1.344 . S
C45 H49 0.930 . S
N46 C43 1.377 . S
N46 C45 1.344 . S
O47 Co39 2.055 . S
O47 C51 1.253 . S
H48 C44 0.931 . S
H49 C45 0.930 . S
O50 Co39 2.039 . S
O50 C40 1.265 . S
C51 O47 1.253 . S
C51 O52 1.227 . S
O52 C51 1.227 . S
N53 Co39 2.140 . S
N53 C56 1.346 . S
N53 C57 1.345 . S
C54 C55 1.387 . S
C54 C58 1.391 1_554 S
C55 C54 1.387 . S
C55 C56 1.369 . S
C55 H64 0.929 . S
C56 N53 1.346 . S
C56 C55 1.369 . S
C56 H59 0.928 . S
C57 N53 1.345 . S
C57 C58 1.371 1_554 S
C57 H60 0.931 1_554 S
C58 C54 1.391 1_556 S
C58 C57 1.371 1_556 S
C58 H65 0.930 . S
H59 C56 0.928 . S
H60 C57 0.931 1_556 S
H61 C37 0.930 . S
H62 C34 0.930 . S
H63 C43 0.930 . S
H64 C55 0.929 . S
H65 C58 0.930 . S
C66 C67 1.351 . S
C66 N69 1.368 . S
C66 H71 0.931 . S
C67 C66 1.351 . S
C67 N68 1.373 . S
C67 H95 0.930 . S
N68 C67 1.373 . S
N68 C70 1.340 . S
N69 C66 1.368 . S
N69 C70 1.321 . S
N69 Co72 2.135 . S
C70 N68 1.340 . S
C70 N69 1.321 . S
C70 H94 0.930 . S
H71 C66 0.931 . S
Co72 N69 2.135 . S
Co72 N75 2.121 1_554 S
Co72 O80 2.055 . S
Co72 O83 2.039 . S
Co72 N86 2.140 . S
C73 O74 1.227 . S
C73 O83 1.265 . S
O74 C73 1.227 . S
N75 Co72 2.121 1_556 S
N75 C77 1.375 . S
N75 C78 1.313 . S
C76 C77 1.338 . S
C76 N79 1.377 . S
C76 H96 0.930 . S
C77 N75 1.375 . S
C77 C76 1.338 . S
C77 H81 0.931 . S
C78 N75 1.313 . S
C78 N79 1.344 . S
C78 H82 0.930 . S
N79 C76 1.377 . S
N79 C78 1.344 . S
O80 Co72 2.055 . S
O80 C84 1.253 . S
H81 C77 0.931 . S
H82 C78 0.930 . S
O83 Co72 2.039 . S
O83 C73 1.265 . S
C84 O80 1.253 . S
C84 O85 1.227 . S
O85 C84 1.227 . S
N86 Co72 2.140 . S
N86 C89 1.346 . S
N86 C90 1.345 . S
C87 C88 1.387 . S
C87 C91 1.391 1_554 S
C88 C87 1.387 . S
C88 C89 1.369 . S
C88 H97 0.929 . S
C89 N86 1.346 . S
C89 C88 1.369 . S
C89 H92 0.928 . S
C90 N86 1.345 . S
C90 C91 1.371 1_554 S
C90 H93 0.931 1_554 S
C91 C87 1.391 1_556 S
C91 C90 1.371 1_556 S
C91 H98 0.930 . S
H92 C89 0.928 . S
H93 C90 0.931 1_556 S
H94 C70 0.930 . S
H95 C67 0.930 . S
H96 C76 0.930 . S
H97 C88 0.929 . S
H98 C91 0.930 . S
C99 C100 1.351 . S
C99 N102 1.368 . S
C99 H104 0.931 . S
C100 C99 1.351 . S
C100 N101 1.373 . S
C100 H128 0.930 . S
N101 C100 1.373 . S
N101 C103 1.340 . S
N102 C99 1.368 . S
N102 C103 1.321 . S
N102 Co105 2.135 . S
C103 N101 1.340 . S
C103 N102 1.321 . S
C103 H127 0.930 . S
H104 C99 0.931 . S
Co105 N102 2.135 . S
Co105 N108 2.121 1_554 S
Co105 O113 2.055 . S
Co105 O116 2.039 . S
Co105 N119 2.140 . S
C106 O107 1.227 . S
C106 O116 1.265 . S
O107 C106 1.227 . S
N108 Co105 2.121 1_556 S
N108 C110 1.375 . S
N108 C111 1.313 . S
C109 C110 1.338 . S
C109 N112 1.377 . S
C109 H129 0.930 . S
C110 N108 1.375 . S
C110 C109 1.338 . S
C110 H114 0.931 . S
C111 N108 1.313 . S
C111 N112 1.344 . S
C111 H115 0.930 . S
N112 C109 1.377 . S
N112 C111 1.344 . S
O113 Co105 2.055 . S
O113 C117 1.253 . S
H114 C110 0.931 . S
H115 C111 0.930 . S
O116 Co105 2.039 . S
O116 C106 1.265 . S
C117 O113 1.253 . S
C117 O118 1.227 . S
O118 C117 1.227 . S
N119 Co105 2.140 . S
N119 C122 1.346 . S
N119 C123 1.345 . S
C120 C121 1.387 . S
C120 C124 1.391 1_554 S
C121 C120 1.387 . S
C121 C122 1.369 . S
C121 H130 0.929 . S
C122 N119 1.346 . S
C122 C121 1.369 . S
C122 H125 0.928 . S
C123 N119 1.345 . S
C123 C124 1.371 1_554 S
C123 H126 0.931 1_554 S
C124 C120 1.391 1_556 S
C124 C123 1.371 1_556 S
C124 H131 0.930 . S
H125 C122 0.928 . S
H126 C123 0.931 1_556 S
H127 C103 0.930 . S
H128 C100 0.930 . S
H129 C109 0.930 . S
H130 C121 0.929 . S
H131 C124 0.930 . S
C132 C133 1.351 . S
C132 N135 1.368 . S
C132 H137 0.931 . S
C133 C132 1.351 . S
C133 N134 1.373 . S
C133 H161 0.930 . S
N134 C133 1.373 . S
N134 C136 1.340 . S
N135 C132 1.368 . S
N135 C136 1.321 . S
N135 Co138 2.135 . S
C136 N134 1.340 . S
C136 N135 1.321 . S
C136 H160 0.930 . S
H137 C132 0.931 . S
Co138 N135 2.135 . S
Co138 N141 2.121 1_556 S
Co138 O146 2.055 . S
Co138 O149 2.039 . S
Co138 N152 2.140 . S
C139 O140 1.227 . S
C139 O149 1.265 . S
O140 C139 1.227 . S
N141 Co138 2.121 1_554 S
N141 C143 1.375 . S
N141 C144 1.313 . S
C142 C143 1.338 . S
C142 N145 1.377 . S
C142 H162 0.930 . S
C143 N141 1.375 . S
C143 C142 1.338 . S
C143 H147 0.931 . S
C144 N141 1.313 . S
C144 N145 1.344 . S
C144 H148 0.930 . S
N145 C142 1.377 . S
N145 C144 1.344 . S
O146 Co138 2.055 . S
O146 C150 1.253 . S
H147 C143 0.931 . S
H148 C144 0.930 . S
O149 Co138 2.039 . S
O149 C139 1.265 . S
C150 O146 1.253 . S
C150 O151 1.227 . S
O151 C150 1.227 . S
N152 Co138 2.140 . S
N152 C155 1.346 . S
N152 C156 1.345 . S
C153 C154 1.387 . S
C153 C157 1.391 1_556 S
C154 C153 1.387 . S
C154 C155 1.369 . S
C154 H163 0.929 . S
C155 N152 1.346 . S
C155 C154 1.369 . S
C155 H158 0.928 . S
C156 N152 1.345 . S
C156 C157 1.371 1_556 S
C156 H159 0.931 1_556 S
C157 C153 1.391 1_554 S
C157 C156 1.371 1_554 S
C157 H164 0.930 . S
H158 C155 0.928 . S
H159 C156 0.931 1_554 S
H160 C136 0.930 . S
H161 C133 0.930 . S
H162 C142 0.930 . S
H163 C154 0.929 . S
H164 C157 0.930 . S
C165 C166 1.351 . S
C165 N168 1.368 . S
C165 H170 0.931 . S
C166 C165 1.351 . S
C166 N167 1.373 . S
C166 H194 0.930 . S
N167 C166 1.373 . S
N167 C169 1.340 . S
N168 C165 1.368 . S
N168 C169 1.321 . S
N168 Co171 2.135 . S
C169 N167 1.340 . S
C169 N168 1.321 . S
C169 H193 0.930 . S
H170 C165 0.931 . S
Co171 N168 2.135 . S
Co171 N174 2.121 1_556 S
Co171 O179 2.055 . S
Co171 O182 2.039 . S
Co171 N185 2.140 . S
C172 O173 1.227 . S
C172 O182 1.265 . S
O173 C172 1.227 . S
N174 Co171 2.121 1_554 S
N174 C176 1.375 . S
N174 C177 1.313 . S
C175 C176 1.338 . S
C175 N178 1.377 . S
C175 H195 0.930 . S
C176 N174 1.375 . S
C176 C175 1.338 . S
C176 H180 0.931 . S
C177 N174 1.313 . S
C177 N178 1.344 . S
C177 H181 0.930 . S
N178 C175 1.377 . S
N178 C177 1.344 . S
O179 Co171 2.055 . S
O179 C183 1.253 . S
H180 C176 0.931 . S
H181 C177 0.930 . S
O182 Co171 2.039 . S
O182 C172 1.265 . S
C183 O179 1.253 . S
C183 O184 1.227 . S
O184 C183 1.227 . S
N185 Co171 2.140 . S
N185 C188 1.346 . S
N185 C189 1.345 . S
C186 C187 1.387 . S
C186 C190 1.391 1_556 S
C187 C186 1.387 . S
C187 C188 1.369 . S
C187 H196 0.929 . S
C188 N185 1.346 . S
C188 C187 1.369 . S
C188 H191 0.928 . S
C189 N185 1.345 . S
C189 C190 1.371 1_556 S
C189 H192 0.931 1_556 S
C190 C186 1.391 1_554 S
C190 C189 1.371 1_554 S
C190 H197 0.930 . S
H191 C188 0.928 . S
H192 C189 0.931 1_554 S
H193 C169 0.930 . S
H194 C166 0.930 . S
H195 C175 0.930 . S
H196 C187 0.929 . S
H197 C190 0.930 . S
C198 C199 1.351 . S
C198 N201 1.368 . S
C198 H203 0.931 . S
C199 C198 1.351 . S
C199 N200 1.373 . S
C199 H227 0.930 . S
N200 C199 1.373 . S
N200 C202 1.340 . S
N201 C198 1.368 . S
N201 C202 1.321 . S
N201 Co204 2.135 . S
C202 N200 1.340 . S
C202 N201 1.321 . S
C202 H226 0.930 . S
H203 C198 0.931 . S
Co204 N201 2.135 . S
Co204 N207 2.121 1_556 S
Co204 O212 2.055 . S
Co204 O215 2.039 . S
Co204 N218 2.140 . S
C205 O206 1.227 . S
C205 O215 1.265 . S
O206 C205 1.227 . S
N207 Co204 2.121 1_554 S
N207 C209 1.375 . S
N207 C210 1.313 . S
C208 C209 1.338 . S
C208 N211 1.377 . S
C208 H228 0.930 . S
C209 N207 1.375 . S
C209 C208 1.338 . S
C209 H213 0.931 . S
C210 N207 1.313 . S
C210 N211 1.344 . S
C210 H214 0.930 . S
N211 C208 1.377 . S
N211 C210 1.344 . S
O212 Co204 2.055 . S
O212 C216 1.253 . S
H213 C209 0.931 . S
H214 C210 0.930 . S
O215 Co204 2.039 . S
O215 C205 1.265 . S
C216 O212 1.253 . S
C216 O217 1.227 . S
O217 C216 1.227 . S
N218 Co204 2.140 . S
N218 C221 1.346 . S
N218 C222 1.345 . S
C219 C220 1.387 . S
C219 C223 1.391 1_556 S
C220 C219 1.387 . S
C220 C221 1.369 . S
C220 H229 0.929 . S
C221 N218 1.346 . S
C221 C220 1.369 . S
C221 H224 0.928 . S
C222 N218 1.345 . S
C222 C223 1.371 1_556 S
C222 H225 0.931 1_556 S
C223 C219 1.391 1_554 S
C223 C222 1.371 1_554 S
C223 H230 0.930 . S
H224 C221 0.928 . S
H225 C222 0.931 1_554 S
H226 C202 0.930 . S
H227 C199 0.930 . S
H228 C208 0.930 . S
H229 C220 0.929 . S
H230 C223 0.930 . S
C231 C232 1.351 . S
C231 N234 1.368 . S
C231 H236 0.931 . S
C232 C231 1.351 . S
C232 N233 1.373 . S
C232 H260 0.930 . S
N233 C232 1.373 . S
N233 C235 1.340 . S
N234 C231 1.368 . S
N234 C235 1.321 . S
N234 Co237 2.135 . S
C235 N233 1.340 . S
C235 N234 1.321 . S
C235 H259 0.930 . S
H236 C231 0.931 . S
Co237 N234 2.135 . S
Co237 N240 2.121 1_556 S
Co237 O245 2.055 . S
Co237 O248 2.039 . S
Co237 N251 2.140 . S
C238 O239 1.227 . S
C238 O248 1.265 . S
O239 C238 1.227 . S
N240 Co237 2.121 1_554 S
N240 C242 1.375 . S
N240 C243 1.313 . S
C241 C242 1.338 . S
C241 N244 1.377 . S
C241 H261 0.930 . S
C242 N240 1.375 . S
C242 C241 1.338 . S
C242 H246 0.931 . S
C243 N240 1.313 . S
C243 N244 1.344 . S
C243 H247 0.930 . S
N244 C241 1.377 . S
N244 C243 1.344 . S
O245 Co237 2.055 . S
O245 C249 1.253 . S
H246 C242 0.931 . S
H247 C243 0.930 . S
O248 Co237 2.039 . S
O248 C238 1.265 . S
C249 O245 1.253 . S
C249 O250 1.227 . S
O250 C249 1.227 . S
N251 Co237 2.140 . S
N251 C254 1.346 . S
N251 C255 1.345 . S
C252 C253 1.387 . S
C252 C256 1.391 1_556 S
C253 C252 1.387 . S
C253 C254 1.369 . S
C253 H262 0.929 . S
C254 N251 1.346 . S
C254 C253 1.369 . S
C254 H257 0.928 . S
C255 N251 1.345 . S
C255 C256 1.371 1_556 S
C255 H258 0.931 1_556 S
C256 C252 1.391 1_554 S
C256 C255 1.371 1_554 S
C256 H263 0.930 . S
H257 C254 0.928 . S
H258 C255 0.931 1_554 S
H259 C235 0.930 . S
H260 C232 0.930 . S
H261 C241 0.930 . S
H262 C253 0.929 . S
H263 C256 0.930 . S
C264 C265 1.351 . S
C264 N267 1.368 . S
C264 H269 0.931 . S
C265 C264 1.351 . S
C265 N266 1.373 . S
C265 H293 0.930 . S
N266 C265 1.373 . S
N266 C268 1.340 . S
N267 C264 1.368 . S
N267 C268 1.321 . S
N267 Co270 2.135 . S
C268 N266 1.340 . S
C268 N267 1.321 . S
C268 H292 0.930 . S
H269 C264 0.931 . S
Co270 N267 2.135 . S
Co270 N273 2.121 . S
Co270 O278 2.055 . S
Co270 O281 2.039 . S
Co270 N284 2.140 . S
C271 O272 1.227 . S
C271 O281 1.265 . S
O272 C271 1.227 . S
N273 Co270 2.121 . S
N273 C275 1.375 . S
N273 C276 1.313 . S
C274 C275 1.338 . S
C274 N277 1.377 . S
C274 H294 0.930 . S
C275 N273 1.375 . S
C275 C274 1.338 . S
C275 H279 0.931 . S
C276 N273 1.313 . S
C276 N277 1.344 . S
C276 H280 0.930 . S
N277 C274 1.377 . S
N277 C276 1.344 . S
O278 Co270 2.055 . S
O278 C282 1.253 . S
H279 C275 0.931 . S
H280 C276 0.930 . S
O281 Co270 2.039 . S
O281 C271 1.265 . S
C282 O278 1.253 . S
C282 O283 1.227 . S
O283 C282 1.227 . S
N284 Co270 2.140 . S
N284 C287 1.346 . S
N284 C288 1.345 . S
C285 C286 1.387 . S
C285 C289 1.391 . S
C286 C285 1.387 . S
C286 C287 1.369 . S
C286 H295 0.929 . S
C287 N284 1.346 . S
C287 C286 1.369 . S
C287 H290 0.928 . S
C288 N284 1.345 . S
C288 C289 1.371 . S
C288 H291 0.931 . S
C289 C285 1.391 . S
C289 C288 1.371 . S
C289 H296 0.930 . S
H290 C287 0.928 . S
H291 C288 0.931 . S
H292 C268 0.930 . S
H293 C265 0.930 . S
H294 C274 0.930 . S
H295 C286 0.929 . S
H296 C289 0.930 . S
C297 C298 1.351 . S
C297 N300 1.368 . S
C297 H302 0.931 . S
C298 C297 1.351 . S
C298 N299 1.373 . S
C298 H326 0.930 . S
N299 C298 1.373 . S
N299 C301 1.340 . S
N300 C297 1.368 . S
N300 C301 1.321 . S
N300 Co303 2.135 . S
C301 N299 1.340 . S
C301 N300 1.321 . S
C301 H325 0.930 . S
H302 C297 0.931 . S
Co303 N300 2.135 . S
Co303 N306 2.121 . S
Co303 O311 2.055 . S
Co303 O314 2.039 . S
Co303 N317 2.140 . S
C304 O305 1.227 . S
C304 O314 1.265 . S
O305 C304 1.227 . S
N306 Co303 2.121 . S
N306 C308 1.375 . S
N306 C309 1.313 . S
C307 C308 1.338 . S
C307 N310 1.377 . S
C307 H327 0.930 . S
C308 N306 1.375 . S
C308 C307 1.338 . S
C308 H312 0.931 . S
C309 N306 1.313 . S
C309 N310 1.344 . S
C309 H313 0.930 . S
N310 C307 1.377 . S
N310 C309 1.344 . S
O311 Co303 2.055 . S
O311 C315 1.253 . S
H312 C308 0.931 . S
H313 C309 0.930 . S
O314 Co303 2.039 . S
O314 C304 1.265 . S
C315 O311 1.253 . S
C315 O316 1.227 . S
O316 C315 1.227 . S
N317 Co303 2.140 . S
N317 C320 1.346 . S
N317 C321 1.345 . S
C318 C319 1.387 . S
C318 C322 1.391 . S
C319 C318 1.387 . S
C319 C320 1.369 . S
C319 H328 0.929 . S
C320 N317 1.346 . S
C320 C319 1.369 . S
C320 H323 0.928 . S
C321 N317 1.345 . S
C321 C322 1.371 . S
C321 H324 0.931 . S
C322 C318 1.391 . S
C322 C321 1.371 . S
C322 H329 0.930 . S
H323 C320 0.928 . S
H324 C321 0.931 . S
H325 C301 0.930 . S
H326 C298 0.930 . S
H327 C307 0.930 . S
H328 C319 0.929 . S
H329 C322 0.930 . S
C330 C331 1.351 . S
C330 N333 1.368 . S
C330 H335 0.931 . S
C331 C330 1.351 . S
C331 N332 1.373 . S
C331 H359 0.930 . S
N332 C331 1.373 . S
N332 C334 1.340 . S
N333 C330 1.368 . S
N333 C334 1.321 . S
N333 Co336 2.135 . S
C334 N332 1.340 . S
C334 N333 1.321 . S
C334 H358 0.930 . S
H335 C330 0.931 . S
Co336 N333 2.135 . S
Co336 N339 2.121 . S
Co336 O344 2.055 . S
Co336 O347 2.039 . S
Co336 N350 2.140 . S
C337 O338 1.227 . S
C337 O347 1.265 . S
O338 C337 1.227 . S
N339 Co336 2.121 . S
N339 C341 1.375 . S
N339 C342 1.313 . S
C340 C341 1.338 . S
C340 N343 1.377 . S
C340 H360 0.930 . S
C341 N339 1.375 . S
C341 C340 1.338 . S
C341 H345 0.931 . S
C342 N339 1.313 . S
C342 N343 1.344 . S
C342 H346 0.930 . S
N343 C340 1.377 . S
N343 C342 1.344 . S
O344 Co336 2.055 . S
O344 C348 1.253 . S
H345 C341 0.931 . S
H346 C342 0.930 . S
O347 Co336 2.039 . S
O347 C337 1.265 . S
C348 O344 1.253 . S
C348 O349 1.227 . S
O349 C348 1.227 . S
N350 Co336 2.140 . S
N350 C353 1.346 . S
N350 C354 1.345 . S
C351 C352 1.387 . S
C351 C355 1.391 . S
C352 C351 1.387 . S
C352 C353 1.369 . S
C352 H361 0.929 . S
C353 N350 1.346 . S
C353 C352 1.369 . S
C353 H356 0.928 . S
C354 N350 1.345 . S
C354 C355 1.371 . S
C354 H357 0.931 . S
C355 C351 1.391 . S
C355 C354 1.371 . S
C355 H362 0.930 . S
H356 C353 0.928 . S
H357 C354 0.931 . S
H358 C334 0.930 . S
H359 C331 0.930 . S
H360 C340 0.930 . S
H361 C352 0.929 . S
H362 C355 0.930 . S
C363 C364 1.351 . S
C363 N366 1.368 . S
C363 H368 0.931 . S
C364 C363 1.351 . S
C364 N365 1.373 . S
C364 H392 0.930 . S
N365 C364 1.373 . S
N365 C367 1.340 . S
N366 C363 1.368 . S
N366 C367 1.321 . S
N366 Co369 2.135 . S
C367 N365 1.340 . S
C367 N366 1.321 . S
C367 H391 0.930 . S
H368 C363 0.931 . S
Co369 N366 2.135 . S
Co369 N372 2.121 . S
Co369 O377 2.055 . S
Co369 O380 2.039 . S
Co369 N383 2.140 . S
C370 O371 1.227 . S
C370 O380 1.265 . S
O371 C370 1.227 . S
N372 Co369 2.121 . S
N372 C374 1.375 . S
N372 C375 1.313 . S
C373 C374 1.338 . S
C373 N376 1.377 . S
C373 H393 0.930 . S
C374 N372 1.375 . S
C374 C373 1.338 . S
C374 H378 0.931 . S
C375 N372 1.313 . S
C375 N376 1.344 . S
C375 H379 0.930 . S
N376 C373 1.377 . S
N376 C375 1.344 . S
O377 Co369 2.055 . S
O377 C381 1.253 . S
H378 C374 0.931 . S
H379 C375 0.930 . S
O380 Co369 2.039 . S
O380 C370 1.265 . S
C381 O377 1.253 . S
C381 O382 1.227 . S
O382 C381 1.227 . S
N383 Co369 2.140 . S
N383 C386 1.346 . S
N383 C387 1.345 . S
C384 C385 1.387 . S
C384 C388 1.391 . S
C385 C384 1.387 . S
C385 C386 1.369 . S
C385 H394 0.929 . S
C386 N383 1.346 . S
C386 C385 1.369 . S
C386 H389 0.928 . S
C387 N383 1.345 . S
C387 C388 1.371 . S
C387 H390 0.931 . S
C388 C384 1.391 . S
C388 C387 1.371 . S
C388 H395 0.930 . S
H389 C386 0.928 . S
H390 C387 0.931 . S
H391 C367 0.930 . S
H392 C364 0.930 . S
H393 C373 0.930 . S
H394 C385 0.929 . S
H395 C388 0.930 . S
C396 C397 1.351 . S
C396 N399 1.368 . S
C396 H401 0.931 . S
C397 C396 1.351 . S
C397 N398 1.373 . S
C397 H425 0.930 . S
N398 C397 1.373 . S
N398 C400 1.340 . S
N399 C396 1.368 . S
N399 C400 1.321 . S
N399 Co402 2.135 . S
C400 N398 1.340 . S
C400 N399 1.321 . S
C400 H424 0.930 . S
H401 C396 0.931 . S
Co402 N399 2.135 . S
Co402 N405 2.121 . S
Co402 O410 2.055 . S
Co402 O413 2.039 . S
Co402 N416 2.140 . S
C403 O404 1.227 . S
C403 O413 1.265 . S
O404 C403 1.227 . S
N405 Co402 2.121 . S
N405 C407 1.375 . S
N405 C408 1.313 . S
C406 C407 1.338 . S
C406 N409 1.377 . S
C406 H426 0.930 . S
C407 N405 1.375 . S
C407 C406 1.338 . S
C407 H411 0.931 . S
C408 N405 1.313 . S
C408 N409 1.344 . S
C408 H412 0.930 . S
N409 C406 1.377 . S
N409 C408 1.344 . S
O410 Co402 2.055 . S
O410 C414 1.253 . S
H411 C407 0.931 . S
H412 C408 0.930 . S
O413 Co402 2.039 . S
O413 C403 1.265 . S
C414 O410 1.253 . S
C414 O415 1.227 . S
O415 C414 1.227 . S
N416 Co402 2.140 . S
N416 C419 1.346 . S
N416 C420 1.345 . S
C417 C418 1.387 . S
C417 C421 1.391 . S
C418 C417 1.387 . S
C418 C419 1.369 . S
C418 H427 0.929 . S
C419 N416 1.346 . S
C419 C418 1.369 . S
C419 H422 0.928 . S
C420 N416 1.345 . S
C420 C421 1.371 . S
C420 H423 0.931 . S
C421 C417 1.391 . S
C421 C420 1.371 . S
C421 H428 0.930 . S
H422 C419 0.928 . S
H423 C420 0.931 . S
H424 C400 0.930 . S
H425 C397 0.930 . S
H426 C406 0.930 . S
H427 C418 0.929 . S
H428 C421 0.930 . S
C429 C430 1.351 . S
C429 N432 1.368 . S
C429 H434 0.931 . S
C430 C429 1.351 . S
C430 N431 1.373 . S
C430 H458 0.930 . S
N431 C430 1.373 . S
N431 C433 1.340 . S
N432 C429 1.368 . S
N432 C433 1.321 . S
N432 Co435 2.135 . S
C433 N431 1.340 . S
C433 N432 1.321 . S
C433 H457 0.930 . S
H434 C429 0.931 . S
Co435 N432 2.135 . S
Co435 N438 2.121 . S
Co435 O443 2.055 . S
Co435 O446 2.039 . S
Co435 N449 2.140 . S
C436 O437 1.227 . S
C436 O446 1.265 . S
O437 C436 1.227 . S
N438 Co435 2.121 . S
N438 C440 1.375 . S
N438 C441 1.313 . S
C439 C440 1.338 . S
C439 N442 1.377 . S
C439 H459 0.930 . S
C440 N438 1.375 . S
C440 C439 1.338 . S
C440 H444 0.931 . S
C441 N438 1.313 . S
C441 N442 1.344 . S
C441 H445 0.930 . S
N442 C439 1.377 . S
N442 C441 1.344 . S
O443 Co435 2.055 . S
O443 C447 1.253 . S
H444 C440 0.931 . S
H445 C441 0.930 . S
O446 Co435 2.039 . S
O446 C436 1.265 . S
C447 O443 1.253 . S
C447 O448 1.227 . S
O448 C447 1.227 . S
N449 Co435 2.140 . S
N449 C452 1.346 . S
N449 C453 1.345 . S
C450 C451 1.387 . S
C450 C454 1.391 . S
C451 C450 1.387 . S
C451 C452 1.369 . S
C451 H460 0.929 . S
C452 N449 1.346 . S
C452 C451 1.369 . S
C452 H455 0.928 . S
C453 N449 1.345 . S
C453 C454 1.371 . S
C453 H456 0.931 . S
C454 C450 1.391 . S
C454 C453 1.371 . S
C454 H461 0.930 . S
H455 C452 0.928 . S
H456 C453 0.931 . S
H457 C433 0.930 . S
H458 C430 0.930 . S
H459 C439 0.930 . S
H460 C451 0.929 . S
H461 C454 0.930 . S
C462 C463 1.351 . S
C462 N465 1.368 . S
C462 H467 0.931 . S
C463 C462 1.351 . S
C463 N464 1.373 . S
C463 H491 0.930 . S
N464 C463 1.373 . S
N464 C466 1.340 . S
N465 C462 1.368 . S
N465 C466 1.321 . S
N465 Co468 2.135 . S
C466 N464 1.340 . S
C466 N465 1.321 . S
C466 H490 0.930 . S
H467 C462 0.931 . S
Co468 N465 2.135 . S
Co468 N471 2.121 . S
Co468 O476 2.055 . S
Co468 O479 2.039 . S
Co468 N482 2.140 . S
C469 O470 1.227 . S
C469 O479 1.265 . S
O470 C469 1.227 . S
N471 Co468 2.121 . S
N471 C473 1.375 . S
N471 C474 1.313 . S
C472 C473 1.338 . S
C472 N475 1.377 . S
C472 H492 0.930 . S
C473 N471 1.375 . S
C473 C472 1.338 . S
C473 H477 0.931 . S
C474 N471 1.313 . S
C474 N475 1.344 . S
C474 H478 0.930 . S
N475 C472 1.377 . S
N475 C474 1.344 . S
O476 Co468 2.055 . S
O476 C480 1.253 . S
H477 C473 0.931 . S
H478 C474 0.930 . S
O479 Co468 2.039 . S
O479 C469 1.265 . S
C480 O476 1.253 . S
C480 O481 1.227 . S
O481 C480 1.227 . S
N482 Co468 2.140 . S
N482 C485 1.346 . S
N482 C486 1.345 . S
C483 C484 1.387 . S
C483 C487 1.391 . S
C484 C483 1.387 . S
C484 C485 1.369 . S
C484 H493 0.929 . S
C485 N482 1.346 . S
C485 C484 1.369 . S
C485 H488 0.928 . S
C486 N482 1.345 . S
C486 C487 1.371 . S
C486 H489 0.931 . S
C487 C483 1.391 . S
C487 C486 1.371 . S
C487 H494 0.930 . S
H488 C485 0.928 . S
H489 C486 0.931 . S
H490 C466 0.930 . S
H491 C463 0.930 . S
H492 C472 0.930 . S
H493 C484 0.929 . S
H494 C487 0.930 . S
C495 C496 1.351 . S
C495 N498 1.368 . S
C495 H500 0.931 . S
C496 C495 1.351 . S
C496 N497 1.373 . S
C496 H524 0.930 . S
N497 C496 1.373 . S
N497 C499 1.340 . S
N498 C495 1.368 . S
N498 C499 1.321 . S
N498 Co501 2.135 . S
C499 N497 1.340 . S
C499 N498 1.321 . S
C499 H523 0.930 . S
H500 C495 0.931 . S
Co501 N498 2.135 . S
Co501 N504 2.121 . S
Co501 O509 2.055 . S
Co501 O512 2.039 . S
Co501 N515 2.140 . S
C502 O503 1.227 . S
C502 O512 1.265 . S
O503 C502 1.227 . S
N504 Co501 2.121 . S
N504 C506 1.375 . S
N504 C507 1.313 . S
C505 C506 1.338 . S
C505 N508 1.377 . S
C505 H525 0.930 . S
C506 N504 1.375 . S
C506 C505 1.338 . S
C506 H510 0.931 . S
C507 N504 1.313 . S
C507 N508 1.344 . S
C507 H511 0.930 . S
N508 C505 1.377 . S
N508 C507 1.344 . S
O509 Co501 2.055 . S
O509 C513 1.253 . S
H510 C506 0.931 . S
H511 C507 0.930 . S
O512 Co501 2.039 . S
O512 C502 1.265 . S
C513 O509 1.253 . S
C513 O514 1.227 . S
O514 C513 1.227 . S
N515 Co501 2.140 . S
N515 C518 1.346 . S
N515 C519 1.345 . S
C516 C517 1.387 . S
C516 C520 1.391 . S
C517 C516 1.387 . S
C517 C518 1.369 . S
C517 H526 0.929 . S
C518 N515 1.346 . S
C518 C517 1.369 . S
C518 H521 0.928 . S
C519 N515 1.345 . S
C519 C520 1.371 . S
C519 H522 0.931 . S
C520 C516 1.391 . S
C520 C519 1.371 . S
C520 H527 0.930 . S
H521 C518 0.928 . S
H522 C519 0.931 . S
H523 C499 0.930 . S
H524 C496 0.930 . S
H525 C505 0.930 . S
H526 C517 0.929 . S
H527 C520 0.930 . S
C528 C529 1.369 . S
C528 C530 1.419 . S
C528 H532 0.930 . S
C529 C528 1.369 . S
C529 C538 1.429 . S
C530 C528 1.419 . S
C530 C531 1.363 . S
C530 H533 0.929 . S
C531 C530 1.363 . S
C531 C537 1.428 . S
H532 C528 0.930 . S
H533 C530 0.929 . S
S534 N535 1.613 . S
S534 N536 1.610 . S
N535 S534 1.613 . S
N535 C538 1.350 . S
N536 S534 1.610 . S
N536 C537 1.351 . S
C537 C531 1.428 . S
C537 N536 1.351 . S
C537 C538 1.434 . S
C538 C529 1.429 . S
C538 N535 1.350 . S
C538 C537 1.434 . S
C539 C540 1.369 . S
C539 C541 1.419 . S
C539 H543 0.930 . S
C540 C539 1.369 . S
C540 C549 1.429 . S
C541 C539 1.419 . S
C541 C542 1.363 . S
C541 H544 0.929 . S
C542 C541 1.363 . S
C542 C548 1.428 . S
H543 C539 0.930 . S
H544 C541 0.929 . S
S545 N546 1.613 . S
S545 N547 1.610 . S
N546 S545 1.613 . S
N546 C549 1.350 . S
N547 S545 1.610 . S
N547 C548 1.351 . S
C548 C542 1.428 . S
C548 N547 1.351 . S
C548 C549 1.434 . S
C549 C540 1.429 . S
C549 N546 1.350 . S
C549 C548 1.434 . S
C550 C551 1.369 . S
C550 C552 1.419 . S
C550 H554 0.930 . S
C551 C550 1.369 . S
C551 C560 1.429 . S
C552 C550 1.419 . S
C552 C553 1.363 . S
C552 H555 0.929 . S
C553 C552 1.363 . S
C553 C559 1.428 . S
H554 C550 0.930 . S
H555 C552 0.929 . S
S556 N557 1.613 . S
S556 N558 1.610 . S
N557 S556 1.613 . S
N557 C560 1.350 . S
N558 S556 1.610 . S
N558 C559 1.351 . S
C559 C553 1.428 . S
C559 N558 1.351 . S
C559 C560 1.434 . S
C560 C551 1.429 . S
C560 N557 1.350 . S
C560 C559 1.434 . S
C561 C562 1.369 . S
C561 C563 1.419 . S
C561 H565 0.930 . S
C562 C561 1.369 . S
C562 C571 1.429 . S
C563 C561 1.419 . S
C563 C564 1.363 . S
C563 H566 0.929 . S
C564 C563 1.363 . S
C564 C570 1.428 . S
H565 C561 0.930 . S
H566 C563 0.929 . S
S567 N568 1.613 . S
S567 N569 1.610 . S
N568 S567 1.613 . S
N568 C571 1.350 . S
N569 S567 1.610 . S
N569 C570 1.351 . S
C570 C564 1.428 . S
C570 N569 1.351 . S
C570 C571 1.434 . S
C571 C562 1.429 . S
C571 N568 1.350 . S
C571 C570 1.434 . S
C572 C573 1.369 . S
C572 C574 1.419 . S
C572 H576 0.930 . S
C573 C572 1.369 . S
C573 C582 1.429 . S
C574 C572 1.419 . S
C574 C575 1.363 . S
C574 H577 0.929 . S
C575 C574 1.363 . S
C575 C581 1.428 . S
H576 C572 0.930 . S
H577 C574 0.929 . S
S578 N579 1.613 . S
S578 N580 1.610 . S
N579 S578 1.613 . S
N579 C582 1.350 . S
N580 S578 1.610 . S
N580 C581 1.351 . S
C581 C575 1.428 . S
C581 N580 1.351 . S
C581 C582 1.434 . S
C582 C573 1.429 . S
C582 N579 1.350 . S
C582 C581 1.434 . S
C583 C584 1.369 . S
C583 C585 1.419 . S
C583 H587 0.930 . S
C584 C583 1.369 . S
C584 C593 1.429 . S
C585 C583 1.419 . S
C585 C586 1.363 . S
C585 H588 0.929 . S
C586 C585 1.363 . S
C586 C592 1.428 . S
H587 C583 0.930 . S
H588 C585 0.929 . S
S589 N590 1.613 . S
S589 N591 1.610 . S
N590 S589 1.613 . S
N590 C593 1.350 . S
N591 S589 1.610 . S
N591 C592 1.351 . S
C592 C586 1.428 . S
C592 N591 1.351 . S
C592 C593 1.434 . S
C593 C584 1.429 . S
C593 N590 1.350 . S
C593 C592 1.434 . S
C594 C595 1.369 . S
C594 C596 1.419 . S
C594 H598 0.930 . S
C595 C594 1.369 . S
C595 C604 1.429 . S
C596 C594 1.419 . S
C596 C597 1.363 . S
C596 H599 0.929 . S
C597 C596 1.363 . S
C597 C603 1.428 . S
H598 C594 0.930 . S
H599 C596 0.929 . S
S600 N601 1.613 . S
S600 N602 1.610 . S
N601 S600 1.613 . S
N601 C604 1.350 . S
N602 S600 1.610 . S
N602 C603 1.351 . S
C603 C597 1.428 . S
C603 N602 1.351 . S
C603 C604 1.434 . S
C604 C595 1.429 . S
C604 N601 1.350 . S
C604 C603 1.434 . S
C605 C606 1.369 . S
C605 C607 1.419 . S
C605 H609 0.930 . S
C606 C605 1.369 . S
C606 C615 1.429 . S
C607 C605 1.419 . S
C607 C608 1.363 . S
C607 H610 0.929 . S
C608 C607 1.363 . S
C608 C614 1.428 . S
H609 C605 0.930 . S
H610 C607 0.929 . S
S611 N612 1.613 . S
S611 N613 1.610 . S
N612 S611 1.613 . S
N612 C615 1.350 . S
N613 S611 1.610 . S
N613 C614 1.351 . S
C614 C608 1.428 . S
C614 N613 1.351 . S
C614 C615 1.434 . S
C615 C606 1.429 . S
C615 N612 1.350 . S
C615 C614 1.434 . S
C616 C617 1.369 . S
C616 C618 1.419 . S
C616 H620 0.930 . S
C617 C616 1.369 . S
C617 C626 1.429 . S
C618 C616 1.419 . S
C618 C619 1.363 1_554 S
C618 H621 0.929 1_554 S
C619 C618 1.363 1_556 S
C619 C625 1.428 1_556 S
H620 C616 0.930 . S
H621 C618 0.929 1_556 S
S622 N623 1.613 . S
S622 N624 1.610 . S
N623 S622 1.613 . S
N623 C626 1.350 . S
N624 S622 1.610 . S
N624 C625 1.351 . S
C625 C619 1.428 1_554 S
C625 N624 1.351 . S
C625 C626 1.434 . S
C626 C617 1.429 . S
C626 N623 1.350 . S
C626 C625 1.434 . S
C627 C628 1.369 . S
C627 C629 1.419 . S
C627 H631 0.930 . S
C628 C627 1.369 . S
C628 C637 1.429 . S
C629 C627 1.419 . S
C629 C630 1.363 1_554 S
C629 H632 0.929 . S
C630 C629 1.363 1_556 S
C630 C636 1.428 1_556 S
H631 C627 0.930 . S
H632 C629 0.929 . S
S633 N634 1.613 . S
S633 N635 1.610 1_554 S
N634 S633 1.613 . S
N634 C637 1.350 . S
N635 S633 1.610 1_556 S
N635 C636 1.351 1_556 S
C636 C630 1.428 1_554 S
C636 N635 1.351 1_554 S
C636 C637 1.434 . S
C637 C628 1.429 . S
C637 N634 1.350 . S
C637 C636 1.434 . S
C638 C639 1.369 . S
C638 C640 1.419 . S
C638 H642 0.930 . S
C639 C638 1.369 . S
C639 C648 1.429 . S
C640 C638 1.419 . S
C640 C641 1.363 1_554 S
C640 H643 0.929 . S
C641 C640 1.363 1_556 S
C641 C647 1.428 1_556 S
H642 C638 0.930 . S
H643 C640 0.929 . S
S644 N645 1.613 . S
S644 N646 1.610 1_554 S
N645 S644 1.613 . S
N645 C648 1.350 . S
N646 S644 1.610 1_556 S
N646 C647 1.351 1_556 S
C647 C641 1.428 1_554 S
C647 N646 1.351 1_554 S
C647 C648 1.434 . S
C648 C639 1.429 . S
C648 N645 1.350 . S
C648 C647 1.434 . S
C649 C650 1.369 . S
C649 C651 1.419 . S
C649 H653 0.930 . S
C650 C649 1.369 . S
C650 C659 1.429 . S
C651 C649 1.419 . S
C651 C652 1.363 1_554 S
C651 H654 0.929 1_554 S
C652 C651 1.363 1_556 S
C652 C658 1.428 1_556 S
H653 C649 0.930 . S
H654 C651 0.929 1_556 S
S655 N656 1.613 . S
S655 N657 1.610 . S
N656 S655 1.613 . S
N656 C659 1.350 . S
N657 S655 1.610 . S
N657 C658 1.351 . S
C658 C652 1.428 1_554 S
C658 N657 1.351 . S
C658 C659 1.434 . S
C659 C650 1.429 . S
C659 N656 1.350 . S
C659 C658 1.434 . S
C660 C661 1.369 1_556 S
C660 C662 1.419 . S
C660 H664 0.930 1_556 S
C661 C660 1.369 1_554 S
C661 C670 1.429 1_554 S
C662 C660 1.419 . S
C662 C663 1.363 . S
C662 H665 0.929 . S
C663 C662 1.363 . S
C663 C669 1.428 . S
H664 C660 0.930 1_554 S
H665 C662 0.929 . S
S666 N667 1.613 . S
S666 N668 1.610 . S
N667 S666 1.613 . S
N667 C670 1.350 . S
N668 S666 1.610 . S
N668 C669 1.351 . S
C669 C663 1.428 . S
C669 N668 1.351 . S
C669 C670 1.434 . S
C670 C661 1.429 1_556 S
C670 N667 1.350 . S
C670 C669 1.434 . S
C671 C672 1.369 1_556 S
C671 C673 1.419 . S
C671 H675 0.930 . S
C672 C671 1.369 1_554 S
C672 C681 1.429 1_554 S
C673 C671 1.419 . S
C673 C674 1.363 . S
C673 H676 0.929 . S
C674 C673 1.363 . S
C674 C680 1.428 . S
H675 C671 0.930 . S
H676 C673 0.929 . S
S677 N678 1.613 1_556 S
S677 N679 1.610 . S
N678 S677 1.613 1_554 S
N678 C681 1.350 1_554 S
N679 S677 1.610 . S
N679 C680 1.351 . S
C680 C674 1.428 . S
C680 N679 1.351 . S
C680 C681 1.434 . S
C681 C672 1.429 1_556 S
C681 N678 1.350 1_556 S
C681 C680 1.434 . S
C682 C683 1.369 1_556 S
C682 C684 1.419 . S
C682 H686 0.930 . S
C683 C682 1.369 1_554 S
C683 C692 1.429 1_554 S
C684 C682 1.419 . S
C684 C685 1.363 . S
C684 H687 0.929 . S
C685 C684 1.363 . S
C685 C691 1.428 . S
H686 C682 0.930 . S
H687 C684 0.929 . S
S688 N689 1.613 1_556 S
S688 N690 1.610 . S
N689 S688 1.613 1_554 S
N689 C692 1.350 1_554 S
N690 S688 1.610 . S
N690 C691 1.351 . S
C691 C685 1.428 . S
C691 N690 1.351 . S
C691 C692 1.434 . S
C692 C683 1.429 1_556 S
C692 N689 1.350 1_556 S
C692 C691 1.434 . S
C693 C694 1.369 1_556 S
C693 C695 1.419 . S
C693 H697 0.930 . S
C694 C693 1.369 1_554 S
C694 C703 1.429 1_554 S
C695 C693 1.419 . S
C695 C696 1.363 . S
C695 H698 0.929 . S
C696 C695 1.363 . S
C696 C702 1.428 . S
H697 C693 0.930 . S
H698 C695 0.929 . S
S699 N700 1.613 1_556 S
S699 N701 1.610 . S
N700 S699 1.613 1_554 S
N700 C703 1.350 1_554 S
N701 S699 1.610 . S
N701 C702 1.351 . S
C702 C696 1.428 . S
C702 N701 1.351 . S
C702 C703 1.434 . S
C703 C694 1.429 1_556 S
C703 N700 1.350 1_556 S
C703 C702 1.434 . S
C704 C705 1.369 . S
C704 C706 1.419 . S
C704 H708 0.930 . S
C705 C704 1.369 . S
C705 C714 1.429 . S
C706 C704 1.419 . S
C706 C707 1.363 . S
C706 H709 0.929 . S
C707 C706 1.363 . S
C707 C713 1.428 . S
H708 C704 0.930 . S
H709 C706 0.929 . S
S710 N711 1.613 . S
S710 N712 1.610 . S
N711 S710 1.613 . S
N711 C714 1.350 . S
N712 S710 1.610 . S
N712 C713 1.351 . S
C713 C707 1.428 . S
C713 N712 1.351 . S
C713 C714 1.434 . S
C714 C705 1.429 . S
C714 N711 1.350 . S
C714 C713 1.434 . S
C715 C716 1.369 . S
C715 C717 1.419 . S
C715 H719 0.930 . S
C716 C715 1.369 . S
C716 C725 1.429 . S
C717 C715 1.419 . S
C717 C718 1.363 . S
C717 H720 0.929 . S
C718 C717 1.363 . S
C718 C724 1.428 . S
H719 C715 0.930 . S
H720 C717 0.929 . S
S721 N722 1.613 . S
S721 N723 1.610 . S
N722 S721 1.613 . S
N722 C725 1.350 . S
N723 S721 1.610 . S
N723 C724 1.351 . S
C724 C718 1.428 . S
C724 N723 1.351 . S
C724 C725 1.434 . S
C725 C716 1.429 . S
C725 N722 1.350 . S
C725 C724 1.434 . S
C726 C727 1.369 . S
C726 C728 1.419 . S
C726 H730 0.930 . S
C727 C726 1.369 . S
C727 C736 1.429 . S
C728 C726 1.419 . S
C728 C729 1.363 . S
C728 H731 0.929 . S
C729 C728 1.363 . S
C729 C735 1.428 . S
H730 C726 0.930 . S
H731 C728 0.929 . S
S732 N733 1.613 . S
S732 N734 1.610 . S
N733 S732 1.613 . S
N733 C736 1.350 . S
N734 S732 1.610 . S
N734 C735 1.351 . S
C735 C729 1.428 . S
C735 N734 1.351 . S
C735 C736 1.434 . S
C736 C727 1.429 . S
C736 N733 1.350 . S
C736 C735 1.434 . S
C737 C738 1.369 . S
C737 C739 1.419 . S
C737 H741 0.930 . S
C738 C737 1.369 . S
C738 C747 1.429 . S
C739 C737 1.419 . S
C739 C740 1.363 . S
C739 H742 0.929 . S
C740 C739 1.363 . S
C740 C746 1.428 . S
H741 C737 0.930 . S
H742 C739 0.929 . S
S743 N744 1.613 . S
S743 N745 1.610 . S
N744 S743 1.613 . S
N744 C747 1.350 . S
N745 S743 1.610 . S
N745 C746 1.351 . S
C746 C740 1.428 . S
C746 N745 1.351 . S
C746 C747 1.434 . S
C747 C738 1.429 . S
C747 N744 1.350 . S
C747 C746 1.434 . S
C748 C749 1.369 . S
C748 C750 1.419 . S
C748 H752 0.930 . S
C749 C748 1.369 . S
C749 C758 1.429 . S
C750 C748 1.419 . S
C750 C751 1.363 . S
C750 H753 0.929 . S
C751 C750 1.363 . S
C751 C757 1.428 . S
H752 C748 0.930 . S
H753 C750 0.929 . S
S754 N755 1.613 . S
S754 N756 1.610 . S
N755 S754 1.613 . S
N755 C758 1.350 . S
N756 S754 1.610 . S
N756 C757 1.351 . S
C757 C751 1.428 . S
C757 N756 1.351 . S
C757 C758 1.434 . S
C758 C749 1.429 . S
C758 N755 1.350 . S
C758 C757 1.434 . S
C759 C760 1.369 . S
C759 C761 1.419 . S
C759 H763 0.930 . S
C760 C759 1.369 . S
C760 C769 1.429 . S
C761 C759 1.419 . S
C761 C762 1.363 . S
C761 H764 0.929 . S
C762 C761 1.363 . S
C762 C768 1.428 . S
H763 C759 0.930 . S
H764 C761 0.929 . S
S765 N766 1.613 . S
S765 N767 1.610 . S
N766 S765 1.613 . S
N766 C769 1.350 . S
N767 S765 1.610 . S
N767 C768 1.351 . S
C768 C762 1.428 . S
C768 N767 1.351 . S
C768 C769 1.434 . S
C769 C760 1.429 . S
C769 N766 1.350 . S
C769 C768 1.434 . S
C770 C771 1.369 . S
C770 C772 1.419 . S
C770 H774 0.930 . S
C771 C770 1.369 . S
C771 C780 1.429 . S
C772 C770 1.419 . S
C772 C773 1.363 . S
C772 H775 0.929 . S
C773 C772 1.363 . S
C773 C779 1.428 . S
H774 C770 0.930 . S
H775 C772 0.929 . S
S776 N777 1.613 . S
S776 N778 1.610 . S
N777 S776 1.613 . S
N777 C780 1.350 . S
N778 S776 1.610 . S
N778 C779 1.351 . S
C779 C773 1.428 . S
C779 N778 1.351 . S
C779 C780 1.434 . S
C780 C771 1.429 . S
C780 N777 1.350 . S
C780 C779 1.434 . S
C781 C782 1.369 . S
C781 C783 1.419 . S
C781 H785 0.930 . S
C782 C781 1.369 . S
C782 C791 1.429 . S
C783 C781 1.419 . S
C783 C784 1.363 . S
C783 H786 0.929 . S
C784 C783 1.363 . S
C784 C790 1.428 . S
H785 C781 0.930 . S
H786 C783 0.929 . S
S787 N788 1.613 . S
S787 N789 1.610 . S
N788 S787 1.613 . S
N788 C791 1.350 . S
N789 S787 1.610 . S
N789 C790 1.351 . S
C790 C784 1.428 . S
C790 N789 1.351 . S
C790 C791 1.434 . S
C791 C782 1.429 . S
C791 N788 1.350 . S
C791 C790 1.434 . S
C792 C793 1.369 1_556 S
C792 C794 1.419 1_545 S
C792 H796 0.930 . S
C793 C792 1.369 1_554 S
C793 C802 1.429 . S
C794 C792 1.419 1_565 S
C794 C795 1.363 . S
C794 H797 0.929 . S
C795 C794 1.363 . S
C795 C801 1.428 1_556 S
H796 C792 0.930 . S
H797 C794 0.929 . S
S798 N799 1.613 1_565 S
S798 N800 1.610 . S
N799 S798 1.613 1_545 S
N799 C802 1.350 . S
N800 S798 1.610 . S
N800 C801 1.351 . S
C801 C795 1.428 1_554 S
C801 N800 1.351 . S
C801 C802 1.434 1_565 S
C802 C793 1.429 . S
C802 N799 1.350 . S
C802 C801 1.434 1_545 S
C803 C804 1.369 . S
C803 C805 1.419 1_455 S
C803 H807 0.930 . S
C804 C803 1.369 . S
C804 C813 1.429 1_556 S
C805 C803 1.419 1_655 S
C805 C806 1.363 1_556 S
C805 H808 0.929 . S
C806 C805 1.363 1_554 S
C806 C812 1.428 . S
H807 C803 0.930 . S
H808 C805 0.929 . S
S809 N810 1.613 . S
S809 N811 1.610 1_455 S
N810 S809 1.613 . S
N810 C813 1.350 . S
N811 S809 1.610 1_655 S
N811 C812 1.351 . S
C812 C806 1.428 . S
C812 N811 1.351 . S
C812 C813 1.434 1_655 S
C813 C804 1.429 1_554 S
C813 N810 1.350 . S
C813 C812 1.434 1_455 S
C814 C815 1.369 . S
C814 C816 1.419 1_565 S
C814 H818 0.930 . S
C815 C814 1.369 . S
C815 C824 1.429 1_554 S
C816 C814 1.419 1_545 S
C816 C817 1.363 1_554 S
C816 H819 0.929 . S
C817 C816 1.363 1_556 S
C817 C823 1.428 . S
H818 C814 0.930 . S
H819 C816 0.929 . S
S820 N821 1.613 . S
S820 N822 1.610 1_565 S
N821 S820 1.613 . S
N821 C824 1.350 . S
N822 S820 1.610 1_545 S
N822 C823 1.351 . S
C823 C817 1.428 . S
C823 N822 1.351 . S
C823 C824 1.434 1_545 S
C824 C815 1.429 1_556 S
C824 N821 1.350 . S
C824 C823 1.434 1_565 S
C825 C826 1.369 . S
C825 C827 1.419 1_655 S
C825 H829 0.930 . S
C826 C825 1.369 . S
C826 C835 1.429 1_556 S
C827 C825 1.419 1_455 S
C827 C828 1.363 1_556 S
C827 H830 0.929 . S
C828 C827 1.363 1_554 S
C828 C834 1.428 . S
H829 C825 0.930 . S
H830 C827 0.929 . S
S831 N832 1.613 . S
S831 N833 1.610 1_655 S
N832 S831 1.613 . S
N832 C835 1.350 . S
N833 S831 1.610 1_455 S
N833 C834 1.351 . S
C834 C828 1.428 . S
C834 N833 1.351 . S
C834 C835 1.434 1_455 S
C835 C826 1.429 1_554 S
C835 N832 1.350 . S
C835 C834 1.434 1_655 S
C836 C837 1.369 . S
C836 C838 1.419 . S
C836 H840 0.930 . S
C837 C836 1.369 . S
C837 C846 1.429 . S
C838 C836 1.419 . S
C838 C839 1.363 . S
C838 H841 0.929 . S
C839 C838 1.363 . S
C839 C845 1.428 . S
H840 C836 0.930 . S
H841 C838 0.929 . S
S842 N843 1.613 . S
S842 N844 1.610 . S
N843 S842 1.613 . S
N843 C846 1.350 . S
N844 S842 1.610 . S
N844 C845 1.351 . S
C845 C839 1.428 . S
C845 N844 1.351 . S
C845 C846 1.434 . S
C846 C837 1.429 . S
C846 N843 1.350 . S
C846 C845 1.434 . S
C847 C848 1.369 . S
C847 C849 1.419 . S
C847 H851 0.930 . S
C848 C847 1.369 . S
C848 C857 1.429 . S
C849 C847 1.419 . S
C849 C850 1.363 . S
C849 H852 0.929 . S
C850 C849 1.363 . S
C850 C856 1.428 . S
H851 C847 0.930 . S
H852 C849 0.929 . S
S853 N854 1.613 . S
S853 N855 1.610 . S
N854 S853 1.613 . S
N854 C857 1.350 . S
N855 S853 1.610 . S
N855 C856 1.351 . S
C856 C850 1.428 . S
C856 N855 1.351 . S
C856 C857 1.434 . S
C857 C848 1.429 . S
C857 N854 1.350 . S
C857 C856 1.434 . S
C858 C859 1.369 . S
C858 C860 1.419 . S
C858 H862 0.930 . S
C859 C858 1.369 . S
C859 C868 1.429 . S
C860 C858 1.419 . S
C860 C861 1.363 . S
C860 H863 0.929 . S
C861 C860 1.363 . S
C861 C867 1.428 . S
H862 C858 0.930 . S
H863 C860 0.929 . S
S864 N865 1.613 . S
S864 N866 1.610 . S
N865 S864 1.613 . S
N865 C868 1.350 . S
N866 S864 1.610 . S
N866 C867 1.351 . S
C867 C861 1.428 . S
C867 N866 1.351 . S
C867 C868 1.434 . S
C868 C859 1.429 . S
C868 N865 1.350 . S
C868 C867 1.434 . S
C869 C870 1.369 . S
C869 C871 1.419 . S
C869 H873 0.930 . S
C870 C869 1.369 . S
C870 C879 1.429 . S
C871 C869 1.419 . S
C871 C872 1.363 . S
C871 H874 0.929 . S
C872 C871 1.363 . S
C872 C878 1.428 . S
H873 C869 0.930 . S
H874 C871 0.929 . S
S875 N876 1.613 . S
S875 N877 1.610 . S
N876 S875 1.613 . S
N876 C879 1.350 . S
N877 S875 1.610 . S
N877 C878 1.351 . S
C878 C872 1.428 . S
C878 N877 1.351 . S
C878 C879 1.434 . S
C879 C870 1.429 . S
C879 N876 1.350 . S
C879 C878 1.434 . S
C880 C881 1.369 . S
C880 C882 1.419 1_554 S
C880 H884 0.930 . S
C881 C880 1.369 . S
C881 C890 1.429 . S
C882 C880 1.419 1_556 S
C882 C883 1.363 . S
C882 H885 0.929 . S
C883 C882 1.363 . S
C883 C889 1.428 . S
H884 C880 0.930 . S
H885 C882 0.929 . S
S886 N887 1.613 . S
S886 N888 1.610 . S
N887 S886 1.613 . S
N887 C890 1.350 . S
N888 S886 1.610 . S
N888 C889 1.351 1_554 S
C889 C883 1.428 . S
C889 N888 1.351 1_556 S
C889 C890 1.434 1_556 S
C890 C881 1.429 . S
C890 N887 1.350 . S
C890 C889 1.434 1_554 S
C891 C892 1.369 1_556 S
C891 C893 1.419 . S
C891 H895 0.930 . S
C892 C891 1.369 1_554 S
C892 C901 1.429 . S
C893 C891 1.419 . S
C893 C894 1.363 . S
C893 H896 0.929 . S
C894 C893 1.363 . S
C894 C900 1.428 1_556 S
H895 C891 0.930 . S
H896 C893 0.929 . S
S897 N898 1.613 . S
S897 N899 1.610 . S
N898 S897 1.613 . S
N898 C901 1.350 . S
N899 S897 1.610 . S
N899 C900 1.351 . S
C900 C894 1.428 1_554 S
C900 N899 1.351 . S
C900 C901 1.434 . S
C901 C892 1.429 . S
C901 N898 1.350 . S
C901 C900 1.434 . S
C902 C903 1.369 . S
C902 C904 1.419 . S
C902 H906 0.930 . S
C903 C902 1.369 . S
C903 C912 1.429 1_556 S
C904 C902 1.419 . S
C904 C905 1.363 1_556 S
C904 H907 0.929 . S
C905 C904 1.363 1_554 S
C905 C911 1.428 . S
H906 C902 0.930 . S
H907 C904 0.929 . S
S908 N909 1.613 . S
S908 N910 1.610 . S
N909 S908 1.613 . S
N909 C912 1.350 . S
N910 S908 1.610 . S
N910 C911 1.351 . S
C911 C905 1.428 . S
C911 N910 1.351 . S
C911 C912 1.434 . S
C912 C903 1.429 1_554 S
C912 N909 1.350 . S
C912 C911 1.434 . S
C913 C914 1.369 . S
C913 C915 1.419 . S
C913 H917 0.930 . S
C914 C913 1.369 . S
C914 C923 1.429 1_554 S
C915 C913 1.419 . S
C915 C916 1.363 1_554 S
C915 H918 0.929 . S
C916 C915 1.363 1_556 S
C916 C922 1.428 . S
H917 C913 0.930 . S
H918 C915 0.929 . S
S919 N920 1.613 . S
S919 N921 1.610 . S
N920 S919 1.613 . S
N920 C923 1.350 . S
N921 S919 1.610 . S
N921 C922 1.351 . S
C922 C916 1.428 . S
C922 N921 1.351 . S
C922 C923 1.434 . S
C923 C914 1.429 1_556 S
C923 N920 1.350 . S
C923 C922 1.434 . S
C924 C925 1.369 . S
C924 C926 1.419 . S
C924 H928 0.930 . S
C925 C924 1.369 . S
C925 C934 1.429 . S
C926 C924 1.419 . S
C926 C927 1.363 . S
C926 H929 0.929 . S
C927 C926 1.363 . S
C927 C933 1.428 . S
H928 C924 0.930 . S
H929 C926 0.929 . S
S930 N931 1.613 . S
S930 N932 1.610 . S
N931 S930 1.613 . S
N931 C934 1.350 . S
N932 S930 1.610 . S
N932 C933 1.351 . S
C933 C927 1.428 . S
C933 N932 1.351 . S
C933 C934 1.434 . S
C934 C925 1.429 . S
C934 N931 1.350 . S
C934 C933 1.434 . S
C935 C936 1.369 . S
C935 C937 1.419 . S
C935 H939 0.930 . S
C936 C935 1.369 . S
C936 C945 1.429 . S
C937 C935 1.419 . S
C937 C938 1.363 . S
C937 H940 0.929 . S
C938 C937 1.363 . S
C938 C944 1.428 . S
H939 C935 0.930 . S
H940 C937 0.929 . S
S941 N942 1.613 . S
S941 N943 1.610 . S
N942 S941 1.613 . S
N942 C945 1.350 . S
N943 S941 1.610 . S
N943 C944 1.351 . S
C944 C938 1.428 . S
C944 N943 1.351 . S
C944 C945 1.434 . S
C945 C936 1.429 . S
C945 N942 1.350 . S
C945 C944 1.434 . S
C946 C947 1.369 . S
C946 C948 1.419 . S
C946 H950 0.930 . S
C947 C946 1.369 . S
C947 C956 1.429 . S
C948 C946 1.419 . S
C948 C949 1.363 . S
C948 H951 0.929 . S
C949 C948 1.363 . S
C949 C955 1.428 . S
H950 C946 0.930 . S
H951 C948 0.929 . S
S952 N953 1.613 . S
S952 N954 1.610 . S
N953 S952 1.613 . S
N953 C956 1.350 . S
N954 S952 1.610 . S
N954 C955 1.351 . S
C955 C949 1.428 . S
C955 N954 1.351 . S
C955 C956 1.434 . S
C956 C947 1.429 . S
C956 N953 1.350 . S
C956 C955 1.434 . S
C957 C958 1.369 . S
C957 C959 1.419 . S
C957 H961 0.930 . S
C958 C957 1.369 . S
C958 C967 1.429 . S
C959 C957 1.419 . S
C959 C960 1.363 . S
C959 H962 0.929 . S
C960 C959 1.363 . S
C960 C966 1.428 . S
H961 C957 0.930 . S
H962 C959 0.929 . S
S963 N964 1.613 . S
S963 N965 1.610 . S
N964 S963 1.613 . S
N964 C967 1.350 . S
N965 S963 1.610 . S
N965 C966 1.351 . S
C966 C960 1.428 . S
C966 N965 1.351 . S
C966 C967 1.434 . S
C967 C958 1.429 . S
C967 N964 1.350 . S
C967 C966 1.434 . S
C529 N13 1.400 . S
C531 N2 1.394 . S
C540 N46 1.393 . S
C542 N35 1.399 . S
C551 N68 1.395 . S
C553 N79 1.398 . S
C562 N101 1.396 . S
C564 N112 1.398 . S
C573 N145 1.400 . S
C575 N134 1.394 . S
C584 N167 1.394 . S
C586 N178 1.399 . S
C595 N200 1.400 . S
C597 N211 1.394 . S
C606 N233 1.395 . S
C608 N244 1.398 . S
C617 N277 1.397 . S
C619 N266 1.397 . S
C628 N310 1.400 . S
C630 N299 1.394 . S
C639 N343 1.402 . S
C641 N332 1.393 . S
C650 N376 1.396 . S
C652 N365 1.397 . S
C661 N398 1.397 . S
C663 N409 1.397 . S
C672 N431 1.393 . S
C674 N442 1.400 . S
C683 N464 1.396 . S
C685 N475 1.397 . S
C694 N497 1.395 . S
C696 N508 1.398 . S
C705 C7 1.480 . S
C707 C502 1.475 . S
C716 C403 1.479 . S
C718 C40 1.472 . S
C727 C436 1.473 . S
C729 C73 1.473 . S
C738 C469 1.476 . S
C740 C106 1.478 . S
C749 C304 1.473 . S
C751 C139 1.473 . S
C760 C172 1.474 . S
C762 C337 1.479 . S
C771 C205 1.476 . S
C773 C370 1.471 . S
C782 C271 1.474 . S
C784 C238 1.479 . S
C793 C18 1.239 . S
C795 C150 1.237 . S
C804 C183 1.237 . S
C806 C51 1.239 . S
C815 C84 1.237 . S
C817 C216 1.239 . S
C826 C249 1.237 . S
C828 C117 1.239 . S
C837 C414 1.238 . S
C839 C282 1.238 . S
C848 C315 1.239 . S
C850 C447 1.237 . S
C859 C348 1.240 . S
C861 C480 1.237 . S
C870 C381 1.240 . S
C872 C513 1.237 . S
C881 C21 1.570 . S
C883 C186 1.568 . S
C892 C54 1.573 . S
C894 C219 1.569 . S
C903 C252 1.567 . S
C905 C87 1.570 . S
C914 C120 1.569 . S
C916 C153 1.572 . S
C925 C450 1.567 . S
C927 C285 1.572 . S
C936 C318 1.569 . S
C938 C483 1.572 . S
C947 C516 1.567 . S
C949 C351 1.572 . S
C958 C417 1.570 . S
C960 C384 1.568 . S
