# Generated by pormake.
# Topology pcl, (4)-cn, num edge types: 1
# Building blocks:
#     Node 0, Type 0, BuildingBlock: KUFVIS_clean_sbu_0, # of connection points: 4
#     Node 1, Type 0, BuildingBlock: KUFVIS_clean_sbu_0, # of connection points: 4
#     Node 2, Type 0, BuildingBlock: KUFVIS_clean_sbu_0, # of connection points: 4
#     Node 3, Type 0, BuildingBlock: KUFVIS_clean_sbu_0, # of connection points: 4
#     Node 4, Type 0, BuildingBlock: KUFVIS_clean_sbu_0, # of connection points: 4
#     Node 5, Type 0, BuildingBlock: KUFVIS_clean_sbu_0, # of connection points: 4
#     Node 6, Type 0, BuildingBlock: KUFVIS_clean_sbu_0, # of connection points: 4
#     Node 7, Type 0, BuildingBlock: KUFVIS_clean_sbu_0, # of connection points: 4
#     Node 8, Type 0, BuildingBlock: KUFVIS_clean_sbu_0, # of connection points: 4
#     Node 9, Type 0, BuildingBlock: KUFVIS_clean_sbu_0, # of connection points: 4
#     Node 10, Type 0, BuildingBlock: KUFVIS_clean_sbu_0, # of connection points: 4
#     Node 11, Type 0, BuildingBlock: KUFVIS_clean_sbu_0, # of connection points: 4
#     Node 12, Type 0, BuildingBlock: KUFVIS_clean_sbu_0, # of connection points: 4
#     Node 13, Type 0, BuildingBlock: KUFVIS_clean_sbu_0, # of connection points: 4
#     Node 14, Type 0, BuildingBlock: KUFVIS_clean_sbu_0, # of connection points: 4
#     Node 15, Type 0, BuildingBlock: KUFVIS_clean_sbu_0, # of connection points: 4
#     Edge 16, Type (0, 0), BuildingBlock: CIFDUS_clean_linker_0, # of connection points: 2
#     Edge 17, Type (0, 0), BuildingBlock: CIFDUS_clean_linker_0, # of connection points: 2
#     Edge 18, Type (0, 0), BuildingBlock: CIFDUS_clean_linker_0, # of connection points: 2
#     Edge 19, Type (0, 0), BuildingBlock: CIFDUS_clean_linker_0, # of connection points: 2
#     Edge 20, Type (0, 0), BuildingBlock: CIFDUS_clean_linker_0, # of connection points: 2
#     Edge 21, Type (0, 0), BuildingBlock: CIFDUS_clean_linker_0, # of connection points: 2
#     Edge 22, Type (0, 0), BuildingBlock: CIFDUS_clean_linker_0, # of connection points: 2
#     Edge 23, Type (0, 0), BuildingBlock: CIFDUS_clean_linker_0, # of connection points: 2
#     Edge 24, Type (0, 0), BuildingBlock: CIFDUS_clean_linker_0, # of connection points: 2
#     Edge 25, Type (0, 0), BuildingBlock: CIFDUS_clean_linker_0, # of connection points: 2
#     Edge 26, Type (0, 0), BuildingBlock: CIFDUS_clean_linker_0, # of connection points: 2
#     Edge 27, Type (0, 0), BuildingBlock: CIFDUS_clean_linker_0, # of connection points: 2
#     Edge 28, Type (0, 0), BuildingBlock: CIFDUS_clean_linker_0, # of connection points: 2
#     Edge 29, Type (0, 0), BuildingBlock: CIFDUS_clean_linker_0, # of connection points: 2
#     Edge 30, Type (0, 0), BuildingBlock: CIFDUS_clean_linker_0, # of connection points: 2
#     Edge 31, Type (0, 0), BuildingBlock: CIFDUS_clean_linker_0, # of connection points: 2
#     Edge 32, Type (0, 0), BuildingBlock: CIFDUS_clean_linker_0, # of connection points: 2
#     Edge 33, Type (0, 0), BuildingBlock: CIFDUS_clean_linker_0, # of connection points: 2
#     Edge 34, Type (0, 0), BuildingBlock: CIFDUS_clean_linker_0, # of connection points: 2
#     Edge 35, Type (0, 0), BuildingBlock: CIFDUS_clean_linker_0, # of connection points: 2
#     Edge 36, Type (0, 0), BuildingBlock: CIFDUS_clean_linker_0, # of connection points: 2
#     Edge 37, Type (0, 0), BuildingBlock: CIFDUS_clean_linker_0, # of connection points: 2
#     Edge 38, Type (0, 0), BuildingBlock: CIFDUS_clean_linker_0, # of connection points: 2
#     Edge 39, Type (0, 0), BuildingBlock: CIFDUS_clean_linker_0, # of connection points: 2
#     Edge 40, Type (0, 0), BuildingBlock: CIFDUS_clean_linker_0, # of connection points: 2
#     Edge 41, Type (0, 0), BuildingBlock: CIFDUS_clean_linker_0, # of connection points: 2
#     Edge 42, Type (0, 0), BuildingBlock: CIFDUS_clean_linker_0, # of connection points: 2
#     Edge 43, Type (0, 0), BuildingBlock: CIFDUS_clean_linker_0, # of connection points: 2
#     Edge 44, Type (0, 0), BuildingBlock: CIFDUS_clean_linker_0, # of connection points: 2
#     Edge 45, Type (0, 0), BuildingBlock: CIFDUS_clean_linker_0, # of connection points: 2
#     Edge 46, Type (0, 0), BuildingBlock: CIFDUS_clean_linker_0, # of connection points: 2
#     Edge 47, Type (0, 0), BuildingBlock: CIFDUS_clean_linker_0, # of connection points: 2
# Relax obj value: 0.078
# Max RMSD: 0.060
# Mean RMSD: 0.059
data_MOF--net-pcl--node1-KUFVIS_clean_sbu_0--edge1-CIFDUS_clean_linker_0
_symmetry_space_group_name_H-M    P1
_symmetry_Int_Tables_number       1
_symmetry_cell_setting            triclinic
loop_
_symmetry_equiv_pos_as_xyz
'x, y, z'
_cell_length_a     45.312795
_cell_length_b     37.007159
_cell_length_c     36.763016
_cell_angle_alpha  89.967064
_cell_angle_beta   89.472824
_cell_angle_gamma 90.015944
loop_
_atom_site_label
_atom_site_type_symbol
_atom_site_fract_x
_atom_site_fract_y
_atom_site_fract_z
_atom_type_partial_charge
Mn0 Mn 0.17063 0.35014 0.0913 0.0
Mn1 Mn 0.23726 0.37656 0.12131 0.0
C2 C 0.18711 0.32841 0.14674 0.0
C3 C 0.11947 0.36059 0.09076 0.0
C4 C 0.22908 0.32103 0.06091 0.0
O5 O 0.17888 0.39529 0.06149 0.0
O6 O 0.22213 0.41288 0.08554 0.0
C7 C 0.22497 0.44546 0.15941 0.0
N8 N 0.23524 0.41088 0.16008 0.0
C9 C 0.25374 0.41858 0.22076 0.0
C10 C 0.24335 0.45425 0.2207 0.0
C11 C 0.22905 0.46778 0.18982 0.0
C12 C 0.24968 0.39787 0.18935 0.0
H13 H 0.21408 0.45609 0.1357 0.0
C14 C 0.20008 0.41781 0.06437 0.0
O15 O 0.13196 0.34079 0.06576 0.0
O16 O 0.13666 0.37449 0.11482 0.0
N17 N 0.2536 0.34434 0.15651 0.0
C18 C 0.26054 0.30869 0.15297 0.0
C19 C 0.27342 0.29037 0.18226 0.0
C20 C 0.27917 0.30893 0.21477 0.0
C21 C 0.27176 0.3456 0.21778 0.0
C22 C 0.25886 0.36238 0.18773 0.0
H23 H 0.25613 0.29432 0.12805 0.0
O24 O 0.16796 0.31081 0.12764 0.0
O25 O 0.19719 0.35819 0.13191 0.0
O26 O 0.20084 0.32043 0.06062 0.0
O27 O 0.2436 0.34148 0.08207 0.0
C28 C 0.27627 0.36601 0.2496 0.0
C29 C 0.26747 0.40256 0.25099 0.0
H30 H 0.24613 0.47142 0.24427 0.0
H31 H 0.22108 0.49535 0.18952 0.0
H32 H 0.27895 0.26203 0.17979 0.0
H33 H 0.28909 0.29468 0.23732 0.0
H34 H 0.28627 0.35379 0.27325 0.0
H35 H 0.27081 0.41789 0.2757 0.0
Mn36 Mn 0.85882 0.66815 0.57984 0.0
Mn37 Mn 0.79678 0.63469 0.61847 0.0
C38 C 0.84536 0.68651 0.63796 0.0
C39 C 0.91031 0.66589 0.5723 0.0
C40 C 0.7965 0.69334 0.56046 0.0
O41 O 0.85164 0.62263 0.55017 0.0
O42 O 0.81031 0.60237 0.57809 0.0
C43 C 0.81709 0.56514 0.64922 0.0
N44 N 0.80435 0.59815 0.65391 0.0
C45 C 0.79106 0.58402 0.71586 0.0
C46 C 0.80386 0.54979 0.71159 0.0
C47 C 0.817 0.54037 0.67815 0.0
C48 C 0.79141 0.60737 0.6859 0.0
H49 H 0.82695 0.55758 0.62347 0.0
C50 C 0.83113 0.59924 0.55437 0.0
O51 O 0.89397 0.68311 0.54912 0.0
O52 O 0.89658 0.64842 0.59777 0.0
N53 N 0.7819 0.6627 0.65832 0.0
C54 C 0.77274 0.69775 0.65873 0.0
C55 C 0.76112 0.71247 0.69101 0.0
C56 C 0.75884 0.69093 0.7224 0.0
C57 C 0.76847 0.65493 0.72132 0.0
C58 C 0.78 0.64183 0.68843 0.0
H59 H 0.77445 0.71437 0.63465 0.0
O60 O 0.86132 0.70685 0.61682 0.0
O61 O 0.83637 0.65609 0.62376 0.0
O62 O 0.82433 0.69506 0.5546 0.0
O63 O 0.78504 0.67165 0.58344 0.0
C64 C 0.76751 0.63172 0.75171 0.0
C65 C 0.77857 0.59618 0.7489 0.0
H66 H 0.80403 0.5307 0.73392 0.0
H67 H 0.82698 0.51402 0.67467 0.0
H68 H 0.75388 0.74033 0.69169 0.0
H69 H 0.74988 0.7024 0.74726 0.0
H70 H 0.7586 0.64105 0.77748 0.0
H71 H 0.77805 0.57873 0.77257 0.0
Mn72 Mn 0.18567 0.66875 0.92281 0.0
Mn73 Mn 0.24895 0.63169 0.89013 0.0
C74 C 0.19959 0.67917 0.86268 0.0
C75 C 0.13386 0.66791 0.93055 0.0
C76 C 0.24811 0.69817 0.93813 0.0
O77 O 0.19263 0.62737 0.9585 0.0
O78 O 0.23602 0.60715 0.93582 0.0
C79 C 0.22799 0.55798 0.87231 0.0
N80 N 0.24198 0.58903 0.86223 0.0
C81 C 0.25573 0.56371 0.80421 0.0
C82 C 0.24186 0.53126 0.8142 0.0
C83 C 0.2278 0.52846 0.84832 0.0
C84 C 0.25588 0.59188 0.82961 0.0
H85 H 0.21718 0.55569 0.89851 0.0
C86 C 0.21476 0.60598 0.959 0.0
O87 O 0.15046 0.68764 0.95125 0.0
O88 O 0.14743 0.64728 0.90745 0.0
N89 N 0.26418 0.65179 0.8459 0.0
C90 C 0.27272 0.68637 0.83871 0.0
C91 C 0.28494 0.69479 0.8045 0.0
C92 C 0.28826 0.66758 0.77812 0.0
C93 C 0.27914 0.63221 0.78611 0.0
C94 C 0.26745 0.62533 0.82081 0.0
H95 H 0.26999 0.70736 0.85885 0.0
O96 O 0.18336 0.70201 0.88062 0.0
O97 O 0.20884 0.65113 0.88113 0.0
O98 O 0.2203 0.69892 0.94476 0.0
O99 O 0.26 0.67462 0.91755 0.0
C100 C 0.28008 0.60388 0.76053 0.0
C101 C 0.26844 0.56964 0.7696 0.0
H102 H 0.24122 0.50864 0.79553 0.0
H103 H 0.21675 0.50365 0.85603 0.0
H104 H 0.29167 0.72221 0.79842 0.0
H105 H 0.29735 0.6743 0.75162 0.0
H106 H 0.28904 0.60838 0.73349 0.0
H107 H 0.26866 0.54834 0.7494 0.0
Mn108 Mn 0.85317 0.34401 0.42928 0.0
Mn109 Mn 0.78551 0.36403 0.39756 0.0
C110 C 0.83917 0.32277 0.37282 0.0
C111 C 0.90363 0.35849 0.43162 0.0
C112 C 0.7962 0.30607 0.45461 0.0
O113 O 0.84147 0.3874 0.46009 0.0
O114 O 0.79629 0.39843 0.43722 0.0
C115 C 0.79623 0.43647 0.36569 0.0
N116 N 0.78691 0.40169 0.36197 0.0
C117 C 0.77103 0.41288 0.30069 0.0
C118 C 0.78032 0.44887 0.30394 0.0
C119 C 0.793 0.46068 0.33658 0.0
C120 C 0.7745 0.39008 0.33076 0.0
H121 H 0.80593 0.44574 0.39073 0.0
C122 C 0.81772 0.40586 0.45856 0.0
O123 O 0.89173 0.33702 0.45565 0.0
O124 O 0.88615 0.37215 0.40774 0.0
N125 N 0.77276 0.33365 0.35866 0.0
C126 C 0.76811 0.29728 0.35863 0.0
C127 C 0.75755 0.28052 0.32707 0.0
C128 C 0.75177 0.30132 0.29596 0.0
C129 C 0.75685 0.33869 0.2966 0.0
C130 C 0.76737 0.3539 0.32883 0.0
H131 H 0.77267 0.28118 0.38242 0.0
O132 O 0.85911 0.30632 0.39171 0.0
O133 O 0.82698 0.3509 0.38829 0.0
O134 O 0.82414 0.31029 0.45763 0.0
O135 O 0.78061 0.32497 0.4331 0.0
C136 C 0.75249 0.36132 0.26627 0.0
C137 C 0.75941 0.39843 0.26838 0.0
H138 H 0.77823 0.46751 0.28139 0.0
H139 H 0.80035 0.48837 0.33923 0.0
H140 H 0.75389 0.25162 0.32671 0.0
H141 H 0.74375 0.28825 0.27161 0.0
H142 H 0.74428 0.35034 0.241 0.0
H143 H 0.75651 0.4154 0.24467 0.0
Mn144 Mn 0.89574 0.67027 0.90905 0.0
Mn145 Mn 0.92017 0.60097 0.85671 0.0
C146 C 0.88801 0.67128 0.84659 0.0
C147 C 0.85757 0.69655 0.94386 0.0
C148 C 0.96102 0.65749 0.88944 0.0
O149 O 0.90175 0.6299 0.94584 0.0
O150 O 0.91417 0.58445 0.9077 0.0
C151 C 0.86915 0.55095 0.85923 0.0
N152 N 0.88925 0.57048 0.83971 0.0
C153 C 0.87307 0.54405 0.78352 0.0
C154 C 0.85236 0.5234 0.80304 0.0
C155 C 0.85026 0.52706 0.84103 0.0
C156 C 0.89138 0.56728 0.80312 0.0
H157 H 0.86764 0.55354 0.88844 0.0
C158 C 0.90777 0.59676 0.93942 0.0
O159 O 0.88491 0.70633 0.94774 0.0
O160 O 0.8525 0.67111 0.92064 0.0
N161 N 0.92624 0.61322 0.80663 0.0
C162 C 0.94362 0.63943 0.79169 0.0
C163 C 0.94614 0.64206 0.75366 0.0
C164 C 0.93077 0.61771 0.73145 0.0
C165 C 0.91256 0.59139 0.74749 0.0
C166 C 0.91089 0.59014 0.78553 0.0
H167 H 0.955 0.65853 0.80869 0.0
O168 O 0.88838 0.70103 0.86522 0.0
O169 O 0.8931 0.64178 0.86481 0.0
O170 O 0.9414 0.6773 0.90488 0.0
O171 O 0.95469 0.62918 0.87147 0.0
C172 C 0.89525 0.56713 0.72726 0.0
C173 C 0.87578 0.5432 0.74532 0.0
H174 H 0.83765 0.50507 0.78909 0.0
H175 H 0.83419 0.5114 0.85625 0.0
H176 H 0.95982 0.66286 0.74149 0.0
H177 H 0.93262 0.61998 0.70213 0.0
H178 H 0.89629 0.56714 0.69781 0.0
H179 H 0.86256 0.52472 0.72955 0.0
Mn180 Mn 0.14412 0.35009 0.41997 0.0
Mn181 Mn 0.12004 0.41604 0.36394 0.0
C182 C 0.15172 0.34477 0.35761 0.0
C183 C 0.17914 0.32403 0.4584 0.0
C184 C 0.07918 0.3645 0.4047 0.0
O185 O 0.1389 0.39391 0.45334 0.0
O186 O 0.129 0.43748 0.41204 0.0
C187 C 0.17162 0.46452 0.35546 0.0
N188 N 0.15079 0.44277 0.34042 0.0
C189 C 0.16531 0.46062 0.27987 0.0
C190 C 0.1869 0.48327 0.2947 0.0
C191 C 0.19018 0.48505 0.33264 0.0
C192 C 0.14744 0.44088 0.30393 0.0
H193 H 0.17389 0.46633 0.38462 0.0
C194 C 0.13467 0.427 0.44451 0.0
O195 O 0.15114 0.31772 0.46184 0.0
O196 O 0.18717 0.3461 0.43262 0.0
N197 N 0.11112 0.39814 0.3165 0.0
C198 C 0.09145 0.37215 0.30669 0.0
C199 C 0.0873 0.3646 0.26964 0.0
C200 C 0.10317 0.38411 0.24312 0.0
C201 C 0.12328 0.41073 0.25392 0.0
C202 C 0.12667 0.41683 0.29124 0.0
H203 H 0.07912 0.35724 0.32699 0.0
O204 O 0.151 0.31613 0.3781 0.0
O205 O 0.14703 0.37538 0.37405 0.0
O206 O 0.09911 0.34387 0.41719 0.0
O207 O 0.08516 0.39222 0.38552 0.0
C208 C 0.14049 0.43101 0.22918 0.0
C209 C 0.16124 0.45622 0.24217 0.0
H210 H 0.20125 0.49915 0.27722 0.0
H211 H 0.20684 0.50241 0.34428 0.0
H212 H 0.07183 0.3439 0.26153 0.0
H213 H 0.09993 0.3782 0.21457 0.0
H214 H 0.1382 0.42714 0.20014 0.0
H215 H 0.17425 0.47167 0.22291 0.0
Mn216 Mn 0.87794 0.35383 0.10047 0.0
Mn217 Mn 0.90442 0.41834 0.15644 0.0
C218 C 0.87241 0.3473 0.16264 0.0
C219 C 0.83956 0.33081 0.06515 0.0
C220 C 0.94361 0.36549 0.11484 0.0
O221 O 0.88359 0.39729 0.06732 0.0
O222 O 0.89678 0.44004 0.10789 0.0
C223 C 0.85321 0.46756 0.16347 0.0
N224 N 0.87387 0.44604 0.17917 0.0
C225 C 0.85785 0.46347 0.23926 0.0
C226 C 0.83641 0.48587 0.22375 0.0
C227 C 0.83402 0.48782 0.1857 0.0
C228 C 0.87644 0.44406 0.21575 0.0
H229 H 0.85147 0.46927 0.13423 0.0
C230 C 0.89032 0.42979 0.07558 0.0
O231 O 0.86695 0.32245 0.0587 0.0
O232 O 0.83447 0.3532 0.09157 0.0
N233 N 0.91257 0.40081 0.20427 0.0
C234 C 0.93198 0.37476 0.2147 0.0
C235 C 0.9355 0.36736 0.25189 0.0
C236 C 0.91926 0.38701 0.27792 0.0
C237 C 0.89947 0.41375 0.2665 0.0
C238 C 0.89685 0.41989 0.22907 0.0
H239 H 0.94454 0.35967 0.19476 0.0
O240 O 0.87176 0.31916 0.14157 0.0
O241 O 0.87704 0.37825 0.14673 0.0
O242 O 0.92316 0.34629 0.10098 0.0
O243 O 0.93835 0.3925 0.13538 0.0
C244 C 0.88163 0.43384 0.29071 0.0
C245 C 0.86096 0.45883 0.27709 0.0
H246 H 0.82144 0.50135 0.24078 0.0
H247 H 0.81746 0.50496 0.17354 0.0
H248 H 0.95071 0.34656 0.26048 0.0
H249 H 0.92191 0.38107 0.30657 0.0
H250 H 0.88321 0.42977 0.31981 0.0
H251 H 0.84713 0.47376 0.29593 0.0
Mn252 Mn 0.14636 0.67979 0.59354 0.0
Mn253 Mn 0.12806 0.61344 0.65332 0.0
C254 C 0.1526 0.68913 0.65547 0.0
C255 C 0.18011 0.70826 0.55382 0.0
C256 C 0.08277 0.66067 0.61593 0.0
O257 O 0.14443 0.63511 0.56151 0.0
O258 O 0.13445 0.5928 0.60396 0.0
C259 C 0.18263 0.56942 0.65389 0.0
N260 N 0.16148 0.58848 0.6721 0.0
C261 C 0.17729 0.56475 0.7297 0.0
C262 C 0.19937 0.54497 0.71161 0.0
C263 C 0.20223 0.54762 0.67358 0.0
C264 C 0.15891 0.58666 0.70873 0.0
H265 H 0.1842 0.57048 0.62456 0.0
C266 C 0.13994 0.60238 0.5711 0.0
O267 O 0.15177 0.7116 0.55032 0.0
O268 O 0.18905 0.68783 0.58023 0.0
N269 N 0.12118 0.62866 0.70233 0.0
C270 C 0.10079 0.65234 0.71567 0.0
C271 C 0.09682 0.6555 0.75349 0.0
C272 C 0.1133 0.63363 0.77707 0.0
C273 C 0.13406 0.60934 0.76263 0.0
C274 C 0.13762 0.60813 0.72479 0.0
H275 H 0.08779 0.66872 0.69755 0.0
O276 O 0.14989 0.71619 0.63325 0.0
O277 O 0.15151 0.65696 0.64099 0.0
O278 O 0.10065 0.68027 0.59752 0.0
O279 O 0.09128 0.63572 0.63719 0.0
C280 C 0.15156 0.58648 0.78423 0.0
C281 C 0.17303 0.56403 0.76774 0.0
H282 H 0.21431 0.52784 0.72665 0.0
H283 H 0.21917 0.53238 0.65943 0.0
H284 H 0.08081 0.67438 0.76443 0.0
H285 H 0.10997 0.63587 0.80619 0.0
H286 H 0.1491 0.58645 0.81357 0.0
H287 H 0.18654 0.54693 0.78465 0.0
Mn288 Mn 0.68693 0.85895 0.07635 0.0
Mn289 Mn 0.75532 0.88399 0.10347 0.0
C290 C 0.7043 0.8393 0.13225 0.0
C291 C 0.63536 0.86909 0.0771 0.0
C292 C 0.74473 0.82782 0.04505 0.0
O293 O 0.69533 0.90363 0.04521 0.0
O294 O 0.74059 0.91827 0.06614 0.0
C295 C 0.74288 0.95423 0.13895 0.0
N296 N 0.75461 0.92038 0.14026 0.0
C297 C 0.77311 0.93047 0.20057 0.0
C298 C 0.76149 0.96557 0.19972 0.0
C299 C 0.74622 0.97744 0.16883 0.0
C300 C 0.76967 0.9088 0.16968 0.0
H301 H 0.73102 0.96338 0.11533 0.0
C302 C 0.71818 0.92393 0.04587 0.0
O303 O 0.64764 0.84904 0.05218 0.0
O304 O 0.65304 0.88395 0.10007 0.0
N305 N 0.77175 0.85335 0.1399 0.0
C306 C 0.77774 0.81733 0.13822 0.0
C307 C 0.79083 0.80024 0.16812 0.0
C308 C 0.79759 0.82036 0.19936 0.0
C309 C 0.79107 0.85739 0.20049 0.0
C310 C 0.77836 0.87304 0.1697 0.0
H311 H 0.7724 0.80178 0.1143 0.0
O312 O 0.68466 0.82096 0.11462 0.0
O313 O 0.71476 0.86772 0.11537 0.0
O314 O 0.71646 0.82818 0.04536 0.0
O315 O 0.76033 0.84726 0.06587 0.0
C316 C 0.79576 0.8791 0.23138 0.0
C317 C 0.78679 0.91562 0.23142 0.0
H318 H 0.76358 0.98336 0.22294 0.0
H319 H 0.7369 1.00435 0.16817 0.0
H320 H 0.79561 0.77161 0.16715 0.0
H321 H 0.80739 0.80699 0.22252 0.0
H322 H 0.80559 0.86776 0.25558 0.0
H323 H 0.78978 0.93175 0.25568 0.0
Mn324 Mn 0.35678 0.16392 0.57893 0.0
Mn325 Mn 0.28878 0.13868 0.60834 0.0
C326 C 0.34138 0.17943 0.6373 0.0
C327 C 0.40796 0.15528 0.57354 0.0
C328 C 0.29903 0.2012 0.55665 0.0
O329 O 0.34707 0.12222 0.54492 0.0
O330 O 0.30115 0.10928 0.56536 0.0
C331 C 0.30138 0.06394 0.63261 0.0
N332 N 0.29011 0.09738 0.6395 0.0
C333 C 0.27268 0.07879 0.69865 0.0
C334 C 0.28376 0.04402 0.69199 0.0
C335 C 0.29826 0.03661 0.65888 0.0
C336 C 0.27576 0.10469 0.67109 0.0
H337 H 0.31265 0.05816 0.60728 0.0
C338 C 0.32321 0.10387 0.54396 0.0
O339 O 0.39389 0.17628 0.55133 0.0
O340 O 0.39211 0.13797 0.59735 0.0
N341 N 0.27397 0.16398 0.64998 0.0
C342 C 0.26863 0.19997 0.65408 0.0
C343 C 0.25636 0.21264 0.68688 0.0
C344 C 0.24973 0.1882 0.71505 0.0
C345 C 0.25558 0.15128 0.71025 0.0
C346 C 0.26743 0.14015 0.67678 0.0
H347 H 0.27392 0.21884 0.63257 0.0
O348 O 0.3607 0.19872 0.61969 0.0
O349 O 0.33014 0.15218 0.61941 0.0
O350 O 0.32692 0.19744 0.55307 0.0
O351 O 0.28341 0.18106 0.57722 0.0
C352 C 0.25126 0.12535 0.73788 0.0
C353 C 0.25981 0.08913 0.73209 0.0
H354 H 0.2819 0.02304 0.71245 0.0
H355 H 0.30717 0.00995 0.65373 0.0
H356 H 0.25215 0.2412 0.69051 0.0
H357 H 0.24065 0.19816 0.74049 0.0
H358 H 0.24213 0.13317 0.76405 0.0
H359 H 0.25716 0.06968 0.7539 0.0
Mn360 Mn 0.67472 0.18214 0.91915 0.0
Mn361 Mn 0.73872 0.14948 0.88451 0.0
C362 C 0.68858 0.19689 0.86007 0.0
C363 C 0.62321 0.17796 0.92632 0.0
C364 C 0.7358 0.21194 0.93785 0.0
O365 O 0.68262 0.13913 0.95201 0.0
O366 O 0.72537 0.11979 0.92694 0.0
C367 C 0.72453 0.0754 0.86026 0.0
N368 N 0.73415 0.1094 0.85232 0.0
C369 C 0.75223 0.0903 0.79359 0.0
C370 C 0.74261 0.05511 0.80125 0.0
C371 C 0.72884 0.04762 0.83481 0.0
C372 C 0.7482 0.11663 0.82048 0.0
H373 H 0.7143 0.06926 0.88616 0.0
C374 C 0.70403 0.11676 0.94997 0.0
O375 O 0.63888 0.19755 0.94825 0.0
O376 O 0.63763 0.15963 0.90207 0.0
N377 N 0.75335 0.17504 0.84286 0.0
C378 C 0.76034 0.21067 0.83939 0.0
C379 C 0.77254 0.22327 0.8065 0.0
C380 C 0.77768 0.19904 0.77771 0.0
C381 C 0.7702 0.16249 0.78192 0.0
C382 C 0.75774 0.15163 0.81514 0.0
H383 H 0.75642 0.22933 0.86148 0.0
O384 O 0.67177 0.21795 0.87939 0.0
O385 O 0.69834 0.16797 0.87658 0.0
O386 O 0.70793 0.21226 0.94347 0.0
O387 O 0.74824 0.18973 0.91637 0.0
C388 C 0.7743 0.13648 0.75435 0.0
C389 C 0.76565 0.1003 0.76034 0.0
H390 H 0.74561 0.03365 0.78155 0.0
H391 H 0.72155 0.02044 0.84105 0.0
H392 H 0.7781 0.25155 0.80339 0.0
H393 H 0.78721 0.20883 0.75243 0.0
H394 H 0.78402 0.14401 0.72841 0.0
H395 H 0.76893 0.08053 0.73897 0.0
Mn396 Mn 0.36434 0.8463 0.41475 0.0
Mn397 Mn 0.29837 0.87341 0.38347 0.0
C398 C 0.34897 0.82594 0.35839 0.0
C399 C 0.41532 0.85686 0.41708 0.0
C400 C 0.30548 0.81683 0.44318 0.0
O401 O 0.35551 0.89072 0.44522 0.0
O402 O 0.31293 0.90924 0.42004 0.0
C403 C 0.31183 0.94259 0.34637 0.0
N404 N 0.30122 0.90817 0.34514 0.0
C405 C 0.28449 0.91642 0.28374 0.0
C406 C 0.2952 0.95195 0.28438 0.0
C407 C 0.30885 0.9651 0.31587 0.0
C408 C 0.28755 0.89546 0.31519 0.0
H409 H 0.32222 0.95292 0.37054 0.0
C410 C 0.33459 0.91354 0.44196 0.0
O411 O 0.40241 0.83641 0.44124 0.0
O412 O 0.39865 0.87127 0.39276 0.0
N413 N 0.28269 0.84164 0.34743 0.0
C414 C 0.27559 0.80598 0.35039 0.0
C415 C 0.26341 0.78797 0.32045 0.0
C416 C 0.25856 0.80684 0.28788 0.0
C417 C 0.26615 0.84351 0.28545 0.0
C418 C 0.27827 0.85999 0.31616 0.0
H419 H 0.27934 0.79134 0.37534 0.0
O420 O 0.36772 0.8078 0.3776 0.0
O421 O 0.33857 0.85525 0.37373 0.0
O422 O 0.33369 0.81599 0.44391 0.0
O423 O 0.29128 0.83781 0.42218 0.0
C424 C 0.26259 0.8642 0.2536 0.0
C425 C 0.27157 0.9007 0.25282 0.0
H426 H 0.29326 0.96927 0.26077 0.0
H427 H 0.31709 0.99254 0.3166 0.0
H428 H 0.25776 0.75963 0.32248 0.0
H429 H 0.24922 0.79284 0.26482 0.0
H430 H 0.25321 0.85221 0.22944 0.0
H431 H 0.26903 0.91621 0.22806 0.0
Mn432 Mn 0.38685 0.18312 0.90862 0.0
Mn433 Mn 0.40368 0.11524 0.85 0.0
C434 C 0.38117 0.1919 0.84648 0.0
C435 C 0.35345 0.21274 0.94801 0.0
C436 C 0.45006 0.16172 0.88653 0.0
O437 O 0.38811 0.13885 0.94146 0.0
O438 O 0.39664 0.09563 0.89962 0.0
C439 C 0.34758 0.07417 0.85001 0.0
N440 N 0.36954 0.09157 0.83153 0.0
C441 C 0.35286 0.06791 0.77431 0.0
C442 C 0.32992 0.04988 0.79266 0.0
C443 C 0.32711 0.05331 0.83064 0.0
C444 C 0.37206 0.08905 0.79494 0.0
H445 H 0.34599 0.07586 0.8793 0.0
C446 C 0.39168 0.10584 0.93237 0.0
O447 O 0.38185 0.21558 0.95142 0.0
O448 O 0.34426 0.19224 0.92181 0.0
N449 N 0.41124 0.12916 0.80071 0.0
C450 C 0.43275 0.15113 0.787 0.0
C451 C 0.4371 0.15311 0.74916 0.0
C452 C 0.41988 0.13173 0.72594 0.0
C453 C 0.39806 0.10907 0.74077 0.0
C454 C 0.39419 0.10901 0.77858 0.0
H455 H 0.44644 0.16696 0.80485 0.0
O456 O 0.38401 0.21914 0.8684 0.0
O457 O 0.38144 0.15989 0.86141 0.0
O458 O 0.43259 0.18238 0.90438 0.0
O459 O 0.44098 0.1364 0.86605 0.0
C460 C 0.3798 0.08676 0.71955 0.0
C461 C 0.35725 0.06613 0.73632 0.0
H462 H 0.31427 0.03349 0.77787 0.0
H463 H 0.30951 0.03941 0.845 0.0
H464 H 0.45398 0.17067 0.73793 0.0
H465 H 0.4235 0.13306 0.69681 0.0
H466 H 0.38244 0.08591 0.69024 0.0
H467 H 0.34305 0.0496 0.71968 0.0
Mn468 Mn 0.65587 0.84172 0.40045 0.0
Mn469 Mn 0.62926 0.90056 0.33836 0.0
C470 C 0.65755 0.82744 0.33911 0.0
C471 C 0.69434 0.81892 0.43606 0.0
C472 C 0.59015 0.85545 0.3884 0.0
O473 O 0.65406 0.88949 0.42827 0.0
O474 O 0.63971 0.92705 0.3833 0.0
C475 C 0.68103 0.94701 0.32274 0.0
N476 N 0.65963 0.92414 0.31091 0.0
C477 C 0.67061 0.93831 0.24832 0.0
C478 C 0.69269 0.96215 0.25984 0.0
C479 C 0.69815 0.9662 0.29719 0.0
C480 C 0.65459 0.91954 0.27502 0.0
H481 H 0.68469 0.95095 0.35146 0.0
C482 C 0.64795 0.92099 0.41598 0.0
O483 O 0.6668 0.81424 0.44487 0.0
O484 O 0.69966 0.83805 0.40713 0.0
N485 N 0.61854 0.87848 0.29335 0.0
C486 C 0.59771 0.8528 0.28691 0.0
C487 C 0.59143 0.84303 0.25087 0.0
C488 C 0.60616 0.86033 0.2219 0.0
C489 C 0.62731 0.88695 0.22925 0.0
C490 C 0.63311 0.89493 0.2657 0.0
H491 H 0.586 0.83994 0.30913 0.0
O492 O 0.65815 0.80204 0.36347 0.0
O493 O 0.65559 0.86036 0.35131 0.0
O494 O 0.61056 0.83747 0.40373 0.0
O495 O 0.59527 0.87919 0.36404 0.0
C496 C 0.6429 0.90586 0.20189 0.0
C497 C 0.66427 0.93187 0.21142 0.0
H498 H 0.70571 0.97728 0.24025 0.0
H499 H 0.7152 0.98449 0.30626 0.0
H500 H 0.57505 0.8225 0.24543 0.0
H501 H 0.60105 0.853 0.19413 0.0
H502 H 0.63879 0.90041 0.17345 0.0
H503 H 0.67633 0.94597 0.19014 0.0
Mn504 Mn 0.39243 0.85494 0.08601 0.0
Mn505 Mn 0.41815 0.9213 0.14048 0.0
C506 C 0.38813 0.84925 0.14877 0.0
C507 C 0.35372 0.82876 0.05276 0.0
C508 C 0.45826 0.87011 0.0979 0.0
O509 O 0.39516 0.89866 0.05225 0.0
O510 O 0.40785 0.94214 0.09239 0.0
C511 C 0.36616 0.96893 0.15007 0.0
N512 N 0.38765 0.94786 0.16469 0.0
C513 C 0.37347 0.96513 0.22551 0.0
C514 C 0.35125 0.9871 0.2111 0.0
C515 C 0.34749 0.98887 0.17323 0.0
C516 C 0.39152 0.94606 0.2011 0.0
H517 H 0.36338 0.97057 0.12097 0.0
C518 C 0.40028 0.93168 0.06052 0.0
O519 O 0.38123 0.82203 0.04519 0.0
O520 O 0.3487 0.85153 0.07886 0.0
N521 N 0.42832 0.90416 0.18785 0.0
C522 C 0.44856 0.8787 0.1973 0.0
C523 C 0.45334 0.87131 0.23425 0.0
C524 C 0.43745 0.89035 0.26106 0.0
C525 C 0.41673 0.91643 0.25064 0.0
C526 C 0.41284 0.92253 0.21339 0.0
H527 H 0.46083 0.86404 0.17677 0.0
O528 O 0.3884 0.82074 0.12818 0.0
O529 O 0.39168 0.87999 0.13211 0.0
O530 O 0.43814 0.84981 0.0848 0.0
O531 O 0.45237 0.89715 0.11809 0.0
C532 C 0.39935 0.93605 0.2757 0.0
C533 C 0.37794 0.96063 0.26313 0.0
H534 H 0.33673 1.00242 0.22886 0.0
H535 H 0.33031 1.00566 0.16193 0.0
H536 H 0.46927 0.85102 0.24207 0.0
H537 H 0.44113 0.88449 0.28954 0.0
H538 H 0.40198 0.93209 0.30469 0.0
H539 H 0.36467 0.97543 0.28264 0.0
Mn540 Mn 0.64411 0.14813 0.59175 0.0
Mn541 Mn 0.62498 0.08499 0.65458 0.0
C542 C 0.65192 0.1589 0.6532 0.0
C543 C 0.67788 0.17589 0.55152 0.0
C544 C 0.58026 0.13113 0.61496 0.0
O545 O 0.64195 0.10162 0.56169 0.0
O546 O 0.6317 0.06187 0.60671 0.0
C547 C 0.67866 0.03964 0.65849 0.0
N548 N 0.65788 0.06056 0.67521 0.0
C549 C 0.67456 0.04261 0.73444 0.0
C550 C 0.69609 0.02073 0.71791 0.0
C551 C 0.69834 0.01954 0.67977 0.0
C552 C 0.65578 0.06225 0.71189 0.0
H553 H 0.67995 0.038 0.62919 0.0
C554 C 0.63772 0.06939 0.57344 0.0
O555 O 0.64955 0.17871 0.54765 0.0
O556 O 0.68683 0.15566 0.57808 0.0
N557 N 0.61821 0.10384 0.70233 0.0
C558 C 0.59839 0.12919 0.71371 0.0
C559 C 0.59531 0.13639 0.75108 0.0
C560 C 0.61223 0.11699 0.7763 0.0
C561 C 0.63243 0.09098 0.76385 0.0
C562 C 0.6349 0.08546 0.72628 0.0
H563 H 0.58514 0.14384 0.6944 0.0
O564 O 0.64873 0.18566 0.6307 0.0
O565 O 0.64931 0.12669 0.6395 0.0
O566 O 0.5984 0.1498 0.59599 0.0
O567 O 0.58853 0.1067 0.63688 0.0
C568 C 0.65042 0.07051 0.78714 0.0
C569 C 0.67103 0.04584 0.7724 0.0
H570 H 0.71115 1.00496 0.73421 0.0
H571 H 0.71494 1.00278 0.66682 0.0
H572 H 0.57976 0.15661 0.76045 0.0
H573 H 0.60969 0.12248 0.8051 0.0
H574 H 0.64864 0.07357 0.81638 0.0
H575 H 0.68411 0.0295 0.79045 0.0
H576 H 0.07343 0.31861 0.06544 0.0
H577 H 0.09314 0.41694 0.12362 0.0
H578 H 0.04107 0.42639 0.13612 0.0
H579 H 0.99056 0.40647 0.13301 0.0
H580 H 0.96818 0.30857 0.07576 0.0
H581 H 0.02059 0.29914 0.06072 0.0
C582 C 0.06617 0.34231 0.08035 0.0
C583 C 0.08723 0.36704 0.09355 0.0
C584 C 0.03579 0.34746 0.08809 0.0
C585 C 0.07751 0.39742 0.11322 0.0
C586 C 0.04768 0.40285 0.12052 0.0
C587 C 0.99687 0.38286 0.11729 0.0
C588 C 0.97523 0.35813 0.10585 0.0
C589 C 0.02673 0.37785 0.1086 0.0
C590 C 0.98426 0.32801 0.08518 0.0
C591 C 1.01426 0.32267 0.07647 0.0
H592 H 0.94491 0.65126 0.62913 0.0
H593 H 0.94906 0.68831 0.51802 0.0
H594 H 1.00317 0.69296 0.522 0.0
H595 H 0.0497 0.68386 0.55732 0.0
H596 H 0.04256 0.64745 0.66876 0.0
H597 H 0.98931 0.64593 0.66449 0.0
C598 C 0.95754 0.6602 0.60557 0.0
C599 C 0.94299 0.66881 0.57311 0.0
C600 C 0.98823 0.66331 0.6083 0.0
C601 C 0.95977 0.68115 0.54323 0.0
C602 C 0.99069 0.6839 0.54558 0.0
C603 C 0.03639 0.67624 0.58076 0.0
C604 C 0.05031 0.66567 0.61329 0.0
C605 C 1.00525 0.67485 0.57803 0.0
C606 C 0.03266 0.65557 0.64333 0.0
C607 C 1.00209 0.65451 0.64093 0.0
H608 H 0.99406 0.68233 0.94776 0.0
H609 H 1.0008 0.64991 0.83519 0.0
H610 H 0.05408 0.65079 0.83825 0.0
H611 H 0.09897 0.65549 0.87332 0.0
H612 H 0.09522 0.689 0.98542 0.0
H613 H 0.04101 0.69264 0.98232 0.0
C614 C 1.00725 0.6764 0.92376 0.0
C615 C 0.99314 0.66618 0.89121 0.0
C616 C 0.03855 0.67624 0.92582 0.0
C617 C 1.01075 0.65802 0.86053 0.0
C618 C 0.04141 0.65818 0.86229 0.0
C619 C 0.08636 0.66354 0.8972 0.0
C620 C 0.10111 0.67123 0.92975 0.0
C621 C 0.05552 0.66623 0.89495 0.0
C622 C 0.08439 0.68253 0.9601 0.0
C623 C 0.05338 0.68469 0.95827 0.0
H624 H 0.0322 0.40697 0.38896 0.0
H625 H 0.05472 0.30658 0.44168 0.0
H626 H 1.00264 0.2969 0.45756 0.0
H627 H 0.95004 0.3165 0.45477 0.0
H628 H 0.92925 0.41685 0.4009 0.0
H629 H 0.98127 0.42713 0.3878 0.0
C630 C 0.0259 0.38282 0.40386 0.0
C631 C 0.04754 0.35744 0.41381 0.0
C632 C 0.99608 0.37757 0.41306 0.0
C633 C 0.03864 0.32655 0.43342 0.0
C634 C 1.00882 0.32104 0.44264 0.0
C635 C 0.95704 0.34086 0.44076 0.0
C636 C 0.93574 0.36594 0.42896 0.0
C637 C 0.98726 0.34638 0.43255 0.0
C638 C 0.94512 0.39712 0.41031 0.0
C639 C 0.9749 0.40299 0.40263 0.0
H640 H 0.50502 0.90814 0.12287 0.0
H641 H 0.48408 0.81782 0.05351 0.0
H642 H 0.53684 0.81006 0.03931 0.0
H643 H 0.58955 0.82923 0.04731 0.0
H644 H 0.60783 0.9201 0.11729 0.0
H645 H 0.55557 0.92733 0.13006 0.0
C646 C 0.5117 0.88661 0.10456 0.0
C647 C 0.49025 0.86359 0.08937 0.0
C648 C 0.54184 0.88251 0.0964 0.0
C649 C 0.49989 0.83594 0.06579 0.0
C650 C 0.53013 0.83158 0.05755 0.0
C651 C 0.58199 0.85082 0.065 0.0
C652 C 0.60283 0.87412 0.08124 0.0
C653 C 0.55141 0.85481 0.07267 0.0
C654 C 0.59255 0.90169 0.10442 0.0
C655 C 0.56255 0.90588 0.11185 0.0
H656 H 0.54793 0.16145 0.55901 0.0
H657 H 0.53914 0.11309 0.6656 0.0
H658 H 0.48589 0.1154 0.66143 0.0
H659 H 0.44152 0.12898 0.6276 0.0
H660 H 0.448 0.17889 0.52187 0.0
H661 H 0.5021 0.17776 0.52547 0.0
C662 C 0.53433 0.15182 0.58141 0.0
C663 C 0.54779 0.13686 0.61242 0.0
C664 C 0.50318 0.15296 0.57885 0.0
C665 C 0.52966 0.12441 0.64117 0.0
C666 C 0.49904 0.12563 0.63888 0.0
C667 C 0.4547 0.13942 0.60516 0.0
C668 C 0.4407 0.15357 0.57433 0.0
C669 C 0.48557 0.1393 0.60772 0.0
C670 C 0.45821 0.16756 0.54583 0.0
C671 C 0.48916 0.16704 0.54795 0.0
H672 H 0.58834 0.15215 0.87363 0.0
H673 H 0.58433 0.20621 0.97739 0.0
H674 H 0.53014 0.20799 0.97397 0.0
H675 H 0.48353 0.19276 0.94115 0.0
H676 H 0.49039 0.1396 0.83673 0.0
H677 H 0.54363 0.13951 0.84066 0.0
C678 C 0.57573 0.16419 0.89573 0.0
C679 C 0.59041 0.17861 0.92594 0.0
C680 C 0.54491 0.16559 0.89328 0.0
C681 C 0.57358 0.19463 0.95393 0.0
C682 C 0.54259 0.19575 0.95189 0.0
C683 C 0.49674 0.18159 0.91915 0.0
C684 C 0.48269 0.16604 0.88879 0.0
C685 C 0.52792 0.18126 0.92161 0.0
C686 C 0.5003 0.15152 0.8606 0.0
C687 C 0.53091 0.15133 0.86277 0.0
H688 H 0.46045 0.81303 0.44095 0.0
H689 H 0.44246 0.9146 0.38773 0.0
H690 H 0.4947 0.92309 0.37518 0.0
H691 H 0.54476 0.90067 0.37562 0.0
H692 H 0.56502 0.79921 0.42758 0.0
H693 H 0.51275 0.79171 0.44432 0.0
C694 C 0.46815 0.83726 0.42723 0.0
C695 C 0.44756 0.86312 0.41522 0.0
C696 C 0.49853 0.84179 0.41939 0.0
C697 C 0.45778 0.89421 0.39712 0.0
C698 C 0.48768 0.89908 0.38979 0.0
C699 C 0.53792 0.87675 0.39055 0.0
C700 C 0.55884 0.85029 0.39982 0.0
C701 C 0.50812 0.87275 0.40008 0.0
C702 C 0.5494 0.81992 0.41983 0.0
C703 C 0.5195 0.81565 0.42943 0.0
H704 H 0.19664 0.37701 0.2008 0.0
H705 H 0.17084 0.26683 0.18228 0.0
H706 H 0.15614 0.26129 0.24625 0.0
H707 H 0.1471 0.29083 0.30656 0.0
H708 H 0.19011 0.39215 0.32772 0.0
H709 H 0.20451 0.39737 0.26395 0.0
C710 C 0.19093 0.35064 0.21098 0.0
C711 C 0.18648 0.32207 0.18666 0.0
C712 C 0.18501 0.34647 0.24823 0.0
C713 C 0.17507 0.28928 0.2004 0.0
C714 C 0.16653 0.28606 0.237 0.0
C715 C 0.15985 0.31384 0.29713 0.0
C716 C 0.16464 0.34329 0.32056 0.0
C717 C 0.17068 0.31498 0.26103 0.0
C718 C 0.18336 0.37126 0.309 0.0
C719 C 0.1923 0.37379 0.27277 0.0
H720 H 0.84291 0.63566 0.69106 0.0
H721 H 0.85984 0.74865 0.67342 0.0
H722 H 0.87665 0.75437 0.73625 0.0
H723 H 0.88905 0.72508 0.79538 0.0
H724 H 0.85281 0.62004 0.81771 0.0
H725 H 0.83916 0.61309 0.75413 0.0
C726 C 0.84732 0.66228 0.70148 0.0
C727 C 0.84841 0.69186 0.67773 0.0
C728 C 0.85432 0.66624 0.73825 0.0
C729 C 0.85812 0.72541 0.69124 0.0
C730 C 0.86784 0.72873 0.72715 0.0
C731 C 0.87794 0.70081 0.78626 0.0
C732 C 0.87536 0.67087 0.8097 0.0
C733 C 0.86656 0.69899 0.75077 0.0
C734 C 0.85849 0.6412 0.79868 0.0
C735 C 0.84965 0.63785 0.7627 0.0
H736 H 0.17837 0.73274 0.81849 0.0
H737 H 0.20855 0.6233 0.81657 0.0
H738 H 0.2099 0.6234 0.75058 0.0
H739 H 0.19025 0.64878 0.69453 0.0
H740 H 0.1387 0.74623 0.6996 0.0
H741 H 0.15402 0.75589 0.76279 0.0
C742 C 0.1853 0.70889 0.80359 0.0
C743 C 0.19801 0.67948 0.8223 0.0
C744 C 0.17893 0.70604 0.76621 0.0
C745 C 0.20433 0.64812 0.80264 0.0
C746 C 0.2028 0.64742 0.76491 0.0
C747 C 0.18166 0.67153 0.70981 0.0
C748 C 0.16212 0.69558 0.69323 0.0
C749 C 0.18868 0.67541 0.7466 0.0
C750 C 0.153 0.72659 0.71235 0.0
C751 C 0.16177 0.73211 0.74841 0.0
H752 H 0.87849 0.292 0.21145 0.0
H753 H 0.83509 0.39401 0.19521 0.0
H754 H 0.82173 0.39668 0.25945 0.0
H755 H 0.82931 0.37329 0.32131 0.0
H756 H 0.8567 0.26297 0.33516 0.0
H757 H 0.87084 0.26018 0.27073 0.0
C758 C 0.86587 0.3146 0.22209 0.0
C759 C 0.86061 0.3449 0.2 0.0
C760 C 0.8556 0.31422 0.25836 0.0
C761 C 0.84212 0.37242 0.21298 0.0
C762 C 0.83371 0.37343 0.24941 0.0
C763 C 0.8355 0.34751 0.30994 0.0
C764 C 0.8403 0.31795 0.3329 0.0
C765 C 0.84126 0.34506 0.27261 0.0
C766 C 0.85212 0.286 0.31792 0.0
C767 C 0.86031 0.2844 0.28113 0.0
H768 H 0.69624 0.86588 0.30032 0.0
H769 H 0.64237 0.77035 0.29518 0.0
H770 H 0.65769 0.76087 0.2314 0.0
H771 H 0.68235 0.78455 0.17523 0.0
H772 H 0.71695 0.89193 0.17994 0.0
H773 H 0.71808 0.89021 0.2454 0.0
C774 C 0.68752 0.84325 0.28507 0.0
C775 C 0.66718 0.81988 0.30153 0.0
C776 C 0.69505 0.83923 0.2484 0.0
C777 C 0.65739 0.78938 0.28239 0.0
C778 C 0.66618 0.78398 0.24606 0.0
C779 C 0.69047 0.80734 0.19072 0.0
C780 C 0.70422 0.83659 0.17255 0.0
C781 C 0.68432 0.8095 0.22838 0.0
C782 C 0.71217 0.86678 0.19303 0.0
C783 C 0.71049 0.86669 0.23067 0.0
H784 H 0.34265 0.1536 0.80666 0.0
H785 H 0.39945 0.24662 0.80172 0.0
H786 H 0.38703 0.25562 0.73745 0.0
H787 H 0.36382 0.23263 0.68097 0.0
H788 H 0.32655 0.12646 0.68459 0.0
H789 H 0.32307 0.1287 0.75042 0.0
C790 C 0.35284 0.1753 0.79125 0.0
C791 C 0.37309 0.19818 0.80818 0.0
C792 C 0.34723 0.17879 0.75401 0.0
C793 C 0.38452 0.22786 0.78875 0.0
C794 C 0.37741 0.23301 0.75207 0.0
C795 C 0.35482 0.21003 0.69622 0.0
C796 C 0.34108 0.18124 0.6777 0.0
C797 C 0.35947 0.20789 0.73406 0.0
C798 C 0.3319 0.15127 0.69797 0.0
C799 C 0.33206 0.15161 0.73577 0.0
H800 H 0.69688 0.14337 0.81103 0.0
H801 H 0.66924 0.25408 0.81956 0.0
H802 H 0.6539 0.25288 0.75586 0.0
H803 H 0.64571 0.21741 0.69876 0.0
H804 H 0.69172 0.11645 0.68637 0.0
H805 H 0.70522 0.11728 0.75027 0.0
C806 C 0.69058 0.16842 0.7985 0.0
C807 C 0.686 0.19913 0.81994 0.0
C808 C 0.68459 0.16882 0.7613 0.0
C809 C 0.67368 0.23006 0.8036 0.0
C810 C 0.66483 0.22944 0.76716 0.0
C811 C 0.65902 0.19589 0.71007 0.0
C812 C 0.66479 0.16461 0.68946 0.0
C813 C 0.66967 0.19852 0.74588 0.0
C814 C 0.68417 0.13859 0.70321 0.0
C815 C 0.69268 0.13959 0.7394 0.0
H816 H 0.39241 0.79407 0.19855 0.0
H817 H 0.35032 0.89642 0.17997 0.0
H818 H 0.33577 0.90008 0.24372 0.0
H819 H 0.34168 0.87692 0.30615 0.0
H820 H 0.36571 0.76558 0.32109 0.0
H821 H 0.38201 0.76245 0.2575 0.0
C822 C 0.37991 0.81703 0.20857 0.0
C823 C 0.37563 0.84729 0.18601 0.0
C824 C 0.3685 0.817 0.24442 0.0
C825 C 0.35705 0.87511 0.1982 0.0
C826 C 0.34785 0.87663 0.23436 0.0
C827 C 0.34741 0.8509 0.29511 0.0
C828 C 0.35077 0.8212 0.31834 0.0
C829 C 0.35431 0.84823 0.25801 0.0
C830 C 0.36224 0.78884 0.30375 0.0
C831 C 0.37172 0.78702 0.26739 0.0
H832 H 0.2927 0.21875 0.94448 0.0
H833 H 0.36808 0.25184 0.00742 0.0
H834 H 0.33617 0.28673 0.04754 0.0
H835 H 0.28789 0.30914 0.0643 0.0
H836 H 0.21116 0.27827 0.0029 0.0
H837 H 0.24258 0.24106 0.96288 0.0
C838 C 0.30207 0.23349 0.96708 0.0
C839 C 0.33292 0.23266 0.97273 0.0
C840 C 0.28341 0.25397 0.9903 0.0
C841 C 0.3446 0.25198 0.00218 0.0
C842 C 0.32632 0.27201 0.02524 0.0
C843 C 0.27773 0.29444 0.04217 0.0
C844 C 0.24702 0.29695 0.03661 0.0
C845 C 0.29583 0.27343 0.01941 0.0
C846 C 0.23465 0.27706 0.00792 0.0
C847 C 0.25268 0.25581 0.98497 0.0
H848 H 0.80614 0.73838 0.50085 0.0
H849 H 0.73886 0.70398 0.57763 0.0
H850 H 0.70266 0.74083 0.54747 0.0
H851 H 0.68862 0.78072 0.49831 0.0
H852 H 0.75381 0.81619 0.41998 0.0
H853 H 0.79193 0.78161 0.45177 0.0
C854 C 0.78361 0.7391 0.51101 0.0
C855 C 0.7755 0.71782 0.54138 0.0
C856 C 0.76227 0.76063 0.49326 0.0
C857 C 0.74605 0.71943 0.55414 0.0
C858 C 0.7251 0.7407 0.53695 0.0
C859 C 0.71119 0.78117 0.48823 0.0
C860 C 0.71824 0.80093 0.45674 0.0
C861 C 0.73281 0.76104 0.50633 0.0
C862 C 0.74771 0.80122 0.44424 0.0
C863 C 0.76953 0.78131 0.46234 0.0
H864 H 0.35697 0.79061 0.98998 0.0
H865 H 0.29543 0.82403 0.07341 0.0
H866 H 0.25631 0.78841 0.04488 0.0
H867 H 0.24032 0.74428 0.99745 0.0
H868 H 0.30341 0.71333 0.9142 0.0
H869 H 0.34051 0.75135 0.94114 0.0
C870 C 0.33496 0.79033 0.00184 0.0
C871 C 0.32928 0.80976 0.03391 0.0
C872 C 0.3126 0.76995 0.98528 0.0
C873 C 0.30048 0.8093 0.04868 0.0
C874 C 0.27807 0.78881 0.03241 0.0
C875 C 0.26205 0.74621 0.98503 0.0
C876 C 0.26884 0.72526 0.954 0.0
C877 C 0.28393 0.76852 1.00085 0.0
C878 C 0.2973 0.72843 0.93833 0.0
C879 C 0.31879 0.75033 0.95371 0.0
H880 H 0.73661 0.19205 0.56272 0.0
H881 H 0.66524 0.20761 0.48725 0.0
H882 H 0.6961 0.24738 0.4505 0.0
H883 H 0.74157 0.28035 0.44126 0.0
H884 H 0.814 0.26751 0.51556 0.0
H885 H 0.78456 0.22391 0.55114 0.0
C886 C 0.72801 0.20382 0.53798 0.0
C887 C 0.69849 0.19687 0.52788 0.0
C888 C 0.74593 0.22737 0.51693 0.0
C889 C 0.68769 0.21254 0.49584 0.0
C890 C 0.70534 0.23538 0.47477 0.0
C891 C 0.7512 0.26814 0.4652 0.0
C892 C 0.78001 0.27772 0.47583 0.0
C893 C 0.73422 0.24347 0.48538 0.0
C894 C 0.79192 0.26088 0.50671 0.0
C895 C 0.77502 0.23598 0.5271 0.0
H896 H 0.74648 0.75415 0.03312 0.0
H897 H 0.78324 0.85575 0.99747 0.0
H898 H 0.82208 0.82434 0.96393 0.0
H899 H 0.84839 0.76836 0.9489 0.0
H900 H 0.81095 0.66591 0.97999 0.0
H901 H 0.77 0.69685 0.01133 0.0
C902 C 0.76242 0.76919 0.01697 0.0
C903 C 0.76186 0.80723 0.01754 0.0
C904 C 0.78513 0.75079 0.99779 0.0
C905 C 0.78309 0.82645 0.99715 0.0
C906 C 0.80553 0.80853 0.97829 0.0
C907 C 0.83128 0.75289 0.96266 0.0
C908 C 0.83298 0.71506 0.963 0.0
C909 C 0.80733 0.77081 0.97931 0.0
C910 C 0.81025 0.69517 0.97991 0.0
C911 C 0.78678 0.71286 0.99766 0.0
H912 H 0.24503 0.22788 0.57218 0.0
H913 H 0.31675 0.23874 0.49497 0.0
H914 H 0.28687 0.28064 0.45874 0.0
H915 H 0.2383 0.31025 0.44674 0.0
H916 H 0.16732 0.29602 0.52461 0.0
H917 H 0.19907 0.25954 0.56282 0.0
C918 C 0.25436 0.23943 0.54751 0.0
C919 C 0.28302 0.22969 0.53612 0.0
C920 C 0.23704 0.26289 0.52679 0.0
C921 C 0.29474 0.24561 0.50437 0.0
C922 C 0.27759 0.26947 0.48357 0.0
C923 C 0.23002 0.29954 0.47232 0.0
C924 C 0.20036 0.30564 0.48265 0.0
C925 C 0.24842 0.27777 0.49415 0.0
C926 C 0.1899 0.29147 0.5158 0.0
C927 C 0.20805 0.27057 0.53773 0.0
H928 H 0.8433 0.29986 0.99892 0.0
H929 H 0.7812 0.32449 0.08479 0.0
H930 H 0.7423 0.29193 0.05232 0.0
H931 H 0.72698 0.25239 1.00072 0.0
H932 H 0.79066 0.23045 0.91524 0.0
H933 H 0.82732 0.26611 0.94604 0.0
C934 C 0.82121 0.29832 0.01045 0.0
C935 C 0.81524 0.31419 0.04431 0.0
C936 C 0.79905 0.27984 0.99164 0.0
C937 C 0.78638 0.31239 0.05868 0.0
C938 C 0.76413 0.29368 0.04017 0.0
C939 C 0.74873 0.25587 0.98869 0.0
C940 C 0.75594 0.23805 0.95591 0.0
C941 C 0.77031 0.27671 0.00677 0.0
C942 C 0.78434 0.24313 0.94068 0.0
C943 C 0.80555 0.26364 0.95826 0.0
H944 H 0.24073 0.71429 0.55829 0.0
H945 H 0.16611 0.74651 0.49357 0.0
H946 H 0.19843 0.78135 0.4538 0.0
H947 H 0.24686 0.80424 0.43809 0.0
H948 H 0.32274 0.77416 0.50144 0.0
H949 H 0.29095 0.73673 0.54081 0.0
C950 C 0.23162 0.72879 0.53536 0.0
C951 C 0.20088 0.7278 0.52911 0.0
C952 C 0.2505 0.74924 0.51239 0.0
C953 C 0.18952 0.74681 0.49925 0.0
C954 C 0.20802 0.76681 0.4764 0.0
C955 C 0.25672 0.78964 0.4605 0.0
C956 C 0.2873 0.79246 0.46684 0.0
C957 C 0.23841 0.7685 0.4829 0.0
C958 C 0.29935 0.77269 0.49584 0.0
C959 C 0.28112 0.75132 0.51842 0.0
H960 H 0.17037 0.55909 0.97403 0.0
H961 H 0.26074 0.58334 0.99997 0.0
H962 H 0.2642 0.52755 0.03554 0.0
H963 H 0.24234 0.47024 0.05644 0.0
H964 H 0.15288 0.44404 0.02662 0.0
H965 H 0.14843 0.50172 0.99516 0.0
C966 C 0.19055 0.55246 0.98821 0.0
C967 C 0.21509 0.57554 0.98505 0.0
C968 C 0.19276 0.51956 0.00729 0.0
C969 C 0.24146 0.56616 0.00249 0.0
C970 C 0.2435 0.53415 0.02256 0.0
C971 C 0.22186 0.47705 0.04303 0.0
C972 C 0.19809 0.45248 0.04386 0.0
C973 C 0.21946 0.51029 0.02461 0.0
C974 C 0.17172 0.46205 0.02626 0.0
C975 C 0.16904 0.49524 0.00838 0.0
H976 H 0.78759 0.5492 0.54444 0.0
H977 H 0.87865 0.57177 0.51717 0.0
H978 H 0.883 0.51301 0.48751 0.0
H979 H 0.86119 0.45473 0.46972 0.0
H980 H 0.76939 0.43379 0.49315 0.0
H981 H 0.76519 0.49208 0.52435 0.0
C982 C 0.80836 0.54141 0.53183 0.0
C983 C 0.83274 0.56505 0.53314 0.0
C984 C 0.81069 0.50759 0.51454 0.0
C985 C 0.85942 0.5544 0.51642 0.0
C986 C 0.86202 0.52062 0.49965 0.0
C987 C 0.84039 0.46278 0.48211 0.0
C988 C 0.81576 0.43975 0.4798 0.0
C989 C 0.83789 0.49687 0.49881 0.0
C990 C 0.78871 0.45093 0.49497 0.0
C991 C 0.78629 0.4843 0.51263 0.0
H992 H 0.89523 0.50294 0.0823 0.0
H993 H 0.88938 0.41777 0.00228 0.0
H994 H 0.89516 0.46193 0.95357 0.0
H995 H 0.90264 0.52407 0.93366 0.0
H996 H 0.90691 0.60999 0.0129 0.0
H997 H 0.90131 0.56586 0.06207 0.0
C998 C 0.89518 0.49398 0.05422 0.0
C999 C 0.892 0.45698 0.04606 0.0
C1000 C 0.89846 0.51953 0.02623 0.0
C1001 C 0.89171 0.44601 0.00945 0.0
C1002 C 0.89515 0.47123 0.98153 0.0
C1003 C 0.90251 0.53328 0.96166 0.0
C1004 C 0.90543 0.57032 0.96955 0.0
C1005 C 0.89875 0.50796 0.98963 0.0
C1006 C 0.90481 0.58165 0.00604 0.0
C1007 C 0.90155 0.55644 0.03416 0.0
H1008 H 0.1379 0.49962 0.43439 0.0
H1009 H 0.13631 0.41816 0.51862 0.0
H1010 H 0.13851 0.46532 0.56505 0.0
H1011 H 0.13973 0.5295 0.58161 0.0
H1012 H 0.14172 0.61068 0.49707 0.0
H1013 H 0.14066 0.56347 0.45082 0.0
C1014 C 0.13796 0.49202 0.46289 0.0
C1015 C 0.13668 0.45529 0.47294 0.0
C1016 C 0.13933 0.51919 0.48938 0.0
C1017 C 0.13721 0.44615 0.51005 0.0
C1018 C 0.13843 0.47311 0.53663 0.0
C1019 C 0.13993 0.53698 0.55308 0.0
C1020 C 0.14059 0.57372 0.54292 0.0
C1021 C 0.13931 0.50971 0.52658 0.0
C1022 C 0.14118 0.58272 0.50576 0.0
C1023 C 0.1405 0.55572 0.47926 0.0
H1024 H 0.74624 0.06479 0.95625 0.0
H1025 H 0.65836 0.09253 0.99319 0.0
H1026 H 0.65403 0.0341 0.02369 0.0
H1027 H 0.67505 0.97443 0.0394 0.0
H1028 H 0.76363 0.94852 0.00459 0.0
H1029 H 0.76756 1.00654 0.97304 0.0
C1030 C 0.72617 0.05831 0.97119 0.0
C1031 C 0.7027 0.08326 0.97233 0.0
C1032 C 0.72374 0.02461 0.98852 0.0
C1033 C 0.67693 0.07412 0.99196 0.0
C1034 C 0.6743 0.04052 0.0092 0.0
C1035 C 0.69497 0.98139 0.02437 0.0
C1036 C 0.71885 0.95714 0.02369 0.0
C1037 C 0.69744 0.01537 0.00735 0.0
C1038 C 0.74489 0.96672 0.00508 0.0
C1039 C 0.7472 0.99993 0.98728 0.0
H1040 H 0.29236 0.96585 0.45095 0.0
H1041 H 0.38225 0.93951 0.47872 0.0
H1042 H 0.38747 0.99741 0.5094 0.0
H1043 H 0.36644 0.05532 0.52964 0.0
H1044 H 0.27573 0.08014 0.50589 0.0
H1045 H 0.27109 0.02355 0.4719 0.0
C1046 C 0.31307 0.97267 0.46381 0.0
C1047 C 0.33678 0.94806 0.46254 0.0
C1048 C 0.31593 1.00606 0.48181 0.0
C1049 C 0.36345 0.95757 0.47945 0.0
C1050 C 0.36658 0.99088 0.49686 0.0
C1051 C 0.34585 0.04858 0.51643 0.0
C1052 C 0.3216 0.07208 0.51971 0.0
C1053 C 0.34301 0.01536 0.4982 0.0
C1054 C 0.29477 0.06259 0.50339 0.0
C1055 C 0.29207 0.03016 0.48416 0.0
H1056 H 0.39756 1.00448 0.07018 0.0
H1057 H 0.39543 0.92229 0.98683 0.0
H1058 H 0.39145 0.96898 0.94014 0.0
H1059 H 0.3901 0.03292 0.92293 0.0
H1060 H 0.39191 0.11506 0.00637 0.0
H1061 H 0.39423 0.06831 0.05314 0.0
C1062 C 0.39628 0.99665 0.04181 0.0
C1063 C 0.39709 0.95983 0.03208 0.0
C1064 C 0.39388 0.02359 0.01513 0.0
C1065 C 0.39496 0.95035 0.99516 0.0
C1066 C 0.3927 0.97705 0.96843 0.0
C1067 C 0.39096 0.04072 0.95134 0.0
C1068 C 0.39108 0.07758 0.96102 0.0
C1069 C 0.39237 0.01374 0.9781 0.0
C1070 C 0.39182 0.08699 0.99805 0.0
C1071 C 0.39325 0.06026 0.02484 0.0
H1072 H 0.64387 0.07031 0.49912 0.0
H1073 H 0.63878 0.99791 0.59127 0.0
H1074 H 0.64343 0.94616 0.55122 0.0
H1075 H 0.64722 0.92073 0.49001 0.0
H1076 H 0.651 0.99236 0.39737 0.0
H1077 H 0.64887 0.04468 0.43757 0.0
C1078 C 0.64382 0.04324 0.51044 0.0
C1079 C 0.64073 0.03829 0.5482 0.0
C1080 C 0.64634 0.01321 0.48716 0.0
C1081 C 0.64081 1.00284 0.56231 0.0
C1082 C 0.64358 0.97302 0.53943 0.0
C1083 C 0.6479 0.94777 0.47861 0.0
C1084 C 0.64918 0.9525 0.44075 0.0
C1085 C 0.64615 0.97783 0.50182 0.0
C1086 C 0.64983 0.98783 0.42646 0.0
C1087 C 0.64858 0.01785 0.44942 0.0
loop_
_geom_bond_atom_site_label_1
_geom_bond_atom_site_label_2
_geom_bond_distance
_geom_bond_site_symmetry_2
_ccdc_geom_bond_type
Mn0 O5 2.095 . S
Mn0 O15 2.162 . S
Mn0 O16 2.297 . S
Mn0 O24 2.385 . S
Mn0 O25 2.209 . S
Mn0 O26 2.094 . S
Mn1 O6 2.121 . S
Mn1 N8 2.257 . S
Mn1 N17 2.282 . S
Mn1 O25 2.215 . S
Mn1 O27 2.117 . S
C2 O24 1.234 . S
C2 O25 1.283 . S
C3 O15 1.281 . S
C3 O16 1.236 . S
C4 O26 1.240 . S
C4 O27 1.264 . S
O5 Mn0 2.095 . S
O5 C14 1.250 . S
O6 Mn1 2.121 . S
O6 C14 1.258 . S
C7 N8 1.326 . S
C7 C11 1.460 . S
C7 H13 0.929 . S
N8 Mn1 2.257 . S
N8 C7 1.326 . S
N8 C12 1.362 . S
C9 C10 1.258 . S
C9 C12 1.431 . S
C9 C29 1.449 . S
C10 C9 1.258 . S
C10 C11 1.477 . S
C10 H30 0.931 . S
C11 C7 1.460 . S
C11 C10 1.477 . S
C11 H31 0.930 . S
C12 N8 1.362 . S
C12 C9 1.431 . S
C12 C22 1.476 . S
H13 C7 0.929 . S
C14 O5 1.250 . S
C14 O6 1.258 . S
O15 Mn0 2.162 . S
O15 C3 1.281 . S
O16 Mn0 2.297 . S
O16 C3 1.236 . S
N17 Mn1 2.282 . S
N17 C18 1.328 . S
N17 C22 1.318 . S
C18 N17 1.328 . S
C18 C19 1.457 . S
C18 H23 0.929 . S
C19 C18 1.457 . S
C19 C20 1.291 . S
C19 H32 0.931 . S
C20 C19 1.291 . S
C20 C21 1.373 . S
C20 H33 0.929 . S
C21 C20 1.373 . S
C21 C22 1.396 . S
C21 C28 1.403 . S
C22 C12 1.476 . S
C22 N17 1.318 . S
C22 C21 1.396 . S
H23 C18 0.929 . S
O24 Mn0 2.385 . S
O24 C2 1.234 . S
O25 Mn0 2.209 . S
O25 Mn1 2.215 . S
O25 C2 1.283 . S
O26 Mn0 2.094 . S
O26 C4 1.240 . S
O27 Mn1 2.117 . S
O27 C4 1.264 . S
C28 C21 1.403 . S
C28 C29 1.399 . S
C28 H34 0.929 . S
C29 C9 1.449 . S
C29 C28 1.399 . S
C29 H35 0.930 . S
H30 C10 0.931 . S
H31 C11 0.930 . S
H32 C19 0.931 . S
H33 C20 0.929 . S
H34 C28 0.929 . S
H35 C29 0.930 . S
Mn36 O41 2.095 . S
Mn36 O51 2.162 . S
Mn36 O52 2.297 . S
Mn36 O60 2.385 . S
Mn36 O61 2.209 . S
Mn36 O62 2.094 . S
Mn37 O42 2.121 . S
Mn37 N44 2.257 . S
Mn37 N53 2.282 . S
Mn37 O61 2.215 . S
Mn37 O63 2.117 . S
C38 O60 1.234 . S
C38 O61 1.283 . S
C39 O51 1.281 . S
C39 O52 1.236 . S
C40 O62 1.240 . S
C40 O63 1.264 . S
O41 Mn36 2.095 . S
O41 C50 1.250 . S
O42 Mn37 2.121 . S
O42 C50 1.258 . S
C43 N44 1.326 . S
C43 C47 1.460 . S
C43 H49 0.929 . S
N44 Mn37 2.257 . S
N44 C43 1.326 . S
N44 C48 1.362 . S
C45 C46 1.258 . S
C45 C48 1.431 . S
C45 C65 1.449 . S
C46 C45 1.258 . S
C46 C47 1.477 . S
C46 H66 0.931 . S
C47 C43 1.460 . S
C47 C46 1.477 . S
C47 H67 0.930 . S
C48 N44 1.362 . S
C48 C45 1.431 . S
C48 C58 1.476 . S
H49 C43 0.929 . S
C50 O41 1.250 . S
C50 O42 1.258 . S
O51 Mn36 2.162 . S
O51 C39 1.281 . S
O52 Mn36 2.297 . S
O52 C39 1.236 . S
N53 Mn37 2.282 . S
N53 C54 1.328 . S
N53 C58 1.318 . S
C54 N53 1.328 . S
C54 C55 1.457 . S
C54 H59 0.929 . S
C55 C54 1.457 . S
C55 C56 1.291 . S
C55 H68 0.931 . S
C56 C55 1.291 . S
C56 C57 1.373 . S
C56 H69 0.929 . S
C57 C56 1.373 . S
C57 C58 1.396 . S
C57 C64 1.403 . S
C58 C48 1.476 . S
C58 N53 1.318 . S
C58 C57 1.396 . S
H59 C54 0.929 . S
O60 Mn36 2.385 . S
O60 C38 1.234 . S
O61 Mn36 2.209 . S
O61 Mn37 2.215 . S
O61 C38 1.283 . S
O62 Mn36 2.094 . S
O62 C40 1.240 . S
O63 Mn37 2.117 . S
O63 C40 1.264 . S
C64 C57 1.403 . S
C64 C65 1.399 . S
C64 H70 0.929 . S
C65 C45 1.449 . S
C65 C64 1.399 . S
C65 H71 0.930 . S
H66 C46 0.931 . S
H67 C47 0.930 . S
H68 C55 0.931 . S
H69 C56 0.929 . S
H70 C64 0.929 . S
H71 C65 0.930 . S
Mn72 O77 2.095 . S
Mn72 O87 2.162 . S
Mn72 O88 2.297 . S
Mn72 O96 2.385 . S
Mn72 O97 2.209 . S
Mn72 O98 2.094 . S
Mn73 O78 2.121 . S
Mn73 N80 2.257 . S
Mn73 N89 2.282 . S
Mn73 O97 2.215 . S
Mn73 O99 2.117 . S
C74 O96 1.234 . S
C74 O97 1.283 . S
C75 O87 1.281 . S
C75 O88 1.236 . S
C76 O98 1.240 . S
C76 O99 1.264 . S
O77 Mn72 2.095 . S
O77 C86 1.250 . S
O78 Mn73 2.121 . S
O78 C86 1.258 . S
C79 N80 1.326 . S
C79 C83 1.460 . S
C79 H85 0.929 . S
N80 Mn73 2.257 . S
N80 C79 1.326 . S
N80 C84 1.362 . S
C81 C82 1.258 . S
C81 C84 1.431 . S
C81 C101 1.449 . S
C82 C81 1.258 . S
C82 C83 1.477 . S
C82 H102 0.931 . S
C83 C79 1.460 . S
C83 C82 1.477 . S
C83 H103 0.930 . S
C84 N80 1.362 . S
C84 C81 1.431 . S
C84 C94 1.476 . S
H85 C79 0.929 . S
C86 O77 1.250 . S
C86 O78 1.258 . S
O87 Mn72 2.162 . S
O87 C75 1.281 . S
O88 Mn72 2.297 . S
O88 C75 1.236 . S
N89 Mn73 2.282 . S
N89 C90 1.328 . S
N89 C94 1.318 . S
C90 N89 1.328 . S
C90 C91 1.457 . S
C90 H95 0.929 . S
C91 C90 1.457 . S
C91 C92 1.291 . S
C91 H104 0.931 . S
C92 C91 1.291 . S
C92 C93 1.373 . S
C92 H105 0.929 . S
C93 C92 1.373 . S
C93 C94 1.396 . S
C93 C100 1.403 . S
C94 C84 1.476 . S
C94 N89 1.318 . S
C94 C93 1.396 . S
H95 C90 0.929 . S
O96 Mn72 2.385 . S
O96 C74 1.234 . S
O97 Mn72 2.209 . S
O97 Mn73 2.215 . S
O97 C74 1.283 . S
O98 Mn72 2.094 . S
O98 C76 1.240 . S
O99 Mn73 2.117 . S
O99 C76 1.264 . S
C100 C93 1.403 . S
C100 C101 1.399 . S
C100 H106 0.929 . S
C101 C81 1.449 . S
C101 C100 1.399 . S
C101 H107 0.930 . S
H102 C82 0.931 . S
H103 C83 0.930 . S
H104 C91 0.931 . S
H105 C92 0.929 . S
H106 C100 0.929 . S
H107 C101 0.930 . S
Mn108 O113 2.095 . S
Mn108 O123 2.162 . S
Mn108 O124 2.297 . S
Mn108 O132 2.385 . S
Mn108 O133 2.209 . S
Mn108 O134 2.094 . S
Mn109 O114 2.121 . S
Mn109 N116 2.257 . S
Mn109 N125 2.282 . S
Mn109 O133 2.215 . S
Mn109 O135 2.117 . S
C110 O132 1.234 . S
C110 O133 1.283 . S
C111 O123 1.281 . S
C111 O124 1.236 . S
C112 O134 1.240 . S
C112 O135 1.264 . S
O113 Mn108 2.095 . S
O113 C122 1.250 . S
O114 Mn109 2.121 . S
O114 C122 1.258 . S
C115 N116 1.326 . S
C115 C119 1.460 . S
C115 H121 0.929 . S
N116 Mn109 2.257 . S
N116 C115 1.326 . S
N116 C120 1.362 . S
C117 C118 1.258 . S
C117 C120 1.431 . S
C117 C137 1.449 . S
C118 C117 1.258 . S
C118 C119 1.477 . S
C118 H138 0.931 . S
C119 C115 1.460 . S
C119 C118 1.477 . S
C119 H139 0.930 . S
C120 N116 1.362 . S
C120 C117 1.431 . S
C120 C130 1.476 . S
H121 C115 0.929 . S
C122 O113 1.250 . S
C122 O114 1.258 . S
O123 Mn108 2.162 . S
O123 C111 1.281 . S
O124 Mn108 2.297 . S
O124 C111 1.236 . S
N125 Mn109 2.282 . S
N125 C126 1.328 . S
N125 C130 1.318 . S
C126 N125 1.328 . S
C126 C127 1.457 . S
C126 H131 0.929 . S
C127 C126 1.457 . S
C127 C128 1.291 . S
C127 H140 0.931 . S
C128 C127 1.291 . S
C128 C129 1.373 . S
C128 H141 0.929 . S
C129 C128 1.373 . S
C129 C130 1.396 . S
C129 C136 1.403 . S
C130 C120 1.476 . S
C130 N125 1.318 . S
C130 C129 1.396 . S
H131 C126 0.929 . S
O132 Mn108 2.385 . S
O132 C110 1.234 . S
O133 Mn108 2.209 . S
O133 Mn109 2.215 . S
O133 C110 1.283 . S
O134 Mn108 2.094 . S
O134 C112 1.240 . S
O135 Mn109 2.117 . S
O135 C112 1.264 . S
C136 C129 1.403 . S
C136 C137 1.399 . S
C136 H142 0.929 . S
C137 C117 1.449 . S
C137 C136 1.399 . S
C137 H143 0.930 . S
H138 C118 0.931 . S
H139 C119 0.930 . S
H140 C127 0.931 . S
H141 C128 0.929 . S
H142 C136 0.929 . S
H143 C137 0.930 . S
Mn144 O149 2.095 . S
Mn144 O159 2.162 . S
Mn144 O160 2.297 . S
Mn144 O168 2.385 . S
Mn144 O169 2.209 . S
Mn144 O170 2.094 . S
Mn145 O150 2.121 . S
Mn145 N152 2.257 . S
Mn145 N161 2.282 . S
Mn145 O169 2.215 . S
Mn145 O171 2.117 . S
C146 O168 1.234 . S
C146 O169 1.283 . S
C147 O159 1.281 . S
C147 O160 1.236 . S
C148 O170 1.240 . S
C148 O171 1.264 . S
O149 Mn144 2.095 . S
O149 C158 1.250 . S
O150 Mn145 2.121 . S
O150 C158 1.258 . S
C151 N152 1.326 . S
C151 C155 1.460 . S
C151 H157 0.929 . S
N152 Mn145 2.257 . S
N152 C151 1.326 . S
N152 C156 1.362 . S
C153 C154 1.258 . S
C153 C156 1.431 . S
C153 C173 1.449 . S
C154 C153 1.258 . S
C154 C155 1.477 . S
C154 H174 0.931 . S
C155 C151 1.460 . S
C155 C154 1.477 . S
C155 H175 0.930 . S
C156 N152 1.362 . S
C156 C153 1.431 . S
C156 C166 1.476 . S
H157 C151 0.929 . S
C158 O149 1.250 . S
C158 O150 1.258 . S
O159 Mn144 2.162 . S
O159 C147 1.281 . S
O160 Mn144 2.297 . S
O160 C147 1.236 . S
N161 Mn145 2.282 . S
N161 C162 1.328 . S
N161 C166 1.318 . S
C162 N161 1.328 . S
C162 C163 1.457 . S
C162 H167 0.929 . S
C163 C162 1.457 . S
C163 C164 1.291 . S
C163 H176 0.931 . S
C164 C163 1.291 . S
C164 C165 1.373 . S
C164 H177 0.929 . S
C165 C164 1.373 . S
C165 C166 1.396 . S
C165 C172 1.403 . S
C166 C156 1.476 . S
C166 N161 1.318 . S
C166 C165 1.396 . S
H167 C162 0.929 . S
O168 Mn144 2.385 . S
O168 C146 1.234 . S
O169 Mn144 2.209 . S
O169 Mn145 2.215 . S
O169 C146 1.283 . S
O170 Mn144 2.094 . S
O170 C148 1.240 . S
O171 Mn145 2.117 . S
O171 C148 1.264 . S
C172 C165 1.403 . S
C172 C173 1.399 . S
C172 H178 0.929 . S
C173 C153 1.449 . S
C173 C172 1.399 . S
C173 H179 0.930 . S
H174 C154 0.931 . S
H175 C155 0.930 . S
H176 C163 0.931 . S
H177 C164 0.929 . S
H178 C172 0.929 . S
H179 C173 0.930 . S
Mn180 O185 2.095 . S
Mn180 O195 2.162 . S
Mn180 O196 2.297 . S
Mn180 O204 2.385 . S
Mn180 O205 2.209 . S
Mn180 O206 2.094 . S
Mn181 O186 2.121 . S
Mn181 N188 2.257 . S
Mn181 N197 2.282 . S
Mn181 O205 2.215 . S
Mn181 O207 2.117 . S
C182 O204 1.234 . S
C182 O205 1.283 . S
C183 O195 1.281 . S
C183 O196 1.236 . S
C184 O206 1.240 . S
C184 O207 1.264 . S
O185 Mn180 2.095 . S
O185 C194 1.250 . S
O186 Mn181 2.121 . S
O186 C194 1.258 . S
C187 N188 1.326 . S
C187 C191 1.460 . S
C187 H193 0.929 . S
N188 Mn181 2.257 . S
N188 C187 1.326 . S
N188 C192 1.362 . S
C189 C190 1.258 . S
C189 C192 1.431 . S
C189 C209 1.449 . S
C190 C189 1.258 . S
C190 C191 1.477 . S
C190 H210 0.931 . S
C191 C187 1.460 . S
C191 C190 1.477 . S
C191 H211 0.930 . S
C192 N188 1.362 . S
C192 C189 1.431 . S
C192 C202 1.476 . S
H193 C187 0.929 . S
C194 O185 1.250 . S
C194 O186 1.258 . S
O195 Mn180 2.162 . S
O195 C183 1.281 . S
O196 Mn180 2.297 . S
O196 C183 1.236 . S
N197 Mn181 2.282 . S
N197 C198 1.328 . S
N197 C202 1.318 . S
C198 N197 1.328 . S
C198 C199 1.457 . S
C198 H203 0.929 . S
C199 C198 1.457 . S
C199 C200 1.291 . S
C199 H212 0.931 . S
C200 C199 1.291 . S
C200 C201 1.373 . S
C200 H213 0.929 . S
C201 C200 1.373 . S
C201 C202 1.396 . S
C201 C208 1.403 . S
C202 C192 1.476 . S
C202 N197 1.318 . S
C202 C201 1.396 . S
H203 C198 0.929 . S
O204 Mn180 2.385 . S
O204 C182 1.234 . S
O205 Mn180 2.209 . S
O205 Mn181 2.215 . S
O205 C182 1.283 . S
O206 Mn180 2.094 . S
O206 C184 1.240 . S
O207 Mn181 2.117 . S
O207 C184 1.264 . S
C208 C201 1.403 . S
C208 C209 1.399 . S
C208 H214 0.929 . S
C209 C189 1.449 . S
C209 C208 1.399 . S
C209 H215 0.930 . S
H210 C190 0.931 . S
H211 C191 0.930 . S
H212 C199 0.931 . S
H213 C200 0.929 . S
H214 C208 0.929 . S
H215 C209 0.930 . S
Mn216 O221 2.095 . S
Mn216 O231 2.162 . S
Mn216 O232 2.297 . S
Mn216 O240 2.385 . S
Mn216 O241 2.209 . S
Mn216 O242 2.094 . S
Mn217 O222 2.121 . S
Mn217 N224 2.257 . S
Mn217 N233 2.282 . S
Mn217 O241 2.215 . S
Mn217 O243 2.117 . S
C218 O240 1.234 . S
C218 O241 1.283 . S
C219 O231 1.281 . S
C219 O232 1.236 . S
C220 O242 1.240 . S
C220 O243 1.264 . S
O221 Mn216 2.095 . S
O221 C230 1.250 . S
O222 Mn217 2.121 . S
O222 C230 1.258 . S
C223 N224 1.326 . S
C223 C227 1.460 . S
C223 H229 0.929 . S
N224 Mn217 2.257 . S
N224 C223 1.326 . S
N224 C228 1.362 . S
C225 C226 1.258 . S
C225 C228 1.431 . S
C225 C245 1.449 . S
C226 C225 1.258 . S
C226 C227 1.477 . S
C226 H246 0.931 . S
C227 C223 1.460 . S
C227 C226 1.477 . S
C227 H247 0.930 . S
C228 N224 1.362 . S
C228 C225 1.431 . S
C228 C238 1.476 . S
H229 C223 0.929 . S
C230 O221 1.250 . S
C230 O222 1.258 . S
O231 Mn216 2.162 . S
O231 C219 1.281 . S
O232 Mn216 2.297 . S
O232 C219 1.236 . S
N233 Mn217 2.282 . S
N233 C234 1.328 . S
N233 C238 1.318 . S
C234 N233 1.328 . S
C234 C235 1.457 . S
C234 H239 0.929 . S
C235 C234 1.457 . S
C235 C236 1.291 . S
C235 H248 0.931 . S
C236 C235 1.291 . S
C236 C237 1.373 . S
C236 H249 0.929 . S
C237 C236 1.373 . S
C237 C238 1.396 . S
C237 C244 1.403 . S
C238 C228 1.476 . S
C238 N233 1.318 . S
C238 C237 1.396 . S
H239 C234 0.929 . S
O240 Mn216 2.385 . S
O240 C218 1.234 . S
O241 Mn216 2.209 . S
O241 Mn217 2.215 . S
O241 C218 1.283 . S
O242 Mn216 2.094 . S
O242 C220 1.240 . S
O243 Mn217 2.117 . S
O243 C220 1.264 . S
C244 C237 1.403 . S
C244 C245 1.399 . S
C244 H250 0.929 . S
C245 C225 1.449 . S
C245 C244 1.399 . S
C245 H251 0.930 . S
H246 C226 0.931 . S
H247 C227 0.930 . S
H248 C235 0.931 . S
H249 C236 0.929 . S
H250 C244 0.929 . S
H251 C245 0.930 . S
Mn252 O257 2.095 . S
Mn252 O267 2.162 . S
Mn252 O268 2.297 . S
Mn252 O276 2.385 . S
Mn252 O277 2.209 . S
Mn252 O278 2.094 . S
Mn253 O258 2.121 . S
Mn253 N260 2.257 . S
Mn253 N269 2.282 . S
Mn253 O277 2.215 . S
Mn253 O279 2.117 . S
C254 O276 1.234 . S
C254 O277 1.283 . S
C255 O267 1.281 . S
C255 O268 1.236 . S
C256 O278 1.240 . S
C256 O279 1.264 . S
O257 Mn252 2.095 . S
O257 C266 1.250 . S
O258 Mn253 2.121 . S
O258 C266 1.258 . S
C259 N260 1.326 . S
C259 C263 1.460 . S
C259 H265 0.929 . S
N260 Mn253 2.257 . S
N260 C259 1.326 . S
N260 C264 1.362 . S
C261 C262 1.258 . S
C261 C264 1.431 . S
C261 C281 1.449 . S
C262 C261 1.258 . S
C262 C263 1.477 . S
C262 H282 0.931 . S
C263 C259 1.460 . S
C263 C262 1.477 . S
C263 H283 0.930 . S
C264 N260 1.362 . S
C264 C261 1.431 . S
C264 C274 1.476 . S
H265 C259 0.929 . S
C266 O257 1.250 . S
C266 O258 1.258 . S
O267 Mn252 2.162 . S
O267 C255 1.281 . S
O268 Mn252 2.297 . S
O268 C255 1.236 . S
N269 Mn253 2.282 . S
N269 C270 1.328 . S
N269 C274 1.318 . S
C270 N269 1.328 . S
C270 C271 1.457 . S
C270 H275 0.929 . S
C271 C270 1.457 . S
C271 C272 1.291 . S
C271 H284 0.931 . S
C272 C271 1.291 . S
C272 C273 1.373 . S
C272 H285 0.929 . S
C273 C272 1.373 . S
C273 C274 1.396 . S
C273 C280 1.403 . S
C274 C264 1.476 . S
C274 N269 1.318 . S
C274 C273 1.396 . S
H275 C270 0.929 . S
O276 Mn252 2.385 . S
O276 C254 1.234 . S
O277 Mn252 2.209 . S
O277 Mn253 2.215 . S
O277 C254 1.283 . S
O278 Mn252 2.094 . S
O278 C256 1.240 . S
O279 Mn253 2.117 . S
O279 C256 1.264 . S
C280 C273 1.403 . S
C280 C281 1.399 . S
C280 H286 0.929 . S
C281 C261 1.449 . S
C281 C280 1.399 . S
C281 H287 0.930 . S
H282 C262 0.931 . S
H283 C263 0.930 . S
H284 C271 0.931 . S
H285 C272 0.929 . S
H286 C280 0.929 . S
H287 C281 0.930 . S
Mn288 O293 2.095 . S
Mn288 O303 2.162 . S
Mn288 O304 2.297 . S
Mn288 O312 2.385 . S
Mn288 O313 2.209 . S
Mn288 O314 2.094 . S
Mn289 O294 2.121 . S
Mn289 N296 2.257 . S
Mn289 N305 2.282 . S
Mn289 O313 2.215 . S
Mn289 O315 2.117 . S
C290 O312 1.234 . S
C290 O313 1.283 . S
C291 O303 1.281 . S
C291 O304 1.236 . S
C292 O314 1.240 . S
C292 O315 1.264 . S
O293 Mn288 2.095 . S
O293 C302 1.250 . S
O294 Mn289 2.121 . S
O294 C302 1.258 . S
C295 N296 1.326 . S
C295 C299 1.460 . S
C295 H301 0.929 . S
N296 Mn289 2.257 . S
N296 C295 1.326 . S
N296 C300 1.362 . S
C297 C298 1.258 . S
C297 C300 1.431 . S
C297 C317 1.449 . S
C298 C297 1.258 . S
C298 C299 1.477 . S
C298 H318 0.931 . S
C299 C295 1.460 . S
C299 C298 1.477 . S
C299 H319 0.930 . S
C300 N296 1.362 . S
C300 C297 1.431 . S
C300 C310 1.476 . S
H301 C295 0.929 . S
C302 O293 1.250 . S
C302 O294 1.258 . S
O303 Mn288 2.162 . S
O303 C291 1.281 . S
O304 Mn288 2.297 . S
O304 C291 1.236 . S
N305 Mn289 2.282 . S
N305 C306 1.328 . S
N305 C310 1.318 . S
C306 N305 1.328 . S
C306 C307 1.457 . S
C306 H311 0.929 . S
C307 C306 1.457 . S
C307 C308 1.291 . S
C307 H320 0.931 . S
C308 C307 1.291 . S
C308 C309 1.373 . S
C308 H321 0.929 . S
C309 C308 1.373 . S
C309 C310 1.396 . S
C309 C316 1.403 . S
C310 C300 1.476 . S
C310 N305 1.318 . S
C310 C309 1.396 . S
H311 C306 0.929 . S
O312 Mn288 2.385 . S
O312 C290 1.234 . S
O313 Mn288 2.209 . S
O313 Mn289 2.215 . S
O313 C290 1.283 . S
O314 Mn288 2.094 . S
O314 C292 1.240 . S
O315 Mn289 2.117 . S
O315 C292 1.264 . S
C316 C309 1.403 . S
C316 C317 1.399 . S
C316 H322 0.929 . S
C317 C297 1.449 . S
C317 C316 1.399 . S
C317 H323 0.930 . S
H318 C298 0.931 . S
H319 C299 0.930 . S
H320 C307 0.931 . S
H321 C308 0.929 . S
H322 C316 0.929 . S
H323 C317 0.930 . S
Mn324 O329 2.095 . S
Mn324 O339 2.162 . S
Mn324 O340 2.297 . S
Mn324 O348 2.385 . S
Mn324 O349 2.209 . S
Mn324 O350 2.094 . S
Mn325 O330 2.121 . S
Mn325 N332 2.257 . S
Mn325 N341 2.282 . S
Mn325 O349 2.215 . S
Mn325 O351 2.117 . S
C326 O348 1.234 . S
C326 O349 1.283 . S
C327 O339 1.281 . S
C327 O340 1.236 . S
C328 O350 1.240 . S
C328 O351 1.264 . S
O329 Mn324 2.095 . S
O329 C338 1.250 . S
O330 Mn325 2.121 . S
O330 C338 1.258 . S
C331 N332 1.326 . S
C331 C335 1.460 . S
C331 H337 0.929 . S
N332 Mn325 2.257 . S
N332 C331 1.326 . S
N332 C336 1.362 . S
C333 C334 1.258 . S
C333 C336 1.431 . S
C333 C353 1.449 . S
C334 C333 1.258 . S
C334 C335 1.477 . S
C334 H354 0.931 . S
C335 C331 1.460 . S
C335 C334 1.477 . S
C335 H355 0.930 . S
C336 N332 1.362 . S
C336 C333 1.431 . S
C336 C346 1.476 . S
H337 C331 0.929 . S
C338 O329 1.250 . S
C338 O330 1.258 . S
O339 Mn324 2.162 . S
O339 C327 1.281 . S
O340 Mn324 2.297 . S
O340 C327 1.236 . S
N341 Mn325 2.282 . S
N341 C342 1.328 . S
N341 C346 1.318 . S
C342 N341 1.328 . S
C342 C343 1.457 . S
C342 H347 0.929 . S
C343 C342 1.457 . S
C343 C344 1.291 . S
C343 H356 0.931 . S
C344 C343 1.291 . S
C344 C345 1.373 . S
C344 H357 0.929 . S
C345 C344 1.373 . S
C345 C346 1.396 . S
C345 C352 1.403 . S
C346 C336 1.476 . S
C346 N341 1.318 . S
C346 C345 1.396 . S
H347 C342 0.929 . S
O348 Mn324 2.385 . S
O348 C326 1.234 . S
O349 Mn324 2.209 . S
O349 Mn325 2.215 . S
O349 C326 1.283 . S
O350 Mn324 2.094 . S
O350 C328 1.240 . S
O351 Mn325 2.117 . S
O351 C328 1.264 . S
C352 C345 1.403 . S
C352 C353 1.399 . S
C352 H358 0.929 . S
C353 C333 1.449 . S
C353 C352 1.399 . S
C353 H359 0.930 . S
H354 C334 0.931 . S
H355 C335 0.930 . S
H356 C343 0.931 . S
H357 C344 0.929 . S
H358 C352 0.929 . S
H359 C353 0.930 . S
Mn360 O365 2.095 . S
Mn360 O375 2.162 . S
Mn360 O376 2.297 . S
Mn360 O384 2.385 . S
Mn360 O385 2.209 . S
Mn360 O386 2.094 . S
Mn361 O366 2.121 . S
Mn361 N368 2.257 . S
Mn361 N377 2.282 . S
Mn361 O385 2.215 . S
Mn361 O387 2.117 . S
C362 O384 1.234 . S
C362 O385 1.283 . S
C363 O375 1.281 . S
C363 O376 1.236 . S
C364 O386 1.240 . S
C364 O387 1.264 . S
O365 Mn360 2.095 . S
O365 C374 1.250 . S
O366 Mn361 2.121 . S
O366 C374 1.258 . S
C367 N368 1.326 . S
C367 C371 1.460 . S
C367 H373 0.929 . S
N368 Mn361 2.257 . S
N368 C367 1.326 . S
N368 C372 1.362 . S
C369 C370 1.258 . S
C369 C372 1.431 . S
C369 C389 1.449 . S
C370 C369 1.258 . S
C370 C371 1.477 . S
C370 H390 0.931 . S
C371 C367 1.460 . S
C371 C370 1.477 . S
C371 H391 0.930 . S
C372 N368 1.362 . S
C372 C369 1.431 . S
C372 C382 1.476 . S
H373 C367 0.929 . S
C374 O365 1.250 . S
C374 O366 1.258 . S
O375 Mn360 2.162 . S
O375 C363 1.281 . S
O376 Mn360 2.297 . S
O376 C363 1.236 . S
N377 Mn361 2.282 . S
N377 C378 1.328 . S
N377 C382 1.318 . S
C378 N377 1.328 . S
C378 C379 1.457 . S
C378 H383 0.929 . S
C379 C378 1.457 . S
C379 C380 1.291 . S
C379 H392 0.931 . S
C380 C379 1.291 . S
C380 C381 1.373 . S
C380 H393 0.929 . S
C381 C380 1.373 . S
C381 C382 1.396 . S
C381 C388 1.403 . S
C382 C372 1.476 . S
C382 N377 1.318 . S
C382 C381 1.396 . S
H383 C378 0.929 . S
O384 Mn360 2.385 . S
O384 C362 1.234 . S
O385 Mn360 2.209 . S
O385 Mn361 2.215 . S
O385 C362 1.283 . S
O386 Mn360 2.094 . S
O386 C364 1.240 . S
O387 Mn361 2.117 . S
O387 C364 1.264 . S
C388 C381 1.403 . S
C388 C389 1.399 . S
C388 H394 0.929 . S
C389 C369 1.449 . S
C389 C388 1.399 . S
C389 H395 0.930 . S
H390 C370 0.931 . S
H391 C371 0.930 . S
H392 C379 0.931 . S
H393 C380 0.929 . S
H394 C388 0.929 . S
H395 C389 0.930 . S
Mn396 O401 2.095 . S
Mn396 O411 2.162 . S
Mn396 O412 2.297 . S
Mn396 O420 2.385 . S
Mn396 O421 2.209 . S
Mn396 O422 2.094 . S
Mn397 O402 2.121 . S
Mn397 N404 2.257 . S
Mn397 N413 2.282 . S
Mn397 O421 2.215 . S
Mn397 O423 2.117 . S
C398 O420 1.234 . S
C398 O421 1.283 . S
C399 O411 1.281 . S
C399 O412 1.236 . S
C400 O422 1.240 . S
C400 O423 1.264 . S
O401 Mn396 2.095 . S
O401 C410 1.250 . S
O402 Mn397 2.121 . S
O402 C410 1.258 . S
C403 N404 1.326 . S
C403 C407 1.460 . S
C403 H409 0.929 . S
N404 Mn397 2.257 . S
N404 C403 1.326 . S
N404 C408 1.362 . S
C405 C406 1.258 . S
C405 C408 1.431 . S
C405 C425 1.449 . S
C406 C405 1.258 . S
C406 C407 1.477 . S
C406 H426 0.931 . S
C407 C403 1.460 . S
C407 C406 1.477 . S
C407 H427 0.930 . S
C408 N404 1.362 . S
C408 C405 1.431 . S
C408 C418 1.476 . S
H409 C403 0.929 . S
C410 O401 1.250 . S
C410 O402 1.258 . S
O411 Mn396 2.162 . S
O411 C399 1.281 . S
O412 Mn396 2.297 . S
O412 C399 1.236 . S
N413 Mn397 2.282 . S
N413 C414 1.328 . S
N413 C418 1.318 . S
C414 N413 1.328 . S
C414 C415 1.457 . S
C414 H419 0.929 . S
C415 C414 1.457 . S
C415 C416 1.291 . S
C415 H428 0.931 . S
C416 C415 1.291 . S
C416 C417 1.373 . S
C416 H429 0.929 . S
C417 C416 1.373 . S
C417 C418 1.396 . S
C417 C424 1.403 . S
C418 C408 1.476 . S
C418 N413 1.318 . S
C418 C417 1.396 . S
H419 C414 0.929 . S
O420 Mn396 2.385 . S
O420 C398 1.234 . S
O421 Mn396 2.209 . S
O421 Mn397 2.215 . S
O421 C398 1.283 . S
O422 Mn396 2.094 . S
O422 C400 1.240 . S
O423 Mn397 2.117 . S
O423 C400 1.264 . S
C424 C417 1.403 . S
C424 C425 1.399 . S
C424 H430 0.929 . S
C425 C405 1.449 . S
C425 C424 1.399 . S
C425 H431 0.930 . S
H426 C406 0.931 . S
H427 C407 0.930 . S
H428 C415 0.931 . S
H429 C416 0.929 . S
H430 C424 0.929 . S
H431 C425 0.930 . S
Mn432 O437 2.095 . S
Mn432 O447 2.162 . S
Mn432 O448 2.297 . S
Mn432 O456 2.385 . S
Mn432 O457 2.209 . S
Mn432 O458 2.094 . S
Mn433 O438 2.121 . S
Mn433 N440 2.257 . S
Mn433 N449 2.282 . S
Mn433 O457 2.215 . S
Mn433 O459 2.117 . S
C434 O456 1.234 . S
C434 O457 1.283 . S
C435 O447 1.281 . S
C435 O448 1.236 . S
C436 O458 1.240 . S
C436 O459 1.264 . S
O437 Mn432 2.095 . S
O437 C446 1.250 . S
O438 Mn433 2.121 . S
O438 C446 1.258 . S
C439 N440 1.326 . S
C439 C443 1.460 . S
C439 H445 0.929 . S
N440 Mn433 2.257 . S
N440 C439 1.326 . S
N440 C444 1.362 . S
C441 C442 1.258 . S
C441 C444 1.431 . S
C441 C461 1.449 . S
C442 C441 1.258 . S
C442 C443 1.477 . S
C442 H462 0.931 . S
C443 C439 1.460 . S
C443 C442 1.477 . S
C443 H463 0.930 1_545 S
C444 N440 1.362 . S
C444 C441 1.431 . S
C444 C454 1.476 . S
H445 C439 0.929 . S
C446 O437 1.250 . S
C446 O438 1.258 . S
O447 Mn432 2.162 . S
O447 C435 1.281 . S
O448 Mn432 2.297 . S
O448 C435 1.236 . S
N449 Mn433 2.282 . S
N449 C450 1.328 . S
N449 C454 1.318 . S
C450 N449 1.328 . S
C450 C451 1.457 . S
C450 H455 0.929 . S
C451 C450 1.457 . S
C451 C452 1.291 . S
C451 H464 0.931 . S
C452 C451 1.291 . S
C452 C453 1.373 . S
C452 H465 0.929 . S
C453 C452 1.373 . S
C453 C454 1.396 . S
C453 C460 1.403 . S
C454 C444 1.476 . S
C454 N449 1.318 . S
C454 C453 1.396 . S
H455 C450 0.929 . S
O456 Mn432 2.385 . S
O456 C434 1.234 . S
O457 Mn432 2.209 . S
O457 Mn433 2.215 . S
O457 C434 1.283 . S
O458 Mn432 2.094 . S
O458 C436 1.240 . S
O459 Mn433 2.117 . S
O459 C436 1.264 . S
C460 C453 1.403 . S
C460 C461 1.399 . S
C460 H466 0.929 . S
C461 C441 1.449 . S
C461 C460 1.399 . S
C461 H467 0.930 . S
H462 C442 0.931 . S
H463 C443 0.930 1_565 S
H464 C451 0.931 . S
H465 C452 0.929 . S
H466 C460 0.929 . S
H467 C461 0.930 . S
Mn468 O473 2.095 . S
Mn468 O483 2.162 . S
Mn468 O484 2.297 . S
Mn468 O492 2.385 . S
Mn468 O493 2.209 . S
Mn468 O494 2.094 . S
Mn469 O474 2.121 . S
Mn469 N476 2.257 . S
Mn469 N485 2.282 . S
Mn469 O493 2.215 . S
Mn469 O495 2.117 . S
C470 O492 1.234 . S
C470 O493 1.283 . S
C471 O483 1.281 . S
C471 O484 1.236 . S
C472 O494 1.240 . S
C472 O495 1.264 . S
O473 Mn468 2.095 . S
O473 C482 1.250 . S
O474 Mn469 2.121 . S
O474 C482 1.258 . S
C475 N476 1.326 . S
C475 C479 1.460 . S
C475 H481 0.929 . S
N476 Mn469 2.257 . S
N476 C475 1.326 . S
N476 C480 1.362 . S
C477 C478 1.258 . S
C477 C480 1.431 . S
C477 C497 1.449 . S
C478 C477 1.258 . S
C478 C479 1.477 . S
C478 H498 0.931 . S
C479 C475 1.460 . S
C479 C478 1.477 . S
C479 H499 0.930 1_565 S
C480 N476 1.362 . S
C480 C477 1.431 . S
C480 C490 1.476 . S
H481 C475 0.929 . S
C482 O473 1.250 . S
C482 O474 1.258 . S
O483 Mn468 2.162 . S
O483 C471 1.281 . S
O484 Mn468 2.297 . S
O484 C471 1.236 . S
N485 Mn469 2.282 . S
N485 C486 1.328 . S
N485 C490 1.318 . S
C486 N485 1.328 . S
C486 C487 1.457 . S
C486 H491 0.929 . S
C487 C486 1.457 . S
C487 C488 1.291 . S
C487 H500 0.931 . S
C488 C487 1.291 . S
C488 C489 1.373 . S
C488 H501 0.929 . S
C489 C488 1.373 . S
C489 C490 1.396 . S
C489 C496 1.403 . S
C490 C480 1.476 . S
C490 N485 1.318 . S
C490 C489 1.396 . S
H491 C486 0.929 . S
O492 Mn468 2.385 . S
O492 C470 1.234 . S
O493 Mn468 2.209 . S
O493 Mn469 2.215 . S
O493 C470 1.283 . S
O494 Mn468 2.094 . S
O494 C472 1.240 . S
O495 Mn469 2.117 . S
O495 C472 1.264 . S
C496 C489 1.403 . S
C496 C497 1.399 . S
C496 H502 0.929 . S
C497 C477 1.449 . S
C497 C496 1.399 . S
C497 H503 0.930 . S
H498 C478 0.931 . S
H499 C479 0.930 1_545 S
H500 C487 0.931 . S
H501 C488 0.929 . S
H502 C496 0.929 . S
H503 C497 0.930 . S
Mn504 O509 2.095 . S
Mn504 O519 2.162 . S
Mn504 O520 2.297 . S
Mn504 O528 2.385 . S
Mn504 O529 2.209 . S
Mn504 O530 2.094 . S
Mn505 O510 2.121 . S
Mn505 N512 2.257 . S
Mn505 N521 2.282 . S
Mn505 O529 2.215 . S
Mn505 O531 2.117 . S
C506 O528 1.234 . S
C506 O529 1.283 . S
C507 O519 1.281 . S
C507 O520 1.236 . S
C508 O530 1.240 . S
C508 O531 1.264 . S
O509 Mn504 2.095 . S
O509 C518 1.250 . S
O510 Mn505 2.121 . S
O510 C518 1.258 . S
C511 N512 1.326 . S
C511 C515 1.460 . S
C511 H517 0.929 . S
N512 Mn505 2.257 . S
N512 C511 1.326 . S
N512 C516 1.362 . S
C513 C514 1.258 . S
C513 C516 1.431 . S
C513 C533 1.449 . S
C514 C513 1.258 . S
C514 C515 1.477 . S
C514 H534 0.931 . S
C515 C511 1.460 . S
C515 C514 1.477 . S
C515 H535 0.930 1_565 S
C516 N512 1.362 . S
C516 C513 1.431 . S
C516 C526 1.476 . S
H517 C511 0.929 . S
C518 O509 1.250 . S
C518 O510 1.258 . S
O519 Mn504 2.162 . S
O519 C507 1.281 . S
O520 Mn504 2.297 . S
O520 C507 1.236 . S
N521 Mn505 2.282 . S
N521 C522 1.328 . S
N521 C526 1.318 . S
C522 N521 1.328 . S
C522 C523 1.457 . S
C522 H527 0.929 . S
C523 C522 1.457 . S
C523 C524 1.291 . S
C523 H536 0.931 . S
C524 C523 1.291 . S
C524 C525 1.373 . S
C524 H537 0.929 . S
C525 C524 1.373 . S
C525 C526 1.396 . S
C525 C532 1.403 . S
C526 C516 1.476 . S
C526 N521 1.318 . S
C526 C525 1.396 . S
H527 C522 0.929 . S
O528 Mn504 2.385 . S
O528 C506 1.234 . S
O529 Mn504 2.209 . S
O529 Mn505 2.215 . S
O529 C506 1.283 . S
O530 Mn504 2.094 . S
O530 C508 1.240 . S
O531 Mn505 2.117 . S
O531 C508 1.264 . S
C532 C525 1.403 . S
C532 C533 1.399 . S
C532 H538 0.929 . S
C533 C513 1.449 . S
C533 C532 1.399 . S
C533 H539 0.930 . S
H534 C514 0.931 . S
H535 C515 0.930 1_545 S
H536 C523 0.931 . S
H537 C524 0.929 . S
H538 C532 0.929 . S
H539 C533 0.930 . S
Mn540 O545 2.095 . S
Mn540 O555 2.162 . S
Mn540 O556 2.297 . S
Mn540 O564 2.385 . S
Mn540 O565 2.209 . S
Mn540 O566 2.094 . S
Mn541 O546 2.121 . S
Mn541 N548 2.257 . S
Mn541 N557 2.282 . S
Mn541 O565 2.215 . S
Mn541 O567 2.117 . S
C542 O564 1.234 . S
C542 O565 1.283 . S
C543 O555 1.281 . S
C543 O556 1.236 . S
C544 O566 1.240 . S
C544 O567 1.264 . S
O545 Mn540 2.095 . S
O545 C554 1.250 . S
O546 Mn541 2.121 . S
O546 C554 1.258 . S
C547 N548 1.326 . S
C547 C551 1.460 . S
C547 H553 0.929 . S
N548 Mn541 2.257 . S
N548 C547 1.326 . S
N548 C552 1.362 . S
C549 C550 1.258 . S
C549 C552 1.431 . S
C549 C569 1.449 . S
C550 C549 1.258 . S
C550 C551 1.477 . S
C550 H570 0.931 . S
C551 C547 1.460 . S
C551 C550 1.477 . S
C551 H571 0.930 1_545 S
C552 N548 1.362 . S
C552 C549 1.431 . S
C552 C562 1.476 . S
H553 C547 0.929 . S
C554 O545 1.250 . S
C554 O546 1.258 . S
O555 Mn540 2.162 . S
O555 C543 1.281 . S
O556 Mn540 2.297 . S
O556 C543 1.236 . S
N557 Mn541 2.282 . S
N557 C558 1.328 . S
N557 C562 1.318 . S
C558 N557 1.328 . S
C558 C559 1.457 . S
C558 H563 0.929 . S
C559 C558 1.457 . S
C559 C560 1.291 . S
C559 H572 0.931 . S
C560 C559 1.291 . S
C560 C561 1.373 . S
C560 H573 0.929 . S
C561 C560 1.373 . S
C561 C562 1.396 . S
C561 C568 1.403 . S
C562 C552 1.476 . S
C562 N557 1.318 . S
C562 C561 1.396 . S
H563 C558 0.929 . S
O564 Mn540 2.385 . S
O564 C542 1.234 . S
O565 Mn540 2.209 . S
O565 Mn541 2.215 . S
O565 C542 1.283 . S
O566 Mn540 2.094 . S
O566 C544 1.240 . S
O567 Mn541 2.117 . S
O567 C544 1.264 . S
C568 C561 1.403 . S
C568 C569 1.399 . S
C568 H574 0.929 . S
C569 C549 1.449 . S
C569 C568 1.399 . S
C569 H575 0.930 . S
H570 C550 0.931 . S
H571 C551 0.930 1_565 S
H572 C559 0.931 . S
H573 C560 0.929 . S
H574 C568 0.929 . S
H575 C569 0.930 . S
H576 C582 0.930 . S
H577 C585 0.930 . S
H578 C586 0.930 . S
H579 C587 0.930 . S
H580 C590 0.930 . S
H581 C591 0.930 . S
C582 H576 0.930 . S
C582 C583 1.355 . S
C582 C584 1.415 . S
C583 C582 1.355 . S
C583 C585 1.419 . S
C584 C582 1.415 . S
C584 C589 1.412 1_455 S
C584 C591 1.409 1_455 S
C585 H577 0.930 . S
C585 C583 1.419 . S
C585 C586 1.362 . S
C586 H578 0.930 . S
C586 C585 1.362 . S
C586 C589 1.383 1_455 S
C587 H579 0.930 . S
C587 C588 1.355 . S
C587 C589 1.454 . S
C588 C587 1.355 . S
C588 C590 1.419 . S
C589 C584 1.412 1_655 S
C589 C586 1.383 1_655 S
C589 C587 1.454 . S
C590 H580 0.930 . S
C590 C588 1.419 . S
C590 C591 1.362 . S
C591 H581 0.930 . S
C591 C584 1.409 1_655 S
C591 C590 1.362 . S
H592 C598 0.930 . S
H593 C601 0.930 . S
H594 C602 0.930 . S
H595 C603 0.930 . S
H596 C606 0.930 . S
H597 C607 0.930 . S
C598 H592 0.930 . S
C598 C599 1.355 . S
C598 C600 1.415 . S
C599 C598 1.355 . S
C599 C601 1.419 . S
C600 C598 1.415 . S
C600 C605 1.415 1_655 S
C600 C607 1.409 1_655 S
C601 H593 0.930 . S
C601 C599 1.419 . S
C601 C602 1.362 . S
C602 H594 0.930 . S
C602 C601 1.362 . S
C602 C605 1.387 1_655 S
C603 H595 0.930 . S
C603 C604 1.355 . S
C603 C605 1.447 . S
C604 C603 1.355 . S
C604 C606 1.419 . S
C605 C600 1.415 1_455 S
C605 C602 1.387 1_455 S
C605 C603 1.447 . S
C606 H596 0.930 . S
C606 C604 1.419 . S
C606 C607 1.362 . S
C607 H597 0.930 . S
C607 C600 1.409 1_455 S
C607 C606 1.362 . S
H608 C614 0.930 . S
H609 C617 0.930 . S
H610 C618 0.930 . S
H611 C619 0.930 . S
H612 C622 0.930 . S
H613 C623 0.930 . S
C614 H608 0.930 . S
C614 C615 1.355 . S
C614 C616 1.446 . S
C615 C614 1.355 . S
C615 C617 1.419 . S
C616 C614 1.446 . S
C616 C621 1.415 1_655 S
C616 C623 1.388 1_655 S
C617 H609 0.930 . S
C617 C615 1.419 . S
C617 C618 1.362 . S
C618 H610 0.930 . S
C618 C617 1.362 . S
C618 C621 1.409 1_655 S
C619 H611 0.930 . S
C619 C620 1.355 . S
C619 C621 1.415 . S
C620 C619 1.355 . S
C620 C622 1.419 . S
C621 C616 1.415 1_455 S
C621 C618 1.409 1_455 S
C621 C619 1.415 . S
C622 H612 0.930 . S
C622 C620 1.419 . S
C622 C623 1.362 . S
C623 H613 0.930 . S
C623 C616 1.388 1_455 S
C623 C622 1.362 . S
H624 C630 0.930 . S
H625 C633 0.930 . S
H626 C634 0.930 . S
H627 C635 0.930 . S
H628 C638 0.930 . S
H629 C639 0.930 . S
C630 H624 0.930 . S
C630 C631 1.355 . S
C630 C632 1.453 . S
C631 C630 1.355 . S
C631 C633 1.419 . S
C632 C630 1.453 . S
C632 C637 1.413 1_455 S
C632 C639 1.384 1_455 S
C633 H625 0.930 . S
C633 C631 1.419 . S
C633 C634 1.362 . S
C634 H626 0.930 . S
C634 C633 1.362 . S
C634 C637 1.409 1_455 S
C635 H627 0.930 . S
C635 C636 1.355 . S
C635 C637 1.415 . S
C636 C635 1.355 . S
C636 C638 1.419 . S
C637 C632 1.413 1_655 S
C637 C634 1.409 1_655 S
C637 C635 1.415 . S
C638 H628 0.930 . S
C638 C636 1.419 . S
C638 C639 1.362 . S
C639 H629 0.930 . S
C639 C632 1.384 1_655 S
C639 C638 1.362 . S
H640 C646 0.930 . S
H641 C649 0.930 . S
H642 C650 0.930 . S
H643 C651 0.930 . S
H644 C654 0.930 . S
H645 C655 0.930 . S
C646 H640 0.930 . S
C646 C647 1.355 . S
C646 C648 1.415 . S
C647 C646 1.355 . S
C647 C649 1.419 . S
C648 C646 1.415 . S
C648 C653 1.425 . S
C648 C655 1.409 . S
C649 H641 0.930 . S
C649 C647 1.419 . S
C649 C650 1.362 . S
C650 H642 0.930 . S
C650 C649 1.362 . S
C650 C653 1.409 . S
C651 H643 0.930 . S
C651 C652 1.355 . S
C651 C653 1.415 . S
C652 C651 1.355 . S
C652 C654 1.419 . S
C653 C648 1.425 . S
C653 C650 1.409 . S
C653 C651 1.415 . S
C654 H644 0.930 . S
C654 C652 1.419 . S
C654 C655 1.362 . S
C655 H645 0.930 . S
C655 C648 1.409 . S
C655 C654 1.362 . S
H656 C662 0.930 . S
H657 C665 0.930 . S
H658 C666 0.930 . S
H659 C667 0.930 . S
H660 C670 0.930 . S
H661 C671 0.930 . S
C662 H656 0.930 . S
C662 C663 1.355 . S
C662 C664 1.415 . S
C663 C662 1.355 . S
C663 C665 1.419 . S
C664 C662 1.415 . S
C664 C669 1.425 . S
C664 C671 1.409 . S
C665 H657 0.930 . S
C665 C663 1.419 . S
C665 C666 1.362 . S
C666 H658 0.930 . S
C666 C665 1.362 . S
C666 C669 1.409 . S
C667 H659 0.930 . S
C667 C668 1.355 . S
C667 C669 1.415 . S
C668 C667 1.355 . S
C668 C670 1.419 . S
C669 C664 1.425 . S
C669 C666 1.409 . S
C669 C667 1.415 . S
C670 H660 0.930 . S
C670 C668 1.419 . S
C670 C671 1.362 . S
C671 H661 0.930 . S
C671 C664 1.409 . S
C671 C670 1.362 . S
H672 C678 0.930 . S
H673 C681 0.930 . S
H674 C682 0.930 . S
H675 C683 0.930 . S
H676 C686 0.930 . S
H677 C687 0.930 . S
C678 H672 0.930 . S
C678 C679 1.355 . S
C678 C680 1.415 . S
C679 C678 1.355 . S
C679 C681 1.419 . S
C680 C678 1.415 . S
C680 C685 1.425 . S
C680 C687 1.409 . S
C681 H673 0.930 . S
C681 C679 1.419 . S
C681 C682 1.362 . S
C682 H674 0.930 . S
C682 C681 1.362 . S
C682 C685 1.409 . S
C683 H675 0.930 . S
C683 C684 1.355 . S
C683 C685 1.415 . S
C684 C683 1.355 . S
C684 C686 1.419 . S
C685 C680 1.425 . S
C685 C682 1.409 . S
C685 C683 1.415 . S
C686 H676 0.930 . S
C686 C684 1.419 . S
C686 C687 1.362 . S
C687 H677 0.930 . S
C687 C680 1.409 . S
C687 C686 1.362 . S
H688 C694 0.930 . S
H689 C697 0.930 . S
H690 C698 0.930 . S
H691 C699 0.930 . S
H692 C702 0.930 . S
H693 C703 0.930 . S
C694 H688 0.930 . S
C694 C695 1.355 . S
C694 C696 1.415 . S
C695 C694 1.355 . S
C695 C697 1.419 . S
C696 C694 1.415 . S
C696 C701 1.425 . S
C696 C703 1.409 . S
C697 H689 0.930 . S
C697 C695 1.419 . S
C697 C698 1.362 . S
C698 H690 0.930 . S
C698 C697 1.362 . S
C698 C701 1.409 . S
C699 H691 0.930 . S
C699 C700 1.355 . S
C699 C701 1.415 . S
C700 C699 1.355 . S
C700 C702 1.419 . S
C701 C696 1.425 . S
C701 C698 1.409 . S
C701 C699 1.415 . S
C702 H692 0.930 . S
C702 C700 1.419 . S
C702 C703 1.362 . S
C703 H693 0.930 . S
C703 C696 1.409 . S
C703 C702 1.362 . S
H704 C710 0.930 . S
H705 C713 0.930 . S
H706 C714 0.930 . S
H707 C715 0.930 . S
H708 C718 0.930 . S
H709 C719 0.930 . S
C710 H704 0.930 . S
C710 C711 1.355 . S
C710 C712 1.415 . S
C711 C710 1.355 . S
C711 C713 1.419 . S
C712 C710 1.415 . S
C712 C717 1.425 . S
C712 C719 1.409 . S
C713 H705 0.930 . S
C713 C711 1.419 . S
C713 C714 1.362 . S
C714 H706 0.930 . S
C714 C713 1.362 . S
C714 C717 1.409 . S
C715 H707 0.930 . S
C715 C716 1.355 . S
C715 C717 1.415 . S
C716 C715 1.355 . S
C716 C718 1.419 . S
C717 C712 1.425 . S
C717 C714 1.409 . S
C717 C715 1.415 . S
C718 H708 0.930 . S
C718 C716 1.419 . S
C718 C719 1.362 . S
C719 H709 0.930 . S
C719 C712 1.409 . S
C719 C718 1.362 . S
H720 C726 0.930 . S
H721 C729 0.930 . S
H722 C730 0.930 . S
H723 C731 0.930 . S
H724 C734 0.930 . S
H725 C735 0.930 . S
C726 H720 0.930 . S
C726 C727 1.355 . S
C726 C728 1.415 . S
C727 C726 1.355 . S
C727 C729 1.419 . S
C728 C726 1.415 . S
C728 C733 1.425 . S
C728 C735 1.409 . S
C729 H721 0.930 . S
C729 C727 1.419 . S
C729 C730 1.362 . S
C730 H722 0.930 . S
C730 C729 1.362 . S
C730 C733 1.409 . S
C731 H723 0.930 . S
C731 C732 1.355 . S
C731 C733 1.415 . S
C732 C731 1.355 . S
C732 C734 1.419 . S
C733 C728 1.425 . S
C733 C730 1.409 . S
C733 C731 1.415 . S
C734 H724 0.930 . S
C734 C732 1.419 . S
C734 C735 1.362 . S
C735 H725 0.930 . S
C735 C728 1.409 . S
C735 C734 1.362 . S
H736 C742 0.930 . S
H737 C745 0.930 . S
H738 C746 0.930 . S
H739 C747 0.930 . S
H740 C750 0.930 . S
H741 C751 0.930 . S
C742 H736 0.930 . S
C742 C743 1.355 . S
C742 C744 1.415 . S
C743 C742 1.355 . S
C743 C745 1.419 . S
C744 C742 1.415 . S
C744 C749 1.425 . S
C744 C751 1.409 . S
C745 H737 0.930 . S
C745 C743 1.419 . S
C745 C746 1.362 . S
C746 H738 0.930 . S
C746 C745 1.362 . S
C746 C749 1.409 . S
C747 H739 0.930 . S
C747 C748 1.355 . S
C747 C749 1.415 . S
C748 C747 1.355 . S
C748 C750 1.419 . S
C749 C744 1.425 . S
C749 C746 1.409 . S
C749 C747 1.415 . S
C750 H740 0.930 . S
C750 C748 1.419 . S
C750 C751 1.362 . S
C751 H741 0.930 . S
C751 C744 1.409 . S
C751 C750 1.362 . S
H752 C758 0.930 . S
H753 C761 0.930 . S
H754 C762 0.930 . S
H755 C763 0.930 . S
H756 C766 0.930 . S
H757 C767 0.930 . S
C758 H752 0.930 . S
C758 C759 1.355 . S
C758 C760 1.415 . S
C759 C758 1.355 . S
C759 C761 1.419 . S
C760 C758 1.415 . S
C760 C765 1.425 . S
C760 C767 1.409 . S
C761 H753 0.930 . S
C761 C759 1.419 . S
C761 C762 1.362 . S
C762 H754 0.930 . S
C762 C761 1.362 . S
C762 C765 1.409 . S
C763 H755 0.930 . S
C763 C764 1.355 . S
C763 C765 1.415 . S
C764 C763 1.355 . S
C764 C766 1.419 . S
C765 C760 1.425 . S
C765 C762 1.409 . S
C765 C763 1.415 . S
C766 H756 0.930 . S
C766 C764 1.419 . S
C766 C767 1.362 . S
C767 H757 0.930 . S
C767 C760 1.409 . S
C767 C766 1.362 . S
H768 C774 0.930 . S
H769 C777 0.930 . S
H770 C778 0.930 . S
H771 C779 0.930 . S
H772 C782 0.930 . S
H773 C783 0.930 . S
C774 H768 0.930 . S
C774 C775 1.355 . S
C774 C776 1.415 . S
C775 C774 1.355 . S
C775 C777 1.419 . S
C776 C774 1.415 . S
C776 C781 1.425 . S
C776 C783 1.409 . S
C777 H769 0.930 . S
C777 C775 1.419 . S
C777 C778 1.362 . S
C778 H770 0.930 . S
C778 C777 1.362 . S
C778 C781 1.409 . S
C779 H771 0.930 . S
C779 C780 1.355 . S
C779 C781 1.415 . S
C780 C779 1.355 . S
C780 C782 1.419 . S
C781 C776 1.425 . S
C781 C778 1.409 . S
C781 C779 1.415 . S
C782 H772 0.930 . S
C782 C780 1.419 . S
C782 C783 1.362 . S
C783 H773 0.930 . S
C783 C776 1.409 . S
C783 C782 1.362 . S
H784 C790 0.930 . S
H785 C793 0.930 . S
H786 C794 0.930 . S
H787 C795 0.930 . S
H788 C798 0.930 . S
H789 C799 0.930 . S
C790 H784 0.930 . S
C790 C791 1.355 . S
C790 C792 1.415 . S
C791 C790 1.355 . S
C791 C793 1.419 . S
C792 C790 1.415 . S
C792 C797 1.425 . S
C792 C799 1.409 . S
C793 H785 0.930 . S
C793 C791 1.419 . S
C793 C794 1.362 . S
C794 H786 0.930 . S
C794 C793 1.362 . S
C794 C797 1.409 . S
C795 H787 0.930 . S
C795 C796 1.355 . S
C795 C797 1.415 . S
C796 C795 1.355 . S
C796 C798 1.419 . S
C797 C792 1.425 . S
C797 C794 1.409 . S
C797 C795 1.415 . S
C798 H788 0.930 . S
C798 C796 1.419 . S
C798 C799 1.362 . S
C799 H789 0.930 . S
C799 C792 1.409 . S
C799 C798 1.362 . S
H800 C806 0.930 . S
H801 C809 0.930 . S
H802 C810 0.930 . S
H803 C811 0.930 . S
H804 C814 0.930 . S
H805 C815 0.930 . S
C806 H800 0.930 . S
C806 C807 1.355 . S
C806 C808 1.415 . S
C807 C806 1.355 . S
C807 C809 1.419 . S
C808 C806 1.415 . S
C808 C813 1.425 . S
C808 C815 1.409 . S
C809 H801 0.930 . S
C809 C807 1.419 . S
C809 C810 1.362 . S
C810 H802 0.930 . S
C810 C809 1.362 . S
C810 C813 1.409 . S
C811 H803 0.930 . S
C811 C812 1.355 . S
C811 C813 1.415 . S
C812 C811 1.355 . S
C812 C814 1.419 . S
C813 C808 1.425 . S
C813 C810 1.409 . S
C813 C811 1.415 . S
C814 H804 0.930 . S
C814 C812 1.419 . S
C814 C815 1.362 . S
C815 H805 0.930 . S
C815 C808 1.409 . S
C815 C814 1.362 . S
H816 C822 0.930 . S
H817 C825 0.930 . S
H818 C826 0.930 . S
H819 C827 0.930 . S
H820 C830 0.930 . S
H821 C831 0.930 . S
C822 H816 0.930 . S
C822 C823 1.355 . S
C822 C824 1.415 . S
C823 C822 1.355 . S
C823 C825 1.419 . S
C824 C822 1.415 . S
C824 C829 1.425 . S
C824 C831 1.409 . S
C825 H817 0.930 . S
C825 C823 1.419 . S
C825 C826 1.362 . S
C826 H818 0.930 . S
C826 C825 1.362 . S
C826 C829 1.409 . S
C827 H819 0.930 . S
C827 C828 1.355 . S
C827 C829 1.415 . S
C828 C827 1.355 . S
C828 C830 1.419 . S
C829 C824 1.425 . S
C829 C826 1.409 . S
C829 C827 1.415 . S
C830 H820 0.930 . S
C830 C828 1.419 . S
C830 C831 1.362 . S
C831 H821 0.930 . S
C831 C824 1.409 . S
C831 C830 1.362 . S
H832 C838 0.930 . S
H833 C841 0.930 . S
H834 C842 0.930 . S
H835 C843 0.930 . S
H836 C846 0.930 . S
H837 C847 0.930 . S
C838 H832 0.930 . S
C838 C839 1.355 . S
C838 C840 1.415 . S
C839 C838 1.355 . S
C839 C841 1.419 . S
C840 C838 1.415 . S
C840 C845 1.425 1_556 S
C840 C847 1.409 . S
C841 H833 0.930 . S
C841 C839 1.419 . S
C841 C842 1.362 1_556 S
C842 H834 0.930 . S
C842 C841 1.362 1_554 S
C842 C845 1.409 . S
C843 H835 0.930 . S
C843 C844 1.355 . S
C843 C845 1.415 . S
C844 C843 1.355 . S
C844 C846 1.419 . S
C845 C840 1.425 1_554 S
C845 C842 1.409 . S
C845 C843 1.415 . S
C846 H836 0.930 . S
C846 C844 1.419 . S
C846 C847 1.362 1_554 S
C847 H837 0.930 . S
C847 C840 1.409 . S
C847 C846 1.362 1_556 S
H848 C854 0.930 . S
H849 C857 0.930 . S
H850 C858 0.930 . S
H851 C859 0.930 . S
H852 C862 0.930 . S
H853 C863 0.930 . S
C854 H848 0.930 . S
C854 C855 1.355 . S
C854 C856 1.415 . S
C855 C854 1.355 . S
C855 C857 1.419 . S
C856 C854 1.415 . S
C856 C861 1.425 . S
C856 C863 1.409 . S
C857 H849 0.930 . S
C857 C855 1.419 . S
C857 C858 1.362 . S
C858 H850 0.930 . S
C858 C857 1.362 . S
C858 C861 1.409 . S
C859 H851 0.930 . S
C859 C860 1.355 . S
C859 C861 1.415 . S
C860 C859 1.355 . S
C860 C862 1.419 . S
C861 C856 1.425 . S
C861 C858 1.409 . S
C861 C859 1.415 . S
C862 H852 0.930 . S
C862 C860 1.419 . S
C862 C863 1.362 . S
C863 H853 0.930 . S
C863 C856 1.409 . S
C863 C862 1.362 . S
H864 C870 0.930 1_556 S
H865 C873 0.930 . S
H866 C874 0.930 . S
H867 C875 0.930 1_554 S
H868 C878 0.930 . S
H869 C879 0.930 . S
C870 H864 0.930 1_554 S
C870 C871 1.355 . S
C870 C872 1.415 1_554 S
C871 C870 1.355 . S
C871 C873 1.419 . S
C872 C870 1.415 1_556 S
C872 C877 1.425 1_556 S
C872 C879 1.409 . S
C873 H865 0.930 . S
C873 C871 1.419 . S
C873 C874 1.362 . S
C874 H866 0.930 . S
C874 C873 1.362 . S
C874 C877 1.409 . S
C875 H867 0.930 1_556 S
C875 C876 1.355 . S
C875 C877 1.415 1_556 S
C876 C875 1.355 . S
C876 C878 1.419 . S
C877 C872 1.425 1_554 S
C877 C874 1.409 . S
C877 C875 1.415 1_554 S
C878 H868 0.930 . S
C878 C876 1.419 . S
C878 C879 1.362 . S
C879 H869 0.930 . S
C879 C872 1.409 . S
C879 C878 1.362 . S
H880 C886 0.930 . S
H881 C889 0.930 . S
H882 C890 0.930 . S
H883 C891 0.930 . S
H884 C894 0.930 . S
H885 C895 0.930 . S
C886 H880 0.930 . S
C886 C887 1.355 . S
C886 C888 1.415 . S
C887 C886 1.355 . S
C887 C889 1.419 . S
C888 C886 1.415 . S
C888 C893 1.425 . S
C888 C895 1.409 . S
C889 H881 0.930 . S
C889 C887 1.419 . S
C889 C890 1.362 . S
C890 H882 0.930 . S
C890 C889 1.362 . S
C890 C893 1.409 . S
C891 H883 0.930 . S
C891 C892 1.355 . S
C891 C893 1.415 . S
C892 C891 1.355 . S
C892 C894 1.419 . S
C893 C888 1.425 . S
C893 C890 1.409 . S
C893 C891 1.415 . S
C894 H884 0.930 . S
C894 C892 1.419 . S
C894 C895 1.362 . S
C895 H885 0.930 . S
C895 C888 1.409 . S
C895 C894 1.362 . S
H896 C902 0.930 . S
H897 C905 0.930 . S
H898 C906 0.930 . S
H899 C907 0.930 . S
H900 C910 0.930 . S
H901 C911 0.930 . S
C902 H896 0.930 . S
C902 C903 1.355 . S
C902 C904 1.415 . S
C903 C902 1.355 . S
C903 C905 1.419 . S
C904 C902 1.415 . S
C904 C909 1.425 1_554 S
C904 C911 1.409 1_554 S
C905 H897 0.930 . S
C905 C903 1.419 . S
C905 C906 1.362 . S
C906 H898 0.930 . S
C906 C905 1.362 . S
C906 C909 1.409 1_554 S
C907 H899 0.930 . S
C907 C908 1.355 . S
C907 C909 1.415 . S
C908 C907 1.355 . S
C908 C910 1.419 . S
C909 C904 1.425 1_556 S
C909 C906 1.409 1_556 S
C909 C907 1.415 . S
C910 H900 0.930 . S
C910 C908 1.419 . S
C910 C911 1.362 . S
C911 H901 0.930 . S
C911 C904 1.409 1_556 S
C911 C910 1.362 . S
H912 C918 0.930 . S
H913 C921 0.930 . S
H914 C922 0.930 . S
H915 C923 0.930 . S
H916 C926 0.930 . S
H917 C927 0.930 . S
C918 H912 0.930 . S
C918 C919 1.355 . S
C918 C920 1.415 . S
C919 C918 1.355 . S
C919 C921 1.419 . S
C920 C918 1.415 . S
C920 C925 1.425 . S
C920 C927 1.409 . S
C921 H913 0.930 . S
C921 C919 1.419 . S
C921 C922 1.362 . S
C922 H914 0.930 . S
C922 C921 1.362 . S
C922 C925 1.409 . S
C923 H915 0.930 . S
C923 C924 1.355 . S
C923 C925 1.415 . S
C924 C923 1.355 . S
C924 C926 1.419 . S
C925 C920 1.425 . S
C925 C922 1.409 . S
C925 C923 1.415 . S
C926 H916 0.930 . S
C926 C924 1.419 . S
C926 C927 1.362 . S
C927 H917 0.930 . S
C927 C920 1.409 . S
C927 C926 1.362 . S
H928 C934 0.919 1_556 S
H929 C937 0.930 . S
H930 C938 0.930 . S
H931 C939 0.930 1_554 S
H932 C942 0.930 . S
H933 C943 0.930 . S
C934 H928 0.919 1_554 S
C934 C935 1.370 . S
C934 C936 1.409 1_554 S
C935 C934 1.370 . S
C935 C937 1.419 . S
C936 C934 1.409 1_556 S
C936 C941 1.425 1_556 S
C936 C943 1.409 . S
C937 H929 0.930 . S
C937 C935 1.419 . S
C937 C938 1.362 . S
C938 H930 0.930 . S
C938 C937 1.362 . S
C938 C941 1.409 . S
C939 H931 0.930 1_556 S
C939 C940 1.355 . S
C939 C941 1.415 1_556 S
C940 C939 1.355 . S
C940 C942 1.419 . S
C941 C936 1.425 1_554 S
C941 C938 1.409 . S
C941 C939 1.415 1_554 S
C942 H932 0.930 . S
C942 C940 1.419 . S
C942 C943 1.362 . S
C943 H933 0.930 . S
C943 C936 1.409 . S
C943 C942 1.362 . S
H944 C950 0.930 . S
H945 C953 0.930 . S
H946 C954 0.930 . S
H947 C955 0.930 . S
H948 C958 0.930 . S
H949 C959 0.930 . S
C950 H944 0.930 . S
C950 C951 1.355 . S
C950 C952 1.415 . S
C951 C950 1.355 . S
C951 C953 1.419 . S
C952 C950 1.415 . S
C952 C957 1.425 . S
C952 C959 1.409 . S
C953 H945 0.930 . S
C953 C951 1.419 . S
C953 C954 1.362 . S
C954 H946 0.930 . S
C954 C953 1.362 . S
C954 C957 1.409 . S
C955 H947 0.930 . S
C955 C956 1.355 . S
C955 C957 1.415 . S
C956 C955 1.355 . S
C956 C958 1.419 . S
C957 C952 1.425 . S
C957 C954 1.409 . S
C957 C955 1.415 . S
C958 H948 0.930 . S
C958 C956 1.419 . S
C958 C959 1.362 . S
C959 H949 0.930 . S
C959 C952 1.409 . S
C959 C958 1.362 . S
H960 C966 0.930 . S
H961 C969 0.930 . S
H962 C970 0.930 . S
H963 C971 0.930 . S
H964 C974 0.930 . S
H965 C975 0.930 . S
C966 H960 0.930 . S
C966 C967 1.355 . S
C966 C968 1.415 1_556 S
C967 C966 1.355 . S
C967 C969 1.419 . S
C968 C966 1.415 1_554 S
C968 C973 1.425 1_554 S
C968 C975 1.409 . S
C969 H961 0.930 . S
C969 C967 1.419 . S
C969 C970 1.362 . S
C970 H962 0.930 . S
C970 C969 1.362 . S
C970 C973 1.409 . S
C971 H963 0.930 . S
C971 C972 1.355 . S
C971 C973 1.415 1_554 S
C972 C971 1.355 . S
C972 C974 1.419 . S
C973 C968 1.425 1_556 S
C973 C970 1.409 . S
C973 C971 1.415 1_556 S
C974 H964 0.930 . S
C974 C972 1.419 . S
C974 C975 1.362 . S
C975 H965 0.930 . S
C975 C968 1.409 . S
C975 C974 1.362 . S
H976 C982 0.930 . S
H977 C985 0.930 . S
H978 C986 0.930 . S
H979 C987 0.930 . S
H980 C990 0.930 . S
H981 C991 0.930 . S
C982 H976 0.930 . S
C982 C983 1.355 . S
C982 C984 1.415 . S
C983 C982 1.355 . S
C983 C985 1.419 . S
C984 C982 1.415 . S
C984 C989 1.425 . S
C984 C991 1.409 . S
C985 H977 0.930 . S
C985 C983 1.419 . S
C985 C986 1.362 . S
C986 H978 0.930 . S
C986 C985 1.362 . S
C986 C989 1.409 . S
C987 H979 0.930 . S
C987 C988 1.355 . S
C987 C989 1.415 . S
C988 C987 1.355 . S
C988 C990 1.419 . S
C989 C984 1.425 . S
C989 C986 1.409 . S
C989 C987 1.415 . S
C990 H980 0.930 . S
C990 C988 1.419 . S
C990 C991 1.362 . S
C991 H981 0.930 . S
C991 C984 1.409 . S
C991 C990 1.362 . S
H992 C998 0.930 . S
H993 C1001 0.930 . S
H994 C1002 0.930 . S
H995 C1003 0.930 . S
H996 C1006 0.930 . S
H997 C1007 0.930 . S
C998 H992 0.930 . S
C998 C999 1.355 . S
C998 C1000 1.415 . S
C999 C998 1.355 . S
C999 C1001 1.419 1_554 S
C1000 C998 1.415 . S
C1000 C1005 1.425 1_554 S
C1000 C1007 1.409 . S
C1001 H993 0.930 . S
C1001 C999 1.419 1_556 S
C1001 C1002 1.362 . S
C1002 H994 0.930 . S
C1002 C1001 1.362 . S
C1002 C1005 1.409 . S
C1003 H995 0.930 . S
C1003 C1004 1.355 . S
C1003 C1005 1.415 . S
C1004 C1003 1.355 . S
C1004 C1006 1.419 1_556 S
C1005 C1000 1.425 1_556 S
C1005 C1002 1.409 . S
C1005 C1003 1.415 . S
C1006 H996 0.930 . S
C1006 C1004 1.419 1_554 S
C1006 C1007 1.362 . S
C1007 H997 0.930 . S
C1007 C1000 1.409 . S
C1007 C1006 1.362 . S
H1008 C1014 0.930 . S
H1009 C1017 0.930 . S
H1010 C1018 0.930 . S
H1011 C1019 0.930 . S
H1012 C1022 0.930 . S
H1013 C1023 0.930 . S
C1014 H1008 0.930 . S
C1014 C1015 1.355 . S
C1014 C1016 1.415 . S
C1015 C1014 1.355 . S
C1015 C1017 1.419 . S
C1016 C1014 1.415 . S
C1016 C1021 1.425 . S
C1016 C1023 1.409 . S
C1017 H1009 0.930 . S
C1017 C1015 1.419 . S
C1017 C1018 1.362 . S
C1018 H1010 0.930 . S
C1018 C1017 1.362 . S
C1018 C1021 1.409 . S
C1019 H1011 0.930 . S
C1019 C1020 1.355 . S
C1019 C1021 1.415 . S
C1020 C1019 1.355 . S
C1020 C1022 1.419 . S
C1021 C1016 1.425 . S
C1021 C1018 1.409 . S
C1021 C1019 1.415 . S
C1022 H1012 0.930 . S
C1022 C1020 1.419 . S
C1022 C1023 1.362 . S
C1023 H1013 0.930 . S
C1023 C1016 1.409 . S
C1023 C1022 1.362 . S
H1024 C1030 0.930 1_554 S
H1025 C1033 0.930 . S
H1026 C1034 0.930 1_565 S
H1027 C1035 0.930 1_556 S
H1028 C1038 0.930 . S
H1029 C1039 0.930 1_545 S
C1030 H1024 0.930 1_556 S
C1030 C1031 1.355 . S
C1030 C1032 1.415 1_556 S
C1031 C1030 1.355 . S
C1031 C1033 1.419 . S
C1032 C1030 1.415 1_554 S
C1032 C1037 1.425 1_544 S
C1032 C1039 1.409 1_545 S
C1033 H1025 0.930 . S
C1033 C1031 1.419 . S
C1033 C1034 1.362 . S
C1034 H1026 0.930 1_545 S
C1034 C1033 1.362 . S
C1034 C1037 1.409 1_545 S
C1035 H1027 0.930 1_554 S
C1035 C1036 1.355 . S
C1035 C1037 1.415 1_554 S
C1036 C1035 1.355 . S
C1036 C1038 1.419 . S
C1037 C1032 1.425 1_566 S
C1037 C1034 1.409 1_565 S
C1037 C1035 1.415 1_556 S
C1038 H1028 0.930 . S
C1038 C1036 1.419 . S
C1038 C1039 1.362 . S
C1039 H1029 0.930 1_565 S
C1039 C1032 1.409 1_565 S
C1039 C1038 1.362 . S
H1040 C1046 0.930 . S
H1041 C1049 0.930 . S
H1042 C1050 0.930 1_545 S
H1043 C1051 0.930 . S
H1044 C1054 0.930 . S
H1045 C1055 0.930 1_565 S
C1046 H1040 0.930 . S
C1046 C1047 1.355 . S
C1046 C1048 1.415 . S
C1047 C1046 1.355 . S
C1047 C1049 1.419 . S
C1048 C1046 1.415 . S
C1048 C1053 1.425 1_565 S
C1048 C1055 1.409 1_565 S
C1049 H1041 0.930 . S
C1049 C1047 1.419 . S
C1049 C1050 1.362 . S
C1050 H1042 0.930 1_565 S
C1050 C1049 1.362 . S
C1050 C1053 1.409 1_565 S
C1051 H1043 0.930 . S
C1051 C1052 1.355 . S
C1051 C1053 1.415 . S
C1052 C1051 1.355 . S
C1052 C1054 1.419 . S
C1053 C1048 1.425 1_545 S
C1053 C1050 1.409 1_545 S
C1053 C1051 1.415 . S
C1054 H1044 0.930 . S
C1054 C1052 1.419 . S
C1054 C1055 1.362 . S
C1055 H1045 0.930 1_545 S
C1055 C1048 1.409 1_545 S
C1055 C1054 1.362 . S
H1056 C1062 0.930 . S
H1057 C1065 0.930 . S
H1058 C1066 0.930 . S
H1059 C1067 0.930 . S
H1060 C1070 0.930 . S
H1061 C1071 0.930 . S
C1062 H1056 0.930 . S
C1062 C1063 1.355 . S
C1062 C1064 1.415 . S
C1063 C1062 1.355 . S
C1063 C1065 1.419 1_554 S
C1064 C1062 1.415 . S
C1064 C1069 1.425 1_564 S
C1064 C1071 1.409 1_565 S
C1065 H1057 0.930 . S
C1065 C1063 1.419 1_556 S
C1065 C1066 1.362 . S
C1066 H1058 0.930 . S
C1066 C1065 1.362 . S
C1066 C1069 1.409 1_565 S
C1067 H1059 0.930 . S
C1067 C1068 1.355 . S
C1067 C1069 1.415 . S
C1068 C1067 1.355 . S
C1068 C1070 1.419 1_556 S
C1069 C1064 1.425 1_546 S
C1069 C1066 1.409 1_545 S
C1069 C1067 1.415 . S
C1070 H1060 0.930 . S
C1070 C1068 1.419 1_554 S
C1070 C1071 1.362 . S
C1071 H1061 0.930 . S
C1071 C1064 1.409 1_545 S
C1071 C1070 1.362 . S
H1072 C1078 0.930 . S
H1073 C1081 0.930 . S
H1074 C1082 0.914 1_565 S
H1075 C1083 0.930 . S
H1076 C1086 0.930 . S
H1077 C1087 0.914 1_545 S
C1078 H1072 0.930 . S
C1078 C1079 1.355 . S
C1078 C1080 1.415 . S
C1079 C1078 1.355 . S
C1079 C1081 1.419 . S
C1080 C1078 1.415 . S
C1080 C1085 1.425 1_545 S
C1080 C1087 1.400 1_545 S
C1081 H1073 0.930 . S
C1081 C1079 1.419 . S
C1081 C1082 1.387 . S
C1082 H1074 0.914 1_545 S
C1082 C1081 1.387 . S
C1082 C1085 1.400 1_545 S
C1083 H1075 0.930 . S
C1083 C1084 1.355 . S
C1083 C1085 1.415 . S
C1084 C1083 1.355 . S
C1084 C1086 1.419 . S
C1085 C1080 1.425 1_565 S
C1085 C1082 1.400 1_565 S
C1085 C1083 1.415 . S
C1086 H1076 0.930 . S
C1086 C1084 1.419 . S
C1086 C1087 1.387 . S
C1087 H1077 0.914 1_565 S
C1087 C1080 1.400 1_565 S
C1087 C1086 1.387 . S
C583 C3 1.435 . S
C588 C220 1.448 . S
C599 C39 1.442 . S
C604 C256 1.408 . S
C615 C148 1.408 . S
C620 C75 1.443 . S
C631 C184 1.449 . S
C636 C111 1.436 . S
C647 C508 1.418 . S
C652 C291 1.437 . S
C663 C544 1.412 . S
C668 C327 1.440 . S
C679 C363 1.443 . S
C684 C436 1.406 . S
C695 C399 1.436 . S
C700 C472 1.449 . S
C711 C2 1.458 . S
C716 C182 1.439 . S
C727 C38 1.435 . S
C732 C146 1.463 . S
C743 C74 1.452 . S
C748 C254 1.448 . S
C759 C218 1.466 . S
C764 C110 1.430 . S
C775 C470 1.437 . S
C780 C290 1.463 . S
C791 C434 1.434 . S
C796 C326 1.464 . S
C807 C362 1.435 . S
C812 C542 1.463 . S
C823 C506 1.456 . S
C828 C398 1.443 . S
C839 C435 1.332 . S
C844 C4 1.342 . S
C855 C40 1.339 . S
C860 C471 1.356 . S
C871 C507 1.352 . S
C876 C76 1.336 . S
C887 C543 1.358 . S
C892 C112 1.362 . S
C903 C292 1.335 . S
C908 C147 1.349 . S
C919 C328 1.359 . S
C924 C183 1.339 . S
C935 C219 1.361 . S
C940 C364 1.344 . S
C951 C255 1.344 . S
C956 C400 1.362 . S
C967 C86 1.398 . S
C972 C14 1.448 . S
C983 C50 1.441 . S
C988 C122 1.395 . S
C999 C230 1.448 . S
C1004 C158 1.398 . S
C1015 C194 1.373 . S
C1020 C266 1.438 . S
C1031 C374 1.423 . S
C1036 C302 1.400 . S
C1047 C410 1.427 . S
C1052 C338 1.398 . S
C1063 C518 1.445 . S
C1068 C446 1.385 . S
C1079 C554 1.375 . S
C1084 C482 1.371 . S
