# Generated by pormake.
# Topology umf, (4)-cn, num edge types: 1
# Building blocks:
#     Node 0, Type 0, BuildingBlock: ICAMEG_clean_sbu_1, # of connection points: 4
#     Node 1, Type 0, BuildingBlock: ICAMEG_clean_sbu_1, # of connection points: 4
#     Node 2, Type 0, BuildingBlock: ICAMEG_clean_sbu_1, # of connection points: 4
#     Node 3, Type 0, BuildingBlock: ICAMEG_clean_sbu_1, # of connection points: 4
#     Node 4, Type 0, BuildingBlock: ICAMEG_clean_sbu_1, # of connection points: 4
#     Node 5, Type 0, BuildingBlock: ICAMEG_clean_sbu_1, # of connection points: 4
#     Node 6, Type 0, BuildingBlock: ICAMEG_clean_sbu_1, # of connection points: 4
#     Node 7, Type 0, BuildingBlock: ICAMEG_clean_sbu_1, # of connection points: 4
#     Edge 8, Type (0, 0), BuildingBlock: ZUJKAS_clean_linker_0, # of connection points: 2
#     Edge 9, Type (0, 0), BuildingBlock: ZUJKAS_clean_linker_0, # of connection points: 2
#     Edge 10, Type (0, 0), BuildingBlock: ZUJKAS_clean_linker_0, # of connection points: 2
#     Edge 11, Type (0, 0), BuildingBlock: ZUJKAS_clean_linker_0, # of connection points: 2
#     Edge 12, Type (0, 0), BuildingBlock: ZUJKAS_clean_linker_0, # of connection points: 2
#     Edge 13, Type (0, 0), BuildingBlock: ZUJKAS_clean_linker_0, # of connection points: 2
#     Edge 14, Type (0, 0), BuildingBlock: ZUJKAS_clean_linker_0, # of connection points: 2
#     Edge 15, Type (0, 0), BuildingBlock: ZUJKAS_clean_linker_0, # of connection points: 2
#     Edge 16, Type (0, 0), BuildingBlock: ZUJKAS_clean_linker_0, # of connection points: 2
#     Edge 17, Type (0, 0), BuildingBlock: ZUJKAS_clean_linker_0, # of connection points: 2
#     Edge 18, Type (0, 0), BuildingBlock: ZUJKAS_clean_linker_0, # of connection points: 2
#     Edge 19, Type (0, 0), BuildingBlock: ZUJKAS_clean_linker_0, # of connection points: 2
#     Edge 20, Type (0, 0), BuildingBlock: ZUJKAS_clean_linker_0, # of connection points: 2
#     Edge 21, Type (0, 0), BuildingBlock: ZUJKAS_clean_linker_0, # of connection points: 2
#     Edge 22, Type (0, 0), BuildingBlock: ZUJKAS_clean_linker_0, # of connection points: 2
#     Edge 23, Type (0, 0), BuildingBlock: ZUJKAS_clean_linker_0, # of connection points: 2
# Relax obj value: 0.112
# Max RMSD: 0.202
# Mean RMSD: 0.202
data_MOF--net-umf--node1-ICAMEG_clean_sbu_1--edge1-ZUJKAS_clean_linker_0
_symmetry_space_group_name_H-M    P1
_symmetry_Int_Tables_number       1
_symmetry_cell_setting            triclinic
loop_
_symmetry_equiv_pos_as_xyz
'x, y, z'
_cell_length_a     38.317647
_cell_length_b     38.26311
_cell_length_c     73.194595
_cell_angle_alpha  90.013778
_cell_angle_beta   89.994485
_cell_angle_gamma 89.989289
loop_
_atom_site_label
_atom_site_type_symbol
_atom_site_fract_x
_atom_site_fract_y
_atom_site_fract_z
_atom_type_partial_charge
Co0 Co 0.08893 0.23654 0.13107 0.0
Co1 Co 0.01885 0.2442 0.16055 0.0
O2 O 0.04661 0.25952 0.13974 0.0
C3 C 0.04027 0.23518 0.10014 0.0
O4 O 0.01702 0.22478 0.11211 0.0
C5 C 0.03885 0.31626 0.16903 0.0
O6 O 0.07075 0.30729 0.16449 0.0
O7 O 0.0612 0.23932 0.17588 0.0
O8 O 0.1065 0.231 0.15677 0.0
H9 H 0.9891 0.16751 0.21404 0.0
H10 H 0.06814 0.3051 0.11565 0.0
O11 O 0.07152 0.24135 0.10524 0.0
H12 H 0.18401 0.3243 0.14319 0.0
H13 H 0.18988 0.22063 0.08788 0.0
H14 H 0.13065 0.17525 0.14279 0.0
H15 H 0.15672 0.26592 0.14387 0.0
H16 H 0.13675 0.24928 0.09969 0.0
O17 O 0.01432 0.29385 0.16851 0.0
H18 H 0.02378 0.18642 0.18741 0.0
H19 H 0.95468 0.27154 0.17857 0.0
H20 H 0.18387 0.14597 0.13155 0.0
H21 H 0.09454 0.36387 0.11457 0.0
H22 H 0.21384 0.16868 0.1039 0.0
H23 H 0.15284 0.37377 0.12846 0.0
O24 O 0.06661 0.18976 0.13243 0.0
H25 H 0.93979 0.30534 0.11607 0.0
H26 H 0.95752 0.1986 0.15268 0.0
H27 H 0.90576 0.20335 0.1328 0.0
H28 H 0.89665 0.25702 0.11432 0.0
H29 H 0.99134 0.29939 0.13601 0.0
H30 H 0.91939 0.25373 0.20519 0.0
H31 H 0.93648 0.20128 0.22307 0.0
O32 O 0.02313 0.19444 0.15292 0.0
C33 C 0.0934 0.23334 0.1728 0.0
C34 C 0.98131 0.19033 0.20631 0.0
C35 C 0.94221 0.23875 0.20136 0.0
N36 N 0.99104 0.22982 0.18136 0.0
C37 C 0.00078 0.20109 0.19119 0.0
C38 C 0.96231 0.24874 0.18633 0.0
C39 C 0.95181 0.20931 0.21139 0.0
C40 C 0.09368 0.30914 0.12155 0.0
N41 N 0.11096 0.28209 0.12971 0.0
C42 C 0.10843 0.3425 0.12097 0.0
C43 C 0.14112 0.34804 0.12879 0.0
C44 C 0.15861 0.3203 0.13707 0.0
C45 C 0.14302 0.28732 0.13743 0.0
C46 C 0.1771 0.21055 0.09997 0.0
C47 C 0.14371 0.18542 0.13083 0.0
C48 C 0.147 0.22662 0.1067 0.0
N49 N 0.13086 0.21412 0.12201 0.0
C50 C 0.17376 0.16867 0.12449 0.0
C51 C 0.19054 0.1814 0.10896 0.0
C52 C 0.04182 0.17678 0.14185 0.0
C53 C 0.94342 0.28188 0.12411 0.0
C54 C 0.95374 0.22204 0.14468 0.0
C55 C 0.92436 0.2246 0.13347 0.0
C56 C 0.91925 0.25473 0.12311 0.0
N57 N 0.97733 0.24878 0.14558 0.0
C58 C 0.97247 0.27843 0.13549 0.0
Co59 Co 0.7599 0.09523 0.63013 0.0
Co60 Co 0.75164 0.02419 0.65893 0.0
O61 O 0.73736 0.05203 0.63796 0.0
C62 C 0.76435 0.04758 0.59883 0.0
O63 O 0.77535 0.02444 0.61074 0.0
C64 C 0.67823 0.04089 0.66561 0.0
O65 O 0.68623 0.07333 0.66156 0.0
O66 O 0.75301 0.06626 0.67463 0.0
O67 O 0.76367 0.11208 0.6561 0.0
H68 H 0.82354 -0.00363 0.71444 0.0
H69 H 0.69282 0.07365 0.61335 0.0
O70 O 0.75686 0.07851 0.60409 0.0
H71 H 0.66964 0.18824 0.64171 0.0
H72 H 0.776 0.19807 0.58814 0.0
H73 H 0.81961 0.13779 0.64313 0.0
H74 H 0.7284 0.162 0.64313 0.0
H75 H 0.7479 0.1439 0.59903 0.0
O76 O 0.70161 0.01728 0.66543 0.0
H77 H 0.80607 0.0309 0.68749 0.0
H78 H 0.72546 0.95819 0.67565 0.0
H79 H 0.84832 0.19205 0.63283 0.0
H80 H 0.63373 0.09901 0.61152 0.0
H81 H 0.82649 0.22255 0.60514 0.0
H82 H 0.62183 0.15667 0.62582 0.0
O83 O 0.80695 0.07381 0.63207 0.0
H84 H 0.69889 0.94397 0.61211 0.0
H85 H 0.80055 0.96498 0.65195 0.0
H86 H 0.80018 0.91366 0.63155 0.0
H87 H 0.74909 0.9029 0.61144 0.0
H88 H 0.70046 0.99512 0.63261 0.0
H89 H 0.7419 0.92297 0.70254 0.0
H90 H 0.79136 0.94197 0.72211 0.0
O91 O 0.80182 0.03076 0.6528 0.0
C92 C 0.75928 0.09857 0.67192 0.0
C93 C 0.80204 0.98774 0.70598 0.0
C94 C 0.75619 0.94657 0.69932 0.0
N95 N 0.76503 -0.00364 0.67992 0.0
C96 C 0.79211 0.00712 0.69067 0.0
C97 C 0.74697 0.96663 0.68412 0.0
C98 C 0.78394 0.95724 0.71029 0.0
C99 C 0.68792 0.09891 0.61944 0.0
N100 N 0.71406 0.11642 0.62825 0.0
C101 C 0.65438 0.11307 0.61843 0.0
C102 C 0.64771 0.1454 0.62648 0.0
C103 C 0.67452 0.16312 0.63541 0.0
C104 C 0.70772 0.14811 0.63619 0.0
C105 C 0.78568 0.18507 0.60025 0.0
C106 C 0.80981 0.15109 0.63116 0.0
C107 C 0.76992 0.15438 0.60646 0.0
N108 N 0.78189 0.13796 0.62181 0.0
C109 C 0.82624 0.18172 0.62535 0.0
C110 C 0.81401 0.1988 0.6098 0.0
C111 C 0.81982 0.04967 0.64199 0.0
C112 C 0.72125 0.94831 0.62086 0.0
C113 C 0.77821 0.96048 0.64324 0.0
C114 C 0.77814 0.93135 0.63174 0.0
C115 C 0.74945 0.92531 0.62047 0.0
N116 N 0.75046 0.98292 0.64354 0.0
C117 C 0.72221 0.97713 0.63256 0.0
Co118 Co 0.90257 0.75729 0.13048 0.0
Co119 Co 0.97361 0.74675 0.15908 0.0
O120 O 0.94421 0.73251 0.13867 0.0
C121 C 0.94982 0.75639 0.09891 0.0
O122 O 0.97411 0.76575 0.11055 0.0
C123 C 0.95025 0.67602 0.16818 0.0
O124 O 0.91872 0.68656 0.16387 0.0
O125 O 0.93229 0.7541 0.17491 0.0
O126 O 0.8864 0.7637 0.15638 0.0
H127 H 0.00953 0.82268 0.21183 0.0
H128 H 0.91964 0.68782 0.1149 0.0
O129 O 0.91859 0.75162 0.10445 0.0
H130 H 0.80428 0.67386 0.14387 0.0
H131 H 0.80054 0.77746 0.08851 0.0
H132 H 0.86403 0.82034 0.14267 0.0
H133 H 0.83415 0.73097 0.14416 0.0
H134 H 0.85289 0.74658 0.0997 0.0
O135 O 0.97592 0.69706 0.16725 0.0
H136 H 0.9728 0.80516 0.1857 0.0
H137 H 0.03709 0.71648 0.17646 0.0
H138 H 0.81163 0.85185 0.13206 0.0
H139 H 0.89063 0.63028 0.11421 0.0
H140 H 0.77952 0.83041 0.10479 0.0
H141 H 0.83257 0.62302 0.12882 0.0
O142 O 0.92696 0.80307 0.13153 0.0
H143 H 0.04742 0.68092 0.11394 0.0
H144 H 0.03679 0.78901 0.15024 0.0
H145 H 0.08733 0.7813 0.12976 0.0
H146 H 0.09287 0.72694 0.11143 0.0
H147 H -0.00284 0.68981 0.13449 0.0
H148 H 0.07438 0.73287 0.20258 0.0
H149 H 0.06074 0.78641 0.22041 0.0
O150 O 0.97148 0.79652 0.15125 0.0
C151 C 0.9002 0.7613 0.17224 0.0
C152 C 0.01582 0.79937 0.20412 0.0
C153 C 0.05219 0.74894 0.19894 0.0
N154 N 0.00303 0.76005 0.17947 0.0
C155 C 0.99519 0.78939 0.18928 0.0
C156 C 0.03097 0.73976 0.18419 0.0
C157 C 0.04453 0.77899 0.20894 0.0
C158 C 0.89422 0.68494 0.12112 0.0
N159 N 0.87851 0.71275 0.12946 0.0
C160 C 0.87799 0.65227 0.12076 0.0
C161 C 0.84544 0.6482 0.12898 0.0
C162 C 0.82956 0.67671 0.13743 0.0
C163 C 0.84661 0.70897 0.13757 0.0
C164 C 0.81426 0.78701 0.10044 0.0
C165 C 0.85003 0.81073 0.13087 0.0
C166 C 0.84394 0.76967 0.10681 0.0
N167 N 0.86127 0.78149 0.12192 0.0
C168 C 0.82046 0.82874 0.12489 0.0
C169 C 0.80247 0.81671 0.10958 0.0
C170 C 0.95291 0.81496 0.14049 0.0
C171 C 0.04536 0.70467 0.12191 0.0
C172 C 0.03902 0.76528 0.14231 0.0
C173 C 0.06772 0.76104 0.13075 0.0
C174 C 0.07082 0.73053 0.12048 0.0
N175 N 0.01415 0.73979 0.14363 0.0
C176 C 0.01705 0.70977 0.13363 0.0
Co177 Co 0.23466 0.89959 0.62965 0.0
Co178 Co 0.24917 0.97029 0.65808 0.0
O179 O 0.26115 0.94053 0.63741 0.0
C180 C 0.23463 0.94728 0.59831 0.0
O181 O 0.22663 0.9715 0.61028 0.0
C182 C 0.32008 0.94555 0.66566 0.0
O183 O 0.30893 0.91414 0.66146 0.0
O184 O 0.2423 0.92902 0.67399 0.0
O185 O 0.22955 0.88342 0.65568 0.0
H186 H 0.17832 0.00776 0.71242 0.0
H187 H 0.30334 0.91477 0.61275 0.0
O188 O 0.23897 0.91575 0.60354 0.0
H189 H 0.31602 0.79874 0.64131 0.0
H190 H 0.20878 0.79836 0.58791 0.0
H191 H 0.17142 0.86282 0.64289 0.0
H192 H 0.25993 0.83029 0.64275 0.0
H193 H 0.24186 0.84977 0.59863 0.0
O194 O 0.29934 0.97153 0.6652 0.0
H195 H 0.19299 0.97066 0.68593 0.0
H196 H 0.28206 0.03318 0.67482 0.0
H197 H 0.13773 0.81138 0.63277 0.0
H198 H 0.35985 0.88406 0.61091 0.0
H199 H 0.1564 0.77878 0.60509 0.0
H200 H 0.36646 0.82565 0.6253 0.0
O201 O 0.18978 0.92527 0.63159 0.0
H202 H 0.31298 0.04283 0.61163 0.0
H203 H 0.20772 0.03454 0.65017 0.0
H204 H 0.21496 0.08503 0.62956 0.0
H205 H 0.26789 0.08938 0.6101 0.0
H206 H 0.30457 0.99266 0.63232 0.0
H207 H 0.26852 0.07081 0.70127 0.0
H208 H 0.21624 0.05825 0.72023 0.0
O209 O 0.19887 0.96935 0.65133 0.0
C210 C 0.23391 0.89714 0.67146 0.0
C211 C 0.20109 0.01358 0.70422 0.0
C212 C 0.25175 0.04894 0.69798 0.0
N213 N 0.23813 -2e-05 0.67874 0.0
C214 C 0.20946 0.99274 0.68918 0.0
C215 C 0.25931 0.02752 0.68304 0.0
C216 C 0.2224 0.04188 0.70861 0.0
C217 C 0.30593 0.88921 0.61889 0.0
N218 N 0.27833 0.87425 0.62775 0.0
C219 C 0.33802 0.87201 0.61787 0.0
C220 C 0.34173 0.83926 0.62597 0.0
C221 C 0.31344 0.82415 0.63496 0.0
C222 C 0.28177 0.84216 0.63575 0.0
C223 C 0.20045 0.81229 0.60002 0.0
C224 C 0.17983 0.84858 0.63092 0.0
C225 C 0.21904 0.84143 0.60613 0.0
N226 N 0.20876 0.85901 0.62147 0.0
C227 C 0.1606 0.81956 0.62522 0.0
C228 C 0.17106 0.80131 0.60967 0.0
C229 C 0.17924 0.95143 0.64085 0.0
C230 C 0.28986 0.04129 0.62009 0.0
C231 C 0.23083 0.03626 0.64174 0.0
C232 C 0.23481 0.06493 0.63012 0.0
C233 C 0.26452 0.06737 0.61922 0.0
N234 N 0.2558 0.01077 0.64251 0.0
C235 C 0.28504 0.01302 0.63189 0.0
Co236 Co 0.09132 0.75702 0.87759 0.0
Co237 Co 0.02071 0.74579 0.84881 0.0
O238 O 0.04987 0.73193 0.86937 0.0
C239 C 0.04378 0.75646 0.90899 0.0
O240 O 0.01974 0.76574 0.8972 0.0
C241 C 0.04285 0.67426 0.8402 0.0
O242 O 0.07481 0.68417 0.84405 0.0
O243 O 0.06225 0.75207 0.83303 0.0
O244 O 0.10762 0.76327 0.85169 0.0
H245 H 0.98619 0.82004 0.79517 0.0
H246 H 0.07454 0.68763 0.89332 0.0
O247 O 0.0751 0.75156 0.90361 0.0
H248 H 0.19024 0.67404 0.86467 0.0
H249 H 0.19287 0.7782 0.91975 0.0
H250 H 0.12961 0.82013 0.86532 0.0
H251 H 0.15997 0.73094 0.86411 0.0
H252 H 0.14081 0.7469 0.90851 0.0
O253 O 0.01774 0.69595 0.84116 0.0
H254 H 0.02248 0.80308 0.82156 0.0
H255 H 0.95689 0.71574 0.83164 0.0
H256 H 0.18172 0.85207 0.87598 0.0
H257 H 0.10395 0.6303 0.89428 0.0
H258 H 0.21371 0.83111 0.90339 0.0
H259 H 0.16219 0.62323 0.87984 0.0
O260 O 0.06673 0.80269 0.87641 0.0
H261 H 0.94583 0.68241 0.89439 0.0
H262 H 0.9579 0.78907 0.85711 0.0
H263 H 0.90711 0.78264 0.87753 0.0
H264 H 0.90084 0.729 0.89636 0.0
H265 H -0.00365 0.69003 0.8739 0.0
H266 H 0.92002 0.73158 0.80528 0.0
H267 H 0.93453 0.78416 0.78689 0.0
O268 O 0.02325 0.79576 0.85612 0.0
C269 C 0.09417 0.75991 0.83578 0.0
C270 C 0.97951 0.79716 0.80312 0.0
C271 C 0.9424 0.74748 0.80878 0.0
N272 N 0.99158 0.75868 0.82823 0.0
C273 C -0.0001 0.78749 0.81811 0.0
C274 C 0.96339 0.73861 0.82367 0.0
C275 C 0.95056 0.77699 0.79847 0.0
C276 C 0.10002 0.68482 0.88716 0.0
N277 N 0.11561 0.71262 0.87876 0.0
C278 C 0.11649 0.65227 0.88768 0.0
C279 C 0.14914 0.64831 0.87955 0.0
C280 C 0.16488 0.6768 0.87103 0.0
C281 C 0.1476 0.70894 0.87073 0.0
C282 C 0.17921 0.78754 0.90776 0.0
C283 C 0.14357 0.81073 0.87717 0.0
C284 C 0.14969 0.76996 0.90136 0.0
N285 N 0.13243 0.78152 0.88618 0.0
C286 C 0.17297 0.82897 0.88318 0.0
C287 C 0.19089 0.81722 0.89857 0.0
C288 C 0.04123 0.81439 0.86705 0.0
C289 C 0.94821 0.70585 0.88621 0.0
C290 C 0.95536 0.76565 0.86526 0.0
C291 C 0.92652 0.76214 0.87678 0.0
C292 C 0.92301 0.73203 0.88733 0.0
N293 N 0.97998 0.73986 0.86424 0.0
C294 C 0.97667 0.71023 0.87452 0.0
Co295 Co 0.23326 0.09891 0.37854 0.0
Co296 Co 0.24294 0.02867 0.34936 0.0
O297 O 0.25629 0.05595 0.3707 0.0
C298 C 0.22831 0.05096 0.40969 0.0
O299 O 0.21732 0.02796 0.3977 0.0
C300 C 0.31696 0.04442 0.34389 0.0
O301 O 0.30937 0.07695 0.34799 0.0
O302 O 0.24295 0.07107 0.33392 0.0
O303 O 0.22986 0.11606 0.35259 0.0
H304 H 0.17425 0.00304 0.29246 0.0
H305 H 0.30015 0.07767 0.39565 0.0
O306 O 0.23592 0.0819 0.40452 0.0
H307 H 0.32297 0.19279 0.36784 0.0
H308 H 0.21543 0.2011 0.4208 0.0
H309 H 0.17344 0.14113 0.36535 0.0
H310 H 0.26449 0.16606 0.36593 0.0
H311 H 0.24423 0.14731 0.40987 0.0
O312 O 0.29317 0.02126 0.34362 0.0
H313 H 0.19044 0.03673 0.31993 0.0
H314 H 0.26925 0.96261 0.33271 0.0
H315 H 0.14405 0.19501 0.37569 0.0
H316 H 0.35895 0.10352 0.39796 0.0
H317 H 0.16505 0.22536 0.40361 0.0
H318 H 0.37067 0.16145 0.38394 0.0
O319 O 0.18643 0.07715 0.37622 0.0
H320 H 0.29213 0.94687 0.39648 0.0
H321 H 0.19302 0.96988 0.35521 0.0
H322 H 0.1917 0.91811 0.37527 0.0
H323 H 0.24151 0.90634 0.3961 0.0
H324 H 0.29226 -0.0015 0.37631 0.0
H325 H 0.25407 0.92821 0.30532 0.0
H326 H 0.20617 0.94834 0.28502 0.0
O327 O 0.19252 0.03567 0.3547 0.0
C328 C 0.23565 0.10312 0.33675 0.0
C329 C 0.19507 0.99392 0.30124 0.0
C330 C 0.2399 0.95194 0.30845 0.0
N331 N 0.23049 0.00143 0.328 0.0
C332 C 0.20427 0.01282 0.31684 0.0
C333 C 0.24841 0.97154 0.32392 0.0
C334 C 0.21302 0.96325 0.29707 0.0
C335 C 0.30496 0.10305 0.38968 0.0
N336 N 0.27889 0.12042 0.38076 0.0
C337 C 0.33834 0.11749 0.39096 0.0
C338 C 0.34492 0.14996 0.38307 0.0
C339 C 0.31817 0.16755 0.37402 0.0
C340 C 0.28513 0.15226 0.37296 0.0
C341 C 0.20611 0.18817 0.40858 0.0
C342 C 0.18289 0.15437 0.37742 0.0
C343 C 0.22227 0.1577 0.40235 0.0
N344 N 0.21074 0.14137 0.38688 0.0
C345 C 0.16607 0.18478 0.38325 0.0
C346 C 0.17784 0.20177 0.39893 0.0
C347 C 0.17403 0.05377 0.36566 0.0
C348 C 0.27032 0.95165 0.38742 0.0
C349 C 0.21479 0.96494 0.36424 0.0
C350 C 0.21392 0.93556 0.37555 0.0
C351 C 0.24189 0.92896 0.38722 0.0
N352 N 0.24278 0.98709 0.36452 0.0
C353 C 0.27033 0.98075 0.3759 0.0
Co354 Co 0.89399 0.2334 0.87936 0.0
Co355 Co 0.9656 0.24169 0.85104 0.0
O356 O 0.937 0.2563 0.87166 0.0
C357 C 0.9405 0.2305 0.91113 0.0
O358 O 0.96422 0.21947 0.89956 0.0
C359 C 0.9483 0.31473 0.84326 0.0
O360 O 0.91564 0.3063 0.84639 0.0
O361 O 0.92407 0.23916 0.83496 0.0
O362 O 0.87808 0.22866 0.85332 0.0
H363 H -0.00375 0.16844 0.79637 0.0
H364 H 0.91419 0.30141 0.89567 0.0
O365 O 0.90976 0.23747 0.9055 0.0
H366 H 0.80027 0.32213 0.86626 0.0
H367 H 0.79017 0.21718 0.9206 0.0
H368 H 0.85262 0.17275 0.86644 0.0
H369 H 0.82728 0.26361 0.86557 0.0
H370 H 0.84426 0.24567 0.90996 0.0
O371 O 0.97216 0.29169 0.84429 0.0
H372 H 0.96055 0.18633 0.82282 0.0
H373 H 0.03173 0.26828 0.83473 0.0
H374 H 0.79847 0.14363 0.87649 0.0
H375 H 0.88804 0.36029 0.89678 0.0
H376 H 0.76687 0.16586 0.90376 0.0
H377 H 0.83071 0.37095 0.88195 0.0
O378 O 0.91606 0.18645 0.878 0.0
H379 H 0.04361 0.2969 0.89809 0.0
H380 H 0.02504 0.19365 0.85894 0.0
H381 H 0.07564 0.19525 0.87974 0.0
H382 H 0.08517 0.24715 0.89951 0.0
H383 H 0.99319 0.2941 0.8772 0.0
H384 H 0.0681 0.25145 0.80833 0.0
H385 H 0.05047 0.20111 0.78899 0.0
O386 O 0.95943 0.19161 0.85749 0.0
C387 C 0.89183 0.23249 0.83752 0.0
C388 C 0.00428 0.19033 0.80474 0.0
C389 C 0.04459 0.23695 0.81144 0.0
N390 N 0.99427 0.22806 0.83041 0.0
C391 C 0.98424 0.20051 0.81976 0.0
C392 C 0.02388 0.24639 0.82635 0.0
C393 C 0.03468 0.2087 0.80059 0.0
C394 C 0.88908 0.30578 0.88934 0.0
N395 N 0.87219 0.27908 0.88066 0.0
C396 C 0.87447 0.3392 0.88995 0.0
C397 C 0.84233 0.34518 0.88161 0.0
C398 C 0.82524 0.31779 0.87279 0.0
C399 C 0.84068 0.28473 0.87242 0.0
C400 C 0.80365 0.2073 0.90867 0.0
C401 C 0.83886 0.18271 0.87823 0.0
C402 C 0.83431 0.22329 0.90261 0.0
N403 N 0.85134 0.21107 0.8875 0.0
C404 C 0.80829 0.16605 0.8839 0.0
C405 C 0.79059 0.17852 0.89921 0.0
C406 C 0.94054 0.17362 0.8683 0.0
C407 C 0.0398 0.27419 0.8895 0.0
C408 C 0.029 0.21633 0.8675 0.0
C409 C 0.05773 0.21711 0.87923 0.0
C410 C 0.06308 0.24624 0.89031 0.0
N411 N 0.00628 0.24384 0.86678 0.0
C412 C 0.01139 0.27253 0.87758 0.0
Co413 Co 0.76097 0.89691 0.37888 0.0
Co414 Co 0.74499 0.96701 0.35029 0.0
O415 O 0.7341 0.93775 0.3713 0.0
C416 C 0.76254 0.94509 0.41 0.0
O417 O 0.77028 0.96905 0.39785 0.0
C418 C 0.67346 0.94283 0.34399 0.0
O419 O 0.68448 0.91139 0.34826 0.0
O420 O 0.75052 0.92536 0.33451 0.0
O421 O 0.76489 0.88032 0.35286 0.0
H422 H 0.81263 0.00262 0.29452 0.0
H423 H 0.69311 0.91234 0.39662 0.0
O424 O 0.75784 0.9135 0.40495 0.0
H425 H 0.67915 0.79586 0.36872 0.0
H426 H 0.78877 0.79635 0.4207 0.0
H427 H 0.82362 0.85992 0.36501 0.0
H428 H 0.73511 0.82743 0.36638 0.0
H429 H 0.7552 0.8476 0.41019 0.0
O430 O 0.69446 0.96859 0.344 0.0
H431 H 0.79934 0.96625 0.32147 0.0
H432 H 0.71165 0.02991 0.33381 0.0
H433 H 0.85777 0.80864 0.37493 0.0
H434 H 0.63676 0.88162 0.39938 0.0
H435 H 0.84037 0.77648 0.40297 0.0
H436 H 0.62949 0.82299 0.38531 0.0
O437 O 0.80577 0.92252 0.37625 0.0
H438 H 0.68478 0.04101 0.39745 0.0
H439 H 0.78743 0.03106 0.35713 0.0
H440 H 0.78193 0.08199 0.37759 0.0
H441 H 0.73032 0.08719 0.39795 0.0
H442 H 0.69145 0.99037 0.37688 0.0
H443 H 0.72381 0.06684 0.30691 0.0
H444 H 0.77471 0.05334 0.28711 0.0
O445 O 0.79565 0.96577 0.35616 0.0
C446 C 0.75933 0.89362 0.33709 0.0
C447 C 0.79046 0.00885 0.30309 0.0
C448 C 0.74058 0.04487 0.31003 0.0
N449 N 0.75498 0.99619 0.32929 0.0
C450 C 0.78288 0.98842 0.31839 0.0
C451 C 0.7338 0.02385 0.32522 0.0
C452 C 0.76915 0.03728 0.29892 0.0
C453 C 0.69025 0.88669 0.39063 0.0
N454 N 0.7174 0.87161 0.38145 0.0
C455 C 0.65824 0.86948 0.39216 0.0
C456 C 0.65416 0.83661 0.38425 0.0
C457 C 0.68201 0.82138 0.37492 0.0
C458 C 0.71361 0.8394 0.37362 0.0
C459 C 0.79655 0.81008 0.40844 0.0
C460 C 0.81575 0.84587 0.37714 0.0
C461 C 0.77768 0.83913 0.40244 0.0
N462 N 0.78725 0.85645 0.3869 0.0
C463 C 0.83525 0.81694 0.38273 0.0
C464 C 0.82549 0.79894 0.39847 0.0
C465 C 0.81583 0.94823 0.36652 0.0
C466 C 0.70733 0.0391 0.3886 0.0
C467 C 0.76489 0.03313 0.36595 0.0
C468 C 0.7619 0.06206 0.37748 0.0
C469 C 0.73292 0.06497 0.38889 0.0
N470 N 0.73969 0.00786 0.36575 0.0
C471 C 0.71116 0.01057 0.37686 0.0
H472 H 0.97805 0.34225 0.18283 0.0
H473 H 0.9621 0.40376 0.18651 0.0
H474 H 0.06423 0.43474 0.16786 0.0
H475 H 0.08064 0.37329 0.16416 0.0
H476 H 0.00634 0.46461 0.20672 0.0
H477 H 0.98043 0.47422 0.1319 0.0
H478 H 0.97788 0.4332 0.14405 0.0
H479 H 0.0196 0.45236 0.13935 0.0
C480 C -0.0027 0.36212 0.17973 0.0
C481 C 0.03053 0.35301 0.1731 0.0
C482 C 0.98817 0.39714 0.18191 0.0
C483 C 0.01203 0.42343 0.17741 0.0
C484 C 0.04561 0.41455 0.17142 0.0
H485 H 0.01003 0.64718 0.18162 0.0
H486 H 0.02256 0.58514 0.18599 0.0
C487 C 0.05488 0.37951 0.16933 0.0
C488 C 0.00088 0.46015 0.17755 0.0
H489 H 0.97434 0.52566 0.14927 0.0
C490 C -0.00073 0.47809 0.19422 0.0
C491 C 0.99137 0.47715 0.16118 0.0
C492 C 0.99215 0.45838 0.14305 0.0
C493 C 0.98889 0.51322 0.19487 0.0
C494 C 0.9801 0.53044 0.17843 0.0
C495 C 0.9811 0.51221 0.16182 0.0
C496 C 0.97109 0.56783 0.17791 0.0
C497 C 0.98723 0.53167 0.21306 0.0
C498 C 0.93798 0.57841 0.17194 0.0
C499 C 0.9307 0.61381 0.16941 0.0
C500 C 0.95665 0.63903 0.1726 0.0
C501 C 0.98953 0.62833 0.17903 0.0
C502 C -0.00332 0.59297 0.18166 0.0
H503 H 0.98718 0.51292 0.22465 0.0
H504 H 0.01037 0.54889 0.21451 0.0
H505 H 0.96353 0.5483 0.21394 0.0
H506 H 0.91806 0.5592 0.16884 0.0
H507 H 0.90518 0.62126 0.16436 0.0
H508 H 0.34967 0.00419 0.67989 0.0
H509 H 0.41187 0.01684 0.68302 0.0
H510 H 0.43686 0.91394 0.66286 0.0
H511 H 0.37453 0.90086 0.65967 0.0
H512 H 0.46923 0.97528 0.70229 0.0
H513 H 0.48112 0.99022 0.62676 0.0
H514 H 0.43964 0.99298 0.6384 0.0
H515 H 0.46026 0.95133 0.63528 0.0
C516 C 0.36836 0.98407 0.67632 0.0
C517 C 0.35731 0.95163 0.66939 0.0
C518 C 0.4038 0.99131 0.67819 0.0
C519 C 0.42864 0.96636 0.67306 0.0
C520 C 0.41783 0.93346 0.66682 0.0
H521 H 0.654 0.97877 0.6787 0.0
H522 H 0.59312 0.96078 0.68208 0.0
C523 C 0.38231 0.92606 0.66505 0.0
C524 C 0.46578 0.97594 0.67294 0.0
H525 H 0.53181 -0.00065 0.64425 0.0
C526 C 0.48311 0.98034 0.68965 0.0
C527 C 0.48331 0.9829 0.65636 0.0
C528 C 0.46525 0.97937 0.63813 0.0
C529 C 0.51794 0.99153 0.69018 0.0
C530 C 0.53545 -0.0016 0.67359 0.0
C531 C 0.51808 0.994 0.65691 0.0
C532 C 0.57192 0.01029 0.67315 0.0
C533 C 0.53565 -0.00341 0.70839 0.0
C534 C 0.57984 0.04408 0.66704 0.0
C535 C 0.61452 0.05451 0.66512 0.0
C536 C 0.6417 0.03106 0.66908 0.0
C537 C 0.63359 -0.0026 0.67552 0.0
C538 C 0.59891 0.98711 0.67756 0.0
H539 H 0.51685 0.99562 0.71993 0.0
H540 H 0.55532 0.97565 0.71039 0.0
H541 H 0.54956 0.02205 0.70873 0.0
H542 H 0.55915 0.06215 0.66348 0.0
H543 H 0.61998 0.08053 0.66004 0.0
H544 H 0.01386 0.3417 0.84005 0.0
H545 H 0.03009 0.403 0.83665 0.0
H546 H 0.9213 0.43184 0.83483 0.0
H547 H 0.90469 0.37056 0.83867 0.0
H548 H 0.01548 0.4522 0.80993 0.0
H549 H 0.95927 0.49006 0.87704 0.0
H550 H 0.96545 0.44507 0.8704 0.0
H551 H 0.92867 0.46938 0.86194 0.0
C552 C 0.99333 0.36103 0.83884 0.0
C553 C 0.95796 0.35138 0.83981 0.0
C554 C 0.00269 0.39601 0.83686 0.0
C555 C 0.97689 0.42186 0.8358 0.0
C556 C 0.94156 0.41223 0.83601 0.0
H557 H 0.97994 0.64611 0.83117 0.0
H558 H 0.96544 0.58435 0.82814 0.0
C559 C 0.93214 0.37724 0.83812 0.0
C560 C 0.98706 0.45898 0.83509 0.0
H561 H 0.98 0.53595 0.85825 0.0
C562 C 0.00781 0.47057 0.82048 0.0
C563 C 0.97725 0.48262 0.84902 0.0
C564 C 0.95672 0.47117 0.86558 0.0
C565 C 0.01846 0.50555 0.81927 0.0
C566 C 0.00815 0.52917 0.83305 0.0
C567 C 0.98758 0.51758 0.84767 0.0
C568 C 0.01818 0.56626 0.83268 0.0
C569 C 0.04019 0.51721 0.80321 0.0
C570 C 0.05278 0.57629 0.83603 0.0
C571 C 0.06123 0.61163 0.83786 0.0
C572 C 0.03509 0.63726 0.83641 0.0
C573 C 0.00068 0.62701 0.83242 0.0
C574 C 0.9923 0.59178 0.83065 0.0
H575 H 0.04101 0.49719 0.79223 0.0
H576 H 0.02975 0.54196 0.79747 0.0
H577 H 0.0673 0.52225 0.80785 0.0
H578 H 0.07295 0.55676 0.83789 0.0
H579 H 0.08794 0.61874 0.84099 0.0
H580 H 0.34018 0.98263 0.33003 0.0
H581 H 0.40065 0.96294 0.3274 0.0
H582 H 0.43646 0.06192 0.3484 0.0
H583 H 0.37596 0.08205 0.3511 0.0
H584 H 0.46131 -0.00103 0.30821 0.0
H585 H 0.4741 0.98043 0.38339 0.0
H586 H 0.43228 0.98202 0.37203 0.0
H587 H 0.45647 0.02152 0.37575 0.0
C588 C 0.36092 0.00035 0.33396 0.0
C589 C 0.35341 0.03381 0.34088 0.0
C590 C 0.39535 0.98907 0.33239 0.0
C591 C 0.42268 0.01095 0.33784 0.0
C592 C 0.41546 0.04472 0.34424 0.0
H593 H 0.64424 0.00118 0.32929 0.0
H594 H 0.58221 0.01418 0.32603 0.0
C595 C 0.38099 0.05616 0.3457 0.0
C596 C 0.45871 -0.00218 0.33759 0.0
H597 H 0.52491 0.97214 0.36561 0.0
C598 C 0.47529 0.99297 0.32071 0.0
C599 C 0.47635 0.98958 0.35396 0.0
C600 C 0.45895 0.99335 0.37235 0.0
C601 C 0.50979 0.98092 0.31982 0.0
C602 C 0.52781 0.97375 0.33623 0.0
C603 C 0.51084 0.9777 0.35307 0.0
C604 C 0.56497 0.96413 0.33638 0.0
C605 C 0.52678 0.97599 0.30141 0.0
C606 C 0.57559 0.93165 0.3433 0.0
C607 C 0.61104 0.92408 0.34519 0.0
C608 C 0.63623 0.94916 0.34042 0.0
C609 C 0.62541 0.98137 0.33311 0.0
C610 C 0.59004 0.98877 0.33111 0.0
H611 H 0.50716 0.97449 0.29026 0.0
H612 H 0.54421 -0.00149 0.2986 0.0
H613 H 0.5429 0.95186 0.30122 0.0
H614 H 0.55642 0.91251 0.34757 0.0
H615 H 0.61865 0.89913 0.35094 0.0
H616 H 0.00537 0.22727 0.92634 0.0
H617 H 0.0208 0.23178 0.95865 0.0
H618 H 0.91253 0.24741 0.97243 0.0
H619 H 0.89668 0.24294 0.94004 0.0
H620 H 0.00477 0.28956 0.98439 0.0
H621 H 0.9469 0.16123 1.00354 0.0
H622 H 0.95769 0.17229 0.98022 0.0
H623 H 0.9196 0.19067 0.99076 0.0
C624 C 0.98477 0.23168 0.93621 0.0
C625 C 0.94973 0.23447 0.93064 0.0
C626 C 0.9937 0.23437 0.95465 0.0
C627 C 0.96778 0.23959 0.96788 0.0
C628 C 0.93284 0.24302 0.96239 0.0
H629 H 0.97436 0.23602 0.08623 0.0
H630 H 0.95693 0.23993 0.05423 0.0
C631 C 0.92387 0.24056 0.94391 0.0
C632 C 0.97741 0.2408 0.98744 0.0
H633 H 0.9714 0.19482 0.02723 0.0
C634 C -0.00253 0.26894 0.99382 0.0
C635 C 0.96778 0.21382 0.9996 0.0
C636 C 0.947 0.1826 0.99326 0.0
C637 C 0.00787 0.27102 0.01219 0.0
C638 C -0.00132 0.24375 0.02434 0.0
C639 C 0.97844 0.21571 0.01791 0.0
C640 C 0.00964 0.24358 0.04379 0.0
C641 C 0.02798 0.30273 0.01846 0.0
C642 C 0.04514 0.24437 0.0486 0.0
C643 C 0.05523 0.24243 0.06695 0.0
C644 C 0.02998 0.23906 0.08077 0.0
C645 C 0.99448 0.23842 0.07591 0.0
C646 C 0.98444 0.24068 0.05761 0.0
H647 H 0.0239 0.32533 0.00917 0.0
H648 H 0.02026 0.31054 0.03251 0.0
H649 H 0.05627 0.29655 0.01851 0.0
H650 H 0.06509 0.24572 0.03815 0.0
H651 H 0.08278 0.24272 0.07026 0.0
H652 H 0.7531 0.0901 0.56924 0.0
H653 H 0.7494 0.0726 0.53704 0.0
H654 H 0.76408 0.96484 0.55244 0.0
H655 H 0.76785 0.98192 0.58452 0.0
H656 H 0.80387 0.03345 0.51744 0.0
H657 H 0.67596 0.9649 0.51865 0.0
H658 H 0.68857 -0.00365 0.53585 0.0
H659 H 0.70626 0.95292 0.53634 0.0
C660 C 0.75528 0.06266 0.56577 0.0
C661 C 0.76084 0.03741 0.57942 0.0
C662 C 0.75319 0.05273 0.5474 0.0
C663 C 0.7561 0.01742 0.54243 0.0
C664 C 0.76128 0.99217 0.55603 0.0
H665 H 0.75864 0.90217 0.43998 0.0
H666 H 0.75695 0.91983 0.4722 0.0
C667 C 0.76365 0.00205 0.57435 0.0
C668 C 0.75548 0.00698 0.52297 0.0
H669 H 0.70956 0.95956 0.4916 0.0
C670 C 0.78316 0.0175 0.51172 0.0
C671 C 0.72862 0.98585 0.51569 0.0
C672 C 0.69797 0.97447 0.52717 0.0
C673 C 0.78502 0.00696 0.49338 0.0
C674 C 0.75795 0.9861 0.48599 0.0
C675 C 0.73025 0.97556 0.49728 0.0
C676 C 0.75778 0.97534 0.46652 0.0
C677 C 0.81647 0.01751 0.48225 0.0
C678 C 0.75797 0.00066 0.45268 0.0
C679 C 0.7592 0.9907 0.43435 0.0
C680 C 0.75979 0.95515 0.42946 0.0
C681 C 0.75836 0.92975 0.44332 0.0
C682 C 0.75738 0.93979 0.46171 0.0
H683 H 0.83903 0.02431 0.4911 0.0
H684 H 0.8245 0.99628 0.47279 0.0
H685 H 0.8099 0.04092 0.47399 0.0
H686 H 0.7573 0.02822 0.45605 0.0
H687 H 0.75974 0.01095 0.42401 0.0
H688 H 0.90543 0.74815 0.06984 0.0
H689 H 0.92112 0.74395 0.03742 0.0
H690 H 0.03014 0.7512 0.05149 0.0
H691 H 0.01485 0.75534 0.08381 0.0
H692 H 0.96141 0.79599 0.0177 0.0
H693 H 0.02422 0.66509 0.01688 0.0
H694 H 0.99488 0.67882 0.03483 0.0
H695 H 0.03912 0.69429 0.03447 0.0
C696 C 0.93275 0.74851 0.06603 0.0
C697 C 0.95889 0.75215 0.07939 0.0
C698 C 0.94165 0.74615 0.04753 0.0
C699 C 0.97678 0.74688 0.04211 0.0
C700 C 0.0029 0.75004 0.05542 0.0
H701 H 0.0875 0.74949 0.93847 0.0
H702 H 0.07095 0.74668 0.97081 0.0
C703 C 0.99407 0.75264 0.07388 0.0
C704 C 0.98619 0.74638 0.02249 0.0
H705 H 0.03022 0.69959 0.99012 0.0
C706 C 0.97622 0.77482 0.01161 0.0
C707 C 0.00583 0.71888 0.0147 0.0
C708 C 0.01647 0.68735 0.02575 0.0
C709 C 0.98592 0.77685 0.99315 0.0
C710 C 0.00537 0.74921 0.98527 0.0
C711 C 0.01531 0.72072 0.99618 0.0
C712 C 0.01538 0.74938 0.96569 0.0
C713 C 0.97607 0.80906 0.98241 0.0
C714 C 0.98962 0.75094 0.9521 0.0
C715 C -0.00104 0.7528 0.9337 0.0
C716 C 0.03429 0.75266 0.92848 0.0
C717 C 0.06008 0.74978 0.94206 0.0
C718 C 0.05067 0.74816 0.96053 0.0
H719 H 0.97031 0.83156 0.99153 0.0
H720 H -0.00278 0.81671 0.97285 0.0
H721 H 0.95224 0.80354 0.9743 0.0
H722 H 0.96222 0.75096 0.95574 0.0
H723 H 0.97842 0.75448 0.92357 0.0
H724 H 0.22292 0.98539 0.424 0.0
H725 H 0.22699 0.96814 0.45608 0.0
H726 H 0.24591 0.07529 0.47136 0.0
H727 H 0.24183 0.09296 0.43923 0.0
H728 H 0.28462 0.97998 0.48172 0.0
H729 H 0.15994 0.04304 0.50251 0.0
H730 H 0.17031 0.03355 0.47896 0.0
H731 H 0.19027 0.07012 0.49022 0.0
C732 C 0.22792 0.00536 0.43416 0.0
C733 C 0.23177 0.04063 0.42908 0.0
C734 C 0.23036 0.99539 0.45247 0.0
C735 C 0.23639 0.02048 0.46606 0.0
C736 C 0.24083 0.05562 0.46105 0.0
H737 H 0.23864 0.01285 0.58407 0.0
H738 H 0.24149 0.02964 0.55197 0.0
C739 C 0.2386 0.06563 0.4427 0.0
C740 C 0.23755 0.0098 0.48548 0.0
H741 H 0.19357 0.01712 0.52583 0.0
C742 C 0.26477 0.98804 0.49141 0.0
C743 C 0.21154 0.02037 0.498 0.0
C744 C 0.18115 0.04285 0.49217 0.0
C745 C 0.26703 0.97704 0.50969 0.0
C746 C 0.24087 0.98745 0.52222 0.0
C747 C 0.21362 0.00918 0.51622 0.0
C748 C 0.24128 0.97661 0.54169 0.0
C749 C 0.29782 0.95511 0.51548 0.0
C750 C 0.24032 0.94113 0.54663 0.0
C751 C 0.23894 0.93137 0.56506 0.0
C752 C 0.23796 0.95698 0.57882 0.0
C753 C 0.23916 0.99244 0.57381 0.0
C754 C 0.24082 0.00212 0.55545 0.0
H755 H 0.32 0.95769 0.50579 0.0
H756 H 0.30693 0.96254 0.52935 0.0
H757 H 0.28996 0.92721 0.51579 0.0
H758 H 0.23985 0.92099 0.53624 0.0
H759 H 0.23782 0.90386 0.56849 0.0
H760 H 0.07984 0.25077 0.20824 0.0
H761 H 0.11432 0.23642 0.2352 0.0
H762 H 0.19291 0.18909 0.20107 0.0
H763 H 0.15857 0.20349 0.17381 0.0
H764 H 0.1632 0.14576 0.22978 0.0
H765 H 0.20856 0.27415 0.25595 0.0
H766 H 0.1632 0.27221 0.24974 0.0
H767 H 0.19602 0.26728 0.23241 0.0
C768 C 0.10471 0.23777 0.20637 0.0
C769 C 0.11633 0.22804 0.18885 0.0
C770 C 0.12452 0.22988 0.22182 0.0
C771 C 0.15629 0.21207 0.22009 0.0
C772 C 0.16856 0.20317 0.20263 0.0
H773 H 0.26846 0.09612 0.30402 0.0
H774 H 0.25431 0.12593 0.27547 0.0
C775 C 0.1489 0.21139 0.18709 0.0
C776 C 0.17433 0.19925 0.23665 0.0
H777 H 0.21244 0.22583 0.27648 0.0
C778 C 0.1745 0.16316 0.23988 0.0
C779 C 0.18846 0.22216 0.24987 0.0
C780 C 0.18939 0.26113 0.24683 0.0
C781 C 0.18731 0.14933 0.25629 0.0
C782 C 0.20141 0.17222 0.26961 0.0
C783 C 0.20181 0.20835 0.26623 0.0
C784 C 0.21446 0.15893 0.28737 0.0
C785 C 0.18406 0.11047 0.25952 0.0
C786 C 0.19856 0.16941 0.30378 0.0
C787 C 0.20715 0.1529 0.32024 0.0
C788 C 0.23152 0.12545 0.32044 0.0
C789 C 0.24915 0.1168 0.30421 0.0
C790 C 0.24098 0.13368 0.28787 0.0
H791 H 0.16451 0.09832 0.25029 0.0
H792 H 0.2096 0.09779 0.25685 0.0
H793 H 0.17643 0.10484 0.27386 0.0
H794 H 0.17821 0.18908 0.3037 0.0
H795 H 0.19319 0.16014 0.33254 0.0
H796 H 0.9066 0.25194 0.80248 0.0
H797 H 0.8742 0.2371 0.77486 0.0
H798 H 0.79533 0.18637 0.80741 0.0
H799 H 0.8275 0.20126 0.83528 0.0
H800 H 0.82977 0.14453 0.77917 0.0
H801 H 0.77915 0.27064 0.75246 0.0
H802 H 0.82397 0.27075 0.75978 0.0
H803 H 0.78993 0.26405 0.77626 0.0
C804 C 0.88205 0.23816 0.80384 0.0
C805 C 0.86979 0.22752 0.8211 0.0
C806 C 0.86343 0.22997 0.78802 0.0
C807 C 0.83226 0.21096 0.78913 0.0
C808 C 0.81922 0.20136 0.80633 0.0
H809 H 0.72772 0.08982 0.70484 0.0
H810 H 0.74084 0.12026 0.73334 0.0
C811 C 0.83766 0.20987 0.82222 0.0
C812 C 0.81595 0.19737 0.77226 0.0
H813 H 0.77773 0.22203 0.73213 0.0
C814 C 0.81792 0.16135 0.76898 0.0
C815 C 0.80115 0.21957 0.75892 0.0
C816 C 0.7981 0.25841 0.762 0.0
C817 C 0.80638 0.14692 0.75245 0.0
C818 C 0.79138 0.16905 0.73906 0.0
C819 C 0.78904 0.20511 0.74244 0.0
C820 C 0.77902 0.15501 0.72133 0.0
C821 C 0.8118 0.1083 0.74922 0.0
C822 C 0.79431 0.16614 0.70488 0.0
C823 C 0.7863 0.14922 0.68844 0.0
C824 C 0.76315 0.12074 0.68831 0.0
C825 C 0.74615 0.1113 0.7046 0.0
C826 C 0.75371 0.12855 0.7209 0.0
H827 H 0.83199 0.09729 0.75848 0.0
H828 H 0.78701 0.09422 0.7519 0.0
H829 H 0.81976 0.10307 0.73489 0.0
H830 H 0.81371 0.18673 0.7049 0.0
H831 H 0.7997 0.1571 0.67608 0.0
H832 H 0.72981 0.90275 0.30365 0.0
H833 H 0.74428 0.87256 0.27531 0.0
H834 H 0.81651 0.80654 0.30453 0.0
H835 H 0.8012 0.83596 0.33314 0.0
H836 H 0.80662 0.87462 0.26023 0.0
H837 H 0.77145 0.73597 0.27146 0.0
H838 H 0.75628 0.77057 0.28624 0.0
H839 H 0.79941 0.75269 0.28906 0.0
C840 C 0.74826 0.88131 0.30412 0.0
C841 C 0.76456 0.87186 0.32061 0.0
C842 C 0.75647 0.86405 0.2879 0.0
C843 C 0.78132 0.83712 0.28776 0.0
C844 C 0.79666 0.82668 0.30433 0.0
H845 H 0.91682 0.74853 0.20791 0.0
H846 H 0.8836 0.76456 0.23506 0.0
C847 C 0.78806 0.84366 0.32068 0.0
C848 C 0.79397 0.82305 0.27004 0.0
H849 H 0.81031 0.74778 0.24639 0.0
C850 C 0.80687 0.84691 0.25711 0.0
C851 C 0.79443 0.78688 0.26598 0.0
C852 C 0.77932 0.76009 0.27885 0.0
C853 C 0.82119 0.83559 0.24051 0.0
C854 C 0.82247 0.79945 0.23667 0.0
C855 C 0.80913 0.77551 0.2494 0.0
C856 C 0.84008 0.7862 0.22007 0.0
C857 C 0.83606 0.86229 0.22747 0.0
C858 C 0.82612 0.79237 0.20264 0.0
C859 C 0.84504 0.78322 0.18699 0.0
C860 C 0.87831 0.76793 0.18858 0.0
C861 C 0.89145 0.76056 0.20613 0.0
C862 C 0.87245 0.76951 0.22171 0.0
H863 H 0.83765 0.88874 0.23369 0.0
H864 H 0.86257 0.85436 0.22294 0.0
H865 H 0.81921 0.86391 0.21517 0.0
H866 H 0.80101 0.80508 0.20116 0.0
H867 H 0.83409 0.78913 0.17371 0.0
H868 H 0.26045 0.90813 0.70544 0.0
H869 H 0.24564 0.87755 0.73359 0.0
H870 H 0.17826 0.80812 0.70338 0.0
H871 H 0.19391 0.83801 0.67495 0.0
H872 H 0.18236 0.87633 0.74783 0.0
H873 H 0.22574 0.73982 0.73696 0.0
H874 H 0.23974 0.77531 0.72245 0.0
H875 H 0.19774 0.75527 0.71906 0.0
C876 C 0.24295 0.88594 0.70471 0.0
C877 C 0.22815 0.87561 0.68797 0.0
C878 C 0.23455 0.86844 0.72083 0.0
C879 C 0.21103 0.84037 0.72063 0.0
C880 C 0.1971 0.82918 0.70385 0.0
H881 H 0.0788 0.74504 0.80018 0.0
H882 H 0.11142 0.76219 0.77301 0.0
C883 C 0.20588 0.84643 0.68761 0.0
C884 C 0.19836 0.82557 0.73818 0.0
H885 H 0.186 0.74955 0.76182 0.0
C886 C 0.18366 0.84866 0.75098 0.0
C887 C 0.19993 0.78945 0.74227 0.0
C888 C 0.21696 0.76357 0.72953 0.0
C889 C 0.16966 0.83657 0.76749 0.0
C890 C 0.17053 0.80043 0.7714 0.0
C891 C 0.18555 0.77728 0.75877 0.0
C892 C 0.15365 0.78629 0.78799 0.0
C893 C 0.1529 0.86238 0.7804 0.0
C894 C 0.16716 0.7934 0.80542 0.0
C895 C 0.1486 0.78359 0.82107 0.0
C896 C 0.11611 0.76671 0.81949 0.0
C897 C 0.10356 0.75829 0.80194 0.0
C898 C 0.12222 0.7679 0.78637 0.0
H899 H 0.14977 0.88862 0.77412 0.0
H900 H 0.12686 0.85284 0.78483 0.0
H901 H 0.1694 0.86514 0.79278 0.0
H902 H 0.19155 0.80744 0.8069 0.0
H903 H 0.15909 0.79036 0.83435 0.0
H904 H 0.06372 0.13305 0.11455 0.0
H905 H 0.04781 0.07174 0.11009 0.0
H906 H 0.98591 0.07467 0.15931 0.0
H907 H 0.00071 0.13603 0.16359 0.0
H908 H 0.05993 0.01599 0.13095 0.0
H909 H 0.91747 0.03348 0.12372 0.0
H910 H 0.94756 0.06972 0.1229 0.0
H911 H 0.93301 0.05262 0.14454 0.0
C912 C 0.04662 0.12066 0.12439 0.0
C913 C 0.03329 0.13947 0.13936 0.0
C914 C 0.03751 0.08568 0.1218 0.0
C915 C 0.01504 0.06894 0.13414 0.0
C916 C 0.00239 0.08742 0.1493 0.0
H917 H -0.0031 0.85386 0.1616 0.0
H918 H 0.01257 0.91506 0.15771 0.0
C919 C 0.01114 0.12243 0.15181 0.0
C920 C 0.00593 0.0317 0.13169 0.0
H921 H 0.93696 0.97544 0.13145 0.0
C922 C 0.03304 0.00712 0.13079 0.0
C923 C 0.97086 0.02023 0.13104 0.0
C924 C 0.9406 0.04547 0.13039 0.0
C925 C 0.02601 0.97121 0.13024 0.0
C926 C 0.99097 0.95968 0.13116 0.0
C927 C 0.96384 0.98431 0.13107 0.0
C928 C 0.9819 0.92233 0.13315 0.0
C929 C 0.05621 0.94604 0.12874 0.0
C930 C 0.95842 0.90644 0.12102 0.0
C931 C 0.9488 0.87155 0.12342 0.0
C932 C 0.96263 0.85197 0.13798 0.0
C933 C 0.98603 0.86807 0.15014 0.0
C934 C 0.99529 0.903 0.14784 0.0
H935 H 0.07894 0.9584 0.12188 0.0
H936 H 0.06462 0.93818 0.14265 0.0
H937 H 0.04883 0.92218 0.12102 0.0
H938 H 0.94756 0.92105 0.10968 0.0
H939 H 0.93075 0.8599 0.11379 0.0
H940 H 0.13248 0.93126 0.61466 0.0
H941 H 0.07203 0.95059 0.61124 0.0
H942 H 0.08234 0.01473 0.65943 0.0
H943 H 0.14295 -0.00351 0.66265 0.0
H944 H 0.01836 0.94173 0.63365 0.0
H945 H 0.04041 0.08332 0.62415 0.0
H946 H 0.07534 0.05177 0.62285 0.0
H947 H 0.06064 0.06781 0.64468 0.0
C948 C 0.12193 0.94962 0.62448 0.0
C949 C 0.14255 0.96245 0.63889 0.0
C950 C 0.08744 0.96069 0.62247 0.0
C951 C 0.07299 0.98466 0.63485 0.0
C952 C 0.09333 -0.00293 0.64939 0.0
H953 H 0.85979 0.0106 0.66507 0.0
H954 H 0.92116 0.99536 0.66165 0.0
C955 C 0.12789 0.98634 0.65131 0.0
C956 C 0.03603 0.9952 0.63323 0.0
H957 H 0.98232 0.06628 0.63308 0.0
C958 C 0.01048 0.96895 0.63327 0.0
C959 C 0.02582 0.03069 0.63236 0.0
C960 C 0.05205 0.05996 0.6308 0.0
C961 C 0.97491 0.97729 0.63333 0.0
C962 C 0.96475 0.01281 0.6339 0.0
C963 C 0.99024 0.03906 0.63297 0.0
C964 C 0.92789 0.0232 0.63615 0.0
C965 C 0.94861 0.94794 0.63278 0.0
C966 C 0.91182 0.04525 0.62336 0.0
C967 C 0.87681 0.05457 0.62544 0.0
C968 C 0.85737 0.04185 0.64032 0.0
C969 C 0.87389 0.02049 0.65333 0.0
C970 C 0.9089 0.01152 0.65134 0.0
H971 H 0.95981 0.92409 0.6264 0.0
H972 H 0.94085 0.94113 0.64695 0.0
H973 H 0.92484 0.95558 0.62508 0.0
H974 H 0.92621 0.05479 0.61164 0.0
H975 H 0.86483 0.07109 0.61519 0.0
H976 H 0.97904 0.1337 0.84502 0.0
H977 H 0.99428 0.07226 0.84823 0.0
H978 H 0.93708 0.06727 0.89894 0.0
H979 H 0.92072 0.1288 0.89559 0.0
H980 H 0.03167 0.04159 0.87512 0.0
H981 H 0.89869 0.9839 0.87135 0.0
H982 H 0.90741 0.02881 0.86541 0.0
H983 H 0.90453 0.016 0.88899 0.0
C984 C 0.96943 0.11955 0.85681 0.0
C985 C 0.94855 0.13608 0.87003 0.0
C986 C 0.97824 0.08444 0.85863 0.0
C987 C 0.96656 0.0652 0.87373 0.0
C988 C 0.94576 0.08153 0.887 0.0
H989 H 0.06051 0.85945 0.89432 0.0
H990 H 0.04208 0.92022 0.89824 0.0
C991 C 0.93655 0.11668 0.88509 0.0
C992 C 0.97708 0.02824 0.87555 0.0
H993 H 0.94546 0.94497 0.8763 0.0
C994 C 0.01287 0.02041 0.87548 0.0
C995 C 0.95239 0.00081 0.87593 0.0
C996 C 0.91361 0.00764 0.87527 0.0
C997 C 0.02472 0.98579 0.87517 0.0
C998 C 4e-05 0.95835 0.8755 0.0
C999 C 0.96426 0.96617 0.87614 0.0
C1000 C 0.0106 0.9214 0.87369 0.0
C1001 C 0.06343 0.97902 0.87363 0.0
C1002 C -0.00174 0.90178 0.85886 0.0
C1003 C 0.00829 0.86705 0.85671 0.0
C1004 C 0.03106 0.85131 0.86932 0.0
C1005 C 0.04329 0.87098 0.88425 0.0
C1006 C 0.03287 0.90569 0.88649 0.0
H1007 H 0.07793 0.00268 0.86918 0.0
H1008 H 0.07373 0.9711 0.88718 0.0
H1009 H 0.06884 0.9576 0.86379 0.0
H1010 H 0.98105 0.91347 0.84883 0.0
H1011 H -0.00163 0.85266 0.84508 0.0
H1012 H 0.85046 0.99282 0.34379 0.0
H1013 H 0.91123 0.0112 0.34571 0.0
H1014 H 0.92504 0.94828 0.39408 0.0
H1015 H 0.8644 0.92885 0.392 0.0
H1016 H 0.94514 0.04635 0.37262 0.0
H1017 H 0.00456 0.91546 0.36195 0.0
H1018 H 0.95885 0.92388 0.35805 0.0
H1019 H 0.97493 0.91768 0.3809 0.0
C1020 C 0.86641 0.98271 0.3548 0.0
C1021 C 0.85268 0.95913 0.36766 0.0
C1022 C 0.9011 0.99333 0.3559 0.0
C1023 C 0.92267 0.98075 0.36989 0.0
C1024 C 0.90898 0.95767 0.38294 0.0
H1025 H 0.12786 0.07159 0.39266 0.0
H1026 H 0.06637 0.05487 0.39485 0.0
C1027 C 0.87432 0.9467 0.38175 0.0
C1028 C 0.95946 0.99203 0.37072 0.0
H1029 H 0.04308 0.96193 0.36863 0.0
C1030 C 0.96663 0.02794 0.37178 0.0
C1031 C 0.98727 0.96787 0.36946 0.0
C1032 C 0.98113 0.9291 0.36736 0.0
C1033 C 0.00098 0.04047 0.37135 0.0
C1034 C 0.02879 0.01628 0.3703 0.0
C1035 C 0.02162 0.98035 0.36953 0.0
C1036 C 0.06553 0.02756 0.36894 0.0
C1037 C 0.00708 0.07944 0.37137 0.0
C1038 C 0.08543 0.01728 0.3538 0.0
C1039 C 0.12055 0.0263 0.35263 0.0
C1040 C 0.1364 0.04595 0.36657 0.0
C1041 C 0.11628 0.05672 0.38162 0.0
C1042 C 0.08114 0.04731 0.38287 0.0
H1043 H 0.98314 0.09414 0.36758 0.0
H1044 H 0.01496 0.08784 0.38528 0.0
H1045 H 0.02827 0.08666 0.36173 0.0
H1046 H 0.0738 0.00203 0.3429 0.0
H1047 H 0.13527 0.01768 0.34082 0.0
loop_
_geom_bond_atom_site_label_1
_geom_bond_atom_site_label_2
_geom_bond_distance
_geom_bond_site_symmetry_2
_ccdc_geom_bond_type
Co0 O2 2.143 . S
Co0 O8 2.074 . S
Co0 O11 2.093 . S
Co0 O24 2.097 . S
Co0 N41 2.151 . S
Co0 N49 2.214 . S
Co1 O2 2.160 . S
Co1 O7 2.058 . S
Co1 O17 2.057 . S
Co1 O32 2.037 . S
Co1 N36 2.145 1_455 S
Co1 N57 2.257 1_455 S
O2 Co0 2.143 . S
O2 Co1 2.160 . S
C3 O4 1.278 . S
C3 O11 1.224 . S
O4 C3 1.278 . S
C5 O6 1.245 . S
C5 O17 1.232 . S
O6 C5 1.245 . S
O7 Co1 2.058 . S
O7 C33 1.269 . S
O8 Co0 2.074 . S
O8 C33 1.257 . S
H9 C34 0.930 . S
H10 C40 0.930 . S
O11 Co0 2.093 . S
O11 C3 1.224 . S
H12 C44 0.929 . S
H13 C46 0.930 . S
H14 C47 0.930 . S
H15 C45 0.929 . S
H16 C48 0.928 . S
O17 Co1 2.057 . S
O17 C5 1.232 . S
H18 C37 0.929 1_455 S
H19 C38 0.929 . S
H20 C50 0.931 . S
H21 C42 0.929 . S
H22 C51 0.930 . S
H23 C43 0.931 . S
O24 Co0 2.097 . S
O24 C52 1.214 . S
H25 C53 0.929 . S
H26 C54 0.929 . S
H27 C55 0.930 . S
H28 C56 0.929 . S
H29 C58 0.930 . S
H30 C35 0.930 . S
H31 C39 0.930 . S
O32 Co1 2.037 . S
O32 C52 1.234 . S
C33 O7 1.269 . S
C33 O8 1.257 . S
C34 H9 0.930 . S
C34 C37 1.388 . S
C34 C39 1.418 . S
C35 H30 0.930 . S
C35 C38 1.404 . S
C35 C39 1.353 . S
N36 Co1 2.145 1_655 S
N36 C37 1.397 . S
N36 C38 1.334 . S
C37 H18 0.929 1_655 S
C37 C34 1.388 . S
C37 N36 1.397 . S
C38 H19 0.929 . S
C38 C35 1.404 . S
C38 N36 1.334 . S
C39 H31 0.930 . S
C39 C34 1.418 . S
C39 C35 1.353 . S
C40 H10 0.930 . S
C40 N41 1.330 . S
C40 C42 1.446 . S
N41 Co0 2.151 . S
N41 C40 1.330 . S
N41 C45 1.418 . S
C42 H21 0.929 . S
C42 C40 1.446 . S
C42 C43 1.332 . S
C43 H23 0.931 . S
C43 C42 1.332 . S
C43 C44 1.267 . S
C44 H12 0.929 . S
C44 C43 1.267 . S
C44 C45 1.251 . S
C45 H15 0.929 . S
C45 N41 1.418 . S
C45 C44 1.251 . S
C46 H13 0.930 . S
C46 C48 1.406 . S
C46 C51 1.261 . S
C47 H14 0.930 . S
C47 N49 1.325 . S
C47 C50 1.357 . S
C48 H16 0.928 . S
C48 C46 1.406 . S
C48 N49 1.261 . S
N49 Co0 2.214 . S
N49 C47 1.325 . S
N49 C48 1.261 . S
C50 H20 0.931 . S
C50 C47 1.357 . S
C50 C51 1.312 . S
C51 H22 0.930 . S
C51 C46 1.261 . S
C51 C50 1.312 . S
C52 O24 1.214 . S
C52 O32 1.234 . S
C53 H25 0.929 . S
C53 C56 1.391 . S
C53 C58 1.391 . S
C54 H26 0.929 . S
C54 C55 1.390 . S
C54 N57 1.391 . S
C55 H27 0.930 . S
C55 C54 1.390 . S
C55 C56 1.392 . S
C56 H28 0.929 . S
C56 C53 1.391 . S
C56 C55 1.392 . S
N57 Co1 2.257 1_655 S
N57 C54 1.391 . S
N57 C58 1.388 . S
C58 H29 0.930 . S
C58 C53 1.391 . S
C58 N57 1.388 . S
Co59 O61 2.143 . S
Co59 O67 2.074 . S
Co59 O70 2.093 . S
Co59 O83 2.097 . S
Co59 N100 2.151 . S
Co59 N108 2.214 . S
Co60 O61 2.160 . S
Co60 O66 2.058 . S
Co60 O76 2.057 . S
Co60 O91 2.037 . S
Co60 N95 2.145 1_545 S
Co60 N116 2.257 1_545 S
O61 Co59 2.143 . S
O61 Co60 2.160 . S
C62 O63 1.278 . S
C62 O70 1.224 . S
O63 C62 1.278 . S
C64 O65 1.245 . S
C64 O76 1.232 . S
O65 C64 1.245 . S
O66 Co60 2.058 . S
O66 C92 1.269 . S
O67 Co59 2.074 . S
O67 C92 1.257 . S
H68 C93 0.930 . S
H69 C99 0.930 . S
O70 Co59 2.093 . S
O70 C62 1.224 . S
H71 C103 0.929 . S
H72 C105 0.930 . S
H73 C106 0.930 . S
H74 C104 0.929 . S
H75 C107 0.928 . S
O76 Co60 2.057 . S
O76 C64 1.232 . S
H77 C96 0.929 1_545 S
H78 C97 0.929 . S
H79 C109 0.931 . S
H80 C101 0.929 . S
H81 C110 0.930 . S
H82 C102 0.931 . S
O83 Co59 2.097 . S
O83 C111 1.214 . S
H84 C112 0.929 . S
H85 C113 0.929 . S
H86 C114 0.930 . S
H87 C115 0.929 . S
H88 C117 0.930 . S
H89 C94 0.930 . S
H90 C98 0.930 . S
O91 Co60 2.037 . S
O91 C111 1.234 . S
C92 O66 1.269 . S
C92 O67 1.257 . S
C93 H68 0.930 . S
C93 C96 1.388 . S
C93 C98 1.418 . S
C94 H89 0.930 . S
C94 C97 1.404 . S
C94 C98 1.353 . S
N95 Co60 2.145 1_565 S
N95 C96 1.397 . S
N95 C97 1.334 . S
C96 H77 0.929 1_565 S
C96 C93 1.388 . S
C96 N95 1.397 . S
C97 H78 0.929 . S
C97 C94 1.404 . S
C97 N95 1.334 . S
C98 H90 0.930 . S
C98 C93 1.418 . S
C98 C94 1.353 . S
C99 H69 0.930 . S
C99 N100 1.330 . S
C99 C101 1.446 . S
N100 Co59 2.151 . S
N100 C99 1.330 . S
N100 C104 1.418 . S
C101 H80 0.929 . S
C101 C99 1.446 . S
C101 C102 1.332 . S
C102 H82 0.931 . S
C102 C101 1.332 . S
C102 C103 1.267 . S
C103 H71 0.929 . S
C103 C102 1.267 . S
C103 C104 1.251 . S
C104 H74 0.929 . S
C104 N100 1.418 . S
C104 C103 1.251 . S
C105 H72 0.930 . S
C105 C107 1.406 . S
C105 C110 1.261 . S
C106 H73 0.930 . S
C106 N108 1.325 . S
C106 C109 1.357 . S
C107 H75 0.928 . S
C107 C105 1.406 . S
C107 N108 1.261 . S
N108 Co59 2.214 . S
N108 C106 1.325 . S
N108 C107 1.261 . S
C109 H79 0.931 . S
C109 C106 1.357 . S
C109 C110 1.312 . S
C110 H81 0.930 . S
C110 C105 1.261 . S
C110 C109 1.312 . S
C111 O83 1.214 . S
C111 O91 1.234 . S
C112 H84 0.929 . S
C112 C115 1.391 . S
C112 C117 1.391 . S
C113 H85 0.929 . S
C113 C114 1.390 . S
C113 N116 1.391 . S
C114 H86 0.930 . S
C114 C113 1.390 . S
C114 C115 1.392 . S
C115 H87 0.929 . S
C115 C112 1.391 . S
C115 C114 1.392 . S
N116 Co60 2.257 1_565 S
N116 C113 1.391 . S
N116 C117 1.388 . S
C117 H88 0.930 . S
C117 C112 1.391 . S
C117 N116 1.388 . S
Co118 O120 2.143 . S
Co118 O126 2.074 . S
Co118 O129 2.093 . S
Co118 O142 2.097 . S
Co118 N159 2.151 . S
Co118 N167 2.214 . S
Co119 O120 2.160 . S
Co119 O125 2.058 . S
Co119 O135 2.057 . S
Co119 O150 2.037 . S
Co119 N154 2.145 1_655 S
Co119 N175 2.257 1_655 S
O120 Co118 2.143 . S
O120 Co119 2.160 . S
C121 O122 1.278 . S
C121 O129 1.224 . S
O122 C121 1.278 . S
C123 O124 1.245 . S
C123 O135 1.232 . S
O124 C123 1.245 . S
O125 Co119 2.058 . S
O125 C151 1.269 . S
O126 Co118 2.074 . S
O126 C151 1.257 . S
H127 C152 0.930 . S
H128 C158 0.930 . S
O129 Co118 2.093 . S
O129 C121 1.224 . S
H130 C162 0.929 . S
H131 C164 0.930 . S
H132 C165 0.930 . S
H133 C163 0.929 . S
H134 C166 0.928 . S
O135 Co119 2.057 . S
O135 C123 1.232 . S
H136 C155 0.929 1_655 S
H137 C156 0.929 . S
H138 C168 0.931 . S
H139 C160 0.929 . S
H140 C169 0.930 . S
H141 C161 0.931 . S
O142 Co118 2.097 . S
O142 C170 1.214 . S
H143 C171 0.929 . S
H144 C172 0.929 . S
H145 C173 0.930 . S
H146 C174 0.929 . S
H147 C176 0.930 . S
H148 C153 0.930 . S
H149 C157 0.930 . S
O150 Co119 2.037 . S
O150 C170 1.234 . S
C151 O125 1.269 . S
C151 O126 1.257 . S
C152 H127 0.930 . S
C152 C155 1.388 . S
C152 C157 1.418 . S
C153 H148 0.930 . S
C153 C156 1.404 . S
C153 C157 1.353 . S
N154 Co119 2.145 1_455 S
N154 C155 1.397 . S
N154 C156 1.334 . S
C155 H136 0.929 1_455 S
C155 C152 1.388 . S
C155 N154 1.397 . S
C156 H137 0.929 . S
C156 C153 1.404 . S
C156 N154 1.334 . S
C157 H149 0.930 . S
C157 C152 1.418 . S
C157 C153 1.353 . S
C158 H128 0.930 . S
C158 N159 1.330 . S
C158 C160 1.446 . S
N159 Co118 2.151 . S
N159 C158 1.330 . S
N159 C163 1.418 . S
C160 H139 0.929 . S
C160 C158 1.446 . S
C160 C161 1.332 . S
C161 H141 0.931 . S
C161 C160 1.332 . S
C161 C162 1.267 . S
C162 H130 0.929 . S
C162 C161 1.267 . S
C162 C163 1.251 . S
C163 H133 0.929 . S
C163 N159 1.418 . S
C163 C162 1.251 . S
C164 H131 0.930 . S
C164 C166 1.406 . S
C164 C169 1.261 . S
C165 H132 0.930 . S
C165 N167 1.325 . S
C165 C168 1.357 . S
C166 H134 0.928 . S
C166 C164 1.406 . S
C166 N167 1.261 . S
N167 Co118 2.214 . S
N167 C165 1.325 . S
N167 C166 1.261 . S
C168 H138 0.931 . S
C168 C165 1.357 . S
C168 C169 1.312 . S
C169 H140 0.930 . S
C169 C164 1.261 . S
C169 C168 1.312 . S
C170 O142 1.214 . S
C170 O150 1.234 . S
C171 H143 0.929 . S
C171 C174 1.391 . S
C171 C176 1.391 . S
C172 H144 0.929 . S
C172 C173 1.390 . S
C172 N175 1.391 . S
C173 H145 0.930 . S
C173 C172 1.390 . S
C173 C174 1.392 . S
C174 H146 0.929 . S
C174 C171 1.391 . S
C174 C173 1.392 . S
N175 Co119 2.257 1_455 S
N175 C172 1.391 . S
N175 C176 1.388 . S
C176 H147 0.930 . S
C176 C171 1.391 . S
C176 N175 1.388 . S
Co177 O179 2.143 . S
Co177 O185 2.074 . S
Co177 O188 2.093 . S
Co177 O201 2.097 . S
Co177 N218 2.151 . S
Co177 N226 2.214 . S
Co178 O179 2.160 . S
Co178 O184 2.058 . S
Co178 O194 2.057 . S
Co178 O209 2.037 . S
Co178 N213 2.145 1_565 S
Co178 N234 2.257 1_565 S
O179 Co177 2.143 . S
O179 Co178 2.160 . S
C180 O181 1.278 . S
C180 O188 1.224 . S
O181 C180 1.278 . S
C182 O183 1.245 . S
C182 O194 1.232 . S
O183 C182 1.245 . S
O184 Co178 2.058 . S
O184 C210 1.269 . S
O185 Co177 2.074 . S
O185 C210 1.257 . S
H186 C211 0.930 . S
H187 C217 0.930 . S
O188 Co177 2.093 . S
O188 C180 1.224 . S
H189 C221 0.929 . S
H190 C223 0.930 . S
H191 C224 0.930 . S
H192 C222 0.929 . S
H193 C225 0.928 . S
O194 Co178 2.057 . S
O194 C182 1.232 . S
H195 C214 0.929 1_565 S
H196 C215 0.929 . S
H197 C227 0.931 . S
H198 C219 0.929 . S
H199 C228 0.930 . S
H200 C220 0.931 . S
O201 Co177 2.097 . S
O201 C229 1.214 . S
H202 C230 0.929 . S
H203 C231 0.929 . S
H204 C232 0.930 . S
H205 C233 0.929 . S
H206 C235 0.930 . S
H207 C212 0.930 . S
H208 C216 0.930 . S
O209 Co178 2.037 . S
O209 C229 1.234 . S
C210 O184 1.269 . S
C210 O185 1.257 . S
C211 H186 0.930 . S
C211 C214 1.388 . S
C211 C216 1.418 . S
C212 H207 0.930 . S
C212 C215 1.404 . S
C212 C216 1.353 . S
N213 Co178 2.145 1_545 S
N213 C214 1.397 . S
N213 C215 1.334 . S
C214 H195 0.929 1_545 S
C214 C211 1.388 . S
C214 N213 1.397 . S
C215 H196 0.929 . S
C215 C212 1.404 . S
C215 N213 1.334 . S
C216 H208 0.930 . S
C216 C211 1.418 . S
C216 C212 1.353 . S
C217 H187 0.930 . S
C217 N218 1.330 . S
C217 C219 1.446 . S
N218 Co177 2.151 . S
N218 C217 1.330 . S
N218 C222 1.418 . S
C219 H198 0.929 . S
C219 C217 1.446 . S
C219 C220 1.332 . S
C220 H200 0.931 . S
C220 C219 1.332 . S
C220 C221 1.267 . S
C221 H189 0.929 . S
C221 C220 1.267 . S
C221 C222 1.251 . S
C222 H192 0.929 . S
C222 N218 1.418 . S
C222 C221 1.251 . S
C223 H190 0.930 . S
C223 C225 1.406 . S
C223 C228 1.261 . S
C224 H191 0.930 . S
C224 N226 1.325 . S
C224 C227 1.357 . S
C225 H193 0.928 . S
C225 C223 1.406 . S
C225 N226 1.261 . S
N226 Co177 2.214 . S
N226 C224 1.325 . S
N226 C225 1.261 . S
C227 H197 0.931 . S
C227 C224 1.357 . S
C227 C228 1.312 . S
C228 H199 0.930 . S
C228 C223 1.261 . S
C228 C227 1.312 . S
C229 O201 1.214 . S
C229 O209 1.234 . S
C230 H202 0.929 . S
C230 C233 1.391 . S
C230 C235 1.391 . S
C231 H203 0.929 . S
C231 C232 1.390 . S
C231 N234 1.391 . S
C232 H204 0.930 . S
C232 C231 1.390 . S
C232 C233 1.392 . S
C233 H205 0.929 . S
C233 C230 1.391 . S
C233 C232 1.392 . S
N234 Co178 2.257 1_545 S
N234 C231 1.391 . S
N234 C235 1.388 . S
C235 H206 0.930 . S
C235 C230 1.391 . S
C235 N234 1.388 . S
Co236 O238 2.143 . S
Co236 O244 2.074 . S
Co236 O247 2.093 . S
Co236 O260 2.097 . S
Co236 N277 2.151 . S
Co236 N285 2.214 . S
Co237 O238 2.160 . S
Co237 O243 2.058 . S
Co237 O253 2.057 . S
Co237 O268 2.037 . S
Co237 N272 2.145 1_455 S
Co237 N293 2.257 1_455 S
O238 Co236 2.143 . S
O238 Co237 2.160 . S
C239 O240 1.278 . S
C239 O247 1.224 . S
O240 C239 1.278 . S
C241 O242 1.245 . S
C241 O253 1.232 . S
O242 C241 1.245 . S
O243 Co237 2.058 . S
O243 C269 1.269 . S
O244 Co236 2.074 . S
O244 C269 1.257 . S
H245 C270 0.930 . S
H246 C276 0.930 . S
O247 Co236 2.093 . S
O247 C239 1.224 . S
H248 C280 0.929 . S
H249 C282 0.930 . S
H250 C283 0.930 . S
H251 C281 0.929 . S
H252 C284 0.928 . S
O253 Co237 2.057 . S
O253 C241 1.232 . S
H254 C273 0.929 1_455 S
H255 C274 0.929 . S
H256 C286 0.931 . S
H257 C278 0.929 . S
H258 C287 0.930 . S
H259 C279 0.931 . S
O260 Co236 2.097 . S
O260 C288 1.214 . S
H261 C289 0.929 . S
H262 C290 0.929 . S
H263 C291 0.930 . S
H264 C292 0.929 . S
H265 C294 0.930 . S
H266 C271 0.930 . S
H267 C275 0.930 . S
O268 Co237 2.037 . S
O268 C288 1.234 . S
C269 O243 1.269 . S
C269 O244 1.257 . S
C270 H245 0.930 . S
C270 C273 1.388 . S
C270 C275 1.418 . S
C271 H266 0.930 . S
C271 C274 1.404 . S
C271 C275 1.353 . S
N272 Co237 2.145 1_655 S
N272 C273 1.397 . S
N272 C274 1.334 . S
C273 H254 0.929 1_655 S
C273 C270 1.388 . S
C273 N272 1.397 . S
C274 H255 0.929 . S
C274 C271 1.404 . S
C274 N272 1.334 . S
C275 H267 0.930 . S
C275 C270 1.418 . S
C275 C271 1.353 . S
C276 H246 0.930 . S
C276 N277 1.330 . S
C276 C278 1.446 . S
N277 Co236 2.151 . S
N277 C276 1.330 . S
N277 C281 1.418 . S
C278 H257 0.929 . S
C278 C276 1.446 . S
C278 C279 1.332 . S
C279 H259 0.931 . S
C279 C278 1.332 . S
C279 C280 1.267 . S
C280 H248 0.929 . S
C280 C279 1.267 . S
C280 C281 1.251 . S
C281 H251 0.929 . S
C281 N277 1.418 . S
C281 C280 1.251 . S
C282 H249 0.930 . S
C282 C284 1.406 . S
C282 C287 1.261 . S
C283 H250 0.930 . S
C283 N285 1.325 . S
C283 C286 1.357 . S
C284 H252 0.928 . S
C284 C282 1.406 . S
C284 N285 1.261 . S
N285 Co236 2.214 . S
N285 C283 1.325 . S
N285 C284 1.261 . S
C286 H256 0.931 . S
C286 C283 1.357 . S
C286 C287 1.312 . S
C287 H258 0.930 . S
C287 C282 1.261 . S
C287 C286 1.312 . S
C288 O260 1.214 . S
C288 O268 1.234 . S
C289 H261 0.929 . S
C289 C292 1.391 . S
C289 C294 1.391 . S
C290 H262 0.929 . S
C290 C291 1.390 . S
C290 N293 1.391 . S
C291 H263 0.930 . S
C291 C290 1.390 . S
C291 C292 1.392 . S
C292 H264 0.929 . S
C292 C289 1.391 . S
C292 C291 1.392 . S
N293 Co237 2.257 1_655 S
N293 C290 1.391 . S
N293 C294 1.388 . S
C294 H265 0.930 . S
C294 C289 1.391 . S
C294 N293 1.388 . S
Co295 O297 2.143 . S
Co295 O303 2.074 . S
Co295 O306 2.093 . S
Co295 O319 2.097 . S
Co295 N336 2.151 . S
Co295 N344 2.214 . S
Co296 O297 2.160 . S
Co296 O302 2.058 . S
Co296 O312 2.057 . S
Co296 O327 2.037 . S
Co296 N331 2.145 1_545 S
Co296 N352 2.257 1_545 S
O297 Co295 2.143 . S
O297 Co296 2.160 . S
C298 O299 1.278 . S
C298 O306 1.224 . S
O299 C298 1.278 . S
C300 O301 1.245 . S
C300 O312 1.232 . S
O301 C300 1.245 . S
O302 Co296 2.058 . S
O302 C328 1.269 . S
O303 Co295 2.074 . S
O303 C328 1.257 . S
H304 C329 0.930 . S
H305 C335 0.930 . S
O306 Co295 2.093 . S
O306 C298 1.224 . S
H307 C339 0.929 . S
H308 C341 0.930 . S
H309 C342 0.930 . S
H310 C340 0.929 . S
H311 C343 0.928 . S
O312 Co296 2.057 . S
O312 C300 1.232 . S
H313 C332 0.929 1_545 S
H314 C333 0.929 . S
H315 C345 0.931 . S
H316 C337 0.929 . S
H317 C346 0.930 . S
H318 C338 0.931 . S
O319 Co295 2.097 . S
O319 C347 1.214 . S
H320 C348 0.929 . S
H321 C349 0.929 . S
H322 C350 0.930 . S
H323 C351 0.929 . S
H324 C353 0.930 . S
H325 C330 0.930 . S
H326 C334 0.930 . S
O327 Co296 2.037 . S
O327 C347 1.234 . S
C328 O302 1.269 . S
C328 O303 1.257 . S
C329 H304 0.930 . S
C329 C332 1.388 . S
C329 C334 1.418 . S
C330 H325 0.930 . S
C330 C333 1.404 . S
C330 C334 1.353 . S
N331 Co296 2.145 1_565 S
N331 C332 1.397 . S
N331 C333 1.334 . S
C332 H313 0.929 1_565 S
C332 C329 1.388 . S
C332 N331 1.397 . S
C333 H314 0.929 . S
C333 C330 1.404 . S
C333 N331 1.334 . S
C334 H326 0.930 . S
C334 C329 1.418 . S
C334 C330 1.353 . S
C335 H305 0.930 . S
C335 N336 1.330 . S
C335 C337 1.446 . S
N336 Co295 2.151 . S
N336 C335 1.330 . S
N336 C340 1.418 . S
C337 H316 0.929 . S
C337 C335 1.446 . S
C337 C338 1.332 . S
C338 H318 0.931 . S
C338 C337 1.332 . S
C338 C339 1.267 . S
C339 H307 0.929 . S
C339 C338 1.267 . S
C339 C340 1.251 . S
C340 H310 0.929 . S
C340 N336 1.418 . S
C340 C339 1.251 . S
C341 H308 0.930 . S
C341 C343 1.406 . S
C341 C346 1.261 . S
C342 H309 0.930 . S
C342 N344 1.325 . S
C342 C345 1.357 . S
C343 H311 0.928 . S
C343 C341 1.406 . S
C343 N344 1.261 . S
N344 Co295 2.214 . S
N344 C342 1.325 . S
N344 C343 1.261 . S
C345 H315 0.931 . S
C345 C342 1.357 . S
C345 C346 1.312 . S
C346 H317 0.930 . S
C346 C341 1.261 . S
C346 C345 1.312 . S
C347 O319 1.214 . S
C347 O327 1.234 . S
C348 H320 0.929 . S
C348 C351 1.391 . S
C348 C353 1.391 . S
C349 H321 0.929 . S
C349 C350 1.390 . S
C349 N352 1.391 . S
C350 H322 0.930 . S
C350 C349 1.390 . S
C350 C351 1.392 . S
C351 H323 0.929 . S
C351 C348 1.391 . S
C351 C350 1.392 . S
N352 Co296 2.257 1_565 S
N352 C349 1.391 . S
N352 C353 1.388 . S
C353 H324 0.930 . S
C353 C348 1.391 . S
C353 N352 1.388 . S
Co354 O356 2.143 . S
Co354 O362 2.074 . S
Co354 O365 2.093 . S
Co354 O378 2.097 . S
Co354 N395 2.151 . S
Co354 N403 2.214 . S
Co355 O356 2.160 . S
Co355 O361 2.058 . S
Co355 O371 2.057 . S
Co355 O386 2.037 . S
Co355 N390 2.145 1_655 S
Co355 N411 2.257 1_655 S
O356 Co354 2.143 . S
O356 Co355 2.160 . S
C357 O358 1.278 . S
C357 O365 1.224 . S
O358 C357 1.278 . S
C359 O360 1.245 . S
C359 O371 1.232 . S
O360 C359 1.245 . S
O361 Co355 2.058 . S
O361 C387 1.269 . S
O362 Co354 2.074 . S
O362 C387 1.257 . S
H363 C388 0.930 . S
H364 C394 0.930 . S
O365 Co354 2.093 . S
O365 C357 1.224 . S
H366 C398 0.929 . S
H367 C400 0.930 . S
H368 C401 0.930 . S
H369 C399 0.929 . S
H370 C402 0.928 . S
O371 Co355 2.057 . S
O371 C359 1.232 . S
H372 C391 0.929 1_655 S
H373 C392 0.929 . S
H374 C404 0.931 . S
H375 C396 0.929 . S
H376 C405 0.930 . S
H377 C397 0.931 . S
O378 Co354 2.097 . S
O378 C406 1.214 . S
H379 C407 0.929 . S
H380 C408 0.929 . S
H381 C409 0.930 . S
H382 C410 0.929 . S
H383 C412 0.930 . S
H384 C389 0.930 . S
H385 C393 0.930 . S
O386 Co355 2.037 . S
O386 C406 1.234 . S
C387 O361 1.269 . S
C387 O362 1.257 . S
C388 H363 0.930 . S
C388 C391 1.388 . S
C388 C393 1.418 . S
C389 H384 0.930 . S
C389 C392 1.404 . S
C389 C393 1.353 . S
N390 Co355 2.145 1_455 S
N390 C391 1.397 . S
N390 C392 1.334 . S
C391 H372 0.929 1_455 S
C391 C388 1.388 . S
C391 N390 1.397 . S
C392 H373 0.929 . S
C392 C389 1.404 . S
C392 N390 1.334 . S
C393 H385 0.930 . S
C393 C388 1.418 . S
C393 C389 1.353 . S
C394 H364 0.930 . S
C394 N395 1.330 . S
C394 C396 1.446 . S
N395 Co354 2.151 . S
N395 C394 1.330 . S
N395 C399 1.418 . S
C396 H375 0.929 . S
C396 C394 1.446 . S
C396 C397 1.332 . S
C397 H377 0.931 . S
C397 C396 1.332 . S
C397 C398 1.267 . S
C398 H366 0.929 . S
C398 C397 1.267 . S
C398 C399 1.251 . S
C399 H369 0.929 . S
C399 N395 1.418 . S
C399 C398 1.251 . S
C400 H367 0.930 . S
C400 C402 1.406 . S
C400 C405 1.261 . S
C401 H368 0.930 . S
C401 N403 1.325 . S
C401 C404 1.357 . S
C402 H370 0.928 . S
C402 C400 1.406 . S
C402 N403 1.261 . S
N403 Co354 2.214 . S
N403 C401 1.325 . S
N403 C402 1.261 . S
C404 H374 0.931 . S
C404 C401 1.357 . S
C404 C405 1.312 . S
C405 H376 0.930 . S
C405 C400 1.261 . S
C405 C404 1.312 . S
C406 O378 1.214 . S
C406 O386 1.234 . S
C407 H379 0.929 . S
C407 C410 1.391 . S
C407 C412 1.391 . S
C408 H380 0.929 . S
C408 C409 1.390 . S
C408 N411 1.391 . S
C409 H381 0.930 . S
C409 C408 1.390 . S
C409 C410 1.392 . S
C410 H382 0.929 . S
C410 C407 1.391 . S
C410 C409 1.392 . S
N411 Co355 2.257 1_455 S
N411 C408 1.391 . S
N411 C412 1.388 . S
C412 H383 0.930 . S
C412 C407 1.391 . S
C412 N411 1.388 . S
Co413 O415 2.143 . S
Co413 O421 2.074 . S
Co413 O424 2.093 . S
Co413 O437 2.097 . S
Co413 N454 2.151 . S
Co413 N462 2.214 . S
Co414 O415 2.160 . S
Co414 O420 2.058 . S
Co414 O430 2.057 . S
Co414 O445 2.037 . S
Co414 N449 2.145 1_565 S
Co414 N470 2.257 1_565 S
O415 Co413 2.143 . S
O415 Co414 2.160 . S
C416 O417 1.278 . S
C416 O424 1.224 . S
O417 C416 1.278 . S
C418 O419 1.245 . S
C418 O430 1.232 . S
O419 C418 1.245 . S
O420 Co414 2.058 . S
O420 C446 1.269 . S
O421 Co413 2.074 . S
O421 C446 1.257 . S
H422 C447 0.930 . S
H423 C453 0.930 . S
O424 Co413 2.093 . S
O424 C416 1.224 . S
H425 C457 0.929 . S
H426 C459 0.930 . S
H427 C460 0.930 . S
H428 C458 0.929 . S
H429 C461 0.928 . S
O430 Co414 2.057 . S
O430 C418 1.232 . S
H431 C450 0.929 1_565 S
H432 C451 0.929 . S
H433 C463 0.931 . S
H434 C455 0.929 . S
H435 C464 0.930 . S
H436 C456 0.931 . S
O437 Co413 2.097 . S
O437 C465 1.214 . S
H438 C466 0.929 . S
H439 C467 0.929 . S
H440 C468 0.930 . S
H441 C469 0.929 . S
H442 C471 0.930 . S
H443 C448 0.930 . S
H444 C452 0.930 . S
O445 Co414 2.037 . S
O445 C465 1.234 . S
C446 O420 1.269 . S
C446 O421 1.257 . S
C447 H422 0.930 . S
C447 C450 1.388 . S
C447 C452 1.418 . S
C448 H443 0.930 . S
C448 C451 1.404 . S
C448 C452 1.353 . S
N449 Co414 2.145 1_545 S
N449 C450 1.397 . S
N449 C451 1.334 . S
C450 H431 0.929 1_545 S
C450 C447 1.388 . S
C450 N449 1.397 . S
C451 H432 0.929 . S
C451 C448 1.404 . S
C451 N449 1.334 . S
C452 H444 0.930 . S
C452 C447 1.418 . S
C452 C448 1.353 . S
C453 H423 0.930 . S
C453 N454 1.330 . S
C453 C455 1.446 . S
N454 Co413 2.151 . S
N454 C453 1.330 . S
N454 C458 1.418 . S
C455 H434 0.929 . S
C455 C453 1.446 . S
C455 C456 1.332 . S
C456 H436 0.931 . S
C456 C455 1.332 . S
C456 C457 1.267 . S
C457 H425 0.929 . S
C457 C456 1.267 . S
C457 C458 1.251 . S
C458 H428 0.929 . S
C458 N454 1.418 . S
C458 C457 1.251 . S
C459 H426 0.930 . S
C459 C461 1.406 . S
C459 C464 1.261 . S
C460 H427 0.930 . S
C460 N462 1.325 . S
C460 C463 1.357 . S
C461 H429 0.928 . S
C461 C459 1.406 . S
C461 N462 1.261 . S
N462 Co413 2.214 . S
N462 C460 1.325 . S
N462 C461 1.261 . S
C463 H433 0.931 . S
C463 C460 1.357 . S
C463 C464 1.312 . S
C464 H435 0.930 . S
C464 C459 1.261 . S
C464 C463 1.312 . S
C465 O437 1.214 . S
C465 O445 1.234 . S
C466 H438 0.929 . S
C466 C469 1.391 . S
C466 C471 1.391 . S
C467 H439 0.929 . S
C467 C468 1.390 . S
C467 N470 1.391 . S
C468 H440 0.930 . S
C468 C467 1.390 . S
C468 C469 1.392 . S
C469 H441 0.929 . S
C469 C466 1.391 . S
C469 C468 1.392 . S
N470 Co414 2.257 1_545 S
N470 C467 1.391 . S
N470 C471 1.388 . S
C471 H442 0.930 . S
C471 C466 1.391 . S
C471 N470 1.388 . S
H472 C480 0.929 . S
H473 C482 0.930 . S
H474 C484 0.930 . S
H475 C487 0.929 . S
H476 C490 0.930 . S
H477 C492 0.960 . S
H478 C492 0.960 . S
H479 C492 0.960 . S
C480 H472 0.929 . S
C480 C481 1.377 1_655 S
C480 C482 1.384 . S
C481 C480 1.377 1_455 S
C481 C487 1.390 . S
C482 H473 0.930 . S
C482 C480 1.384 . S
C482 C483 1.372 1_655 S
C483 C482 1.372 1_455 S
C483 C484 1.400 . S
C483 C488 1.490 . S
C484 H474 0.930 . S
C484 C483 1.400 . S
C484 C487 1.386 . S
H485 C501 0.930 . S
H486 C502 0.931 . S
C487 H475 0.929 . S
C487 C481 1.390 . S
C487 C484 1.386 . S
C488 C483 1.490 . S
C488 C490 1.395 1_455 S
C488 C491 1.403 . S
H489 C495 0.930 . S
C490 H476 0.930 . S
C490 C488 1.395 1_655 S
C490 C493 1.403 . S
C491 C488 1.403 . S
C491 C492 1.524 . S
C491 C495 1.400 . S
C492 H477 0.960 . S
C492 H478 0.960 . S
C492 H479 0.960 . S
C492 C491 1.524 . S
C493 C490 1.403 . S
C493 C494 1.392 . S
C493 C497 1.495 . S
C494 C493 1.392 . S
C494 C495 1.385 1_655 S
C494 C496 1.478 . S
C495 H489 0.930 . S
C495 C491 1.400 . S
C495 C494 1.385 1_455 S
C496 C494 1.478 . S
C496 C498 1.381 . S
C496 C502 1.383 1_655 S
C497 C493 1.495 . S
C497 H503 0.959 . S
C497 H504 0.961 . S
C497 H505 0.960 . S
C498 C496 1.381 . S
C498 C499 1.394 . S
C498 H506 0.930 . S
C499 C498 1.394 . S
C499 C500 1.383 . S
C499 H507 0.929 . S
C500 C499 1.383 . S
C500 C501 1.377 1_655 S
C501 H485 0.930 . S
C501 C500 1.377 1_455 S
C501 C502 1.379 . S
C502 H486 0.931 . S
C502 C496 1.383 1_455 S
C502 C501 1.379 . S
H503 C497 0.959 . S
H504 C497 0.961 . S
H505 C497 0.960 . S
H506 C498 0.930 . S
H507 C499 0.929 . S
H508 C516 0.929 . S
H509 C518 0.930 . S
H510 C520 0.930 . S
H511 C523 0.929 . S
H512 C526 0.929 1_565 S
H513 C528 0.960 . S
H514 C528 0.960 1_545 S
H515 C528 0.960 . S
C516 H508 0.929 . S
C516 C517 1.377 1_545 S
C516 C518 1.384 . S
C517 C516 1.377 1_565 S
C517 C523 1.390 . S
C518 H509 0.930 . S
C518 C516 1.384 . S
C518 C519 1.372 1_545 S
C519 C518 1.372 1_565 S
C519 C520 1.400 . S
C519 C524 1.490 . S
C520 H510 0.930 . S
C520 C519 1.400 . S
C520 C523 1.386 . S
H521 C537 0.930 . S
H522 C538 0.931 . S
C523 H511 0.929 . S
C523 C517 1.390 . S
C523 C520 1.386 . S
C524 C519 1.490 . S
C524 C526 1.394 1_565 S
C524 C527 1.403 . S
H525 C531 0.930 . S
C526 H512 0.929 1_545 S
C526 C524 1.394 1_545 S
C526 C529 1.404 . S
C527 C524 1.403 . S
C527 C528 1.524 . S
C527 C531 1.400 1_565 S
C528 H513 0.960 . S
C528 H514 0.960 1_565 S
C528 H515 0.960 . S
C528 C527 1.524 . S
C529 C526 1.404 . S
C529 C530 1.392 . S
C529 C533 1.495 . S
C530 C529 1.392 . S
C530 C531 1.385 . S
C530 C532 1.478 . S
C531 H525 0.930 . S
C531 C527 1.400 1_545 S
C531 C530 1.385 . S
C532 C530 1.478 . S
C532 C534 1.381 . S
C532 C538 1.383 1_545 S
C533 C529 1.495 . S
C533 H539 0.959 . S
C533 H540 0.961 1_545 S
C533 H541 0.960 . S
C534 C532 1.381 . S
C534 C535 1.394 . S
C534 H542 0.930 . S
C535 C534 1.394 . S
C535 C536 1.383 . S
C535 H543 0.929 . S
C536 C535 1.383 . S
C536 C537 1.377 1_545 S
C537 H521 0.930 . S
C537 C536 1.377 1_565 S
C537 C538 1.379 . S
C538 H522 0.931 . S
C538 C532 1.383 1_565 S
C538 C537 1.379 . S
H539 C533 0.959 . S
H540 C533 0.961 1_565 S
H541 C533 0.960 . S
H542 C534 0.930 . S
H543 C535 0.929 . S
H544 C552 0.929 . S
H545 C554 0.930 . S
H546 C556 0.930 . S
H547 C559 0.929 . S
H548 C562 0.930 . S
H549 C564 0.960 . S
H550 C564 0.960 . S
H551 C564 0.960 . S
C552 H544 0.929 . S
C552 C553 1.377 . S
C552 C554 1.384 . S
C553 C552 1.377 . S
C553 C559 1.390 . S
C554 H545 0.930 . S
C554 C552 1.384 . S
C554 C555 1.372 . S
C555 C554 1.372 . S
C555 C556 1.400 . S
C555 C560 1.490 . S
C556 H546 0.930 . S
C556 C555 1.400 . S
C556 C559 1.386 . S
H557 C573 0.930 . S
H558 C574 0.931 . S
C559 H547 0.929 . S
C559 C553 1.390 . S
C559 C556 1.386 . S
C560 C555 1.490 . S
C560 C562 1.395 1_655 S
C560 C563 1.403 . S
H561 C567 0.930 . S
C562 H548 0.930 . S
C562 C560 1.395 1_455 S
C562 C565 1.403 . S
C563 C560 1.403 . S
C563 C564 1.524 . S
C563 C567 1.400 . S
C564 H549 0.960 . S
C564 H550 0.960 . S
C564 H551 0.960 . S
C564 C563 1.524 . S
C565 C562 1.403 . S
C565 C566 1.392 . S
C565 C569 1.495 . S
C566 C565 1.392 . S
C566 C567 1.385 1_455 S
C566 C568 1.478 . S
C567 H561 0.930 . S
C567 C563 1.400 . S
C567 C566 1.385 1_655 S
C568 C566 1.478 . S
C568 C570 1.381 . S
C568 C574 1.383 . S
C569 C565 1.495 . S
C569 H575 0.959 . S
C569 H576 0.961 . S
C569 H577 0.960 . S
C570 C568 1.381 . S
C570 C571 1.394 . S
C570 H578 0.930 . S
C571 C570 1.394 . S
C571 C572 1.383 . S
C571 H579 0.929 . S
C572 C571 1.383 . S
C572 C573 1.377 . S
C573 H557 0.930 . S
C573 C572 1.377 . S
C573 C574 1.379 . S
C574 H558 0.931 . S
C574 C568 1.383 . S
C574 C573 1.379 . S
H575 C569 0.959 . S
H576 C569 0.961 . S
H577 C569 0.960 . S
H578 C570 0.930 . S
H579 C571 0.929 . S
H580 C588 0.929 . S
H581 C590 0.929 1_565 S
H582 C592 0.930 . S
H583 C595 0.929 . S
H584 C598 0.930 . S
H585 C600 0.960 . S
H586 C600 0.960 . S
H587 C600 0.960 . S
C588 H580 0.929 . S
C588 C589 1.377 . S
C588 C590 1.384 . S
C589 C588 1.377 . S
C589 C595 1.390 . S
C590 H581 0.929 1_545 S
C590 C588 1.384 . S
C590 C591 1.372 . S
C591 C590 1.372 . S
C591 C592 1.400 . S
C591 C596 1.490 . S
C592 H582 0.930 . S
C592 C591 1.400 . S
C592 C595 1.386 . S
H593 C609 0.930 . S
H594 C610 0.931 1_545 S
C595 H583 0.929 . S
C595 C589 1.390 . S
C595 C592 1.386 . S
C596 C591 1.490 . S
C596 C598 1.395 . S
C596 C599 1.403 1_545 S
H597 C603 0.930 . S
C598 H584 0.930 . S
C598 C596 1.395 . S
C598 C601 1.403 . S
C599 C596 1.403 1_565 S
C599 C600 1.524 . S
C599 C603 1.400 . S
C600 H585 0.960 . S
C600 H586 0.960 . S
C600 H587 0.960 . S
C600 C599 1.524 . S
C601 C598 1.403 . S
C601 C602 1.392 1_545 S
C601 C605 1.495 . S
C602 C601 1.392 1_565 S
C602 C603 1.385 . S
C602 C604 1.478 . S
C603 H597 0.930 . S
C603 C599 1.400 . S
C603 C602 1.385 . S
C604 C602 1.478 . S
C604 C606 1.381 . S
C604 C610 1.383 . S
C605 C601 1.495 . S
C605 H611 0.959 . S
C605 H612 0.961 . S
C605 H613 0.960 . S
C606 C604 1.381 . S
C606 C607 1.394 . S
C606 H614 0.930 . S
C607 C606 1.394 . S
C607 C608 1.383 . S
C607 H615 0.929 . S
C608 C607 1.383 . S
C608 C609 1.377 . S
C609 H593 0.930 . S
C609 C608 1.377 . S
C609 C610 1.379 . S
C610 H594 0.931 1_565 S
C610 C604 1.383 . S
C610 C609 1.379 . S
H611 C605 0.959 . S
H612 C605 0.961 . S
H613 C605 0.960 . S
H614 C606 0.930 . S
H615 C607 0.929 . S
H616 C624 0.929 . S
H617 C626 0.930 . S
H618 C628 0.930 . S
H619 C631 0.929 . S
H620 C634 0.930 . S
H621 C636 0.960 1_554 S
H622 C636 0.960 . S
H623 C636 0.960 . S
C624 H616 0.929 . S
C624 C625 1.377 . S
C624 C626 1.384 . S
C625 C624 1.377 . S
C625 C631 1.390 . S
C626 H617 0.930 . S
C626 C624 1.384 . S
C626 C627 1.372 . S
C627 C626 1.372 . S
C627 C628 1.400 . S
C627 C632 1.490 . S
C628 H618 0.930 . S
C628 C627 1.400 . S
C628 C631 1.386 . S
H629 C645 0.930 . S
H630 C646 0.931 . S
C631 H619 0.929 . S
C631 C625 1.390 . S
C631 C628 1.386 . S
C632 C627 1.490 . S
C632 C634 1.395 1_655 S
C632 C635 1.403 . S
H633 C639 0.930 . S
C634 H620 0.930 . S
C634 C632 1.395 1_455 S
C634 C637 1.403 1_556 S
C635 C632 1.403 . S
C635 C636 1.524 . S
C635 C639 1.400 1_556 S
C636 H621 0.960 1_556 S
C636 H622 0.960 . S
C636 H623 0.960 . S
C636 C635 1.524 . S
C637 C634 1.403 1_554 S
C637 C638 1.392 . S
C637 C641 1.495 . S
C638 C637 1.392 . S
C638 C639 1.385 1_455 S
C638 C640 1.478 . S
C639 H633 0.930 . S
C639 C635 1.400 1_554 S
C639 C638 1.385 1_655 S
C640 C638 1.478 . S
C640 C642 1.381 . S
C640 C646 1.383 . S
C641 C637 1.495 . S
C641 H647 0.959 1_554 S
C641 H648 0.961 . S
C641 H649 0.960 . S
C642 C640 1.381 . S
C642 C643 1.394 . S
C642 H650 0.930 . S
C643 C642 1.394 . S
C643 C644 1.383 . S
C643 H651 0.929 . S
C644 C643 1.383 . S
C644 C645 1.377 . S
C645 H629 0.930 . S
C645 C644 1.377 . S
C645 C646 1.379 . S
C646 H630 0.931 . S
C646 C640 1.383 . S
C646 C645 1.379 . S
H647 C641 0.959 1_556 S
H648 C641 0.961 . S
H649 C641 0.960 . S
H650 C642 0.930 . S
H651 C643 0.929 . S
H652 C660 0.929 . S
H653 C662 0.930 . S
H654 C664 0.930 . S
H655 C667 0.929 . S
H656 C670 0.930 . S
H657 C672 0.960 . S
H658 C672 0.960 . S
H659 C672 0.960 . S
C660 H652 0.929 . S
C660 C661 1.377 . S
C660 C662 1.384 . S
C661 C660 1.377 . S
C661 C667 1.390 . S
C662 H653 0.930 . S
C662 C660 1.384 . S
C662 C663 1.372 . S
C663 C662 1.372 . S
C663 C664 1.400 . S
C663 C668 1.490 . S
C664 H654 0.930 . S
C664 C663 1.400 . S
C664 C667 1.386 . S
H665 C681 0.930 . S
H666 C682 0.931 . S
C667 H655 0.929 . S
C667 C661 1.390 . S
C667 C664 1.386 . S
C668 C663 1.490 . S
C668 C670 1.395 . S
C668 C671 1.403 1_545 S
H669 C675 0.930 . S
C670 H656 0.930 . S
C670 C668 1.395 . S
C670 C673 1.403 . S
C671 C668 1.403 1_565 S
C671 C672 1.524 . S
C671 C675 1.400 . S
C672 H657 0.960 . S
C672 H658 0.960 . S
C672 H659 0.960 . S
C672 C671 1.524 . S
C673 C670 1.403 . S
C673 C674 1.392 1_545 S
C673 C677 1.495 . S
C674 C673 1.392 1_565 S
C674 C675 1.385 . S
C674 C676 1.478 . S
C675 H669 0.930 . S
C675 C671 1.400 . S
C675 C674 1.385 . S
C676 C674 1.478 . S
C676 C678 1.381 . S
C676 C682 1.383 . S
C677 C673 1.495 . S
C677 H683 0.959 . S
C677 H684 0.961 . S
C677 H685 0.960 . S
C678 C676 1.381 . S
C678 C679 1.394 . S
C678 H686 0.930 . S
C679 C678 1.394 . S
C679 C680 1.383 . S
C679 H687 0.929 . S
C680 C679 1.383 . S
C680 C681 1.377 . S
C681 H665 0.930 . S
C681 C680 1.377 . S
C681 C682 1.379 . S
C682 H666 0.931 . S
C682 C676 1.383 . S
C682 C681 1.379 . S
H683 C677 0.959 . S
H684 C677 0.961 . S
H685 C677 0.960 . S
H686 C678 0.930 . S
H687 C679 0.929 . S
H688 C696 0.929 . S
H689 C698 0.930 . S
H690 C700 0.930 1_455 S
H691 C703 0.929 . S
H692 C706 0.930 . S
H693 C708 0.960 . S
H694 C708 0.960 . S
H695 C708 0.960 . S
C696 H688 0.929 . S
C696 C697 1.377 . S
C696 C698 1.384 . S
C697 C696 1.377 . S
C697 C703 1.390 . S
C698 H689 0.930 . S
C698 C696 1.384 . S
C698 C699 1.372 . S
C699 C698 1.372 . S
C699 C700 1.400 . S
C699 C704 1.490 . S
C700 H690 0.930 1_655 S
C700 C699 1.400 . S
C700 C703 1.386 . S
H701 C717 0.930 . S
H702 C718 0.931 . S
C703 H691 0.929 . S
C703 C697 1.390 . S
C703 C700 1.386 . S
C704 C699 1.490 . S
C704 C706 1.395 . S
C704 C707 1.403 1_655 S
H705 C711 0.930 . S
C706 H692 0.930 . S
C706 C704 1.395 . S
C706 C709 1.403 1_554 S
C707 C704 1.403 1_455 S
C707 C708 1.524 . S
C707 C711 1.400 1_554 S
C708 H693 0.960 . S
C708 H694 0.960 . S
C708 H695 0.960 . S
C708 C707 1.524 . S
C709 C706 1.403 1_556 S
C709 C710 1.392 1_655 S
C709 C713 1.495 . S
C710 C709 1.392 1_455 S
C710 C711 1.385 . S
C710 C712 1.478 . S
C711 H705 0.930 . S
C711 C707 1.400 1_556 S
C711 C710 1.385 . S
C712 C710 1.478 . S
C712 C714 1.381 . S
C712 C718 1.383 . S
C713 C709 1.495 . S
C713 H719 0.959 . S
C713 H720 0.961 . S
C713 H721 0.960 . S
C714 C712 1.381 . S
C714 C715 1.394 . S
C714 H722 0.930 1_455 S
C715 C714 1.394 . S
C715 C716 1.383 . S
C715 H723 0.929 . S
C716 C715 1.383 . S
C716 C717 1.377 . S
C717 H701 0.930 . S
C717 C716 1.377 . S
C717 C718 1.379 . S
C718 H702 0.931 . S
C718 C712 1.383 . S
C718 C717 1.379 . S
H719 C713 0.959 . S
H720 C713 0.961 . S
H721 C713 0.960 . S
H722 C714 0.930 1_655 S
H723 C715 0.929 . S
H724 C732 0.929 . S
H725 C734 0.930 . S
H726 C736 0.930 . S
H727 C739 0.929 . S
H728 C742 0.930 . S
H729 C744 0.960 . S
H730 C744 0.960 . S
H731 C744 0.960 . S
C732 H724 0.929 . S
C732 C733 1.377 . S
C732 C734 1.384 . S
C733 C732 1.377 . S
C733 C739 1.390 . S
C734 H725 0.930 . S
C734 C732 1.384 . S
C734 C735 1.372 . S
C735 C734 1.372 . S
C735 C736 1.400 . S
C735 C740 1.490 . S
C736 H726 0.930 . S
C736 C735 1.400 . S
C736 C739 1.386 . S
H737 C753 0.930 . S
H738 C754 0.931 . S
C739 H727 0.929 . S
C739 C733 1.390 . S
C739 C736 1.386 . S
C740 C735 1.490 . S
C740 C742 1.395 1_545 S
C740 C743 1.403 . S
H741 C747 0.930 . S
C742 H728 0.930 . S
C742 C740 1.395 1_565 S
C742 C745 1.403 . S
C743 C740 1.403 . S
C743 C744 1.524 . S
C743 C747 1.400 . S
C744 H729 0.960 . S
C744 H730 0.960 . S
C744 H731 0.960 . S
C744 C743 1.524 . S
C745 C742 1.403 . S
C745 C746 1.392 . S
C745 C749 1.495 . S
C746 C745 1.392 . S
C746 C747 1.385 1_565 S
C746 C748 1.478 . S
C747 H741 0.930 . S
C747 C743 1.400 . S
C747 C746 1.385 1_545 S
C748 C746 1.478 . S
C748 C750 1.381 . S
C748 C754 1.383 . S
C749 C745 1.495 . S
C749 H755 0.959 . S
C749 H756 0.961 . S
C749 H757 0.960 . S
C750 C748 1.381 . S
C750 C751 1.394 . S
C750 H758 0.930 . S
C751 C750 1.394 . S
C751 C752 1.383 . S
C751 H759 0.929 . S
C752 C751 1.383 . S
C752 C753 1.377 . S
C753 H737 0.930 . S
C753 C752 1.377 . S
C753 C754 1.379 . S
C754 H738 0.931 . S
C754 C748 1.383 . S
C754 C753 1.379 . S
H755 C749 0.959 . S
H756 C749 0.961 . S
H757 C749 0.960 . S
H758 C750 0.930 . S
H759 C751 0.929 . S
H760 C768 0.929 . S
H761 C770 0.930 . S
H762 C772 0.930 . S
H763 C775 0.929 . S
H764 C778 0.930 . S
H765 C780 0.960 . S
H766 C780 0.960 . S
H767 C780 0.960 . S
C768 H760 0.929 . S
C768 C769 1.377 . S
C768 C770 1.384 . S
C769 C768 1.377 . S
C769 C775 1.390 . S
C770 H761 0.930 . S
C770 C768 1.384 . S
C770 C771 1.372 . S
C771 C770 1.372 . S
C771 C772 1.400 . S
C771 C776 1.490 . S
C772 H762 0.930 . S
C772 C771 1.400 . S
C772 C775 1.386 . S
H773 C789 0.930 . S
H774 C790 0.931 . S
C775 H763 0.929 . S
C775 C769 1.390 . S
C775 C772 1.386 . S
C776 C771 1.490 . S
C776 C778 1.395 . S
C776 C779 1.403 . S
H777 C783 0.930 . S
C778 H764 0.930 . S
C778 C776 1.395 . S
C778 C781 1.403 . S
C779 C776 1.403 . S
C779 C780 1.524 . S
C779 C783 1.400 . S
C780 H765 0.960 . S
C780 H766 0.960 . S
C780 H767 0.960 . S
C780 C779 1.524 . S
C781 C778 1.403 . S
C781 C782 1.392 . S
C781 C785 1.495 . S
C782 C781 1.392 . S
C782 C783 1.385 . S
C782 C784 1.478 . S
C783 H777 0.930 . S
C783 C779 1.400 . S
C783 C782 1.385 . S
C784 C782 1.478 . S
C784 C786 1.381 . S
C784 C790 1.383 . S
C785 C781 1.495 . S
C785 H791 0.959 . S
C785 H792 0.961 . S
C785 H793 0.960 . S
C786 C784 1.381 . S
C786 C787 1.394 . S
C786 H794 0.930 . S
C787 C786 1.394 . S
C787 C788 1.383 . S
C787 H795 0.929 . S
C788 C787 1.383 . S
C788 C789 1.377 . S
C789 H773 0.930 . S
C789 C788 1.377 . S
C789 C790 1.379 . S
C790 H774 0.931 . S
C790 C784 1.383 . S
C790 C789 1.379 . S
H791 C785 0.959 . S
H792 C785 0.961 . S
H793 C785 0.960 . S
H794 C786 0.930 . S
H795 C787 0.929 . S
H796 C804 0.929 . S
H797 C806 0.930 . S
H798 C808 0.930 . S
H799 C811 0.929 . S
H800 C814 0.930 . S
H801 C816 0.960 . S
H802 C816 0.960 . S
H803 C816 0.960 . S
C804 H796 0.929 . S
C804 C805 1.377 . S
C804 C806 1.384 . S
C805 C804 1.377 . S
C805 C811 1.390 . S
C806 H797 0.930 . S
C806 C804 1.384 . S
C806 C807 1.372 . S
C807 C806 1.372 . S
C807 C808 1.400 . S
C807 C812 1.490 . S
C808 H798 0.930 . S
C808 C807 1.400 . S
C808 C811 1.386 . S
H809 C825 0.930 . S
H810 C826 0.931 . S
C811 H799 0.929 . S
C811 C805 1.390 . S
C811 C808 1.386 . S
C812 C807 1.490 . S
C812 C814 1.395 . S
C812 C815 1.403 . S
H813 C819 0.930 . S
C814 H800 0.930 . S
C814 C812 1.395 . S
C814 C817 1.403 . S
C815 C812 1.403 . S
C815 C816 1.524 . S
C815 C819 1.400 . S
C816 H801 0.960 . S
C816 H802 0.960 . S
C816 H803 0.960 . S
C816 C815 1.524 . S
C817 C814 1.403 . S
C817 C818 1.392 . S
C817 C821 1.495 . S
C818 C817 1.392 . S
C818 C819 1.385 . S
C818 C820 1.478 . S
C819 H813 0.930 . S
C819 C815 1.400 . S
C819 C818 1.385 . S
C820 C818 1.478 . S
C820 C822 1.381 . S
C820 C826 1.383 . S
C821 C817 1.495 . S
C821 H827 0.959 . S
C821 H828 0.961 . S
C821 H829 0.960 . S
C822 C820 1.381 . S
C822 C823 1.394 . S
C822 H830 0.930 . S
C823 C822 1.394 . S
C823 C824 1.383 . S
C823 H831 0.929 . S
C824 C823 1.383 . S
C824 C825 1.377 . S
C825 H809 0.930 . S
C825 C824 1.377 . S
C825 C826 1.379 . S
C826 H810 0.931 . S
C826 C820 1.383 . S
C826 C825 1.379 . S
H827 C821 0.959 . S
H828 C821 0.961 . S
H829 C821 0.960 . S
H830 C822 0.930 . S
H831 C823 0.929 . S
H832 C840 0.929 . S
H833 C842 0.930 . S
H834 C844 0.930 . S
H835 C847 0.929 . S
H836 C850 0.930 . S
H837 C852 0.960 . S
H838 C852 0.960 . S
H839 C852 0.960 . S
C840 H832 0.929 . S
C840 C841 1.377 . S
C840 C842 1.384 . S
C841 C840 1.377 . S
C841 C847 1.390 . S
C842 H833 0.930 . S
C842 C840 1.384 . S
C842 C843 1.372 . S
C843 C842 1.372 . S
C843 C844 1.400 . S
C843 C848 1.490 . S
C844 H834 0.930 . S
C844 C843 1.400 . S
C844 C847 1.386 . S
H845 C861 0.930 . S
H846 C862 0.931 . S
C847 H835 0.929 . S
C847 C841 1.390 . S
C847 C844 1.386 . S
C848 C843 1.490 . S
C848 C850 1.395 . S
C848 C851 1.403 . S
H849 C855 0.930 . S
C850 H836 0.930 . S
C850 C848 1.395 . S
C850 C853 1.403 . S
C851 C848 1.403 . S
C851 C852 1.524 . S
C851 C855 1.400 . S
C852 H837 0.960 . S
C852 H838 0.960 . S
C852 H839 0.960 . S
C852 C851 1.524 . S
C853 C850 1.403 . S
C853 C854 1.392 . S
C853 C857 1.495 . S
C854 C853 1.392 . S
C854 C855 1.385 . S
C854 C856 1.478 . S
C855 H849 0.930 . S
C855 C851 1.400 . S
C855 C854 1.385 . S
C856 C854 1.478 . S
C856 C858 1.381 . S
C856 C862 1.383 . S
C857 C853 1.495 . S
C857 H863 0.959 . S
C857 H864 0.961 . S
C857 H865 0.960 . S
C858 C856 1.381 . S
C858 C859 1.394 . S
C858 H866 0.930 . S
C859 C858 1.394 . S
C859 C860 1.383 . S
C859 H867 0.929 . S
C860 C859 1.383 . S
C860 C861 1.377 . S
C861 H845 0.930 . S
C861 C860 1.377 . S
C861 C862 1.379 . S
C862 H846 0.931 . S
C862 C856 1.383 . S
C862 C861 1.379 . S
H863 C857 0.959 . S
H864 C857 0.961 . S
H865 C857 0.960 . S
H866 C858 0.930 . S
H867 C859 0.929 . S
H868 C876 0.929 . S
H869 C878 0.930 . S
H870 C880 0.930 . S
H871 C883 0.929 . S
H872 C886 0.930 . S
H873 C888 0.960 . S
H874 C888 0.960 . S
H875 C888 0.960 . S
C876 H868 0.929 . S
C876 C877 1.377 . S
C876 C878 1.384 . S
C877 C876 1.377 . S
C877 C883 1.390 . S
C878 H869 0.930 . S
C878 C876 1.384 . S
C878 C879 1.372 . S
C879 C878 1.372 . S
C879 C880 1.400 . S
C879 C884 1.490 . S
C880 H870 0.930 . S
C880 C879 1.400 . S
C880 C883 1.386 . S
H881 C897 0.930 . S
H882 C898 0.931 . S
C883 H871 0.929 . S
C883 C877 1.390 . S
C883 C880 1.386 . S
C884 C879 1.490 . S
C884 C886 1.395 . S
C884 C887 1.403 . S
H885 C891 0.930 . S
C886 H872 0.930 . S
C886 C884 1.395 . S
C886 C889 1.403 . S
C887 C884 1.403 . S
C887 C888 1.524 . S
C887 C891 1.400 . S
C888 H873 0.960 . S
C888 H874 0.960 . S
C888 H875 0.960 . S
C888 C887 1.524 . S
C889 C886 1.403 . S
C889 C890 1.392 . S
C889 C893 1.495 . S
C890 C889 1.392 . S
C890 C891 1.385 . S
C890 C892 1.478 . S
C891 H885 0.930 . S
C891 C887 1.400 . S
C891 C890 1.385 . S
C892 C890 1.478 . S
C892 C894 1.381 . S
C892 C898 1.383 . S
C893 C889 1.495 . S
C893 H899 0.959 . S
C893 H900 0.961 . S
C893 H901 0.960 . S
C894 C892 1.381 . S
C894 C895 1.394 . S
C894 H902 0.930 . S
C895 C894 1.394 . S
C895 C896 1.383 . S
C895 H903 0.929 . S
C896 C895 1.383 . S
C896 C897 1.377 . S
C897 H881 0.930 . S
C897 C896 1.377 . S
C897 C898 1.379 . S
C898 H882 0.931 . S
C898 C892 1.383 . S
C898 C897 1.379 . S
H899 C893 0.959 . S
H900 C893 0.961 . S
H901 C893 0.960 . S
H902 C894 0.930 . S
H903 C895 0.929 . S
H904 C912 0.929 . S
H905 C914 0.938 . S
H906 C916 0.930 . S
H907 C919 0.929 . S
H908 C922 0.930 . S
H909 C924 0.960 . S
H910 C924 0.960 . S
H911 C924 0.960 . S
C912 H904 0.929 . S
C912 C913 1.377 . S
C912 C914 1.384 . S
C913 C912 1.377 . S
C913 C919 1.390 . S
C914 H905 0.938 . S
C914 C912 1.384 . S
C914 C915 1.372 . S
C915 C914 1.372 . S
C915 C916 1.400 . S
C915 C920 1.490 . S
C916 H906 0.930 . S
C916 C915 1.400 . S
C916 C919 1.386 . S
H917 C933 0.930 . S
H918 C934 0.921 1_455 S
C919 H907 0.929 . S
C919 C913 1.390 . S
C919 C916 1.386 . S
C920 C915 1.490 . S
C920 C922 1.395 . S
C920 C923 1.403 1_455 S
H921 C927 0.930 . S
C922 H908 0.930 . S
C922 C920 1.395 . S
C922 C925 1.403 1_545 S
C923 C920 1.403 1_655 S
C923 C924 1.524 . S
C923 C927 1.400 1_545 S
C924 H909 0.960 . S
C924 H910 0.960 . S
C924 H911 0.960 . S
C924 C923 1.524 . S
C925 C922 1.403 1_565 S
C925 C926 1.392 1_455 S
C925 C929 1.495 . S
C926 C925 1.392 1_655 S
C926 C927 1.385 . S
C926 C928 1.478 . S
C927 H921 0.930 . S
C927 C923 1.400 1_565 S
C927 C926 1.385 . S
C928 C926 1.478 . S
C928 C930 1.381 . S
C928 C934 1.388 . S
C929 C925 1.495 . S
C929 H935 0.959 . S
C929 H936 0.961 . S
C929 H937 0.960 . S
C930 C928 1.381 . S
C930 C931 1.394 . S
C930 H938 0.930 . S
C931 C930 1.394 . S
C931 C932 1.383 . S
C931 H939 0.929 . S
C932 C931 1.383 . S
C932 C933 1.377 . S
C933 H917 0.930 . S
C933 C932 1.377 . S
C933 C934 1.385 . S
C934 H918 0.921 1_655 S
C934 C928 1.388 . S
C934 C933 1.385 . S
H935 C929 0.959 . S
H936 C929 0.961 . S
H937 C929 0.960 . S
H938 C930 0.930 . S
H939 C931 0.929 . S
H940 C948 0.929 . S
H941 C950 0.930 . S
H942 C952 0.930 . S
H943 C955 0.929 . S
H944 C958 0.930 . S
H945 C960 0.960 . S
H946 C960 0.960 . S
H947 C960 0.960 . S
C948 H940 0.929 . S
C948 C949 1.377 . S
C948 C950 1.384 . S
C949 C948 1.377 . S
C949 C955 1.390 1_565 S
C950 H941 0.930 . S
C950 C948 1.384 . S
C950 C951 1.372 . S
C951 C950 1.372 . S
C951 C952 1.400 1_565 S
C951 C956 1.490 . S
C952 H942 0.930 . S
C952 C951 1.400 1_545 S
C952 C955 1.386 . S
H953 C969 0.930 . S
H954 C970 0.931 . S
C955 H943 0.929 . S
C955 C949 1.390 1_545 S
C955 C952 1.386 . S
C956 C951 1.490 . S
C956 C958 1.395 . S
C956 C959 1.403 1_565 S
H957 C963 0.930 . S
C958 H944 0.930 . S
C958 C956 1.395 . S
C958 C961 1.403 1_455 S
C959 C956 1.403 1_545 S
C959 C960 1.524 . S
C959 C963 1.400 1_455 S
C960 H945 0.960 . S
C960 H946 0.960 . S
C960 H947 0.960 . S
C960 C959 1.524 . S
C961 C958 1.403 1_655 S
C961 C962 1.388 1_565 S
C961 C965 1.495 . S
C962 C961 1.388 1_545 S
C962 C963 1.389 . S
C962 C964 1.479 . S
C963 H957 0.930 . S
C963 C959 1.400 1_655 S
C963 C962 1.389 . S
C964 C962 1.479 . S
C964 C966 1.381 1_545 S
C964 C970 1.383 . S
C965 C961 1.495 . S
C965 H971 0.959 . S
C965 H972 0.961 . S
C965 H973 0.960 . S
C966 C964 1.381 1_565 S
C966 C967 1.394 . S
C966 H974 0.930 . S
C967 C966 1.394 . S
C967 C968 1.383 1_565 S
C967 H975 0.929 . S
C968 C967 1.383 1_545 S
C968 C969 1.377 . S
C969 H953 0.930 . S
C969 C968 1.377 . S
C969 C970 1.379 . S
C970 H954 0.931 . S
C970 C964 1.383 . S
C970 C969 1.379 . S
H971 C965 0.959 . S
H972 C965 0.961 . S
H973 C965 0.960 . S
H974 C966 0.930 . S
H975 C967 0.929 . S
H976 C984 0.929 . S
H977 C986 0.930 . S
H978 C988 0.930 . S
H979 C991 0.929 . S
H980 C994 0.930 . S
H981 C996 0.959 1_565 S
H982 C996 0.960 . S
H983 C996 0.960 . S
C984 H976 0.929 . S
C984 C985 1.377 . S
C984 C986 1.384 . S
C985 C984 1.377 . S
C985 C991 1.390 . S
C986 H977 0.930 . S
C986 C984 1.384 . S
C986 C987 1.372 . S
C987 C986 1.372 . S
C987 C988 1.400 . S
C987 C992 1.490 . S
C988 H978 0.930 . S
C988 C987 1.400 . S
C988 C991 1.386 . S
H989 C1005 0.930 . S
H990 C1006 0.931 . S
C991 H979 0.929 . S
C991 C985 1.390 . S
C991 C988 1.386 . S
C992 C987 1.490 . S
C992 C994 1.395 1_655 S
C992 C995 1.403 . S
H993 C999 0.930 . S
C994 H980 0.930 . S
C994 C992 1.395 1_455 S
C994 C997 1.403 1_545 S
C995 C992 1.403 . S
C995 C996 1.524 . S
C995 C999 1.400 1_545 S
C996 H981 0.959 1_545 S
C996 H982 0.960 . S
C996 H983 0.960 . S
C996 C995 1.524 . S
C997 C994 1.403 1_565 S
C997 C998 1.392 . S
C997 C1001 1.495 . S
C998 C997 1.392 . S
C998 C999 1.385 1_455 S
C998 C1000 1.478 . S
C999 H993 0.930 . S
C999 C995 1.400 1_565 S
C999 C998 1.385 1_655 S
C1000 C998 1.478 . S
C1000 C1002 1.381 . S
C1000 C1006 1.383 . S
C1001 C997 1.495 . S
C1001 H1007 0.968 . S
C1001 H1008 0.961 . S
C1001 H1009 0.960 . S
C1002 C1000 1.381 . S
C1002 C1003 1.394 . S
C1002 H1010 0.930 . S
C1003 C1002 1.394 . S
C1003 C1004 1.383 . S
C1003 H1011 0.929 . S
C1004 C1003 1.383 . S
C1004 C1005 1.377 . S
C1005 H989 0.930 . S
C1005 C1004 1.377 . S
C1005 C1006 1.379 . S
C1006 H990 0.931 . S
C1006 C1000 1.383 . S
C1006 C1005 1.379 . S
H1007 C1001 0.968 . S
H1008 C1001 0.961 . S
H1009 C1001 0.960 . S
H1010 C1002 0.930 . S
H1011 C1003 0.929 . S
H1012 C1020 0.929 . S
H1013 C1022 0.930 . S
H1014 C1024 0.930 . S
H1015 C1027 0.929 . S
H1016 C1030 0.930 . S
H1017 C1032 0.955 1_455 S
H1018 C1032 0.960 . S
H1019 C1032 0.960 . S
C1020 H1012 0.929 . S
C1020 C1021 1.377 . S
C1020 C1022 1.384 . S
C1021 C1020 1.377 . S
C1021 C1027 1.390 . S
C1022 H1013 0.930 . S
C1022 C1020 1.384 . S
C1022 C1023 1.372 . S
C1023 C1022 1.372 . S
C1023 C1024 1.400 . S
C1023 C1028 1.490 . S
C1024 H1014 0.930 . S
C1024 C1023 1.400 . S
C1024 C1027 1.386 . S
H1025 C1041 0.930 . S
H1026 C1042 0.931 . S
C1027 H1015 0.929 . S
C1027 C1021 1.390 . S
C1027 C1024 1.386 . S
C1028 C1023 1.490 . S
C1028 C1030 1.395 1_565 S
C1028 C1031 1.403 . S
H1029 C1035 0.930 . S
C1030 H1016 0.930 . S
C1030 C1028 1.395 1_545 S
C1030 C1033 1.403 1_655 S
C1031 C1028 1.403 . S
C1031 C1032 1.524 . S
C1031 C1035 1.400 1_655 S
C1032 H1017 0.955 1_655 S
C1032 H1018 0.960 . S
C1032 H1019 0.960 . S
C1032 C1031 1.524 . S
C1033 C1030 1.403 1_455 S
C1033 C1034 1.392 . S
C1033 C1037 1.495 . S
C1034 C1033 1.392 . S
C1034 C1035 1.385 1_545 S
C1034 C1036 1.478 . S
C1035 H1029 0.930 . S
C1035 C1031 1.400 1_455 S
C1035 C1034 1.385 1_565 S
C1036 C1034 1.478 . S
C1036 C1038 1.381 . S
C1036 C1042 1.383 . S
C1037 C1033 1.495 . S
C1037 H1043 0.962 . S
C1037 H1044 0.961 . S
C1037 H1045 0.960 . S
C1038 C1036 1.381 . S
C1038 C1039 1.394 . S
C1038 H1046 0.930 . S
C1039 C1038 1.394 . S
C1039 C1040 1.383 . S
C1039 H1047 0.929 . S
C1040 C1039 1.383 . S
C1040 C1041 1.377 . S
C1041 H1025 0.930 . S
C1041 C1040 1.377 . S
C1041 C1042 1.379 . S
C1042 H1026 0.931 . S
C1042 C1036 1.383 . S
C1042 C1041 1.379 . S
H1043 C1037 0.962 . S
H1044 C1037 0.961 . S
H1045 C1037 0.960 . S
H1046 C1038 0.930 . S
H1047 C1039 0.929 . S
C481 C5 1.313 . S
C500 C123 1.317 . S
C517 C182 1.314 . S
C536 C64 1.320 . S
C553 C359 1.311 . S
C572 C241 1.303 . S
C589 C300 1.316 . S
C608 C418 1.322 . S
C625 C357 1.465 . S
C644 C3 1.481 . S
C661 C62 1.463 . S
C680 C416 1.438 . S
C697 C121 1.466 . S
C716 C239 1.434 . S
C733 C298 1.465 . S
C752 C180 1.480 . S
C769 C33 1.271 . S
C788 C328 1.256 . S
C805 C387 1.273 . S
C824 C92 1.251 . S
C841 C446 1.277 . S
C860 C151 1.258 . S
C877 C210 1.278 . S
C896 C269 1.263 . S
C913 C52 0.802 . S
C932 C170 0.803 . S
C949 C229 0.796 . S
C968 C111 0.823 . S
C985 C406 0.801 . S
C1004 C288 0.788 . S
C1021 C465 0.801 . S
C1040 C347 0.787 . S
