# Generated by pormake.
# Topology vbb, (4)-cn, num edge types: 1
# Building blocks:
#     Node 0, Type 0, BuildingBlock: MUDLON_clean_sbu_0, # of connection points: 4
#     Node 1, Type 0, BuildingBlock: MUDLON_clean_sbu_0, # of connection points: 4
#     Node 2, Type 0, BuildingBlock: MUDLON_clean_sbu_0, # of connection points: 4
#     Node 3, Type 0, BuildingBlock: MUDLON_clean_sbu_0, # of connection points: 4
#     Node 4, Type 0, BuildingBlock: MUDLON_clean_sbu_0, # of connection points: 4
#     Node 5, Type 0, BuildingBlock: MUDLON_clean_sbu_0, # of connection points: 4
#     Node 6, Type 0, BuildingBlock: MUDLON_clean_sbu_0, # of connection points: 4
#     Node 7, Type 0, BuildingBlock: MUDLON_clean_sbu_0, # of connection points: 4
#     Node 8, Type 0, BuildingBlock: MUDLON_clean_sbu_0, # of connection points: 4
#     Node 9, Type 0, BuildingBlock: MUDLON_clean_sbu_0, # of connection points: 4
#     Node 10, Type 0, BuildingBlock: MUDLON_clean_sbu_0, # of connection points: 4
#     Node 11, Type 0, BuildingBlock: MUDLON_clean_sbu_0, # of connection points: 4
#     Node 12, Type 0, BuildingBlock: MUDLON_clean_sbu_0, # of connection points: 4
#     Node 13, Type 0, BuildingBlock: MUDLON_clean_sbu_0, # of connection points: 4
#     Node 14, Type 0, BuildingBlock: MUDLON_clean_sbu_0, # of connection points: 4
#     Node 15, Type 0, BuildingBlock: MUDLON_clean_sbu_0, # of connection points: 4
#     Node 16, Type 0, BuildingBlock: MUDLON_clean_sbu_0, # of connection points: 4
#     Node 17, Type 0, BuildingBlock: MUDLON_clean_sbu_0, # of connection points: 4
#     Node 18, Type 0, BuildingBlock: MUDLON_clean_sbu_0, # of connection points: 4
#     Node 19, Type 0, BuildingBlock: MUDLON_clean_sbu_0, # of connection points: 4
#     Node 20, Type 0, BuildingBlock: MUDLON_clean_sbu_0, # of connection points: 4
#     Node 21, Type 0, BuildingBlock: MUDLON_clean_sbu_0, # of connection points: 4
#     Node 22, Type 0, BuildingBlock: MUDLON_clean_sbu_0, # of connection points: 4
#     Node 23, Type 0, BuildingBlock: MUDLON_clean_sbu_0, # of connection points: 4
#     Node 24, Type 0, BuildingBlock: MUDLON_clean_sbu_0, # of connection points: 4
#     Node 25, Type 0, BuildingBlock: MUDLON_clean_sbu_0, # of connection points: 4
#     Node 26, Type 0, BuildingBlock: MUDLON_clean_sbu_0, # of connection points: 4
#     Node 27, Type 0, BuildingBlock: MUDLON_clean_sbu_0, # of connection points: 4
#     Node 28, Type 0, BuildingBlock: MUDLON_clean_sbu_0, # of connection points: 4
#     Node 29, Type 0, BuildingBlock: MUDLON_clean_sbu_0, # of connection points: 4
#     Node 30, Type 0, BuildingBlock: MUDLON_clean_sbu_0, # of connection points: 4
#     Node 31, Type 0, BuildingBlock: MUDLON_clean_sbu_0, # of connection points: 4
#     Edge 32, Type (0, 0), BuildingBlock: KIFKEQ_clean_linker_1, # of connection points: 2
#     Edge 33, Type (0, 0), BuildingBlock: KIFKEQ_clean_linker_1, # of connection points: 2
#     Edge 34, Type (0, 0), BuildingBlock: KIFKEQ_clean_linker_1, # of connection points: 2
#     Edge 35, Type (0, 0), BuildingBlock: KIFKEQ_clean_linker_1, # of connection points: 2
#     Edge 36, Type (0, 0), BuildingBlock: KIFKEQ_clean_linker_1, # of connection points: 2
#     Edge 37, Type (0, 0), BuildingBlock: KIFKEQ_clean_linker_1, # of connection points: 2
#     Edge 38, Type (0, 0), BuildingBlock: KIFKEQ_clean_linker_1, # of connection points: 2
#     Edge 39, Type (0, 0), BuildingBlock: KIFKEQ_clean_linker_1, # of connection points: 2
#     Edge 40, Type (0, 0), BuildingBlock: KIFKEQ_clean_linker_1, # of connection points: 2
#     Edge 41, Type (0, 0), BuildingBlock: KIFKEQ_clean_linker_1, # of connection points: 2
#     Edge 42, Type (0, 0), BuildingBlock: KIFKEQ_clean_linker_1, # of connection points: 2
#     Edge 43, Type (0, 0), BuildingBlock: KIFKEQ_clean_linker_1, # of connection points: 2
#     Edge 44, Type (0, 0), BuildingBlock: KIFKEQ_clean_linker_1, # of connection points: 2
#     Edge 45, Type (0, 0), BuildingBlock: KIFKEQ_clean_linker_1, # of connection points: 2
#     Edge 46, Type (0, 0), BuildingBlock: KIFKEQ_clean_linker_1, # of connection points: 2
#     Edge 47, Type (0, 0), BuildingBlock: KIFKEQ_clean_linker_1, # of connection points: 2
#     Edge 48, Type (0, 0), BuildingBlock: KIFKEQ_clean_linker_1, # of connection points: 2
#     Edge 49, Type (0, 0), BuildingBlock: KIFKEQ_clean_linker_1, # of connection points: 2
#     Edge 50, Type (0, 0), BuildingBlock: KIFKEQ_clean_linker_1, # of connection points: 2
#     Edge 51, Type (0, 0), BuildingBlock: KIFKEQ_clean_linker_1, # of connection points: 2
#     Edge 52, Type (0, 0), BuildingBlock: KIFKEQ_clean_linker_1, # of connection points: 2
#     Edge 53, Type (0, 0), BuildingBlock: KIFKEQ_clean_linker_1, # of connection points: 2
#     Edge 54, Type (0, 0), BuildingBlock: KIFKEQ_clean_linker_1, # of connection points: 2
#     Edge 55, Type (0, 0), BuildingBlock: KIFKEQ_clean_linker_1, # of connection points: 2
#     Edge 56, Type (0, 0), BuildingBlock: KIFKEQ_clean_linker_1, # of connection points: 2
#     Edge 57, Type (0, 0), BuildingBlock: KIFKEQ_clean_linker_1, # of connection points: 2
#     Edge 58, Type (0, 0), BuildingBlock: KIFKEQ_clean_linker_1, # of connection points: 2
#     Edge 59, Type (0, 0), BuildingBlock: KIFKEQ_clean_linker_1, # of connection points: 2
#     Edge 60, Type (0, 0), BuildingBlock: KIFKEQ_clean_linker_1, # of connection points: 2
#     Edge 61, Type (0, 0), BuildingBlock: KIFKEQ_clean_linker_1, # of connection points: 2
#     Edge 62, Type (0, 0), BuildingBlock: KIFKEQ_clean_linker_1, # of connection points: 2
#     Edge 63, Type (0, 0), BuildingBlock: KIFKEQ_clean_linker_1, # of connection points: 2
#     Edge 64, Type (0, 0), BuildingBlock: KIFKEQ_clean_linker_1, # of connection points: 2
#     Edge 65, Type (0, 0), BuildingBlock: KIFKEQ_clean_linker_1, # of connection points: 2
#     Edge 66, Type (0, 0), BuildingBlock: KIFKEQ_clean_linker_1, # of connection points: 2
#     Edge 67, Type (0, 0), BuildingBlock: KIFKEQ_clean_linker_1, # of connection points: 2
#     Edge 68, Type (0, 0), BuildingBlock: KIFKEQ_clean_linker_1, # of connection points: 2
#     Edge 69, Type (0, 0), BuildingBlock: KIFKEQ_clean_linker_1, # of connection points: 2
#     Edge 70, Type (0, 0), BuildingBlock: KIFKEQ_clean_linker_1, # of connection points: 2
#     Edge 71, Type (0, 0), BuildingBlock: KIFKEQ_clean_linker_1, # of connection points: 2
#     Edge 72, Type (0, 0), BuildingBlock: KIFKEQ_clean_linker_1, # of connection points: 2
#     Edge 73, Type (0, 0), BuildingBlock: KIFKEQ_clean_linker_1, # of connection points: 2
#     Edge 74, Type (0, 0), BuildingBlock: KIFKEQ_clean_linker_1, # of connection points: 2
#     Edge 75, Type (0, 0), BuildingBlock: KIFKEQ_clean_linker_1, # of connection points: 2
#     Edge 76, Type (0, 0), BuildingBlock: KIFKEQ_clean_linker_1, # of connection points: 2
#     Edge 77, Type (0, 0), BuildingBlock: KIFKEQ_clean_linker_1, # of connection points: 2
#     Edge 78, Type (0, 0), BuildingBlock: KIFKEQ_clean_linker_1, # of connection points: 2
#     Edge 79, Type (0, 0), BuildingBlock: KIFKEQ_clean_linker_1, # of connection points: 2
#     Edge 80, Type (0, 0), BuildingBlock: KIFKEQ_clean_linker_1, # of connection points: 2
#     Edge 81, Type (0, 0), BuildingBlock: KIFKEQ_clean_linker_1, # of connection points: 2
#     Edge 82, Type (0, 0), BuildingBlock: KIFKEQ_clean_linker_1, # of connection points: 2
#     Edge 83, Type (0, 0), BuildingBlock: KIFKEQ_clean_linker_1, # of connection points: 2
#     Edge 84, Type (0, 0), BuildingBlock: KIFKEQ_clean_linker_1, # of connection points: 2
#     Edge 85, Type (0, 0), BuildingBlock: KIFKEQ_clean_linker_1, # of connection points: 2
#     Edge 86, Type (0, 0), BuildingBlock: KIFKEQ_clean_linker_1, # of connection points: 2
#     Edge 87, Type (0, 0), BuildingBlock: KIFKEQ_clean_linker_1, # of connection points: 2
#     Edge 88, Type (0, 0), BuildingBlock: KIFKEQ_clean_linker_1, # of connection points: 2
#     Edge 89, Type (0, 0), BuildingBlock: KIFKEQ_clean_linker_1, # of connection points: 2
#     Edge 90, Type (0, 0), BuildingBlock: KIFKEQ_clean_linker_1, # of connection points: 2
#     Edge 91, Type (0, 0), BuildingBlock: KIFKEQ_clean_linker_1, # of connection points: 2
#     Edge 92, Type (0, 0), BuildingBlock: KIFKEQ_clean_linker_1, # of connection points: 2
#     Edge 93, Type (0, 0), BuildingBlock: KIFKEQ_clean_linker_1, # of connection points: 2
#     Edge 94, Type (0, 0), BuildingBlock: KIFKEQ_clean_linker_1, # of connection points: 2
#     Edge 95, Type (0, 0), BuildingBlock: KIFKEQ_clean_linker_1, # of connection points: 2
# Relax obj value: 0.000
# Max RMSD: 0.062
# Mean RMSD: 0.061
data_MOF--net-vbb--node1-MUDLON_clean_sbu_0--edge1-KIFKEQ_clean_linker_1
_symmetry_space_group_name_H-M    P1
_symmetry_Int_Tables_number       1
_symmetry_cell_setting            triclinic
loop_
_symmetry_equiv_pos_as_xyz
'x, y, z'
_cell_length_a     60.344807
_cell_length_b     15.986225
_cell_length_c     123.7012
_cell_angle_alpha  89.991246
_cell_angle_beta   89.899526
_cell_angle_gamma 90.024565
loop_
_atom_site_label
_atom_site_type_symbol
_atom_site_fract_x
_atom_site_fract_y
_atom_site_fract_z
_atom_type_partial_charge
Mg0 Mg 0.51047 0.0215 0.07513 0.0
C1 C 0.5117 0.9947 0.05269 0.0
O2 O 0.51519 0.92381 0.05779 0.0
C3 C 0.50494 0.0413 0.09732 0.0
O4 O 0.51094 0.96437 0.09496 0.0
C5 C 0.466 0.9708 0.07358 0.0
O6 O 0.46793 0.04962 0.0707 0.0
O7 O 0.48355 0.93084 0.07608 0.0
O8 O 0.50864 0.06056 0.05831 0.0
O9 O 0.54587 -0.00023 0.07724 0.0
C10 C 0.55506 0.07111 0.07838 0.0
O11 O 0.5424 0.13797 0.0783 0.0
O12 O 0.5026 0.09316 0.08956 0.0
Mg13 Mg 0.76539 0.21183 0.07481 0.0
C14 C 0.76369 0.23978 0.05241 0.0
O15 O 0.76018 0.31011 0.05764 0.0
C16 C 0.7703 0.19347 0.0971 0.0
O17 O 0.76454 0.2704 0.09462 0.0
C18 C 0.81029 0.25608 0.07381 0.0
O19 O 0.8078 0.17593 0.07176 0.0
O20 O 0.79295 0.29967 0.07557 0.0
O21 O 0.76698 0.17352 0.05794 0.0
O22 O 0.73009 0.23614 0.07695 0.0
C23 C 0.72067 0.16537 0.07827 0.0
O24 O 0.73312 0.09792 0.07827 0.0
O25 O 0.77275 0.14101 0.08942 0.0
Mg26 Mg 0.50881 0.21556 0.19854 0.0
C27 C 0.51407 0.23617 0.22096 0.0
O28 O 0.52174 0.30243 0.21589 0.0
C29 C 0.50587 0.1936 0.17626 0.0
O30 O 0.51172 0.27069 0.17861 0.0
C31 C 0.46409 0.25826 0.1973 0.0
O32 O 0.46639 0.1767 0.19806 0.0
O33 O 0.48151 0.30351 0.19741 0.0
O34 O 0.50629 0.17624 0.21532 0.0
O35 O 0.54412 0.23979 0.19679 0.0
C36 C 0.55367 0.16956 0.19825 0.0
O37 O 0.54124 0.10404 0.2004 0.0
O38 O 0.50279 0.14244 0.18403 0.0
Mg39 Mg 0.76406 0.03297 0.19875 0.0
C40 C 0.75729 0.01878 0.22133 0.0
O41 O 0.74845 0.95357 0.21651 0.0
C42 C 0.76909 0.04977 0.17641 0.0
O43 O 0.763 0.97322 0.17892 0.0
C44 C 0.80825 0.98521 0.20013 0.0
O45 O 0.80607 0.06593 0.20187 0.0
O46 O 0.7908 0.94234 0.19836 0.0
O47 O 0.76612 0.07535 0.21546 0.0
O48 O 0.72874 0.01107 0.19672 0.0
C49 C 0.71944 0.08228 0.19769 0.0
O50 O 0.73207 0.14782 0.19949 0.0
O51 O 0.77167 0.1023 0.18407 0.0
Mg52 Mg 0.51484 0.96048 0.94852 0.0
C53 C 0.46969 0.91616 0.94907 0.0
O54 O 0.48182 0.85121 0.95178 0.0
C55 C 0.55942 0.00589 0.94651 0.0
O56 O 0.55758 0.92402 0.94691 0.0
C57 C 0.51646 0.93764 0.9262 0.0
O58 O 0.50993 0.01389 0.92859 0.0
O59 O 0.52049 0.88735 0.93396 0.0
O60 O 0.47952 0.98494 0.947 0.0
O61 O 0.51786 0.92133 0.96528 0.0
C62 C 0.51053 0.98175 0.97099 0.0
O63 O 0.50307 0.04856 0.96599 0.0
O64 O 0.54181 0.04976 0.94714 0.0
Mg65 Mg 0.25996 0.77845 0.94869 0.0
C66 C 0.30417 0.82719 0.94604 0.0
O67 O 0.29148 0.89317 0.94741 0.0
C68 C 0.2158 0.73016 0.95186 0.0
O69 O 0.2182 0.80996 0.95414 0.0
C70 C 0.24809 0.79821 0.92673 0.0
O71 O 0.25022 0.71808 0.92885 0.0
O72 O 0.25104 0.85041 0.93439 0.0
O73 O 0.29497 0.75536 0.94585 0.0
O74 O 0.26037 0.81989 0.96546 0.0
C75 C 0.26726 0.75769 0.97098 0.0
O76 O 0.27262 0.68888 0.96578 0.0
O77 O 0.23295 0.68854 0.94915 0.0
Mg78 Mg 0.5131 0.77496 0.82497 0.0
C79 C 0.46879 0.82536 0.82707 0.0
O80 O 0.48155 0.89081 0.8254 0.0
C81 C 0.55714 0.72532 0.82248 0.0
O82 O 0.55496 0.80501 0.82009 0.0
C83 C 0.52043 0.79168 0.8471 0.0
O84 O 0.51534 0.714 0.84465 0.0
O85 O 0.5215 0.84501 0.83944 0.0
O86 O 0.47791 0.75352 0.82758 0.0
O87 O 0.51392 0.81723 0.80826 0.0
C88 C 0.50518 0.75942 0.80258 0.0
O89 O 0.49723 0.69337 0.80759 0.0
O90 O 0.53982 0.68409 0.82504 0.0
Mg91 Mg 0.2586 0.96329 0.82556 0.0
C92 C 0.30328 0.91696 0.82612 0.0
O93 O 0.29088 0.8521 0.82365 0.0
C94 C 0.214 0.00857 0.82411 0.0
O95 O 0.21647 0.92838 0.82209 0.0
C96 C 0.24937 0.9422 0.84767 0.0
O97 O 0.25251 0.02187 0.84554 0.0
O98 O 0.2509 0.88984 0.83992 0.0
O99 O 0.29374 0.98702 0.82775 0.0
O100 O 0.2571 0.92564 0.80864 0.0
C101 C 0.26088 0.99164 0.80314 0.0
O102 O 0.26494 0.06145 0.80839 0.0
O103 O 0.23129 0.05191 0.82606 0.0
Mg104 Mg 0.51013 0.52302 0.57505 0.0
C105 C 0.51382 0.49727 0.55277 0.0
O106 O 0.51829 0.42789 0.55804 0.0
C107 C 0.50307 0.5405 0.59722 0.0
O108 O 0.508 0.46266 0.59477 0.0
C109 C 0.46534 0.48079 0.57342 0.0
O110 O 0.46826 0.56129 0.57177 0.0
O111 O 0.4824 0.4358 0.57523 0.0
O112 O 0.50932 0.56268 0.55825 0.0
O113 O 0.54528 0.49836 0.57758 0.0
C114 C 0.55462 0.56924 0.57891 0.0
O115 O 0.54216 0.63664 0.57868 0.0
O116 O 0.50203 0.59372 0.58955 0.0
Mg117 Mg 0.76443 0.70933 0.57482 0.0
C118 C 0.75481 0.72144 0.55239 0.0
O119 O 0.74596 0.78611 0.55733 0.0
C120 C 0.77721 0.69114 0.59674 0.0
O121 O 0.77448 0.77105 0.59465 0.0
C122 C 0.8085 0.76023 0.57157 0.0
O123 O 0.80647 0.68021 0.56934 0.0
O124 O 0.79113 0.80087 0.57422 0.0
O125 O 0.76447 0.66606 0.55812 0.0
O126 O 0.72938 0.7318 0.57797 0.0
C127 C 0.72014 0.66147 0.57985 0.0
O128 O 0.73265 0.59422 0.58004 0.0
O129 O 0.77436 0.63874 0.58909 0.0
Mg130 Mg 0.50912 0.70959 0.69862 0.0
C131 C 0.50895 0.73817 0.72095 0.0
O132 O 0.51318 0.80807 0.71574 0.0
C133 C 0.5067 0.68782 0.67628 0.0
O134 O 0.51343 0.76382 0.67867 0.0
C135 C 0.46452 0.7572 0.69666 0.0
O136 O 0.46602 0.67521 0.69694 0.0
O137 O 0.48232 0.80004 0.69729 0.0
O138 O 0.5059 0.67181 0.71542 0.0
O139 O 0.54456 0.7319 0.69693 0.0
C140 C 0.55371 0.66007 0.69645 0.0
O141 O 0.54099 0.59355 0.69721 0.0
O142 O 0.50278 0.63733 0.68404 0.0
Mg143 Mg 0.76373 0.53136 0.6977 0.0
C144 C 0.75394 0.51894 0.72003 0.0
O145 O 0.74633 0.45215 0.71507 0.0
C146 C 0.77678 0.54825 0.67575 0.0
O147 O 0.77454 0.4683 0.67797 0.0
C148 C 0.808 0.48536 0.70111 0.0
O149 O 0.80545 0.56579 0.70294 0.0
O150 O 0.79092 0.44245 0.69864 0.0
O151 O 0.76297 0.57612 0.71433 0.0
O152 O 0.72893 0.50403 0.69463 0.0
C153 C 0.71913 0.57196 0.69213 0.0
O154 O 0.73108 0.64026 0.69115 0.0
O155 O 0.77349 0.60108 0.68331 0.0
Mg156 Mg 0.51366 0.46158 0.44876 0.0
C157 C 0.46886 0.41577 0.44522 0.0
O158 O 0.48118 0.34802 0.44499 0.0
C159 C 0.55834 0.50707 0.44811 0.0
O160 O 0.55638 0.42521 0.44838 0.0
C161 C 0.51865 0.44628 0.42636 0.0
O162 O 0.51284 0.52301 0.42892 0.0
O163 O 0.52098 0.39319 0.43397 0.0
O164 O 0.47839 0.48607 0.44669 0.0
O165 O 0.5156 0.41734 0.46534 0.0
C166 C 0.50667 0.47351 0.47123 0.0
O167 O 0.49792 0.53904 0.46645 0.0
O168 O 0.54074 0.55119 0.44839 0.0
Mg169 Mg 0.25834 0.28498 0.44931 0.0
C170 C 0.30306 0.33097 0.4461 0.0
O171 O 0.29068 0.3986 0.4462 0.0
C172 C 0.21369 0.24071 0.45008 0.0
O173 O 0.2162 0.32141 0.45173 0.0
C174 C 0.25402 0.30378 0.42698 0.0
O175 O 0.26012 0.22719 0.42944 0.0
O176 O 0.2511 0.35571 0.43468 0.0
O177 O 0.29357 0.26022 0.44729 0.0
O178 O 0.25627 0.3229 0.4662 0.0
C179 C 0.26008 0.25678 0.47167 0.0
O180 O 0.26458 0.18752 0.46638 0.0
O181 O 0.23102 0.19651 0.44858 0.0
Mg182 Mg 0.51396 0.28494 0.32492 0.0
C183 C 0.4694 0.33221 0.32823 0.0
O184 O 0.48195 0.39941 0.32801 0.0
C185 C 0.55869 0.24083 0.32382 0.0
O186 O 0.55614 0.32149 0.32216 0.0
C187 C 0.51915 0.30304 0.34714 0.0
O188 O 0.5133 0.22619 0.34466 0.0
O189 O 0.52156 0.3556 0.33946 0.0
O190 O 0.4787 0.26107 0.32711 0.0
O191 O 0.5155 0.32428 0.30812 0.0
C192 C 0.51199 0.25816 0.3026 0.0
O193 O 0.5082 0.18801 0.30784 0.0
O194 O 0.54139 0.19661 0.32544 0.0
Mg195 Mg 0.25907 0.46617 0.32537 0.0
C196 C 0.30376 0.42185 0.3291 0.0
O197 O 0.29145 0.35401 0.32928 0.0
C198 C 0.21422 0.50815 0.32414 0.0
O199 O 0.21703 0.42748 0.32259 0.0
C200 C 0.25329 0.44918 0.3477 0.0
O201 O 0.25868 0.5265 0.3452 0.0
O202 O 0.25145 0.39622 0.34003 0.0
O203 O 0.29422 0.49208 0.32758 0.0
O204 O 0.25802 0.42633 0.30854 0.0
C205 C 0.26154 0.49218 0.30296 0.0
O206 O 0.26508 0.56274 0.30814 0.0
O207 O 0.23137 0.55322 0.32572 0.0
Mg208 Mg 1.00915 0.03389 0.57493 0.0
C209 C 0.01193 0.00548 0.55264 0.0
O210 O 0.01666 0.93679 0.558 0.0
C211 C 1.00399 0.05328 0.59717 0.0
O212 O 1.01022 0.9767 0.59476 0.0
C213 C 0.96448 0.98956 0.57397 0.0
O214 O 0.96705 0.07036 0.57243 0.0
O215 O 0.98178 0.94523 0.57549 0.0
O216 O 1.00758 0.07147 0.55804 0.0
O217 O 0.04445 0.01125 0.57725 0.0
C218 C 0.0536 0.0828 0.57823 0.0
O219 O 0.04095 0.1496 0.57774 0.0
O220 O 1.00129 0.10507 0.58943 0.0
Mg221 Mg 0.2636 0.21802 0.57569 0.0
C222 C 0.25393 0.22981 0.5533 0.0
O223 O 0.24564 0.29567 0.55821 0.0
C224 C 0.27639 0.19876 0.59767 0.0
O225 O 0.27487 0.2791 0.59556 0.0
C226 C 0.30806 0.26343 0.57248 0.0
O227 O 0.30541 0.18321 0.57054 0.0
O228 O 0.291 0.30653 0.57495 0.0
O229 O 0.26326 0.17374 0.55904 0.0
O230 O 0.22866 0.24365 0.57875 0.0
C231 C 0.21908 0.17427 0.58081 0.0
O232 O 0.23127 0.10626 0.58125 0.0
O233 O 0.27287 0.14693 0.59002 0.0
Mg234 Mg 1.00896 0.21691 0.69852 0.0
C235 C 0.01668 0.23102 0.72093 0.0
O236 O 0.02463 0.29739 0.716 0.0
C237 C 1.00251 0.20059 0.67628 0.0
O238 O 1.00788 0.27796 0.67875 0.0
C239 C 0.96454 0.26186 0.7005 0.0
O240 O 0.96713 0.18112 0.70208 0.0
O241 O 0.98175 0.30593 0.69861 0.0
O242 O 1.00798 0.1735 0.71519 0.0
O243 O 0.04423 0.23942 0.69613 0.0
C244 C 0.0535 0.16786 0.69668 0.0
O245 O 0.04085 0.10199 0.69824 0.0
O246 O 1.00095 0.14745 0.68394 0.0
Mg247 Mg 0.26418 0.03305 0.69891 0.0
C248 C 0.25759 0.01466 0.72142 0.0
O249 O 0.24952 0.94884 0.71642 0.0
C250 C 0.27263 0.05327 0.67669 0.0
O251 O 0.26927 0.9738 0.67887 0.0
C252 C 0.30904 0.98885 0.69853 0.0
O253 O 0.30689 0.07046 0.69931 0.0
O254 O 0.2915 0.94426 0.69837 0.0
O255 O 0.26596 0.07319 0.71571 0.0
O256 O 0.22893 0.00971 0.69672 0.0
C257 C 0.21928 0.07965 0.6983 0.0
O258 O 0.23159 0.14477 0.70076 0.0
O259 O 0.27148 0.10585 0.68443 0.0
Mg260 Mg 0.0138 0.96073 0.44868 0.0
C261 C 0.9694 0.9132 0.44415 0.0
O262 O 0.98187 0.84584 0.44398 0.0
C263 C 0.05784 0.01052 0.45117 0.0
O264 O 0.05572 0.93026 0.45324 0.0
C265 C 0.02124 0.94489 0.42647 0.0
O266 O 0.01512 0.02159 0.42887 0.0
O267 O 0.02301 0.89216 0.43416 0.0
O268 O 0.97869 0.9836 0.44589 0.0
O269 O 0.01446 0.91746 0.46535 0.0
C270 C 1.00496 0.97317 0.47111 0.0
O271 O 0.99611 0.03786 0.46618 0.0
O272 O 0.04046 0.05204 0.44882 0.0
Mg273 Mg 0.75922 0.77959 0.44845 0.0
C274 C 0.80378 0.82518 0.4447 0.0
O275 O 0.79142 0.89284 0.4448 0.0
C276 C 0.7143 0.73549 0.44822 0.0
O277 O 0.71644 0.81717 0.44886 0.0
C278 C 0.75041 0.79843 0.42621 0.0
O279 O 0.75397 0.71916 0.42842 0.0
O280 O 0.75146 0.85129 0.43392 0.0
O281 O 0.79434 0.75458 0.44608 0.0
O282 O 0.75757 0.81764 0.46533 0.0
C283 C 0.76177 0.75175 0.47078 0.0
O284 O 0.76643 0.68277 0.46546 0.0
O285 O 0.73183 0.69092 0.44803 0.0
Mg286 Mg 0.01348 0.77987 0.32533 0.0
C287 C 0.96918 0.82824 0.32996 0.0
O288 O 0.98176 0.89536 0.32998 0.0
C289 C 0.05761 0.73102 0.32266 0.0
O290 O 0.05532 0.8111 0.32052 0.0
C291 C 0.02113 0.79613 0.34749 0.0
O292 O 0.01507 0.71931 0.34511 0.0
O293 O 0.02279 0.84884 0.33978 0.0
O294 O 0.97834 0.75753 0.32828 0.0
O295 O 0.01392 0.82272 0.30863 0.0
C296 C 1.00443 0.76669 0.30294 0.0
O297 O 0.99572 0.70193 0.30793 0.0
O298 O 0.04031 0.68916 0.32512 0.0
Mg299 Mg 0.75946 0.96714 0.32531 0.0
C300 C 0.80375 0.92076 0.32986 0.0
O301 O 0.79133 0.85321 0.32971 0.0
C302 C 0.71497 0.01438 0.32271 0.0
O303 O 0.71737 0.93446 0.3205 0.0
C304 C 0.74724 0.94467 0.34725 0.0
O305 O 0.74935 0.02509 0.34532 0.0
O306 O 0.75027 0.89354 0.33947 0.0
O307 O 0.79444 0.99135 0.32829 0.0
O308 O 0.75939 0.92853 0.30842 0.0
C309 C 0.76422 0.9937 0.30295 0.0
O310 O 0.7687 0.063 0.30824 0.0
O311 O 0.7322 0.05646 0.32517 0.0
Mg312 Mg 1.01089 0.53175 0.07513 0.0
C313 C 1.01008 0.50254 0.05276 0.0
O314 O 0.01497 0.4332 0.05795 0.0
C315 C 1.00788 0.55136 0.09745 0.0
O316 O 0.01498 0.47603 0.09496 0.0
C317 C 0.96658 0.48384 0.07498 0.0
O318 O 0.96878 0.5646 0.07328 0.0
O319 O 0.98412 0.44054 0.0764 0.0
O320 O 1.00667 0.56861 0.0583 0.0
O321 O 0.04686 0.51855 0.07593 0.0
C322 C 0.0544 0.59096 0.0736 0.0
O323 O 0.04011 0.65094 0.07156 0.0
O324 O 1.00403 0.60247 0.08976 0.0
Mg325 Mg 0.26384 0.71933 0.07501 0.0
C326 C 0.27329 0.74832 0.05262 0.0
O327 O 0.27344 0.82108 0.05756 0.0
C328 C 0.25641 0.67205 0.0969 0.0
O329 O 0.24684 0.74479 0.09535 0.0
C330 C 0.30929 0.75224 0.07816 0.0
O331 O 0.30628 0.67153 0.07675 0.0
O332 O 0.29227 0.79955 0.07821 0.0
O333 O 0.27016 0.68267 0.05829 0.0
O334 O 0.22897 0.75829 0.0754 0.0
C335 C 0.21654 0.73543 0.06763 0.0
O336 O 0.22563 0.70385 0.0589 0.0
O337 O 0.26585 0.63615 0.08893 0.0
Mg338 Mg 1.00829 0.70747 0.19909 0.0
C339 C 1.01054 0.73519 0.22137 0.0
O340 O 0.01522 0.8041 0.21603 0.0
C341 C 1.00297 0.69117 0.17679 0.0
O342 O 1.00843 0.76823 0.17937 0.0
C343 C 0.96379 0.75327 0.20023 0.0
O344 O 0.96612 0.67275 0.20207 0.0
O345 O 0.98117 0.79664 0.19849 0.0
O346 O 1.00638 0.66916 0.21595 0.0
O347 O 0.04346 0.7328 0.1971 0.0
C348 C 0.05303 0.66273 0.19553 0.0
O349 O 0.04073 0.59494 0.19512 0.0
O350 O 1.00086 0.63786 0.1844 0.0
Mg351 Mg 0.26341 0.5274 0.19874 0.0
C352 C 0.2595 0.50918 0.22121 0.0
O353 O 0.25205 0.44193 0.2163 0.0
C354 C 0.26163 0.54372 0.17627 0.0
O355 O 0.25483 0.46914 0.17928 0.0
C356 C 0.3079 0.4823 0.19629 0.0
O357 O 0.30592 0.56415 0.19606 0.0
O358 O 0.29042 0.43835 0.19749 0.0
O359 O 0.26673 0.5693 0.2154 0.0
O360 O 0.22792 0.50318 0.19779 0.0
C361 C 0.21863 0.57466 0.1972 0.0
O362 O 0.23126 0.64165 0.19743 0.0
O363 O 0.26787 0.59506 0.18355 0.0
Mg364 Mg 0.01468 0.46515 0.9487 0.0
C365 C 0.97006 0.41791 0.94766 0.0
O366 O 0.98262 0.35236 0.94956 0.0
C367 C 0.05927 0.50772 0.94992 0.0
O368 O 0.05649 0.4268 0.95125 0.0
C369 C 0.02005 0.44802 0.92641 0.0
O370 O 0.01502 0.52561 0.92894 0.0
O371 O 0.02183 0.39489 0.93406 0.0
O372 O 0.97946 0.48891 0.94658 0.0
O373 O 0.01588 0.42287 0.96541 0.0
C374 C 1.0076 0.4816 0.97111 0.0
O375 O 1.0001 0.54838 0.96612 0.0
O376 O 0.04212 0.55296 0.94847 0.0
Mg377 Mg 0.75962 0.28095 0.94819 0.0
C378 C 0.80436 0.32825 0.94788 0.0
O379 O 0.79178 0.39367 0.94984 0.0
C380 C 0.71501 0.23611 0.94663 0.0
O381 O 0.717 0.31793 0.94704 0.0
C382 C 0.75675 0.29958 0.92579 0.0
O383 O 0.76225 0.22253 0.92835 0.0
O384 O 0.75385 0.35203 0.93344 0.0
O385 O 0.79497 0.25751 0.94658 0.0
O386 O 0.75694 0.32058 0.96499 0.0
C387 C 0.7646 0.26058 0.97066 0.0
O388 O 0.7722 0.19415 0.96561 0.0
O389 O 0.73256 0.19182 0.9471 0.0
Mg390 Mg 0.01345 0.28027 0.82495 0.0
C391 C 0.96894 0.32923 0.82549 0.0
O392 O 0.9818 0.39466 0.82399 0.0
C393 C 0.05794 0.23539 0.82455 0.0
O394 O 0.05551 0.31587 0.82271 0.0
C395 C 0.01653 0.30153 0.84723 0.0
O396 O 1.01013 0.22515 0.84484 0.0
O397 O 0.01998 0.35257 0.83948 0.0
O398 O 0.97807 0.25767 0.82644 0.0
O399 O 0.01631 0.31798 0.8081 0.0
C400 C 0.01293 0.25178 0.80258 0.0
O401 O 1.00861 0.18205 0.80782 0.0
O402 O 0.04057 0.19142 0.82607 0.0
Mg403 Mg 0.75845 0.4637 0.82403 0.0
C404 C 0.8034 0.42075 0.82313 0.0
O405 O 0.7911 0.35564 0.82066 0.0
C406 C 0.71361 0.50376 0.82465 0.0
O407 O 0.71645 0.42296 0.82323 0.0
C408 C 0.75677 0.44245 0.84636 0.0
O409 O 0.76241 0.51947 0.84383 0.0
O410 O 0.75329 0.39082 0.83867 0.0
O411 O 0.7937 0.48977 0.8252 0.0
O412 O 0.75506 0.42712 0.80714 0.0
C413 C 0.75784 0.494 0.80167 0.0
O414 O 0.76192 0.56369 0.80695 0.0
O415 O 0.73078 0.54982 0.82552 0.0
H416 H 0.49157 0.19225 0.10592 0.0
H417 H 0.5116 0.94193 0.11477 0.0
H418 H 0.48837 0.2282 0.1251 0.0
H419 H 0.50918 0.97819 0.1337 0.0
H420 H 0.48951 0.04682 0.16772 0.0
H421 H 0.48564 0.01147 0.14855 0.0
H422 H 0.51296 0.2523 0.13984 0.0
H423 H 0.51612 0.28815 0.15876 0.0
C424 C 0.49525 0.14504 0.11193 0.0
C425 C 0.50196 0.06456 0.10881 0.0
C426 C 0.49351 0.16554 0.12292 0.0
C427 C 0.49857 0.10605 0.13097 0.0
C428 C 0.50478 0.0252 0.12778 0.0
C429 C 0.50638 0.00471 0.11686 0.0
C430 C 0.49457 0.09208 0.16168 0.0
C431 C 0.5032 0.16998 0.16477 0.0
C432 C 0.4924 0.07196 0.1507 0.0
C433 C 0.49896 0.12919 0.14262 0.0
C434 C 0.50732 0.20732 0.14578 0.0
C435 C 0.50935 0.22749 0.15669 0.0
H436 H 0.78447 0.19717 0.16754 0.0
H437 H 0.76057 0.95087 0.1591 0.0
H438 H 0.7883 0.23043 0.14831 0.0
H439 H 0.76363 0.98463 0.1401 0.0
H440 H 0.78443 0.04438 0.10598 0.0
H441 H 0.78764 0.01054 0.12523 0.0
H442 H 0.76474 0.25883 0.1334 0.0
H443 H 0.7623 0.29306 0.11441 0.0
C444 C 0.78003 0.1503 0.16161 0.0
C445 C 0.77212 0.07168 0.16487 0.0
C446 C 0.78215 0.16927 0.15058 0.0
C447 C 0.77625 0.11015 0.14262 0.0
C448 C 0.76872 0.03121 0.14595 0.0
C449 C 0.76676 0.01219 0.1569 0.0
C450 C 0.78026 0.09165 0.11192 0.0
C451 C 0.77302 0.17112 0.10865 0.0
C452 C 0.78202 0.07236 0.12294 0.0
C453 C 0.77644 0.13203 0.1309 0.0
C454 C 0.76959 0.21177 0.12756 0.0
C455 C 0.76797 0.23108 0.11661 0.0
H456 H 0.51776 0.68756 0.86436 0.0
H457 H 0.52984 0.946 0.85593 0.0
H458 H 0.51921 0.72258 0.88336 0.0
H459 H 0.53211 0.98096 0.87517 0.0
H460 H 0.50266 0.02629 0.90882 0.0
H461 H 0.50672 0.99259 0.88986 0.0
H462 H 0.5412 0.76492 0.89834 0.0
H463 H 0.53646 0.79787 0.91754 0.0
C464 C 0.52105 0.75196 0.86656 0.0
C465 C 0.52344 0.8143 0.85861 0.0
C466 C 0.5221 0.77183 0.87751 0.0
C467 C 0.5257 0.85458 0.88084 0.0
C468 C 0.52894 0.91668 0.87288 0.0
C469 C 0.52776 0.89676 0.86186 0.0
C470 C 0.51117 0.96896 0.90668 0.0
C471 C 0.51915 0.91444 0.9147 0.0
C472 C 0.51371 0.95012 0.89576 0.0
C473 C 0.52444 0.87641 0.89252 0.0
C474 C 0.53265 0.82195 0.90055 0.0
C475 C 0.52996 0.84066 0.91154 0.0
H476 H 0.23412 0.04075 0.86382 0.0
H477 H 0.25565 0.78834 0.85717 0.0
H478 H 0.23096 0.00786 0.88292 0.0
H479 H 0.25312 0.75563 0.87646 0.0
H480 H 0.23111 0.70311 0.91063 0.0
H481 H 0.22869 0.73633 0.8915 0.0
H482 H 0.25488 0.98308 0.89792 0.0
H483 H 0.25669 0.95021 0.91721 0.0
C484 C 0.23814 0.97792 0.86645 0.0
C485 C 0.24528 0.91714 0.859 0.0
C486 C 0.23647 0.95931 0.87744 0.0
C487 C 0.24206 0.87953 0.88129 0.0
C488 C 0.24849 0.81765 0.87377 0.0
C489 C 0.24998 0.8362 0.86272 0.0
C490 C 0.23613 0.76489 0.90798 0.0
C491 C 0.2442 0.82404 0.91541 0.0
C492 C 0.2349 0.78363 0.89698 0.0
C493 C 0.24185 0.8619 0.89311 0.0
C494 C 0.24919 0.92232 0.90062 0.0
C495 C 0.25025 0.90367 0.91167 0.0
H496 H 0.5065 0.43728 0.61453 0.0
H497 H 0.49309 0.69448 0.606 0.0
H498 H 0.50488 0.47273 0.63351 0.0
H499 H 0.49064 0.72983 0.62522 0.0
H500 H 0.51973 0.778 0.65885 0.0
H501 H 0.51581 0.74392 0.6399 0.0
H502 H 0.48258 0.51356 0.64847 0.0
H503 H 0.4872 0.54692 0.66766 0.0
C504 C 0.50289 0.50148 0.6167 0.0
C505 C 0.50015 0.56337 0.60872 0.0
C506 C 0.50174 0.52158 0.62764 0.0
C507 C 0.49767 0.60412 0.63094 0.0
C508 C 0.49415 0.66575 0.62296 0.0
C509 C 0.49544 0.64561 0.61195 0.0
C510 C 0.51151 0.72002 0.65674 0.0
C511 C 0.50387 0.66483 0.66478 0.0
C512 C 0.50905 0.70094 0.64582 0.0
C513 C 0.49875 0.6263 0.64261 0.0
C514 C 0.49082 0.57129 0.65066 0.0
C515 C 0.49343 0.59026 0.66165 0.0
H516 H 0.79342 0.45094 0.65974 0.0
H517 H 0.76958 0.70082 0.66612 0.0
H518 H 0.79661 0.48357 0.64061 0.0
H519 H 0.77222 0.73317 0.64684 0.0
H520 H 0.79389 0.78772 0.61277 0.0
H521 H 0.79684 0.75471 0.63188 0.0
H522 H 0.77236 0.50537 0.62555 0.0
H523 H 0.76998 0.53813 0.60627 0.0
C524 C 0.78895 0.51319 0.65705 0.0
C525 C 0.78112 0.57329 0.66443 0.0
C526 C 0.79064 0.53162 0.64606 0.0
C527 C 0.78442 0.61056 0.64214 0.0
C528 C 0.77735 0.67186 0.64959 0.0
C529 C 0.7758 0.65349 0.66064 0.0
C530 C 0.78937 0.72543 0.61543 0.0
C531 C 0.78157 0.66555 0.60802 0.0
C532 C 0.79091 0.70678 0.62641 0.0
C533 C 0.78456 0.62786 0.63031 0.0
C534 C 0.77757 0.56668 0.62283 0.0
C535 C 0.77618 0.58527 0.61177 0.0
H536 H 0.53368 0.29871 0.41748 0.0
H537 H 0.51049 0.54603 0.40908 0.0
H538 H 0.53742 0.26554 0.39825 0.0
H539 H 0.51345 0.51235 0.39008 0.0
H540 H 0.53392 0.45139 0.35595 0.0
H541 H 0.53739 0.48521 0.37518 0.0
H542 H 0.51352 0.23827 0.38343 0.0
H543 H 0.51083 0.20401 0.36446 0.0
C544 C 0.52938 0.34582 0.41155 0.0
C545 C 0.52167 0.42467 0.41482 0.0
C546 C 0.53145 0.32692 0.40053 0.0
C547 C 0.5257 0.38631 0.39258 0.0
C548 C 0.51842 0.46555 0.39592 0.0
C549 C 0.5165 0.48452 0.40687 0.0
C550 C 0.52959 0.40441 0.3619 0.0
C551 C 0.52201 0.3253 0.35866 0.0
C552 C 0.53151 0.42369 0.37291 0.0
C553 C 0.52573 0.36438 0.38089 0.0
C554 C 0.51853 0.28499 0.37758 0.0
C555 C 0.51677 0.26568 0.36664 0.0
H556 H 0.24031 0.29851 0.35656 0.0
H557 H 0.2598 0.55024 0.36501 0.0
H558 H 0.2371 0.26429 0.37579 0.0
H559 H 0.2574 0.5157 0.38401 0.0
H560 H 0.23779 0.44998 0.41816 0.0
H561 H 0.2341 0.48365 0.39893 0.0
H562 H 0.26119 0.24165 0.39065 0.0
H563 H 0.26411 0.20743 0.40962 0.0
C564 C 0.24389 0.34639 0.3625 0.0
C565 C 0.25042 0.4268 0.35924 0.0
C566 C 0.24214 0.32689 0.37352 0.0
C567 C 0.24704 0.38727 0.38149 0.0
C568 C 0.25312 0.46798 0.37816 0.0
C569 C 0.25471 0.4875 0.36721 0.0
C570 C 0.24281 0.40407 0.41221 0.0
C571 C 0.2513 0.3263 0.41544 0.0
C572 C 0.24077 0.42326 0.40119 0.0
C573 C 0.24733 0.36524 0.3932 0.0
C574 C 0.25555 0.28727 0.39651 0.0
C575 C 0.25743 0.26801 0.40745 0.0
H576 H 0.01391 0.95775 0.61459 0.0
H577 H 0.98721 0.19916 0.60583 0.0
H578 H 1.01059 0.99253 0.63353 0.0
H579 H 0.98309 0.23337 0.62503 0.0
H580 H 1.00854 0.30178 0.65892 0.0
H581 H 1.00612 0.26675 0.63995 0.0
H582 H 0.9863 0.015 0.64833 0.0
H583 H 0.98957 0.04969 0.66753 0.0
C584 C 1.00705 0.01817 0.61671 0.0
C585 C 1.00095 0.07602 0.60867 0.0
C586 C 1.00493 0.03775 0.62763 0.0
C587 C 0.99648 0.11559 0.63087 0.0
C588 C 0.98993 0.17311 0.62283 0.0
C589 C 0.99222 0.15361 0.61183 0.0
C590 C 1.00354 0.23888 0.65677 0.0
C591 C 0.99945 0.17817 0.66477 0.0
C592 C 1.00193 0.21907 0.64583 0.0
C593 C 0.99603 0.13807 0.64255 0.0
C594 C 0.99124 0.07779 0.65056 0.0
C595 C 0.99301 0.09757 0.66157 0.0
H596 H 0.26638 0.04775 0.60708 0.0
H597 H 0.29392 0.29146 0.61388 0.0
H598 H 0.26747 0.01426 0.62635 0.0
H599 H 0.29563 0.25751 0.63302 0.0
H600 H 0.26763 0.20789 0.66721 0.0
H601 H 0.27075 0.24078 0.64794 0.0
H602 H 0.29078 0.98606 0.64145 0.0
H603 H 0.28701 0.95306 0.66051 0.0
C604 C 0.27311 0.09335 0.61266 0.0
C605 C 0.27993 0.17228 0.60899 0.0
C606 C 0.27376 0.07434 0.62371 0.0
C607 C 0.28144 0.13364 0.63128 0.0
C608 C 0.28915 0.21112 0.62748 0.0
C609 C 0.28833 0.23025 0.61649 0.0
C610 C 0.27293 0.15945 0.66166 0.0
C611 C 0.27686 0.07787 0.66535 0.0
C612 C 0.27478 0.17812 0.65062 0.0
C613 C 0.2808 0.1157 0.6431 0.0
C614 C 0.28559 0.03512 0.64693 0.0
C615 C 0.28356 0.01642 0.6579 0.0
H616 H 0.01408 0.69723 0.36496 0.0
H617 H 0.03623 0.94491 0.35604 0.0
H618 H 0.0173 0.73269 0.38388 0.0
H619 H 0.04036 0.97989 0.3752 0.0
H620 H 0.01379 0.0435 0.40902 0.0
H621 H 0.01698 0.00818 0.39009 0.0
H622 H 0.04071 0.76188 0.3987 0.0
H623 H 0.03662 0.79668 0.41787 0.0
C624 C 0.01997 0.75919 0.36704 0.0
C625 C 0.02471 0.81862 0.35896 0.0
C626 C 0.02204 0.77922 0.37795 0.0
C627 C 0.02911 0.85913 0.38113 0.0
C628 C 0.03454 0.91803 0.37304 0.0
C629 C 0.03227 0.89807 0.36206 0.0
C630 C 0.01982 0.98178 0.40693 0.0
C631 C 0.02476 0.92253 0.41498 0.0
C632 C 0.02187 0.96184 0.39601 0.0
C633 C 0.02912 0.88221 0.3928 0.0
C634 C 0.03475 0.82352 0.40087 0.0
C635 C 0.0325 0.84337 0.41185 0.0
H636 H 0.73642 0.69733 0.41005 0.0
H637 H 0.75507 0.95302 0.41669 0.0
H638 H 0.7327 0.72996 0.39097 0.0
H639 H 0.752 0.98556 0.39742 0.0
H640 H 0.72913 0.03589 0.36344 0.0
H641 H 0.72718 0.00131 0.38255 0.0
H642 H 0.7559 0.7591 0.37582 0.0
H643 H 0.75721 0.79325 0.35656 0.0
C644 C 0.73971 0.76079 0.40742 0.0
C645 C 0.74618 0.82263 0.41486 0.0
C646 C 0.73771 0.77929 0.39645 0.0
C647 C 0.74229 0.86004 0.3926 0.0
C648 C 0.74812 0.92277 0.4001 0.0
C649 C 0.74993 0.9043 0.41115 0.0
C650 C 0.73478 0.97475 0.36602 0.0
C651 C 0.74342 0.9173 0.35851 0.0
C652 C 0.73383 0.95526 0.377 0.0
C653 C 0.74166 0.87797 0.38078 0.0
C654 C 0.74953 0.81905 0.3732 0.0
C655 C 0.7503 0.83841 0.36215 0.0
H656 H 0.9912 0.53991 0.16771 0.0
H657 H 1.00905 0.79421 0.15962 0.0
H658 H 0.98896 0.50658 0.14842 0.0
H659 H 1.00757 0.76064 0.14059 0.0
H660 H 0.98981 0.69447 0.10625 0.0
H661 H 0.98493 0.72632 0.12548 0.0
H662 H 0.01425 0.48821 0.13378 0.0
H663 H 0.01843 0.45574 0.1148 0.0
C664 C 0.99459 0.58857 0.16184 0.0
C665 C 1.00043 0.66941 0.16522 0.0
C666 C 0.9934 0.56957 0.15079 0.0
C667 C 0.99814 0.63096 0.14292 0.0
C668 C 1.00344 0.71212 0.14636 0.0
C669 C 1.0045 0.7311 0.15734 0.0
C670 C 0.99509 0.64903 0.11221 0.0
C671 C 1.0046 0.57291 0.10898 0.0
C672 C 0.99235 0.66717 0.12322 0.0
C673 C 0.99917 0.60968 0.13121 0.0
C674 C 1.0084 0.5333 0.12791 0.0
C675 C 1.01102 0.51512 0.11697 0.0
H676 H 0.23379 0.48017 0.1614 0.0
H677 H 0.28856 0.65207 0.16488 0.0
H678 H 0.23353 0.50405 0.14198 0.0
H679 H 0.28846 0.67509 0.14516 0.0
H680 H 0.29178 0.60243 0.10748 0.0
H681 H 0.29415 0.57305 0.12701 0.0
H682 H 0.22544 0.64224 0.13072 0.0
H683 H 0.22324 0.67318 0.11143 0.0
C684 C 0.2458 0.5232 0.158 0.0
C685 C 0.26115 0.56461 0.16465 0.0
C686 C 0.24564 0.53662 0.14688 0.0
C687 C 0.26107 0.59073 0.1421 0.0
C688 C 0.27655 0.63234 0.14869 0.0
C689 C 0.27644 0.62003 0.15994 0.0
C690 C 0.27714 0.6095 0.11247 0.0
C691 C 0.25725 0.63902 0.10799 0.0
C692 C 0.27858 0.59403 0.12362 0.0
C693 C 0.26001 0.60617 0.13032 0.0
C694 C 0.23997 0.63249 0.12572 0.0
C695 C 0.23868 0.64963 0.11469 0.0
H696 H 0.03393 0.44632 0.85588 0.0
H697 H 1.00566 0.20734 0.86467 0.0
H698 H 0.03826 0.4801 0.87508 0.0
H699 H 1.00928 0.24168 0.88362 0.0
H700 H 0.03188 0.29631 0.9175 0.0
H701 H 0.03428 0.2617 0.89825 0.0
H702 H 0.01545 0.51487 0.89014 0.0
H703 H 0.01383 0.54975 0.90914 0.0
C704 C 0.0286 0.40126 0.86189 0.0
C705 C 0.0194 0.32443 0.85874 0.0
C706 C 0.03103 0.42049 0.87288 0.0
C707 C 0.02417 0.36343 0.88093 0.0
C708 C 0.01517 0.28645 0.87771 0.0
C709 C 0.01289 0.26717 0.86678 0.0
C710 C 0.02846 0.3445 0.91158 0.0
C711 C 0.02255 0.42549 0.91487 0.0
C712 C 0.02974 0.32477 0.90055 0.0
C713 C 0.025 0.38553 0.89261 0.0
C714 C 0.01958 0.46683 0.89597 0.0
C715 C 0.01844 0.48655 0.90692 0.0
H716 H 0.74341 0.44912 0.91677 0.0
H717 H 0.76478 0.19904 0.90856 0.0
H718 H 0.74053 0.48235 0.89749 0.0
H719 H 0.76256 0.2326 0.88953 0.0
H720 H 0.74155 0.29528 0.85537 0.0
H721 H 0.73855 0.26201 0.87466 0.0
H722 H 0.76501 0.50562 0.8826 0.0
H723 H 0.76737 0.53932 0.86357 0.0
C724 C 0.7475 0.40143 0.91088 0.0
C725 C 0.75442 0.32174 0.91422 0.0
C726 C 0.74592 0.42036 0.89984 0.0
C727 C 0.75132 0.36005 0.89193 0.0
C728 C 0.75789 0.28014 0.89534 0.0
C729 C 0.75937 0.26123 0.90631 0.0
C730 C 0.74662 0.34157 0.86126 0.0
C731 C 0.75475 0.4197 0.85792 0.0
C732 C 0.74496 0.32263 0.87231 0.0
C733 C 0.75148 0.38134 0.88021 0.0
C734 C 0.75941 0.45951 0.8768 0.0
C735 C 0.76097 0.47845 0.86583 0.0
H736 H 0.3232 0.9157 0.08022 0.0
H737 H 0.34744 0.66228 0.07744 0.0
H738 H 0.3614 0.96702 0.07999 0.0
H739 H 0.38522 0.71323 0.07683 0.0
H740 H 0.45291 0.82738 0.08419 0.0
H741 H 0.41492 0.77635 0.08658 0.0
H742 H 0.39065 0.98118 0.06711 0.0
H743 H 0.42816 0.03279 0.065 0.0
C744 C 0.33663 0.87104 0.0796 0.0
C745 C 0.33223 0.78507 0.07879 0.0
C746 C 0.35853 0.90031 0.07939 0.0
C747 C 0.37645 0.84424 0.07831 0.0
C748 C 0.37195 0.75821 0.07781 0.0
C749 C 0.35017 0.72907 0.07807 0.0
C750 C 0.43942 0.86094 0.08038 0.0
C751 C 0.44354 0.93407 0.07443 0.0
C752 C 0.41765 0.83192 0.08175 0.0
C753 C 0.39963 0.87522 0.07713 0.0
C754 C 0.40396 0.94739 0.07102 0.0
C755 C 0.42558 0.97649 0.06972 0.0
H756 H 0.84854 0.17759 0.06829 0.0
H757 H 0.82357 0.4128 0.08045 0.0
H758 H 0.88611 0.23068 0.06914 0.0
H759 H 0.86157 0.46572 0.08157 0.0
H760 H 0.9534 0.3244 0.08074 0.0
H761 H 0.91541 0.27007 0.08124 0.0
H762 H 0.891 0.50831 0.06983 0.0
H763 H 0.92841 0.56255 0.06961 0.0
C764 C 0.85107 0.24073 0.07121 0.0
C765 C 0.83299 0.29118 0.07427 0.0
C766 C 0.87272 0.27086 0.07179 0.0
C767 C 0.87697 0.35227 0.07547 0.0
C768 C 0.85889 0.40289 0.07858 0.0
C769 C 0.83711 0.3727 0.07796 0.0
C770 C 0.93987 0.36487 0.07836 0.0
C771 C 0.94397 0.44769 0.07516 0.0
C772 C 0.91811 0.33389 0.07862 0.0
C773 C 0.90008 0.38507 0.07563 0.0
C774 C 0.90433 0.46764 0.07241 0.0
C775 C 0.92592 0.49849 0.0722 0.0
H776 H 0.42672 0.17446 0.19193 0.0
H777 H 0.45037 0.42037 0.20066 0.0
H778 H 0.38906 0.22668 0.19114 0.0
H779 H 0.41227 0.47265 0.20024 0.0
H780 H 0.34486 0.55741 0.18854 0.0
H781 H 0.3825 0.50427 0.18832 0.0
H782 H 0.35969 0.27245 0.20251 0.0
H783 H 0.32164 0.32524 0.20238 0.0
C784 C 0.42384 0.23987 0.19373 0.0
C785 C 0.44152 0.29338 0.1964 0.0
C786 C 0.40216 0.26963 0.19336 0.0
C787 C 0.39751 0.35364 0.19572 0.0
C788 C 0.41526 0.40767 0.19825 0.0
C789 C 0.43709 0.37788 0.19853 0.0
C790 C 0.34783 0.49482 0.19157 0.0
C791 C 0.33029 0.44546 0.19551 0.0
C792 C 0.36949 0.46465 0.19152 0.0
C793 C 0.37425 0.38449 0.19551 0.0
C794 C 0.35661 0.33428 0.19928 0.0
C795 C 0.3348 0.36436 0.19922 0.0
H796 H 0.82115 0.82715 0.19387 0.0
H797 H 0.8464 0.06177 0.20609 0.0
H798 H 0.85902 0.77223 0.1932 0.0
H799 H 0.88378 0.0068 0.20567 0.0
H800 H 0.95085 0.91164 0.19417 0.0
H801 H 0.91297 0.96619 0.19347 0.0
H802 H 0.8881 0.72969 0.20532 0.0
H803 H 0.92552 0.67507 0.20576 0.0
C804 C 0.83472 0.86665 0.19647 0.0
C805 C 0.83076 0.94867 0.20002 0.0
C806 C 0.85639 0.83534 0.19611 0.0
C807 C 0.87447 0.8854 0.19933 0.0
C808 C 0.87037 0.96713 0.20292 0.0
C809 C 0.84883 -0.00166 0.20325 0.0
C810 C 0.93726 0.87159 0.19662 0.0
C811 C 0.94121 0.7892 0.20002 0.0
C812 C 0.91557 0.9027 0.19625 0.0
C813 C 0.89747 0.85208 0.1993 0.0
C814 C 0.90155 0.76986 0.20271 0.0
C815 C 0.9231 0.73884 0.20305 0.0
H816 H 0.70164 0.07513 0.95105 0.0
H817 H 0.67763 0.3156 0.94029 0.0
H818 H 0.66369 0.02118 0.9508 0.0
H819 H 0.64011 0.26156 0.93967 0.0
H820 H 0.5727 0.16606 0.95139 0.0
H821 H 0.61063 0.22025 0.95124 0.0
H822 H 0.63422 0.98274 0.9391 0.0
H823 H 0.5967 0.92837 0.93963 0.0
C824 C 0.68832 0.11598 0.9485 0.0
C825 C 0.69259 0.19956 0.94576 0.0
C826 C 0.66657 0.08523 0.94833 0.0
C827 C 0.64876 0.1373 0.94529 0.0
C828 C 0.65327 0.22023 0.94229 0.0
C829 C 0.67486 0.251 0.94257 0.0
C830 C 0.58601 0.12594 0.94863 0.0
C831 C 0.58176 0.04299 0.94559 0.0
C832 C 0.60775 0.15682 0.94852 0.0
C833 C 0.62557 0.10554 0.94524 0.0
C834 C 0.62106 0.02337 0.94192 0.0
C835 C 0.59948 0.99244 0.94214 0.0
H836 H 0.17836 0.80113 0.95981 0.0
H837 H 0.20208 0.57879 0.94365 0.0
H838 H 0.14069 0.74868 0.95895 0.0
H839 H 0.164 0.52661 0.94259 0.0
H840 H 0.09724 0.42244 0.9539 0.0
H841 H 0.13489 0.47472 0.95419 0.0
H842 H 0.11115 0.72204 0.94618 0.0
H843 H 0.073 0.66961 0.94613 0.0
C844 C 0.17553 0.7409 0.95605 0.0
C845 C 0.19324 0.69398 0.9518 0.0
C846 C 0.15385 0.71124 0.95547 0.0
C847 C 0.14926 0.6339 0.95061 0.0
C848 C 0.167 0.58627 0.94646 0.0
C849 C 0.18881 0.61599 0.94707 0.0
C850 C 0.09994 0.48811 0.95218 0.0
C851 C 0.08205 0.54203 0.95001 0.0
C852 C 0.12163 0.51786 0.95227 0.0
C853 C 0.1261 0.60239 0.95016 0.0
C854 C 0.10824 0.6566 0.94795 0.0
C855 C 0.0864 0.62669 0.94788 0.0
H856 H 0.57063 0.57626 0.83146 0.0
H857 H 0.59466 0.79339 0.81424 0.0
H858 H 0.60867 0.52425 0.83289 0.0
H859 H 0.63227 0.741 0.81543 0.0
H860 H 0.69997 0.66618 0.82803 0.0
H861 H 0.66181 0.71828 0.82815 0.0
H862 H 0.6378 0.46838 0.82179 0.0
H863 H 0.67546 0.41647 0.82197 0.0
C864 C 0.58396 0.61229 0.82788 0.0
C865 C 0.57964 0.68883 0.82276 0.0
C866 C 0.60575 0.5827 0.8287 0.0
C867 C 0.62357 0.62894 0.82436 0.0
C868 C 0.61907 0.70474 0.81909 0.0
C869 C 0.59742 0.73433 0.81832 0.0
C870 C 0.6865 0.62258 0.82672 0.0
C871 C 0.69078 0.53739 0.82497 0.0
C872 C 0.66465 0.6523 0.82673 0.0
C873 C 0.64672 0.5974 0.82496 0.0
C874 C 0.65111 0.51219 0.82335 0.0
C875 C 0.67282 0.4826 0.82337 0.0
H876 H 0.09617 0.31558 0.8195 0.0
H877 H 0.07109 0.07635 0.83028 0.0
H878 H 0.13365 0.26181 0.81987 0.0
H879 H 0.10907 0.02258 0.83092 0.0
H880 H 0.17601 0.93147 0.818 0.0
H881 H 0.13847 0.9849 0.81866 0.0
H882 H 0.1627 0.21787 0.83186 0.0
H883 H 0.20069 0.16461 0.83094 0.0
C884 C 0.09865 0.25141 0.82203 0.0
C885 C 0.08059 0.20007 0.82484 0.0
C886 C 0.12025 0.22085 0.82233 0.0
C887 C 0.12444 0.13811 0.82549 0.0
C888 C 0.10639 0.08652 0.82835 0.0
C889 C 0.08464 0.11719 0.82801 0.0
C890 C 0.17342 0.99422 0.82105 0.0
C891 C 0.19138 0.044 0.82439 0.0
C892 C 0.15179 0.02452 0.82152 0.0
C893 C 0.1475 0.10539 0.82538 0.0
C894 C 0.16546 0.15545 0.82874 0.0
C895 C 0.18722 0.12508 0.82823 0.0
H896 H 0.45114 0.32097 0.57822 0.0
H897 H 0.42766 0.56499 0.56849 0.0
H898 H 0.41285 0.26988 0.57838 0.0
H899 H 0.38987 0.51397 0.56844 0.0
H900 H 0.32222 0.41777 0.57958 0.0
H901 H 0.36046 0.46878 0.58033 0.0
H902 H 0.38326 0.23837 0.56584 0.0
H903 H 0.34544 0.18721 0.56529 0.0
C904 C 0.43788 0.36345 0.57607 0.0
C905 C 0.44249 0.4469 0.57334 0.0
C906 C 0.41595 0.3343 0.57613 0.0
C907 C 0.39825 0.38805 0.57346 0.0
C908 C 0.40299 0.47129 0.57073 0.0
C909 C 0.42477 0.50028 0.57068 0.0
C910 C 0.33541 0.37843 0.57651 0.0
C911 C 0.33077 0.29855 0.57239 0.0
C912 C 0.35732 0.40749 0.57693 0.0
C913 C 0.37497 0.3573 0.57321 0.0
C914 C 0.37018 0.27795 0.56898 0.0
C915 C 0.34841 0.24899 0.56858 0.0
H916 H 0.84632 0.69127 0.56375 0.0
H917 H 0.82162 0.91234 0.57984 0.0
H918 H 0.88381 0.74532 0.56478 0.0
H919 H 0.85953 0.96618 0.58108 0.0
H920 H 0.92624 0.07342 0.57009 0.0
H921 H 0.88874 0.01964 0.56971 0.0
H922 H 0.91314 0.773 0.57759 0.0
H923 H 0.95115 0.82699 0.57773 0.0
C924 C 0.84889 0.75159 0.56753 0.0
C925 C 0.83094 0.79764 0.5717 0.0
C926 C 0.87048 0.78217 0.56821 0.0
C927 C 0.87477 0.85963 0.5731 0.0
C928 C 0.85679 0.90644 0.57717 0.0
C929 C 0.83507 0.87578 0.57647 0.0
C930 C 0.92372 0.00759 0.57177 0.0
C931 C 0.94177 0.95434 0.57391 0.0
C932 C 0.9021 0.97696 0.57163 0.0
C933 C 0.89785 0.89215 0.57366 0.0
C934 C 0.91587 0.83864 0.57587 0.0
C935 C 0.93763 0.86945 0.576 0.0
H936 H 0.45159 0.91529 0.70273 0.0
H937 H 0.42717 0.68431 0.68912 0.0
H938 H 0.41374 0.9701 0.70315 0.0
H939 H 0.38973 0.7395 0.68914 0.0
H940 H 0.32235 0.82599 0.70171 0.0
H941 H 0.36028 0.77211 0.70107 0.0
H942 H 0.38417 0.01797 0.69228 0.0
H943 H 0.3467 0.07174 0.69332 0.0
C944 C 0.4382 0.87693 0.69966 0.0
C945 C 0.44231 0.79553 0.69595 0.0
C946 C 0.4165 0.90814 0.69988 0.0
C947 C 0.39857 0.85886 0.69627 0.0
C948 C 0.40295 0.77847 0.69224 0.0
C949 C 0.4245 0.74711 0.69214 0.0
C950 C 0.33575 0.86814 0.69962 0.0
C951 C 0.33155 0.95303 0.69764 0.0
C952 C 0.35749 0.83743 0.69921 0.0
C953 C 0.37539 0.89086 0.69668 0.0
C954 C 0.37097 0.97535 0.6945 0.0
C955 C 0.34938 0.00604 0.69502 0.0
H956 H 0.8455 0.56177 0.70809 0.0
H957 H 0.82183 0.32949 0.69446 0.0
H958 H 0.88319 0.50925 0.70772 0.0
H959 H 0.85993 0.27709 0.6939 0.0
H960 H 0.9267 0.18057 0.70599 0.0
H961 H 0.88908 0.23324 0.70603 0.0
H962 H 0.91275 0.47434 0.69522 0.0
H963 H 0.95087 0.4216 0.69539 0.0
C964 C 0.84833 0.49932 0.70499 0.0
C965 C 0.83062 0.44966 0.70131 0.0
C966 C 0.87004 0.46956 0.7047 0.0
C967 C 0.87465 0.38932 0.70071 0.0
C968 C 0.85692 0.33907 0.69712 0.0
C969 C 0.83509 0.36893 0.69743 0.0
C970 C 0.924 0.24497 0.70362 0.0
C971 C 0.94185 0.29701 0.70069 0.0
C972 C 0.90232 0.2749 0.70356 0.0
C973 C 0.89783 0.35774 0.70056 0.0
C974 C 0.91567 0.41026 0.69767 0.0
C975 C 0.9375 0.38018 0.69774 0.0
H976 H 0.57171 0.66659 0.45335 0.0
H977 H 0.59576 0.42932 0.44147 0.0
H978 H 0.60968 0.72037 0.45342 0.0
H979 H 0.63329 0.48332 0.44113 0.0
H980 H 0.70094 0.57437 0.45255 0.0
H981 H 0.66294 0.52087 0.45257 0.0
H982 H 0.63915 0.76277 0.44209 0.0
H983 H 0.67672 0.81634 0.44251 0.0
C984 C 0.58505 0.62646 0.45062 0.0
C985 C 0.58078 0.54377 0.44747 0.0
C986 C 0.60682 0.6571 0.45063 0.0
C987 C 0.62466 0.60592 0.44735 0.0
C988 C 0.62014 0.52392 0.44396 0.0
C989 C 0.59853 0.49318 0.44407 0.0
C990 C 0.68755 0.61567 0.45022 0.0
C991 C 0.69179 0.69949 0.4476 0.0
C992 C 0.66577 0.58519 0.45019 0.0
C993 C 0.64787 0.63771 0.44739 0.0
C994 C 0.65235 0.721 0.44454 0.0
C995 C 0.67398 0.75154 0.4447 0.0
H996 H 0.07098 0.16494 0.44363 0.0
H997 H 0.09567 0.93869 0.45844 0.0
H998 H 0.10889 0.21926 0.44267 0.0
H999 H 0.13312 0.99316 0.45771 0.0
H1000 H 0.20053 0.07955 0.44544 0.0
H1001 H 0.16256 0.02542 0.44516 0.0
H1002 H 0.1379 0.26895 0.45439 0.0
H1003 H 0.17539 0.323 0.45442 0.0
C1004 C 0.08443 0.12727 0.44676 0.0
C1005 C 0.08031 0.04762 0.45109 0.0
C1006 C 0.10614 0.15821 0.44622 0.0
C1007 C 0.1241 0.11017 0.45004 0.0
C1008 C 0.11981 0.03106 0.45448 0.0
C1009 C 0.09824 0.0002 0.45499 0.0
C1010 C 0.18697 0.12129 0.44738 0.0
C1011 C 0.19101 0.2054 0.44996 0.0
C1012 C 0.16522 0.0904 0.44726 0.0
C1013 C 0.14715 0.14302 0.44973 0.0
C1014 C 0.15132 0.22705 0.45226 0.0
C1015 C 0.17293 0.25781 0.45236 0.0
H1016 H 0.67723 0.94069 0.31558 0.0
H1017 H 0.70146 0.16841 0.33021 0.0
H1018 H 0.63965 0.99399 0.31629 0.0
H1019 H 0.66345 0.22152 0.33114 0.0
H1020 H 0.59689 0.3233 0.31931 0.0
H1021 H 0.63443 0.26988 0.31934 0.0
H1022 H 0.61006 0.02635 0.32878 0.0
H1023 H 0.57202 0.07988 0.32851 0.0
C1024 C 0.67453 0.00227 0.31899 0.0
C1025 C 0.69238 0.05047 0.32282 0.0
C1026 C 0.65289 0.03246 0.31948 0.0
C1027 C 0.64845 0.11168 0.32385 0.0
C1028 C 0.66632 0.16039 0.32763 0.0
C1029 C 0.68809 0.13012 0.32711 0.0
C1030 C 0.59943 0.25823 0.32141 0.0
C1031 C 0.58139 0.20569 0.32389 0.0
C1032 C 0.62106 0.22784 0.32151 0.0
C1033 C 0.62533 0.14401 0.32411 0.0
C1034 C 0.60732 0.09118 0.32663 0.0
C1035 C 0.58554 0.12173 0.32651 0.0
H1036 H 0.20042 0.66903 0.32852 0.0
H1037 H 0.17626 0.42366 0.31978 0.0
H1038 H 0.16226 0.72122 0.32863 0.0
H1039 H 0.13858 0.47577 0.31966 0.0
H1040 H 0.07116 0.57747 0.33033 0.0
H1041 H 0.10923 0.52486 0.3313 0.0
H1042 H 0.13286 0.75099 0.31599 0.0
H1043 H 0.09525 0.80374 0.31522 0.0
C1044 C 0.18703 0.62646 0.32658 0.0
C1045 C 0.19142 0.54236 0.32413 0.0
C1046 C 0.16518 0.65623 0.32662 0.0
C1047 C 0.14732 0.6025 0.32418 0.0
C1048 C 0.15182 0.51852 0.32176 0.0
C1049 C 0.17354 0.48888 0.32174 0.0
C1050 C 0.0845 0.6155 0.32713 0.0
C1051 C 0.08017 0.69469 0.32272 0.0
C1052 C 0.10631 0.58553 0.32768 0.0
C1053 C 0.12415 0.63413 0.3238 0.0
C1054 C 0.11965 0.71271 0.31927 0.0
C1055 C 0.09798 0.74257 0.31874 0.0
H1056 H 0.51213 0.12941 0.0388 0.0
H1057 H 0.5106 0.85926 0.0395 0.0
H1058 H 0.51277 0.12554 0.01903 0.0
H1059 H 0.51049 0.85534 0.01992 0.0
H1060 H 0.53198 0.87265 0.98465 0.0
H1061 H 0.53308 0.87828 1.00441 0.0
H1062 H 0.48971 0.09338 1.00398 0.0
H1063 H 0.4892 0.08926 0.98439 0.0
C1064 C 0.51176 0.06939 0.03474 0.0
C1065 C 0.51137 0.99481 0.04072 0.0
C1066 C 0.51206 0.06699 0.02342 0.0
C1067 C 0.51177 0.98996 0.01785 0.0
C1068 C 0.5112 0.91567 0.02389 0.0
C1069 C 0.51108 0.91807 0.03515 0.0
C1070 C 0.52266 0.92082 0.98881 0.0
C1071 C 0.51057 0.98049 0.98296 0.0
C1072 C 0.52323 0.9241 1.00013 0.0
C1073 C 0.51157 0.98671 1.00581 0.0
C1074 C 0.49927 0.04549 0.99991 0.0
C1075 C 0.49884 0.04257 0.98864 0.0
H1076 H 0.76429 0.10656 0.03826 0.0
H1077 H 0.76337 0.37664 0.03944 0.0
H1078 H 0.7636 0.11259 0.01848 0.0
H1079 H 0.7634 0.38275 0.01987 0.0
H1080 H 0.74238 0.36652 0.98451 0.0
H1081 H 0.74127 0.359 1.00427 0.0
H1082 H 0.78642 0.14921 1.00349 0.0
H1083 H 0.78695 0.1552 0.98391 0.0
C1084 C 0.76409 0.16703 0.03431 0.0
C1085 C 0.76385 0.24093 0.04043 0.0
C1086 C 0.76377 0.17069 0.02298 0.0
C1087 C 0.76338 0.24833 0.01755 0.0
C1088 C 0.76325 0.32193 0.02373 0.0
C1089 C 0.76341 0.31827 0.03499 0.0
C1090 C 0.75211 0.31918 0.98859 0.0
C1091 C 0.76468 0.26145 0.98264 0.0
C1092 C 0.75152 0.31478 0.99992 0.0
C1093 C 0.76365 0.25297 1.00551 0.0
C1094 C 0.77647 0.19634 0.9995 0.0
C1095 C 0.77692 0.20037 0.98823 0.0
H1096 H 0.49144 0.13127 0.23475 0.0
H1097 H 0.53662 0.34094 0.23421 0.0
H1098 H 0.49008 0.13919 0.2545 0.0
H1099 H 0.53584 0.34729 0.25379 0.0
H1100 H 0.51304 0.39122 0.28844 0.0
H1101 H 0.51272 0.38496 0.26867 0.0
H1102 H 0.51209 0.1148 0.27013 0.0
H1103 H 0.51168 0.12115 0.28969 0.0
C1104 C 0.50125 0.1783 0.23885 0.0
C1105 C 0.51407 0.23549 0.23292 0.0
C1106 C 0.50053 0.18293 0.25016 0.0
C1107 C 0.51275 0.24439 0.25576 0.0
C1108 C 0.52582 0.30045 0.24978 0.0
C1109 C 0.52641 0.29622 0.23852 0.0
C1110 C 0.51281 0.33071 0.28451 0.0
C1111 C 0.51233 0.25687 0.29064 0.0
C1112 C 0.51271 0.32693 0.27319 0.0
C1113 C 0.5123 0.24921 0.26778 0.0
C1114 C 0.51195 0.17567 0.27397 0.0
C1115 C 0.51189 0.17946 0.28523 0.0
H1116 H 0.78361 0.1148 0.23459 0.0
H1117 H 0.73261 0.92524 0.23511 0.0
H1118 H 0.78649 0.10583 0.25428 0.0
H1119 H 0.73492 0.91803 0.25466 0.0
H1120 H 0.75886 0.86256 0.28871 0.0
H1121 H 0.75803 0.86989 0.26895 0.0
H1122 H 0.76729 0.13775 0.27052 0.0
H1123 H 0.76888 0.13 0.29005 0.0
C1124 C 0.77281 0.07222 0.23891 0.0
C1125 C 0.75794 0.02072 0.23329 0.0
C1126 C 0.77443 0.06691 0.2502 0.0
C1127 C 0.76106 0.01051 0.25609 0.0
C1128 C 0.74586 0.96063 0.25042 0.0
C1129 C 0.74438 0.96546 0.23919 0.0
C1130 C 0.76083 0.92276 0.2848 0.0
C1131 C 0.76394 0.9955 0.29097 0.0
C1132 C 0.76023 0.92722 0.27348 0.0
C1133 C 0.76257 0.0046 0.2681 0.0
C1134 C 0.76581 0.07697 0.27432 0.0
C1135 C 0.76656 0.07243 0.28558 0.0
H1136 H 0.28399 0.63583 0.98388 0.0
H1137 H 0.25407 0.88121 0.98516 0.0
H1138 H 0.2861 0.63255 1.00344 0.0
H1139 H 0.25582 0.87714 1.00494 0.0
H1140 H 0.28385 0.87685 0.0392 0.0
H1141 H 0.28253 0.88021 0.01958 0.0
H1142 H 0.26261 0.62059 0.0192 0.0
H1143 H 0.26432 0.61681 0.03896 0.0
C1144 C 0.27777 0.68922 0.98834 0.0
C1145 C 0.26883 0.75893 0.98293 0.0
C1146 C 0.27886 0.68691 0.9996 0.0
C1147 C 0.27101 0.7542 1.00579 0.0
C1148 C 0.26221 0.82446 1.0004 0.0
C1149 C 0.26114 0.82683 0.98908 0.0
C1150 C 0.27931 0.82016 0.03495 0.0
C1151 C 0.27418 0.74643 0.04066 0.0
C1152 C 0.27836 0.82243 0.02369 0.0
C1153 C 0.27225 0.75104 0.0178 0.0
C1154 C 0.26755 0.67663 0.02349 0.0
C1155 C 0.26853 0.67432 0.0348 0.0
H1156 H 0.50661 0.60551 0.73515 0.0
H1157 H 0.50895 0.87547 0.73383 0.0
H1158 H 0.50607 0.61219 0.75492 0.0
H1159 H 0.50778 0.88222 0.75338 0.0
H1160 H 0.52828 0.86329 0.78886 0.0
H1161 H 0.52963 0.85596 0.76912 0.0
H1162 H 0.48252 0.65223 0.76966 0.0
H1163 H 0.48166 0.65814 0.78926 0.0
C1164 C 0.50685 0.66609 0.73906 0.0
C1165 C 0.50789 0.73977 0.73291 0.0
C1166 C 0.50647 0.67011 0.75038 0.0
C1167 C 0.50698 0.7479 0.75576 0.0
C1168 C 0.50782 0.82129 0.74956 0.0
C1169 C 0.50832 0.81727 0.7383 0.0
C1170 C 0.51812 0.81748 0.78474 0.0
C1171 C 0.50493 0.76129 0.79062 0.0
C1172 C 0.51886 0.81317 0.77342 0.0
C1173 C 0.50629 0.75295 0.76778 0.0
C1174 C 0.49278 0.69809 0.77372 0.0
C1175 C 0.49215 0.70209 0.78498 0.0
H1176 H 0.23425 0.91313 0.73483 0.0
H1177 H 0.28116 0.11726 0.7351 0.0
H1178 H 0.23533 0.90658 0.75441 0.0
H1179 H 0.2828 0.10914 0.75484 0.0
H1180 H 0.26236 0.12881 0.79023 0.0
H1181 H 0.26157 0.13569 0.77068 0.0
H1182 H 0.25837 0.86583 0.76914 0.0
H1183 H 0.25844 0.85913 0.78891 0.0
C1184 C 0.24488 0.95665 0.73908 0.0
C1185 C 0.25763 0.01584 0.7334 0.0
C1186 C 0.24565 0.95227 0.75034 0.0
C1187 C 0.25931 0.00664 0.75625 0.0
C1188 C 0.27191 0.06671 0.75057 0.0
C1189 C 0.27101 0.07147 0.73925 0.0
C1190 C 0.26151 0.07066 0.78576 0.0
C1191 C 0.26045 0.99324 0.79116 0.0
C1192 C 0.26123 0.07473 0.7745 0.0
C1193 C 0.26002 0.00146 0.76828 0.0
C1194 C 0.25903 0.92373 0.77367 0.0
C1195 C 0.25916 0.91968 0.785 0.0
H1196 H 0.53286 0.37686 0.48445 0.0
H1197 H 0.48185 0.5663 0.485 0.0
H1198 H 0.53565 0.38531 0.50415 0.0
H1199 H 0.48412 0.57305 0.50456 0.0
H1200 H 0.50858 0.62856 0.53855 0.0
H1201 H 0.50757 0.62124 0.51879 0.0
H1202 H 0.51614 0.35308 0.52036 0.0
H1203 H 0.51787 0.36074 0.53988 0.0
C1204 C 0.52204 0.41929 0.48879 0.0
C1205 C 0.5072 0.47096 0.48318 0.0
C1206 C 0.52361 0.4243 0.50007 0.0
C1207 C 0.51024 0.48059 0.50596 0.0
C1208 C 0.49505 0.53055 0.50031 0.0
C1209 C 0.4936 0.52599 0.48908 0.0
C1210 C 0.51034 0.5683 0.53464 0.0
C1211 C 0.51332 0.49544 0.5408 0.0
C1212 C 0.50965 0.56386 0.52333 0.0
C1213 C 0.51177 0.4864 0.51796 0.0
C1214 C 0.51484 0.41389 0.52417 0.0
C1215 C 0.51567 0.41838 0.53541 0.0
H1216 H 0.72963 0.81514 0.53886 0.0
H1217 H 0.7807 0.62595 0.53886 0.0
H1218 H 0.73158 0.82356 0.51928 0.0
H1219 H 0.78314 0.63597 0.51916 0.0
H1220 H 0.76537 0.61419 0.48351 0.0
H1221 H 0.76342 0.60493 0.50302 0.0
H1222 H 0.75485 0.87292 0.50494 0.0
H1223 H 0.75613 0.8819 0.48518 0.0
C1224 C 0.7413 0.77515 0.53466 0.0
C1225 C 0.75501 0.71972 0.54042 0.0
C1226 C 0.74257 0.78068 0.52342 0.0
C1227 C 0.75767 0.73124 0.51761 0.0
C1228 C 0.77115 0.67454 0.52336 0.0
C1229 C 0.76977 0.66863 0.53465 0.0
C1230 C 0.76311 0.67148 0.48805 0.0
C1231 C 0.76089 0.74898 0.48276 0.0
C1232 C 0.76215 0.66605 0.49929 0.0
C1233 C 0.75907 0.73804 0.5056 0.0
C1234 C 0.75696 0.81592 0.50033 0.0
C1235 C 0.7578 0.8213 0.48901 0.0
H1236 H 0.75495 0.36249 0.78731 0.0
H1237 H 0.75813 0.63222 0.78894 0.0
H1238 H 0.75414 0.37071 0.76755 0.0
H1239 H 0.75672 0.64049 0.7694 0.0
H1240 H 0.77707 0.62228 0.73378 0.0
H1241 H 0.77831 0.61438 0.75352 0.0
H1242 H 0.73052 0.413 0.75294 0.0
H1243 H 0.72973 0.41956 0.73334 0.0
C1244 C 0.75533 0.42335 0.78347 0.0
C1245 C 0.75666 0.4965 0.78971 0.0
C1246 C 0.75478 0.42826 0.77215 0.0
C1247 C 0.75545 0.50642 0.76686 0.0
C1248 C 0.75661 0.57928 0.77315 0.0
C1249 C 0.75726 0.57437 0.7844 0.0
C1250 C 0.7667 0.57699 0.7379 0.0
C1251 C 0.75336 0.52152 0.73199 0.0
C1252 C 0.76739 0.5723 0.74921 0.0
C1253 C 0.75465 0.5124 0.75484 0.0
C1254 C 0.74093 0.45854 0.74889 0.0
C1255 C 0.74033 0.46294 0.73763 0.0
H1256 H 0.26264 0.11905 0.48443 0.0
H1257 H 0.25524 0.38761 0.48603 0.0
H1258 H 0.26078 0.11037 0.50394 0.0
H1259 H 0.25404 0.37914 0.50579 0.0
H1260 H 0.22903 0.32491 0.53981 0.0
H1261 H 0.23063 0.33224 0.52022 0.0
H1262 H 0.281 0.1401 0.52001 0.0
H1263 H 0.27891 0.13124 0.53972 0.0
C1264 C 0.26078 0.17661 0.48896 0.0
C1265 C 0.25908 0.25422 0.48364 0.0
C1266 C 0.25988 0.17151 0.5002 0.0
C1267 C 0.25736 0.24391 0.50649 0.0
C1268 C 0.25572 0.32185 0.50119 0.0
C1269 C 0.25651 0.32693 0.48987 0.0
C1270 C 0.24036 0.28369 0.53559 0.0
C1271 C 0.25385 0.22737 0.54133 0.0
C1272 C 0.24143 0.28858 0.52434 0.0
C1273 C 0.25611 0.23756 0.5185 0.0
C1274 C 0.26934 0.17991 0.52423 0.0
C1275 C 0.26816 0.17466 0.53553 0.0
H1276 H 0.26218 0.62843 0.28989 0.0
H1277 H 0.26078 0.35833 0.28891 0.0
H1278 H 0.26198 0.63372 0.27032 0.0
H1279 H 0.26133 0.36349 0.26913 0.0
H1280 H 0.23739 0.40471 0.2347 0.0
H1281 H 0.23836 0.39962 0.25426 0.0
H1282 H 0.28363 0.60923 0.25458 0.0
H1283 H 0.28206 0.6159 0.23481 0.0
C1284 C 0.26201 0.56987 0.28549 0.0
C1285 C 0.26146 0.49278 0.29098 0.0
C1286 C 0.26208 0.57305 0.27422 0.0
C1287 C 0.26175 0.4992 0.26809 0.0
C1288 C 0.26131 0.42179 0.27358 0.0
C1289 C 0.26107 0.41863 0.28492 0.0
C1290 C 0.24755 0.45003 0.23891 0.0
C1291 C 0.25968 0.51082 0.23318 0.0
C1292 C 0.24824 0.44651 0.25017 0.0
C1293 C 0.26123 0.50333 0.25605 0.0
C1294 C 0.27326 0.56486 0.25033 0.0
C1295 C 0.27241 0.56879 0.239 0.0
H1296 H 0.03103 0.87831 0.48459 0.0
H1297 H 0.9797 0.06653 0.48466 0.0
H1298 H 0.03353 0.88871 0.50427 0.0
H1299 H 0.98171 0.07531 0.50422 0.0
H1300 H 1.00625 0.13509 0.53819 0.0
H1301 H 1.00504 0.12553 0.51844 0.0
H1302 H 0.01386 0.8577 0.52049 0.0
H1303 H 0.01575 0.86755 0.53999 0.0
C1304 C 0.02006 0.92085 0.48882 0.0
C1305 C 1.00522 0.9716 0.48307 0.0
C1306 C 0.02147 0.92698 0.5001 0.0
C1307 C 1.00794 0.98354 0.50586 0.0
C1308 C 0.99274 0.03258 0.50007 0.0
C1309 C 0.99145 0.02685 0.48884 0.0
C1310 C 1.00799 0.0744 0.53439 0.0
C1311 C 1.01113 0.00229 0.54067 0.0
C1312 C 1.00719 0.06869 0.52308 0.0
C1313 C 1.00937 0.99068 0.51785 0.0
C1314 C 0.01252 0.9189 0.52419 0.0
C1315 C 0.01345 0.92466 0.53542 0.0
H1316 H 0.99305 0.12826 0.73459 0.0
H1317 H 0.0407 0.32996 0.73432 0.0
H1318 H 0.9916 0.1354 0.75434 0.0
H1319 H 0.03975 0.33563 0.75391 0.0
H1320 H 0.01591 0.38419 0.78838 0.0
H1321 H 0.01639 0.37744 0.76861 0.0
H1322 H 0.01302 0.10762 0.77015 0.0
H1323 H 0.01188 0.11451 0.7897 0.0
C1324 C 1.00341 0.17322 0.73875 0.0
C1325 C 0.01692 0.22858 0.73289 0.0
C1326 C 1.00262 0.17745 0.75006 0.0
C1327 C 0.01544 0.23671 0.75574 0.0
C1328 C 0.02928 0.29059 0.74984 0.0
C1329 C 0.02996 0.28672 0.73858 0.0
C1330 C 0.01527 0.32364 0.78446 0.0
C1331 C 0.01381 0.25009 0.79062 0.0
C1332 C 0.01563 0.31957 0.77314 0.0
C1333 C 0.01467 0.24183 0.76776 0.0
C1334 C 0.01334 0.16855 0.77397 0.0
C1335 C 0.01286 0.17264 0.78523 0.0
H1336 H 0.01375 0.87317 0.23403 0.0
H1337 H 1.00536 0.60506 0.23581 0.0
H1338 H 0.01203 0.88265 0.25354 0.0
H1339 H 1.00431 0.6143 0.25557 0.0
H1340 H 0.97933 0.67173 0.28953 0.0
H1341 H 0.98104 0.66307 0.26995 0.0
H1342 H 0.03218 0.85247 0.26961 0.0
H1343 H 0.02998 0.86273 0.28931 0.0
C1344 C 0.01172 0.81586 0.2386 0.0
C1345 C 1.00969 0.73816 0.23334 0.0
C1346 C 1.01089 0.82142 0.24984 0.0
C1347 C 1.00814 0.74937 0.25618 0.0
C1348 C 1.00618 0.67132 0.25093 0.0
C1349 C 1.00689 0.66579 0.23962 0.0
C1350 C 0.99087 0.71204 0.28529 0.0
C1351 C 1.00453 0.76806 0.29098 0.0
C1352 C 0.99199 0.70638 0.27404 0.0
C1353 C 1.0069 0.75628 0.26818 0.0
C1354 C 0.02034 0.81353 0.27386 0.0
C1355 C 0.0191 0.81958 0.28515 0.0
H1356 H 0.03018 0.37684 0.9849 0.0
H1357 H 0.98402 0.58325 0.98437 0.0
H1358 H 0.03107 0.3839 1.00466 0.0
H1359 H 0.98439 0.58882 1.00396 0.0
H1360 H 1.00774 0.63506 0.03856 0.0
H1361 H 1.00749 0.62829 0.01879 0.0
H1362 H 1.00903 0.35824 0.02035 0.0
H1363 H 1.00994 0.36512 0.03991 0.0
C1364 C 0.02003 0.42287 0.989 0.0
C1365 C 1.0071 0.47953 0.98307 0.0
C1366 C 0.02049 0.42702 1.00032 0.0
C1367 C 1.00791 0.4875 1.00592 0.0
C1368 C 0.99466 0.54277 0.99995 0.0
C1369 C 0.99432 0.53898 0.98868 0.0
C1370 C 1.00798 0.57445 0.03465 0.0
C1371 C 1.00893 0.50081 0.04081 0.0
C1372 C 1.00777 0.57037 0.02333 0.0
C1373 C 1.00834 0.49255 0.01795 0.0
C1374 C 1.00903 0.41919 0.02417 0.0
C1375 C 1.00938 0.42328 0.03542 0.0
H1376 H 0.57699 0.21084 0.08474 0.0
H1377 H 0.5881 0.95707 0.07406 0.0
H1378 H 0.61667 0.23508 0.08531 0.0
H1379 H 0.62809 0.9821 0.07431 0.0
H1380 H 0.69851 0.02852 0.08541 0.0
H1381 H 0.65881 0.00502 0.08602 0.0
H1382 H 0.6478 0.25452 0.07368 0.0
H1383 H 0.68785 0.27891 0.07338 0.0
C1384 C 0.58794 0.16005 0.08249 0.0
C1385 C 0.57937 0.08192 0.07933 0.0
C1386 C 0.61075 0.17432 0.08274 0.0
C1387 C 0.62567 0.111 0.07977 0.0
C1388 C 0.61711 0.03218 0.07677 0.0
C1389 C 0.59419 0.01769 0.0766 0.0
C1390 C 0.68764 0.07873 0.08287 0.0
C1391 C 0.69635 0.15563 0.07931 0.0
C1392 C 0.66482 0.06487 0.08314 0.0
C1393 C 0.65002 0.12733 0.07979 0.0
C1394 C 0.6587 0.20513 0.07642 0.0
C1395 C 0.68164 0.21925 0.07623 0.0
H1396 H 0.58517 0.28223 0.19127 0.0
H1397 H 0.57721 0.03162 0.20378 0.0
H1398 H 0.62523 0.25983 0.19009 0.0
H1399 H 0.61689 0.01028 0.20293 0.0
H1400 H 0.68753 0.96754 0.19189 0.0
H1401 H 0.64747 0.99011 0.19102 0.0
H1402 H 0.65664 0.24551 0.20158 0.0
H1403 H 0.69634 0.22388 0.2021 0.0
C1404 C 0.59196 0.22271 0.19382 0.0
C1405 C 0.578 0.15888 0.19762 0.0
C1406 C 0.6149 0.20978 0.19317 0.0
C1407 C 0.62433 0.13298 0.19638 0.0
C1408 C 0.61026 0.06949 0.20018 0.0
C1409 C 0.58744 0.08217 0.20076 0.0
C1410 C 0.68093 0.02843 0.19398 0.0
C1411 C 0.69512 0.09371 0.19708 0.0
C1412 C 0.65798 0.04145 0.19352 0.0
C1413 C 0.64877 0.11982 0.19623 0.0
C1414 C 0.66308 0.18493 0.19925 0.0
C1415 C 0.68592 0.17212 0.19963 0.0
H1416 H 0.44515 0.78633 0.95655 0.0
H1417 H 0.43932 0.02151 0.93959 0.0
H1418 H 0.40558 0.76402 0.95491 0.0
H1419 H 0.39946 -0.00214 0.93761 0.0
H1420 H 0.32678 0.97321 0.94793 0.0
H1421 H 0.36645 0.99504 0.94808 0.0
H1422 H 0.37674 0.73095 0.9425 0.0
H1423 H 0.33662 0.70847 0.94275 0.0
C1424 C 0.4354 0.83323 0.9524 0.0
C1425 C 0.44538 0.90592 0.94822 0.0
C1426 C 0.41267 0.81989 0.95136 0.0
C1427 C 0.39927 0.87861 0.94604 0.0
C1428 C 0.40925 0.9516 0.94186 0.0
C1429 C 0.43207 0.96529 0.94298 0.0
C1430 C 0.33743 0.91953 0.94668 0.0
C1431 C 0.32849 0.83881 0.94539 0.0
C1432 C 0.36028 0.93237 0.94667 0.0
C1433 C 0.37489 0.86494 0.94531 0.0
C1434 C 0.36597 0.78425 0.94375 0.0
C1435 C 0.34299 0.77126 0.94382 0.0
H1436 H 0.43655 0.70931 0.83201 0.0
H1437 H 0.44611 0.96993 0.82397 0.0
H1438 H 0.39652 0.73265 0.8329 0.0
H1439 H 0.40647 0.99245 0.82448 0.0
H1440 H 0.33453 0.02595 0.8342 0.0
H1441 H 0.37449 0.0022 0.83566 0.0
H1442 H 0.36655 0.75885 0.82093 0.0
H1443 H 0.32696 0.78135 0.81982 0.0
C1444 C 0.43013 0.77136 0.83042 0.0
C1445 C 0.44452 0.83753 0.82789 0.0
C1446 C 0.4072 0.78483 0.83088 0.0
C1447 C 0.3982 0.86458 0.82875 0.0
C1448 C 0.41272 0.93066 0.82636 0.0
C1449 C 0.43554 0.91738 0.82598 0.0
C1450 C 0.34139 0.9675 0.8313 0.0
C1451 C 0.32757 0.9057 0.8269 0.0
C1452 C 0.36428 0.9538 0.83211 0.0
C1453 C 0.37379 0.87829 0.82845 0.0
C1454 C 0.35985 0.81688 0.82405 0.0
C1455 C 0.33708 0.83028 0.82332 0.0
H1456 H 0.69794 0.52528 0.58726 0.0
H1457 H 0.68737 0.77442 0.57478 0.0
H1458 H 0.65819 0.50166 0.58774 0.0
H1459 H 0.64736 0.75001 0.57499 0.0
H1460 H 0.57646 0.70788 0.58567 0.0
H1461 H 0.61612 0.73125 0.58666 0.0
H1462 H 0.62769 0.47828 0.57571 0.0
H1463 H 0.58765 0.45414 0.57498 0.0
C1464 C 0.68709 0.57525 0.58463 0.0
C1465 C 0.69583 0.65181 0.58096 0.0
C1466 C 0.66426 0.56131 0.58482 0.0
C1467 C 0.64951 0.62343 0.58131 0.0
C1468 C 0.65822 0.70093 0.57787 0.0
C1469 C 0.68115 0.71507 0.57773 0.0
C1470 C 0.58743 0.65687 0.58352 0.0
C1471 C 0.57888 0.5791 0.5802 0.0
C1472 C 0.61023 0.67063 0.58402 0.0
C1473 C 0.62518 0.60714 0.58116 0.0
C1474 C 0.61666 0.52849 0.57806 0.0
C1475 C 0.59373 0.51452 0.57762 0.0
H1476 H 0.58694 0.77777 0.69796 0.0
H1477 H 0.57521 0.51541 0.69184 0.0
H1478 H 0.62688 0.75362 0.69645 0.0
H1479 H 0.61472 0.49187 0.69002 0.0
H1480 H 0.68769 0.46234 0.69976 0.0
H1481 H 0.64766 0.48488 0.70059 0.0
H1482 H 0.65557 0.72002 0.68376 0.0
H1483 H 0.69541 0.6985 0.68322 0.0
C1484 C 0.59286 0.71528 0.6962 0.0
C1485 C 0.57791 0.6486 0.69508 0.0
C1486 C 0.61573 0.70133 0.69529 0.0
C1487 C 0.62407 0.62053 0.69316 0.0
C1488 C 0.60899 0.55445 0.69187 0.0
C1489 C 0.58626 0.56824 0.69285 0.0
C1490 C 0.6808 0.51819 0.69612 0.0
C1491 C 0.69471 0.57867 0.69146 0.0
C1492 C 0.65786 0.53129 0.69659 0.0
C1493 C 0.64836 0.60485 0.69234 0.0
C1494 C 0.6623 0.6637 0.68735 0.0
C1495 C 0.68516 0.65088 0.68694 0.0
H1496 H 0.43657 0.53033 0.45045 0.0
H1497 H 0.44613 0.28017 0.43811 0.0
H1498 H 0.39647 0.50799 0.4504 0.0
H1499 H 0.40632 0.25868 0.43775 0.0
H1500 H 0.33562 0.21474 0.45023 0.0
H1501 H 0.37572 0.23717 0.44971 0.0
H1502 H 0.36522 0.49092 0.4388 0.0
H1503 H 0.32546 0.46929 0.43962 0.0
C1504 C 0.43011 0.47116 0.44759 0.0
C1505 C 0.44452 0.40702 0.44434 0.0
C1506 C 0.40713 0.45822 0.44753 0.0
C1507 C 0.39812 0.38112 0.44414 0.0
C1508 C 0.41262 0.31805 0.44063 0.0
C1509 C 0.43549 0.33074 0.44077 0.0
C1510 C 0.34194 0.27498 0.44766 0.0
C1511 C 0.32737 0.34023 0.44503 0.0
C1512 C 0.36491 0.28795 0.44733 0.0
C1513 C 0.37374 0.36623 0.44429 0.0
C1514 C 0.35907 0.43054 0.44141 0.0
C1515 C 0.33622 0.41779 0.44181 0.0
H1516 H 0.43647 0.21669 0.32439 0.0
H1517 H 0.44741 0.47203 0.33448 0.0
H1518 H 0.39643 0.24062 0.32495 0.0
H1519 H 0.40772 0.49521 0.33534 0.0
H1520 H 0.33626 0.53545 0.32372 0.0
H1521 H 0.37634 0.51212 0.32381 0.0
H1522 H 0.36601 0.26452 0.33694 0.0
H1523 H 0.32625 0.28697 0.33655 0.0
C1524 C 0.43033 0.27743 0.32686 0.0
C1525 C 0.44511 0.34243 0.32934 0.0
C1526 C 0.4074 0.29128 0.32721 0.0
C1527 C 0.3988 0.37022 0.33012 0.0
C1528 C 0.41368 0.43431 0.33284 0.0
C1529 C 0.43649 0.42066 0.33242 0.0
C1530 C 0.34263 0.47648 0.32671 0.0
C1531 C 0.32809 0.41303 0.33007 0.0
C1532 C 0.36559 0.46296 0.32678 0.0
C1533 C 0.37445 0.38596 0.3303 0.0
C1534 C 0.35983 0.32373 0.33395 0.0
C1535 C 0.33699 0.337 0.3338 0.0
H1536 H 0.07509 0.22499 0.584 0.0
H1537 H 0.08689 0.96669 0.57551 0.0
H1538 H 0.11466 0.24895 0.58541 0.0
H1539 H 0.12686 0.99134 0.57664 0.0
H1540 H 0.19619 0.04265 0.58901 0.0
H1541 H 0.15639 0.01993 0.58902 0.0
H1542 H 0.14685 0.26232 0.57427 0.0
H1543 H 0.18689 0.28593 0.57453 0.0
C1544 C 0.08617 0.17313 0.5824 0.0
C1545 C 0.07782 0.09383 0.5796 0.0
C1546 C 0.10893 0.18719 0.58314 0.0
C1547 C 0.12404 0.12247 0.58105 0.0
C1548 C 0.1157 0.04254 0.57842 0.0
C1549 C 0.09281 0.0283 0.57774 0.0
C1550 C 0.1856 0.09155 0.58585 0.0
C1551 C 0.19471 0.16614 0.58174 0.0
C1552 C 0.16275 0.07809 0.58577 0.0
C1553 C 0.14835 0.13869 0.58153 0.0
C1554 C 0.15742 0.21446 0.57769 0.0
C1555 C 0.18037 0.22817 0.57783 0.0
H1556 H 0.18822 0.97003 0.69018 0.0
H1557 H 0.19534 0.21485 0.70454 0.0
H1558 H 0.14825 0.99307 0.68861 0.0
H1559 H 0.15572 0.23665 0.70333 0.0
H1560 H 0.08571 0.28485 0.692 0.0
H1561 H 0.12582 0.26242 0.69133 0.0
H1562 H 0.11606 0.00225 0.6996 0.0
H1563 H 0.07638 0.02388 0.69989 0.0
C1564 C 0.18125 0.02837 0.69305 0.0
C1565 C 0.19496 0.09045 0.69748 0.0
C1566 C 0.15835 0.04168 0.69219 0.0
C1567 C 0.1487 0.11705 0.69581 0.0
C1568 C 0.16252 0.17871 0.70024 0.0
C1569 C 0.18531 0.16571 0.70103 0.0
C1570 C 0.0922 0.22292 0.69361 0.0
C1571 C 0.07784 0.15638 0.69602 0.0
C1572 C 0.11517 0.20997 0.69328 0.0
C1573 C 0.12425 0.13036 0.69543 0.0
C1574 C 0.10977 0.06395 0.69771 0.0
C1575 C 0.08692 0.07672 0.69797 0.0
H1576 H 0.93676 0.02721 0.44903 0.0
H1577 H 0.94711 0.7767 0.43696 0.0
H1578 H 0.89672 0.00381 0.44875 0.0
H1579 H 0.90733 0.75409 0.4364 0.0
H1580 H 0.83647 0.70967 0.44895 0.0
H1581 H 0.87656 0.7327 0.44837 0.0
H1582 H 0.86575 0.98494 0.43696 0.0
H1583 H 0.82601 0.96271 0.43782 0.0
C1584 C 0.93049 0.96774 0.44617 0.0
C1585 C 0.9451 0.90382 0.44307 0.0
C1586 C 0.90754 0.95419 0.44599 0.0
C1587 C 0.89876 0.87666 0.44262 0.0
C1588 C 0.91346 0.81381 0.43925 0.0
C1589 C 0.93631 0.82714 0.4395 0.0
C1590 C 0.84272 0.76965 0.44624 0.0
C1591 C 0.82808 0.83439 0.4435 0.0
C1592 C 0.86568 0.78297 0.44588 0.0
C1593 C 0.87442 0.86109 0.4427 0.0
C1594 C 0.85967 0.92474 0.43968 0.0
C1595 C 0.83683 0.91164 0.4401 0.0
H1596 H 0.93619 0.71462 0.32546 0.0
H1597 H 0.94728 0.96586 0.3371 0.0
H1598 H 0.89619 0.73917 0.32595 0.0
H1599 H 0.90758 0.98964 0.33787 0.0
H1600 H 0.8367 0.03512 0.32546 0.0
H1601 H 0.87672 0.01096 0.326 0.0
H1602 H 0.86536 0.76024 0.33786 0.0
H1603 H 0.82566 0.78361 0.33706 0.0
C1604 C 0.93009 0.77451 0.32827 0.0
C1605 C 0.9449 0.83829 0.33119 0.0
C1606 C 0.90717 0.78871 0.32858 0.0
C1607 C 0.89862 0.8668 0.33188 0.0
C1608 C 0.91352 0.9295 0.33507 0.0
C1609 C 0.93633 0.91549 0.33471 0.0
C1610 C 0.84281 0.97528 0.32828 0.0
C1611 C 0.82801 0.91126 0.33115 0.0
C1612 C 0.86574 0.96129 0.32861 0.0
C1613 C 0.8743 0.88321 0.33189 0.0
C1614 C 0.85941 0.82037 0.33507 0.0
C1615 C 0.8366 0.83414 0.33468 0.0
H1616 H 0.19339 0.71228 0.0865 0.0
H1617 H 0.18524 0.73417 0.05194 0.0
H1618 H 0.15411 0.67427 0.08829 0.0
H1619 H 0.14618 0.69732 0.05375 0.0
H1620 H 0.07312 0.72147 0.06314 0.0
H1621 H 0.11189 0.76131 0.06235 0.0
H1622 H 0.12915 0.54716 0.08183 0.0
H1623 H 0.08981 0.50621 0.08262 0.0
C1624 C 0.18311 0.71082 0.07933 0.0
C1625 C 0.19231 0.7269 0.06908 0.0
C1626 C 0.16076 0.68786 0.08034 0.0
C1627 C 0.14718 0.68221 0.07115 0.0
C1628 C 0.15624 0.70133 0.06098 0.0
C1629 C 0.17857 0.72276 0.05995 0.0
C1630 C 0.08509 0.68244 0.06727 0.0
C1631 C 0.07837 0.61043 0.07293 0.0
C1632 C 0.10734 0.70538 0.06678 0.0
C1633 C 0.12352 0.65754 0.07204 0.0
C1634 C 0.11694 0.58553 0.07778 0.0
C1635 C 0.09452 0.56168 0.07814 0.0
H1636 H 0.08509 0.77554 0.20159 0.0
H1637 H 0.07597 0.52914 0.18798 0.0
H1638 H 0.12515 0.75264 0.20191 0.0
H1639 H 0.11577 0.5072 0.18798 0.0
H1640 H 0.18575 0.45831 0.20075 0.0
H1641 H 0.1457 0.48175 0.20012 0.0
H1642 H 0.15697 0.73862 0.19066 0.0
H1643 H 0.19663 0.71596 0.19162 0.0
C1644 C 0.09166 0.71715 0.19852 0.0
C1645 C 0.07738 0.65413 0.19481 0.0
C1646 C 0.11461 0.70387 0.19868 0.0
C1647 C 0.12372 0.62761 0.19505 0.0
C1648 C 0.10937 0.5658 0.19107 0.0
C1649 C 0.08652 0.57878 0.19099 0.0
C1650 C 0.1796 0.51952 0.1985 0.0
C1651 C 0.19435 0.58524 0.1963 0.0
C1652 C 0.15667 0.53307 0.1981 0.0
C1653 C 0.14806 0.6124 0.1954 0.0
C1654 C 0.16293 0.67736 0.193 0.0
C1655 C 0.18573 0.66404 0.19348 0.0
H1656 H 0.83616 0.21508 0.94143 0.0
H1657 H 0.82757 0.4682 0.95294 0.0
H1658 H 0.8762 0.23826 0.94035 0.0
H1659 H 0.86724 0.49037 0.9522 0.0
H1660 H 0.93824 0.5315 0.94138 0.0
H1661 H 0.89818 0.50848 0.94042 0.0
H1662 H 0.90721 0.25566 0.952 0.0
H1663 H 0.94687 0.27764 0.9526 0.0
C1664 C 0.84281 0.27534 0.94378 0.0
C1665 C 0.82868 0.3396 0.94728 0.0
C1666 C 0.86574 0.28872 0.94319 0.0
C1667 C 0.87499 0.36643 0.94616 0.0
C1668 C 0.86075 0.43041 0.94964 0.0
C1669 C 0.83794 0.41726 0.95016 0.0
C1670 C 0.9316 0.4711 0.94368 0.0
C1671 C 0.94575 0.40658 0.94706 0.0
C1672 C 0.90866 0.45782 0.94317 0.0
C1673 C 0.89942 0.37997 0.94611 0.0
C1674 C 0.91368 0.31574 0.94946 0.0
C1675 C 0.9365 0.32877 0.94989 0.0
H1676 H 0.93631 0.21295 0.82969 0.0
H1677 H 0.94653 0.47388 0.82201 0.0
H1678 H 0.89624 0.23655 0.82993 0.0
H1679 H 0.90687 0.49669 0.82193 0.0
H1680 H 0.8345 0.52903 0.83148 0.0
H1681 H 0.87445 0.50529 0.83302 0.0
H1682 H 0.86693 0.26496 0.81745 0.0
H1683 H 0.82732 0.28755 0.8162 0.0
C1684 C 0.93003 0.2751 0.82804 0.0
C1685 C 0.94462 0.34131 0.82581 0.0
C1686 C 0.90708 0.2887 0.82813 0.0
C1687 C 0.89829 0.36868 0.82595 0.0
C1688 C 0.91298 0.43473 0.82383 0.0
C1689 C 0.9358 0.42128 0.82379 0.0
C1690 C 0.84145 0.47136 0.82838 0.0
C1691 C 0.82774 0.41031 0.82373 0.0
C1692 C 0.86433 0.45765 0.82925 0.0
C1693 C 0.87393 0.38283 0.82542 0.0
C1694 C 0.86013 0.32239 0.8207 0.0
C1695 C 0.83737 0.33585 0.81989 0.0
loop_
_geom_bond_atom_site_label_1
_geom_bond_atom_site_label_2
_geom_bond_distance
_geom_bond_site_symmetry_2
_ccdc_geom_bond_type
Mg0 O7 2.141 . S
Mg0 O8 2.048 . S
Mg0 O9 2.048 . S
Mg0 O12 2.141 . S
C1 O2 1.313 1_545 S
C1 O8 1.195 . S
O2 C1 1.313 1_565 S
C3 O4 1.245 1_545 S
C3 O12 1.289 . S
O4 C3 1.245 1_565 S
C5 O6 1.245 . S
C5 O7 1.289 1_565 S
O6 C5 1.245 . S
O7 Mg0 2.141 . S
O7 C5 1.289 1_545 S
O8 Mg0 2.048 . S
O8 C1 1.195 . S
O9 Mg0 2.048 . S
O9 C10 1.195 . S
C10 O9 1.195 . S
C10 O11 1.308 1_545 S
O11 C10 1.308 1_565 S
O12 Mg0 2.141 . S
O12 C3 1.289 . S
Mg13 O20 2.141 . S
Mg13 O21 2.048 . S
Mg13 O22 2.048 . S
Mg13 O25 2.141 . S
C14 O15 1.313 . S
C14 O21 1.195 . S
O15 C14 1.313 . S
C16 O17 1.245 . S
C16 O25 1.289 . S
O17 C16 1.245 . S
C18 O19 1.245 . S
C18 O20 1.289 . S
O19 C18 1.245 . S
O20 Mg13 2.141 . S
O20 C18 1.289 . S
O21 Mg13 2.048 . S
O21 C14 1.195 . S
O22 Mg13 2.048 . S
O22 C23 1.195 . S
C23 O22 1.195 . S
C23 O24 1.313 . S
O24 C23 1.313 . S
O25 Mg13 2.141 . S
O25 C16 1.289 . S
Mg26 O33 2.141 . S
Mg26 O34 2.048 . S
Mg26 O35 2.048 . S
Mg26 O38 2.141 . S
C27 O28 1.313 . S
C27 O34 1.195 . S
O28 C27 1.313 . S
C29 O30 1.245 . S
C29 O38 1.289 . S
O30 C29 1.245 . S
C31 O32 1.245 . S
C31 O33 1.289 . S
O32 C31 1.245 . S
O33 Mg26 2.141 . S
O33 C31 1.289 . S
O34 Mg26 2.048 . S
O34 C27 1.195 . S
O35 Mg26 2.048 . S
O35 C36 1.195 . S
C36 O35 1.195 . S
C36 O37 1.313 . S
O37 C36 1.313 . S
O38 Mg26 2.141 . S
O38 C29 1.289 . S
Mg39 O46 2.141 . S
Mg39 O47 2.048 . S
Mg39 O48 2.048 . S
Mg39 O51 2.141 . S
C40 O41 1.313 1_545 S
C40 O47 1.195 . S
O41 C40 1.313 1_565 S
C42 O43 1.245 1_545 S
C42 O51 1.289 . S
O43 C42 1.245 1_565 S
C44 O45 1.245 . S
C44 O46 1.289 1_565 S
O45 C44 1.245 . S
O46 Mg39 2.141 . S
O46 C44 1.289 1_545 S
O47 Mg39 2.048 . S
O47 C40 1.195 . S
O48 Mg39 2.048 . S
O48 C49 1.195 . S
C49 O48 1.195 . S
C49 O50 1.306 1_545 S
O50 C49 1.306 1_565 S
O51 Mg39 2.141 . S
O51 C42 1.289 . S
Mg52 O59 2.141 . S
Mg52 O60 2.048 . S
Mg52 O61 2.048 . S
Mg52 O64 2.141 . S
C53 O54 1.308 1_565 S
C53 O60 1.195 . S
O54 C53 1.308 1_545 S
C55 O56 1.245 . S
C55 O64 1.289 1_545 S
O56 C55 1.245 . S
C57 O58 1.245 1_565 S
C57 O59 1.289 . S
O58 C57 1.245 1_545 S
O59 Mg52 2.141 . S
O59 C57 1.289 . S
O60 Mg52 2.048 . S
O60 C53 1.195 . S
O61 Mg52 2.048 . S
O61 C62 1.195 . S
C62 O61 1.195 . S
C62 O63 1.313 1_565 S
O63 C62 1.313 1_545 S
O64 Mg52 2.141 . S
O64 C55 1.289 1_565 S
Mg65 O72 2.141 . S
Mg65 O73 2.048 . S
Mg65 O74 2.048 . S
Mg65 O77 2.141 . S
C66 O67 1.313 . S
C66 O73 1.195 . S
O67 C66 1.313 . S
C68 O69 1.245 . S
C68 O77 1.289 . S
O69 C68 1.245 . S
C70 O71 1.245 . S
C70 O72 1.289 . S
O71 C70 1.245 . S
O72 Mg65 2.141 . S
O72 C70 1.289 . S
O73 Mg65 2.048 . S
O73 C66 1.195 . S
O74 Mg65 2.048 . S
O74 C75 1.195 . S
C75 O74 1.195 . S
C75 O76 1.313 . S
O76 C75 1.313 . S
O77 Mg65 2.141 . S
O77 C68 1.289 . S
Mg78 O85 2.141 . S
Mg78 O86 2.048 . S
Mg78 O87 2.048 . S
Mg78 O90 2.141 . S
C79 O80 1.313 . S
C79 O86 1.195 . S
O80 C79 1.313 . S
C81 O82 1.245 . S
C81 O90 1.289 . S
O82 C81 1.245 . S
C83 O84 1.245 . S
C83 O85 1.289 . S
O84 C83 1.245 . S
O85 Mg78 2.141 . S
O85 C83 1.289 . S
O86 Mg78 2.048 . S
O86 C79 1.195 . S
O87 Mg78 2.048 . S
O87 C88 1.195 . S
C88 O87 1.195 . S
C88 O89 1.313 . S
O89 C88 1.313 . S
O90 Mg78 2.141 . S
O90 C81 1.289 . S
Mg91 O98 2.141 . S
Mg91 O99 2.048 . S
Mg91 O100 2.048 . S
Mg91 O103 2.141 . S
C92 O93 1.306 1_565 S
C92 O99 1.195 . S
O93 C92 1.306 1_545 S
C94 O95 1.245 . S
C94 O103 1.289 1_545 S
O95 C94 1.245 . S
C96 O97 1.245 1_565 S
C96 O98 1.289 . S
O97 C96 1.245 1_545 S
O98 Mg91 2.141 . S
O98 C96 1.289 . S
O99 Mg91 2.048 . S
O99 C92 1.195 . S
O100 Mg91 2.048 . S
O100 C101 1.195 . S
C101 O100 1.195 . S
C101 O102 1.313 1_565 S
O102 C101 1.313 1_545 S
O103 Mg91 2.141 . S
O103 C94 1.289 1_565 S
Mg104 O111 2.141 . S
Mg104 O112 2.048 . S
Mg104 O113 2.048 . S
Mg104 O116 2.141 . S
C105 O106 1.313 . S
C105 O112 1.195 . S
O106 C105 1.313 . S
C107 O108 1.245 . S
C107 O116 1.289 . S
O108 C107 1.245 . S
C109 O110 1.245 . S
C109 O111 1.289 . S
O110 C109 1.245 . S
O111 Mg104 2.141 . S
O111 C109 1.289 . S
O112 Mg104 2.048 . S
O112 C105 1.195 . S
O113 Mg104 2.048 . S
O113 C114 1.195 . S
C114 O113 1.195 . S
C114 O115 1.313 . S
O115 C114 1.313 . S
O116 Mg104 2.141 . S
O116 C107 1.289 . S
Mg117 O124 2.141 . S
Mg117 O125 2.048 . S
Mg117 O126 2.048 . S
Mg117 O129 2.141 . S
C118 O119 1.313 . S
C118 O125 1.195 . S
O119 C118 1.313 . S
C120 O121 1.245 . S
C120 O129 1.289 . S
O121 C120 1.245 . S
C122 O123 1.245 . S
C122 O124 1.289 . S
O123 C122 1.245 . S
O124 Mg117 2.141 . S
O124 C122 1.289 . S
O125 Mg117 2.048 . S
O125 C118 1.195 . S
O126 Mg117 2.048 . S
O126 C127 1.195 . S
C127 O126 1.195 . S
C127 O128 1.313 . S
O128 C127 1.313 . S
O129 Mg117 2.141 . S
O129 C120 1.289 . S
Mg130 O137 2.141 . S
Mg130 O138 2.048 . S
Mg130 O139 2.048 . S
Mg130 O142 2.141 . S
C131 O132 1.313 . S
C131 O138 1.195 . S
O132 C131 1.313 . S
C133 O134 1.245 . S
C133 O142 1.289 . S
O134 C133 1.245 . S
C135 O136 1.245 . S
C135 O137 1.289 . S
O136 C135 1.245 . S
O137 Mg130 2.141 . S
O137 C135 1.289 . S
O138 Mg130 2.048 . S
O138 C131 1.195 . S
O139 Mg130 2.048 . S
O139 C140 1.195 . S
C140 O139 1.195 . S
C140 O141 1.313 . S
O141 C140 1.313 . S
O142 Mg130 2.141 . S
O142 C133 1.289 . S
Mg143 O150 2.141 . S
Mg143 O151 2.048 . S
Mg143 O152 2.048 . S
Mg143 O155 2.141 . S
C144 O145 1.313 . S
C144 O151 1.195 . S
O145 C144 1.313 . S
C146 O147 1.245 . S
C146 O155 1.289 . S
O147 C146 1.245 . S
C148 O149 1.245 . S
C148 O150 1.289 . S
O149 C148 1.245 . S
O150 Mg143 2.141 . S
O150 C148 1.289 . S
O151 Mg143 2.048 . S
O151 C144 1.195 . S
O152 Mg143 2.048 . S
O152 C153 1.195 . S
C153 O152 1.195 . S
C153 O154 1.313 . S
O154 C153 1.313 . S
O155 Mg143 2.141 . S
O155 C146 1.289 . S
Mg156 O163 2.141 . S
Mg156 O164 2.048 . S
Mg156 O165 2.048 . S
Mg156 O168 2.141 . S
C157 O158 1.313 . S
C157 O164 1.195 . S
O158 C157 1.313 . S
C159 O160 1.245 . S
C159 O168 1.289 . S
O160 C159 1.245 . S
C161 O162 1.245 . S
C161 O163 1.289 . S
O162 C161 1.245 . S
O163 Mg156 2.141 . S
O163 C161 1.289 . S
O164 Mg156 2.048 . S
O164 C157 1.195 . S
O165 Mg156 2.048 . S
O165 C166 1.195 . S
C166 O165 1.195 . S
C166 O167 1.313 . S
O167 C166 1.313 . S
O168 Mg156 2.141 . S
O168 C159 1.289 . S
Mg169 O176 2.141 . S
Mg169 O177 2.048 . S
Mg169 O178 2.048 . S
Mg169 O181 2.141 . S
C170 O171 1.313 . S
C170 O177 1.195 . S
O171 C170 1.313 . S
C172 O173 1.245 . S
C172 O181 1.289 . S
O173 C172 1.245 . S
C174 O175 1.245 . S
C174 O176 1.289 . S
O175 C174 1.245 . S
O176 Mg169 2.141 . S
O176 C174 1.289 . S
O177 Mg169 2.048 . S
O177 C170 1.195 . S
O178 Mg169 2.048 . S
O178 C179 1.195 . S
C179 O178 1.195 . S
C179 O180 1.313 . S
O180 C179 1.313 . S
O181 Mg169 2.141 . S
O181 C172 1.289 . S
Mg182 O189 2.141 . S
Mg182 O190 2.048 . S
Mg182 O191 2.048 . S
Mg182 O194 2.141 . S
C183 O184 1.313 . S
C183 O190 1.195 . S
O184 C183 1.313 . S
C185 O186 1.245 . S
C185 O194 1.289 . S
O186 C185 1.245 . S
C187 O188 1.245 . S
C187 O189 1.289 . S
O188 C187 1.245 . S
O189 Mg182 2.141 . S
O189 C187 1.289 . S
O190 Mg182 2.048 . S
O190 C183 1.195 . S
O191 Mg182 2.048 . S
O191 C192 1.195 . S
C192 O191 1.195 . S
C192 O193 1.313 . S
O193 C192 1.313 . S
O194 Mg182 2.141 . S
O194 C185 1.289 . S
Mg195 O202 2.141 . S
Mg195 O203 2.048 . S
Mg195 O204 2.048 . S
Mg195 O207 2.141 . S
C196 O197 1.313 . S
C196 O203 1.195 . S
O197 C196 1.313 . S
C198 O199 1.245 . S
C198 O207 1.289 . S
O199 C198 1.245 . S
C200 O201 1.245 . S
C200 O202 1.289 . S
O201 C200 1.245 . S
O202 Mg195 2.141 . S
O202 C200 1.289 . S
O203 Mg195 2.048 . S
O203 C196 1.195 . S
O204 Mg195 2.048 . S
O204 C205 1.195 . S
C205 O204 1.195 . S
C205 O206 1.313 . S
O206 C205 1.313 . S
O207 Mg195 2.141 . S
O207 C198 1.289 . S
Mg208 O215 2.141 . S
Mg208 O216 2.048 . S
Mg208 O217 2.048 1_655 S
Mg208 O220 2.141 . S
C209 O210 1.326 1_545 S
C209 O216 1.187 1_455 S
O210 C209 1.326 1_565 S
C211 O212 1.245 1_645 S
C211 O220 1.289 . S
O212 C211 1.245 1_465 S
C213 O214 1.245 . S
C213 O215 1.289 1_565 S
O214 C213 1.245 . S
O215 Mg208 2.141 . S
O215 C213 1.289 1_545 S
O216 Mg208 2.048 . S
O216 C209 1.187 1_655 S
O217 Mg208 2.048 1_455 S
O217 C218 1.195 . S
C218 O217 1.195 . S
C218 O219 1.318 . S
O219 C218 1.318 . S
O220 Mg208 2.141 . S
O220 C211 1.289 . S
Mg221 O228 2.141 . S
Mg221 O229 2.048 . S
Mg221 O230 2.048 . S
Mg221 O233 2.141 . S
C222 O223 1.313 . S
C222 O229 1.195 . S
O223 C222 1.313 . S
C224 O225 1.245 . S
C224 O233 1.289 . S
O225 C224 1.245 . S
C226 O227 1.245 . S
C226 O228 1.289 . S
O227 C226 1.245 . S
O228 Mg221 2.141 . S
O228 C226 1.289 . S
O229 Mg221 2.048 . S
O229 C222 1.195 . S
O230 Mg221 2.048 . S
O230 C231 1.195 . S
C231 O230 1.195 . S
C231 O232 1.313 . S
O232 C231 1.313 . S
O233 Mg221 2.141 . S
O233 C224 1.289 . S
Mg234 O241 2.141 . S
Mg234 O242 2.048 . S
Mg234 O243 2.048 1_655 S
Mg234 O246 2.141 . S
C235 O236 1.324 . S
C235 O242 1.188 1_455 S
O236 C235 1.324 . S
C237 O238 1.245 1_655 S
C237 O246 1.289 . S
O238 C237 1.245 1_455 S
C239 O240 1.245 . S
C239 O241 1.289 . S
O240 C239 1.245 . S
O241 Mg234 2.141 . S
O241 C239 1.289 . S
O242 Mg234 2.048 . S
O242 C235 1.188 1_655 S
O243 Mg234 2.048 1_455 S
O243 C244 1.195 . S
C244 O243 1.195 . S
C244 O245 1.313 . S
O245 C244 1.313 . S
O246 Mg234 2.141 . S
O246 C237 1.289 . S
Mg247 O254 2.141 . S
Mg247 O255 2.048 . S
Mg247 O256 2.048 . S
Mg247 O259 2.141 . S
C248 O249 1.313 1_545 S
C248 O255 1.195 . S
O249 C248 1.313 1_565 S
C250 O251 1.245 1_545 S
C250 O259 1.289 . S
O251 C250 1.245 1_565 S
C252 O253 1.245 . S
C252 O254 1.289 1_565 S
O253 C252 1.245 . S
O254 Mg247 2.141 . S
O254 C252 1.289 1_545 S
O255 Mg247 2.048 . S
O255 C248 1.195 . S
O256 Mg247 2.048 . S
O256 C257 1.195 . S
C257 O256 1.195 . S
C257 O258 1.321 . S
O258 C257 1.321 . S
O259 Mg247 2.141 . S
O259 C250 1.289 . S
Mg260 O267 2.141 . S
Mg260 O268 2.048 1_455 S
Mg260 O269 2.048 . S
Mg260 O272 2.141 . S
C261 O262 1.318 . S
C261 O268 1.195 . S
O262 C261 1.318 . S
C263 O264 1.245 . S
C263 O272 1.289 1_545 S
O264 C263 1.245 . S
C265 O266 1.245 1_465 S
C265 O267 1.289 . S
O266 C265 1.245 1_645 S
O267 Mg260 2.141 . S
O267 C265 1.289 . S
O268 Mg260 2.048 1_655 S
O268 C261 1.195 . S
O269 Mg260 2.048 . S
O269 C270 1.187 1_455 S
C270 O269 1.187 1_655 S
C270 O271 1.326 1_565 S
O271 C270 1.326 1_545 S
O272 Mg260 2.141 . S
O272 C263 1.289 1_565 S
Mg273 O280 2.141 . S
Mg273 O281 2.048 . S
Mg273 O282 2.048 . S
Mg273 O285 2.141 . S
C274 O275 1.313 . S
C274 O281 1.195 . S
O275 C274 1.313 . S
C276 O277 1.245 . S
C276 O285 1.289 . S
O277 C276 1.245 . S
C278 O279 1.245 . S
C278 O280 1.289 . S
O279 C278 1.245 . S
O280 Mg273 2.141 . S
O280 C278 1.289 . S
O281 Mg273 2.048 . S
O281 C274 1.195 . S
O282 Mg273 2.048 . S
O282 C283 1.195 . S
C283 O282 1.195 . S
C283 O284 1.313 . S
O284 C283 1.313 . S
O285 Mg273 2.141 . S
O285 C276 1.289 . S
Mg286 O293 2.141 . S
Mg286 O294 2.048 1_455 S
Mg286 O295 2.048 . S
Mg286 O298 2.141 . S
C287 O288 1.313 . S
C287 O294 1.195 . S
O288 C287 1.313 . S
C289 O290 1.245 . S
C289 O298 1.289 . S
O290 C289 1.245 . S
C291 O292 1.245 1_455 S
C291 O293 1.289 . S
O292 C291 1.245 1_655 S
O293 Mg286 2.141 . S
O293 C291 1.289 . S
O294 Mg286 2.048 1_655 S
O294 C287 1.195 . S
O295 Mg286 2.048 . S
O295 C296 1.188 1_455 S
C296 O295 1.188 1_655 S
C296 O297 1.324 . S
O297 C296 1.324 . S
O298 Mg286 2.141 . S
O298 C289 1.289 . S
Mg299 O306 2.141 . S
Mg299 O307 2.048 . S
Mg299 O308 2.048 . S
Mg299 O311 2.141 . S
C300 O301 1.321 . S
C300 O307 1.195 . S
O301 C300 1.321 . S
C302 O303 1.245 . S
C302 O311 1.289 1_545 S
O303 C302 1.245 . S
C304 O305 1.245 1_565 S
C304 O306 1.289 . S
O305 C304 1.245 1_545 S
O306 Mg299 2.141 . S
O306 C304 1.289 . S
O307 Mg299 2.048 . S
O307 C300 1.195 . S
O308 Mg299 2.048 . S
O308 C309 1.195 . S
C309 O308 1.195 . S
C309 O310 1.313 1_565 S
O310 C309 1.313 1_545 S
O311 Mg299 2.141 . S
O311 C302 1.289 1_565 S
Mg312 O319 2.141 . S
Mg312 O320 2.048 . S
Mg312 O321 2.048 1_655 S
Mg312 O324 2.141 . S
C313 O314 1.327 . S
C313 O320 1.186 1_455 S
O314 C313 1.327 . S
C315 O316 1.245 1_655 S
C315 O324 1.289 . S
O316 C315 1.245 1_455 S
C317 O318 1.245 . S
C317 O319 1.289 . S
O318 C317 1.245 . S
O319 Mg312 2.141 . S
O319 C317 1.289 . S
O320 Mg312 2.048 . S
O320 C313 1.186 1_655 S
O321 Mg312 2.048 1_455 S
O321 C322 1.195 . S
C322 O321 1.195 . S
C322 O323 1.313 . S
O323 C322 1.313 . S
O324 Mg312 2.141 . S
O324 C315 1.289 . S
Mg325 O332 2.141 . S
Mg325 O333 2.048 . S
Mg325 O334 2.048 . S
Mg325 O337 2.141 . S
C326 O327 1.313 . S
C326 O333 1.195 . S
O327 C326 1.313 . S
C328 O329 1.245 . S
C328 O337 1.289 . S
O329 C328 1.245 . S
C330 O331 1.245 . S
C330 O332 1.289 . S
O331 C330 1.245 . S
O332 Mg325 2.141 . S
O332 C330 1.289 . S
O333 Mg325 2.048 . S
O333 C326 1.195 . S
O334 Mg325 2.048 . S
O334 C335 1.195 . S
C335 O334 1.195 . S
C335 O336 1.313 . S
O336 C335 1.313 . S
O337 Mg325 2.141 . S
O337 C328 1.289 . S
Mg338 O345 2.141 . S
Mg338 O346 2.048 . S
Mg338 O347 2.048 1_655 S
Mg338 O350 2.141 . S
C339 O340 1.328 . S
C339 O346 1.185 1_455 S
O340 C339 1.328 . S
C341 O342 1.245 1_655 S
C341 O350 1.289 . S
O342 C341 1.245 1_455 S
C343 O344 1.245 . S
C343 O345 1.289 . S
O344 C343 1.245 . S
O345 Mg338 2.141 . S
O345 C343 1.289 . S
O346 Mg338 2.048 . S
O346 C339 1.185 1_655 S
O347 Mg338 2.048 1_455 S
O347 C348 1.195 . S
C348 O347 1.195 . S
C348 O349 1.313 . S
O349 C348 1.313 . S
O350 Mg338 2.141 . S
O350 C341 1.289 . S
Mg351 O358 2.141 . S
Mg351 O359 2.048 . S
Mg351 O360 2.048 . S
Mg351 O363 2.141 . S
C352 O353 1.313 . S
C352 O359 1.195 . S
O353 C352 1.313 . S
C354 O355 1.245 . S
C354 O363 1.289 . S
O355 C354 1.245 . S
C356 O357 1.245 . S
C356 O358 1.289 . S
O357 C356 1.245 . S
O358 Mg351 2.141 . S
O358 C356 1.289 . S
O359 Mg351 2.048 . S
O359 C352 1.195 . S
O360 Mg351 2.048 . S
O360 C361 1.195 . S
C361 O360 1.195 . S
C361 O362 1.313 . S
O362 C361 1.313 . S
O363 Mg351 2.141 . S
O363 C354 1.289 . S
Mg364 O371 2.141 . S
Mg364 O372 2.048 1_455 S
Mg364 O373 2.048 . S
Mg364 O376 2.141 . S
C365 O366 1.313 . S
C365 O372 1.195 . S
O366 C365 1.313 . S
C367 O368 1.245 . S
C367 O376 1.289 . S
O368 C367 1.245 . S
C369 O370 1.245 1_455 S
C369 O371 1.289 . S
O370 C369 1.245 1_655 S
O371 Mg364 2.141 . S
O371 C369 1.289 . S
O372 Mg364 2.048 1_655 S
O372 C365 1.195 . S
O373 Mg364 2.048 . S
O373 C374 1.186 1_455 S
C374 O373 1.186 1_655 S
C374 O375 1.327 . S
O375 C374 1.327 . S
O376 Mg364 2.141 . S
O376 C367 1.289 . S
Mg377 O384 2.141 . S
Mg377 O385 2.048 . S
Mg377 O386 2.048 . S
Mg377 O389 2.141 . S
C378 O379 1.313 . S
C378 O385 1.195 . S
O379 C378 1.313 . S
C380 O381 1.245 . S
C380 O389 1.289 . S
O381 C380 1.245 . S
C382 O383 1.245 . S
C382 O384 1.289 . S
O383 C382 1.245 . S
O384 Mg377 2.141 . S
O384 C382 1.289 . S
O385 Mg377 2.048 . S
O385 C378 1.195 . S
O386 Mg377 2.048 . S
O386 C387 1.195 . S
C387 O386 1.195 . S
C387 O388 1.313 . S
O388 C387 1.313 . S
O389 Mg377 2.141 . S
O389 C380 1.289 . S
Mg390 O397 2.141 . S
Mg390 O398 2.048 1_455 S
Mg390 O399 2.048 . S
Mg390 O402 2.141 . S
C391 O392 1.313 . S
C391 O398 1.195 . S
O392 C391 1.313 . S
C393 O394 1.245 . S
C393 O402 1.289 . S
O394 C393 1.245 . S
C395 O396 1.245 1_455 S
C395 O397 1.289 . S
O396 C395 1.245 1_655 S
O397 Mg390 2.141 . S
O397 C395 1.289 . S
O398 Mg390 2.048 1_655 S
O398 C391 1.195 . S
O399 Mg390 2.048 . S
O399 C400 1.185 1_455 S
C400 O399 1.185 1_655 S
C400 O401 1.328 . S
O401 C400 1.328 . S
O402 Mg390 2.141 . S
O402 C393 1.289 . S
Mg403 O410 2.141 . S
Mg403 O411 2.048 . S
Mg403 O412 2.048 . S
Mg403 O415 2.141 . S
C404 O405 1.313 . S
C404 O411 1.195 . S
O405 C404 1.313 . S
C406 O407 1.245 . S
C406 O415 1.289 . S
O407 C406 1.245 . S
C408 O409 1.245 . S
C408 O410 1.289 . S
O409 C408 1.245 . S
O410 Mg403 2.141 . S
O410 C408 1.289 . S
O411 Mg403 2.048 . S
O411 C404 1.195 . S
O412 Mg403 2.048 . S
O412 C413 1.195 . S
C413 O412 1.195 . S
C413 O414 1.313 . S
O414 C413 1.313 . S
O415 Mg403 2.141 . S
O415 C406 1.289 . S
H416 C424 0.950 . S
H417 C429 0.950 1_565 S
H418 C426 0.950 . S
H419 C428 0.950 . S
H420 C430 0.950 . S
H421 C432 0.950 . S
H422 C434 0.950 . S
H423 C435 0.950 . S
C424 H416 0.950 . S
C424 C425 1.386 . S
C424 C426 1.391 . S
C425 C424 1.386 . S
C425 C429 1.393 . S
C426 H418 0.950 . S
C426 C424 1.391 . S
C426 C427 1.400 . S
C427 C426 1.400 . S
C427 C428 1.398 . S
C427 C433 1.491 . S
C428 H419 0.950 . S
C428 C427 1.398 . S
C428 C429 1.391 . S
C429 H417 0.950 1_545 S
C429 C425 1.393 . S
C429 C428 1.391 . S
C430 H420 0.950 . S
C430 C431 1.386 . S
C430 C432 1.391 . S
C431 C430 1.386 . S
C431 C435 1.393 . S
C432 H421 0.950 . S
C432 C430 1.391 . S
C432 C433 1.400 . S
C433 C427 1.491 . S
C433 C432 1.400 . S
C433 C434 1.398 . S
C434 H422 0.950 . S
C434 C433 1.398 . S
C434 C435 1.391 . S
C435 H423 0.950 . S
C435 C431 1.393 . S
C435 C434 1.391 . S
H436 C444 0.950 . S
H437 C449 0.950 1_565 S
H438 C446 0.950 . S
H439 C448 0.950 . S
H440 C450 0.950 . S
H441 C452 0.950 . S
H442 C454 0.950 . S
H443 C455 0.950 . S
C444 H436 0.950 . S
C444 C445 1.386 . S
C444 C446 1.391 . S
C445 C444 1.386 . S
C445 C449 1.393 . S
C446 H438 0.950 . S
C446 C444 1.391 . S
C446 C447 1.400 . S
C447 C446 1.400 . S
C447 C448 1.398 . S
C447 C453 1.491 . S
C448 H439 0.950 . S
C448 C447 1.398 . S
C448 C449 1.391 . S
C449 H437 0.950 1_545 S
C449 C445 1.393 . S
C449 C448 1.391 . S
C450 H440 0.950 . S
C450 C451 1.386 . S
C450 C452 1.391 . S
C451 C450 1.386 . S
C451 C455 1.393 . S
C452 H441 0.950 . S
C452 C450 1.391 . S
C452 C453 1.400 . S
C453 C447 1.491 . S
C453 C452 1.400 . S
C453 C454 1.398 . S
C454 H442 0.950 . S
C454 C453 1.398 . S
C454 C455 1.391 . S
C455 H443 0.950 . S
C455 C451 1.393 . S
C455 C454 1.391 . S
H456 C464 0.950 . S
H457 C469 0.950 . S
H458 C466 0.950 . S
H459 C468 0.950 . S
H460 C470 0.950 1_545 S
H461 C472 0.950 . S
H462 C474 0.950 . S
H463 C475 0.950 . S
C464 H456 0.950 . S
C464 C465 1.386 . S
C464 C466 1.391 . S
C465 C464 1.386 . S
C465 C469 1.393 . S
C466 H458 0.950 . S
C466 C464 1.391 . S
C466 C467 1.400 . S
C467 C466 1.400 . S
C467 C468 1.398 . S
C467 C473 1.491 . S
C468 H459 0.950 . S
C468 C467 1.398 . S
C468 C469 1.391 . S
C469 H457 0.950 . S
C469 C465 1.393 . S
C469 C468 1.391 . S
C470 H460 0.950 1_565 S
C470 C471 1.386 . S
C470 C472 1.391 . S
C471 C470 1.386 . S
C471 C475 1.393 . S
C472 H461 0.950 . S
C472 C470 1.391 . S
C472 C473 1.400 . S
C473 C467 1.491 . S
C473 C472 1.400 . S
C473 C474 1.398 . S
C474 H462 0.950 . S
C474 C473 1.398 . S
C474 C475 1.391 . S
C475 H463 0.950 . S
C475 C471 1.393 . S
C475 C474 1.391 . S
H476 C484 0.950 . S
H477 C489 0.950 . S
H478 C486 0.950 . S
H479 C488 0.950 . S
H480 C490 0.950 . S
H481 C492 0.950 . S
H482 C494 0.950 . S
H483 C495 0.950 . S
C484 H476 0.950 . S
C484 C485 1.386 . S
C484 C486 1.391 . S
C485 C484 1.386 . S
C485 C489 1.393 . S
C486 H478 0.950 . S
C486 C484 1.391 . S
C486 C487 1.400 . S
C487 C486 1.400 . S
C487 C488 1.398 . S
C487 C493 1.491 . S
C488 H479 0.950 . S
C488 C487 1.398 . S
C488 C489 1.391 . S
C489 H477 0.950 . S
C489 C485 1.393 . S
C489 C488 1.391 . S
C490 H480 0.950 . S
C490 C491 1.386 . S
C490 C492 1.391 . S
C491 C490 1.386 . S
C491 C495 1.393 . S
C492 H481 0.950 . S
C492 C490 1.391 . S
C492 C493 1.400 . S
C493 C487 1.491 . S
C493 C492 1.400 . S
C493 C494 1.398 . S
C494 H482 0.950 . S
C494 C493 1.398 . S
C494 C495 1.391 . S
C495 H483 0.950 . S
C495 C491 1.393 . S
C495 C494 1.391 . S
H496 C504 0.950 . S
H497 C509 0.950 . S
H498 C506 0.950 . S
H499 C508 0.950 . S
H500 C510 0.950 . S
H501 C512 0.950 . S
H502 C514 0.950 . S
H503 C515 0.950 . S
C504 H496 0.950 . S
C504 C505 1.386 . S
C504 C506 1.391 . S
C505 C504 1.386 . S
C505 C509 1.393 . S
C506 H498 0.950 . S
C506 C504 1.391 . S
C506 C507 1.400 . S
C507 C506 1.400 . S
C507 C508 1.398 . S
C507 C513 1.491 . S
C508 H499 0.950 . S
C508 C507 1.398 . S
C508 C509 1.391 . S
C509 H497 0.950 . S
C509 C505 1.393 . S
C509 C508 1.391 . S
C510 H500 0.950 . S
C510 C511 1.386 . S
C510 C512 1.391 . S
C511 C510 1.386 . S
C511 C515 1.393 . S
C512 H501 0.950 . S
C512 C510 1.391 . S
C512 C513 1.400 . S
C513 C507 1.491 . S
C513 C512 1.400 . S
C513 C514 1.398 . S
C514 H502 0.950 . S
C514 C513 1.398 . S
C514 C515 1.391 . S
C515 H503 0.950 . S
C515 C511 1.393 . S
C515 C514 1.391 . S
H516 C524 0.950 . S
H517 C529 0.950 . S
H518 C526 0.950 . S
H519 C528 0.950 . S
H520 C530 0.950 . S
H521 C532 0.950 . S
H522 C534 0.950 . S
H523 C535 0.950 . S
C524 H516 0.950 . S
C524 C525 1.386 . S
C524 C526 1.391 . S
C525 C524 1.386 . S
C525 C529 1.393 . S
C526 H518 0.950 . S
C526 C524 1.391 . S
C526 C527 1.400 . S
C527 C526 1.400 . S
C527 C528 1.398 . S
C527 C533 1.491 . S
C528 H519 0.950 . S
C528 C527 1.398 . S
C528 C529 1.391 . S
C529 H517 0.950 . S
C529 C525 1.393 . S
C529 C528 1.391 . S
C530 H520 0.950 . S
C530 C531 1.386 . S
C530 C532 1.391 . S
C531 C530 1.386 . S
C531 C535 1.393 . S
C532 H521 0.950 . S
C532 C530 1.391 . S
C532 C533 1.400 . S
C533 C527 1.491 . S
C533 C532 1.400 . S
C533 C534 1.398 . S
C534 H522 0.950 . S
C534 C533 1.398 . S
C534 C535 1.391 . S
C535 H523 0.950 . S
C535 C531 1.393 . S
C535 C534 1.391 . S
H536 C544 0.950 . S
H537 C549 0.950 . S
H538 C546 0.950 . S
H539 C548 0.950 . S
H540 C550 0.950 . S
H541 C552 0.950 . S
H542 C554 0.950 . S
H543 C555 0.950 . S
C544 H536 0.950 . S
C544 C545 1.386 . S
C544 C546 1.391 . S
C545 C544 1.386 . S
C545 C549 1.393 . S
C546 H538 0.950 . S
C546 C544 1.391 . S
C546 C547 1.400 . S
C547 C546 1.400 . S
C547 C548 1.398 . S
C547 C553 1.491 . S
C548 H539 0.950 . S
C548 C547 1.398 . S
C548 C549 1.391 . S
C549 H537 0.950 . S
C549 C545 1.393 . S
C549 C548 1.391 . S
C550 H540 0.950 . S
C550 C551 1.386 . S
C550 C552 1.391 . S
C551 C550 1.386 . S
C551 C555 1.393 . S
C552 H541 0.950 . S
C552 C550 1.391 . S
C552 C553 1.400 . S
C553 C547 1.491 . S
C553 C552 1.400 . S
C553 C554 1.398 . S
C554 H542 0.950 . S
C554 C553 1.398 . S
C554 C555 1.391 . S
C555 H543 0.950 . S
C555 C551 1.393 . S
C555 C554 1.391 . S
H556 C564 0.950 . S
H557 C569 0.950 . S
H558 C566 0.950 . S
H559 C568 0.950 . S
H560 C570 0.950 . S
H561 C572 0.950 . S
H562 C574 0.950 . S
H563 C575 0.950 . S
C564 H556 0.950 . S
C564 C565 1.386 . S
C564 C566 1.391 . S
C565 C564 1.386 . S
C565 C569 1.393 . S
C566 H558 0.950 . S
C566 C564 1.391 . S
C566 C567 1.400 . S
C567 C566 1.400 . S
C567 C568 1.398 . S
C567 C573 1.491 . S
C568 H559 0.950 . S
C568 C567 1.398 . S
C568 C569 1.391 . S
C569 H557 0.950 . S
C569 C565 1.393 . S
C569 C568 1.391 . S
C570 H560 0.950 . S
C570 C571 1.386 . S
C570 C572 1.391 . S
C571 C570 1.386 . S
C571 C575 1.393 . S
C572 H561 0.950 . S
C572 C570 1.391 . S
C572 C573 1.400 . S
C573 C567 1.491 . S
C573 C572 1.400 . S
C573 C574 1.398 . S
C574 H562 0.950 . S
C574 C573 1.398 . S
C574 C575 1.391 . S
C575 H563 0.950 . S
C575 C571 1.393 . S
C575 C574 1.391 . S
H576 C584 0.950 1_565 S
H577 C589 0.950 . S
H578 C586 0.950 . S
H579 C588 0.950 . S
H580 C590 0.950 . S
H581 C592 0.950 . S
H582 C594 0.950 . S
H583 C595 0.950 . S
C584 H576 0.950 1_545 S
C584 C585 1.386 1_455 S
C584 C586 1.391 . S
C585 C584 1.386 1_655 S
C585 C589 1.393 . S
C586 H578 0.950 . S
C586 C584 1.391 . S
C586 C587 1.400 1_455 S
C587 C586 1.400 1_655 S
C587 C588 1.398 . S
C587 C593 1.491 . S
C588 H579 0.950 . S
C588 C587 1.398 . S
C588 C589 1.391 . S
C589 H577 0.950 . S
C589 C585 1.393 . S
C589 C588 1.391 . S
C590 H580 0.950 . S
C590 C591 1.386 . S
C590 C592 1.391 . S
C591 C590 1.386 . S
C591 C595 1.393 1_655 S
C592 H581 0.950 . S
C592 C590 1.391 . S
C592 C593 1.400 . S
C593 C587 1.491 . S
C593 C592 1.400 . S
C593 C594 1.398 1_655 S
C594 H582 0.950 . S
C594 C593 1.398 1_455 S
C594 C595 1.391 . S
C595 H583 0.950 . S
C595 C591 1.393 1_455 S
C595 C594 1.391 . S
H596 C604 0.950 . S
H597 C609 0.950 . S
H598 C606 0.950 . S
H599 C608 0.950 . S
H600 C610 0.950 . S
H601 C612 0.950 . S
H602 C614 0.950 . S
H603 C615 0.950 . S
C604 H596 0.950 . S
C604 C605 1.386 . S
C604 C606 1.391 . S
C605 C604 1.386 . S
C605 C609 1.393 . S
C606 H598 0.950 . S
C606 C604 1.391 . S
C606 C607 1.400 . S
C607 C606 1.400 . S
C607 C608 1.398 . S
C607 C613 1.491 . S
C608 H599 0.950 . S
C608 C607 1.398 . S
C608 C609 1.391 . S
C609 H597 0.950 . S
C609 C605 1.393 . S
C609 C608 1.391 . S
C610 H600 0.950 . S
C610 C611 1.386 . S
C610 C612 1.391 . S
C611 C610 1.386 . S
C611 C615 1.393 . S
C612 H601 0.950 . S
C612 C610 1.391 . S
C612 C613 1.400 . S
C613 C607 1.491 . S
C613 C612 1.400 . S
C613 C614 1.398 . S
C614 H602 0.950 . S
C614 C613 1.398 . S
C614 C615 1.391 . S
C615 H603 0.950 . S
C615 C611 1.393 . S
C615 C614 1.391 . S
H616 C624 0.950 . S
H617 C629 0.950 . S
H618 C626 0.950 . S
H619 C628 0.950 . S
H620 C630 0.950 . S
H621 C632 0.950 . S
H622 C634 0.950 . S
H623 C635 0.950 . S
C624 H616 0.950 . S
C624 C625 1.386 1_655 S
C624 C626 1.391 . S
C625 C624 1.386 1_455 S
C625 C629 1.393 . S
C626 H618 0.950 . S
C626 C624 1.391 . S
C626 C627 1.400 1_655 S
C627 C626 1.400 1_455 S
C627 C628 1.398 . S
C627 C633 1.491 . S
C628 H619 0.950 . S
C628 C627 1.398 . S
C628 C629 1.391 . S
C629 H617 0.950 . S
C629 C625 1.393 . S
C629 C628 1.391 . S
C630 H620 0.950 . S
C630 C631 1.386 . S
C630 C632 1.391 . S
C631 C630 1.386 . S
C631 C635 1.393 1_455 S
C632 H621 0.950 . S
C632 C630 1.391 . S
C632 C633 1.400 . S
C633 C627 1.491 . S
C633 C632 1.400 . S
C633 C634 1.398 1_455 S
C634 H622 0.950 . S
C634 C633 1.398 1_655 S
C634 C635 1.391 . S
C635 H623 0.950 . S
C635 C631 1.393 1_655 S
C635 C634 1.391 . S
H636 C644 0.950 . S
H637 C649 0.950 . S
H638 C646 0.950 . S
H639 C648 0.950 . S
H640 C650 0.950 . S
H641 C652 0.950 . S
H642 C654 0.950 . S
H643 C655 0.950 . S
C644 H636 0.950 . S
C644 C645 1.386 . S
C644 C646 1.391 . S
C645 C644 1.386 . S
C645 C649 1.393 . S
C646 H638 0.950 . S
C646 C644 1.391 . S
C646 C647 1.400 . S
C647 C646 1.400 . S
C647 C648 1.398 . S
C647 C653 1.491 . S
C648 H639 0.950 . S
C648 C647 1.398 . S
C648 C649 1.391 . S
C649 H637 0.950 . S
C649 C645 1.393 . S
C649 C648 1.391 . S
C650 H640 0.950 . S
C650 C651 1.386 . S
C650 C652 1.391 . S
C651 C650 1.386 . S
C651 C655 1.393 . S
C652 H641 0.950 . S
C652 C650 1.391 . S
C652 C653 1.400 . S
C653 C647 1.491 . S
C653 C652 1.400 . S
C653 C654 1.398 . S
C654 H642 0.950 . S
C654 C653 1.398 . S
C654 C655 1.391 . S
C655 H643 0.950 . S
C655 C651 1.393 . S
C655 C654 1.391 . S
H656 C664 0.950 . S
H657 C669 0.950 . S
H658 C666 0.950 . S
H659 C668 0.950 . S
H660 C670 0.950 . S
H661 C672 0.950 . S
H662 C674 0.950 . S
H663 C675 0.950 . S
C664 H656 0.950 . S
C664 C665 1.386 . S
C664 C666 1.391 . S
C665 C664 1.386 . S
C665 C669 1.393 1_655 S
C666 H658 0.950 . S
C666 C664 1.391 . S
C666 C667 1.400 . S
C667 C666 1.400 . S
C667 C668 1.398 1_655 S
C667 C673 1.491 . S
C668 H659 0.950 . S
C668 C667 1.398 1_455 S
C668 C669 1.391 . S
C669 H657 0.950 . S
C669 C665 1.393 1_455 S
C669 C668 1.391 . S
C670 H660 0.950 . S
C670 C671 1.386 1_455 S
C670 C672 1.391 . S
C671 C670 1.386 1_655 S
C671 C675 1.393 . S
C672 H661 0.950 . S
C672 C670 1.391 . S
C672 C673 1.400 1_455 S
C673 C667 1.491 . S
C673 C672 1.400 1_655 S
C673 C674 1.398 . S
C674 H662 0.950 . S
C674 C673 1.398 . S
C674 C675 1.391 . S
C675 H663 0.950 . S
C675 C671 1.393 . S
C675 C674 1.391 . S
H676 C684 0.950 . S
H677 C689 0.950 . S
H678 C686 0.950 . S
H679 C688 0.950 . S
H680 C690 0.950 . S
H681 C692 0.950 . S
H682 C694 0.950 . S
H683 C695 0.950 . S
C684 H676 0.950 . S
C684 C685 1.386 . S
C684 C686 1.391 . S
C685 C684 1.386 . S
C685 C689 1.393 . S
C686 H678 0.950 . S
C686 C684 1.391 . S
C686 C687 1.400 . S
C687 C686 1.400 . S
C687 C688 1.398 . S
C687 C693 1.491 . S
C688 H679 0.950 . S
C688 C687 1.398 . S
C688 C689 1.391 . S
C689 H677 0.950 . S
C689 C685 1.393 . S
C689 C688 1.391 . S
C690 H680 0.950 . S
C690 C691 1.386 . S
C690 C692 1.391 . S
C691 C690 1.386 . S
C691 C695 1.393 . S
C692 H681 0.950 . S
C692 C690 1.391 . S
C692 C693 1.400 . S
C693 C687 1.491 . S
C693 C692 1.400 . S
C693 C694 1.398 . S
C694 H682 0.950 . S
C694 C693 1.398 . S
C694 C695 1.391 . S
C695 H683 0.950 . S
C695 C691 1.393 . S
C695 C694 1.391 . S
H696 C704 0.950 . S
H697 C709 0.950 . S
H698 C706 0.950 . S
H699 C708 0.950 . S
H700 C710 0.950 . S
H701 C712 0.950 . S
H702 C714 0.950 . S
H703 C715 0.950 . S
C704 H696 0.950 . S
C704 C705 1.378 1_655 S
C704 C706 1.391 . S
C705 C704 1.378 1_455 S
C705 C709 1.401 . S
C706 H698 0.950 . S
C706 C704 1.391 . S
C706 C707 1.400 1_655 S
C707 C706 1.400 1_455 S
C707 C708 1.398 . S
C707 C713 1.491 . S
C708 H699 0.950 . S
C708 C707 1.398 . S
C708 C709 1.391 . S
C709 H697 0.950 . S
C709 C705 1.401 . S
C709 C708 1.391 . S
C710 H700 0.950 . S
C710 C711 1.386 . S
C710 C712 1.391 . S
C711 C710 1.386 . S
C711 C715 1.393 1_455 S
C712 H701 0.950 . S
C712 C710 1.391 . S
C712 C713 1.400 . S
C713 C707 1.491 . S
C713 C712 1.400 . S
C713 C714 1.398 1_455 S
C714 H702 0.950 . S
C714 C713 1.398 1_655 S
C714 C715 1.391 . S
C715 H703 0.950 . S
C715 C711 1.393 1_655 S
C715 C714 1.391 . S
H716 C724 0.950 . S
H717 C729 0.950 . S
H718 C726 0.950 . S
H719 C728 0.950 . S
H720 C730 0.950 . S
H721 C732 0.950 . S
H722 C734 0.950 . S
H723 C735 0.950 . S
C724 H716 0.950 . S
C724 C725 1.386 . S
C724 C726 1.391 . S
C725 C724 1.386 . S
C725 C729 1.393 . S
C726 H718 0.950 . S
C726 C724 1.391 . S
C726 C727 1.400 . S
C727 C726 1.400 . S
C727 C728 1.398 . S
C727 C733 1.491 . S
C728 H719 0.950 . S
C728 C727 1.398 . S
C728 C729 1.391 . S
C729 H717 0.950 . S
C729 C725 1.393 . S
C729 C728 1.391 . S
C730 H720 0.950 . S
C730 C731 1.386 . S
C730 C732 1.391 . S
C731 C730 1.386 . S
C731 C735 1.393 . S
C732 H721 0.950 . S
C732 C730 1.391 . S
C732 C733 1.400 . S
C733 C727 1.491 . S
C733 C732 1.400 . S
C733 C734 1.398 . S
C734 H722 0.950 . S
C734 C733 1.398 . S
C734 C735 1.391 . S
C735 H723 0.950 . S
C735 C731 1.393 . S
C735 C734 1.391 . S
H736 C744 0.950 . S
H737 C749 0.950 . S
H738 C746 0.950 . S
H739 C748 0.950 . S
H740 C750 0.950 1_545 S
H741 C752 0.950 . S
H742 C754 0.950 . S
H743 C755 0.950 . S
C744 H736 0.950 . S
C744 C745 1.386 . S
C744 C746 1.391 . S
C745 C744 1.386 . S
C745 C749 1.393 . S
C746 H738 0.950 . S
C746 C744 1.391 . S
C746 C747 1.400 . S
C747 C746 1.400 . S
C747 C748 1.398 . S
C747 C753 1.491 . S
C748 H739 0.950 . S
C748 C747 1.398 . S
C748 C749 1.391 . S
C749 H737 0.950 . S
C749 C745 1.393 . S
C749 C748 1.391 . S
C750 H740 0.950 1_565 S
C750 C751 1.386 . S
C750 C752 1.391 . S
C751 C750 1.386 . S
C751 C755 1.393 . S
C752 H741 0.950 . S
C752 C750 1.391 . S
C752 C753 1.400 . S
C753 C747 1.491 . S
C753 C752 1.400 . S
C753 C754 1.398 . S
C754 H742 0.950 . S
C754 C753 1.398 . S
C754 C755 1.391 . S
C755 H743 0.950 . S
C755 C751 1.393 . S
C755 C754 1.391 . S
H756 C764 0.950 . S
H757 C769 0.950 . S
H758 C766 0.950 . S
H759 C768 0.950 . S
H760 C770 0.950 . S
H761 C772 0.950 . S
H762 C774 0.950 . S
H763 C775 0.950 . S
C764 H756 0.950 . S
C764 C765 1.386 . S
C764 C766 1.391 . S
C765 C764 1.386 . S
C765 C769 1.393 . S
C766 H758 0.950 . S
C766 C764 1.391 . S
C766 C767 1.400 . S
C767 C766 1.400 . S
C767 C768 1.398 . S
C767 C773 1.491 . S
C768 H759 0.950 . S
C768 C767 1.398 . S
C768 C769 1.391 . S
C769 H757 0.950 . S
C769 C765 1.393 . S
C769 C768 1.391 . S
C770 H760 0.950 . S
C770 C771 1.386 . S
C770 C772 1.391 . S
C771 C770 1.386 . S
C771 C775 1.393 . S
C772 H761 0.950 . S
C772 C770 1.391 . S
C772 C773 1.400 . S
C773 C767 1.491 . S
C773 C772 1.400 . S
C773 C774 1.398 . S
C774 H762 0.950 . S
C774 C773 1.398 . S
C774 C775 1.391 . S
C775 H763 0.950 . S
C775 C771 1.393 . S
C775 C774 1.391 . S
H776 C784 0.950 . S
H777 C789 0.950 . S
H778 C786 0.950 . S
H779 C788 0.950 . S
H780 C790 0.950 . S
H781 C792 0.950 . S
H782 C794 0.950 . S
H783 C795 0.950 . S
C784 H776 0.950 . S
C784 C785 1.386 . S
C784 C786 1.391 . S
C785 C784 1.386 . S
C785 C789 1.393 . S
C786 H778 0.950 . S
C786 C784 1.391 . S
C786 C787 1.400 . S
C787 C786 1.400 . S
C787 C788 1.398 . S
C787 C793 1.491 . S
C788 H779 0.950 . S
C788 C787 1.398 . S
C788 C789 1.391 . S
C789 H777 0.950 . S
C789 C785 1.393 . S
C789 C788 1.391 . S
C790 H780 0.950 . S
C790 C791 1.386 . S
C790 C792 1.391 . S
C791 C790 1.386 . S
C791 C795 1.393 . S
C792 H781 0.950 . S
C792 C790 1.391 . S
C792 C793 1.400 . S
C793 C787 1.491 . S
C793 C792 1.400 . S
C793 C794 1.398 . S
C794 H782 0.950 . S
C794 C793 1.398 . S
C794 C795 1.391 . S
C795 H783 0.950 . S
C795 C791 1.393 . S
C795 C794 1.391 . S
H796 C804 0.950 1_545 S
H797 C809 0.950 . S
H798 C806 0.950 . S
H799 C808 0.950 . S
H800 C810 0.950 . S
H801 C812 0.950 . S
H802 C814 0.950 . S
H803 C815 0.950 . S
C804 H796 0.950 1_565 S
C804 C805 1.386 . S
C804 C806 1.391 . S
C805 C804 1.386 . S
C805 C809 1.393 . S
C806 H798 0.950 . S
C806 C804 1.391 . S
C806 C807 1.400 . S
C807 C806 1.400 . S
C807 C808 1.398 . S
C807 C813 1.491 . S
C808 H799 0.950 . S
C808 C807 1.398 . S
C808 C809 1.391 . S
C809 H797 0.950 . S
C809 C805 1.393 . S
C809 C808 1.391 . S
C810 H800 0.950 . S
C810 C811 1.386 . S
C810 C812 1.391 . S
C811 C810 1.386 . S
C811 C815 1.393 . S
C812 H801 0.950 . S
C812 C810 1.391 . S
C812 C813 1.400 . S
C813 C807 1.491 . S
C813 C812 1.400 . S
C813 C814 1.398 . S
C814 H802 0.950 . S
C814 C813 1.398 . S
C814 C815 1.391 . S
C815 H803 0.950 . S
C815 C811 1.393 . S
C815 C814 1.391 . S
H816 C824 0.950 . S
H817 C829 0.950 . S
H818 C826 0.950 . S
H819 C828 0.950 . S
H820 C830 0.950 1_565 S
H821 C832 0.950 . S
H822 C834 0.950 . S
H823 C835 0.950 . S
C824 H816 0.950 . S
C824 C825 1.386 . S
C824 C826 1.391 . S
C825 C824 1.386 . S
C825 C829 1.393 . S
C826 H818 0.950 . S
C826 C824 1.391 . S
C826 C827 1.400 . S
C827 C826 1.400 . S
C827 C828 1.398 . S
C827 C833 1.491 . S
C828 H819 0.950 . S
C828 C827 1.398 . S
C828 C829 1.391 . S
C829 H817 0.950 . S
C829 C825 1.393 . S
C829 C828 1.391 . S
C830 H820 0.950 1_545 S
C830 C831 1.386 . S
C830 C832 1.391 . S
C831 C830 1.386 . S
C831 C835 1.393 . S
C832 H821 0.950 . S
C832 C830 1.391 . S
C832 C833 1.400 . S
C833 C827 1.491 . S
C833 C832 1.400 . S
C833 C834 1.398 . S
C834 H822 0.950 . S
C834 C833 1.398 . S
C834 C835 1.391 . S
C835 H823 0.950 . S
C835 C831 1.393 . S
C835 C834 1.391 . S
H836 C844 0.950 . S
H837 C849 0.950 . S
H838 C846 0.950 . S
H839 C848 0.950 . S
H840 C850 0.950 . S
H841 C852 0.950 . S
H842 C854 0.950 . S
H843 C855 0.950 . S
C844 H836 0.950 . S
C844 C845 1.386 . S
C844 C846 1.391 . S
C845 C844 1.386 . S
C845 C849 1.393 . S
C846 H838 0.950 . S
C846 C844 1.391 . S
C846 C847 1.400 . S
C847 C846 1.400 . S
C847 C848 1.398 . S
C847 C853 1.491 . S
C848 H839 0.950 . S
C848 C847 1.398 . S
C848 C849 1.391 . S
C849 H837 0.950 . S
C849 C845 1.393 . S
C849 C848 1.391 . S
C850 H840 0.950 . S
C850 C851 1.386 . S
C850 C852 1.391 . S
C851 C850 1.386 . S
C851 C855 1.393 . S
C852 H841 0.950 . S
C852 C850 1.391 . S
C852 C853 1.400 . S
C853 C847 1.491 . S
C853 C852 1.400 . S
C853 C854 1.398 . S
C854 H842 0.950 . S
C854 C853 1.398 . S
C854 C855 1.391 . S
C855 H843 0.950 . S
C855 C851 1.393 . S
C855 C854 1.391 . S
H856 C864 0.950 . S
H857 C869 0.950 . S
H858 C866 0.950 . S
H859 C868 0.950 . S
H860 C870 0.950 . S
H861 C872 0.950 . S
H862 C874 0.950 . S
H863 C875 0.950 . S
C864 H856 0.950 . S
C864 C865 1.386 . S
C864 C866 1.391 . S
C865 C864 1.386 . S
C865 C869 1.393 . S
C866 H858 0.950 . S
C866 C864 1.391 . S
C866 C867 1.400 . S
C867 C866 1.400 . S
C867 C868 1.398 . S
C867 C873 1.491 . S
C868 H859 0.950 . S
C868 C867 1.398 . S
C868 C869 1.391 . S
C869 H857 0.950 . S
C869 C865 1.393 . S
C869 C868 1.391 . S
C870 H860 0.950 . S
C870 C871 1.386 . S
C870 C872 1.391 . S
C871 C870 1.386 . S
C871 C875 1.393 . S
C872 H861 0.950 . S
C872 C870 1.391 . S
C872 C873 1.400 . S
C873 C867 1.491 . S
C873 C872 1.400 . S
C873 C874 1.398 . S
C874 H862 0.950 . S
C874 C873 1.398 . S
C874 C875 1.391 . S
C875 H863 0.950 . S
C875 C871 1.393 . S
C875 C874 1.391 . S
H876 C884 0.950 . S
H877 C889 0.950 . S
H878 C886 0.950 . S
H879 C888 0.950 . S
H880 C890 0.950 . S
H881 C892 0.950 . S
H882 C894 0.950 . S
H883 C895 0.950 1_565 S
C884 H876 0.950 . S
C884 C885 1.386 . S
C884 C886 1.391 . S
C885 C884 1.386 . S
C885 C889 1.393 . S
C886 H878 0.950 . S
C886 C884 1.391 . S
C886 C887 1.400 . S
C887 C886 1.400 . S
C887 C888 1.398 . S
C887 C893 1.491 . S
C888 H879 0.950 . S
C888 C887 1.398 . S
C888 C889 1.391 . S
C889 H877 0.950 . S
C889 C885 1.393 . S
C889 C888 1.391 . S
C890 H880 0.950 . S
C890 C891 1.386 . S
C890 C892 1.391 . S
C891 C890 1.386 . S
C891 C895 1.393 . S
C892 H881 0.950 . S
C892 C890 1.391 . S
C892 C893 1.400 . S
C893 C887 1.491 . S
C893 C892 1.400 . S
C893 C894 1.398 . S
C894 H882 0.950 . S
C894 C893 1.398 . S
C894 C895 1.391 . S
C895 H883 0.950 1_545 S
C895 C891 1.393 . S
C895 C894 1.391 . S
H896 C904 0.950 . S
H897 C909 0.950 . S
H898 C906 0.950 . S
H899 C908 0.950 . S
H900 C910 0.950 . S
H901 C912 0.950 . S
H902 C914 0.950 . S
H903 C915 0.950 . S
C904 H896 0.950 . S
C904 C905 1.386 . S
C904 C906 1.391 . S
C905 C904 1.386 . S
C905 C909 1.393 . S
C906 H898 0.950 . S
C906 C904 1.391 . S
C906 C907 1.400 . S
C907 C906 1.400 . S
C907 C908 1.398 . S
C907 C913 1.491 . S
C908 H899 0.950 . S
C908 C907 1.398 . S
C908 C909 1.391 . S
C909 H897 0.950 . S
C909 C905 1.393 . S
C909 C908 1.391 . S
C910 H900 0.950 . S
C910 C911 1.386 . S
C910 C912 1.391 . S
C911 C910 1.386 . S
C911 C915 1.393 . S
C912 H901 0.950 . S
C912 C910 1.391 . S
C912 C913 1.400 . S
C913 C907 1.491 . S
C913 C912 1.400 . S
C913 C914 1.398 . S
C914 H902 0.950 . S
C914 C913 1.398 . S
C914 C915 1.391 . S
C915 H903 0.950 . S
C915 C911 1.393 . S
C915 C914 1.391 . S
H916 C924 0.950 . S
H917 C929 0.950 . S
H918 C926 0.950 . S
H919 C928 0.950 . S
H920 C930 0.950 . S
H921 C932 0.950 . S
H922 C934 0.950 . S
H923 C935 0.950 1_545 S
C924 H916 0.950 . S
C924 C925 1.386 . S
C924 C926 1.391 . S
C925 C924 1.386 . S
C925 C929 1.393 . S
C926 H918 0.950 . S
C926 C924 1.391 . S
C926 C927 1.400 . S
C927 C926 1.400 . S
C927 C928 1.398 . S
C927 C933 1.491 . S
C928 H919 0.950 . S
C928 C927 1.398 . S
C928 C929 1.391 . S
C929 H917 0.950 . S
C929 C925 1.393 . S
C929 C928 1.391 . S
C930 H920 0.950 . S
C930 C931 1.386 . S
C930 C932 1.391 . S
C931 C930 1.386 . S
C931 C935 1.393 . S
C932 H921 0.950 . S
C932 C930 1.391 . S
C932 C933 1.400 . S
C933 C927 1.491 . S
C933 C932 1.400 . S
C933 C934 1.398 . S
C934 H922 0.950 . S
C934 C933 1.398 . S
C934 C935 1.391 . S
C935 H923 0.950 1_565 S
C935 C931 1.393 . S
C935 C934 1.391 . S
H936 C944 0.950 . S
H937 C949 0.950 . S
H938 C946 0.950 . S
H939 C948 0.950 . S
H940 C950 0.950 . S
H941 C952 0.950 1_545 S
H942 C954 0.950 . S
H943 C955 0.950 . S
C944 H936 0.950 . S
C944 C945 1.386 . S
C944 C946 1.391 . S
C945 C944 1.386 . S
C945 C949 1.393 . S
C946 H938 0.950 . S
C946 C944 1.391 . S
C946 C947 1.400 . S
C947 C946 1.400 . S
C947 C948 1.398 . S
C947 C953 1.491 . S
C948 H939 0.950 . S
C948 C947 1.398 . S
C948 C949 1.391 . S
C949 H937 0.950 . S
C949 C945 1.393 . S
C949 C948 1.391 . S
C950 H940 0.950 . S
C950 C951 1.386 1_545 S
C950 C952 1.391 1_545 S
C951 C950 1.386 1_565 S
C951 C955 1.393 . S
C952 H941 0.950 1_565 S
C952 C950 1.391 1_565 S
C952 C953 1.400 . S
C953 C947 1.491 . S
C953 C952 1.400 . S
C953 C954 1.398 . S
C954 H942 0.950 . S
C954 C953 1.398 . S
C954 C955 1.391 . S
C955 H943 0.950 . S
C955 C951 1.393 . S
C955 C954 1.391 . S
H956 C964 0.950 . S
H957 C969 0.950 . S
H958 C966 0.950 . S
H959 C968 0.950 . S
H960 C970 0.950 . S
H961 C972 0.950 . S
H962 C974 0.950 . S
H963 C975 0.950 . S
C964 H956 0.950 . S
C964 C965 1.386 . S
C964 C966 1.391 . S
C965 C964 1.386 . S
C965 C969 1.393 . S
C966 H958 0.950 . S
C966 C964 1.391 . S
C966 C967 1.400 . S
C967 C966 1.400 . S
C967 C968 1.398 . S
C967 C973 1.491 . S
C968 H959 0.950 . S
C968 C967 1.398 . S
C968 C969 1.391 . S
C969 H957 0.950 . S
C969 C965 1.393 . S
C969 C968 1.391 . S
C970 H960 0.950 . S
C970 C971 1.386 . S
C970 C972 1.391 . S
C971 C970 1.386 . S
C971 C975 1.393 . S
C972 H961 0.950 . S
C972 C970 1.391 . S
C972 C973 1.400 . S
C973 C967 1.491 . S
C973 C972 1.400 . S
C973 C974 1.398 . S
C974 H962 0.950 . S
C974 C973 1.398 . S
C974 C975 1.391 . S
C975 H963 0.950 . S
C975 C971 1.393 . S
C975 C974 1.391 . S
H976 C984 0.950 . S
H977 C989 0.950 . S
H978 C986 0.950 . S
H979 C988 0.950 . S
H980 C990 0.950 . S
H981 C992 0.950 . S
H982 C994 0.950 . S
H983 C995 0.950 . S
C984 H976 0.950 . S
C984 C985 1.386 . S
C984 C986 1.391 . S
C985 C984 1.386 . S
C985 C989 1.393 . S
C986 H978 0.950 . S
C986 C984 1.391 . S
C986 C987 1.400 . S
C987 C986 1.400 . S
C987 C988 1.398 . S
C987 C993 1.491 . S
C988 H979 0.950 . S
C988 C987 1.398 . S
C988 C989 1.391 . S
C989 H977 0.950 . S
C989 C985 1.393 . S
C989 C988 1.391 . S
C990 H980 0.950 . S
C990 C991 1.386 . S
C990 C992 1.391 . S
C991 C990 1.386 . S
C991 C995 1.393 . S
C992 H981 0.950 . S
C992 C990 1.391 . S
C992 C993 1.400 . S
C993 C987 1.491 . S
C993 C992 1.400 . S
C993 C994 1.398 . S
C994 H982 0.950 . S
C994 C993 1.398 . S
C994 C995 1.391 . S
C995 H983 0.950 . S
C995 C991 1.393 . S
C995 C994 1.391 . S
H996 C1004 0.950 1_565 S
H997 C1009 0.950 . S
H998 C1006 0.950 . S
H999 C1008 0.950 . S
H1000 C1010 0.950 . S
H1001 C1012 0.950 . S
H1002 C1014 0.950 . S
H1003 C1015 0.950 . S
C1004 H996 0.950 1_545 S
C1004 C1005 1.386 . S
C1004 C1006 1.391 . S
C1005 C1004 1.386 . S
C1005 C1009 1.393 . S
C1006 H998 0.950 . S
C1006 C1004 1.391 . S
C1006 C1007 1.400 . S
C1007 C1006 1.400 . S
C1007 C1008 1.398 . S
C1007 C1013 1.491 . S
C1008 H999 0.950 . S
C1008 C1007 1.398 . S
C1008 C1009 1.391 . S
C1009 H997 0.950 . S
C1009 C1005 1.393 . S
C1009 C1008 1.391 . S
C1010 H1000 0.950 . S
C1010 C1011 1.386 . S
C1010 C1012 1.391 . S
C1011 C1010 1.386 . S
C1011 C1015 1.393 . S
C1012 H1001 0.950 . S
C1012 C1010 1.391 . S
C1012 C1013 1.400 . S
C1013 C1007 1.491 . S
C1013 C1012 1.400 . S
C1013 C1014 1.398 . S
C1014 H1002 0.950 . S
C1014 C1013 1.398 . S
C1014 C1015 1.391 . S
C1015 H1003 0.950 . S
C1015 C1011 1.393 . S
C1015 C1014 1.391 . S
H1016 C1024 0.950 . S
H1017 C1029 0.950 . S
H1018 C1026 0.950 . S
H1019 C1028 0.950 . S
H1020 C1030 0.950 . S
H1021 C1032 0.950 . S
H1022 C1034 0.950 . S
H1023 C1035 0.950 . S
C1024 H1016 0.950 . S
C1024 C1025 1.386 . S
C1024 C1026 1.391 . S
C1025 C1024 1.386 . S
C1025 C1029 1.393 . S
C1026 H1018 0.950 . S
C1026 C1024 1.391 . S
C1026 C1027 1.400 . S
C1027 C1026 1.400 . S
C1027 C1028 1.398 . S
C1027 C1033 1.491 . S
C1028 H1019 0.950 . S
C1028 C1027 1.398 . S
C1028 C1029 1.391 . S
C1029 H1017 0.950 . S
C1029 C1025 1.393 . S
C1029 C1028 1.391 . S
C1030 H1020 0.950 . S
C1030 C1031 1.386 . S
C1030 C1032 1.391 . S
C1031 C1030 1.386 . S
C1031 C1035 1.393 . S
C1032 H1021 0.950 . S
C1032 C1030 1.391 . S
C1032 C1033 1.400 . S
C1033 C1027 1.491 . S
C1033 C1032 1.400 . S
C1033 C1034 1.398 . S
C1034 H1022 0.950 . S
C1034 C1033 1.398 . S
C1034 C1035 1.391 . S
C1035 H1023 0.950 . S
C1035 C1031 1.393 . S
C1035 C1034 1.391 . S
H1036 C1044 0.950 . S
H1037 C1049 0.950 . S
H1038 C1046 0.950 . S
H1039 C1048 0.950 . S
H1040 C1050 0.950 . S
H1041 C1052 0.950 . S
H1042 C1054 0.950 . S
H1043 C1055 0.950 . S
C1044 H1036 0.950 . S
C1044 C1045 1.386 . S
C1044 C1046 1.391 . S
C1045 C1044 1.386 . S
C1045 C1049 1.393 . S
C1046 H1038 0.950 . S
C1046 C1044 1.391 . S
C1046 C1047 1.400 . S
C1047 C1046 1.400 . S
C1047 C1048 1.398 . S
C1047 C1053 1.491 . S
C1048 H1039 0.950 . S
C1048 C1047 1.398 . S
C1048 C1049 1.391 . S
C1049 H1037 0.950 . S
C1049 C1045 1.393 . S
C1049 C1048 1.391 . S
C1050 H1040 0.950 . S
C1050 C1051 1.386 . S
C1050 C1052 1.391 . S
C1051 C1050 1.386 . S
C1051 C1055 1.393 . S
C1052 H1041 0.950 . S
C1052 C1050 1.391 . S
C1052 C1053 1.400 . S
C1053 C1047 1.491 . S
C1053 C1052 1.400 . S
C1053 C1054 1.398 . S
C1054 H1042 0.950 . S
C1054 C1053 1.398 . S
C1054 C1055 1.391 . S
C1055 H1043 0.950 . S
C1055 C1051 1.393 . S
C1055 C1054 1.391 . S
H1056 C1064 0.950 . S
H1057 C1069 0.950 . S
H1058 C1066 0.950 . S
H1059 C1068 0.950 . S
H1060 C1070 0.950 . S
H1061 C1072 0.950 . S
H1062 C1074 0.950 . S
H1063 C1075 0.950 . S
C1064 H1056 0.950 . S
C1064 C1065 1.386 . S
C1064 C1066 1.391 . S
C1065 C1064 1.386 . S
C1065 C1069 1.393 1_545 S
C1066 H1058 0.950 . S
C1066 C1064 1.391 . S
C1066 C1067 1.400 . S
C1067 C1066 1.400 . S
C1067 C1068 1.398 1_545 S
C1067 C1073 1.491 1_544 S
C1068 H1059 0.950 . S
C1068 C1067 1.398 1_565 S
C1068 C1069 1.391 . S
C1069 H1057 0.950 . S
C1069 C1065 1.393 1_565 S
C1069 C1068 1.391 . S
C1070 H1060 0.950 . S
C1070 C1071 1.386 . S
C1070 C1072 1.391 . S
C1071 C1070 1.386 . S
C1071 C1075 1.393 1_565 S
C1072 H1061 0.950 . S
C1072 C1070 1.391 . S
C1072 C1073 1.400 . S
C1073 C1067 1.491 1_566 S
C1073 C1072 1.400 . S
C1073 C1074 1.398 1_565 S
C1074 H1062 0.950 . S
C1074 C1073 1.398 1_545 S
C1074 C1075 1.391 . S
C1075 H1063 0.950 . S
C1075 C1071 1.393 1_545 S
C1075 C1074 1.391 . S
H1076 C1084 0.950 . S
H1077 C1089 0.950 . S
H1078 C1086 0.950 . S
H1079 C1088 0.950 . S
H1080 C1090 0.950 . S
H1081 C1092 0.950 . S
H1082 C1094 0.950 . S
H1083 C1095 0.950 . S
C1084 H1076 0.950 . S
C1084 C1085 1.386 . S
C1084 C1086 1.391 . S
C1085 C1084 1.386 . S
C1085 C1089 1.393 . S
C1086 H1078 0.950 . S
C1086 C1084 1.391 . S
C1086 C1087 1.400 . S
C1087 C1086 1.400 . S
C1087 C1088 1.398 . S
C1087 C1093 1.491 1_554 S
C1088 H1079 0.950 . S
C1088 C1087 1.398 . S
C1088 C1089 1.391 . S
C1089 H1077 0.950 . S
C1089 C1085 1.393 . S
C1089 C1088 1.391 . S
C1090 H1080 0.950 . S
C1090 C1091 1.386 . S
C1090 C1092 1.391 . S
C1091 C1090 1.386 . S
C1091 C1095 1.393 . S
C1092 H1081 0.950 . S
C1092 C1090 1.391 . S
C1092 C1093 1.400 . S
C1093 C1087 1.491 1_556 S
C1093 C1092 1.400 . S
C1093 C1094 1.398 . S
C1094 H1082 0.950 . S
C1094 C1093 1.398 . S
C1094 C1095 1.391 . S
C1095 H1083 0.950 . S
C1095 C1091 1.393 . S
C1095 C1094 1.391 . S
H1096 C1104 0.950 . S
H1097 C1109 0.950 . S
H1098 C1106 0.950 . S
H1099 C1108 0.950 . S
H1100 C1110 0.950 . S
H1101 C1112 0.950 . S
H1102 C1114 0.950 . S
H1103 C1115 0.950 . S
C1104 H1096 0.950 . S
C1104 C1105 1.386 . S
C1104 C1106 1.391 . S
C1105 C1104 1.386 . S
C1105 C1109 1.393 . S
C1106 H1098 0.950 . S
C1106 C1104 1.391 . S
C1106 C1107 1.400 . S
C1107 C1106 1.400 . S
C1107 C1108 1.398 . S
C1107 C1113 1.491 . S
C1108 H1099 0.950 . S
C1108 C1107 1.398 . S
C1108 C1109 1.391 . S
C1109 H1097 0.950 . S
C1109 C1105 1.393 . S
C1109 C1108 1.391 . S
C1110 H1100 0.950 . S
C1110 C1111 1.386 . S
C1110 C1112 1.391 . S
C1111 C1110 1.386 . S
C1111 C1115 1.393 . S
C1112 H1101 0.950 . S
C1112 C1110 1.391 . S
C1112 C1113 1.400 . S
C1113 C1107 1.491 . S
C1113 C1112 1.400 . S
C1113 C1114 1.398 . S
C1114 H1102 0.950 . S
C1114 C1113 1.398 . S
C1114 C1115 1.391 . S
C1115 H1103 0.950 . S
C1115 C1111 1.393 . S
C1115 C1114 1.391 . S
H1116 C1124 0.950 . S
H1117 C1129 0.950 . S
H1118 C1126 0.950 . S
H1119 C1128 0.950 . S
H1120 C1130 0.950 . S
H1121 C1132 0.950 . S
H1122 C1134 0.950 . S
H1123 C1135 0.950 . S
C1124 H1116 0.950 . S
C1124 C1125 1.386 . S
C1124 C1126 1.391 . S
C1125 C1124 1.386 . S
C1125 C1129 1.393 1_545 S
C1126 H1118 0.950 . S
C1126 C1124 1.391 . S
C1126 C1127 1.400 . S
C1127 C1126 1.400 . S
C1127 C1128 1.398 1_545 S
C1127 C1133 1.491 1_545 S
C1128 H1119 0.950 . S
C1128 C1127 1.398 1_565 S
C1128 C1129 1.391 . S
C1129 H1117 0.950 . S
C1129 C1125 1.393 1_565 S
C1129 C1128 1.391 . S
C1130 H1120 0.950 . S
C1130 C1131 1.386 . S
C1130 C1132 1.391 . S
C1131 C1130 1.386 . S
C1131 C1135 1.393 1_565 S
C1132 H1121 0.950 . S
C1132 C1130 1.391 . S
C1132 C1133 1.400 . S
C1133 C1127 1.491 1_565 S
C1133 C1132 1.400 . S
C1133 C1134 1.398 1_565 S
C1134 H1122 0.950 . S
C1134 C1133 1.398 1_545 S
C1134 C1135 1.391 . S
C1135 H1123 0.950 . S
C1135 C1131 1.393 1_545 S
C1135 C1134 1.391 . S
H1136 C1144 0.950 . S
H1137 C1149 0.950 . S
H1138 C1146 0.950 . S
H1139 C1148 0.950 . S
H1140 C1150 0.950 . S
H1141 C1152 0.950 . S
H1142 C1154 0.950 . S
H1143 C1155 0.950 . S
C1144 H1136 0.950 . S
C1144 C1145 1.386 . S
C1144 C1146 1.391 . S
C1145 C1144 1.386 . S
C1145 C1149 1.393 . S
C1146 H1138 0.950 . S
C1146 C1144 1.391 . S
C1146 C1147 1.400 . S
C1147 C1146 1.400 . S
C1147 C1148 1.398 . S
C1147 C1153 1.491 1_556 S
C1148 H1139 0.950 . S
C1148 C1147 1.398 . S
C1148 C1149 1.391 . S
C1149 H1137 0.950 . S
C1149 C1145 1.393 . S
C1149 C1148 1.391 . S
C1150 H1140 0.950 . S
C1150 C1151 1.386 . S
C1150 C1152 1.391 . S
C1151 C1150 1.386 . S
C1151 C1155 1.393 . S
C1152 H1141 0.950 . S
C1152 C1150 1.391 . S
C1152 C1153 1.400 . S
C1153 C1147 1.491 1_554 S
C1153 C1152 1.400 . S
C1153 C1154 1.398 . S
C1154 H1142 0.950 . S
C1154 C1153 1.398 . S
C1154 C1155 1.391 . S
C1155 H1143 0.950 . S
C1155 C1151 1.393 . S
C1155 C1154 1.391 . S
H1156 C1164 0.950 . S
H1157 C1169 0.950 . S
H1158 C1166 0.950 . S
H1159 C1168 0.950 . S
H1160 C1170 0.950 . S
H1161 C1172 0.950 . S
H1162 C1174 0.950 . S
H1163 C1175 0.950 . S
C1164 H1156 0.950 . S
C1164 C1165 1.386 . S
C1164 C1166 1.391 . S
C1165 C1164 1.386 . S
C1165 C1169 1.393 . S
C1166 H1158 0.950 . S
C1166 C1164 1.391 . S
C1166 C1167 1.400 . S
C1167 C1166 1.400 . S
C1167 C1168 1.398 . S
C1167 C1173 1.491 . S
C1168 H1159 0.950 . S
C1168 C1167 1.398 . S
C1168 C1169 1.391 . S
C1169 H1157 0.950 . S
C1169 C1165 1.393 . S
C1169 C1168 1.391 . S
C1170 H1160 0.950 . S
C1170 C1171 1.386 . S
C1170 C1172 1.391 . S
C1171 C1170 1.386 . S
C1171 C1175 1.393 . S
C1172 H1161 0.950 . S
C1172 C1170 1.391 . S
C1172 C1173 1.400 . S
C1173 C1167 1.491 . S
C1173 C1172 1.400 . S
C1173 C1174 1.398 . S
C1174 H1162 0.950 . S
C1174 C1173 1.398 . S
C1174 C1175 1.391 . S
C1175 H1163 0.950 . S
C1175 C1171 1.393 . S
C1175 C1174 1.391 . S
H1176 C1184 0.950 . S
H1177 C1189 0.950 . S
H1178 C1186 0.950 1_565 S
H1179 C1188 0.951 . S
H1180 C1190 0.950 . S
H1181 C1192 0.950 1_545 S
H1182 C1194 0.950 1_545 S
H1183 C1195 0.950 . S
C1184 H1176 0.950 . S
C1184 C1185 1.386 . S
C1184 C1186 1.391 . S
C1185 C1184 1.386 . S
C1185 C1189 1.393 . S
C1186 H1178 0.950 1_545 S
C1186 C1184 1.391 . S
C1186 C1187 1.400 . S
C1187 C1186 1.400 . S
C1187 C1188 1.398 . S
C1187 C1193 1.491 1_545 S
C1188 H1179 0.951 . S
C1188 C1187 1.398 . S
C1188 C1189 1.391 . S
C1189 H1177 0.950 . S
C1189 C1185 1.393 . S
C1189 C1188 1.391 . S
C1190 H1180 0.950 . S
C1190 C1191 1.386 . S
C1190 C1192 1.391 . S
C1191 C1190 1.386 . S
C1191 C1195 1.393 . S
C1192 H1181 0.950 1_565 S
C1192 C1190 1.391 . S
C1192 C1193 1.400 . S
C1193 C1187 1.491 1_565 S
C1193 C1192 1.400 . S
C1193 C1194 1.398 . S
C1194 H1182 0.950 1_565 S
C1194 C1193 1.398 . S
C1194 C1195 1.391 . S
C1195 H1183 0.950 . S
C1195 C1191 1.393 . S
C1195 C1194 1.391 . S
H1196 C1204 0.950 . S
H1197 C1209 0.950 . S
H1198 C1206 0.950 . S
H1199 C1208 0.950 . S
H1200 C1210 0.950 . S
H1201 C1212 0.950 . S
H1202 C1214 0.950 . S
H1203 C1215 0.950 . S
C1204 H1196 0.950 . S
C1204 C1205 1.386 . S
C1204 C1206 1.391 . S
C1205 C1204 1.386 . S
C1205 C1209 1.393 . S
C1206 H1198 0.950 . S
C1206 C1204 1.391 . S
C1206 C1207 1.400 . S
C1207 C1206 1.400 . S
C1207 C1208 1.398 . S
C1207 C1213 1.491 . S
C1208 H1199 0.950 . S
C1208 C1207 1.398 . S
C1208 C1209 1.391 . S
C1209 H1197 0.950 . S
C1209 C1205 1.393 . S
C1209 C1208 1.391 . S
C1210 H1200 0.950 . S
C1210 C1211 1.386 . S
C1210 C1212 1.391 . S
C1211 C1210 1.386 . S
C1211 C1215 1.393 . S
C1212 H1201 0.950 . S
C1212 C1210 1.391 . S
C1212 C1213 1.400 . S
C1213 C1207 1.491 . S
C1213 C1212 1.400 . S
C1213 C1214 1.398 . S
C1214 H1202 0.950 . S
C1214 C1213 1.398 . S
C1214 C1215 1.391 . S
C1215 H1203 0.950 . S
C1215 C1211 1.393 . S
C1215 C1214 1.391 . S
H1216 C1224 0.950 . S
H1217 C1229 0.950 . S
H1218 C1226 0.950 . S
H1219 C1228 0.950 . S
H1220 C1230 0.950 . S
H1221 C1232 0.950 . S
H1222 C1234 0.950 . S
H1223 C1235 0.950 . S
C1224 H1216 0.950 . S
C1224 C1225 1.386 . S
C1224 C1226 1.391 . S
C1225 C1224 1.386 . S
C1225 C1229 1.393 . S
C1226 H1218 0.950 . S
C1226 C1224 1.391 . S
C1226 C1227 1.400 . S
C1227 C1226 1.400 . S
C1227 C1228 1.398 . S
C1227 C1233 1.491 . S
C1228 H1219 0.950 . S
C1228 C1227 1.398 . S
C1228 C1229 1.391 . S
C1229 H1217 0.950 . S
C1229 C1225 1.393 . S
C1229 C1228 1.391 . S
C1230 H1220 0.950 . S
C1230 C1231 1.386 . S
C1230 C1232 1.391 . S
C1231 C1230 1.386 . S
C1231 C1235 1.393 . S
C1232 H1221 0.950 . S
C1232 C1230 1.391 . S
C1232 C1233 1.400 . S
C1233 C1227 1.491 . S
C1233 C1232 1.400 . S
C1233 C1234 1.398 . S
C1234 H1222 0.950 . S
C1234 C1233 1.398 . S
C1234 C1235 1.391 . S
C1235 H1223 0.950 . S
C1235 C1231 1.393 . S
C1235 C1234 1.391 . S
H1236 C1244 0.950 . S
H1237 C1249 0.950 . S
H1238 C1246 0.950 . S
H1239 C1248 0.950 . S
H1240 C1250 0.950 . S
H1241 C1252 0.950 . S
H1242 C1254 0.950 . S
H1243 C1255 0.950 . S
C1244 H1236 0.950 . S
C1244 C1245 1.386 . S
C1244 C1246 1.391 . S
C1245 C1244 1.386 . S
C1245 C1249 1.393 . S
C1246 H1238 0.950 . S
C1246 C1244 1.391 . S
C1246 C1247 1.400 . S
C1247 C1246 1.400 . S
C1247 C1248 1.398 . S
C1247 C1253 1.491 . S
C1248 H1239 0.950 . S
C1248 C1247 1.398 . S
C1248 C1249 1.391 . S
C1249 H1237 0.950 . S
C1249 C1245 1.393 . S
C1249 C1248 1.391 . S
C1250 H1240 0.950 . S
C1250 C1251 1.386 . S
C1250 C1252 1.391 . S
C1251 C1250 1.386 . S
C1251 C1255 1.393 . S
C1252 H1241 0.950 . S
C1252 C1250 1.391 . S
C1252 C1253 1.400 . S
C1253 C1247 1.491 . S
C1253 C1252 1.400 . S
C1253 C1254 1.398 . S
C1254 H1242 0.950 . S
C1254 C1253 1.398 . S
C1254 C1255 1.391 . S
C1255 H1243 0.950 . S
C1255 C1251 1.393 . S
C1255 C1254 1.391 . S
H1256 C1264 0.950 . S
H1257 C1269 0.950 . S
H1258 C1266 0.950 . S
H1259 C1268 0.950 . S
H1260 C1270 0.950 . S
H1261 C1272 0.950 . S
H1262 C1274 0.950 . S
H1263 C1275 0.950 . S
C1264 H1256 0.950 . S
C1264 C1265 1.386 . S
C1264 C1266 1.391 . S
C1265 C1264 1.386 . S
C1265 C1269 1.393 . S
C1266 H1258 0.950 . S
C1266 C1264 1.391 . S
C1266 C1267 1.400 . S
C1267 C1266 1.400 . S
C1267 C1268 1.398 . S
C1267 C1273 1.491 . S
C1268 H1259 0.950 . S
C1268 C1267 1.398 . S
C1268 C1269 1.391 . S
C1269 H1257 0.950 . S
C1269 C1265 1.393 . S
C1269 C1268 1.391 . S
C1270 H1260 0.950 . S
C1270 C1271 1.386 . S
C1270 C1272 1.391 . S
C1271 C1270 1.386 . S
C1271 C1275 1.393 . S
C1272 H1261 0.950 . S
C1272 C1270 1.391 . S
C1272 C1273 1.400 . S
C1273 C1267 1.491 . S
C1273 C1272 1.400 . S
C1273 C1274 1.398 . S
C1274 H1262 0.950 . S
C1274 C1273 1.398 . S
C1274 C1275 1.391 . S
C1275 H1263 0.950 . S
C1275 C1271 1.393 . S
C1275 C1274 1.391 . S
H1276 C1284 0.950 . S
H1277 C1289 0.950 . S
H1278 C1286 0.950 . S
H1279 C1288 0.950 . S
H1280 C1290 0.950 . S
H1281 C1292 0.950 . S
H1282 C1294 0.950 . S
H1283 C1295 0.950 . S
C1284 H1276 0.950 . S
C1284 C1285 1.386 . S
C1284 C1286 1.391 . S
C1285 C1284 1.386 . S
C1285 C1289 1.393 . S
C1286 H1278 0.950 . S
C1286 C1284 1.391 . S
C1286 C1287 1.400 . S
C1287 C1286 1.400 . S
C1287 C1288 1.398 . S
C1287 C1293 1.491 . S
C1288 H1279 0.950 . S
C1288 C1287 1.398 . S
C1288 C1289 1.391 . S
C1289 H1277 0.950 . S
C1289 C1285 1.393 . S
C1289 C1288 1.391 . S
C1290 H1280 0.950 . S
C1290 C1291 1.386 . S
C1290 C1292 1.391 . S
C1291 C1290 1.386 . S
C1291 C1295 1.393 . S
C1292 H1281 0.950 . S
C1292 C1290 1.391 . S
C1292 C1293 1.400 . S
C1293 C1287 1.491 . S
C1293 C1292 1.400 . S
C1293 C1294 1.398 . S
C1294 H1282 0.950 . S
C1294 C1293 1.398 . S
C1294 C1295 1.391 . S
C1295 H1283 0.950 . S
C1295 C1291 1.393 . S
C1295 C1294 1.391 . S
H1296 C1304 0.950 . S
H1297 C1309 0.950 . S
H1298 C1306 0.950 . S
H1299 C1308 0.950 . S
H1300 C1310 0.950 . S
H1301 C1312 0.950 . S
H1302 C1314 0.950 . S
H1303 C1315 0.950 . S
C1304 H1296 0.950 . S
C1304 C1305 1.386 1_655 S
C1304 C1306 1.391 . S
C1305 C1304 1.386 1_455 S
C1305 C1309 1.393 1_565 S
C1306 H1298 0.950 . S
C1306 C1304 1.391 . S
C1306 C1307 1.396 1_655 S
C1307 C1306 1.396 1_455 S
C1307 C1308 1.404 1_565 S
C1307 C1313 1.489 1_465 S
C1308 H1299 0.950 . S
C1308 C1307 1.404 1_545 S
C1308 C1309 1.391 . S
C1309 H1297 0.950 . S
C1309 C1305 1.393 1_545 S
C1309 C1308 1.391 . S
C1310 H1300 0.950 . S
C1310 C1311 1.386 1_455 S
C1310 C1312 1.391 . S
C1311 C1310 1.386 1_655 S
C1311 C1315 1.393 1_545 S
C1312 H1301 0.950 . S
C1312 C1310 1.391 . S
C1312 C1313 1.396 1_455 S
C1313 C1307 1.489 1_645 S
C1313 C1312 1.396 1_655 S
C1313 C1314 1.404 1_545 S
C1314 H1302 0.950 . S
C1314 C1313 1.404 1_565 S
C1314 C1315 1.391 . S
C1315 H1303 0.950 . S
C1315 C1311 1.393 1_565 S
C1315 C1314 1.391 . S
H1316 C1324 0.950 . S
H1317 C1329 0.950 . S
H1318 C1326 0.950 . S
H1319 C1328 0.950 . S
H1320 C1330 0.950 . S
H1321 C1332 0.950 . S
H1322 C1334 0.950 . S
H1323 C1335 0.950 . S
C1324 H1316 0.950 . S
C1324 C1325 1.382 . S
C1324 C1326 1.391 . S
C1325 C1324 1.382 . S
C1325 C1329 1.396 1_455 S
C1326 H1318 0.950 . S
C1326 C1324 1.391 . S
C1326 C1327 1.401 . S
C1327 C1326 1.401 . S
C1327 C1328 1.398 1_455 S
C1327 C1333 1.490 1_455 S
C1328 H1319 0.950 . S
C1328 C1327 1.398 1_655 S
C1328 C1329 1.391 . S
C1329 H1317 0.950 . S
C1329 C1325 1.396 1_655 S
C1329 C1328 1.391 . S
C1330 H1320 0.950 . S
C1330 C1331 1.387 . S
C1330 C1332 1.391 . S
C1331 C1330 1.387 . S
C1331 C1335 1.391 1_655 S
C1332 H1321 0.950 . S
C1332 C1330 1.391 . S
C1332 C1333 1.406 . S
C1333 C1327 1.490 1_655 S
C1333 C1332 1.406 . S
C1333 C1334 1.393 1_655 S
C1334 H1322 0.950 . S
C1334 C1333 1.393 1_455 S
C1334 C1335 1.391 . S
C1335 H1323 0.950 . S
C1335 C1331 1.391 1_455 S
C1335 C1334 1.391 . S
H1336 C1344 0.950 . S
H1337 C1349 0.950 . S
H1338 C1346 0.950 . S
H1339 C1348 0.950 . S
H1340 C1350 0.950 . S
H1341 C1352 0.950 . S
H1342 C1354 0.950 . S
H1343 C1355 0.950 . S
C1344 H1336 0.950 . S
C1344 C1345 1.386 1_455 S
C1344 C1346 1.391 . S
C1345 C1344 1.386 1_655 S
C1345 C1349 1.393 . S
C1346 H1338 0.950 . S
C1346 C1344 1.391 . S
C1346 C1347 1.392 1_455 S
C1347 C1346 1.392 1_655 S
C1347 C1348 1.408 . S
C1347 C1353 1.490 1_655 S
C1348 H1339 0.950 . S
C1348 C1347 1.408 . S
C1348 C1349 1.391 . S
C1349 H1337 0.950 . S
C1349 C1345 1.393 . S
C1349 C1348 1.391 . S
C1350 H1340 0.950 . S
C1350 C1351 1.386 1_655 S
C1350 C1352 1.391 . S
C1351 C1350 1.386 1_455 S
C1351 C1355 1.393 . S
C1352 H1341 0.950 . S
C1352 C1350 1.391 . S
C1352 C1353 1.388 1_655 S
C1353 C1347 1.490 1_455 S
C1353 C1352 1.388 1_455 S
C1353 C1354 1.412 . S
C1354 H1342 0.950 . S
C1354 C1353 1.412 . S
C1354 C1355 1.391 . S
C1355 H1343 0.950 . S
C1355 C1351 1.393 . S
C1355 C1354 1.391 . S
H1356 C1364 0.950 . S
H1357 C1369 0.950 . S
H1358 C1366 0.950 . S
H1359 C1368 0.950 . S
H1360 C1370 0.950 . S
H1361 C1372 0.950 . S
H1362 C1374 0.950 . S
H1363 C1375 0.950 . S
C1364 H1356 0.950 . S
C1364 C1365 1.411 . S
C1364 C1366 1.391 . S
C1365 C1364 1.411 . S
C1365 C1369 1.368 1_455 S
C1366 H1358 0.950 . S
C1366 C1364 1.391 . S
C1366 C1367 1.405 . S
C1367 C1366 1.405 . S
C1367 C1368 1.394 1_455 S
C1367 C1373 1.490 1_456 S
C1368 H1359 0.950 . S
C1368 C1367 1.394 1_655 S
C1368 C1369 1.391 . S
C1369 H1357 0.950 . S
C1369 C1365 1.368 1_655 S
C1369 C1368 1.391 . S
C1370 H1360 0.950 . S
C1370 C1371 1.411 . S
C1370 C1372 1.391 . S
C1371 C1370 1.411 . S
C1371 C1375 1.368 1_655 S
C1372 H1361 0.950 . S
C1372 C1370 1.391 . S
C1372 C1373 1.405 . S
C1373 C1367 1.490 1_654 S
C1373 C1372 1.405 . S
C1373 C1374 1.394 1_655 S
C1374 H1362 0.950 . S
C1374 C1373 1.394 1_455 S
C1374 C1375 1.391 . S
C1375 H1363 0.950 . S
C1375 C1371 1.368 1_455 S
C1375 C1374 1.391 . S
H1376 C1384 0.950 . S
H1377 C1389 0.950 . S
H1378 C1386 0.950 . S
H1379 C1388 0.950 . S
H1380 C1390 0.950 . S
H1381 C1392 0.950 . S
H1382 C1394 0.950 . S
H1383 C1395 0.950 . S
C1384 H1376 0.950 . S
C1384 C1385 1.386 . S
C1384 C1386 1.391 . S
C1385 C1384 1.386 . S
C1385 C1389 1.393 . S
C1386 H1378 0.950 . S
C1386 C1384 1.391 . S
C1386 C1387 1.400 . S
C1387 C1386 1.400 . S
C1387 C1388 1.398 . S
C1387 C1393 1.491 . S
C1388 H1379 0.950 . S
C1388 C1387 1.398 . S
C1388 C1389 1.391 . S
C1389 H1377 0.950 . S
C1389 C1385 1.393 . S
C1389 C1388 1.391 . S
C1390 H1380 0.950 . S
C1390 C1391 1.386 . S
C1390 C1392 1.391 . S
C1391 C1390 1.386 . S
C1391 C1395 1.393 . S
C1392 H1381 0.950 . S
C1392 C1390 1.391 . S
C1392 C1393 1.400 . S
C1393 C1387 1.491 . S
C1393 C1392 1.400 . S
C1393 C1394 1.398 . S
C1394 H1382 0.950 . S
C1394 C1393 1.398 . S
C1394 C1395 1.391 . S
C1395 H1383 0.950 . S
C1395 C1391 1.393 . S
C1395 C1394 1.391 . S
H1396 C1404 0.950 . S
H1397 C1409 0.950 . S
H1398 C1406 0.950 . S
H1399 C1408 0.950 . S
H1400 C1410 0.950 . S
H1401 C1412 0.950 . S
H1402 C1414 0.950 . S
H1403 C1415 0.951 . S
C1404 H1396 0.950 . S
C1404 C1405 1.386 . S
C1404 C1406 1.391 . S
C1405 C1404 1.386 . S
C1405 C1409 1.393 . S
C1406 H1398 0.950 . S
C1406 C1404 1.391 . S
C1406 C1407 1.400 . S
C1407 C1406 1.400 . S
C1407 C1408 1.398 . S
C1407 C1413 1.491 . S
C1408 H1399 0.950 . S
C1408 C1407 1.398 . S
C1408 C1409 1.391 . S
C1409 H1397 0.950 . S
C1409 C1405 1.393 . S
C1409 C1408 1.391 . S
C1410 H1400 0.950 . S
C1410 C1411 1.386 . S
C1410 C1412 1.391 . S
C1411 C1410 1.386 . S
C1411 C1415 1.393 . S
C1412 H1401 0.950 . S
C1412 C1410 1.391 . S
C1412 C1413 1.400 . S
C1413 C1407 1.491 . S
C1413 C1412 1.400 . S
C1413 C1414 1.398 . S
C1414 H1402 0.950 . S
C1414 C1413 1.398 . S
C1414 C1415 1.391 . S
C1415 H1403 0.951 . S
C1415 C1411 1.393 . S
C1415 C1414 1.391 . S
H1416 C1424 0.950 1_545 S
H1417 C1429 0.950 . S
H1418 C1426 0.950 1_545 S
H1419 C1428 0.950 . S
H1420 C1430 0.950 . S
H1421 C1432 0.950 . S
H1422 C1434 0.950 . S
H1423 C1435 0.950 . S
C1424 H1416 0.950 1_565 S
C1424 C1425 1.386 . S
C1424 C1426 1.391 . S
C1425 C1424 1.386 . S
C1425 C1429 1.393 . S
C1426 H1418 0.950 1_565 S
C1426 C1424 1.391 . S
C1426 C1427 1.400 . S
C1427 C1426 1.400 . S
C1427 C1428 1.398 . S
C1427 C1433 1.491 . S
C1428 H1419 0.950 . S
C1428 C1427 1.398 . S
C1428 C1429 1.391 . S
C1429 H1417 0.950 . S
C1429 C1425 1.393 . S
C1429 C1428 1.391 . S
C1430 H1420 0.950 . S
C1430 C1431 1.386 . S
C1430 C1432 1.391 . S
C1431 C1430 1.386 . S
C1431 C1435 1.393 . S
C1432 H1421 0.950 . S
C1432 C1430 1.391 . S
C1432 C1433 1.400 . S
C1433 C1427 1.491 . S
C1433 C1432 1.400 . S
C1433 C1434 1.398 . S
C1434 H1422 0.950 . S
C1434 C1433 1.398 . S
C1434 C1435 1.391 . S
C1435 H1423 0.950 . S
C1435 C1431 1.393 . S
C1435 C1434 1.391 . S
H1436 C1444 0.950 . S
H1437 C1449 0.950 . S
H1438 C1446 0.950 . S
H1439 C1448 0.950 . S
H1440 C1450 0.950 . S
H1441 C1452 0.950 . S
H1442 C1454 0.950 . S
H1443 C1455 0.950 . S
C1444 H1436 0.950 . S
C1444 C1445 1.386 . S
C1444 C1446 1.391 . S
C1445 C1444 1.386 . S
C1445 C1449 1.393 . S
C1446 H1438 0.950 . S
C1446 C1444 1.391 . S
C1446 C1447 1.400 . S
C1447 C1446 1.400 . S
C1447 C1448 1.398 . S
C1447 C1453 1.491 . S
C1448 H1439 0.950 . S
C1448 C1447 1.398 . S
C1448 C1449 1.391 . S
C1449 H1437 0.950 . S
C1449 C1445 1.393 . S
C1449 C1448 1.391 . S
C1450 H1440 0.950 . S
C1450 C1451 1.386 . S
C1450 C1452 1.391 . S
C1451 C1450 1.386 . S
C1451 C1455 1.393 . S
C1452 H1441 0.950 . S
C1452 C1450 1.391 . S
C1452 C1453 1.400 . S
C1453 C1447 1.491 . S
C1453 C1452 1.400 . S
C1453 C1454 1.398 . S
C1454 H1442 0.950 . S
C1454 C1453 1.398 . S
C1454 C1455 1.391 . S
C1455 H1443 0.950 . S
C1455 C1451 1.393 . S
C1455 C1454 1.391 . S
H1456 C1464 0.950 . S
H1457 C1469 0.950 . S
H1458 C1466 0.950 . S
H1459 C1468 0.950 . S
H1460 C1470 0.950 . S
H1461 C1472 0.950 . S
H1462 C1474 0.950 . S
H1463 C1475 0.950 . S
C1464 H1456 0.950 . S
C1464 C1465 1.386 . S
C1464 C1466 1.391 . S
C1465 C1464 1.386 . S
C1465 C1469 1.393 . S
C1466 H1458 0.950 . S
C1466 C1464 1.391 . S
C1466 C1467 1.400 . S
C1467 C1466 1.400 . S
C1467 C1468 1.398 . S
C1467 C1473 1.491 . S
C1468 H1459 0.950 . S
C1468 C1467 1.398 . S
C1468 C1469 1.391 . S
C1469 H1457 0.950 . S
C1469 C1465 1.393 . S
C1469 C1468 1.391 . S
C1470 H1460 0.950 . S
C1470 C1471 1.386 . S
C1470 C1472 1.391 . S
C1471 C1470 1.386 . S
C1471 C1475 1.393 . S
C1472 H1461 0.950 . S
C1472 C1470 1.391 . S
C1472 C1473 1.400 . S
C1473 C1467 1.491 . S
C1473 C1472 1.400 . S
C1473 C1474 1.398 . S
C1474 H1462 0.950 . S
C1474 C1473 1.398 . S
C1474 C1475 1.391 . S
C1475 H1463 0.950 . S
C1475 C1471 1.393 . S
C1475 C1474 1.391 . S
H1476 C1484 0.950 . S
H1477 C1489 0.950 . S
H1478 C1486 0.950 . S
H1479 C1488 0.950 . S
H1480 C1490 0.950 . S
H1481 C1492 0.950 . S
H1482 C1494 0.950 . S
H1483 C1495 0.950 . S
C1484 H1476 0.950 . S
C1484 C1485 1.386 . S
C1484 C1486 1.391 . S
C1485 C1484 1.386 . S
C1485 C1489 1.393 . S
C1486 H1478 0.950 . S
C1486 C1484 1.391 . S
C1486 C1487 1.400 . S
C1487 C1486 1.400 . S
C1487 C1488 1.398 . S
C1487 C1493 1.491 . S
C1488 H1479 0.950 . S
C1488 C1487 1.398 . S
C1488 C1489 1.391 . S
C1489 H1477 0.950 . S
C1489 C1485 1.393 . S
C1489 C1488 1.391 . S
C1490 H1480 0.950 . S
C1490 C1491 1.386 . S
C1490 C1492 1.391 . S
C1491 C1490 1.386 . S
C1491 C1495 1.393 . S
C1492 H1481 0.950 . S
C1492 C1490 1.391 . S
C1492 C1493 1.400 . S
C1493 C1487 1.491 . S
C1493 C1492 1.400 . S
C1493 C1494 1.398 . S
C1494 H1482 0.950 . S
C1494 C1493 1.398 . S
C1494 C1495 1.391 . S
C1495 H1483 0.950 . S
C1495 C1491 1.393 . S
C1495 C1494 1.391 . S
H1496 C1504 0.950 . S
H1497 C1509 0.950 . S
H1498 C1506 0.950 . S
H1499 C1508 0.950 . S
H1500 C1510 0.950 . S
H1501 C1512 0.950 . S
H1502 C1514 0.950 . S
H1503 C1515 0.950 . S
C1504 H1496 0.950 . S
C1504 C1505 1.386 . S
C1504 C1506 1.391 . S
C1505 C1504 1.386 . S
C1505 C1509 1.393 . S
C1506 H1498 0.950 . S
C1506 C1504 1.391 . S
C1506 C1507 1.400 . S
C1507 C1506 1.400 . S
C1507 C1508 1.398 . S
C1507 C1513 1.491 . S
C1508 H1499 0.950 . S
C1508 C1507 1.398 . S
C1508 C1509 1.391 . S
C1509 H1497 0.950 . S
C1509 C1505 1.393 . S
C1509 C1508 1.391 . S
C1510 H1500 0.950 . S
C1510 C1511 1.386 . S
C1510 C1512 1.391 . S
C1511 C1510 1.386 . S
C1511 C1515 1.393 . S
C1512 H1501 0.950 . S
C1512 C1510 1.391 . S
C1512 C1513 1.400 . S
C1513 C1507 1.491 . S
C1513 C1512 1.400 . S
C1513 C1514 1.398 . S
C1514 H1502 0.950 . S
C1514 C1513 1.398 . S
C1514 C1515 1.391 . S
C1515 H1503 0.950 . S
C1515 C1511 1.393 . S
C1515 C1514 1.391 . S
H1516 C1524 0.950 . S
H1517 C1529 0.950 . S
H1518 C1526 0.950 . S
H1519 C1528 0.950 . S
H1520 C1530 0.950 . S
H1521 C1532 0.950 . S
H1522 C1534 0.950 . S
H1523 C1535 0.950 . S
C1524 H1516 0.950 . S
C1524 C1525 1.386 . S
C1524 C1526 1.391 . S
C1525 C1524 1.386 . S
C1525 C1529 1.393 . S
C1526 H1518 0.950 . S
C1526 C1524 1.391 . S
C1526 C1527 1.400 . S
C1527 C1526 1.400 . S
C1527 C1528 1.398 . S
C1527 C1533 1.491 . S
C1528 H1519 0.950 . S
C1528 C1527 1.398 . S
C1528 C1529 1.391 . S
C1529 H1517 0.950 . S
C1529 C1525 1.393 . S
C1529 C1528 1.391 . S
C1530 H1520 0.950 . S
C1530 C1531 1.386 . S
C1530 C1532 1.391 . S
C1531 C1530 1.386 . S
C1531 C1535 1.393 . S
C1532 H1521 0.950 . S
C1532 C1530 1.391 . S
C1532 C1533 1.400 . S
C1533 C1527 1.491 . S
C1533 C1532 1.400 . S
C1533 C1534 1.398 . S
C1534 H1522 0.950 . S
C1534 C1533 1.398 . S
C1534 C1535 1.391 . S
C1535 H1523 0.950 . S
C1535 C1531 1.393 . S
C1535 C1534 1.391 . S
H1536 C1544 0.950 . S
H1537 C1549 0.950 . S
H1538 C1546 0.950 . S
H1539 C1548 0.950 . S
H1540 C1550 0.950 . S
H1541 C1552 0.950 . S
H1542 C1554 0.950 . S
H1543 C1555 0.950 . S
C1544 H1536 0.950 . S
C1544 C1545 1.386 . S
C1544 C1546 1.391 . S
C1545 C1544 1.386 . S
C1545 C1549 1.393 . S
C1546 H1538 0.950 . S
C1546 C1544 1.391 . S
C1546 C1547 1.400 . S
C1547 C1546 1.400 . S
C1547 C1548 1.398 . S
C1547 C1553 1.491 . S
C1548 H1539 0.950 . S
C1548 C1547 1.398 . S
C1548 C1549 1.391 . S
C1549 H1537 0.950 . S
C1549 C1545 1.393 . S
C1549 C1548 1.391 . S
C1550 H1540 0.950 . S
C1550 C1551 1.386 . S
C1550 C1552 1.391 . S
C1551 C1550 1.386 . S
C1551 C1555 1.393 . S
C1552 H1541 0.950 . S
C1552 C1550 1.391 . S
C1552 C1553 1.400 . S
C1553 C1547 1.491 . S
C1553 C1552 1.400 . S
C1553 C1554 1.398 . S
C1554 H1542 0.950 . S
C1554 C1553 1.398 . S
C1554 C1555 1.391 . S
C1555 H1543 0.950 . S
C1555 C1551 1.393 . S
C1555 C1554 1.391 . S
H1556 C1564 0.950 . S
H1557 C1569 0.950 . S
H1558 C1566 0.950 . S
H1559 C1568 0.950 . S
H1560 C1570 0.950 . S
H1561 C1572 0.950 . S
H1562 C1574 0.950 . S
H1563 C1575 0.950 . S
C1564 H1556 0.950 . S
C1564 C1565 1.386 . S
C1564 C1566 1.391 . S
C1565 C1564 1.386 . S
C1565 C1569 1.393 . S
C1566 H1558 0.950 . S
C1566 C1564 1.391 . S
C1566 C1567 1.400 . S
C1567 C1566 1.400 . S
C1567 C1568 1.398 . S
C1567 C1573 1.491 . S
C1568 H1559 0.950 . S
C1568 C1567 1.398 . S
C1568 C1569 1.391 . S
C1569 H1557 0.950 . S
C1569 C1565 1.393 . S
C1569 C1568 1.391 . S
C1570 H1560 0.950 . S
C1570 C1571 1.386 . S
C1570 C1572 1.391 . S
C1571 C1570 1.386 . S
C1571 C1575 1.393 . S
C1572 H1561 0.950 . S
C1572 C1570 1.391 . S
C1572 C1573 1.400 . S
C1573 C1567 1.491 . S
C1573 C1572 1.400 . S
C1573 C1574 1.398 . S
C1574 H1562 0.950 . S
C1574 C1573 1.398 . S
C1574 C1575 1.391 . S
C1575 H1563 0.950 . S
C1575 C1571 1.393 . S
C1575 C1574 1.391 . S
H1576 C1584 0.950 . S
H1577 C1589 0.950 . S
H1578 C1586 0.950 . S
H1579 C1588 0.950 . S
H1580 C1590 0.950 . S
H1581 C1592 0.950 . S
H1582 C1594 0.950 . S
H1583 C1595 0.950 . S
C1584 H1576 0.950 . S
C1584 C1585 1.386 . S
C1584 C1586 1.391 . S
C1585 C1584 1.386 . S
C1585 C1589 1.393 . S
C1586 H1578 0.950 . S
C1586 C1584 1.391 . S
C1586 C1587 1.400 . S
C1587 C1586 1.400 . S
C1587 C1588 1.398 . S
C1587 C1593 1.491 . S
C1588 H1579 0.950 . S
C1588 C1587 1.398 . S
C1588 C1589 1.391 . S
C1589 H1577 0.950 . S
C1589 C1585 1.393 . S
C1589 C1588 1.391 . S
C1590 H1580 0.950 . S
C1590 C1591 1.386 . S
C1590 C1592 1.391 . S
C1591 C1590 1.386 . S
C1591 C1595 1.393 . S
C1592 H1581 0.950 . S
C1592 C1590 1.391 . S
C1592 C1593 1.400 . S
C1593 C1587 1.491 . S
C1593 C1592 1.400 . S
C1593 C1594 1.398 . S
C1594 H1582 0.950 . S
C1594 C1593 1.398 . S
C1594 C1595 1.391 . S
C1595 H1583 0.950 . S
C1595 C1591 1.393 . S
C1595 C1594 1.391 . S
H1596 C1604 0.950 . S
H1597 C1609 0.950 . S
H1598 C1606 0.950 . S
H1599 C1608 0.950 . S
H1600 C1610 0.950 . S
H1601 C1612 0.950 . S
H1602 C1614 0.950 . S
H1603 C1615 0.950 . S
C1604 H1596 0.950 . S
C1604 C1605 1.386 . S
C1604 C1606 1.391 . S
C1605 C1604 1.386 . S
C1605 C1609 1.393 . S
C1606 H1598 0.950 . S
C1606 C1604 1.391 . S
C1606 C1607 1.400 . S
C1607 C1606 1.400 . S
C1607 C1608 1.398 . S
C1607 C1613 1.491 . S
C1608 H1599 0.950 . S
C1608 C1607 1.398 . S
C1608 C1609 1.391 . S
C1609 H1597 0.950 . S
C1609 C1605 1.393 . S
C1609 C1608 1.391 . S
C1610 H1600 0.950 . S
C1610 C1611 1.386 . S
C1610 C1612 1.391 . S
C1611 C1610 1.386 . S
C1611 C1615 1.393 . S
C1612 H1601 0.950 . S
C1612 C1610 1.391 . S
C1612 C1613 1.400 . S
C1613 C1607 1.491 . S
C1613 C1612 1.400 . S
C1613 C1614 1.398 . S
C1614 H1602 0.950 . S
C1614 C1613 1.398 . S
C1614 C1615 1.391 . S
C1615 H1603 0.950 . S
C1615 C1611 1.393 . S
C1615 C1614 1.391 . S
H1616 C1624 0.950 . S
H1617 C1629 0.950 . S
H1618 C1626 0.950 . S
H1619 C1628 0.950 . S
H1620 C1630 0.950 . S
H1621 C1632 0.950 . S
H1622 C1634 0.950 . S
H1623 C1635 0.950 . S
C1624 H1616 0.950 . S
C1624 C1625 1.386 . S
C1624 C1626 1.391 . S
C1625 C1624 1.386 . S
C1625 C1629 1.393 . S
C1626 H1618 0.950 . S
C1626 C1624 1.391 . S
C1626 C1627 1.400 . S
C1627 C1626 1.400 . S
C1627 C1628 1.398 . S
C1627 C1633 1.491 . S
C1628 H1619 0.950 . S
C1628 C1627 1.398 . S
C1628 C1629 1.391 . S
C1629 H1617 0.950 . S
C1629 C1625 1.393 . S
C1629 C1628 1.391 . S
C1630 H1620 0.950 . S
C1630 C1631 1.386 . S
C1630 C1632 1.391 . S
C1631 C1630 1.386 . S
C1631 C1635 1.393 . S
C1632 H1621 0.950 . S
C1632 C1630 1.391 . S
C1632 C1633 1.400 . S
C1633 C1627 1.491 . S
C1633 C1632 1.400 . S
C1633 C1634 1.398 . S
C1634 H1622 0.950 . S
C1634 C1633 1.398 . S
C1634 C1635 1.391 . S
C1635 H1623 0.950 . S
C1635 C1631 1.393 . S
C1635 C1634 1.391 . S
H1636 C1644 0.950 . S
H1637 C1649 0.950 . S
H1638 C1646 0.950 . S
H1639 C1648 0.950 . S
H1640 C1650 0.950 . S
H1641 C1652 0.950 . S
H1642 C1654 0.950 . S
H1643 C1655 0.950 . S
C1644 H1636 0.950 . S
C1644 C1645 1.386 . S
C1644 C1646 1.391 . S
C1645 C1644 1.386 . S
C1645 C1649 1.393 . S
C1646 H1638 0.950 . S
C1646 C1644 1.391 . S
C1646 C1647 1.400 . S
C1647 C1646 1.400 . S
C1647 C1648 1.398 . S
C1647 C1653 1.491 . S
C1648 H1639 0.950 . S
C1648 C1647 1.398 . S
C1648 C1649 1.391 . S
C1649 H1637 0.950 . S
C1649 C1645 1.393 . S
C1649 C1648 1.391 . S
C1650 H1640 0.950 . S
C1650 C1651 1.386 . S
C1650 C1652 1.391 . S
C1651 C1650 1.386 . S
C1651 C1655 1.393 . S
C1652 H1641 0.950 . S
C1652 C1650 1.391 . S
C1652 C1653 1.400 . S
C1653 C1647 1.491 . S
C1653 C1652 1.400 . S
C1653 C1654 1.398 . S
C1654 H1642 0.950 . S
C1654 C1653 1.398 . S
C1654 C1655 1.391 . S
C1655 H1643 0.950 . S
C1655 C1651 1.393 . S
C1655 C1654 1.391 . S
H1656 C1664 0.950 . S
H1657 C1669 0.950 . S
H1658 C1666 0.950 . S
H1659 C1668 0.950 . S
H1660 C1670 0.950 . S
H1661 C1672 0.950 . S
H1662 C1674 0.950 . S
H1663 C1675 0.950 . S
C1664 H1656 0.950 . S
C1664 C1665 1.386 . S
C1664 C1666 1.391 . S
C1665 C1664 1.386 . S
C1665 C1669 1.393 . S
C1666 H1658 0.950 . S
C1666 C1664 1.391 . S
C1666 C1667 1.400 . S
C1667 C1666 1.400 . S
C1667 C1668 1.398 . S
C1667 C1673 1.491 . S
C1668 H1659 0.950 . S
C1668 C1667 1.398 . S
C1668 C1669 1.391 . S
C1669 H1657 0.950 . S
C1669 C1665 1.393 . S
C1669 C1668 1.391 . S
C1670 H1660 0.950 . S
C1670 C1671 1.386 . S
C1670 C1672 1.391 . S
C1671 C1670 1.386 . S
C1671 C1675 1.393 . S
C1672 H1661 0.950 . S
C1672 C1670 1.391 . S
C1672 C1673 1.400 . S
C1673 C1667 1.491 . S
C1673 C1672 1.400 . S
C1673 C1674 1.398 . S
C1674 H1662 0.950 . S
C1674 C1673 1.398 . S
C1674 C1675 1.391 . S
C1675 H1663 0.950 . S
C1675 C1671 1.393 . S
C1675 C1674 1.391 . S
H1676 C1684 0.950 . S
H1677 C1689 0.950 . S
H1678 C1686 0.950 . S
H1679 C1688 0.950 . S
H1680 C1690 0.950 . S
H1681 C1692 0.950 . S
H1682 C1694 0.950 . S
H1683 C1695 0.950 . S
C1684 H1676 0.950 . S
C1684 C1685 1.386 . S
C1684 C1686 1.391 . S
C1685 C1684 1.386 . S
C1685 C1689 1.393 . S
C1686 H1678 0.950 . S
C1686 C1684 1.391 . S
C1686 C1687 1.400 . S
C1687 C1686 1.400 . S
C1687 C1688 1.398 . S
C1687 C1693 1.491 . S
C1688 H1679 0.950 . S
C1688 C1687 1.398 . S
C1688 C1689 1.391 . S
C1689 H1677 0.950 . S
C1689 C1685 1.393 . S
C1689 C1688 1.391 . S
C1690 H1680 0.950 . S
C1690 C1691 1.386 . S
C1690 C1692 1.391 . S
C1691 C1690 1.386 . S
C1691 C1695 1.393 . S
C1692 H1681 0.950 . S
C1692 C1690 1.391 . S
C1692 C1693 1.400 . S
C1693 C1687 1.491 . S
C1693 C1692 1.400 . S
C1693 C1694 1.398 . S
C1694 H1682 0.950 . S
C1694 C1693 1.398 . S
C1694 C1695 1.391 . S
C1695 H1683 0.950 . S
C1695 C1691 1.393 . S
C1695 C1694 1.391 . S
C425 C3 1.496 . S
C431 C29 1.495 . S
C445 C42 1.500 . S
C451 C16 1.498 . S
C465 C83 1.497 . S
C471 C57 1.496 . S
C485 C96 1.494 . S
C491 C70 1.493 . S
C505 C107 1.502 . S
C511 C133 1.503 . S
C525 C146 1.501 . S
C531 C120 1.502 . S
C545 C161 1.496 . S
C551 C187 1.497 . S
C565 C200 1.493 . S
C571 C174 1.494 . S
C585 C211 1.501 . S
C591 C237 1.502 . S
C605 C224 1.502 . S
C611 C250 1.502 . S
C625 C291 1.495 . S
C631 C265 1.494 . S
C645 C278 1.502 . S
C651 C304 1.502 . S
C665 C341 1.494 . S
C671 C315 1.493 . S
C685 C354 1.502 . S
C691 C328 1.502 . S
C705 C395 1.497 . S
C711 C369 1.497 . S
C725 C382 1.494 . S
C731 C408 1.494 . S
C745 C330 1.505 . S
C751 C5 1.502 . S
C765 C18 1.512 . S
C771 C317 1.508 . S
C785 C31 1.500 . S
C791 C356 1.501 . S
C805 C44 1.518 . S
C811 C343 1.516 . S
C825 C380 1.502 . S
C831 C55 1.504 . S
C845 C68 1.520 . S
C851 C367 1.520 . S
C865 C81 1.500 . S
C871 C406 1.502 . S
C885 C393 1.519 . S
C891 C94 1.517 . S
C905 C109 1.504 . S
C911 C226 1.501 . S
C925 C122 1.501 . S
C931 C213 1.503 . S
C945 C135 1.508 . S
C951 C252 1.505 . S
C965 C148 1.520 . S
C971 C239 1.521 . S
C985 C159 1.500 . S
C991 C276 1.502 . S
C1005 C263 1.499 . S
C1011 C172 1.501 . S
C1025 C302 1.520 . S
C1031 C185 1.520 . S
C1045 C198 1.520 . S
C1051 C289 1.521 . S
C1065 C1 1.498 . S
C1071 C62 1.498 . S
C1085 C14 1.499 . S
C1091 C387 1.499 . S
C1105 C27 1.498 . S
C1111 C192 1.498 . S
C1125 C40 1.500 . S
C1131 C309 1.500 . S
C1145 C75 1.503 . S
C1151 C326 1.503 . S
C1165 C131 1.499 . S
C1171 C88 1.499 . S
C1185 C248 1.499 . S
C1191 C101 1.499 . S
C1205 C166 1.499 . S
C1211 C105 1.499 . S
C1225 C118 1.504 . S
C1231 C283 1.504 . S
C1245 C413 1.501 . S
C1251 C144 1.501 . S
C1265 C179 1.498 . S
C1271 C222 1.498 . S
C1285 C205 1.497 . S
C1291 C352 1.497 . S
C1305 C270 1.502 1_455 S
C1311 C209 1.502 1_655 S
C1325 C235 1.497 . S
C1331 C400 1.497 . S
C1345 C339 1.500 1_655 S
C1351 C296 1.500 1_455 S
C1365 C374 1.497 1_455 S
C1371 C313 1.497 1_655 S
C1385 C10 1.539 . S
C1391 C23 1.540 . S
C1405 C36 1.536 . S
C1411 C49 1.534 . S
C1425 C53 1.532 . S
C1431 C66 1.531 . S
C1445 C79 1.525 . S
C1451 C92 1.526 . S
C1465 C127 1.539 . S
C1471 C114 1.539 . S
C1485 C140 1.525 . S
C1491 C153 1.524 . S
C1505 C157 1.524 . S
C1511 C170 1.525 . S
C1525 C183 1.532 . S
C1531 C196 1.534 . S
C1545 C218 1.537 . S
C1551 C231 1.538 . S
C1565 C257 1.526 . S
C1571 C244 1.525 . S
C1585 C261 1.523 . S
C1591 C274 1.524 . S
C1605 C287 1.525 . S
C1611 C300 1.526 . S
C1625 C335 1.540 . S
C1631 C322 1.540 . S
C1645 C348 1.524 . S
C1651 C361 1.524 . S
C1665 C378 1.529 . S
C1671 C365 1.530 . S
C1685 C391 1.523 . S
C1691 C404 1.524 . S
