# Generated by pormake.
# Topology uoe, (4)-cn, num edge types: 1
# Building blocks:
#     Node 0, Type 0, BuildingBlock: GALJAG_clean_sbu_0, # of connection points: 4
#     Node 1, Type 0, BuildingBlock: GALJAG_clean_sbu_0, # of connection points: 4
#     Node 2, Type 0, BuildingBlock: GALJAG_clean_sbu_0, # of connection points: 4
#     Node 3, Type 0, BuildingBlock: GALJAG_clean_sbu_0, # of connection points: 4
#     Node 4, Type 0, BuildingBlock: GALJAG_clean_sbu_0, # of connection points: 4
#     Node 5, Type 0, BuildingBlock: GALJAG_clean_sbu_0, # of connection points: 4
#     Node 6, Type 0, BuildingBlock: GALJAG_clean_sbu_0, # of connection points: 4
#     Node 7, Type 0, BuildingBlock: GALJAG_clean_sbu_0, # of connection points: 4
#     Node 8, Type 0, BuildingBlock: GALJAG_clean_sbu_0, # of connection points: 4
#     Node 9, Type 0, BuildingBlock: GALJAG_clean_sbu_0, # of connection points: 4
#     Node 10, Type 0, BuildingBlock: GALJAG_clean_sbu_0, # of connection points: 4
#     Node 11, Type 0, BuildingBlock: GALJAG_clean_sbu_0, # of connection points: 4
#     Node 12, Type 0, BuildingBlock: GALJAG_clean_sbu_0, # of connection points: 4
#     Node 13, Type 0, BuildingBlock: GALJAG_clean_sbu_0, # of connection points: 4
#     Node 14, Type 0, BuildingBlock: GALJAG_clean_sbu_0, # of connection points: 4
#     Node 15, Type 0, BuildingBlock: GALJAG_clean_sbu_0, # of connection points: 4
#     Node 16, Type 0, BuildingBlock: GALJAG_clean_sbu_0, # of connection points: 4
#     Node 17, Type 0, BuildingBlock: GALJAG_clean_sbu_0, # of connection points: 4
#     Node 18, Type 0, BuildingBlock: GALJAG_clean_sbu_0, # of connection points: 4
#     Node 19, Type 0, BuildingBlock: GALJAG_clean_sbu_0, # of connection points: 4
#     Node 20, Type 0, BuildingBlock: GALJAG_clean_sbu_0, # of connection points: 4
#     Node 21, Type 0, BuildingBlock: GALJAG_clean_sbu_0, # of connection points: 4
#     Node 22, Type 0, BuildingBlock: GALJAG_clean_sbu_0, # of connection points: 4
#     Node 23, Type 0, BuildingBlock: GALJAG_clean_sbu_0, # of connection points: 4
#     Node 24, Type 0, BuildingBlock: GALJAG_clean_sbu_0, # of connection points: 4
#     Node 25, Type 0, BuildingBlock: GALJAG_clean_sbu_0, # of connection points: 4
#     Node 26, Type 0, BuildingBlock: GALJAG_clean_sbu_0, # of connection points: 4
#     Node 27, Type 0, BuildingBlock: GALJAG_clean_sbu_0, # of connection points: 4
#     Node 28, Type 0, BuildingBlock: GALJAG_clean_sbu_0, # of connection points: 4
#     Node 29, Type 0, BuildingBlock: GALJAG_clean_sbu_0, # of connection points: 4
#     Node 30, Type 0, BuildingBlock: GALJAG_clean_sbu_0, # of connection points: 4
#     Node 31, Type 0, BuildingBlock: GALJAG_clean_sbu_0, # of connection points: 4
#     Edge 32, Type (0, 0), BuildingBlock: XIVTED_clean_linker_0, # of connection points: 2
#     Edge 33, Type (0, 0), BuildingBlock: XIVTED_clean_linker_0, # of connection points: 2
#     Edge 34, Type (0, 0), BuildingBlock: XIVTED_clean_linker_0, # of connection points: 2
#     Edge 35, Type (0, 0), BuildingBlock: XIVTED_clean_linker_0, # of connection points: 2
#     Edge 36, Type (0, 0), BuildingBlock: XIVTED_clean_linker_0, # of connection points: 2
#     Edge 37, Type (0, 0), BuildingBlock: XIVTED_clean_linker_0, # of connection points: 2
#     Edge 38, Type (0, 0), BuildingBlock: XIVTED_clean_linker_0, # of connection points: 2
#     Edge 39, Type (0, 0), BuildingBlock: XIVTED_clean_linker_0, # of connection points: 2
#     Edge 40, Type (0, 0), BuildingBlock: XIVTED_clean_linker_0, # of connection points: 2
#     Edge 41, Type (0, 0), BuildingBlock: XIVTED_clean_linker_0, # of connection points: 2
#     Edge 42, Type (0, 0), BuildingBlock: XIVTED_clean_linker_0, # of connection points: 2
#     Edge 43, Type (0, 0), BuildingBlock: XIVTED_clean_linker_0, # of connection points: 2
#     Edge 44, Type (0, 0), BuildingBlock: XIVTED_clean_linker_0, # of connection points: 2
#     Edge 45, Type (0, 0), BuildingBlock: XIVTED_clean_linker_0, # of connection points: 2
#     Edge 46, Type (0, 0), BuildingBlock: XIVTED_clean_linker_0, # of connection points: 2
#     Edge 47, Type (0, 0), BuildingBlock: XIVTED_clean_linker_0, # of connection points: 2
#     Edge 48, Type (0, 0), BuildingBlock: XIVTED_clean_linker_0, # of connection points: 2
#     Edge 49, Type (0, 0), BuildingBlock: XIVTED_clean_linker_0, # of connection points: 2
#     Edge 50, Type (0, 0), BuildingBlock: XIVTED_clean_linker_0, # of connection points: 2
#     Edge 51, Type (0, 0), BuildingBlock: XIVTED_clean_linker_0, # of connection points: 2
#     Edge 52, Type (0, 0), BuildingBlock: XIVTED_clean_linker_0, # of connection points: 2
#     Edge 53, Type (0, 0), BuildingBlock: XIVTED_clean_linker_0, # of connection points: 2
#     Edge 54, Type (0, 0), BuildingBlock: XIVTED_clean_linker_0, # of connection points: 2
#     Edge 55, Type (0, 0), BuildingBlock: XIVTED_clean_linker_0, # of connection points: 2
#     Edge 56, Type (0, 0), BuildingBlock: XIVTED_clean_linker_0, # of connection points: 2
#     Edge 57, Type (0, 0), BuildingBlock: XIVTED_clean_linker_0, # of connection points: 2
#     Edge 58, Type (0, 0), BuildingBlock: XIVTED_clean_linker_0, # of connection points: 2
#     Edge 59, Type (0, 0), BuildingBlock: XIVTED_clean_linker_0, # of connection points: 2
#     Edge 60, Type (0, 0), BuildingBlock: XIVTED_clean_linker_0, # of connection points: 2
#     Edge 61, Type (0, 0), BuildingBlock: XIVTED_clean_linker_0, # of connection points: 2
#     Edge 62, Type (0, 0), BuildingBlock: XIVTED_clean_linker_0, # of connection points: 2
#     Edge 63, Type (0, 0), BuildingBlock: XIVTED_clean_linker_0, # of connection points: 2
#     Edge 64, Type (0, 0), BuildingBlock: XIVTED_clean_linker_0, # of connection points: 2
#     Edge 65, Type (0, 0), BuildingBlock: XIVTED_clean_linker_0, # of connection points: 2
#     Edge 66, Type (0, 0), BuildingBlock: XIVTED_clean_linker_0, # of connection points: 2
#     Edge 67, Type (0, 0), BuildingBlock: XIVTED_clean_linker_0, # of connection points: 2
#     Edge 68, Type (0, 0), BuildingBlock: XIVTED_clean_linker_0, # of connection points: 2
#     Edge 69, Type (0, 0), BuildingBlock: XIVTED_clean_linker_0, # of connection points: 2
#     Edge 70, Type (0, 0), BuildingBlock: XIVTED_clean_linker_0, # of connection points: 2
#     Edge 71, Type (0, 0), BuildingBlock: XIVTED_clean_linker_0, # of connection points: 2
#     Edge 72, Type (0, 0), BuildingBlock: XIVTED_clean_linker_0, # of connection points: 2
#     Edge 73, Type (0, 0), BuildingBlock: XIVTED_clean_linker_0, # of connection points: 2
#     Edge 74, Type (0, 0), BuildingBlock: XIVTED_clean_linker_0, # of connection points: 2
#     Edge 75, Type (0, 0), BuildingBlock: XIVTED_clean_linker_0, # of connection points: 2
#     Edge 76, Type (0, 0), BuildingBlock: XIVTED_clean_linker_0, # of connection points: 2
#     Edge 77, Type (0, 0), BuildingBlock: XIVTED_clean_linker_0, # of connection points: 2
#     Edge 78, Type (0, 0), BuildingBlock: XIVTED_clean_linker_0, # of connection points: 2
#     Edge 79, Type (0, 0), BuildingBlock: XIVTED_clean_linker_0, # of connection points: 2
#     Edge 80, Type (0, 0), BuildingBlock: XIVTED_clean_linker_0, # of connection points: 2
#     Edge 81, Type (0, 0), BuildingBlock: XIVTED_clean_linker_0, # of connection points: 2
#     Edge 82, Type (0, 0), BuildingBlock: XIVTED_clean_linker_0, # of connection points: 2
#     Edge 83, Type (0, 0), BuildingBlock: XIVTED_clean_linker_0, # of connection points: 2
#     Edge 84, Type (0, 0), BuildingBlock: XIVTED_clean_linker_0, # of connection points: 2
#     Edge 85, Type (0, 0), BuildingBlock: XIVTED_clean_linker_0, # of connection points: 2
#     Edge 86, Type (0, 0), BuildingBlock: XIVTED_clean_linker_0, # of connection points: 2
#     Edge 87, Type (0, 0), BuildingBlock: XIVTED_clean_linker_0, # of connection points: 2
#     Edge 88, Type (0, 0), BuildingBlock: XIVTED_clean_linker_0, # of connection points: 2
#     Edge 89, Type (0, 0), BuildingBlock: XIVTED_clean_linker_0, # of connection points: 2
#     Edge 90, Type (0, 0), BuildingBlock: XIVTED_clean_linker_0, # of connection points: 2
#     Edge 91, Type (0, 0), BuildingBlock: XIVTED_clean_linker_0, # of connection points: 2
#     Edge 92, Type (0, 0), BuildingBlock: XIVTED_clean_linker_0, # of connection points: 2
#     Edge 93, Type (0, 0), BuildingBlock: XIVTED_clean_linker_0, # of connection points: 2
#     Edge 94, Type (0, 0), BuildingBlock: XIVTED_clean_linker_0, # of connection points: 2
#     Edge 95, Type (0, 0), BuildingBlock: XIVTED_clean_linker_0, # of connection points: 2
# Relax obj value: 0.106
# Max RMSD: 0.167
# Mean RMSD: 0.167
data_MOF--net-uoe--node1-GALJAG_clean_sbu_0--edge1-XIVTED_clean_linker_0
_symmetry_space_group_name_H-M    P1
_symmetry_Int_Tables_number       1
_symmetry_cell_setting            triclinic
loop_
_symmetry_equiv_pos_as_xyz
'x, y, z'
_cell_length_a     73.881006
_cell_length_b     73.886774
_cell_length_c     27.888303
_cell_angle_alpha  89.992474
_cell_angle_beta   90.003533
_cell_angle_gamma 90.02899
loop_
_atom_site_label
_atom_site_type_symbol
_atom_site_fract_x
_atom_site_fract_y
_atom_site_fract_z
_atom_type_partial_charge
In0 In 0.0943 0.46584 0.05074 0.0
O1 O 0.08959 0.44452 0.10816 0.0
O2 O 0.10795 0.43809 0.05197 0.0
C3 C 0.05868 0.47294 0.03913 0.0
C4 C 0.1077 0.48595 0.12339 0.0
C5 C 0.10861 0.47285 0.96321 0.0
O6 O 0.06458 0.45694 0.04226 0.0
O7 O 0.07068 0.48501 0.04122 0.0
O8 O 0.11248 0.48201 -3e-05 0.0
O9 O 0.09813 0.4597 0.97093 0.0
C10 C 0.10074 0.43332 0.09108 0.0
O11 O 0.11643 0.47292 0.10551 0.0
O12 O 0.09287 0.48931 0.10299 0.0
In13 In 0.78139 0.85166 0.31113 0.0
O14 O 0.76564 0.8698 0.36397 0.0
O15 O 0.78369 0.84989 0.39136 0.0
C16 C 0.76843 0.86416 0.22708 0.0
C17 C 0.81577 0.86297 0.3205 0.0
C18 C 0.77017 0.81694 0.30613 0.0
O19 O 0.7597 0.86562 0.26584 0.0
O20 O 0.78381 0.85689 0.23108 0.0
O21 O 0.78576 0.82176 0.29263 0.0
O22 O 0.76038 0.82958 0.32175 0.0
C23 C 0.77284 0.86257 0.4004 0.0
O24 O 0.81135 0.84651 0.32437 0.0
O25 O 0.80302 0.8735 0.30897 0.0
In26 In 0.39512 0.51849 0.5825 0.0
O27 O 0.37864 0.50107 0.63497 0.0
O28 O 0.39685 0.52087 0.66263 0.0
C29 C 0.38378 0.50492 0.49828 0.0
C30 C 0.37909 0.55079 0.59358 0.0
C31 C 0.43063 0.51041 0.57725 0.0
O32 O 0.38321 0.49587 0.53668 0.0
O33 O 0.38971 0.52086 0.50265 0.0
O34 O 0.42458 0.52577 0.56538 0.0
O35 O 0.41883 0.49938 0.59176 0.0
C36 C 0.38504 0.50902 0.67141 0.0
O37 O 0.39613 0.5491 0.59485 0.0
O38 O 0.37056 0.53652 0.58305 0.0
In39 In 0.73028 0.14538 0.82239 0.0
O40 O 0.7305 0.11772 0.85884 0.0
O41 O 0.75088 0.13655 0.87851 0.0
C42 C 0.73365 0.13549 0.72932 0.0
C43 C 0.6978 0.14482 0.86638 0.0
C44 C 0.74372 0.17943 0.82307 0.0
O45 O 0.74522 0.13135 0.76072 0.0
O46 O 0.72027 0.14423 0.74503 0.0
O47 O 0.727 0.1761 0.82014 0.0
O48 O 0.75367 0.1656 0.82534 0.0
C49 C 0.74354 0.12141 0.88631 0.0
O50 O 0.71155 0.15234 0.88439 0.0
O51 O 0.70011 0.13859 0.82461 0.0
In52 In 0.09675 0.53611 0.55096 0.0
O53 O 0.09268 0.56619 0.53612 0.0
O54 O 0.11942 0.55696 0.55091 0.0
C55 C 0.06194 0.52559 0.56054 0.0
C56 C 0.10524 0.52669 0.46038 0.0
C57 C 0.10973 0.52325 0.6347 0.0
O58 O 0.06708 0.54143 0.57101 0.0
O59 O 0.07432 0.51527 0.54581 0.0
O60 O 0.1111 0.51451 0.59589 0.0
O61 O 0.10235 0.53859 0.63083 0.0
C62 C 0.10931 0.57001 0.53914 0.0
O63 O 0.11379 0.52019 0.49575 0.0
O64 O 0.09253 0.53727 0.47127 0.0
In65 In 0.71477 0.84777 0.80724 0.0
O66 O 0.68664 0.86047 0.80853 0.0
O67 O 0.69233 0.84115 0.75402 0.0
C68 C 0.72484 0.8126 0.81203 0.0
C69 C 0.73287 0.86413 0.735 0.0
C70 C 0.7215 0.86124 0.89582 0.0
O71 O 0.70848 0.81738 0.81558 0.0
O72 O 0.73582 0.82546 0.8066 0.0
O73 O 0.72976 0.86657 0.85892 0.0
O74 O 0.70946 0.84953 0.88795 0.0
C75 C 0.68115 0.85227 0.7715 0.0
O76 O 0.71813 0.87024 0.75102 0.0
O77 O 0.73876 0.85042 0.7568 0.0
In78 In 0.40007 0.45706 0.07474 0.0
O79 O 0.40893 0.43662 0.01834 0.0
O80 O 0.39059 0.42771 0.07215 0.0
C81 C 0.43372 0.4715 0.07641 0.0
C82 C 0.38027 0.47361 0.00636 0.0
C83 C 0.38705 0.4612 0.1647 0.0
O84 O 0.43104 0.45478 0.08271 0.0
O85 O 0.41957 0.48064 0.06982 0.0
O86 O 0.38054 0.46936 0.12903 0.0
O87 O 0.39981 0.45051 0.15493 0.0
C88 C 0.39905 0.42398 0.03404 0.0
O89 O 0.37654 0.45795 0.02131 0.0
O90 O 0.39327 0.48117 0.0277 0.0
In91 In 0.76942 0.14445 0.29003 0.0
O92 O 0.76874 0.11755 0.25002 0.0
O93 O 0.74835 0.13688 0.23378 0.0
C94 C 0.76148 0.13352 0.38043 0.0
C95 C 0.80244 0.14277 0.24936 0.0
C96 C 0.7609 0.18002 0.2917 0.0
O97 O 0.75014 0.133 0.34671 0.0
O98 O 0.77696 0.13901 0.36829 0.0
O99 O 0.77588 0.17398 0.30627 0.0
O100 O 0.75014 0.16813 0.27631 0.0
C101 C 0.75544 0.12178 0.22399 0.0
O102 O 0.78939 0.15127 0.23078 0.0
O103 O 0.79909 0.13582 0.28985 0.0
In104 In 0.89262 0.51874 0.03573 0.0
O105 O 0.86626 0.51695 0.99308 0.0
O106 O 0.88619 0.49676 0.98104 0.0
C107 C 0.88224 0.51264 0.12764 0.0
C108 C 0.88967 0.55174 0.99541 0.0
C109 C 0.92791 0.50898 0.03549 0.0
O110 O 0.87894 0.5017 0.0941 0.0
O111 O 0.89023 0.52688 0.11463 0.0
O112 O 0.92282 0.52509 0.04192 0.0
O113 O 0.91524 0.49781 0.02936 0.0
C114 C 0.8711 0.50334 0.96902 0.0
O115 O 0.89854 0.53902 0.97646 0.0
O116 O 0.88297 0.5481 0.03601 0.0
In117 In 0.22801 0.15172 0.79173 0.0
O118 O 0.24519 0.13447 0.74033 0.0
O119 O 0.22556 0.1526 0.71155 0.0
C120 C 0.24092 0.14181 0.87795 0.0
C121 C 0.19559 0.1357 0.78243 0.0
C122 C 0.23756 0.1869 0.79188 0.0
O123 O 0.24943 0.13873 0.83948 0.0
O124 O 0.2258 0.14954 0.87267 0.0
O125 O 0.22174 0.18182 0.80284 0.0
O126 O 0.2483 0.17429 0.78112 0.0
C127 C 0.23728 0.1406 0.70348 0.0
O128 O 0.19743 0.15266 0.77854 0.0
O129 O 0.20973 0.12734 0.79489 0.0
In130 In 0.59827 0.47194 0.55873 0.0
O131 O 0.6129 0.49333 0.51361 0.0
O132 O 0.59896 0.47194 0.47796 0.0
C133 C 0.60784 0.48346 0.64669 0.0
C134 C 0.61627 0.44111 0.54101 0.0
C135 C 0.5624 0.4787 0.56038 0.0
O136 O 0.61027 0.49286 0.60942 0.0
O137 O 0.60101 0.46803 0.63946 0.0
O138 O 0.56872 0.46332 0.5711 0.0
O139 O 0.5741 0.4903 0.54888 0.0
C140 C 0.60866 0.4859 0.47432 0.0
O141 O 0.59919 0.44196 0.53841 0.0
O142 O 0.62383 0.45531 0.55635 0.0
In143 In 0.28583 0.85248 0.31299 0.0
O144 O 0.28282 0.87465 0.25571 0.0
O145 O 0.26135 0.85595 0.26446 0.0
C146 C 0.28057 0.8658 0.40239 0.0
C147 C 0.31956 0.85614 0.27726 0.0
C148 C 0.27447 0.81768 0.31712 0.0
O149 O 0.27252 0.87198 0.36606 0.0
O150 O 0.29169 0.85331 0.39348 0.0
O151 O 0.29107 0.82176 0.31593 0.0
O152 O 0.26391 0.83104 0.317 0.0
C153 C 0.26763 0.86914 0.24126 0.0
O154 O 0.31431 0.86443 0.31439 0.0
O155 O 0.30807 0.84536 0.25967 0.0
In156 In 0.89803 0.47208 0.56373 0.0
O157 O 0.90666 0.45077 0.61817 0.0
O158 O 0.88954 0.4424 0.56097 0.0
C159 C 0.933 0.483 0.56388 0.0
C160 C 0.87523 0.48448 0.63196 0.0
C161 C 0.88671 0.48048 0.47385 0.0
O162 O 0.92811 0.46785 0.54755 0.0
O163 O 0.92029 0.49261 0.57995 0.0
O164 O 0.88567 0.49143 0.50835 0.0
O165 O 0.89305 0.46521 0.48483 0.0
C166 C 0.89768 0.43811 0.59918 0.0
O167 O 0.87137 0.47124 0.60534 0.0
O168 O 0.89001 0.49217 0.62203 0.0
In169 In 0.2903 0.15497 0.30403 0.0
O170 O 0.31024 0.16205 0.36338 0.0
O171 O 0.31877 0.14325 0.3103 0.0
C172 C 0.27978 0.19004 0.30332 0.0
C173 C 0.27185 0.13515 0.36871 0.0
C174 C 0.28522 0.14317 0.21302 0.0
O175 O 0.29544 0.18527 0.2904 0.0
O176 O 0.2697 0.17724 0.31642 0.0
O177 O 0.27511 0.13864 0.24731 0.0
O178 O 0.29826 0.15323 0.22474 0.0
C179 C 0.32239 0.15133 0.34909 0.0
O180 O 0.28739 0.13069 0.35427 0.0
O181 O 0.26526 0.14889 0.34831 0.0
In182 In 0.59043 0.54333 0.06439 0.0
O183 O 0.58439 0.57224 0.08798 0.0
O184 O 0.6102 0.56675 0.05727 0.0
C185 C 0.55691 0.52862 0.06658 0.0
C186 C 0.60555 0.53256 0.1473 0.0
C187 C 0.60162 0.53382 0.97615 0.0
O188 O 0.55955 0.54491 0.05478 0.0
O189 O 0.57104 0.51999 0.07705 0.0
O190 O 0.60722 0.52602 0.01361 0.0
O191 O 0.59069 0.54668 0.98328 0.0
C192 C 0.59993 0.57814 0.07727 0.0
O193 O 0.60971 0.5253 0.10777 0.0
O194 O 0.59385 0.5449 0.14465 0.0
In195 In 0.21977 0.85646 0.81579 0.0
O196 O 0.19029 0.85004 0.83227 0.0
O197 O 0.19706 0.8773 0.81496 0.0
C198 C 0.23034 0.82173 0.80487 0.0
C199 C 0.22917 0.86684 0.905 0.0
C200 C 0.23295 0.86999 0.73296 0.0
O201 O 0.21499 0.82727 0.7915 0.0
O202 O 0.24027 0.83367 0.82354 0.0
O203 O 0.24217 0.8696 0.77108 0.0
O204 O 0.21696 0.86418 0.73714 0.0
C205 C 0.18499 0.8662 0.82796 0.0
O206 O 0.23475 0.87536 0.86853 0.0
O207 O 0.21954 0.85322 0.89594 0.0
In208 In 0.60023 0.96429 0.54623 0.0
O209 O 0.59324 0.94162 0.59843 0.0
O210 O 0.61317 0.9363 0.54516 0.0
C211 C 0.56518 0.97484 0.5436 0.0
C212 C 0.61689 0.98233 0.61821 0.0
C213 C 0.61292 0.97069 0.45663 0.0
O214 O 0.56968 0.95843 0.53916 0.0
O215 O 0.57823 0.98559 0.54888 0.0
O216 O 0.61879 0.9789 0.49305 0.0
O217 O 0.60112 0.95885 0.46552 0.0
C218 C 0.60461 0.93059 0.58139 0.0
O219 O 0.62243 0.9672 0.60345 0.0
O220 O 0.60368 0.98866 0.59513 0.0
In221 In 0.28649 0.35215 0.79198 0.0
O222 O 0.30914 0.34375 0.84263 0.0
O223 O 0.31443 0.36529 0.79391 0.0
C224 C 0.27629 0.317 0.78868 0.0
C225 C 0.26874 0.36876 0.86442 0.0
C226 C 0.27988 0.36513 0.70267 0.0
O227 O 0.29234 0.32192 0.78022 0.0
O228 O 0.26559 0.32973 0.79834 0.0
O229 O 0.27128 0.37038 0.73908 0.0
O230 O 0.29221 0.35385 0.71145 0.0
C231 C 0.32018 0.35558 0.82802 0.0
O232 O 0.28409 0.37396 0.85031 0.0
O233 O 0.26207 0.35593 0.84046 0.0
In234 In 0.89565 0.03233 0.06396 0.0
O235 O 0.90054 0.06231 0.07852 0.0
O236 O 0.87396 0.05393 0.05869 0.0
C237 C 0.93016 0.02032 0.0616 0.0
C238 C 0.88333 0.02414 0.15208 0.0
C239 C 0.88389 0.02031 0.97838 0.0
O240 O 0.92595 0.03626 0.04966 0.0
O241 O 0.91702 0.01058 0.07443 0.0
O242 O 0.88166 0.01132 0.01649 0.0
O243 O 0.89171 0.03537 0.98374 0.0
C244 C 0.88418 0.06669 0.07203 0.0
O245 O 0.87651 0.01696 0.11507 0.0
O246 O 0.89641 0.03466 0.1442 0.0
In247 In 0.21322 0.65667 0.30122 0.0
O248 O 0.21688 0.63228 0.35078 0.0
O249 O 0.23827 0.65139 0.34615 0.0
C250 C 0.21683 0.64507 0.20971 0.0
C251 C 0.18135 0.65301 0.34745 0.0
C252 C 0.22504 0.69131 0.3004 0.0
O253 O 0.22581 0.63863 0.24407 0.0
O254 O 0.20544 0.65695 0.22163 0.0
O255 O 0.20841 0.68741 0.29794 0.0
O256 O 0.23544 0.67785 0.30263 0.0
C257 C 0.23216 0.6373 0.36585 0.0
O258 O 0.19386 0.66324 0.36212 0.0
O259 O 0.18441 0.64555 0.30744 0.0
In260 In 0.60219 0.03199 0.04105 0.0
O261 O 0.62011 0.01564 0.98904 0.0
O262 O 0.60123 0.03459 0.96074 0.0
C263 C 0.61391 0.01934 0.12614 0.0
C264 C 0.61483 0.06602 0.03367 0.0
C265 C 0.56746 0.02055 0.04509 0.0
O266 O 0.61636 0.01076 0.08746 0.0
O267 O 0.60597 0.03436 0.12158 0.0
O268 O 0.57203 0.03635 0.05758 0.0
O269 O 0.58031 0.01078 0.03062 0.0
C270 C 0.61349 0.0232 0.95228 0.0
O271 O 0.59841 0.06213 0.02605 0.0
O272 O 0.62454 0.05294 0.04739 0.0
In273 In 0.21998 0.35146 0.28737 0.0
O274 O 0.19049 0.34491 0.27108 0.0
O275 O 0.19722 0.37215 0.28868 0.0
C276 C 0.23231 0.31714 0.29432 0.0
C277 C 0.22893 0.36297 0.19884 0.0
C278 C 0.23188 0.36471 0.37181 0.0
O279 O 0.21655 0.32156 0.30731 0.0
O280 O 0.24171 0.32997 0.27804 0.0
O281 O 0.24096 0.36607 0.3336 0.0
O282 O 0.21665 0.35716 0.36704 0.0
C283 C 0.18518 0.36108 0.27542 0.0
O284 O 0.23535 0.37049 0.23587 0.0
O285 O 0.21869 0.34969 0.20693 0.0
In286 In 0.89718 0.97093 0.55488 0.0
O287 O 0.9039 0.95139 0.49457 0.0
O288 O 0.88651 0.94197 0.55006 0.0
C289 C 0.9324 0.98072 0.56075 0.0
C290 C 0.87886 0.98953 0.4875 0.0
C291 C 0.88384 0.97598 0.6444 0.0
O292 O 0.92724 0.9646 0.56681 0.0
O293 O 0.91985 0.99176 0.5521 0.0
O294 O 0.87951 0.98579 0.60933 0.0
O295 O 0.89444 0.9632 0.63412 0.0
C296 C 0.89412 0.93872 0.51037 0.0
O297 O 0.87334 0.97452 0.50338 0.0
O298 O 0.89296 0.99551 0.50748 0.0
In299 In 0.27491 0.6558 0.78935 0.0
O300 O 0.30552 0.65442 0.77653 0.0
O301 O 0.2912 0.63018 0.79312 0.0
C302 C 0.26798 0.69157 0.78998 0.0
C303 C 0.26554 0.64509 0.70092 0.0
C304 C 0.26071 0.64644 0.8745 0.0
O305 O 0.28314 0.68533 0.80315 0.0
O306 O 0.25667 0.67982 0.77677 0.0
O307 O 0.25179 0.64531 0.83593 0.0
O308 O 0.27676 0.65206 0.86989 0.0
C309 C 0.30598 0.63736 0.78067 0.0
O310 O 0.2572 0.63933 0.73754 0.0
O311 O 0.2777 0.65663 0.70928 0.0
In312 In 0.40256 0.03176 0.54461 0.0
O313 O 0.4086 0.06136 0.52847 0.0
O314 O 0.38175 0.05436 0.54936 0.0
C315 C 0.43692 0.01927 0.54685 0.0
C316 C 0.38979 0.02285 0.45724 0.0
C317 C 0.39105 0.02022 0.63114 0.0
O318 O 0.43293 0.03533 0.55813 0.0
O319 O 0.42363 0.00961 0.53474 0.0
O320 O 0.38845 0.0112 0.59327 0.0
O321 O 0.399 0.03517 0.62506 0.0
C322 C 0.39252 0.06656 0.53532 0.0
O323 O 0.38289 0.0163 0.49497 0.0
O324 O 0.40304 0.03324 0.46406 0.0
In325 In 0.71539 0.65354 0.30281 0.0
O326 O 0.6946 0.66164 0.24664 0.0
O327 O 0.68654 0.64246 0.29942 0.0
C328 C 0.72592 0.68863 0.3047 0.0
C329 C 0.73288 0.6344 0.23482 0.0
C330 C 0.72177 0.64078 0.39251 0.0
O331 O 0.71056 0.68364 0.31941 0.0
O332 O 0.73578 0.67602 0.28936 0.0
O333 O 0.73119 0.6364 0.35676 0.0
O334 O 0.70871 0.6511 0.3829 0.0
C335 C 0.68237 0.65121 0.26205 0.0
O336 O 0.71718 0.63025 0.24885 0.0
O337 O 0.74002 0.64747 0.25695 0.0
In338 In 0.09262 0.96293 0.06405 0.0
O339 O 0.1167 0.96674 0.0135 0.0
O340 O 0.09699 0.98761 0.01718 0.0
C341 C 0.10511 0.9682 0.15422 0.0
C342 C 0.09686 0.93095 0.01882 0.0
C343 C 0.05759 0.9735 0.06643 0.0
O344 O 0.11018 0.97754 0.11893 0.0
O345 O 0.09413 0.95573 0.14396 0.0
O346 O 0.06218 0.95729 0.07432 0.0
O347 O 0.07056 0.98406 0.0579 0.0
C348 C 0.11118 0.98171 0.99752 0.0
O349 O 0.08596 0.94295 0.00456 0.0
O350 O 0.10464 0.93454 0.05806 0.0
In351 In 0.79717 0.34281 0.81688 0.0
O352 O 0.79075 0.36433 0.75978 0.0
O353 O 0.77377 0.34129 0.76436 0.0
C354 C 0.79022 0.35741 0.90362 0.0
C355 C 0.83064 0.34979 0.78309 0.0
C356 C 0.78848 0.30753 0.82865 0.0
O357 O 0.78168 0.36194 0.86632 0.0
O358 O 0.80269 0.34604 0.89683 0.0
O359 O 0.80449 0.31242 0.81923 0.0
O360 O 0.77737 0.32033 0.83293 0.0
C361 C 0.77748 0.35576 0.74275 0.0
O362 O 0.8245 0.35701 0.82079 0.0
O363 O 0.82031 0.33819 0.76418 0.0
In364 In 0.4039 0.96592 0.05445 0.0
O365 O 0.41076 0.94252 0.10467 0.0
O366 O 0.38996 0.9384 0.05305 0.0
C367 C 0.43923 0.97589 0.05712 0.0
C368 C 0.38542 0.98351 0.12395 0.0
C369 C 0.39218 0.97336 0.9643 0.0
O370 O 0.43418 0.96105 0.03914 0.0
O371 O 0.42661 0.98535 0.07399 0.0
O372 O 0.38691 0.98204 0.00053 0.0
O373 O 0.40293 0.96062 0.97357 0.0
C374 C 0.39879 0.93204 0.08802 0.0
O375 O 0.38224 0.96726 0.11307 0.0
O376 O 0.39716 0.99113 0.09803 0.0
In377 In 0.77995 0.64932 0.813 0.0
O378 O 0.76326 0.63097 0.86328 0.0
O379 O 0.78183 0.64984 0.8934 0.0
C380 C 0.76801 0.63875 0.72617 0.0
C381 C 0.81368 0.63609 0.82195 0.0
C382 C 0.76911 0.68422 0.81146 0.0
O383 O 0.75901 0.63598 0.76402 0.0
O384 O 0.7831 0.64643 0.73239 0.0
O385 O 0.78512 0.67961 0.8012 0.0
O386 O 0.75876 0.67129 0.82228 0.0
C387 C 0.77053 0.63738 0.90069 0.0
O388 O 0.81011 0.65265 0.82837 0.0
O389 O 0.80046 0.62654 0.80825 0.0
In390 In 0.09794 0.02756 0.57268 0.0
O391 O 0.09867 0.05819 0.5853 0.0
O392 O 0.12349 0.04402 0.57487 0.0
C393 C 0.06246 0.01944 0.56874 0.0
C394 C 0.10695 0.01783 0.66211 0.0
C395 C 0.10839 0.0147 0.48696 0.0
O396 O 0.06824 0.03518 0.55933 0.0
O397 O 0.07453 0.00814 0.57987 0.0
O398 O 0.1099 0.00552 0.52502 0.0
O399 O 0.102 0.03042 0.49246 0.0
C400 C 0.11581 0.05876 0.58543 0.0
O401 O 0.11352 0.00971 0.6261 0.0
O402 O 0.09549 0.02992 0.65253 0.0
In403 In 0.72584 0.34811 0.31441 0.0
O404 O 0.6954 0.34988 0.32933 0.0
O405 O 0.71059 0.37427 0.32288 0.0
C406 C 0.73151 0.31241 0.30264 0.0
C407 C 0.73763 0.35351 0.40438 0.0
C408 C 0.73918 0.36015 0.2305 0.0
O409 O 0.71611 0.31943 0.29566 0.0
O410 O 0.74371 0.3234 0.31493 0.0
O411 O 0.74834 0.36031 0.26878 0.0
O412 O 0.72319 0.3543 0.23486 0.0
C413 C 0.69558 0.36696 0.3326 0.0
O414 O 0.74479 0.3616 0.36914 0.0
O415 O 0.72525 0.3425 0.3936 0.0
H416 H 0.95749 0.53095 0.04229 0.0
H417 H 0.02948 0.44989 0.03559 0.0
H418 H 0.94208 0.4749 0.02713 0.0
H419 H 0.04377 0.50653 0.03485 0.0
H420 H 0.99738 0.45841 0.03331 0.0
H421 H 0.98927 0.52195 0.04108 0.0
C422 C 0.96082 0.51674 0.03872 0.0
C423 C 0.94716 0.50365 0.03485 0.0
C424 C 0.00757 0.46895 0.03346 0.0
C425 C 0.98352 0.4932 0.03345 0.0
C426 C 0.02586 0.46409 0.03471 0.0
C427 C 0.03928 0.47752 0.03549 0.0
C428 C 0.00273 0.48736 0.03319 0.0
C429 C 0.03388 0.49572 0.03436 0.0
C430 C 0.97896 0.51159 0.03793 0.0
C431 C 0.95222 0.48542 0.03022 0.0
N432 N 0.01605 0.50009 0.03344 0.0
N433 N 0.97001 0.48072 0.02975 0.0
H434 H 0.78852 0.78701 0.27467 0.0
H435 H 0.70735 0.71858 0.3353 0.0
H436 H 0.73733 0.80383 0.33431 0.0
H437 H 0.75841 0.70191 0.27458 0.0
H438 H 0.71801 0.74997 0.33501 0.0
H439 H 0.77766 0.75571 0.27388 0.0
C440 C 0.77499 0.78411 0.28752 0.0
C441 C 0.76381 0.79801 0.3046 0.0
C442 C 0.72688 0.73944 0.32173 0.0
C443 C 0.75129 0.76228 0.30392 0.0
C444 C 0.7208 0.72154 0.32193 0.0
C445 C 0.73202 0.70765 0.30498 0.0
C446 C 0.74431 0.74346 0.30448 0.0
C447 C 0.74932 0.71221 0.28801 0.0
C448 C 0.76879 0.76625 0.2871 0.0
C449 C 0.7464 0.79351 0.32085 0.0
N450 N 0.75493 0.72971 0.28821 0.0
N451 N 0.74068 0.77604 0.32015 0.0
H452 H 0.44615 0.47807 0.60019 0.0
H453 H 0.54659 0.51073 0.53678 0.0
H454 H 0.45906 0.5315 0.54779 0.0
H455 H 0.53396 0.45692 0.58686 0.0
H456 H 0.51455 0.51843 0.54019 0.0
H457 H 0.47815 0.46998 0.59535 0.0
C458 C 0.45574 0.48811 0.58766 0.0
C459 C 0.44996 0.5055 0.5744 0.0
C460 C 0.51874 0.50492 0.55039 0.0
C461 C 0.48661 0.49631 0.56876 0.0
C462 C 0.53705 0.5005 0.54845 0.0
C463 C 0.54294 0.48315 0.56162 0.0
C464 C 0.50616 0.49191 0.56569 0.0
C465 C 0.52998 0.47045 0.5764 0.0
C466 C 0.474 0.48347 0.58488 0.0
C467 C 0.46294 0.51795 0.55839 0.0
N468 N 0.51217 0.4751 0.57812 0.0
N469 N 0.48067 0.51311 0.55605 0.0
H470 H 0.77925 0.19014 0.82303 0.0
H471 H 0.75452 0.29517 0.84631 0.0
H472 H 0.72475 0.21106 0.82687 0.0
H473 H 0.80877 0.27653 0.81713 0.0
H474 H 0.744 0.26399 0.84615 0.0
H475 H 0.79085 0.22122 0.82657 0.0
C476 C 0.76973 0.20127 0.82459 0.0
C477 C 0.751 0.19804 0.8246 0.0
C478 C 0.75822 0.26664 0.83986 0.0
C479 C 0.76416 0.23352 0.82896 0.0
C480 C 0.76427 0.28448 0.84012 0.0
C481 C 0.78256 0.28846 0.83159 0.0
C482 C 0.77052 0.25256 0.83112 0.0
C483 C 0.79455 0.27403 0.82383 0.0
C484 C 0.77637 0.21898 0.82659 0.0
C485 C 0.73928 0.21293 0.82669 0.0
N486 N 0.78831 0.25667 0.82369 0.0
N487 N 0.74606 0.23 0.82888 0.0
H488 H 0.03229 0.54501 0.59003 0.0
H489 H 0.96287 0.46418 0.53473 0.0
H490 H 0.04832 0.4924 0.53807 0.0
H491 H 0.94649 0.51552 0.59428 0.0
H492 H 0.99432 0.47445 0.53569 0.0
H493 H 0.00077 0.53463 0.59224 0.0
C494 C 0.02918 0.53128 0.57925 0.0
C495 C 0.04291 0.51956 0.56376 0.0
C496 C 0.98386 0.48348 0.54861 0.0
C497 C 0.00697 0.50762 0.56601 0.0
C498 C 0.96591 0.47762 0.548 0.0
C499 C 0.95207 0.48902 0.56437 0.0
C500 C 0.98803 0.50091 0.5656 0.0
C501 C 0.95676 0.5063 0.58129 0.0
C502 C 0.0112 0.52536 0.58048 0.0
C503 C 0.03815 0.5019 0.55019 0.0
N504 N 0.97435 0.51173 0.58139 0.0
N505 N 0.0206 0.49649 0.55152 0.0
H506 H 0.78888 0.71485 0.79342 0.0
H507 H 0.70433 0.78196 0.82474 0.0
H508 H 0.735 0.69674 0.82903 0.0
H509 H 0.7592 0.79993 0.80117 0.0
H510 H 0.71504 0.75055 0.82461 0.0
H511 H 0.77802 0.74614 0.79395 0.0
C512 C 0.77477 0.71747 0.80131 0.0
C513 C 0.76283 0.7032 0.81121 0.0
C514 C 0.72473 0.76138 0.81955 0.0
C515 C 0.75028 0.73893 0.81189 0.0
C516 C 0.71862 0.77929 0.81963 0.0
C517 C 0.73089 0.79355 0.81298 0.0
C518 C 0.74324 0.75774 0.81261 0.0
C519 C 0.74926 0.78935 0.80647 0.0
C520 C 0.76857 0.73532 0.80167 0.0
C521 C 0.74467 0.70735 0.82123 0.0
N522 N 0.75486 0.77185 0.80636 0.0
N523 N 0.73895 0.72483 0.82127 0.0
H524 H 0.5488 0.49359 0.0886 0.0
H525 H 0.44186 0.50692 0.06021 0.0
H526 H 0.52391 0.54419 0.0484 0.0
H527 H 0.46678 0.45538 0.09082 0.0
H528 H 0.47175 0.5209 0.05788 0.0
H529 H 0.51891 0.47952 0.09153 0.0
C530 C 0.53702 0.50175 0.08037 0.0
C531 C 0.53883 0.5201 0.06822 0.0
C532 C 0.47072 0.50654 0.06513 0.0
C533 C 0.50454 0.50405 0.07158 0.0
C534 C 0.45365 0.49853 0.06654 0.0
C535 C 0.45185 0.47994 0.07575 0.0
C536 C 0.48617 0.49591 0.07307 0.0
C537 C 0.46758 0.46976 0.08361 0.0
C538 C 0.51996 0.49369 0.08203 0.0
C539 C 0.52312 0.53001 0.05791 0.0
N540 N 0.4841 0.47789 0.08211 0.0
N541 N 0.50663 0.52185 0.05987 0.0
H542 H 0.70804 0.28503 0.27762 0.0
H543 H 0.78268 0.20792 0.31913 0.0
H544 H 0.76347 0.29527 0.31829 0.0
H545 H 0.72906 0.19641 0.26582 0.0
H546 H 0.77534 0.24006 0.32018 0.0
H547 H 0.71491 0.25253 0.27369 0.0
C548 C 0.72164 0.28045 0.28556 0.0
C549 C 0.7352 0.29284 0.29837 0.0
C550 C 0.76515 0.23055 0.30817 0.0
C551 C 0.74312 0.25585 0.29418 0.0
C552 C 0.76934 0.21217 0.30764 0.0
C553 C 0.75646 0.1995 0.29239 0.0
C554 C 0.7479 0.23635 0.29348 0.0
C555 C 0.73939 0.20578 0.27784 0.0
C556 C 0.72555 0.26193 0.28333 0.0
C557 C 0.75259 0.28621 0.30831 0.0
N558 N 0.73557 0.22379 0.27882 0.0
N559 N 0.75602 0.2682 0.30613 0.0
H560 H 0.24253 0.30383 0.80718 0.0
H561 H 0.27096 0.20027 0.77046 0.0
H562 H 0.29655 0.28677 0.76967 0.0
H563 H 0.21725 0.21707 0.81181 0.0
H564 H 0.28044 0.23189 0.76907 0.0
H565 H 0.23289 0.27222 0.80791 0.0
C566 C 0.25236 0.29342 0.79901 0.0
C567 C 0.27038 0.29791 0.78834 0.0
C568 C 0.26658 0.2287 0.77846 0.0
C569 C 0.25943 0.26168 0.78918 0.0
C570 C 0.26115 0.21063 0.77927 0.0
C571 C 0.24328 0.20605 0.79129 0.0
C572 C 0.25406 0.24233 0.7897 0.0
C573 C 0.23116 0.22002 0.80237 0.0
C574 C 0.24685 0.27537 0.79948 0.0
C575 C 0.28254 0.28388 0.77806 0.0
N576 N 0.23677 0.23755 0.8013 0.0
N577 N 0.27684 0.26639 0.77876 0.0
H578 H 0.29402 0.7861 0.31461 0.0
H579 H 0.20569 0.72298 0.30099 0.0
H580 H 0.23932 0.80653 0.31786 0.0
H581 H 0.26027 0.70224 0.30408 0.0
H582 H 0.21779 0.75379 0.3061 0.0
H583 H 0.28199 0.75521 0.31042 0.0
C584 C 0.2795 0.78407 0.31465 0.0
C585 C 0.26765 0.79887 0.31658 0.0
C586 C 0.22712 0.7425 0.30562 0.0
C587 C 0.25379 0.76367 0.31151 0.0
C588 C 0.22021 0.72492 0.30259 0.0
C589 C 0.23199 0.71006 0.30208 0.0
C590 C 0.24595 0.7452 0.30809 0.0
C591 C 0.25069 0.71333 0.30436 0.0
C592 C 0.27263 0.76646 0.31217 0.0
C593 C 0.24895 0.7955 0.31642 0.0
N594 N 0.25709 0.73053 0.30726 0.0
N595 N 0.2426 0.77828 0.31382 0.0
H596 H 0.29826 0.22042 0.27476 0.0
H597 H 0.21475 0.28694 0.32714 0.0
H598 H 0.24681 0.20274 0.33113 0.0
H599 H 0.26572 0.30484 0.26826 0.0
H600 H 0.22657 0.25604 0.33055 0.0
H601 H 0.28693 0.25159 0.27369 0.0
C602 C 0.28461 0.22311 0.28697 0.0
C603 C 0.27345 0.209 0.30297 0.0
C604 C 0.23519 0.26673 0.31692 0.0
C605 C 0.2604 0.24453 0.30186 0.0
C606 C 0.22844 0.28436 0.315 0.0
C607 C 0.23927 0.29844 0.29733 0.0
C608 C 0.2529 0.26316 0.30106 0.0
C609 C 0.25691 0.29436 0.28209 0.0
C610 C 0.27814 0.24089 0.28635 0.0
C611 C 0.25587 0.21321 0.31842 0.0
N612 N 0.26317 0.27709 0.28425 0.0
N613 N 0.24989 0.23058 0.31744 0.0
H614 H 0.2889 0.72014 0.82036 0.0
H615 H 0.21133 0.79338 0.76706 0.0
H616 H 0.23664 0.70723 0.76024 0.0
H617 H 0.26267 0.80688 0.83161 0.0
H618 H 0.22104 0.76184 0.76131 0.0
H619 H 0.28025 0.75219 0.82198 0.0
C620 C 0.27565 0.72406 0.80741 0.0
C621 C 0.26345 0.71103 0.7903 0.0
C622 C 0.23021 0.77169 0.77667 0.0
C623 C 0.25346 0.74754 0.79202 0.0
C624 C 0.22467 0.7897 0.77992 0.0
C625 C 0.23619 0.80272 0.79997 0.0
C626 C 0.24742 0.76667 0.79362 0.0
C627 C 0.25335 0.79723 0.816 0.0
C628 C 0.27071 0.74233 0.80835 0.0
C629 C 0.24645 0.71682 0.77388 0.0
N630 N 0.25843 0.77961 0.81258 0.0
N631 N 0.24197 0.73461 0.77523 0.0
H632 H 0.44833 0.98487 0.52743 0.0
H633 H 0.55328 0.00932 0.55631 0.0
H634 H 0.46811 0.03782 0.56643 0.0
H635 H 0.53402 0.95499 0.53127 0.0
H636 H 0.5221 0.02002 0.55756 0.0
H637 H 0.47949 0.97369 0.5265 0.0
C638 C 0.45924 0.99414 0.53587 0.0
C639 C 0.45565 0.01231 0.54702 0.0
C640 C 0.52464 0.00575 0.55181 0.0
C641 C 0.49131 0.99962 0.54585 0.0
C642 C 0.54246 0.99962 0.551 0.0
C643 C 0.54624 0.98122 0.54366 0.0
C644 C 0.51041 0.99342 0.54511 0.0
C645 C 0.53169 0.96928 0.53703 0.0
C646 C 0.47702 0.98774 0.53534 0.0
C647 C 0.47027 0.02372 0.55767 0.0
N648 N 0.51438 0.9756 0.53787 0.0
N649 N 0.48746 0.01719 0.55672 0.0
H650 H 0.96107 0.03875 0.0382 0.0
H651 H 0.02667 0.95403 0.08503 0.0
H652 H 0.94198 0.98638 0.08445 0.0
H653 H 0.04542 0.00746 0.04704 0.0
H654 H 0.99544 0.96527 0.08335 0.0
H655 H 0.99208 0.02718 0.03922 0.0
C656 C 0.96341 0.02481 0.0485 0.0
C657 C 0.94895 0.01352 0.0613 0.0
C658 C 0.0064 0.97452 0.07543 0.0
C659 C 0.98438 0.00016 0.06262 0.0
C660 C 0.02421 0.96811 0.0764 0.0
C661 C 0.03863 0.97983 0.06622 0.0
C662 C 0.00305 0.99277 0.06408 0.0
C663 C 0.0347 0.99795 0.05519 0.0
C664 C 0.98111 0.01821 0.04914 0.0
C665 C 0.95275 0.99556 0.07436 0.0
N666 N 0.01731 0.00384 0.05438 0.0
N667 N 0.97009 0.98943 0.0747 0.0
H668 H 0.55494 0.98744 0.0174 0.0
H669 H 0.45232 0.00777 0.09197 0.0
H670 H 0.53721 0.03818 0.07783 0.0
H671 H 0.46931 0.95846 0.02242 0.0
H672 H 0.48351 0.01864 0.08986 0.0
H673 H 0.5239 0.97621 0.02137 0.0
C674 C 0.5445 0.99623 0.03152 0.0
C675 C 0.54865 0.01379 0.04728 0.0
C676 C 0.48046 0.00543 0.07511 0.0
C677 C 0.51304 0.00098 0.05201 0.0
C678 C 0.46265 0.99919 0.07637 0.0
C679 C 0.45822 0.98218 0.05728 0.0
C680 C 0.494 0.99459 0.05465 0.0
C681 C 0.47214 0.97166 0.03752 0.0
C682 C 0.52676 0.9898 0.03376 0.0
C683 C 0.53459 0.02457 0.06524 0.0
N684 N 0.48941 0.97804 0.03667 0.0
N685 N 0.5174 0.01798 0.06715 0.0
H686 H 0.03312 0.04089 0.54794 0.0
H687 H 0.962 0.95965 0.5794 0.0
H688 H 0.04791 0.98627 0.58625 0.0
H689 H 0.94636 0.01452 0.54645 0.0
H690 H 0.99367 0.96924 0.58138 0.0
H691 H 0.00123 0.03163 0.5463 0.0
C692 C 0.02965 0.02697 0.55597 0.0
C693 C 0.04315 0.01434 0.56724 0.0
C694 C 0.98332 0.97921 0.57377 0.0
C695 C 0.00683 0.00364 0.56546 0.0
C696 C 0.96524 0.97372 0.57266 0.0
C697 C 0.95156 0.9863 0.56277 0.0
C698 C 0.98774 0.99741 0.56484 0.0
C699 C 0.95651 0.00437 0.55425 0.0
C700 C 0.01148 0.02169 0.55507 0.0
C701 C 0.03794 0.99647 0.57738 0.0
N702 N 0.9742 0.00939 0.55543 0.0
N703 N 0.02022 0.99167 0.57623 0.0
H704 H 0.1047 0.45398 0.87935 0.0
H705 H 0.11492 0.5413 0.71886 0.0
H706 H 0.12409 0.50479 0.93571 0.0
H707 H 0.11521 0.48765 0.65792 0.0
H708 H 0.11893 0.5281 0.79854 0.0
H709 H 0.10915 0.46557 0.79789 0.0
C710 C 0.11016 0.46747 0.87456 0.0
C711 C 0.11391 0.47849 0.91431 0.0
C712 C 0.11839 0.5192 0.76771 0.0
C713 C 0.11873 0.49194 0.82137 0.0
C714 C 0.11607 0.52674 0.72224 0.0
C715 C 0.11464 0.51554 0.68183 0.0
C716 C 0.1189 0.5003 0.77297 0.0
C717 C 0.11625 0.49676 0.6882 0.0
C718 C 0.11271 0.47407 0.82808 0.0
C719 C 0.12098 0.49585 0.90608 0.0
N720 N 0.118 0.4897 0.73304 0.0
N721 N 0.12289 0.50214 0.86055 0.0
H722 H 0.75219 0.87906 0.92316 0.0
H723 H 0.73278 0.86898 0.20405 0.0
H724 H 0.7032 0.85547 0.97974 0.0
H725 H 0.7864 0.86952 0.14285 0.0
H726 H 0.72002 0.87231 0.12326 0.0
H727 H 0.76293 0.88395 0.00524 0.0
C728 C 0.74356 0.87521 0.95285 0.0
C729 C 0.72687 0.86668 0.94474 0.0
C730 C 0.73457 0.87194 0.12772 0.0
C731 C 0.73903 0.87229 0.03842 0.0
C732 C 0.74186 0.87015 0.17371 0.0
C733 C 0.76065 0.86882 0.17995 0.0
C734 C 0.7462 0.8727 0.08795 0.0
C735 C 0.77182 0.87033 0.13948 0.0
C736 C 0.74973 0.87793 -0.0004 0.0
C737 C 0.71623 0.86195 0.9845 0.0
N738 N 0.76443 0.87213 0.09514 0.0
N739 N 0.72253 0.86473 0.02971 0.0
H740 H 0.36636 0.48945 0.19545 0.0
H741 H 0.38195 0.46915 0.47384 0.0
H742 H 0.39573 0.44283 0.24673 0.0
H743 H 0.376 0.5229 0.4155 0.0
H744 H 0.37874 0.45666 0.39272 0.0
H745 H 0.36143 0.49893 0.27852 0.0
C746 C 0.37149 0.48104 0.22421 0.0
C747 C 0.38165 0.46545 0.21432 0.0
C748 C 0.3779 0.47116 0.39793 0.0
C749 C 0.376 0.47617 0.30907 0.0
C750 C 0.37964 0.47828 0.44408 0.0
C751 C 0.3794 0.49708 0.45112 0.0
C752 C 0.3756 0.48293 0.3589 0.0
C753 C 0.37643 0.50833 0.41143 0.0
C754 C 0.36873 0.4865 0.27151 0.0
C755 C 0.38798 0.45504 0.2529 0.0
N756 N 0.3747 0.50109 0.36693 0.0
N757 N 0.38514 0.46065 0.29871 0.0
H758 H 0.70926 0.14025 0.65689 0.0
H759 H 0.72817 0.12477 0.41651 0.0
H760 H 0.76392 0.12252 0.68429 0.0
H761 H 0.78359 0.13379 0.45913 0.0
H762 H 0.71973 0.12194 0.50089 0.0
H763 H 0.7146 0.1369 0.57109 0.0
C764 C 0.7223 0.13534 0.64481 0.0
C765 C 0.73617 0.13165 0.67774 0.0
C766 C 0.73371 0.12468 0.49191 0.0
C767 C 0.74237 0.12753 0.57935 0.0
C768 C 0.73858 0.12609 0.44367 0.0
C769 C 0.75657 0.12976 0.43085 0.0
C770 C 0.74694 0.12706 0.52761 0.0
C771 C 0.76953 0.13114 0.46747 0.0
C772 C 0.72531 0.13326 0.59572 0.0
C773 C 0.75284 0.12545 0.6601 0.0
N774 N 0.76444 0.12987 0.5142 0.0
N775 N 0.75555 0.12382 0.61205 0.0
H776 H 0.87176 0.48026 0.16615 0.0
H777 H 0.87977 0.51424 0.43804 0.0
H778 H 0.88513 0.53518 0.20508 0.0
H779 H 0.88373 0.45819 0.39605 0.0
H780 H 0.87544 0.52256 0.35373 0.0
H781 H 0.86972 0.47252 0.25137 0.0
C782 C 0.87401 0.49075 0.19263 0.0
C783 C 0.87875 0.50836 0.17858 0.0
C784 C 0.8771 0.50843 0.36308 0.0
C785 C 0.87646 0.49959 0.27598 0.0
C786 C 0.8795 0.50367 0.41115 0.0
C787 C 0.88223 0.48551 0.42395 0.0
C788 C 0.87726 0.49492 0.32767 0.0
C789 C 0.88179 0.47236 0.38767 0.0
C790 C 0.87293 0.4863 0.24122 0.0
C791 C 0.88155 0.52141 0.21439 0.0
N792 N 0.87941 0.47732 0.34116 0.0
N793 N 0.88044 0.51675 0.26147 0.0
H794 H 0.27577 0.13255 0.90059 0.0
H795 H 0.30623 0.14871 0.13355 0.0
H796 H 0.22341 0.14232 0.96401 0.0
H797 H 0.25421 0.12813 0.178 0.0
H798 H 0.29707 0.14511 0.04982 0.0
H799 H 0.28865 0.12927 0.98111 0.0
C800 C 0.26698 0.13389 0.93147 0.0
C801 C 0.24855 0.13795 0.92576 0.0
C802 C 0.28783 0.14092 0.07782 0.0
C803 C 0.26319 0.1345 0.01766 0.0
C804 C 0.29301 0.1431 0.12563 0.0
C805 C 0.28094 0.13874 0.16268 0.0
C806 C 0.27037 0.13452 0.06714 0.0
C807 C 0.26394 0.13162 0.1505 0.0
C808 C 0.27437 0.1322 0.97737 0.0
C809 C 0.23773 0.13941 0.96688 0.0
N810 N 0.25904 0.13003 0.10375 0.0
N811 N 0.24522 0.13771 0.01111 0.0
H812 H 0.59739 0.55183 0.89144 0.0
H813 H 0.60898 0.46473 0.73119 0.0
H814 H 0.61621 0.50127 0.9506 0.0
H815 H 0.61366 0.51858 0.6726 0.0
H816 H 0.61082 0.47751 0.81211 0.0
H817 H 0.60237 0.53983 0.81069 0.0
C818 C 0.60274 0.53827 0.88738 0.0
C819 C 0.60633 0.52748 0.92761 0.0
C820 C 0.6117 0.48649 0.7815 0.0
C821 C 0.61177 0.5136 0.83562 0.0
C822 C 0.6106 0.47922 0.7354 0.0
C823 C 0.61108 0.49065 0.69527 0.0
C824 C 0.61289 0.50533 0.7874 0.0
C825 C 0.61323 0.50931 0.70263 0.0
C826 C 0.60563 0.53145 0.84136 0.0
C827 C 0.61328 0.51002 0.92044 0.0
N828 N 0.61379 0.51611 0.74786 0.0
N829 N 0.61553 0.50351 0.87526 0.0
H830 H 0.21495 0.87822 0.65034 0.0
H831 H 0.29892 0.85823 0.48514 0.0
H832 H 0.26871 0.87198 0.7083 0.0
H833 H 0.2512 0.88525 0.43206 0.0
H834 H 0.2885 0.86356 0.56729 0.0
H835 H 0.22798 0.8814 0.57014 0.0
C836 C 0.22952 0.87779 0.64623 0.0
C837 C 0.24077 0.87473 0.68589 0.0
C838 C 0.28046 0.86858 0.53768 0.0
C839 C 0.25575 0.87799 0.59425 0.0
C840 C 0.28638 0.86551 0.49082 0.0
C841 C 0.27583 0.87119 0.45181 0.0
C842 C 0.2637 0.87706 0.54549 0.0
C843 C 0.25972 0.88061 0.46115 0.0
C844 C 0.23696 0.87963 0.60048 0.0
C845 C 0.25957 0.87432 0.67862 0.0
N846 N 0.25399 0.88299 0.50704 0.0
N847 N 0.26646 0.87561 0.63353 0.0
H848 H 0.61838 0.03776 0.20991 0.0
H849 H 0.60657 0.95205 0.37361 0.0
H850 H 0.61937 0.98388 0.15048 0.0
H851 H 0.62984 0.00163 0.42731 0.0
H852 H 0.61079 0.96316 0.29156 0.0
H853 H 0.62219 0.0249 0.29011 0.0
C854 C 0.61962 0.02323 0.21376 0.0
C855 C 0.61849 0.01185 0.17365 0.0
C856 C 0.61524 0.97147 0.3213 0.0
C857 C 0.62251 0.99703 0.26522 0.0
C858 C 0.61281 0.96516 0.36807 0.0
C859 C 0.61777 0.976 0.40722 0.0
C860 C 0.62231 0.98888 0.31376 0.0
C861 C 0.62581 0.99286 0.3981 0.0
C862 C 0.62185 0.0159 0.25947 0.0
C863 C 0.62021 0.99311 0.18054 0.0
N864 N 0.62755 0.99892 0.35232 0.0
N865 N 0.62183 0.98624 0.22561 0.0
H866 H 0.2131 0.36983 0.45494 0.0
H867 H 0.29892 0.35974 0.61985 0.0
H868 H 0.26719 0.37061 0.39673 0.0
H869 H 0.24846 0.38112 0.67321 0.0
H870 H 0.28786 0.36379 0.53775 0.0
H871 H 0.2257 0.37414 0.53527 0.0
C872 C 0.22762 0.37115 0.45905 0.0
C873 C 0.23914 0.36977 0.41926 0.0
C874 C 0.27933 0.36787 0.56742 0.0
C875 C 0.25366 0.37437 0.51101 0.0
C876 C 0.28562 0.36554 0.61423 0.0
C877 C 0.27453 0.37 0.6533 0.0
C878 C 0.2617 0.37435 0.55971 0.0
C879 C 0.25743 0.37748 0.64406 0.0
C880 C 0.2348 0.37365 0.50485 0.0
C881 C 0.25784 0.37161 0.42652 0.0
N882 N 0.25141 0.37914 0.59821 0.0
N883 N 0.26456 0.37351 0.47165 0.0
H884 H 0.87881 0.03966 0.89648 0.0
H885 H 0.88915 0.95571 0.72541 0.0
H886 H 0.87841 0.9851 0.95149 0.0
H887 H 0.86756 0.00676 0.67671 0.0
H888 H 0.88502 0.96568 0.80851 0.0
H889 H 0.8745 0.02776 0.81554 0.0
C890 C 0.8776 0.02517 0.8915 0.0
C891 C 0.87906 0.01333 0.93055 0.0
C892 C 0.8809 0.97456 0.77961 0.0
C893 C 0.87444 0.99959 0.83807 0.0
C894 C 0.88328 0.9689 0.73223 0.0
C895 C 0.87884 0.9805 0.69421 0.0
C896 C 0.87437 0.99206 0.78885 0.0
C897 C 0.87124 0.99742 0.70498 0.0
C898 C 0.87508 0.01838 0.84536 0.0
C899 C 0.87734 0.99468 0.92223 0.0
N900 N 0.86952 0.00281 0.75131 0.0
N901 N 0.87542 0.98833 0.87672 0.0
H902 H 0.22489 0.64525 0.89928 0.0
H903 H 0.24529 0.62546 0.17573 0.0
H904 H 0.27862 0.63876 0.95732 0.0
H905 H 0.19824 0.65523 0.12897 0.0
H906 H 0.25482 0.62246 0.09217 0.0
H907 H 0.21238 0.64149 0.98033 0.0
C908 C 0.23401 0.64278 0.92897 0.0
C909 C 0.2528 0.64244 0.92185 0.0
C910 C 0.24229 0.62945 0.10022 0.0
C911 C 0.23865 0.63795 0.01391 0.0
C912 C 0.23679 0.63109 0.14782 0.0
C913 C 0.22105 0.64077 0.15926 0.0
C914 C 0.23188 0.63737 0.06377 0.0
C915 C 0.21055 0.64778 0.12164 0.0
C916 C 0.22688 0.64071 0.97507 0.0
C917 C 0.26406 0.63926 0.96143 0.0
N918 N 0.21621 0.64603 0.07546 0.0
N919 N 0.2568 0.63714 0.0058 0.0
H920 H 0.39732 0.9541 0.8817 0.0
H921 H 0.38786 0.03941 0.7142 0.0
H922 H 0.37722 0.00519 0.93425 0.0
H923 H 0.38487 0.98513 0.65785 0.0
H924 H 0.38441 0.02726 0.79531 0.0
H925 H 0.39331 0.96498 0.79938 0.0
C926 C 0.39185 0.96752 0.87587 0.0
C927 C 0.38769 0.97881 0.91476 0.0
C928 C 0.38425 0.01803 0.76516 0.0
C929 C 0.38336 0.99143 0.82095 0.0
C930 C 0.38626 0.02495 0.71892 0.0
C931 C 0.38672 0.01324 0.67938 0.0
C932 C 0.3831 0.99923 0.77199 0.0
C933 C 0.38456 0.99461 0.68743 0.0
C934 C 0.38953 0.9737 0.82894 0.0
C935 C 0.38062 0.99606 0.90525 0.0
N936 N 0.38314 0.98814 0.73294 0.0
N937 N 0.37894 0.00196 0.85929 0.0
H938 H 0.70206 0.64548 0.47475 0.0
H939 H 0.78718 0.63559 0.64315 0.0
H940 H 0.75342 0.62567 0.4231 0.0
H941 H 0.73283 0.63312 0.69925 0.0
H942 H 0.77507 0.63233 0.56202 0.0
H943 H 0.71271 0.64132 0.55728 0.0
C944 C 0.71548 0.64002 0.4808 0.0
C945 C 0.72692 0.63602 0.4421 0.0
C946 C 0.7658 0.63225 0.59209 0.0
C947 C 0.73926 0.63153 0.53612 0.0
C948 C 0.7727 0.63417 0.63836 0.0
C949 C 0.76097 0.63469 0.67783 0.0
C950 C 0.74699 0.63126 0.58516 0.0
C951 C 0.74232 0.63275 0.66969 0.0
C952 C 0.72153 0.63763 0.52785 0.0
C953 C 0.74417 0.62896 0.45191 0.0
N954 N 0.73586 0.6314 0.62414 0.0
N955 N 0.74992 0.62721 0.49795 0.0
H956 H 0.11405 0.03333 0.40402 0.0
H957 H 0.09821 0.949 0.2363 0.0
H958 H 0.11127 0.97912 0.46103 0.0
H959 H 0.12272 0.99841 0.18533 0.0
H960 H 0.10273 0.95937 0.31896 0.0
H961 H 0.11704 0.02075 0.32334 0.0
C962 C 0.11427 0.01876 0.39953 0.0
C963 C 0.11233 0.00723 0.43908 0.0
C964 C 0.10737 0.96779 0.28964 0.0
C965 C 0.11544 0.99276 0.34696 0.0
C966 C 0.10477 0.9619 0.24254 0.0
C967 C 0.10998 0.97294 0.204 0.0
C968 C 0.11491 0.98496 0.29807 0.0
C969 C 0.11844 0.98951 0.21402 0.0
C970 C 0.11603 0.01159 0.35354 0.0
C971 C 0.11275 0.98846 0.43138 0.0
N972 N 0.12039 0.99515 0.26007 0.0
N973 N 0.11397 0.98178 0.38605 0.0
H974 H 0.72132 0.36607 0.14621 0.0
H975 H 0.80869 0.35321 0.98776 0.0
H976 H 0.7749 0.36444 0.20762 0.0
H977 H 0.7587 0.374 0.9298 0.0
H978 H 0.79698 0.35818 0.06876 0.0
H979 H 0.73478 0.36988 0.06671 0.0
C980 C 0.73592 0.36674 0.14298 0.0
C981 C 0.74703 0.36479 0.18342 0.0
C982 C 0.78869 0.36194 0.03833 0.0
C983 C 0.76251 0.36888 0.09264 0.0
C984 C 0.79536 0.35909 0.99212 0.0
C985 C 0.78458 0.36307 0.95211 0.0
C986 C 0.77099 0.36848 0.04449 0.0
C987 C 0.76743 0.3707 0.95973 0.0
C988 C 0.74359 0.36896 0.09765 0.0
C989 C 0.76585 0.36584 0.1773 0.0
N990 N 0.76104 0.37288 0.00505 0.0
N991 N 0.77302 0.36753 0.13263 0.0
H992 H 0.09316 0.54479 0.38245 0.0
H993 H 0.13147 0.4739 0.19192 0.0
H994 H 0.12683 0.49961 0.42303 0.0
H995 H 0.09465 0.51749 0.15934 0.0
H996 H 0.13438 0.48558 0.27401 0.0
H997 H 0.09785 0.53736 0.29865 0.0
C998 C 0.10161 0.53328 0.37366 0.0
C999 C 0.1094 0.52263 0.40976 0.0
C1000 C 0.12592 0.49274 0.24861 0.0
C1001 C 0.11479 0.51392 0.31328 0.0
C1002 C 0.12437 0.48617 0.20171 0.0
C1003 C 0.11269 0.49469 0.16902 0.0
C1004 C 0.11577 0.50794 0.26255 0.0
C1005 C 0.10369 0.51044 0.18354 0.0
C1006 C 0.10433 0.52907 0.32565 0.0
C1007 C 0.12046 0.50807 0.39619 0.0
N1008 N 0.1053 0.51644 0.22928 0.0
N1009 N 0.12267 0.50399 0.34888 0.0
H1010 H 0.7176 0.88534 0.66526 0.0
H1011 H 0.79347 0.85573 0.47835 0.0
H1012 H 0.76656 0.85663 0.70139 0.0
H1013 H 0.74375 0.88174 0.43573 0.0
H1014 H 0.78606 0.86143 0.56185 0.0
H1015 H 0.72917 0.88972 0.58361 0.0
C1016 C 0.73097 0.88037 0.65634 0.0
C1017 C 0.74108 0.87042 0.68982 0.0
C1018 C 0.77678 0.86606 0.53442 0.0
C1019 C 0.75425 0.87518 0.59679 0.0
C1020 C 0.78099 0.86276 0.48666 0.0
C1021 C 0.76903 0.868 0.45022 0.0
C1022 C 0.76031 0.87444 0.54613 0.0
C1023 C 0.75323 0.87736 0.46293 0.0
C1024 C 0.73751 0.88277 0.60969 0.0
C1025 C 0.75826 0.8642 0.67648 0.0
N1026 N 0.74916 0.88005 0.51005 0.0
N1027 N 0.7642 0.86651 0.63089 0.0
H1028 H 0.38917 0.53099 0.74808 0.0
H1029 H 0.36142 0.45564 0.93658 0.0
H1030 H 0.36694 0.47929 0.70679 0.0
H1031 H 0.38312 0.50808 0.97308 0.0
H1032 H 0.35722 0.46596 0.85387 0.0
H1033 H 0.38147 0.52466 0.83106 0.0
C1034 C 0.38261 0.51827 0.75659 0.0
C1035 C 0.37902 0.50546 0.72081 0.0
C1036 C 0.36251 0.47533 0.88024 0.0
C1037 C 0.37022 0.49802 0.81606 0.0
C1038 C 0.36477 0.4695 0.92752 0.0
C1039 C 0.37292 0.48096 0.96136 0.0
C1040 C 0.36846 0.49269 0.86706 0.0
C1041 C 0.37705 0.49874 0.94784 0.0
C1042 C 0.3781 0.5147 0.80401 0.0
C1043 C 0.37012 0.4894 0.73358 0.0
N1044 N 0.37503 0.50396 0.90156 0.0
N1045 N 0.36628 0.48598 0.78046 0.0
H1046 H 0.72378 0.12149 0.17341 0.0
H1047 H 0.71951 0.10013 0.93437 0.0
H1048 H 0.77875 0.10193 0.17001 0.0
H1049 H 0.77377 0.12149 0.94281 0.0
H1050 H 0.72099 0.09246 0.01977 0.0
H1051 H 0.72045 0.11316 0.0889 0.0
C1052 C 0.73492 0.11485 0.15528 0.0
C1053 C 0.75153 0.11238 0.17856 0.0
C1054 C 0.73271 0.09839 0.00251 0.0
C1055 C 0.74802 0.10323 0.08196 0.0
C1056 C 0.73199 0.10258 0.95372 0.0
C1057 C 0.74649 0.11167 0.93177 0.0
C1058 C 0.74812 0.10314 0.02907 0.0
C1059 C 0.76225 0.11466 0.9586 0.0
C1060 C 0.73301 0.11004 0.10713 0.0
C1061 C 0.76566 0.10394 0.15336 0.0
N1062 N 0.76259 0.11058 0.00611 0.0
N1063 N 0.76378 0.1002 0.1059 0.0
H1064 H 0.8539 0.46122 0.68271 0.0
H1065 H 0.87149 0.47062 0.9237 0.0
H1066 H 0.87549 0.51547 0.68531 0.0
H1067 H 0.85238 0.52547 0.90905 0.0
H1068 H 0.86472 0.46541 0.83887 0.0
H1069 H 0.84528 0.46445 0.76722 0.0
C1070 C 0.85629 0.47402 0.7006 0.0
C1071 C 0.86564 0.48805 0.67734 0.0
C1072 C 0.86135 0.47837 0.85465 0.0
C1073 C 0.85597 0.49169 0.77351 0.0
C1074 C 0.86527 0.48134 0.90297 0.0
C1075 C 0.86246 0.49846 0.92323 0.0
C1076 C 0.85513 0.4928 0.82628 0.0
C1077 C 0.8546 0.51202 0.89477 0.0
C1078 C 0.85153 0.47575 0.74884 0.0
C1079 C 0.86849 0.50428 0.70221 0.0
N1080 N 0.85175 0.50908 0.84725 0.0
N1081 N 0.86381 0.50562 0.7492 0.0
H1082 H 0.26599 0.1204 0.67017 0.0
H1083 H 0.23708 0.13858 0.39953 0.0
H1084 H 0.21639 0.14612 0.6252 0.0
H1085 H 0.2887 0.11581 0.43928 0.0
H1086 H 0.22653 0.13427 0.48153 0.0
H1087 H 0.2722 0.1125 0.58609 0.0
C1088 C 0.25636 0.12421 0.64269 0.0
C1089 C 0.24087 0.13425 0.65434 0.0
C1090 C 0.24006 0.12988 0.47226 0.0
C1091 C 0.24769 0.12515 0.55883 0.0
C1092 C 0.24603 0.13224 0.42532 0.0
C1093 C 0.26385 0.12781 0.41295 0.0
C1094 C 0.25213 0.1234 0.50724 0.0
C1095 C 0.27487 0.11952 0.44757 0.0
C1096 C 0.25986 0.11967 0.59484 0.0
C1097 C 0.2287 0.1387 0.61763 0.0
N1098 N 0.26897 0.11795 0.49357 0.0
N1099 N 0.23244 0.13425 0.57159 0.0
H1100 H 0.62004 0.49957 0.16995 0.0
H1101 H 0.61916 0.5204 0.45146 0.0
H1102 H 0.60665 0.55161 0.23041 0.0
H1103 H 0.61041 0.46747 0.39037 0.0
H1104 H 0.62424 0.53242 0.37041 0.0
H1105 H 0.6264 0.48826 0.25102 0.0
C1106 C 0.61883 0.50869 0.20018 0.0
C1107 C 0.61254 0.52641 0.19386 0.0
C1108 C 0.62147 0.51813 0.37499 0.0
C1109 C 0.6198 0.51371 0.28592 0.0
C1110 C 0.61861 0.51129 0.42106 0.0
C1111 C 0.61405 0.49304 0.42723 0.0
C1112 C 0.62001 0.50652 0.33526 0.0
C1113 C 0.61358 0.48172 0.38688 0.0
C1114 C 0.62238 0.50224 0.24629 0.0
C1115 C 0.6112 0.53774 0.23404 0.0
N1116 N 0.61639 0.48867 0.3425 0.0
N1117 N 0.61464 0.53116 0.2785 0.0
H1118 H 0.25624 0.88918 0.9389 0.0
H1119 H 0.23337 0.86271 0.21015 0.0
H1120 H 0.21108 0.85639 0.98451 0.0
H1121 H 0.2832 0.8889 0.16898 0.0
H1122 H 0.222 0.86676 0.12887 0.0
H1123 H 0.26368 0.89489 0.02368 0.0
C1124 C 0.2478 0.88339 0.96671 0.0
C1125 C 0.23322 0.87207 0.95487 0.0
C1126 C 0.23534 0.87188 0.13763 0.0
C1127 C 0.24145 0.87863 0.05115 0.0
C1128 C 0.24178 0.86964 0.18414 0.0
C1129 C 0.25932 0.87527 0.19604 0.0
C1130 C 0.2466 0.87957 0.10248 0.0
C1131 C 0.26961 0.88429 0.16109 0.0
C1132 C 0.25203 0.88663 0.01494 0.0
C1133 C 0.22263 0.86495 0.99207 0.0
N1134 N 0.26322 0.88589 0.11551 0.0
N1135 N 0.22701 0.86826 0.0384 0.0
H1136 H 0.63704 0.96674 0.68965 0.0
H1137 H 0.60743 0.04368 0.87349 0.0
H1138 H 0.61004 0.01635 0.65061 0.0
H1139 H 0.6323 0.99365 0.91833 0.0
H1140 H 0.61357 0.03592 0.7904 0.0
H1141 H 0.64088 0.9784 0.77137 0.0
C1142 C 0.63234 0.98027 0.69796 0.0
C1143 C 0.62301 0.99054 0.66359 0.0
C1144 C 0.61785 0.02664 0.81824 0.0
C1145 C 0.62715 0.00382 0.75675 0.0
C1146 C 0.6143 0.03106 0.86576 0.0
C1147 C 0.6191 0.01913 0.90271 0.0
C1148 C 0.62606 0.01002 0.80727 0.0
C1149 C 0.62826 0.00313 0.89074 0.0
C1150 C 0.63443 0.98686 0.74465 0.0
C1151 C 0.61714 0.00792 0.67619 0.0
N1152 N 0.63121 0.99889 0.84385 0.0
N1153 N 0.61912 0.01391 0.72185 0.0
H1154 H 0.20886 0.35596 0.12001 0.0
H1155 H 0.28462 0.38826 0.93672 0.0
H1156 H 0.25748 0.38342 0.1653 0.0
H1157 H 0.23461 0.36219 0.89655 0.0
H1158 H 0.2731 0.39156 0.01872 0.0
H1159 H 0.21623 0.36278 0.03707 0.0
C1160 C 0.22109 0.36354 0.11239 0.0
C1161 C 0.23275 0.36888 0.1494 0.0
C1162 C 0.26452 0.38545 0.99172 0.0
C1163 C 0.24143 0.37663 0.05411 0.0
C1164 C 0.27104 0.38366 0.94486 0.0
C1165 C 0.26062 0.37471 0.91006 0.0
C1166 C 0.24751 0.37821 0.00357 0.0
C1167 C 0.24317 0.36897 0.92246 0.0
C1168 C 0.22527 0.3675 0.06495 0.0
C1169 C 0.24823 0.37894 0.13763 0.0
N1170 N 0.23727 0.37061 0.96829 0.0
N1171 N 0.2523 0.38226 0.09078 0.0
H1172 H 0.88374 0.02398 0.45582 0.0
H1173 H 0.86217 0.99618 0.18599 0.0
H1174 H 0.85879 0.97324 0.41732 0.0
H1175 H 0.88971 0.04494 0.22995 0.0
H1176 H 0.85482 0.99002 0.27052 0.0
H1177 H 0.8792 0.03472 0.37409 0.0
C1178 C 0.87691 0.01526 0.43033 0.0
C1179 C 0.87186 0.99764 0.443 0.0
C1180 C 0.86225 0.00219 0.26145 0.0
C1181 C 0.86714 0.00956 0.34895 0.0
C1182 C 0.86644 0.00568 0.21334 0.0
C1183 C 0.87686 0.02087 0.20128 0.0
C1184 C 0.86846 0.01408 0.29728 0.0
C1185 C 0.88196 0.03285 0.23784 0.0
C1186 C 0.87441 0.02134 0.38356 0.0
C1187 C 0.86296 0.98691 0.40878 0.0
N1188 N 0.87785 0.02912 0.2841 0.0
N1189 N 0.86123 0.99289 0.36288 0.0
H1190 H 0.23691 0.62479 0.66748 0.0
H1191 H 0.26677 0.64147 0.39713 0.0
H1192 H 0.28665 0.6504 0.62291 0.0
H1193 H 0.2155 0.61777 0.43631 0.0
H1194 H 0.27709 0.63784 0.47955 0.0
H1195 H 0.23115 0.61625 0.58364 0.0
C1196 C 0.24665 0.62847 0.64013 0.0
C1197 C 0.26206 0.63864 0.65181 0.0
C1198 C 0.26369 0.63309 0.47008 0.0
C1199 C 0.25576 0.62878 0.55659 0.0
C1200 C 0.25787 0.63505 0.42291 0.0
C1201 C 0.24019 0.63018 0.41025 0.0
C1202 C 0.2516 0.62657 0.50498 0.0
C1203 C 0.22922 0.62181 0.44483 0.0
C1204 C 0.24342 0.62355 0.59244 0.0
C1205 C 0.27439 0.64289 0.61531 0.0
N1206 N 0.23494 0.62065 0.49105 0.0
N1207 N 0.2709 0.63808 0.56939 0.0
H1208 H 0.38885 0.01861 0.15253 0.0
H1209 H 0.36884 0.99426 0.42632 0.0
H1210 H 0.36748 0.96703 0.19793 0.0
H1211 H 0.39621 0.04237 0.377 0.0
H1212 H 0.36186 0.98654 0.34248 0.0
H1213 H 0.38451 0.03021 0.23357 0.0
C1214 C 0.38288 0.00984 0.17936 0.0
C1215 C 0.37879 0.99177 0.16877 0.0
C1216 C 0.36917 0.9989 0.3502 0.0
C1217 C 0.37419 0.00478 0.26195 0.0
C1218 C 0.37313 0.0033 0.39793 0.0
C1219 C 0.38338 0.01878 0.40835 0.0
C1220 C 0.37541 0.01019 0.31306 0.0
C1221 C 0.38856 0.03011 0.37043 0.0
C1222 C 0.38049 0.01643 0.22574 0.0
C1223 C 0.37096 0.98103 0.20478 0.0
N1224 N 0.38464 0.02553 0.32455 0.0
N1225 N 0.36922 0.98759 0.25011 0.0
H1226 H 0.76782 0.63717 0.20495 0.0
H1227 H 0.74117 0.61779 0.93279 0.0
H1228 H 0.71579 0.61601 0.16266 0.0
H1229 H 0.79084 0.6428 0.98007 0.0
H1230 H 0.73377 0.6109 0.01689 0.0
H1231 H 0.77888 0.63236 0.12363 0.0
C1232 C 0.75885 0.63113 0.17872 0.0
C1233 C 0.74082 0.62723 0.19025 0.0
C1234 C 0.7464 0.61767 0.00866 0.0
C1235 C 0.75317 0.62216 0.09666 0.0
C1236 C 0.75059 0.62159 0.96078 0.0
C1237 C 0.76644 0.63117 0.94973 0.0
C1238 C 0.75824 0.62328 0.0453 0.0
C1239 C 0.77829 0.63571 0.98713 0.0
C1240 C 0.76512 0.62846 0.13217 0.0
C1241 C 0.72979 0.61929 0.15505 0.0
N1242 N 0.77388 0.63185 0.03315 0.0
N1243 N 0.73602 0.61736 0.10944 0.0
H1244 H 0.13218 0.9656 0.92902 0.0
H1245 H 0.10141 0.0395 0.73878 0.0
H1246 H 0.10525 0.0157 0.96373 0.0
H1247 H 0.12538 0.98847 0.6986 0.0
H1248 H 0.10855 0.0333 0.82215 0.0
H1249 H 0.13609 0.97624 0.84646 0.0
C1250 C 0.12761 0.97907 0.91963 0.0
C1251 C 0.11815 0.98972 0.9529 0.0
C1252 C 0.11238 0.02345 0.79526 0.0
C1253 C 0.12229 0.00179 0.85879 0.0
C1254 C 0.10821 0.02694 0.7476 0.0
C1255 C 0.11247 0.01428 0.71195 0.0
C1256 C 0.12067 0.00703 0.80771 0.0
C1257 C 0.12166 0.99845 0.72523 0.0
C1258 C 0.1297 0.98506 0.87243 0.0
C1259 C 0.11241 0.00699 0.93895 0.0
N1260 N 0.12523 0.99512 0.77232 0.0
N1261 N 0.11435 0.01238 0.89277 0.0
H1262 H 0.7452 0.34365 0.70926 0.0
H1263 H 0.76511 0.37486 0.44006 0.0
H1264 H 0.79031 0.37789 0.67159 0.0
H1265 H 0.72115 0.34003 0.48346 0.0
H1266 H 0.77287 0.37937 0.52498 0.0
H1267 H 0.73389 0.34616 0.62755 0.0
C1268 C 0.75255 0.35197 0.68387 0.0
C1269 C 0.76877 0.36044 0.69693 0.0
C1270 C 0.76147 0.37084 0.51577 0.0
C1271 C 0.7562 0.36302 0.60284 0.0
C1272 C 0.75709 0.36822 0.46741 0.0
C1273 C 0.74263 0.35688 0.45479 0.0
C1274 C 0.75123 0.36209 0.55141 0.0
C1275 C 0.73256 0.34872 0.49151 0.0
C1276 C 0.74615 0.35334 0.6371 0.0
C1277 C 0.77773 0.37114 0.66279 0.0
N1278 N 0.73709 0.35143 0.538 0.0
N1279 N 0.77148 0.37189 0.61692 0.0
H1280 H 0.11951 0.40378 0.05897 0.0
H1281 H 0.1631 0.34392 0.21146 0.0
H1282 H 0.09794 0.42813 0.1874 0.0
H1283 H 0.16747 0.39253 0.29636 0.0
H1284 H 0.13776 0.35754 0.16752 0.0
H1285 H 0.13579 0.38181 0.10868 0.0
C1286 C 0.11782 0.40418 0.09754 0.0
C1287 C 0.10742 0.41777 0.11915 0.0
C1288 C 0.14412 0.36507 0.19629 0.0
C1289 C 0.12612 0.39295 0.17609 0.0
C1290 C 0.15842 0.35726 0.22171 0.0
C1291 C 0.16749 0.36725 0.25716 0.0
C1292 C 0.1388 0.38284 0.20695 0.0
C1293 C 0.16094 0.38449 0.26891 0.0
C1294 C 0.12703 0.3916 0.12588 0.0
C1295 C 0.10578 0.41781 0.16932 0.0
N1296 N 0.14702 0.3918 0.24363 0.0
N1297 N 0.11544 0.40589 0.19619 0.0
H1298 H 0.87859 0.90688 0.53893 0.0
H1299 H 0.83954 0.84636 0.38111 0.0
H1300 H 0.89744 0.93544 0.41357 0.0
H1301 H 0.83134 0.89568 0.30124 0.0
H1302 H 0.86414 0.86108 0.42541 0.0
H1303 H 0.86451 0.88427 0.48669 0.0
C1304 C 0.88018 0.90809 0.50045 0.0
C1305 C 0.88911 0.92304 0.48049 0.0
C1306 C 0.85713 0.86854 0.39762 0.0
C1307 C 0.87293 0.89745 0.42065 0.0
C1308 C 0.84325 0.86012 0.37196 0.0
C1309 C 0.83326 0.86995 0.33799 0.0
C1310 C 0.86109 0.88681 0.38871 0.0
C1311 C 0.83859 0.88773 0.32759 0.0
C1312 C 0.87225 0.89514 0.47065 0.0
C1313 C 0.8907 0.92407 0.43039 0.0
N1314 N 0.85208 0.89566 0.35318 0.0
N1315 N 0.88224 0.91171 0.40212 0.0
H1316 H 0.34282 0.5554 0.60177 0.0
H1317 H 0.33713 0.64838 0.73449 0.0
H1318 H 0.39362 0.58206 0.63161 0.0
H1319 H 0.30809 0.60076 0.78076 0.0
H1320 H 0.35685 0.6289 0.68513 0.0
H1321 H 0.32733 0.57781 0.65082 0.0
C1322 C 0.3507 0.5662 0.61777 0.0
C1323 C 0.36957 0.56673 0.61308 0.0
C1324 C 0.34633 0.62284 0.70691 0.0
C1325 C 0.35186 0.59233 0.66949 0.0
C1326 C 0.3352 0.63385 0.73527 0.0
C1327 C 0.32084 0.62617 0.76139 0.0
C1328 C 0.34269 0.60423 0.70418 0.0
C1329 C 0.31885 0.6073 0.7609 0.0
C1330 C 0.34185 0.57886 0.64611 0.0
C1331 C 0.37904 0.58114 0.63456 0.0
N1332 N 0.32939 0.59703 0.73196 0.0
N1333 N 0.37007 0.59341 0.66228 0.0
H1334 H 0.69471 0.14588 0.96369 0.0
H1335 H 0.60238 0.0897 0.96621 0.0
H1336 H 0.66476 0.13256 0.83562 0.0
H1337 H 0.64603 0.08139 0.0665 0.0
H1338 H 0.61964 0.11447 0.92938 0.0
H1339 H 0.67111 0.13143 0.01192 0.0
C1340 C 0.6829 0.14041 0.94578 0.0
C1341 C 0.68176 0.14023 0.89553 0.0
C1342 C 0.6252 0.10748 0.9602 0.0
C1343 C 0.65479 0.12376 0.95051 0.0
C1344 C 0.61533 0.09347 0.98144 0.0
C1345 C 0.62291 0.08343 0.01916 0.0
C1346 C 0.64255 0.11163 0.97748 0.0
C1347 C 0.6398 0.08873 0.03723 0.0
C1348 C 0.66952 0.13208 0.97334 0.0
C1349 C 0.66622 0.13284 0.87425 0.0
N1350 N 0.64914 0.1024 0.01599 0.0
N1351 N 0.65339 0.12472 0.90186 0.0
H1352 H 0.17818 0.65873 0.4437 0.0
H1353 H 0.14137 0.58579 0.56386 0.0
H1354 H 0.15132 0.63298 0.32439 0.0
H1355 H 0.09477 0.59276 0.47263 0.0
H1356 H 0.15623 0.61099 0.52256 0.0
H1357 H 0.15803 0.64262 0.49877 0.0
C1358 C 0.16775 0.65004 0.42899 0.0
C1359 C 0.16657 0.64698 0.37939 0.0
C1360 C 0.14253 0.60738 0.51257 0.0
C1361 C 0.14371 0.62843 0.4422 0.0
C1362 C 0.1341 0.59296 0.53599 0.0
C1363 C 0.11682 0.5873 0.52173 0.0
C1364 C 0.13378 0.61584 0.47385 0.0
C1365 C 0.10804 0.59687 0.48497 0.0
C1366 C 0.15641 0.64074 0.4605 0.0
C1367 C 0.1528 0.63558 0.3624 0.0
N1368 N 0.11681 0.6104 0.4614 0.0
N1369 N 0.14196 0.62658 0.39383 0.0
H1370 H 0.59523 0.92025 0.6721 0.0
H1371 H 0.67121 0.84351 0.68007 0.0
H1372 H 0.62652 0.90331 0.54945 0.0
H1373 H 0.65381 0.87413 0.80345 0.0
H1374 H 0.64771 0.85828 0.63218 0.0
H1375 H 0.60949 0.89635 0.71971 0.0
C1376 C 0.60475 0.91121 0.65485 0.0
C1377 C 0.60991 0.91391 0.60694 0.0
C1378 C 0.64881 0.86148 0.66997 0.0
C1379 C 0.62625 0.88664 0.66118 0.0
C1380 C 0.66214 0.85299 0.69741 0.0
C1381 C 0.66461 0.85782 0.74564 0.0
C1382 C 0.63781 0.87476 0.69104 0.0
C1383 C 0.65249 0.87018 0.76624 0.0
C1384 C 0.61294 0.89764 0.68212 0.0
C1385 C 0.62232 0.90181 0.58642 0.0
N1386 N 0.63973 0.87839 0.73867 0.0
N1387 N 0.63023 0.88881 0.61381 0.0
H1388 H 0.33131 0.34228 0.91453 0.0
H1389 H 0.40785 0.4178 0.94035 0.0
H1390 H 0.34727 0.37875 0.80131 0.0
H1391 H 0.37892 0.39443 0.05966 0.0
H1392 H 0.39313 0.39614 0.88669 0.0
H1393 H 0.35589 0.3541 0.96434 0.0
C1394 C 0.34025 0.35247 0.89971 0.0
C1395 C 0.33709 0.35977 0.854 0.0
C1396 C 0.39034 0.39549 0.92478 0.0
C1397 C 0.36516 0.37331 0.91078 0.0
C1398 C 0.39882 0.40776 0.95551 0.0
C1399 C 0.39435 0.40809 0.00443 0.0
C1400 C 0.37741 0.38342 0.9432 0.0
C1401 C 0.38257 0.39477 0.02207 0.0
C1402 C 0.35422 0.35924 0.92824 0.0
C1403 C 0.34911 0.37292 0.83658 0.0
N1404 N 0.37429 0.38313 0.99135 0.0
N1405 N 0.3625 0.37943 0.86522 0.0
H1406 H 0.83431 0.12882 0.283 0.0
H1407 H 0.89891 0.09038 0.13633 0.0
H1408 H 0.80763 0.14586 0.15302 0.0
H1409 H 0.85211 0.08217 0.04641 0.0
H1410 H 0.88276 0.1147 0.17816 0.0
H1411 H 0.85852 0.11552 0.23469 0.0
C1412 C 0.83383 0.13021 0.24435 0.0
C1413 C 0.81893 0.13836 0.22194 0.0
C1414 C 0.87616 0.10774 0.1488 0.0
C1415 C 0.84643 0.12309 0.16647 0.0
C1416 C 0.88543 0.09404 0.12452 0.0
C1417 C 0.87668 0.08412 0.08838 0.0
C1418 C 0.85814 0.11155 0.1364 0.0
C1419 C 0.85922 0.08936 0.07453 0.0
C1420 C 0.84771 0.12272 0.21676 0.0
C1421 C 0.81889 0.1397 0.17173 0.0
N1422 N 0.85045 0.10264 0.09886 0.0
N1423 N 0.83219 0.13171 0.14561 0.0
H1424 H 0.87585 0.58344 0.03049 0.0
H1425 H 0.83803 0.64962 0.88639 0.0
H1426 H 0.89151 0.55707 0.8989 0.0
H1427 H 0.82762 0.60331 0.79631 0.0
H1428 H 0.86186 0.63246 0.92742 0.0
H1429 H 0.86221 0.60789 0.98352 0.0
C1430 C 0.87683 0.58306 0.99174 0.0
C1431 C 0.88476 0.56823 0.96851 0.0
C1432 C 0.85451 0.62618 0.89823 0.0
C1433 C 0.8691 0.59597 0.91461 0.0
C1434 C 0.84108 0.63601 0.87442 0.0
C1435 C 0.83071 0.62774 0.83837 0.0
C1436 C 0.85762 0.60807 0.88544 0.0
C1437 C 0.83518 0.61008 0.82432 0.0
C1438 C 0.86915 0.59706 0.96494 0.0
C1439 C 0.88557 0.5683 0.91821 0.0
N1440 N 0.84824 0.60077 0.84814 0.0
N1441 N 0.87741 0.58173 0.89289 0.0
H1442 H 0.10311 0.09077 0.62389 0.0
H1443 H 0.19005 0.09941 0.78353 0.0
H1444 H 0.15208 0.0603 0.59908 0.0
H1445 H 0.16581 0.14933 0.73502 0.0
H1446 H 0.16904 0.0826 0.73299 0.0
H1447 H 0.12034 0.11132 0.67672 0.0
C1448 C 0.1175 0.08865 0.62862 0.0
C1449 C 0.12616 0.07373 0.60732 0.0
C1450 C 0.16816 0.09724 0.73405 0.0
C1451 C 0.14547 0.09653 0.66858 0.0
C1452 C 0.18001 0.10684 0.76318 0.0
C1453 C 0.17985 0.12581 0.76293 0.0
C1454 C 0.1559 0.1066 0.70485 0.0
C1455 C 0.16643 0.1347 0.73598 0.0
C1456 C 0.12722 0.10026 0.65894 0.0
C1457 C 0.14479 0.07152 0.61491 0.0
N1458 N 0.15501 0.12499 0.70743 0.0
N1459 N 0.15373 0.08256 0.64561 0.0
H1460 H 0.69484 0.40314 0.34864 0.0
H1461 H 0.60391 0.41054 0.49473 0.0
H1462 H 0.66351 0.35453 0.37108 0.0
H1463 H 0.65277 0.43945 0.53157 0.0
H1464 H 0.62175 0.39124 0.44034 0.0
H1465 H 0.6746 0.41936 0.40239 0.0
C1466 C 0.68348 0.39594 0.36412 0.0
C1467 C 0.68097 0.3774 0.35576 0.0
C1468 C 0.62849 0.40165 0.46103 0.0
C1469 C 0.65786 0.39592 0.41777 0.0
C1470 C 0.6184 0.41256 0.49223 0.0
C1471 C 0.62687 0.4267 0.51745 0.0
C1472 C 0.64697 0.40528 0.45453 0.0
C1473 C 0.64565 0.42881 0.5127 0.0
C1474 C 0.67206 0.40518 0.3952 0.0
C1475 C 0.66594 0.36882 0.37675 0.0
N1476 N 0.65499 0.41844 0.4812 0.0
N1477 N 0.65492 0.37815 0.40718 0.0
H1478 H 0.40802 0.92114 0.1784 0.0
H1479 H 0.32935 0.84705 0.18595 0.0
H1480 H 0.37597 0.90555 0.05582 0.0
H1481 H 0.34753 0.87721 0.30938 0.0
H1482 H 0.3534 0.86102 0.13828 0.0
H1483 H 0.39292 0.89768 0.22586 0.0
C1484 C 0.39816 0.91246 0.1611 0.0
C1485 C 0.39304 0.91543 0.11328 0.0
C1486 C 0.35234 0.86428 0.17603 0.0
C1487 C 0.37575 0.88869 0.16736 0.0
C1488 C 0.33869 0.85626 0.20335 0.0
C1489 C 0.3363 0.8612 0.25153 0.0
C1490 C 0.36375 0.87721 0.19717 0.0
C1491 C 0.34879 0.87319 0.2722 0.0
C1492 C 0.38949 0.89916 0.18831 0.0
C1493 C 0.38017 0.90382 0.09274 0.0
N1494 N 0.36187 0.88096 0.24475 0.0
N1495 N 0.37181 0.89108 0.12005 0.0
H1496 H 0.84143 0.34315 0.69102 0.0
H1497 H 0.90733 0.42875 0.69046 0.0
H1498 H 0.85587 0.3736 0.81737 0.0
H1499 H 0.87999 0.40823 0.565 0.0
H1500 H 0.89612 0.40283 0.73626 0.0
H1501 H 0.86315 0.36098 0.64456 0.0
C1502 C 0.84953 0.35324 0.70929 0.0
C1503 C 0.84667 0.3571 0.75798 0.0
C1504 C 0.89287 0.40382 0.69848 0.0
C1505 C 0.87138 0.3776 0.70498 0.0
C1506 C 0.89933 0.41857 0.67224 0.0
C1507 C 0.89435 0.42077 0.62402 0.0
C1508 C 0.88144 0.39116 0.67626 0.0
C1509 C 0.88397 0.40715 0.60225 0.0
C1510 C 0.86183 0.36349 0.68266 0.0
C1511 C 0.85752 0.37034 0.77978 0.0
N1512 N 0.87767 0.39303 0.62868 0.0
N1513 N 0.86923 0.38028 0.75298 0.0
H1514 H 0.36205 0.08433 0.56425 0.0
H1515 H 0.32635 0.15769 0.44493 0.0
H1516 H 0.40767 0.0888 0.46852 0.0
H1517 H 0.3521 0.13116 0.32518 0.0
H1518 H 0.34671 0.1416 0.49954 0.0
H1519 H 0.34818 0.11047 0.5249 0.0
C1520 C 0.36936 0.09116 0.53584 0.0
C1521 C 0.38599 0.08444 0.51955 0.0
C1522 C 0.34805 0.13955 0.46126 0.0
C1523 C 0.37017 0.11412 0.47399 0.0
C1524 C 0.3366 0.14885 0.43002 0.0
C1525 C 0.33738 0.14551 0.3805 0.0
C1526 C 0.36042 0.12696 0.44271 0.0
C1527 C 0.35092 0.13393 0.36317 0.0
C1528 C 0.3615 0.10613 0.51354 0.0
C1529 C 0.39486 0.09365 0.48229 0.0
N1530 N 0.36183 0.12492 0.39432 0.0
N1531 N 0.38661 0.10774 0.45985 0.0
H1532 H 0.58771 0.59701 0.15471 0.0
H1533 H 0.67641 0.65846 0.16754 0.0
H1534 H 0.6289 0.59764 0.04511 0.0
H1535 H 0.65151 0.63398 0.2916 0.0
H1536 H 0.65235 0.64579 0.11725 0.0
H1537 H 0.60451 0.62034 0.19864 0.0
C1538 C 0.59995 0.60251 0.13905 0.0
C1539 C 0.60706 0.59531 0.09647 0.0
C1540 C 0.65196 0.64358 0.15564 0.0
C1541 C 0.62619 0.62188 0.14635 0.0
C1542 C 0.6656 0.65085 0.18441 0.0
C1543 C 0.66603 0.64706 0.23372 0.0
C1544 C 0.63853 0.63273 0.17651 0.0
C1545 C 0.65175 0.63706 0.25364 0.0
C1546 C 0.60957 0.61569 0.16433 0.0
C1547 C 0.62306 0.60277 0.07802 0.0
N1548 N 0.63862 0.63009 0.22487 0.0
N1549 N 0.6322 0.61556 0.10332 0.0
H1550 H 0.16676 0.89698 0.8034 0.0
H1551 H 0.09107 0.92769 0.9226 0.0
H1552 H 0.16312 0.84955 0.89304 0.0
H1553 H 0.11819 0.90184 0.04133 0.0
H1554 H 0.10847 0.90885 0.86706 0.0
H1555 H 0.14014 0.90946 0.84387 0.0
C1556 C 0.16005 0.88901 0.83075 0.0
C1557 C 0.16708 0.87223 0.84491 0.0
C1558 C 0.11036 0.90713 0.9053 0.0
C1559 C 0.13687 0.88645 0.89172 0.0
C1560 C 0.10031 0.9177 0.93707 0.0
C1561 C 0.10341 0.9165 0.98666 0.0
C1562 C 0.12344 0.89519 0.92335 0.0
C1563 C 0.11555 0.90333 0.00334 0.0
C1564 C 0.14481 0.89607 0.85365 0.0
C1565 C 0.15801 0.86249 0.88088 0.0
N1566 N 0.12527 0.89327 0.97168 0.0
N1567 N 0.14363 0.86996 0.90398 0.0
loop_
_geom_bond_atom_site_label_1
_geom_bond_atom_site_label_2
_geom_bond_distance
_geom_bond_site_symmetry_2
_ccdc_geom_bond_type
In0 O1 2.294 . S
In0 O2 2.326 . S
In0 O6 2.266 . S
In0 O7 2.326 . S
In0 O8 2.266 . S
In0 O9 2.326 1_554 S
In0 O11 2.294 . S
In0 O12 2.326 . S
O1 In0 2.294 . S
O1 C10 1.240 . S
O2 In0 2.326 . S
O2 C10 1.252 . S
C3 O6 1.252 . S
C3 O7 1.260 . S
C4 O11 1.240 . S
C4 O12 1.252 . S
C5 O8 1.252 1_556 S
C5 O9 1.260 . S
O6 In0 2.266 . S
O6 C3 1.252 . S
O7 In0 2.326 . S
O7 C3 1.260 . S
O8 In0 2.266 . S
O8 C5 1.252 1_554 S
O9 In0 2.326 1_556 S
O9 C5 1.260 . S
C10 O1 1.240 . S
C10 O2 1.252 . S
O11 In0 2.294 . S
O11 C4 1.240 . S
O12 In0 2.326 . S
O12 C4 1.252 . S
In13 O14 2.294 . S
In13 O15 2.326 . S
In13 O19 2.266 . S
In13 O20 2.326 . S
In13 O21 2.266 . S
In13 O22 2.326 . S
In13 O24 2.294 . S
In13 O25 2.326 . S
O14 In13 2.294 . S
O14 C23 1.240 . S
O15 In13 2.326 . S
O15 C23 1.252 . S
C16 O19 1.252 . S
C16 O20 1.260 . S
C17 O24 1.240 . S
C17 O25 1.252 . S
C18 O21 1.252 . S
C18 O22 1.260 . S
O19 In13 2.266 . S
O19 C16 1.252 . S
O20 In13 2.326 . S
O20 C16 1.260 . S
O21 In13 2.266 . S
O21 C18 1.252 . S
O22 In13 2.326 . S
O22 C18 1.260 . S
C23 O14 1.240 . S
C23 O15 1.252 . S
O24 In13 2.294 . S
O24 C17 1.240 . S
O25 In13 2.326 . S
O25 C17 1.252 . S
In26 O27 2.294 . S
In26 O28 2.326 . S
In26 O32 2.266 . S
In26 O33 2.326 . S
In26 O34 2.266 . S
In26 O35 2.326 . S
In26 O37 2.294 . S
In26 O38 2.326 . S
O27 In26 2.294 . S
O27 C36 1.240 . S
O28 In26 2.326 . S
O28 C36 1.252 . S
C29 O32 1.252 . S
C29 O33 1.260 . S
C30 O37 1.240 . S
C30 O38 1.252 . S
C31 O34 1.252 . S
C31 O35 1.260 . S
O32 In26 2.266 . S
O32 C29 1.252 . S
O33 In26 2.326 . S
O33 C29 1.260 . S
O34 In26 2.266 . S
O34 C31 1.252 . S
O35 In26 2.326 . S
O35 C31 1.260 . S
C36 O27 1.240 . S
C36 O28 1.252 . S
O37 In26 2.294 . S
O37 C30 1.240 . S
O38 In26 2.326 . S
O38 C30 1.252 . S
In39 O40 2.294 . S
In39 O41 2.326 . S
In39 O45 2.266 . S
In39 O46 2.326 . S
In39 O47 2.266 . S
In39 O48 2.326 . S
In39 O50 2.294 . S
In39 O51 2.326 . S
O40 In39 2.294 . S
O40 C49 1.240 . S
O41 In39 2.326 . S
O41 C49 1.252 . S
C42 O45 1.252 . S
C42 O46 1.260 . S
C43 O50 1.240 . S
C43 O51 1.252 . S
C44 O47 1.252 . S
C44 O48 1.260 . S
O45 In39 2.266 . S
O45 C42 1.252 . S
O46 In39 2.326 . S
O46 C42 1.260 . S
O47 In39 2.266 . S
O47 C44 1.252 . S
O48 In39 2.326 . S
O48 C44 1.260 . S
C49 O40 1.240 . S
C49 O41 1.252 . S
O50 In39 2.294 . S
O50 C43 1.240 . S
O51 In39 2.326 . S
O51 C43 1.252 . S
In52 O53 2.294 . S
In52 O54 2.326 . S
In52 O58 2.266 . S
In52 O59 2.326 . S
In52 O60 2.266 . S
In52 O61 2.326 . S
In52 O63 2.294 . S
In52 O64 2.326 . S
O53 In52 2.294 . S
O53 C62 1.240 . S
O54 In52 2.326 . S
O54 C62 1.252 . S
C55 O58 1.252 . S
C55 O59 1.260 . S
C56 O63 1.240 . S
C56 O64 1.252 . S
C57 O60 1.252 . S
C57 O61 1.260 . S
O58 In52 2.266 . S
O58 C55 1.252 . S
O59 In52 2.326 . S
O59 C55 1.260 . S
O60 In52 2.266 . S
O60 C57 1.252 . S
O61 In52 2.326 . S
O61 C57 1.260 . S
C62 O53 1.240 . S
C62 O54 1.252 . S
O63 In52 2.294 . S
O63 C56 1.240 . S
O64 In52 2.326 . S
O64 C56 1.252 . S
In65 O66 2.294 . S
In65 O67 2.326 . S
In65 O71 2.266 . S
In65 O72 2.326 . S
In65 O73 2.266 . S
In65 O74 2.326 . S
In65 O76 2.294 . S
In65 O77 2.326 . S
O66 In65 2.294 . S
O66 C75 1.240 . S
O67 In65 2.326 . S
O67 C75 1.252 . S
C68 O71 1.252 . S
C68 O72 1.260 . S
C69 O76 1.240 . S
C69 O77 1.252 . S
C70 O73 1.252 . S
C70 O74 1.260 . S
O71 In65 2.266 . S
O71 C68 1.252 . S
O72 In65 2.326 . S
O72 C68 1.260 . S
O73 In65 2.266 . S
O73 C70 1.252 . S
O74 In65 2.326 . S
O74 C70 1.260 . S
C75 O66 1.240 . S
C75 O67 1.252 . S
O76 In65 2.294 . S
O76 C69 1.240 . S
O77 In65 2.326 . S
O77 C69 1.252 . S
In78 O79 2.294 . S
In78 O80 2.326 . S
In78 O84 2.266 . S
In78 O85 2.326 . S
In78 O86 2.266 . S
In78 O87 2.326 . S
In78 O89 2.294 1_554 S
In78 O90 2.326 1_554 S
O79 In78 2.294 . S
O79 C88 1.240 . S
O80 In78 2.326 . S
O80 C88 1.252 . S
C81 O84 1.252 . S
C81 O85 1.260 . S
C82 O89 1.240 . S
C82 O90 1.252 . S
C83 O86 1.252 . S
C83 O87 1.260 . S
O84 In78 2.266 . S
O84 C81 1.252 . S
O85 In78 2.326 . S
O85 C81 1.260 . S
O86 In78 2.266 . S
O86 C83 1.252 . S
O87 In78 2.326 . S
O87 C83 1.260 . S
C88 O79 1.240 . S
C88 O80 1.252 . S
O89 In78 2.294 1_556 S
O89 C82 1.240 . S
O90 In78 2.326 1_556 S
O90 C82 1.252 . S
In91 O92 2.294 . S
In91 O93 2.326 . S
In91 O97 2.266 . S
In91 O98 2.326 . S
In91 O99 2.266 . S
In91 O100 2.326 . S
In91 O102 2.294 . S
In91 O103 2.326 . S
O92 In91 2.294 . S
O92 C101 1.240 . S
O93 In91 2.326 . S
O93 C101 1.252 . S
C94 O97 1.252 . S
C94 O98 1.260 . S
C95 O102 1.240 . S
C95 O103 1.252 . S
C96 O99 1.252 . S
C96 O100 1.260 . S
O97 In91 2.266 . S
O97 C94 1.252 . S
O98 In91 2.326 . S
O98 C94 1.260 . S
O99 In91 2.266 . S
O99 C96 1.252 . S
O100 In91 2.326 . S
O100 C96 1.260 . S
C101 O92 1.240 . S
C101 O93 1.252 . S
O102 In91 2.294 . S
O102 C95 1.240 . S
O103 In91 2.326 . S
O103 C95 1.252 . S
In104 O105 2.294 1_554 S
In104 O106 2.326 1_554 S
In104 O110 2.266 . S
In104 O111 2.326 . S
In104 O112 2.266 . S
In104 O113 2.326 . S
In104 O115 2.294 . S
In104 O116 2.326 . S
O105 In104 2.294 1_556 S
O105 C114 1.240 . S
O106 In104 2.326 1_556 S
O106 C114 1.252 . S
C107 O110 1.252 . S
C107 O111 1.260 . S
C108 O115 1.240 . S
C108 O116 1.252 . S
C109 O112 1.252 . S
C109 O113 1.260 . S
O110 In104 2.266 . S
O110 C107 1.252 . S
O111 In104 2.326 . S
O111 C107 1.260 . S
O112 In104 2.266 . S
O112 C109 1.252 . S
O113 In104 2.326 . S
O113 C109 1.260 . S
C114 O105 1.240 . S
C114 O106 1.252 . S
O115 In104 2.294 . S
O115 C108 1.240 . S
O116 In104 2.326 . S
O116 C108 1.252 . S
In117 O118 2.294 . S
In117 O119 2.326 . S
In117 O123 2.266 . S
In117 O124 2.326 . S
In117 O125 2.266 . S
In117 O126 2.326 . S
In117 O128 2.294 . S
In117 O129 2.326 . S
O118 In117 2.294 . S
O118 C127 1.240 . S
O119 In117 2.326 . S
O119 C127 1.252 . S
C120 O123 1.252 . S
C120 O124 1.260 . S
C121 O128 1.240 . S
C121 O129 1.252 . S
C122 O125 1.252 . S
C122 O126 1.260 . S
O123 In117 2.266 . S
O123 C120 1.252 . S
O124 In117 2.326 . S
O124 C120 1.260 . S
O125 In117 2.266 . S
O125 C122 1.252 . S
O126 In117 2.326 . S
O126 C122 1.260 . S
C127 O118 1.240 . S
C127 O119 1.252 . S
O128 In117 2.294 . S
O128 C121 1.240 . S
O129 In117 2.326 . S
O129 C121 1.252 . S
In130 O131 2.294 . S
In130 O132 2.326 . S
In130 O136 2.266 . S
In130 O137 2.326 . S
In130 O138 2.266 . S
In130 O139 2.326 . S
In130 O141 2.294 . S
In130 O142 2.326 . S
O131 In130 2.294 . S
O131 C140 1.240 . S
O132 In130 2.326 . S
O132 C140 1.252 . S
C133 O136 1.252 . S
C133 O137 1.260 . S
C134 O141 1.240 . S
C134 O142 1.252 . S
C135 O138 1.252 . S
C135 O139 1.260 . S
O136 In130 2.266 . S
O136 C133 1.252 . S
O137 In130 2.326 . S
O137 C133 1.260 . S
O138 In130 2.266 . S
O138 C135 1.252 . S
O139 In130 2.326 . S
O139 C135 1.260 . S
C140 O131 1.240 . S
C140 O132 1.252 . S
O141 In130 2.294 . S
O141 C134 1.240 . S
O142 In130 2.326 . S
O142 C134 1.252 . S
In143 O144 2.294 . S
In143 O145 2.326 . S
In143 O149 2.266 . S
In143 O150 2.326 . S
In143 O151 2.266 . S
In143 O152 2.326 . S
In143 O154 2.294 . S
In143 O155 2.326 . S
O144 In143 2.294 . S
O144 C153 1.240 . S
O145 In143 2.326 . S
O145 C153 1.252 . S
C146 O149 1.252 . S
C146 O150 1.260 . S
C147 O154 1.240 . S
C147 O155 1.252 . S
C148 O151 1.252 . S
C148 O152 1.260 . S
O149 In143 2.266 . S
O149 C146 1.252 . S
O150 In143 2.326 . S
O150 C146 1.260 . S
O151 In143 2.266 . S
O151 C148 1.252 . S
O152 In143 2.326 . S
O152 C148 1.260 . S
C153 O144 1.240 . S
C153 O145 1.252 . S
O154 In143 2.294 . S
O154 C147 1.240 . S
O155 In143 2.326 . S
O155 C147 1.252 . S
In156 O157 2.294 . S
In156 O158 2.326 . S
In156 O162 2.266 . S
In156 O163 2.326 . S
In156 O164 2.266 . S
In156 O165 2.326 . S
In156 O167 2.294 . S
In156 O168 2.326 . S
O157 In156 2.294 . S
O157 C166 1.240 . S
O158 In156 2.326 . S
O158 C166 1.252 . S
C159 O162 1.252 . S
C159 O163 1.260 . S
C160 O167 1.240 . S
C160 O168 1.252 . S
C161 O164 1.252 . S
C161 O165 1.260 . S
O162 In156 2.266 . S
O162 C159 1.252 . S
O163 In156 2.326 . S
O163 C159 1.260 . S
O164 In156 2.266 . S
O164 C161 1.252 . S
O165 In156 2.326 . S
O165 C161 1.260 . S
C166 O157 1.240 . S
C166 O158 1.252 . S
O167 In156 2.294 . S
O167 C160 1.240 . S
O168 In156 2.326 . S
O168 C160 1.252 . S
In169 O170 2.294 . S
In169 O171 2.326 . S
In169 O175 2.266 . S
In169 O176 2.326 . S
In169 O177 2.266 . S
In169 O178 2.326 . S
In169 O180 2.294 . S
In169 O181 2.326 . S
O170 In169 2.294 . S
O170 C179 1.240 . S
O171 In169 2.326 . S
O171 C179 1.252 . S
C172 O175 1.252 . S
C172 O176 1.260 . S
C173 O180 1.240 . S
C173 O181 1.252 . S
C174 O177 1.252 . S
C174 O178 1.260 . S
O175 In169 2.266 . S
O175 C172 1.252 . S
O176 In169 2.326 . S
O176 C172 1.260 . S
O177 In169 2.266 . S
O177 C174 1.252 . S
O178 In169 2.326 . S
O178 C174 1.260 . S
C179 O170 1.240 . S
C179 O171 1.252 . S
O180 In169 2.294 . S
O180 C173 1.240 . S
O181 In169 2.326 . S
O181 C173 1.252 . S
In182 O183 2.294 . S
In182 O184 2.326 . S
In182 O188 2.266 . S
In182 O189 2.326 . S
In182 O190 2.266 . S
In182 O191 2.326 1_554 S
In182 O193 2.294 . S
In182 O194 2.326 . S
O183 In182 2.294 . S
O183 C192 1.240 . S
O184 In182 2.326 . S
O184 C192 1.252 . S
C185 O188 1.252 . S
C185 O189 1.260 . S
C186 O193 1.240 . S
C186 O194 1.252 . S
C187 O190 1.252 1_556 S
C187 O191 1.260 . S
O188 In182 2.266 . S
O188 C185 1.252 . S
O189 In182 2.326 . S
O189 C185 1.260 . S
O190 In182 2.266 . S
O190 C187 1.252 1_554 S
O191 In182 2.326 1_556 S
O191 C187 1.260 . S
C192 O183 1.240 . S
C192 O184 1.252 . S
O193 In182 2.294 . S
O193 C186 1.240 . S
O194 In182 2.326 . S
O194 C186 1.252 . S
In195 O196 2.294 . S
In195 O197 2.326 . S
In195 O201 2.266 . S
In195 O202 2.326 . S
In195 O203 2.266 . S
In195 O204 2.326 . S
In195 O206 2.294 . S
In195 O207 2.326 . S
O196 In195 2.294 . S
O196 C205 1.240 . S
O197 In195 2.326 . S
O197 C205 1.252 . S
C198 O201 1.252 . S
C198 O202 1.260 . S
C199 O206 1.240 . S
C199 O207 1.252 . S
C200 O203 1.252 . S
C200 O204 1.260 . S
O201 In195 2.266 . S
O201 C198 1.252 . S
O202 In195 2.326 . S
O202 C198 1.260 . S
O203 In195 2.266 . S
O203 C200 1.252 . S
O204 In195 2.326 . S
O204 C200 1.260 . S
C205 O196 1.240 . S
C205 O197 1.252 . S
O206 In195 2.294 . S
O206 C199 1.240 . S
O207 In195 2.326 . S
O207 C199 1.252 . S
In208 O209 2.294 . S
In208 O210 2.326 . S
In208 O214 2.266 . S
In208 O215 2.294 1_565 S
In208 O216 2.266 1_565 S
In208 O217 2.326 . S
In208 O219 2.294 1_565 S
In208 O220 2.326 . S
O209 In208 2.294 . S
O209 C218 1.240 . S
O210 In208 2.326 . S
O210 C218 1.252 . S
C211 O214 1.252 . S
C211 O215 1.210 1_565 S
C212 O219 1.240 1_565 S
C212 O220 1.252 . S
C213 O216 1.252 1_565 S
C213 O217 1.260 . S
O214 In208 2.266 . S
O214 C211 1.252 . S
O215 In208 2.294 1_545 S
O215 C211 1.210 1_545 S
O216 In208 2.266 1_545 S
O216 C213 1.252 1_545 S
O217 In208 2.326 . S
O217 C213 1.260 . S
C218 O209 1.240 . S
C218 O210 1.252 . S
O219 In208 2.294 1_545 S
O219 C212 1.240 1_545 S
O220 In208 2.326 . S
O220 C212 1.252 . S
In221 O222 2.294 . S
In221 O223 2.326 . S
In221 O227 2.266 . S
In221 O228 2.326 . S
In221 O229 2.266 . S
In221 O230 2.326 . S
In221 O232 2.294 . S
In221 O233 2.326 . S
O222 In221 2.294 . S
O222 C231 1.240 . S
O223 In221 2.326 . S
O223 C231 1.252 . S
C224 O227 1.252 . S
C224 O228 1.260 . S
C225 O232 1.240 . S
C225 O233 1.252 . S
C226 O229 1.252 . S
C226 O230 1.260 . S
O227 In221 2.266 . S
O227 C224 1.252 . S
O228 In221 2.326 . S
O228 C224 1.260 . S
O229 In221 2.266 . S
O229 C226 1.252 . S
O230 In221 2.326 . S
O230 C226 1.260 . S
C231 O222 1.240 . S
C231 O223 1.252 . S
O232 In221 2.294 . S
O232 C225 1.240 . S
O233 In221 2.326 . S
O233 C225 1.252 . S
In234 O235 2.294 . S
In234 O236 2.326 . S
In234 O240 2.266 . S
In234 O241 2.296 1_545 S
In234 O242 2.266 1_545 S
In234 O243 2.326 1_554 S
In234 O245 2.294 1_545 S
In234 O246 2.326 . S
O235 In234 2.294 . S
O235 C244 1.240 . S
O236 In234 2.326 . S
O236 C244 1.252 . S
C237 O240 1.252 . S
C237 O241 1.213 1_545 S
C238 O245 1.240 1_545 S
C238 O246 1.252 . S
C239 O242 1.252 1_546 S
C239 O243 1.260 . S
O240 In234 2.266 . S
O240 C237 1.252 . S
O241 In234 2.296 1_565 S
O241 C237 1.213 1_565 S
O242 In234 2.266 1_565 S
O242 C239 1.252 1_564 S
O243 In234 2.326 1_556 S
O243 C239 1.260 . S
C244 O235 1.240 . S
C244 O236 1.252 . S
O245 In234 2.294 1_565 S
O245 C238 1.240 1_565 S
O246 In234 2.326 . S
O246 C238 1.252 . S
In247 O248 2.294 . S
In247 O249 2.326 . S
In247 O253 2.266 . S
In247 O254 2.326 . S
In247 O255 2.266 . S
In247 O256 2.326 . S
In247 O258 2.294 . S
In247 O259 2.326 . S
O248 In247 2.294 . S
O248 C257 1.240 . S
O249 In247 2.326 . S
O249 C257 1.252 . S
C250 O253 1.252 . S
C250 O254 1.260 . S
C251 O258 1.240 . S
C251 O259 1.252 . S
C252 O255 1.252 . S
C252 O256 1.260 . S
O253 In247 2.266 . S
O253 C250 1.252 . S
O254 In247 2.326 . S
O254 C250 1.260 . S
O255 In247 2.266 . S
O255 C252 1.252 . S
O256 In247 2.326 . S
O256 C252 1.260 . S
C257 O248 1.240 . S
C257 O249 1.252 . S
O258 In247 2.294 . S
O258 C251 1.240 . S
O259 In247 2.326 . S
O259 C251 1.252 . S
In260 O261 2.294 1_544 S
In260 O262 2.326 1_554 S
In260 O266 2.266 1_545 S
In260 O267 2.326 . S
In260 O268 2.266 . S
In260 O269 2.295 1_545 S
In260 O271 2.294 . S
In260 O272 2.326 . S
O261 In260 2.294 1_566 S
O261 C270 1.240 1_565 S
O262 In260 2.326 1_556 S
O262 C270 1.252 . S
C263 O266 1.252 1_545 S
C263 O267 1.260 . S
C264 O271 1.240 . S
C264 O272 1.252 . S
C265 O268 1.252 . S
C265 O269 1.212 1_545 S
O266 In260 2.266 1_565 S
O266 C263 1.252 1_565 S
O267 In260 2.326 . S
O267 C263 1.260 . S
O268 In260 2.266 . S
O268 C265 1.252 . S
O269 In260 2.295 1_565 S
O269 C265 1.212 1_565 S
C270 O261 1.240 1_545 S
C270 O262 1.252 . S
O271 In260 2.294 . S
O271 C264 1.240 . S
O272 In260 2.326 . S
O272 C264 1.252 . S
In273 O274 2.294 . S
In273 O275 2.326 . S
In273 O279 2.266 . S
In273 O280 2.326 . S
In273 O281 2.266 . S
In273 O282 2.326 . S
In273 O284 2.294 . S
In273 O285 2.326 . S
O274 In273 2.294 . S
O274 C283 1.240 . S
O275 In273 2.326 . S
O275 C283 1.252 . S
C276 O279 1.252 . S
C276 O280 1.260 . S
C277 O284 1.240 . S
C277 O285 1.252 . S
C278 O281 1.252 . S
C278 O282 1.260 . S
O279 In273 2.266 . S
O279 C276 1.252 . S
O280 In273 2.326 . S
O280 C276 1.260 . S
O281 In273 2.266 . S
O281 C278 1.252 . S
O282 In273 2.326 . S
O282 C278 1.260 . S
C283 O274 1.240 . S
C283 O275 1.252 . S
O284 In273 2.294 . S
O284 C277 1.240 . S
O285 In273 2.326 . S
O285 C277 1.252 . S
In286 O287 2.294 . S
In286 O288 2.326 . S
In286 O292 2.266 . S
In286 O293 2.294 1_565 S
In286 O294 2.266 1_565 S
In286 O295 2.326 . S
In286 O297 2.294 1_565 S
In286 O298 2.326 . S
O287 In286 2.294 . S
O287 C296 1.240 . S
O288 In286 2.326 . S
O288 C296 1.252 . S
C289 O292 1.252 . S
C289 O293 1.211 1_565 S
C290 O297 1.240 1_565 S
C290 O298 1.252 . S
C291 O294 1.252 1_565 S
C291 O295 1.260 . S
O292 In286 2.266 . S
O292 C289 1.252 . S
O293 In286 2.294 1_545 S
O293 C289 1.211 1_545 S
O294 In286 2.266 1_545 S
O294 C291 1.252 1_545 S
O295 In286 2.326 . S
O295 C291 1.260 . S
C296 O287 1.240 . S
C296 O288 1.252 . S
O297 In286 2.294 1_545 S
O297 C290 1.240 1_545 S
O298 In286 2.326 . S
O298 C290 1.252 . S
In299 O300 2.294 . S
In299 O301 2.326 . S
In299 O305 2.266 . S
In299 O306 2.326 . S
In299 O307 2.266 . S
In299 O308 2.326 . S
In299 O310 2.294 . S
In299 O311 2.326 . S
O300 In299 2.294 . S
O300 C309 1.240 . S
O301 In299 2.326 . S
O301 C309 1.252 . S
C302 O305 1.252 . S
C302 O306 1.260 . S
C303 O310 1.240 . S
C303 O311 1.252 . S
C304 O307 1.252 . S
C304 O308 1.260 . S
O305 In299 2.266 . S
O305 C302 1.252 . S
O306 In299 2.326 . S
O306 C302 1.260 . S
O307 In299 2.266 . S
O307 C304 1.252 . S
O308 In299 2.326 . S
O308 C304 1.260 . S
C309 O300 1.240 . S
C309 O301 1.252 . S
O310 In299 2.294 . S
O310 C303 1.240 . S
O311 In299 2.326 . S
O311 C303 1.252 . S
In312 O313 2.294 . S
In312 O314 2.326 . S
In312 O318 2.266 . S
In312 O319 2.294 1_545 S
In312 O320 2.266 1_545 S
In312 O321 2.326 . S
In312 O323 2.294 1_545 S
In312 O324 2.326 . S
O313 In312 2.294 . S
O313 C322 1.240 . S
O314 In312 2.326 . S
O314 C322 1.252 . S
C315 O318 1.252 . S
C315 O319 1.210 1_545 S
C316 O323 1.240 1_545 S
C316 O324 1.252 . S
C317 O320 1.252 1_545 S
C317 O321 1.260 . S
O318 In312 2.266 . S
O318 C315 1.252 . S
O319 In312 2.294 1_565 S
O319 C315 1.210 1_565 S
O320 In312 2.266 1_565 S
O320 C317 1.252 1_565 S
O321 In312 2.326 . S
O321 C317 1.260 . S
C322 O313 1.240 . S
C322 O314 1.252 . S
O323 In312 2.294 1_565 S
O323 C316 1.240 1_565 S
O324 In312 2.326 . S
O324 C316 1.252 . S
In325 O326 2.294 . S
In325 O327 2.326 . S
In325 O331 2.266 . S
In325 O332 2.326 . S
In325 O333 2.266 . S
In325 O334 2.326 . S
In325 O336 2.294 . S
In325 O337 2.326 . S
O326 In325 2.294 . S
O326 C335 1.240 . S
O327 In325 2.326 . S
O327 C335 1.252 . S
C328 O331 1.252 . S
C328 O332 1.260 . S
C329 O336 1.240 . S
C329 O337 1.252 . S
C330 O333 1.252 . S
C330 O334 1.260 . S
O331 In325 2.266 . S
O331 C328 1.252 . S
O332 In325 2.326 . S
O332 C328 1.260 . S
O333 In325 2.266 . S
O333 C330 1.252 . S
O334 In325 2.326 . S
O334 C330 1.260 . S
C335 O326 1.240 . S
C335 O327 1.252 . S
O336 In325 2.294 . S
O336 C329 1.240 . S
O337 In325 2.326 . S
O337 C329 1.252 . S
In338 O339 2.294 1_564 S
In338 O340 2.326 1_554 S
In338 O344 2.266 1_565 S
In338 O345 2.326 . S
In338 O346 2.266 . S
In338 O347 2.295 1_565 S
In338 O349 2.294 . S
In338 O350 2.326 . S
O339 In338 2.294 1_546 S
O339 C348 1.240 1_545 S
O340 In338 2.326 1_556 S
O340 C348 1.252 . S
C341 O344 1.252 1_565 S
C341 O345 1.260 . S
C342 O349 1.240 . S
C342 O350 1.252 . S
C343 O346 1.252 . S
C343 O347 1.212 1_565 S
O344 In338 2.266 1_545 S
O344 C341 1.252 1_545 S
O345 In338 2.326 . S
O345 C341 1.260 . S
O346 In338 2.266 . S
O346 C343 1.252 . S
O347 In338 2.295 1_545 S
O347 C343 1.212 1_545 S
C348 O339 1.240 1_565 S
C348 O340 1.252 . S
O349 In338 2.294 . S
O349 C342 1.240 . S
O350 In338 2.326 . S
O350 C342 1.252 . S
In351 O352 2.294 . S
In351 O353 2.326 . S
In351 O357 2.266 . S
In351 O358 2.326 . S
In351 O359 2.266 . S
In351 O360 2.326 . S
In351 O362 2.294 . S
In351 O363 2.326 . S
O352 In351 2.294 . S
O352 C361 1.240 . S
O353 In351 2.326 . S
O353 C361 1.252 . S
C354 O357 1.252 . S
C354 O358 1.260 . S
C355 O362 1.240 . S
C355 O363 1.252 . S
C356 O359 1.252 . S
C356 O360 1.260 . S
O357 In351 2.266 . S
O357 C354 1.252 . S
O358 In351 2.326 . S
O358 C354 1.260 . S
O359 In351 2.266 . S
O359 C356 1.252 . S
O360 In351 2.326 . S
O360 C356 1.260 . S
C361 O352 1.240 . S
C361 O353 1.252 . S
O362 In351 2.294 . S
O362 C355 1.240 . S
O363 In351 2.326 . S
O363 C355 1.252 . S
In364 O365 2.294 . S
In364 O366 2.326 . S
In364 O370 2.266 . S
In364 O371 2.296 1_565 S
In364 O372 2.266 1_565 S
In364 O373 2.326 1_554 S
In364 O375 2.294 1_565 S
In364 O376 2.326 . S
O365 In364 2.294 . S
O365 C374 1.240 . S
O366 In364 2.326 . S
O366 C374 1.252 . S
C367 O370 1.252 . S
C367 O371 1.213 1_565 S
C368 O375 1.240 1_565 S
C368 O376 1.252 . S
C369 O372 1.252 1_566 S
C369 O373 1.260 . S
O370 In364 2.266 . S
O370 C367 1.252 . S
O371 In364 2.296 1_545 S
O371 C367 1.213 1_545 S
O372 In364 2.266 1_545 S
O372 C369 1.252 1_544 S
O373 In364 2.326 1_556 S
O373 C369 1.260 . S
C374 O365 1.240 . S
C374 O366 1.252 . S
O375 In364 2.294 1_545 S
O375 C368 1.240 1_545 S
O376 In364 2.326 . S
O376 C368 1.252 . S
In377 O378 2.294 . S
In377 O379 2.326 . S
In377 O383 2.266 . S
In377 O384 2.326 . S
In377 O385 2.266 . S
In377 O386 2.326 . S
In377 O388 2.294 . S
In377 O389 2.326 . S
O378 In377 2.294 . S
O378 C387 1.240 . S
O379 In377 2.326 . S
O379 C387 1.252 . S
C380 O383 1.252 . S
C380 O384 1.260 . S
C381 O388 1.240 . S
C381 O389 1.252 . S
C382 O385 1.252 . S
C382 O386 1.260 . S
O383 In377 2.266 . S
O383 C380 1.252 . S
O384 In377 2.326 . S
O384 C380 1.260 . S
O385 In377 2.266 . S
O385 C382 1.252 . S
O386 In377 2.326 . S
O386 C382 1.260 . S
C387 O378 1.240 . S
C387 O379 1.252 . S
O388 In377 2.294 . S
O388 C381 1.240 . S
O389 In377 2.326 . S
O389 C381 1.252 . S
In390 O391 2.294 . S
In390 O392 2.326 . S
In390 O396 2.266 . S
In390 O397 2.294 1_545 S
In390 O398 2.266 1_545 S
In390 O399 2.326 . S
In390 O401 2.294 1_545 S
In390 O402 2.326 . S
O391 In390 2.294 . S
O391 C400 1.240 . S
O392 In390 2.326 . S
O392 C400 1.252 . S
C393 O396 1.252 . S
C393 O397 1.210 1_545 S
C394 O401 1.240 1_545 S
C394 O402 1.252 . S
C395 O398 1.252 1_545 S
C395 O399 1.260 . S
O396 In390 2.266 . S
O396 C393 1.252 . S
O397 In390 2.294 1_565 S
O397 C393 1.210 1_565 S
O398 In390 2.266 1_565 S
O398 C395 1.252 1_565 S
O399 In390 2.326 . S
O399 C395 1.260 . S
C400 O391 1.240 . S
C400 O392 1.252 . S
O401 In390 2.294 1_565 S
O401 C394 1.240 1_565 S
O402 In390 2.326 . S
O402 C394 1.252 . S
In403 O404 2.294 . S
In403 O405 2.326 . S
In403 O409 2.266 . S
In403 O410 2.326 . S
In403 O411 2.266 . S
In403 O412 2.326 . S
In403 O414 2.294 . S
In403 O415 2.326 . S
O404 In403 2.294 . S
O404 C413 1.240 . S
O405 In403 2.326 . S
O405 C413 1.252 . S
C406 O409 1.252 . S
C406 O410 1.260 . S
C407 O414 1.240 . S
C407 O415 1.252 . S
C408 O411 1.252 . S
C408 O412 1.260 . S
O409 In403 2.266 . S
O409 C406 1.252 . S
O410 In403 2.326 . S
O410 C406 1.260 . S
O411 In403 2.266 . S
O411 C408 1.252 . S
O412 In403 2.326 . S
O412 C408 1.260 . S
C413 O404 1.240 . S
C413 O405 1.252 . S
O414 In403 2.294 . S
O414 C407 1.240 . S
O415 In403 2.326 . S
O415 C407 1.252 . S
H416 C422 0.930 . S
H417 C426 0.930 1_556 S
H418 C431 0.929 1_556 S
H419 C429 0.929 . S
H420 C424 0.929 1_556 S
H421 C430 0.929 . S
C422 H416 0.930 . S
C422 C423 1.367 . S
C422 C430 1.378 . S
C423 C422 1.367 . S
C423 C431 1.433 . S
C424 H420 0.929 1_554 S
C424 C426 1.378 . S
C424 C428 1.350 . S
C425 C428 1.463 1_655 S
C425 C430 1.350 . S
C425 N433 1.427 . S
C426 H417 0.930 1_554 S
C426 C424 1.378 . S
C426 C427 1.367 . S
C427 C426 1.367 . S
C427 C429 1.433 . S
C428 C424 1.350 . S
C428 C425 1.463 1_455 S
C428 N432 1.427 . S
C429 H419 0.929 . S
C429 C427 1.433 . S
C429 N432 1.384 . S
C430 H421 0.929 . S
C430 C422 1.378 . S
C430 C425 1.350 . S
C431 H418 0.929 1_554 S
C431 C423 1.433 . S
C431 N433 1.384 . S
N432 C428 1.427 . S
N432 C429 1.384 . S
N433 C425 1.427 . S
N433 C431 1.384 . S
H434 C440 0.930 . S
H435 C444 0.930 . S
H436 C449 0.929 . S
H437 C447 0.929 . S
H438 C442 0.929 . S
H439 C448 0.929 . S
C440 H434 0.930 . S
C440 C441 1.367 . S
C440 C448 1.378 . S
C441 C440 1.367 . S
C441 C449 1.433 . S
C442 H438 0.929 . S
C442 C444 1.378 . S
C442 C446 1.350 . S
C443 C446 1.463 . S
C443 C448 1.350 . S
C443 N451 1.427 . S
C444 H435 0.930 . S
C444 C442 1.378 . S
C444 C445 1.367 . S
C445 C444 1.367 . S
C445 C447 1.433 . S
C446 C442 1.350 . S
C446 C443 1.463 . S
C446 N450 1.427 . S
C447 H437 0.929 . S
C447 C445 1.433 . S
C447 N450 1.384 . S
C448 H439 0.929 . S
C448 C440 1.378 . S
C448 C443 1.350 . S
C449 H436 0.929 . S
C449 C441 1.433 . S
C449 N451 1.384 . S
N450 C446 1.427 . S
N450 C447 1.384 . S
N451 C443 1.427 . S
N451 C449 1.384 . S
H452 C458 0.930 . S
H453 C462 0.930 . S
H454 C467 0.929 . S
H455 C465 0.929 . S
H456 C460 0.929 . S
H457 C466 0.929 . S
C458 H452 0.930 . S
C458 C459 1.367 . S
C458 C466 1.378 . S
C459 C458 1.367 . S
C459 C467 1.433 . S
C460 H456 0.929 . S
C460 C462 1.378 . S
C460 C464 1.350 . S
C461 C464 1.463 . S
C461 C466 1.350 . S
C461 N469 1.427 . S
C462 H453 0.930 . S
C462 C460 1.378 . S
C462 C463 1.367 . S
C463 C462 1.367 . S
C463 C465 1.433 . S
C464 C460 1.350 . S
C464 C461 1.463 . S
C464 N468 1.427 . S
C465 H455 0.929 . S
C465 C463 1.433 . S
C465 N468 1.384 . S
C466 H457 0.929 . S
C466 C458 1.378 . S
C466 C461 1.350 . S
C467 H454 0.929 . S
C467 C459 1.433 . S
C467 N469 1.384 . S
N468 C464 1.427 . S
N468 C465 1.384 . S
N469 C461 1.427 . S
N469 C467 1.384 . S
H470 C476 0.930 . S
H471 C480 0.930 . S
H472 C485 0.929 . S
H473 C483 0.929 . S
H474 C478 0.929 . S
H475 C484 0.929 . S
C476 H470 0.930 . S
C476 C477 1.367 . S
C476 C484 1.378 . S
C477 C476 1.367 . S
C477 C485 1.433 . S
C478 H474 0.929 . S
C478 C480 1.378 . S
C478 C482 1.350 . S
C479 C482 1.463 . S
C479 C484 1.350 . S
C479 N487 1.427 . S
C480 H471 0.930 . S
C480 C478 1.378 . S
C480 C481 1.367 . S
C481 C480 1.367 . S
C481 C483 1.433 . S
C482 C478 1.350 . S
C482 C479 1.463 . S
C482 N486 1.427 . S
C483 H473 0.929 . S
C483 C481 1.433 . S
C483 N486 1.384 . S
C484 H475 0.929 . S
C484 C476 1.378 . S
C484 C479 1.350 . S
C485 H472 0.929 . S
C485 C477 1.433 . S
C485 N487 1.384 . S
N486 C482 1.427 . S
N486 C483 1.384 . S
N487 C479 1.427 . S
N487 C485 1.384 . S
H488 C494 0.930 . S
H489 C498 0.930 . S
H490 C503 0.929 . S
H491 C501 0.929 . S
H492 C496 0.929 . S
H493 C502 0.929 . S
C494 H488 0.930 . S
C494 C495 1.367 . S
C494 C502 1.378 . S
C495 C494 1.367 . S
C495 C503 1.433 . S
C496 H492 0.929 . S
C496 C498 1.378 . S
C496 C500 1.350 . S
C497 C500 1.463 1_455 S
C497 C502 1.350 . S
C497 N505 1.427 . S
C498 H489 0.930 . S
C498 C496 1.378 . S
C498 C499 1.367 . S
C499 C498 1.367 . S
C499 C501 1.433 . S
C500 C496 1.350 . S
C500 C497 1.463 1_655 S
C500 N504 1.427 . S
C501 H491 0.929 . S
C501 C499 1.433 . S
C501 N504 1.384 . S
C502 H493 0.929 . S
C502 C494 1.378 . S
C502 C497 1.350 . S
C503 H490 0.929 . S
C503 C495 1.433 . S
C503 N505 1.384 . S
N504 C500 1.427 . S
N504 C501 1.384 . S
N505 C497 1.427 . S
N505 C503 1.384 . S
H506 C512 0.930 . S
H507 C516 0.930 . S
H508 C521 0.929 . S
H509 C519 0.929 . S
H510 C514 0.929 . S
H511 C520 0.929 . S
C512 H506 0.930 . S
C512 C513 1.367 . S
C512 C520 1.378 . S
C513 C512 1.367 . S
C513 C521 1.433 . S
C514 H510 0.929 . S
C514 C516 1.378 . S
C514 C518 1.350 . S
C515 C518 1.463 . S
C515 C520 1.350 . S
C515 N523 1.427 . S
C516 H507 0.930 . S
C516 C514 1.378 . S
C516 C517 1.367 . S
C517 C516 1.367 . S
C517 C519 1.433 . S
C518 C514 1.350 . S
C518 C515 1.463 . S
C518 N522 1.427 . S
C519 H509 0.929 . S
C519 C517 1.433 . S
C519 N522 1.384 . S
C520 H511 0.929 . S
C520 C512 1.378 . S
C520 C515 1.350 . S
C521 H508 0.929 . S
C521 C513 1.433 . S
C521 N523 1.384 . S
N522 C518 1.427 . S
N522 C519 1.384 . S
N523 C515 1.427 . S
N523 C521 1.384 . S
H524 C530 0.930 1_556 S
H525 C534 0.930 . S
H526 C539 0.929 . S
H527 C537 0.929 1_556 S
H528 C532 0.929 . S
H529 C538 0.929 1_556 S
C530 H524 0.930 1_554 S
C530 C531 1.367 . S
C530 C538 1.378 . S
C531 C530 1.367 . S
C531 C539 1.433 . S
C532 H528 0.929 . S
C532 C534 1.378 . S
C532 C536 1.350 . S
C533 C536 1.463 . S
C533 C538 1.350 . S
C533 N541 1.427 . S
C534 H525 0.930 . S
C534 C532 1.378 . S
C534 C535 1.367 . S
C535 C534 1.367 . S
C535 C537 1.433 . S
C536 C532 1.350 . S
C536 C533 1.463 . S
C536 N540 1.427 . S
C537 H527 0.929 1_554 S
C537 C535 1.433 . S
C537 N540 1.384 . S
C538 H529 0.929 1_554 S
C538 C530 1.378 . S
C538 C533 1.350 . S
C539 H526 0.929 . S
C539 C531 1.433 . S
C539 N541 1.384 . S
N540 C536 1.427 . S
N540 C537 1.384 . S
N541 C533 1.427 . S
N541 C539 1.384 . S
H542 C548 0.930 . S
H543 C552 0.930 . S
H544 C557 0.929 . S
H545 C555 0.929 . S
H546 C550 0.929 . S
H547 C556 0.929 . S
C548 H542 0.930 . S
C548 C549 1.367 . S
C548 C556 1.378 . S
C549 C548 1.367 . S
C549 C557 1.433 . S
C550 H546 0.929 . S
C550 C552 1.378 . S
C550 C554 1.350 . S
C551 C554 1.463 . S
C551 C556 1.350 . S
C551 N559 1.427 . S
C552 H543 0.930 . S
C552 C550 1.378 . S
C552 C553 1.367 . S
C553 C552 1.367 . S
C553 C555 1.433 . S
C554 C550 1.350 . S
C554 C551 1.463 . S
C554 N558 1.427 . S
C555 H545 0.929 . S
C555 C553 1.433 . S
C555 N558 1.384 . S
C556 H547 0.929 . S
C556 C548 1.378 . S
C556 C551 1.350 . S
C557 H544 0.929 . S
C557 C549 1.433 . S
C557 N559 1.384 . S
N558 C554 1.427 . S
N558 C555 1.384 . S
N559 C551 1.427 . S
N559 C557 1.384 . S
H560 C566 0.930 . S
H561 C570 0.930 . S
H562 C575 0.929 . S
H563 C573 0.929 . S
H564 C568 0.929 . S
H565 C574 0.929 . S
C566 H560 0.930 . S
C566 C567 1.367 . S
C566 C574 1.378 . S
C567 C566 1.367 . S
C567 C575 1.433 . S
C568 H564 0.929 . S
C568 C570 1.378 . S
C568 C572 1.350 . S
C569 C572 1.463 . S
C569 C574 1.350 . S
C569 N577 1.427 . S
C570 H561 0.930 . S
C570 C568 1.378 . S
C570 C571 1.367 . S
C571 C570 1.367 . S
C571 C573 1.433 . S
C572 C568 1.350 . S
C572 C569 1.463 . S
C572 N576 1.427 . S
C573 H563 0.929 . S
C573 C571 1.433 . S
C573 N576 1.384 . S
C574 H565 0.929 . S
C574 C566 1.378 . S
C574 C569 1.350 . S
C575 H562 0.929 . S
C575 C567 1.433 . S
C575 N577 1.384 . S
N576 C572 1.427 . S
N576 C573 1.384 . S
N577 C569 1.427 . S
N577 C575 1.384 . S
H578 C584 0.930 . S
H579 C588 0.930 . S
H580 C593 0.929 . S
H581 C591 0.929 . S
H582 C586 0.929 . S
H583 C592 0.929 . S
C584 H578 0.930 . S
C584 C585 1.367 . S
C584 C592 1.378 . S
C585 C584 1.367 . S
C585 C593 1.433 . S
C586 H582 0.929 . S
C586 C588 1.378 . S
C586 C590 1.350 . S
C587 C590 1.463 . S
C587 C592 1.350 . S
C587 N595 1.427 . S
C588 H579 0.930 . S
C588 C586 1.378 . S
C588 C589 1.367 . S
C589 C588 1.367 . S
C589 C591 1.433 . S
C590 C586 1.350 . S
C590 C587 1.463 . S
C590 N594 1.427 . S
C591 H581 0.929 . S
C591 C589 1.433 . S
C591 N594 1.384 . S
C592 H583 0.929 . S
C592 C584 1.378 . S
C592 C587 1.350 . S
C593 H580 0.929 . S
C593 C585 1.433 . S
C593 N595 1.384 . S
N594 C590 1.427 . S
N594 C591 1.384 . S
N595 C587 1.427 . S
N595 C593 1.384 . S
H596 C602 0.930 . S
H597 C606 0.930 . S
H598 C611 0.929 . S
H599 C609 0.929 . S
H600 C604 0.929 . S
H601 C610 0.929 . S
C602 H596 0.930 . S
C602 C603 1.367 . S
C602 C610 1.378 . S
C603 C602 1.367 . S
C603 C611 1.433 . S
C604 H600 0.929 . S
C604 C606 1.378 . S
C604 C608 1.350 . S
C605 C608 1.463 . S
C605 C610 1.350 . S
C605 N613 1.427 . S
C606 H597 0.930 . S
C606 C604 1.378 . S
C606 C607 1.367 . S
C607 C606 1.367 . S
C607 C609 1.433 . S
C608 C604 1.350 . S
C608 C605 1.463 . S
C608 N612 1.427 . S
C609 H599 0.929 . S
C609 C607 1.433 . S
C609 N612 1.384 . S
C610 H601 0.929 . S
C610 C602 1.378 . S
C610 C605 1.350 . S
C611 H598 0.929 . S
C611 C603 1.433 . S
C611 N613 1.384 . S
N612 C608 1.427 . S
N612 C609 1.384 . S
N613 C605 1.427 . S
N613 C611 1.384 . S
H614 C620 0.930 . S
H615 C624 0.930 . S
H616 C629 0.929 . S
H617 C627 0.929 . S
H618 C622 0.929 . S
H619 C628 0.929 . S
C620 H614 0.930 . S
C620 C621 1.367 . S
C620 C628 1.378 . S
C621 C620 1.367 . S
C621 C629 1.433 . S
C622 H618 0.929 . S
C622 C624 1.378 . S
C622 C626 1.350 . S
C623 C626 1.463 . S
C623 C628 1.350 . S
C623 N631 1.427 . S
C624 H615 0.930 . S
C624 C622 1.378 . S
C624 C625 1.367 . S
C625 C624 1.367 . S
C625 C627 1.433 . S
C626 C622 1.350 . S
C626 C623 1.463 . S
C626 N630 1.427 . S
C627 H617 0.929 . S
C627 C625 1.433 . S
C627 N630 1.384 . S
C628 H619 0.929 . S
C628 C620 1.378 . S
C628 C623 1.350 . S
C629 H616 0.929 . S
C629 C621 1.433 . S
C629 N631 1.384 . S
N630 C626 1.427 . S
N630 C627 1.384 . S
N631 C623 1.427 . S
N631 C629 1.384 . S
H632 C638 0.930 . S
H633 C642 0.930 . S
H634 C647 0.929 . S
H635 C645 0.929 . S
H636 C640 0.929 . S
H637 C646 0.929 . S
C638 H632 0.930 . S
C638 C639 1.367 1_565 S
C638 C646 1.378 . S
C639 C638 1.367 1_545 S
C639 C647 1.433 . S
C640 H636 0.929 . S
C640 C642 1.378 . S
C640 C644 1.350 1_545 S
C641 C644 1.463 1_545 S
C641 C646 1.350 1_545 S
C641 N649 1.427 . S
C642 H633 0.930 . S
C642 C640 1.378 . S
C642 C643 1.367 1_545 S
C643 C642 1.367 1_565 S
C643 C645 1.433 . S
C644 C640 1.350 1_565 S
C644 C641 1.463 1_565 S
C644 N648 1.427 . S
C645 H635 0.929 . S
C645 C643 1.433 . S
C645 N648 1.384 . S
C646 H637 0.929 . S
C646 C638 1.378 . S
C646 C641 1.350 1_565 S
C647 H634 0.929 . S
C647 C639 1.433 . S
C647 N649 1.384 . S
N648 C644 1.427 . S
N648 C645 1.384 . S
N649 C641 1.427 . S
N649 C647 1.384 . S
H650 C656 0.930 . S
H651 C660 0.930 . S
H652 C665 0.929 . S
H653 C663 0.929 . S
H654 C658 0.929 . S
H655 C664 0.929 . S
C656 H650 0.930 . S
C656 C657 1.367 . S
C656 C664 1.378 . S
C657 C656 1.367 . S
C657 C665 1.433 1_545 S
C658 H654 0.929 . S
C658 C660 1.378 . S
C658 C662 1.350 . S
C659 C662 1.463 1_645 S
C659 C664 1.350 . S
C659 N667 1.427 1_545 S
C660 H651 0.930 . S
C660 C658 1.378 . S
C660 C661 1.367 . S
C661 C660 1.367 . S
C661 C663 1.433 1_565 S
C662 C658 1.350 . S
C662 C659 1.463 1_465 S
C662 N666 1.427 1_565 S
C663 H653 0.929 . S
C663 C661 1.433 1_545 S
C663 N666 1.384 . S
C664 H655 0.929 . S
C664 C656 1.378 . S
C664 C659 1.350 . S
C665 H652 0.929 . S
C665 C657 1.433 1_565 S
C665 N667 1.384 . S
N666 C662 1.427 1_545 S
N666 C663 1.384 . S
N667 C659 1.427 1_565 S
N667 C665 1.384 . S
H668 C674 0.930 . S
H669 C678 0.930 . S
H670 C683 0.929 . S
H671 C681 0.929 . S
H672 C676 0.929 . S
H673 C682 0.929 . S
C674 H668 0.930 . S
C674 C675 1.367 1_565 S
C674 C682 1.378 . S
C675 C674 1.367 1_545 S
C675 C683 1.433 . S
C676 H672 0.929 . S
C676 C678 1.378 . S
C676 C680 1.350 1_545 S
C677 C680 1.463 1_545 S
C677 C682 1.350 1_545 S
C677 N685 1.427 . S
C678 H669 0.930 . S
C678 C676 1.378 . S
C678 C679 1.367 1_545 S
C679 C678 1.367 1_565 S
C679 C681 1.433 . S
C680 C676 1.350 1_565 S
C680 C677 1.463 1_565 S
C680 N684 1.427 . S
C681 H671 0.929 . S
C681 C679 1.433 . S
C681 N684 1.384 . S
C682 H673 0.929 . S
C682 C674 1.378 . S
C682 C677 1.350 1_565 S
C683 H670 0.929 . S
C683 C675 1.433 . S
C683 N685 1.384 . S
N684 C680 1.427 . S
N684 C681 1.384 . S
N685 C677 1.427 . S
N685 C683 1.384 . S
H686 C692 0.930 . S
H687 C696 0.930 . S
H688 C701 0.929 . S
H689 C699 0.929 . S
H690 C694 0.929 . S
H691 C700 0.929 . S
C692 H686 0.930 . S
C692 C693 1.367 . S
C692 C700 1.378 . S
C693 C692 1.367 . S
C693 C701 1.433 1_545 S
C694 H690 0.929 . S
C694 C696 1.378 . S
C694 C698 1.350 . S
C695 C698 1.463 1_445 S
C695 C700 1.350 . S
C695 N703 1.427 1_545 S
C696 H687 0.930 . S
C696 C694 1.378 . S
C696 C697 1.367 . S
C697 C696 1.367 . S
C697 C699 1.433 1_565 S
C698 C694 1.350 . S
C698 C695 1.463 1_665 S
C698 N702 1.427 1_565 S
C699 H689 0.929 . S
C699 C697 1.433 1_545 S
C699 N702 1.384 . S
C700 H691 0.929 . S
C700 C692 1.378 . S
C700 C695 1.350 . S
C701 H688 0.929 . S
C701 C693 1.433 1_565 S
C701 N703 1.384 . S
N702 C698 1.427 1_545 S
N702 C699 1.384 . S
N703 C695 1.427 1_565 S
N703 C701 1.384 . S
H704 C710 0.930 . S
H705 C714 0.930 . S
H706 C719 0.929 . S
H707 C717 0.929 . S
H708 C712 0.929 . S
H709 C718 0.929 . S
C710 H704 0.930 . S
C710 C711 1.367 . S
C710 C718 1.378 . S
C711 C710 1.367 . S
C711 C719 1.433 . S
C712 H708 0.929 . S
C712 C714 1.378 . S
C712 C716 1.350 . S
C713 C716 1.463 . S
C713 C718 1.350 . S
C713 N721 1.427 . S
C714 H705 0.930 . S
C714 C712 1.378 . S
C714 C715 1.367 . S
C715 C714 1.367 . S
C715 C717 1.433 . S
C716 C712 1.350 . S
C716 C713 1.463 . S
C716 N720 1.427 . S
C717 H707 0.929 . S
C717 C715 1.433 . S
C717 N720 1.384 . S
C718 H709 0.929 . S
C718 C710 1.378 . S
C718 C713 1.350 . S
C719 H706 0.929 . S
C719 C711 1.433 . S
C719 N721 1.384 . S
N720 C716 1.427 . S
N720 C717 1.384 . S
N721 C713 1.427 . S
N721 C719 1.384 . S
H722 C728 0.930 . S
H723 C732 0.930 . S
H724 C737 0.929 . S
H725 C735 0.929 . S
H726 C730 0.929 . S
H727 C736 0.929 . S
C728 H722 0.930 . S
C728 C729 1.367 . S
C728 C736 1.378 1_556 S
C729 C728 1.367 . S
C729 C737 1.433 . S
C730 H726 0.929 . S
C730 C732 1.378 . S
C730 C734 1.350 . S
C731 C734 1.463 . S
C731 C736 1.350 . S
C731 N739 1.427 . S
C732 H723 0.930 . S
C732 C730 1.378 . S
C732 C733 1.367 . S
C733 C732 1.367 . S
C733 C735 1.433 . S
C734 C730 1.350 . S
C734 C731 1.463 . S
C734 N738 1.427 . S
C735 H725 0.929 . S
C735 C733 1.433 . S
C735 N738 1.384 . S
C736 H727 0.929 . S
C736 C728 1.378 1_554 S
C736 C731 1.350 . S
C737 H724 0.929 . S
C737 C729 1.433 . S
C737 N739 1.384 1_556 S
N738 C734 1.427 . S
N738 C735 1.384 . S
N739 C731 1.427 . S
N739 C737 1.384 1_554 S
H740 C746 0.930 . S
H741 C750 0.930 . S
H742 C755 0.929 . S
H743 C753 0.929 . S
H744 C748 0.929 . S
H745 C754 0.929 . S
C746 H740 0.930 . S
C746 C747 1.367 . S
C746 C754 1.378 . S
C747 C746 1.367 . S
C747 C755 1.433 . S
C748 H744 0.929 . S
C748 C750 1.378 . S
C748 C752 1.350 . S
C749 C752 1.463 . S
C749 C754 1.350 . S
C749 N757 1.427 . S
C750 H741 0.930 . S
C750 C748 1.378 . S
C750 C751 1.367 . S
C751 C750 1.367 . S
C751 C753 1.433 . S
C752 C748 1.350 . S
C752 C749 1.463 . S
C752 N756 1.427 . S
C753 H743 0.929 . S
C753 C751 1.433 . S
C753 N756 1.384 . S
C754 H745 0.929 . S
C754 C746 1.378 . S
C754 C749 1.350 . S
C755 H742 0.929 . S
C755 C747 1.433 . S
C755 N757 1.384 . S
N756 C752 1.427 . S
N756 C753 1.384 . S
N757 C749 1.427 . S
N757 C755 1.384 . S
H758 C764 0.930 . S
H759 C768 0.930 . S
H760 C773 0.929 . S
H761 C771 0.929 . S
H762 C766 0.929 . S
H763 C772 0.929 . S
C764 H758 0.930 . S
C764 C765 1.367 . S
C764 C772 1.378 . S
C765 C764 1.367 . S
C765 C773 1.433 . S
C766 H762 0.929 . S
C766 C768 1.378 . S
C766 C770 1.350 . S
C767 C770 1.463 . S
C767 C772 1.350 . S
C767 N775 1.427 . S
C768 H759 0.930 . S
C768 C766 1.378 . S
C768 C769 1.367 . S
C769 C768 1.367 . S
C769 C771 1.433 . S
C770 C766 1.350 . S
C770 C767 1.463 . S
C770 N774 1.427 . S
C771 H761 0.929 . S
C771 C769 1.433 . S
C771 N774 1.384 . S
C772 H763 0.929 . S
C772 C764 1.378 . S
C772 C767 1.350 . S
C773 H760 0.929 . S
C773 C765 1.433 . S
C773 N775 1.384 . S
N774 C770 1.427 . S
N774 C771 1.384 . S
N775 C767 1.427 . S
N775 C773 1.384 . S
H776 C782 0.930 . S
H777 C786 0.930 . S
H778 C791 0.929 . S
H779 C789 0.929 . S
H780 C784 0.929 . S
H781 C790 0.929 . S
C782 H776 0.930 . S
C782 C783 1.367 . S
C782 C790 1.378 . S
C783 C782 1.367 . S
C783 C791 1.433 . S
C784 H780 0.929 . S
C784 C786 1.378 . S
C784 C788 1.350 . S
C785 C788 1.463 . S
C785 C790 1.350 . S
C785 N793 1.427 . S
C786 H777 0.930 . S
C786 C784 1.378 . S
C786 C787 1.367 . S
C787 C786 1.367 . S
C787 C789 1.433 . S
C788 C784 1.350 . S
C788 C785 1.463 . S
C788 N792 1.427 . S
C789 H779 0.929 . S
C789 C787 1.433 . S
C789 N792 1.384 . S
C790 H781 0.929 . S
C790 C782 1.378 . S
C790 C785 1.350 . S
C791 H778 0.929 . S
C791 C783 1.433 . S
C791 N793 1.384 . S
N792 C788 1.427 . S
N792 C789 1.384 . S
N793 C785 1.427 . S
N793 C791 1.384 . S
H794 C800 0.930 . S
H795 C804 0.930 . S
H796 C809 0.929 . S
H797 C807 0.929 . S
H798 C802 0.929 . S
H799 C808 0.929 . S
C800 H794 0.930 . S
C800 C801 1.367 . S
C800 C808 1.378 1_556 S
C801 C800 1.367 . S
C801 C809 1.433 . S
C802 H798 0.929 . S
C802 C804 1.378 . S
C802 C806 1.350 . S
C803 C806 1.463 . S
C803 C808 1.350 . S
C803 N811 1.427 . S
C804 H795 0.930 . S
C804 C802 1.378 . S
C804 C805 1.367 . S
C805 C804 1.367 . S
C805 C807 1.433 . S
C806 C802 1.350 . S
C806 C803 1.463 . S
C806 N810 1.427 . S
C807 H797 0.929 . S
C807 C805 1.433 . S
C807 N810 1.384 . S
C808 H799 0.929 . S
C808 C800 1.378 1_554 S
C808 C803 1.350 . S
C809 H796 0.929 . S
C809 C801 1.433 . S
C809 N811 1.384 1_556 S
N810 C806 1.427 . S
N810 C807 1.384 . S
N811 C803 1.427 . S
N811 C809 1.384 1_554 S
H812 C818 0.930 . S
H813 C822 0.930 . S
H814 C827 0.929 . S
H815 C825 0.929 . S
H816 C820 0.929 . S
H817 C826 0.929 . S
C818 H812 0.930 . S
C818 C819 1.367 . S
C818 C826 1.378 . S
C819 C818 1.367 . S
C819 C827 1.433 . S
C820 H816 0.929 . S
C820 C822 1.378 . S
C820 C824 1.350 . S
C821 C824 1.463 . S
C821 C826 1.350 . S
C821 N829 1.427 . S
C822 H813 0.930 . S
C822 C820 1.378 . S
C822 C823 1.367 . S
C823 C822 1.367 . S
C823 C825 1.433 . S
C824 C820 1.350 . S
C824 C821 1.463 . S
C824 N828 1.427 . S
C825 H815 0.929 . S
C825 C823 1.433 . S
C825 N828 1.384 . S
C826 H817 0.929 . S
C826 C818 1.378 . S
C826 C821 1.350 . S
C827 H814 0.929 . S
C827 C819 1.433 . S
C827 N829 1.384 . S
N828 C824 1.427 . S
N828 C825 1.384 . S
N829 C821 1.427 . S
N829 C827 1.384 . S
H830 C836 0.930 . S
H831 C840 0.930 . S
H832 C845 0.929 . S
H833 C843 0.929 . S
H834 C838 0.929 . S
H835 C844 0.929 . S
C836 H830 0.930 . S
C836 C837 1.367 . S
C836 C844 1.378 . S
C837 C836 1.367 . S
C837 C845 1.433 . S
C838 H834 0.929 . S
C838 C840 1.378 . S
C838 C842 1.350 . S
C839 C842 1.463 . S
C839 C844 1.350 . S
C839 N847 1.427 . S
C840 H831 0.930 . S
C840 C838 1.378 . S
C840 C841 1.367 . S
C841 C840 1.367 . S
C841 C843 1.433 . S
C842 C838 1.350 . S
C842 C839 1.463 . S
C842 N846 1.427 . S
C843 H833 0.929 . S
C843 C841 1.433 . S
C843 N846 1.384 . S
C844 H835 0.929 . S
C844 C836 1.378 . S
C844 C839 1.350 . S
C845 H832 0.929 . S
C845 C837 1.433 . S
C845 N847 1.384 . S
N846 C842 1.427 . S
N846 C843 1.384 . S
N847 C839 1.427 . S
N847 C845 1.384 . S
H848 C854 0.930 . S
H849 C858 0.930 . S
H850 C863 0.929 . S
H851 C861 0.929 . S
H852 C856 0.929 . S
H853 C862 0.929 . S
C854 H848 0.930 . S
C854 C855 1.367 . S
C854 C862 1.378 . S
C855 C854 1.367 . S
C855 C863 1.433 1_545 S
C856 H852 0.929 . S
C856 C858 1.378 . S
C856 C860 1.390 . S
C857 C860 1.456 1_545 S
C857 C862 1.392 . S
C857 N865 1.390 1_545 S
C858 H849 0.930 . S
C858 C856 1.378 . S
C858 C859 1.367 . S
C859 C858 1.367 . S
C859 C861 1.433 1_565 S
C860 C856 1.390 . S
C860 C857 1.456 1_565 S
C860 N864 1.392 1_565 S
C861 H851 0.929 . S
C861 C859 1.433 1_545 S
C861 N864 1.384 . S
C862 H853 0.929 . S
C862 C854 1.378 . S
C862 C857 1.392 . S
C863 H850 0.929 . S
C863 C855 1.433 1_565 S
C863 N865 1.384 . S
N864 C860 1.392 1_545 S
N864 C861 1.384 . S
N865 C857 1.390 1_565 S
N865 C863 1.384 . S
H866 C872 0.930 . S
H867 C876 0.930 . S
H868 C881 0.929 . S
H869 C879 0.929 . S
H870 C874 0.929 . S
H871 C880 0.929 . S
C872 H866 0.930 . S
C872 C873 1.367 . S
C872 C880 1.378 . S
C873 C872 1.367 . S
C873 C881 1.433 . S
C874 H870 0.929 . S
C874 C876 1.378 . S
C874 C878 1.350 . S
C875 C878 1.463 . S
C875 C880 1.350 . S
C875 N883 1.427 . S
C876 H867 0.930 . S
C876 C874 1.378 . S
C876 C877 1.367 . S
C877 C876 1.367 . S
C877 C879 1.433 . S
C878 C874 1.350 . S
C878 C875 1.463 . S
C878 N882 1.427 . S
C879 H869 0.929 . S
C879 C877 1.433 . S
C879 N882 1.384 . S
C880 H871 0.929 . S
C880 C872 1.378 . S
C880 C875 1.350 . S
C881 H868 0.929 . S
C881 C873 1.433 . S
C881 N883 1.384 . S
N882 C878 1.427 . S
N882 C879 1.384 . S
N883 C875 1.427 . S
N883 C881 1.384 . S
H884 C890 0.930 . S
H885 C894 0.930 . S
H886 C899 0.929 . S
H887 C897 0.929 . S
H888 C892 0.929 . S
H889 C898 0.929 . S
C890 H884 0.930 . S
C890 C891 1.367 . S
C890 C898 1.378 . S
C891 C890 1.367 . S
C891 C899 1.433 1_545 S
C892 H888 0.929 . S
C892 C894 1.378 . S
C892 C896 1.362 . S
C893 C896 1.459 1_545 S
C893 C898 1.363 . S
C893 N901 1.418 1_545 S
C894 H885 0.930 . S
C894 C892 1.378 . S
C894 C895 1.367 . S
C895 C894 1.367 . S
C895 C897 1.433 1_565 S
C896 C892 1.362 . S
C896 C893 1.459 1_565 S
C896 N900 1.419 1_565 S
C897 H887 0.929 . S
C897 C895 1.433 1_545 S
C897 N900 1.384 . S
C898 H889 0.929 . S
C898 C890 1.378 . S
C898 C893 1.363 . S
C899 H886 0.929 . S
C899 C891 1.433 1_565 S
C899 N901 1.384 . S
N900 C896 1.419 1_545 S
N900 C897 1.384 . S
N901 C893 1.418 1_565 S
N901 C899 1.384 . S
H902 C908 0.930 . S
H903 C912 0.930 . S
H904 C917 0.929 . S
H905 C915 0.929 . S
H906 C910 0.929 . S
H907 C916 0.929 . S
C908 H902 0.930 . S
C908 C909 1.367 . S
C908 C916 1.378 1_556 S
C909 C908 1.367 . S
C909 C917 1.433 . S
C910 H906 0.929 . S
C910 C912 1.378 . S
C910 C914 1.350 . S
C911 C914 1.463 . S
C911 C916 1.350 . S
C911 N919 1.427 . S
C912 H903 0.930 . S
C912 C910 1.378 . S
C912 C913 1.367 . S
C913 C912 1.367 . S
C913 C915 1.433 . S
C914 C910 1.350 . S
C914 C911 1.463 . S
C914 N918 1.427 . S
C915 H905 0.929 . S
C915 C913 1.433 . S
C915 N918 1.384 . S
C916 H907 0.929 . S
C916 C908 1.378 1_554 S
C916 C911 1.350 . S
C917 H904 0.929 . S
C917 C909 1.433 . S
C917 N919 1.384 1_556 S
N918 C914 1.427 . S
N918 C915 1.384 . S
N919 C911 1.427 . S
N919 C917 1.384 1_554 S
H920 C926 0.930 . S
H921 C930 0.930 . S
H922 C935 0.929 . S
H923 C933 0.929 . S
H924 C928 0.929 . S
H925 C934 0.929 . S
C926 H920 0.930 . S
C926 C927 1.367 . S
C926 C934 1.378 . S
C927 C926 1.367 . S
C927 C935 1.433 1_565 S
C928 H924 0.929 . S
C928 C930 1.378 . S
C928 C932 1.350 . S
C929 C932 1.463 1_565 S
C929 C934 1.350 . S
C929 N937 1.427 1_565 S
C930 H921 0.930 . S
C930 C928 1.378 . S
C930 C931 1.367 . S
C931 C930 1.367 . S
C931 C933 1.433 1_545 S
C932 C928 1.350 . S
C932 C929 1.463 1_545 S
C932 N936 1.427 1_545 S
C933 H923 0.929 . S
C933 C931 1.433 1_565 S
C933 N936 1.384 . S
C934 H925 0.929 . S
C934 C926 1.378 . S
C934 C929 1.350 . S
C935 H922 0.929 . S
C935 C927 1.433 1_545 S
C935 N937 1.384 . S
N936 C932 1.427 1_565 S
N936 C933 1.384 . S
N937 C929 1.427 1_545 S
N937 C935 1.384 . S
H938 C944 0.930 . S
H939 C948 0.930 . S
H940 C953 0.929 . S
H941 C951 0.929 . S
H942 C946 0.929 . S
H943 C952 0.929 . S
C944 H938 0.930 . S
C944 C945 1.367 . S
C944 C952 1.378 . S
C945 C944 1.367 . S
C945 C953 1.433 . S
C946 H942 0.929 . S
C946 C948 1.378 . S
C946 C950 1.350 . S
C947 C950 1.463 . S
C947 C952 1.350 . S
C947 N955 1.427 . S
C948 H939 0.930 . S
C948 C946 1.378 . S
C948 C949 1.367 . S
C949 C948 1.367 . S
C949 C951 1.433 . S
C950 C946 1.350 . S
C950 C947 1.463 . S
C950 N954 1.427 . S
C951 H941 0.929 . S
C951 C949 1.433 . S
C951 N954 1.384 . S
C952 H943 0.929 . S
C952 C944 1.378 . S
C952 C947 1.350 . S
C953 H940 0.929 . S
C953 C945 1.433 . S
C953 N955 1.384 . S
N954 C950 1.427 . S
N954 C951 1.384 . S
N955 C947 1.427 . S
N955 C953 1.384 . S
H956 C962 0.930 . S
H957 C966 0.930 . S
H958 C971 0.929 . S
H959 C969 0.929 . S
H960 C964 0.929 . S
H961 C970 0.929 . S
C962 H956 0.930 . S
C962 C963 1.367 . S
C962 C970 1.378 . S
C963 C962 1.367 . S
C963 C971 1.433 1_545 S
C964 H960 0.929 . S
C964 C966 1.378 . S
C964 C968 1.350 . S
C965 C968 1.457 1_545 S
C965 C970 1.397 . S
C965 N973 1.385 1_545 S
C966 H957 0.930 . S
C966 C964 1.378 . S
C966 C967 1.367 . S
C967 C966 1.367 . S
C967 C969 1.433 1_565 S
C968 C964 1.350 . S
C968 C965 1.457 1_565 S
C968 N972 1.427 1_565 S
C969 H959 0.929 . S
C969 C967 1.433 1_545 S
C969 N972 1.384 . S
C970 H961 0.929 . S
C970 C962 1.378 . S
C970 C965 1.397 . S
C971 H958 0.929 . S
C971 C963 1.433 1_565 S
C971 N973 1.384 . S
N972 C968 1.427 1_545 S
N972 C969 1.384 . S
N973 C965 1.385 1_565 S
N973 C971 1.384 . S
H974 C980 0.930 . S
H975 C984 0.930 . S
H976 C989 0.929 . S
H977 C987 0.929 . S
H978 C982 0.929 . S
H979 C988 0.929 . S
C980 H974 0.930 . S
C980 C981 1.367 . S
C980 C988 1.378 . S
C981 C980 1.367 . S
C981 C989 1.433 . S
C982 H978 0.929 . S
C982 C984 1.378 1_554 S
C982 C986 1.350 . S
C983 C986 1.463 . S
C983 C988 1.350 . S
C983 N991 1.427 . S
C984 H975 0.930 . S
C984 C982 1.378 1_556 S
C984 C985 1.367 . S
C985 C984 1.367 . S
C985 C987 1.433 . S
C986 C982 1.350 . S
C986 C983 1.463 . S
C986 N990 1.427 . S
C987 H977 0.929 . S
C987 C985 1.433 . S
C987 N990 1.384 1_556 S
C988 H979 0.929 . S
C988 C980 1.378 . S
C988 C983 1.350 . S
C989 H976 0.929 . S
C989 C981 1.433 . S
C989 N991 1.384 . S
N990 C986 1.427 . S
N990 C987 1.384 1_554 S
N991 C983 1.427 . S
N991 C989 1.384 . S
H992 C998 0.930 . S
H993 C1002 0.930 . S
H994 C1007 0.929 . S
H995 C1005 0.929 . S
H996 C1000 0.929 . S
H997 C1006 0.929 . S
C998 H992 0.930 . S
C998 C999 1.367 . S
C998 C1006 1.378 . S
C999 C998 1.367 . S
C999 C1007 1.433 . S
C1000 H996 0.929 . S
C1000 C1002 1.378 . S
C1000 C1004 1.350 . S
C1001 C1004 1.463 . S
C1001 C1006 1.350 . S
C1001 N1009 1.427 . S
C1002 H993 0.930 . S
C1002 C1000 1.378 . S
C1002 C1003 1.367 . S
C1003 C1002 1.367 . S
C1003 C1005 1.433 . S
C1004 C1000 1.350 . S
C1004 C1001 1.463 . S
C1004 N1008 1.427 . S
C1005 H995 0.929 . S
C1005 C1003 1.433 . S
C1005 N1008 1.384 . S
C1006 H997 0.929 . S
C1006 C998 1.378 . S
C1006 C1001 1.350 . S
C1007 H994 0.929 . S
C1007 C999 1.433 . S
C1007 N1009 1.384 . S
N1008 C1004 1.427 . S
N1008 C1005 1.384 . S
N1009 C1001 1.427 . S
N1009 C1007 1.384 . S
H1010 C1016 0.930 . S
H1011 C1020 0.930 . S
H1012 C1025 0.929 . S
H1013 C1023 0.929 . S
H1014 C1018 0.929 . S
H1015 C1024 0.929 . S
C1016 H1010 0.930 . S
C1016 C1017 1.367 . S
C1016 C1024 1.378 . S
C1017 C1016 1.367 . S
C1017 C1025 1.433 . S
C1018 H1014 0.929 . S
C1018 C1020 1.378 . S
C1018 C1022 1.350 . S
C1019 C1022 1.463 . S
C1019 C1024 1.350 . S
C1019 N1027 1.427 . S
C1020 H1011 0.930 . S
C1020 C1018 1.378 . S
C1020 C1021 1.367 . S
C1021 C1020 1.367 . S
C1021 C1023 1.433 . S
C1022 C1018 1.350 . S
C1022 C1019 1.463 . S
C1022 N1026 1.427 . S
C1023 H1013 0.929 . S
C1023 C1021 1.433 . S
C1023 N1026 1.384 . S
C1024 H1015 0.929 . S
C1024 C1016 1.378 . S
C1024 C1019 1.350 . S
C1025 H1012 0.929 . S
C1025 C1017 1.433 . S
C1025 N1027 1.384 . S
N1026 C1022 1.427 . S
N1026 C1023 1.384 . S
N1027 C1019 1.427 . S
N1027 C1025 1.384 . S
H1028 C1034 0.930 . S
H1029 C1038 0.930 . S
H1030 C1043 0.929 . S
H1031 C1041 0.929 . S
H1032 C1036 0.929 . S
H1033 C1042 0.929 . S
C1034 H1028 0.930 . S
C1034 C1035 1.367 . S
C1034 C1042 1.378 . S
C1035 C1034 1.367 . S
C1035 C1043 1.433 . S
C1036 H1032 0.929 . S
C1036 C1038 1.378 . S
C1036 C1040 1.350 . S
C1037 C1040 1.463 . S
C1037 C1042 1.350 . S
C1037 N1045 1.427 . S
C1038 H1029 0.930 . S
C1038 C1036 1.378 . S
C1038 C1039 1.367 . S
C1039 C1038 1.367 . S
C1039 C1041 1.433 . S
C1040 C1036 1.350 . S
C1040 C1037 1.463 . S
C1040 N1044 1.427 . S
C1041 H1031 0.929 . S
C1041 C1039 1.433 . S
C1041 N1044 1.384 . S
C1042 H1033 0.929 . S
C1042 C1034 1.378 . S
C1042 C1037 1.350 . S
C1043 H1030 0.929 . S
C1043 C1035 1.433 . S
C1043 N1045 1.384 . S
N1044 C1040 1.427 . S
N1044 C1041 1.384 . S
N1045 C1037 1.427 . S
N1045 C1043 1.384 . S
H1046 C1052 0.930 . S
H1047 C1056 0.930 . S
H1048 C1061 0.929 . S
H1049 C1059 0.929 . S
H1050 C1054 0.929 . S
H1051 C1060 0.929 . S
C1052 H1046 0.930 . S
C1052 C1053 1.367 . S
C1052 C1060 1.378 . S
C1053 C1052 1.367 . S
C1053 C1061 1.433 . S
C1054 H1050 0.929 . S
C1054 C1056 1.378 1_554 S
C1054 C1058 1.350 . S
C1055 C1058 1.463 . S
C1055 C1060 1.350 . S
C1055 N1063 1.427 . S
C1056 H1047 0.930 . S
C1056 C1054 1.378 1_556 S
C1056 C1057 1.367 . S
C1057 C1056 1.367 . S
C1057 C1059 1.433 . S
C1058 C1054 1.350 . S
C1058 C1055 1.463 . S
C1058 N1062 1.427 . S
C1059 H1049 0.929 . S
C1059 C1057 1.433 . S
C1059 N1062 1.384 1_556 S
C1060 H1051 0.929 . S
C1060 C1052 1.378 . S
C1060 C1055 1.350 . S
C1061 H1048 0.929 . S
C1061 C1053 1.433 . S
C1061 N1063 1.384 . S
N1062 C1058 1.427 . S
N1062 C1059 1.384 1_554 S
N1063 C1055 1.427 . S
N1063 C1061 1.384 . S
H1064 C1070 0.930 . S
H1065 C1074 0.930 . S
H1066 C1079 0.929 . S
H1067 C1077 0.929 . S
H1068 C1072 0.929 . S
H1069 C1078 0.929 . S
C1070 H1064 0.930 . S
C1070 C1071 1.367 . S
C1070 C1078 1.378 . S
C1071 C1070 1.367 . S
C1071 C1079 1.433 . S
C1072 H1068 0.929 . S
C1072 C1074 1.378 . S
C1072 C1076 1.350 . S
C1073 C1076 1.463 . S
C1073 C1078 1.350 . S
C1073 N1081 1.427 . S
C1074 H1065 0.930 . S
C1074 C1072 1.378 . S
C1074 C1075 1.367 . S
C1075 C1074 1.367 . S
C1075 C1077 1.433 . S
C1076 C1072 1.350 . S
C1076 C1073 1.463 . S
C1076 N1080 1.427 . S
C1077 H1067 0.929 . S
C1077 C1075 1.433 . S
C1077 N1080 1.384 . S
C1078 H1069 0.929 . S
C1078 C1070 1.378 . S
C1078 C1073 1.350 . S
C1079 H1066 0.929 . S
C1079 C1071 1.433 . S
C1079 N1081 1.384 . S
N1080 C1076 1.427 . S
N1080 C1077 1.384 . S
N1081 C1073 1.427 . S
N1081 C1079 1.384 . S
H1082 C1088 0.930 . S
H1083 C1092 0.930 . S
H1084 C1097 0.929 . S
H1085 C1095 0.929 . S
H1086 C1090 0.929 . S
H1087 C1096 0.929 . S
C1088 H1082 0.930 . S
C1088 C1089 1.367 . S
C1088 C1096 1.378 . S
C1089 C1088 1.367 . S
C1089 C1097 1.433 . S
C1090 H1086 0.929 . S
C1090 C1092 1.378 . S
C1090 C1094 1.350 . S
C1091 C1094 1.463 . S
C1091 C1096 1.350 . S
C1091 N1099 1.427 . S
C1092 H1083 0.930 . S
C1092 C1090 1.378 . S
C1092 C1093 1.367 . S
C1093 C1092 1.367 . S
C1093 C1095 1.433 . S
C1094 C1090 1.350 . S
C1094 C1091 1.463 . S
C1094 N1098 1.427 . S
C1095 H1085 0.929 . S
C1095 C1093 1.433 . S
C1095 N1098 1.384 . S
C1096 H1087 0.929 . S
C1096 C1088 1.378 . S
C1096 C1091 1.350 . S
C1097 H1084 0.929 . S
C1097 C1089 1.433 . S
C1097 N1099 1.384 . S
N1098 C1094 1.427 . S
N1098 C1095 1.384 . S
N1099 C1091 1.427 . S
N1099 C1097 1.384 . S
H1100 C1106 0.930 . S
H1101 C1110 0.930 . S
H1102 C1115 0.929 . S
H1103 C1113 0.929 . S
H1104 C1108 0.929 . S
H1105 C1114 0.929 . S
C1106 H1100 0.930 . S
C1106 C1107 1.367 . S
C1106 C1114 1.378 . S
C1107 C1106 1.367 . S
C1107 C1115 1.433 . S
C1108 H1104 0.929 . S
C1108 C1110 1.378 . S
C1108 C1112 1.350 . S
C1109 C1112 1.463 . S
C1109 C1114 1.350 . S
C1109 N1117 1.427 . S
C1110 H1101 0.930 . S
C1110 C1108 1.378 . S
C1110 C1111 1.367 . S
C1111 C1110 1.367 . S
C1111 C1113 1.433 . S
C1112 C1108 1.350 . S
C1112 C1109 1.463 . S
C1112 N1116 1.427 . S
C1113 H1103 0.929 . S
C1113 C1111 1.433 . S
C1113 N1116 1.384 . S
C1114 H1105 0.929 . S
C1114 C1106 1.378 . S
C1114 C1109 1.350 . S
C1115 H1102 0.929 . S
C1115 C1107 1.433 . S
C1115 N1117 1.384 . S
N1116 C1112 1.427 . S
N1116 C1113 1.384 . S
N1117 C1109 1.427 . S
N1117 C1115 1.384 . S
H1118 C1124 0.930 . S
H1119 C1128 0.930 . S
H1120 C1133 0.929 . S
H1121 C1131 0.929 . S
H1122 C1126 0.929 . S
H1123 C1132 0.929 . S
C1124 H1118 0.930 . S
C1124 C1125 1.367 . S
C1124 C1132 1.378 1_556 S
C1125 C1124 1.367 . S
C1125 C1133 1.433 . S
C1126 H1122 0.929 . S
C1126 C1128 1.378 . S
C1126 C1130 1.350 . S
C1127 C1130 1.463 . S
C1127 C1132 1.350 . S
C1127 N1135 1.427 . S
C1128 H1119 0.930 . S
C1128 C1126 1.378 . S
C1128 C1129 1.367 . S
C1129 C1128 1.367 . S
C1129 C1131 1.433 . S
C1130 C1126 1.350 . S
C1130 C1127 1.463 . S
C1130 N1134 1.427 . S
C1131 H1121 0.929 . S
C1131 C1129 1.433 . S
C1131 N1134 1.384 . S
C1132 H1123 0.929 . S
C1132 C1124 1.378 1_554 S
C1132 C1127 1.350 . S
C1133 H1120 0.929 . S
C1133 C1125 1.433 . S
C1133 N1135 1.384 1_556 S
N1134 C1130 1.427 . S
N1134 C1131 1.384 . S
N1135 C1127 1.427 . S
N1135 C1133 1.384 1_554 S
H1136 C1142 0.930 . S
H1137 C1146 0.930 . S
H1138 C1151 0.929 . S
H1139 C1149 0.929 . S
H1140 C1144 0.929 . S
H1141 C1150 0.929 . S
C1142 H1136 0.930 . S
C1142 C1143 1.367 1_565 S
C1142 C1150 1.378 . S
C1143 C1142 1.367 1_545 S
C1143 C1151 1.433 . S
C1144 H1140 0.929 . S
C1144 C1146 1.378 . S
C1144 C1148 1.349 1_545 S
C1145 C1148 1.462 1_545 S
C1145 C1150 1.348 1_545 S
C1145 N1153 1.430 . S
C1146 H1137 0.930 . S
C1146 C1144 1.378 . S
C1146 C1147 1.367 1_545 S
C1147 C1146 1.367 1_565 S
C1147 C1149 1.433 . S
C1148 C1144 1.349 1_565 S
C1148 C1145 1.462 1_565 S
C1148 N1152 1.428 . S
C1149 H1139 0.929 . S
C1149 C1147 1.433 . S
C1149 N1152 1.384 . S
C1150 H1141 0.929 . S
C1150 C1142 1.378 . S
C1150 C1145 1.348 1_565 S
C1151 H1138 0.929 . S
C1151 C1143 1.433 . S
C1151 N1153 1.384 . S
N1152 C1148 1.428 . S
N1152 C1149 1.384 . S
N1153 C1145 1.430 . S
N1153 C1151 1.384 . S
H1154 C1160 0.930 . S
H1155 C1164 0.930 . S
H1156 C1169 0.929 . S
H1157 C1167 0.929 . S
H1158 C1162 0.929 . S
H1159 C1168 0.929 . S
C1160 H1154 0.930 . S
C1160 C1161 1.367 . S
C1160 C1168 1.378 . S
C1161 C1160 1.367 . S
C1161 C1169 1.433 . S
C1162 H1158 0.929 . S
C1162 C1164 1.378 1_554 S
C1162 C1166 1.350 . S
C1163 C1166 1.463 . S
C1163 C1168 1.350 . S
C1163 N1171 1.427 . S
C1164 H1155 0.930 . S
C1164 C1162 1.378 1_556 S
C1164 C1165 1.367 . S
C1165 C1164 1.367 . S
C1165 C1167 1.433 . S
C1166 C1162 1.350 . S
C1166 C1163 1.463 . S
C1166 N1170 1.427 . S
C1167 H1157 0.929 . S
C1167 C1165 1.433 . S
C1167 N1170 1.384 1_556 S
C1168 H1159 0.929 . S
C1168 C1160 1.378 . S
C1168 C1163 1.350 . S
C1169 H1156 0.929 . S
C1169 C1161 1.433 . S
C1169 N1171 1.384 . S
N1170 C1166 1.427 . S
N1170 C1167 1.384 1_554 S
N1171 C1163 1.427 . S
N1171 C1169 1.384 . S
H1172 C1178 0.930 . S
H1173 C1182 0.930 . S
H1174 C1187 0.929 . S
H1175 C1185 0.929 . S
H1176 C1180 0.929 . S
H1177 C1186 0.929 . S
C1178 H1172 0.930 . S
C1178 C1179 1.367 . S
C1178 C1186 1.378 . S
C1179 C1178 1.367 . S
C1179 C1187 1.433 1_545 S
C1180 H1176 0.929 . S
C1180 C1182 1.378 . S
C1180 C1184 1.350 . S
C1181 C1184 1.463 1_545 S
C1181 C1186 1.350 . S
C1181 N1189 1.427 1_545 S
C1182 H1173 0.930 . S
C1182 C1180 1.378 . S
C1182 C1183 1.367 . S
C1183 C1182 1.367 . S
C1183 C1185 1.433 1_565 S
C1184 C1180 1.350 . S
C1184 C1181 1.463 1_565 S
C1184 N1188 1.427 1_565 S
C1185 H1175 0.929 . S
C1185 C1183 1.433 1_545 S
C1185 N1188 1.384 . S
C1186 H1177 0.929 . S
C1186 C1178 1.378 . S
C1186 C1181 1.350 . S
C1187 H1174 0.929 . S
C1187 C1179 1.433 1_565 S
C1187 N1189 1.384 . S
N1188 C1184 1.427 1_545 S
N1188 C1185 1.384 . S
N1189 C1181 1.427 1_565 S
N1189 C1187 1.384 . S
H1190 C1196 0.930 . S
H1191 C1200 0.930 . S
H1192 C1205 0.929 . S
H1193 C1203 0.929 . S
H1194 C1198 0.929 . S
H1195 C1204 0.929 . S
C1196 H1190 0.930 . S
C1196 C1197 1.367 . S
C1196 C1204 1.378 . S
C1197 C1196 1.367 . S
C1197 C1205 1.433 . S
C1198 H1194 0.929 . S
C1198 C1200 1.378 . S
C1198 C1202 1.350 . S
C1199 C1202 1.463 . S
C1199 C1204 1.350 . S
C1199 N1207 1.427 . S
C1200 H1191 0.930 . S
C1200 C1198 1.378 . S
C1200 C1201 1.367 . S
C1201 C1200 1.367 . S
C1201 C1203 1.433 . S
C1202 C1198 1.350 . S
C1202 C1199 1.463 . S
C1202 N1206 1.427 . S
C1203 H1193 0.929 . S
C1203 C1201 1.433 . S
C1203 N1206 1.384 . S
C1204 H1195 0.929 . S
C1204 C1196 1.378 . S
C1204 C1199 1.350 . S
C1205 H1192 0.929 . S
C1205 C1197 1.433 . S
C1205 N1207 1.384 . S
N1206 C1202 1.427 . S
N1206 C1203 1.384 . S
N1207 C1199 1.427 . S
N1207 C1205 1.384 . S
H1208 C1214 0.930 . S
H1209 C1218 0.930 . S
H1210 C1223 0.929 . S
H1211 C1221 0.929 . S
H1212 C1216 0.929 . S
H1213 C1222 0.929 . S
C1214 H1208 0.930 . S
C1214 C1215 1.367 . S
C1214 C1222 1.378 . S
C1215 C1214 1.367 . S
C1215 C1223 1.433 1_545 S
C1216 H1212 0.929 . S
C1216 C1218 1.378 . S
C1216 C1220 1.350 . S
C1217 C1220 1.463 1_545 S
C1217 C1222 1.350 . S
C1217 N1225 1.427 1_545 S
C1218 H1209 0.930 . S
C1218 C1216 1.378 . S
C1218 C1219 1.367 . S
C1219 C1218 1.367 . S
C1219 C1221 1.433 1_565 S
C1220 C1216 1.350 . S
C1220 C1217 1.463 1_565 S
C1220 N1224 1.427 1_565 S
C1221 H1211 0.929 . S
C1221 C1219 1.433 1_545 S
C1221 N1224 1.384 . S
C1222 H1213 0.929 . S
C1222 C1214 1.378 . S
C1222 C1217 1.350 . S
C1223 H1210 0.929 . S
C1223 C1215 1.433 1_565 S
C1223 N1225 1.384 . S
N1224 C1220 1.427 1_545 S
N1224 C1221 1.384 . S
N1225 C1217 1.427 1_565 S
N1225 C1223 1.384 . S
H1226 C1232 0.930 . S
H1227 C1236 0.930 . S
H1228 C1241 0.929 . S
H1229 C1239 0.929 . S
H1230 C1234 0.929 . S
H1231 C1240 0.929 . S
C1232 H1226 0.930 . S
C1232 C1233 1.367 . S
C1232 C1240 1.378 . S
C1233 C1232 1.367 . S
C1233 C1241 1.433 . S
C1234 H1230 0.929 . S
C1234 C1236 1.378 1_554 S
C1234 C1238 1.350 . S
C1235 C1238 1.463 . S
C1235 C1240 1.350 . S
C1235 N1243 1.427 . S
C1236 H1227 0.930 . S
C1236 C1234 1.378 1_556 S
C1236 C1237 1.367 . S
C1237 C1236 1.367 . S
C1237 C1239 1.433 . S
C1238 C1234 1.350 . S
C1238 C1235 1.463 . S
C1238 N1242 1.427 . S
C1239 H1229 0.929 . S
C1239 C1237 1.433 . S
C1239 N1242 1.384 1_556 S
C1240 H1231 0.929 . S
C1240 C1232 1.378 . S
C1240 C1235 1.350 . S
C1241 H1228 0.929 . S
C1241 C1233 1.433 . S
C1241 N1243 1.384 . S
N1242 C1238 1.427 . S
N1242 C1239 1.384 1_554 S
N1243 C1235 1.427 . S
N1243 C1241 1.384 . S
H1244 C1250 0.930 . S
H1245 C1254 0.930 . S
H1246 C1259 0.929 . S
H1247 C1257 0.929 . S
H1248 C1252 0.929 . S
H1249 C1258 0.929 . S
C1250 H1244 0.930 . S
C1250 C1251 1.367 1_565 S
C1250 C1258 1.378 . S
C1251 C1250 1.367 1_545 S
C1251 C1259 1.433 . S
C1252 H1248 0.929 . S
C1252 C1254 1.378 . S
C1252 C1256 1.345 . S
C1253 C1256 1.463 1_565 S
C1253 C1258 1.347 . S
C1253 N1261 1.431 1_565 S
C1254 H1245 0.930 . S
C1254 C1252 1.378 . S
C1254 C1255 1.367 1_545 S
C1255 C1254 1.367 1_565 S
C1255 C1257 1.433 . S
C1256 C1252 1.345 . S
C1256 C1253 1.463 1_545 S
C1256 N1260 1.433 1_545 S
C1257 H1247 0.929 . S
C1257 C1255 1.433 . S
C1257 N1260 1.384 . S
C1258 H1249 0.929 . S
C1258 C1250 1.378 . S
C1258 C1253 1.347 . S
C1259 H1246 0.929 . S
C1259 C1251 1.433 . S
C1259 N1261 1.384 . S
N1260 C1256 1.433 1_565 S
N1260 C1257 1.384 . S
N1261 C1253 1.431 1_545 S
N1261 C1259 1.384 . S
H1262 C1268 0.930 . S
H1263 C1272 0.930 . S
H1264 C1277 0.929 . S
H1265 C1275 0.929 . S
H1266 C1270 0.929 . S
H1267 C1276 0.929 . S
C1268 H1262 0.930 . S
C1268 C1269 1.367 . S
C1268 C1276 1.378 . S
C1269 C1268 1.367 . S
C1269 C1277 1.433 . S
C1270 H1266 0.929 . S
C1270 C1272 1.378 . S
C1270 C1274 1.350 . S
C1271 C1274 1.463 . S
C1271 C1276 1.350 . S
C1271 N1279 1.427 . S
C1272 H1263 0.930 . S
C1272 C1270 1.378 . S
C1272 C1273 1.367 . S
C1273 C1272 1.367 . S
C1273 C1275 1.433 . S
C1274 C1270 1.350 . S
C1274 C1271 1.463 . S
C1274 N1278 1.427 . S
C1275 H1265 0.929 . S
C1275 C1273 1.433 . S
C1275 N1278 1.384 . S
C1276 H1267 0.929 . S
C1276 C1268 1.378 . S
C1276 C1271 1.350 . S
C1277 H1264 0.929 . S
C1277 C1269 1.433 . S
C1277 N1279 1.384 . S
N1278 C1274 1.427 . S
N1278 C1275 1.384 . S
N1279 C1271 1.427 . S
N1279 C1277 1.384 . S
H1280 C1286 0.930 . S
H1281 C1290 0.930 . S
H1282 C1295 0.929 . S
H1283 C1293 0.929 . S
H1284 C1288 0.929 . S
H1285 C1294 0.929 . S
C1286 H1280 0.930 . S
C1286 C1287 1.367 . S
C1286 C1294 1.378 . S
C1287 C1286 1.367 . S
C1287 C1295 1.433 . S
C1288 H1284 0.929 . S
C1288 C1290 1.378 . S
C1288 C1292 1.350 . S
C1289 C1292 1.463 . S
C1289 C1294 1.350 . S
C1289 N1297 1.427 . S
C1290 H1281 0.930 . S
C1290 C1288 1.378 . S
C1290 C1291 1.367 . S
C1291 C1290 1.367 . S
C1291 C1293 1.433 . S
C1292 C1288 1.350 . S
C1292 C1289 1.463 . S
C1292 N1296 1.427 . S
C1293 H1283 0.929 . S
C1293 C1291 1.433 . S
C1293 N1296 1.384 . S
C1294 H1285 0.929 . S
C1294 C1286 1.378 . S
C1294 C1289 1.350 . S
C1295 H1282 0.929 . S
C1295 C1287 1.433 . S
C1295 N1297 1.384 . S
N1296 C1292 1.427 . S
N1296 C1293 1.384 . S
N1297 C1289 1.427 . S
N1297 C1295 1.384 . S
H1298 C1304 0.930 . S
H1299 C1308 0.930 . S
H1300 C1313 0.929 . S
H1301 C1311 0.929 . S
H1302 C1306 0.929 . S
H1303 C1312 0.929 . S
C1304 H1298 0.930 . S
C1304 C1305 1.367 . S
C1304 C1312 1.378 . S
C1305 C1304 1.367 . S
C1305 C1313 1.433 . S
C1306 H1302 0.929 . S
C1306 C1308 1.378 . S
C1306 C1310 1.350 . S
C1307 C1310 1.463 . S
C1307 C1312 1.350 . S
C1307 N1315 1.427 . S
C1308 H1299 0.930 . S
C1308 C1306 1.378 . S
C1308 C1309 1.367 . S
C1309 C1308 1.367 . S
C1309 C1311 1.433 . S
C1310 C1306 1.350 . S
C1310 C1307 1.463 . S
C1310 N1314 1.427 . S
C1311 H1301 0.929 . S
C1311 C1309 1.433 . S
C1311 N1314 1.384 . S
C1312 H1303 0.929 . S
C1312 C1304 1.378 . S
C1312 C1307 1.350 . S
C1313 H1300 0.929 . S
C1313 C1305 1.433 . S
C1313 N1315 1.384 . S
N1314 C1310 1.427 . S
N1314 C1311 1.384 . S
N1315 C1307 1.427 . S
N1315 C1313 1.384 . S
H1316 C1322 0.930 . S
H1317 C1326 0.930 . S
H1318 C1331 0.929 . S
H1319 C1329 0.929 . S
H1320 C1324 0.929 . S
H1321 C1330 0.929 . S
C1322 H1316 0.930 . S
C1322 C1323 1.367 . S
C1322 C1330 1.378 . S
C1323 C1322 1.367 . S
C1323 C1331 1.433 . S
C1324 H1320 0.929 . S
C1324 C1326 1.378 . S
C1324 C1328 1.350 . S
C1325 C1328 1.463 . S
C1325 C1330 1.350 . S
C1325 N1333 1.427 . S
C1326 H1317 0.930 . S
C1326 C1324 1.378 . S
C1326 C1327 1.367 . S
C1327 C1326 1.367 . S
C1327 C1329 1.433 . S
C1328 C1324 1.350 . S
C1328 C1325 1.463 . S
C1328 N1332 1.427 . S
C1329 H1319 0.929 . S
C1329 C1327 1.433 . S
C1329 N1332 1.384 . S
C1330 H1321 0.929 . S
C1330 C1322 1.378 . S
C1330 C1325 1.350 . S
C1331 H1318 0.929 . S
C1331 C1323 1.433 . S
C1331 N1333 1.384 . S
N1332 C1328 1.427 . S
N1332 C1329 1.384 . S
N1333 C1325 1.427 . S
N1333 C1331 1.384 . S
H1334 C1340 0.930 . S
H1335 C1344 0.930 . S
H1336 C1349 0.929 . S
H1337 C1347 0.929 . S
H1338 C1342 0.929 . S
H1339 C1348 0.929 . S
C1340 H1334 0.930 . S
C1340 C1341 1.367 . S
C1340 C1348 1.378 . S
C1341 C1340 1.367 . S
C1341 C1349 1.433 . S
C1342 H1338 0.929 . S
C1342 C1344 1.378 . S
C1342 C1346 1.350 . S
C1343 C1346 1.463 . S
C1343 C1348 1.350 . S
C1343 N1351 1.427 . S
C1344 H1335 0.930 . S
C1344 C1342 1.378 . S
C1344 C1345 1.367 . S
C1345 C1344 1.367 . S
C1345 C1347 1.433 1_556 S
C1346 C1342 1.350 . S
C1346 C1343 1.463 . S
C1346 N1350 1.427 . S
C1347 H1337 0.929 . S
C1347 C1345 1.433 1_554 S
C1347 N1350 1.384 1_554 S
C1348 H1339 0.929 . S
C1348 C1340 1.378 . S
C1348 C1343 1.350 . S
C1349 H1336 0.929 . S
C1349 C1341 1.433 . S
C1349 N1351 1.384 . S
N1350 C1346 1.427 . S
N1350 C1347 1.384 1_556 S
N1351 C1343 1.427 . S
N1351 C1349 1.384 . S
H1352 C1358 0.930 . S
H1353 C1362 0.930 . S
H1354 C1367 0.929 . S
H1355 C1365 0.929 . S
H1356 C1360 0.929 . S
H1357 C1366 0.929 . S
C1358 H1352 0.930 . S
C1358 C1359 1.367 . S
C1358 C1366 1.378 . S
C1359 C1358 1.367 . S
C1359 C1367 1.433 . S
C1360 H1356 0.929 . S
C1360 C1362 1.378 . S
C1360 C1364 1.350 . S
C1361 C1364 1.463 . S
C1361 C1366 1.350 . S
C1361 N1369 1.427 . S
C1362 H1353 0.930 . S
C1362 C1360 1.378 . S
C1362 C1363 1.367 . S
C1363 C1362 1.367 . S
C1363 C1365 1.433 . S
C1364 C1360 1.350 . S
C1364 C1361 1.463 . S
C1364 N1368 1.427 . S
C1365 H1355 0.929 . S
C1365 C1363 1.433 . S
C1365 N1368 1.384 . S
C1366 H1357 0.929 . S
C1366 C1358 1.378 . S
C1366 C1361 1.350 . S
C1367 H1354 0.929 . S
C1367 C1359 1.433 . S
C1367 N1369 1.384 . S
N1368 C1364 1.427 . S
N1368 C1365 1.384 . S
N1369 C1361 1.427 . S
N1369 C1367 1.384 . S
H1370 C1376 0.930 . S
H1371 C1380 0.930 . S
H1372 C1385 0.929 . S
H1373 C1383 0.929 . S
H1374 C1378 0.929 . S
H1375 C1384 0.929 . S
C1376 H1370 0.930 . S
C1376 C1377 1.367 . S
C1376 C1384 1.378 . S
C1377 C1376 1.367 . S
C1377 C1385 1.433 . S
C1378 H1374 0.929 . S
C1378 C1380 1.378 . S
C1378 C1382 1.350 . S
C1379 C1382 1.463 . S
C1379 C1384 1.350 . S
C1379 N1387 1.427 . S
C1380 H1371 0.930 . S
C1380 C1378 1.378 . S
C1380 C1381 1.367 . S
C1381 C1380 1.367 . S
C1381 C1383 1.433 . S
C1382 C1378 1.350 . S
C1382 C1379 1.463 . S
C1382 N1386 1.427 . S
C1383 H1373 0.929 . S
C1383 C1381 1.433 . S
C1383 N1386 1.384 . S
C1384 H1375 0.929 . S
C1384 C1376 1.378 . S
C1384 C1379 1.350 . S
C1385 H1372 0.929 . S
C1385 C1377 1.433 . S
C1385 N1387 1.384 . S
N1386 C1382 1.427 . S
N1386 C1383 1.384 . S
N1387 C1379 1.427 . S
N1387 C1385 1.384 . S
H1388 C1394 0.930 . S
H1389 C1398 0.930 . S
H1390 C1403 0.929 . S
H1391 C1401 0.929 . S
H1392 C1396 0.929 . S
H1393 C1402 0.929 . S
C1394 H1388 0.930 . S
C1394 C1395 1.367 . S
C1394 C1402 1.378 . S
C1395 C1394 1.367 . S
C1395 C1403 1.433 . S
C1396 H1392 0.929 . S
C1396 C1398 1.378 . S
C1396 C1400 1.350 . S
C1397 C1400 1.463 . S
C1397 C1402 1.350 . S
C1397 N1405 1.427 . S
C1398 H1389 0.930 . S
C1398 C1396 1.378 . S
C1398 C1399 1.367 . S
C1399 C1398 1.367 . S
C1399 C1401 1.433 1_556 S
C1400 C1396 1.350 . S
C1400 C1397 1.463 . S
C1400 N1404 1.427 . S
C1401 H1391 0.929 . S
C1401 C1399 1.433 1_554 S
C1401 N1404 1.384 1_554 S
C1402 H1393 0.929 . S
C1402 C1394 1.378 . S
C1402 C1397 1.350 . S
C1403 H1390 0.929 . S
C1403 C1395 1.433 . S
C1403 N1405 1.384 . S
N1404 C1400 1.427 . S
N1404 C1401 1.384 1_556 S
N1405 C1397 1.427 . S
N1405 C1403 1.384 . S
H1406 C1412 0.930 . S
H1407 C1416 0.930 . S
H1408 C1421 0.929 . S
H1409 C1419 0.929 . S
H1410 C1414 0.929 . S
H1411 C1420 0.929 . S
C1412 H1406 0.930 . S
C1412 C1413 1.367 . S
C1412 C1420 1.378 . S
C1413 C1412 1.367 . S
C1413 C1421 1.433 . S
C1414 H1410 0.929 . S
C1414 C1416 1.378 . S
C1414 C1418 1.350 . S
C1415 C1418 1.463 . S
C1415 C1420 1.350 . S
C1415 N1423 1.427 . S
C1416 H1407 0.930 . S
C1416 C1414 1.378 . S
C1416 C1417 1.367 . S
C1417 C1416 1.367 . S
C1417 C1419 1.433 . S
C1418 C1414 1.350 . S
C1418 C1415 1.463 . S
C1418 N1422 1.427 . S
C1419 H1409 0.929 . S
C1419 C1417 1.433 . S
C1419 N1422 1.384 . S
C1420 H1411 0.929 . S
C1420 C1412 1.378 . S
C1420 C1415 1.350 . S
C1421 H1408 0.929 . S
C1421 C1413 1.433 . S
C1421 N1423 1.384 . S
N1422 C1418 1.427 . S
N1422 C1419 1.384 . S
N1423 C1415 1.427 . S
N1423 C1421 1.384 . S
H1424 C1430 0.930 . S
H1425 C1434 0.930 . S
H1426 C1439 0.929 . S
H1427 C1437 0.929 . S
H1428 C1432 0.929 . S
H1429 C1438 0.929 . S
C1430 H1424 0.930 . S
C1430 C1431 1.367 . S
C1430 C1438 1.378 . S
C1431 C1430 1.367 . S
C1431 C1439 1.433 1_556 S
C1432 H1428 0.929 . S
C1432 C1434 1.378 . S
C1432 C1436 1.350 . S
C1433 C1436 1.463 . S
C1433 C1438 1.350 . S
C1433 N1441 1.427 . S
C1434 H1425 0.930 . S
C1434 C1432 1.378 . S
C1434 C1435 1.367 . S
C1435 C1434 1.367 . S
C1435 C1437 1.433 . S
C1436 C1432 1.350 . S
C1436 C1433 1.463 . S
C1436 N1440 1.427 . S
C1437 H1427 0.929 . S
C1437 C1435 1.433 . S
C1437 N1440 1.384 . S
C1438 H1429 0.929 . S
C1438 C1430 1.378 . S
C1438 C1433 1.350 . S
C1439 H1426 0.929 . S
C1439 C1431 1.433 1_554 S
C1439 N1441 1.384 1_554 S
N1440 C1436 1.427 . S
N1440 C1437 1.384 . S
N1441 C1433 1.427 . S
N1441 C1439 1.384 1_556 S
H1442 C1448 0.930 . S
H1443 C1452 0.930 . S
H1444 C1457 0.929 . S
H1445 C1455 0.929 . S
H1446 C1450 0.929 . S
H1447 C1456 0.929 . S
C1448 H1442 0.930 . S
C1448 C1449 1.367 . S
C1448 C1456 1.378 . S
C1449 C1448 1.367 . S
C1449 C1457 1.433 . S
C1450 H1446 0.929 . S
C1450 C1452 1.378 . S
C1450 C1454 1.350 . S
C1451 C1454 1.463 . S
C1451 C1456 1.350 . S
C1451 N1459 1.427 . S
C1452 H1443 0.930 . S
C1452 C1450 1.378 . S
C1452 C1453 1.367 . S
C1453 C1452 1.367 . S
C1453 C1455 1.433 . S
C1454 C1450 1.350 . S
C1454 C1451 1.463 . S
C1454 N1458 1.427 . S
C1455 H1445 0.929 . S
C1455 C1453 1.433 . S
C1455 N1458 1.384 . S
C1456 H1447 0.929 . S
C1456 C1448 1.378 . S
C1456 C1451 1.350 . S
C1457 H1444 0.929 . S
C1457 C1449 1.433 . S
C1457 N1459 1.384 . S
N1458 C1454 1.427 . S
N1458 C1455 1.384 . S
N1459 C1451 1.427 . S
N1459 C1457 1.384 . S
H1460 C1466 0.930 . S
H1461 C1470 0.930 . S
H1462 C1475 0.929 . S
H1463 C1473 0.929 . S
H1464 C1468 0.929 . S
H1465 C1474 0.929 . S
C1466 H1460 0.930 . S
C1466 C1467 1.367 . S
C1466 C1474 1.378 . S
C1467 C1466 1.367 . S
C1467 C1475 1.433 . S
C1468 H1464 0.929 . S
C1468 C1470 1.378 . S
C1468 C1472 1.350 . S
C1469 C1472 1.463 . S
C1469 C1474 1.350 . S
C1469 N1477 1.427 . S
C1470 H1461 0.930 . S
C1470 C1468 1.378 . S
C1470 C1471 1.367 . S
C1471 C1470 1.367 . S
C1471 C1473 1.433 . S
C1472 C1468 1.350 . S
C1472 C1469 1.463 . S
C1472 N1476 1.427 . S
C1473 H1463 0.929 . S
C1473 C1471 1.433 . S
C1473 N1476 1.384 . S
C1474 H1465 0.929 . S
C1474 C1466 1.378 . S
C1474 C1469 1.350 . S
C1475 H1462 0.929 . S
C1475 C1467 1.433 . S
C1475 N1477 1.384 . S
N1476 C1472 1.427 . S
N1476 C1473 1.384 . S
N1477 C1469 1.427 . S
N1477 C1475 1.384 . S
H1478 C1484 0.930 . S
H1479 C1488 0.930 . S
H1480 C1493 0.929 . S
H1481 C1491 0.929 . S
H1482 C1486 0.929 . S
H1483 C1492 0.929 . S
C1484 H1478 0.930 . S
C1484 C1485 1.367 . S
C1484 C1492 1.378 . S
C1485 C1484 1.367 . S
C1485 C1493 1.433 . S
C1486 H1482 0.929 . S
C1486 C1488 1.378 . S
C1486 C1490 1.350 . S
C1487 C1490 1.463 . S
C1487 C1492 1.350 . S
C1487 N1495 1.427 . S
C1488 H1479 0.930 . S
C1488 C1486 1.378 . S
C1488 C1489 1.367 . S
C1489 C1488 1.367 . S
C1489 C1491 1.433 . S
C1490 C1486 1.350 . S
C1490 C1487 1.463 . S
C1490 N1494 1.427 . S
C1491 H1481 0.929 . S
C1491 C1489 1.433 . S
C1491 N1494 1.384 . S
C1492 H1483 0.929 . S
C1492 C1484 1.378 . S
C1492 C1487 1.350 . S
C1493 H1480 0.929 . S
C1493 C1485 1.433 . S
C1493 N1495 1.384 . S
N1494 C1490 1.427 . S
N1494 C1491 1.384 . S
N1495 C1487 1.427 . S
N1495 C1493 1.384 . S
H1496 C1502 0.930 . S
H1497 C1506 0.930 . S
H1498 C1511 0.929 . S
H1499 C1509 0.929 . S
H1500 C1504 0.929 . S
H1501 C1510 0.929 . S
C1502 H1496 0.930 . S
C1502 C1503 1.367 . S
C1502 C1510 1.378 . S
C1503 C1502 1.367 . S
C1503 C1511 1.433 . S
C1504 H1500 0.929 . S
C1504 C1506 1.378 . S
C1504 C1508 1.350 . S
C1505 C1508 1.463 . S
C1505 C1510 1.350 . S
C1505 N1513 1.427 . S
C1506 H1497 0.930 . S
C1506 C1504 1.378 . S
C1506 C1507 1.367 . S
C1507 C1506 1.367 . S
C1507 C1509 1.433 . S
C1508 C1504 1.350 . S
C1508 C1505 1.463 . S
C1508 N1512 1.427 . S
C1509 H1499 0.929 . S
C1509 C1507 1.433 . S
C1509 N1512 1.384 . S
C1510 H1501 0.929 . S
C1510 C1502 1.378 . S
C1510 C1505 1.350 . S
C1511 H1498 0.929 . S
C1511 C1503 1.433 . S
C1511 N1513 1.384 . S
N1512 C1508 1.427 . S
N1512 C1509 1.384 . S
N1513 C1505 1.427 . S
N1513 C1511 1.384 . S
H1514 C1520 0.930 . S
H1515 C1524 0.930 . S
H1516 C1529 0.929 . S
H1517 C1527 0.929 . S
H1518 C1522 0.929 . S
H1519 C1528 0.929 . S
C1520 H1514 0.930 . S
C1520 C1521 1.367 . S
C1520 C1528 1.378 . S
C1521 C1520 1.367 . S
C1521 C1529 1.433 . S
C1522 H1518 0.929 . S
C1522 C1524 1.378 . S
C1522 C1526 1.350 . S
C1523 C1526 1.463 . S
C1523 C1528 1.350 . S
C1523 N1531 1.427 . S
C1524 H1515 0.930 . S
C1524 C1522 1.378 . S
C1524 C1525 1.367 . S
C1525 C1524 1.367 . S
C1525 C1527 1.433 . S
C1526 C1522 1.350 . S
C1526 C1523 1.463 . S
C1526 N1530 1.427 . S
C1527 H1517 0.929 . S
C1527 C1525 1.433 . S
C1527 N1530 1.384 . S
C1528 H1519 0.929 . S
C1528 C1520 1.378 . S
C1528 C1523 1.350 . S
C1529 H1516 0.929 . S
C1529 C1521 1.433 . S
C1529 N1531 1.384 . S
N1530 C1526 1.427 . S
N1530 C1527 1.384 . S
N1531 C1523 1.427 . S
N1531 C1529 1.384 . S
H1532 C1538 0.930 . S
H1533 C1542 0.930 . S
H1534 C1547 0.929 . S
H1535 C1545 0.929 . S
H1536 C1540 0.929 . S
H1537 C1546 0.929 . S
C1538 H1532 0.930 . S
C1538 C1539 1.367 . S
C1538 C1546 1.378 . S
C1539 C1538 1.367 . S
C1539 C1547 1.433 . S
C1540 H1536 0.929 . S
C1540 C1542 1.378 . S
C1540 C1544 1.350 . S
C1541 C1544 1.463 . S
C1541 C1546 1.350 . S
C1541 N1549 1.427 . S
C1542 H1533 0.930 . S
C1542 C1540 1.378 . S
C1542 C1543 1.367 . S
C1543 C1542 1.367 . S
C1543 C1545 1.433 . S
C1544 C1540 1.350 . S
C1544 C1541 1.463 . S
C1544 N1548 1.427 . S
C1545 H1535 0.929 . S
C1545 C1543 1.433 . S
C1545 N1548 1.384 . S
C1546 H1537 0.929 . S
C1546 C1538 1.378 . S
C1546 C1541 1.350 . S
C1547 H1534 0.929 . S
C1547 C1539 1.433 . S
C1547 N1549 1.384 . S
N1548 C1544 1.427 . S
N1548 C1545 1.384 . S
N1549 C1541 1.427 . S
N1549 C1547 1.384 . S
H1550 C1556 0.930 . S
H1551 C1560 0.930 . S
H1552 C1565 0.929 . S
H1553 C1563 0.929 . S
H1554 C1558 0.929 . S
H1555 C1564 0.929 . S
C1556 H1550 0.930 . S
C1556 C1557 1.367 . S
C1556 C1564 1.378 . S
C1557 C1556 1.367 . S
C1557 C1565 1.433 . S
C1558 H1554 0.929 . S
C1558 C1560 1.378 . S
C1558 C1562 1.350 . S
C1559 C1562 1.463 . S
C1559 C1564 1.350 . S
C1559 N1567 1.427 . S
C1560 H1551 0.930 . S
C1560 C1558 1.378 . S
C1560 C1561 1.367 . S
C1561 C1560 1.367 . S
C1561 C1563 1.433 1_556 S
C1562 C1558 1.350 . S
C1562 C1559 1.463 . S
C1562 N1566 1.427 . S
C1563 H1553 0.929 . S
C1563 C1561 1.433 1_554 S
C1563 N1566 1.384 1_554 S
C1564 H1555 0.929 . S
C1564 C1556 1.378 . S
C1564 C1559 1.350 . S
C1565 H1552 0.929 . S
C1565 C1557 1.433 . S
C1565 N1567 1.384 . S
N1566 C1562 1.427 . S
N1566 C1563 1.384 1_556 S
N1567 C1559 1.427 . S
N1567 C1565 1.384 . S
C423 C109 1.501 . S
C427 C3 1.501 . S
C441 C18 1.502 . S
C445 C328 1.502 . S
C459 C31 1.496 . S
C463 C135 1.496 . S
C477 C44 1.496 . S
C481 C356 1.496 . S
C495 C55 1.502 . S
C499 C159 1.502 . S
C513 C382 1.496 . S
C517 C68 1.496 . S
C531 C185 1.501 . S
C535 C81 1.501 . S
C549 C406 1.501 . S
C553 C96 1.501 . S
C567 C224 1.496 . S
C571 C122 1.496 . S
C585 C148 1.497 . S
C589 C252 1.497 . S
C603 C172 1.498 . S
C607 C276 1.498 . S
C621 C302 1.501 . S
C625 C198 1.501 . S
C639 C315 1.494 . S
C643 C211 1.494 . S
C657 C237 1.500 . S
C661 C343 1.500 . S
C675 C265 1.497 . S
C679 C367 1.497 . S
C693 C393 1.498 . S
C697 C289 1.498 . S
C711 C5 1.598 . S
C715 C57 1.601 . S
C729 C70 1.601 . S
C733 C16 1.605 . S
C747 C83 1.606 . S
C751 C29 1.602 . S
C765 C42 1.599 . S
C769 C94 1.604 . S
C783 C107 1.603 . S
C787 C161 1.606 . S
C801 C120 1.604 . S
C805 C174 1.599 . S
C819 C187 1.599 . S
C823 C133 1.598 . S
C837 C200 1.598 . S
C841 C146 1.603 . S
C855 C263 1.598 . S
C859 C213 1.601 . S
C873 C278 1.601 . S
C877 C226 1.598 . S
C891 C239 1.603 . S
C895 C291 1.598 . S
C909 C304 1.600 . S
C913 C250 1.605 . S
C927 C369 1.600 . S
C931 C317 1.598 . S
C945 C330 1.601 . S
C949 C380 1.598 . S
C963 C395 1.601 . S
C967 C341 1.598 . S
C981 C408 1.598 . S
C985 C354 1.599 . S
C999 C56 0.650 . S
C1003 C4 0.657 . S
C1017 C69 0.640 . S
C1021 C23 0.632 . S
C1035 C36 0.627 . S
C1039 C82 0.627 . S
C1053 C101 0.631 . S
C1057 C49 0.639 . S
C1071 C160 0.654 . S
C1075 C114 0.647 . S
C1089 C127 0.654 . S
C1093 C173 0.646 . S
C1107 C186 0.659 . S
C1111 C140 0.657 . S
C1125 C199 0.639 . S
C1129 C153 0.631 . S
C1143 C212 0.635 1_545 S
C1147 C270 0.628 1_565 S
C1161 C277 0.626 . S
C1165 C225 0.628 . S
C1179 C290 0.658 1_545 S
C1183 C238 0.659 1_565 S
C1197 C303 0.658 . S
C1201 C257 0.652 . S
C1215 C368 0.659 1_545 S
C1219 C316 0.657 1_565 S
C1233 C329 0.648 . S
C1237 C387 0.655 . S
C1251 C348 0.626 1_545 S
C1255 C394 0.627 1_565 S
C1269 C361 0.646 . S
C1273 C407 0.653 . S
C1287 C10 1.504 . S
C1291 C283 1.506 . S
C1305 C296 1.501 . S
C1309 C17 1.503 . S
C1323 C30 1.499 . S
C1327 C309 1.501 . S
C1341 C43 1.497 . S
C1345 C264 1.496 1_556 S
C1359 C251 1.499 . S
C1363 C62 1.497 . S
C1377 C218 1.498 . S
C1381 C75 1.497 . S
C1395 C231 1.496 . S
C1399 C88 1.497 1_556 S
C1413 C95 1.503 . S
C1417 C244 1.505 . S
C1431 C108 1.497 1_556 S
C1435 C381 1.499 . S
C1449 C400 1.503 . S
C1453 C121 1.501 . S
C1467 C413 1.505 . S
C1471 C134 1.506 . S
C1485 C374 1.497 . S
C1489 C147 1.496 . S
C1503 C355 1.496 . S
C1507 C166 1.497 . S
C1521 C322 1.496 . S
C1525 C179 1.498 . S
C1539 C192 1.496 . S
C1543 C335 1.497 . S
C1557 C205 1.497 . S
C1561 C342 1.498 1_556 S
