# Generated by pormake.
# Topology uou, (4)-cn, num edge types: 1
# Building blocks:
#     Node 0, Type 0, BuildingBlock: AZAVOO_clean_sbu_0, # of connection points: 4
#     Node 1, Type 0, BuildingBlock: AZAVOO_clean_sbu_0, # of connection points: 4
#     Node 2, Type 0, BuildingBlock: AZAVOO_clean_sbu_0, # of connection points: 4
#     Node 3, Type 0, BuildingBlock: AZAVOO_clean_sbu_0, # of connection points: 4
#     Node 4, Type 0, BuildingBlock: AZAVOO_clean_sbu_0, # of connection points: 4
#     Node 5, Type 0, BuildingBlock: AZAVOO_clean_sbu_0, # of connection points: 4
#     Node 6, Type 0, BuildingBlock: AZAVOO_clean_sbu_0, # of connection points: 4
#     Node 7, Type 0, BuildingBlock: AZAVOO_clean_sbu_0, # of connection points: 4
#     Node 8, Type 0, BuildingBlock: AZAVOO_clean_sbu_0, # of connection points: 4
#     Node 9, Type 0, BuildingBlock: AZAVOO_clean_sbu_0, # of connection points: 4
#     Node 10, Type 0, BuildingBlock: AZAVOO_clean_sbu_0, # of connection points: 4
#     Node 11, Type 0, BuildingBlock: AZAVOO_clean_sbu_0, # of connection points: 4
#     Node 12, Type 0, BuildingBlock: AZAVOO_clean_sbu_0, # of connection points: 4
#     Node 13, Type 0, BuildingBlock: AZAVOO_clean_sbu_0, # of connection points: 4
#     Node 14, Type 0, BuildingBlock: AZAVOO_clean_sbu_0, # of connection points: 4
#     Node 15, Type 0, BuildingBlock: AZAVOO_clean_sbu_0, # of connection points: 4
#     Edge 16, Type (0, 0), BuildingBlock: XUDNAN_clean_linker_2, # of connection points: 2
#     Edge 17, Type (0, 0), BuildingBlock: XUDNAN_clean_linker_2, # of connection points: 2
#     Edge 18, Type (0, 0), BuildingBlock: XUDNAN_clean_linker_2, # of connection points: 2
#     Edge 19, Type (0, 0), BuildingBlock: XUDNAN_clean_linker_2, # of connection points: 2
#     Edge 20, Type (0, 0), BuildingBlock: XUDNAN_clean_linker_2, # of connection points: 2
#     Edge 21, Type (0, 0), BuildingBlock: XUDNAN_clean_linker_2, # of connection points: 2
#     Edge 22, Type (0, 0), BuildingBlock: XUDNAN_clean_linker_2, # of connection points: 2
#     Edge 23, Type (0, 0), BuildingBlock: XUDNAN_clean_linker_2, # of connection points: 2
#     Edge 24, Type (0, 0), BuildingBlock: XUDNAN_clean_linker_2, # of connection points: 2
#     Edge 25, Type (0, 0), BuildingBlock: XUDNAN_clean_linker_2, # of connection points: 2
#     Edge 26, Type (0, 0), BuildingBlock: XUDNAN_clean_linker_2, # of connection points: 2
#     Edge 27, Type (0, 0), BuildingBlock: XUDNAN_clean_linker_2, # of connection points: 2
#     Edge 28, Type (0, 0), BuildingBlock: XUDNAN_clean_linker_2, # of connection points: 2
#     Edge 29, Type (0, 0), BuildingBlock: XUDNAN_clean_linker_2, # of connection points: 2
#     Edge 30, Type (0, 0), BuildingBlock: XUDNAN_clean_linker_2, # of connection points: 2
#     Edge 31, Type (0, 0), BuildingBlock: XUDNAN_clean_linker_2, # of connection points: 2
#     Edge 32, Type (0, 0), BuildingBlock: XUDNAN_clean_linker_2, # of connection points: 2
#     Edge 33, Type (0, 0), BuildingBlock: XUDNAN_clean_linker_2, # of connection points: 2
#     Edge 34, Type (0, 0), BuildingBlock: XUDNAN_clean_linker_2, # of connection points: 2
#     Edge 35, Type (0, 0), BuildingBlock: XUDNAN_clean_linker_2, # of connection points: 2
#     Edge 36, Type (0, 0), BuildingBlock: XUDNAN_clean_linker_2, # of connection points: 2
#     Edge 37, Type (0, 0), BuildingBlock: XUDNAN_clean_linker_2, # of connection points: 2
#     Edge 38, Type (0, 0), BuildingBlock: XUDNAN_clean_linker_2, # of connection points: 2
#     Edge 39, Type (0, 0), BuildingBlock: XUDNAN_clean_linker_2, # of connection points: 2
#     Edge 40, Type (0, 0), BuildingBlock: XUDNAN_clean_linker_2, # of connection points: 2
#     Edge 41, Type (0, 0), BuildingBlock: XUDNAN_clean_linker_2, # of connection points: 2
#     Edge 42, Type (0, 0), BuildingBlock: XUDNAN_clean_linker_2, # of connection points: 2
#     Edge 43, Type (0, 0), BuildingBlock: XUDNAN_clean_linker_2, # of connection points: 2
#     Edge 44, Type (0, 0), BuildingBlock: XUDNAN_clean_linker_2, # of connection points: 2
#     Edge 45, Type (0, 0), BuildingBlock: XUDNAN_clean_linker_2, # of connection points: 2
#     Edge 46, Type (0, 0), BuildingBlock: XUDNAN_clean_linker_2, # of connection points: 2
#     Edge 47, Type (0, 0), BuildingBlock: XUDNAN_clean_linker_2, # of connection points: 2
# Relax obj value: 0.174
# Max RMSD: 0.207
# Mean RMSD: 0.189
data_MOF--net-uou--node1-AZAVOO_clean_sbu_0--edge1-XUDNAN_clean_linker_2
_symmetry_space_group_name_H-M    P1
_symmetry_Int_Tables_number       1
_symmetry_cell_setting            triclinic
loop_
_symmetry_equiv_pos_as_xyz
'x, y, z'
_cell_length_a     38.883633
_cell_length_b     37.139607
_cell_length_c     52.229474
_cell_angle_alpha  89.970774
_cell_angle_beta   89.954157
_cell_angle_gamma 90.01605
loop_
_atom_site_label
_atom_site_type_symbol
_atom_site_fract_x
_atom_site_fract_y
_atom_site_fract_z
_atom_type_partial_charge
Mg0 Mg 0.13749 0.0575 0.11732 0.0
O1 O 0.09355 0.0402 0.1431 0.0
O2 O 0.0965 0.98119 0.15084 0.0
Mg3 Mg 0.14394 0.96058 0.12894 0.0
C4 C 0.08219 0.01184 0.15395 0.0
C5 C 0.12171 0.14066 0.11526 0.0
O6 O 0.15336 0.14293 0.12389 0.0
O7 O 0.11197 0.03184 0.08247 0.0
O8 O 0.12141 0.97325 0.08944 0.0
O9 O 0.16948 0.06715 0.15234 0.0
O10 O 0.16653 0.01517 0.13177 0.0
C11 C 0.11068 0.999 0.07539 0.0
C12 C 0.17721 0.03327 0.15127 0.0
O13 O 0.10913 0.10991 0.11021 0.0
Mg14 Mg 0.40591 0.89823 0.13462 0.0
O15 O 0.42416 0.94838 0.15518 0.0
O16 O 0.38388 0.99124 0.15514 0.0
Mg17 Mg 0.33873 0.96717 0.13249 0.0
C18 C 0.4136 0.97965 0.16148 0.0
C19 C 0.47029 0.85192 0.12051 0.0
O20 O 0.44912 0.84071 0.1026 0.0
O21 O 0.41439 0.92634 0.09627 0.0
O22 O 0.37145 0.96648 0.09586 0.0
O23 O 0.38389 0.88009 0.17198 0.0
O24 O 0.35581 0.9124 0.14297 0.0
C25 C 0.3974 0.95147 0.08533 0.0
C26 C 0.35713 0.89873 0.16562 0.0
O27 O 0.46044 0.87647 0.13573 0.0
Mg28 Mg 0.57618 0.00228 0.35874 0.0
O29 O 0.55046 0.02293 0.32274 0.0
O30 O 0.56859 0.07877 0.31406 0.0
Mg31 Mg 0.61041 0.0915 0.34382 0.0
C32 C 0.55002 0.05133 0.30904 0.0
C33 C 0.52614 0.94762 0.3843 0.0
O34 O 0.53791 0.96408 0.40476 0.0
O35 O 0.54518 0.04035 0.38349 0.0
O36 O 0.57097 0.09332 0.37682 0.0
O37 O 0.61713 0.97774 0.33515 0.0
O38 O 0.61906 0.03329 0.35045 0.0
C39 C 0.54902 0.0737 0.38858 0.0
C40 C 0.63299 0.00834 0.33676 0.0
O41 O 0.5362 0.95796 0.36236 0.0
Mg42 Mg 0.93027 0.05266 0.36907 0.0
O43 O 0.9527 0.03974 0.32992 0.0
O44 O 0.93726 0.98375 0.319 0.0
Mg45 Mg 0.9003 0.9631 0.35019 0.0
C46 C 0.95304 0.01324 0.31439 0.0
C47 C 0.96831 0.12484 0.35817 0.0
O48 O 0.94687 0.12424 0.33874 0.0
O49 O 0.96691 0.01374 0.38854 0.0
O50 O 0.94276 0.96007 0.3809 0.0
O51 O 0.88487 0.0773 0.35022 0.0
O52 O 0.88903 0.01953 0.36033 0.0
C53 C 0.96518 0.97979 0.39194 0.0
C54 C 0.87228 0.04506 0.34921 0.0
O55 O 0.96808 0.09889 0.37405 0.0
Mg56 Mg 0.94653 0.94567 0.8804 0.0
O57 O 0.95635 0.88487 0.88731 0.0
O58 O 0.95263 0.87469 0.92933 0.0
Mg59 Mg 0.93698 0.92748 0.94895 0.0
C60 C 0.9586 0.86374 0.90659 0.0
C61 C 0.92659 0.9552 0.82277 0.0
O62 O 0.90551 0.97866 0.83318 0.0
O63 O 0.88766 0.94044 0.88503 0.0
O64 O 0.88577 0.931 0.9273 0.0
O65 O 0.00227 0.95578 0.8889 0.0
O66 O 0.96081 0.95814 0.91781 0.0
C67 C 0.87075 0.93561 0.90578 0.0
C68 C 0.99298 0.96005 0.9125 0.0
O69 O 0.94547 0.93608 0.83724 0.0
Mg70 Mg 0.563 0.04198 0.89662 0.0
O71 O 0.55838 0.10306 0.90311 0.0
O72 O 0.56636 0.1139 0.94464 0.0
Mg73 Mg 0.57727 0.05974 0.96465 0.0
C74 C 0.5595 0.12478 0.92202 0.0
C75 C 0.54504 0.03097 0.84025 0.0
O76 O 0.5285 0.00457 0.85164 0.0
O77 O 0.62221 0.04088 0.89957 0.0
O78 O 0.62611 0.0449 0.94215 0.0
O79 O 0.50689 0.03588 0.90653 0.0
O80 O 0.54917 0.03121 0.93443 0.0
C81 C 0.63974 0.03908 0.92024 0.0
C82 C 0.51676 0.0307 0.92991 0.0
O83 O 0.56357 0.05183 0.85371 0.0
Mg84 Mg 0.44434 0.07247 0.60678 0.0
O85 O 0.43824 0.13383 0.60908 0.0
O86 O 0.40754 0.1522 0.57544 0.0
Mg87 Mg 0.388 0.10138 0.55494 0.0
C88 C 0.42555 0.15889 0.5953 0.0
C89 C 0.46424 0.04887 0.66281 0.0
O90 O 0.4454 0.02071 0.65687 0.0
O91 O 0.39071 0.06106 0.62251 0.0
O92 O 0.35784 0.07795 0.58958 0.0
O93 O 0.48838 0.08247 0.58082 0.0
O94 O 0.43505 0.07309 0.56728 0.0
C95 C 0.36126 0.06437 0.61197 0.0
C96 C 0.46646 0.08142 0.56218 0.0
O97 O 0.46793 0.074 0.64654 0.0
Mg98 Mg 0.0703 0.92847 0.60708 0.0
O99 O 0.06681 0.86693 0.61009 0.0
O100 O 0.10047 0.84307 0.57994 0.0
Mg101 Mg 0.12845 0.88942 0.55932 0.0
C102 C 0.07871 0.83975 0.59809 0.0
C103 C 0.01283 0.94853 0.64607 0.0
O104 O 0.00043 0.96261 0.62492 0.0
O105 O 0.1232 0.93208 0.62628 0.0
O106 O 0.15692 0.91203 0.5946 0.0
O107 O 0.02972 0.92751 0.5763 0.0
O108 O 0.08545 0.92552 0.56876 0.0
C109 C 0.15293 0.92584 0.61681 0.0
C110 C 0.05467 0.92533 0.55994 0.0
O111 O 0.04176 0.93262 0.64528 0.0
Mg112 Mg 0.63082 0.57366 0.14572 0.0
O113 O 0.58862 0.57595 0.17606 0.0
O114 O 0.56935 0.5203 0.18329 0.0
Mg115 Mg 0.59986 0.4821 0.15735 0.0
C116 C 0.56894 0.55407 0.18787 0.0
C117 C 0.62876 0.65804 0.15612 0.0
O118 O 0.64133 0.64928 0.17862 0.0
O119 O 0.59285 0.56281 0.11366 0.0
O120 O 0.57677 0.5058 0.12036 0.0
O121 O 0.67011 0.5646 0.17672 0.0
O122 O 0.64245 0.52151 0.1562 0.0
C123 C 0.57622 0.53468 0.10706 0.0
C124 C 0.66403 0.53055 0.17366 0.0
O125 O 0.62392 0.63366 0.13948 0.0
Mg126 Mg 0.87871 0.37302 0.12658 0.0
O127 O 0.89928 0.41405 0.15512 0.0
O128 O 0.86085 0.45822 0.16009 0.0
Mg129 Mg 0.81573 0.44536 0.13322 0.0
C130 C 0.88947 0.44326 0.16569 0.0
C131 C 0.93307 0.31514 0.11663 0.0
O132 O 0.90426 0.29834 0.11113 0.0
O133 O 0.89047 0.41109 0.09345 0.0
O134 O 0.84971 0.45323 0.09751 0.0
O135 O 0.85371 0.34595 0.16001 0.0
O136 O 0.82909 0.38776 0.13582 0.0
C137 C 0.87544 0.43968 0.08574 0.0
C138 C 0.82839 0.36787 0.156 0.0
O139 O 0.9317 0.34776 0.12381 0.0
Mg140 Mg 0.09832 0.43491 0.34545 0.0
O141 O 0.05428 0.45371 0.31951 0.0
O142 O 0.05048 0.51365 0.32261 0.0
Mg143 Mg 0.09352 0.53327 0.34898 0.0
C144 C 0.04022 0.48363 0.31346 0.0
C145 C 0.08916 0.35692 0.36283 0.0
O146 O 0.11078 0.37005 0.37975 0.0
O147 O 0.06788 0.44658 0.38152 0.0
O148 O 0.0684 0.50667 0.38435 0.0
O149 O 0.13566 0.43967 0.3131 0.0
O150 O 0.12222 0.4837 0.33989 0.0
C151 C 0.06073 0.47568 0.39334 0.0
C152 C 0.13869 0.47305 0.31993 0.0
O153 O 0.07861 0.37727 0.34492 0.0
Mg154 Mg 0.36941 0.64146 0.37676 0.0
O155 O 0.41196 0.62456 0.34851 0.0
O156 O 0.40613 0.56534 0.34216 0.0
Mg157 Mg 0.36118 0.54461 0.36605 0.0
C158 C 0.42115 0.59526 0.33763 0.0
C159 C 0.40555 0.71671 0.3678 0.0
O160 O 0.40097 0.70844 0.34358 0.0
O161 O 0.39646 0.61544 0.41042 0.0
O162 O 0.38961 0.55634 0.40406 0.0
O163 O 0.3344 0.65209 0.34402 0.0
O164 O 0.33923 0.59947 0.36368 0.0
C165 C 0.40048 0.58281 0.4174 0.0
C166 C 0.32618 0.61833 0.34534 0.0
O167 O 0.39594 0.69471 0.385 0.0
Mg168 Mg 0.43142 0.44841 0.90786 0.0
O169 O 0.44964 0.38944 0.91138 0.0
O170 O 0.44083 0.37068 0.95138 0.0
Mg171 Mg 0.41705 0.41804 0.97359 0.0
C172 C 0.45158 0.36511 0.92862 0.0
C173 C 0.44211 0.47115 0.85116 0.0
O174 O 0.44281 0.50286 0.8623 0.0
O175 O 0.37413 0.43365 0.908 0.0
O176 O 0.36755 0.41955 0.94933 0.0
O177 O 0.48294 0.46854 0.92015 0.0
O178 O 0.44025 0.45711 0.94686 0.0
C179 C 0.35507 0.42513 0.92702 0.0
C180 C 0.47151 0.46738 0.94342 0.0
O181 O 0.43611 0.44338 0.86466 0.0
Mg182 Mg 0.04668 0.52841 0.90069 0.0
O183 O 0.04429 0.5903 0.9013 0.0
O184 O 0.05346 0.60789 0.94152 0.0
Mg185 Mg 0.06126 0.55745 0.96669 0.0
C186 C 0.0468 0.61509 0.91813 0.0
C187 C 0.02454 0.5394 0.84341 0.0
O188 O 0.99686 0.55221 0.85461 0.0
O189 O 0.10576 0.52568 0.90455 0.0
O190 O 0.10985 0.53614 0.94658 0.0
O191 O 0.99015 0.52583 0.91064 0.0
O192 O 0.03206 0.52536 0.93898 0.0
C193 C 0.12317 0.52633 0.9253 0.0
C194 C -0.0003 0.52461 0.93437 0.0
O195 O 0.04954 0.52877 0.85714 0.0
Mg196 Mg 0.94346 0.5229 0.60909 0.0
O197 O 0.95761 0.58286 0.60744 0.0
O198 O 0.9413 0.60467 0.56952 0.0
Mg199 Mg 0.91587 0.55844 0.5469 0.0
C200 C 0.95542 0.60868 0.5914 0.0
C201 C 0.98258 0.50798 0.65916 0.0
O202 O 0.00126 0.49122 0.64193 0.0
O203 O 0.88614 0.53442 0.61497 0.0
O204 O 0.87077 0.54966 0.57517 0.0
O205 O 0.99341 0.5078 0.59057 0.0
O206 O 0.94588 0.51916 0.56903 0.0
C207 C 0.86305 0.54168 0.59832 0.0
C208 C 0.97797 0.51098 0.56878 0.0
O209 O 0.95504 0.52352 0.65207 0.0
Mg210 Mg 0.54064 0.48347 0.61571 0.0
O211 O 0.5278 0.4242 0.60951 0.0
O212 O 0.54068 0.40814 0.56956 0.0
Mg213 Mg 0.56181 0.45947 0.54985 0.0
C214 C 0.52902 0.40066 0.5918 0.0
C215 C 0.52029 0.49583 0.67315 0.0
O216 O 0.51159 0.52757 0.66413 0.0
O217 O 0.5983 0.47261 0.61708 0.0
O218 O 0.6103 0.46457 0.57562 0.0
O219 O 0.48848 0.49955 0.60259 0.0
O220 O 0.53324 0.49452 0.57671 0.0
C221 C 0.61994 0.4687 0.59888 0.0
C222 C 0.50097 0.50121 0.57963 0.0
O223 O 0.53426 0.47306 0.65829 0.0
H224 H 0.29212 0.87634 0.17128 0.0
H225 H 0.36668 0.95223 0.19987 0.0
H226 H 0.32009 0.99268 0.21363 0.0
H227 H 0.24562 0.92543 0.14148 0.0
H228 H 0.20289 0.90949 0.14876 0.0
H229 H 0.23864 0.87999 0.15266 0.0
H230 H 0.22277 0.86925 0.2001 0.0
H231 H 0.18602 0.89841 0.19628 0.0
H232 H 0.21683 0.90702 0.2213 0.0
H233 H 0.27132 0.03299 0.20581 0.0
H234 H 0.22508 0.06475 0.18264 0.0
H235 H 0.17868 0.9624 0.16382 0.0
C236 C 0.29816 0.90013 0.18237 0.0
C237 C 0.33245 0.9114 0.18469 0.0
C238 C 0.34029 0.94318 0.19825 0.0
C239 C 0.3139 0.96629 0.20616 0.0
C240 C 0.27993 0.9564 0.20114 0.0
C241 C 0.27187 0.92303 0.19072 0.0
C242 C 0.23451 0.92142 0.1827 0.0
C243 C 0.23026 0.90841 0.15476 0.0
C244 C 0.21381 0.89762 0.20121 0.0
C245 C 0.22477 0.96057 0.18588 0.0
C246 C 0.25061 0.98011 0.19764 0.0
C247 C 0.25026 0.01779 0.19767 0.0
C248 C 0.22396 0.03571 0.18435 0.0
C249 C 0.1987 0.01586 0.17099 0.0
C250 C 0.19794 0.97815 0.17342 0.0
H251 H 0.67398 0.0678 0.33973 0.0
H252 H 0.67078 0.95864 0.31036 0.0
H253 H 0.73297 0.96134 0.30167 0.0
H254 H 0.74779 0.10105 0.2962 0.0
H255 H 0.76466 0.12781 0.32209 0.0
H256 H 0.71889 0.12114 0.3191 0.0
H257 H 0.71693 0.09685 0.36557 0.0
H258 H 0.7625 0.1028 0.36862 0.0
H259 H 0.74371 0.05913 0.37425 0.0
H260 H 0.79555 0.96948 0.30705 0.0
H261 H 0.85355 0.98454 0.32289 0.0
H262 H 0.81691 0.08912 0.34741 0.0
C263 C 0.68605 0.04509 0.33038 0.0
C264 C 0.66761 0.01304 0.32574 0.0
C265 C 0.68441 0.98355 0.314 0.0
C266 C 0.71975 0.98488 0.3089 0.0
C267 C 0.73768 0.01613 0.31518 0.0
C268 C 0.72127 0.04607 0.32514 0.0
C269 C 0.74688 0.07432 0.33366 0.0
C270 C 0.74441 0.10808 0.31675 0.0
C271 C 0.74222 0.08377 0.3622 0.0
C272 C 0.78019 0.05439 0.32895 0.0
C273 C 0.77439 0.02118 0.31777 0.0
C274 C 0.80058 0.99584 0.31503 0.0
C275 C 0.83333 0.00442 0.32436 0.0
C276 C 0.83949 0.03798 0.33624 0.0
C277 C 0.81291 0.06364 0.33778 0.0
H278 H 0.82911 0.97735 0.87436 0.0
H279 H 0.82707 0.90528 0.93984 0.0
H280 H 0.76748 0.92303 0.94884 0.0
H281 H 0.78376 0.04735 0.9018 0.0
H282 H 0.75845 0.05974 0.87427 0.0
H283 H 0.79957 0.03827 0.86998 0.0
H284 H 0.77138 0.98774 0.84315 0.0
H285 H 0.73021 0.00947 0.84684 0.0
H286 H 0.73546 0.96306 0.85618 0.0
H287 H 0.71384 0.95524 0.95579 0.0
H288 H 0.66189 0.99238 0.9559 0.0
H289 H 0.69333 0.042 0.88424 0.0
C290 C 0.81559 0.9643 0.88994 0.0
C291 C 0.83282 0.93985 0.90642 0.0
C292 C 0.81451 0.92403 0.927 0.0
C293 C 0.78063 0.93402 0.93232 0.0
C294 C 0.76503 0.95954 0.91669 0.0
C295 C 0.78129 0.97384 0.89548 0.0
C296 C 0.75847 1.00196 0.88267 0.0
C297 C 0.77613 0.03902 0.88216 0.0
C298 C 0.74827 0.98983 0.8556 0.0
C299 C 0.72757 1.00198 0.9006 0.0
C300 C 0.73238 0.97737 0.92013 0.0
C301 C 0.70933 0.97403 0.94031 0.0
C302 C 0.68004 0.9957 0.94033 0.0
C303 C 0.67343 0.02025 0.92011 0.0
C304 C 0.69758 0.02337 0.89987 0.0
H305 H 0.1705 0.99331 0.60527 0.0
H306 H 0.20358 0.90111 0.64943 0.0
H307 H 0.25841 0.9326 0.65961 0.0
H308 H 0.24703 0.00663 0.57524 0.0
H309 H 0.24472 0.05508 0.57408 0.0
H310 H 0.20587 0.02899 0.57541 0.0
H311 H 0.18662 0.06376 0.61597 0.0
H312 H 0.22552 0.09014 0.61473 0.0
H313 H 0.21468 0.06558 0.6434 0.0
H314 H 0.31225 0.97187 0.66029 0.0
H315 H 0.36109 0.01094 0.64832 0.0
H316 H 0.29308 0.07546 0.60116 0.0
C317 C 0.1888 0.98045 0.61797 0.0
C318 C 0.18266 0.94542 0.62732 0.0
C319 C 0.20761 0.92841 0.64279 0.0
C320 C 0.23872 0.94614 0.64859 0.0
C321 C 0.24436 0.98061 0.63855 0.0
C322 C 0.21996 0.99749 0.6235 0.0
C323 C 0.23373 0.03199 0.61191 0.0
C324 C 0.23279 0.03055 0.58243 0.0
C325 C 0.21396 0.06481 0.62212 0.0
C326 C 0.27022 0.03141 0.62191 0.0
C327 C 0.27567 0.00217 0.63783 0.0
C328 C 0.30806 0.99504 0.64812 0.0
C329 C 0.33568 0.01754 0.64127 0.0
C330 C 0.33097 0.04641 0.62381 0.0
C331 C 0.29752 0.05386 0.6147 0.0
H332 H 0.76036 0.35681 0.1549 0.0
H333 H 0.84186 0.40367 0.19991 0.0
H334 H 0.80014 0.44397 0.2209 0.0
H335 H 0.72421 0.42613 0.13708 0.0
H336 H 0.67935 0.41409 0.13916 0.0
H337 H 0.71097 0.37956 0.13617 0.0
H338 H 0.68934 0.34909 0.17771 0.0
H339 H 0.65676 0.38341 0.18069 0.0
H340 H 0.68591 0.3749 0.20681 0.0
H341 H 0.75691 0.49253 0.22292 0.0
H342 H 0.71502 0.539 0.20981 0.0
H343 H 0.65895 0.45864 0.16665 0.0
C344 C 0.76864 0.37364 0.17066 0.0
C345 C 0.80382 0.37708 0.17616 0.0
C346 C 0.81471 0.40028 0.19595 0.0
C347 C 0.79112 0.42334 0.20791 0.0
C348 C 0.7567 0.42183 0.20039 0.0
C349 C 0.74517 0.39633 0.18296 0.0
C350 C 0.70874 0.4042 0.17449 0.0
C351 C 0.70573 0.40617 0.14502 0.0
C352 C 0.68371 0.37624 0.1856 0.0
C353 C 0.70344 0.44054 0.18691 0.0
C354 C 0.73078 0.44985 0.2025 0.0
C355 C 0.73462 0.48496 0.21175 0.0
C356 C 0.7108 0.51132 0.20411 0.0
C357 C 0.68363 0.50237 0.1873 0.0
C358 C 0.67902 0.46617 0.17991 0.0
H359 H 0.31958 0.54786 0.33152 0.0
H360 H 0.27449 0.65332 0.32057 0.0
H361 H 0.22387 0.62537 0.30028 0.0
H362 H 0.27767 0.50388 0.27125 0.0
H363 H 0.27275 0.46222 0.28859 0.0
H364 H 0.30946 0.49072 0.29455 0.0
H365 H 0.29426 0.4919 0.34284 0.0
H366 H 0.25774 0.46373 0.33706 0.0
H367 H 0.25205 0.50664 0.35264 0.0
H368 H 0.17282 0.58703 0.29548 0.0
H369 H 0.12777 0.54136 0.3031 0.0
H370 H 0.20583 0.45972 0.31298 0.0
C371 C 0.29963 0.56506 0.32395 0.0
C372 C 0.30069 0.60259 0.32777 0.0
C373 C 0.27421 0.62444 0.31766 0.0
C374 C 0.2454 0.60878 0.30602 0.0
C375 C 0.24405 0.57136 0.30397 0.0
C376 C 0.27099 0.54978 0.31198 0.0
C377 C 0.26132 0.51031 0.3112 0.0
C378 C 0.2815 0.49063 0.29013 0.0
C379 C 0.26662 0.49215 0.33749 0.0
C380 C 0.22363 0.51328 0.30429 0.0
C381 C 0.21433 0.54867 0.29952 0.0
C382 C 0.1799 0.55906 0.29791 0.0
C383 C 0.15446 0.53306 0.30232 0.0
C384 C 0.16366 0.49713 0.30781 0.0
C385 C 0.19845 0.4868 0.30756 0.0
H386 H 0.18048 0.52854 0.89282 0.0
H387 H 0.13933 0.47744 0.96106 0.0
H388 H 0.19098 0.43976 0.96435 0.0
H389 H 0.22666 0.44954 0.86711 0.0
H390 H 0.2637 0.47512 0.85708 0.0
H391 H 0.22186 0.49603 0.85785 0.0
H392 H 0.24521 0.54623 0.88754 0.0
H393 H 0.28714 0.52577 0.8865 0.0
H394 H 0.26661 0.53398 0.91689 0.0
H395 H 0.24645 0.40884 0.96181 0.0
H396 H 0.3076 0.39302 0.95769 0.0
H397 H 0.31683 0.46536 0.8927 0.0
C398 C 0.18245 0.50924 0.9083 0.0
C399 C 0.15588 0.50594 0.92671 0.0
C400 C 0.15948 0.48071 0.94689 0.0
C401 C 0.18855 0.45882 0.94877 0.0
C402 C 0.21428 0.46258 0.93049 0.0
C403 C 0.21203 0.48755 0.9109 0.0
C404 C 0.24531 0.48829 0.89555 0.0
C405 C 0.23899 0.47654 0.86774 0.0
C406 C 0.26206 0.52579 0.8967 0.0
C407 C 0.26654 0.46039 0.90995 0.0
C408 C 0.2476 0.44537 0.92961 0.0
C409 C 0.26159 0.42024 0.94641 0.0
C410 C 0.29638 0.41133 0.94387 0.0
C411 C 0.31707 0.42775 0.92484 0.0
C412 C 0.30157 0.45174 0.90711 0.0
H413 H 0.67096 0.48477 0.56447 0.0
H414 H 0.65263 0.46844 0.64564 0.0
H415 H 0.71242 0.4872 0.65484 0.0
H416 H 0.76008 0.45481 0.56337 0.0
H417 H 0.77251 0.48853 0.54031 0.0
H418 H 0.72922 0.47131 0.54045 0.0
H419 H 0.70604 0.53646 0.54475 0.0
H420 H 0.74928 0.55381 0.54517 0.0
H421 H 0.72024 0.56411 0.57106 0.0
H422 H 0.77462 0.50947 0.65499 0.0
H423 H 0.83385 0.53032 0.64582 0.0
H424 H 0.8093 0.53483 0.5648 0.0
C425 C 0.67962 0.48435 0.58417 0.0
C426 C 0.65705 0.47474 0.60431 0.0
C427 C 0.66943 0.47542 0.62985 0.0
C428 C 0.70333 0.48621 0.63527 0.0
C429 C 0.72452 0.49654 0.61499 0.0
C430 C 0.71313 0.49549 0.58994 0.0
C431 C 0.74046 0.50897 0.57163 0.0
C432 C 0.7512 0.47912 0.55284 0.0
C433 C 0.72826 0.54285 0.55732 0.0
C434 C 0.76908 0.51777 0.59024 0.0
C435 C 0.75954 0.51037 0.61517 0.0
C436 C 0.78227 0.51546 0.63552 0.0
C437 C 0.81584 0.52751 0.63014 0.0
C438 C 0.82632 0.53463 0.60462 0.0
C439 C 0.80217 0.53028 0.58459 0.0
H440 H 0.98418 0.96266 0.28354 0.0
H441 H 0.95789 0.07606 0.28816 0.0
H442 H 0.98192 0.08579 0.24505 0.0
H443 H 0.06543 0.97699 0.25339 0.0
H444 H 0.06313 0.93725 0.23367 0.0
H445 H 0.04099 0.93845 0.26392 0.0
H446 H 0.9839 0.92263 0.24093 0.0
H447 H 0.00586 0.92187 0.21053 0.0
H448 H 0.96903 0.95065 0.21501 0.0
H449 H 0.00897 0.08387 0.20222 0.0
H450 H 0.04555 0.07274 0.16468 0.0
H451 H 0.05791 0.96119 0.18819 0.0
C452 C 0.98333 0.98943 0.27533 0.0
C453 C 0.96906 0.01859 0.28907 0.0
C454 C 0.96887 0.05339 0.27798 0.0
C455 C 0.98211 0.05912 0.25341 0.0
C456 C 0.99582 0.02985 0.24028 0.0
C457 C 0.99714 0.99582 0.25095 0.0
C458 C 0.01616 0.96986 0.23357 0.0
C459 C 0.04834 0.95477 0.24693 0.0
C460 C 0.9923 0.93945 0.22447 0.0
C461 C 0.02564 0.99482 0.21168 0.0
C462 C 0.01295 0.02907 0.21576 0.0
C463 C 0.01907 0.05716 0.19875 0.0
C464 C 0.03988 0.05049 0.17742 0.0
C465 C 0.05481 0.01609 0.17346 0.0
C466 C 0.0467 0.98768 0.1905 0.0
H467 H 0.46544 0.95392 0.19087 0.0
H468 H 0.40846 0.05167 0.17438 0.0
H469 H 0.4406 0.08322 0.20875 0.0
H470 H 0.46104 0.96199 0.25667 0.0
H471 H 0.50296 0.94303 0.26256 0.0
H472 H 0.47936 0.93024 0.23441 0.0
H473 H 0.5304 0.94999 0.20565 0.0
H474 H 0.55441 0.96253 0.23375 0.0
H475 H 0.54742 0.99496 0.2086 0.0
H476 H 0.4782 0.10272 0.24695 0.0
H477 H 0.51397 0.1067 0.28632 0.0
H478 H 0.54088 0.99404 0.2782 0.0
C479 C 0.4602 0.98224 0.1939 0.0
C480 C 0.43481 1.0005 0.17967 0.0
C481 C 0.42811 0.03727 0.18491 0.0
C482 C 0.44625 0.05537 0.20435 0.0
C483 C 0.47064 0.03614 0.21841 0.0
C484 C 0.4774 1.00029 0.21338 0.0
C485 C 0.50209 0.98429 0.2325 0.0
C486 C 0.48534 0.95307 0.24741 0.0
C487 C 0.53556 0.97225 0.21934 0.0
C488 C 0.50796 0.01654 0.24942 0.0
C489 C 0.49026 0.0465 0.24087 0.0
C490 C 0.49212 0.07939 0.25377 0.0
C491 C 0.5124 0.08144 0.27604 0.0
C492 C 0.52966 0.05054 0.28532 0.0
C493 C 0.52749 0.01793 0.27169 0.0
H494 H 0.02944 0.91963 0.693 0.0
H495 H 0.95202 0.9838 0.65419 0.0
H496 H 0.91973 0.98938 0.69467 0.0
H497 H 0.97039 0.87162 0.73517 0.0
H498 H -0.00027 0.87202 0.76187 0.0
H499 H 0.01616 0.8718 0.7296 0.0
H500 H 0.05128 0.92958 0.7391 0.0
H501 H 0.03507 0.92989 0.77139 0.0
H502 H 0.0295 0.96889 0.75125 0.0
H503 H 0.89724 0.99052 0.73976 0.0
H504 H 0.88649 0.98745 0.78632 0.0
H505 H 0.97788 0.92159 0.79561 0.0
C506 C 0.00561 0.9347 0.69296 0.0
C507 C 0.99329 0.95128 0.67037 0.0
C508 C 0.962 0.97081 0.6712 0.0
C509 C 0.9434 0.97409 0.69411 0.0
C510 C 0.9563 0.9575 0.71601 0.0
C511 C 0.98663 0.93812 0.71564 0.0
C512 C 0.9953 0.92373 0.74201 0.0
C513 C 0.99539 0.88233 0.74216 0.0
C514 C 0.02983 0.93895 0.75149 0.0
C515 C 0.96539 0.93856 0.75734 0.0
C516 C 0.9431 0.95781 0.74196 0.0
C517 C 0.91434 0.97525 0.75196 0.0
C518 C 0.90846 0.97336 0.77844 0.0
C519 C 0.93121 0.95414 0.79462 0.0
C520 C 0.95975 0.93613 0.78376 0.0
H521 H 0.45777 0.00287 0.70371 0.0
H522 H 0.50954 0.10052 0.67893 0.0
H523 H 0.53813 0.10491 0.72095 0.0
H524 H 0.44159 0.03152 0.76761 0.0
H525 H 0.44872 0.98776 0.78157 0.0
H526 H 0.43356 0.99142 0.74912 0.0
H527 H 0.48505 0.9529 0.7335 0.0
H528 H 0.50043 0.94922 0.76593 0.0
H529 H 0.52825 0.96672 0.74126 0.0
H530 H 0.56006 0.09955 0.76601 0.0
H531 H 0.57212 0.08585 0.81141 0.0
H532 H 0.50572 0.99204 0.80673 0.0
C533 C 0.47527 0.02507 0.70704 0.0
C534 C 0.48146 0.05129 0.68799 0.0
C535 C 0.50436 0.08008 0.69322 0.0
C536 C 0.52083 0.08277 0.71701 0.0
C537 C 0.51412 0.05649 0.73536 0.0
C538 C 0.49184 0.02825 0.7307 0.0
C539 C 0.4882 0.00427 0.75399 0.0
C540 C 0.4508 0.00374 0.76364 0.0
C541 C 0.50127 0.96601 0.74832 0.0
C542 C 0.51165 0.02365 0.77254 0.0
C543 C 0.52656 0.05356 0.76139 0.0
C544 C 0.54865 0.07611 0.77495 0.0
C545 C 0.55537 0.06809 0.80071 0.0
C546 C 0.5399 0.03787 0.81263 0.0
C547 C 0.51806 0.01526 0.79818 0.0
H548 H 0.52731 0.51535 0.2203 0.0
H549 H 0.56192 0.62417 0.20381 0.0
H550 H 0.52971 0.64644 0.24132 0.0
H551 H 0.44182 0.53934 0.24135 0.0
H552 H 0.44083 0.50525 0.26591 0.0
H553 H 0.46609 0.49836 0.23743 0.0
H554 H 0.52009 0.48753 0.2655 0.0
H555 H 0.49508 0.49489 0.29405 0.0
H556 H 0.5331 0.52143 0.28821 0.0
H557 H 0.49444 0.65664 0.28141 0.0
H558 H 0.45587 0.65436 0.319 0.0
H559 H 0.44526 0.53875 0.30904 0.0
C560 C 0.52793 0.54393 0.22437 0.0
C561 C 0.5472 0.56795 0.20902 0.0
C562 C 0.54734 0.60516 0.2152 0.0
C563 C 0.52922 0.61809 0.23655 0.0
C564 C 0.51107 0.59354 0.25153 0.0
C565 C 0.51008 0.55729 0.24558 0.0
C566 C 0.48862 0.53648 0.2647 0.0
C567 C 0.45749 0.51883 0.25156 0.0
C568 C 0.51054 0.50843 0.27896 0.0
C569 C 0.47766 0.56668 0.28234 0.0
C570 C 0.49094 0.59937 0.27453 0.0
C571 C 0.48389 0.63116 0.28771 0.0
C572 C 0.46206 0.62956 0.30912 0.0
C573 C 0.44749 0.59639 0.31709 0.0
C574 C 0.456 0.56457 0.30363 0.0
H575 H 0.02487 0.43013 0.27931 0.0
H576 H 0.99522 0.53824 0.30192 0.0
H577 H 0.95358 0.54036 0.2662 0.0
H578 H 0.02237 0.44577 0.2124 0.0
H579 H 0.00581 0.40178 0.20463 0.0
H580 H 0.0317 0.4079 0.23286 0.0
H581 H 0.98316 0.38078 0.26097 0.0
H582 H 0.95731 0.37414 0.23278 0.0
H583 H 0.94051 0.39967 0.25933 0.0
H584 H 0.9154 0.53055 0.22743 0.0
H585 H 0.88378 0.50935 0.18918 0.0
H586 H 0.94107 0.40904 0.19148 0.0
C587 C 0.00929 0.45408 0.27704 0.0
C588 C 0.01315 0.48393 0.29354 0.0
C589 C 0.99264 0.51499 0.28956 0.0
C590 C 0.96895 0.51647 0.26932 0.0
C591 C 0.96629 0.48679 0.25313 0.0
C592 C 0.98589 0.45618 0.25681 0.0
C593 C 0.97901 0.42836 0.23632 0.0
C594 C 0.01167 0.42051 0.22063 0.0
C595 C 0.9641 0.3937 0.24805 0.0
C596 C 0.95248 0.44808 0.22049 0.0
C597 C 0.94528 0.48166 0.2305 0.0
C598 C 0.92094 0.50435 0.21936 0.0
C599 C 0.90318 0.49213 0.19761 0.0
C600 C 0.91015 0.4577 0.18714 0.0
C601 C 0.93542 0.43572 0.19871 0.0
H602 H 0.49818 0.53954 0.71226 0.0
H603 H 0.52047 0.42803 0.69355 0.0
H604 H 0.50104 0.40952 0.73655 0.0
H605 H 0.52697 0.53464 0.77802 0.0
H606 H 0.49397 0.56452 0.78967 0.0
H607 H 0.5095 0.56891 0.75733 0.0
H608 H 0.44717 0.56235 0.74041 0.0
H609 H 0.43149 0.5576 0.77269 0.0
H610 H 0.42221 0.52335 0.74925 0.0
H611 H 0.47742 0.40279 0.78092 0.0
H612 H 0.45618 0.40885 0.82523 0.0
H613 H 0.451 0.5249 0.81566 0.0
C614 C 0.4991 0.51125 0.71724 0.0
C615 C 0.51077 0.48523 0.69952 0.0
C616 C 0.51175 0.44848 0.70683 0.0
C617 C 0.5006 0.43766 0.73116 0.0
C618 C 0.48883 0.46392 0.74804 0.0
C619 C 0.4884 0.49999 0.74155 0.0
C620 C 0.47526 0.52283 0.7635 0.0
C621 C 0.50309 0.54928 0.77267 0.0
C622 C 0.44206 0.5427 0.756 0.0
C623 C 0.46828 0.49393 0.7833 0.0
C624 C 0.476 0.46011 0.7739 0.0
C625 C 0.47142 0.42913 0.78855 0.0
C626 C 0.4592 0.43286 0.81366 0.0
C627 C 0.45199 0.46736 0.82394 0.0
C628 C 0.45633 0.49818 0.80839 0.0
H629 H 0.97469 0.55718 0.80824 0.0
H630 H 0.07651 0.50998 0.81497 0.0
H631 H 0.07681 0.49774 0.7686 0.0
H632 H 0.94194 0.49522 0.76269 0.0
H633 H 0.91776 0.5282 0.7449 0.0
H634 H 0.92593 0.53499 0.77848 0.0
H635 H 0.95384 0.59684 0.76864 0.0
H636 H 0.94553 0.59036 0.73502 0.0
H637 H 0.98865 0.59942 0.74589 0.0
H638 H 0.06513 0.48772 0.72226 0.0
H639 H 0.04348 0.48323 0.67811 0.0
H640 H 0.94941 0.53763 0.70086 0.0
C641 C 0.9972 0.54459 0.79994 0.0
C642 C 0.02558 0.53451 0.81529 0.0
C643 C 0.05447 0.51799 0.80364 0.0
C644 C 0.05489 0.51088 0.77731 0.0
C645 C 0.02631 0.52061 0.76283 0.0
C646 C -0.00189 0.53738 0.77363 0.0
C647 C 0.97056 0.54456 0.75373 0.0
C648 C 0.93707 0.52454 0.76035 0.0
C649 C 0.96429 0.58521 0.75064 0.0
C650 C 0.98755 0.52879 0.73015 0.0
C651 C 0.01969 0.51513 0.73588 0.0
C652 C 0.04011 0.49852 0.71747 0.0
C653 C 0.02748 0.49601 0.69244 0.0
C654 C 0.99475 0.51011 0.68597 0.0
C655 C 0.97456 0.52668 0.70517 0.0
H656 H 0.05329 0.14322 0.10345 0.0
H657 H 0.13996 0.21109 0.12388 0.0
H658 H 0.10161 0.26422 0.12419 0.0
H659 H 0.00927 0.20802 0.06236 0.0
H660 H 0.96728 0.19413 0.07318 0.0
H661 H 0.00219 0.16226 0.07262 0.0
H662 H 0.99235 0.14877 0.12078 0.0
H663 H 0.95756 0.18068 0.12154 0.0
H664 H 0.99304 0.18532 0.14348 0.0
H665 H 0.05274 0.30922 0.12492 0.0
H666 H -0.00239 0.34236 0.12564 0.0
H667 H 0.94362 0.24426 0.10493 0.0
C668 C 0.06442 0.16931 0.10762 0.0
C669 C 0.09968 0.17303 0.11356 0.0
C670 C 0.11304 0.20761 0.1192 0.0
C671 C 0.09147 0.23794 0.1194 0.0
C672 C 0.0567 0.23316 0.11387 0.0
C673 C 0.04333 0.1997 0.10798 0.0
C674 C 0.00485 0.20132 0.10397 0.0
C675 C 0.99536 0.19082 0.07639 0.0
C676 C 0.98585 0.17763 0.12362 0.0
C677 C -0.00149 0.24088 0.10882 0.0
C678 C 0.0287 0.25888 0.11438 0.0
C679 C 0.02898 0.29544 0.12038 0.0
C680 C -0.00245 0.31401 0.12079 0.0
C681 C 0.96631 0.29592 0.11528 0.0
C682 C 0.96703 0.25895 0.10907 0.0
H683 H 0.49557 0.79312 0.09513 0.0
H684 H 0.51787 0.86602 0.15789 0.0
H685 H 0.56702 0.82798 0.17048 0.0
H686 H 0.50891 0.71529 0.12813 0.0
H687 H 0.52837 0.69047 0.10225 0.0
H688 H 0.49907 0.72658 0.09536 0.0
H689 H 0.54545 0.75786 0.06745 0.0
H690 H 0.57493 0.72162 0.07415 0.0
H691 H 0.58711 0.76746 0.08095 0.0
H692 H 0.60737 0.77706 0.18045 0.0
H693 H 0.63669 0.71847 0.1859 0.0
H694 H 0.58882 0.67988 0.11606 0.0
C695 C 0.51139 0.80171 0.11105 0.0
C696 C 0.50287 0.83257 0.12549 0.0
C697 C 0.52394 0.84254 0.14647 0.0
C698 C 0.55199 0.82114 0.15374 0.0
C699 C 0.55893 0.79013 0.13966 0.0
C700 C 0.53948 0.7807 0.11853 0.0
C701 C 0.55012 0.74437 0.10811 0.0
C702 C 0.51982 0.71762 0.10851 0.0
C703 C 0.56532 0.74807 0.08106 0.0
C704 C 0.57749 0.73412 0.12734 0.0
C705 C 0.58257 0.761 0.14522 0.0
C706 C 0.60422 0.75614 0.16623 0.0
C707 C 0.62069 0.72274 0.16922 0.0
C708 C 0.6153 0.69469 0.15132 0.0
C709 C 0.59402 0.70095 0.12985 0.0
H710 H 0.43384 0.76815 0.3363 0.0
H711 H 0.41227 0.74414 0.41612 0.0
H712 H 0.43789 0.80219 0.42873 0.0
H713 H 0.51543 0.8091 0.34688 0.0
H714 H 0.51008 0.84283 0.32237 0.0
H715 H 0.48858 0.8001 0.31949 0.0
H716 H 0.43004 0.83291 0.31518 0.0
H717 H 0.4514 0.87577 0.31815 0.0
H718 H 0.41682 0.86422 0.33965 0.0
H719 H 0.46711 0.86199 0.4329 0.0
H720 H 0.50002 0.91849 0.42838 0.0
H721 H 0.50283 0.90344 0.34594 0.0
C722 C 0.43431 0.77517 0.35642 0.0
C723 C 0.42096 0.7516 0.3752 0.0
C724 C 0.42234 0.76172 0.40136 0.0
C725 C 0.43673 0.79471 0.40873 0.0
C726 C 0.44965 0.81729 0.38975 0.0
C727 C 0.44869 0.80797 0.36414 0.0
C728 C 0.46549 0.83657 0.34766 0.0
C729 C 0.49675 0.82123 0.33326 0.0
C730 C 0.43937 0.85336 0.32907 0.0
C731 C 0.47633 0.86323 0.36805 0.0
C732 C 0.46673 0.85172 0.39217 0.0
C733 C 0.47466 0.87138 0.4141 0.0
C734 C 0.49336 0.90343 0.41134 0.0
C735 C 0.50401 0.91541 0.38683 0.0
C736 C 0.49492 0.89516 0.36494 0.0
H737 H 0.04188 0.32221 0.33249 0.0
H738 H 0.10761 0.30707 0.39882 0.0
H739 H 0.0853 0.24531 0.40392 0.0
H740 H 0.96951 0.27493 0.35704 0.0
H741 H 0.95772 0.25526 0.32675 0.0
H742 H 0.97996 0.29775 0.32756 0.0
H743 H 0.02764 0.2718 0.2982 0.0
H744 H 0.00551 0.22919 0.29726 0.0
H745 H 0.04971 0.23118 0.30754 0.0
H746 H 0.05447 0.18604 0.4028 0.0
H747 H 0.01718 0.13326 0.39545 0.0
H748 H 0.97168 0.18695 0.3298 0.0
C749 C 0.0518 0.30583 0.34797 0.0
C750 C 0.07655 0.31948 0.36523 0.0
C751 C 0.08869 0.29722 0.38533 0.0
C752 C 0.0762 0.26207 0.38839 0.0
C753 C 0.05166 0.24954 0.37116 0.0
C754 C 0.03962 0.27068 0.35131 0.0
C755 C 0.01257 0.25103 0.33584 0.0
C756 C 0.97789 0.27093 0.33687 0.0
C757 C 0.02459 0.24547 0.30807 0.0
C758 C 0.01105 0.21568 0.35026 0.0
C759 C 0.03388 0.21533 0.3705 0.0
C760 C 0.0366 0.18591 0.38693 0.0
C761 C 0.01528 0.15607 0.3826 0.0
C762 C 0.99154 0.15592 0.36203 0.0
C763 C 0.98966 0.18612 0.34562 0.0
H764 H 0.03272 0.67217 0.95011 0.0
H765 H 0.03864 0.64301 0.86974 0.0
H766 H 0.01714 0.70337 0.85791 0.0
H767 H 0.95459 0.72038 0.94585 0.0
H768 H 0.96656 0.75446 0.96873 0.0
H769 H 0.98491 0.71007 0.9709 0.0
H770 H 0.04628 0.73714 0.9689 0.0
H771 H 0.02811 0.78168 0.96704 0.0
H772 H 0.05771 0.76652 0.94276 0.0
H773 H 0.99267 0.76669 0.85494 0.0
H774 H 0.96884 0.82778 0.86111 0.0
H775 H 0.97743 0.81453 0.94347 0.0
C776 C 0.03017 0.67861 0.92998 0.0
C777 C 0.03773 0.65274 0.91087 0.0
C778 C 0.03328 0.66229 0.88477 0.0
C779 C 0.02097 0.69654 0.87785 0.0
C780 C 0.01306 0.72104 0.8972 0.0
C781 C 0.01764 0.71254 0.92274 0.0
C782 C 0.00603 0.74317 0.93988 0.0
C783 C 0.97626 0.7313 0.95737 0.0
C784 C 0.03634 0.75801 0.95557 0.0
C785 C 0.99402 0.77018 0.92004 0.0
C786 C -0.00161 0.75701 0.89552 0.0
C787 C 0.9892 0.77725 0.87408 0.0
C788 C 0.97557 0.81195 0.87778 0.0
C789 C 0.97101 0.82612 0.90277 0.0
C790 C 0.98024 0.8046 0.92409 0.0
H791 H 0.47105 0.31103 0.96184 0.0
H792 H 0.47092 0.33996 0.88127 0.0
H793 H 0.50087 0.28313 0.87104 0.0
H794 H 0.55521 0.27034 0.96236 0.0
H795 H 0.5433 0.23518 0.98446 0.0
H796 H 0.52161 0.27802 0.98553 0.0
H797 H 0.46282 0.2461 0.98002 0.0
H798 H 0.48429 0.20317 0.97918 0.0
H799 H 0.45638 0.21622 0.95326 0.0
H800 H 0.52988 0.22213 0.86944 0.0
H801 H 0.55465 0.1617 0.8766 0.0
H802 H 0.5376 0.17344 0.95832 0.0
C803 C 0.47713 0.30542 0.942 0.0
C804 C 0.46841 0.33012 0.92236 0.0
C805 C 0.4772 0.32163 0.8967 0.0
C806 C 0.49431 0.28938 0.89068 0.0
C807 C 0.50276 0.26586 0.91052 0.0
C808 C 0.49445 0.27348 0.93567 0.0
C809 C 0.50637 0.24362 0.95341 0.0
C810 C 0.53322 0.25764 0.97257 0.0
C811 C 0.47563 0.22625 0.96728 0.0
C812 C 0.52244 0.21786 0.93431 0.0
C813 C 0.52011 0.23118 0.90966 0.0
C814 C 0.53204 0.21158 0.88869 0.0
C815 C 0.54615 0.17725 0.89296 0.0
C816 C 0.54848 0.1628 0.91804 0.0
C817 C 0.53684 0.18382 0.93895 0.0
H818 H 0.43757 0.21234 0.5603 0.0
H819 H 0.44091 0.18912 0.64165 0.0
H820 H 0.46703 0.24884 0.64957 0.0
H821 H 0.51904 0.25423 0.55766 0.0
H822 H 0.50712 0.28749 0.53414 0.0
H823 H 0.48531 0.24473 0.53498 0.0
H824 H 0.4266 0.2771 0.53947 0.0
H825 H 0.44819 0.32 0.53828 0.0
H826 H 0.42042 0.30931 0.56487 0.0
H827 H 0.49436 0.31021 0.64845 0.0
H828 H 0.52126 0.36877 0.63856 0.0
H829 H 0.50374 0.35066 0.55751 0.0
C830 C 0.4429 0.22026 0.57985 0.0
C831 C 0.43655 0.1964 0.60046 0.0
C832 C 0.44513 0.20718 0.62566 0.0
C833 C 0.46005 0.24099 0.63031 0.0
C834 C 0.46673 0.26352 0.60951 0.0
C835 C 0.45845 0.25362 0.58477 0.0
C836 C 0.47033 0.28184 0.56567 0.0
C837 C 0.49703 0.26613 0.54702 0.0
C838 C 0.43955 0.29802 0.55123 0.0
C839 C 0.48656 0.30919 0.58353 0.0
C840 C 0.48395 0.29817 0.60874 0.0
C841 C 0.49657 0.31908 0.62877 0.0
C842 C 0.51186 0.35231 0.62294 0.0
C843 C 0.51486 0.36428 0.59725 0.0
C844 C 0.50226 0.34212 0.57731 0.0
H845 H 0.06395 0.78724 0.56321 0.0
H846 H 0.05635 0.81271 0.644 0.0
H847 H 0.02473 0.75569 0.65141 0.0
H848 H 0.97919 0.7532 0.55774 0.0
H849 H 0.98999 0.71867 0.53486 0.0
H850 H 0.01513 0.75933 0.53634 0.0
H851 H 0.07057 0.72186 0.5432 0.0
H852 H 0.04565 0.68104 0.54143 0.0
H853 H 0.07231 0.68962 0.56898 0.0
H854 H 0.99363 0.69555 0.6497 0.0
H855 H 0.96316 0.63905 0.6388 0.0
H856 H 0.98646 0.65618 0.55849 0.0
C857 C 0.05637 0.78037 0.58256 0.0
C858 C 0.06324 0.80397 0.60317 0.0
C859 C 0.05175 0.79472 0.62805 0.0
C860 C 0.03374 0.76245 0.6324 0.0
C861 C 0.02683 0.74007 0.61157 0.0
C862 C 0.03762 0.74876 0.58711 0.0
C863 C 0.02484 0.72147 0.56773 0.0
C864 C 0.00086 0.73924 0.54801 0.0
C865 C 0.05515 0.70236 0.55457 0.0
C866 C 0.00522 0.69598 0.58508 0.0
C867 C 0.00704 0.7069 0.61035 0.0
C868 C 0.99184 0.68694 0.62996 0.0
C869 C 0.97457 0.65492 0.62359 0.0
C870 C 0.972 0.64352 0.59778 0.0
C871 C 0.98738 0.66458 0.57833 0.0
H872 H 0.98558 1.0014 0.95479 0.0
H873 H 0.05609 0.92807 0.9172 0.0
H874 H 0.09497 0.9312 0.9548 0.0
H875 H 0.05257 0.05797 0.98396 0.0
H876 H 0.02757 0.06572 0.01251 0.0
H877 H 0.00626 0.05835 0.98234 0.0
H878 H 0.97172 0.00576 0.00245 0.0
H879 H 0.99311 0.01272 0.03259 0.0
H880 H 0.99445 0.96912 0.01748 0.0
H881 H 0.12221 0.93726 0.99836 0.0
H882 H 0.14041 0.95199 0.04248 0.0
H883 H 0.05485 0.0261 0.04982 0.0
C884 C 0.00944 0.98636 0.95441 0.0
C885 C 0.01801 0.96439 0.93332 0.0
C886 C 0.04938 0.94519 0.93323 0.0
C887 C 0.07142 0.94672 0.95449 0.0
C888 C 0.06193 0.96824 0.97523 0.0
C889 C 0.03206 0.98836 0.97509 0.0
C890 C 0.02787 0.00961 -0.00037 0.0
C891 C 0.02863 0.05033 0.99428 0.0
C892 C 0.99483 0.99863 0.01387 0.0
C893 C 0.05964 0.99762 0.01396 0.0
C894 C 0.07875 0.97347 -0.00035 0.0
C895 C 0.10784 0.95665 0.00954 0.0
C896 C 0.11783 0.96499 0.03461 0.0
C897 C 0.09913 0.99036 0.04929 0.0
C898 C 0.06983 0.00705 0.03877 0.0
H899 H 0.53148 0.99941 0.97551 0.0
H900 H 0.44704 0.04355 0.93124 0.0
H901 H 0.40673 0.0279 0.96639 0.0
H902 H 0.48525 0.92403 0.00012 0.0
H903 H 0.5064 0.92495 0.03081 0.0
H904 H 0.52846 0.94122 0.00277 0.0
H905 H 0.53884 0.00268 0.02498 0.0
H906 H 0.51703 0.98653 0.05316 0.0
H907 H 0.50275 0.0273 0.03776 0.0
H908 H 0.37631 0.00822 0.00707 0.0
H909 H 0.35761 0.98397 0.04892 0.0
H910 H 0.46208 0.94942 0.06467 0.0
C911 C 0.50456 0.00618 0.97327 0.0
C912 C 0.49233 0.02306 0.95082 0.0
C913 C 0.45686 0.03079 0.94839 0.0
C914 C 0.43387 0.02199 0.96821 0.0
C915 C 0.44683 0.00508 0.99005 0.0
C916 C 0.48134 0.99707 0.99255 0.0
C917 C 0.48878 0.97772 0.01743 0.0
C918 C 0.50306 0.93973 0.01247 0.0
C919 C 0.51329 0.99989 0.03433 0.0
C920 C 0.45304 0.97622 0.02873 0.0
C921 C 0.42922 0.99238 0.01278 0.0
C922 C 0.39471 0.9953 0.01961 0.0
C923 C 0.38436 0.98149 0.0434 0.0
C924 C 0.40838 0.96458 0.05991 0.0
C925 C 0.44307 0.96172 0.0523 0.0
H926 H 0.44753 0.04837 0.51809 0.0
H927 H 0.5091 0.13606 0.54788 0.0
H928 H 0.52855 0.15074 0.50392 0.0
H929 H 0.5099 0.01759 0.47636 0.0
H930 H 0.48068 0.0037 0.45147 0.0
H931 H 0.46637 0.0049 0.48417 0.0
H932 H 0.41621 0.04715 0.47123 0.0
H933 H 0.43062 0.04625 0.43842 0.0
H934 H 0.42541 0.08869 0.45471 0.0
H935 H 0.54522 0.15226 0.45778 0.0
H936 H 0.56463 0.13562 0.41449 0.0
H937 H 0.49529 0.04396 0.41525 0.0
C938 C 0.4644 0.07122 0.51515 0.0
C939 C 0.47659 0.09147 0.53607 0.0
C940 C 0.49951 0.12043 0.5319 0.0
C941 C 0.51036 0.12911 0.50704 0.0
C942 C 0.49832 0.10825 0.48673 0.0
C943 C 0.47617 0.07959 0.49057 0.0
C944 C 0.47113 0.05813 0.46622 0.0
C945 C 0.48273 0.01878 0.46977 0.0
C946 C 0.43361 0.0602 0.45711 0.0
C947 C 0.49483 0.07844 0.44831 0.0
C948 C 0.50939 0.10791 0.46028 0.0
C949 C 0.53372 0.12949 0.4481 0.0
C950 C 0.54451 0.11985 0.42344 0.0
C951 C 0.53155 0.08841 0.41147 0.0
C952 C 0.50552 0.06827 0.4238 0.0
H953 H 0.99355 0.9158 0.53419 0.0
H954 H 0.10249 0.93558 0.5226 0.0
H955 H 0.09243 0.94416 0.47652 0.0
H956 H 0.9797 0.86831 0.47123 0.0
H957 H 0.93762 0.88796 0.46746 0.0
H958 H 0.954 0.87847 0.49904 0.0
H959 H 0.944 0.94501 0.51198 0.0
H960 H 0.92779 0.95472 0.48051 0.0
H961 H 0.96328 0.98037 0.49315 0.0
H962 H 0.0694 0.96223 0.43392 0.0
H963 H 0.03504 0.98196 0.39648 0.0
H964 H 0.94215 0.94502 0.43399 0.0
C965 C 0.01536 0.92098 0.52182 0.0
C966 C 0.04877 0.92499 0.532 0.0
C967 C 0.07666 0.93212 0.51525 0.0
C968 C 0.07124 0.93707 0.489 0.0
C969 C 0.03789 0.934 0.47964 0.0
C970 C 0.01049 0.92536 0.49541 0.0
C971 C 0.97694 0.92576 0.48071 0.0
C972 C 0.96114 0.88786 0.47954 0.0
C973 C 0.95153 0.9531 0.49227 0.0
C974 C 0.9896 0.93773 0.45461 0.0
C975 C 0.02488 0.94228 0.45438 0.0
C976 C 0.04193 0.95759 0.4335 0.0
C977 C 0.02234 0.96877 0.4124 0.0
C978 C 0.98633 0.96388 0.41225 0.0
C979 C 0.96989 0.94763 0.43338 0.0
H980 H 0.52632 0.48831 0.0898 0.0
H981 H 0.59099 0.57762 0.06601 0.0
H982 H 0.57205 0.56914 0.02137 0.0
H983 H 0.54022 0.43267 0.0366 0.0
H984 H 0.49663 0.41647 0.03433 0.0
H985 H 0.51354 0.43053 0.06481 0.0
H986 H 0.46353 0.47604 0.07016 0.0
H987 H 0.44607 0.46159 0.03992 0.0
H988 H 0.45535 0.50855 0.04526 0.0
H989 H 0.55123 0.54657 0.97875 0.0
H990 H 0.5216 0.51852 0.94193 0.0
H991 H 0.46777 0.44666 0.99377 0.0
C992 C 0.536 0.5065 0.07528 0.0
C993 C 0.56019 0.53357 0.0814 0.0
C994 C 0.57225 0.55685 0.06184 0.0
C995 C 0.56187 0.55208 0.03637 0.0
C996 C 0.53896 0.52433 0.03086 0.0
C997 C 0.52545 0.50254 0.04982 0.0
C998 C 0.50092 0.47494 0.03878 0.0
C999 C 0.5136 0.43638 0.04394 0.0
C1000 C 0.46429 0.48064 0.04914 0.0
C1001 C 0.50325 0.48422 0.01061 0.0
C1002 C 0.52568 0.51248 0.00641 0.0
C1003 C 0.53321 0.52478 0.98183 0.0
C1004 C 0.51655 0.50847 0.96104 0.0
C1005 C 0.49228 0.48062 0.96506 0.0
C1006 C 0.4859 0.46815 0.99015 0.0
H1007 H 0.94123 0.44167 0.06736 0.0
H1008 H 0.83757 0.47827 0.05123 0.0
H1009 H 0.85799 0.50668 0.01112 0.0
H1010 H 0.98377 0.52259 0.04379 0.0
H1011 H 0.01993 0.498 0.03112 0.0
H1012 H 0.99698 0.48093 0.05854 0.0
H1013 H 0.98638 0.42061 0.03483 0.0
H1014 H 0.00936 0.43745 0.00741 0.0
H1015 H 0.96598 0.42109 0.00385 0.0
H1016 H 0.88953 0.52663 0.97074 0.0
H1017 H 0.93044 0.54036 0.93552 0.0
H1018 H 0.01349 0.4951 0.98061 0.0
C1019 C 0.92286 0.45571 0.05539 0.0
C1020 C 0.88783 0.45759 0.06223 0.0
C1021 C 0.86459 0.4766 0.04629 0.0
C1022 C 0.87592 0.49275 0.02349 0.0
C1023 C 0.91067 0.49028 0.01722 0.0
C1024 C 0.93386 0.47268 0.03293 0.0
C1025 C 0.96987 0.47416 0.0221 0.0
C1026 C 0.99406 0.49518 0.03995 0.0
C1027 C 0.98369 0.43607 0.01672 0.0
C1028 C 0.96325 0.49462 0.99756 0.0
C1029 C 0.92896 0.50355 0.9949 0.0
C1030 C 0.91655 0.52035 0.97283 0.0
C1031 C 0.93987 0.52801 0.95294 0.0
C1032 C 0.97511 0.51934 0.95556 0.0
C1033 C 0.98681 0.50284 0.9783 0.0
H1034 H 0.97186 0.54501 0.52236 0.0
H1035 H 0.02299 0.45656 0.56091 0.0
H1036 H 0.04702 0.43609 0.51955 0.0
H1037 H 0.95032 0.49989 0.46446 0.0
H1038 H 0.9599 0.53751 0.44383 0.0
H1039 H 0.94632 0.54527 0.47635 0.0
H1040 H 0.00129 0.5828 0.48495 0.0
H1041 H 0.01477 0.57565 0.45234 0.0
H1042 H 0.04286 0.56338 0.47836 0.0
H1043 H 0.06114 0.4224 0.47389 0.0
H1044 H 0.07463 0.4228 0.42774 0.0
H1045 H 0.01933 0.52359 0.41913 0.0
C1046 C 0.98828 0.52149 0.52202 0.0
C1047 C 0.99548 0.5021 0.54464 0.0
C1048 C 0.01743 0.47178 0.5437 0.0
C1049 C 0.03089 0.45981 0.52032 0.0
C1050 C 0.02273 0.47901 0.49823 0.0
C1051 C 0.00276 0.50977 0.49893 0.0
C1052 C -0.0005 0.52648 0.47256 0.0
C1053 C 0.96176 0.52732 0.46379 0.0
C1054 C 0.01557 0.56432 0.47203 0.0
C1055 C 0.02037 0.49999 0.45689 0.0
C1056 C 0.03292 0.47245 0.47203 0.0
C1057 C 0.05184 0.44404 0.46186 0.0
C1058 C 0.05909 0.44434 0.43559 0.0
C1059 C 0.04806 0.47326 0.41993 0.0
C1060 C 0.02815 0.50123 0.43071 0.0
H1061 H 0.50547 0.48282 0.52863 0.0
H1062 H 0.44963 0.55024 0.58224 0.0
H1063 H 0.41897 0.57901 0.5463 0.0
H1064 H 0.51573 0.54659 0.47883 0.0
H1065 H 0.50798 0.51548 0.45299 0.0
H1066 H 0.52546 0.49945 0.48282 0.0
H1067 H 0.47561 0.45356 0.48705 0.0
H1068 H 0.45821 0.4691 0.45705 0.0
H1069 H 0.43177 0.46919 0.48541 0.0
H1070 H 0.39933 0.60488 0.50488 0.0
H1071 H 0.38306 0.61899 0.46033 0.0
H1072 H 0.4462 0.5306 0.43318 0.0
C1073 C 0.48652 0.50337 0.53274 0.0
C1074 C 0.47996 0.51452 0.55814 0.0
C1075 C 0.45482 0.54121 0.5629 0.0
C1076 C 0.43748 0.55788 0.54262 0.0
C1077 C 0.44501 0.54689 0.51776 0.0
C1078 C 0.46817 0.51959 0.51271 0.0
C1079 C 0.47045 0.51215 0.48419 0.0
C1080 C 0.50708 0.51883 0.47412 0.0
C1081 C 0.45827 0.47372 0.47807 0.0
C1082 C 0.44548 0.54008 0.47402 0.0
C1083 C 0.43162 0.56019 0.49376 0.0
C1084 C 0.40952 0.58898 0.48926 0.0
C1085 C 0.40068 0.59697 0.46392 0.0
C1086 C 0.41331 0.57579 0.44346 0.0
C1087 C 0.43603 0.54699 0.44857 0.0
loop_
_geom_bond_atom_site_label_1
_geom_bond_atom_site_label_2
_geom_bond_distance
_geom_bond_site_symmetry_2
_ccdc_geom_bond_type
Mg0 O1 2.028 . S
Mg0 O7 1.986 . S
Mg0 O9 2.114 . S
Mg0 O10 2.251 . S
Mg0 O13 2.010 . S
O1 Mg0 2.028 . S
O1 C4 1.250 . S
O2 Mg3 2.028 . S
O2 C4 1.248 1_565 S
Mg3 O2 2.028 . S
Mg3 O8 2.032 . S
Mg3 O10 2.079 1_565 S
C4 O1 1.250 . S
C4 O2 1.248 1_545 S
C5 O6 1.264 . S
C5 O13 1.249 . S
O6 C5 1.264 . S
O7 Mg0 1.986 . S
O7 C11 1.246 . S
O8 Mg3 2.032 . S
O8 C11 1.259 1_565 S
O9 Mg0 2.114 . S
O9 C12 1.252 . S
O10 Mg0 2.251 . S
O10 Mg3 2.079 1_545 S
O10 C12 1.273 . S
C11 O7 1.246 . S
C11 O8 1.259 1_545 S
C12 O9 1.252 . S
C12 O10 1.273 . S
O13 Mg0 2.010 . S
O13 C5 1.249 . S
Mg14 O15 2.028 . S
Mg14 O21 1.986 . S
Mg14 O23 2.114 . S
Mg14 O24 2.251 . S
Mg14 O27 2.010 . S
O15 Mg14 2.028 . S
O15 C18 1.250 . S
O16 Mg17 2.028 . S
O16 C18 1.248 1_545 S
Mg17 O16 2.028 . S
Mg17 O22 2.032 . S
Mg17 O24 2.079 1_545 S
C18 O15 1.250 . S
C18 O16 1.248 1_565 S
C19 O20 1.264 . S
C19 O27 1.249 . S
O20 C19 1.264 . S
O21 Mg14 1.986 . S
O21 C25 1.246 . S
O22 Mg17 2.032 . S
O22 C25 1.259 1_545 S
O23 Mg14 2.114 . S
O23 C26 1.252 . S
O24 Mg14 2.251 . S
O24 Mg17 2.079 1_565 S
O24 C26 1.273 . S
C25 O21 1.246 . S
C25 O22 1.259 1_565 S
C26 O23 1.252 . S
C26 O24 1.273 . S
O27 Mg14 2.010 . S
O27 C19 1.249 . S
Mg28 O29 2.028 . S
Mg28 O35 1.986 . S
Mg28 O37 2.114 . S
Mg28 O38 2.251 . S
Mg28 O41 2.010 . S
O29 Mg28 2.028 . S
O29 C32 1.250 . S
O30 Mg31 2.028 . S
O30 C32 1.248 1_545 S
Mg31 O30 2.028 . S
Mg31 O36 2.032 . S
Mg31 O38 2.079 1_545 S
C32 O29 1.250 . S
C32 O30 1.248 1_565 S
C33 O34 1.264 . S
C33 O41 1.249 . S
O34 C33 1.264 . S
O35 Mg28 1.986 . S
O35 C39 1.246 . S
O36 Mg31 2.032 . S
O36 C39 1.259 1_545 S
O37 Mg28 2.114 . S
O37 C40 1.252 . S
O38 Mg28 2.251 . S
O38 Mg31 2.079 1_565 S
O38 C40 1.273 . S
C39 O35 1.246 . S
C39 O36 1.259 1_565 S
C40 O37 1.252 . S
C40 O38 1.273 . S
O41 Mg28 2.010 . S
O41 C33 1.249 . S
Mg42 O43 2.028 . S
Mg42 O49 1.986 . S
Mg42 O51 2.114 . S
Mg42 O52 2.251 . S
Mg42 O55 2.010 . S
O43 Mg42 2.028 . S
O43 C46 1.250 . S
O44 Mg45 2.028 . S
O44 C46 1.248 1_565 S
Mg45 O44 2.028 . S
Mg45 O50 2.032 . S
Mg45 O52 2.079 1_565 S
C46 O43 1.250 . S
C46 O44 1.248 1_545 S
C47 O48 1.264 . S
C47 O55 1.249 . S
O48 C47 1.264 . S
O49 Mg42 1.986 . S
O49 C53 1.246 . S
O50 Mg45 2.032 . S
O50 C53 1.259 1_565 S
O51 Mg42 2.114 . S
O51 C54 1.252 . S
O52 Mg42 2.251 . S
O52 Mg45 2.079 1_545 S
O52 C54 1.273 . S
C53 O49 1.246 . S
C53 O50 1.259 1_545 S
C54 O51 1.252 . S
C54 O52 1.273 . S
O55 Mg42 2.010 . S
O55 C47 1.249 . S
Mg56 O57 2.028 . S
Mg56 O63 1.986 . S
Mg56 O65 2.114 . S
Mg56 O66 2.251 . S
Mg56 O69 2.010 . S
O57 Mg56 2.028 . S
O57 C60 1.250 . S
O58 Mg59 2.028 . S
O58 C60 1.248 . S
Mg59 O58 2.028 . S
Mg59 O64 2.032 . S
Mg59 O66 2.079 . S
C60 O57 1.250 . S
C60 O58 1.248 . S
C61 O62 1.264 1_565 S
C61 O69 1.249 . S
O62 C61 1.264 1_545 S
O63 Mg56 1.986 . S
O63 C67 1.246 . S
O64 Mg59 2.032 . S
O64 C67 1.259 . S
O65 Mg56 2.114 . S
O65 C68 1.252 . S
O66 Mg56 2.251 . S
O66 Mg59 2.079 . S
O66 C68 1.273 . S
C67 O63 1.246 . S
C67 O64 1.259 . S
C68 O65 1.252 . S
C68 O66 1.273 . S
O69 Mg56 2.010 . S
O69 C61 1.249 . S
Mg70 O71 2.028 . S
Mg70 O77 1.986 . S
Mg70 O79 2.114 . S
Mg70 O80 2.251 . S
Mg70 O83 2.010 . S
O71 Mg70 2.028 . S
O71 C74 1.250 . S
O72 Mg73 2.028 . S
O72 C74 1.248 . S
Mg73 O72 2.028 . S
Mg73 O78 2.032 . S
Mg73 O80 2.079 . S
C74 O71 1.250 . S
C74 O72 1.248 . S
C75 O76 1.264 1_545 S
C75 O83 1.249 . S
O76 C75 1.264 1_565 S
O77 Mg70 1.986 . S
O77 C81 1.246 . S
O78 Mg73 2.032 . S
O78 C81 1.259 . S
O79 Mg70 2.114 . S
O79 C82 1.252 . S
O80 Mg70 2.251 . S
O80 Mg73 2.079 . S
O80 C82 1.273 . S
C81 O77 1.246 . S
C81 O78 1.259 . S
C82 O79 1.252 . S
C82 O80 1.273 . S
O83 Mg70 2.010 . S
O83 C75 1.249 . S
Mg84 O85 2.028 . S
Mg84 O91 1.986 . S
Mg84 O93 2.114 . S
Mg84 O94 2.251 . S
Mg84 O97 2.010 . S
O85 Mg84 2.028 . S
O85 C88 1.250 . S
O86 Mg87 2.028 . S
O86 C88 1.248 . S
Mg87 O86 2.028 . S
Mg87 O92 2.032 . S
Mg87 O94 2.079 . S
C88 O85 1.250 . S
C88 O86 1.248 . S
C89 O90 1.264 1_545 S
C89 O97 1.249 . S
O90 C89 1.264 1_565 S
O91 Mg84 1.986 . S
O91 C95 1.246 . S
O92 Mg87 2.032 . S
O92 C95 1.259 . S
O93 Mg84 2.114 . S
O93 C96 1.252 . S
O94 Mg84 2.251 . S
O94 Mg87 2.079 . S
O94 C96 1.273 . S
C95 O91 1.246 . S
C95 O92 1.259 . S
C96 O93 1.252 . S
C96 O94 1.273 . S
O97 Mg84 2.010 . S
O97 C89 1.249 . S
Mg98 O99 2.028 . S
Mg98 O105 1.986 . S
Mg98 O107 2.114 . S
Mg98 O108 2.251 . S
Mg98 O111 2.010 . S
O99 Mg98 2.028 . S
O99 C102 1.250 . S
O100 Mg101 2.028 . S
O100 C102 1.248 . S
Mg101 O100 2.028 . S
Mg101 O106 2.032 . S
Mg101 O108 2.079 . S
C102 O99 1.250 . S
C102 O100 1.248 . S
C103 O104 1.264 1_565 S
C103 O111 1.249 . S
O104 C103 1.264 1_545 S
O105 Mg98 1.986 . S
O105 C109 1.246 . S
O106 Mg101 2.032 . S
O106 C109 1.259 . S
O107 Mg98 2.114 . S
O107 C110 1.252 . S
O108 Mg98 2.251 . S
O108 Mg101 2.079 . S
O108 C110 1.273 . S
C109 O105 1.246 . S
C109 O106 1.259 . S
C110 O107 1.252 . S
C110 O108 1.273 . S
O111 Mg98 2.010 . S
O111 C103 1.249 . S
Mg112 O113 2.028 . S
Mg112 O119 1.986 . S
Mg112 O121 2.114 . S
Mg112 O122 2.251 . S
Mg112 O125 2.010 . S
O113 Mg112 2.028 . S
O113 C116 1.250 . S
O114 Mg115 2.028 . S
O114 C116 1.248 . S
Mg115 O114 2.028 . S
Mg115 O120 2.032 . S
Mg115 O122 2.079 . S
C116 O113 1.250 . S
C116 O114 1.248 . S
C117 O118 1.264 . S
C117 O125 1.249 . S
O118 C117 1.264 . S
O119 Mg112 1.986 . S
O119 C123 1.246 . S
O120 Mg115 2.032 . S
O120 C123 1.259 . S
O121 Mg112 2.114 . S
O121 C124 1.252 . S
O122 Mg112 2.251 . S
O122 Mg115 2.079 . S
O122 C124 1.273 . S
C123 O119 1.246 . S
C123 O120 1.259 . S
C124 O121 1.252 . S
C124 O122 1.273 . S
O125 Mg112 2.010 . S
O125 C117 1.249 . S
Mg126 O127 2.028 . S
Mg126 O133 1.986 . S
Mg126 O135 2.114 . S
Mg126 O136 2.251 . S
Mg126 O139 2.010 . S
O127 Mg126 2.028 . S
O127 C130 1.250 . S
O128 Mg129 2.028 . S
O128 C130 1.248 . S
Mg129 O128 2.028 . S
Mg129 O134 2.032 . S
Mg129 O136 2.079 . S
C130 O127 1.250 . S
C130 O128 1.248 . S
C131 O132 1.264 . S
C131 O139 1.249 . S
O132 C131 1.264 . S
O133 Mg126 1.986 . S
O133 C137 1.246 . S
O134 Mg129 2.032 . S
O134 C137 1.259 . S
O135 Mg126 2.114 . S
O135 C138 1.252 . S
O136 Mg126 2.251 . S
O136 Mg129 2.079 . S
O136 C138 1.273 . S
C137 O133 1.246 . S
C137 O134 1.259 . S
C138 O135 1.252 . S
C138 O136 1.273 . S
O139 Mg126 2.010 . S
O139 C131 1.249 . S
Mg140 O141 2.028 . S
Mg140 O147 1.986 . S
Mg140 O149 2.114 . S
Mg140 O150 2.251 . S
Mg140 O153 2.010 . S
O141 Mg140 2.028 . S
O141 C144 1.250 . S
O142 Mg143 2.028 . S
O142 C144 1.248 . S
Mg143 O142 2.028 . S
Mg143 O148 2.032 . S
Mg143 O150 2.079 . S
C144 O141 1.250 . S
C144 O142 1.248 . S
C145 O146 1.264 . S
C145 O153 1.249 . S
O146 C145 1.264 . S
O147 Mg140 1.986 . S
O147 C151 1.246 . S
O148 Mg143 2.032 . S
O148 C151 1.259 . S
O149 Mg140 2.114 . S
O149 C152 1.252 . S
O150 Mg140 2.251 . S
O150 Mg143 2.079 . S
O150 C152 1.273 . S
C151 O147 1.246 . S
C151 O148 1.259 . S
C152 O149 1.252 . S
C152 O150 1.273 . S
O153 Mg140 2.010 . S
O153 C145 1.249 . S
Mg154 O155 2.028 . S
Mg154 O161 1.986 . S
Mg154 O163 2.114 . S
Mg154 O164 2.251 . S
Mg154 O167 2.010 . S
O155 Mg154 2.028 . S
O155 C158 1.250 . S
O156 Mg157 2.028 . S
O156 C158 1.248 . S
Mg157 O156 2.028 . S
Mg157 O162 2.032 . S
Mg157 O164 2.079 . S
C158 O155 1.250 . S
C158 O156 1.248 . S
C159 O160 1.264 . S
C159 O167 1.249 . S
O160 C159 1.264 . S
O161 Mg154 1.986 . S
O161 C165 1.246 . S
O162 Mg157 2.032 . S
O162 C165 1.259 . S
O163 Mg154 2.114 . S
O163 C166 1.252 . S
O164 Mg154 2.251 . S
O164 Mg157 2.079 . S
O164 C166 1.273 . S
C165 O161 1.246 . S
C165 O162 1.259 . S
C166 O163 1.252 . S
C166 O164 1.273 . S
O167 Mg154 2.010 . S
O167 C159 1.249 . S
Mg168 O169 2.028 . S
Mg168 O175 1.986 . S
Mg168 O177 2.114 . S
Mg168 O178 2.251 . S
Mg168 O181 2.010 . S
O169 Mg168 2.028 . S
O169 C172 1.250 . S
O170 Mg171 2.028 . S
O170 C172 1.248 . S
Mg171 O170 2.028 . S
Mg171 O176 2.032 . S
Mg171 O178 2.079 . S
C172 O169 1.250 . S
C172 O170 1.248 . S
C173 O174 1.264 . S
C173 O181 1.249 . S
O174 C173 1.264 . S
O175 Mg168 1.986 . S
O175 C179 1.246 . S
O176 Mg171 2.032 . S
O176 C179 1.259 . S
O177 Mg168 2.114 . S
O177 C180 1.252 . S
O178 Mg168 2.251 . S
O178 Mg171 2.079 . S
O178 C180 1.273 . S
C179 O175 1.246 . S
C179 O176 1.259 . S
C180 O177 1.252 . S
C180 O178 1.273 . S
O181 Mg168 2.010 . S
O181 C173 1.249 . S
Mg182 O183 2.028 . S
Mg182 O189 1.986 . S
Mg182 O191 2.114 . S
Mg182 O192 2.251 . S
Mg182 O195 2.010 . S
O183 Mg182 2.028 . S
O183 C186 1.250 . S
O184 Mg185 2.028 . S
O184 C186 1.248 . S
Mg185 O184 2.028 . S
Mg185 O190 2.032 . S
Mg185 O192 2.079 . S
C186 O183 1.250 . S
C186 O184 1.248 . S
C187 O188 1.264 . S
C187 O195 1.249 . S
O188 C187 1.264 . S
O189 Mg182 1.986 . S
O189 C193 1.246 . S
O190 Mg185 2.032 . S
O190 C193 1.259 . S
O191 Mg182 2.114 . S
O191 C194 1.252 . S
O192 Mg182 2.251 . S
O192 Mg185 2.079 . S
O192 C194 1.273 . S
C193 O189 1.246 . S
C193 O190 1.259 . S
C194 O191 1.252 . S
C194 O192 1.273 . S
O195 Mg182 2.010 . S
O195 C187 1.249 . S
Mg196 O197 2.028 . S
Mg196 O203 1.986 . S
Mg196 O205 2.114 . S
Mg196 O206 2.251 . S
Mg196 O209 2.010 . S
O197 Mg196 2.028 . S
O197 C200 1.250 . S
O198 Mg199 2.028 . S
O198 C200 1.248 . S
Mg199 O198 2.028 . S
Mg199 O204 2.032 . S
Mg199 O206 2.079 . S
C200 O197 1.250 . S
C200 O198 1.248 . S
C201 O202 1.264 . S
C201 O209 1.249 . S
O202 C201 1.264 . S
O203 Mg196 1.986 . S
O203 C207 1.246 . S
O204 Mg199 2.032 . S
O204 C207 1.259 . S
O205 Mg196 2.114 . S
O205 C208 1.252 . S
O206 Mg196 2.251 . S
O206 Mg199 2.079 . S
O206 C208 1.273 . S
C207 O203 1.246 . S
C207 O204 1.259 . S
C208 O205 1.252 . S
C208 O206 1.273 . S
O209 Mg196 2.010 . S
O209 C201 1.249 . S
Mg210 O211 2.028 . S
Mg210 O217 1.986 . S
Mg210 O219 2.114 . S
Mg210 O220 2.251 . S
Mg210 O223 2.010 . S
O211 Mg210 2.028 . S
O211 C214 1.250 . S
O212 Mg213 2.028 . S
O212 C214 1.248 . S
Mg213 O212 2.028 . S
Mg213 O218 2.032 . S
Mg213 O220 2.079 . S
C214 O211 1.250 . S
C214 O212 1.248 . S
C215 O216 1.264 . S
C215 O223 1.249 . S
O216 C215 1.264 . S
O217 Mg210 1.986 . S
O217 C221 1.246 . S
O218 Mg213 2.032 . S
O218 C221 1.259 . S
O219 Mg210 2.114 . S
O219 C222 1.252 . S
O220 Mg210 2.251 . S
O220 Mg213 2.079 . S
O220 C222 1.273 . S
C221 O217 1.246 . S
C221 O218 1.259 . S
C222 O219 1.252 . S
C222 O220 1.273 . S
O223 Mg210 2.010 . S
O223 C215 1.249 . S
H224 C236 0.930 . S
H225 C238 0.930 1_545 S
H226 C239 0.930 . S
H227 C243 0.959 . S
H228 C243 0.959 . S
H229 C243 0.961 . S
H230 C244 0.960 . S
H231 C244 0.961 . S
H232 C244 0.959 . S
H233 C247 0.929 . S
H234 C248 0.931 . S
H235 C250 0.930 . S
C236 H224 0.930 . S
C236 C237 1.399 . S
C236 C241 1.399 . S
C237 C236 1.399 . S
C237 C238 1.376 . S
C238 H225 0.930 1_565 S
C238 C237 1.376 . S
C238 C239 1.388 1_565 S
C239 H226 0.930 . S
C239 C238 1.388 1_545 S
C239 C240 1.390 . S
C240 C239 1.390 . S
C240 C241 1.394 1_545 S
C240 C246 1.465 . S
C241 C236 1.399 . S
C241 C240 1.394 1_565 S
C241 C242 1.516 . S
C242 C241 1.516 . S
C242 C243 1.502 . S
C242 C244 1.561 1_565 S
C242 C245 1.526 1_565 S
C243 H227 0.959 . S
C243 H228 0.959 . S
C243 H229 0.961 . S
C243 C242 1.502 . S
C244 H230 0.960 . S
C244 H231 0.961 . S
C244 H232 0.959 . S
C244 C242 1.561 1_545 S
C245 C242 1.526 1_545 S
C245 C246 1.396 . S
C245 C250 1.390 . S
C246 C240 1.465 . S
C246 C245 1.396 . S
C246 C247 1.399 . S
C247 H233 0.929 . S
C247 C246 1.399 . S
C247 C248 1.385 . S
C248 H234 0.931 . S
C248 C247 1.385 . S
C248 C249 1.389 . S
C249 C248 1.389 . S
C249 C250 1.387 . S
C250 H235 0.930 . S
C250 C245 1.390 . S
C250 C249 1.387 . S
H251 C263 0.930 1_545 S
H252 C265 0.930 . S
H253 C266 0.930 . S
H254 C270 0.959 . S
H255 C270 0.959 . S
H256 C270 0.961 . S
H257 C271 0.960 . S
H258 C271 0.961 . S
H259 C271 0.959 . S
H260 C274 0.929 . S
H261 C275 0.931 1_565 S
H262 C277 0.930 . S
C263 H251 0.930 1_565 S
C263 C264 1.399 . S
C263 C268 1.399 . S
C264 C263 1.399 . S
C264 C265 1.376 . S
C265 H252 0.930 . S
C265 C264 1.376 . S
C265 C266 1.388 . S
C266 H253 0.930 . S
C266 C265 1.388 . S
C266 C267 1.390 . S
C267 C266 1.390 . S
C267 C268 1.394 . S
C267 C273 1.465 . S
C268 C263 1.399 . S
C268 C267 1.394 . S
C268 C269 1.516 1_565 S
C269 C268 1.516 1_545 S
C269 C270 1.502 . S
C269 C271 1.561 1_545 S
C269 C272 1.526 . S
C270 H254 0.959 . S
C270 H255 0.959 . S
C270 H256 0.961 . S
C270 C269 1.502 . S
C271 H257 0.960 . S
C271 H258 0.961 . S
C271 H259 0.959 . S
C271 C269 1.561 1_565 S
C272 C269 1.526 . S
C272 C273 1.396 1_545 S
C272 C277 1.390 . S
C273 C267 1.465 . S
C273 C272 1.396 1_565 S
C273 C274 1.399 . S
C274 H260 0.929 . S
C274 C273 1.399 . S
C274 C275 1.385 1_565 S
C275 H261 0.931 1_545 S
C275 C274 1.385 1_545 S
C275 C276 1.389 . S
C276 C275 1.389 . S
C276 C277 1.387 . S
C277 H262 0.930 . S
C277 C272 1.390 . S
C277 C276 1.387 . S
H278 C290 0.930 . S
H279 C292 0.930 . S
H280 C293 0.930 . S
H281 C297 0.959 . S
H282 C297 0.959 . S
H283 C297 0.961 . S
H284 C298 0.960 . S
H285 C298 0.961 . S
H286 C298 0.959 . S
H287 C301 0.929 1_565 S
H288 C302 0.931 . S
H289 C304 0.930 . S
C290 H278 0.930 . S
C290 C291 1.399 . S
C290 C295 1.399 . S
C291 C290 1.399 . S
C291 C292 1.376 . S
C292 H279 0.930 . S
C292 C291 1.376 . S
C292 C293 1.388 . S
C293 H280 0.930 . S
C293 C292 1.388 . S
C293 C294 1.390 . S
C294 C293 1.390 . S
C294 C295 1.394 . S
C294 C300 1.465 1_565 S
C295 C290 1.399 . S
C295 C294 1.394 . S
C295 C296 1.516 1_565 S
C296 C295 1.516 1_545 S
C296 C297 1.502 . S
C296 C298 1.561 1_545 S
C296 C299 1.526 . S
C297 H281 0.959 . S
C297 H282 0.959 . S
C297 H283 0.961 . S
C297 C296 1.502 . S
C298 H284 0.960 . S
C298 H285 0.961 . S
C298 H286 0.959 . S
C298 C296 1.561 1_565 S
C299 C296 1.526 . S
C299 C300 1.396 . S
C299 C304 1.390 . S
C300 C294 1.465 1_545 S
C300 C299 1.396 . S
C300 C301 1.399 . S
C301 H287 0.929 1_545 S
C301 C300 1.399 . S
C301 C302 1.385 . S
C302 H288 0.931 . S
C302 C301 1.385 . S
C302 C303 1.389 . S
C303 C302 1.389 . S
C303 C304 1.387 . S
C304 H289 0.930 . S
C304 C299 1.390 . S
C304 C303 1.387 . S
H305 C317 0.930 1_545 S
H306 C319 0.930 . S
H307 C320 0.930 . S
H308 C324 0.959 . S
H309 C324 0.959 . S
H310 C324 0.961 . S
H311 C325 0.960 . S
H312 C325 0.961 . S
H313 C325 0.959 . S
H314 C328 0.929 . S
H315 C329 0.931 1_565 S
H316 C331 0.930 . S
C317 H305 0.930 1_565 S
C317 C318 1.399 . S
C317 C322 1.399 . S
C318 C317 1.399 . S
C318 C319 1.376 . S
C319 H306 0.930 . S
C319 C318 1.376 . S
C319 C320 1.388 . S
C320 H307 0.930 . S
C320 C319 1.388 . S
C320 C321 1.390 . S
C321 C320 1.390 . S
C321 C322 1.394 . S
C321 C327 1.465 . S
C322 C317 1.399 . S
C322 C321 1.394 . S
C322 C323 1.516 1_565 S
C323 C322 1.516 1_545 S
C323 C324 1.502 . S
C323 C325 1.561 . S
C323 C326 1.526 . S
C324 H308 0.959 . S
C324 H309 0.959 . S
C324 H310 0.961 . S
C324 C323 1.502 . S
C325 H311 0.960 . S
C325 H312 0.961 . S
C325 H313 0.959 . S
C325 C323 1.561 . S
C326 C323 1.526 . S
C326 C327 1.396 1_545 S
C326 C331 1.390 . S
C327 C321 1.465 . S
C327 C326 1.396 1_565 S
C327 C328 1.399 . S
C328 H314 0.929 . S
C328 C327 1.399 . S
C328 C329 1.385 1_565 S
C329 H315 0.931 1_545 S
C329 C328 1.385 1_545 S
C329 C330 1.389 . S
C330 C329 1.389 . S
C330 C331 1.387 . S
C331 H316 0.930 . S
C331 C326 1.390 . S
C331 C330 1.387 . S
H332 C344 0.930 . S
H333 C346 0.930 . S
H334 C347 0.930 . S
H335 C351 0.959 . S
H336 C351 0.959 . S
H337 C351 0.961 . S
H338 C352 0.960 . S
H339 C352 0.961 . S
H340 C352 0.959 . S
H341 C355 0.929 . S
H342 C356 0.931 . S
H343 C358 0.930 . S
C344 H332 0.930 . S
C344 C345 1.399 . S
C344 C349 1.399 . S
C345 C344 1.399 . S
C345 C346 1.376 . S
C346 H333 0.930 . S
C346 C345 1.376 . S
C346 C347 1.388 . S
C347 H334 0.930 . S
C347 C346 1.388 . S
C347 C348 1.390 . S
C348 C347 1.390 . S
C348 C349 1.394 . S
C348 C354 1.465 . S
C349 C344 1.399 . S
C349 C348 1.394 . S
C349 C350 1.516 . S
C350 C349 1.516 . S
C350 C351 1.502 . S
C350 C352 1.561 . S
C350 C353 1.526 . S
C351 H335 0.959 . S
C351 H336 0.959 . S
C351 H337 0.961 . S
C351 C350 1.502 . S
C352 H338 0.960 . S
C352 H339 0.961 . S
C352 H340 0.959 . S
C352 C350 1.561 . S
C353 C350 1.526 . S
C353 C354 1.396 . S
C353 C358 1.390 . S
C354 C348 1.465 . S
C354 C353 1.396 . S
C354 C355 1.399 . S
C355 H341 0.929 . S
C355 C354 1.399 . S
C355 C356 1.385 . S
C356 H342 0.931 . S
C356 C355 1.385 . S
C356 C357 1.389 . S
C357 C356 1.389 . S
C357 C358 1.387 . S
C358 H343 0.930 . S
C358 C353 1.390 . S
C358 C357 1.387 . S
H359 C371 0.930 . S
H360 C373 0.930 . S
H361 C374 0.930 . S
H362 C378 0.959 . S
H363 C378 0.959 . S
H364 C378 0.961 . S
H365 C379 0.960 . S
H366 C379 0.961 . S
H367 C379 0.959 . S
H368 C382 0.929 . S
H369 C383 0.931 . S
H370 C385 0.930 . S
C371 H359 0.930 . S
C371 C372 1.399 . S
C371 C376 1.399 . S
C372 C371 1.399 . S
C372 C373 1.376 . S
C373 H360 0.930 . S
C373 C372 1.376 . S
C373 C374 1.388 . S
C374 H361 0.930 . S
C374 C373 1.388 . S
C374 C375 1.390 . S
C375 C374 1.390 . S
C375 C376 1.394 . S
C375 C381 1.465 . S
C376 C371 1.399 . S
C376 C375 1.394 . S
C376 C377 1.516 . S
C377 C376 1.516 . S
C377 C378 1.502 . S
C377 C379 1.561 . S
C377 C380 1.526 . S
C378 H362 0.959 . S
C378 H363 0.959 . S
C378 H364 0.961 . S
C378 C377 1.502 . S
C379 H365 0.960 . S
C379 H366 0.961 . S
C379 H367 0.959 . S
C379 C377 1.561 . S
C380 C377 1.526 . S
C380 C381 1.396 . S
C380 C385 1.390 . S
C381 C375 1.465 . S
C381 C380 1.396 . S
C381 C382 1.399 . S
C382 H368 0.929 . S
C382 C381 1.399 . S
C382 C383 1.385 . S
C383 H369 0.931 . S
C383 C382 1.385 . S
C383 C384 1.389 . S
C384 C383 1.389 . S
C384 C385 1.387 . S
C385 H370 0.930 . S
C385 C380 1.390 . S
C385 C384 1.387 . S
H386 C398 0.930 . S
H387 C400 0.930 . S
H388 C401 0.930 . S
H389 C405 0.959 . S
H390 C405 0.959 . S
H391 C405 0.961 . S
H392 C406 0.960 . S
H393 C406 0.961 . S
H394 C406 0.959 . S
H395 C409 0.929 . S
H396 C410 0.931 . S
H397 C412 0.930 . S
C398 H386 0.930 . S
C398 C399 1.399 . S
C398 C403 1.399 . S
C399 C398 1.399 . S
C399 C400 1.376 . S
C400 H387 0.930 . S
C400 C399 1.376 . S
C400 C401 1.388 . S
C401 H388 0.930 . S
C401 C400 1.388 . S
C401 C402 1.390 . S
C402 C401 1.390 . S
C402 C403 1.394 . S
C402 C408 1.465 . S
C403 C398 1.399 . S
C403 C402 1.394 . S
C403 C404 1.516 . S
C404 C403 1.516 . S
C404 C405 1.502 . S
C404 C406 1.561 . S
C404 C407 1.526 . S
C405 H389 0.959 . S
C405 H390 0.959 . S
C405 H391 0.961 . S
C405 C404 1.502 . S
C406 H392 0.960 . S
C406 H393 0.961 . S
C406 H394 0.959 . S
C406 C404 1.561 . S
C407 C404 1.526 . S
C407 C408 1.396 . S
C407 C412 1.390 . S
C408 C402 1.465 . S
C408 C407 1.396 . S
C408 C409 1.399 . S
C409 H395 0.929 . S
C409 C408 1.399 . S
C409 C410 1.385 . S
C410 H396 0.931 . S
C410 C409 1.385 . S
C410 C411 1.389 . S
C411 C410 1.389 . S
C411 C412 1.387 . S
C412 H397 0.930 . S
C412 C407 1.390 . S
C412 C411 1.387 . S
H413 C425 0.930 . S
H414 C427 0.930 . S
H415 C428 0.930 . S
H416 C432 0.959 . S
H417 C432 0.959 . S
H418 C432 0.961 . S
H419 C433 0.960 . S
H420 C433 0.961 . S
H421 C433 0.959 . S
H422 C436 0.929 . S
H423 C437 0.931 . S
H424 C439 0.930 . S
C425 H413 0.930 . S
C425 C426 1.399 . S
C425 C430 1.399 . S
C426 C425 1.399 . S
C426 C427 1.376 . S
C427 H414 0.930 . S
C427 C426 1.376 . S
C427 C428 1.388 . S
C428 H415 0.930 . S
C428 C427 1.388 . S
C428 C429 1.390 . S
C429 C428 1.390 . S
C429 C430 1.394 . S
C429 C435 1.465 . S
C430 C425 1.399 . S
C430 C429 1.394 . S
C430 C431 1.516 . S
C431 C430 1.516 . S
C431 C432 1.502 . S
C431 C433 1.561 . S
C431 C434 1.526 . S
C432 H416 0.959 . S
C432 H417 0.959 . S
C432 H418 0.961 . S
C432 C431 1.502 . S
C433 H419 0.960 . S
C433 H420 0.961 . S
C433 H421 0.959 . S
C433 C431 1.561 . S
C434 C431 1.526 . S
C434 C435 1.396 . S
C434 C439 1.390 . S
C435 C429 1.465 . S
C435 C434 1.396 . S
C435 C436 1.399 . S
C436 H422 0.929 . S
C436 C435 1.399 . S
C436 C437 1.385 . S
C437 H423 0.931 . S
C437 C436 1.385 . S
C437 C438 1.389 . S
C438 C437 1.389 . S
C438 C439 1.387 . S
C439 H424 0.930 . S
C439 C434 1.390 . S
C439 C438 1.387 . S
H440 C452 0.950 . S
H441 C454 0.930 . S
H442 C455 0.930 . S
H443 C459 0.959 . S
H444 C459 0.959 . S
H445 C459 0.961 . S
H446 C460 0.960 . S
H447 C460 0.961 1_455 S
H448 C460 0.959 . S
H449 C463 0.929 . S
H450 C464 0.931 . S
H451 C466 0.937 . S
C452 H440 0.950 . S
C452 C453 1.382 1_565 S
C452 C457 1.395 1_565 S
C453 C452 1.382 1_545 S
C453 C454 1.376 . S
C454 H441 0.930 . S
C454 C453 1.376 . S
C454 C455 1.388 . S
C455 H442 0.930 . S
C455 C454 1.388 . S
C455 C456 1.390 . S
C456 C455 1.390 . S
C456 C457 1.394 . S
C456 C462 1.465 . S
C457 C452 1.395 1_545 S
C457 C456 1.394 . S
C457 C458 1.516 1_645 S
C458 C457 1.516 1_465 S
C458 C459 1.502 . S
C458 C460 1.561 1_455 S
C458 C461 1.526 1_565 S
C459 H443 0.959 . S
C459 H444 0.959 . S
C459 H445 0.961 . S
C459 C458 1.502 . S
C460 H446 0.960 . S
C460 H447 0.961 1_655 S
C460 H448 0.959 . S
C460 C458 1.561 1_655 S
C461 C458 1.526 1_545 S
C461 C462 1.396 1_455 S
C461 C466 1.388 1_545 S
C462 C456 1.465 . S
C462 C461 1.396 1_655 S
C462 C463 1.399 . S
C463 H449 0.929 . S
C463 C462 1.399 . S
C463 C464 1.385 1_655 S
C464 H450 0.931 . S
C464 C463 1.385 1_455 S
C464 C465 1.389 . S
C465 C464 1.389 . S
C465 C466 1.381 1_545 S
C466 H451 0.937 . S
C466 C461 1.388 1_565 S
C466 C465 1.381 1_565 S
H467 C479 0.930 . S
H468 C481 0.930 . S
H469 C482 0.930 . S
H470 C486 0.959 . S
H471 C486 0.959 . S
H472 C486 0.961 . S
H473 C487 0.960 . S
H474 C487 0.961 . S
H475 C487 0.959 . S
H476 C490 0.929 . S
H477 C491 0.931 . S
H478 C493 0.930 . S
C479 H467 0.930 . S
C479 C480 1.399 . S
C479 C484 1.399 . S
C480 C479 1.399 . S
C480 C481 1.376 1_565 S
C481 H468 0.930 . S
C481 C480 1.376 1_545 S
C481 C482 1.388 . S
C482 H469 0.930 . S
C482 C481 1.388 . S
C482 C483 1.390 1_545 S
C483 C482 1.390 1_565 S
C483 C484 1.394 . S
C483 C489 1.465 . S
C484 C479 1.399 . S
C484 C483 1.394 . S
C484 C485 1.516 . S
C485 C484 1.516 . S
C485 C486 1.502 . S
C485 C487 1.561 . S
C485 C488 1.526 . S
C486 H470 0.959 . S
C486 H471 0.959 . S
C486 H472 0.961 . S
C486 C485 1.502 . S
C487 H473 0.960 . S
C487 H474 0.961 . S
C487 H475 0.959 . S
C487 C485 1.561 . S
C488 C485 1.526 . S
C488 C489 1.396 . S
C488 C493 1.390 . S
C489 C483 1.465 . S
C489 C488 1.396 . S
C489 C490 1.399 1_565 S
C490 H476 0.929 . S
C490 C489 1.399 1_545 S
C490 C491 1.385 . S
C491 H477 0.931 . S
C491 C490 1.385 . S
C491 C492 1.389 1_545 S
C492 C491 1.389 1_565 S
C492 C493 1.387 . S
C493 H478 0.930 . S
C493 C488 1.390 . S
C493 C492 1.387 . S
H494 C506 0.930 1_655 S
H495 C508 0.930 1_545 S
H496 C509 0.930 1_545 S
H497 C513 0.959 . S
H498 C513 0.959 . S
H499 C513 0.961 . S
H500 C514 0.960 . S
H501 C514 0.961 1_655 S
H502 C514 0.959 . S
H503 C517 0.929 1_545 S
H504 C518 0.931 1_545 S
H505 C520 0.930 . S
C506 H494 0.930 1_455 S
C506 C507 1.399 . S
C506 C511 1.399 1_455 S
C507 C506 1.399 . S
C507 C508 1.376 . S
C508 H495 0.930 1_565 S
C508 C507 1.376 . S
C508 C509 1.388 . S
C509 H496 0.930 1_565 S
C509 C508 1.388 . S
C509 C510 1.390 . S
C510 C509 1.390 . S
C510 C511 1.394 1_455 S
C510 C516 1.465 . S
C511 C506 1.399 1_655 S
C511 C510 1.394 1_655 S
C511 C512 1.516 . S
C512 C511 1.516 . S
C512 C513 1.502 . S
C512 C514 1.561 1_655 S
C512 C515 1.526 . S
C513 H497 0.959 . S
C513 H498 0.959 . S
C513 H499 0.961 . S
C513 C512 1.502 . S
C514 H500 0.960 . S
C514 H501 0.961 1_455 S
C514 H502 0.959 . S
C514 C512 1.561 1_455 S
C515 C512 1.526 . S
C515 C516 1.396 1_655 S
C515 C520 1.390 . S
C516 C510 1.465 . S
C516 C515 1.396 1_455 S
C516 C517 1.399 . S
C517 H503 0.929 1_565 S
C517 C516 1.399 . S
C517 C518 1.385 . S
C518 H504 0.931 1_565 S
C518 C517 1.385 . S
C518 C519 1.389 1_455 S
C519 C518 1.389 1_655 S
C519 C520 1.387 . S
C520 H505 0.930 . S
C520 C515 1.390 . S
C520 C519 1.387 . S
H521 C533 0.930 . S
H522 C535 0.930 . S
H523 C536 0.930 . S
H524 C540 0.959 . S
H525 C540 0.959 1_565 S
H526 C540 0.961 1_565 S
H527 C541 0.960 . S
H528 C541 0.961 . S
H529 C541 0.959 . S
H530 C544 0.929 . S
H531 C545 0.931 . S
H532 C547 0.930 . S
C533 H521 0.930 . S
C533 C534 1.399 . S
C533 C538 1.399 . S
C534 C533 1.399 . S
C534 C535 1.376 . S
C535 H522 0.930 . S
C535 C534 1.376 . S
C535 C536 1.388 . S
C536 H523 0.930 . S
C536 C535 1.388 . S
C536 C537 1.390 . S
C537 C536 1.390 . S
C537 C538 1.394 . S
C537 C543 1.465 . S
C538 C533 1.399 . S
C538 C537 1.394 . S
C538 C539 1.516 . S
C539 C538 1.516 . S
C539 C540 1.502 . S
C539 C541 1.561 1_545 S
C539 C542 1.526 . S
C540 H524 0.959 . S
C540 H525 0.959 1_545 S
C540 H526 0.961 1_545 S
C540 C539 1.502 . S
C541 H527 0.960 . S
C541 H528 0.961 . S
C541 H529 0.959 . S
C541 C539 1.561 1_565 S
C542 C539 1.526 . S
C542 C543 1.396 . S
C542 C547 1.390 . S
C543 C537 1.465 . S
C543 C542 1.396 . S
C543 C544 1.399 . S
C544 H530 0.929 . S
C544 C543 1.399 . S
C544 C545 1.385 . S
C545 H531 0.931 . S
C545 C544 1.385 . S
C545 C546 1.389 . S
C546 C545 1.389 . S
C546 C547 1.387 . S
C547 H532 0.930 . S
C547 C542 1.390 . S
C547 C546 1.387 . S
H548 C560 0.930 . S
H549 C562 0.930 . S
H550 C563 0.930 . S
H551 C567 0.959 . S
H552 C567 0.959 . S
H553 C567 0.961 . S
H554 C568 0.960 . S
H555 C568 0.961 . S
H556 C568 0.959 . S
H557 C571 0.929 . S
H558 C572 0.931 . S
H559 C574 0.930 . S
C560 H548 0.930 . S
C560 C561 1.399 . S
C560 C565 1.399 . S
C561 C560 1.399 . S
C561 C562 1.376 . S
C562 H549 0.930 . S
C562 C561 1.376 . S
C562 C563 1.388 . S
C563 H550 0.930 . S
C563 C562 1.388 . S
C563 C564 1.390 . S
C564 C563 1.390 . S
C564 C565 1.394 . S
C564 C570 1.465 . S
C565 C560 1.399 . S
C565 C564 1.394 . S
C565 C566 1.516 . S
C566 C565 1.516 . S
C566 C567 1.502 . S
C566 C568 1.561 . S
C566 C569 1.526 . S
C567 H551 0.959 . S
C567 H552 0.959 . S
C567 H553 0.961 . S
C567 C566 1.502 . S
C568 H554 0.960 . S
C568 H555 0.961 . S
C568 H556 0.959 . S
C568 C566 1.561 . S
C569 C566 1.526 . S
C569 C570 1.396 . S
C569 C574 1.390 . S
C570 C564 1.465 . S
C570 C569 1.396 . S
C570 C571 1.399 . S
C571 H557 0.929 . S
C571 C570 1.399 . S
C571 C572 1.385 . S
C572 H558 0.931 . S
C572 C571 1.385 . S
C572 C573 1.389 . S
C573 C572 1.389 . S
C573 C574 1.387 . S
C574 H559 0.930 . S
C574 C569 1.390 . S
C574 C573 1.387 . S
H575 C587 0.930 . S
H576 C589 0.930 . S
H577 C590 0.930 . S
H578 C594 0.934 1_455 S
H579 C594 0.974 . S
H580 C594 0.959 1_455 S
H581 C595 0.960 . S
H582 C595 0.961 . S
H583 C595 0.959 . S
H584 C598 0.929 1_455 S
H585 C599 0.931 . S
H586 C601 0.930 . S
C587 H575 0.930 . S
C587 C588 1.399 . S
C587 C592 1.399 . S
C588 C587 1.399 . S
C588 C589 1.376 . S
C589 H576 0.930 . S
C589 C588 1.376 . S
C589 C590 1.388 . S
C590 H577 0.930 . S
C590 C589 1.388 . S
C590 C591 1.390 . S
C591 C590 1.390 . S
C591 C592 1.394 . S
C591 C597 1.465 1_455 S
C592 C587 1.399 . S
C592 C591 1.394 . S
C592 C593 1.516 1_455 S
C593 C592 1.516 1_655 S
C593 C594 1.514 . S
C593 C595 1.561 . S
C593 C596 1.526 . S
C594 H578 0.934 1_655 S
C594 H579 0.974 . S
C594 H580 0.959 1_655 S
C594 C593 1.514 . S
C595 H581 0.960 . S
C595 H582 0.961 . S
C595 H583 0.959 . S
C595 C593 1.561 . S
C596 C593 1.526 . S
C596 C597 1.396 . S
C596 C601 1.390 . S
C597 C591 1.465 1_655 S
C597 C596 1.396 . S
C597 C598 1.399 . S
C598 H584 0.929 1_655 S
C598 C597 1.399 . S
C598 C599 1.385 . S
C599 H585 0.931 . S
C599 C598 1.385 . S
C599 C600 1.389 . S
C600 C599 1.389 . S
C600 C601 1.387 . S
C601 H586 0.930 . S
C601 C596 1.390 . S
C601 C600 1.387 . S
H602 C614 0.930 . S
H603 C616 0.930 . S
H604 C617 0.930 . S
H605 C621 0.959 . S
H606 C621 0.959 . S
H607 C621 0.961 . S
H608 C622 0.960 . S
H609 C622 0.961 . S
H610 C622 0.959 . S
H611 C625 0.929 . S
H612 C626 0.931 . S
H613 C628 0.930 . S
C614 H602 0.930 . S
C614 C615 1.399 . S
C614 C619 1.399 . S
C615 C614 1.399 . S
C615 C616 1.376 . S
C616 H603 0.930 . S
C616 C615 1.376 . S
C616 C617 1.388 . S
C617 H604 0.930 . S
C617 C616 1.388 . S
C617 C618 1.390 . S
C618 C617 1.390 . S
C618 C619 1.394 . S
C618 C624 1.465 . S
C619 C614 1.399 . S
C619 C618 1.394 . S
C619 C620 1.516 . S
C620 C619 1.516 . S
C620 C621 1.502 . S
C620 C622 1.561 . S
C620 C623 1.526 . S
C621 H605 0.959 . S
C621 H606 0.959 . S
C621 H607 0.961 . S
C621 C620 1.502 . S
C622 H608 0.960 . S
C622 H609 0.961 . S
C622 H610 0.959 . S
C622 C620 1.561 . S
C623 C620 1.526 . S
C623 C624 1.396 . S
C623 C628 1.390 . S
C624 C618 1.465 . S
C624 C623 1.396 . S
C624 C625 1.399 . S
C625 H611 0.929 . S
C625 C624 1.399 . S
C625 C626 1.385 . S
C626 H612 0.931 . S
C626 C625 1.385 . S
C626 C627 1.389 . S
C627 C626 1.389 . S
C627 C628 1.387 . S
C628 H613 0.930 . S
C628 C623 1.390 . S
C628 C627 1.387 . S
H629 C641 0.930 . S
H630 C643 0.930 . S
H631 C644 0.930 . S
H632 C648 0.959 . S
H633 C648 0.959 . S
H634 C648 0.961 . S
H635 C649 0.960 . S
H636 C649 0.961 . S
H637 C649 0.959 1_455 S
H638 C652 0.929 . S
H639 C653 0.931 . S
H640 C655 0.930 . S
C641 H629 0.930 . S
C641 C642 1.399 1_655 S
C641 C646 1.399 . S
C642 C641 1.399 1_455 S
C642 C643 1.376 . S
C643 H630 0.930 . S
C643 C642 1.376 . S
C643 C644 1.388 . S
C644 H631 0.930 . S
C644 C643 1.388 . S
C644 C645 1.390 . S
C645 C644 1.390 . S
C645 C646 1.394 1_455 S
C645 C651 1.465 . S
C646 C641 1.399 . S
C646 C645 1.394 1_655 S
C646 C647 1.516 . S
C647 C646 1.516 . S
C647 C648 1.502 . S
C647 C649 1.561 . S
C647 C650 1.526 . S
C648 H632 0.959 . S
C648 H633 0.959 . S
C648 H634 0.961 . S
C648 C647 1.502 . S
C649 H635 0.960 . S
C649 H636 0.961 . S
C649 H637 0.959 1_655 S
C649 C647 1.561 . S
C650 C647 1.526 . S
C650 C651 1.396 1_655 S
C650 C655 1.390 . S
C651 C645 1.465 . S
C651 C650 1.396 1_455 S
C651 C652 1.399 . S
C652 H638 0.929 . S
C652 C651 1.399 . S
C652 C653 1.385 . S
C653 H639 0.931 . S
C653 C652 1.385 . S
C653 C654 1.389 1_455 S
C654 C653 1.389 1_655 S
C654 C655 1.387 . S
C655 H640 0.930 . S
C655 C650 1.390 . S
C655 C654 1.387 . S
H656 C668 0.930 . S
H657 C670 0.930 . S
H658 C671 0.930 . S
H659 C675 0.959 . S
H660 C675 0.959 . S
H661 C675 0.961 . S
H662 C676 0.960 . S
H663 C676 0.961 1_655 S
H664 C676 0.959 . S
H665 C679 0.929 . S
H666 C680 0.931 . S
H667 C682 0.930 . S
C668 H656 0.930 . S
C668 C669 1.399 . S
C668 C673 1.399 . S
C669 C668 1.399 . S
C669 C670 1.376 . S
C670 H657 0.930 . S
C670 C669 1.376 . S
C670 C671 1.388 . S
C671 H658 0.930 . S
C671 C670 1.388 . S
C671 C672 1.390 . S
C672 C671 1.390 . S
C672 C673 1.394 . S
C672 C678 1.465 . S
C673 C668 1.399 . S
C673 C672 1.394 . S
C673 C674 1.516 1_455 S
C674 C673 1.516 1_655 S
C674 C675 1.502 . S
C674 C676 1.561 1_655 S
C674 C677 1.526 . S
C675 H659 0.959 . S
C675 H660 0.959 . S
C675 H661 0.961 . S
C675 C674 1.502 . S
C676 H662 0.960 . S
C676 H663 0.961 1_455 S
C676 H664 0.959 . S
C676 C674 1.561 1_455 S
C677 C674 1.526 . S
C677 C678 1.396 1_655 S
C677 C682 1.390 . S
C678 C672 1.465 . S
C678 C677 1.396 1_455 S
C678 C679 1.399 . S
C679 H665 0.929 . S
C679 C678 1.399 . S
C679 C680 1.385 1_455 S
C680 H666 0.931 . S
C680 C679 1.385 1_655 S
C680 C681 1.389 . S
C681 C680 1.389 . S
C681 C682 1.387 . S
C682 H667 0.930 . S
C682 C677 1.390 . S
C682 C681 1.387 . S
H683 C695 0.930 . S
H684 C697 0.930 . S
H685 C698 0.930 . S
H686 C702 0.959 . S
H687 C702 0.959 . S
H688 C702 0.961 . S
H689 C703 0.960 . S
H690 C703 0.961 . S
H691 C703 0.959 . S
H692 C706 0.929 . S
H693 C707 0.931 . S
H694 C709 0.930 . S
C695 H683 0.930 . S
C695 C696 1.399 . S
C695 C700 1.399 . S
C696 C695 1.399 . S
C696 C697 1.376 . S
C697 H684 0.930 . S
C697 C696 1.376 . S
C697 C698 1.388 . S
C698 H685 0.930 . S
C698 C697 1.388 . S
C698 C699 1.390 . S
C699 C698 1.390 . S
C699 C700 1.394 . S
C699 C705 1.465 . S
C700 C695 1.399 . S
C700 C699 1.394 . S
C700 C701 1.516 . S
C701 C700 1.516 . S
C701 C702 1.502 . S
C701 C703 1.561 . S
C701 C704 1.526 . S
C702 H686 0.959 . S
C702 H687 0.959 . S
C702 H688 0.961 . S
C702 C701 1.502 . S
C703 H689 0.960 . S
C703 H690 0.961 . S
C703 H691 0.959 . S
C703 C701 1.561 . S
C704 C701 1.526 . S
C704 C705 1.396 . S
C704 C709 1.390 . S
C705 C699 1.465 . S
C705 C704 1.396 . S
C705 C706 1.399 . S
C706 H692 0.929 . S
C706 C705 1.399 . S
C706 C707 1.385 . S
C707 H693 0.931 . S
C707 C706 1.385 . S
C707 C708 1.389 . S
C708 C707 1.389 . S
C708 C709 1.387 . S
C709 H694 0.930 . S
C709 C704 1.390 . S
C709 C708 1.387 . S
H710 C722 0.930 . S
H711 C724 0.930 . S
H712 C725 0.930 . S
H713 C729 0.959 . S
H714 C729 0.959 . S
H715 C729 0.961 . S
H716 C730 0.960 . S
H717 C730 0.961 . S
H718 C730 0.959 . S
H719 C733 0.929 . S
H720 C734 0.931 . S
H721 C736 0.930 . S
C722 H710 0.930 . S
C722 C723 1.399 . S
C722 C727 1.399 . S
C723 C722 1.399 . S
C723 C724 1.376 . S
C724 H711 0.930 . S
C724 C723 1.376 . S
C724 C725 1.388 . S
C725 H712 0.930 . S
C725 C724 1.388 . S
C725 C726 1.390 . S
C726 C725 1.390 . S
C726 C727 1.394 . S
C726 C732 1.465 . S
C727 C722 1.399 . S
C727 C726 1.394 . S
C727 C728 1.516 . S
C728 C727 1.516 . S
C728 C729 1.502 . S
C728 C730 1.561 . S
C728 C731 1.526 . S
C729 H713 0.959 . S
C729 H714 0.959 . S
C729 H715 0.961 . S
C729 C728 1.502 . S
C730 H716 0.960 . S
C730 H717 0.961 . S
C730 H718 0.959 . S
C730 C728 1.561 . S
C731 C728 1.526 . S
C731 C732 1.396 . S
C731 C736 1.390 . S
C732 C726 1.465 . S
C732 C731 1.396 . S
C732 C733 1.399 . S
C733 H719 0.929 . S
C733 C732 1.399 . S
C733 C734 1.385 . S
C734 H720 0.931 . S
C734 C733 1.385 . S
C734 C735 1.389 . S
C735 C734 1.389 . S
C735 C736 1.387 . S
C736 H721 0.930 . S
C736 C731 1.390 . S
C736 C735 1.387 . S
H737 C749 0.930 . S
H738 C751 0.930 . S
H739 C752 0.930 . S
H740 C756 0.959 . S
H741 C756 0.959 . S
H742 C756 0.961 . S
H743 C757 0.960 . S
H744 C757 0.961 . S
H745 C757 0.959 . S
H746 C760 0.930 . S
H747 C761 0.931 . S
H748 C763 0.930 . S
C749 H737 0.930 . S
C749 C750 1.399 . S
C749 C754 1.399 . S
C750 C749 1.399 . S
C750 C751 1.376 . S
C751 H738 0.930 . S
C751 C750 1.376 . S
C751 C752 1.388 . S
C752 H739 0.930 . S
C752 C751 1.388 . S
C752 C753 1.390 . S
C753 C752 1.390 . S
C753 C754 1.394 . S
C753 C759 1.465 . S
C754 C749 1.399 . S
C754 C753 1.394 . S
C754 C755 1.516 1_455 S
C755 C754 1.516 1_655 S
C755 C756 1.502 . S
C755 C757 1.561 1_655 S
C755 C758 1.526 . S
C756 H740 0.959 . S
C756 H741 0.959 . S
C756 H742 0.961 . S
C756 C755 1.502 . S
C757 H743 0.960 . S
C757 H744 0.961 . S
C757 H745 0.959 . S
C757 C755 1.561 1_455 S
C758 C755 1.526 . S
C758 C759 1.396 1_655 S
C758 C763 1.390 . S
C759 C753 1.465 . S
C759 C758 1.396 1_455 S
C759 C760 1.399 . S
C760 H746 0.930 . S
C760 C759 1.399 . S
C760 C761 1.384 1_455 S
C761 H747 0.931 . S
C761 C760 1.384 1_655 S
C761 C762 1.389 . S
C762 C761 1.389 . S
C762 C763 1.387 . S
C763 H748 0.930 . S
C763 C758 1.390 . S
C763 C762 1.387 . S
H764 C776 0.930 . S
H765 C778 0.930 . S
H766 C779 0.930 . S
H767 C783 0.959 . S
H768 C783 0.959 . S
H769 C783 0.961 . S
H770 C784 0.960 . S
H771 C784 0.961 . S
H772 C784 0.959 . S
H773 C787 0.929 1_455 S
H774 C788 0.931 . S
H775 C790 0.930 . S
C776 H764 0.930 . S
C776 C777 1.399 . S
C776 C781 1.399 . S
C777 C776 1.399 . S
C777 C778 1.376 . S
C778 H765 0.930 . S
C778 C777 1.376 . S
C778 C779 1.388 . S
C779 H766 0.930 . S
C779 C778 1.388 . S
C779 C780 1.390 . S
C780 C779 1.390 . S
C780 C781 1.394 . S
C780 C786 1.450 1_455 S
C781 C776 1.399 . S
C781 C780 1.394 . S
C781 C782 1.516 1_455 S
C782 C781 1.516 1_655 S
C782 C783 1.502 . S
C782 C784 1.561 1_655 S
C782 C785 1.526 . S
C783 H767 0.959 . S
C783 H768 0.959 . S
C783 H769 0.961 . S
C783 C782 1.502 . S
C784 H770 0.960 . S
C784 H771 0.961 . S
C784 H772 0.959 . S
C784 C782 1.561 1_455 S
C785 C782 1.526 . S
C785 C786 1.410 . S
C785 C790 1.390 . S
C786 C780 1.450 1_655 S
C786 C785 1.410 . S
C786 C787 1.403 . S
C787 H773 0.929 1_655 S
C787 C786 1.403 . S
C787 C788 1.385 . S
C788 H774 0.931 . S
C788 C787 1.385 . S
C788 C789 1.389 . S
C789 C788 1.389 . S
C789 C790 1.387 . S
C790 H775 0.930 . S
C790 C785 1.390 . S
C790 C789 1.387 . S
H791 C803 0.930 . S
H792 C805 0.930 . S
H793 C806 0.930 . S
H794 C810 0.959 . S
H795 C810 0.959 . S
H796 C810 0.961 . S
H797 C811 0.960 . S
H798 C811 0.961 . S
H799 C811 0.959 . S
H800 C814 0.929 . S
H801 C815 0.931 . S
H802 C817 0.930 . S
C803 H791 0.930 . S
C803 C804 1.399 . S
C803 C808 1.399 . S
C804 C803 1.399 . S
C804 C805 1.376 . S
C805 H792 0.930 . S
C805 C804 1.376 . S
C805 C806 1.388 . S
C806 H793 0.930 . S
C806 C805 1.388 . S
C806 C807 1.390 . S
C807 C806 1.390 . S
C807 C808 1.394 . S
C807 C813 1.465 . S
C808 C803 1.399 . S
C808 C807 1.394 . S
C808 C809 1.516 . S
C809 C808 1.516 . S
C809 C810 1.502 . S
C809 C811 1.561 . S
C809 C812 1.526 . S
C810 H794 0.959 . S
C810 H795 0.959 . S
C810 H796 0.961 . S
C810 C809 1.502 . S
C811 H797 0.960 . S
C811 H798 0.961 . S
C811 H799 0.959 . S
C811 C809 1.561 . S
C812 C809 1.526 . S
C812 C813 1.396 . S
C812 C817 1.390 . S
C813 C807 1.465 . S
C813 C812 1.396 . S
C813 C814 1.399 . S
C814 H800 0.929 . S
C814 C813 1.399 . S
C814 C815 1.385 . S
C815 H801 0.931 . S
C815 C814 1.385 . S
C815 C816 1.389 . S
C816 C815 1.389 . S
C816 C817 1.387 . S
C817 H802 0.930 . S
C817 C812 1.390 . S
C817 C816 1.387 . S
H818 C830 0.930 . S
H819 C832 0.930 . S
H820 C833 0.930 . S
H821 C837 0.959 . S
H822 C837 0.959 . S
H823 C837 0.961 . S
H824 C838 0.960 . S
H825 C838 0.961 . S
H826 C838 0.959 . S
H827 C841 0.929 . S
H828 C842 0.931 . S
H829 C844 0.930 . S
C830 H818 0.930 . S
C830 C831 1.399 . S
C830 C835 1.399 . S
C831 C830 1.399 . S
C831 C832 1.376 . S
C832 H819 0.930 . S
C832 C831 1.376 . S
C832 C833 1.388 . S
C833 H820 0.930 . S
C833 C832 1.388 . S
C833 C834 1.390 . S
C834 C833 1.390 . S
C834 C835 1.394 . S
C834 C840 1.465 . S
C835 C830 1.399 . S
C835 C834 1.394 . S
C835 C836 1.516 . S
C836 C835 1.516 . S
C836 C837 1.502 . S
C836 C838 1.561 . S
C836 C839 1.526 . S
C837 H821 0.959 . S
C837 H822 0.959 . S
C837 H823 0.961 . S
C837 C836 1.502 . S
C838 H824 0.960 . S
C838 H825 0.961 . S
C838 H826 0.959 . S
C838 C836 1.561 . S
C839 C836 1.526 . S
C839 C840 1.396 . S
C839 C844 1.390 . S
C840 C834 1.465 . S
C840 C839 1.396 . S
C840 C841 1.399 . S
C841 H827 0.929 . S
C841 C840 1.399 . S
C841 C842 1.385 . S
C842 H828 0.931 . S
C842 C841 1.385 . S
C842 C843 1.389 . S
C843 C842 1.389 . S
C843 C844 1.387 . S
C844 H829 0.930 . S
C844 C839 1.390 . S
C844 C843 1.387 . S
H845 C857 0.930 . S
H846 C859 0.930 . S
H847 C860 0.930 . S
H848 C864 0.959 . S
H849 C864 0.959 . S
H850 C864 0.961 . S
H851 C865 0.960 . S
H852 C865 0.961 . S
H853 C865 0.959 . S
H854 C868 0.929 1_455 S
H855 C869 0.931 . S
H856 C871 0.930 . S
C857 H845 0.930 . S
C857 C858 1.399 . S
C857 C862 1.399 . S
C858 C857 1.399 . S
C858 C859 1.376 . S
C859 H846 0.930 . S
C859 C858 1.376 . S
C859 C860 1.388 . S
C860 H847 0.930 . S
C860 C859 1.388 . S
C860 C861 1.390 . S
C861 C860 1.390 . S
C861 C862 1.394 . S
C861 C867 1.452 1_455 S
C862 C857 1.399 . S
C862 C861 1.394 . S
C862 C863 1.516 1_455 S
C863 C862 1.516 1_655 S
C863 C864 1.502 . S
C863 C865 1.561 1_655 S
C863 C866 1.526 . S
C864 H848 0.959 . S
C864 H849 0.959 . S
C864 H850 0.961 . S
C864 C863 1.502 . S
C865 H851 0.960 . S
C865 H852 0.961 . S
C865 H853 0.959 . S
C865 C863 1.561 1_455 S
C866 C863 1.526 . S
C866 C867 1.408 . S
C866 C871 1.390 . S
C867 C861 1.452 1_655 S
C867 C866 1.408 . S
C867 C868 1.402 . S
C868 H854 0.929 1_655 S
C868 C867 1.402 . S
C868 C869 1.385 . S
C869 H855 0.931 . S
C869 C868 1.385 . S
C869 C870 1.389 . S
C870 C869 1.389 . S
C870 C871 1.387 . S
C871 H856 0.930 . S
C871 C866 1.390 . S
C871 C870 1.387 . S
H872 C884 0.930 1_445 S
H873 C886 0.930 . S
H874 C887 0.930 . S
H875 C891 0.959 . S
H876 C891 0.959 1_554 S
H877 C891 0.961 . S
H878 C892 0.960 1_556 S
H879 C892 0.961 . S
H880 C892 0.959 . S
H881 C895 0.929 . S
H882 C896 0.929 1_655 S
H883 C898 0.930 . S
C884 H872 0.930 1_665 S
C884 C885 1.399 . S
C884 C889 1.399 . S
C885 C884 1.399 . S
C885 C886 1.376 . S
C886 H873 0.930 . S
C886 C885 1.376 . S
C886 C887 1.388 . S
C887 H874 0.930 . S
C887 C886 1.388 . S
C887 C888 1.381 1_556 S
C888 C887 1.381 1_554 S
C888 C889 1.385 1_554 S
C888 C894 1.483 . S
C889 C884 1.399 . S
C889 C888 1.385 1_556 S
C889 C890 1.516 1_666 S
C890 C889 1.516 1_444 S
C890 C891 1.502 1_554 S
C890 C892 1.561 1_455 S
C890 C893 1.526 . S
C891 H875 0.959 . S
C891 H876 0.959 1_556 S
C891 H877 0.961 . S
C891 C890 1.502 1_556 S
C892 H878 0.960 1_554 S
C892 H879 0.961 . S
C892 H880 0.959 . S
C892 C890 1.561 1_655 S
C893 C890 1.526 . S
C893 C894 1.396 1_445 S
C893 C898 1.390 . S
C894 C888 1.483 . S
C894 C893 1.396 1_665 S
C894 C895 1.399 . S
C895 H881 0.929 . S
C895 C894 1.399 . S
C895 C896 1.379 1_655 S
C896 H882 0.929 1_455 S
C896 C895 1.379 1_455 S
C896 C897 1.398 . S
C897 C896 1.398 . S
C897 C898 1.387 1_565 S
C898 H883 0.930 . S
C898 C893 1.390 . S
C898 C897 1.387 1_545 S
H899 C911 0.930 . S
H900 C913 0.930 . S
H901 C914 0.930 . S
H902 C918 0.959 . S
H903 C918 0.959 . S
H904 C918 0.961 . S
H905 C919 0.990 . S
H906 C919 0.961 . S
H907 C919 0.959 . S
H908 C922 0.929 . S
H909 C923 0.931 . S
H910 C925 0.930 . S
C911 H899 0.930 . S
C911 C912 1.399 . S
C911 C916 1.399 . S
C912 C911 1.399 . S
C912 C913 1.376 1_545 S
C913 H900 0.930 . S
C913 C912 1.376 1_565 S
C913 C914 1.388 . S
C914 H901 0.930 . S
C914 C913 1.388 . S
C914 C915 1.390 1_565 S
C915 C914 1.390 1_545 S
C915 C916 1.394 . S
C915 C921 1.465 1_546 S
C916 C911 1.399 . S
C916 C915 1.394 . S
C916 C917 1.516 1_556 S
C917 C916 1.516 1_554 S
C917 C918 1.502 . S
C917 C919 1.561 . S
C917 C920 1.526 . S
C918 H902 0.959 . S
C918 H903 0.959 . S
C918 H904 0.961 . S
C918 C917 1.502 . S
C919 H905 0.990 . S
C919 H906 0.961 . S
C919 H907 0.959 . S
C919 C917 1.561 . S
C920 C917 1.526 . S
C920 C921 1.396 1_545 S
C920 C925 1.390 . S
C921 C915 1.465 1_564 S
C921 C920 1.396 1_565 S
C921 C922 1.399 . S
C922 H908 0.929 . S
C922 C921 1.399 . S
C922 C923 1.385 . S
C923 H909 0.931 . S
C923 C922 1.385 . S
C923 C924 1.392 1_565 S
C924 C923 1.392 1_545 S
C924 C925 1.384 . S
C925 H910 0.930 . S
C925 C920 1.390 . S
C925 C924 1.384 . S
H926 C938 0.930 1_565 S
H927 C940 0.930 . S
H928 C941 0.930 . S
H929 C945 0.959 . S
H930 C945 0.959 . S
H931 C945 0.961 . S
H932 C946 0.960 . S
H933 C946 0.961 . S
H934 C946 0.959 . S
H935 C949 0.929 . S
H936 C950 0.931 . S
H937 C952 0.930 . S
C938 H926 0.930 1_545 S
C938 C939 1.399 . S
C938 C943 1.399 . S
C939 C938 1.399 . S
C939 C940 1.376 . S
C940 H927 0.930 . S
C940 C939 1.376 . S
C940 C941 1.388 . S
C941 H928 0.930 . S
C941 C940 1.388 . S
C941 C942 1.390 . S
C942 C941 1.390 . S
C942 C943 1.394 . S
C942 C948 1.465 . S
C943 C938 1.399 . S
C943 C942 1.394 . S
C943 C944 1.516 1_545 S
C944 C943 1.516 1_565 S
C944 C945 1.502 . S
C944 C946 1.561 . S
C944 C947 1.526 . S
C945 H929 0.959 . S
C945 H930 0.959 . S
C945 H931 0.961 . S
C945 C944 1.502 . S
C946 H932 0.960 . S
C946 H933 0.961 . S
C946 H934 0.959 . S
C946 C944 1.561 . S
C947 C944 1.526 . S
C947 C948 1.396 1_565 S
C947 C952 1.390 . S
C948 C942 1.465 . S
C948 C947 1.396 1_545 S
C948 C949 1.399 . S
C949 H935 0.929 . S
C949 C948 1.399 . S
C949 C950 1.385 . S
C950 H936 0.931 . S
C950 C949 1.385 . S
C950 C951 1.389 . S
C951 C950 1.389 . S
C951 C952 1.387 1_545 S
C952 H937 0.930 . S
C952 C947 1.390 . S
C952 C951 1.387 1_565 S
H953 C965 0.930 . S
H954 C967 0.932 . S
H955 C968 0.930 . S
H956 C972 0.959 . S
H957 C972 0.959 . S
H958 C972 0.961 . S
H959 C973 0.960 . S
H960 C973 0.961 . S
H961 C973 0.959 . S
H962 C976 0.929 . S
H963 C977 0.931 . S
H964 C979 0.930 . S
C965 H953 0.930 . S
C965 C966 1.399 . S
C965 C970 1.399 . S
C966 C965 1.399 . S
C966 C967 1.376 1_565 S
C967 H954 0.932 . S
C967 C966 1.376 1_545 S
C967 C968 1.388 1_455 S
C968 H955 0.930 . S
C968 C967 1.388 1_655 S
C968 C969 1.390 1_545 S
C969 C968 1.390 1_565 S
C969 C970 1.394 1_655 S
C969 C975 1.465 1_565 S
C970 C965 1.399 . S
C970 C969 1.394 1_455 S
C970 C971 1.516 . S
C971 C970 1.516 . S
C971 C972 1.502 . S
C971 C973 1.561 1_455 S
C971 C974 1.526 1_455 S
C972 H956 0.959 . S
C972 H957 0.959 . S
C972 H958 0.961 . S
C972 C971 1.502 . S
C973 H959 0.960 . S
C973 H960 0.961 . S
C973 H961 0.959 . S
C973 C971 1.561 1_655 S
C974 C971 1.526 1_655 S
C974 C975 1.396 1_565 S
C974 C979 1.390 . S
C975 C969 1.465 1_545 S
C975 C974 1.396 1_545 S
C975 C976 1.399 . S
C976 H962 0.929 . S
C976 C975 1.399 . S
C976 C977 1.385 . S
C977 H963 0.931 . S
C977 C976 1.385 . S
C977 C978 1.391 1_545 S
C978 C977 1.391 1_565 S
C978 C979 1.385 . S
C979 H964 0.930 . S
C979 C974 1.390 . S
C979 C978 1.385 . S
H980 C992 0.930 . S
H981 C994 0.930 . S
H982 C995 0.930 . S
H983 C999 0.959 . S
H984 C999 0.959 1_556 S
H985 C999 0.961 . S
H986 C1000 0.960 . S
H987 C1000 0.961 . S
H988 C1000 0.959 . S
H989 C1003 0.929 . S
H990 C1004 0.931 . S
H991 C1006 0.930 . S
C992 H980 0.930 . S
C992 C993 1.399 . S
C992 C997 1.399 . S
C993 C992 1.399 . S
C993 C994 1.376 . S
C994 H981 0.930 . S
C994 C993 1.376 . S
C994 C995 1.388 . S
C995 H982 0.930 . S
C995 C994 1.388 . S
C995 C996 1.390 . S
C996 C995 1.390 . S
C996 C997 1.394 . S
C996 C1002 1.465 1_554 S
C997 C992 1.399 . S
C997 C996 1.394 . S
C997 C998 1.516 . S
C998 C997 1.516 . S
C998 C999 1.502 . S
C998 C1000 1.561 . S
C998 C1001 1.526 1_554 S
C999 H983 0.959 . S
C999 H984 0.959 1_554 S
C999 H985 0.961 . S
C999 C998 1.502 . S
C1000 H986 0.960 . S
C1000 H987 0.961 . S
C1000 H988 0.959 . S
C1000 C998 1.561 . S
C1001 C998 1.526 1_556 S
C1001 C1002 1.396 . S
C1001 C1006 1.390 . S
C1002 C996 1.465 1_556 S
C1002 C1001 1.396 . S
C1002 C1003 1.399 . S
C1003 H989 0.929 . S
C1003 C1002 1.399 . S
C1003 C1004 1.385 . S
C1004 H990 0.931 . S
C1004 C1003 1.385 . S
C1004 C1005 1.389 . S
C1005 C1004 1.389 . S
C1005 C1006 1.387 . S
C1006 H991 0.930 . S
C1006 C1001 1.390 . S
C1006 C1005 1.387 . S
H1007 C1019 0.930 . S
H1008 C1021 0.930 . S
H1009 C1022 0.930 . S
H1010 C1026 0.959 . S
H1011 C1026 0.959 1_556 S
H1012 C1026 0.961 . S
H1013 C1027 0.960 1_655 S
H1014 C1027 0.961 1_655 S
H1015 C1027 0.959 . S
H1016 C1030 0.929 . S
H1017 C1031 0.931 . S
H1018 C1033 0.930 1_655 S
C1019 H1007 0.930 . S
C1019 C1020 1.399 . S
C1019 C1024 1.399 . S
C1020 C1019 1.399 . S
C1020 C1021 1.376 1_655 S
C1021 H1008 0.930 . S
C1021 C1020 1.376 1_455 S
C1021 C1022 1.388 . S
C1022 H1009 0.930 . S
C1022 C1021 1.388 . S
C1022 C1023 1.390 . S
C1023 C1022 1.390 . S
C1023 C1024 1.394 1_455 S
C1023 C1029 1.465 1_554 S
C1024 C1019 1.399 . S
C1024 C1023 1.394 1_655 S
C1024 C1025 1.516 . S
C1025 C1024 1.516 . S
C1025 C1026 1.502 . S
C1025 C1027 1.561 1_655 S
C1025 C1028 1.526 1_654 S
C1026 H1010 0.959 . S
C1026 H1011 0.959 1_554 S
C1026 H1012 0.961 . S
C1026 C1025 1.502 . S
C1027 H1013 0.960 1_455 S
C1027 H1014 0.961 1_455 S
C1027 H1015 0.959 . S
C1027 C1025 1.561 1_455 S
C1028 C1025 1.526 1_456 S
C1028 C1029 1.396 . S
C1028 C1033 1.389 . S
C1029 C1023 1.465 1_556 S
C1029 C1028 1.396 . S
C1029 C1030 1.399 . S
C1030 H1016 0.929 . S
C1030 C1029 1.399 . S
C1030 C1031 1.385 . S
C1031 H1017 0.931 . S
C1031 C1030 1.385 . S
C1031 C1032 1.389 . S
C1032 C1031 1.389 . S
C1032 C1033 1.387 . S
C1033 H1018 0.930 1_455 S
C1033 C1028 1.389 . S
C1033 C1032 1.387 . S
H1034 C1046 0.930 . S
H1035 C1048 0.930 . S
H1036 C1049 0.930 . S
H1037 C1053 0.959 . S
H1038 C1053 0.959 . S
H1039 C1053 0.961 . S
H1040 C1054 0.960 . S
H1041 C1054 0.961 . S
H1042 C1054 0.959 . S
H1043 C1057 0.929 . S
H1044 C1058 0.931 . S
H1045 C1060 0.930 . S
C1046 H1034 0.930 . S
C1046 C1047 1.399 . S
C1046 C1051 1.399 . S
C1047 C1046 1.399 . S
C1047 C1048 1.376 . S
C1048 H1035 0.930 . S
C1048 C1047 1.376 . S
C1048 C1049 1.388 . S
C1049 H1036 0.930 . S
C1049 C1048 1.388 . S
C1049 C1050 1.390 . S
C1050 C1049 1.390 . S
C1050 C1051 1.394 . S
C1050 C1056 1.465 1_655 S
C1051 C1046 1.399 . S
C1051 C1050 1.394 . S
C1051 C1052 1.516 1_655 S
C1052 C1051 1.516 1_455 S
C1052 C1053 1.502 1_455 S
C1052 C1054 1.561 . S
C1052 C1055 1.526 . S
C1053 H1037 0.959 . S
C1053 H1038 0.959 . S
C1053 H1039 0.961 . S
C1053 C1052 1.502 1_655 S
C1054 H1040 0.960 . S
C1054 H1041 0.961 . S
C1054 H1042 0.959 . S
C1054 C1052 1.561 . S
C1055 C1052 1.526 . S
C1055 C1056 1.396 . S
C1055 C1060 1.390 . S
C1056 C1050 1.465 1_455 S
C1056 C1055 1.396 . S
C1056 C1057 1.399 . S
C1057 H1043 0.929 . S
C1057 C1056 1.399 . S
C1057 C1058 1.385 . S
C1058 H1044 0.931 . S
C1058 C1057 1.385 . S
C1058 C1059 1.389 . S
C1059 C1058 1.389 . S
C1059 C1060 1.387 . S
C1060 H1045 0.930 . S
C1060 C1055 1.390 . S
C1060 C1059 1.387 . S
H1061 C1073 0.930 . S
H1062 C1075 0.930 . S
H1063 C1076 0.930 . S
H1064 C1080 0.959 . S
H1065 C1080 0.959 . S
H1066 C1080 0.961 . S
H1067 C1081 0.960 . S
H1068 C1081 0.961 . S
H1069 C1081 0.959 . S
H1070 C1084 0.929 . S
H1071 C1085 0.931 . S
H1072 C1087 0.930 . S
C1073 H1061 0.930 . S
C1073 C1074 1.399 . S
C1073 C1078 1.399 . S
C1074 C1073 1.399 . S
C1074 C1075 1.376 . S
C1075 H1062 0.930 . S
C1075 C1074 1.376 . S
C1075 C1076 1.388 . S
C1076 H1063 0.930 . S
C1076 C1075 1.388 . S
C1076 C1077 1.390 . S
C1077 C1076 1.390 . S
C1077 C1078 1.394 . S
C1077 C1083 1.465 . S
C1078 C1073 1.399 . S
C1078 C1077 1.394 . S
C1078 C1079 1.516 . S
C1079 C1078 1.516 . S
C1079 C1080 1.502 . S
C1079 C1081 1.561 . S
C1079 C1082 1.526 . S
C1080 H1064 0.959 . S
C1080 H1065 0.959 . S
C1080 H1066 0.961 . S
C1080 C1079 1.502 . S
C1081 H1067 0.960 . S
C1081 H1068 0.961 . S
C1081 H1069 0.959 . S
C1081 C1079 1.561 . S
C1082 C1079 1.526 . S
C1082 C1083 1.396 . S
C1082 C1087 1.390 . S
C1083 C1077 1.465 . S
C1083 C1082 1.396 . S
C1083 C1084 1.399 . S
C1084 H1070 0.929 . S
C1084 C1083 1.399 . S
C1084 C1085 1.385 . S
C1085 H1071 0.931 . S
C1085 C1084 1.385 . S
C1085 C1086 1.389 . S
C1086 C1085 1.389 . S
C1086 C1087 1.387 . S
C1087 H1072 0.930 . S
C1087 C1082 1.390 . S
C1087 C1086 1.387 . S
C237 C26 1.474 . S
C249 C12 1.470 . S
C264 C40 1.477 . S
C276 C54 1.482 . S
C291 C67 1.534 . S
C303 C81 1.523 . S
C318 C109 1.551 . S
C330 C95 1.529 . S
C345 C138 1.477 . S
C357 C124 1.470 . S
C372 C166 1.476 . S
C384 C152 1.482 . S
C399 C193 1.529 . S
C411 C179 1.524 . S
C426 C221 1.552 . S
C438 C207 1.566 . S
C453 C46 0.993 . S
C465 C4 1.027 . S
C480 C18 1.015 . S
C492 C32 0.980 . S
C507 C103 1.020 . S
C519 C61 1.043 . S
C534 C89 1.150 . S
C546 C75 1.127 . S
C561 C116 1.002 . S
C573 C158 1.022 . S
C588 C144 0.994 . S
C600 C130 0.997 . S
C615 C215 1.159 . S
C627 C173 1.140 . S
C642 C187 1.029 . S
C654 C201 1.055 . S
C669 C5 1.210 . S
C681 C131 1.242 . S
C696 C19 1.325 . S
C708 C117 1.288 . S
C723 C159 1.213 . S
C735 C33 1.201 . S
C750 C145 1.203 . S
C762 C47 1.230 . S
C777 C186 1.646 . S
C789 C60 1.641 . S
C804 C172 1.645 . S
C816 C74 1.640 . S
C831 C88 1.643 . S
C843 C214 1.637 . S
C858 C102 1.646 . S
C870 C200 1.640 . S
C885 C68 1.084 . S
C897 C11 1.146 1_565 S
C912 C82 1.157 . S
C924 C25 1.109 1_545 S
C939 C96 1.084 . S
C951 C39 1.148 1_545 S
C966 C110 1.157 . S
C978 C53 1.108 1_565 S
C993 C123 1.141 . S
C1005 C180 1.137 . S
C1020 C137 1.149 . S
C1032 C194 1.126 . S
C1047 C208 1.155 . S
C1059 C151 1.118 . S
C1074 C222 1.156 . S
C1086 C165 1.101 . S
