# Generated by pormake.
# Topology wkf, (6)-cn, num edge types: 1
# Building blocks:
#     Node 0, Type 0, BuildingBlock: CUKXOW_clean_sbu_0, # of connection points: 6
#     Node 1, Type 0, BuildingBlock: CUKXOW_clean_sbu_0, # of connection points: 6
#     Node 2, Type 0, BuildingBlock: CUKXOW_clean_sbu_0, # of connection points: 6
#     Node 3, Type 0, BuildingBlock: CUKXOW_clean_sbu_0, # of connection points: 6
#     Node 4, Type 0, BuildingBlock: CUKXOW_clean_sbu_0, # of connection points: 6
#     Node 5, Type 0, BuildingBlock: CUKXOW_clean_sbu_0, # of connection points: 6
#     Node 6, Type 0, BuildingBlock: CUKXOW_clean_sbu_0, # of connection points: 6
#     Node 7, Type 0, BuildingBlock: CUKXOW_clean_sbu_0, # of connection points: 6
#     Node 8, Type 0, BuildingBlock: CUKXOW_clean_sbu_0, # of connection points: 6
#     Node 9, Type 0, BuildingBlock: CUKXOW_clean_sbu_0, # of connection points: 6
#     Node 10, Type 0, BuildingBlock: CUKXOW_clean_sbu_0, # of connection points: 6
#     Node 11, Type 0, BuildingBlock: CUKXOW_clean_sbu_0, # of connection points: 6
#     Edge 12, Type (0, 0), BuildingBlock: KIFKEQ_clean_linker_1, # of connection points: 2
#     Edge 13, Type (0, 0), BuildingBlock: KIFKEQ_clean_linker_1, # of connection points: 2
#     Edge 14, Type (0, 0), BuildingBlock: KIFKEQ_clean_linker_1, # of connection points: 2
#     Edge 15, Type (0, 0), BuildingBlock: KIFKEQ_clean_linker_1, # of connection points: 2
#     Edge 16, Type (0, 0), BuildingBlock: KIFKEQ_clean_linker_1, # of connection points: 2
#     Edge 17, Type (0, 0), BuildingBlock: KIFKEQ_clean_linker_1, # of connection points: 2
#     Edge 18, Type (0, 0), BuildingBlock: KIFKEQ_clean_linker_1, # of connection points: 2
#     Edge 19, Type (0, 0), BuildingBlock: KIFKEQ_clean_linker_1, # of connection points: 2
#     Edge 20, Type (0, 0), BuildingBlock: KIFKEQ_clean_linker_1, # of connection points: 2
#     Edge 21, Type (0, 0), BuildingBlock: KIFKEQ_clean_linker_1, # of connection points: 2
#     Edge 22, Type (0, 0), BuildingBlock: KIFKEQ_clean_linker_1, # of connection points: 2
#     Edge 23, Type (0, 0), BuildingBlock: KIFKEQ_clean_linker_1, # of connection points: 2
#     Edge 24, Type (0, 0), BuildingBlock: KIFKEQ_clean_linker_1, # of connection points: 2
#     Edge 25, Type (0, 0), BuildingBlock: KIFKEQ_clean_linker_1, # of connection points: 2
#     Edge 26, Type (0, 0), BuildingBlock: KIFKEQ_clean_linker_1, # of connection points: 2
#     Edge 27, Type (0, 0), BuildingBlock: KIFKEQ_clean_linker_1, # of connection points: 2
#     Edge 28, Type (0, 0), BuildingBlock: KIFKEQ_clean_linker_1, # of connection points: 2
#     Edge 29, Type (0, 0), BuildingBlock: KIFKEQ_clean_linker_1, # of connection points: 2
#     Edge 30, Type (0, 0), BuildingBlock: KIFKEQ_clean_linker_1, # of connection points: 2
#     Edge 31, Type (0, 0), BuildingBlock: KIFKEQ_clean_linker_1, # of connection points: 2
#     Edge 32, Type (0, 0), BuildingBlock: KIFKEQ_clean_linker_1, # of connection points: 2
#     Edge 33, Type (0, 0), BuildingBlock: KIFKEQ_clean_linker_1, # of connection points: 2
#     Edge 34, Type (0, 0), BuildingBlock: KIFKEQ_clean_linker_1, # of connection points: 2
#     Edge 35, Type (0, 0), BuildingBlock: KIFKEQ_clean_linker_1, # of connection points: 2
#     Edge 36, Type (0, 0), BuildingBlock: KIFKEQ_clean_linker_1, # of connection points: 2
#     Edge 37, Type (0, 0), BuildingBlock: KIFKEQ_clean_linker_1, # of connection points: 2
#     Edge 38, Type (0, 0), BuildingBlock: KIFKEQ_clean_linker_1, # of connection points: 2
#     Edge 39, Type (0, 0), BuildingBlock: KIFKEQ_clean_linker_1, # of connection points: 2
#     Edge 40, Type (0, 0), BuildingBlock: KIFKEQ_clean_linker_1, # of connection points: 2
#     Edge 41, Type (0, 0), BuildingBlock: KIFKEQ_clean_linker_1, # of connection points: 2
#     Edge 42, Type (0, 0), BuildingBlock: KIFKEQ_clean_linker_1, # of connection points: 2
#     Edge 43, Type (0, 0), BuildingBlock: KIFKEQ_clean_linker_1, # of connection points: 2
#     Edge 44, Type (0, 0), BuildingBlock: KIFKEQ_clean_linker_1, # of connection points: 2
#     Edge 45, Type (0, 0), BuildingBlock: KIFKEQ_clean_linker_1, # of connection points: 2
#     Edge 46, Type (0, 0), BuildingBlock: KIFKEQ_clean_linker_1, # of connection points: 2
#     Edge 47, Type (0, 0), BuildingBlock: KIFKEQ_clean_linker_1, # of connection points: 2
# Relax obj value: 0.112
# Max RMSD: 0.281
# Mean RMSD: 0.281
data_MOF--net-wkf--node1-CUKXOW_clean_sbu_0--edge1-KIFKEQ_clean_linker_1
_symmetry_space_group_name_H-M    P1
_symmetry_Int_Tables_number       1
_symmetry_cell_setting            triclinic
loop_
_symmetry_equiv_pos_as_xyz
'x, y, z'
_cell_length_a     27.065718
_cell_length_b     27.083248
_cell_length_c     79.061548
_cell_angle_alpha  90.034868
_cell_angle_beta   89.959237
_cell_angle_gamma 120.01811
loop_
_atom_site_label
_atom_site_type_symbol
_atom_site_fract_x
_atom_site_fract_y
_atom_site_fract_z
_atom_type_partial_charge
Tb0 Tb 0.35272 0.17178 0.3982 0.0
C1 C 0.33943 0.04923 0.40451 0.0
Tb2 Tb 0.4261 0.13783 0.378 0.0
O3 O 0.29405 0.15349 0.37657 0.0
O4 O 0.3391 0.11057 0.37981 0.0
O5 O 0.33105 0.09039 0.41041 0.0
C6 C 0.47822 0.09937 0.35745 0.0
O7 O 0.37115 0.05685 0.39088 0.0
C8 C 0.47458 0.19669 0.40589 0.0
C9 C 0.42651 0.25332 0.36914 0.0
O10 O 0.50002 0.1301 0.37087 0.0
O11 O 0.4278 0.09268 0.35506 0.0
O12 O 0.47761 0.15297 0.40057 0.0
O13 O 0.44226 0.20337 0.39583 0.0
O14 O 0.43784 0.21327 0.36362 0.0
O15 O 0.40061 0.24925 0.38377 0.0
C16 C 0.3153 0.20058 0.4257 0.0
O17 O 0.29401 0.19486 0.41059 0.0
O18 O 0.35773 0.19112 0.42512 0.0
C19 C 0.30794 0.11834 0.36974 0.0
Tb20 Tb 0.19826 0.34598 0.56596 0.0
C21 C 0.30456 0.32685 0.57072 0.0
Tb22 Tb 0.30757 0.42033 0.54607 0.0
O23 O 0.15723 0.29106 0.54356 0.0
O24 O 0.24508 0.33406 0.54692 0.0
O25 O 0.25643 0.32039 0.57726 0.0
C26 C 0.39934 0.47156 0.52594 0.0
O27 O 0.32846 0.35911 0.55719 0.0
C28 C 0.29766 0.46548 0.57488 0.0
C29 C 0.19688 0.43093 0.53918 0.0
O30 O 0.39602 0.48578 0.54135 0.0
O31 O 0.34965 0.42986 0.52144 0.0
O32 O 0.34464 0.47065 0.56892 0.0
O33 O 0.25905 0.43454 0.5646 0.0
O34 O 0.24626 0.43885 0.53284 0.0
O35 O 0.17475 0.40263 0.55351 0.0
C36 C 0.13205 0.30674 0.59345 0.0
O37 O 0.11482 0.29022 0.57801 0.0
O38 O 0.18567 0.34533 0.5932 0.0
C39 C 0.2062 0.30525 0.53657 0.0
Tb40 Tb 0.86365 0.19503 0.73262 0.0
C41 C 0.98773 0.30277 0.73836 0.0
Tb42 Tb 0.89907 0.3024 0.71212 0.0
O43 O 0.87864 0.15307 0.71069 0.0
O44 O 0.92412 0.241 0.71388 0.0
O45 O 0.94611 0.25383 0.74445 0.0
C46 C 0.93859 0.39178 0.69112 0.0
O47 O 0.98019 0.32711 0.72478 0.0
C48 C 0.84223 0.29432 0.74036 0.0
C49 C 0.77942 0.19018 0.70474 0.0
O50 O 0.90842 0.38429 0.70459 0.0
O51 O 0.94415 0.3473 0.68895 0.0
O52 O 0.88529 0.34079 0.73458 0.0
O53 O 0.8349 0.25495 0.7304 0.0
O54 O 0.82157 0.23886 0.69828 0.0
O55 O 0.78436 0.16971 0.71952 0.0
C56 C 0.83455 0.12933 0.76019 0.0
O57 O 0.83786 0.11268 0.74498 0.0
O58 O 0.84687 0.18213 0.75968 0.0
C59 C 0.91465 0.20165 0.70376 0.0
Tb60 Tb 0.68432 0.85426 0.89823 0.0
C61 C 0.69318 0.97408 0.90551 0.0
Tb62 Tb 0.60749 0.88652 0.87842 0.0
O63 O 0.74473 0.87794 0.87687 0.0
O64 O 0.69508 0.91613 0.88042 0.0
O65 O 0.70208 0.93318 0.9113 0.0
C66 C 0.55696 0.92789 0.85844 0.0
O67 O 0.6627 0.96683 0.89162 0.0
C68 C 0.55961 0.82088 0.90535 0.0
C69 C 0.61196 0.77404 0.86836 0.0
O70 O 0.5427 0.91039 0.87385 0.0
O71 O 0.59837 0.91949 0.85386 0.0
O72 O 0.54973 0.8605 0.90016 0.0
O73 O 0.5951 0.8203 0.89522 0.0
O74 O 0.59673 0.81208 0.8636 0.0
O75 O 0.64008 0.77884 0.88263 0.0
C76 C 0.71903 0.82208 0.92558 0.0
O77 O 0.74366 0.83251 0.91081 0.0
O78 O 0.67505 0.82904 0.92472 0.0
C79 C 0.72805 0.91131 0.87027 0.0
Tb80 Tb 0.83802 0.67371 0.06528 0.0
C81 C 0.72972 0.68475 0.07283 0.0
Tb82 Tb 0.72737 0.59664 0.04612 0.0
O83 O 0.87539 0.72743 0.0426 0.0
O84 O 0.78756 0.68394 0.04696 0.0
O85 O 0.77584 0.68709 0.07947 0.0
C86 C 0.6334 0.54614 0.02695 0.0
O87 O 0.70815 0.65774 0.05833 0.0
C88 C 0.74394 0.55033 0.07374 0.0
C89 C 0.84203 0.59503 0.03655 0.0
O90 O 0.63632 0.53765 0.04293 0.0
O91 O 0.68443 0.58168 0.02141 0.0
O92 O 0.69472 0.54048 0.06826 0.0
O93 O 0.78002 0.5847 0.06342 0.0
O94 O 0.78892 0.58076 0.03176 0.0
O95 O 0.86755 0.6275 0.04997 0.0
C96 C 0.91459 0.71439 0.09034 0.0
O97 O 0.90797 0.74533 0.07898 0.0
O98 O 0.87866 0.66103 0.08741 0.0
C99 C 0.82546 0.71317 0.0363 0.0
Tb100 Tb 0.17122 0.83932 0.23118 0.0
C101 C 0.04805 0.73133 0.23767 0.0
Tb102 Tb 0.1374 0.72855 0.21207 0.0
O103 O 0.15226 0.87691 0.2091 0.0
O104 O 0.11052 0.7889 0.21299 0.0
O105 O 0.08933 0.78099 0.24347 0.0
C106 C 0.09521 0.63468 0.19284 0.0
O107 O 0.05607 0.70636 0.22432 0.0
C108 C 0.20073 0.74618 0.23963 0.0
C109 C 0.25299 0.84326 0.20227 0.0
O110 O 0.10418 0.68422 0.18776 0.0
O111 O 0.11259 0.63929 0.20831 0.0
O112 O 0.16056 0.69684 0.23447 0.0
O113 O 0.20293 0.78203 0.22915 0.0
O114 O 0.21398 0.79022 0.1975 0.0
O115 O 0.24796 0.86766 0.21628 0.0
C116 C 0.20144 0.90555 0.25865 0.0
O117 O 0.19482 0.92115 0.24361 0.0
O118 O 0.19209 0.85373 0.25796 0.0
C119 C 0.11811 0.82693 0.20254 0.0
Tb120 Tb 0.86502 0.67723 0.44323 0.0
C121 C 0.98943 0.69484 0.43747 0.0
Tb122 Tb 0.90109 0.60563 0.46364 0.0
O123 O 0.87956 0.7335 0.46529 0.0
O124 O 0.92591 0.69199 0.46186 0.0
O125 O 0.94727 0.70089 0.4312 0.0
C126 C 0.94286 0.55773 0.48455 0.0
O127 O 0.98229 0.66415 0.4513 0.0
C128 C 0.84302 0.55615 0.43557 0.0
C129 C 0.78048 0.59656 0.47098 0.0
O130 O 0.92209 0.53963 0.46962 0.0
O131 O 0.93764 0.60174 0.48816 0.0
O132 O 0.88516 0.55148 0.44149 0.0
O133 O 0.8365 0.58872 0.44551 0.0
O134 O 0.82239 0.58935 0.47732 0.0
O135 O 0.78573 0.62286 0.45634 0.0
C136 C 0.83561 0.71378 0.41575 0.0
O137 O 0.83855 0.73341 0.43098 0.0
O138 O 0.84846 0.67367 0.41619 0.0
C139 C 0.91619 0.72148 0.47205 0.0
Tb140 Tb 0.19887 0.85538 0.60921 0.0
C141 C 0.30776 0.9746 0.6014 0.0
Tb142 Tb 0.30717 0.89136 0.62921 0.0
O143 O 0.15953 0.87301 0.63121 0.0
O144 O 0.24736 0.91841 0.62715 0.0
O145 O 0.26172 0.93034 0.59486 0.0
C146 C 0.3993 0.9351 0.64922 0.0
O147 O 0.32849 0.97045 0.61618 0.0
C148 C 0.29559 0.82896 0.60202 0.0
C149 C 0.19181 0.7776 0.63955 0.0
O150 O 0.39591 0.91573 0.63405 0.0
O151 O 0.34956 0.92736 0.65356 0.0
O152 O 0.34276 0.87242 0.60716 0.0
O153 O 0.25703 0.82416 0.61197 0.0
O154 O 0.2455 0.81564 0.64389 0.0
O155 O 0.16673 0.78228 0.6257 0.0
C156 C 0.12295 0.81876 0.58388 0.0
O157 O 0.15842 0.80102 0.58716 0.0
O158 O 0.12973 0.85699 0.59501 0.0
C159 C 0.20883 0.91036 0.63746 0.0
Tb160 Tb 0.35487 0.19114 0.77559 0.0
C161 C 0.33912 0.2994 0.77037 0.0
Tb162 Tb 0.4265 0.29731 0.7966 0.0
O163 O 0.29735 0.14796 0.79733 0.0
O164 O 0.34002 0.23602 0.7946 0.0
O165 O 0.33146 0.25055 0.7641 0.0
C166 C 0.47603 0.38559 0.81804 0.0
O167 O 0.37102 0.3232 0.78399 0.0
C168 C 0.47569 0.29119 0.76821 0.0
C169 C 0.43353 0.18476 0.80336 0.0
O170 O 0.50012 0.37719 0.80506 0.0
O171 O 0.42469 0.34251 0.81949 0.0
O172 O 0.47864 0.33714 0.77425 0.0
O173 O 0.44364 0.25109 0.77798 0.0
O174 O 0.4394 0.23272 0.81016 0.0
O175 O 0.4091 0.16558 0.78839 0.0
C176 C 0.31747 0.12607 0.7479 0.0
O177 O 0.29895 0.10868 0.76318 0.0
O178 O 0.35706 0.17928 0.7484 0.0
C179 C 0.30985 0.19613 0.80451 0.0
Tb180 Tb 0.16888 0.33754 0.94231 0.0
C181 C 0.04639 0.3243 0.93651 0.0
Tb182 Tb 0.13708 0.41556 0.96179 0.0
O183 O 0.15061 0.28121 0.96448 0.0
O184 O 0.1097 0.32822 0.96095 0.0
O185 O 0.08715 0.3158 0.93032 0.0
C186 C 0.09592 0.46783 0.98118 0.0
O187 O 0.05501 0.35636 0.95011 0.0
C188 C 0.19723 0.45978 0.93357 0.0
C189 C 0.25484 0.41943 0.96994 0.0
O190 O 0.11055 0.47874 0.96545 0.0
O191 O 0.10734 0.42906 0.98641 0.0
O192 O 0.15824 0.46981 0.9393 0.0
O193 O 0.20033 0.42648 0.94398 0.0
O194 O 0.21486 0.43073 0.97568 0.0
O195 O 0.24817 0.39007 0.95577 0.0
C196 C 0.19592 0.29811 0.91492 0.0
O197 O 0.19401 0.27979 0.93028 0.0
O198 O 0.18357 0.33859 0.91521 0.0
C199 C 0.11751 0.29782 0.97134 0.0
Tb200 Tb 0.84356 0.16538 0.11077 0.0
C201 C 0.73516 0.04147 0.10498 0.0
Tb202 Tb 0.73404 0.13058 0.13094 0.0
O203 O 0.88431 0.15037 0.13285 0.0
O204 O 0.79599 0.10579 0.1295 0.0
O205 O 0.78514 0.08235 0.0992 0.0
C206 C 0.64344 0.09017 0.1516 0.0
O207 O 0.70945 0.04969 0.11812 0.0
C208 C 0.74636 0.18915 0.1027 0.0
C209 C 0.84724 0.24959 0.13874 0.0
O210 O 0.65185 0.12124 0.13828 0.0
O211 O 0.68771 0.0842 0.15383 0.0
O212 O 0.69813 0.14827 0.10839 0.0
O213 O 0.78392 0.19396 0.11295 0.0
O214 O 0.79746 0.20804 0.14491 0.0
O215 O 0.86911 0.24415 0.12425 0.0
C216 C 0.9084 0.19475 0.08302 0.0
O217 O 0.92531 0.19024 0.09809 0.0
O218 O 0.85593 0.18352 0.0838 0.0
C219 C 0.83517 0.1152 0.13971 0.0
Tb220 Tb 0.68719 0.84037 0.27772 0.0
C221 C 0.69295 0.72903 0.26918 0.0
Tb222 Tb 0.60975 0.73037 0.297 0.0
O223 O 0.744 0.87633 0.29978 0.0
O224 O 0.69757 0.78849 0.29538 0.0
O225 O 0.69858 0.77742 0.2632 0.0
C226 C 0.55862 0.63849 0.31703 0.0
O227 O 0.66451 0.70593 0.28338 0.0
C228 C 0.56339 0.74861 0.26986 0.0
C229 C 0.61643 0.84767 0.30812 0.0
O230 O 0.53919 0.64499 0.30275 0.0
O231 O 0.60589 0.68503 0.32048 0.0
O232 O 0.55427 0.69903 0.27478 0.0
O233 O 0.59782 0.78452 0.28024 0.0
O234 O 0.59882 0.79326 0.31213 0.0
O235 O 0.64743 0.87322 0.29448 0.0
C236 C 0.72675 0.91631 0.2525 0.0
O237 O 0.67344 0.88062 0.25567 0.0
O238 O 0.75819 0.90981 0.26371 0.0
C239 C 0.72903 0.826 0.30586 0.0
H240 H 0.23846 0.01998 0.26276 0.0
H241 H 0.19106 0.86514 0.29036 0.0
H242 H 0.26164 0.07307 0.28956 0.0
H243 H 0.21124 0.91664 0.31685 0.0
H244 H 0.31655 0.0282 0.35928 0.0
H245 H 0.29164 0.98097 0.33212 0.0
H246 H 0.22602 0.08978 0.31604 0.0
H247 H 0.25483 0.14 0.34335 0.0
C248 C 0.23261 0.99734 0.27455 0.0
C249 C 0.21381 0.93868 0.27449 0.0
C250 C 0.24542 0.02754 0.2899 0.0
C251 C 0.23911 0.99939 0.30543 0.0
C252 C 0.21829 0.94026 0.3052 0.0
C253 C 0.20637 0.91053 0.28997 0.0
C254 C 0.29741 0.04263 0.34992 0.0
C255 C 0.2883 0.08826 0.35337 0.0
C256 C 0.28226 0.01489 0.33435 0.0
C257 C 0.25619 0.031 0.32183 0.0
C258 C 0.24645 0.07652 0.32532 0.0
C259 C 0.26235 0.1049 0.34098 0.0
H260 H 0.30616 0.31838 0.52545 0.0
H261 H 0.13073 0.25037 0.51031 0.0
H262 H 0.32842 0.29352 0.49835 0.0
H263 H 0.15248 0.22194 0.48294 0.0
H264 H 0.2365 0.23594 0.42946 0.0
H265 H 0.20525 0.25871 0.4561 0.0
H266 H 0.31245 0.21094 0.48389 0.0
H267 H 0.3449 0.19091 0.45755 0.0
C268 C 0.27212 0.29791 0.51629 0.0
C269 C 0.21676 0.28679 0.51999 0.0
C270 C 0.28478 0.28285 0.50074 0.0
C271 C 0.24216 0.25495 0.48845 0.0
C272 C 0.18642 0.24366 0.49208 0.0
C273 C 0.1738 0.25943 0.50777 0.0
C274 C 0.25323 0.23052 0.44132 0.0
C275 C 0.29376 0.21255 0.44146 0.0
C276 C 0.23506 0.2431 0.45657 0.0
C277 C 0.25692 0.23747 0.47217 0.0
C278 C 0.29582 0.21736 0.47215 0.0
C279 C 0.31432 0.20558 0.45702 0.0
H280 H 1.0081 0.29832 0.6937 0.0
H281 H 0.88986 0.12725 0.67698 0.0
H282 H 0.05662 0.31953 0.66674 0.0
H283 H 0.94078 0.14775 0.64975 0.0
H284 H 1.0159 0.23552 0.59691 0.0
H285 H 0.96133 0.20502 0.62348 0.0
H286 H 0.11846 0.29711 0.65169 0.0
H287 H 0.17183 0.32868 0.62545 0.0
C288 C 0.99249 0.26503 0.68421 0.0
C289 C 0.94483 0.21125 0.68742 0.0
C290 C 0.02087 0.27701 0.66876 0.0
C291 C 1.00311 0.23525 0.65604 0.0
C292 C 0.95538 0.18103 0.65922 0.0
C293 C 0.92656 0.16907 0.67483 0.0
C294 C 0.03845 0.249 0.60884 0.0
C295 C 0.09797 0.28509 0.60913 0.0
C296 C 1.00734 0.23127 0.62404 0.0
C297 C 0.03536 0.24921 0.63976 0.0
C298 C 0.09516 0.28358 0.63988 0.0
C299 C 0.1259 0.30154 0.6248 0.0
H300 H 0.80063 0.01567 0.76388 0.0
H301 H 0.83917 0.16736 0.79204 0.0
H302 H 0.77659 0.96116 0.7904 0.0
H303 H 0.81719 0.11415 0.8183 0.0
H304 H 0.70926 0.99503 0.85942 0.0
H305 H 0.73416 0.04393 0.83245 0.0
H306 H 0.81541 0.94826 0.81726 0.0
H307 H 0.7877 0.8969 0.84437 0.0
C308 C 0.80423 0.03731 0.77573 0.0
C309 C 0.82113 0.09552 0.77591 0.0
C310 C 0.79089 1.0063 0.79091 0.0
C311 C 0.79438 0.03311 0.8065 0.0
C312 C 0.81271 0.09171 0.80655 0.0
C313 C 0.82561 0.12237 0.79147 0.0
C314 C 0.73202 0.98397 0.85031 0.0
C315 C 0.74621 0.94188 0.85396 0.0
C316 C 0.74691 0.01253 0.83486 0.0
C317 C 0.7773 1.00051 0.82268 0.0
C318 C 0.79164 0.95827 0.82631 0.0
C319 C 0.7763 0.92925 0.84186 0.0
H320 H 0.68003 0.81985 0.95713 0.0
H321 H 0.80215 0.79266 0.92963 0.0
H322 H 0.70974 0.79667 0.98343 0.0
H323 H 0.83074 0.76665 0.95613 0.0
H324 H 0.90049 0.77246 0.01051 0.0
H325 H 0.87787 0.80026 0.98328 0.0
H326 H 0.6998 0.71646 0.99752 0.0
H327 H 0.72295 0.69235 0.02469 0.0
C328 C 0.71301 0.80833 0.95671 0.0
C329 C 0.73843 0.80758 0.94132 0.0
C330 C 0.7299 0.79463 0.97181 0.0
C331 C 0.77212 0.77881 0.97196 0.0
C332 C 0.79835 0.77891 0.95654 0.0
C333 C 0.78175 0.79339 0.94134 0.0
C334 C 0.85666 0.76043 0.00775 0.0
C335 C 0.81346 0.7301 0.0197 0.0
C336 C 0.84358 0.77586 0.99212 0.0
C337 C 0.787 0.76106 0.98818 0.0
C338 C 0.74402 0.72987 1.00015 0.0
C339 C 0.75716 0.71524 0.01572 0.0
H340 H 0.14704 0.89803 0.17503 0.0
H341 H 0.02655 0.72846 0.19233 0.0
H342 H 0.10339 0.87389 0.14682 0.0
H343 H 0.98192 0.70485 0.16469 0.0
H344 H 0.94443 0.65373 0.11088 0.0
H345 H 0.99808 0.68437 0.13716 0.0
H346 H 0.02037 0.85282 0.1305 0.0
H347 H 0.96862 0.82229 0.10364 0.0
C348 C 0.11089 0.85588 0.17283 0.0
C349 C 0.09043 0.81497 0.18578 0.0
C350 C 0.08578 0.84201 0.1567 0.0
C351 C 0.03951 0.78707 0.15333 0.0
C352 C 1.01842 0.74699 0.16657 0.0
C353 C 0.04374 0.76066 0.18251 0.0
C354 C 0.96144 0.6975 0.11494 0.0
C355 C 0.95213 0.73555 0.10531 0.0
C356 C 0.99178 0.71504 0.1301 0.0
C357 C 1.01269 0.77086 0.13622 0.0
C358 C 1.00521 0.80963 0.1262 0.0
C359 C 0.97542 0.79217 0.11083 0.0
H360 H 0.06475 0.8692 0.57115 0.0
H361 H 0.09701 0.73045 0.56266 0.0
H362 H 1.01193 0.84699 0.54443 0.0
H363 H 0.04273 0.70672 0.53647 0.0
H364 H 1.01307 0.72436 0.48165 0.0
H365 H 0.05833 0.74694 0.50916 0.0
H366 H 0.92846 0.78106 0.52809 0.0
H367 H 0.88357 0.75949 0.49996 0.0
C368 C 0.05966 0.83336 0.5637 0.0
C369 C 0.08543 0.80189 0.56886 0.0
C370 C 0.02923 0.82047 0.54843 0.0
C371 C 0.02377 0.77563 0.53809 0.0
C372 C 0.04732 0.74256 0.54381 0.0
C373 C 0.0781 0.75582 0.55891 0.0
C374 C 0.99411 0.7368 0.49165 0.0
C375 C 0.94452 0.73973 0.4887 0.0
C376 C 0.01987 0.74934 0.50752 0.0
C377 C 0.99656 0.76478 0.52103 0.0
C378 C 0.94766 0.76939 0.51798 0.0
C379 C 0.9219 0.75707 0.50191 0.0
H380 H 0.13475 0.8893 0.66401 0.0
H381 H 0.30867 0.99936 0.64787 0.0
H382 H 0.15696 0.94008 0.69124 0.0
H383 H 0.33142 0.04768 0.67489 0.0
H384 H 0.34468 0.16595 0.71599 0.0
H385 H 0.31317 0.11305 0.68967 0.0
H386 H 0.21209 0.95694 0.71764 0.0
H387 H 0.2426 1.01107 0.74424 0.0
C388 C 0.17759 0.92416 0.6663 0.0
C389 C 0.21999 0.94034 0.65385 0.0
C390 C 0.19048 0.95288 0.6819 0.0
C391 C 0.24592 0.99829 0.68524 0.0
C392 C 0.28801 0.01381 0.67271 0.0
C393 C 0.2751 0.98559 0.65722 0.0
C394 C 0.31563 0.12034 0.71655 0.0
C395 C 0.29652 0.0925 0.73215 0.0
C396 C 0.2977 0.08988 0.70144 0.0
C397 C 0.26069 0.0305 0.7015 0.0
C398 C 0.24038 1.00265 0.71714 0.0
C399 C 0.2581 0.03348 0.73235 0.0
H400 H 0.17798 0.32027 0.883 0.0
H401 H 0.23975 0.22602 0.91136 0.0
H402 H 0.19951 0.28884 0.85671 0.0
H403 H 0.26384 0.19585 0.88473 0.0
H404 H 0.25962 0.12051 0.83099 0.0
H405 H 0.2282 0.1397 0.85825 0.0
H406 H 0.28395 0.31194 0.84182 0.0
H407 H 0.31206 0.29196 0.81483 0.0
C408 C 0.19652 0.29293 0.8836 0.0
C409 C 0.20786 0.27617 0.89922 0.0
C410 C 0.20914 0.27504 0.86849 0.0
C411 C 0.23443 0.24059 0.86854 0.0
C412 C 0.24421 0.2222 0.88421 0.0
C413 C 0.23083 0.23973 0.89945 0.0
C414 C 0.26444 0.16213 0.83327 0.0
C415 C 0.28857 0.20483 0.82084 0.0
C416 C 0.24701 0.17334 0.84889 0.0
C417 C 0.25317 0.22731 0.85223 0.0
C418 C 0.27739 0.26957 0.83967 0.0
C419 C 0.29429 0.25832 0.8242 0.0
H420 H 0.02193 0.22823 0.07866 0.0
H421 H 0.86866 0.1901 0.05145 0.0
H422 H 0.07492 0.25209 0.05183 0.0
H423 H 0.92025 0.21171 0.0249 0.0
H424 H 0.03534 0.31762 0.98311 0.0
H425 H 0.98929 0.29419 0.0105 0.0
H426 H 0.08646 0.21364 0.02471 0.0
H427 H 0.13519 0.24014 0.99716 0.0
C428 C 0.99962 0.22468 0.06696 0.0
C429 C 0.94142 0.208 0.06713 0.0
C430 C 0.02977 0.23792 0.0516 0.0
C431 C 1.00205 0.23449 0.03619 0.0
C432 C 0.94343 0.21626 0.0365 0.0
C433 C 0.91368 0.20355 0.05175 0.0
C434 C 0.04748 0.29548 0.9921 0.0
C435 C 0.08916 0.28106 0.98802 0.0
C436 C 0.02049 0.28136 0.00779 0.0
C437 C 0.0336 0.25141 0.01981 0.0
C438 C 0.07561 0.23705 0.01579 0.0
C439 C 0.10313 0.25172 0.99999 0.0
H440 H 0.66431 0.9414 0.23114 0.0
H441 H 0.83538 0.97364 0.2397 0.0
H442 H 0.69454 0.99358 0.20458 0.0
H443 H 0.86567 0.02444 0.21265 0.0
H444 H 0.90566 0.14991 0.16751 0.0
H445 H 0.88268 0.107 0.19588 0.0
H446 H 0.71889 0.97516 0.17743 0.0
H447 H 0.74138 0.0185 0.1496 0.0
C448 C 0.70855 0.95994 0.22733 0.0
C449 C 0.74742 0.95319 0.23739 0.0
C450 C 0.72586 0.98947 0.21204 0.0
C451 C 0.78236 1.01232 0.20627 0.0
C452 C 0.82192 1.00759 0.21671 0.0
C453 C 0.80459 0.97838 0.23217 0.0
C454 C 0.86502 0.11157 0.16962 0.0
C455 C 0.82499 0.08788 0.15648 0.0
C456 C 0.8518 0.08696 0.18582 0.0
C457 C 0.79846 0.03814 0.18906 0.0
C458 C 0.75963 0.01364 0.17561 0.0
C459 C 0.77266 0.03829 0.15959 0.0
H460 H 0.79677 0.78968 0.41224 0.0
H461 H 0.84513 0.68438 0.38381 0.0
H462 H 0.77244 0.81996 0.38576 0.0
H463 H 0.82322 0.71576 0.35758 0.0
H464 H 0.71698 0.72499 0.31565 0.0
H465 H 0.74152 0.70037 0.34259 0.0
H466 H 0.81015 0.8743 0.35963 0.0
H467 H 0.78231 0.89816 0.33261 0.0
C468 C 0.80251 0.77338 0.40034 0.0
C469 C 0.82218 0.73424 0.40006 0.0
C470 C 0.78901 0.79096 0.38518 0.0
C471 C 0.79526 0.76985 0.36951 0.0
C472 C 0.81646 0.73187 0.36937 0.0
C473 C 0.82935 0.71405 0.38443 0.0
C474 C 0.73674 0.75791 0.32519 0.0
C475 C 0.74719 0.81332 0.32211 0.0
C476 C 0.75155 0.74399 0.34061 0.0
C477 C 0.7783 0.78542 0.3533 0.0
C478 C 0.78913 0.84121 0.3502 0.0
C479 C 0.77374 0.85505 0.3347 0.0
H480 H 0.51363 0.81223 0.32398 0.0
H481 H 0.67766 0.96071 0.31411 0.0
H482 H 0.4799 0.87384 0.33605 0.0
H483 H 0.64434 0.02177 0.3259 0.0
H484 H 0.58185 0.10919 0.36247 0.0
H485 H 0.61488 0.04547 0.35246 0.0
H486 H 0.4576 0.94762 0.32475 0.0
H487 H 0.42425 1.01143 0.33498 0.0
C488 C 0.54275 0.85776 0.32475 0.0
C489 C 0.59824 0.88174 0.31818 0.0
C490 C 0.5233 0.89308 0.3314 0.0
C491 C 0.55935 0.95275 0.33179 0.0
C492 C 0.61559 0.97608 0.3259 0.0
C493 C 0.63466 0.94106 0.31912 0.0
C494 C 0.55467 0.07456 0.35404 0.0
C495 C 0.50076 0.06554 0.34936 0.0
C496 C 0.57348 0.03791 0.34836 0.0
C497 C 0.53868 0.99119 0.33792 0.0
C498 C 0.48501 0.98271 0.333 0.0
C499 C 0.4663 0.01969 0.33863 0.0
H500 H 0.50498 0.5531 0.53597 0.0
H501 H 0.41685 0.43091 0.49619 0.0
H502 H 0.59651 0.57769 0.52316 0.0
H503 H 0.50863 0.45498 0.48341 0.0
H504 H 0.67939 0.56548 0.45585 0.0
H505 H 0.58742 0.534 0.46891 0.0
H506 H 0.65958 0.53775 0.51794 0.0
H507 H 0.75318 0.57068 0.50471 0.0
C508 C 0.50523 0.53184 0.52438 0.0
C509 C 0.45382 0.49051 0.51696 0.0
C510 C 0.55772 0.54537 0.51718 0.0
C511 C 0.56004 0.51796 0.50236 0.0
C512 C 0.5084 0.47718 0.49478 0.0
C513 C 0.45581 0.46354 0.50203 0.0
C514 C 0.67588 0.55944 0.46944 0.0
C515 C 0.72387 0.57123 0.47929 0.0
C516 C 0.62279 0.54083 0.4769 0.0
C517 C 0.61603 0.5336 0.49448 0.0
C518 C 0.66359 0.54363 0.50436 0.0
C519 C 0.71703 0.56197 0.49681 0.0
H520 H 0.07879 0.72602 0.64539 0.0
H521 H 0.22713 0.7108 0.65579 0.0
H522 H 1.01755 0.63259 0.65772 0.0
H523 H 0.16526 0.61627 0.66837 0.0
H524 H 0.02556 0.42291 0.66842 0.0
H525 H 0.09002 0.51905 0.65754 0.0
H526 H 0.99501 0.58247 0.68492 0.0
H527 H 0.9307 0.4868 0.69559 0.0
C528 C 0.09836 0.7029 0.6506 0.0
C529 C 0.15768 0.72561 0.64968 0.0
C530 C 0.06324 0.64938 0.65769 0.0
C531 C 0.08647 0.61684 0.66392 0.0
C532 C 0.14613 0.64019 0.66349 0.0
C533 C 0.18158 0.69447 0.65653 0.0
C534 C 1.01808 0.45735 0.67186 0.0
C535 C 0.97285 0.44742 0.68269 0.0
C536 C 0.05542 0.51245 0.66586 0.0
C537 C 0.04787 0.55842 0.67049 0.0
C538 C 1.00181 0.54796 0.68105 0.0
C539 C 0.96483 0.49313 0.68711 0.0
H540 H 0.45936 0.18318 0.83707 0.0
H541 H 0.4622 0.11269 0.78828 0.0
H542 H 0.49165 0.12217 0.85031 0.0
H543 H 0.49312 0.05191 0.80137 0.0
H544 H 0.59715 0.98534 0.82857 0.0
H545 H 0.57284 0.05268 0.81572 0.0
H546 H 0.45117 0.01914 0.85572 0.0
H547 H 0.47593 0.95253 0.86858 0.0
C548 C 0.46731 0.15518 0.82919 0.0
C549 C 0.45768 0.15246 0.81168 0.0
C550 C 0.48533 0.11992 0.83674 0.0
C551 C 0.49467 0.08189 0.82689 0.0
C552 C 0.48685 0.08088 0.80933 0.0
C553 C 0.46856 0.11554 0.80185 0.0
C554 C 0.56469 0.99187 0.83445 0.0
C555 C 0.53804 0.96336 0.84946 0.0
C556 C 0.55092 0.03059 0.82716 0.0
C557 C 0.51036 0.04169 0.83478 0.0
C558 C 0.4833 0.01244 0.8497 0.0
C559 C 0.49693 0.97369 0.85693 0.0
H560 H 0.3534 0.43534 0.95599 0.0
H561 H 0.28455 0.45863 1.00271 0.0
H562 H 0.44472 0.46761 0.9695 0.0
H563 H 0.37755 0.49224 0.01632 0.0
H564 H 0.52656 0.47562 0.0387 0.0
H565 H 0.43602 0.45031 0.02517 0.0
H566 H 0.52688 0.55072 0.9815 0.0
H567 H 0.61778 0.57556 0.99507 0.0
C568 C 0.35777 0.44767 0.96918 0.0
C569 C 0.31127 0.44375 0.97834 0.0
C570 C 0.41058 0.46677 0.97688 0.0
C571 C 0.41857 0.48237 0.994 0.0
C572 C 0.37255 0.47987 1.00313 0.0
C573 C 0.31943 0.46103 0.99534 0.0
C574 C 0.52718 0.49189 0.02614 0.0
C575 C 0.57916 0.52709 0.01785 0.0
C576 C 0.47528 0.47797 0.01848 0.0
C577 C 0.47409 0.49883 1.00232 0.0
C578 C 0.52625 0.53359 0.99393 0.0
C579 C 0.5783 0.54766 1.00163 0.0
H580 H 0.06945 0.52996 0.20418 0.0
H581 H 0.0399 0.61449 0.16241 0.0
H582 H 1.00463 0.43741 0.1916 0.0
H583 H 0.97439 0.52159 0.14981 0.0
H584 H 0.92089 0.34989 0.12375 0.0
H585 H 0.97864 0.44253 0.13665 0.0
H586 H 0.90228 0.37287 0.18519 0.0
H587 H 0.84408 0.2785 0.17214 0.0
C588 C 0.04934 0.52871 0.19222 0.0
C589 C 0.06018 0.57944 0.18417 0.0
C590 C 1.01159 0.47562 0.18513 0.0
C591 C 0.98389 0.47194 0.16978 0.0
C592 C 0.9953 0.52287 0.16161 0.0
C593 C 0.03298 0.5761 0.16876 0.0
C594 C 0.91603 0.35397 0.1372 0.0
C595 C 0.87818 0.30643 0.14697 0.0
C596 C 0.94895 0.40751 0.14456 0.0
C597 C 0.94534 0.41528 0.16195 0.0
C598 C 0.9065 0.36812 0.17175 0.0
C599 C 0.87289 0.31421 0.1643 0.0
H600 H 1.00416 0.60226 0.51368 0.0
H601 H 0.96365 0.47325 0.47558 0.0
H602 H 0.07159 0.57803 0.52664 0.0
H603 H 0.03057 0.44904 0.48846 0.0
H604 H 0.1954 0.45735 0.50563 0.0
H605 H 0.13547 0.4914 0.49265 0.0
H606 H 0.06953 0.49741 0.5419 0.0
H607 H 0.12913 0.46418 0.55476 0.0
C608 C 1.00909 0.56824 0.50824 0.0
C609 C 0.97841 0.53933 0.49372 0.0
C610 C 0.04786 0.55456 0.51558 0.0
C611 C 0.05693 0.51206 0.50844 0.0
C612 C 0.02544 0.48271 0.49407 0.0
C613 C 0.98654 0.49608 0.48683 0.0
C614 C 0.16869 0.4668 0.51364 0.0
C615 C 0.16649 0.4575 0.53115 0.0
C616 C 0.13408 0.48582 0.50624 0.0
C617 C 0.09738 0.49663 0.51626 0.0
C618 C 0.0974 0.48978 0.53384 0.0
C619 C 0.13131 0.47026 0.54117 0.0
H620 H 0.41644 0.99361 0.67889 0.0
H621 H 0.50513 0.95979 0.6392 0.0
H622 H 0.50808 0.06097 0.69181 0.0
H623 H 0.59647 0.02649 0.65211 0.0
H624 H 0.75281 0.18985 0.67101 0.0
H625 H 0.6595 0.12978 0.65759 0.0
H626 H 0.58638 0.05898 0.70635 0.0
H627 H 0.67811 0.11876 0.71962 0.0
C628 C 0.45549 1.0 0.67308 0.0
C629 C 0.45371 0.97111 0.65815 0.0
C630 C 0.50797 0.03872 0.68041 0.0
C631 C 0.55968 0.04948 0.6729 0.0
C632 C 0.55759 0.02002 0.65804 0.0
C633 C 0.50521 0.98123 0.65078 0.0
C634 C 0.71654 0.16194 0.67882 0.0
C635 C 0.72305 0.15869 0.69633 0.0
C636 C 0.66327 0.12724 0.67116 0.0
C637 C 0.61553 0.08932 0.68091 0.0
C638 C 0.62194 0.08789 0.69847 0.0
C639 C 0.67489 0.12195 0.70605 0.0
H640 H 0.67089 0.71884 0.86463 0.0
H641 H 0.51206 0.70914 0.85075 0.0
H642 H 0.63799 0.62473 0.85273 0.0
H643 H 0.47875 0.61395 0.83859 0.0
H644 H 0.41854 0.41932 0.83922 0.0
H645 H 0.45137 0.51591 0.84987 0.0
H646 H 0.61432 0.57449 0.82554 0.0
H647 H 0.58171 0.47831 0.81507 0.0
C648 C 0.62913 0.69678 0.85876 0.0
C649 C 0.59404 0.72131 0.85857 0.0
C650 C 0.61033 0.64286 0.85191 0.0
C651 C 0.55565 0.6117 0.8448 0.0
C652 C 0.52091 0.63678 0.84416 0.0
C653 C 0.54016 0.69144 0.85088 0.0
C654 C 0.46166 0.45276 0.83641 0.0
C655 C 0.49784 0.44133 0.82647 0.0
C656 C 0.48013 0.50815 0.84227 0.0
C657 C 0.53526 0.55293 0.83842 0.0
C658 C 0.57173 0.54092 0.82881 0.0
C659 C 0.55316 0.48579 0.82286 0.0
H660 H 0.922 0.57632 0.05076 0.0
H661 H 0.83402 0.55743 1.00353 0.0
H662 H 0.98092 0.54352 0.03753 0.0
H663 H 0.89374 0.52353 0.9901 0.0
H664 H 0.06334 0.54131 0.96942 0.0
H665 H 0.99655 0.56597 0.98229 0.0
H666 H 0.97814 0.45949 0.02522 0.0
H667 H 0.04547 0.43508 0.01232 0.0
C668 C 0.91494 0.56484 0.0375 0.0
C669 C 0.87359 0.57016 0.02813 0.0
C670 C 0.94859 0.54544 0.02995 0.0
C671 C 0.94226 0.53099 0.01276 0.0
C672 C 0.89998 0.53491 1.00337 0.0
C673 C 0.86555 0.5539 0.01104 0.0
C674 C 0.04542 0.52358 0.98169 0.0
C675 C 0.0601 0.4868 0.98998 0.0
C676 C 1.00653 0.5371 0.98894 0.0
C677 C 0.9816 0.51437 0.0047 0.0
C678 C 0.99684 0.478 0.01309 0.0
C679 C 0.03561 0.46424 0.00578 0.0
H680 H 0.55016 0.10164 0.14775 0.0
H681 H 0.60952 1.00068 0.17356 0.0
H682 H 0.45401 0.0392 0.15848 0.0
H683 H 0.51277 0.93786 0.18443 0.0
H684 H 0.31765 0.80576 0.18556 0.0
H685 H 0.41341 0.86577 0.1734 0.0
H686 H 0.40489 0.01648 0.18604 0.0
H687 H 0.31038 0.95718 0.198 0.0
C688 C 0.54274 0.0665 0.15593 0.0
C689 C 0.58739 0.05634 0.15996 0.0
C690 C 0.48761 0.03058 0.16203 0.0
C691 C 0.47564 0.98332 0.17222 0.0
C692 C 0.5205 0.97347 0.17642 0.0
C693 C 0.57597 1.00984 0.17041 0.0
C694 C 0.33603 0.85164 0.1854 0.0
C695 C 0.30659 0.87683 0.19265 0.0
C696 C 0.39101 0.88599 0.17866 0.0
C697 C 0.41684 0.94593 0.17883 0.0
C698 C 0.38622 0.97058 0.18558 0.0
C699 C 0.33204 0.93653 0.19247 0.0
H700 H 0.45621 0.54269 0.31243 0.0
H701 H 0.6143 0.60848 0.34005 0.0
H702 H 0.42471 0.44746 0.32367 0.0
H703 H 0.5829 0.51268 0.35122 0.0
H704 H 0.52651 0.3183 0.35161 0.0
H705 H 0.55924 0.41296 0.33906 0.0
H706 H 0.39935 0.40143 0.35275 0.0
H707 H 0.36734 0.30816 0.36534 0.0
C708 C 0.4839 0.53683 0.32107 0.0
C709 C 0.53737 0.58295 0.32552 0.0
C710 C 0.466 0.48232 0.32744 0.0
C711 C 0.50158 0.47259 0.3382 0.0
C712 C 0.55496 0.51887 0.34278 0.0
C713 C 0.57254 0.57372 0.33659 0.0
C714 C 0.49824 0.33581 0.35163 0.0
C715 C 0.44443 0.30605 0.35938 0.0
C716 C 0.51711 0.39006 0.34466 0.0
C717 C 0.48187 0.41459 0.34502 0.0
C718 C 0.42731 0.38359 0.35222 0.0
C719 C 0.40904 0.33023 0.35942 0.0
H720 H 0.08878 0.73423 0.45515 0.0
H721 H 0.02271 0.74736 0.40667 0.0
H722 H 0.18225 0.81459 0.44771 0.0
H723 H 0.11667 0.82698 0.39915 0.0
H724 H 0.28661 0.01602 0.43528 0.0
H725 H 0.20841 0.92143 0.44293 0.0
H726 H 0.22447 0.85551 0.39482 0.0
H727 H 0.30344 0.94965 0.38725 0.0
C728 C 0.09458 0.75302 0.4427 0.0
C729 C 0.04822 0.73445 0.43149 0.0
C730 C 0.14804 0.7993 0.43852 0.0
C731 C 0.15659 0.8271 0.4229 0.0
C732 C 0.11136 0.80607 0.41124 0.0
C733 C 0.05756 0.76055 0.41555 0.0
C734 C 0.27458 0.98098 0.42654 0.0
C735 C 0.30125 0.9904 0.41067 0.0
C736 C 0.22987 0.92684 0.43093 0.0
C737 C 0.2102 0.8813 0.4194 0.0
C738 C 0.23869 0.88996 0.40389 0.0
C739 C 0.2842 0.94381 0.39965 0.0
H740 H 0.28714 0.27207 0.60105 0.0
H741 H 0.36127 0.28746 0.55154 0.0
H742 H 0.3023 0.19216 0.60739 0.0
H743 H 0.37491 0.2067 0.55779 0.0
H744 H 0.37597 0.07639 0.61704 0.0
H745 H 0.38765 0.16885 0.60956 0.0
H746 H 0.29288 0.09747 0.56353 0.0
H747 H 0.27968 1.00398 0.57113 0.0
C748 C 0.30773 0.25919 0.59168 0.0
C749 C 0.32315 0.28616 0.57584 0.0
C750 C 0.31641 0.21355 0.5953 0.0
C751 C 0.33953 0.1933 0.58302 0.0
C752 C 0.35692 0.22154 0.56743 0.0
C753 C 0.34947 0.26801 0.56395 0.0
C754 C 0.3587 0.0804 0.6051 0.0
C755 C 0.32635 0.03246 0.59474 0.0
C756 C 0.36523 0.13342 0.6009 0.0
C757 C 0.34074 0.14 0.58608 0.0
C758 C 0.31231 0.0934 0.57503 0.0
C759 C 0.30478 0.03994 0.57938 0.0
H760 H 0.3021 0.36121 0.78817 0.0
H761 H 0.28619 0.28105 0.73967 0.0
H762 H 0.22283 0.37626 0.78091 0.0
H763 H 0.20766 0.29725 0.73233 0.0
H764 H 0.02134 0.28333 0.76907 0.0
H765 H 0.11543 0.29782 0.77644 0.0
H766 H 0.1807 0.37714 0.72799 0.0
H767 H 0.08703 0.36381 0.7207 0.0
C768 C 0.28297 0.34844 0.77575 0.0
C769 C 0.30043 0.31983 0.76448 0.0
C770 C 0.23728 0.35671 0.77167 0.0
C771 C 0.20897 0.33772 0.75611 0.0
C772 C 0.22896 0.31269 0.74438 0.0
C773 C 0.27387 0.30334 0.74859 0.0
C774 C 0.05616 0.30536 0.76019 0.0
C775 C 0.04665 0.32242 0.74431 0.0
C776 C 0.11005 0.31371 0.76442 0.0
C777 C 0.15524 0.33828 0.75273 0.0
C778 C 0.14654 0.3579 0.7372 0.0
C779 C 0.09297 0.35064 0.7331 0.0
H780 H 0.74709 1.00732 0.93612 0.0
H781 H 0.72694 0.07354 0.8885 0.0
H782 H 0.82604 0.1019 0.94342 0.0
H783 H 0.8066 0.16748 0.8957 0.0
H784 H 0.94872 0.28941 0.95465 0.0
H785 H 0.85366 0.21057 0.94788 0.0
H786 H 0.91465 0.19199 0.89919 0.0
H787 H 1.01026 0.27002 0.90606 0.0
C788 C 0.75846 0.04232 0.92743 0.0
C789 C 0.73086 0.03284 0.91173 0.0
C790 C 0.80358 0.09642 0.93161 0.0
C791 C 0.82254 0.14171 0.92004 0.0
C792 C 0.79284 0.13314 0.90479 0.0
C793 C 0.74698 0.07938 0.90076 0.0
C794 C 0.9416 0.26961 0.94231 0.0
C795 C 0.98707 0.28582 0.93088 0.0
C796 C 0.88724 0.22426 0.93851 0.0
C797 C 0.87701 0.19523 0.92307 0.0
C798 C 0.92139 0.21401 0.91115 0.0
C799 C 0.97608 0.25855 0.91509 0.0
H800 H 0.75394 1.00647 0.07442 0.0
H801 H 0.67475 0.94322 0.12308 0.0
H802 H 0.73858 0.91185 0.06732 0.0
H803 H 0.66076 0.84905 0.11609 0.0
H804 H 0.75325 0.7396 0.10349 0.0
H805 H 0.74035 0.82008 0.11112 0.0
H806 H 0.65641 0.80466 0.06344 0.0
H807 H 0.66798 0.72366 0.05591 0.0
C808 C 0.73207 0.97207 0.08343 0.0
C809 C 0.71539 0.98233 0.09927 0.0
C810 C 0.72329 0.91793 0.07937 0.0
C811 C 0.69877 0.87326 0.09121 0.0
C812 C 0.67991 0.8828 0.10677 0.0
C813 C 0.68749 0.93662 0.11068 0.0
C814 C 0.73065 0.75234 0.09484 0.0
C815 C 0.71184 0.72518 0.07908 0.0
C816 C 0.72322 0.79838 0.09921 0.0
C817 C 0.69777 0.81881 0.0878 0.0
C818 C 0.67643 0.78994 0.07243 0.0
C819 C 0.68281 0.74327 0.0682 0.0
H820 H 0.74876 0.75375 0.23865 0.0
H821 H 0.728 0.66315 0.2855 0.0
H822 H 0.82884 0.74 0.23111 0.0
H823 H 0.80873 0.65096 0.27808 0.0
H824 H 1.01247 0.75098 0.26804 0.0
H825 H 0.91757 0.73578 0.27484 0.0
H826 H 0.85596 0.65757 0.22606 0.0
H827 H 0.95021 0.67119 0.21939 0.0
C828 C 0.76025 0.7297 0.24713 0.0
C829 C 0.73194 0.70969 0.26268 0.0
C830 C 0.8061 0.72186 0.24281 0.0
C831 C 0.82516 0.69486 0.25411 0.0
C832 C 0.795 0.67215 0.26921 0.0
C833 C 0.74846 0.67886 0.27336 0.0
C834 C 0.97827 0.72907 0.25897 0.0
C835 C 0.98885 0.71214 0.24322 0.0
C836 C 0.92401 0.72039 0.26285 0.0
C837 C 0.87964 0.69577 0.25091 0.0
C838 C 0.88951 0.67674 0.23545 0.0
C839 C 0.94338 0.68418 0.23172 0.0
H840 H 0.82344 0.44735 0.43455 0.0
H841 H 0.74627 0.54875 0.42219 0.0
H842 H 0.73423 0.36134 0.42943 0.0
H843 H 0.65696 0.46202 0.41537 0.0
H844 H 0.48706 0.29683 0.41839 0.0
H845 H 0.5763 0.38406 0.42503 0.0
H846 H 0.67002 0.29853 0.41184 0.0
H847 H 0.58165 0.21159 0.40696 0.0
C848 C 0.78776 0.45133 0.43009 0.0
C849 C 0.79223 0.50509 0.42863 0.0
C850 C 0.73599 0.4015 0.42706 0.0
C851 C 0.6872 0.4036 0.42189 0.0
C852 C 0.69261 0.45786 0.41969 0.0
C853 C 0.74425 0.50789 0.42325 0.0
C854 C 0.52692 0.29667 0.41745 0.0
C855 C 0.52705 0.24701 0.41242 0.0
C856 C 0.57841 0.34705 0.42092 0.0
C857 C 0.63148 0.34945 0.41894 0.0
C858 C 0.63087 0.2991 0.41405 0.0
C859 C 0.57962 0.24863 0.41114 0.0
H860 H 0.38444 0.80949 0.60439 0.0
H861 H 0.20883 0.73048 0.58828 0.0
H862 H 0.38331 0.72094 0.60073 0.0
H863 H 0.20893 0.64162 0.5828 0.0
H864 H 0.20714 0.47406 0.58665 0.0
H865 H 0.20597 0.56158 0.59328 0.0
H866 H 0.38768 0.659 0.58349 0.0
H867 H 0.38908 0.5721 0.57859 0.0
C868 C 0.34595 0.7735 0.59943 0.0
C869 C 0.29685 0.77738 0.59641 0.0
C870 C 0.3453 0.72213 0.59723 0.0
C871 C 0.29617 0.67314 0.5913 0.0
C872 C 0.24741 0.67762 0.58771 0.0
C873 C 0.24751 0.72892 0.5905 0.0
C874 C 0.24697 0.51429 0.58654 0.0
C875 C 0.29821 0.516 0.58228 0.0
C876 C 0.24626 0.56479 0.58998 0.0
C877 C 0.29662 0.61837 0.58881 0.0
C878 C 0.34798 0.61929 0.58499 0.0
C879 C 0.34889 0.56895 0.5821 0.0
H880 H 0.48762 0.20436 0.75495 0.0
H881 H 0.58315 0.38328 0.76746 0.0
H882 H 0.57657 0.20542 0.74876 0.0
H883 H 0.67136 0.38371 0.76293 0.0
H884 H 0.82559 0.38553 0.74144 0.0
H885 H 0.73707 0.38454 0.74595 0.0
H886 H 0.6549 0.20572 0.75938 0.0
H887 H 0.74356 0.20616 0.75322 0.0
C888 C 0.52767 0.24406 0.75617 0.0
C889 C 0.52814 0.29381 0.76146 0.0
C890 C 0.57898 0.24456 0.75298 0.0
C891 C 0.63223 0.29454 0.75547 0.0
C892 C 0.63205 0.34448 0.76042 0.0
C893 C 0.58094 0.34431 0.7631 0.0
C894 C 0.78896 0.34613 0.74564 0.0
C895 C 0.79186 0.29595 0.74709 0.0
C896 C 0.73759 0.34548 0.7483 0.0
C897 C 0.68763 0.29497 0.75304 0.0
C898 C 0.6915 0.24528 0.75532 0.0
C899 C 0.74274 0.24563 0.75216 0.0
H900 H 0.46526 0.80588 0.92233 0.0
H901 H 0.5451 0.71376 0.90291 0.0
H902 H 0.37802 0.71583 0.92781 0.0
H903 H 0.4574 0.62401 0.90758 0.0
H904 H 0.30281 0.47009 0.93199 0.0
H905 H 0.39285 0.55684 0.92678 0.0
H906 H 0.30126 0.64303 0.91233 0.0
H907 H 0.21112 0.55669 0.91846 0.0
C908 C 0.4644 0.76634 0.91946 0.0
C909 C 0.51198 0.76703 0.91211 0.0
C910 C 0.41406 0.71466 0.92231 0.0
C911 C 0.40989 0.6624 0.91774 0.0
C912 C 0.45874 0.66314 0.91129 0.0
C913 C 0.50926 0.71479 0.90863 0.0
C914 C 0.30181 0.50728 0.92745 0.0
C915 C 0.24976 0.50672 0.92591 0.0
C916 C 0.35364 0.55723 0.92444 0.0
C917 C 0.35469 0.60768 0.91952 0.0
C918 C 0.30232 0.60566 0.91667 0.0
C919 C 0.25049 0.55584 0.91988 0.0
H920 H 0.66004 0.20127 0.08887 0.0
H921 H 0.84007 0.29518 0.10024 0.0
H922 H 0.66215 0.29052 0.08261 0.0
H923 H 0.84173 0.38423 0.09515 0.0
H924 H 0.83642 0.53549 0.07191 0.0
H925 H 0.83822 0.44797 0.0767 0.0
H926 H 0.66625 0.36877 0.09646 0.0
H927 H 0.66357 0.45583 0.09059 0.0
C928 C 0.70023 0.24092 0.08983 0.0
C929 C 0.74973 0.24102 0.09521 0.0
C930 C 0.70131 0.29234 0.08656 0.0
C931 C 0.7518 0.34522 0.08877 0.0
C932 C 0.80197 0.34482 0.09322 0.0
C933 C 0.80103 0.29346 0.0962 0.0
C934 C 0.79925 0.49969 0.07751 0.0
C935 C 0.74963 0.50254 0.08072 0.0
C936 C 0.80024 0.44917 0.08028 0.0
C937 C 0.75197 0.40033 0.0867 0.0
C938 C 0.70366 0.40462 0.09099 0.0
C939 C 0.7024 0.45496 0.08793 0.0
H940 H 0.46946 0.66824 0.25291 0.0
H941 H 0.5482 0.84098 0.2716 0.0
H942 H 0.38246 0.67071 0.24665 0.0
H943 H 0.46075 0.84292 0.26597 0.0
H944 H 0.30716 0.84063 0.23991 0.0
H945 H 0.39716 0.84409 0.24568 0.0
H946 H 0.30492 0.66799 0.26174 0.0
H947 H 0.2149 0.6641 0.2553 0.0
C948 C 0.46845 0.70704 0.25545 0.0
C949 C 0.51568 0.75427 0.2628 0.0
C950 C 0.41823 0.70821 0.25213 0.0
C951 C 0.41382 0.75655 0.25617 0.0
C952 C 0.46232 0.80494 0.26265 0.0
C953 C 0.51268 0.80389 0.26585 0.0
C954 C 0.30603 0.80291 0.24494 0.0
C955 C 0.25379 0.75189 0.24699 0.0
C956 C 0.35781 0.80486 0.24825 0.0
C957 C 0.35866 0.75597 0.25385 0.0
C958 C 0.30614 0.70603 0.25695 0.0
C959 C 0.25438 0.70399 0.25352 0.0
loop_
_geom_bond_atom_site_label_1
_geom_bond_atom_site_label_2
_geom_bond_distance
_geom_bond_site_symmetry_2
_ccdc_geom_bond_type
Tb0 O3 2.453 . S
Tb0 O4 2.596 . S
Tb0 O5 2.374 . S
Tb0 O13 2.343 . S
Tb0 O15 2.353 . S
Tb0 O17 2.427 . S
Tb0 O18 2.513 . S
C1 O5 1.251 1_565 S
C1 O7 1.263 1_565 S
Tb2 O4 2.343 . S
Tb2 O7 2.353 . S
Tb2 O10 2.427 1_545 S
Tb2 O11 2.513 . S
Tb2 O12 2.453 . S
Tb2 O13 2.596 . S
Tb2 O14 2.374 . S
O3 Tb0 2.453 . S
O3 C19 1.245 . S
O4 Tb0 2.596 . S
O4 Tb2 2.343 . S
O4 C19 1.259 . S
O5 Tb0 2.374 . S
O5 C1 1.251 1_545 S
C6 O10 1.275 1_545 S
C6 O11 1.246 . S
O7 C1 1.263 1_545 S
O7 Tb2 2.353 . S
C8 O12 1.245 . S
C8 O13 1.259 . S
C9 O14 1.250 . S
C9 O15 1.263 . S
O10 Tb2 2.427 1_565 S
O10 C6 1.275 1_565 S
O11 Tb2 2.513 . S
O11 C6 1.246 . S
O12 Tb2 2.453 . S
O12 C8 1.245 . S
O13 Tb0 2.343 . S
O13 Tb2 2.596 . S
O13 C8 1.259 . S
O14 Tb2 2.374 . S
O14 C9 1.250 . S
O15 Tb0 2.353 . S
O15 C9 1.263 . S
C16 O17 1.275 . S
C16 O18 1.246 . S
O17 Tb0 2.427 . S
O17 C16 1.275 . S
O18 Tb0 2.513 . S
O18 C16 1.246 . S
C19 O3 1.245 . S
C19 O4 1.259 . S
Tb20 O23 2.453 . S
Tb20 O24 2.596 . S
Tb20 O25 2.374 . S
Tb20 O33 2.343 . S
Tb20 O35 2.353 . S
Tb20 O37 2.427 . S
Tb20 O38 2.513 . S
C21 O25 1.251 . S
C21 O27 1.263 . S
Tb22 O24 2.343 . S
Tb22 O27 2.353 . S
Tb22 O30 2.427 . S
Tb22 O31 2.513 . S
Tb22 O32 2.453 . S
Tb22 O33 2.596 . S
Tb22 O34 2.374 . S
O23 Tb20 2.453 . S
O23 C39 1.245 . S
O24 Tb20 2.596 . S
O24 Tb22 2.343 . S
O24 C39 1.259 . S
O25 Tb20 2.374 . S
O25 C21 1.251 . S
C26 O30 1.275 . S
C26 O31 1.246 . S
O27 C21 1.263 . S
O27 Tb22 2.353 . S
C28 O32 1.245 . S
C28 O33 1.259 . S
C29 O34 1.250 . S
C29 O35 1.263 . S
O30 Tb22 2.427 . S
O30 C26 1.275 . S
O31 Tb22 2.513 . S
O31 C26 1.246 . S
O32 Tb22 2.453 . S
O32 C28 1.245 . S
O33 Tb20 2.343 . S
O33 Tb22 2.596 . S
O33 C28 1.259 . S
O34 Tb22 2.374 . S
O34 C29 1.250 . S
O35 Tb20 2.353 . S
O35 C29 1.263 . S
C36 O37 1.275 . S
C36 O38 1.246 . S
O37 Tb20 2.427 . S
O37 C36 1.275 . S
O38 Tb20 2.513 . S
O38 C36 1.246 . S
C39 O23 1.245 . S
C39 O24 1.259 . S
Tb40 O43 2.453 . S
Tb40 O44 2.596 . S
Tb40 O45 2.374 . S
Tb40 O53 2.343 . S
Tb40 O55 2.353 . S
Tb40 O57 2.427 . S
Tb40 O58 2.513 . S
C41 O45 1.251 1_455 S
C41 O47 1.263 1_455 S
Tb42 O44 2.343 . S
Tb42 O47 2.353 . S
Tb42 O50 2.427 1_655 S
Tb42 O51 2.513 . S
Tb42 O52 2.453 . S
Tb42 O53 2.596 . S
Tb42 O54 2.374 . S
O43 Tb40 2.453 . S
O43 C59 1.245 . S
O44 Tb40 2.596 . S
O44 Tb42 2.343 . S
O44 C59 1.259 . S
O45 Tb40 2.374 . S
O45 C41 1.251 1_655 S
C46 O50 1.275 1_655 S
C46 O51 1.246 . S
O47 C41 1.263 1_655 S
O47 Tb42 2.353 . S
C48 O52 1.245 . S
C48 O53 1.259 . S
C49 O54 1.250 . S
C49 O55 1.263 . S
O50 Tb42 2.427 1_455 S
O50 C46 1.275 1_455 S
O51 Tb42 2.513 . S
O51 C46 1.246 . S
O52 Tb42 2.453 . S
O52 C48 1.245 . S
O53 Tb40 2.343 . S
O53 Tb42 2.596 . S
O53 C48 1.259 . S
O54 Tb42 2.374 . S
O54 C49 1.250 . S
O55 Tb40 2.353 . S
O55 C49 1.263 . S
C56 O57 1.275 . S
C56 O58 1.246 . S
O57 Tb40 2.427 . S
O57 C56 1.275 . S
O58 Tb40 2.513 . S
O58 C56 1.246 . S
C59 O43 1.245 . S
C59 O44 1.259 . S
Tb60 O63 2.453 . S
Tb60 O64 2.596 . S
Tb60 O65 2.374 . S
Tb60 O73 2.343 . S
Tb60 O75 2.353 . S
Tb60 O77 2.427 . S
Tb60 O78 2.513 . S
C61 O65 1.251 1_545 S
C61 O67 1.263 1_545 S
Tb62 O64 2.343 . S
Tb62 O67 2.353 . S
Tb62 O70 2.427 1_565 S
Tb62 O71 2.513 . S
Tb62 O72 2.453 . S
Tb62 O73 2.596 . S
Tb62 O74 2.374 . S
O63 Tb60 2.453 . S
O63 C79 1.245 . S
O64 Tb60 2.596 . S
O64 Tb62 2.343 . S
O64 C79 1.259 . S
O65 Tb60 2.374 . S
O65 C61 1.251 1_565 S
C66 O70 1.275 1_565 S
C66 O71 1.246 . S
O67 C61 1.263 1_565 S
O67 Tb62 2.353 . S
C68 O72 1.245 . S
C68 O73 1.259 . S
C69 O74 1.250 . S
C69 O75 1.263 . S
O70 Tb62 2.427 1_545 S
O70 C66 1.275 1_545 S
O71 Tb62 2.513 . S
O71 C66 1.246 . S
O72 Tb62 2.453 . S
O72 C68 1.245 . S
O73 Tb60 2.343 . S
O73 Tb62 2.596 . S
O73 C68 1.259 . S
O74 Tb62 2.374 . S
O74 C69 1.250 . S
O75 Tb60 2.353 . S
O75 C69 1.263 . S
C76 O77 1.275 . S
C76 O78 1.246 . S
O77 Tb60 2.427 . S
O77 C76 1.275 . S
O78 Tb60 2.513 . S
O78 C76 1.246 . S
C79 O63 1.245 . S
C79 O64 1.259 . S
Tb80 O83 2.453 . S
Tb80 O84 2.596 . S
Tb80 O85 2.374 . S
Tb80 O93 2.343 . S
Tb80 O95 2.353 . S
Tb80 O97 2.427 . S
Tb80 O98 2.513 . S
C81 O85 1.251 . S
C81 O87 1.263 . S
Tb82 O84 2.343 . S
Tb82 O87 2.353 . S
Tb82 O90 2.427 . S
Tb82 O91 2.513 . S
Tb82 O92 2.453 . S
Tb82 O93 2.596 . S
Tb82 O94 2.374 . S
O83 Tb80 2.453 . S
O83 C99 1.245 . S
O84 Tb80 2.596 . S
O84 Tb82 2.343 . S
O84 C99 1.259 . S
O85 Tb80 2.374 . S
O85 C81 1.251 . S
C86 O90 1.275 . S
C86 O91 1.246 . S
O87 C81 1.263 . S
O87 Tb82 2.353 . S
C88 O92 1.245 . S
C88 O93 1.259 . S
C89 O94 1.250 . S
C89 O95 1.263 . S
O90 Tb82 2.427 . S
O90 C86 1.275 . S
O91 Tb82 2.513 . S
O91 C86 1.246 . S
O92 Tb82 2.453 . S
O92 C88 1.245 . S
O93 Tb80 2.343 . S
O93 Tb82 2.596 . S
O93 C88 1.259 . S
O94 Tb82 2.374 . S
O94 C89 1.250 . S
O95 Tb80 2.353 . S
O95 C89 1.263 . S
C96 O97 1.275 . S
C96 O98 1.246 . S
O97 Tb80 2.427 . S
O97 C96 1.275 . S
O98 Tb80 2.513 . S
O98 C96 1.246 . S
C99 O83 1.245 . S
C99 O84 1.259 . S
Tb100 O103 2.453 . S
Tb100 O104 2.596 . S
Tb100 O105 2.374 . S
Tb100 O113 2.343 . S
Tb100 O115 2.353 . S
Tb100 O117 2.427 . S
Tb100 O118 2.513 . S
C101 O105 1.251 1_655 S
C101 O107 1.263 1_655 S
Tb102 O104 2.343 . S
Tb102 O107 2.353 . S
Tb102 O110 2.427 1_455 S
Tb102 O111 2.513 . S
Tb102 O112 2.453 . S
Tb102 O113 2.596 . S
Tb102 O114 2.374 . S
O103 Tb100 2.453 . S
O103 C119 1.245 . S
O104 Tb100 2.596 . S
O104 Tb102 2.343 . S
O104 C119 1.259 . S
O105 Tb100 2.374 . S
O105 C101 1.251 1_455 S
C106 O110 1.275 1_455 S
C106 O111 1.246 . S
O107 C101 1.263 1_455 S
O107 Tb102 2.353 . S
C108 O112 1.245 . S
C108 O113 1.259 . S
C109 O114 1.250 . S
C109 O115 1.263 . S
O110 Tb102 2.427 1_655 S
O110 C106 1.275 1_655 S
O111 Tb102 2.513 . S
O111 C106 1.246 . S
O112 Tb102 2.453 . S
O112 C108 1.245 . S
O113 Tb100 2.343 . S
O113 Tb102 2.596 . S
O113 C108 1.259 . S
O114 Tb102 2.374 . S
O114 C109 1.250 . S
O115 Tb100 2.353 . S
O115 C109 1.263 . S
C116 O117 1.275 . S
C116 O118 1.246 . S
O117 Tb100 2.427 . S
O117 C116 1.275 . S
O118 Tb100 2.513 . S
O118 C116 1.246 . S
C119 O103 1.245 . S
C119 O104 1.259 . S
Tb120 O123 2.453 . S
Tb120 O124 2.596 . S
Tb120 O125 2.374 . S
Tb120 O133 2.343 . S
Tb120 O135 2.353 . S
Tb120 O137 2.427 . S
Tb120 O138 2.513 . S
C121 O125 1.251 1_455 S
C121 O127 1.263 1_455 S
Tb122 O124 2.343 . S
Tb122 O127 2.353 . S
Tb122 O130 2.427 1_655 S
Tb122 O131 2.513 . S
Tb122 O132 2.453 . S
Tb122 O133 2.596 . S
Tb122 O134 2.374 . S
O123 Tb120 2.453 . S
O123 C139 1.245 . S
O124 Tb120 2.596 . S
O124 Tb122 2.343 . S
O124 C139 1.259 . S
O125 Tb120 2.374 . S
O125 C121 1.251 1_655 S
C126 O130 1.275 1_655 S
C126 O131 1.246 . S
O127 C121 1.263 1_655 S
O127 Tb122 2.353 . S
C128 O132 1.245 . S
C128 O133 1.259 . S
C129 O134 1.250 . S
C129 O135 1.263 . S
O130 Tb122 2.427 1_455 S
O130 C126 1.275 1_455 S
O131 Tb122 2.513 . S
O131 C126 1.246 . S
O132 Tb122 2.453 . S
O132 C128 1.245 . S
O133 Tb120 2.343 . S
O133 Tb122 2.596 . S
O133 C128 1.259 . S
O134 Tb122 2.374 . S
O134 C129 1.250 . S
O135 Tb120 2.353 . S
O135 C129 1.263 . S
C136 O137 1.275 . S
C136 O138 1.246 . S
O137 Tb120 2.427 . S
O137 C136 1.275 . S
O138 Tb120 2.513 . S
O138 C136 1.246 . S
C139 O123 1.245 . S
C139 O124 1.259 . S
Tb140 O143 2.453 . S
Tb140 O144 2.596 . S
Tb140 O145 2.374 . S
Tb140 O153 2.343 . S
Tb140 O155 2.353 . S
Tb140 O157 2.427 . S
Tb140 O158 2.513 . S
C141 O145 1.251 1_545 S
C141 O147 1.263 1_545 S
Tb142 O144 2.343 . S
Tb142 O147 2.353 . S
Tb142 O150 2.427 1_565 S
Tb142 O151 2.513 . S
Tb142 O152 2.453 . S
Tb142 O153 2.596 . S
Tb142 O154 2.374 . S
O143 Tb140 2.453 . S
O143 C159 1.245 . S
O144 Tb140 2.596 . S
O144 Tb142 2.343 . S
O144 C159 1.259 . S
O145 Tb140 2.374 . S
O145 C141 1.251 1_565 S
C146 O150 1.275 1_565 S
C146 O151 1.246 . S
O147 C141 1.263 1_565 S
O147 Tb142 2.353 . S
C148 O152 1.245 . S
C148 O153 1.259 . S
C149 O154 1.250 . S
C149 O155 1.263 . S
O150 Tb142 2.427 1_545 S
O150 C146 1.275 1_545 S
O151 Tb142 2.513 . S
O151 C146 1.246 . S
O152 Tb142 2.453 . S
O152 C148 1.245 . S
O153 Tb140 2.343 . S
O153 Tb142 2.596 . S
O153 C148 1.259 . S
O154 Tb142 2.374 . S
O154 C149 1.250 . S
O155 Tb140 2.353 . S
O155 C149 1.263 . S
C156 O157 1.275 . S
C156 O158 1.246 . S
O157 Tb140 2.427 . S
O157 C156 1.275 . S
O158 Tb140 2.513 . S
O158 C156 1.246 . S
C159 O143 1.245 . S
C159 O144 1.259 . S
Tb160 O163 2.453 . S
Tb160 O164 2.596 . S
Tb160 O165 2.374 . S
Tb160 O173 2.343 . S
Tb160 O175 2.353 . S
Tb160 O177 2.427 . S
Tb160 O178 2.513 . S
C161 O165 1.251 . S
C161 O167 1.263 . S
Tb162 O164 2.343 . S
Tb162 O167 2.353 . S
Tb162 O170 2.427 . S
Tb162 O171 2.513 . S
Tb162 O172 2.453 . S
Tb162 O173 2.596 . S
Tb162 O174 2.374 . S
O163 Tb160 2.453 . S
O163 C179 1.245 . S
O164 Tb160 2.596 . S
O164 Tb162 2.343 . S
O164 C179 1.259 . S
O165 Tb160 2.374 . S
O165 C161 1.251 . S
C166 O170 1.275 . S
C166 O171 1.246 . S
O167 C161 1.263 . S
O167 Tb162 2.353 . S
C168 O172 1.245 . S
C168 O173 1.259 . S
C169 O174 1.250 . S
C169 O175 1.263 . S
O170 Tb162 2.427 . S
O170 C166 1.275 . S
O171 Tb162 2.513 . S
O171 C166 1.246 . S
O172 Tb162 2.453 . S
O172 C168 1.245 . S
O173 Tb160 2.343 . S
O173 Tb162 2.596 . S
O173 C168 1.259 . S
O174 Tb162 2.374 . S
O174 C169 1.250 . S
O175 Tb160 2.353 . S
O175 C169 1.263 . S
C176 O177 1.275 . S
C176 O178 1.246 . S
O177 Tb160 2.427 . S
O177 C176 1.275 . S
O178 Tb160 2.513 . S
O178 C176 1.246 . S
C179 O163 1.245 . S
C179 O164 1.259 . S
Tb180 O183 2.453 . S
Tb180 O184 2.596 . S
Tb180 O185 2.374 . S
Tb180 O193 2.343 . S
Tb180 O195 2.353 . S
Tb180 O197 2.427 . S
Tb180 O198 2.513 . S
C181 O185 1.251 1_655 S
C181 O187 1.263 1_655 S
Tb182 O184 2.343 . S
Tb182 O187 2.353 . S
Tb182 O190 2.427 1_455 S
Tb182 O191 2.513 . S
Tb182 O192 2.453 . S
Tb182 O193 2.596 . S
Tb182 O194 2.374 . S
O183 Tb180 2.453 . S
O183 C199 1.245 . S
O184 Tb180 2.596 . S
O184 Tb182 2.343 . S
O184 C199 1.259 . S
O185 Tb180 2.374 . S
O185 C181 1.251 1_455 S
C186 O190 1.275 1_455 S
C186 O191 1.246 . S
O187 C181 1.263 1_455 S
O187 Tb182 2.353 . S
C188 O192 1.245 . S
C188 O193 1.259 . S
C189 O194 1.250 . S
C189 O195 1.263 . S
O190 Tb182 2.427 1_655 S
O190 C186 1.275 1_655 S
O191 Tb182 2.513 . S
O191 C186 1.246 . S
O192 Tb182 2.453 . S
O192 C188 1.245 . S
O193 Tb180 2.343 . S
O193 Tb182 2.596 . S
O193 C188 1.259 . S
O194 Tb182 2.374 . S
O194 C189 1.250 . S
O195 Tb180 2.353 . S
O195 C189 1.263 . S
C196 O197 1.275 . S
C196 O198 1.246 . S
O197 Tb180 2.427 . S
O197 C196 1.275 . S
O198 Tb180 2.513 . S
O198 C196 1.246 . S
C199 O183 1.245 . S
C199 O184 1.259 . S
Tb200 O203 2.453 . S
Tb200 O204 2.596 . S
Tb200 O205 2.374 . S
Tb200 O213 2.343 . S
Tb200 O215 2.353 . S
Tb200 O217 2.427 . S
Tb200 O218 2.513 . S
C201 O205 1.251 1_565 S
C201 O207 1.263 1_565 S
Tb202 O204 2.343 . S
Tb202 O207 2.353 . S
Tb202 O210 2.427 1_545 S
Tb202 O211 2.513 . S
Tb202 O212 2.453 . S
Tb202 O213 2.596 . S
Tb202 O214 2.374 . S
O203 Tb200 2.453 . S
O203 C219 1.245 . S
O204 Tb200 2.596 . S
O204 Tb202 2.343 . S
O204 C219 1.259 . S
O205 Tb200 2.374 . S
O205 C201 1.251 1_545 S
C206 O210 1.275 1_545 S
C206 O211 1.246 . S
O207 C201 1.263 1_545 S
O207 Tb202 2.353 . S
C208 O212 1.245 . S
C208 O213 1.259 . S
C209 O214 1.250 . S
C209 O215 1.263 . S
O210 Tb202 2.427 1_565 S
O210 C206 1.275 1_565 S
O211 Tb202 2.513 . S
O211 C206 1.246 . S
O212 Tb202 2.453 . S
O212 C208 1.245 . S
O213 Tb200 2.343 . S
O213 Tb202 2.596 . S
O213 C208 1.259 . S
O214 Tb202 2.374 . S
O214 C209 1.250 . S
O215 Tb200 2.353 . S
O215 C209 1.263 . S
C216 O217 1.275 . S
C216 O218 1.246 . S
O217 Tb200 2.427 . S
O217 C216 1.275 . S
O218 Tb200 2.513 . S
O218 C216 1.246 . S
C219 O203 1.245 . S
C219 O204 1.259 . S
Tb220 O223 2.453 . S
Tb220 O224 2.596 . S
Tb220 O225 2.374 . S
Tb220 O233 2.343 . S
Tb220 O235 2.353 . S
Tb220 O237 2.427 . S
Tb220 O238 2.513 . S
C221 O225 1.251 . S
C221 O227 1.263 . S
Tb222 O224 2.343 . S
Tb222 O227 2.353 . S
Tb222 O230 2.427 . S
Tb222 O231 2.513 . S
Tb222 O232 2.453 . S
Tb222 O233 2.596 . S
Tb222 O234 2.374 . S
O223 Tb220 2.453 . S
O223 C239 1.245 . S
O224 Tb220 2.596 . S
O224 Tb222 2.343 . S
O224 C239 1.259 . S
O225 Tb220 2.374 . S
O225 C221 1.251 . S
C226 O230 1.275 . S
C226 O231 1.246 . S
O227 C221 1.263 . S
O227 Tb222 2.353 . S
C228 O232 1.245 . S
C228 O233 1.259 . S
C229 O234 1.250 . S
C229 O235 1.263 . S
O230 Tb222 2.427 . S
O230 C226 1.275 . S
O231 Tb222 2.513 . S
O231 C226 1.246 . S
O232 Tb222 2.453 . S
O232 C228 1.245 . S
O233 Tb220 2.343 . S
O233 Tb222 2.596 . S
O233 C228 1.259 . S
O234 Tb222 2.374 . S
O234 C229 1.250 . S
O235 Tb220 2.353 . S
O235 C229 1.263 . S
C236 O237 1.275 . S
C236 O238 1.246 . S
O237 Tb220 2.427 . S
O237 C236 1.275 . S
O238 Tb220 2.513 . S
O238 C236 1.246 . S
C239 O223 1.245 . S
C239 O224 1.259 . S
H240 C248 0.950 . S
H241 C253 0.950 . S
H242 C250 0.950 . S
H243 C252 0.950 . S
H244 C254 0.950 . S
H245 C256 0.950 . S
H246 C258 0.950 1_545 S
H247 C259 0.950 . S
C248 H240 0.950 . S
C248 C249 1.386 . S
C248 C250 1.391 . S
C249 C248 1.386 . S
C249 C253 1.393 . S
C250 H242 0.950 . S
C250 C248 1.391 . S
C250 C251 1.400 . S
C251 C250 1.400 . S
C251 C252 1.398 . S
C251 C257 1.491 . S
C252 H243 0.950 . S
C252 C251 1.398 . S
C252 C253 1.391 . S
C253 H241 0.950 . S
C253 C249 1.393 . S
C253 C252 1.391 . S
C254 H244 0.950 . S
C254 C255 1.386 . S
C254 C256 1.391 . S
C255 C254 1.386 . S
C255 C259 1.393 1_565 S
C256 H245 0.950 . S
C256 C254 1.391 . S
C256 C257 1.400 . S
C257 C251 1.491 . S
C257 C256 1.400 . S
C257 C258 1.398 . S
C258 H246 0.950 1_565 S
C258 C257 1.398 . S
C258 C259 1.391 1_565 S
C259 H247 0.950 . S
C259 C255 1.393 1_545 S
C259 C258 1.391 1_545 S
H260 C268 0.950 . S
H261 C273 0.950 . S
H262 C270 0.950 . S
H263 C272 0.950 . S
H264 C274 0.950 . S
H265 C276 0.950 . S
H266 C278 0.950 . S
H267 C279 0.950 . S
C268 H260 0.950 . S
C268 C269 1.386 . S
C268 C270 1.391 . S
C269 C268 1.386 . S
C269 C273 1.393 . S
C270 H262 0.950 . S
C270 C268 1.391 . S
C270 C271 1.400 . S
C271 C270 1.400 . S
C271 C272 1.398 . S
C271 C277 1.491 . S
C272 H263 0.950 . S
C272 C271 1.398 . S
C272 C273 1.391 . S
C273 H261 0.950 . S
C273 C269 1.393 . S
C273 C272 1.391 . S
C274 H264 0.950 . S
C274 C275 1.386 . S
C274 C276 1.391 . S
C275 C274 1.386 . S
C275 C279 1.393 . S
C276 H265 0.950 . S
C276 C274 1.391 . S
C276 C277 1.400 . S
C277 C271 1.491 . S
C277 C276 1.400 . S
C277 C278 1.398 . S
C278 H266 0.950 . S
C278 C277 1.398 . S
C278 C279 1.391 . S
C279 H267 0.950 . S
C279 C275 1.393 . S
C279 C278 1.391 . S
H280 C288 0.950 . S
H281 C293 0.950 . S
H282 C290 0.950 . S
H283 C292 0.950 1_655 S
H284 C294 0.950 . S
H285 C296 0.950 . S
H286 C298 0.950 . S
H287 C299 0.950 . S
C288 H280 0.950 . S
C288 C289 1.386 . S
C288 C290 1.391 . S
C289 C288 1.386 . S
C289 C293 1.393 1_455 S
C290 H282 0.950 . S
C290 C288 1.391 . S
C290 C291 1.400 . S
C291 C290 1.400 . S
C291 C292 1.398 . S
C291 C297 1.491 . S
C292 H283 0.950 1_455 S
C292 C291 1.398 . S
C292 C293 1.391 1_455 S
C293 H281 0.950 . S
C293 C289 1.393 1_655 S
C293 C292 1.391 1_655 S
C294 H284 0.950 . S
C294 C295 1.386 . S
C294 C296 1.391 . S
C295 C294 1.386 . S
C295 C299 1.393 . S
C296 H285 0.950 . S
C296 C294 1.391 . S
C296 C297 1.400 . S
C297 C291 1.491 . S
C297 C296 1.400 . S
C297 C298 1.398 . S
C298 H286 0.950 . S
C298 C297 1.398 . S
C298 C299 1.391 . S
C299 H287 0.950 . S
C299 C295 1.393 . S
C299 C298 1.391 . S
H300 C308 0.950 . S
H301 C313 0.950 . S
H302 C310 0.950 . S
H303 C312 0.950 . S
H304 C314 0.950 . S
H305 C316 0.950 . S
H306 C318 0.950 1_565 S
H307 C319 0.950 . S
C308 H300 0.950 . S
C308 C309 1.386 . S
C308 C310 1.391 . S
C309 C308 1.386 . S
C309 C313 1.393 . S
C310 H302 0.950 . S
C310 C308 1.391 . S
C310 C311 1.400 . S
C311 C310 1.400 . S
C311 C312 1.398 . S
C311 C317 1.491 . S
C312 H303 0.950 . S
C312 C311 1.398 . S
C312 C313 1.391 . S
C313 H301 0.950 . S
C313 C309 1.393 . S
C313 C312 1.391 . S
C314 H304 0.950 . S
C314 C315 1.386 . S
C314 C316 1.391 . S
C315 C314 1.386 . S
C315 C319 1.393 1_545 S
C316 H305 0.950 . S
C316 C314 1.391 . S
C316 C317 1.400 . S
C317 C311 1.491 . S
C317 C316 1.400 . S
C317 C318 1.398 . S
C318 H306 0.950 1_545 S
C318 C317 1.398 . S
C318 C319 1.391 1_545 S
C319 H307 0.950 . S
C319 C315 1.393 1_565 S
C319 C318 1.391 1_565 S
H320 C328 0.950 . S
H321 C333 0.950 . S
H322 C330 0.950 . S
H323 C332 0.950 . S
H324 C334 0.950 1_554 S
H325 C336 0.950 . S
H326 C338 0.950 . S
H327 C339 0.950 . S
C328 H320 0.950 . S
C328 C329 1.386 . S
C328 C330 1.391 . S
C329 C328 1.386 . S
C329 C333 1.393 . S
C330 H322 0.950 . S
C330 C328 1.391 . S
C330 C331 1.400 . S
C331 C330 1.400 . S
C331 C332 1.398 . S
C331 C337 1.491 . S
C332 H323 0.950 . S
C332 C331 1.398 . S
C332 C333 1.391 . S
C333 H321 0.950 . S
C333 C329 1.393 . S
C333 C332 1.391 . S
C334 H324 0.950 1_556 S
C334 C335 1.386 1_556 S
C334 C336 1.391 . S
C335 C334 1.386 1_554 S
C335 C339 1.393 . S
C336 H325 0.950 . S
C336 C334 1.391 . S
C336 C337 1.400 . S
C337 C331 1.491 . S
C337 C336 1.400 . S
C337 C338 1.398 . S
C338 H326 0.950 . S
C338 C337 1.398 . S
C338 C339 1.391 1_556 S
C339 H327 0.950 . S
C339 C335 1.393 . S
C339 C338 1.391 1_554 S
H340 C348 0.950 . S
H341 C353 0.950 . S
H342 C350 0.950 . S
H343 C352 0.950 . S
H344 C354 0.950 . S
H345 C356 0.950 . S
H346 C358 0.950 . S
H347 C359 0.950 . S
C348 H340 0.950 . S
C348 C349 1.386 . S
C348 C350 1.391 . S
C349 C348 1.386 . S
C349 C353 1.393 . S
C350 H342 0.950 . S
C350 C348 1.391 . S
C350 C351 1.400 . S
C351 C350 1.400 . S
C351 C352 1.398 . S
C351 C357 1.491 . S
C352 H343 0.950 . S
C352 C351 1.398 . S
C352 C353 1.391 . S
C353 H341 0.950 . S
C353 C349 1.393 . S
C353 C352 1.391 . S
C354 H344 0.950 . S
C354 C355 1.386 . S
C354 C356 1.391 . S
C355 C354 1.386 . S
C355 C359 1.393 . S
C356 H345 0.950 . S
C356 C354 1.391 . S
C356 C357 1.400 . S
C357 C351 1.491 . S
C357 C356 1.400 . S
C357 C358 1.398 . S
C358 H346 0.950 . S
C358 C357 1.398 . S
C358 C359 1.391 . S
C359 H347 0.950 . S
C359 C355 1.393 . S
C359 C358 1.391 . S
H360 C368 0.950 . S
H361 C373 0.950 . S
H362 C370 0.950 . S
H363 C372 0.950 . S
H364 C374 0.950 . S
H365 C376 0.950 . S
H366 C378 0.950 . S
H367 C379 0.950 . S
C368 H360 0.950 . S
C368 C369 1.386 . S
C368 C370 1.391 . S
C369 C368 1.386 . S
C369 C373 1.393 . S
C370 H362 0.950 . S
C370 C368 1.391 . S
C370 C371 1.400 . S
C371 C370 1.400 . S
C371 C372 1.398 . S
C371 C377 1.491 . S
C372 H363 0.950 . S
C372 C371 1.398 . S
C372 C373 1.391 . S
C373 H361 0.950 . S
C373 C369 1.393 . S
C373 C372 1.391 . S
C374 H364 0.950 . S
C374 C375 1.386 . S
C374 C376 1.391 . S
C375 C374 1.386 . S
C375 C379 1.393 . S
C376 H365 0.950 . S
C376 C374 1.391 . S
C376 C377 1.400 . S
C377 C371 1.491 . S
C377 C376 1.400 . S
C377 C378 1.398 . S
C378 H366 0.950 . S
C378 C377 1.398 . S
C378 C379 1.391 . S
C379 H367 0.950 . S
C379 C375 1.393 . S
C379 C378 1.391 . S
H380 C388 0.950 . S
H381 C393 0.950 . S
H382 C390 0.950 1_565 S
H383 C392 0.950 . S
H384 C394 0.950 . S
H385 C396 0.950 . S
H386 C398 0.950 . S
H387 C399 0.950 . S
C388 H380 0.950 . S
C388 C389 1.386 1_565 S
C388 C390 1.391 1_565 S
C389 C388 1.386 1_545 S
C389 C393 1.393 . S
C390 H382 0.950 1_545 S
C390 C388 1.391 1_545 S
C390 C391 1.400 . S
C391 C390 1.400 . S
C391 C392 1.398 . S
C391 C397 1.491 . S
C392 H383 0.950 . S
C392 C391 1.398 . S
C392 C393 1.391 . S
C393 H381 0.950 . S
C393 C389 1.393 . S
C393 C392 1.391 . S
C394 H384 0.950 . S
C394 C395 1.386 . S
C394 C396 1.391 . S
C395 C394 1.386 . S
C395 C399 1.393 . S
C396 H385 0.950 . S
C396 C394 1.391 . S
C396 C397 1.400 . S
C397 C391 1.491 . S
C397 C396 1.400 . S
C397 C398 1.398 . S
C398 H386 0.950 . S
C398 C397 1.398 . S
C398 C399 1.391 . S
C399 H387 0.950 . S
C399 C395 1.393 . S
C399 C398 1.391 . S
H400 C408 0.950 . S
H401 C413 0.950 . S
H402 C410 0.950 . S
H403 C412 0.950 . S
H404 C414 0.950 . S
H405 C416 0.950 . S
H406 C418 0.950 . S
H407 C419 0.950 . S
C408 H400 0.950 . S
C408 C409 1.386 . S
C408 C410 1.391 . S
C409 C408 1.386 . S
C409 C413 1.393 . S
C410 H402 0.950 . S
C410 C408 1.391 . S
C410 C411 1.400 . S
C411 C410 1.400 . S
C411 C412 1.398 . S
C411 C417 1.491 . S
C412 H403 0.950 . S
C412 C411 1.398 . S
C412 C413 1.391 . S
C413 H401 0.950 . S
C413 C409 1.393 . S
C413 C412 1.391 . S
C414 H404 0.950 . S
C414 C415 1.386 . S
C414 C416 1.391 . S
C415 C414 1.386 . S
C415 C419 1.393 . S
C416 H405 0.950 . S
C416 C414 1.391 . S
C416 C417 1.400 . S
C417 C411 1.491 . S
C417 C416 1.400 . S
C417 C418 1.398 . S
C418 H406 0.950 . S
C418 C417 1.398 . S
C418 C419 1.391 . S
C419 H407 0.950 . S
C419 C415 1.393 . S
C419 C418 1.391 . S
H420 C428 0.950 . S
H421 C433 0.950 . S
H422 C430 0.950 . S
H423 C432 0.950 . S
H424 C434 0.950 . S
H425 C436 0.950 . S
H426 C438 0.943 1_455 S
H427 C439 0.950 . S
C428 H420 0.950 . S
C428 C429 1.386 . S
C428 C430 1.391 . S
C429 C428 1.386 . S
C429 C433 1.393 . S
C430 H422 0.950 . S
C430 C428 1.391 . S
C430 C431 1.400 . S
C431 C430 1.400 . S
C431 C432 1.398 . S
C431 C437 1.491 . S
C432 H423 0.950 . S
C432 C431 1.398 . S
C432 C433 1.391 . S
C433 H421 0.950 . S
C433 C429 1.393 . S
C433 C432 1.391 . S
C434 H424 0.950 . S
C434 C435 1.386 . S
C434 C436 1.391 1_556 S
C435 C434 1.386 . S
C435 C439 1.393 1_656 S
C436 H425 0.950 . S
C436 C434 1.391 1_554 S
C436 C437 1.400 . S
C437 C431 1.491 . S
C437 C436 1.400 . S
C437 C438 1.398 . S
C438 H426 0.943 1_655 S
C438 C437 1.398 . S
C438 C439 1.391 1_655 S
C439 H427 0.950 . S
C439 C435 1.393 1_454 S
C439 C438 1.391 1_455 S
H440 C448 0.950 . S
H441 C453 0.950 . S
H442 C450 0.950 . S
H443 C452 0.950 . S
H444 C454 0.950 . S
H445 C456 0.950 . S
H446 C458 0.950 . S
H447 C459 0.950 . S
C448 H440 0.950 . S
C448 C449 1.386 . S
C448 C450 1.391 . S
C449 C448 1.386 . S
C449 C453 1.393 . S
C450 H442 0.950 . S
C450 C448 1.391 . S
C450 C451 1.400 . S
C451 C450 1.400 . S
C451 C452 1.398 . S
C451 C457 1.491 . S
C452 H443 0.950 . S
C452 C451 1.398 . S
C452 C453 1.391 . S
C453 H441 0.950 . S
C453 C449 1.393 . S
C453 C452 1.391 . S
C454 H444 0.950 . S
C454 C455 1.386 . S
C454 C456 1.391 . S
C455 C454 1.386 . S
C455 C459 1.393 . S
C456 H445 0.950 . S
C456 C454 1.391 . S
C456 C457 1.400 . S
C457 C451 1.491 . S
C457 C456 1.400 . S
C457 C458 1.398 . S
C458 H446 0.950 . S
C458 C457 1.398 . S
C458 C459 1.391 . S
C459 H447 0.950 . S
C459 C455 1.393 . S
C459 C458 1.391 . S
H460 C468 0.950 . S
H461 C473 0.950 . S
H462 C470 0.950 . S
H463 C472 0.950 . S
H464 C474 0.950 . S
H465 C476 0.950 . S
H466 C478 0.950 . S
H467 C479 0.950 . S
C468 H460 0.950 . S
C468 C469 1.386 . S
C468 C470 1.391 . S
C469 C468 1.386 . S
C469 C473 1.393 . S
C470 H462 0.950 . S
C470 C468 1.391 . S
C470 C471 1.400 . S
C471 C470 1.400 . S
C471 C472 1.398 . S
C471 C477 1.491 . S
C472 H463 0.950 . S
C472 C471 1.398 . S
C472 C473 1.391 . S
C473 H461 0.950 . S
C473 C469 1.393 . S
C473 C472 1.391 . S
C474 H464 0.950 . S
C474 C475 1.386 . S
C474 C476 1.391 . S
C475 C474 1.386 . S
C475 C479 1.393 . S
C476 H465 0.950 . S
C476 C474 1.391 . S
C476 C477 1.400 . S
C477 C471 1.491 . S
C477 C476 1.400 . S
C477 C478 1.398 . S
C478 H466 0.950 . S
C478 C477 1.398 . S
C478 C479 1.391 . S
C479 H467 0.950 . S
C479 C475 1.393 . S
C479 C478 1.391 . S
H480 C488 0.950 . S
H481 C493 0.950 . S
H482 C490 0.950 . S
H483 C492 0.950 . S
H484 C494 0.950 . S
H485 C496 0.950 . S
H486 C498 0.950 . S
H487 C499 0.950 1_545 S
C488 H480 0.950 . S
C488 C489 1.386 . S
C488 C490 1.391 . S
C489 C488 1.386 . S
C489 C493 1.393 . S
C490 H482 0.950 . S
C490 C488 1.391 . S
C490 C491 1.400 . S
C491 C490 1.400 . S
C491 C492 1.398 . S
C491 C497 1.491 . S
C492 H483 0.950 . S
C492 C491 1.398 . S
C492 C493 1.391 . S
C493 H481 0.950 . S
C493 C489 1.393 . S
C493 C492 1.391 . S
C494 H484 0.950 . S
C494 C495 1.386 . S
C494 C496 1.391 . S
C495 C494 1.386 . S
C495 C499 1.393 . S
C496 H485 0.950 . S
C496 C494 1.391 . S
C496 C497 1.400 . S
C497 C491 1.491 . S
C497 C496 1.400 . S
C497 C498 1.398 . S
C498 H486 0.950 . S
C498 C497 1.398 . S
C498 C499 1.391 . S
C499 H487 0.950 1_565 S
C499 C495 1.393 . S
C499 C498 1.391 . S
H500 C508 0.950 . S
H501 C513 0.950 . S
H502 C510 0.950 . S
H503 C512 0.950 . S
H504 C514 0.950 . S
H505 C516 0.950 . S
H506 C518 0.950 . S
H507 C519 0.950 . S
C508 H500 0.950 . S
C508 C509 1.386 . S
C508 C510 1.391 . S
C509 C508 1.386 . S
C509 C513 1.393 . S
C510 H502 0.950 . S
C510 C508 1.391 . S
C510 C511 1.400 . S
C511 C510 1.400 . S
C511 C512 1.398 . S
C511 C517 1.491 . S
C512 H503 0.950 . S
C512 C511 1.398 . S
C512 C513 1.391 . S
C513 H501 0.950 . S
C513 C509 1.393 . S
C513 C512 1.391 . S
C514 H504 0.950 . S
C514 C515 1.386 . S
C514 C516 1.391 . S
C515 C514 1.386 . S
C515 C519 1.393 . S
C516 H505 0.950 . S
C516 C514 1.391 . S
C516 C517 1.400 . S
C517 C511 1.491 . S
C517 C516 1.400 . S
C517 C518 1.398 . S
C518 H506 0.950 . S
C518 C517 1.398 . S
C518 C519 1.391 . S
C519 H507 0.950 . S
C519 C515 1.393 . S
C519 C518 1.391 . S
H520 C528 0.950 . S
H521 C533 0.950 . S
H522 C530 0.950 . S
H523 C532 0.950 . S
H524 C534 0.950 1_655 S
H525 C536 0.950 . S
H526 C538 0.950 . S
H527 C539 0.950 . S
C528 H520 0.950 . S
C528 C529 1.386 . S
C528 C530 1.391 . S
C529 C528 1.386 . S
C529 C533 1.393 . S
C530 H522 0.950 . S
C530 C528 1.391 . S
C530 C531 1.400 . S
C531 C530 1.400 . S
C531 C532 1.398 . S
C531 C537 1.491 . S
C532 H523 0.950 . S
C532 C531 1.398 . S
C532 C533 1.391 . S
C533 H521 0.950 . S
C533 C529 1.393 . S
C533 C532 1.391 . S
C534 H524 0.950 1_455 S
C534 C535 1.386 . S
C534 C536 1.391 . S
C535 C534 1.386 . S
C535 C539 1.393 . S
C536 H525 0.950 . S
C536 C534 1.391 . S
C536 C537 1.400 . S
C537 C531 1.491 . S
C537 C536 1.400 . S
C537 C538 1.398 . S
C538 H526 0.950 . S
C538 C537 1.398 . S
C538 C539 1.391 . S
C539 H527 0.950 . S
C539 C535 1.393 . S
C539 C538 1.391 . S
H540 C548 0.950 . S
H541 C553 0.950 . S
H542 C550 0.950 . S
H543 C552 0.950 . S
H544 C554 0.950 1_565 S
H545 C556 0.950 . S
H546 C558 0.950 . S
H547 C559 0.950 . S
C548 H540 0.950 . S
C548 C549 1.386 . S
C548 C550 1.391 . S
C549 C548 1.386 . S
C549 C553 1.393 . S
C550 H542 0.950 . S
C550 C548 1.391 . S
C550 C551 1.400 . S
C551 C550 1.400 . S
C551 C552 1.398 . S
C551 C557 1.491 . S
C552 H543 0.950 . S
C552 C551 1.398 . S
C552 C553 1.391 . S
C553 H541 0.950 . S
C553 C549 1.393 . S
C553 C552 1.391 . S
C554 H544 0.950 1_545 S
C554 C555 1.386 . S
C554 C556 1.391 . S
C555 C554 1.386 . S
C555 C559 1.393 . S
C556 H545 0.950 . S
C556 C554 1.391 . S
C556 C557 1.400 . S
C557 C551 1.491 . S
C557 C556 1.400 . S
C557 C558 1.398 . S
C558 H546 0.950 . S
C558 C557 1.398 . S
C558 C559 1.391 . S
C559 H547 0.950 . S
C559 C555 1.393 . S
C559 C558 1.391 . S
H560 C568 0.950 . S
H561 C573 0.947 1_554 S
H562 C570 0.950 . S
H563 C572 0.950 1_554 S
H564 C574 0.950 . S
H565 C576 0.950 . S
H566 C578 0.950 . S
H567 C579 0.950 . S
C568 H560 0.950 . S
C568 C569 1.386 . S
C568 C570 1.391 . S
C569 C568 1.386 . S
C569 C573 1.393 . S
C570 H562 0.950 . S
C570 C568 1.391 . S
C570 C571 1.400 . S
C571 C570 1.400 . S
C571 C572 1.398 . S
C571 C577 1.491 . S
C572 H563 0.950 1_556 S
C572 C571 1.398 . S
C572 C573 1.391 . S
C573 H561 0.947 1_556 S
C573 C569 1.393 . S
C573 C572 1.391 . S
C574 H564 0.950 . S
C574 C575 1.386 . S
C574 C576 1.391 . S
C575 C574 1.386 . S
C575 C579 1.393 1_554 S
C576 H565 0.950 . S
C576 C574 1.391 . S
C576 C577 1.400 1_554 S
C577 C571 1.491 . S
C577 C576 1.400 1_556 S
C577 C578 1.398 . S
C578 H566 0.950 . S
C578 C577 1.398 . S
C578 C579 1.391 . S
C579 H567 0.950 . S
C579 C575 1.393 1_556 S
C579 C578 1.391 . S
H580 C588 0.946 1_455 S
H581 C593 0.950 . S
H582 C590 0.950 . S
H583 C592 0.950 . S
H584 C594 0.950 . S
H585 C596 0.950 . S
H586 C598 0.950 . S
H587 C599 0.950 . S
C588 H580 0.946 1_655 S
C588 C589 1.386 . S
C588 C590 1.391 . S
C589 C588 1.386 . S
C589 C593 1.393 . S
C590 H582 0.950 . S
C590 C588 1.391 . S
C590 C591 1.400 . S
C591 C590 1.400 . S
C591 C592 1.398 . S
C591 C597 1.491 . S
C592 H583 0.950 . S
C592 C591 1.398 . S
C592 C593 1.391 . S
C593 H581 0.950 . S
C593 C589 1.393 . S
C593 C592 1.391 . S
C594 H584 0.950 . S
C594 C595 1.386 . S
C594 C596 1.391 . S
C595 C594 1.386 . S
C595 C599 1.393 . S
C596 H585 0.950 . S
C596 C594 1.391 . S
C596 C597 1.400 . S
C597 C591 1.491 . S
C597 C596 1.400 . S
C597 C598 1.398 . S
C598 H586 0.950 . S
C598 C597 1.398 . S
C598 C599 1.391 . S
C599 H587 0.950 . S
C599 C595 1.393 . S
C599 C598 1.391 . S
H600 C608 0.950 1_655 S
H601 C613 0.950 . S
H602 C610 0.950 . S
H603 C612 0.950 . S
H604 C614 0.950 . S
H605 C616 0.950 . S
H606 C618 0.950 . S
H607 C619 0.950 . S
C608 H600 0.950 1_455 S
C608 C609 1.386 . S
C608 C610 1.391 . S
C609 C608 1.386 . S
C609 C613 1.393 . S
C610 H602 0.950 . S
C610 C608 1.391 . S
C610 C611 1.400 . S
C611 C610 1.400 . S
C611 C612 1.398 . S
C611 C617 1.491 . S
C612 H603 0.950 . S
C612 C611 1.398 . S
C612 C613 1.391 . S
C613 H601 0.950 . S
C613 C609 1.393 . S
C613 C612 1.391 . S
C614 H604 0.950 . S
C614 C615 1.386 . S
C614 C616 1.391 . S
C615 C614 1.386 . S
C615 C619 1.393 . S
C616 H605 0.950 . S
C616 C614 1.391 . S
C616 C617 1.400 . S
C617 C611 1.491 . S
C617 C616 1.400 . S
C617 C618 1.398 . S
C618 H606 0.950 . S
C618 C617 1.398 . S
C618 C619 1.391 . S
C619 H607 0.950 . S
C619 C615 1.393 . S
C619 C618 1.391 . S
H620 C628 0.950 . S
H621 C633 0.950 . S
H622 C630 0.950 . S
H623 C632 0.950 . S
H624 C634 0.950 . S
H625 C636 0.950 . S
H626 C638 0.950 . S
H627 C639 0.950 . S
C628 H620 0.950 . S
C628 C629 1.386 . S
C628 C630 1.391 . S
C629 C628 1.386 . S
C629 C633 1.393 . S
C630 H622 0.950 . S
C630 C628 1.391 . S
C630 C631 1.400 . S
C631 C630 1.400 . S
C631 C632 1.398 . S
C631 C637 1.491 . S
C632 H623 0.950 . S
C632 C631 1.398 . S
C632 C633 1.391 . S
C633 H621 0.950 . S
C633 C629 1.393 . S
C633 C632 1.391 . S
C634 H624 0.950 . S
C634 C635 1.386 . S
C634 C636 1.391 . S
C635 C634 1.386 . S
C635 C639 1.393 . S
C636 H625 0.950 . S
C636 C634 1.391 . S
C636 C637 1.400 . S
C637 C631 1.491 . S
C637 C636 1.400 . S
C637 C638 1.398 . S
C638 H626 0.950 . S
C638 C637 1.398 . S
C638 C639 1.391 . S
C639 H627 0.950 . S
C639 C635 1.393 . S
C639 C638 1.391 . S
H640 C648 0.950 . S
H641 C653 0.950 . S
H642 C650 0.950 . S
H643 C652 0.950 . S
H644 C654 0.950 . S
H645 C656 0.950 . S
H646 C658 0.950 . S
H647 C659 0.950 . S
C648 H640 0.950 . S
C648 C649 1.386 . S
C648 C650 1.391 . S
C649 C648 1.386 . S
C649 C653 1.393 . S
C650 H642 0.950 . S
C650 C648 1.391 . S
C650 C651 1.400 . S
C651 C650 1.400 . S
C651 C652 1.398 . S
C651 C657 1.491 . S
C652 H643 0.950 . S
C652 C651 1.398 . S
C652 C653 1.391 . S
C653 H641 0.950 . S
C653 C649 1.393 . S
C653 C652 1.391 . S
C654 H644 0.950 . S
C654 C655 1.386 . S
C654 C656 1.391 . S
C655 C654 1.386 . S
C655 C659 1.393 . S
C656 H645 0.950 . S
C656 C654 1.391 . S
C656 C657 1.400 . S
C657 C651 1.491 . S
C657 C656 1.400 . S
C657 C658 1.398 . S
C658 H646 0.950 . S
C658 C657 1.398 . S
C658 C659 1.391 . S
C659 H647 0.950 . S
C659 C655 1.393 . S
C659 C658 1.391 . S
H660 C668 0.950 . S
H661 C673 0.990 . S
H662 C670 0.950 . S
H663 C672 0.950 1_556 S
H664 C674 0.950 . S
H665 C676 0.950 . S
H666 C678 0.950 . S
H667 C679 0.950 . S
C668 H660 0.950 . S
C668 C669 1.386 . S
C668 C670 1.391 . S
C669 C668 1.386 . S
C669 C673 1.393 . S
C670 H662 0.950 . S
C670 C668 1.391 . S
C670 C671 1.400 . S
C671 C670 1.400 . S
C671 C672 1.398 . S
C671 C677 1.491 . S
C672 H663 0.950 1_554 S
C672 C671 1.398 . S
C672 C673 1.391 . S
C673 H661 0.990 . S
C673 C669 1.393 . S
C673 C672 1.391 . S
C674 H664 0.950 . S
C674 C675 1.386 . S
C674 C676 1.391 . S
C675 C674 1.386 . S
C675 C679 1.393 1_556 S
C676 H665 0.950 . S
C676 C674 1.391 . S
C676 C677 1.400 1_556 S
C677 C671 1.491 . S
C677 C676 1.400 1_554 S
C677 C678 1.398 . S
C678 H666 0.950 . S
C678 C677 1.398 . S
C678 C679 1.391 . S
C679 H667 0.950 . S
C679 C675 1.393 1_554 S
C679 C678 1.391 . S
H680 C688 0.950 . S
H681 C693 0.950 . S
H682 C690 0.950 . S
H683 C692 0.950 . S
H684 C694 0.950 . S
H685 C696 0.950 . S
H686 C698 0.950 . S
H687 C699 0.950 . S
C688 H680 0.950 . S
C688 C689 1.386 . S
C688 C690 1.391 . S
C689 C688 1.386 . S
C689 C693 1.393 . S
C690 H682 0.950 . S
C690 C688 1.391 . S
C690 C691 1.400 . S
C691 C690 1.400 . S
C691 C692 1.398 . S
C691 C697 1.491 . S
C692 H683 0.950 . S
C692 C691 1.398 . S
C692 C693 1.391 . S
C693 H681 0.950 . S
C693 C689 1.393 . S
C693 C692 1.391 . S
C694 H684 0.950 . S
C694 C695 1.386 . S
C694 C696 1.391 . S
C695 C694 1.386 . S
C695 C699 1.393 . S
C696 H685 0.950 . S
C696 C694 1.391 . S
C696 C697 1.400 . S
C697 C691 1.491 . S
C697 C696 1.400 . S
C697 C698 1.398 . S
C698 H686 0.950 . S
C698 C697 1.398 . S
C698 C699 1.391 . S
C699 H687 0.950 . S
C699 C695 1.393 . S
C699 C698 1.391 . S
H700 C708 0.950 . S
H701 C713 0.950 . S
H702 C710 0.950 . S
H703 C712 0.950 . S
H704 C714 0.950 . S
H705 C716 0.950 . S
H706 C718 0.950 . S
H707 C719 0.950 . S
C708 H700 0.950 . S
C708 C709 1.386 . S
C708 C710 1.391 . S
C709 C708 1.386 . S
C709 C713 1.393 . S
C710 H702 0.950 . S
C710 C708 1.391 . S
C710 C711 1.400 . S
C711 C710 1.400 . S
C711 C712 1.398 . S
C711 C717 1.491 . S
C712 H703 0.950 . S
C712 C711 1.398 . S
C712 C713 1.391 . S
C713 H701 0.950 . S
C713 C709 1.393 . S
C713 C712 1.391 . S
C714 H704 0.950 . S
C714 C715 1.386 . S
C714 C716 1.391 . S
C715 C714 1.386 . S
C715 C719 1.393 . S
C716 H705 0.950 . S
C716 C714 1.391 . S
C716 C717 1.400 . S
C717 C711 1.491 . S
C717 C716 1.400 . S
C717 C718 1.398 . S
C718 H706 0.950 . S
C718 C717 1.398 . S
C718 C719 1.391 . S
C719 H707 0.950 . S
C719 C715 1.393 . S
C719 C718 1.391 . S
H720 C728 0.950 . S
H721 C733 0.950 . S
H722 C730 0.950 . S
H723 C732 0.950 . S
H724 C734 0.950 . S
H725 C736 0.950 . S
H726 C738 0.950 . S
H727 C739 0.950 . S
C728 H720 0.950 . S
C728 C729 1.386 . S
C728 C730 1.391 . S
C729 C728 1.386 . S
C729 C733 1.393 . S
C730 H722 0.950 . S
C730 C728 1.391 . S
C730 C731 1.400 . S
C731 C730 1.400 . S
C731 C732 1.398 . S
C731 C737 1.491 . S
C732 H723 0.950 . S
C732 C731 1.398 . S
C732 C733 1.391 . S
C733 H721 0.950 . S
C733 C729 1.393 . S
C733 C732 1.391 . S
C734 H724 0.950 . S
C734 C735 1.386 . S
C734 C736 1.391 . S
C735 C734 1.386 . S
C735 C739 1.393 . S
C736 H725 0.950 . S
C736 C734 1.391 . S
C736 C737 1.400 . S
C737 C731 1.491 . S
C737 C736 1.400 . S
C737 C738 1.398 . S
C738 H726 0.950 . S
C738 C737 1.398 . S
C738 C739 1.391 . S
C739 H727 0.950 . S
C739 C735 1.393 . S
C739 C738 1.391 . S
H740 C748 0.950 . S
H741 C753 0.950 . S
H742 C750 0.950 . S
H743 C752 0.950 . S
H744 C754 0.950 . S
H745 C756 0.950 . S
H746 C758 0.950 . S
H747 C759 0.950 . S
C748 H740 0.950 . S
C748 C749 1.386 . S
C748 C750 1.391 . S
C749 C748 1.386 . S
C749 C753 1.393 . S
C750 H742 0.950 . S
C750 C748 1.391 . S
C750 C751 1.400 . S
C751 C750 1.400 . S
C751 C752 1.398 . S
C751 C757 1.491 . S
C752 H743 0.950 . S
C752 C751 1.398 . S
C752 C753 1.391 . S
C753 H741 0.950 . S
C753 C749 1.393 . S
C753 C752 1.391 . S
C754 H744 0.950 . S
C754 C755 1.386 . S
C754 C756 1.391 . S
C755 C754 1.386 . S
C755 C759 1.393 . S
C756 H745 0.950 . S
C756 C754 1.391 . S
C756 C757 1.400 . S
C757 C751 1.491 . S
C757 C756 1.400 . S
C757 C758 1.398 . S
C758 H746 0.950 . S
C758 C757 1.398 . S
C758 C759 1.391 . S
C759 H747 0.950 . S
C759 C755 1.393 . S
C759 C758 1.391 . S
H760 C768 0.950 . S
H761 C773 0.950 . S
H762 C770 0.950 . S
H763 C772 0.950 . S
H764 C774 0.950 . S
H765 C776 0.950 . S
H766 C778 0.950 . S
H767 C779 0.950 . S
C768 H760 0.950 . S
C768 C769 1.386 . S
C768 C770 1.391 . S
C769 C768 1.386 . S
C769 C773 1.393 . S
C770 H762 0.950 . S
C770 C768 1.391 . S
C770 C771 1.400 . S
C771 C770 1.400 . S
C771 C772 1.398 . S
C771 C777 1.491 . S
C772 H763 0.950 . S
C772 C771 1.398 . S
C772 C773 1.391 . S
C773 H761 0.950 . S
C773 C769 1.393 . S
C773 C772 1.391 . S
C774 H764 0.950 . S
C774 C775 1.386 . S
C774 C776 1.391 . S
C775 C774 1.386 . S
C775 C779 1.393 . S
C776 H765 0.950 . S
C776 C774 1.391 . S
C776 C777 1.400 . S
C777 C771 1.491 . S
C777 C776 1.400 . S
C777 C778 1.398 . S
C778 H766 0.950 . S
C778 C777 1.398 . S
C778 C779 1.391 . S
C779 H767 0.950 . S
C779 C775 1.393 . S
C779 C778 1.391 . S
H780 C788 0.950 . S
H781 C793 0.950 . S
H782 C790 0.950 . S
H783 C792 0.950 . S
H784 C794 0.950 . S
H785 C796 0.950 . S
H786 C798 0.950 . S
H787 C799 0.950 . S
C788 H780 0.950 . S
C788 C789 1.386 . S
C788 C790 1.391 . S
C789 C788 1.386 . S
C789 C793 1.393 . S
C790 H782 0.950 . S
C790 C788 1.391 . S
C790 C791 1.400 . S
C791 C790 1.400 . S
C791 C792 1.398 . S
C791 C797 1.491 . S
C792 H783 0.950 . S
C792 C791 1.398 . S
C792 C793 1.391 . S
C793 H781 0.950 . S
C793 C789 1.393 . S
C793 C792 1.391 . S
C794 H784 0.950 . S
C794 C795 1.386 . S
C794 C796 1.391 . S
C795 C794 1.386 . S
C795 C799 1.393 . S
C796 H785 0.950 . S
C796 C794 1.391 . S
C796 C797 1.400 . S
C797 C791 1.491 . S
C797 C796 1.400 . S
C797 C798 1.398 . S
C798 H786 0.950 . S
C798 C797 1.398 . S
C798 C799 1.391 . S
C799 H787 0.950 . S
C799 C795 1.393 . S
C799 C798 1.391 . S
H800 C808 0.950 . S
H801 C813 0.950 . S
H802 C810 0.950 . S
H803 C812 0.950 . S
H804 C814 0.950 . S
H805 C816 0.950 . S
H806 C818 0.950 . S
H807 C819 0.950 . S
C808 H800 0.950 . S
C808 C809 1.386 . S
C808 C810 1.391 . S
C809 C808 1.386 . S
C809 C813 1.393 . S
C810 H802 0.950 . S
C810 C808 1.391 . S
C810 C811 1.400 . S
C811 C810 1.400 . S
C811 C812 1.398 . S
C811 C817 1.491 . S
C812 H803 0.950 . S
C812 C811 1.398 . S
C812 C813 1.391 . S
C813 H801 0.950 . S
C813 C809 1.393 . S
C813 C812 1.391 . S
C814 H804 0.950 . S
C814 C815 1.386 . S
C814 C816 1.391 . S
C815 C814 1.386 . S
C815 C819 1.393 . S
C816 H805 0.950 . S
C816 C814 1.391 . S
C816 C817 1.400 . S
C817 C811 1.491 . S
C817 C816 1.400 . S
C817 C818 1.398 . S
C818 H806 0.950 . S
C818 C817 1.398 . S
C818 C819 1.391 . S
C819 H807 0.950 . S
C819 C815 1.393 . S
C819 C818 1.391 . S
H820 C828 0.950 . S
H821 C833 0.950 . S
H822 C830 0.950 . S
H823 C832 0.950 . S
H824 C834 0.950 . S
H825 C836 0.950 . S
H826 C838 0.950 . S
H827 C839 0.950 . S
C828 H820 0.950 . S
C828 C829 1.386 . S
C828 C830 1.391 . S
C829 C828 1.386 . S
C829 C833 1.393 . S
C830 H822 0.950 . S
C830 C828 1.391 . S
C830 C831 1.400 . S
C831 C830 1.400 . S
C831 C832 1.398 . S
C831 C837 1.491 . S
C832 H823 0.950 . S
C832 C831 1.398 . S
C832 C833 1.391 . S
C833 H821 0.950 . S
C833 C829 1.393 . S
C833 C832 1.391 . S
C834 H824 0.950 . S
C834 C835 1.386 . S
C834 C836 1.391 . S
C835 C834 1.386 . S
C835 C839 1.393 . S
C836 H825 0.950 . S
C836 C834 1.391 . S
C836 C837 1.400 . S
C837 C831 1.491 . S
C837 C836 1.400 . S
C837 C838 1.398 . S
C838 H826 0.950 . S
C838 C837 1.398 . S
C838 C839 1.391 . S
C839 H827 0.950 . S
C839 C835 1.393 . S
C839 C838 1.391 . S
H840 C848 0.950 . S
H841 C853 0.950 . S
H842 C850 0.950 . S
H843 C852 0.950 . S
H844 C854 0.950 . S
H845 C856 0.950 . S
H846 C858 0.950 . S
H847 C859 0.950 . S
C848 H840 0.950 . S
C848 C849 1.386 . S
C848 C850 1.391 . S
C849 C848 1.386 . S
C849 C853 1.393 . S
C850 H842 0.950 . S
C850 C848 1.391 . S
C850 C851 1.400 . S
C851 C850 1.400 . S
C851 C852 1.398 . S
C851 C857 1.491 . S
C852 H843 0.950 . S
C852 C851 1.398 . S
C852 C853 1.391 . S
C853 H841 0.950 . S
C853 C849 1.393 . S
C853 C852 1.391 . S
C854 H844 0.950 . S
C854 C855 1.386 . S
C854 C856 1.391 . S
C855 C854 1.386 . S
C855 C859 1.393 . S
C856 H845 0.950 . S
C856 C854 1.391 . S
C856 C857 1.400 . S
C857 C851 1.491 . S
C857 C856 1.400 . S
C857 C858 1.398 . S
C858 H846 0.950 . S
C858 C857 1.398 . S
C858 C859 1.391 . S
C859 H847 0.950 . S
C859 C855 1.393 . S
C859 C858 1.391 . S
H860 C868 0.950 . S
H861 C873 0.950 . S
H862 C870 0.950 . S
H863 C872 0.950 . S
H864 C874 0.950 . S
H865 C876 0.950 . S
H866 C878 0.950 . S
H867 C879 0.950 . S
C868 H860 0.950 . S
C868 C869 1.386 . S
C868 C870 1.391 . S
C869 C868 1.386 . S
C869 C873 1.393 . S
C870 H862 0.950 . S
C870 C868 1.391 . S
C870 C871 1.400 . S
C871 C870 1.400 . S
C871 C872 1.398 . S
C871 C877 1.491 . S
C872 H863 0.950 . S
C872 C871 1.398 . S
C872 C873 1.391 . S
C873 H861 0.950 . S
C873 C869 1.393 . S
C873 C872 1.391 . S
C874 H864 0.950 . S
C874 C875 1.386 . S
C874 C876 1.391 . S
C875 C874 1.386 . S
C875 C879 1.393 . S
C876 H865 0.950 . S
C876 C874 1.391 . S
C876 C877 1.400 . S
C877 C871 1.491 . S
C877 C876 1.400 . S
C877 C878 1.398 . S
C878 H866 0.950 . S
C878 C877 1.398 . S
C878 C879 1.391 . S
C879 H867 0.950 . S
C879 C875 1.393 . S
C879 C878 1.391 . S
H880 C888 0.950 . S
H881 C893 0.950 . S
H882 C890 0.950 . S
H883 C892 0.950 . S
H884 C894 0.950 . S
H885 C896 0.950 . S
H886 C898 0.950 . S
H887 C899 0.950 . S
C888 H880 0.950 . S
C888 C889 1.386 . S
C888 C890 1.391 . S
C889 C888 1.386 . S
C889 C893 1.393 . S
C890 H882 0.950 . S
C890 C888 1.391 . S
C890 C891 1.400 . S
C891 C890 1.400 . S
C891 C892 1.398 . S
C891 C897 1.491 . S
C892 H883 0.950 . S
C892 C891 1.398 . S
C892 C893 1.391 . S
C893 H881 0.950 . S
C893 C889 1.393 . S
C893 C892 1.391 . S
C894 H884 0.950 . S
C894 C895 1.386 . S
C894 C896 1.391 . S
C895 C894 1.386 . S
C895 C899 1.393 . S
C896 H885 0.950 . S
C896 C894 1.391 . S
C896 C897 1.400 . S
C897 C891 1.491 . S
C897 C896 1.400 . S
C897 C898 1.398 . S
C898 H886 0.950 . S
C898 C897 1.398 . S
C898 C899 1.391 . S
C899 H887 0.950 . S
C899 C895 1.393 . S
C899 C898 1.391 . S
H900 C908 0.950 . S
H901 C913 0.950 . S
H902 C910 0.950 . S
H903 C912 0.950 . S
H904 C914 0.950 . S
H905 C916 0.950 . S
H906 C918 0.950 . S
H907 C919 0.950 . S
C908 H900 0.950 . S
C908 C909 1.386 . S
C908 C910 1.391 . S
C909 C908 1.386 . S
C909 C913 1.393 . S
C910 H902 0.950 . S
C910 C908 1.391 . S
C910 C911 1.400 . S
C911 C910 1.400 . S
C911 C912 1.398 . S
C911 C917 1.491 . S
C912 H903 0.950 . S
C912 C911 1.398 . S
C912 C913 1.391 . S
C913 H901 0.950 . S
C913 C909 1.393 . S
C913 C912 1.391 . S
C914 H904 0.950 . S
C914 C915 1.386 . S
C914 C916 1.391 . S
C915 C914 1.386 . S
C915 C919 1.393 . S
C916 H905 0.950 . S
C916 C914 1.391 . S
C916 C917 1.400 . S
C917 C911 1.491 . S
C917 C916 1.400 . S
C917 C918 1.398 . S
C918 H906 0.950 . S
C918 C917 1.398 . S
C918 C919 1.391 . S
C919 H907 0.950 . S
C919 C915 1.393 . S
C919 C918 1.391 . S
H920 C928 0.950 . S
H921 C933 0.950 . S
H922 C930 0.950 . S
H923 C932 0.950 . S
H924 C934 0.950 . S
H925 C936 0.950 . S
H926 C938 0.950 . S
H927 C939 0.950 . S
C928 H920 0.950 . S
C928 C929 1.386 . S
C928 C930 1.391 . S
C929 C928 1.386 . S
C929 C933 1.393 . S
C930 H922 0.950 . S
C930 C928 1.391 . S
C930 C931 1.400 . S
C931 C930 1.400 . S
C931 C932 1.398 . S
C931 C937 1.491 . S
C932 H923 0.950 . S
C932 C931 1.398 . S
C932 C933 1.391 . S
C933 H921 0.950 . S
C933 C929 1.393 . S
C933 C932 1.391 . S
C934 H924 0.950 . S
C934 C935 1.386 . S
C934 C936 1.391 . S
C935 C934 1.386 . S
C935 C939 1.393 . S
C936 H925 0.950 . S
C936 C934 1.391 . S
C936 C937 1.400 . S
C937 C931 1.491 . S
C937 C936 1.400 . S
C937 C938 1.398 . S
C938 H926 0.950 . S
C938 C937 1.398 . S
C938 C939 1.391 . S
C939 H927 0.950 . S
C939 C935 1.393 . S
C939 C938 1.391 . S
H940 C948 0.950 . S
H941 C953 0.950 . S
H942 C950 0.950 . S
H943 C952 0.950 . S
H944 C954 0.950 . S
H945 C956 0.950 . S
H946 C958 0.950 . S
H947 C959 0.950 . S
C948 H940 0.950 . S
C948 C949 1.386 . S
C948 C950 1.391 . S
C949 C948 1.386 . S
C949 C953 1.393 . S
C950 H942 0.950 . S
C950 C948 1.391 . S
C950 C951 1.400 . S
C951 C950 1.400 . S
C951 C952 1.398 . S
C951 C957 1.491 . S
C952 H943 0.950 . S
C952 C951 1.398 . S
C952 C953 1.391 . S
C953 H941 0.950 . S
C953 C949 1.393 . S
C953 C952 1.391 . S
C954 H944 0.950 . S
C954 C955 1.386 . S
C954 C956 1.391 . S
C955 C954 1.386 . S
C955 C959 1.393 . S
C956 H945 0.950 . S
C956 C954 1.391 . S
C956 C957 1.400 . S
C957 C951 1.491 . S
C957 C956 1.400 . S
C957 C958 1.398 . S
C958 H946 0.950 . S
C958 C957 1.398 . S
C958 C959 1.391 . S
C959 H947 0.950 . S
C959 C955 1.393 . S
C959 C958 1.391 . S
C249 C116 1.751 . S
C255 C19 1.718 1_565 S
C269 C39 1.721 . S
C275 C16 1.766 . S
C289 C59 1.712 1_455 S
C295 C36 1.765 . S
C309 C56 1.751 . S
C315 C79 1.723 1_545 S
C329 C76 1.766 . S
C335 C99 1.724 . S
C349 C119 1.731 1_655 S
C355 C96 1.760 . S
C369 C156 1.756 . S
C375 C139 1.710 1_455 S
C389 C159 1.726 1_545 S
C395 C176 1.752 . S
C409 C196 1.766 . S
C415 C179 1.715 . S
C429 C216 1.751 . S
C435 C199 1.717 1_655 S
C449 C236 1.761 . S
C455 C219 1.730 1_565 S
C469 C136 1.751 . S
C475 C239 1.721 . S
C489 C229 1.372 . S
C495 C6 1.342 1_565 S
C509 C26 1.346 . S
C515 C129 1.362 . S
C529 C149 1.353 . S
C535 C46 1.367 1_455 S
C549 C169 1.356 . S
C555 C66 1.369 1_545 S
C569 C189 1.375 . S
C575 C86 1.356 . S
C589 C106 1.347 1_655 S
C595 C209 1.361 . S
C609 C126 1.346 1_455 S
C615 C29 1.362 . S
C629 C146 1.353 1_545 S
C635 C49 1.376 . S
C649 C69 1.353 . S
C655 C166 1.367 . S
C669 C89 1.374 . S
C675 C186 1.357 1_655 S
C689 C206 1.354 1_565 S
C695 C109 1.355 . S
C709 C226 1.350 . S
C715 C9 1.358 . S
C729 C121 1.568 . S
C735 C1 1.578 . S
C749 C21 1.571 . S
C755 C141 1.569 . S
C769 C161 1.579 . S
C775 C41 1.565 . S
C789 C61 1.568 . S
C795 C181 1.574 . S
C809 C201 1.564 . S
C815 C81 1.580 . S
C829 C221 1.564 . S
C835 C101 1.577 . S
C849 C128 1.596 . S
C855 C8 1.572 . S
C869 C148 1.596 . S
C875 C28 1.571 . S
C889 C168 1.600 . S
C895 C48 1.575 . S
C909 C68 1.580 . S
C915 C188 1.571 . S
C929 C208 1.578 . S
C935 C88 1.573 . S
C949 C228 1.575 . S
C955 C108 1.575 . S
