# Generated by pormake.
# Topology rob, (6)-cn, num edge types: 1
# Building blocks:
#     Node 0, Type 0, BuildingBlock: BETFEN_clean_sbu_0, # of connection points: 6
#     Node 1, Type 0, BuildingBlock: BETFEN_clean_sbu_0, # of connection points: 6
#     Node 2, Type 0, BuildingBlock: BETFEN_clean_sbu_0, # of connection points: 6
#     Node 3, Type 0, BuildingBlock: BETFEN_clean_sbu_0, # of connection points: 6
#     Edge 4, Type (0, 0), BuildingBlock: XUDNAN_clean_linker_2, # of connection points: 2
#     Edge 5, Type (0, 0), BuildingBlock: XUDNAN_clean_linker_2, # of connection points: 2
#     Edge 6, Type (0, 0), BuildingBlock: XUDNAN_clean_linker_2, # of connection points: 2
#     Edge 7, Type (0, 0), BuildingBlock: XUDNAN_clean_linker_2, # of connection points: 2
#     Edge 8, Type (0, 0), BuildingBlock: XUDNAN_clean_linker_2, # of connection points: 2
#     Edge 9, Type (0, 0), BuildingBlock: XUDNAN_clean_linker_2, # of connection points: 2
#     Edge 10, Type (0, 0), BuildingBlock: XUDNAN_clean_linker_2, # of connection points: 2
#     Edge 11, Type (0, 0), BuildingBlock: XUDNAN_clean_linker_2, # of connection points: 2
#     Edge 12, Type (0, 0), BuildingBlock: XUDNAN_clean_linker_2, # of connection points: 2
#     Edge 13, Type (0, 0), BuildingBlock: XUDNAN_clean_linker_2, # of connection points: 2
#     Edge 14, Type (0, 0), BuildingBlock: XUDNAN_clean_linker_2, # of connection points: 2
#     Edge 15, Type (0, 0), BuildingBlock: XUDNAN_clean_linker_2, # of connection points: 2
# Relax obj value: 0.051
# Max RMSD: 0.163
# Mean RMSD: 0.163
data_MOF--net-rob--node1-BETFEN_clean_sbu_0--edge1-XUDNAN_clean_linker_2
_symmetry_space_group_name_H-M    P1
_symmetry_Int_Tables_number       1
_symmetry_cell_setting            triclinic
loop_
_symmetry_equiv_pos_as_xyz
'x, y, z'
_cell_length_a     15.015131
_cell_length_b     24.654186
_cell_length_c     37.344314
_cell_angle_alpha  98.057272
_cell_angle_beta   89.48512
_cell_angle_gamma 89.923205
loop_
_atom_site_label
_atom_site_type_symbol
_atom_site_fract_x
_atom_site_fract_y
_atom_site_fract_z
_atom_type_partial_charge
Pr0 Pr 0.16779 0.30947 0.04635 0.0
Pr1 Pr 0.31859 0.25106 1.00144 0.0
C2 C 0.03579 0.33871 0.09473 0.0
C3 C 0.02825 0.34544 0.13437 0.0
C4 C 0.9444 0.34984 0.15119 0.0
C5 C 0.93678 0.35189 0.18875 0.0
C6 C 0.01304 0.34891 0.21025 0.0
C7 C 0.09719 0.34706 0.19304 0.0
C8 C 0.10465 0.34491 0.15555 0.0
C9 C 0.30828 0.37771 0.03275 0.0
C10 C 0.33241 0.2492 0.08738 0.0
C11 C 0.44499 0.22314 0.95059 0.0
C12 C 0.45195 0.22603 0.91125 0.0
C13 C 0.45299 0.17764 0.88641 0.0
C14 C 0.45643 0.17981 0.84917 0.0
C15 C 0.45981 0.23045 0.83594 0.0
C16 C 0.45939 0.27885 0.86082 0.0
C17 C 0.45511 0.27672 0.89801 0.0
C18 C 0.17669 0.18353 1.01474 0.0
C19 C 0.15657 0.31089 0.9603 0.0
O20 O 0.04805 0.28845 0.07892 0.0
O21 O 0.08601 0.37418 0.08114 0.0
O22 O 0.31642 0.33034 0.0415 0.0
O23 O 0.22522 0.39235 0.03199 0.0
O24 O 0.38091 0.24622 0.05756 0.0
O25 O 0.24815 0.26519 0.08826 0.0
O26 O 0.44534 0.2696 0.97239 0.0
O27 O 0.38806 0.18789 0.96053 0.0
O28 O 0.16972 0.23085 1.00586 0.0
O29 O 0.25958 0.16861 1.01615 0.0
O30 O 0.1063 0.31146 0.98949 0.0
O31 O 0.24187 0.29809 0.96061 0.0
H32 H 0.88466 0.35083 0.13523 0.0
H33 H 0.87079 0.35555 0.20072 0.0
H34 H 0.15783 0.34568 0.20813 0.0
H35 H 0.17018 0.34177 0.14303 0.0
H36 H 0.4508 0.13804 0.89581 0.0
H37 H 0.45785 0.14176 0.83073 0.0
H38 H 0.46124 0.31851 0.8515 0.0
H39 H 0.45377 0.3149 0.91631 0.0
Pr40 Pr 0.65044 0.79162 0.03404 0.0
Pr41 Pr 0.82575 0.76756 0.99523 0.0
C42 C 0.51136 0.79181 0.07962 0.0
C43 C 0.50338 0.8001 0.11936 0.0
C44 C 0.53958 0.84657 0.14032 0.0
C45 C 0.53522 0.85234 0.17805 0.0
C46 C 0.49536 0.81155 0.19556 0.0
C47 C 0.46078 0.76464 0.1744 0.0
C48 C 0.46426 0.7592 0.13673 0.0
C49 C 0.74723 0.88512 0.02499 0.0
C50 C 0.83202 0.76816 0.08155 0.0
C51 C 0.96658 0.76925 0.95054 0.0
C52 C 0.9775 0.76222 0.91092 0.0
C53 C 0.9372 0.71834 0.8889 0.0
C54 C 0.94372 0.71404 0.85128 0.0
C55 C -0.01036 0.7539 0.83488 0.0
C56 C 0.02965 0.79786 0.85711 0.0
C57 C 0.02393 0.80179 0.89474 0.0
C58 C 0.73095 0.67395 1.0052 0.0
C59 C 0.64235 0.78861 0.94768 0.0
O60 O 0.55211 0.74684 0.06547 0.0
O61 O 0.53321 0.83445 0.06417 0.0
O62 O 0.78 0.84218 0.03446 0.0
O63 O 0.66148 0.88146 0.02114 0.0
O64 O 0.88259 0.77367 0.05329 0.0
O65 O 0.74432 0.76889 0.07977 0.0
O66 O 0.92454 0.81369 0.96479 0.0
O67 O 0.9438 0.72588 0.96502 0.0
O68 O 0.6969 0.71638 0.99539 0.0
O69 O 0.81686 0.67798 1.00834 0.0
O70 O 0.59244 0.78339 0.97615 0.0
O71 O 0.73019 0.78881 0.94941 0.0
H72 H 0.57156 0.87843 0.12764 0.0
H73 H 0.56189 0.88914 0.19343 0.0
H74 H 0.43157 0.73174 0.18692 0.0
H75 H 0.4374 0.72259 0.12111 0.0
H76 H 0.89992 0.68754 0.90066 0.0
H77 H 0.91306 0.67926 0.83513 0.0
H78 H 0.06397 0.82995 0.84551 0.0
H79 H 0.05437 0.83638 0.91125 0.0
Pr80 Pr 0.14972 0.75117 0.4916 0.0
Pr81 Pr 0.32071 0.80933 0.5373 0.0
C82 C 0.01329 0.72744 0.44551 0.0
C83 C 0.00228 0.72096 0.40612 0.0
C84 C 0.0773 0.7187 0.38352 0.0
C85 C 0.06765 0.71716 0.3463 0.0
C86 C 0.98278 0.71702 0.33059 0.0
C87 C 0.9074 0.71754 0.35346 0.0
C88 C 0.91719 0.71988 0.39094 0.0
C89 C 0.28951 0.68285 0.5057 0.0
C90 C 0.32271 0.80755 0.44921 0.0
C91 C 0.46253 0.8147 0.58083 0.0
C92 C 0.47603 0.82032 0.62028 0.0
C93 C 0.43122 0.86052 0.64422 0.0
C94 C 0.43858 0.86149 0.68166 0.0
C95 C 0.48989 0.82182 0.69595 0.0
C96 C 0.53504 0.78193 0.67172 0.0
C97 C 0.52852 0.78143 0.63439 0.0
C98 C 0.17741 0.88278 0.53516 0.0
C99 C 0.14352 0.76218 0.57966 0.0
O100 O 0.03164 0.77714 0.4608 0.0
O101 O 0.0611 0.68993 0.45805 0.0
O102 O 0.29707 0.73061 0.49747 0.0
O103 O 0.20654 0.66731 0.5051 0.0
O104 O 0.36995 0.81782 0.47917 0.0
O105 O 0.24121 0.78617 0.44832 0.0
O106 O 0.42629 0.7684 0.56668 0.0
O107 O 0.43263 0.85744 0.56713 0.0
O108 O 0.18242 0.83255 0.52365 0.0
O109 O 0.25364 0.89852 0.54949 0.0
O110 O 0.09365 0.75831 0.55039 0.0
O111 O 0.22996 0.7727 0.57927 0.0
H112 H 0.14346 0.71904 0.39481 0.0
H113 H 0.12708 0.71749 0.33002 0.0
H114 H 0.84077 0.71622 0.34258 0.0
H115 H 0.85839 0.72141 0.40809 0.0
H116 H 0.3893 0.89065 0.63408 0.0
H117 H 0.4038 0.89332 0.69933 0.0
H118 H 0.57359 0.74995 0.68146 0.0
H119 H 0.56258 0.74953 0.61643 0.0
Pr120 Pr 0.64712 0.27026 0.49928 0.0
Pr121 Pr 0.82446 0.30195 0.5456 0.0
C122 C 0.50889 0.27859 0.45526 0.0
C123 C 0.49779 0.26217 0.41619 0.0
C124 C 0.42428 0.2805 0.39841 0.0
C125 C 0.41828 0.26917 0.36071 0.0
C126 C 0.48601 0.23942 0.34016 0.0
C127 C 0.55868 0.22015 0.35836 0.0
C128 C 0.56458 0.23154 0.39599 0.0
C129 C 0.75251 0.17601 0.50062 0.0
C130 C 0.84027 0.29419 0.45771 0.0
C131 C 0.96149 0.30873 0.59215 0.0
C132 C 0.97458 0.30786 0.63104 0.0
C133 C 0.04756 0.33526 0.6483 0.0
C134 C 0.05785 0.33791 0.6857 0.0
C135 C -0.00503 0.31333 0.7064 0.0
C136 C 0.92318 0.28469 0.68882 0.0
C137 C 0.91269 0.28223 0.65148 0.0
C138 C 0.72337 0.38904 0.52781 0.0
C139 C 0.63303 0.27186 0.58746 0.0
O140 O 0.56605 0.31827 0.46391 0.0
O141 O 0.51637 0.23871 0.47492 0.0
O142 O 0.76929 0.22413 0.51487 0.0
O143 O 0.67616 0.17527 0.48446 0.0
O144 O 0.88619 0.29114 0.48742 0.0
O145 O 0.75223 0.29326 0.45717 0.0
O146 O 0.93682 0.26277 0.57289 0.0
O147 O 0.9198 0.35163 0.58359 0.0
O148 O 0.69187 0.34606 0.53799 0.0
O149 O 0.81005 0.38869 0.52786 0.0
O150 O 0.58784 0.26791 0.55696 0.0
O151 O 0.71961 0.28235 0.58933 0.0
H152 H 0.3727 0.30477 0.41356 0.0
H153 H 0.36213 0.28543 0.3476 0.0
H154 H 0.6115 0.19668 0.34351 0.0
H155 H 0.62228 0.21741 0.40931 0.0
H156 H 0.09573 0.35547 0.63294 0.0
H157 H 0.11364 0.36039 0.69855 0.0
H158 H 0.87525 0.26411 0.704 0.0
H159 H 0.85586 0.26084 0.63866 0.0
H160 H 0.54955 0.65749 1.00234 0.0
H161 H 0.80029 0.57664 0.01798 0.0
H162 H 0.71953 0.49187 0.0256 0.0
H163 H 0.42505 0.59526 0.06868 0.0
H164 H 0.32385 0.5891 0.04284 0.0
H165 H 0.40148 0.64318 0.0377 0.0
H166 H 0.40995 0.61066 0.96868 0.0
H167 H 0.33247 0.55642 0.97361 0.0
H168 H 0.43953 0.54055 0.95248 0.0
H169 H 0.61246 0.41598 0.03171 0.0
H170 H 0.48502 0.35438 0.03739 0.0
H171 H 0.30278 0.48406 0.01868 0.0
C172 C 0.5873 0.62183 1.00724 0.0
C173 C 0.68121 0.62349 1.0094 0.0
C174 C 0.72834 0.57621 1.01611 0.0
C175 C 0.68309 0.52785 0.02046 0.0
C176 C 0.59058 0.52745 0.01819 0.0
C177 C 0.54303 0.57317 1.01187 0.0
C178 C 0.44371 0.56197 1.01146 0.0
C179 C 0.39571 0.5996 0.04199 0.0
C180 C 0.40411 0.56774 0.97434 0.0
C181 C 0.44303 0.50278 0.01841 0.0
C182 C 0.52854 0.4837 0.02214 0.0
C183 C 0.54516 0.43042 0.02884 0.0
C184 C 0.47241 0.39574 0.032 0.0
C185 C 0.38419 0.41446 0.0285 0.0
C186 C 0.36956 0.46864 0.02147 0.0
H187 H 0.28719 0.57643 0.5206 0.0
H188 H 0.46527 0.70593 0.49754 0.0
H189 H 0.594 0.64437 0.50019 0.0
H190 H 0.43225 0.52015 0.58347 0.0
H191 H 0.40192 0.45006 0.5682 0.0
H192 H 0.32333 0.5044 0.56495 0.0
H193 H 0.30767 0.47149 0.49632 0.0
H194 H 0.38672 0.41728 0.4993 0.0
H195 H 0.40578 0.46528 0.46783 0.0
H196 H 0.70291 0.56894 0.50372 0.0
H197 H 0.78699 0.48525 0.51075 0.0
H198 H 0.54046 0.40329 0.53212 0.0
C199 C 0.35337 0.59182 0.5163 0.0
C200 C 0.3663 0.6461 0.50899 0.0
C201 C 0.45382 0.66468 0.50339 0.0
C202 C 0.52736 0.62994 0.50471 0.0
C203 C 0.51244 0.5766 0.51165 0.0
C204 C 0.42781 0.55755 0.51754 0.0
C205 C 0.43077 0.49827 0.52449 0.0
C206 C 0.39495 0.49293 0.56254 0.0
C207 C 0.3797 0.46089 0.49524 0.0
C208 C 0.53024 0.4871 0.52158 0.0
C209 C 0.57581 0.53289 0.514 0.0
C210 C 0.66802 0.53289 0.50978 0.0
C211 C 0.71519 0.48507 0.51379 0.0
C212 C 0.6704 0.43779 0.52207 0.0
C213 C 0.5765 0.43881 0.5258 0.0
H214 H 0.17913 0.07556 0.02574 0.0
H215 H 0.00116 0.20808 1.00839 0.0
H216 H 0.87239 0.14616 1.00951 0.0
H217 H 0.06216 0.96872 0.97005 0.0
H218 H 0.08126 0.91774 0.99932 0.0
H219 H 0.15986 0.97257 0.998 0.0
H220 H 0.14301 0.99971 0.06732 0.0
H221 H 0.06467 0.94479 0.06889 0.0
H222 H 0.03374 1.01403 0.08679 0.0
H223 H 0.76358 0.06967 1.01061 0.0
H224 H 0.68071 0.98402 1.01374 0.0
H225 H 0.92809 0.90075 0.03119 0.0
C226 C 0.11297 0.09153 0.02238 0.0
C227 C 0.09998 0.14659 1.01695 0.0
C228 C 0.01254 0.16603 1.01256 0.0
C229 C 0.93902 0.13117 1.01313 0.0
C230 C 0.95403 0.07699 0.01817 0.0
C231 C 0.03868 0.05721 0.02286 0.0
C232 C 0.03618 0.99707 0.02754 0.0
C233 C 0.08794 0.96197 0.9969 0.0
C234 C 0.07148 0.98841 0.06486 0.0
C235 C 0.93695 0.98621 0.02472 0.0
C236 C 0.89092 0.03286 0.01919 0.0
C237 C 0.79881 0.03294 1.01511 0.0
C238 C 0.75234 0.98409 1.01689 0.0
C239 C 0.79793 0.93591 0.02286 0.0
C240 C 0.89149 0.93708 0.02678 0.0
H241 H 0.92428 0.1681 0.52615 0.0
H242 H 0.69889 0.07102 0.48296 0.0
H243 H 0.78148 0.98637 0.48884 0.0
H244 H 0.0933 0.07862 0.48126 0.0
H245 H 0.16979 0.08828 0.51853 0.0
H246 H 0.0922 0.14179 0.51213 0.0
H247 H 0.03198 0.14225 0.57736 0.0
H248 H 0.10936 0.08868 0.58396 0.0
H249 H -0.00819 0.07941 0.59114 0.0
H250 H 0.88581 0.91213 0.50027 0.0
H251 H 0.01042 0.85252 0.5131 0.0
H252 H 0.17287 0.99565 0.54608 0.0
C253 C 0.89238 0.129 0.51821 0.0
C254 C 0.80486 0.12615 0.50435 0.0
C255 C 0.76574 0.07422 0.4937 0.0
C256 C 0.81203 1.02584 0.49703 0.0
C257 C 0.8979 0.02986 0.51085 0.0
C258 C 0.93821 0.07998 0.52106 0.0
C259 C 0.03238 0.07229 0.5341 0.0
C260 C 0.10096 0.09669 0.51006 0.0
C261 C 0.04191 0.09713 0.57401 0.0
C262 C 0.0385 1.01012 0.52942 0.0
C263 C 0.95973 0.98664 0.51626 0.0
C264 C 0.94826 0.93001 0.51012 0.0
C265 C 0.01962 0.89639 0.5171 0.0
C266 C 0.10187 0.91927 0.52953 0.0
C267 C 0.11092 0.97697 0.53622 0.0
H268 H 0.3405 0.21584 0.29633 0.0
H269 H 0.62495 0.24564 0.29275 0.0
H270 H 0.61879 0.24105 0.22653 0.0
H271 H 0.33258 0.12298 0.20772 0.0
H272 H 0.22546 0.14924 0.19701 0.0
H273 H 0.25454 0.14667 0.24348 0.0
H274 H 0.22249 0.25069 0.25929 0.0
H275 H 0.19212 0.25225 0.21308 0.0
H276 H 0.27752 0.2978 0.23365 0.0
H277 H 0.57961 0.24163 0.16142 0.0
H278 H 0.50998 0.25046 0.10288 0.0
H279 H 0.24975 0.22441 0.14903 0.0
C280 C 0.40167 0.22085 0.2816 0.0
C281 C 0.48323 0.23127 0.2999 0.0
C282 C 0.56185 0.23706 0.27947 0.0
C283 C 0.55901 0.23452 0.24175 0.0
C284 C 0.47718 0.22544 0.22468 0.0
C285 C 0.40005 0.21818 0.2439 0.0
C286 C 0.31984 0.21241 0.21935 0.0
C287 C 0.28083 0.15437 0.21674 0.0
C288 C 0.24888 0.25599 0.23211 0.0
C289 C 0.36291 0.2217 0.18384 0.0
C290 C 0.45416 0.2272 0.18725 0.0
C291 C 0.50834 0.23688 0.15832 0.0
C292 C 0.46815 0.24179 0.12516 0.0
C293 C 0.37448 0.23818 0.12137 0.0
C294 C 0.32153 0.22739 0.15108 0.0
H295 H 0.35517 0.78169 0.2356 0.0
H296 H 0.6167 0.85677 0.24639 0.0
H297 H 0.60073 0.86724 0.31299 0.0
H298 H 0.24791 0.86031 0.30835 0.0
H299 H 0.18701 0.80502 0.32357 0.0
H300 H 0.21658 0.80174 0.2765 0.0
H301 H 0.29334 0.71036 0.27672 0.0
H302 H 0.27598 0.70839 0.32436 0.0
H303 H 0.38659 0.70421 0.30596 0.0
H304 H 0.55443 0.86757 0.3794 0.0
H305 H 0.48422 0.85627 0.43814 0.0
H306 H 0.25598 0.77956 0.38139 0.0
C307 C 0.40971 0.79998 0.25177 0.0
C308 C 0.48727 0.81831 0.23562 0.0
C309 C 0.55612 0.84291 0.25808 0.0
C310 C 0.54781 0.84884 0.29595 0.0
C311 C 0.4703 0.82996 0.31086 0.0
C312 C 0.40283 0.80587 0.28931 0.0
C313 C 0.32791 0.78663 0.31149 0.0
C314 C 0.23966 0.81505 0.30454 0.0
C315 C 0.32028 0.72377 0.30415 0.0
C316 C 0.36185 0.80534 0.34907 0.0
C317 C 0.44448 0.82972 0.34838 0.0
C318 C 0.48955 0.84868 0.38018 0.0
C319 C 0.44905 0.84213 0.41341 0.0
C320 C 0.36422 0.81709 0.4145 0.0
C321 C 0.32043 0.79903 0.38175 0.0
H322 H 0.71909 0.77083 0.88047 0.0
H323 H 0.47054 0.81979 0.93605 0.0
H324 H 0.40347 0.83382 0.87769 0.0
H325 H 0.71886 0.86323 0.81685 0.0
H326 H 0.76169 0.81473 0.7801 0.0
H327 H 0.78837 0.80719 0.82603 0.0
H328 H 0.72355 0.70805 0.81695 0.0
H329 H 0.69938 0.71552 0.7706 0.0
H330 H 0.61222 0.6971 0.80004 0.0
H331 H 0.36574 0.84489 0.81291 0.0
H332 H 0.35849 0.8486 0.7474 0.0
H333 H 0.63302 0.79302 0.73519 0.0
C334 C 0.65051 0.78453 0.88044 0.0
C335 C 0.60014 0.7946 0.91282 0.0
C336 C 0.51027 0.81173 0.91152 0.0
C337 C 0.47173 0.81995 0.87854 0.0
C338 C 0.52372 0.8102 0.84715 0.0
C339 C 0.61083 0.79228 0.84784 0.0
C340 C 0.65195 0.78346 0.81036 0.0
C341 C 0.73512 0.8193 0.80823 0.0
C342 C 0.67311 0.72243 0.79879 0.0
C343 C 0.57593 0.80177 0.78858 0.0
C344 C 0.50204 0.81627 0.81014 0.0
C345 C 0.42336 0.83369 0.79583 0.0
C346 C 0.42009 0.83603 0.75852 0.0
C347 C 0.49494 0.82106 0.73579 0.0
C348 C 0.57392 0.80404 0.75141 0.0
H349 H 0.67024 0.31897 0.65634 0.0
H350 H 0.4898 0.20554 0.59457 0.0
H351 H 0.41913 0.18575 0.6515 0.0
H352 H 0.70785 0.24643 0.72725 0.0
H353 H 0.7064 0.30421 0.76269 0.0
H354 H 0.73731 0.31373 0.71733 0.0
H355 H 0.61645 0.3872 0.71611 0.0
H356 H 0.58511 0.37965 0.76185 0.0
H357 H 0.5027 0.3718 0.72671 0.0
H358 H 0.37944 0.17154 0.71578 0.0
H359 H 0.36617 0.16943 0.78165 0.0
H360 H 0.56745 0.29596 0.80077 0.0
C361 C 0.61512 0.29045 0.6548 0.0
C362 C 0.58562 0.26355 0.62113 0.0
C363 C 0.51305 0.22676 0.62013 0.0
C364 C 0.47265 0.21524 0.65231 0.0
C365 C 0.50423 0.2419 0.68514 0.0
C366 C 0.57263 0.27959 0.68653 0.0
C367 C 0.59478 0.30231 0.72519 0.0
C368 C 0.69241 0.29088 0.73363 0.0
C369 C 0.57346 0.36389 0.73291 0.0
C370 C 0.53151 0.26954 0.74543 0.0
C371 C 0.47924 0.23519 0.72192 0.0
C372 C 0.41918 0.19887 0.73441 0.0
C373 C 0.41257 0.19768 0.77184 0.0
C374 C 0.46527 0.23282 0.7964 0.0
C375 C 0.52494 0.26938 0.7828 0.0
H376 H 0.76194 0.79368 0.14963 0.0
H377 H -0.00587 0.72191 0.09105 0.0
H378 H 0.05691 0.69975 0.14832 0.0
H379 H 0.88426 0.85527 0.22931 0.0
H380 H 0.79494 0.84348 0.25984 0.0
H381 H 0.77055 0.85386 0.21414 0.0
H382 H 0.68533 0.76143 0.20489 0.0
H383 H 0.71101 0.75089 0.25042 0.0
H384 H 0.74172 0.69977 0.21296 0.0
H385 H 0.08787 0.67899 0.211 0.0
H386 H 0.09537 0.67083 0.27564 0.0
H387 H 0.84972 0.76481 0.29443 0.0
C388 C 0.82627 0.77357 0.14891 0.0
C389 C 0.8732 0.7592 0.11597 0.0
C390 C 0.95745 0.73344 0.11607 0.0
C391 C -0.00671 0.72045 0.14839 0.0
C392 C 0.94462 0.73439 0.18035 0.0
C393 C 0.86377 0.76132 0.18097 0.0
C394 C 0.82607 0.77304 0.21905 0.0
C395 C 0.81856 0.8351 0.23131 0.0
C396 C 0.7357 0.74457 0.22199 0.0
C397 C 0.89764 0.74747 0.2397 0.0
C398 C 0.96493 0.72503 0.2168 0.0
C399 C 0.03651 0.6974 0.22932 0.0
C400 C 0.04038 0.69341 0.26634 0.0
C401 C 0.97403 0.71797 0.2908 0.0
C402 C 0.90142 0.74501 0.27688 0.0
H403 H 0.77527 0.27388 0.38914 0.0
H404 H 0.01059 0.33195 0.44931 0.0
H405 H 0.0819 0.35203 0.39253 0.0
H406 H 0.89108 0.20902 0.30842 0.0
H407 H 0.80618 0.22843 0.27879 0.0
H408 H 0.77728 0.21721 0.32407 0.0
H409 H 0.70818 0.31498 0.33618 0.0
H410 H 0.73804 0.32612 0.29094 0.0
H411 H 0.77553 0.37306 0.32917 0.0
H412 H 0.12125 0.37291 0.32936 0.0
H413 H 0.13205 0.38449 0.26514 0.0
H414 H 0.87488 0.30489 0.24638 0.0
C415 C 0.84215 0.2904 0.39044 0.0
C416 C 0.88733 0.30153 0.4237 0.0
C417 C 0.97492 0.32286 0.42411 0.0
C418 C 0.01572 0.33463 0.39203 0.0
C419 C 0.96838 0.32417 0.35981 0.0
C420 C 0.88403 0.30174 0.35878 0.0
C421 C 0.84685 0.29448 0.32089 0.0
C422 C 0.82937 0.23367 0.30724 0.0
C423 C 0.76214 0.32922 0.31921 0.0
C424 C 0.92335 0.3165 0.30062 0.0
C425 C -0.00758 0.33401 0.32351 0.0
C426 C 0.06818 0.35835 0.31109 0.0
C427 C 0.07385 0.36437 0.27428 0.0
C428 C 0.00482 0.34525 0.24991 0.0
C429 C 0.92873 0.32096 0.26374 0.0
H430 H 0.14377 0.29788 0.74599 0.0
H431 H 0.86422 0.3418 0.75683 0.0
H432 H 0.87539 0.34942 0.82332 0.0
H433 H 0.14819 0.21627 0.81801 0.0
H434 H 0.2583 0.23788 0.83245 0.0
H435 H 0.22702 0.23693 0.7859 0.0
H436 H 0.27163 0.33881 0.79004 0.0
H437 H 0.30014 0.34105 0.83696 0.0
H438 H 0.21984 0.38872 0.82382 0.0
H439 H 0.91676 0.34983 0.88874 0.0
H440 H 0.98465 0.34156 0.94785 0.0
H441 H 0.23796 0.29965 0.8938 0.0
C442 C 0.08517 0.30957 0.76241 0.0
C443 C 0.00277 0.31873 0.74631 0.0
C444 C 0.92736 0.33343 0.76864 0.0
C445 C 0.93335 0.3384 0.80641 0.0
C446 C 0.01545 0.32879 0.82144 0.0
C447 C 0.09002 0.31466 0.80014 0.0
C448 C 0.16973 0.30502 0.82296 0.0
C449 C 0.20275 0.24549 0.81433 0.0
C450 C 0.24474 0.34585 0.81814 0.0
C451 C 0.1284 0.31603 0.8604 0.0
C452 C 0.03939 0.32966 0.85902 0.0
C453 C 0.98662 0.33958 0.89019 0.0
C454 C 0.02574 0.33482 0.92364 0.0
C455 C 0.11669 0.32031 0.92558 0.0
C456 C 0.16848 0.31143 0.89344 0.0
H457 H 0.21811 0.78697 0.6462 0.0
H458 H 0.97568 0.72412 0.59304 0.0
H459 H 0.90914 0.71457 0.65277 0.0
H460 H 0.22251 0.70133 0.71486 0.0
H461 H 0.26177 0.75415 0.74934 0.0
H462 H 0.28991 0.75649 0.70262 0.0
H463 H 0.2227 0.85377 0.70684 0.0
H464 H 0.19341 0.85262 0.75366 0.0
H465 H 0.10911 0.86564 0.72193 0.0
H466 H 0.87051 0.71173 0.71876 0.0
H467 H 0.86186 0.71711 0.78507 0.0
H468 H 0.13089 0.78132 0.79364 0.0
C469 C 0.15115 0.77083 0.64689 0.0
C470 C 0.10225 0.75588 0.61489 0.0
C471 C 0.0144 0.73574 0.61722 0.0
C472 C 0.97616 0.73013 0.65098 0.0
C473 C 0.0266 0.7452 0.68197 0.0
C474 C 0.11204 0.76533 0.68013 0.0
C475 C 0.15192 0.77976 0.71725 0.0
C476 C 0.23651 0.7459 0.72123 0.0
C477 C 0.1704 0.84161 0.72539 0.0
C478 C 0.07633 0.76339 0.74039 0.0
C479 C 0.00437 0.74392 0.71964 0.0
C480 C 0.9266 0.72683 0.73521 0.0
C481 C 0.92242 0.72984 0.77296 0.0
C482 C -0.00473 0.74995 0.7948 0.0
C483 C 0.07327 0.76662 0.77799 0.0
loop_
_geom_bond_atom_site_label_1
_geom_bond_atom_site_label_2
_geom_bond_distance
_geom_bond_site_symmetry_2
_ccdc_geom_bond_type
Pr0 C2 2.880 . S
Pr0 O20 2.562 . S
Pr0 O21 2.490 . S
Pr0 O22 2.695 1_554 S
Pr0 O23 2.512 . S
Pr0 O25 2.437 . S
Pr0 O28 2.436 . S
Pr0 O30 2.438 1_554 S
Pr1 C11 2.880 . S
Pr1 O22 2.436 . S
Pr1 O24 2.438 1_556 S
Pr1 O26 2.562 . S
Pr1 O27 2.490 . S
Pr1 O28 2.695 1_556 S
Pr1 O29 2.512 . S
Pr1 O31 2.437 . S
C2 Pr0 2.880 . S
C2 C3 1.491 . S
C2 O20 1.254 . S
C2 O21 1.225 . S
C3 C2 1.491 . S
C3 C4 1.392 . S
C3 C8 1.356 . S
C4 C3 1.392 . S
C4 C5 1.368 . S
C4 H32 0.929 . S
C5 C4 1.368 . S
C5 C6 1.386 1_455 S
C5 H33 0.929 1_455 S
C6 C5 1.386 1_655 S
C6 C7 1.373 1_655 S
C7 C6 1.373 1_455 S
C7 C8 1.409 . S
C7 H34 0.931 1_455 S
C8 C3 1.356 . S
C8 C7 1.409 . S
C8 H35 0.930 . S
C9 O22 1.270 1_554 S
C9 O23 1.248 . S
C10 O24 1.267 . S
C10 O25 1.278 . S
C11 Pr1 2.880 . S
C11 C12 1.491 . S
C11 O26 1.254 . S
C11 O27 1.225 . S
C12 C11 1.491 . S
C12 C13 1.392 . S
C12 C17 1.356 . S
C13 C12 1.392 . S
C13 C14 1.368 . S
C13 H36 0.929 . S
C14 C13 1.368 . S
C14 C15 1.386 . S
C14 H37 0.929 . S
C15 C14 1.386 . S
C15 C16 1.373 . S
C16 C15 1.373 . S
C16 C17 1.409 . S
C16 H38 0.931 . S
C17 C12 1.356 . S
C17 C16 1.409 . S
C17 H39 0.930 . S
C18 O28 1.270 1_556 S
C18 O29 1.248 . S
C19 O30 1.267 . S
C19 O31 1.278 . S
O20 Pr0 2.562 . S
O20 C2 1.254 . S
O21 Pr0 2.490 . S
O21 C2 1.225 . S
O22 Pr0 2.695 1_556 S
O22 Pr1 2.436 . S
O22 C9 1.270 1_556 S
O23 Pr0 2.512 . S
O23 C9 1.248 . S
O24 Pr1 2.438 1_554 S
O24 C10 1.267 . S
O25 Pr0 2.437 . S
O25 C10 1.278 . S
O26 Pr1 2.562 . S
O26 C11 1.254 . S
O27 Pr1 2.490 . S
O27 C11 1.225 . S
O28 Pr0 2.436 . S
O28 Pr1 2.695 1_554 S
O28 C18 1.270 1_554 S
O29 Pr1 2.512 . S
O29 C18 1.248 . S
O30 Pr0 2.438 1_556 S
O30 C19 1.267 . S
O31 Pr1 2.437 . S
O31 C19 1.278 . S
H32 C4 0.929 . S
H33 C5 0.929 1_655 S
H34 C7 0.931 1_655 S
H35 C8 0.930 . S
H36 C13 0.929 . S
H37 C14 0.929 . S
H38 C16 0.931 . S
H39 C17 0.930 . S
Pr40 C42 2.880 . S
Pr40 O60 2.562 . S
Pr40 O61 2.490 . S
Pr40 O62 2.695 1_554 S
Pr40 O63 2.512 . S
Pr40 O65 2.437 . S
Pr40 O68 2.436 . S
Pr40 O70 2.438 1_554 S
Pr41 C51 2.880 . S
Pr41 O62 2.436 . S
Pr41 O64 2.438 1_556 S
Pr41 O66 2.562 . S
Pr41 O67 2.490 . S
Pr41 O68 2.695 1_556 S
Pr41 O69 2.512 . S
Pr41 O71 2.437 . S
C42 Pr40 2.880 . S
C42 C43 1.491 . S
C42 O60 1.254 . S
C42 O61 1.225 . S
C43 C42 1.491 . S
C43 C44 1.392 . S
C43 C48 1.356 . S
C44 C43 1.392 . S
C44 C45 1.368 . S
C44 H72 0.929 . S
C45 C44 1.368 . S
C45 C46 1.386 . S
C45 H73 0.929 . S
C46 C45 1.386 . S
C46 C47 1.373 . S
C47 C46 1.373 . S
C47 C48 1.409 . S
C47 H74 0.931 . S
C48 C43 1.356 . S
C48 C47 1.409 . S
C48 H75 0.930 . S
C49 O62 1.270 1_554 S
C49 O63 1.248 . S
C50 O64 1.267 . S
C50 O65 1.278 . S
C51 Pr41 2.880 . S
C51 C52 1.491 . S
C51 O66 1.254 . S
C51 O67 1.225 . S
C52 C51 1.491 . S
C52 C53 1.392 . S
C52 C57 1.356 . S
C53 C52 1.392 . S
C53 C54 1.368 . S
C53 H76 0.929 . S
C54 C53 1.368 . S
C54 C55 1.386 1_655 S
C54 H77 0.929 1_655 S
C55 C54 1.386 1_455 S
C55 C56 1.373 1_455 S
C56 C55 1.373 1_655 S
C56 C57 1.409 . S
C56 H78 0.931 1_655 S
C57 C52 1.356 . S
C57 C56 1.409 . S
C57 H79 0.930 . S
C58 O68 1.270 1_556 S
C58 O69 1.248 . S
C59 O70 1.267 . S
C59 O71 1.278 . S
O60 Pr40 2.562 . S
O60 C42 1.254 . S
O61 Pr40 2.490 . S
O61 C42 1.225 . S
O62 Pr40 2.695 1_556 S
O62 Pr41 2.436 . S
O62 C49 1.270 1_556 S
O63 Pr40 2.512 . S
O63 C49 1.248 . S
O64 Pr41 2.438 1_554 S
O64 C50 1.267 . S
O65 Pr40 2.437 . S
O65 C50 1.278 . S
O66 Pr41 2.562 . S
O66 C51 1.254 . S
O67 Pr41 2.490 . S
O67 C51 1.225 . S
O68 Pr40 2.436 . S
O68 Pr41 2.695 1_554 S
O68 C58 1.270 1_554 S
O69 Pr41 2.512 . S
O69 C58 1.248 . S
O70 Pr40 2.438 1_556 S
O70 C59 1.267 . S
O71 Pr41 2.437 . S
O71 C59 1.278 . S
H72 C44 0.929 . S
H73 C45 0.929 . S
H74 C47 0.931 . S
H75 C48 0.930 . S
H76 C53 0.929 . S
H77 C54 0.929 1_455 S
H78 C56 0.931 1_455 S
H79 C57 0.930 . S
Pr80 C82 2.880 . S
Pr80 O100 2.562 . S
Pr80 O101 2.490 . S
Pr80 O102 2.695 . S
Pr80 O103 2.512 . S
Pr80 O105 2.437 . S
Pr80 O108 2.436 . S
Pr80 O110 2.438 . S
Pr81 C91 2.880 . S
Pr81 O102 2.436 . S
Pr81 O104 2.438 . S
Pr81 O106 2.562 . S
Pr81 O107 2.490 . S
Pr81 O108 2.695 . S
Pr81 O109 2.512 . S
Pr81 O111 2.437 . S
C82 Pr80 2.880 . S
C82 C83 1.491 . S
C82 O100 1.254 . S
C82 O101 1.225 . S
C83 C82 1.491 . S
C83 C84 1.392 . S
C83 C88 1.356 . S
C84 C83 1.392 . S
C84 C85 1.368 . S
C84 H112 0.929 . S
C85 C84 1.368 . S
C85 C86 1.386 1_455 S
C85 H113 0.929 1_455 S
C86 C85 1.386 1_655 S
C86 C87 1.373 1_655 S
C87 C86 1.373 1_455 S
C87 C88 1.409 . S
C87 H114 0.931 1_455 S
C88 C83 1.356 . S
C88 C87 1.409 . S
C88 H115 0.930 . S
C89 O102 1.270 . S
C89 O103 1.248 . S
C90 O104 1.267 . S
C90 O105 1.278 . S
C91 Pr81 2.880 . S
C91 C92 1.491 . S
C91 O106 1.254 . S
C91 O107 1.225 . S
C92 C91 1.491 . S
C92 C93 1.392 . S
C92 C97 1.356 . S
C93 C92 1.392 . S
C93 C94 1.368 . S
C93 H116 0.929 . S
C94 C93 1.368 . S
C94 C95 1.386 . S
C94 H117 0.929 . S
C95 C94 1.386 . S
C95 C96 1.373 . S
C96 C95 1.373 . S
C96 C97 1.409 . S
C96 H118 0.931 . S
C97 C92 1.356 . S
C97 C96 1.409 . S
C97 H119 0.930 . S
C98 O108 1.270 . S
C98 O109 1.248 . S
C99 O110 1.267 . S
C99 O111 1.278 . S
O100 Pr80 2.562 . S
O100 C82 1.254 . S
O101 Pr80 2.490 . S
O101 C82 1.225 . S
O102 Pr80 2.695 . S
O102 Pr81 2.436 . S
O102 C89 1.270 . S
O103 Pr80 2.512 . S
O103 C89 1.248 . S
O104 Pr81 2.438 . S
O104 C90 1.267 . S
O105 Pr80 2.437 . S
O105 C90 1.278 . S
O106 Pr81 2.562 . S
O106 C91 1.254 . S
O107 Pr81 2.490 . S
O107 C91 1.225 . S
O108 Pr80 2.436 . S
O108 Pr81 2.695 . S
O108 C98 1.270 . S
O109 Pr81 2.512 . S
O109 C98 1.248 . S
O110 Pr80 2.438 . S
O110 C99 1.267 . S
O111 Pr81 2.437 . S
O111 C99 1.278 . S
H112 C84 0.929 . S
H113 C85 0.929 1_655 S
H114 C87 0.931 1_655 S
H115 C88 0.930 . S
H116 C93 0.929 . S
H117 C94 0.929 . S
H118 C96 0.931 . S
H119 C97 0.930 . S
Pr120 C122 2.880 . S
Pr120 O140 2.562 . S
Pr120 O141 2.490 . S
Pr120 O142 2.695 . S
Pr120 O143 2.512 . S
Pr120 O145 2.437 . S
Pr120 O148 2.436 . S
Pr120 O150 2.438 . S
Pr121 C131 2.880 . S
Pr121 O142 2.436 . S
Pr121 O144 2.438 . S
Pr121 O146 2.562 . S
Pr121 O147 2.490 . S
Pr121 O148 2.695 . S
Pr121 O149 2.512 . S
Pr121 O151 2.437 . S
C122 Pr120 2.880 . S
C122 C123 1.491 . S
C122 O140 1.254 . S
C122 O141 1.225 . S
C123 C122 1.491 . S
C123 C124 1.392 . S
C123 C128 1.356 . S
C124 C123 1.392 . S
C124 C125 1.368 . S
C124 H152 0.929 . S
C125 C124 1.368 . S
C125 C126 1.386 . S
C125 H153 0.929 . S
C126 C125 1.386 . S
C126 C127 1.373 . S
C127 C126 1.373 . S
C127 C128 1.409 . S
C127 H154 0.931 . S
C128 C123 1.356 . S
C128 C127 1.409 . S
C128 H155 0.930 . S
C129 O142 1.270 . S
C129 O143 1.248 . S
C130 O144 1.267 . S
C130 O145 1.278 . S
C131 Pr121 2.880 . S
C131 C132 1.491 . S
C131 O146 1.254 . S
C131 O147 1.225 . S
C132 C131 1.491 . S
C132 C133 1.392 . S
C132 C137 1.356 . S
C133 C132 1.392 . S
C133 C134 1.368 . S
C133 H156 0.929 . S
C134 C133 1.368 . S
C134 C135 1.386 1_655 S
C134 H157 0.929 1_655 S
C135 C134 1.386 1_455 S
C135 C136 1.373 1_455 S
C136 C135 1.373 1_655 S
C136 C137 1.409 . S
C136 H158 0.931 1_655 S
C137 C132 1.356 . S
C137 C136 1.409 . S
C137 H159 0.930 . S
C138 O148 1.270 . S
C138 O149 1.248 . S
C139 O150 1.267 . S
C139 O151 1.278 . S
O140 Pr120 2.562 . S
O140 C122 1.254 . S
O141 Pr120 2.490 . S
O141 C122 1.225 . S
O142 Pr120 2.695 . S
O142 Pr121 2.436 . S
O142 C129 1.270 . S
O143 Pr120 2.512 . S
O143 C129 1.248 . S
O144 Pr121 2.438 . S
O144 C130 1.267 . S
O145 Pr120 2.437 . S
O145 C130 1.278 . S
O146 Pr121 2.562 . S
O146 C131 1.254 . S
O147 Pr121 2.490 . S
O147 C131 1.225 . S
O148 Pr120 2.436 . S
O148 Pr121 2.695 . S
O148 C138 1.270 . S
O149 Pr121 2.512 . S
O149 C138 1.248 . S
O150 Pr120 2.438 . S
O150 C139 1.267 . S
O151 Pr121 2.437 . S
O151 C139 1.278 . S
H152 C124 0.929 . S
H153 C125 0.929 . S
H154 C127 0.931 . S
H155 C128 0.930 . S
H156 C133 0.929 . S
H157 C134 0.929 1_455 S
H158 C136 0.931 1_455 S
H159 C137 0.930 . S
H160 C172 0.930 . S
H161 C174 0.930 . S
H162 C175 0.930 . S
H163 C179 0.959 . S
H164 C179 0.959 . S
H165 C179 0.961 . S
H166 C180 0.960 . S
H167 C180 0.961 . S
H168 C180 0.959 . S
H169 C183 0.929 . S
H170 C184 0.931 . S
H171 C186 0.930 . S
C172 H160 0.930 . S
C172 C173 1.399 1_556 S
C172 C177 1.399 . S
C173 C172 1.399 1_554 S
C173 C174 1.376 . S
C174 H161 0.930 . S
C174 C173 1.376 . S
C174 C175 1.388 . S
C175 H162 0.930 . S
C175 C174 1.388 . S
C175 C176 1.390 . S
C176 C175 1.390 . S
C176 C177 1.394 1_554 S
C176 C182 1.465 . S
C177 C172 1.399 . S
C177 C176 1.394 1_556 S
C177 C178 1.516 . S
C178 C177 1.516 . S
C178 C179 1.502 . S
C178 C180 1.561 . S
C178 C181 1.526 . S
C179 H163 0.959 . S
C179 H164 0.959 . S
C179 H165 0.961 . S
C179 C178 1.502 . S
C180 H166 0.960 . S
C180 H167 0.961 . S
C180 H168 0.959 . S
C180 C178 1.561 . S
C181 C178 1.526 . S
C181 C182 1.396 1_556 S
C181 C186 1.390 . S
C182 C176 1.465 . S
C182 C181 1.396 1_554 S
C182 C183 1.399 . S
C183 H169 0.929 . S
C183 C182 1.399 . S
C183 C184 1.385 . S
C184 H170 0.931 . S
C184 C183 1.385 . S
C184 C185 1.389 . S
C185 C184 1.389 . S
C185 C186 1.387 1_554 S
C186 H171 0.930 . S
C186 C181 1.390 . S
C186 C185 1.387 1_556 S
H187 C199 0.930 . S
H188 C201 0.930 . S
H189 C202 0.930 . S
H190 C206 0.959 . S
H191 C206 0.959 . S
H192 C206 0.961 . S
H193 C207 0.960 . S
H194 C207 0.961 . S
H195 C207 0.959 . S
H196 C210 0.929 . S
H197 C211 0.931 . S
H198 C213 0.930 . S
C199 H187 0.930 . S
C199 C200 1.399 . S
C199 C204 1.399 . S
C200 C199 1.399 . S
C200 C201 1.376 . S
C201 H188 0.930 . S
C201 C200 1.376 . S
C201 C202 1.388 . S
C202 H189 0.930 . S
C202 C201 1.388 . S
C202 C203 1.390 . S
C203 C202 1.390 . S
C203 C204 1.394 . S
C203 C209 1.465 . S
C204 C199 1.399 . S
C204 C203 1.394 . S
C204 C205 1.516 . S
C205 C204 1.516 . S
C205 C206 1.502 . S
C205 C207 1.561 . S
C205 C208 1.526 . S
C206 H190 0.959 . S
C206 H191 0.959 . S
C206 H192 0.961 . S
C206 C205 1.502 . S
C207 H193 0.960 . S
C207 H194 0.961 . S
C207 H195 0.959 . S
C207 C205 1.561 . S
C208 C205 1.526 . S
C208 C209 1.396 . S
C208 C213 1.390 . S
C209 C203 1.465 . S
C209 C208 1.396 . S
C209 C210 1.399 . S
C210 H196 0.929 . S
C210 C209 1.399 . S
C210 C211 1.385 . S
C211 H197 0.931 . S
C211 C210 1.385 . S
C211 C212 1.389 . S
C212 C211 1.389 . S
C212 C213 1.387 . S
C213 H198 0.930 . S
C213 C208 1.390 . S
C213 C212 1.387 . S
H214 C226 0.930 . S
H215 C228 0.930 . S
H216 C229 0.930 1_655 S
H217 C233 0.959 . S
H218 C233 0.959 . S
H219 C233 0.961 . S
H220 C234 0.960 . S
H221 C234 0.961 1_665 S
H222 C234 0.959 1_655 S
H223 C237 0.929 . S
H224 C238 0.931 . S
H225 C240 0.930 . S
C226 H214 0.930 . S
C226 C227 1.399 1_554 S
C226 C231 1.399 . S
C227 C226 1.399 1_556 S
C227 C228 1.376 . S
C228 H215 0.930 . S
C228 C227 1.376 . S
C228 C229 1.388 . S
C229 H216 0.930 1_455 S
C229 C228 1.388 . S
C229 C230 1.390 1_455 S
C230 C229 1.390 1_655 S
C230 C231 1.392 1_656 S
C230 C236 1.466 1_545 S
C231 C226 1.399 . S
C231 C230 1.392 1_454 S
C231 C232 1.516 1_545 S
C232 C231 1.516 1_565 S
C232 C233 1.502 . S
C232 C234 1.561 1_565 S
C232 C235 1.526 1_455 S
C233 H217 0.959 . S
C233 H218 0.959 . S
C233 H219 0.961 . S
C233 C232 1.502 . S
C234 H220 0.960 . S
C234 H221 0.961 1_445 S
C234 H222 0.959 1_455 S
C234 C232 1.561 1_545 S
C235 C232 1.526 1_655 S
C235 C236 1.396 1_554 S
C235 C240 1.390 . S
C236 C230 1.466 1_565 S
C236 C235 1.396 1_556 S
C236 C237 1.399 . S
C237 H223 0.929 . S
C237 C236 1.399 . S
C237 C238 1.385 . S
C238 H224 0.931 . S
C238 C237 1.385 . S
C238 C239 1.389 . S
C239 C238 1.389 . S
C239 C240 1.387 1_556 S
C240 H225 0.930 . S
C240 C235 1.390 . S
C240 C239 1.387 1_554 S
H241 C253 0.930 . S
H242 C255 0.930 . S
H243 C256 0.930 1_565 S
H244 C260 0.959 . S
H245 C260 0.959 . S
H246 C260 0.961 . S
H247 C261 0.960 . S
H248 C261 0.961 . S
H249 C261 0.959 1_665 S
H250 C264 0.929 . S
H251 C265 0.931 . S
H252 C267 0.930 . S
C253 H241 0.930 . S
C253 C254 1.399 . S
C253 C258 1.399 . S
C254 C253 1.399 . S
C254 C255 1.376 . S
C255 H242 0.930 . S
C255 C254 1.376 . S
C255 C256 1.388 . S
C256 H243 0.930 1_545 S
C256 C255 1.388 . S
C256 C257 1.390 . S
C257 C256 1.390 . S
C257 C258 1.394 . S
C257 C263 1.465 1_545 S
C258 C253 1.399 . S
C258 C257 1.394 . S
C258 C259 1.516 1_655 S
C259 C258 1.516 1_455 S
C259 C260 1.502 . S
C259 C261 1.561 . S
C259 C262 1.526 1_545 S
C260 H244 0.959 . S
C260 H245 0.959 . S
C260 H246 0.961 . S
C260 C259 1.502 . S
C261 H247 0.960 . S
C261 H248 0.961 . S
C261 H249 0.959 1_445 S
C261 C259 1.561 . S
C262 C259 1.526 1_565 S
C262 C263 1.396 1_455 S
C262 C267 1.390 . S
C263 C257 1.465 1_565 S
C263 C262 1.396 1_655 S
C263 C264 1.399 . S
C264 H250 0.929 . S
C264 C263 1.399 . S
C264 C265 1.385 1_655 S
C265 H251 0.931 . S
C265 C264 1.385 1_455 S
C265 C266 1.389 . S
C266 C265 1.389 . S
C266 C267 1.387 . S
C267 H252 0.930 . S
C267 C262 1.390 . S
C267 C266 1.387 . S
H268 C280 0.930 . S
H269 C282 0.930 . S
H270 C283 0.930 . S
H271 C287 0.959 . S
H272 C287 0.959 . S
H273 C287 0.961 . S
H274 C288 0.960 . S
H275 C288 0.961 . S
H276 C288 0.959 . S
H277 C291 0.929 . S
H278 C292 0.931 . S
H279 C294 0.930 . S
C280 H268 0.930 . S
C280 C281 1.399 . S
C280 C285 1.399 . S
C281 C280 1.399 . S
C281 C282 1.376 . S
C282 H269 0.930 . S
C282 C281 1.376 . S
C282 C283 1.388 . S
C283 H270 0.930 . S
C283 C282 1.388 . S
C283 C284 1.390 . S
C284 C283 1.390 . S
C284 C285 1.394 . S
C284 C290 1.465 . S
C285 C280 1.399 . S
C285 C284 1.394 . S
C285 C286 1.516 . S
C286 C285 1.516 . S
C286 C287 1.502 . S
C286 C288 1.561 . S
C286 C289 1.526 . S
C287 H271 0.959 . S
C287 H272 0.959 . S
C287 H273 0.961 . S
C287 C286 1.502 . S
C288 H274 0.960 . S
C288 H275 0.961 . S
C288 H276 0.959 . S
C288 C286 1.561 . S
C289 C286 1.526 . S
C289 C290 1.396 . S
C289 C294 1.390 . S
C290 C284 1.465 . S
C290 C289 1.396 . S
C290 C291 1.399 . S
C291 H277 0.929 . S
C291 C290 1.399 . S
C291 C292 1.385 . S
C292 H278 0.931 . S
C292 C291 1.385 . S
C292 C293 1.389 . S
C293 C292 1.389 . S
C293 C294 1.387 . S
C294 H279 0.930 . S
C294 C289 1.390 . S
C294 C293 1.387 . S
H295 C307 0.930 . S
H296 C309 0.930 . S
H297 C310 0.930 . S
H298 C314 0.959 . S
H299 C314 0.959 . S
H300 C314 0.961 . S
H301 C315 0.960 . S
H302 C315 0.961 . S
H303 C315 0.959 . S
H304 C318 0.929 . S
H305 C319 0.931 . S
H306 C321 0.930 . S
C307 H295 0.930 . S
C307 C308 1.399 . S
C307 C312 1.399 . S
C308 C307 1.399 . S
C308 C309 1.376 . S
C309 H296 0.930 . S
C309 C308 1.376 . S
C309 C310 1.388 . S
C310 H297 0.930 . S
C310 C309 1.388 . S
C310 C311 1.390 . S
C311 C310 1.390 . S
C311 C312 1.394 . S
C311 C317 1.465 . S
C312 C307 1.399 . S
C312 C311 1.394 . S
C312 C313 1.516 . S
C313 C312 1.516 . S
C313 C314 1.502 . S
C313 C315 1.561 . S
C313 C316 1.526 . S
C314 H298 0.959 . S
C314 H299 0.959 . S
C314 H300 0.961 . S
C314 C313 1.502 . S
C315 H301 0.960 . S
C315 H302 0.961 . S
C315 H303 0.959 . S
C315 C313 1.561 . S
C316 C313 1.526 . S
C316 C317 1.396 . S
C316 C321 1.390 . S
C317 C311 1.465 . S
C317 C316 1.396 . S
C317 C318 1.399 . S
C318 H304 0.929 . S
C318 C317 1.399 . S
C318 C319 1.385 . S
C319 H305 0.931 . S
C319 C318 1.385 . S
C319 C320 1.389 . S
C320 C319 1.389 . S
C320 C321 1.387 . S
C321 H306 0.930 . S
C321 C316 1.390 . S
C321 C320 1.387 . S
H322 C334 0.930 . S
H323 C336 0.930 . S
H324 C337 0.930 . S
H325 C341 0.959 . S
H326 C341 0.959 . S
H327 C341 0.961 . S
H328 C342 0.960 . S
H329 C342 0.961 . S
H330 C342 0.959 . S
H331 C345 0.929 . S
H332 C346 0.931 . S
H333 C348 0.930 . S
C334 H322 0.930 . S
C334 C335 1.399 . S
C334 C339 1.399 . S
C335 C334 1.399 . S
C335 C336 1.376 . S
C336 H323 0.930 . S
C336 C335 1.376 . S
C336 C337 1.388 . S
C337 H324 0.930 . S
C337 C336 1.388 . S
C337 C338 1.390 . S
C338 C337 1.390 . S
C338 C339 1.394 . S
C338 C344 1.465 . S
C339 C334 1.399 . S
C339 C338 1.394 . S
C339 C340 1.516 . S
C340 C339 1.516 . S
C340 C341 1.502 . S
C340 C342 1.561 . S
C340 C343 1.526 . S
C341 H325 0.959 . S
C341 H326 0.959 . S
C341 H327 0.961 . S
C341 C340 1.502 . S
C342 H328 0.960 . S
C342 H329 0.961 . S
C342 H330 0.959 . S
C342 C340 1.561 . S
C343 C340 1.526 . S
C343 C344 1.396 . S
C343 C348 1.390 . S
C344 C338 1.465 . S
C344 C343 1.396 . S
C344 C345 1.399 . S
C345 H331 0.929 . S
C345 C344 1.399 . S
C345 C346 1.385 . S
C346 H332 0.931 . S
C346 C345 1.385 . S
C346 C347 1.389 . S
C347 C346 1.389 . S
C347 C348 1.387 . S
C348 H333 0.930 . S
C348 C343 1.390 . S
C348 C347 1.387 . S
H349 C361 0.930 . S
H350 C363 0.930 . S
H351 C364 0.930 . S
H352 C368 0.959 . S
H353 C368 0.959 . S
H354 C368 0.961 . S
H355 C369 0.960 . S
H356 C369 0.961 . S
H357 C369 0.959 . S
H358 C372 0.929 . S
H359 C373 0.931 . S
H360 C375 0.930 . S
C361 H349 0.930 . S
C361 C362 1.399 . S
C361 C366 1.399 . S
C362 C361 1.399 . S
C362 C363 1.376 . S
C363 H350 0.930 . S
C363 C362 1.376 . S
C363 C364 1.388 . S
C364 H351 0.930 . S
C364 C363 1.388 . S
C364 C365 1.390 . S
C365 C364 1.390 . S
C365 C366 1.394 . S
C365 C371 1.465 . S
C366 C361 1.399 . S
C366 C365 1.394 . S
C366 C367 1.516 . S
C367 C366 1.516 . S
C367 C368 1.502 . S
C367 C369 1.561 . S
C367 C370 1.526 . S
C368 H352 0.959 . S
C368 H353 0.959 . S
C368 H354 0.961 . S
C368 C367 1.502 . S
C369 H355 0.960 . S
C369 H356 0.961 . S
C369 H357 0.959 . S
C369 C367 1.561 . S
C370 C367 1.526 . S
C370 C371 1.396 . S
C370 C375 1.390 . S
C371 C365 1.465 . S
C371 C370 1.396 . S
C371 C372 1.399 . S
C372 H358 0.929 . S
C372 C371 1.399 . S
C372 C373 1.385 . S
C373 H359 0.931 . S
C373 C372 1.385 . S
C373 C374 1.389 . S
C374 C373 1.389 . S
C374 C375 1.387 . S
C375 H360 0.930 . S
C375 C370 1.390 . S
C375 C374 1.387 . S
H376 C388 0.930 . S
H377 C390 0.930 . S
H378 C391 0.930 . S
H379 C395 0.959 . S
H380 C395 0.959 . S
H381 C395 0.961 . S
H382 C396 0.960 . S
H383 C396 0.961 . S
H384 C396 0.959 . S
H385 C399 0.929 . S
H386 C400 0.931 . S
H387 C402 0.930 1_455 S
C388 H376 0.930 . S
C388 C389 1.399 . S
C388 C393 1.399 . S
C389 C388 1.399 . S
C389 C390 1.376 . S
C390 H377 0.930 . S
C390 C389 1.376 . S
C390 C391 1.388 . S
C391 H378 0.930 . S
C391 C390 1.388 . S
C391 C392 1.390 . S
C392 C391 1.390 . S
C392 C393 1.394 . S
C392 C398 1.465 . S
C393 C388 1.399 . S
C393 C392 1.394 . S
C393 C394 1.516 . S
C394 C393 1.516 . S
C394 C395 1.502 1_655 S
C394 C396 1.561 . S
C394 C397 1.526 . S
C395 H379 0.959 . S
C395 H380 0.959 . S
C395 H381 0.961 . S
C395 C394 1.502 1_455 S
C396 H382 0.960 . S
C396 H383 0.961 . S
C396 H384 0.959 . S
C396 C394 1.561 . S
C397 C394 1.526 . S
C397 C398 1.396 . S
C397 C402 1.390 . S
C398 C392 1.465 . S
C398 C397 1.396 . S
C398 C399 1.399 . S
C399 H385 0.929 . S
C399 C398 1.399 . S
C399 C400 1.385 . S
C400 H386 0.931 . S
C400 C399 1.385 . S
C400 C401 1.389 . S
C401 C400 1.389 . S
C401 C402 1.387 . S
C402 H387 0.930 1_655 S
C402 C397 1.390 . S
C402 C401 1.387 . S
H403 C415 0.930 . S
H404 C417 0.930 . S
H405 C418 0.930 . S
H406 C422 0.959 . S
H407 C422 0.959 . S
H408 C422 0.961 . S
H409 C423 0.960 . S
H410 C423 0.961 . S
H411 C423 0.961 . S
H412 C426 0.929 1_455 S
H413 C427 0.931 . S
H414 C429 0.930 . S
C415 H403 0.930 . S
C415 C416 1.399 . S
C415 C420 1.399 . S
C416 C415 1.399 . S
C416 C417 1.376 . S
C417 H404 0.930 . S
C417 C416 1.376 . S
C417 C418 1.388 . S
C418 H405 0.930 . S
C418 C417 1.388 . S
C418 C419 1.390 . S
C419 C418 1.390 . S
C419 C420 1.394 . S
C419 C425 1.465 . S
C420 C415 1.399 . S
C420 C419 1.394 . S
C420 C421 1.516 . S
C421 C420 1.516 . S
C421 C422 1.502 . S
C421 C423 1.561 . S
C421 C424 1.526 . S
C422 H406 0.959 . S
C422 H407 0.959 . S
C422 H408 0.961 . S
C422 C421 1.502 . S
C423 H409 0.960 . S
C423 H410 0.961 . S
C423 H411 0.961 . S
C423 C421 1.561 . S
C424 C421 1.526 . S
C424 C425 1.396 . S
C424 C429 1.390 . S
C425 C419 1.465 . S
C425 C424 1.396 . S
C425 C426 1.399 . S
C426 H412 0.929 1_655 S
C426 C425 1.399 . S
C426 C427 1.385 1_655 S
C427 H413 0.931 . S
C427 C426 1.385 1_455 S
C427 C428 1.389 1_455 S
C428 C427 1.389 1_655 S
C428 C429 1.387 . S
C429 H414 0.930 . S
C429 C424 1.390 . S
C429 C428 1.387 . S
H430 C442 0.930 . S
H431 C444 0.930 1_655 S
H432 C445 0.930 . S
H433 C449 0.959 . S
H434 C449 0.959 . S
H435 C449 0.961 . S
H436 C450 0.960 . S
H437 C450 0.961 . S
H438 C450 0.959 1_655 S
H439 C453 0.929 . S
H440 C454 0.931 . S
H441 C456 0.930 . S
C442 H430 0.930 . S
C442 C443 1.399 . S
C442 C447 1.399 . S
C443 C442 1.399 . S
C443 C444 1.376 . S
C444 H431 0.930 1_455 S
C444 C443 1.376 . S
C444 C445 1.388 . S
C445 H432 0.930 . S
C445 C444 1.388 . S
C445 C446 1.390 . S
C446 C445 1.390 . S
C446 C447 1.394 . S
C446 C452 1.465 . S
C447 C442 1.399 . S
C447 C446 1.394 . S
C447 C448 1.516 . S
C448 C447 1.516 . S
C448 C449 1.502 . S
C448 C450 1.561 . S
C448 C451 1.526 . S
C449 H433 0.959 . S
C449 H434 0.959 . S
C449 H435 0.961 . S
C449 C448 1.502 . S
C450 H436 0.960 . S
C450 H437 0.961 . S
C450 H438 0.959 1_455 S
C450 C448 1.561 . S
C451 C448 1.526 . S
C451 C452 1.396 . S
C451 C456 1.390 . S
C452 C446 1.465 . S
C452 C451 1.396 . S
C452 C453 1.399 . S
C453 H439 0.929 . S
C453 C452 1.399 . S
C453 C454 1.385 . S
C454 H440 0.931 . S
C454 C453 1.385 . S
C454 C455 1.389 . S
C455 C454 1.389 . S
C455 C456 1.387 . S
C456 H441 0.930 . S
C456 C451 1.390 . S
C456 C455 1.387 . S
H457 C469 0.930 . S
H458 C471 0.930 . S
H459 C472 0.929 . S
H460 C476 0.959 . S
H461 C476 0.959 . S
H462 C476 0.961 . S
H463 C477 0.960 . S
H464 C477 0.961 . S
H465 C477 0.959 . S
H466 C480 0.929 . S
H467 C481 0.931 . S
H468 C483 0.930 . S
C469 H457 0.930 . S
C469 C470 1.399 . S
C469 C474 1.399 . S
C470 C469 1.399 . S
C470 C471 1.376 . S
C471 H458 0.930 . S
C471 C470 1.376 . S
C471 C472 1.388 . S
C472 H459 0.929 . S
C472 C471 1.388 . S
C472 C473 1.390 . S
C473 C472 1.390 . S
C473 C474 1.394 . S
C473 C479 1.465 . S
C474 C469 1.399 . S
C474 C473 1.394 . S
C474 C475 1.516 . S
C475 C474 1.516 . S
C475 C476 1.502 . S
C475 C477 1.561 . S
C475 C478 1.526 . S
C476 H460 0.959 . S
C476 H461 0.959 . S
C476 H462 0.961 . S
C476 C475 1.502 . S
C477 H463 0.960 . S
C477 H464 0.961 . S
C477 H465 0.959 . S
C477 C475 1.561 . S
C478 C475 1.526 . S
C478 C479 1.396 . S
C478 C483 1.390 . S
C479 C473 1.465 . S
C479 C478 1.396 . S
C479 C480 1.399 1_455 S
C480 H466 0.929 . S
C480 C479 1.399 1_655 S
C480 C481 1.385 . S
C481 H467 0.931 . S
C481 C480 1.385 . S
C481 C482 1.389 1_655 S
C482 C481 1.389 1_455 S
C482 C483 1.387 . S
C483 H468 0.930 . S
C483 C478 1.390 . S
C483 C482 1.387 . S
C173 C58 1.512 1_554 S
C185 C9 1.500 . S
C200 C89 1.496 . S
C212 C138 1.516 . S
C227 C18 1.516 . S
C239 C49 1.511 1_556 S
C254 C129 1.487 . S
C266 C98 1.534 . S
C281 C126 1.260 . S
C293 C10 1.259 . S
C308 C46 1.278 . S
C320 C90 1.289 . S
C335 C59 1.291 . S
C347 C95 1.286 . S
C362 C139 1.288 . S
C374 C15 1.279 . S
C389 C50 1.284 . S
C401 C86 1.290 . S
C416 C130 1.269 . S
C428 C6 1.240 . S
C443 C135 1.242 . S
C455 C19 1.267 . S
C470 C99 1.287 . S
C482 C55 1.276 . S
