# Generated by pormake.
# Topology pcb, (4)-cn, num edge types: 1
# Building blocks:
#     Node 0, Type 0, BuildingBlock: UXUYUI_clean_sbu_0, # of connection points: 4
#     Node 1, Type 0, BuildingBlock: UXUYUI_clean_sbu_0, # of connection points: 4
#     Node 2, Type 0, BuildingBlock: UXUYUI_clean_sbu_0, # of connection points: 4
#     Node 3, Type 0, BuildingBlock: UXUYUI_clean_sbu_0, # of connection points: 4
#     Node 4, Type 0, BuildingBlock: UXUYUI_clean_sbu_0, # of connection points: 4
#     Node 5, Type 0, BuildingBlock: UXUYUI_clean_sbu_0, # of connection points: 4
#     Node 6, Type 0, BuildingBlock: UXUYUI_clean_sbu_0, # of connection points: 4
#     Node 7, Type 0, BuildingBlock: UXUYUI_clean_sbu_0, # of connection points: 4
#     Node 8, Type 0, BuildingBlock: UXUYUI_clean_sbu_0, # of connection points: 4
#     Node 9, Type 0, BuildingBlock: UXUYUI_clean_sbu_0, # of connection points: 4
#     Node 10, Type 0, BuildingBlock: UXUYUI_clean_sbu_0, # of connection points: 4
#     Node 11, Type 0, BuildingBlock: UXUYUI_clean_sbu_0, # of connection points: 4
#     Node 12, Type 0, BuildingBlock: UXUYUI_clean_sbu_0, # of connection points: 4
#     Node 13, Type 0, BuildingBlock: UXUYUI_clean_sbu_0, # of connection points: 4
#     Node 14, Type 0, BuildingBlock: UXUYUI_clean_sbu_0, # of connection points: 4
#     Node 15, Type 0, BuildingBlock: UXUYUI_clean_sbu_0, # of connection points: 4
#     Edge 16, Type (0, 0), BuildingBlock: ZUJKAS_clean_linker_0, # of connection points: 2
#     Edge 17, Type (0, 0), BuildingBlock: ZUJKAS_clean_linker_0, # of connection points: 2
#     Edge 18, Type (0, 0), BuildingBlock: ZUJKAS_clean_linker_0, # of connection points: 2
#     Edge 19, Type (0, 0), BuildingBlock: ZUJKAS_clean_linker_0, # of connection points: 2
#     Edge 20, Type (0, 0), BuildingBlock: ZUJKAS_clean_linker_0, # of connection points: 2
#     Edge 21, Type (0, 0), BuildingBlock: ZUJKAS_clean_linker_0, # of connection points: 2
#     Edge 22, Type (0, 0), BuildingBlock: ZUJKAS_clean_linker_0, # of connection points: 2
#     Edge 23, Type (0, 0), BuildingBlock: ZUJKAS_clean_linker_0, # of connection points: 2
#     Edge 24, Type (0, 0), BuildingBlock: ZUJKAS_clean_linker_0, # of connection points: 2
#     Edge 25, Type (0, 0), BuildingBlock: ZUJKAS_clean_linker_0, # of connection points: 2
#     Edge 26, Type (0, 0), BuildingBlock: ZUJKAS_clean_linker_0, # of connection points: 2
#     Edge 27, Type (0, 0), BuildingBlock: ZUJKAS_clean_linker_0, # of connection points: 2
#     Edge 28, Type (0, 0), BuildingBlock: ZUJKAS_clean_linker_0, # of connection points: 2
#     Edge 29, Type (0, 0), BuildingBlock: ZUJKAS_clean_linker_0, # of connection points: 2
#     Edge 30, Type (0, 0), BuildingBlock: ZUJKAS_clean_linker_0, # of connection points: 2
#     Edge 31, Type (0, 0), BuildingBlock: ZUJKAS_clean_linker_0, # of connection points: 2
#     Edge 32, Type (0, 0), BuildingBlock: ZUJKAS_clean_linker_0, # of connection points: 2
#     Edge 33, Type (0, 0), BuildingBlock: ZUJKAS_clean_linker_0, # of connection points: 2
#     Edge 34, Type (0, 0), BuildingBlock: ZUJKAS_clean_linker_0, # of connection points: 2
#     Edge 35, Type (0, 0), BuildingBlock: ZUJKAS_clean_linker_0, # of connection points: 2
#     Edge 36, Type (0, 0), BuildingBlock: ZUJKAS_clean_linker_0, # of connection points: 2
#     Edge 37, Type (0, 0), BuildingBlock: ZUJKAS_clean_linker_0, # of connection points: 2
#     Edge 38, Type (0, 0), BuildingBlock: ZUJKAS_clean_linker_0, # of connection points: 2
#     Edge 39, Type (0, 0), BuildingBlock: ZUJKAS_clean_linker_0, # of connection points: 2
#     Edge 40, Type (0, 0), BuildingBlock: ZUJKAS_clean_linker_0, # of connection points: 2
#     Edge 41, Type (0, 0), BuildingBlock: ZUJKAS_clean_linker_0, # of connection points: 2
#     Edge 42, Type (0, 0), BuildingBlock: ZUJKAS_clean_linker_0, # of connection points: 2
#     Edge 43, Type (0, 0), BuildingBlock: ZUJKAS_clean_linker_0, # of connection points: 2
#     Edge 44, Type (0, 0), BuildingBlock: ZUJKAS_clean_linker_0, # of connection points: 2
#     Edge 45, Type (0, 0), BuildingBlock: ZUJKAS_clean_linker_0, # of connection points: 2
#     Edge 46, Type (0, 0), BuildingBlock: ZUJKAS_clean_linker_0, # of connection points: 2
#     Edge 47, Type (0, 0), BuildingBlock: ZUJKAS_clean_linker_0, # of connection points: 2
# Relax obj value: 0.233
# Max RMSD: 0.082
# Mean RMSD: 0.081
data_MOF--net-pcb--node1-UXUYUI_clean_sbu_0--edge1-ZUJKAS_clean_linker_0
_symmetry_space_group_name_H-M    P1
_symmetry_Int_Tables_number       1
_symmetry_cell_setting            triclinic
loop_
_symmetry_equiv_pos_as_xyz
'x, y, z'
_cell_length_a     82.499059
_cell_length_b     82.177132
_cell_length_c     82.398917
_cell_angle_alpha  90.092236
_cell_angle_beta   89.994862
_cell_angle_gamma 90.167463
loop_
_atom_site_label
_atom_site_type_symbol
_atom_site_fract_x
_atom_site_fract_y
_atom_site_fract_z
_atom_type_partial_charge
Li0 Li 0.15212 0.15752 0.13714 0.0
Li1 Li 0.16197 0.16542 0.16378 0.0
Li2 Li 0.15393 0.13761 0.15822 0.0
Li3 Li 0.13392 0.15933 0.16035 0.0
C4 C 0.18311 0.15133 0.13641 0.0
N5 N 0.20486 0.15514 0.11119 0.0
C6 C 0.19381 0.16455 0.1363 0.0
C7 C 0.18352 0.14001 0.12373 0.0
C8 C 0.20472 0.16626 0.12344 0.0
C9 C 0.19458 0.14217 0.11108 0.0
C10 C 0.1353 0.18902 0.14854 0.0
C11 C 0.11829 0.20954 0.16068 0.0
N12 N 0.11131 0.21228 0.14599 0.0
C13 C 0.12798 0.19208 0.13355 0.0
C14 C 0.13047 0.19787 0.16221 0.0
C15 C 0.11588 0.20388 0.13252 0.0
C16 C 0.14562 0.15155 0.10424 0.0
N17 N 0.15376 0.16149 0.11461 0.0
C18 C 0.16375 0.17747 0.09257 0.0
C19 C 0.16263 0.17434 0.10917 0.0
C20 C 0.15548 0.16736 0.08156 0.0
C21 C 0.14635 0.15425 0.08758 0.0
H22 H 0.13848 0.14158 0.10892 0.0
H23 H 0.16874 0.18221 0.11777 0.0
C24 C 0.19 0.17126 0.18218 0.0
N25 N 0.17713 0.17849 0.17489 0.0
C26 C 0.20104 0.18058 0.19103 0.0
C27 C 0.1857 0.20464 0.18409 0.0
C28 C 0.17491 0.19484 0.17547 0.0
C29 C 0.19888 0.19748 0.19211 0.0
H30 H 0.19157 0.15823 0.18122 0.0
H31 H 0.16472 0.20026 0.16932 0.0
C32 C 0.12855 0.12692 0.14228 0.0
N33 N 0.11588 0.0958 0.14059 0.0
C34 C 0.11482 0.1228 0.15134 0.0
C35 C 0.13578 0.11524 0.13229 0.0
C36 C 0.1086 0.10699 0.15032 0.0
C37 C 0.12922 0.09956 0.13164 0.0
C38 C 0.15488 0.15316 0.19233 0.0
C39 C 0.16545 0.14154 0.19869 0.0
C40 C 0.15169 0.16737 0.20111 0.0
C41 C 0.17278 0.14441 0.21372 0.0
C42 C 0.1593 0.1698 0.21607 0.0
N43 N 0.1696 0.15836 0.22201 0.0
C44 C 0.1713 0.1082 0.15622 0.0
C45 C 0.14753 0.1071 0.17237 0.0
C46 C 0.17391 0.0916 0.15848 0.0
N47 N 0.15812 0.11547 0.16289 0.0
C48 C 0.14961 0.09045 0.17487 0.0
C49 C 0.16284 0.08248 0.1677 0.0
H50 H 0.17962 0.11521 0.1489 0.0
H51 H 0.13727 0.11331 0.17769 0.0
C52 C 0.10185 0.16702 0.15391 0.0
N53 N 0.11246 0.1647 0.16628 0.0
C54 C 0.08601 0.1718 0.15712 0.0
C55 C 0.09208 0.17107 0.18584 0.0
C56 C 0.10793 0.16648 0.18204 0.0
C57 C 0.08098 0.17394 0.17326 0.0
H58 H 0.1058 0.16527 0.14151 0.0
H59 H 0.1166 0.16439 0.19163 0.0
O60 O 0.17214 0.14959 0.14875 0.0
O61 O 0.14695 0.17728 0.14987 0.0
O62 O 0.13503 0.14223 0.14337 0.0
O63 O 0.14782 0.15072 0.1775 0.0
H64 H 0.19361 0.17348 0.14595 0.0
H65 H 0.1752 0.12981 0.12353 0.0
H66 H 0.21303 0.17646 0.12316 0.0
H67 H 0.19495 0.13358 0.10113 0.0
H68 H 0.11435 0.21637 0.17119 0.0
H69 H 0.13147 0.1853 0.12286 0.0
H70 H 0.13587 0.19555 0.17394 0.0
H71 H 0.11006 0.20632 0.12101 0.0
H72 H 0.17076 0.18782 0.08841 0.0
H73 H 0.13994 0.14606 0.07949 0.0
H74 H 0.21119 0.17466 0.19687 0.0
H75 H 0.18357 0.21762 0.18473 0.0
H76 H 0.10912 0.13163 0.15921 0.0
H77 H 0.14653 0.11816 0.12534 0.0
H78 H 0.09802 0.10361 0.15731 0.0
H79 H 0.13478 0.09037 0.12408 0.0
H80 H 0.1681 0.13051 0.19204 0.0
H81 H 0.14364 0.17654 0.19631 0.0
H82 H 0.18105 0.13556 0.21876 0.0
H83 H 0.15706 0.1808 0.22293 0.0
H84 H 0.1842 0.08589 0.15265 0.0
H85 H 0.14092 0.08388 0.18224 0.0
H86 H 0.0777 0.17357 0.14711 0.0
H87 H 0.08859 0.17255 0.19843 0.0
Li88 Li 0.8294 0.16298 0.1632 0.0
Li89 Li 0.83782 0.13524 0.15816 0.0
Li90 Li 0.85747 0.15868 0.15802 0.0
Li91 Li 0.8384 0.15496 0.13556 0.0
C92 C 0.83954 0.15281 0.1917 0.0
N93 N 0.82835 0.15961 0.22258 0.0
C94 C 0.83055 0.14119 0.20023 0.0
C95 C 0.84302 0.16781 0.19896 0.0
C96 C 0.82497 0.14487 0.21581 0.0
C97 C 0.83719 0.17104 0.21455 0.0
C98 C 0.80734 0.13776 0.14161 0.0
C99 C 0.79768 0.11919 0.12102 0.0
N100 N 0.78282 0.11911 0.12815 0.0
C101 C 0.79189 0.13766 0.14859 0.0
C102 C 0.8102 0.12859 0.12761 0.0
C103 C 0.77969 0.12808 0.14167 0.0
C104 C 0.81478 0.19181 0.17437 0.0
N105 N 0.81412 0.17531 0.17481 0.0
C106 C 0.79158 0.17593 0.19289 0.0
C107 C 0.80276 0.16727 0.18366 0.0
C108 C 0.79209 0.193 0.1929 0.0
C109 C 0.80382 0.20097 0.18341 0.0
H110 H 0.82391 0.19784 0.16713 0.0
H111 H 0.80255 0.15412 0.18369 0.0
C112 C 0.84746 0.10301 0.16346 0.0
N113 N 0.83452 0.11319 0.16378 0.0
C114 C 0.84533 0.08643 0.16633 0.0
C115 C 0.81677 0.0913 0.1708 0.0
C116 C 0.81946 0.10779 0.16778 0.0
C117 C 0.82977 0.08036 0.16976 0.0
H118 H 0.85937 0.10773 0.16063 0.0
H119 H 0.80949 0.11624 0.16845 0.0
C120 C 0.85322 0.18815 0.14509 0.0
N121 N 0.8741 0.21393 0.13964 0.0
C122 C 0.85854 0.19163 0.12936 0.0
C123 C 0.85838 0.1979 0.15802 0.0
C124 C 0.86912 0.20469 0.12686 0.0
C125 C 0.86899 0.21084 0.15503 0.0
C126 C 0.86284 0.12991 0.13154 0.0
C127 C 0.87853 0.13307 0.12593 0.0
C128 C 0.85451 0.11621 0.12581 0.0
C129 C 0.88548 0.1227 0.11444 0.0
C130 C 0.86187 0.10612 0.11434 0.0
N131 N 0.87706 0.10956 0.10891 0.0
C132 C 0.8841 0.16407 0.17889 0.0
C133 C 0.8888 0.17075 0.15131 0.0
C134 C 0.89988 0.16867 0.18298 0.0
N135 N 0.87892 0.16519 0.16328 0.0
C136 C 0.90462 0.17555 0.15485 0.0
C137 C 0.91037 0.17447 0.17085 0.0
H138 H 0.87603 0.15947 0.18815 0.0
H139 H 0.88443 0.17136 0.13897 0.0
C140 C 0.81982 0.16475 0.10918 0.0
N141 N 0.83429 0.15795 0.11315 0.0
C142 C 0.81556 0.16682 0.09293 0.0
C143 C 0.84128 0.15506 0.08522 0.0
C144 C 0.8451 0.15337 0.10159 0.0
C145 C 0.82629 0.16174 0.08074 0.0
H146 H 0.81152 0.16836 0.11867 0.0
H147 H 0.85668 0.14841 0.10501 0.0
O148 O 0.84485 0.14954 0.17632 0.0
O149 O 0.81941 0.14711 0.14827 0.0
O150 O 0.84296 0.17533 0.14778 0.0
O151 O 0.85589 0.13999 0.14282 0.0
H152 H 0.82781 0.1295 0.19483 0.0
H153 H 0.84999 0.17691 0.19254 0.0
H154 H 0.81791 0.13603 0.22251 0.0
H155 H 0.83968 0.18265 0.22025 0.0
H156 H 0.79977 0.11203 0.1102 0.0
H157 H 0.78933 0.14484 0.15928 0.0
H158 H 0.82186 0.12889 0.12171 0.0
H159 H 0.76772 0.12782 0.14702 0.0
H160 H 0.78261 0.16933 0.19989 0.0
H161 H 0.80472 0.21412 0.18323 0.0
H162 H 0.85571 0.07842 0.16572 0.0
H163 H 0.80459 0.08711 0.17342 0.0
H164 H 0.85463 0.18426 0.11919 0.0
H165 H 0.85437 0.19541 0.17026 0.0
H166 H 0.8734 0.20746 0.11477 0.0
H167 H 0.87317 0.2184 0.16494 0.0
H168 H 0.88528 0.14345 0.13033 0.0
H169 H 0.84259 0.11322 0.13033 0.0
H170 H 0.89756 0.12509 0.10992 0.0
H171 H 0.85553 0.09551 0.1098 0.0
H172 H 0.90384 0.16769 0.19547 0.0
H173 H 0.91239 0.17965 0.14508 0.0
H174 H 0.80388 0.17199 0.08992 0.0
H175 H 0.85 0.1513 0.07613 0.0
Li176 Li 0.84096 0.85331 0.15836 0.0
Li177 Li 0.85978 0.83077 0.16252 0.0
Li178 Li 0.84095 0.83074 0.1385 0.0
Li179 Li 0.83155 0.82565 0.16587 0.0
C180 C 0.8662 0.8575 0.13424 0.0
N181 N 0.88118 0.88032 0.11463 0.0
C182 C 0.88164 0.86338 0.13815 0.0
C183 C 0.85855 0.86301 0.12015 0.0
C184 C 0.88896 0.87498 0.12815 0.0
C185 C 0.86627 0.8746 0.11045 0.0
C186 C 0.85468 0.84348 0.19186 0.0
C187 C 0.86982 0.83312 0.21464 0.0
N188 N 0.87474 0.84851 0.21827 0.0
C189 C 0.85979 0.85921 0.19589 0.0
C190 C 0.85963 0.83033 0.20138 0.0
C191 C 0.86995 0.86149 0.20927 0.0
C192 C 0.82205 0.88019 0.16653 0.0
N193 N 0.8371 0.87581 0.16146 0.0
C194 C 0.84562 0.90356 0.16085 0.0
C195 C 0.84891 0.88706 0.15885 0.0
C196 C 0.83007 0.90849 0.16572 0.0
C197 C 0.81823 0.89658 0.16874 0.0
H198 H 0.81296 0.87093 0.1687 0.0
H199 H 0.8609 0.88327 0.15536 0.0
C200 C 0.88632 0.80988 0.1677 0.0
N201 N 0.88105 0.82544 0.16937 0.0
C202 C 0.90225 0.80586 0.17172 0.0
C203 C 0.90688 0.83391 0.17939 0.0
C204 C 0.89089 0.83737 0.17521 0.0
C205 C 0.91282 0.81802 0.17744 0.0
H206 H 0.87828 0.80066 0.1629 0.0
H207 H 0.88644 0.84967 0.17628 0.0
C208 C 0.81071 0.84747 0.13981 0.0
N209 N 0.7875 0.86118 0.11988 0.0
C210 C 0.7952 0.84063 0.13883 0.0
C211 C 0.81428 0.86147 0.13087 0.0
C212 C 0.78367 0.84767 0.12862 0.0
C213 C 0.80243 0.86817 0.12082 0.0
C214 C 0.84179 0.7971 0.15594 0.0
C215 C 0.8328 0.78876 0.14419 0.0
C216 C 0.84498 0.78966 0.17085 0.0
C217 C 0.82691 0.77319 0.14764 0.0
C218 C 0.83885 0.77409 0.17385 0.0
N219 N 0.83001 0.76625 0.16229 0.0
C220 C 0.85204 0.82476 0.10686 0.0
C221 C 0.82379 0.82083 0.11042 0.0
C222 C 0.85077 0.82099 0.0904 0.0
N223 N 0.8386 0.82492 0.11639 0.0
C224 C 0.82195 0.81694 0.09404 0.0
C225 C 0.83553 0.81717 0.08376 0.0
H226 H 0.86372 0.82779 0.11202 0.0
H227 H 0.81341 0.82046 0.11839 0.0
C228 C 0.81634 0.81402 0.19412 0.0
N229 N 0.81585 0.81397 0.17766 0.0
C230 C 0.8051 0.80493 0.20294 0.0
C231 C 0.79295 0.79621 0.17764 0.0
C232 C 0.80443 0.80545 0.16933 0.0
C233 C 0.79327 0.79581 0.19467 0.0
H234 H 0.82552 0.82099 0.2004 0.0
H235 H 0.80439 0.80568 0.15621 0.0
O236 O 0.8589 0.84606 0.14391 0.0
O237 O 0.8448 0.841 0.17874 0.0
O238 O 0.82212 0.84068 0.14978 0.0
O239 O 0.84737 0.81249 0.15291 0.0
H240 H 0.88788 0.85914 0.14884 0.0
H241 H 0.84688 0.85824 0.11656 0.0
H242 H 0.90084 0.87972 0.13113 0.0
H243 H 0.86045 0.87898 0.09954 0.0
H244 H 0.87384 0.82304 0.22203 0.0
H245 H 0.85601 0.86954 0.18875 0.0
H246 H 0.85577 0.81809 0.19846 0.0
H247 H 0.87406 0.87359 0.21248 0.0
H248 H 0.85518 0.91237 0.15874 0.0
H249 H 0.80609 0.89989 0.17246 0.0
H250 H 0.90631 0.79344 0.17013 0.0
H251 H 0.91467 0.84372 0.18346 0.0
H252 H 0.79209 0.82996 0.14582 0.0
H253 H 0.82598 0.86727 0.13186 0.0
H254 H 0.77167 0.84243 0.12767 0.0
H255 H 0.80507 0.87899 0.11383 0.0
H256 H 0.83028 0.7943 0.13257 0.0
H257 H 0.85197 0.79591 0.18005 0.0
H258 H 0.81984 0.76664 0.1387 0.0
H259 H 0.8411 0.76825 0.18539 0.0
H260 H 0.86154 0.82143 0.0829 0.0
H261 H 0.81004 0.81373 0.0895 0.0
H262 H 0.80589 0.8048 0.21606 0.0
H263 H 0.78391 0.78951 0.17081 0.0
Li264 Li 0.1379 0.83198 0.15127 0.0
Li265 Li 0.16533 0.82721 0.16066 0.0
Li266 Li 0.15744 0.8536 0.15034 0.0
Li267 Li 0.16044 0.83016 0.13234 0.0
C268 C 0.13779 0.84147 0.18149 0.0
N269 N 0.11356 0.83842 0.20445 0.0
C270 C 0.13848 0.82906 0.19305 0.0
C271 C 0.12482 0.85238 0.18167 0.0
C272 C 0.12611 0.82772 0.20456 0.0
C273 C 0.11267 0.85061 0.19335 0.0
C274 C 0.15102 0.7999 0.1369 0.0
C275 C 0.16402 0.77881 0.12125 0.0
N276 N 0.14933 0.7742 0.11529 0.0
C277 C 0.13604 0.79492 0.13066 0.0
C278 C 0.16512 0.79175 0.13222 0.0
C279 C 0.13545 0.7819 0.11974 0.0
C280 C 0.1042 0.83597 0.14786 0.0
N281 N 0.11585 0.82668 0.15483 0.0
C282 C 0.0959 0.81042 0.16821 0.0
C283 C 0.11207 0.81397 0.16468 0.0
C284 C 0.08358 0.81999 0.16141 0.0
C285 C 0.0879 0.83285 0.15103 0.0
H286 H 0.10756 0.84591 0.14 0.0
H287 H 0.12165 0.80672 0.16992 0.0
C288 C 0.18359 0.82644 0.18914 0.0
N289 N 0.17786 0.81708 0.1768 0.0
C290 C 0.19299 0.81952 0.20135 0.0
C291 C 0.19012 0.79342 0.18799 0.0
C292 C 0.18078 0.80086 0.17604 0.0
C293 C 0.19638 0.8028 0.20082 0.0
H294 H 0.18088 0.83931 0.18944 0.0
H295 H 0.17581 0.7937 0.16623 0.0
C296 C 0.13996 0.86052 0.12476 0.0
N297 N 0.13565 0.88997 0.10923 0.0
C298 C 0.1478 0.86363 0.11005 0.0
C299 C 0.12986 0.87236 0.13154 0.0
C300 C 0.14546 0.8786 0.10238 0.0
C301 C 0.12787 0.88719 0.12352 0.0
C302 C 0.19248 0.84066 0.15141 0.0
C303 C 0.19822 0.85348 0.16099 0.0
C304 C 0.20218 0.82695 0.14895 0.0
C305 C 0.21356 0.85232 0.16807 0.0
C306 C 0.21743 0.82623 0.15628 0.0
N307 N 0.22276 0.83883 0.16561 0.0
C308 C 0.15594 0.88363 0.16658 0.0
C309 C 0.16899 0.88461 0.14095 0.0
C310 C 0.15847 0.90025 0.16884 0.0
N311 N 0.16104 0.87624 0.15275 0.0
C312 C 0.17167 0.9013 0.14264 0.0
C313 C 0.16636 0.90931 0.15674 0.0
H314 H 0.14996 0.87661 0.1759 0.0
H315 H 0.17323 0.8783 0.13024 0.0
C316 C 0.1542 0.81862 0.10103 0.0
N317 N 0.16629 0.82347 0.11115 0.0
C318 C 0.15772 0.81392 0.08517 0.0
C319 C 0.18604 0.81962 0.09033 0.0
C320 C 0.18199 0.82404 0.10618 0.0
C321 C 0.1738 0.81452 0.07962 0.0
H322 H 0.14179 0.81864 0.10524 0.0
H323 H 0.19131 0.82819 0.11443 0.0
O324 O 0.14958 0.84276 0.16987 0.0
O325 O 0.15188 0.81277 0.14742 0.0
O326 O 0.14227 0.84603 0.13257 0.0
O327 O 0.17735 0.8414 0.14467 0.0
H328 H 0.14834 0.82041 0.19302 0.0
H329 H 0.12399 0.86195 0.1727 0.0
H330 H 0.12645 0.81813 0.21352 0.0
H331 H 0.10249 0.85888 0.19354 0.0
H332 H 0.17485 0.77248 0.11743 0.0
H333 H 0.12501 0.80113 0.13405 0.0
H334 H 0.17682 0.79554 0.1368 0.0
H335 H 0.12396 0.77796 0.11476 0.0
H336 H 0.09308 0.80028 0.17611 0.0
H337 H 0.0788 0.84065 0.14569 0.0
H338 H 0.19769 0.82718 0.21097 0.0
H339 H 0.19221 0.78043 0.18731 0.0
H340 H 0.15572 0.85467 0.10465 0.0
H341 H 0.12385 0.87025 0.14301 0.0
H342 H 0.1515 0.88119 0.09102 0.0
H343 H 0.1202 0.8965 0.12869 0.0
H344 H 0.19086 0.86415 0.16309 0.0
H345 H 0.19787 0.81686 0.14167 0.0
H346 H 0.21813 0.86212 0.17559 0.0
H347 H 0.225 0.81564 0.15459 0.0
H348 H 0.1541 0.90599 0.17984 0.0
H349 H 0.17798 0.90784 0.13313 0.0
H350 H 0.1479 0.81037 0.07717 0.0
H351 H 0.19858 0.82027 0.08645 0.0
Li352 Li 0.16151 0.86001 0.83561 0.0
Li353 Li 0.16091 0.83866 0.85632 0.0
Li354 Li 0.16528 0.8324 0.82732 0.0
Li355 Li 0.13838 0.83982 0.83648 0.0
C356 C 0.19274 0.85465 0.84365 0.0
N357 N 0.21973 0.87443 0.84666 0.0
C358 C 0.19944 0.8577 0.85894 0.0
C359 C 0.19988 0.86154 0.82987 0.0
C360 C 0.21306 0.86776 0.86021 0.0
C361 C 0.21348 0.87155 0.83165 0.0
C362 C 0.13724 0.86363 0.8655 0.0
C363 C 0.11493 0.8648 0.88441 0.0
N364 N 0.12129 0.87861 0.89096 0.0
C365 C 0.14342 0.87797 0.87228 0.0
C366 C 0.12276 0.8571 0.87149 0.0
C367 C 0.13524 0.8853 0.8852 0.0
C368 C 0.16056 0.88876 0.81749 0.0
N369 N 0.1666 0.88214 0.83133 0.0
C370 C 0.17937 0.90728 0.83843 0.0
C371 C 0.17573 0.89106 0.84183 0.0
C372 C 0.17324 0.91444 0.82427 0.0
C373 C 0.16369 0.90501 0.81373 0.0
H374 H 0.15319 0.88144 0.80944 0.0
H375 H 0.18012 0.88563 0.85292 0.0
C376 C 0.17127 0.81727 0.88069 0.0
N377 N 0.16678 0.83291 0.87784 0.0
C378 C 0.17524 0.81227 0.89637 0.0
C379 C 0.17059 0.83975 0.90574 0.0
C380 C 0.16662 0.84418 0.88991 0.0
C381 C 0.17482 0.82357 0.90915 0.0
H382 H 0.17165 0.80863 0.87079 0.0
H383 H 0.16347 0.85662 0.88728 0.0
C384 C 0.15146 0.84471 0.80149 0.0
N385 N 0.15416 0.83601 0.76921 0.0
C386 C 0.1396 0.83494 0.79425 0.0
C387 C 0.16459 0.85023 0.79228 0.0
C388 C 0.14121 0.83064 0.77792 0.0
C389 C 0.16577 0.84564 0.77599 0.0
C390 C 0.14278 0.80879 0.8509 0.0
C391 C 0.14251 0.79289 0.84485 0.0
C392 C 0.13435 0.81247 0.86514 0.0
C393 C 0.13362 0.78097 0.85305 0.0
C394 C 0.12562 0.80021 0.87301 0.0
N395 N 0.12542 0.78485 0.86684 0.0
C396 C 0.19212 0.82038 0.80998 0.0
C397 C 0.16722 0.80672 0.8051 0.0
C398 C 0.20006 0.81027 0.79899 0.0
N399 N 0.17601 0.81847 0.81272 0.0
C400 C 0.17465 0.79637 0.79396 0.0
C401 C 0.19129 0.79809 0.79083 0.0
H402 H 0.19881 0.82973 0.81633 0.0
H403 H 0.15442 0.80546 0.80766 0.0
C404 C 0.10672 0.85089 0.83226 0.0
N405 N 0.1159 0.8372 0.83285 0.0
C406 C 0.09013 0.84981 0.82917 0.0
C407 C 0.09278 0.82057 0.82726 0.0
C408 C 0.10935 0.82223 0.83021 0.0
C409 C 0.08298 0.83448 0.82671 0.0
H410 H 0.11234 0.86265 0.83418 0.0
H411 H 0.11697 0.81159 0.83016 0.0
O412 O 0.17939 0.84485 0.84218 0.0
O413 O 0.14499 0.85643 0.85267 0.0
O414 O 0.1503 0.84875 0.81755 0.0
O415 O 0.15139 0.82058 0.84294 0.0
H416 H 0.19417 0.85238 0.86972 0.0
H417 H 0.19485 0.85934 0.81795 0.0
H418 H 0.21833 0.87027 0.87198 0.0
H419 H 0.21904 0.87705 0.82111 0.0
H420 H 0.10375 0.85983 0.88919 0.0
H421 H 0.1545 0.8833 0.86774 0.0
H422 H 0.11749 0.84629 0.86615 0.0
H423 H 0.13999 0.89632 0.89064 0.0
H424 H 0.18655 0.91427 0.84698 0.0
H425 H 0.15875 0.91015 0.8027 0.0
H426 H 0.17866 0.79973 0.89845 0.0
H427 H 0.17003 0.84883 0.91527 0.0
H428 H 0.12936 0.83057 0.80121 0.0
H429 H 0.17382 0.85788 0.79768 0.0
H430 H 0.13218 0.82298 0.77218 0.0
H431 H 0.17593 0.84973 0.76874 0.0
H432 H 0.14906 0.7898 0.83389 0.0
H433 H 0.13474 0.82458 0.87019 0.0
H434 H 0.13325 0.76864 0.84847 0.0
H435 H 0.11905 0.8029 0.88405 0.0
H436 H 0.21289 0.81207 0.79681 0.0
H437 H 0.16752 0.78699 0.78806 0.0
H438 H 0.08293 0.86081 0.82892 0.0
H439 H 0.08773 0.80856 0.82516 0.0
Li440 Li 0.15226 0.1602 0.85269 0.0
Li441 Li 0.15566 0.1399 0.83139 0.0
Li442 Li 0.16008 0.16864 0.82617 0.0
Li443 Li 0.13302 0.15798 0.83033 0.0
C444 C 0.1878 0.15795 0.83728 0.0
N445 N 0.21896 0.16615 0.828 0.0
C446 C 0.19663 0.14758 0.82716 0.0
C447 C 0.19485 0.17245 0.84275 0.0
C448 C 0.21237 0.15194 0.82261 0.0
C449 C 0.2106 0.1764 0.83789 0.0
C450 C 0.13609 0.12627 0.85257 0.0
C451 C 0.12814 0.09837 0.84796 0.0
N452 N 0.13441 0.09425 0.86265 0.0
C453 C 0.1424 0.12177 0.86765 0.0
C454 C 0.12882 0.1145 0.84267 0.0
C455 C 0.14143 0.10552 0.87252 0.0
C456 C 0.14085 0.16462 0.8845 0.0
N457 N 0.15445 0.16408 0.87521 0.0
C458 C 0.17119 0.16885 0.89836 0.0
C459 C 0.16944 0.16605 0.88175 0.0
C460 C 0.15737 0.16954 0.90827 0.0
C461 C 0.14203 0.16744 0.90115 0.0
H462 H 0.12911 0.16275 0.87896 0.0
H463 H 0.18004 0.16534 0.87411 0.0
C464 C 0.16033 0.11103 0.81295 0.0
N465 N 0.1632 0.11856 0.82736 0.0
C466 C 0.16495 0.09485 0.8107 0.0
C467 C 0.17576 0.09475 0.838 0.0
C468 C 0.17111 0.11095 0.83964 0.0
C469 C 0.17248 0.08646 0.82347 0.0
H470 H 0.15419 0.11747 0.80334 0.0
H471 H 0.17344 0.11739 0.85086 0.0
C472 C 0.13817 0.18857 0.8514 0.0
N473 N 0.12901 0.20892 0.87649 0.0
C474 C 0.1219 0.18952 0.85605 0.0
C475 C 0.14977 0.19801 0.85948 0.0
C476 C 0.11752 0.1999 0.86875 0.0
C477 C 0.1449 0.2082 0.87215 0.0
C478 C 0.1385 0.15367 0.79944 0.0
C479 C 0.1387 0.16768 0.78984 0.0
C480 C 0.1276 0.14112 0.79588 0.0
C481 C 0.1279 0.16892 0.77685 0.0
C482 C 0.11696 0.14284 0.78281 0.0
N483 N 0.11733 0.15659 0.77365 0.0
C484 C 0.18214 0.17776 0.80206 0.0
C485 C 0.17278 0.19953 0.81848 0.0
C486 C 0.19263 0.18818 0.79382 0.0
N487 N 0.17273 0.18354 0.81429 0.0
C488 C 0.18308 0.21039 0.81058 0.0
C489 C 0.1933 0.20469 0.7982 0.0
H490 H 0.18174 0.16496 0.79898 0.0
H491 H 0.16497 0.2038 0.82808 0.0
C492 C 0.09998 0.1491 0.82908 0.0
N493 N 0.11099 0.16048 0.82442 0.0
C494 C 0.08364 0.15104 0.82527 0.0
C495 C 0.09029 0.17642 0.81198 0.0
C496 C 0.10651 0.17397 0.81605 0.0
C497 C 0.0786 0.16489 0.81668 0.0
H498 H 0.10384 0.13866 0.836 0.0
H499 H 0.11555 0.18291 0.8127 0.0
O500 O 0.17225 0.15407 0.84159 0.0
O501 O 0.13723 0.14206 0.84743 0.0
O502 O 0.14276 0.17827 0.83916 0.0
O503 O 0.14877 0.15236 0.8124 0.0
H504 H 0.19136 0.13637 0.82271 0.0
H505 H 0.18812 0.18073 0.85041 0.0
H506 H 0.21932 0.14407 0.81473 0.0
H507 H 0.21614 0.18765 0.84191 0.0
H508 H 0.12269 0.08911 0.84035 0.0
H509 H 0.14816 0.13067 0.87544 0.0
H510 H 0.12403 0.11772 0.83089 0.0
H511 H 0.14634 0.10185 0.88412 0.0
H512 H 0.18323 0.17047 0.90337 0.0
H513 H 0.13109 0.16757 0.90841 0.0
H514 H 0.16218 0.0888 0.79934 0.0
H515 H 0.18171 0.08872 0.84804 0.0
H516 H 0.11277 0.18223 0.85005 0.0
H517 H 0.16245 0.19724 0.85624 0.0
H518 H 0.10499 0.20071 0.87251 0.0
H519 H 0.15377 0.21546 0.8786 0.0
H520 H 0.14699 0.17756 0.79248 0.0
H521 H 0.12718 0.13026 0.80327 0.0
H522 H 0.12786 0.17972 0.76936 0.0
H523 H 0.10838 0.13328 0.77998 0.0
H524 H 0.20041 0.1833 0.78442 0.0
H525 H 0.18305 0.22309 0.81411 0.0
H526 H 0.07499 0.14202 0.82942 0.0
H527 H 0.08693 0.18722 0.80528 0.0
Li528 Li 0.8309 0.1367 0.82991 0.0
Li529 Li 0.83203 0.15542 0.8541 0.0
Li530 Li 0.82464 0.16518 0.82797 0.0
Li531 Li 0.85212 0.15807 0.83253 0.0
C532 C 0.79739 0.15259 0.83859 0.0
N533 N 0.76583 0.16218 0.83294 0.0
C534 C 0.78959 0.16298 0.8495 0.0
C535 C 0.78908 0.14688 0.82494 0.0
C536 C 0.77365 0.16774 0.8464 0.0
C537 C 0.77315 0.15192 0.82226 0.0
C538 C 0.86135 0.13685 0.85678 0.0
C539 C 0.88002 0.14726 0.8768 0.0
N540 N 0.88801 0.13281 0.87662 0.0
C541 C 0.86976 0.12212 0.85676 0.0
C542 C 0.86652 0.14955 0.86685 0.0
C543 C 0.8832 0.12031 0.8669 0.0
C544 C 0.83662 0.10806 0.81214 0.0
N545 N 0.82678 0.11518 0.82328 0.0
C546 C 0.81152 0.09069 0.82636 0.0
C547 C 0.81433 0.10696 0.8303 0.0
C548 C 0.82162 0.08285 0.81505 0.0
C549 C 0.83418 0.09184 0.80774 0.0
H550 H 0.84645 0.11497 0.80682 0.0
H551 H 0.80681 0.11298 0.83923 0.0
C552 C 0.82324 0.17179 0.88234 0.0
N553 N 0.82812 0.15714 0.8765 0.0
C554 C 0.82035 0.17382 0.89889 0.0
C555 C 0.82767 0.14563 0.90304 0.0
C556 C 0.83024 0.1441 0.88637 0.0
C557 C 0.82269 0.16066 0.90945 0.0
H558 H 0.82165 0.1819 0.8741 0.0
H559 H 0.83405 0.13258 0.88131 0.0
C560 C 0.83621 0.15203 0.79724 0.0
N561 N 0.83112 0.15142 0.76408 0.0
C562 C 0.84587 0.16148 0.78695 0.0
C563 C 0.82413 0.14206 0.79061 0.0
C564 C 0.84305 0.16107 0.77024 0.0
C565 C 0.8217 0.14198 0.77383 0.0
C566 C 0.84527 0.19042 0.83909 0.0
C567 C 0.84768 0.19395 0.8227 0.0
C568 C 0.84855 0.20229 0.85081 0.0
C569 C 0.85336 0.20934 0.81826 0.0
C570 C 0.85423 0.21754 0.84589 0.0
N571 N 0.8565 0.22072 0.82986 0.0
C572 C 0.80596 0.19314 0.82881 0.0
C573 C 0.80577 0.18062 0.80289 0.0
C574 C 0.79596 0.20558 0.82328 0.0
N575 N 0.81073 0.18105 0.8186 0.0
C576 C 0.79586 0.19287 0.79681 0.0
C577 C 0.79087 0.2056 0.80704 0.0
H578 H 0.80992 0.19307 0.84132 0.0
H579 H 0.80948 0.1709 0.795 0.0
C580 C 0.88088 0.15417 0.81522 0.0
N581 N 0.87412 0.16237 0.82783 0.0
C582 C 0.89719 0.1565 0.81138 0.0
C583 C 0.89922 0.17569 0.83359 0.0
C584 C 0.88287 0.173 0.83698 0.0
C585 C 0.9066 0.16731 0.82069 0.0
H586 H 0.8736 0.14574 0.80822 0.0
H587 H 0.87722 0.1792 0.84707 0.0
O588 O 0.81314 0.14814 0.84119 0.0
O589 O 0.84826 0.13885 0.84681 0.0
O590 O 0.839 0.15207 0.81361 0.0
O591 O 0.83975 0.17543 0.84378 0.0
H592 H 0.79584 0.16748 0.86014 0.0
H593 H 0.79489 0.1387 0.81648 0.0
H594 H 0.7675 0.1759 0.85466 0.0
H595 H 0.76661 0.14768 0.81168 0.0
H596 H 0.88417 0.15699 0.88464 0.0
H597 H 0.86592 0.1122 0.84897 0.0
H598 H 0.86024 0.16109 0.86691 0.0
H599 H 0.88983 0.10896 0.86702 0.0
H600 H 0.8019 0.08419 0.83253 0.0
H601 H 0.84213 0.08636 0.79883 0.0
H602 H 0.81667 0.18563 0.90341 0.0
H603 H 0.82946 0.13517 0.91081 0.0
H604 H 0.85552 0.169 0.7918 0.0
H605 H 0.81664 0.13454 0.79831 0.0
H606 H 0.85039 0.16838 0.76216 0.0
H607 H 0.81233 0.1344 0.76856 0.0
H608 H 0.8451 0.18495 0.8135 0.0
H609 H 0.84676 0.19972 0.86357 0.0
H610 H 0.85526 0.21224 0.8056 0.0
H611 H 0.85684 0.22684 0.85483 0.0
H612 H 0.79221 0.21501 0.83166 0.0
H613 H 0.79241 0.19251 0.78413 0.0
H614 H 0.90236 0.14991 0.80125 0.0
H615 H 0.90609 0.18392 0.84123 0.0
Li616 Li 0.83403 0.8567 0.83912 0.0
Li617 Li 0.83345 0.83391 0.85725 0.0
Li618 Li 0.85603 0.83569 0.83816 0.0
Li619 Li 0.82872 0.82873 0.82996 0.0
C620 C 0.85271 0.85516 0.87173 0.0
N621 N 0.85665 0.86195 0.90438 0.0
C622 C 0.84576 0.86911 0.8785 0.0
C623 C 0.86158 0.84461 0.88162 0.0
C624 C 0.84794 0.87235 0.89501 0.0
C625 C 0.86343 0.84826 0.89809 0.0
C626 C 0.80302 0.84455 0.85505 0.0
C627 C 0.78218 0.83325 0.87225 0.0
N628 N 0.77835 0.84849 0.8774 0.0
C629 C 0.79884 0.86011 0.86047 0.0
C630 C 0.79458 0.831 0.86092 0.0
C631 C 0.78634 0.86185 0.87178 0.0
C632 C 0.81677 0.88259 0.82534 0.0
N633 N 0.82991 0.87881 0.83452 0.0
C634 C 0.83815 0.90663 0.83542 0.0
C635 C 0.84061 0.89037 0.83947 0.0
C636 C 0.82466 0.91099 0.82597 0.0
C637 C 0.81386 0.89872 0.82093 0.0
H638 H 0.80867 0.87303 0.82132 0.0
H639 H 0.85117 0.88694 0.84642 0.0
C640 C 0.83357 0.81223 0.88368 0.0
N641 N 0.82856 0.82726 0.87903 0.0
C642 C 0.83203 0.8073 0.89979 0.0
C643 C 0.81995 0.83331 0.90606 0.0
C644 C 0.82169 0.83771 0.88983 0.0
C645 C 0.82539 0.81801 0.91128 0.0
H646 H 0.8393 0.80424 0.87499 0.0
H647 H 0.81817 0.84975 0.88602 0.0
C648 C 0.8518 0.85543 0.81041 0.0
N649 N 0.86875 0.87709 0.79117 0.0
C650 C 0.84823 0.8567 0.79389 0.0
C651 C 0.86398 0.86518 0.81716 0.0
C652 C 0.85695 0.86772 0.78436 0.0
C653 C 0.87242 0.87605 0.80723 0.0
C654 C 0.84049 0.80112 0.83866 0.0
C655 C 0.85093 0.79418 0.82725 0.0
C656 C 0.82672 0.79255 0.84368 0.0
C657 C 0.84729 0.77883 0.82086 0.0
C658 C 0.82349 0.77725 0.837 0.0
N659 N 0.83375 0.77077 0.82581 0.0
C660 C 0.88947 0.83505 0.8454 0.0
C661 C 0.88277 0.82798 0.8183 0.0
C662 C 0.90591 0.83301 0.84215 0.0
N663 N 0.8783 0.83242 0.83357 0.0
C664 C 0.89913 0.82602 0.81445 0.0
C665 C 0.91089 0.82848 0.82651 0.0
H666 H 0.88566 0.83897 0.85728 0.0
H667 H 0.8736 0.8261 0.80909 0.0
C668 C 0.80203 0.81124 0.81749 0.0
N669 N 0.81738 0.81634 0.81438 0.0
C670 C 0.79397 0.80126 0.80643 0.0
C671 C 0.81751 0.80245 0.78893 0.0
C672 C 0.82516 0.81232 0.80041 0.0
C673 C 0.80178 0.79669 0.792 0.0
H674 H 0.79614 0.81474 0.82865 0.0
H675 H 0.83742 0.81655 0.79835 0.0
O676 O 0.85059 0.85172 0.8556 0.0
O677 O 0.81513 0.84263 0.84387 0.0
O678 O 0.84325 0.84478 0.81989 0.0
O679 O 0.84359 0.81634 0.84469 0.0
H680 H 0.83851 0.87721 0.87119 0.0
H681 H 0.86657 0.83347 0.87676 0.0
H682 H 0.84259 0.88308 0.9004 0.0
H683 H 0.87015 0.84012 0.90589 0.0
H684 H 0.77564 0.82286 0.87699 0.0
H685 H 0.80525 0.87073 0.85614 0.0
H686 H 0.79773 0.81886 0.857 0.0
H687 H 0.78303 0.87381 0.87614 0.0
H688 H 0.84669 0.91569 0.83972 0.0
H689 H 0.80346 0.90148 0.81343 0.0
H690 H 0.83628 0.79535 0.90327 0.0
H691 H 0.81508 0.84211 0.91455 0.0
H692 H 0.83881 0.84926 0.7885 0.0
H693 H 0.86687 0.86441 0.82994 0.0
H694 H 0.85431 0.86884 0.77155 0.0
H695 H 0.88186 0.88367 0.81229 0.0
H696 H 0.86165 0.80062 0.82325 0.0
H697 H 0.81849 0.79777 0.85247 0.0
H698 H 0.8552 0.77336 0.81194 0.0
H699 H 0.8128 0.77055 0.84066 0.0
H700 H 0.91467 0.83531 0.85168 0.0
H701 H 0.90255 0.82253 0.80224 0.0
H702 H 0.78175 0.79724 0.8091 0.0
H703 H 0.82393 0.79909 0.77797 0.0
Li704 Li 0.6619 0.66641 0.66453 0.0
Li705 Li 0.65454 0.65787 0.63799 0.0
Li706 Li 0.63391 0.66002 0.65984 0.0
Li707 Li 0.65536 0.63841 0.66028 0.0
C708 C 0.64372 0.69356 0.65083 0.0
N709 N 0.63741 0.72649 0.65331 0.0
C710 C 0.65066 0.70448 0.63982 0.0
C711 C 0.63343 0.69939 0.663 0.0
C712 C 0.64737 0.72108 0.64132 0.0
C713 C 0.63043 0.71608 0.66407 0.0
C714 C 0.68743 0.65678 0.64406 0.0
C715 C 0.71503 0.65352 0.63498 0.0
N716 N 0.71542 0.66947 0.63061 0.0
C717 C 0.68811 0.67313 0.63946 0.0
C718 C 0.70099 0.64688 0.64181 0.0
C719 C 0.70236 0.67932 0.63269 0.0
C720 C 0.69043 0.67206 0.68167 0.0
N721 N 0.67686 0.67973 0.67632 0.0
C722 C 0.68626 0.70503 0.68708 0.0
C723 C 0.67453 0.69588 0.67902 0.0
C724 C 0.70044 0.69745 0.69256 0.0
C725 C 0.70242 0.68071 0.68993 0.0
H726 H 0.69197 0.65919 0.67942 0.0
H727 H 0.66365 0.70176 0.67496 0.0
C728 C 0.6487 0.67224 0.60786 0.0
N729 N 0.65776 0.6608 0.61549 0.0
C730 C 0.65103 0.67535 0.59139 0.0
C731 C 0.67174 0.65457 0.59091 0.0
C732 C 0.66907 0.65194 0.60741 0.0
C733 C 0.66271 0.66647 0.58269 0.0
H734 H 0.63977 0.67906 0.61463 0.0
H735 H 0.67604 0.64285 0.61377 0.0
C736 C 0.65304 0.65649 0.69323 0.0
N737 N 0.66527 0.6654 0.72316 0.0
C738 C 0.66485 0.64694 0.70074 0.0
C739 C 0.6473 0.67045 0.70101 0.0
C740 C 0.67091 0.65168 0.71586 0.0
C741 C 0.65368 0.67478 0.71612 0.0
C742 C 0.63607 0.63038 0.63217 0.0
C743 C 0.62108 0.62781 0.62469 0.0
C744 C 0.64951 0.62131 0.62727 0.0
C745 C 0.61978 0.61613 0.61241 0.0
C746 C 0.64772 0.60974 0.61495 0.0
N747 N 0.63301 0.60741 0.60784 0.0
C748 C 0.60271 0.6706 0.65204 0.0
C749 C 0.60568 0.66091 0.67898 0.0
C750 C 0.58628 0.67356 0.65463 0.0
N751 N 0.61195 0.66432 0.66413 0.0
C752 C 0.58929 0.66366 0.68211 0.0
C753 C 0.57934 0.66994 0.66979 0.0
H754 H 0.60814 0.67322 0.64037 0.0
H755 H 0.61338 0.65586 0.68832 0.0
C756 C 0.67501 0.61182 0.66865 0.0
N757 N 0.65953 0.61656 0.6657 0.0
C758 C 0.67848 0.59544 0.67135 0.0
C759 C 0.64997 0.58927 0.66815 0.0
C760 C 0.64704 0.60577 0.66564 0.0
C761 C 0.6659 0.58387 0.67086 0.0
H762 H 0.68466 0.62075 0.66866 0.0
H763 H 0.63487 0.60995 0.66316 0.0
O764 O 0.64662 0.67723 0.64936 0.0
O765 O 0.67359 0.65037 0.65065 0.0
O766 O 0.6473 0.65228 0.67823 0.0
O767 O 0.63754 0.64182 0.64415 0.0
H768 H 0.6585 0.7002 0.6302 0.0
H769 H 0.62794 0.69119 0.67163 0.0
H770 H 0.65271 0.72966 0.63291 0.0
H771 H 0.62256 0.72076 0.67348 0.0
H772 H 0.72561 0.64599 0.63316 0.0
H773 H 0.67777 0.68096 0.64114 0.0
H774 H 0.70065 0.63417 0.64525 0.0
H775 H 0.70304 0.69196 0.62909 0.0
H776 H 0.6842 0.71788 0.68915 0.0
H777 H 0.71323 0.67446 0.69395 0.0
H778 H 0.64392 0.68475 0.5856 0.0
H779 H 0.68065 0.64724 0.58463 0.0
H780 H 0.66942 0.6361 0.69487 0.0
H781 H 0.63813 0.67793 0.69539 0.0
H782 H 0.68014 0.64448 0.72177 0.0
H783 H 0.64944 0.68563 0.72224 0.0
H784 H 0.61057 0.63479 0.62834 0.0
H785 H 0.66124 0.62322 0.63285 0.0
H786 H 0.60825 0.614 0.60652 0.0
H787 H 0.65803 0.60264 0.61102 0.0
H788 H 0.57908 0.67859 0.64487 0.0
H789 H 0.5844 0.6605 0.69388 0.0
H790 H 0.6909 0.59186 0.67361 0.0
H791 H 0.63992 0.58079 0.66739 0.0
Li792 Li 0.33564 0.63366 0.66151 0.0
Li793 Li 0.32606 0.66098 0.66706 0.0
Li794 Li 0.33561 0.65358 0.64032 0.0
Li795 Li 0.35431 0.65658 0.66308 0.0
C796 C 0.30514 0.63314 0.65307 0.0
N797 N 0.28256 0.60848 0.65645 0.0
C798 C 0.29377 0.6337 0.66564 0.0
C799 C 0.30499 0.62007 0.64219 0.0
C800 C 0.28245 0.62111 0.66713 0.0
C801 C 0.2935 0.6077 0.64412 0.0
C802 C 0.35094 0.64661 0.69316 0.0
C803 C 0.36735 0.6596 0.71369 0.0
N804 N 0.37359 0.64486 0.7178 0.0
C805 C 0.35747 0.63159 0.69762 0.0
C806 C 0.35585 0.66073 0.7013 0.0
C807 C 0.36891 0.63097 0.7101 0.0
C808 C 0.34038 0.60009 0.65724 0.0
N809 N 0.33277 0.61139 0.66651 0.0
C810 C 0.32031 0.59064 0.68255 0.0
C811 C 0.32305 0.60705 0.67912 0.0
C812 C 0.32775 0.57867 0.67293 0.0
C813 C 0.33801 0.58358 0.66023 0.0
H814 H 0.34827 0.6039 0.6475 0.0
H815 H 0.3173 0.61636 0.68639 0.0
C816 C 0.29738 0.67874 0.6691 0.0
N817 N 0.31017 0.67325 0.6779 0.0
C818 C 0.28551 0.68827 0.67644 0.0
C819 C 0.30008 0.68599 0.70183 0.0
C820 C 0.31166 0.67651 0.69398 0.0
C821 C 0.28683 0.69206 0.69301 0.0
H822 H 0.29649 0.67575 0.65634 0.0
H823 H 0.32189 0.67186 0.70068 0.0
C824 C 0.36103 0.63658 0.63217 0.0
N825 N 0.37534 0.63305 0.60204 0.0
C826 C 0.37526 0.64507 0.62846 0.0
C827 C 0.35412 0.62623 0.62057 0.0
C828 C 0.3823 0.64312 0.61317 0.0
C829 C 0.36151 0.62464 0.6054 0.0
C830 C 0.3345 0.68855 0.65386 0.0
C831 C 0.32424 0.6942 0.64162 0.0
C832 C 0.33742 0.69824 0.66752 0.0
C833 C 0.31695 0.70943 0.64332 0.0
C834 C 0.32986 0.71338 0.66878 0.0
N835 N 0.31987 0.71861 0.65676 0.0
C836 C 0.31935 0.6512 0.61036 0.0
C837 C 0.34389 0.66629 0.6097 0.0
C838 C 0.3171 0.65357 0.59377 0.0
N839 N 0.33268 0.65736 0.61788 0.0
C840 C 0.34217 0.6689 0.59307 0.0
C841 C 0.32867 0.66242 0.5849 0.0
H842 H 0.31049 0.6444 0.61723 0.0
H843 H 0.3542 0.6713 0.61611 0.0
C844 C 0.38593 0.65015 0.67289 0.0
N845 N 0.37568 0.66247 0.66907 0.0
C846 C 0.40195 0.65349 0.67708 0.0
C847 C 0.39668 0.68214 0.67299 0.0
C848 C 0.38067 0.67825 0.66903 0.0
C849 C 0.40752 0.66965 0.67707 0.0
H850 H 0.38167 0.6377 0.67248 0.0
H851 H 0.3723 0.68776 0.6657 0.0
O852 O 0.31653 0.64519 0.65159 0.0
O853 O 0.33992 0.64752 0.68079 0.0
O854 O 0.35376 0.63856 0.64697 0.0
O855 O 0.34144 0.6735 0.65261 0.0
H856 H 0.29378 0.64362 0.67427 0.0
H857 H 0.31383 0.61933 0.63252 0.0
H858 H 0.27362 0.62135 0.67683 0.0
H859 H 0.29333 0.59746 0.63587 0.0
H860 H 0.37136 0.67044 0.72 0.0
H861 H 0.3539 0.62055 0.69141 0.0
H862 H 0.35107 0.67248 0.6979 0.0
H863 H 0.37412 0.61944 0.71363 0.0
H864 H 0.31227 0.58738 0.69241 0.0
H865 H 0.34427 0.57475 0.65276 0.0
H866 H 0.27539 0.69253 0.66927 0.0
H867 H 0.30164 0.68879 0.71458 0.0
H868 H 0.38073 0.65322 0.63722 0.0
H869 H 0.343 0.61971 0.62315 0.0
H870 H 0.39328 0.64967 0.61011 0.0
H871 H 0.35623 0.61678 0.59627 0.0
H872 H 0.32177 0.68683 0.63101 0.0
H873 H 0.34522 0.69399 0.67717 0.0
H874 H 0.30891 0.71392 0.63398 0.0
H875 H 0.3319 0.72094 0.67935 0.0
H876 H 0.30659 0.64827 0.58791 0.0
H877 H 0.35124 0.67598 0.5867 0.0
H878 H 0.41001 0.64349 0.67982 0.0
H879 H 0.40056 0.69474 0.67282 0.0
Li880 Li 0.33973 0.35302 0.65658 0.0
Li881 Li 0.36085 0.33114 0.65539 0.0
Li882 Li 0.33682 0.33218 0.63672 0.0
Li883 Li 0.33338 0.32563 0.66417 0.0
C884 C 0.3619 0.36283 0.6356 0.0
N885 N 0.3752 0.39329 0.63031 0.0
C886 C 0.37804 0.36597 0.63974 0.0
C887 C 0.35258 0.37516 0.6286 0.0
C888 C 0.38453 0.38145 0.637 0.0
C889 C 0.3595 0.39049 0.62609 0.0
C890 C 0.34634 0.33989 0.69033 0.0
C891 C 0.35158 0.32966 0.71723 0.0
N892 N 0.3386 0.3381 0.72289 0.0
C893 C 0.33308 0.34852 0.69642 0.0
C894 C 0.3557 0.33041 0.7008 0.0
C895 C 0.32935 0.34743 0.71292 0.0
C896 C 0.322 0.38202 0.66147 0.0
N897 N 0.33687 0.37506 0.6626 0.0
C898 C 0.34822 0.39961 0.6732 0.0
C899 C 0.34981 0.38335 0.66863 0.0
C900 C 0.33309 0.40726 0.67181 0.0
C901 C 0.31983 0.39823 0.66599 0.0
H902 H 0.31181 0.37498 0.65712 0.0
H903 H 0.36138 0.37732 0.6698 0.0
C904 C 0.39052 0.31693 0.64661 0.0
N905 N 0.38301 0.32642 0.65781 0.0
C906 C 0.407 0.3135 0.64812 0.0
C907 C 0.40767 0.32989 0.67254 0.0
C908 C 0.39117 0.33293 0.67059 0.0
C909 C 0.41581 0.32006 0.6612 0.0
H910 H 0.38365 0.312 0.63655 0.0
H911 H 0.38489 0.34069 0.67912 0.0
C912 C 0.30744 0.34027 0.64058 0.0
N913 N 0.28311 0.33874 0.61755 0.0
C914 C 0.29731 0.32662 0.63969 0.0
C915 C 0.30512 0.35317 0.62979 0.0
C916 C 0.28509 0.32608 0.62797 0.0
C917 C 0.29278 0.35215 0.61822 0.0
C918 C 0.34456 0.2974 0.65322 0.0
C919 C 0.32963 0.28949 0.65151 0.0
C920 C 0.3576 0.28911 0.66018 0.0
C921 C 0.32795 0.27346 0.65691 0.0
C922 C 0.35545 0.27308 0.66539 0.0
N923 N 0.34079 0.26566 0.66367 0.0
C924 C 0.33367 0.33956 0.60359 0.0
C925 C 0.32341 0.31357 0.61071 0.0
C926 C 0.32931 0.33713 0.58743 0.0
N927 N 0.33061 0.32789 0.61485 0.0
C928 C 0.31886 0.3106 0.59465 0.0
C929 C 0.32182 0.32248 0.58278 0.0
H930 H 0.33957 0.35073 0.60714 0.0
H931 H 0.32115 0.30447 0.61985 0.0
C932 C 0.30589 0.31839 0.68264 0.0
N933 N 0.32153 0.31391 0.68016 0.0
C934 C 0.29671 0.31094 0.69471 0.0
C935 C 0.32004 0.29468 0.70181 0.0
C936 C 0.32879 0.30251 0.68963 0.0
C937 C 0.30377 0.29887 0.70443 0.0
H938 H 0.30059 0.32793 0.67539 0.0
H939 H 0.34145 0.29971 0.68793 0.0
O940 O 0.35527 0.34779 0.63839 0.0
O941 O 0.34992 0.34045 0.67414 0.0
O942 O 0.31977 0.34084 0.65171 0.0
O943 O 0.34648 0.3131 0.64798 0.0
H944 H 0.3855 0.3566 0.64503 0.0
H945 H 0.34005 0.37305 0.62543 0.0
H946 H 0.39699 0.38405 0.64021 0.0
H947 H 0.35237 0.40017 0.62084 0.0
H948 H 0.35866 0.3223 0.72546 0.0
H949 H 0.32561 0.35577 0.68845 0.0
H950 H 0.36589 0.32351 0.69624 0.0
H951 H 0.31906 0.35396 0.71779 0.0
H952 H 0.35868 0.40608 0.67788 0.0
H953 H 0.30797 0.4037 0.66469 0.0
H954 H 0.41275 0.30574 0.6392 0.0
H955 H 0.41404 0.33547 0.68261 0.0
H956 H 0.29894 0.31647 0.64784 0.0
H957 H 0.31292 0.36375 0.63015 0.0
H958 H 0.27723 0.31556 0.6271 0.0
H959 H 0.29095 0.36199 0.60972 0.0
H960 H 0.31934 0.29573 0.64639 0.0
H961 H 0.36921 0.29501 0.66172 0.0
H962 H 0.31643 0.26726 0.65577 0.0
H963 H 0.36542 0.26656 0.67085 0.0
H964 H 0.3321 0.34649 0.57862 0.0
H965 H 0.31304 0.29917 0.59157 0.0
H966 H 0.28417 0.31448 0.69632 0.0
H967 H 0.326 0.28566 0.70927 0.0
Li968 Li 0.64281 0.33253 0.65488 0.0
Li969 Li 0.66992 0.32875 0.66264 0.0
Li970 Li 0.66181 0.35502 0.65296 0.0
Li971 Li 0.66381 0.33025 0.63412 0.0
C972 C 0.64868 0.33894 0.68741 0.0
N973 N 0.63751 0.32875 0.71733 0.0
C974 C 0.64654 0.32237 0.69053 0.0
C975 C 0.64516 0.35034 0.6995 0.0
C976 C 0.64088 0.31745 0.70573 0.0
C977 C 0.63951 0.34494 0.71455 0.0
C978 C 0.65966 0.29754 0.64908 0.0
C979 C 0.67536 0.27496 0.63896 0.0
N980 N 0.6661 0.26457 0.64787 0.0
C981 C 0.65019 0.2866 0.65799 0.0
C982 C 0.67226 0.29166 0.63936 0.0
C983 C 0.65369 0.26999 0.65728 0.0
C984 C 0.61445 0.31421 0.65091 0.0
N985 N 0.62086 0.3272 0.65888 0.0
C986 C 0.59538 0.33308 0.67121 0.0
C987 C 0.61176 0.33659 0.66893 0.0
C988 C 0.58834 0.31987 0.66295 0.0
C989 C 0.59809 0.31031 0.65276 0.0
H990 H 0.62199 0.30708 0.64288 0.0
H991 H 0.61714 0.34703 0.67486 0.0
C992 C 0.68811 0.33002 0.69097 0.0
N993 N 0.6839 0.31977 0.6787 0.0
C994 C 0.69799 0.32465 0.70358 0.0
C995 C 0.69914 0.29827 0.69062 0.0
C996 C 0.68933 0.30419 0.67823 0.0
C997 C 0.70354 0.30853 0.70356 0.0
H998 H 0.68378 0.34243 0.69095 0.0
H999 H 0.68606 0.29627 0.66837 0.0
C1000 C 0.6309 0.35082 0.63203 0.0
N1001 N 0.59873 0.35709 0.62532 0.0
C1002 C 0.62254 0.34127 0.62073 0.0
C1003 C 0.62295 0.36363 0.63984 0.0
C1004 C 0.60626 0.34462 0.61753 0.0
C1005 C 0.60667 0.36659 0.63628 0.0
C1006 C 0.69691 0.34061 0.65072 0.0
C1007 C 0.70391 0.35195 0.66127 0.0
C1008 C 0.706 0.32735 0.64531 0.0
C1009 C 0.71986 0.34966 0.66649 0.0
C1010 C 0.72191 0.32548 0.65081 0.0
N1011 N 0.72844 0.33657 0.66122 0.0
C1012 C 0.6692 0.38378 0.66943 0.0
C1013 C 0.6623 0.38732 0.64171 0.0
C1014 C 0.67141 0.4005 0.67136 0.0
N1015 N 0.66474 0.37761 0.65479 0.0
C1016 C 0.66428 0.40414 0.64311 0.0
C1017 C 0.66889 0.4109 0.6581 0.0
H1018 H 0.67101 0.37567 0.6796 0.0
H1019 H 0.65876 0.38199 0.63022 0.0
C1020 C 0.65858 0.31217 0.60576 0.0
N1021 N 0.66839 0.32344 0.61282 0.0
C1022 C 0.66123 0.30742 0.58973 0.0
C1023 C 0.68416 0.32581 0.58869 0.0
C1024 C 0.68109 0.33017 0.60476 0.0
C1025 C 0.67404 0.31443 0.58091 0.0
H1026 H 0.6486 0.30701 0.61257 0.0
H1027 H 0.68862 0.33916 0.61074 0.0
O1028 O 0.6542 0.3441 0.67261 0.0
O1029 O 0.65618 0.31382 0.64941 0.0
O1030 O 0.64665 0.34738 0.63577 0.0
O1031 O 0.68118 0.34241 0.64583 0.0
H1032 H 0.6493 0.31342 0.68137 0.0
H1033 H 0.64675 0.36322 0.69725 0.0
H1034 H 0.63919 0.30466 0.70831 0.0
H1035 H 0.63672 0.35362 0.72402 0.0
H1036 H 0.68513 0.27027 0.63158 0.0
H1037 H 0.64019 0.29086 0.66533 0.0
H1038 H 0.67966 0.29987 0.63231 0.0
H1039 H 0.6465 0.26141 0.66416 0.0
H1040 H 0.58819 0.3409 0.67896 0.0
H1041 H 0.59311 0.3 0.64623 0.0
H1042 H 0.70128 0.33304 0.71319 0.0
H1043 H 0.70296 0.28568 0.69021 0.0
H1044 H 0.62851 0.33127 0.61465 0.0
H1045 H 0.62924 0.37104 0.64872 0.0
H1046 H 0.5996 0.33726 0.6089 0.0
H1047 H 0.60033 0.37639 0.64231 0.0
H1048 H 0.69705 0.36229 0.66555 0.0
H1049 H 0.70083 0.31856 0.63702 0.0
H1050 H 0.72539 0.35826 0.67477 0.0
H1051 H 0.72905 0.31521 0.64682 0.0
H1052 H 0.67478 0.40525 0.68316 0.0
H1053 H 0.66237 0.41174 0.63256 0.0
H1054 H 0.65326 0.29846 0.58427 0.0
H1055 H 0.69402 0.3317 0.58227 0.0
Li1056 Li 0.66377 0.35702 0.33531 0.0
Li1057 Li 0.66186 0.33753 0.3568 0.0
Li1058 Li 0.66739 0.32992 0.32857 0.0
Li1059 Li 0.64037 0.3388 0.33534 0.0
C1060 C 0.69388 0.35274 0.34651 0.0
N1061 N 0.71967 0.37345 0.35248 0.0
C1062 C 0.69777 0.35721 0.36243 0.0
C1063 C 0.7032 0.35871 0.33365 0.0
C1064 C 0.71084 0.3677 0.36519 0.0
C1065 C 0.71615 0.36921 0.33691 0.0
C1066 C 0.64409 0.37111 0.35618 0.0
C1067 C 0.63416 0.3978 0.34926 0.0
N1068 N 0.64042 0.40376 0.36333 0.0
C1069 C 0.65047 0.37751 0.37056 0.0
C1070 C 0.63587 0.38132 0.34543 0.0
C1071 C 0.64845 0.39405 0.37397 0.0
C1072 C 0.66586 0.38477 0.31539 0.0
N1073 N 0.66998 0.37892 0.33024 0.0
C1074 C 0.68017 0.40497 0.33823 0.0
C1075 C 0.67712 0.38863 0.34157 0.0
C1076 C 0.67567 0.41143 0.32314 0.0
C1077 C 0.66862 0.40107 0.31155 0.0
H1078 H 0.65992 0.37693 0.30669 0.0
H1079 H 0.67987 0.3839 0.35346 0.0
C1080 C 0.67824 0.32156 0.3818 0.0
N1081 N 0.66552 0.33151 0.37855 0.0
C1082 C 0.68114 0.31639 0.39765 0.0
C1083 C 0.65762 0.33159 0.40638 0.0
C1084 C 0.65519 0.33647 0.39037 0.0
C1085 C 0.67075 0.32142 0.41019 0.0
H1086 H 0.68608 0.31764 0.37204 0.0
H1087 H 0.64499 0.34412 0.38735 0.0
C1088 C 0.65685 0.34106 0.30126 0.0
N1089 N 0.66398 0.3304 0.27025 0.0
C1090 C 0.64569 0.33152 0.2927 0.0
C1091 C 0.67153 0.34538 0.29395 0.0
C1092 C 0.64955 0.32621 0.27706 0.0
C1093 C 0.67495 0.33981 0.2783 0.0
C1094 C 0.64258 0.30975 0.35314 0.0
C1095 C 0.6445 0.29287 0.35273 0.0
C1096 C 0.63094 0.31664 0.36337 0.0
C1097 C 0.63473 0.28313 0.36261 0.0
C1098 C 0.62141 0.30648 0.37306 0.0
N1099 N 0.62348 0.29008 0.37248 0.0
C1100 C 0.69476 0.31625 0.31373 0.0
C1101 C 0.67002 0.30225 0.30892 0.0
C1102 C 0.70314 0.30519 0.30408 0.0
N1103 N 0.67852 0.31464 0.31581 0.0
C1104 C 0.67791 0.29092 0.29912 0.0
C1105 C 0.69469 0.29235 0.29661 0.0
H1106 H 0.70118 0.32615 0.3195 0.0
H1107 H 0.6571 0.30126 0.31097 0.0
C1108 C 0.60705 0.34648 0.3363 0.0
N1109 N 0.61804 0.33518 0.33153 0.0
C1110 C 0.59053 0.34355 0.33432 0.0
C1111 C 0.59691 0.31726 0.32278 0.0
C1112 C 0.61335 0.32077 0.32487 0.0
C1113 C 0.58525 0.32871 0.32762 0.0
H1114 H 0.61108 0.35766 0.34189 0.0
H1115 H 0.62239 0.31188 0.32148 0.0
O1116 O 0.6812 0.34236 0.34358 0.0
O1117 O 0.64614 0.35499 0.35251 0.0
O1118 O 0.65348 0.34605 0.31675 0.0
O1119 O 0.6521 0.3194 0.34352 0.0
H1120 H 0.69068 0.3528 0.37254 0.0
H1121 H 0.70038 0.35544 0.32126 0.0
H1122 H 0.71392 0.37133 0.37744 0.0
H1123 H 0.72339 0.37401 0.32706 0.0
H1124 H 0.62795 0.40586 0.34098 0.0
H1125 H 0.65713 0.36989 0.37888 0.0
H1126 H 0.6312 0.37667 0.33406 0.0
H1127 H 0.65338 0.39918 0.38503 0.0
H1128 H 0.6853 0.41262 0.34765 0.0
H1129 H 0.66499 0.4056 0.29977 0.0
H1130 H 0.69127 0.30839 0.40003 0.0
H1131 H 0.64941 0.3359 0.41569 0.0
H1132 H 0.63423 0.32817 0.29811 0.0
H1133 H 0.68026 0.35282 0.30037 0.0
H1134 H 0.64107 0.31872 0.27034 0.0
H1135 H 0.68633 0.34295 0.27256 0.0
H1136 H 0.65346 0.28737 0.34486 0.0
H1137 H 0.62925 0.32967 0.36383 0.0
H1138 H 0.63608 0.27004 0.36243 0.0
H1139 H 0.61235 0.31164 0.38103 0.0
H1140 H 0.71605 0.30682 0.3023 0.0
H1141 H 0.67101 0.28108 0.2937 0.0
H1142 H 0.58199 0.35281 0.33805 0.0
H1143 H 0.5934 0.30557 0.31781 0.0
Li1144 Li 0.65294 0.66139 0.35696 0.0
Li1145 Li 0.6507 0.63888 0.33761 0.0
Li1146 Li 0.6582 0.66692 0.32898 0.0
Li1147 Li 0.63044 0.66093 0.3363 0.0
C1148 C 0.6833 0.64996 0.35323 0.0
N1149 N 0.70931 0.64623 0.37401 0.0
C1150 C 0.68814 0.63442 0.35806 0.0
C1151 C 0.69184 0.66359 0.35879 0.0
C1152 C 0.70129 0.63279 0.36861 0.0
C1153 C 0.70491 0.66146 0.36934 0.0
C1154 C 0.62527 0.63376 0.36118 0.0
C1155 C 0.60247 0.61535 0.35969 0.0
N1156 N 0.60588 0.60997 0.37491 0.0
C1157 C 0.62838 0.62822 0.37691 0.0
C1158 C 0.61208 0.62742 0.35259 0.0
C1159 C 0.61851 0.61612 0.38359 0.0
C1160 C 0.65546 0.68165 0.38462 0.0
N1161 N 0.65832 0.66646 0.37875 0.0
C1162 C 0.6686 0.65783 0.40439 0.0
C1163 C 0.66469 0.6546 0.38826 0.0
C1164 C 0.66567 0.67336 0.41085 0.0
C1165 C 0.65903 0.68538 0.40077 0.0
H1166 H 0.65024 0.6908 0.37681 0.0
H1167 H 0.66655 0.64254 0.38337 0.0
C1168 C 0.65969 0.61153 0.31931 0.0
N1169 N 0.65462 0.61643 0.33423 0.0
C1170 C 0.66276 0.59512 0.31628 0.0
C1171 C 0.65568 0.58919 0.34414 0.0
C1172 C 0.6528 0.6057 0.34663 0.0
C1173 C 0.66064 0.58371 0.32877 0.0
H1174 H 0.6613 0.6204 0.30976 0.0
H1175 H 0.64939 0.60997 0.35852 0.0
C1176 C 0.64688 0.69515 0.33913 0.0
N1177 N 0.65323 0.72649 0.32878 0.0
C1178 C 0.63575 0.70327 0.32928 0.0
C1179 C 0.66112 0.70305 0.34392 0.0
C1180 C 0.63921 0.71909 0.32413 0.0
C1181 C 0.66415 0.71887 0.3385 0.0
C1182 C 0.63422 0.64475 0.306 0.0
C1183 C 0.63414 0.65202 0.29067 0.0
C1184 C 0.62527 0.63052 0.30855 0.0
C1185 C 0.62479 0.64516 0.27828 0.0
C1186 C 0.61609 0.62401 0.29585 0.0
N1187 N 0.61601 0.63142 0.28111 0.0
C1188 C 0.68724 0.67875 0.31552 0.0
C1189 C 0.66321 0.68767 0.30252 0.0
C1190 C 0.69671 0.68772 0.30474 0.0
N1191 N 0.67083 0.67899 0.31426 0.0
C1192 C 0.67219 0.69682 0.29149 0.0
C1193 C 0.68917 0.69691 0.29254 0.0
H1194 H 0.69296 0.67161 0.32488 0.0
H1195 H 0.65013 0.68751 0.30178 0.0
C1196 C 0.59772 0.66504 0.34466 0.0
N1197 N 0.60847 0.66601 0.33221 0.0
C1198 C 0.58131 0.66803 0.34195 0.0
C1199 C 0.58748 0.67375 0.31384 0.0
C1200 C 0.60376 0.67059 0.31709 0.0
C1201 C 0.576 0.67225 0.32632 0.0
H1202 H 0.60188 0.66177 0.35666 0.0
H1203 H 0.61264 0.67181 0.30754 0.0
O1204 O 0.67036 0.65179 0.343 0.0
O1205 O 0.63483 0.64566 0.3545 0.0
O1206 O 0.64384 0.67954 0.34405 0.0
O1207 O 0.64331 0.65138 0.31827 0.0
H1208 H 0.68179 0.62372 0.35378 0.0
H1209 H 0.68833 0.67569 0.3551 0.0
H1210 H 0.70511 0.62084 0.37252 0.0
H1211 H 0.71154 0.67191 0.37383 0.0
H1212 H 0.59225 0.61033 0.35314 0.0
H1213 H 0.63836 0.63311 0.38387 0.0
H1214 H 0.60908 0.63191 0.34066 0.0
H1215 H 0.62088 0.61164 0.3957 0.0
H1216 H 0.67341 0.64814 0.41186 0.0
H1217 H 0.65659 0.69749 0.40535 0.0
H1218 H 0.66653 0.59137 0.30425 0.0
H1219 H 0.65428 0.58084 0.3542 0.0
H1220 H 0.62463 0.69738 0.32553 0.0
H1221 H 0.66978 0.69701 0.35167 0.0
H1222 H 0.63076 0.72548 0.3164 0.0
H1223 H 0.67519 0.72508 0.34201 0.0
H1224 H 0.64116 0.6629 0.28836 0.0
H1225 H 0.6256 0.6244 0.32011 0.0
H1226 H 0.62453 0.65074 0.2664 0.0
H1227 H 0.6091 0.61301 0.2977 0.0
H1228 H 0.70977 0.68761 0.30608 0.0
H1229 H 0.66593 0.70358 0.28214 0.0
H1230 H 0.57288 0.66707 0.35199 0.0
H1231 H 0.58389 0.67697 0.30162 0.0
Li1232 Li 0.33224 0.65577 0.3562 0.0
Li1233 Li 0.33099 0.63752 0.33285 0.0
Li1234 Li 0.35196 0.65827 0.335 0.0
Li1235 Li 0.32394 0.6654 0.32977 0.0
C1236 C 0.35153 0.63174 0.36354 0.0
N1237 N 0.35649 0.61684 0.39316 0.0
C1238 C 0.3446 0.61654 0.36673 0.0
C1239 C 0.36104 0.63934 0.3754 0.0
C1240 C 0.34726 0.60921 0.38178 0.0
C1241 C 0.36337 0.63162 0.39031 0.0
C1242 C 0.29741 0.65398 0.34276 0.0
C1243 C 0.27237 0.65692 0.32795 0.0
N1244 N 0.26614 0.66572 0.34047 0.0
C1245 C 0.29075 0.663 0.3555 0.0
C1246 C 0.28813 0.65084 0.3289 0.0
C1247 C 0.27492 0.66883 0.35411 0.0
C1248 C 0.333 0.67147 0.38657 0.0
N1249 N 0.32827 0.65771 0.37872 0.0
C1250 C 0.31805 0.64636 0.40334 0.0
C1251 C 0.32067 0.64536 0.38664 0.0
C1252 C 0.32312 0.6603 0.41184 0.0
C1253 C 0.33056 0.67303 0.40323 0.0
H1254 H 0.33874 0.68121 0.3799 0.0
H1255 H 0.31676 0.6347 0.37998 0.0
C1256 C 0.34008 0.60652 0.32243 0.0
N1257 N 0.32702 0.61581 0.32624 0.0
C1258 C 0.33802 0.59024 0.31812 0.0
C1259 C 0.30911 0.59337 0.32181 0.0
C1260 C 0.31172 0.60964 0.32598 0.0
C1261 C 0.32239 0.58344 0.31792 0.0
H1262 H 0.35212 0.61171 0.32306 0.0
H1263 H 0.3016 0.61727 0.32928 0.0
C1264 C 0.34959 0.68851 0.34429 0.0
N1265 N 0.37192 0.71346 0.34137 0.0
C1266 C 0.348 0.70002 0.33192 0.0
C1267 C 0.36251 0.68973 0.35521 0.0
C1268 C 0.35941 0.71255 0.33066 0.0
C1269 C 0.37369 0.70241 0.35351 0.0
C1270 C 0.34052 0.6426 0.30297 0.0
C1271 C 0.356 0.63732 0.29858 0.0
C1272 C 0.32699 0.6368 0.29451 0.0
C1273 C 0.35768 0.62622 0.28582 0.0
C1274 C 0.32918 0.62569 0.28186 0.0
N1275 N 0.34435 0.62068 0.27781 0.0
C1276 C 0.38569 0.65713 0.33949 0.0
C1277 C 0.37715 0.67368 0.31756 0.0
C1278 C 0.40182 0.66129 0.33667 0.0
N1279 N 0.37378 0.66349 0.33011 0.0
C1280 C 0.39315 0.67816 0.31428 0.0
C1281 C 0.4057 0.67204 0.324 0.0
H1282 H 0.38267 0.64884 0.34918 0.0
H1283 H 0.36738 0.67843 0.31023 0.0
C1284 C 0.30348 0.69233 0.32874 0.0
N1285 N 0.31031 0.6805 0.31947 0.0
C1286 C 0.29328 0.70381 0.32169 0.0
C1287 C 0.29756 0.69078 0.29568 0.0
C1288 C 0.30766 0.67955 0.30324 0.0
C1289 C 0.29021 0.70309 0.30495 0.0
H1290 H 0.30599 0.69281 0.34161 0.0
H1291 H 0.31349 0.67017 0.29617 0.0
O1292 O 0.34885 0.63926 0.34898 0.0
O1293 O 0.313 0.64846 0.34374 0.0
O1294 O 0.33874 0.67594 0.34552 0.0
O1295 O 0.3386 0.65325 0.3156 0.0
H1296 H 0.33711 0.61052 0.35777 0.0
H1297 H 0.36632 0.65121 0.37325 0.0
H1298 H 0.34191 0.59747 0.38443 0.0
H1299 H 0.37059 0.63742 0.39965 0.0
H1300 H 0.26511 0.6547 0.31724 0.0
H1301 H 0.29777 0.66562 0.36628 0.0
H1302 H 0.29315 0.64401 0.31886 0.0
H1303 H 0.26963 0.67589 0.36384 0.0
H1304 H 0.31207 0.63639 0.40951 0.0
H1305 H 0.33475 0.68393 0.40935 0.0
H1306 H 0.34861 0.58293 0.31552 0.0
H1307 H 0.29687 0.58857 0.32178 0.0
H1308 H 0.33818 0.6992 0.32326 0.0
H1309 H 0.36405 0.68081 0.36472 0.0
H1310 H 0.35837 0.7215 0.3211 0.0
H1311 H 0.38381 0.70342 0.36179 0.0
H1312 H 0.3666 0.64159 0.30504 0.0
H1313 H 0.31491 0.64063 0.29785 0.0
H1314 H 0.36959 0.62198 0.28234 0.0
H1315 H 0.31881 0.62101 0.27529 0.0
H1316 H 0.41117 0.65601 0.34422 0.0
H1317 H 0.39565 0.68651 0.30442 0.0
H1318 H 0.28777 0.71303 0.32927 0.0
H1319 H 0.29574 0.69 0.28269 0.0
Li1320 Li 0.33804 0.35587 0.33562 0.0
Li1321 Li 0.33547 0.33453 0.35728 0.0
Li1322 Li 0.35772 0.33462 0.33621 0.0
Li1323 Li 0.33074 0.32843 0.32903 0.0
C1324 C 0.35587 0.36582 0.36039 0.0
N1325 N 0.3602 0.39656 0.3734 0.0
C1326 C 0.3483 0.37007 0.37497 0.0
C1327 C 0.36579 0.37716 0.35253 0.0
C1328 C 0.35061 0.38568 0.38133 0.0
C1329 C 0.36777 0.39266 0.35927 0.0
C1330 C 0.30335 0.34295 0.33742 0.0
C1331 C 0.27634 0.33172 0.33825 0.0
N1332 N 0.27253 0.34021 0.32463 0.0
C1333 C 0.29916 0.35163 0.32347 0.0
C1334 C 0.29186 0.33296 0.34492 0.0
C1335 C 0.28352 0.35006 0.31717 0.0
C1336 C 0.33813 0.38455 0.31673 0.0
N1337 N 0.33375 0.37808 0.33125 0.0
C1338 C 0.32322 0.40363 0.34009 0.0
C1339 C 0.32609 0.38712 0.34273 0.0
C1340 C 0.32808 0.41078 0.32539 0.0
C1341 C 0.33545 0.40098 0.31354 0.0
H1342 H 0.34375 0.37697 0.30763 0.0
H1343 H 0.32233 0.38152 0.35398 0.0
C1344 C 0.34052 0.32112 0.38795 0.0
N1345 N 0.33001 0.33005 0.37899 0.0
C1346 C 0.33707 0.31764 0.40415 0.0
C1347 C 0.31208 0.33277 0.40156 0.0
C1348 C 0.316 0.33589 0.38537 0.0
C1349 C 0.32271 0.32355 0.41115 0.0
H1350 H 0.35163 0.31676 0.3825 0.0
H1351 H 0.30796 0.3431 0.37794 0.0
C1352 C 0.35796 0.34231 0.30598 0.0
N1353 N 0.38344 0.34078 0.28422 0.0
C1354 C 0.35902 0.3294 0.29495 0.0
C1355 C 0.36987 0.35445 0.30589 0.0
C1356 C 0.37198 0.32886 0.28404 0.0
C1357 C 0.38266 0.35345 0.29483 0.0
C1358 C 0.34084 0.3002 0.342 0.0
C1359 C 0.34481 0.29269 0.3273 0.0
C1360 C 0.33302 0.29122 0.35411 0.0
C1361 C 0.34079 0.27634 0.32491 0.0
C1362 C 0.32924 0.27488 0.35126 0.0
N1363 N 0.33316 0.26784 0.33683 0.0
C1364 C 0.39099 0.3395 0.34131 0.0
C1365 C 0.3851 0.31749 0.32366 0.0
C1366 C 0.40757 0.33719 0.33914 0.0
N1367 N 0.38014 0.32986 0.33343 0.0
C1368 C 0.40159 0.31482 0.32102 0.0
C1369 C 0.41307 0.32484 0.32871 0.0
H1370 H 0.38676 0.34905 0.34926 0.0
H1371 H 0.37629 0.30991 0.31761 0.0
C1372 C 0.31595 0.32041 0.29946 0.0
N1373 N 0.31667 0.31618 0.31537 0.0
C1374 C 0.30606 0.31175 0.28879 0.0
C1375 C 0.29714 0.29509 0.31127 0.0
C1376 C 0.30719 0.30411 0.32149 0.0
C1377 C 0.29667 0.29875 0.29464 0.0
H1378 H 0.32301 0.33058 0.29506 0.0
H1379 H 0.30741 0.30145 0.33432 0.0
O1380 O 0.35352 0.35068 0.35383 0.0
O1381 O 0.31873 0.34401 0.3435 0.0
O1382 O 0.34548 0.34295 0.31694 0.0
O1383 O 0.34466 0.31621 0.34462 0.0
H1384 H 0.34062 0.36148 0.38126 0.0
H1385 H 0.37178 0.37411 0.34127 0.0
H1386 H 0.34475 0.38915 0.39255 0.0
H1387 H 0.37531 0.40158 0.35324 0.0
H1388 H 0.26734 0.32396 0.34387 0.0
H1389 H 0.30797 0.35932 0.31745 0.0
H1390 H 0.29498 0.32604 0.35564 0.0
H1391 H 0.28012 0.35662 0.30633 0.0
H1392 H 0.31723 0.4107 0.34942 0.0
H1393 H 0.33943 0.40602 0.30207 0.0
H1394 H 0.34571 0.31072 0.4112 0.0
H1395 H 0.30087 0.33749 0.40649 0.0
H1396 H 0.35011 0.31973 0.29494 0.0
H1397 H 0.36937 0.36444 0.31441 0.0
H1398 H 0.37298 0.3189 0.27551 0.0
H1399 H 0.392 0.36272 0.29472 0.0
H1400 H 0.35055 0.29951 0.31769 0.0
H1401 H 0.32978 0.29682 0.36553 0.0
H1402 H 0.34367 0.27043 0.31353 0.0
H1403 H 0.32314 0.2678 0.36049 0.0
H1404 H 0.41598 0.34496 0.34565 0.0
H1405 H 0.40526 0.30523 0.31278 0.0
H1406 H 0.30569 0.31526 0.27613 0.0
H1407 H 0.29006 0.28519 0.31629 0.0
H1408 H 0.30486 0.28793 0.26442 0.0
H1409 H 0.28848 0.27136 0.24598 0.0
H1410 H 0.24987 0.27011 0.28126 0.0
H1411 H 0.26594 0.28718 0.29957 0.0
H1412 H 0.27631 0.24033 0.25159 0.0
H1413 H 0.22688 0.28441 0.23963 0.0
H1414 H 0.24594 0.29032 0.24867 0.0
H1415 H 0.23053 0.28072 0.26079 0.0
C1416 C 0.29277 0.28436 0.26814 0.0
C1417 C 0.28664 0.28892 0.2834 0.0
C1418 C 0.2835 0.2748 0.25765 0.0
C1419 C 0.26792 0.26971 0.26221 0.0
C1420 C 0.26177 0.27417 0.27744 0.0
H1421 H 0.21071 0.19114 0.22234 0.0
H1422 H 0.22831 0.20851 0.23887 0.0
C1423 C 0.27102 0.28376 0.28794 0.0
C1424 C 0.25833 0.25928 0.25122 0.0
H1425 H 0.22263 0.25726 0.23048 0.0
C1426 C 0.26461 0.24403 0.24689 0.0
C1427 C 0.24319 0.26429 0.24499 0.0
C1428 C 0.23628 0.28089 0.24861 0.0
C1429 C 0.25595 0.23347 0.23669 0.0
C1430 C 0.24054 0.23824 0.23096 0.0
C1431 C 0.23441 0.25362 0.23503 0.0
C1432 C 0.23049 0.22744 0.22075 0.0
C1433 C 0.26345 0.2174 0.23202 0.0
C1434 C 0.22573 0.23248 0.20522 0.0
C1435 C 0.21563 0.22264 0.1958 0.0
C1436 C 0.21012 0.20761 0.2018 0.0
C1437 C 0.21501 0.20254 0.21732 0.0
C1438 C 0.22505 0.21243 0.22676 0.0
H1439 H 0.27681 0.21752 0.23372 0.0
H1440 H 0.25834 0.20766 0.23981 0.0
H1441 H 0.26075 0.21431 0.21917 0.0
H1442 H 0.22979 0.24406 0.20042 0.0
H1443 H 0.21216 0.22677 0.18382 0.0
H1444 H 0.68518 0.28034 0.26717 0.0
H1445 H 0.70041 0.26211 0.24929 0.0
H1446 H 0.73906 0.26 0.28445 0.0
H1447 H 0.7239 0.27809 0.30245 0.0
H1448 H 0.74893 0.26802 0.25257 0.0
H1449 H 0.70977 0.21284 0.25423 0.0
H1450 H 0.69956 0.23157 0.24962 0.0
H1451 H 0.7085 0.2288 0.26928 0.0
C1452 C 0.6968 0.27575 0.2712 0.0
C1453 C 0.70339 0.28064 0.28617 0.0
C1454 C 0.70545 0.26536 0.26099 0.0
C1455 C 0.72075 0.25965 0.26567 0.0
C1456 C 0.72725 0.26431 0.28069 0.0
H1457 H 0.7828 0.18666 0.22404 0.0
H1458 H 0.76475 0.20284 0.24116 0.0
C1459 C 0.71862 0.27468 0.29089 0.0
C1460 C 0.73045 0.24956 0.25454 0.0
H1461 H 0.73165 0.21267 0.23557 0.0
C1462 C 0.74517 0.25592 0.24883 0.0
C1463 C 0.72549 0.23377 0.24985 0.0
C1464 C 0.71003 0.22623 0.25614 0.0
C1465 C 0.75512 0.24688 0.23846 0.0
C1466 C 0.75005 0.23119 0.23354 0.0
C1467 C 0.73536 0.22478 0.2393 0.0
C1468 C 0.76015 0.22106 0.22283 0.0
C1469 C 0.77113 0.25402 0.23311 0.0
C1470 C 0.76324 0.22589 0.20682 0.0
C1471 C 0.77349 0.21667 0.197 0.0
C1472 C 0.78072 0.20245 0.20304 0.0
C1473 C 0.77727 0.19747 0.21899 0.0
C1474 C 0.76702 0.2067 0.2288 0.0
H1475 H 0.77475 0.26462 0.24068 0.0
H1476 H 0.78087 0.24474 0.23367 0.0
H1477 H 0.7701 0.25817 0.22034 0.0
H1478 H 0.75781 0.23684 0.20197 0.0
H1479 H 0.77572 0.22064 0.18467 0.0
H1480 H 0.77717 0.80373 0.22256 0.0
H1481 H 0.75872 0.78647 0.23824 0.0
H1482 H 0.76413 0.74806 0.20295 0.0
H1483 H 0.78283 0.76508 0.18733 0.0
H1484 H 0.73081 0.75545 0.21356 0.0
H1485 H 0.77451 0.74534 0.26395 0.0
H1486 H 0.77136 0.7662 0.2582 0.0
H1487 H 0.78073 0.75241 0.24415 0.0
C1488 C 0.77451 0.79157 0.21819 0.0
C1489 C 0.78152 0.78571 0.20377 0.0
C1490 C 0.76395 0.78179 0.22711 0.0
C1491 C 0.76026 0.76601 0.22177 0.0
C1492 C 0.76688 0.76024 0.20721 0.0
H1493 H 0.71731 0.68801 0.27754 0.0
H1494 H 0.73413 0.70451 0.25944 0.0
C1495 C 0.77749 0.77 0.1983 0.0
C1496 C 0.74972 0.7554 0.23156 0.0
H1497 H 0.74785 0.73533 0.26768 0.0
C1498 C 0.73449 0.751 0.22538 0.0
C1499 C 0.75475 0.74953 0.24685 0.0
C1500 C 0.77128 0.75347 0.25369 0.0
C1501 C 0.72396 0.74103 0.23431 0.0
C1502 C 0.72883 0.73551 0.24978 0.0
C1503 C 0.74418 0.7397 0.25582 0.0
C1504 C 0.71821 0.72537 0.26 0.0
C1505 C 0.7078 0.73634 0.2271 0.0
C1506 C 0.70377 0.73174 0.26628 0.0
C1507 C 0.69421 0.72242 0.27671 0.0
C1508 C 0.699 0.70661 0.28105 0.0
C1509 C 0.71342 0.70023 0.27458 0.0
C1510 C 0.72298 0.70958 0.26418 0.0
H1511 H 0.70744 0.73848 0.21379 0.0
H1512 H 0.70504 0.72332 0.22947 0.0
H1513 H 0.69813 0.74376 0.23281 0.0
H1514 H 0.70009 0.74405 0.2634 0.0
H1515 H 0.68329 0.72774 0.2817 0.0
H1516 H 0.26715 0.69763 0.28186 0.0
H1517 H 0.25094 0.71786 0.26752 0.0
H1518 H 0.27257 0.75607 0.29628 0.0
H1519 H 0.28927 0.73594 0.31035 0.0
H1520 H 0.22865 0.74112 0.27946 0.0
H1521 H 0.28191 0.76953 0.24896 0.0
H1522 H 0.28308 0.75007 0.259 0.0
H1523 H 0.28261 0.76849 0.27074 0.0
C1524 C 0.26852 0.71035 0.28508 0.0
C1525 C 0.27961 0.71523 0.29709 0.0
C1526 C 0.25917 0.72185 0.27699 0.0
C1527 C 0.26074 0.73842 0.28075 0.0
C1528 C 0.27138 0.74333 0.2931 0.0
H1529 H 0.195 0.80798 0.23361 0.0
H1530 H 0.21093 0.79441 0.2547 0.0
C1531 C 0.28078 0.73182 0.3012 0.0
C1532 C 0.2516 0.75047 0.27121 0.0
H1533 H 0.2562 0.77972 0.24225 0.0
C1534 C 0.23462 0.74973 0.27146 0.0
C1535 C 0.25954 0.76155 0.26075 0.0
C1536 C 0.27779 0.76246 0.25968 0.0
C1537 C 0.22531 0.75944 0.26108 0.0
C1538 C 0.23326 0.77028 0.2504 0.0
C1539 C 0.25022 0.77142 0.25055 0.0
C1540 C 0.2243 0.77933 0.23786 0.0
C1541 C 0.20711 0.75744 0.26105 0.0
C1542 C 0.22693 0.77563 0.22146 0.0
C1543 C 0.21802 0.78342 0.20943 0.0
C1544 C 0.20632 0.79509 0.2136 0.0
C1545 C 0.20399 0.79909 0.23004 0.0
C1546 C 0.21296 0.79127 0.24209 0.0
H1547 H 0.20315 0.74655 0.26799 0.0
H1548 H 0.20148 0.76832 0.26667 0.0
H1549 H 0.20248 0.75639 0.24843 0.0
H1550 H 0.23572 0.76648 0.21799 0.0
H1551 H 0.22027 0.78031 0.19685 0.0
H1552 H 0.27285 0.7197 0.68111 0.0
H1553 H 0.25391 0.73781 0.69509 0.0
H1554 H 0.25484 0.70651 0.73704 0.0
H1555 H 0.27331 0.68804 0.72298 0.0
H1556 H 0.22354 0.71797 0.72866 0.0
H1557 H 0.26948 0.7676 0.73228 0.0
H1558 H 0.26523 0.75999 0.71227 0.0
H1559 H 0.27472 0.74698 0.72693 0.0
C1560 C 0.26881 0.71654 0.69321 0.0
C1561 C 0.27467 0.70253 0.70103 0.0
C1562 C 0.25811 0.72696 0.70121 0.0
C1563 C 0.25322 0.72357 0.71714 0.0
C1564 C 0.25858 0.70933 0.72476 0.0
H1565 H 0.22053 0.7833 0.79475 0.0
H1566 H 0.23445 0.76539 0.77564 0.0
C1567 C 0.26923 0.69889 0.71677 0.0
C1568 C 0.24311 0.73519 0.72627 0.0
H1569 H 0.24384 0.77288 0.74361 0.0
C1570 C 0.22788 0.73004 0.73184 0.0
C1571 C 0.24897 0.75082 0.73048 0.0
C1572 C 0.26554 0.7567 0.72532 0.0
C1573 C 0.21839 0.74007 0.7418 0.0
C1574 C 0.22429 0.75566 0.74605 0.0
C1575 C 0.23938 0.76092 0.74022 0.0
C1576 C 0.21555 0.76632 0.75747 0.0
C1577 C 0.20245 0.73369 0.74819 0.0
C1578 C 0.20036 0.77279 0.75347 0.0
C1579 C 0.19238 0.78305 0.76436 0.0
C1580 C 0.19957 0.78708 0.77932 0.0
C1581 C 0.2148 0.78058 0.78323 0.0
C1582 C 0.22273 0.77031 0.77237 0.0
H1583 H 0.20117 0.72036 0.74632 0.0
H1584 H 0.2012 0.73639 0.76134 0.0
H1585 H 0.19236 0.73981 0.74174 0.0
H1586 H 0.19478 0.77005 0.74188 0.0
H1587 H 0.18074 0.78808 0.76096 0.0
H1588 H 0.21253 0.22786 0.81224 0.0
H1589 H 0.23167 0.24621 0.79874 0.0
H1590 H 0.21958 0.22465 0.75252 0.0
H1591 H 0.20012 0.20659 0.76584 0.0
H1592 H 0.25873 0.23758 0.77973 0.0
H1593 H 0.21414 0.2738 0.74482 0.0
H1594 H 0.20842 0.2611 0.76176 0.0
H1595 H 0.21189 0.25223 0.7421 0.0
C1596 C 0.21379 0.2272 0.79918 0.0
C1597 C 0.20477 0.21587 0.79006 0.0
C1598 C 0.22478 0.2376 0.79152 0.0
C1599 C 0.22682 0.23689 0.77465 0.0
C1600 C 0.21794 0.22554 0.76554 0.0
H1601 H 0.30269 0.26639 0.71096 0.0
H1602 H 0.28496 0.2524 0.73022 0.0
C1603 C 0.20696 0.21513 0.77317 0.0
C1604 C 0.23859 0.24769 0.76655 0.0
H1605 H 0.24185 0.27618 0.73672 0.0
C1606 C 0.25507 0.24616 0.77045 0.0
C1607 C 0.23368 0.25903 0.75467 0.0
C1608 C 0.21605 0.26179 0.75068 0.0
C1609 C 0.26689 0.25524 0.76222 0.0
C1610 C 0.26205 0.26587 0.74967 0.0
C1611 C 0.24552 0.26789 0.74627 0.0
C1612 C 0.27389 0.27446 0.73933 0.0
C1613 C 0.28444 0.2533 0.76696 0.0
C1614 C 0.27343 0.29146 0.73803 0.0
C1615 C 0.28347 0.29946 0.72699 0.0
C1616 C 0.29407 0.29056 0.71703 0.0
C1617 C 0.29479 0.27356 0.71865 0.0
C1618 C 0.28471 0.26557 0.72966 0.0
H1619 H 0.28566 0.24875 0.77959 0.0
H1620 H 0.29024 0.24431 0.75876 0.0
H1621 H 0.29112 0.265 0.76589 0.0
H1622 H 0.2651 0.2985 0.74537 0.0
H1623 H 0.28282 0.31259 0.72612 0.0
H1624 H 0.76563 0.20326 0.78572 0.0
H1625 H 0.75086 0.22545 0.77294 0.0
H1626 H 0.77754 0.26032 0.8017 0.0
H1627 H 0.79307 0.2382 0.81393 0.0
H1628 H 0.73155 0.24961 0.78468 0.0
H1629 H 0.78703 0.2753 0.75581 0.0
H1630 H 0.7869 0.25573 0.76567 0.0
H1631 H 0.7873 0.27407 0.77757 0.0
C1632 C 0.76846 0.21565 0.78926 0.0
C1633 C 0.78073 0.21898 0.80062 0.0
C1634 C 0.75988 0.22831 0.78208 0.0
C1635 C 0.76332 0.24452 0.78618 0.0
C1636 C 0.77494 0.24789 0.79814 0.0
H1637 H 0.70026 0.31483 0.73608 0.0
H1638 H 0.71549 0.30263 0.75842 0.0
C1639 C 0.78367 0.23522 0.80524 0.0
C1640 C 0.75521 0.25772 0.77718 0.0
H1641 H 0.76221 0.28719 0.74892 0.0
C1642 C 0.73821 0.25802 0.77702 0.0
C1643 C 0.76402 0.26857 0.76718 0.0
C1644 C 0.78231 0.2684 0.76641 0.0
C1645 C 0.72974 0.26826 0.76644 0.0
C1646 C 0.73856 0.27878 0.75609 0.0
C1647 C 0.75554 0.27914 0.75693 0.0
C1648 C 0.73058 0.28781 0.74285 0.0
C1649 C 0.71149 0.26692 0.76567 0.0
C1650 C 0.73459 0.2841 0.72673 0.0
C1651 C 0.72619 0.29127 0.71397 0.0
C1652 C 0.71351 0.30222 0.71709 0.0
C1653 C 0.70998 0.30647 0.73326 0.0
C1654 C 0.71853 0.29938 0.74605 0.0
H1655 H 0.70688 0.25604 0.77221 0.0
H1656 H 0.70603 0.27786 0.77136 0.0
H1657 H 0.70728 0.26628 0.75288 0.0
H1658 H 0.74394 0.27527 0.72401 0.0
H1659 H 0.72946 0.28804 0.70165 0.0
H1660 H 0.79978 0.80035 0.75913 0.0
H1661 H 0.78486 0.78308 0.7399 0.0
H1662 H 0.77017 0.75168 0.77914 0.0
H1663 H 0.7851 0.76879 0.79842 0.0
H1664 H 0.7841 0.73714 0.7461 0.0
H1665 H 0.73199 0.78013 0.74284 0.0
H1666 H 0.75235 0.78808 0.74172 0.0
H1667 H 0.74519 0.77939 0.76032 0.0
C1668 C 0.79353 0.78965 0.7636 0.0
C1669 C 0.79348 0.78593 0.78024 0.0
C1670 C 0.785 0.77987 0.75265 0.0
C1671 C 0.77645 0.76622 0.75821 0.0
C1672 C 0.77673 0.76222 0.77471 0.0
H1673 H 0.71608 0.68975 0.72065 0.0
H1674 H 0.73592 0.70631 0.73537 0.0
C1675 C 0.78514 0.77204 0.78568 0.0
C1676 C 0.76657 0.75646 0.74695 0.0
H1677 H 0.72985 0.75577 0.7281 0.0
C1678 C 0.77228 0.74119 0.74203 0.0
C1679 C 0.75126 0.76193 0.7417 0.0
C1680 C 0.74469 0.77825 0.7469 0.0
C1681 C 0.76291 0.7311 0.73197 0.0
C1682 C 0.74731 0.73633 0.72714 0.0
C1683 C 0.7418 0.75179 0.73183 0.0
C1684 C 0.7362 0.72582 0.71772 0.0
C1685 C 0.76984 0.71502 0.72653 0.0
C1686 C 0.72955 0.73145 0.70311 0.0
C1687 C 0.71806 0.72212 0.69483 0.0
C1688 C 0.71307 0.707 0.70102 0.0
C1689 C 0.7199 0.70127 0.71552 0.0
C1690 C 0.73128 0.71067 0.72388 0.0
H1691 H 0.78331 0.71517 0.72685 0.0
H1692 H 0.76562 0.70529 0.73485 0.0
H1693 H 0.76585 0.7119 0.71403 0.0
H1694 H 0.73313 0.74315 0.69821 0.0
H1695 H 0.71307 0.72674 0.68358 0.0
H1696 H 0.17928 0.15526 0.92856 0.0
H1697 H 0.1806 0.15738 0.95814 0.0
H1698 H 0.14013 0.19047 0.9578 0.0
H1699 H 0.13894 0.18873 0.92813 0.0
H1700 H 0.16706 0.199 0.97968 0.0
H1701 H 0.14448 0.13548 0.9863 0.0
H1702 H 0.16184 0.13808 0.97335 0.0
H1703 H 0.14272 0.14672 0.96758 0.0
C1704 C 0.17084 0.16322 0.93475 0.0
C1705 C 0.15892 0.17174 0.92605 0.0
C1706 C 0.17155 0.16433 0.95163 0.0
C1707 C 0.16035 0.17393 0.96007 0.0
C1708 C 0.14884 0.18295 0.95143 0.0
H1709 H 0.13065 0.16611 0.05974 0.0
H1710 H 0.13226 0.16908 0.03029 0.0
C1711 C 0.1481 0.18184 0.93454 0.0
C1712 C 0.16001 0.17382 0.97797 0.0
H1713 H 0.15185 0.14931 0.01031 0.0
C1714 C 0.16377 0.18817 0.98643 0.0
C1715 C 0.15552 0.15967 0.98662 0.0
C1716 C 0.15078 0.14412 0.97805 0.0
C1717 C 0.16327 0.18869 0.00345 0.0
C1718 C 0.15901 0.17446 0.01209 0.0
C1719 C 0.15518 0.16016 0.0036 0.0
C1720 C 0.15801 0.17412 0.02998 0.0
C1721 C 0.16698 0.20448 0.01206 0.0
C1722 C 0.17197 0.17606 0.03951 0.0
C1723 C 0.17111 0.17427 0.05635 0.0
C1724 C 0.15629 0.1704 0.06386 0.0
C1725 C 0.14229 0.16884 0.05427 0.0
C1726 C 0.14316 0.17063 0.03748 0.0
H1727 H 0.16667 0.21503 0.00365 0.0
H1728 H 0.15821 0.20662 0.02206 0.0
H1729 H 0.17928 0.20381 0.01746 0.0
H1730 H 0.1836 0.17846 0.03388 0.0
H1731 H 0.18213 0.17536 0.06342 0.0
H1732 H 0.79739 0.17529 0.92511 0.0
H1733 H 0.79392 0.17888 0.95452 0.0
H1734 H 0.83926 0.15431 0.96285 0.0
H1735 H 0.84283 0.1507 0.93359 0.0
H1736 H 0.79508 0.15134 0.97938 0.0
H1737 H 0.84114 0.20016 0.98748 0.0
H1738 H 0.83128 0.19616 0.96828 0.0
H1739 H 0.84736 0.18321 0.97515 0.0
C1740 C 0.80663 0.17074 0.93325 0.0
C1741 C 0.82038 0.16271 0.92712 0.0
C1742 C 0.80461 0.17275 0.94997 0.0
C1743 C 0.81642 0.16698 0.96072 0.0
C1744 C 0.83011 0.15895 0.95466 0.0
H1745 H 0.82922 0.13867 0.05725 0.0
H1746 H 0.82364 0.14155 0.02826 0.0
C1747 C 0.83207 0.1568 0.93799 0.0
C1748 C 0.81445 0.16893 0.97838 0.0
H1749 H 0.83248 0.18627 0.01139 0.0
C1750 C 0.80303 0.15918 0.98641 0.0
C1751 C 0.82473 0.17932 0.9874 0.0
C1752 C 0.83675 0.19044 0.97917 0.0
C1753 C 0.80233 0.15881 0.00341 0.0
C1754 C 0.81338 0.16837 0.01245 0.0
C1755 C 0.82408 0.17889 0.00438 0.0
C1756 C 0.81523 0.1664 0.03014 0.0
C1757 C 0.79011 0.14788 0.01159 0.0
C1758 C 0.81245 0.17949 0.04071 0.0
C1759 C 0.81564 0.17788 0.05729 0.0
C1760 C 0.82193 0.16325 0.06342 0.0
C1761 C 0.8245 0.15012 0.0528 0.0
C1762 C 0.82117 0.15169 0.0363 0.0
H1763 H 0.77978 0.14498 0.00342 0.0
H1764 H 0.79606 0.13627 0.01496 0.0
H1765 H 0.78536 0.15359 0.02285 0.0
H1766 H 0.80803 0.19099 0.03608 0.0
H1767 H 0.81367 0.18821 0.06522 0.0
H1768 H 0.849 0.80256 0.92862 0.0
H1769 H 0.84987 0.79789 0.95785 0.0
H1770 H 0.8029 0.82024 0.96297 0.0
H1771 H 0.80161 0.82433 0.93363 0.0
H1772 H 0.84967 0.82216 0.98021 0.0
H1773 H 0.79813 0.78031 0.99148 0.0
H1774 H 0.8064 0.78366 0.97147 0.0
H1775 H 0.79246 0.79804 0.98017 0.0
C1776 C 0.83863 0.80605 0.93588 0.0
C1777 C 0.82521 0.8138 0.92879 0.0
C1778 C 0.83921 0.80346 0.9526 0.0
C1779 C 0.82638 0.80853 0.96255 0.0
C1780 C 0.81279 0.81591 0.95548 0.0
H1781 H 0.81149 0.8277 0.06356 0.0
H1782 H 0.80946 0.8238 0.03421 0.0
C1783 C 0.81217 0.81845 0.93874 0.0
C1784 C 0.82792 0.8076 0.98041 0.0
H1785 H 0.80906 0.79408 0.01473 0.0
C1786 C 0.84092 0.81583 0.98776 0.0
C1787 C 0.81644 0.79938 0.99019 0.0
C1788 C 0.80266 0.78971 0.98293 0.0
C1789 C 0.84248 0.81652 0.00467 0.0
C1790 C 0.83082 0.8086 0.01445 0.0
C1791 C 0.81796 0.80013 0.00714 0.0
C1792 C 0.83145 0.80965 0.03233 0.0
C1793 C 0.85625 0.82621 0.01196 0.0
C1794 C 0.84431 0.80267 0.04095 0.0
C1795 C 0.84548 0.80481 0.05773 0.0
C1796 C 0.83377 0.81394 0.06614 0.0
C1797 C 0.82062 0.82047 0.05748 0.0
C1798 C 0.81946 0.8183 0.04072 0.0
H1799 H 0.86229 0.83414 0.00286 0.0
H1800 H 0.85185 0.83393 0.02211 0.0
H1801 H 0.86545 0.81773 0.0169 0.0
H1802 H 0.85354 0.79574 0.03467 0.0
H1803 H 0.85559 0.79938 0.0641 0.0
H1804 H 0.19259 0.83225 0.05895 0.0
H1805 H 0.1956 0.82843 0.02967 0.0
H1806 H 0.1664 0.78487 0.03215 0.0
H1807 H 0.16312 0.78878 0.06146 0.0
H1808 H 0.20695 0.80352 0.00955 0.0
H1809 H 0.14081 0.81389 0.00143 0.0
H1810 H 0.151 0.81768 0.02043 0.0
H1811 H 0.14599 0.79722 0.01447 0.0
C1812 C 0.18707 0.82169 0.0533 0.0
C1813 C 0.17747 0.81091 0.06241 0.0
C1814 C 0.18878 0.81953 0.03659 0.0
C1815 C 0.18096 0.80655 0.02873 0.0
C1816 C 0.17222 0.79518 0.03795 0.0
H1817 H 0.16409 0.79619 0.92459 0.0
H1818 H 0.16746 0.78917 0.95325 0.0
C1819 C 0.17038 0.79741 0.05465 0.0
C1820 C 0.18097 0.80574 0.0108 0.0
H1821 H 0.15616 0.80947 0.9779 0.0
C1822 C 0.19585 0.80467 0.0026 0.0
C1823 C 0.16644 0.80729 0.0018 0.0
C1824 C 0.15015 0.80923 0.00993 0.0
C1825 C 0.1966 0.80536 0.9856 0.0
C1826 C 0.18213 0.80735 0.97666 0.0
C1827 C 0.16722 0.80787 0.98482 0.0
C1828 C 0.18211 0.81028 0.95897 0.0
C1829 C 0.21287 0.80411 0.97734 0.0
C1830 C 0.18936 0.82441 0.95272 0.0
C1831 C 0.18745 0.82845 0.93639 0.0
C1832 C 0.17821 0.81847 0.92605 0.0
C1833 C 0.17142 0.80403 0.93223 0.0
C1834 C 0.17329 0.80003 0.94858 0.0
H1835 H 0.2219 0.79792 0.98518 0.0
H1836 H 0.21189 0.79739 0.96568 0.0
H1837 H 0.21747 0.81654 0.97472 0.0
H1838 H 0.19594 0.83265 0.96062 0.0
H1839 H 0.19294 0.83957 0.93193 0.0
H1840 H 0.06342 0.19803 0.15902 0.0
H1841 H 0.03441 0.20331 0.16216 0.0
H1842 H 0.03127 0.16525 0.19804 0.0
H1843 H 0.06031 0.16009 0.19511 0.0
H1844 H 0.01194 0.18079 0.15466 0.0
H1845 H 0.00333 0.20014 0.21847 0.0
H1846 H 0.02294 0.20016 0.20872 0.0
H1847 H 0.01459 0.18157 0.21673 0.0
C1848 C 0.05656 0.19099 0.16778 0.0
C1849 C 0.06404 0.17859 0.17676 0.0
C1850 C 0.04004 0.19407 0.16961 0.0
C1851 C 0.03072 0.18479 0.18045 0.0
C1852 C 0.0383 0.17283 0.18991 0.0
H1853 H 0.93138 0.15764 0.19013 0.0
H1854 H 0.96042 0.16256 0.19362 0.0
C1855 C 0.05487 0.16983 0.18817 0.0
C1856 C 0.01283 0.18612 0.18025 0.0
H1857 H 0.9795 0.19076 0.20438 0.0
C1858 C 0.00485 0.18325 0.16548 0.0
C1859 C 0.00364 0.18922 0.19441 0.0
C1860 C 0.01157 0.1931 0.21045 0.0
C1861 C 0.98792 0.1828 0.16456 0.0
C1862 C 0.97872 0.18552 0.17878 0.0
C1863 C 0.98665 0.18871 0.19351 0.0
C1864 C 0.96088 0.18411 0.17859 0.0
C1865 C 0.98001 0.17876 0.14852 0.0
C1866 C 0.95152 0.19492 0.1694 0.0
C1867 C 0.93494 0.19215 0.16738 0.0
C1868 C 0.92747 0.17856 0.17459 0.0
C1869 C 0.93676 0.16827 0.18452 0.0
C1870 C 0.95334 0.17104 0.18651 0.0
H1871 H 0.98884 0.17392 0.13956 0.0
H1872 H 0.97018 0.16965 0.15018 0.0
H1873 H 0.97454 0.18994 0.14337 0.0
H1874 H 0.95714 0.20521 0.16339 0.0
H1875 H 0.92802 0.20044 0.1599 0.0
H1876 H 0.81336 0.92347 0.19025 0.0
H1877 H 0.80789 0.95267 0.19326 0.0
H1878 H 0.83307 0.96204 0.14834 0.0
H1879 H 0.83826 0.933 0.14509 0.0
H1880 H 0.83146 0.97744 0.1952 0.0
H1881 H 0.79056 0.98718 0.14294 0.0
H1882 H 0.79451 0.96724 0.15124 0.0
H1883 H 0.80863 0.97644 0.13732 0.0
C1884 C 0.81749 0.93176 0.18091 0.0
C1885 C 0.82625 0.92599 0.16744 0.0
C1886 C 0.81441 0.94839 0.18268 0.0
C1887 C 0.81986 0.95943 0.1709 0.0
C1888 C 0.82848 0.95367 0.1574 0.0
H1889 H 0.84197 0.05626 0.15075 0.0
H1890 H 0.83724 0.027 0.15306 0.0
C1891 C 0.83162 0.93711 0.15566 0.0
C1892 C 0.81761 0.97712 0.17305 0.0
H1893 H 0.8047 0.01093 0.15298 0.0
C1894 C 0.82529 0.98479 0.1862 0.0
C1895 C 0.80945 0.98659 0.16133 0.0
C1896 C 0.80017 0.97892 0.1475 0.0
C1897 C 0.82604 0.00182 0.18728 0.0
C1898 C 0.81882 0.01126 0.17495 0.0
C1899 C 0.81031 0.00359 0.16234 0.0
C1900 C 0.82147 0.02897 0.17393 0.0
C1901 C 0.83536 0.00962 0.201 0.0
C1902 C 0.81411 0.03968 0.18494 0.0
C1903 C 0.81684 0.05643 0.18369 0.0
C1904 C 0.82701 0.06264 0.17145 0.0
C1905 C 0.8343 0.05181 0.16047 0.0
C1906 C 0.83151 0.03514 0.16168 0.0
H1907 H 0.8415 0.00049 0.20879 0.0
H1908 H 0.84462 0.01813 0.1961 0.0
H1909 H 0.82694 0.0168 0.20867 0.0
H1910 H 0.80623 0.03508 0.1944 0.0
H1911 H 0.81111 0.06451 0.19235 0.0
H1912 H 0.93244 0.82904 0.20198 0.0
H1913 H 0.962 0.82669 0.20366 0.0
H1914 H 0.96212 0.79706 0.16044 0.0
H1915 H 0.9327 0.79947 0.15852 0.0
H1916 H 0.98458 0.78696 0.18607 0.0
H1917 H 0.98885 0.85247 0.16919 0.0
H1918 H 0.97673 0.84763 0.18667 0.0
H1919 H 0.97036 0.84091 0.16693 0.0
C1920 C 0.93876 0.82189 0.19293 0.0
C1921 C 0.93026 0.81459 0.18002 0.0
C1922 C 0.9556 0.82052 0.19395 0.0
C1923 C 0.96418 0.81186 0.18206 0.0
C1924 C 0.95566 0.80375 0.16974 0.0
H1925 H 0.05783 0.8206 0.14062 0.0
H1926 H 0.02913 0.81761 0.14732 0.0
C1927 C 0.93885 0.80511 0.1687 0.0
C1928 C 0.98204 0.81258 0.18138 0.0
H1929 H 0.01327 0.8382 0.17205 0.0
C1930 C 0.99093 0.79817 0.18321 0.0
C1931 C 0.99016 0.82724 0.17745 0.0
C1932 C 0.9811 0.84296 0.17482 0.0
C1933 C 0.0078 0.798 0.18095 0.0
C1934 C 0.01583 0.8126 0.17679 0.0
C1935 C 0.00699 0.82706 0.17529 0.0
C1936 C 0.03325 0.81307 0.17283 0.0
C1937 C 0.01688 0.78217 0.18242 0.0
C1938 C 0.045 0.8114 0.18499 0.0
C1939 C 0.06143 0.81324 0.18123 0.0
C1940 C 0.0663 0.81684 0.16526 0.0
C1941 C 0.05445 0.81809 0.15307 0.0
C1942 C 0.03808 0.81629 0.15684 0.0
H1943 H 0.00859 0.77159 0.18383 0.0
H1944 H 0.02459 0.78022 0.17154 0.0
H1945 H 0.02499 0.78271 0.19315 0.0
H1946 H 0.04144 0.80912 0.19744 0.0
H1947 H 0.07026 0.8124 0.19092 0.0
H1948 H 0.1393 0.05935 0.16468 0.0
H1949 H 0.14252 0.02983 0.16539 0.0
H1950 H 0.19372 0.03567 0.17436 0.0
H1951 H 0.1906 0.06531 0.17359 0.0
H1952 H 0.18748 0.01406 0.15003 0.0
H1953 H 0.1496 -0.00041 0.20356 0.0
H1954 H 0.13893 0.0116 0.1889 0.0
H1955 H 0.15637 0.02 0.19907 0.0
C1956 C 0.15119 0.05435 0.16712 0.0
C1957 C 0.16469 0.06462 0.16917 0.0
C1958 C 0.15301 0.03749 0.16754 0.0
C1959 C 0.16831 0.03058 0.1702 0.0
C1960 C 0.1818 0.04079 0.17238 0.0
H1961 H 0.17676 0.9255 0.18381 0.0
H1962 H 0.17934 0.95495 0.18755 0.0
C1963 C 0.18 0.05768 0.17188 0.0
C1964 C 0.17031 0.01271 0.16969 0.0
H1965 H 0.1555 0.97737 0.18556 0.0
C1966 C 0.18065 0.00602 0.15793 0.0
C1967 C 0.1616 0.00226 0.18019 0.0
C1968 C 0.15114 0.00873 0.19375 0.0
C1969 C 0.18198 0.98913 0.15591 0.0
C1970 C 0.17244 0.97872 0.1657 0.0
C1971 C 0.16265 0.98539 0.17793 0.0
C1972 C 0.17193 0.96091 0.16308 0.0
C1973 C 0.19355 0.98262 0.14331 0.0
C1974 C 0.16688 0.95452 0.1481 0.0
C1975 C 0.16542 0.93773 0.14592 0.0
C1976 C 0.16879 0.92705 0.15877 0.0
C1977 C 0.17395 0.93346 0.17374 0.0
C1978 C 0.17549 0.95025 0.17588 0.0
H1979 H 0.20339 0.99149 0.14067 0.0
H1980 H 0.19908 0.97099 0.14729 0.0
H1981 H 0.18684 0.98037 0.13185 0.0
H1982 H 0.16365 0.96254 0.1382 0.0
H1983 H 0.16117 0.93314 0.13435 0.0
H1984 H 0.92755 0.84171 0.80112 0.0
H1985 H 0.957 0.8413 0.79674 0.0
H1986 H 0.96287 0.81147 0.83932 0.0
H1987 H 0.93353 0.81186 0.8438 0.0
H1988 H 0.97946 0.85283 0.82293 0.0
H1989 H 0.99104 0.78951 0.80224 0.0
H1990 H 0.97164 0.7994 0.79976 0.0
H1991 H 0.97755 0.79171 0.81925 0.0
C1992 C 0.93512 0.8348 0.80934 0.0
C1993 C 0.92834 0.82685 0.82282 0.0
C1994 C 0.95188 0.83462 0.80685 0.0
C1995 C 0.96199 0.82623 0.81763 0.0
C1996 C 0.95519 0.81782 0.83077 0.0
H1997 H 0.0618 0.8135 0.84108 0.0
H1998 H 0.03246 0.81179 0.83706 0.0
C1999 C 0.93849 0.81816 0.83338 0.0
C2000 C 0.97976 0.82753 0.81622 0.0
H2001 H 0.01396 0.80504 0.81054 0.0
C2002 C 0.98706 0.84248 0.81999 0.0
C2003 C 0.9895 0.81393 0.81252 0.0
C2004 C 0.98209 0.79772 0.80809 0.0
C2005 C 0.00396 0.84404 0.82088 0.0
C2006 C 0.01377 0.83036 0.81743 0.0
C2007 C 0.00642 0.81551 0.81317 0.0
C2008 C 0.03162 0.83096 0.81909 0.0
C2009 C 0.01109 0.8601 0.82632 0.0
C2010 C 0.0409 0.8421 0.8101 0.0
C2011 C 0.05762 0.84322 0.81252 0.0
C2012 C 0.06536 0.833 0.82374 0.0
C2013 C 0.05613 0.82147 0.83231 0.0
C2014 C 0.0394 0.82049 0.83003 0.0
H2015 H 0.00192 0.86788 0.83241 0.0
H2016 H 0.02136 0.85821 0.8348 0.0
H2017 H 0.01567 0.86681 0.81557 0.0
H2018 H 0.03519 0.85 0.80129 0.0
H2019 H 0.06452 0.85201 0.80556 0.0
H2020 H 0.15095 0.93734 0.81628 0.0
H2021 H 0.15535 0.96651 0.81282 0.0
H2022 H 0.20659 0.95998 0.82105 0.0
H2023 H 0.2021 0.93075 0.8251 0.0
H2024 H 0.19607 0.98392 0.83854 0.0
H2025 H 0.17285 0.99315 0.77656 0.0
H2026 H 0.15775 0.98322 0.78865 0.0
H2027 H 0.17673 0.97313 0.78462 0.0
C2028 C 0.16318 0.94211 0.81707 0.0
C2029 C 0.1762 0.93185 0.8209 0.0
C2030 C 0.16572 0.95876 0.81497 0.0
C2031 C 0.18136 0.96541 0.81629 0.0
C2032 C 0.19444 0.9551 0.81985 0.0
H2033 H 0.1877 0.07075 0.79847 0.0
H2034 H 0.19296 0.04146 0.79602 0.0
C2035 C 0.19187 0.93845 0.82219 0.0
C2036 C 0.18373 0.98328 0.81548 0.0
H2037 H 0.17248 0.01695 0.79416 0.0
C2038 C 0.19119 0.99112 0.82867 0.0
C2039 C 0.17774 0.99271 0.80245 0.0
C2040 C 0.171 0.98507 0.7872 0.0
C2041 C 0.19188 0.00813 0.82968 0.0
C2042 C 0.1844 0.01754 0.81743 0.0
C2043 C 0.17791 0.00973 0.80372 0.0
C2044 C 0.18214 0.03533 0.81917 0.0
C2045 C 0.20047 0.01579 0.84395 0.0
C2046 C 0.17416 0.04156 0.83288 0.0
C2047 C 0.17133 0.05821 0.83436 0.0
C2048 C 0.17611 0.06892 0.82199 0.0
C2049 C 0.1839 0.06271 0.80816 0.0
C2050 C 0.18693 0.04603 0.80678 0.0
H2051 H 0.21032 0.0078 0.84848 0.0
H2052 H 0.20576 0.02781 0.84076 0.0
H2053 H 0.19171 0.0175 0.85402 0.0
H2054 H 0.16982 0.0335 0.84233 0.0
H2055 H 0.16499 0.06265 0.84499 0.0
H2056 H 0.05616 0.14249 0.80667 0.0
H2057 H 0.02694 0.14629 0.80393 0.0
H2058 H 0.03235 0.19708 0.8161 0.0
H2059 H 0.06156 0.19326 0.81942 0.0
H2060 H 0.00946 0.18151 0.83452 0.0
H2061 H -0.00075 0.16808 0.76946 0.0
H2062 H 0.01057 0.15245 0.77952 0.0
H2063 H 0.0191 0.17254 0.77762 0.0
C2064 C 0.05114 0.15449 0.80867 0.0
C2065 C 0.06115 0.16756 0.81332 0.0
C2066 C 0.03447 0.15669 0.80688 0.0
C2067 C 0.02752 0.17202 0.80957 0.0
C2068 C 0.03752 0.18519 0.81382 0.0
H2069 H 0.92435 0.19555 0.82084 0.0
H2070 H 0.95366 0.1985 0.817 0.0
C2071 C 0.05421 0.183 0.81562 0.0
C2072 C 0.0097 0.17385 0.80952 0.0
H2073 H 0.97583 0.16669 0.78679 0.0
C2074 C 0.00209 0.17856 0.82401 0.0
C2075 C 0.00016 0.16996 0.79579 0.0
C2076 C 0.00769 0.16563 0.77967 0.0
C2077 C 0.98516 0.1787 0.82539 0.0
C2078 C 0.97563 0.17425 0.81183 0.0
C2079 C 0.98321 0.17006 0.79717 0.0
C2080 C 0.95782 0.17282 0.81299 0.0
C2081 C 0.97761 0.18288 0.84156 0.0
C2082 C 0.95048 0.15748 0.81157 0.0
C2083 C 0.9338 0.15575 0.81378 0.0
C2084 C 0.92415 0.16936 0.81739 0.0
C2085 C 0.9315 0.1848 0.81834 0.0
C2086 C 0.94821 0.18652 0.81612 0.0
H2087 H 0.98668 0.18302 0.85153 0.0
H2088 H 0.97205 0.19513 0.84084 0.0
H2089 H 0.9679 0.17403 0.84467 0.0
H2090 H 0.95774 0.14677 0.80919 0.0
H2091 H 0.92855 0.14367 0.81315 0.0
H2092 H 0.84734 0.93357 0.81692 0.0
H2093 H 0.84317 0.96244 0.81155 0.0
H2094 H 0.79168 0.95626 0.81835 0.0
H2095 H 0.79581 0.92747 0.82456 0.0
H2096 H 0.82519 0.97874 0.78855 0.0
H2097 H 0.80262 0.99184 0.85085 0.0
H2098 H 0.81205 0.97279 0.84556 0.0
H2099 H 0.79138 0.97665 0.83988 0.0
C2100 C 0.83513 0.93836 0.81744 0.0
C2101 C 0.82194 0.92825 0.82144 0.0
C2102 C 0.83276 0.95483 0.81419 0.0
C2103 C 0.81716 0.96153 0.81482 0.0
C2104 C 0.80386 0.95138 0.81811 0.0
H2105 H 0.79334 0.06536 0.81211 0.0
H2106 H 0.79045 0.03579 0.80967 0.0
C2107 C 0.80623 0.93489 0.82148 0.0
C2108 C 0.81506 0.97926 0.81265 0.0
H2109 H 0.80433 0.01389 0.83283 0.0
C2110 C 0.82049 0.98643 0.79816 0.0
C2111 C 0.80892 0.98924 0.82523 0.0
C2112 C 0.80353 0.98231 0.84132 0.0
C2113 C 0.82029 0.00337 0.79608 0.0
C2114 C 0.81463 0.01332 0.80885 0.0
C2115 C 0.8086 0.00615 0.82305 0.0
C2116 C 0.81621 0.03122 0.80842 0.0
C2117 C 0.82636 0.01051 0.78035 0.0
C2118 C 0.83166 0.03836 0.80849 0.0
C2119 C 0.83338 0.05518 0.81012 0.0
C2120 C 0.81966 0.06518 0.81172 0.0
C2121 C 0.80416 0.05799 0.81113 0.0
C2122 C 0.80247 0.04113 0.80961 0.0
H2123 H 0.82603 0.00142 0.77035 0.0
H2124 H 0.81905 0.02124 0.77678 0.0
H2125 H 0.83911 0.01454 0.78194 0.0
H2126 H 0.84243 0.03086 0.80795 0.0
H2127 H 0.8455 0.06023 0.81083 0.0
H2128 H 0.64542 0.6881 0.4324 0.0
H2129 H 0.64879 0.69023 0.46177 0.0
H2130 H 0.69588 0.6678 0.45805 0.0
H2131 H 0.69242 0.66538 0.42862 0.0
H2132 H 0.67732 0.65281 0.47981 0.0
H2133 H 0.67477 0.71902 0.49148 0.0
H2134 H 0.65773 0.71224 0.47975 0.0
H2135 H 0.67786 0.71073 0.47142 0.0
C2136 C 0.65666 0.684 0.4378 0.0
C2137 C 0.66865 0.67656 0.42827 0.0
C2138 C 0.65861 0.68529 0.45458 0.0
C2139 C 0.6727 0.6794 0.46208 0.0
C2140 C 0.68495 0.67249 0.45249 0.0
H2141 H 0.69153 0.66705 0.56612 0.0
H2142 H 0.69559 0.67087 0.53693 0.0
C2143 C 0.68294 0.67107 0.43572 0.0
C2144 C 0.67378 0.67879 0.48 0.0
H2145 H 0.66889 0.70157 0.51435 0.0
C2146 C 0.67579 0.66352 0.48736 0.0
C2147 C 0.67178 0.69278 0.48984 0.0
C2148 C 0.67059 0.70963 0.4827 0.0
C2149 C 0.67513 0.66177 0.50425 0.0
C2150 C 0.67239 0.67563 0.51398 0.0
C2151 C 0.67089 0.69097 0.50674 0.0
C2152 C 0.67015 0.67418 0.53166 0.0
C2153 C 0.67671 0.64504 0.51162 0.0
C2154 C 0.65451 0.67491 0.53822 0.0
C2155 C 0.6521 0.67252 0.55481 0.0
C2156 C 0.66534 0.66948 0.56513 0.0
C2157 C 0.68106 0.66909 0.55848 0.0
C2158 C 0.68343 0.67139 0.54186 0.0
H2159 H 0.67743 0.63533 0.50226 0.0
H2160 H 0.68783 0.64456 0.51918 0.0
H2161 H 0.66621 0.6425 0.51967 0.0
H2162 H 0.64413 0.67695 0.53044 0.0
H2163 H 0.63983 0.67268 0.55947 0.0
H2164 H 0.35199 0.65941 0.56162 0.0
H2165 H 0.34867 0.6616 0.53224 0.0
H2166 H 0.29787 0.67211 0.53865 0.0
H2167 H 0.3011 0.66994 0.56811 0.0
H2168 H 0.30342 0.64824 0.51595 0.0
H2169 H 0.34251 0.70183 0.50409 0.0
H2170 H 0.35269 0.68628 0.51543 0.0
H2171 H 0.33554 0.69655 0.52419 0.0
C2172 C 0.34018 0.66247 0.55679 0.0
C2173 C 0.32681 0.66455 0.56715 0.0
C2174 C 0.33831 0.66374 0.54001 0.0
C2175 C 0.32309 0.66727 0.53331 0.0
C2176 C 0.30973 0.66945 0.54361 0.0
H2177 H 0.3129 0.68653 0.42953 0.0
H2178 H 0.31095 0.68876 0.45911 0.0
C2179 C 0.31158 0.66814 0.56041 0.0
C2180 C 0.32097 0.66771 0.51551 0.0
H2181 H 0.33568 0.68533 0.48106 0.0
C2182 C 0.31032 0.65648 0.50831 0.0
C2183 C 0.3298 0.67863 0.50562 0.0
C2184 C 0.34065 0.69162 0.51273 0.0
C2185 C 0.30877 0.65542 0.4914 0.0
C2186 C 0.31835 0.66566 0.48149 0.0
C2187 C 0.32848 0.67736 0.4887 0.0
C2188 C 0.31858 0.66401 0.46363 0.0
C2189 C 0.29693 0.64331 0.48432 0.0
C2190 C 0.32358 0.64938 0.45643 0.0
C2191 C 0.32472 0.64807 0.43958 0.0
C2192 C 0.32104 0.66145 0.42965 0.0
C2193 C 0.31595 0.67607 0.4369 0.0
C2194 C 0.31476 0.67734 0.45375 0.0
H2195 H 0.28723 0.64015 0.49313 0.0
H2196 H 0.29121 0.64811 0.47311 0.0
H2197 H 0.30347 0.63195 0.48118 0.0
H2198 H 0.32698 0.63908 0.46386 0.0
H2199 H 0.32895 0.63675 0.43436 0.0
H2200 H 0.31124 0.34527 0.43344 0.0
H2201 H 0.30762 0.34106 0.46259 0.0
H2202 H 0.3227 0.29112 0.45736 0.0
H2203 H 0.32636 0.29523 0.42815 0.0
H2204 H 0.28875 0.31836 0.48077 0.0
H2205 H 0.3551 0.31049 0.49013 0.0
H2206 H 0.34678 0.31846 0.47153 0.0
H2207 H 0.3459 0.29701 0.47561 0.0
C2208 C 0.31354 0.33332 0.43845 0.0
C2209 C 0.31923 0.32062 0.42855 0.0
C2210 C 0.3115 0.33095 0.4551 0.0
C2211 C 0.31512 0.31586 0.46211 0.0
C2212 C 0.32014 0.30294 0.45218 0.0
H2213 H 0.32653 0.29462 0.56525 0.0
H2214 H 0.32244 0.2907 0.53608 0.0
C2215 C 0.32224 0.30532 0.43554 0.0
C2216 C 0.31447 0.314 0.47994 0.0
H2217 H 0.3385 0.30893 0.51321 0.0
C2218 C 0.29959 0.31617 0.48789 0.0
C2219 C 0.32864 0.31111 0.48913 0.0
C2220 C 0.34505 0.30925 0.48124 0.0
C2221 C 0.29855 0.31576 0.50489 0.0
C2222 C 0.31281 0.31337 0.51408 0.0
C2223 C 0.32758 0.31069 0.5061 0.0
C2224 C 0.31305 0.3149 0.53196 0.0
C2225 C 0.28223 0.31795 0.51284 0.0
C2226 C 0.30897 0.32974 0.5393 0.0
C2227 C 0.31123 0.332 0.55593 0.0
C2228 C 0.31776 0.31948 0.56551 0.0
C2229 C 0.32133 0.30443 0.55822 0.0
C2230 C 0.31906 0.30219 0.54157 0.0
H2231 H 0.2722 0.31449 0.5045 0.0
H2232 H 0.28123 0.31059 0.52409 0.0
H2233 H 0.28064 0.33095 0.51611 0.0
H2234 H 0.30463 0.33982 0.53206 0.0
H2235 H 0.30822 0.34367 0.56124 0.0
H2236 H 0.69975 0.31957 0.42621 0.0
H2237 H 0.70421 0.31296 0.45481 0.0
H2238 H 0.65277 0.30593 0.46128 0.0
H2239 H 0.64828 0.3119 0.43264 0.0
H2240 H 0.6922 0.3305 0.47989 0.0
H2241 H 0.67084 0.2669 0.48497 0.0
H2242 H 0.67541 0.27627 0.46568 0.0
H2243 H 0.6561 0.27962 0.4753 0.0
C2244 C 0.68944 0.31622 0.43363 0.0
C2245 C 0.67365 0.31631 0.42719 0.0
C2246 C 0.692 0.31251 0.44997 0.0
C2247 C 0.67886 0.30872 0.4601 0.0
C2248 C 0.66314 0.30845 0.4536 0.0
H2249 H 0.65049 0.31085 0.55791 0.0
H2250 H 0.65403 0.30716 0.52874 0.0
C2251 C 0.66056 0.31212 0.43729 0.0
C2252 C 0.68124 0.30678 0.47778 0.0
H2253 H 0.67126 0.28254 0.50988 0.0
C2254 C 0.68796 0.31987 0.48644 0.0
C2255 C 0.6757 0.29288 0.48626 0.0
C2256 C 0.66926 0.27806 0.47754 0.0
C2257 C 0.68836 0.31988 0.50344 0.0
C2258 C 0.68207 0.30634 0.51194 0.0
C2259 C 0.67603 0.29292 0.50328 0.0
C2260 C 0.68022 0.30664 0.52975 0.0
C2261 C 0.69467 0.33475 0.51221 0.0
C2262 C 0.6938 0.30714 0.53997 0.0
C2263 C 0.69183 0.30918 0.55669 0.0
C2264 C 0.67623 0.3107 0.56343 0.0
C2265 C 0.66266 0.30953 0.55316 0.0
C2266 C 0.66465 0.30748 0.53648 0.0
H2267 H 0.69675 0.34515 0.50385 0.0
H2268 H 0.68603 0.33861 0.5218 0.0
H2269 H 0.70635 0.33178 0.51817 0.0
H2270 H 0.70591 0.30629 0.53497 0.0
H2271 H 0.7025 0.30977 0.56432 0.0
H2272 H 0.56408 0.68195 0.69683 0.0
H2273 H 0.53481 0.68379 0.7017 0.0
H2274 H 0.5256 0.6649 0.65372 0.0
H2275 H 0.55469 0.66258 0.64891 0.0
H2276 H 0.51017 0.70071 0.68395 0.0
H2277 H 0.50065 0.63389 0.68428 0.0
H2278 H 0.52046 0.64308 0.68626 0.0
H2279 H 0.51117 0.6411 0.66661 0.0
C2280 C 0.5558 0.67812 0.68736 0.0
C2281 C 0.56169 0.67203 0.67252 0.0
C2282 C 0.53912 0.67928 0.69012 0.0
C2283 C 0.52811 0.67426 0.67815 0.0
C2284 C 0.53394 0.66861 0.66319 0.0
H2285 H 0.42772 0.68952 0.65989 0.0
H2286 H 0.45705 0.69231 0.66292 0.0
C2287 C 0.55057 0.66745 0.66041 0.0
C2288 C 0.51049 0.67464 0.68126 0.0
H2289 H 0.47699 0.6503 0.68191 0.0
C2290 C 0.50289 0.6897 0.6837 0.0
C2291 C 0.50112 0.66022 0.68123 0.0
C2292 C 0.50877 0.64363 0.67962 0.0
C2293 C 0.48598 0.69077 0.68536 0.0
C2294 C 0.47652 0.67642 0.68431 0.0
C2295 C 0.48424 0.66131 0.6826 0.0
C2296 C 0.45859 0.67669 0.684 0.0
C2297 C 0.47843 0.70723 0.68816 0.0
C2298 C 0.4497 0.66699 0.69484 0.0
C2299 C 0.43296 0.66525 0.69303 0.0
C2300 C 0.42483 0.67318 0.68033 0.0
C2301 C 0.43364 0.68345 0.66992 0.0
C2302 C 0.4504 0.6851 0.67168 0.0
H2303 H 0.48716 0.7158 0.69388 0.0
H2304 H 0.47475 0.71245 0.67631 0.0
H2305 H 0.46751 0.7063 0.69599 0.0
H2306 H 0.4558 0.66036 0.7044 0.0
H2307 H 0.42643 0.65738 0.70131 0.0
H2308 H 0.32282 0.55461 0.65064 0.0
H2309 H 0.32039 0.52547 0.65555 0.0
H2310 H 0.32339 0.53384 0.70716 0.0
H2311 H 0.32648 0.5631 0.7023 0.0
H2312 H 0.344 0.51036 0.69722 0.0
H2313 H 0.28322 0.49797 0.67196 0.0
H2314 H 0.29555 0.5088 0.65765 0.0
H2315 H 0.29016 0.51832 0.6766 0.0
C2316 C 0.32294 0.55027 0.66304 0.0
C2317 C 0.32494 0.56114 0.67608 0.0
C2318 C 0.3213 0.53363 0.66584 0.0
C2319 C 0.32141 0.52753 0.68173 0.0
C2320 C 0.3231 0.53835 0.69481 0.0
H2321 H 0.30846 0.42164 0.68883 0.0
H2322 H 0.30494 0.4507 0.69454 0.0
C2323 C 0.32479 0.55504 0.69202 0.0
C2324 C 0.32122 0.50974 0.68441 0.0
H2325 H 0.30164 0.47503 0.6728 0.0
C2326 C 0.33457 0.50263 0.69217 0.0
C2327 C 0.30878 0.49968 0.67813 0.0
C2328 C 0.29354 0.50661 0.67078 0.0
C2329 C 0.33637 0.48569 0.6928 0.0
C2330 C 0.32467 0.47567 0.68515 0.0
C2331 C 0.31075 0.48274 0.67842 0.0
C2332 C 0.32726 0.45802 0.6828 0.0
C2333 C 0.35093 0.47871 0.70136 0.0
C2334 C 0.3409 0.45256 0.67422 0.0
C2335 C 0.34293 0.43604 0.67094 0.0
C2336 C 0.33124 0.42468 0.67602 0.0
C2337 C 0.31759 0.43015 0.68466 0.0
C2338 C 0.31561 0.4467 0.688 0.0
H2339 H 0.35533 0.48704 0.71106 0.0
H2340 H 0.34814 0.46669 0.70684 0.0
H2341 H 0.36093 0.47714 0.69249 0.0
H2342 H 0.34979 0.46114 0.66966 0.0
H2343 H 0.3534 0.43223 0.664 0.0
H2344 H 0.56995 0.31951 0.69055 0.0
H2345 H 0.54054 0.31579 0.69258 0.0
H2346 H 0.53771 0.30963 0.64064 0.0
H2347 H 0.56704 0.31316 0.63857 0.0
H2348 H 0.51784 0.33506 0.67904 0.0
H2349 H 0.51002 0.27217 0.6562 0.0
H2350 H 0.5295 0.28022 0.66222 0.0
H2351 H 0.52141 0.2846 0.64241 0.0
C2352 C 0.56304 0.31721 0.6796 0.0
C2353 C 0.57076 0.31656 0.66441 0.0
C2354 C 0.54629 0.31503 0.68078 0.0
C2355 C 0.53699 0.31215 0.6668 0.0
C2356 C 0.54471 0.31135 0.65164 0.0
H2357 H 0.43849 0.31933 0.637 0.0
H2358 H 0.46777 0.31588 0.63975 0.0
C2359 C 0.56145 0.31343 0.65046 0.0
C2360 C 0.5191 0.3114 0.66782 0.0
H2361 H 0.48616 0.28897 0.65627 0.0
C2362 C 0.51091 0.32487 0.67432 0.0
C2363 C 0.51011 0.29808 0.66164 0.0
C2364 C 0.51822 0.28289 0.65538 0.0
C2365 C 0.49395 0.32568 0.67416 0.0
C2366 C 0.48501 0.31263 0.66743 0.0
C2367 C 0.49313 0.29896 0.66134 0.0
C2368 C 0.46722 0.31341 0.66587 0.0
C2369 C 0.4857 0.34073 0.68059 0.0
C2370 C 0.45729 0.31284 0.67965 0.0
C2371 C 0.44054 0.31468 0.67812 0.0
C2372 C 0.43347 0.31713 0.66277 0.0
C2373 C 0.4435 0.31727 0.64896 0.0
C2374 C 0.46023 0.31537 0.65051 0.0
H2375 H 0.49445 0.35071 0.68318 0.0
H2376 H 0.47657 0.34519 0.67176 0.0
H2377 H 0.47924 0.33771 0.69202 0.0
H2378 H 0.46253 0.31116 0.69158 0.0
H2379 H 0.43313 0.31422 0.68896 0.0
H2380 H 0.64793 0.56045 0.68634 0.0
H2381 H 0.65206 0.53108 0.68569 0.0
H2382 H 0.69611 0.53786 0.65828 0.0
H2383 H 0.69163 0.5672 0.65812 0.0
H2384 H 0.67681 0.516 0.6443 0.0
H2385 H 0.68235 0.50114 0.70948 0.0
H2386 H 0.66425 0.51242 0.70535 0.0
H2387 H 0.68375 0.52173 0.70198 0.0
C2388 C 0.65854 0.55571 0.68022 0.0
C2389 C 0.6694 0.5662 0.67222 0.0
C2390 C 0.66101 0.53892 0.68008 0.0
C2391 C 0.67453 0.53229 0.67215 0.0
C2392 C 0.68566 0.54274 0.66458 0.0
H2393 H 0.69307 0.42735 0.67393 0.0
H2394 H 0.69601 0.45687 0.67712 0.0
C2395 C 0.68314 0.55953 0.66461 0.0
C2396 C 0.67615 0.51443 0.6704 0.0
H2397 H 0.67563 0.47882 0.69166 0.0
C2398 C 0.67678 0.50788 0.65467 0.0
C2399 C 0.67635 0.50385 0.68393 0.0
C2400 C 0.67682 0.51016 0.70113 0.0
C2401 C 0.67692 0.49103 0.65207 0.0
C2402 C 0.67599 0.48046 0.66556 0.0
C2403 C 0.67609 0.48697 0.68132 0.0
C2404 C 0.67434 0.46265 0.66354 0.0
C2405 C 0.67801 0.48473 0.63489 0.0
C2406 C 0.66107 0.45616 0.65504 0.0
C2407 C 0.65938 0.43936 0.65317 0.0
C2408 C 0.67083 0.42873 0.65995 0.0
C2409 C 0.684 0.43525 0.66866 0.0
C2410 C 0.68573 0.45208 0.67045 0.0
H2411 H 0.68365 0.49384 0.62668 0.0
H2412 H 0.68516 0.47331 0.63429 0.0
H2413 H 0.66562 0.48215 0.6303 0.0
H2414 H 0.65191 0.46409 0.64998 0.0
H2415 H 0.64894 0.43468 0.64668 0.0
H2416 H 0.42977 0.29613 0.3255 0.0
H2417 H 0.45898 0.29263 0.32179 0.0
H2418 H 0.46543 0.34474 0.32245 0.0
H2419 H 0.43626 0.34837 0.32527 0.0
H2420 H 0.48377 0.33012 0.29911 0.0
H2421 H 0.49118 0.29882 0.35847 0.0
H2422 H 0.47745 0.2892 0.34451 0.0
H2423 H 0.47262 0.30884 0.35279 0.0
C2424 C 0.43737 0.30685 0.32461 0.0
C2425 C 0.43069 0.32254 0.32589 0.0
C2426 C 0.45408 0.30481 0.32267 0.0
C2427 C 0.46438 0.31842 0.32216 0.0
C2428 C 0.45769 0.33407 0.32292 0.0
H2429 H 0.56122 0.33614 0.34916 0.0
H2430 H 0.53219 0.33162 0.34616 0.0
C2431 C 0.44103 0.33612 0.32473 0.0
C2432 C 0.4822 0.31658 0.3214 0.0
H2433 H 0.51478 0.30362 0.34329 0.0
C2434 C 0.49059 0.32419 0.30866 0.0
C2435 C 0.49099 0.30889 0.33395 0.0
C2436 C 0.48266 0.30108 0.34829 0.0
C2437 C 0.50758 0.3249 0.30848 0.0
C2438 C 0.51636 0.31745 0.32118 0.0
C2439 C 0.50798 0.30925 0.33354 0.0
C2440 C 0.5341 0.31954 0.32288 0.0
C2441 C 0.5159 0.33438 0.29518 0.0
C2442 C 0.54484 0.31405 0.31087 0.0
C2443 C 0.56149 0.31691 0.3124 0.0
C2444 C 0.56766 0.32514 0.32607 0.0
C2445 C 0.55687 0.33013 0.3383 0.0
C2446 C 0.54027 0.32739 0.33669 0.0
H2447 H 0.50728 0.34215 0.28833 0.0
H2448 H 0.52563 0.34226 0.30024 0.0
H2449 H 0.52154 0.32577 0.28648 0.0
H2450 H 0.54034 0.30769 0.30026 0.0
H2451 H 0.56947 0.31295 0.30275 0.0
H2452 H 0.70126 0.43148 0.33021 0.0
H2453 H 0.70199 0.46125 0.32835 0.0
H2454 H 0.65393 0.46101 0.30776 0.0
H2455 H 0.65311 0.43135 0.30955 0.0
H2456 H 0.67529 0.48374 0.29314 0.0
H2457 H 0.67481 0.48804 0.36056 0.0
H2458 H 0.69116 0.47649 0.35197 0.0
H2459 H 0.67068 0.46928 0.34993 0.0
C2460 C 0.69092 0.4378 0.32516 0.0
C2461 C 0.67708 0.42913 0.32014 0.0
C2462 C 0.69136 0.45475 0.3241 0.0
C2463 C 0.67791 0.46328 0.31815 0.0
C2464 C 0.66443 0.45462 0.31237 0.0
H2465 H 0.64213 0.55815 0.33886 0.0
H2466 H 0.64751 0.52916 0.3352 0.0
C2467 C 0.664 0.43768 0.31336 0.0
C2468 C 0.67726 0.48121 0.31907 0.0
H2469 H 0.67502 0.51264 0.34606 0.0
C2470 C 0.67537 0.49012 0.30468 0.0
C2471 C 0.67716 0.48939 0.33418 0.0
C2472 C 0.67842 0.48035 0.35007 0.0
C2473 C 0.67314 0.50705 0.30502 0.0
C2474 C 0.67302 0.51519 0.32014 0.0
C2475 C 0.6752 0.50631 0.33449 0.0
C2476 C 0.66963 0.53278 0.32154 0.0
C2477 C 0.67035 0.51599 0.2893 0.0
C2478 C 0.68031 0.54437 0.31505 0.0
C2479 C 0.67728 0.56097 0.31715 0.0
C2480 C 0.6636 0.56618 0.32591 0.0
C2481 C 0.65288 0.5545 0.33225 0.0
C2482 C 0.65589 0.53795 0.33011 0.0
H2483 H 0.66757 0.50754 0.27913 0.0
H2484 H 0.66022 0.52478 0.29056 0.0
H2485 H 0.68144 0.52296 0.2861 0.0
H2486 H 0.69113 0.54059 0.30866 0.0
H2487 H 0.68585 0.56971 0.3123 0.0
H2488 H 0.55078 0.65374 0.33713 0.0
H2489 H 0.52195 0.65749 0.33175 0.0
H2490 H 0.53276 0.69949 0.3023 0.0
H2491 H 0.56175 0.69606 0.30797 0.0
H2492 H 0.50749 0.70437 0.32474 0.0
H2493 H 0.49796 0.64805 0.2891 0.0
H2494 H 0.50801 0.64422 0.30802 0.0
H2495 H 0.51785 0.6565 0.29285 0.0
C2496 C 0.54704 0.66385 0.32959 0.0
C2497 C 0.55852 0.67462 0.32298 0.0
C2498 C 0.53059 0.66585 0.32636 0.0
C2499 C 0.5253 0.67858 0.31639 0.0
C2500 C 0.53666 0.68948 0.30988 0.0
H2501 H 0.42134 0.67417 0.29476 0.0
H2502 H 0.45026 0.67925 0.29013 0.0
C2503 C 0.55318 0.68746 0.31308 0.0
C2504 C 0.50778 0.68072 0.31342 0.0
H2505 H 0.47416 0.6598 0.30132 0.0
C2506 C 0.5002 0.69479 0.31934 0.0
C2507 C 0.49836 0.66837 0.30604 0.0
C2508 C 0.50598 0.65351 0.29848 0.0
C2509 C 0.48326 0.69627 0.31915 0.0
C2510 C 0.47377 0.68323 0.31314 0.0
C2511 C 0.48144 0.66972 0.30612 0.0
C2512 C 0.45602 0.68246 0.31556 0.0
C2513 C 0.4757 0.71159 0.32576 0.0
C2514 C 0.4497 0.68271 0.33136 0.0
C2515 C 0.43325 0.67988 0.33403 0.0
C2516 C 0.42282 0.67658 0.32094 0.0
C2517 C 0.42907 0.67682 0.30507 0.0
C2518 C 0.44557 0.67966 0.30241 0.0
H2519 H 0.484 0.72217 0.32437 0.0
H2520 H 0.46406 0.71435 0.31959 0.0
H2521 H 0.47329 0.71001 0.33892 0.0
H2522 H 0.4576 0.68447 0.34172 0.0
H2523 H 0.42875 0.67996 0.34638 0.0
H2524 H 0.31777 0.42591 0.29765 0.0
H2525 H 0.31558 0.45525 0.29277 0.0
H2526 H 0.33088 0.46477 0.34193 0.0
H2527 H 0.33349 0.43557 0.34679 0.0
H2528 H 0.29676 0.47917 0.30954 0.0
H2529 H 0.36284 0.49116 0.31357 0.0
H2530 H 0.35456 0.47098 0.31086 0.0
H2531 H 0.35484 0.48022 0.33065 0.0
C2532 C 0.32075 0.43427 0.30738 0.0
C2533 C 0.32589 0.42845 0.32258 0.0
C2534 C 0.3194 0.45099 0.3046 0.0
C2535 C 0.32329 0.46211 0.31692 0.0
C2536 C 0.32805 0.45635 0.3322 0.0
H2537 H 0.30319 0.56208 0.33448 0.0
H2538 H 0.3021 0.53255 0.33144 0.0
C2539 C 0.32938 0.43967 0.335 0.0
C2540 C 0.3225 0.4798 0.31389 0.0
H2541 H 0.3455 0.51431 0.31479 0.0
C2542 C 0.30742 0.48687 0.3105 0.0
C2543 C 0.33649 0.48972 0.31484 0.0
C2544 C 0.35313 0.48264 0.31752 0.0
C2545 C 0.30585 0.50379 0.30879 0.0
C2546 C 0.31969 0.5138 0.31075 0.0
C2547 C 0.33487 0.50662 0.3134 0.0
C2548 C 0.31869 0.53177 0.3111 0.0
C2549 C 0.2894 0.51078 0.30499 0.0
C2550 C 0.32841 0.54114 0.30069 0.0
C2551 C 0.32913 0.55803 0.30247 0.0
C2552 C 0.32018 0.56582 0.31473 0.0
C2553 C 0.31002 0.55646 0.32476 0.0
C2554 C 0.30935 0.53957 0.32301 0.0
H2555 H 0.28151 0.50169 0.29884 0.0
H2556 H 0.28338 0.51438 0.31649 0.0
H2557 H 0.29043 0.52172 0.29716 0.0
H2558 H 0.33576 0.53533 0.29146 0.0
H2559 H 0.33694 0.56496 0.29447 0.0
loop_
_geom_bond_atom_site_label_1
_geom_bond_atom_site_label_2
_geom_bond_distance
_geom_bond_site_symmetry_2
_ccdc_geom_bond_type
Li0 N17 1.990 . S
Li0 O60 1.956 . S
Li0 O61 1.970 . S
Li0 O62 1.961 . S
Li1 N25 1.990 . S
Li1 O60 1.970 . S
Li1 O61 1.956 . S
Li1 O63 1.961 . S
Li2 N47 1.990 . S
Li2 O60 1.961 . S
Li2 O62 1.956 . S
Li2 O63 1.970 . S
Li3 N53 1.990 . S
Li3 O61 1.961 . S
Li3 O62 1.970 . S
Li3 O63 1.956 . S
C4 C6 1.348 . S
C4 C7 1.356 . S
C4 O60 1.325 . S
N5 C8 1.314 . S
N5 C9 1.279 . S
C6 C4 1.348 . S
C6 C8 1.353 . S
C6 H64 0.929 . S
C7 C4 1.356 . S
C7 C9 1.358 . S
C7 H65 0.930 . S
C8 N5 1.314 . S
C8 C6 1.353 . S
C8 H66 0.930 . S
C9 N5 1.279 . S
C9 C7 1.358 . S
C9 H67 0.930 . S
C10 C13 1.348 . S
C10 C14 1.356 . S
C10 O61 1.325 . S
C11 N12 1.279 . S
C11 C14 1.358 . S
C11 H68 0.930 . S
N12 C11 1.279 . S
N12 C15 1.314 . S
C13 C10 1.348 . S
C13 C15 1.353 . S
C13 H69 0.929 . S
C14 C10 1.356 . S
C14 C11 1.358 . S
C14 H70 0.930 . S
C15 N12 1.314 . S
C15 C13 1.353 . S
C15 H71 0.930 . S
C16 N17 1.314 . S
C16 C21 1.353 . S
C16 H22 0.930 . S
N17 Li0 1.990 . S
N17 C16 1.314 . S
N17 C19 1.279 . S
C18 C19 1.358 . S
C18 C20 1.356 . S
C18 H72 0.930 . S
C19 N17 1.279 . S
C19 C18 1.358 . S
C19 H23 0.930 . S
C20 C18 1.356 . S
C20 C21 1.348 . S
C21 C16 1.353 . S
C21 C20 1.348 . S
C21 H73 0.929 . S
H22 C16 0.930 . S
H23 C19 0.930 . S
C24 N25 1.314 . S
C24 C26 1.353 . S
C24 H30 0.930 . S
N25 Li1 1.990 . S
N25 C24 1.314 . S
N25 C28 1.279 . S
C26 C24 1.353 . S
C26 C29 1.348 . S
C26 H74 0.929 . S
C27 C28 1.358 . S
C27 C29 1.356 . S
C27 H75 0.930 . S
C28 N25 1.279 . S
C28 C27 1.358 . S
C28 H31 0.930 . S
C29 C26 1.348 . S
C29 C27 1.356 . S
H30 C24 0.930 . S
H31 C28 0.930 . S
C32 C34 1.348 . S
C32 C35 1.356 . S
C32 O62 1.325 . S
N33 C36 1.314 . S
N33 C37 1.279 . S
C34 C32 1.348 . S
C34 C36 1.353 . S
C34 H76 0.929 . S
C35 C32 1.356 . S
C35 C37 1.358 . S
C35 H77 0.930 . S
C36 N33 1.314 . S
C36 C34 1.353 . S
C36 H78 0.930 . S
C37 N33 1.279 . S
C37 C35 1.358 . S
C37 H79 0.930 . S
C38 C39 1.348 . S
C38 C40 1.356 . S
C38 O63 1.325 . S
C39 C38 1.348 . S
C39 C41 1.353 . S
C39 H80 0.929 . S
C40 C38 1.356 . S
C40 C42 1.358 . S
C40 H81 0.930 . S
C41 C39 1.353 . S
C41 N43 1.314 . S
C41 H82 0.930 . S
C42 C40 1.358 . S
C42 N43 1.279 . S
C42 H83 0.930 . S
N43 C41 1.314 . S
N43 C42 1.279 . S
C44 C46 1.353 . S
C44 N47 1.314 . S
C44 H50 0.930 . S
C45 N47 1.279 . S
C45 C48 1.358 . S
C45 H51 0.930 . S
C46 C44 1.353 . S
C46 C49 1.348 . S
C46 H84 0.929 . S
N47 Li2 1.990 . S
N47 C44 1.314 . S
N47 C45 1.279 . S
C48 C45 1.358 . S
C48 C49 1.356 . S
C48 H85 0.930 . S
C49 C46 1.348 . S
C49 C48 1.356 . S
H50 C44 0.930 . S
H51 C45 0.930 . S
C52 N53 1.314 . S
C52 C54 1.353 . S
C52 H58 0.930 . S
N53 Li3 1.990 . S
N53 C52 1.314 . S
N53 C56 1.279 . S
C54 C52 1.353 . S
C54 C57 1.348 . S
C54 H86 0.929 . S
C55 C56 1.358 . S
C55 C57 1.356 . S
C55 H87 0.930 . S
C56 N53 1.279 . S
C56 C55 1.358 . S
C56 H59 0.930 . S
C57 C54 1.348 . S
C57 C55 1.356 . S
H58 C52 0.930 . S
H59 C56 0.930 . S
O60 Li0 1.956 . S
O60 Li1 1.970 . S
O60 Li2 1.961 . S
O60 C4 1.325 . S
O61 Li0 1.970 . S
O61 Li1 1.956 . S
O61 Li3 1.961 . S
O61 C10 1.325 . S
O62 Li0 1.961 . S
O62 Li2 1.956 . S
O62 Li3 1.970 . S
O62 C32 1.325 . S
O63 Li1 1.961 . S
O63 Li2 1.970 . S
O63 Li3 1.956 . S
O63 C38 1.325 . S
H64 C6 0.929 . S
H65 C7 0.930 . S
H66 C8 0.930 . S
H67 C9 0.930 . S
H68 C11 0.930 . S
H69 C13 0.929 . S
H70 C14 0.930 . S
H71 C15 0.930 . S
H72 C18 0.930 . S
H73 C21 0.929 . S
H74 C26 0.929 . S
H75 C27 0.930 . S
H76 C34 0.929 . S
H77 C35 0.930 . S
H78 C36 0.930 . S
H79 C37 0.930 . S
H80 C39 0.929 . S
H81 C40 0.930 . S
H82 C41 0.930 . S
H83 C42 0.930 . S
H84 C46 0.929 . S
H85 C48 0.930 . S
H86 C54 0.929 . S
H87 C55 0.930 . S
Li88 N105 1.990 . S
Li88 O148 1.956 . S
Li88 O149 1.970 . S
Li88 O150 1.961 . S
Li89 N113 1.990 . S
Li89 O148 1.970 . S
Li89 O149 1.956 . S
Li89 O151 1.961 . S
Li90 N135 1.990 . S
Li90 O148 1.961 . S
Li90 O150 1.956 . S
Li90 O151 1.970 . S
Li91 N141 1.990 . S
Li91 O149 1.961 . S
Li91 O150 1.970 . S
Li91 O151 1.956 . S
C92 C94 1.348 . S
C92 C95 1.356 . S
C92 O148 1.325 . S
N93 C96 1.314 . S
N93 C97 1.279 . S
C94 C92 1.348 . S
C94 C96 1.353 . S
C94 H152 0.929 . S
C95 C92 1.356 . S
C95 C97 1.358 . S
C95 H153 0.930 . S
C96 N93 1.314 . S
C96 C94 1.353 . S
C96 H154 0.930 . S
C97 N93 1.279 . S
C97 C95 1.358 . S
C97 H155 0.930 . S
C98 C101 1.348 . S
C98 C102 1.356 . S
C98 O149 1.325 . S
C99 N100 1.279 . S
C99 C102 1.358 . S
C99 H156 0.930 . S
N100 C99 1.279 . S
N100 C103 1.314 . S
C101 C98 1.348 . S
C101 C103 1.353 . S
C101 H157 0.929 . S
C102 C98 1.356 . S
C102 C99 1.358 . S
C102 H158 0.930 . S
C103 N100 1.314 . S
C103 C101 1.353 . S
C103 H159 0.930 . S
C104 N105 1.314 . S
C104 C109 1.353 . S
C104 H110 0.930 . S
N105 Li88 1.990 . S
N105 C104 1.314 . S
N105 C107 1.279 . S
C106 C107 1.358 . S
C106 C108 1.356 . S
C106 H160 0.930 . S
C107 N105 1.279 . S
C107 C106 1.358 . S
C107 H111 0.930 . S
C108 C106 1.356 . S
C108 C109 1.348 . S
C109 C104 1.353 . S
C109 C108 1.348 . S
C109 H161 0.929 . S
H110 C104 0.930 . S
H111 C107 0.930 . S
C112 N113 1.314 . S
C112 C114 1.353 . S
C112 H118 0.930 . S
N113 Li89 1.990 . S
N113 C112 1.314 . S
N113 C116 1.279 . S
C114 C112 1.353 . S
C114 C117 1.348 . S
C114 H162 0.929 . S
C115 C116 1.358 . S
C115 C117 1.356 . S
C115 H163 0.930 . S
C116 N113 1.279 . S
C116 C115 1.358 . S
C116 H119 0.930 . S
C117 C114 1.348 . S
C117 C115 1.356 . S
H118 C112 0.930 . S
H119 C116 0.930 . S
C120 C122 1.348 . S
C120 C123 1.356 . S
C120 O150 1.325 . S
N121 C124 1.314 . S
N121 C125 1.279 . S
C122 C120 1.348 . S
C122 C124 1.353 . S
C122 H164 0.929 . S
C123 C120 1.356 . S
C123 C125 1.358 . S
C123 H165 0.930 . S
C124 N121 1.314 . S
C124 C122 1.353 . S
C124 H166 0.930 . S
C125 N121 1.279 . S
C125 C123 1.358 . S
C125 H167 0.930 . S
C126 C127 1.348 . S
C126 C128 1.356 . S
C126 O151 1.325 . S
C127 C126 1.348 . S
C127 C129 1.353 . S
C127 H168 0.929 . S
C128 C126 1.356 . S
C128 C130 1.358 . S
C128 H169 0.930 . S
C129 C127 1.353 . S
C129 N131 1.314 . S
C129 H170 0.930 . S
C130 C128 1.358 . S
C130 N131 1.279 . S
C130 H171 0.930 . S
N131 C129 1.314 . S
N131 C130 1.279 . S
C132 C134 1.353 . S
C132 N135 1.314 . S
C132 H138 0.930 . S
C133 N135 1.279 . S
C133 C136 1.358 . S
C133 H139 0.930 . S
C134 C132 1.353 . S
C134 C137 1.348 . S
C134 H172 0.929 . S
N135 Li90 1.990 . S
N135 C132 1.314 . S
N135 C133 1.279 . S
C136 C133 1.358 . S
C136 C137 1.356 . S
C136 H173 0.930 . S
C137 C134 1.348 . S
C137 C136 1.356 . S
H138 C132 0.930 . S
H139 C133 0.930 . S
C140 N141 1.314 . S
C140 C142 1.353 . S
C140 H146 0.930 . S
N141 Li91 1.990 . S
N141 C140 1.314 . S
N141 C144 1.279 . S
C142 C140 1.353 . S
C142 C145 1.348 . S
C142 H174 0.929 . S
C143 C144 1.358 . S
C143 C145 1.356 . S
C143 H175 0.930 . S
C144 N141 1.279 . S
C144 C143 1.358 . S
C144 H147 0.930 . S
C145 C142 1.348 . S
C145 C143 1.356 . S
H146 C140 0.930 . S
H147 C144 0.930 . S
O148 Li88 1.956 . S
O148 Li89 1.970 . S
O148 Li90 1.961 . S
O148 C92 1.325 . S
O149 Li88 1.970 . S
O149 Li89 1.956 . S
O149 Li91 1.961 . S
O149 C98 1.325 . S
O150 Li88 1.961 . S
O150 Li90 1.956 . S
O150 Li91 1.970 . S
O150 C120 1.325 . S
O151 Li89 1.961 . S
O151 Li90 1.970 . S
O151 Li91 1.956 . S
O151 C126 1.325 . S
H152 C94 0.929 . S
H153 C95 0.930 . S
H154 C96 0.930 . S
H155 C97 0.930 . S
H156 C99 0.930 . S
H157 C101 0.929 . S
H158 C102 0.930 . S
H159 C103 0.930 . S
H160 C106 0.930 . S
H161 C109 0.929 . S
H162 C114 0.929 . S
H163 C115 0.930 . S
H164 C122 0.929 . S
H165 C123 0.930 . S
H166 C124 0.930 . S
H167 C125 0.930 . S
H168 C127 0.929 . S
H169 C128 0.930 . S
H170 C129 0.930 . S
H171 C130 0.930 . S
H172 C134 0.929 . S
H173 C136 0.930 . S
H174 C142 0.929 . S
H175 C143 0.930 . S
Li176 N193 1.990 . S
Li176 O236 1.956 . S
Li176 O237 1.970 . S
Li176 O238 1.961 . S
Li177 N201 1.990 . S
Li177 O236 1.970 . S
Li177 O237 1.956 . S
Li177 O239 1.961 . S
Li178 N223 1.990 . S
Li178 O236 1.961 . S
Li178 O238 1.956 . S
Li178 O239 1.970 . S
Li179 N229 1.990 . S
Li179 O237 1.961 . S
Li179 O238 1.970 . S
Li179 O239 1.956 . S
C180 C182 1.348 . S
C180 C183 1.356 . S
C180 O236 1.325 . S
N181 C184 1.314 . S
N181 C185 1.279 . S
C182 C180 1.348 . S
C182 C184 1.353 . S
C182 H240 0.929 . S
C183 C180 1.356 . S
C183 C185 1.358 . S
C183 H241 0.930 . S
C184 N181 1.314 . S
C184 C182 1.353 . S
C184 H242 0.930 . S
C185 N181 1.279 . S
C185 C183 1.358 . S
C185 H243 0.930 . S
C186 C189 1.348 . S
C186 C190 1.356 . S
C186 O237 1.325 . S
C187 N188 1.279 . S
C187 C190 1.358 . S
C187 H244 0.930 . S
N188 C187 1.279 . S
N188 C191 1.314 . S
C189 C186 1.348 . S
C189 C191 1.353 . S
C189 H245 0.929 . S
C190 C186 1.356 . S
C190 C187 1.358 . S
C190 H246 0.930 . S
C191 N188 1.314 . S
C191 C189 1.353 . S
C191 H247 0.930 . S
C192 N193 1.314 . S
C192 C197 1.353 . S
C192 H198 0.930 . S
N193 Li176 1.990 . S
N193 C192 1.314 . S
N193 C195 1.279 . S
C194 C195 1.358 . S
C194 C196 1.356 . S
C194 H248 0.930 . S
C195 N193 1.279 . S
C195 C194 1.358 . S
C195 H199 0.930 . S
C196 C194 1.356 . S
C196 C197 1.348 . S
C197 C192 1.353 . S
C197 C196 1.348 . S
C197 H249 0.929 . S
H198 C192 0.930 . S
H199 C195 0.930 . S
C200 N201 1.314 . S
C200 C202 1.353 . S
C200 H206 0.930 . S
N201 Li177 1.990 . S
N201 C200 1.314 . S
N201 C204 1.279 . S
C202 C200 1.353 . S
C202 C205 1.348 . S
C202 H250 0.929 . S
C203 C204 1.358 . S
C203 C205 1.356 . S
C203 H251 0.930 . S
C204 N201 1.279 . S
C204 C203 1.358 . S
C204 H207 0.930 . S
C205 C202 1.348 . S
C205 C203 1.356 . S
H206 C200 0.930 . S
H207 C204 0.930 . S
C208 C210 1.348 . S
C208 C211 1.356 . S
C208 O238 1.325 . S
N209 C212 1.314 . S
N209 C213 1.279 . S
C210 C208 1.348 . S
C210 C212 1.353 . S
C210 H252 0.929 . S
C211 C208 1.356 . S
C211 C213 1.358 . S
C211 H253 0.930 . S
C212 N209 1.314 . S
C212 C210 1.353 . S
C212 H254 0.930 . S
C213 N209 1.279 . S
C213 C211 1.358 . S
C213 H255 0.930 . S
C214 C215 1.348 . S
C214 C216 1.356 . S
C214 O239 1.325 . S
C215 C214 1.348 . S
C215 C217 1.353 . S
C215 H256 0.929 . S
C216 C214 1.356 . S
C216 C218 1.358 . S
C216 H257 0.930 . S
C217 C215 1.353 . S
C217 N219 1.314 . S
C217 H258 0.930 . S
C218 C216 1.358 . S
C218 N219 1.279 . S
C218 H259 0.930 . S
N219 C217 1.314 . S
N219 C218 1.279 . S
C220 C222 1.353 . S
C220 N223 1.314 . S
C220 H226 0.930 . S
C221 N223 1.279 . S
C221 C224 1.358 . S
C221 H227 0.930 . S
C222 C220 1.353 . S
C222 C225 1.348 . S
C222 H260 0.929 . S
N223 Li178 1.990 . S
N223 C220 1.314 . S
N223 C221 1.279 . S
C224 C221 1.358 . S
C224 C225 1.356 . S
C224 H261 0.930 . S
C225 C222 1.348 . S
C225 C224 1.356 . S
H226 C220 0.930 . S
H227 C221 0.930 . S
C228 N229 1.314 . S
C228 C230 1.353 . S
C228 H234 0.930 . S
N229 Li179 1.990 . S
N229 C228 1.314 . S
N229 C232 1.279 . S
C230 C228 1.353 . S
C230 C233 1.348 . S
C230 H262 0.929 . S
C231 C232 1.358 . S
C231 C233 1.356 . S
C231 H263 0.930 . S
C232 N229 1.279 . S
C232 C231 1.358 . S
C232 H235 0.930 . S
C233 C230 1.348 . S
C233 C231 1.356 . S
H234 C228 0.930 . S
H235 C232 0.930 . S
O236 Li176 1.956 . S
O236 Li177 1.970 . S
O236 Li178 1.961 . S
O236 C180 1.325 . S
O237 Li176 1.970 . S
O237 Li177 1.956 . S
O237 Li179 1.961 . S
O237 C186 1.325 . S
O238 Li176 1.961 . S
O238 Li178 1.956 . S
O238 Li179 1.970 . S
O238 C208 1.325 . S
O239 Li177 1.961 . S
O239 Li178 1.970 . S
O239 Li179 1.956 . S
O239 C214 1.325 . S
H240 C182 0.929 . S
H241 C183 0.930 . S
H242 C184 0.930 . S
H243 C185 0.930 . S
H244 C187 0.930 . S
H245 C189 0.929 . S
H246 C190 0.930 . S
H247 C191 0.930 . S
H248 C194 0.930 . S
H249 C197 0.929 . S
H250 C202 0.929 . S
H251 C203 0.930 . S
H252 C210 0.929 . S
H253 C211 0.930 . S
H254 C212 0.930 . S
H255 C213 0.930 . S
H256 C215 0.929 . S
H257 C216 0.930 . S
H258 C217 0.930 . S
H259 C218 0.930 . S
H260 C222 0.929 . S
H261 C224 0.930 . S
H262 C230 0.929 . S
H263 C231 0.930 . S
Li264 N281 1.990 . S
Li264 O324 1.956 . S
Li264 O325 1.970 . S
Li264 O326 1.961 . S
Li265 N289 1.990 . S
Li265 O324 1.970 . S
Li265 O325 1.956 . S
Li265 O327 1.961 . S
Li266 N311 1.990 . S
Li266 O324 1.961 . S
Li266 O326 1.956 . S
Li266 O327 1.970 . S
Li267 N317 1.990 . S
Li267 O325 1.961 . S
Li267 O326 1.970 . S
Li267 O327 1.956 . S
C268 C270 1.348 . S
C268 C271 1.356 . S
C268 O324 1.325 . S
N269 C272 1.314 . S
N269 C273 1.279 . S
C270 C268 1.348 . S
C270 C272 1.353 . S
C270 H328 0.929 . S
C271 C268 1.356 . S
C271 C273 1.358 . S
C271 H329 0.930 . S
C272 N269 1.314 . S
C272 C270 1.353 . S
C272 H330 0.930 . S
C273 N269 1.279 . S
C273 C271 1.358 . S
C273 H331 0.930 . S
C274 C277 1.348 . S
C274 C278 1.356 . S
C274 O325 1.325 . S
C275 N276 1.279 . S
C275 C278 1.358 . S
C275 H332 0.930 . S
N276 C275 1.279 . S
N276 C279 1.314 . S
C277 C274 1.348 . S
C277 C279 1.353 . S
C277 H333 0.929 . S
C278 C274 1.356 . S
C278 C275 1.358 . S
C278 H334 0.930 . S
C279 N276 1.314 . S
C279 C277 1.353 . S
C279 H335 0.930 . S
C280 N281 1.314 . S
C280 C285 1.353 . S
C280 H286 0.930 . S
N281 Li264 1.990 . S
N281 C280 1.314 . S
N281 C283 1.279 . S
C282 C283 1.358 . S
C282 C284 1.356 . S
C282 H336 0.930 . S
C283 N281 1.279 . S
C283 C282 1.358 . S
C283 H287 0.930 . S
C284 C282 1.356 . S
C284 C285 1.348 . S
C285 C280 1.353 . S
C285 C284 1.348 . S
C285 H337 0.929 . S
H286 C280 0.930 . S
H287 C283 0.930 . S
C288 N289 1.314 . S
C288 C290 1.353 . S
C288 H294 0.930 . S
N289 Li265 1.990 . S
N289 C288 1.314 . S
N289 C292 1.279 . S
C290 C288 1.353 . S
C290 C293 1.348 . S
C290 H338 0.929 . S
C291 C292 1.358 . S
C291 C293 1.356 . S
C291 H339 0.930 . S
C292 N289 1.279 . S
C292 C291 1.358 . S
C292 H295 0.930 . S
C293 C290 1.348 . S
C293 C291 1.356 . S
H294 C288 0.930 . S
H295 C292 0.930 . S
C296 C298 1.348 . S
C296 C299 1.356 . S
C296 O326 1.325 . S
N297 C300 1.314 . S
N297 C301 1.279 . S
C298 C296 1.348 . S
C298 C300 1.353 . S
C298 H340 0.929 . S
C299 C296 1.356 . S
C299 C301 1.358 . S
C299 H341 0.930 . S
C300 N297 1.314 . S
C300 C298 1.353 . S
C300 H342 0.930 . S
C301 N297 1.279 . S
C301 C299 1.358 . S
C301 H343 0.930 . S
C302 C303 1.348 . S
C302 C304 1.356 . S
C302 O327 1.325 . S
C303 C302 1.348 . S
C303 C305 1.353 . S
C303 H344 0.929 . S
C304 C302 1.356 . S
C304 C306 1.358 . S
C304 H345 0.930 . S
C305 C303 1.353 . S
C305 N307 1.314 . S
C305 H346 0.930 . S
C306 C304 1.358 . S
C306 N307 1.279 . S
C306 H347 0.930 . S
N307 C305 1.314 . S
N307 C306 1.279 . S
C308 C310 1.353 . S
C308 N311 1.314 . S
C308 H314 0.930 . S
C309 N311 1.279 . S
C309 C312 1.358 . S
C309 H315 0.930 . S
C310 C308 1.353 . S
C310 C313 1.348 . S
C310 H348 0.929 . S
N311 Li266 1.990 . S
N311 C308 1.314 . S
N311 C309 1.279 . S
C312 C309 1.358 . S
C312 C313 1.356 . S
C312 H349 0.930 . S
C313 C310 1.348 . S
C313 C312 1.356 . S
H314 C308 0.930 . S
H315 C309 0.930 . S
C316 N317 1.314 . S
C316 C318 1.353 . S
C316 H322 0.930 . S
N317 Li267 1.990 . S
N317 C316 1.314 . S
N317 C320 1.279 . S
C318 C316 1.353 . S
C318 C321 1.348 . S
C318 H350 0.929 . S
C319 C320 1.358 . S
C319 C321 1.356 . S
C319 H351 0.930 . S
C320 N317 1.279 . S
C320 C319 1.358 . S
C320 H323 0.930 . S
C321 C318 1.348 . S
C321 C319 1.356 . S
H322 C316 0.930 . S
H323 C320 0.930 . S
O324 Li264 1.956 . S
O324 Li265 1.970 . S
O324 Li266 1.961 . S
O324 C268 1.325 . S
O325 Li264 1.970 . S
O325 Li265 1.956 . S
O325 Li267 1.961 . S
O325 C274 1.325 . S
O326 Li264 1.961 . S
O326 Li266 1.956 . S
O326 Li267 1.970 . S
O326 C296 1.325 . S
O327 Li265 1.961 . S
O327 Li266 1.970 . S
O327 Li267 1.956 . S
O327 C302 1.325 . S
H328 C270 0.929 . S
H329 C271 0.930 . S
H330 C272 0.930 . S
H331 C273 0.930 . S
H332 C275 0.930 . S
H333 C277 0.929 . S
H334 C278 0.930 . S
H335 C279 0.930 . S
H336 C282 0.930 . S
H337 C285 0.929 . S
H338 C290 0.929 . S
H339 C291 0.930 . S
H340 C298 0.929 . S
H341 C299 0.930 . S
H342 C300 0.930 . S
H343 C301 0.930 . S
H344 C303 0.929 . S
H345 C304 0.930 . S
H346 C305 0.930 . S
H347 C306 0.930 . S
H348 C310 0.929 . S
H349 C312 0.930 . S
H350 C318 0.929 . S
H351 C319 0.930 . S
Li352 N369 1.990 . S
Li352 O412 1.956 . S
Li352 O413 1.970 . S
Li352 O414 1.961 . S
Li353 N377 1.990 . S
Li353 O412 1.970 . S
Li353 O413 1.956 . S
Li353 O415 1.961 . S
Li354 N399 1.990 . S
Li354 O412 1.961 . S
Li354 O414 1.956 . S
Li354 O415 1.970 . S
Li355 N405 1.990 . S
Li355 O413 1.961 . S
Li355 O414 1.970 . S
Li355 O415 1.956 . S
C356 C358 1.348 . S
C356 C359 1.356 . S
C356 O412 1.325 . S
N357 C360 1.314 . S
N357 C361 1.279 . S
C358 C356 1.348 . S
C358 C360 1.353 . S
C358 H416 0.929 . S
C359 C356 1.356 . S
C359 C361 1.358 . S
C359 H417 0.930 . S
C360 N357 1.314 . S
C360 C358 1.353 . S
C360 H418 0.930 . S
C361 N357 1.279 . S
C361 C359 1.358 . S
C361 H419 0.930 . S
C362 C365 1.348 . S
C362 C366 1.356 . S
C362 O413 1.325 . S
C363 N364 1.279 . S
C363 C366 1.358 . S
C363 H420 0.930 . S
N364 C363 1.279 . S
N364 C367 1.314 . S
C365 C362 1.348 . S
C365 C367 1.353 . S
C365 H421 0.929 . S
C366 C362 1.356 . S
C366 C363 1.358 . S
C366 H422 0.930 . S
C367 N364 1.314 . S
C367 C365 1.353 . S
C367 H423 0.930 . S
C368 N369 1.314 . S
C368 C373 1.353 . S
C368 H374 0.930 . S
N369 Li352 1.990 . S
N369 C368 1.314 . S
N369 C371 1.279 . S
C370 C371 1.358 . S
C370 C372 1.356 . S
C370 H424 0.930 . S
C371 N369 1.279 . S
C371 C370 1.358 . S
C371 H375 0.930 . S
C372 C370 1.356 . S
C372 C373 1.348 . S
C373 C368 1.353 . S
C373 C372 1.348 . S
C373 H425 0.929 . S
H374 C368 0.930 . S
H375 C371 0.930 . S
C376 N377 1.314 . S
C376 C378 1.353 . S
C376 H382 0.930 . S
N377 Li353 1.990 . S
N377 C376 1.314 . S
N377 C380 1.279 . S
C378 C376 1.353 . S
C378 C381 1.348 . S
C378 H426 0.929 . S
C379 C380 1.358 . S
C379 C381 1.356 . S
C379 H427 0.930 . S
C380 N377 1.279 . S
C380 C379 1.358 . S
C380 H383 0.930 . S
C381 C378 1.348 . S
C381 C379 1.356 . S
H382 C376 0.930 . S
H383 C380 0.930 . S
C384 C386 1.348 . S
C384 C387 1.356 . S
C384 O414 1.325 . S
N385 C388 1.314 . S
N385 C389 1.279 . S
C386 C384 1.348 . S
C386 C388 1.353 . S
C386 H428 0.929 . S
C387 C384 1.356 . S
C387 C389 1.358 . S
C387 H429 0.930 . S
C388 N385 1.314 . S
C388 C386 1.353 . S
C388 H430 0.930 . S
C389 N385 1.279 . S
C389 C387 1.358 . S
C389 H431 0.930 . S
C390 C391 1.348 . S
C390 C392 1.356 . S
C390 O415 1.325 . S
C391 C390 1.348 . S
C391 C393 1.353 . S
C391 H432 0.929 . S
C392 C390 1.356 . S
C392 C394 1.358 . S
C392 H433 0.930 . S
C393 C391 1.353 . S
C393 N395 1.314 . S
C393 H434 0.930 . S
C394 C392 1.358 . S
C394 N395 1.279 . S
C394 H435 0.930 . S
N395 C393 1.314 . S
N395 C394 1.279 . S
C396 C398 1.353 . S
C396 N399 1.314 . S
C396 H402 0.930 . S
C397 N399 1.279 . S
C397 C400 1.358 . S
C397 H403 0.930 . S
C398 C396 1.353 . S
C398 C401 1.348 . S
C398 H436 0.929 . S
N399 Li354 1.990 . S
N399 C396 1.314 . S
N399 C397 1.279 . S
C400 C397 1.358 . S
C400 C401 1.356 . S
C400 H437 0.930 . S
C401 C398 1.348 . S
C401 C400 1.356 . S
H402 C396 0.930 . S
H403 C397 0.930 . S
C404 N405 1.314 . S
C404 C406 1.353 . S
C404 H410 0.930 . S
N405 Li355 1.990 . S
N405 C404 1.314 . S
N405 C408 1.279 . S
C406 C404 1.353 . S
C406 C409 1.348 . S
C406 H438 0.929 . S
C407 C408 1.358 . S
C407 C409 1.356 . S
C407 H439 0.930 . S
C408 N405 1.279 . S
C408 C407 1.358 . S
C408 H411 0.930 . S
C409 C406 1.348 . S
C409 C407 1.356 . S
H410 C404 0.930 . S
H411 C408 0.930 . S
O412 Li352 1.956 . S
O412 Li353 1.970 . S
O412 Li354 1.961 . S
O412 C356 1.325 . S
O413 Li352 1.970 . S
O413 Li353 1.956 . S
O413 Li355 1.961 . S
O413 C362 1.325 . S
O414 Li352 1.961 . S
O414 Li354 1.956 . S
O414 Li355 1.970 . S
O414 C384 1.325 . S
O415 Li353 1.961 . S
O415 Li354 1.970 . S
O415 Li355 1.956 . S
O415 C390 1.325 . S
H416 C358 0.929 . S
H417 C359 0.930 . S
H418 C360 0.930 . S
H419 C361 0.930 . S
H420 C363 0.930 . S
H421 C365 0.929 . S
H422 C366 0.930 . S
H423 C367 0.930 . S
H424 C370 0.930 . S
H425 C373 0.929 . S
H426 C378 0.929 . S
H427 C379 0.930 . S
H428 C386 0.929 . S
H429 C387 0.930 . S
H430 C388 0.930 . S
H431 C389 0.930 . S
H432 C391 0.929 . S
H433 C392 0.930 . S
H434 C393 0.930 . S
H435 C394 0.930 . S
H436 C398 0.929 . S
H437 C400 0.930 . S
H438 C406 0.929 . S
H439 C407 0.930 . S
Li440 N457 1.990 . S
Li440 O500 1.956 . S
Li440 O501 1.970 . S
Li440 O502 1.961 . S
Li441 N465 1.990 . S
Li441 O500 1.970 . S
Li441 O501 1.956 . S
Li441 O503 1.961 . S
Li442 N487 1.990 . S
Li442 O500 1.961 . S
Li442 O502 1.956 . S
Li442 O503 1.970 . S
Li443 N493 1.990 . S
Li443 O501 1.961 . S
Li443 O502 1.970 . S
Li443 O503 1.956 . S
C444 C446 1.348 . S
C444 C447 1.356 . S
C444 O500 1.325 . S
N445 C448 1.314 . S
N445 C449 1.279 . S
C446 C444 1.348 . S
C446 C448 1.353 . S
C446 H504 0.929 . S
C447 C444 1.356 . S
C447 C449 1.358 . S
C447 H505 0.930 . S
C448 N445 1.314 . S
C448 C446 1.353 . S
C448 H506 0.930 . S
C449 N445 1.279 . S
C449 C447 1.358 . S
C449 H507 0.930 . S
C450 C453 1.348 . S
C450 C454 1.356 . S
C450 O501 1.325 . S
C451 N452 1.279 . S
C451 C454 1.358 . S
C451 H508 0.930 . S
N452 C451 1.279 . S
N452 C455 1.314 . S
C453 C450 1.348 . S
C453 C455 1.353 . S
C453 H509 0.929 . S
C454 C450 1.356 . S
C454 C451 1.358 . S
C454 H510 0.930 . S
C455 N452 1.314 . S
C455 C453 1.353 . S
C455 H511 0.930 . S
C456 N457 1.314 . S
C456 C461 1.353 . S
C456 H462 0.930 . S
N457 Li440 1.990 . S
N457 C456 1.314 . S
N457 C459 1.279 . S
C458 C459 1.358 . S
C458 C460 1.356 . S
C458 H512 0.930 . S
C459 N457 1.279 . S
C459 C458 1.358 . S
C459 H463 0.930 . S
C460 C458 1.356 . S
C460 C461 1.348 . S
C461 C456 1.353 . S
C461 C460 1.348 . S
C461 H513 0.929 . S
H462 C456 0.930 . S
H463 C459 0.930 . S
C464 N465 1.314 . S
C464 C466 1.353 . S
C464 H470 0.930 . S
N465 Li441 1.990 . S
N465 C464 1.314 . S
N465 C468 1.279 . S
C466 C464 1.353 . S
C466 C469 1.348 . S
C466 H514 0.929 . S
C467 C468 1.358 . S
C467 C469 1.356 . S
C467 H515 0.930 . S
C468 N465 1.279 . S
C468 C467 1.358 . S
C468 H471 0.930 . S
C469 C466 1.348 . S
C469 C467 1.356 . S
H470 C464 0.930 . S
H471 C468 0.930 . S
C472 C474 1.348 . S
C472 C475 1.356 . S
C472 O502 1.325 . S
N473 C476 1.314 . S
N473 C477 1.279 . S
C474 C472 1.348 . S
C474 C476 1.353 . S
C474 H516 0.929 . S
C475 C472 1.356 . S
C475 C477 1.358 . S
C475 H517 0.930 . S
C476 N473 1.314 . S
C476 C474 1.353 . S
C476 H518 0.930 . S
C477 N473 1.279 . S
C477 C475 1.358 . S
C477 H519 0.930 . S
C478 C479 1.348 . S
C478 C480 1.356 . S
C478 O503 1.325 . S
C479 C478 1.348 . S
C479 C481 1.353 . S
C479 H520 0.929 . S
C480 C478 1.356 . S
C480 C482 1.358 . S
C480 H521 0.930 . S
C481 C479 1.353 . S
C481 N483 1.314 . S
C481 H522 0.930 . S
C482 C480 1.358 . S
C482 N483 1.279 . S
C482 H523 0.930 . S
N483 C481 1.314 . S
N483 C482 1.279 . S
C484 C486 1.353 . S
C484 N487 1.314 . S
C484 H490 0.930 . S
C485 N487 1.279 . S
C485 C488 1.358 . S
C485 H491 0.930 . S
C486 C484 1.353 . S
C486 C489 1.348 . S
C486 H524 0.929 . S
N487 Li442 1.990 . S
N487 C484 1.314 . S
N487 C485 1.279 . S
C488 C485 1.358 . S
C488 C489 1.356 . S
C488 H525 0.930 . S
C489 C486 1.348 . S
C489 C488 1.356 . S
H490 C484 0.930 . S
H491 C485 0.930 . S
C492 N493 1.314 . S
C492 C494 1.353 . S
C492 H498 0.930 . S
N493 Li443 1.990 . S
N493 C492 1.314 . S
N493 C496 1.279 . S
C494 C492 1.353 . S
C494 C497 1.348 . S
C494 H526 0.929 . S
C495 C496 1.358 . S
C495 C497 1.356 . S
C495 H527 0.930 . S
C496 N493 1.279 . S
C496 C495 1.358 . S
C496 H499 0.930 . S
C497 C494 1.348 . S
C497 C495 1.356 . S
H498 C492 0.930 . S
H499 C496 0.930 . S
O500 Li440 1.956 . S
O500 Li441 1.970 . S
O500 Li442 1.961 . S
O500 C444 1.325 . S
O501 Li440 1.970 . S
O501 Li441 1.956 . S
O501 Li443 1.961 . S
O501 C450 1.325 . S
O502 Li440 1.961 . S
O502 Li442 1.956 . S
O502 Li443 1.970 . S
O502 C472 1.325 . S
O503 Li441 1.961 . S
O503 Li442 1.970 . S
O503 Li443 1.956 . S
O503 C478 1.325 . S
H504 C446 0.929 . S
H505 C447 0.930 . S
H506 C448 0.930 . S
H507 C449 0.930 . S
H508 C451 0.930 . S
H509 C453 0.929 . S
H510 C454 0.930 . S
H511 C455 0.930 . S
H512 C458 0.930 . S
H513 C461 0.929 . S
H514 C466 0.929 . S
H515 C467 0.930 . S
H516 C474 0.929 . S
H517 C475 0.930 . S
H518 C476 0.930 . S
H519 C477 0.930 . S
H520 C479 0.929 . S
H521 C480 0.930 . S
H522 C481 0.930 . S
H523 C482 0.930 . S
H524 C486 0.929 . S
H525 C488 0.930 . S
H526 C494 0.929 . S
H527 C495 0.930 . S
Li528 N545 1.990 . S
Li528 O588 1.956 . S
Li528 O589 1.970 . S
Li528 O590 1.961 . S
Li529 N553 1.990 . S
Li529 O588 1.970 . S
Li529 O589 1.956 . S
Li529 O591 1.961 . S
Li530 N575 1.990 . S
Li530 O588 1.961 . S
Li530 O590 1.956 . S
Li530 O591 1.970 . S
Li531 N581 1.990 . S
Li531 O589 1.961 . S
Li531 O590 1.970 . S
Li531 O591 1.956 . S
C532 C534 1.348 . S
C532 C535 1.356 . S
C532 O588 1.325 . S
N533 C536 1.314 . S
N533 C537 1.279 . S
C534 C532 1.348 . S
C534 C536 1.353 . S
C534 H592 0.929 . S
C535 C532 1.356 . S
C535 C537 1.358 . S
C535 H593 0.930 . S
C536 N533 1.314 . S
C536 C534 1.353 . S
C536 H594 0.930 . S
C537 N533 1.279 . S
C537 C535 1.358 . S
C537 H595 0.930 . S
C538 C541 1.348 . S
C538 C542 1.356 . S
C538 O589 1.325 . S
C539 N540 1.279 . S
C539 C542 1.358 . S
C539 H596 0.930 . S
N540 C539 1.279 . S
N540 C543 1.314 . S
C541 C538 1.348 . S
C541 C543 1.353 . S
C541 H597 0.929 . S
C542 C538 1.356 . S
C542 C539 1.358 . S
C542 H598 0.930 . S
C543 N540 1.314 . S
C543 C541 1.353 . S
C543 H599 0.930 . S
C544 N545 1.314 . S
C544 C549 1.353 . S
C544 H550 0.930 . S
N545 Li528 1.990 . S
N545 C544 1.314 . S
N545 C547 1.279 . S
C546 C547 1.358 . S
C546 C548 1.356 . S
C546 H600 0.930 . S
C547 N545 1.279 . S
C547 C546 1.358 . S
C547 H551 0.930 . S
C548 C546 1.356 . S
C548 C549 1.348 . S
C549 C544 1.353 . S
C549 C548 1.348 . S
C549 H601 0.929 . S
H550 C544 0.930 . S
H551 C547 0.930 . S
C552 N553 1.314 . S
C552 C554 1.353 . S
C552 H558 0.930 . S
N553 Li529 1.990 . S
N553 C552 1.314 . S
N553 C556 1.279 . S
C554 C552 1.353 . S
C554 C557 1.348 . S
C554 H602 0.929 . S
C555 C556 1.358 . S
C555 C557 1.356 . S
C555 H603 0.930 . S
C556 N553 1.279 . S
C556 C555 1.358 . S
C556 H559 0.930 . S
C557 C554 1.348 . S
C557 C555 1.356 . S
H558 C552 0.930 . S
H559 C556 0.930 . S
C560 C562 1.348 . S
C560 C563 1.356 . S
C560 O590 1.325 . S
N561 C564 1.314 . S
N561 C565 1.279 . S
C562 C560 1.348 . S
C562 C564 1.353 . S
C562 H604 0.929 . S
C563 C560 1.356 . S
C563 C565 1.358 . S
C563 H605 0.930 . S
C564 N561 1.314 . S
C564 C562 1.353 . S
C564 H606 0.930 . S
C565 N561 1.279 . S
C565 C563 1.358 . S
C565 H607 0.930 . S
C566 C567 1.348 . S
C566 C568 1.356 . S
C566 O591 1.325 . S
C567 C566 1.348 . S
C567 C569 1.353 . S
C567 H608 0.929 . S
C568 C566 1.356 . S
C568 C570 1.358 . S
C568 H609 0.930 . S
C569 C567 1.353 . S
C569 N571 1.314 . S
C569 H610 0.930 . S
C570 C568 1.358 . S
C570 N571 1.279 . S
C570 H611 0.930 . S
N571 C569 1.314 . S
N571 C570 1.279 . S
C572 C574 1.353 . S
C572 N575 1.314 . S
C572 H578 0.930 . S
C573 N575 1.279 . S
C573 C576 1.358 . S
C573 H579 0.930 . S
C574 C572 1.353 . S
C574 C577 1.348 . S
C574 H612 0.929 . S
N575 Li530 1.990 . S
N575 C572 1.314 . S
N575 C573 1.279 . S
C576 C573 1.358 . S
C576 C577 1.356 . S
C576 H613 0.930 . S
C577 C574 1.348 . S
C577 C576 1.356 . S
H578 C572 0.930 . S
H579 C573 0.930 . S
C580 N581 1.314 . S
C580 C582 1.353 . S
C580 H586 0.930 . S
N581 Li531 1.990 . S
N581 C580 1.314 . S
N581 C584 1.279 . S
C582 C580 1.353 . S
C582 C585 1.348 . S
C582 H614 0.929 . S
C583 C584 1.358 . S
C583 C585 1.356 . S
C583 H615 0.930 . S
C584 N581 1.279 . S
C584 C583 1.358 . S
C584 H587 0.930 . S
C585 C582 1.348 . S
C585 C583 1.356 . S
H586 C580 0.930 . S
H587 C584 0.930 . S
O588 Li528 1.956 . S
O588 Li529 1.970 . S
O588 Li530 1.961 . S
O588 C532 1.325 . S
O589 Li528 1.970 . S
O589 Li529 1.956 . S
O589 Li531 1.961 . S
O589 C538 1.325 . S
O590 Li528 1.961 . S
O590 Li530 1.956 . S
O590 Li531 1.970 . S
O590 C560 1.325 . S
O591 Li529 1.961 . S
O591 Li530 1.970 . S
O591 Li531 1.956 . S
O591 C566 1.325 . S
H592 C534 0.929 . S
H593 C535 0.930 . S
H594 C536 0.930 . S
H595 C537 0.930 . S
H596 C539 0.930 . S
H597 C541 0.929 . S
H598 C542 0.930 . S
H599 C543 0.930 . S
H600 C546 0.930 . S
H601 C549 0.929 . S
H602 C554 0.929 . S
H603 C555 0.930 . S
H604 C562 0.929 . S
H605 C563 0.930 . S
H606 C564 0.930 . S
H607 C565 0.930 . S
H608 C567 0.929 . S
H609 C568 0.930 . S
H610 C569 0.930 . S
H611 C570 0.930 . S
H612 C574 0.929 . S
H613 C576 0.930 . S
H614 C582 0.929 . S
H615 C583 0.930 . S
Li616 N633 1.990 . S
Li616 O676 1.956 . S
Li616 O677 1.970 . S
Li616 O678 1.961 . S
Li617 N641 1.990 . S
Li617 O676 1.970 . S
Li617 O677 1.956 . S
Li617 O679 1.961 . S
Li618 N663 1.990 . S
Li618 O676 1.961 . S
Li618 O678 1.956 . S
Li618 O679 1.970 . S
Li619 N669 1.990 . S
Li619 O677 1.961 . S
Li619 O678 1.970 . S
Li619 O679 1.956 . S
C620 C622 1.348 . S
C620 C623 1.356 . S
C620 O676 1.325 . S
N621 C624 1.314 . S
N621 C625 1.279 . S
C622 C620 1.348 . S
C622 C624 1.353 . S
C622 H680 0.929 . S
C623 C620 1.356 . S
C623 C625 1.358 . S
C623 H681 0.930 . S
C624 N621 1.314 . S
C624 C622 1.353 . S
C624 H682 0.930 . S
C625 N621 1.279 . S
C625 C623 1.358 . S
C625 H683 0.930 . S
C626 C629 1.348 . S
C626 C630 1.356 . S
C626 O677 1.325 . S
C627 N628 1.279 . S
C627 C630 1.358 . S
C627 H684 0.930 . S
N628 C627 1.279 . S
N628 C631 1.314 . S
C629 C626 1.348 . S
C629 C631 1.353 . S
C629 H685 0.929 . S
C630 C626 1.356 . S
C630 C627 1.358 . S
C630 H686 0.930 . S
C631 N628 1.314 . S
C631 C629 1.353 . S
C631 H687 0.930 . S
C632 N633 1.314 . S
C632 C637 1.353 . S
C632 H638 0.930 . S
N633 Li616 1.990 . S
N633 C632 1.314 . S
N633 C635 1.279 . S
C634 C635 1.358 . S
C634 C636 1.356 . S
C634 H688 0.930 . S
C635 N633 1.279 . S
C635 C634 1.358 . S
C635 H639 0.930 . S
C636 C634 1.356 . S
C636 C637 1.348 . S
C637 C632 1.353 . S
C637 C636 1.348 . S
C637 H689 0.929 . S
H638 C632 0.930 . S
H639 C635 0.930 . S
C640 N641 1.314 . S
C640 C642 1.353 . S
C640 H646 0.930 . S
N641 Li617 1.990 . S
N641 C640 1.314 . S
N641 C644 1.279 . S
C642 C640 1.353 . S
C642 C645 1.348 . S
C642 H690 0.929 . S
C643 C644 1.358 . S
C643 C645 1.356 . S
C643 H691 0.930 . S
C644 N641 1.279 . S
C644 C643 1.358 . S
C644 H647 0.930 . S
C645 C642 1.348 . S
C645 C643 1.356 . S
H646 C640 0.930 . S
H647 C644 0.930 . S
C648 C650 1.348 . S
C648 C651 1.356 . S
C648 O678 1.325 . S
N649 C652 1.314 . S
N649 C653 1.279 . S
C650 C648 1.348 . S
C650 C652 1.353 . S
C650 H692 0.929 . S
C651 C648 1.356 . S
C651 C653 1.358 . S
C651 H693 0.930 . S
C652 N649 1.314 . S
C652 C650 1.353 . S
C652 H694 0.930 . S
C653 N649 1.279 . S
C653 C651 1.358 . S
C653 H695 0.930 . S
C654 C655 1.348 . S
C654 C656 1.356 . S
C654 O679 1.325 . S
C655 C654 1.348 . S
C655 C657 1.353 . S
C655 H696 0.929 . S
C656 C654 1.356 . S
C656 C658 1.358 . S
C656 H697 0.930 . S
C657 C655 1.353 . S
C657 N659 1.314 . S
C657 H698 0.930 . S
C658 C656 1.358 . S
C658 N659 1.279 . S
C658 H699 0.930 . S
N659 C657 1.314 . S
N659 C658 1.279 . S
C660 C662 1.353 . S
C660 N663 1.314 . S
C660 H666 0.930 . S
C661 N663 1.279 . S
C661 C664 1.358 . S
C661 H667 0.930 . S
C662 C660 1.353 . S
C662 C665 1.348 . S
C662 H700 0.929 . S
N663 Li618 1.990 . S
N663 C660 1.314 . S
N663 C661 1.279 . S
C664 C661 1.358 . S
C664 C665 1.356 . S
C664 H701 0.930 . S
C665 C662 1.348 . S
C665 C664 1.356 . S
H666 C660 0.930 . S
H667 C661 0.930 . S
C668 N669 1.314 . S
C668 C670 1.353 . S
C668 H674 0.930 . S
N669 Li619 1.990 . S
N669 C668 1.314 . S
N669 C672 1.279 . S
C670 C668 1.353 . S
C670 C673 1.348 . S
C670 H702 0.929 . S
C671 C672 1.358 . S
C671 C673 1.356 . S
C671 H703 0.930 . S
C672 N669 1.279 . S
C672 C671 1.358 . S
C672 H675 0.930 . S
C673 C670 1.348 . S
C673 C671 1.356 . S
H674 C668 0.930 . S
H675 C672 0.930 . S
O676 Li616 1.956 . S
O676 Li617 1.970 . S
O676 Li618 1.961 . S
O676 C620 1.325 . S
O677 Li616 1.970 . S
O677 Li617 1.956 . S
O677 Li619 1.961 . S
O677 C626 1.325 . S
O678 Li616 1.961 . S
O678 Li618 1.956 . S
O678 Li619 1.970 . S
O678 C648 1.325 . S
O679 Li617 1.961 . S
O679 Li618 1.970 . S
O679 Li619 1.956 . S
O679 C654 1.325 . S
H680 C622 0.929 . S
H681 C623 0.930 . S
H682 C624 0.930 . S
H683 C625 0.930 . S
H684 C627 0.930 . S
H685 C629 0.929 . S
H686 C630 0.930 . S
H687 C631 0.930 . S
H688 C634 0.930 . S
H689 C637 0.929 . S
H690 C642 0.929 . S
H691 C643 0.930 . S
H692 C650 0.929 . S
H693 C651 0.930 . S
H694 C652 0.930 . S
H695 C653 0.930 . S
H696 C655 0.929 . S
H697 C656 0.930 . S
H698 C657 0.930 . S
H699 C658 0.930 . S
H700 C662 0.929 . S
H701 C664 0.930 . S
H702 C670 0.929 . S
H703 C671 0.930 . S
Li704 N721 1.990 . S
Li704 O764 1.956 . S
Li704 O765 1.970 . S
Li704 O766 1.961 . S
Li705 N729 1.990 . S
Li705 O764 1.970 . S
Li705 O765 1.956 . S
Li705 O767 1.961 . S
Li706 N751 1.990 . S
Li706 O764 1.961 . S
Li706 O766 1.956 . S
Li706 O767 1.970 . S
Li707 N757 1.990 . S
Li707 O765 1.961 . S
Li707 O766 1.970 . S
Li707 O767 1.956 . S
C708 C710 1.348 . S
C708 C711 1.356 . S
C708 O764 1.325 . S
N709 C712 1.314 . S
N709 C713 1.279 . S
C710 C708 1.348 . S
C710 C712 1.353 . S
C710 H768 0.929 . S
C711 C708 1.356 . S
C711 C713 1.358 . S
C711 H769 0.930 . S
C712 N709 1.314 . S
C712 C710 1.353 . S
C712 H770 0.930 . S
C713 N709 1.279 . S
C713 C711 1.358 . S
C713 H771 0.930 . S
C714 C717 1.348 . S
C714 C718 1.356 . S
C714 O765 1.325 . S
C715 N716 1.279 . S
C715 C718 1.358 . S
C715 H772 0.930 . S
N716 C715 1.279 . S
N716 C719 1.314 . S
C717 C714 1.348 . S
C717 C719 1.353 . S
C717 H773 0.929 . S
C718 C714 1.356 . S
C718 C715 1.358 . S
C718 H774 0.930 . S
C719 N716 1.314 . S
C719 C717 1.353 . S
C719 H775 0.930 . S
C720 N721 1.314 . S
C720 C725 1.353 . S
C720 H726 0.930 . S
N721 Li704 1.990 . S
N721 C720 1.314 . S
N721 C723 1.279 . S
C722 C723 1.358 . S
C722 C724 1.356 . S
C722 H776 0.930 . S
C723 N721 1.279 . S
C723 C722 1.358 . S
C723 H727 0.930 . S
C724 C722 1.356 . S
C724 C725 1.348 . S
C725 C720 1.353 . S
C725 C724 1.348 . S
C725 H777 0.929 . S
H726 C720 0.930 . S
H727 C723 0.930 . S
C728 N729 1.314 . S
C728 C730 1.353 . S
C728 H734 0.930 . S
N729 Li705 1.990 . S
N729 C728 1.314 . S
N729 C732 1.279 . S
C730 C728 1.353 . S
C730 C733 1.348 . S
C730 H778 0.929 . S
C731 C732 1.358 . S
C731 C733 1.356 . S
C731 H779 0.930 . S
C732 N729 1.279 . S
C732 C731 1.358 . S
C732 H735 0.930 . S
C733 C730 1.348 . S
C733 C731 1.356 . S
H734 C728 0.930 . S
H735 C732 0.930 . S
C736 C738 1.348 . S
C736 C739 1.356 . S
C736 O766 1.325 . S
N737 C740 1.314 . S
N737 C741 1.279 . S
C738 C736 1.348 . S
C738 C740 1.353 . S
C738 H780 0.929 . S
C739 C736 1.356 . S
C739 C741 1.358 . S
C739 H781 0.930 . S
C740 N737 1.314 . S
C740 C738 1.353 . S
C740 H782 0.930 . S
C741 N737 1.279 . S
C741 C739 1.358 . S
C741 H783 0.930 . S
C742 C743 1.348 . S
C742 C744 1.356 . S
C742 O767 1.325 . S
C743 C742 1.348 . S
C743 C745 1.353 . S
C743 H784 0.929 . S
C744 C742 1.356 . S
C744 C746 1.358 . S
C744 H785 0.930 . S
C745 C743 1.353 . S
C745 N747 1.314 . S
C745 H786 0.930 . S
C746 C744 1.358 . S
C746 N747 1.279 . S
C746 H787 0.930 . S
N747 C745 1.314 . S
N747 C746 1.279 . S
C748 C750 1.353 . S
C748 N751 1.314 . S
C748 H754 0.930 . S
C749 N751 1.279 . S
C749 C752 1.358 . S
C749 H755 0.930 . S
C750 C748 1.353 . S
C750 C753 1.348 . S
C750 H788 0.929 . S
N751 Li706 1.990 . S
N751 C748 1.314 . S
N751 C749 1.279 . S
C752 C749 1.358 . S
C752 C753 1.356 . S
C752 H789 0.930 . S
C753 C750 1.348 . S
C753 C752 1.356 . S
H754 C748 0.930 . S
H755 C749 0.930 . S
C756 N757 1.314 . S
C756 C758 1.353 . S
C756 H762 0.930 . S
N757 Li707 1.990 . S
N757 C756 1.314 . S
N757 C760 1.279 . S
C758 C756 1.353 . S
C758 C761 1.348 . S
C758 H790 0.929 . S
C759 C760 1.358 . S
C759 C761 1.356 . S
C759 H791 0.930 . S
C760 N757 1.279 . S
C760 C759 1.358 . S
C760 H763 0.930 . S
C761 C758 1.348 . S
C761 C759 1.356 . S
H762 C756 0.930 . S
H763 C760 0.930 . S
O764 Li704 1.956 . S
O764 Li705 1.970 . S
O764 Li706 1.961 . S
O764 C708 1.325 . S
O765 Li704 1.970 . S
O765 Li705 1.956 . S
O765 Li707 1.961 . S
O765 C714 1.325 . S
O766 Li704 1.961 . S
O766 Li706 1.956 . S
O766 Li707 1.970 . S
O766 C736 1.325 . S
O767 Li705 1.961 . S
O767 Li706 1.970 . S
O767 Li707 1.956 . S
O767 C742 1.325 . S
H768 C710 0.929 . S
H769 C711 0.930 . S
H770 C712 0.930 . S
H771 C713 0.930 . S
H772 C715 0.930 . S
H773 C717 0.929 . S
H774 C718 0.930 . S
H775 C719 0.930 . S
H776 C722 0.930 . S
H777 C725 0.929 . S
H778 C730 0.929 . S
H779 C731 0.930 . S
H780 C738 0.929 . S
H781 C739 0.930 . S
H782 C740 0.930 . S
H783 C741 0.930 . S
H784 C743 0.929 . S
H785 C744 0.930 . S
H786 C745 0.930 . S
H787 C746 0.930 . S
H788 C750 0.929 . S
H789 C752 0.930 . S
H790 C758 0.929 . S
H791 C759 0.930 . S
Li792 N809 1.990 . S
Li792 O852 1.956 . S
Li792 O853 1.970 . S
Li792 O854 1.961 . S
Li793 N817 1.990 . S
Li793 O852 1.970 . S
Li793 O853 1.956 . S
Li793 O855 1.961 . S
Li794 N839 1.990 . S
Li794 O852 1.961 . S
Li794 O854 1.956 . S
Li794 O855 1.970 . S
Li795 N845 1.990 . S
Li795 O853 1.961 . S
Li795 O854 1.970 . S
Li795 O855 1.956 . S
C796 C798 1.348 . S
C796 C799 1.356 . S
C796 O852 1.325 . S
N797 C800 1.314 . S
N797 C801 1.279 . S
C798 C796 1.348 . S
C798 C800 1.353 . S
C798 H856 0.929 . S
C799 C796 1.356 . S
C799 C801 1.358 . S
C799 H857 0.930 . S
C800 N797 1.314 . S
C800 C798 1.353 . S
C800 H858 0.930 . S
C801 N797 1.279 . S
C801 C799 1.358 . S
C801 H859 0.930 . S
C802 C805 1.348 . S
C802 C806 1.356 . S
C802 O853 1.325 . S
C803 N804 1.279 . S
C803 C806 1.358 . S
C803 H860 0.930 . S
N804 C803 1.279 . S
N804 C807 1.314 . S
C805 C802 1.348 . S
C805 C807 1.353 . S
C805 H861 0.929 . S
C806 C802 1.356 . S
C806 C803 1.358 . S
C806 H862 0.930 . S
C807 N804 1.314 . S
C807 C805 1.353 . S
C807 H863 0.930 . S
C808 N809 1.314 . S
C808 C813 1.353 . S
C808 H814 0.930 . S
N809 Li792 1.990 . S
N809 C808 1.314 . S
N809 C811 1.279 . S
C810 C811 1.358 . S
C810 C812 1.356 . S
C810 H864 0.930 . S
C811 N809 1.279 . S
C811 C810 1.358 . S
C811 H815 0.930 . S
C812 C810 1.356 . S
C812 C813 1.348 . S
C813 C808 1.353 . S
C813 C812 1.348 . S
C813 H865 0.929 . S
H814 C808 0.930 . S
H815 C811 0.930 . S
C816 N817 1.314 . S
C816 C818 1.353 . S
C816 H822 0.930 . S
N817 Li793 1.990 . S
N817 C816 1.314 . S
N817 C820 1.279 . S
C818 C816 1.353 . S
C818 C821 1.348 . S
C818 H866 0.929 . S
C819 C820 1.358 . S
C819 C821 1.356 . S
C819 H867 0.930 . S
C820 N817 1.279 . S
C820 C819 1.358 . S
C820 H823 0.930 . S
C821 C818 1.348 . S
C821 C819 1.356 . S
H822 C816 0.930 . S
H823 C820 0.930 . S
C824 C826 1.348 . S
C824 C827 1.356 . S
C824 O854 1.325 . S
N825 C828 1.314 . S
N825 C829 1.279 . S
C826 C824 1.348 . S
C826 C828 1.353 . S
C826 H868 0.929 . S
C827 C824 1.356 . S
C827 C829 1.358 . S
C827 H869 0.930 . S
C828 N825 1.314 . S
C828 C826 1.353 . S
C828 H870 0.930 . S
C829 N825 1.279 . S
C829 C827 1.358 . S
C829 H871 0.930 . S
C830 C831 1.348 . S
C830 C832 1.356 . S
C830 O855 1.325 . S
C831 C830 1.348 . S
C831 C833 1.353 . S
C831 H872 0.929 . S
C832 C830 1.356 . S
C832 C834 1.358 . S
C832 H873 0.930 . S
C833 C831 1.353 . S
C833 N835 1.314 . S
C833 H874 0.930 . S
C834 C832 1.358 . S
C834 N835 1.279 . S
C834 H875 0.930 . S
N835 C833 1.314 . S
N835 C834 1.279 . S
C836 C838 1.353 . S
C836 N839 1.314 . S
C836 H842 0.930 . S
C837 N839 1.279 . S
C837 C840 1.358 . S
C837 H843 0.930 . S
C838 C836 1.353 . S
C838 C841 1.348 . S
C838 H876 0.929 . S
N839 Li794 1.990 . S
N839 C836 1.314 . S
N839 C837 1.279 . S
C840 C837 1.358 . S
C840 C841 1.356 . S
C840 H877 0.930 . S
C841 C838 1.348 . S
C841 C840 1.356 . S
H842 C836 0.930 . S
H843 C837 0.930 . S
C844 N845 1.314 . S
C844 C846 1.353 . S
C844 H850 0.930 . S
N845 Li795 1.990 . S
N845 C844 1.314 . S
N845 C848 1.279 . S
C846 C844 1.353 . S
C846 C849 1.348 . S
C846 H878 0.929 . S
C847 C848 1.358 . S
C847 C849 1.356 . S
C847 H879 0.930 . S
C848 N845 1.279 . S
C848 C847 1.358 . S
C848 H851 0.930 . S
C849 C846 1.348 . S
C849 C847 1.356 . S
H850 C844 0.930 . S
H851 C848 0.930 . S
O852 Li792 1.956 . S
O852 Li793 1.970 . S
O852 Li794 1.961 . S
O852 C796 1.325 . S
O853 Li792 1.970 . S
O853 Li793 1.956 . S
O853 Li795 1.961 . S
O853 C802 1.325 . S
O854 Li792 1.961 . S
O854 Li794 1.956 . S
O854 Li795 1.970 . S
O854 C824 1.325 . S
O855 Li793 1.961 . S
O855 Li794 1.970 . S
O855 Li795 1.956 . S
O855 C830 1.325 . S
H856 C798 0.929 . S
H857 C799 0.930 . S
H858 C800 0.930 . S
H859 C801 0.930 . S
H860 C803 0.930 . S
H861 C805 0.929 . S
H862 C806 0.930 . S
H863 C807 0.930 . S
H864 C810 0.930 . S
H865 C813 0.929 . S
H866 C818 0.929 . S
H867 C819 0.930 . S
H868 C826 0.929 . S
H869 C827 0.930 . S
H870 C828 0.930 . S
H871 C829 0.930 . S
H872 C831 0.929 . S
H873 C832 0.930 . S
H874 C833 0.930 . S
H875 C834 0.930 . S
H876 C838 0.929 . S
H877 C840 0.930 . S
H878 C846 0.929 . S
H879 C847 0.930 . S
Li880 N897 1.990 . S
Li880 O940 1.956 . S
Li880 O941 1.970 . S
Li880 O942 1.961 . S
Li881 N905 1.990 . S
Li881 O940 1.970 . S
Li881 O941 1.956 . S
Li881 O943 1.961 . S
Li882 N927 1.990 . S
Li882 O940 1.961 . S
Li882 O942 1.956 . S
Li882 O943 1.970 . S
Li883 N933 1.990 . S
Li883 O941 1.961 . S
Li883 O942 1.970 . S
Li883 O943 1.956 . S
C884 C886 1.348 . S
C884 C887 1.356 . S
C884 O940 1.325 . S
N885 C888 1.314 . S
N885 C889 1.279 . S
C886 C884 1.348 . S
C886 C888 1.353 . S
C886 H944 0.929 . S
C887 C884 1.356 . S
C887 C889 1.358 . S
C887 H945 0.930 . S
C888 N885 1.314 . S
C888 C886 1.353 . S
C888 H946 0.930 . S
C889 N885 1.279 . S
C889 C887 1.358 . S
C889 H947 0.930 . S
C890 C893 1.348 . S
C890 C894 1.356 . S
C890 O941 1.325 . S
C891 N892 1.279 . S
C891 C894 1.358 . S
C891 H948 0.930 . S
N892 C891 1.279 . S
N892 C895 1.314 . S
C893 C890 1.348 . S
C893 C895 1.353 . S
C893 H949 0.929 . S
C894 C890 1.356 . S
C894 C891 1.358 . S
C894 H950 0.930 . S
C895 N892 1.314 . S
C895 C893 1.353 . S
C895 H951 0.930 . S
C896 N897 1.314 . S
C896 C901 1.353 . S
C896 H902 0.930 . S
N897 Li880 1.990 . S
N897 C896 1.314 . S
N897 C899 1.279 . S
C898 C899 1.358 . S
C898 C900 1.356 . S
C898 H952 0.930 . S
C899 N897 1.279 . S
C899 C898 1.358 . S
C899 H903 0.930 . S
C900 C898 1.356 . S
C900 C901 1.348 . S
C901 C896 1.353 . S
C901 C900 1.348 . S
C901 H953 0.929 . S
H902 C896 0.930 . S
H903 C899 0.930 . S
C904 N905 1.314 . S
C904 C906 1.353 . S
C904 H910 0.930 . S
N905 Li881 1.990 . S
N905 C904 1.314 . S
N905 C908 1.279 . S
C906 C904 1.353 . S
C906 C909 1.348 . S
C906 H954 0.929 . S
C907 C908 1.358 . S
C907 C909 1.356 . S
C907 H955 0.930 . S
C908 N905 1.279 . S
C908 C907 1.358 . S
C908 H911 0.930 . S
C909 C906 1.348 . S
C909 C907 1.356 . S
H910 C904 0.930 . S
H911 C908 0.930 . S
C912 C914 1.348 . S
C912 C915 1.356 . S
C912 O942 1.325 . S
N913 C916 1.314 . S
N913 C917 1.279 . S
C914 C912 1.348 . S
C914 C916 1.353 . S
C914 H956 0.929 . S
C915 C912 1.356 . S
C915 C917 1.358 . S
C915 H957 0.930 . S
C916 N913 1.314 . S
C916 C914 1.353 . S
C916 H958 0.930 . S
C917 N913 1.279 . S
C917 C915 1.358 . S
C917 H959 0.930 . S
C918 C919 1.348 . S
C918 C920 1.356 . S
C918 O943 1.325 . S
C919 C918 1.348 . S
C919 C921 1.353 . S
C919 H960 0.929 . S
C920 C918 1.356 . S
C920 C922 1.358 . S
C920 H961 0.930 . S
C921 C919 1.353 . S
C921 N923 1.314 . S
C921 H962 0.930 . S
C922 C920 1.358 . S
C922 N923 1.279 . S
C922 H963 0.930 . S
N923 C921 1.314 . S
N923 C922 1.279 . S
C924 C926 1.353 . S
C924 N927 1.314 . S
C924 H930 0.930 . S
C925 N927 1.279 . S
C925 C928 1.358 . S
C925 H931 0.930 . S
C926 C924 1.353 . S
C926 C929 1.348 . S
C926 H964 0.929 . S
N927 Li882 1.990 . S
N927 C924 1.314 . S
N927 C925 1.279 . S
C928 C925 1.358 . S
C928 C929 1.356 . S
C928 H965 0.930 . S
C929 C926 1.348 . S
C929 C928 1.356 . S
H930 C924 0.930 . S
H931 C925 0.930 . S
C932 N933 1.314 . S
C932 C934 1.353 . S
C932 H938 0.930 . S
N933 Li883 1.990 . S
N933 C932 1.314 . S
N933 C936 1.279 . S
C934 C932 1.353 . S
C934 C937 1.348 . S
C934 H966 0.929 . S
C935 C936 1.358 . S
C935 C937 1.356 . S
C935 H967 0.930 . S
C936 N933 1.279 . S
C936 C935 1.358 . S
C936 H939 0.930 . S
C937 C934 1.348 . S
C937 C935 1.356 . S
H938 C932 0.930 . S
H939 C936 0.930 . S
O940 Li880 1.956 . S
O940 Li881 1.970 . S
O940 Li882 1.961 . S
O940 C884 1.325 . S
O941 Li880 1.970 . S
O941 Li881 1.956 . S
O941 Li883 1.961 . S
O941 C890 1.325 . S
O942 Li880 1.961 . S
O942 Li882 1.956 . S
O942 Li883 1.970 . S
O942 C912 1.325 . S
O943 Li881 1.961 . S
O943 Li882 1.970 . S
O943 Li883 1.956 . S
O943 C918 1.325 . S
H944 C886 0.929 . S
H945 C887 0.930 . S
H946 C888 0.930 . S
H947 C889 0.930 . S
H948 C891 0.930 . S
H949 C893 0.929 . S
H950 C894 0.930 . S
H951 C895 0.930 . S
H952 C898 0.930 . S
H953 C901 0.929 . S
H954 C906 0.929 . S
H955 C907 0.930 . S
H956 C914 0.929 . S
H957 C915 0.930 . S
H958 C916 0.930 . S
H959 C917 0.930 . S
H960 C919 0.929 . S
H961 C920 0.930 . S
H962 C921 0.930 . S
H963 C922 0.930 . S
H964 C926 0.929 . S
H965 C928 0.930 . S
H966 C934 0.929 . S
H967 C935 0.930 . S
Li968 N985 1.990 . S
Li968 O1028 1.956 . S
Li968 O1029 1.970 . S
Li968 O1030 1.961 . S
Li969 N993 1.990 . S
Li969 O1028 1.970 . S
Li969 O1029 1.956 . S
Li969 O1031 1.961 . S
Li970 N1015 1.990 . S
Li970 O1028 1.961 . S
Li970 O1030 1.956 . S
Li970 O1031 1.970 . S
Li971 N1021 1.990 . S
Li971 O1029 1.961 . S
Li971 O1030 1.970 . S
Li971 O1031 1.956 . S
C972 C974 1.348 . S
C972 C975 1.356 . S
C972 O1028 1.325 . S
N973 C976 1.314 . S
N973 C977 1.279 . S
C974 C972 1.348 . S
C974 C976 1.353 . S
C974 H1032 0.929 . S
C975 C972 1.356 . S
C975 C977 1.358 . S
C975 H1033 0.930 . S
C976 N973 1.314 . S
C976 C974 1.353 . S
C976 H1034 0.930 . S
C977 N973 1.279 . S
C977 C975 1.358 . S
C977 H1035 0.930 . S
C978 C981 1.348 . S
C978 C982 1.356 . S
C978 O1029 1.325 . S
C979 N980 1.279 . S
C979 C982 1.358 . S
C979 H1036 0.930 . S
N980 C979 1.279 . S
N980 C983 1.314 . S
C981 C978 1.348 . S
C981 C983 1.353 . S
C981 H1037 0.929 . S
C982 C978 1.356 . S
C982 C979 1.358 . S
C982 H1038 0.930 . S
C983 N980 1.314 . S
C983 C981 1.353 . S
C983 H1039 0.930 . S
C984 N985 1.314 . S
C984 C989 1.353 . S
C984 H990 0.930 . S
N985 Li968 1.990 . S
N985 C984 1.314 . S
N985 C987 1.279 . S
C986 C987 1.358 . S
C986 C988 1.356 . S
C986 H1040 0.930 . S
C987 N985 1.279 . S
C987 C986 1.358 . S
C987 H991 0.930 . S
C988 C986 1.356 . S
C988 C989 1.348 . S
C989 C984 1.353 . S
C989 C988 1.348 . S
C989 H1041 0.929 . S
H990 C984 0.930 . S
H991 C987 0.930 . S
C992 N993 1.314 . S
C992 C994 1.353 . S
C992 H998 0.930 . S
N993 Li969 1.990 . S
N993 C992 1.314 . S
N993 C996 1.279 . S
C994 C992 1.353 . S
C994 C997 1.348 . S
C994 H1042 0.929 . S
C995 C996 1.358 . S
C995 C997 1.356 . S
C995 H1043 0.930 . S
C996 N993 1.279 . S
C996 C995 1.358 . S
C996 H999 0.930 . S
C997 C994 1.348 . S
C997 C995 1.356 . S
H998 C992 0.930 . S
H999 C996 0.930 . S
C1000 C1002 1.348 . S
C1000 C1003 1.356 . S
C1000 O1030 1.325 . S
N1001 C1004 1.314 . S
N1001 C1005 1.279 . S
C1002 C1000 1.348 . S
C1002 C1004 1.353 . S
C1002 H1044 0.929 . S
C1003 C1000 1.356 . S
C1003 C1005 1.358 . S
C1003 H1045 0.930 . S
C1004 N1001 1.314 . S
C1004 C1002 1.353 . S
C1004 H1046 0.930 . S
C1005 N1001 1.279 . S
C1005 C1003 1.358 . S
C1005 H1047 0.930 . S
C1006 C1007 1.348 . S
C1006 C1008 1.356 . S
C1006 O1031 1.325 . S
C1007 C1006 1.348 . S
C1007 C1009 1.353 . S
C1007 H1048 0.929 . S
C1008 C1006 1.356 . S
C1008 C1010 1.358 . S
C1008 H1049 0.930 . S
C1009 C1007 1.353 . S
C1009 N1011 1.314 . S
C1009 H1050 0.930 . S
C1010 C1008 1.358 . S
C1010 N1011 1.279 . S
C1010 H1051 0.930 . S
N1011 C1009 1.314 . S
N1011 C1010 1.279 . S
C1012 C1014 1.353 . S
C1012 N1015 1.314 . S
C1012 H1018 0.930 . S
C1013 N1015 1.279 . S
C1013 C1016 1.358 . S
C1013 H1019 0.930 . S
C1014 C1012 1.353 . S
C1014 C1017 1.348 . S
C1014 H1052 0.929 . S
N1015 Li970 1.990 . S
N1015 C1012 1.314 . S
N1015 C1013 1.279 . S
C1016 C1013 1.358 . S
C1016 C1017 1.356 . S
C1016 H1053 0.930 . S
C1017 C1014 1.348 . S
C1017 C1016 1.356 . S
H1018 C1012 0.930 . S
H1019 C1013 0.930 . S
C1020 N1021 1.314 . S
C1020 C1022 1.353 . S
C1020 H1026 0.930 . S
N1021 Li971 1.990 . S
N1021 C1020 1.314 . S
N1021 C1024 1.279 . S
C1022 C1020 1.353 . S
C1022 C1025 1.348 . S
C1022 H1054 0.929 . S
C1023 C1024 1.358 . S
C1023 C1025 1.356 . S
C1023 H1055 0.930 . S
C1024 N1021 1.279 . S
C1024 C1023 1.358 . S
C1024 H1027 0.930 . S
C1025 C1022 1.348 . S
C1025 C1023 1.356 . S
H1026 C1020 0.930 . S
H1027 C1024 0.930 . S
O1028 Li968 1.956 . S
O1028 Li969 1.970 . S
O1028 Li970 1.961 . S
O1028 C972 1.325 . S
O1029 Li968 1.970 . S
O1029 Li969 1.956 . S
O1029 Li971 1.961 . S
O1029 C978 1.325 . S
O1030 Li968 1.961 . S
O1030 Li970 1.956 . S
O1030 Li971 1.970 . S
O1030 C1000 1.325 . S
O1031 Li969 1.961 . S
O1031 Li970 1.970 . S
O1031 Li971 1.956 . S
O1031 C1006 1.325 . S
H1032 C974 0.929 . S
H1033 C975 0.930 . S
H1034 C976 0.930 . S
H1035 C977 0.930 . S
H1036 C979 0.930 . S
H1037 C981 0.929 . S
H1038 C982 0.930 . S
H1039 C983 0.930 . S
H1040 C986 0.930 . S
H1041 C989 0.929 . S
H1042 C994 0.929 . S
H1043 C995 0.930 . S
H1044 C1002 0.929 . S
H1045 C1003 0.930 . S
H1046 C1004 0.930 . S
H1047 C1005 0.930 . S
H1048 C1007 0.929 . S
H1049 C1008 0.930 . S
H1050 C1009 0.930 . S
H1051 C1010 0.930 . S
H1052 C1014 0.929 . S
H1053 C1016 0.930 . S
H1054 C1022 0.929 . S
H1055 C1023 0.930 . S
Li1056 N1073 1.990 . S
Li1056 O1116 1.956 . S
Li1056 O1117 1.970 . S
Li1056 O1118 1.961 . S
Li1057 N1081 1.990 . S
Li1057 O1116 1.970 . S
Li1057 O1117 1.956 . S
Li1057 O1119 1.961 . S
Li1058 N1103 1.990 . S
Li1058 O1116 1.961 . S
Li1058 O1118 1.956 . S
Li1058 O1119 1.970 . S
Li1059 N1109 1.990 . S
Li1059 O1117 1.961 . S
Li1059 O1118 1.970 . S
Li1059 O1119 1.956 . S
C1060 C1062 1.348 . S
C1060 C1063 1.356 . S
C1060 O1116 1.325 . S
N1061 C1064 1.314 . S
N1061 C1065 1.279 . S
C1062 C1060 1.348 . S
C1062 C1064 1.353 . S
C1062 H1120 0.929 . S
C1063 C1060 1.356 . S
C1063 C1065 1.358 . S
C1063 H1121 0.930 . S
C1064 N1061 1.314 . S
C1064 C1062 1.353 . S
C1064 H1122 0.930 . S
C1065 N1061 1.279 . S
C1065 C1063 1.358 . S
C1065 H1123 0.930 . S
C1066 C1069 1.348 . S
C1066 C1070 1.356 . S
C1066 O1117 1.325 . S
C1067 N1068 1.279 . S
C1067 C1070 1.358 . S
C1067 H1124 0.930 . S
N1068 C1067 1.279 . S
N1068 C1071 1.314 . S
C1069 C1066 1.348 . S
C1069 C1071 1.353 . S
C1069 H1125 0.929 . S
C1070 C1066 1.356 . S
C1070 C1067 1.358 . S
C1070 H1126 0.930 . S
C1071 N1068 1.314 . S
C1071 C1069 1.353 . S
C1071 H1127 0.930 . S
C1072 N1073 1.314 . S
C1072 C1077 1.353 . S
C1072 H1078 0.930 . S
N1073 Li1056 1.990 . S
N1073 C1072 1.314 . S
N1073 C1075 1.279 . S
C1074 C1075 1.358 . S
C1074 C1076 1.356 . S
C1074 H1128 0.930 . S
C1075 N1073 1.279 . S
C1075 C1074 1.358 . S
C1075 H1079 0.930 . S
C1076 C1074 1.356 . S
C1076 C1077 1.348 . S
C1077 C1072 1.353 . S
C1077 C1076 1.348 . S
C1077 H1129 0.929 . S
H1078 C1072 0.930 . S
H1079 C1075 0.930 . S
C1080 N1081 1.314 . S
C1080 C1082 1.353 . S
C1080 H1086 0.930 . S
N1081 Li1057 1.990 . S
N1081 C1080 1.314 . S
N1081 C1084 1.279 . S
C1082 C1080 1.353 . S
C1082 C1085 1.348 . S
C1082 H1130 0.929 . S
C1083 C1084 1.358 . S
C1083 C1085 1.356 . S
C1083 H1131 0.930 . S
C1084 N1081 1.279 . S
C1084 C1083 1.358 . S
C1084 H1087 0.930 . S
C1085 C1082 1.348 . S
C1085 C1083 1.356 . S
H1086 C1080 0.930 . S
H1087 C1084 0.930 . S
C1088 C1090 1.348 . S
C1088 C1091 1.356 . S
C1088 O1118 1.325 . S
N1089 C1092 1.314 . S
N1089 C1093 1.279 . S
C1090 C1088 1.348 . S
C1090 C1092 1.353 . S
C1090 H1132 0.929 . S
C1091 C1088 1.356 . S
C1091 C1093 1.358 . S
C1091 H1133 0.930 . S
C1092 N1089 1.314 . S
C1092 C1090 1.353 . S
C1092 H1134 0.930 . S
C1093 N1089 1.279 . S
C1093 C1091 1.358 . S
C1093 H1135 0.930 . S
C1094 C1095 1.348 . S
C1094 C1096 1.356 . S
C1094 O1119 1.325 . S
C1095 C1094 1.348 . S
C1095 C1097 1.353 . S
C1095 H1136 0.929 . S
C1096 C1094 1.356 . S
C1096 C1098 1.358 . S
C1096 H1137 0.930 . S
C1097 C1095 1.353 . S
C1097 N1099 1.314 . S
C1097 H1138 0.930 . S
C1098 C1096 1.358 . S
C1098 N1099 1.279 . S
C1098 H1139 0.930 . S
N1099 C1097 1.314 . S
N1099 C1098 1.279 . S
C1100 C1102 1.353 . S
C1100 N1103 1.314 . S
C1100 H1106 0.930 . S
C1101 N1103 1.279 . S
C1101 C1104 1.358 . S
C1101 H1107 0.930 . S
C1102 C1100 1.353 . S
C1102 C1105 1.348 . S
C1102 H1140 0.929 . S
N1103 Li1058 1.990 . S
N1103 C1100 1.314 . S
N1103 C1101 1.279 . S
C1104 C1101 1.358 . S
C1104 C1105 1.356 . S
C1104 H1141 0.930 . S
C1105 C1102 1.348 . S
C1105 C1104 1.356 . S
H1106 C1100 0.930 . S
H1107 C1101 0.930 . S
C1108 N1109 1.314 . S
C1108 C1110 1.353 . S
C1108 H1114 0.930 . S
N1109 Li1059 1.990 . S
N1109 C1108 1.314 . S
N1109 C1112 1.279 . S
C1110 C1108 1.353 . S
C1110 C1113 1.348 . S
C1110 H1142 0.929 . S
C1111 C1112 1.358 . S
C1111 C1113 1.356 . S
C1111 H1143 0.930 . S
C1112 N1109 1.279 . S
C1112 C1111 1.358 . S
C1112 H1115 0.930 . S
C1113 C1110 1.348 . S
C1113 C1111 1.356 . S
H1114 C1108 0.930 . S
H1115 C1112 0.930 . S
O1116 Li1056 1.956 . S
O1116 Li1057 1.970 . S
O1116 Li1058 1.961 . S
O1116 C1060 1.325 . S
O1117 Li1056 1.970 . S
O1117 Li1057 1.956 . S
O1117 Li1059 1.961 . S
O1117 C1066 1.325 . S
O1118 Li1056 1.961 . S
O1118 Li1058 1.956 . S
O1118 Li1059 1.970 . S
O1118 C1088 1.325 . S
O1119 Li1057 1.961 . S
O1119 Li1058 1.970 . S
O1119 Li1059 1.956 . S
O1119 C1094 1.325 . S
H1120 C1062 0.929 . S
H1121 C1063 0.930 . S
H1122 C1064 0.930 . S
H1123 C1065 0.930 . S
H1124 C1067 0.930 . S
H1125 C1069 0.929 . S
H1126 C1070 0.930 . S
H1127 C1071 0.930 . S
H1128 C1074 0.930 . S
H1129 C1077 0.929 . S
H1130 C1082 0.929 . S
H1131 C1083 0.930 . S
H1132 C1090 0.929 . S
H1133 C1091 0.930 . S
H1134 C1092 0.930 . S
H1135 C1093 0.930 . S
H1136 C1095 0.929 . S
H1137 C1096 0.930 . S
H1138 C1097 0.930 . S
H1139 C1098 0.930 . S
H1140 C1102 0.929 . S
H1141 C1104 0.930 . S
H1142 C1110 0.929 . S
H1143 C1111 0.930 . S
Li1144 N1161 1.990 . S
Li1144 O1204 1.956 . S
Li1144 O1205 1.970 . S
Li1144 O1206 1.961 . S
Li1145 N1169 1.990 . S
Li1145 O1204 1.970 . S
Li1145 O1205 1.956 . S
Li1145 O1207 1.961 . S
Li1146 N1191 1.990 . S
Li1146 O1204 1.961 . S
Li1146 O1206 1.956 . S
Li1146 O1207 1.970 . S
Li1147 N1197 1.990 . S
Li1147 O1205 1.961 . S
Li1147 O1206 1.970 . S
Li1147 O1207 1.956 . S
C1148 C1150 1.348 . S
C1148 C1151 1.356 . S
C1148 O1204 1.325 . S
N1149 C1152 1.314 . S
N1149 C1153 1.279 . S
C1150 C1148 1.348 . S
C1150 C1152 1.353 . S
C1150 H1208 0.929 . S
C1151 C1148 1.356 . S
C1151 C1153 1.358 . S
C1151 H1209 0.930 . S
C1152 N1149 1.314 . S
C1152 C1150 1.353 . S
C1152 H1210 0.930 . S
C1153 N1149 1.279 . S
C1153 C1151 1.358 . S
C1153 H1211 0.930 . S
C1154 C1157 1.348 . S
C1154 C1158 1.356 . S
C1154 O1205 1.325 . S
C1155 N1156 1.279 . S
C1155 C1158 1.358 . S
C1155 H1212 0.930 . S
N1156 C1155 1.279 . S
N1156 C1159 1.314 . S
C1157 C1154 1.348 . S
C1157 C1159 1.353 . S
C1157 H1213 0.929 . S
C1158 C1154 1.356 . S
C1158 C1155 1.358 . S
C1158 H1214 0.930 . S
C1159 N1156 1.314 . S
C1159 C1157 1.353 . S
C1159 H1215 0.930 . S
C1160 N1161 1.314 . S
C1160 C1165 1.353 . S
C1160 H1166 0.930 . S
N1161 Li1144 1.990 . S
N1161 C1160 1.314 . S
N1161 C1163 1.279 . S
C1162 C1163 1.358 . S
C1162 C1164 1.356 . S
C1162 H1216 0.930 . S
C1163 N1161 1.279 . S
C1163 C1162 1.358 . S
C1163 H1167 0.930 . S
C1164 C1162 1.356 . S
C1164 C1165 1.348 . S
C1165 C1160 1.353 . S
C1165 C1164 1.348 . S
C1165 H1217 0.929 . S
H1166 C1160 0.930 . S
H1167 C1163 0.930 . S
C1168 N1169 1.314 . S
C1168 C1170 1.353 . S
C1168 H1174 0.930 . S
N1169 Li1145 1.990 . S
N1169 C1168 1.314 . S
N1169 C1172 1.279 . S
C1170 C1168 1.353 . S
C1170 C1173 1.348 . S
C1170 H1218 0.929 . S
C1171 C1172 1.358 . S
C1171 C1173 1.356 . S
C1171 H1219 0.930 . S
C1172 N1169 1.279 . S
C1172 C1171 1.358 . S
C1172 H1175 0.930 . S
C1173 C1170 1.348 . S
C1173 C1171 1.356 . S
H1174 C1168 0.930 . S
H1175 C1172 0.930 . S
C1176 C1178 1.348 . S
C1176 C1179 1.356 . S
C1176 O1206 1.325 . S
N1177 C1180 1.314 . S
N1177 C1181 1.279 . S
C1178 C1176 1.348 . S
C1178 C1180 1.353 . S
C1178 H1220 0.929 . S
C1179 C1176 1.356 . S
C1179 C1181 1.358 . S
C1179 H1221 0.930 . S
C1180 N1177 1.314 . S
C1180 C1178 1.353 . S
C1180 H1222 0.930 . S
C1181 N1177 1.279 . S
C1181 C1179 1.358 . S
C1181 H1223 0.930 . S
C1182 C1183 1.348 . S
C1182 C1184 1.356 . S
C1182 O1207 1.325 . S
C1183 C1182 1.348 . S
C1183 C1185 1.353 . S
C1183 H1224 0.929 . S
C1184 C1182 1.356 . S
C1184 C1186 1.358 . S
C1184 H1225 0.930 . S
C1185 C1183 1.353 . S
C1185 N1187 1.314 . S
C1185 H1226 0.930 . S
C1186 C1184 1.358 . S
C1186 N1187 1.279 . S
C1186 H1227 0.930 . S
N1187 C1185 1.314 . S
N1187 C1186 1.279 . S
C1188 C1190 1.353 . S
C1188 N1191 1.314 . S
C1188 H1194 0.930 . S
C1189 N1191 1.279 . S
C1189 C1192 1.358 . S
C1189 H1195 0.930 . S
C1190 C1188 1.353 . S
C1190 C1193 1.348 . S
C1190 H1228 0.929 . S
N1191 Li1146 1.990 . S
N1191 C1188 1.314 . S
N1191 C1189 1.279 . S
C1192 C1189 1.358 . S
C1192 C1193 1.356 . S
C1192 H1229 0.930 . S
C1193 C1190 1.348 . S
C1193 C1192 1.356 . S
H1194 C1188 0.930 . S
H1195 C1189 0.930 . S
C1196 N1197 1.314 . S
C1196 C1198 1.353 . S
C1196 H1202 0.930 . S
N1197 Li1147 1.990 . S
N1197 C1196 1.314 . S
N1197 C1200 1.279 . S
C1198 C1196 1.353 . S
C1198 C1201 1.348 . S
C1198 H1230 0.929 . S
C1199 C1200 1.358 . S
C1199 C1201 1.356 . S
C1199 H1231 0.930 . S
C1200 N1197 1.279 . S
C1200 C1199 1.358 . S
C1200 H1203 0.930 . S
C1201 C1198 1.348 . S
C1201 C1199 1.356 . S
H1202 C1196 0.930 . S
H1203 C1200 0.930 . S
O1204 Li1144 1.956 . S
O1204 Li1145 1.970 . S
O1204 Li1146 1.961 . S
O1204 C1148 1.325 . S
O1205 Li1144 1.970 . S
O1205 Li1145 1.956 . S
O1205 Li1147 1.961 . S
O1205 C1154 1.325 . S
O1206 Li1144 1.961 . S
O1206 Li1146 1.956 . S
O1206 Li1147 1.970 . S
O1206 C1176 1.325 . S
O1207 Li1145 1.961 . S
O1207 Li1146 1.970 . S
O1207 Li1147 1.956 . S
O1207 C1182 1.325 . S
H1208 C1150 0.929 . S
H1209 C1151 0.930 . S
H1210 C1152 0.930 . S
H1211 C1153 0.930 . S
H1212 C1155 0.930 . S
H1213 C1157 0.929 . S
H1214 C1158 0.930 . S
H1215 C1159 0.930 . S
H1216 C1162 0.930 . S
H1217 C1165 0.929 . S
H1218 C1170 0.929 . S
H1219 C1171 0.930 . S
H1220 C1178 0.929 . S
H1221 C1179 0.930 . S
H1222 C1180 0.930 . S
H1223 C1181 0.930 . S
H1224 C1183 0.929 . S
H1225 C1184 0.930 . S
H1226 C1185 0.930 . S
H1227 C1186 0.930 . S
H1228 C1190 0.929 . S
H1229 C1192 0.930 . S
H1230 C1198 0.929 . S
H1231 C1199 0.930 . S
Li1232 N1249 1.990 . S
Li1232 O1292 1.956 . S
Li1232 O1293 1.970 . S
Li1232 O1294 1.961 . S
Li1233 N1257 1.990 . S
Li1233 O1292 1.970 . S
Li1233 O1293 1.956 . S
Li1233 O1295 1.961 . S
Li1234 N1279 1.990 . S
Li1234 O1292 1.961 . S
Li1234 O1294 1.956 . S
Li1234 O1295 1.970 . S
Li1235 N1285 1.990 . S
Li1235 O1293 1.961 . S
Li1235 O1294 1.970 . S
Li1235 O1295 1.956 . S
C1236 C1238 1.348 . S
C1236 C1239 1.356 . S
C1236 O1292 1.325 . S
N1237 C1240 1.314 . S
N1237 C1241 1.279 . S
C1238 C1236 1.348 . S
C1238 C1240 1.353 . S
C1238 H1296 0.929 . S
C1239 C1236 1.356 . S
C1239 C1241 1.358 . S
C1239 H1297 0.930 . S
C1240 N1237 1.314 . S
C1240 C1238 1.353 . S
C1240 H1298 0.930 . S
C1241 N1237 1.279 . S
C1241 C1239 1.358 . S
C1241 H1299 0.930 . S
C1242 C1245 1.348 . S
C1242 C1246 1.356 . S
C1242 O1293 1.325 . S
C1243 N1244 1.279 . S
C1243 C1246 1.358 . S
C1243 H1300 0.930 . S
N1244 C1243 1.279 . S
N1244 C1247 1.314 . S
C1245 C1242 1.348 . S
C1245 C1247 1.353 . S
C1245 H1301 0.929 . S
C1246 C1242 1.356 . S
C1246 C1243 1.358 . S
C1246 H1302 0.930 . S
C1247 N1244 1.314 . S
C1247 C1245 1.353 . S
C1247 H1303 0.930 . S
C1248 N1249 1.314 . S
C1248 C1253 1.353 . S
C1248 H1254 0.930 . S
N1249 Li1232 1.990 . S
N1249 C1248 1.314 . S
N1249 C1251 1.279 . S
C1250 C1251 1.358 . S
C1250 C1252 1.356 . S
C1250 H1304 0.930 . S
C1251 N1249 1.279 . S
C1251 C1250 1.358 . S
C1251 H1255 0.930 . S
C1252 C1250 1.356 . S
C1252 C1253 1.348 . S
C1253 C1248 1.353 . S
C1253 C1252 1.348 . S
C1253 H1305 0.929 . S
H1254 C1248 0.930 . S
H1255 C1251 0.930 . S
C1256 N1257 1.314 . S
C1256 C1258 1.353 . S
C1256 H1262 0.930 . S
N1257 Li1233 1.990 . S
N1257 C1256 1.314 . S
N1257 C1260 1.279 . S
C1258 C1256 1.353 . S
C1258 C1261 1.348 . S
C1258 H1306 0.929 . S
C1259 C1260 1.358 . S
C1259 C1261 1.356 . S
C1259 H1307 0.930 . S
C1260 N1257 1.279 . S
C1260 C1259 1.358 . S
C1260 H1263 0.930 . S
C1261 C1258 1.348 . S
C1261 C1259 1.356 . S
H1262 C1256 0.930 . S
H1263 C1260 0.930 . S
C1264 C1266 1.348 . S
C1264 C1267 1.356 . S
C1264 O1294 1.325 . S
N1265 C1268 1.314 . S
N1265 C1269 1.279 . S
C1266 C1264 1.348 . S
C1266 C1268 1.353 . S
C1266 H1308 0.929 . S
C1267 C1264 1.356 . S
C1267 C1269 1.358 . S
C1267 H1309 0.930 . S
C1268 N1265 1.314 . S
C1268 C1266 1.353 . S
C1268 H1310 0.930 . S
C1269 N1265 1.279 . S
C1269 C1267 1.358 . S
C1269 H1311 0.930 . S
C1270 C1271 1.348 . S
C1270 C1272 1.356 . S
C1270 O1295 1.325 . S
C1271 C1270 1.348 . S
C1271 C1273 1.353 . S
C1271 H1312 0.929 . S
C1272 C1270 1.356 . S
C1272 C1274 1.358 . S
C1272 H1313 0.930 . S
C1273 C1271 1.353 . S
C1273 N1275 1.314 . S
C1273 H1314 0.930 . S
C1274 C1272 1.358 . S
C1274 N1275 1.279 . S
C1274 H1315 0.930 . S
N1275 C1273 1.314 . S
N1275 C1274 1.279 . S
C1276 C1278 1.353 . S
C1276 N1279 1.314 . S
C1276 H1282 0.930 . S
C1277 N1279 1.279 . S
C1277 C1280 1.358 . S
C1277 H1283 0.930 . S
C1278 C1276 1.353 . S
C1278 C1281 1.348 . S
C1278 H1316 0.929 . S
N1279 Li1234 1.990 . S
N1279 C1276 1.314 . S
N1279 C1277 1.279 . S
C1280 C1277 1.358 . S
C1280 C1281 1.356 . S
C1280 H1317 0.930 . S
C1281 C1278 1.348 . S
C1281 C1280 1.356 . S
H1282 C1276 0.930 . S
H1283 C1277 0.930 . S
C1284 N1285 1.314 . S
C1284 C1286 1.353 . S
C1284 H1290 0.930 . S
N1285 Li1235 1.990 . S
N1285 C1284 1.314 . S
N1285 C1288 1.279 . S
C1286 C1284 1.353 . S
C1286 C1289 1.348 . S
C1286 H1318 0.929 . S
C1287 C1288 1.358 . S
C1287 C1289 1.356 . S
C1287 H1319 0.930 . S
C1288 N1285 1.279 . S
C1288 C1287 1.358 . S
C1288 H1291 0.930 . S
C1289 C1286 1.348 . S
C1289 C1287 1.356 . S
H1290 C1284 0.930 . S
H1291 C1288 0.930 . S
O1292 Li1232 1.956 . S
O1292 Li1233 1.970 . S
O1292 Li1234 1.961 . S
O1292 C1236 1.325 . S
O1293 Li1232 1.970 . S
O1293 Li1233 1.956 . S
O1293 Li1235 1.961 . S
O1293 C1242 1.325 . S
O1294 Li1232 1.961 . S
O1294 Li1234 1.956 . S
O1294 Li1235 1.970 . S
O1294 C1264 1.325 . S
O1295 Li1233 1.961 . S
O1295 Li1234 1.970 . S
O1295 Li1235 1.956 . S
O1295 C1270 1.325 . S
H1296 C1238 0.929 . S
H1297 C1239 0.930 . S
H1298 C1240 0.930 . S
H1299 C1241 0.930 . S
H1300 C1243 0.930 . S
H1301 C1245 0.929 . S
H1302 C1246 0.930 . S
H1303 C1247 0.930 . S
H1304 C1250 0.930 . S
H1305 C1253 0.929 . S
H1306 C1258 0.929 . S
H1307 C1259 0.930 . S
H1308 C1266 0.929 . S
H1309 C1267 0.930 . S
H1310 C1268 0.930 . S
H1311 C1269 0.930 . S
H1312 C1271 0.929 . S
H1313 C1272 0.930 . S
H1314 C1273 0.930 . S
H1315 C1274 0.930 . S
H1316 C1278 0.929 . S
H1317 C1280 0.930 . S
H1318 C1286 0.929 . S
H1319 C1287 0.930 . S
Li1320 N1337 1.990 . S
Li1320 O1380 1.956 . S
Li1320 O1381 1.970 . S
Li1320 O1382 1.961 . S
Li1321 N1345 1.990 . S
Li1321 O1380 1.970 . S
Li1321 O1381 1.956 . S
Li1321 O1383 1.961 . S
Li1322 N1367 1.990 . S
Li1322 O1380 1.961 . S
Li1322 O1382 1.956 . S
Li1322 O1383 1.970 . S
Li1323 N1373 1.990 . S
Li1323 O1381 1.961 . S
Li1323 O1382 1.970 . S
Li1323 O1383 1.956 . S
C1324 C1326 1.348 . S
C1324 C1327 1.356 . S
C1324 O1380 1.325 . S
N1325 C1328 1.314 . S
N1325 C1329 1.279 . S
C1326 C1324 1.348 . S
C1326 C1328 1.353 . S
C1326 H1384 0.929 . S
C1327 C1324 1.356 . S
C1327 C1329 1.358 . S
C1327 H1385 0.930 . S
C1328 N1325 1.314 . S
C1328 C1326 1.353 . S
C1328 H1386 0.930 . S
C1329 N1325 1.279 . S
C1329 C1327 1.358 . S
C1329 H1387 0.930 . S
C1330 C1333 1.348 . S
C1330 C1334 1.356 . S
C1330 O1381 1.325 . S
C1331 N1332 1.279 . S
C1331 C1334 1.358 . S
C1331 H1388 0.930 . S
N1332 C1331 1.279 . S
N1332 C1335 1.314 . S
C1333 C1330 1.348 . S
C1333 C1335 1.353 . S
C1333 H1389 0.929 . S
C1334 C1330 1.356 . S
C1334 C1331 1.358 . S
C1334 H1390 0.930 . S
C1335 N1332 1.314 . S
C1335 C1333 1.353 . S
C1335 H1391 0.930 . S
C1336 N1337 1.314 . S
C1336 C1341 1.353 . S
C1336 H1342 0.930 . S
N1337 Li1320 1.990 . S
N1337 C1336 1.314 . S
N1337 C1339 1.279 . S
C1338 C1339 1.358 . S
C1338 C1340 1.356 . S
C1338 H1392 0.930 . S
C1339 N1337 1.279 . S
C1339 C1338 1.358 . S
C1339 H1343 0.930 . S
C1340 C1338 1.356 . S
C1340 C1341 1.348 . S
C1341 C1336 1.353 . S
C1341 C1340 1.348 . S
C1341 H1393 0.929 . S
H1342 C1336 0.930 . S
H1343 C1339 0.930 . S
C1344 N1345 1.314 . S
C1344 C1346 1.353 . S
C1344 H1350 0.930 . S
N1345 Li1321 1.990 . S
N1345 C1344 1.314 . S
N1345 C1348 1.279 . S
C1346 C1344 1.353 . S
C1346 C1349 1.348 . S
C1346 H1394 0.929 . S
C1347 C1348 1.358 . S
C1347 C1349 1.356 . S
C1347 H1395 0.930 . S
C1348 N1345 1.279 . S
C1348 C1347 1.358 . S
C1348 H1351 0.930 . S
C1349 C1346 1.348 . S
C1349 C1347 1.356 . S
H1350 C1344 0.930 . S
H1351 C1348 0.930 . S
C1352 C1354 1.348 . S
C1352 C1355 1.356 . S
C1352 O1382 1.325 . S
N1353 C1356 1.314 . S
N1353 C1357 1.279 . S
C1354 C1352 1.348 . S
C1354 C1356 1.353 . S
C1354 H1396 0.929 . S
C1355 C1352 1.356 . S
C1355 C1357 1.358 . S
C1355 H1397 0.930 . S
C1356 N1353 1.314 . S
C1356 C1354 1.353 . S
C1356 H1398 0.930 . S
C1357 N1353 1.279 . S
C1357 C1355 1.358 . S
C1357 H1399 0.930 . S
C1358 C1359 1.348 . S
C1358 C1360 1.356 . S
C1358 O1383 1.325 . S
C1359 C1358 1.348 . S
C1359 C1361 1.353 . S
C1359 H1400 0.929 . S
C1360 C1358 1.356 . S
C1360 C1362 1.358 . S
C1360 H1401 0.930 . S
C1361 C1359 1.353 . S
C1361 N1363 1.314 . S
C1361 H1402 0.930 . S
C1362 C1360 1.358 . S
C1362 N1363 1.279 . S
C1362 H1403 0.930 . S
N1363 C1361 1.314 . S
N1363 C1362 1.279 . S
C1364 C1366 1.353 . S
C1364 N1367 1.314 . S
C1364 H1370 0.930 . S
C1365 N1367 1.279 . S
C1365 C1368 1.358 . S
C1365 H1371 0.930 . S
C1366 C1364 1.353 . S
C1366 C1369 1.348 . S
C1366 H1404 0.929 . S
N1367 Li1322 1.990 . S
N1367 C1364 1.314 . S
N1367 C1365 1.279 . S
C1368 C1365 1.358 . S
C1368 C1369 1.356 . S
C1368 H1405 0.930 . S
C1369 C1366 1.348 . S
C1369 C1368 1.356 . S
H1370 C1364 0.930 . S
H1371 C1365 0.930 . S
C1372 N1373 1.314 . S
C1372 C1374 1.353 . S
C1372 H1378 0.930 . S
N1373 Li1323 1.990 . S
N1373 C1372 1.314 . S
N1373 C1376 1.279 . S
C1374 C1372 1.353 . S
C1374 C1377 1.348 . S
C1374 H1406 0.929 . S
C1375 C1376 1.358 . S
C1375 C1377 1.356 . S
C1375 H1407 0.930 . S
C1376 N1373 1.279 . S
C1376 C1375 1.358 . S
C1376 H1379 0.930 . S
C1377 C1374 1.348 . S
C1377 C1375 1.356 . S
H1378 C1372 0.930 . S
H1379 C1376 0.930 . S
O1380 Li1320 1.956 . S
O1380 Li1321 1.970 . S
O1380 Li1322 1.961 . S
O1380 C1324 1.325 . S
O1381 Li1320 1.970 . S
O1381 Li1321 1.956 . S
O1381 Li1323 1.961 . S
O1381 C1330 1.325 . S
O1382 Li1320 1.961 . S
O1382 Li1322 1.956 . S
O1382 Li1323 1.970 . S
O1382 C1352 1.325 . S
O1383 Li1321 1.961 . S
O1383 Li1322 1.970 . S
O1383 Li1323 1.956 . S
O1383 C1358 1.325 . S
H1384 C1326 0.929 . S
H1385 C1327 0.930 . S
H1386 C1328 0.930 . S
H1387 C1329 0.930 . S
H1388 C1331 0.930 . S
H1389 C1333 0.929 . S
H1390 C1334 0.930 . S
H1391 C1335 0.930 . S
H1392 C1338 0.930 . S
H1393 C1341 0.929 . S
H1394 C1346 0.929 . S
H1395 C1347 0.930 . S
H1396 C1354 0.929 . S
H1397 C1355 0.930 . S
H1398 C1356 0.930 . S
H1399 C1357 0.930 . S
H1400 C1359 0.929 . S
H1401 C1360 0.930 . S
H1402 C1361 0.930 . S
H1403 C1362 0.930 . S
H1404 C1366 0.929 . S
H1405 C1368 0.930 . S
H1406 C1374 0.929 . S
H1407 C1375 0.930 . S
H1408 C1416 0.929 . S
H1409 C1418 0.930 . S
H1410 C1420 0.930 . S
H1411 C1423 0.929 . S
H1412 C1426 0.930 . S
H1413 C1428 0.960 . S
H1414 C1428 0.960 . S
H1415 C1428 0.960 . S
C1416 H1408 0.929 . S
C1416 C1417 1.377 . S
C1416 C1418 1.384 . S
C1417 C1416 1.377 . S
C1417 C1423 1.390 . S
C1418 H1409 0.930 . S
C1418 C1416 1.384 . S
C1418 C1419 1.372 . S
C1419 C1418 1.372 . S
C1419 C1420 1.400 . S
C1419 C1424 1.490 . S
C1420 H1410 0.930 . S
C1420 C1419 1.400 . S
C1420 C1423 1.386 . S
H1421 C1437 0.930 . S
H1422 C1438 0.931 . S
C1423 H1411 0.929 . S
C1423 C1417 1.390 . S
C1423 C1420 1.386 . S
C1424 C1419 1.490 . S
C1424 C1426 1.395 . S
C1424 C1427 1.403 . S
H1425 C1431 0.930 . S
C1426 H1412 0.930 . S
C1426 C1424 1.395 . S
C1426 C1429 1.403 . S
C1427 C1424 1.403 . S
C1427 C1428 1.524 . S
C1427 C1431 1.400 . S
C1428 H1413 0.960 . S
C1428 H1414 0.960 . S
C1428 H1415 0.960 . S
C1428 C1427 1.524 . S
C1429 C1426 1.403 . S
C1429 C1430 1.392 . S
C1429 C1433 1.495 . S
C1430 C1429 1.392 . S
C1430 C1431 1.385 . S
C1430 C1432 1.478 . S
C1431 H1425 0.930 . S
C1431 C1427 1.400 . S
C1431 C1430 1.385 . S
C1432 C1430 1.478 . S
C1432 C1434 1.381 . S
C1432 C1438 1.383 . S
C1433 C1429 1.495 . S
C1433 H1439 0.959 . S
C1433 H1440 0.961 . S
C1433 H1441 0.960 . S
C1434 C1432 1.381 . S
C1434 C1435 1.394 . S
C1434 H1442 0.930 . S
C1435 C1434 1.394 . S
C1435 C1436 1.383 . S
C1435 H1443 0.929 . S
C1436 C1435 1.383 . S
C1436 C1437 1.377 . S
C1437 H1421 0.930 . S
C1437 C1436 1.377 . S
C1437 C1438 1.379 . S
C1438 H1422 0.931 . S
C1438 C1432 1.383 . S
C1438 C1437 1.379 . S
H1439 C1433 0.959 . S
H1440 C1433 0.961 . S
H1441 C1433 0.960 . S
H1442 C1434 0.930 . S
H1443 C1435 0.929 . S
H1444 C1452 0.929 . S
H1445 C1454 0.930 . S
H1446 C1456 0.930 . S
H1447 C1459 0.929 . S
H1448 C1462 0.930 . S
H1449 C1464 0.960 . S
H1450 C1464 0.960 . S
H1451 C1464 0.960 . S
C1452 H1444 0.929 . S
C1452 C1453 1.377 . S
C1452 C1454 1.384 . S
C1453 C1452 1.377 . S
C1453 C1459 1.390 . S
C1454 H1445 0.930 . S
C1454 C1452 1.384 . S
C1454 C1455 1.372 . S
C1455 C1454 1.372 . S
C1455 C1456 1.400 . S
C1455 C1460 1.490 . S
C1456 H1446 0.930 . S
C1456 C1455 1.400 . S
C1456 C1459 1.386 . S
H1457 C1473 0.930 . S
H1458 C1474 0.931 . S
C1459 H1447 0.929 . S
C1459 C1453 1.390 . S
C1459 C1456 1.386 . S
C1460 C1455 1.490 . S
C1460 C1462 1.395 . S
C1460 C1463 1.403 . S
H1461 C1467 0.930 . S
C1462 H1448 0.930 . S
C1462 C1460 1.395 . S
C1462 C1465 1.403 . S
C1463 C1460 1.403 . S
C1463 C1464 1.524 . S
C1463 C1467 1.400 . S
C1464 H1449 0.960 . S
C1464 H1450 0.960 . S
C1464 H1451 0.960 . S
C1464 C1463 1.524 . S
C1465 C1462 1.403 . S
C1465 C1466 1.392 . S
C1465 C1469 1.495 . S
C1466 C1465 1.392 . S
C1466 C1467 1.385 . S
C1466 C1468 1.478 . S
C1467 H1461 0.930 . S
C1467 C1463 1.400 . S
C1467 C1466 1.385 . S
C1468 C1466 1.478 . S
C1468 C1470 1.381 . S
C1468 C1474 1.383 . S
C1469 C1465 1.495 . S
C1469 H1475 0.959 . S
C1469 H1476 0.961 . S
C1469 H1477 0.960 . S
C1470 C1468 1.381 . S
C1470 C1471 1.394 . S
C1470 H1478 0.930 . S
C1471 C1470 1.394 . S
C1471 C1472 1.383 . S
C1471 H1479 0.929 . S
C1472 C1471 1.383 . S
C1472 C1473 1.377 . S
C1473 H1457 0.930 . S
C1473 C1472 1.377 . S
C1473 C1474 1.379 . S
C1474 H1458 0.931 . S
C1474 C1468 1.383 . S
C1474 C1473 1.379 . S
H1475 C1469 0.959 . S
H1476 C1469 0.961 . S
H1477 C1469 0.960 . S
H1478 C1470 0.930 . S
H1479 C1471 0.929 . S
H1480 C1488 0.929 . S
H1481 C1490 0.930 . S
H1482 C1492 0.930 . S
H1483 C1495 0.929 . S
H1484 C1498 0.930 . S
H1485 C1500 0.960 . S
H1486 C1500 0.960 . S
H1487 C1500 0.960 . S
C1488 H1480 0.929 . S
C1488 C1489 1.377 . S
C1488 C1490 1.384 . S
C1489 C1488 1.377 . S
C1489 C1495 1.390 . S
C1490 H1481 0.930 . S
C1490 C1488 1.384 . S
C1490 C1491 1.372 . S
C1491 C1490 1.372 . S
C1491 C1492 1.400 . S
C1491 C1496 1.490 . S
C1492 H1482 0.930 . S
C1492 C1491 1.400 . S
C1492 C1495 1.386 . S
H1493 C1509 0.930 . S
H1494 C1510 0.931 . S
C1495 H1483 0.929 . S
C1495 C1489 1.390 . S
C1495 C1492 1.386 . S
C1496 C1491 1.490 . S
C1496 C1498 1.395 . S
C1496 C1499 1.403 . S
H1497 C1503 0.930 . S
C1498 H1484 0.930 . S
C1498 C1496 1.395 . S
C1498 C1501 1.403 . S
C1499 C1496 1.403 . S
C1499 C1500 1.524 . S
C1499 C1503 1.400 . S
C1500 H1485 0.960 . S
C1500 H1486 0.960 . S
C1500 H1487 0.960 . S
C1500 C1499 1.524 . S
C1501 C1498 1.403 . S
C1501 C1502 1.392 . S
C1501 C1505 1.495 . S
C1502 C1501 1.392 . S
C1502 C1503 1.385 . S
C1502 C1504 1.478 . S
C1503 H1497 0.930 . S
C1503 C1499 1.400 . S
C1503 C1502 1.385 . S
C1504 C1502 1.478 . S
C1504 C1506 1.381 . S
C1504 C1510 1.383 . S
C1505 C1501 1.495 . S
C1505 H1511 0.959 . S
C1505 H1512 0.961 . S
C1505 H1513 0.960 . S
C1506 C1504 1.381 . S
C1506 C1507 1.394 . S
C1506 H1514 0.930 . S
C1507 C1506 1.394 . S
C1507 C1508 1.383 . S
C1507 H1515 0.929 . S
C1508 C1507 1.383 . S
C1508 C1509 1.377 . S
C1509 H1493 0.930 . S
C1509 C1508 1.377 . S
C1509 C1510 1.379 . S
C1510 H1494 0.931 . S
C1510 C1504 1.383 . S
C1510 C1509 1.379 . S
H1511 C1505 0.959 . S
H1512 C1505 0.961 . S
H1513 C1505 0.960 . S
H1514 C1506 0.930 . S
H1515 C1507 0.929 . S
H1516 C1524 0.929 . S
H1517 C1526 0.930 . S
H1518 C1528 0.930 . S
H1519 C1531 0.929 . S
H1520 C1534 0.930 . S
H1521 C1536 0.960 . S
H1522 C1536 0.960 . S
H1523 C1536 0.960 . S
C1524 H1516 0.929 . S
C1524 C1525 1.377 . S
C1524 C1526 1.384 . S
C1525 C1524 1.377 . S
C1525 C1531 1.390 . S
C1526 H1517 0.930 . S
C1526 C1524 1.384 . S
C1526 C1527 1.372 . S
C1527 C1526 1.372 . S
C1527 C1528 1.400 . S
C1527 C1532 1.490 . S
C1528 H1518 0.930 . S
C1528 C1527 1.400 . S
C1528 C1531 1.386 . S
H1529 C1545 0.930 . S
H1530 C1546 0.931 . S
C1531 H1519 0.929 . S
C1531 C1525 1.390 . S
C1531 C1528 1.386 . S
C1532 C1527 1.490 . S
C1532 C1534 1.395 . S
C1532 C1535 1.403 . S
H1533 C1539 0.930 . S
C1534 H1520 0.930 . S
C1534 C1532 1.395 . S
C1534 C1537 1.403 . S
C1535 C1532 1.403 . S
C1535 C1536 1.524 . S
C1535 C1539 1.400 . S
C1536 H1521 0.960 . S
C1536 H1522 0.960 . S
C1536 H1523 0.960 . S
C1536 C1535 1.524 . S
C1537 C1534 1.403 . S
C1537 C1538 1.392 . S
C1537 C1541 1.495 . S
C1538 C1537 1.392 . S
C1538 C1539 1.385 . S
C1538 C1540 1.478 . S
C1539 H1533 0.930 . S
C1539 C1535 1.400 . S
C1539 C1538 1.385 . S
C1540 C1538 1.478 . S
C1540 C1542 1.381 . S
C1540 C1546 1.383 . S
C1541 C1537 1.495 . S
C1541 H1547 0.959 . S
C1541 H1548 0.961 . S
C1541 H1549 0.960 . S
C1542 C1540 1.381 . S
C1542 C1543 1.394 . S
C1542 H1550 0.930 . S
C1543 C1542 1.394 . S
C1543 C1544 1.383 . S
C1543 H1551 0.929 . S
C1544 C1543 1.383 . S
C1544 C1545 1.377 . S
C1545 H1529 0.930 . S
C1545 C1544 1.377 . S
C1545 C1546 1.379 . S
C1546 H1530 0.931 . S
C1546 C1540 1.383 . S
C1546 C1545 1.379 . S
H1547 C1541 0.959 . S
H1548 C1541 0.961 . S
H1549 C1541 0.960 . S
H1550 C1542 0.930 . S
H1551 C1543 0.929 . S
H1552 C1560 0.929 . S
H1553 C1562 0.930 . S
H1554 C1564 0.930 . S
H1555 C1567 0.929 . S
H1556 C1570 0.930 . S
H1557 C1572 0.960 . S
H1558 C1572 0.960 . S
H1559 C1572 0.960 . S
C1560 H1552 0.929 . S
C1560 C1561 1.377 . S
C1560 C1562 1.384 . S
C1561 C1560 1.377 . S
C1561 C1567 1.390 . S
C1562 H1553 0.930 . S
C1562 C1560 1.384 . S
C1562 C1563 1.372 . S
C1563 C1562 1.372 . S
C1563 C1564 1.400 . S
C1563 C1568 1.490 . S
C1564 H1554 0.930 . S
C1564 C1563 1.400 . S
C1564 C1567 1.386 . S
H1565 C1581 0.930 . S
H1566 C1582 0.931 . S
C1567 H1555 0.929 . S
C1567 C1561 1.390 . S
C1567 C1564 1.386 . S
C1568 C1563 1.490 . S
C1568 C1570 1.395 . S
C1568 C1571 1.403 . S
H1569 C1575 0.930 . S
C1570 H1556 0.930 . S
C1570 C1568 1.395 . S
C1570 C1573 1.403 . S
C1571 C1568 1.403 . S
C1571 C1572 1.524 . S
C1571 C1575 1.400 . S
C1572 H1557 0.960 . S
C1572 H1558 0.960 . S
C1572 H1559 0.960 . S
C1572 C1571 1.524 . S
C1573 C1570 1.403 . S
C1573 C1574 1.392 . S
C1573 C1577 1.495 . S
C1574 C1573 1.392 . S
C1574 C1575 1.385 . S
C1574 C1576 1.478 . S
C1575 H1569 0.930 . S
C1575 C1571 1.400 . S
C1575 C1574 1.385 . S
C1576 C1574 1.478 . S
C1576 C1578 1.381 . S
C1576 C1582 1.383 . S
C1577 C1573 1.495 . S
C1577 H1583 0.959 . S
C1577 H1584 0.961 . S
C1577 H1585 0.960 . S
C1578 C1576 1.381 . S
C1578 C1579 1.394 . S
C1578 H1586 0.930 . S
C1579 C1578 1.394 . S
C1579 C1580 1.383 . S
C1579 H1587 0.929 . S
C1580 C1579 1.383 . S
C1580 C1581 1.377 . S
C1581 H1565 0.930 . S
C1581 C1580 1.377 . S
C1581 C1582 1.379 . S
C1582 H1566 0.931 . S
C1582 C1576 1.383 . S
C1582 C1581 1.379 . S
H1583 C1577 0.959 . S
H1584 C1577 0.961 . S
H1585 C1577 0.960 . S
H1586 C1578 0.930 . S
H1587 C1579 0.929 . S
H1588 C1596 0.929 . S
H1589 C1598 0.930 . S
H1590 C1600 0.930 . S
H1591 C1603 0.929 . S
H1592 C1606 0.930 . S
H1593 C1608 0.960 . S
H1594 C1608 0.960 . S
H1595 C1608 0.960 . S
C1596 H1588 0.929 . S
C1596 C1597 1.377 . S
C1596 C1598 1.384 . S
C1597 C1596 1.377 . S
C1597 C1603 1.390 . S
C1598 H1589 0.930 . S
C1598 C1596 1.384 . S
C1598 C1599 1.372 . S
C1599 C1598 1.372 . S
C1599 C1600 1.400 . S
C1599 C1604 1.490 . S
C1600 H1590 0.930 . S
C1600 C1599 1.400 . S
C1600 C1603 1.386 . S
H1601 C1617 0.930 . S
H1602 C1618 0.931 . S
C1603 H1591 0.929 . S
C1603 C1597 1.390 . S
C1603 C1600 1.386 . S
C1604 C1599 1.490 . S
C1604 C1606 1.395 . S
C1604 C1607 1.403 . S
H1605 C1611 0.930 . S
C1606 H1592 0.930 . S
C1606 C1604 1.395 . S
C1606 C1609 1.403 . S
C1607 C1604 1.403 . S
C1607 C1608 1.524 . S
C1607 C1611 1.400 . S
C1608 H1593 0.960 . S
C1608 H1594 0.960 . S
C1608 H1595 0.960 . S
C1608 C1607 1.524 . S
C1609 C1606 1.403 . S
C1609 C1610 1.392 . S
C1609 C1613 1.495 . S
C1610 C1609 1.392 . S
C1610 C1611 1.385 . S
C1610 C1612 1.478 . S
C1611 H1605 0.930 . S
C1611 C1607 1.400 . S
C1611 C1610 1.385 . S
C1612 C1610 1.478 . S
C1612 C1614 1.381 . S
C1612 C1618 1.383 . S
C1613 C1609 1.495 . S
C1613 H1619 0.959 . S
C1613 H1620 0.961 . S
C1613 H1621 0.960 . S
C1614 C1612 1.381 . S
C1614 C1615 1.394 . S
C1614 H1622 0.930 . S
C1615 C1614 1.394 . S
C1615 C1616 1.383 . S
C1615 H1623 0.929 . S
C1616 C1615 1.383 . S
C1616 C1617 1.377 . S
C1617 H1601 0.930 . S
C1617 C1616 1.377 . S
C1617 C1618 1.379 . S
C1618 H1602 0.931 . S
C1618 C1612 1.383 . S
C1618 C1617 1.379 . S
H1619 C1613 0.959 . S
H1620 C1613 0.961 . S
H1621 C1613 0.960 . S
H1622 C1614 0.930 . S
H1623 C1615 0.929 . S
H1624 C1632 0.929 . S
H1625 C1634 0.930 . S
H1626 C1636 0.930 . S
H1627 C1639 0.929 . S
H1628 C1642 0.930 . S
H1629 C1644 0.960 . S
H1630 C1644 0.960 . S
H1631 C1644 0.960 . S
C1632 H1624 0.929 . S
C1632 C1633 1.377 . S
C1632 C1634 1.384 . S
C1633 C1632 1.377 . S
C1633 C1639 1.390 . S
C1634 H1625 0.930 . S
C1634 C1632 1.384 . S
C1634 C1635 1.372 . S
C1635 C1634 1.372 . S
C1635 C1636 1.400 . S
C1635 C1640 1.490 . S
C1636 H1626 0.930 . S
C1636 C1635 1.400 . S
C1636 C1639 1.386 . S
H1637 C1653 0.930 . S
H1638 C1654 0.931 . S
C1639 H1627 0.929 . S
C1639 C1633 1.390 . S
C1639 C1636 1.386 . S
C1640 C1635 1.490 . S
C1640 C1642 1.395 . S
C1640 C1643 1.403 . S
H1641 C1647 0.930 . S
C1642 H1628 0.930 . S
C1642 C1640 1.395 . S
C1642 C1645 1.403 . S
C1643 C1640 1.403 . S
C1643 C1644 1.524 . S
C1643 C1647 1.400 . S
C1644 H1629 0.960 . S
C1644 H1630 0.960 . S
C1644 H1631 0.960 . S
C1644 C1643 1.524 . S
C1645 C1642 1.403 . S
C1645 C1646 1.392 . S
C1645 C1649 1.495 . S
C1646 C1645 1.392 . S
C1646 C1647 1.385 . S
C1646 C1648 1.478 . S
C1647 H1641 0.930 . S
C1647 C1643 1.400 . S
C1647 C1646 1.385 . S
C1648 C1646 1.478 . S
C1648 C1650 1.381 . S
C1648 C1654 1.383 . S
C1649 C1645 1.495 . S
C1649 H1655 0.959 . S
C1649 H1656 0.961 . S
C1649 H1657 0.960 . S
C1650 C1648 1.381 . S
C1650 C1651 1.394 . S
C1650 H1658 0.930 . S
C1651 C1650 1.394 . S
C1651 C1652 1.383 . S
C1651 H1659 0.929 . S
C1652 C1651 1.383 . S
C1652 C1653 1.377 . S
C1653 H1637 0.930 . S
C1653 C1652 1.377 . S
C1653 C1654 1.379 . S
C1654 H1638 0.931 . S
C1654 C1648 1.383 . S
C1654 C1653 1.379 . S
H1655 C1649 0.959 . S
H1656 C1649 0.961 . S
H1657 C1649 0.960 . S
H1658 C1650 0.930 . S
H1659 C1651 0.929 . S
H1660 C1668 0.929 . S
H1661 C1670 0.930 . S
H1662 C1672 0.930 . S
H1663 C1675 0.929 . S
H1664 C1678 0.930 . S
H1665 C1680 0.960 . S
H1666 C1680 0.960 . S
H1667 C1680 0.960 . S
C1668 H1660 0.929 . S
C1668 C1669 1.377 . S
C1668 C1670 1.384 . S
C1669 C1668 1.377 . S
C1669 C1675 1.390 . S
C1670 H1661 0.930 . S
C1670 C1668 1.384 . S
C1670 C1671 1.372 . S
C1671 C1670 1.372 . S
C1671 C1672 1.400 . S
C1671 C1676 1.490 . S
C1672 H1662 0.930 . S
C1672 C1671 1.400 . S
C1672 C1675 1.386 . S
H1673 C1689 0.930 . S
H1674 C1690 0.931 . S
C1675 H1663 0.929 . S
C1675 C1669 1.390 . S
C1675 C1672 1.386 . S
C1676 C1671 1.490 . S
C1676 C1678 1.395 . S
C1676 C1679 1.403 . S
H1677 C1683 0.930 . S
C1678 H1664 0.930 . S
C1678 C1676 1.395 . S
C1678 C1681 1.403 . S
C1679 C1676 1.403 . S
C1679 C1680 1.524 . S
C1679 C1683 1.400 . S
C1680 H1665 0.960 . S
C1680 H1666 0.960 . S
C1680 H1667 0.960 . S
C1680 C1679 1.524 . S
C1681 C1678 1.403 . S
C1681 C1682 1.392 . S
C1681 C1685 1.495 . S
C1682 C1681 1.392 . S
C1682 C1683 1.385 . S
C1682 C1684 1.478 . S
C1683 H1677 0.930 . S
C1683 C1679 1.400 . S
C1683 C1682 1.385 . S
C1684 C1682 1.478 . S
C1684 C1686 1.381 . S
C1684 C1690 1.383 . S
C1685 C1681 1.495 . S
C1685 H1691 0.959 . S
C1685 H1692 0.961 . S
C1685 H1693 0.960 . S
C1686 C1684 1.381 . S
C1686 C1687 1.394 . S
C1686 H1694 0.930 . S
C1687 C1686 1.394 . S
C1687 C1688 1.383 . S
C1687 H1695 0.929 . S
C1688 C1687 1.383 . S
C1688 C1689 1.377 . S
C1689 H1673 0.930 . S
C1689 C1688 1.377 . S
C1689 C1690 1.379 . S
C1690 H1674 0.931 . S
C1690 C1684 1.383 . S
C1690 C1689 1.379 . S
H1691 C1685 0.959 . S
H1692 C1685 0.961 . S
H1693 C1685 0.960 . S
H1694 C1686 0.930 . S
H1695 C1687 0.929 . S
H1696 C1704 0.929 . S
H1697 C1706 0.930 . S
H1698 C1708 0.930 . S
H1699 C1711 0.929 . S
H1700 C1714 0.930 . S
H1701 C1716 0.960 . S
H1702 C1716 0.960 . S
H1703 C1716 0.960 . S
C1704 H1696 0.929 . S
C1704 C1705 1.377 . S
C1704 C1706 1.384 . S
C1705 C1704 1.377 . S
C1705 C1711 1.390 . S
C1706 H1697 0.930 . S
C1706 C1704 1.384 . S
C1706 C1707 1.372 . S
C1707 C1706 1.372 . S
C1707 C1708 1.400 . S
C1707 C1712 1.490 . S
C1708 H1698 0.930 . S
C1708 C1707 1.400 . S
C1708 C1711 1.386 . S
H1709 C1725 0.930 . S
H1710 C1726 0.931 . S
C1711 H1699 0.929 . S
C1711 C1705 1.390 . S
C1711 C1708 1.386 . S
C1712 C1707 1.490 . S
C1712 C1714 1.395 . S
C1712 C1715 1.403 . S
H1713 C1719 0.930 . S
C1714 H1700 0.930 . S
C1714 C1712 1.395 . S
C1714 C1717 1.403 1_556 S
C1715 C1712 1.403 . S
C1715 C1716 1.524 . S
C1715 C1719 1.400 1_556 S
C1716 H1701 0.960 . S
C1716 H1702 0.960 . S
C1716 H1703 0.960 . S
C1716 C1715 1.524 . S
C1717 C1714 1.403 1_554 S
C1717 C1718 1.392 . S
C1717 C1721 1.495 . S
C1718 C1717 1.392 . S
C1718 C1719 1.385 . S
C1718 C1720 1.478 . S
C1719 H1713 0.930 . S
C1719 C1715 1.400 1_554 S
C1719 C1718 1.385 . S
C1720 C1718 1.478 . S
C1720 C1722 1.381 . S
C1720 C1726 1.383 . S
C1721 C1717 1.495 . S
C1721 H1727 0.959 . S
C1721 H1728 0.961 . S
C1721 H1729 0.960 . S
C1722 C1720 1.381 . S
C1722 C1723 1.394 . S
C1722 H1730 0.930 . S
C1723 C1722 1.394 . S
C1723 C1724 1.383 . S
C1723 H1731 0.929 . S
C1724 C1723 1.383 . S
C1724 C1725 1.377 . S
C1725 H1709 0.930 . S
C1725 C1724 1.377 . S
C1725 C1726 1.379 . S
C1726 H1710 0.931 . S
C1726 C1720 1.383 . S
C1726 C1725 1.379 . S
H1727 C1721 0.959 . S
H1728 C1721 0.961 . S
H1729 C1721 0.960 . S
H1730 C1722 0.930 . S
H1731 C1723 0.929 . S
H1732 C1740 0.929 . S
H1733 C1742 0.930 . S
H1734 C1744 0.930 . S
H1735 C1747 0.929 . S
H1736 C1750 0.930 . S
H1737 C1752 0.960 . S
H1738 C1752 0.960 . S
H1739 C1752 0.960 . S
C1740 H1732 0.929 . S
C1740 C1741 1.377 . S
C1740 C1742 1.384 . S
C1741 C1740 1.377 . S
C1741 C1747 1.390 . S
C1742 H1733 0.930 . S
C1742 C1740 1.384 . S
C1742 C1743 1.372 . S
C1743 C1742 1.372 . S
C1743 C1744 1.400 . S
C1743 C1748 1.490 . S
C1744 H1734 0.930 . S
C1744 C1743 1.400 . S
C1744 C1747 1.386 . S
H1745 C1761 0.930 . S
H1746 C1762 0.931 . S
C1747 H1735 0.929 . S
C1747 C1741 1.390 . S
C1747 C1744 1.386 . S
C1748 C1743 1.490 . S
C1748 C1750 1.395 . S
C1748 C1751 1.403 . S
H1749 C1755 0.930 . S
C1750 H1736 0.930 . S
C1750 C1748 1.395 . S
C1750 C1753 1.403 1_556 S
C1751 C1748 1.403 . S
C1751 C1752 1.524 . S
C1751 C1755 1.400 1_556 S
C1752 H1737 0.960 . S
C1752 H1738 0.960 . S
C1752 H1739 0.960 . S
C1752 C1751 1.524 . S
C1753 C1750 1.403 1_554 S
C1753 C1754 1.392 . S
C1753 C1757 1.495 . S
C1754 C1753 1.392 . S
C1754 C1755 1.385 . S
C1754 C1756 1.478 . S
C1755 H1749 0.930 . S
C1755 C1751 1.400 1_554 S
C1755 C1754 1.385 . S
C1756 C1754 1.478 . S
C1756 C1758 1.381 . S
C1756 C1762 1.383 . S
C1757 C1753 1.495 . S
C1757 H1763 0.959 . S
C1757 H1764 0.961 . S
C1757 H1765 0.960 . S
C1758 C1756 1.381 . S
C1758 C1759 1.394 . S
C1758 H1766 0.930 . S
C1759 C1758 1.394 . S
C1759 C1760 1.383 . S
C1759 H1767 0.929 . S
C1760 C1759 1.383 . S
C1760 C1761 1.377 . S
C1761 H1745 0.930 . S
C1761 C1760 1.377 . S
C1761 C1762 1.379 . S
C1762 H1746 0.931 . S
C1762 C1756 1.383 . S
C1762 C1761 1.379 . S
H1763 C1757 0.959 . S
H1764 C1757 0.961 . S
H1765 C1757 0.960 . S
H1766 C1758 0.930 . S
H1767 C1759 0.929 . S
H1768 C1776 0.929 . S
H1769 C1778 0.930 . S
H1770 C1780 0.930 . S
H1771 C1783 0.929 . S
H1772 C1786 0.930 . S
H1773 C1788 0.960 . S
H1774 C1788 0.960 . S
H1775 C1788 0.960 . S
C1776 H1768 0.929 . S
C1776 C1777 1.377 . S
C1776 C1778 1.384 . S
C1777 C1776 1.377 . S
C1777 C1783 1.390 . S
C1778 H1769 0.930 . S
C1778 C1776 1.384 . S
C1778 C1779 1.372 . S
C1779 C1778 1.372 . S
C1779 C1780 1.400 . S
C1779 C1784 1.490 . S
C1780 H1770 0.930 . S
C1780 C1779 1.400 . S
C1780 C1783 1.386 . S
H1781 C1797 0.930 . S
H1782 C1798 0.931 . S
C1783 H1771 0.929 . S
C1783 C1777 1.390 . S
C1783 C1780 1.386 . S
C1784 C1779 1.490 . S
C1784 C1786 1.395 . S
C1784 C1787 1.403 . S
H1785 C1791 0.930 . S
C1786 H1772 0.930 . S
C1786 C1784 1.395 . S
C1786 C1789 1.403 1_556 S
C1787 C1784 1.403 . S
C1787 C1788 1.524 . S
C1787 C1791 1.400 1_556 S
C1788 H1773 0.960 . S
C1788 H1774 0.960 . S
C1788 H1775 0.960 . S
C1788 C1787 1.524 . S
C1789 C1786 1.403 1_554 S
C1789 C1790 1.392 . S
C1789 C1793 1.495 . S
C1790 C1789 1.392 . S
C1790 C1791 1.385 . S
C1790 C1792 1.478 . S
C1791 H1785 0.930 . S
C1791 C1787 1.400 1_554 S
C1791 C1790 1.385 . S
C1792 C1790 1.478 . S
C1792 C1794 1.381 . S
C1792 C1798 1.383 . S
C1793 C1789 1.495 . S
C1793 H1799 0.959 . S
C1793 H1800 0.961 . S
C1793 H1801 0.960 . S
C1794 C1792 1.381 . S
C1794 C1795 1.394 . S
C1794 H1802 0.930 . S
C1795 C1794 1.394 . S
C1795 C1796 1.383 . S
C1795 H1803 0.929 . S
C1796 C1795 1.383 . S
C1796 C1797 1.377 . S
C1797 H1781 0.930 . S
C1797 C1796 1.377 . S
C1797 C1798 1.379 . S
C1798 H1782 0.931 . S
C1798 C1792 1.383 . S
C1798 C1797 1.379 . S
H1799 C1793 0.959 . S
H1800 C1793 0.961 . S
H1801 C1793 0.960 . S
H1802 C1794 0.930 . S
H1803 C1795 0.929 . S
H1804 C1812 0.929 . S
H1805 C1814 0.930 . S
H1806 C1816 0.930 . S
H1807 C1819 0.929 . S
H1808 C1822 0.930 . S
H1809 C1824 0.960 . S
H1810 C1824 0.960 . S
H1811 C1824 0.960 . S
C1812 H1804 0.929 . S
C1812 C1813 1.377 . S
C1812 C1814 1.384 . S
C1813 C1812 1.377 . S
C1813 C1819 1.390 . S
C1814 H1805 0.930 . S
C1814 C1812 1.384 . S
C1814 C1815 1.372 . S
C1815 C1814 1.372 . S
C1815 C1816 1.400 . S
C1815 C1820 1.490 . S
C1816 H1806 0.930 . S
C1816 C1815 1.400 . S
C1816 C1819 1.386 . S
H1817 C1833 0.930 . S
H1818 C1834 0.931 . S
C1819 H1807 0.929 . S
C1819 C1813 1.390 . S
C1819 C1816 1.386 . S
C1820 C1815 1.490 . S
C1820 C1822 1.395 . S
C1820 C1823 1.403 . S
H1821 C1827 0.930 . S
C1822 H1808 0.930 . S
C1822 C1820 1.395 . S
C1822 C1825 1.403 1_554 S
C1823 C1820 1.403 . S
C1823 C1824 1.524 . S
C1823 C1827 1.400 1_554 S
C1824 H1809 0.960 . S
C1824 H1810 0.960 . S
C1824 H1811 0.960 . S
C1824 C1823 1.524 . S
C1825 C1822 1.403 1_556 S
C1825 C1826 1.392 . S
C1825 C1829 1.495 . S
C1826 C1825 1.392 . S
C1826 C1827 1.385 . S
C1826 C1828 1.478 . S
C1827 H1821 0.930 . S
C1827 C1823 1.400 1_556 S
C1827 C1826 1.385 . S
C1828 C1826 1.478 . S
C1828 C1830 1.381 . S
C1828 C1834 1.383 . S
C1829 C1825 1.495 . S
C1829 H1835 0.959 . S
C1829 H1836 0.961 . S
C1829 H1837 0.960 . S
C1830 C1828 1.381 . S
C1830 C1831 1.394 . S
C1830 H1838 0.930 . S
C1831 C1830 1.394 . S
C1831 C1832 1.383 . S
C1831 H1839 0.929 . S
C1832 C1831 1.383 . S
C1832 C1833 1.377 . S
C1833 H1817 0.930 . S
C1833 C1832 1.377 . S
C1833 C1834 1.379 . S
C1834 H1818 0.931 . S
C1834 C1828 1.383 . S
C1834 C1833 1.379 . S
H1835 C1829 0.959 . S
H1836 C1829 0.961 . S
H1837 C1829 0.960 . S
H1838 C1830 0.930 . S
H1839 C1831 0.929 . S
H1840 C1848 0.929 . S
H1841 C1850 0.930 . S
H1842 C1852 0.930 . S
H1843 C1855 0.929 . S
H1844 C1858 0.930 . S
H1845 C1860 0.960 . S
H1846 C1860 0.960 . S
H1847 C1860 0.960 . S
C1848 H1840 0.929 . S
C1848 C1849 1.377 . S
C1848 C1850 1.384 . S
C1849 C1848 1.377 . S
C1849 C1855 1.390 . S
C1850 H1841 0.930 . S
C1850 C1848 1.384 . S
C1850 C1851 1.372 . S
C1851 C1850 1.372 . S
C1851 C1852 1.400 . S
C1851 C1856 1.490 . S
C1852 H1842 0.930 . S
C1852 C1851 1.400 . S
C1852 C1855 1.386 . S
H1853 C1869 0.930 . S
H1854 C1870 0.931 . S
C1855 H1843 0.929 . S
C1855 C1849 1.390 . S
C1855 C1852 1.386 . S
C1856 C1851 1.490 . S
C1856 C1858 1.395 . S
C1856 C1859 1.403 . S
H1857 C1863 0.930 . S
C1858 H1844 0.930 . S
C1858 C1856 1.395 . S
C1858 C1861 1.403 1_455 S
C1859 C1856 1.403 . S
C1859 C1860 1.524 . S
C1859 C1863 1.400 1_455 S
C1860 H1845 0.960 . S
C1860 H1846 0.960 . S
C1860 H1847 0.960 . S
C1860 C1859 1.524 . S
C1861 C1858 1.403 1_655 S
C1861 C1862 1.392 . S
C1861 C1865 1.495 . S
C1862 C1861 1.392 . S
C1862 C1863 1.385 . S
C1862 C1864 1.478 . S
C1863 H1857 0.930 . S
C1863 C1859 1.400 1_655 S
C1863 C1862 1.385 . S
C1864 C1862 1.478 . S
C1864 C1866 1.381 . S
C1864 C1870 1.383 . S
C1865 C1861 1.495 . S
C1865 H1871 0.959 . S
C1865 H1872 0.961 . S
C1865 H1873 0.960 . S
C1866 C1864 1.381 . S
C1866 C1867 1.394 . S
C1866 H1874 0.930 . S
C1867 C1866 1.394 . S
C1867 C1868 1.383 . S
C1867 H1875 0.929 . S
C1868 C1867 1.383 . S
C1868 C1869 1.377 . S
C1869 H1853 0.930 . S
C1869 C1868 1.377 . S
C1869 C1870 1.379 . S
C1870 H1854 0.931 . S
C1870 C1864 1.383 . S
C1870 C1869 1.379 . S
H1871 C1865 0.959 . S
H1872 C1865 0.961 . S
H1873 C1865 0.960 . S
H1874 C1866 0.930 . S
H1875 C1867 0.929 . S
H1876 C1884 0.929 . S
H1877 C1886 0.930 . S
H1878 C1888 0.930 . S
H1879 C1891 0.929 . S
H1880 C1894 0.930 . S
H1881 C1896 0.960 . S
H1882 C1896 0.960 . S
H1883 C1896 0.960 . S
C1884 H1876 0.929 . S
C1884 C1885 1.377 . S
C1884 C1886 1.384 . S
C1885 C1884 1.377 . S
C1885 C1891 1.390 . S
C1886 H1877 0.930 . S
C1886 C1884 1.384 . S
C1886 C1887 1.372 . S
C1887 C1886 1.372 . S
C1887 C1888 1.400 . S
C1887 C1892 1.490 . S
C1888 H1878 0.930 . S
C1888 C1887 1.400 . S
C1888 C1891 1.386 . S
H1889 C1905 0.930 . S
H1890 C1906 0.931 . S
C1891 H1879 0.929 . S
C1891 C1885 1.390 . S
C1891 C1888 1.386 . S
C1892 C1887 1.490 . S
C1892 C1894 1.395 . S
C1892 C1895 1.403 . S
H1893 C1899 0.930 . S
C1894 H1880 0.930 . S
C1894 C1892 1.395 . S
C1894 C1897 1.403 1_565 S
C1895 C1892 1.403 . S
C1895 C1896 1.524 . S
C1895 C1899 1.400 1_565 S
C1896 H1881 0.960 . S
C1896 H1882 0.960 . S
C1896 H1883 0.960 . S
C1896 C1895 1.524 . S
C1897 C1894 1.403 1_545 S
C1897 C1898 1.392 . S
C1897 C1901 1.495 . S
C1898 C1897 1.392 . S
C1898 C1899 1.385 . S
C1898 C1900 1.478 . S
C1899 H1893 0.930 . S
C1899 C1895 1.400 1_545 S
C1899 C1898 1.385 . S
C1900 C1898 1.478 . S
C1900 C1902 1.381 . S
C1900 C1906 1.383 . S
C1901 C1897 1.495 . S
C1901 H1907 0.959 . S
C1901 H1908 0.961 . S
C1901 H1909 0.960 . S
C1902 C1900 1.381 . S
C1902 C1903 1.394 . S
C1902 H1910 0.930 . S
C1903 C1902 1.394 . S
C1903 C1904 1.383 . S
C1903 H1911 0.929 . S
C1904 C1903 1.383 . S
C1904 C1905 1.377 . S
C1905 H1889 0.930 . S
C1905 C1904 1.377 . S
C1905 C1906 1.379 . S
C1906 H1890 0.931 . S
C1906 C1900 1.383 . S
C1906 C1905 1.379 . S
H1907 C1901 0.959 . S
H1908 C1901 0.961 . S
H1909 C1901 0.960 . S
H1910 C1902 0.930 . S
H1911 C1903 0.929 . S
H1912 C1920 0.929 . S
H1913 C1922 0.930 . S
H1914 C1924 0.930 . S
H1915 C1927 0.929 . S
H1916 C1930 0.930 . S
H1917 C1932 0.960 . S
H1918 C1932 0.960 . S
H1919 C1932 0.960 . S
C1920 H1912 0.929 . S
C1920 C1921 1.377 . S
C1920 C1922 1.384 . S
C1921 C1920 1.377 . S
C1921 C1927 1.390 . S
C1922 H1913 0.930 . S
C1922 C1920 1.384 . S
C1922 C1923 1.372 . S
C1923 C1922 1.372 . S
C1923 C1924 1.400 . S
C1923 C1928 1.490 . S
C1924 H1914 0.930 . S
C1924 C1923 1.400 . S
C1924 C1927 1.386 . S
H1925 C1941 0.930 . S
H1926 C1942 0.931 . S
C1927 H1915 0.929 . S
C1927 C1921 1.390 . S
C1927 C1924 1.386 . S
C1928 C1923 1.490 . S
C1928 C1930 1.395 . S
C1928 C1931 1.403 . S
H1929 C1935 0.930 . S
C1930 H1916 0.930 . S
C1930 C1928 1.395 . S
C1930 C1933 1.403 1_655 S
C1931 C1928 1.403 . S
C1931 C1932 1.524 . S
C1931 C1935 1.400 1_655 S
C1932 H1917 0.960 . S
C1932 H1918 0.960 . S
C1932 H1919 0.960 . S
C1932 C1931 1.524 . S
C1933 C1930 1.403 1_455 S
C1933 C1934 1.392 . S
C1933 C1937 1.495 . S
C1934 C1933 1.392 . S
C1934 C1935 1.385 . S
C1934 C1936 1.478 . S
C1935 H1929 0.930 . S
C1935 C1931 1.400 1_455 S
C1935 C1934 1.385 . S
C1936 C1934 1.478 . S
C1936 C1938 1.381 . S
C1936 C1942 1.383 . S
C1937 C1933 1.495 . S
C1937 H1943 0.959 . S
C1937 H1944 0.961 . S
C1937 H1945 0.960 . S
C1938 C1936 1.381 . S
C1938 C1939 1.394 . S
C1938 H1946 0.930 . S
C1939 C1938 1.394 . S
C1939 C1940 1.383 . S
C1939 H1947 0.929 . S
C1940 C1939 1.383 . S
C1940 C1941 1.377 . S
C1941 H1925 0.930 . S
C1941 C1940 1.377 . S
C1941 C1942 1.379 . S
C1942 H1926 0.931 . S
C1942 C1936 1.383 . S
C1942 C1941 1.379 . S
H1943 C1937 0.959 . S
H1944 C1937 0.961 . S
H1945 C1937 0.960 . S
H1946 C1938 0.930 . S
H1947 C1939 0.929 . S
H1948 C1956 0.929 . S
H1949 C1958 0.930 . S
H1950 C1960 0.930 . S
H1951 C1963 0.929 . S
H1952 C1966 0.930 . S
H1953 C1968 0.960 . S
H1954 C1968 0.960 . S
H1955 C1968 0.960 . S
C1956 H1948 0.929 . S
C1956 C1957 1.377 . S
C1956 C1958 1.384 . S
C1957 C1956 1.377 . S
C1957 C1963 1.390 . S
C1958 H1949 0.930 . S
C1958 C1956 1.384 . S
C1958 C1959 1.372 . S
C1959 C1958 1.372 . S
C1959 C1960 1.400 . S
C1959 C1964 1.490 . S
C1960 H1950 0.930 . S
C1960 C1959 1.400 . S
C1960 C1963 1.386 . S
H1961 C1977 0.930 . S
H1962 C1978 0.931 . S
C1963 H1951 0.929 . S
C1963 C1957 1.390 . S
C1963 C1960 1.386 . S
C1964 C1959 1.490 . S
C1964 C1966 1.395 . S
C1964 C1967 1.403 . S
H1965 C1971 0.930 . S
C1966 H1952 0.930 . S
C1966 C1964 1.395 . S
C1966 C1969 1.403 1_545 S
C1967 C1964 1.403 . S
C1967 C1968 1.524 . S
C1967 C1971 1.400 1_545 S
C1968 H1953 0.960 . S
C1968 H1954 0.960 . S
C1968 H1955 0.960 . S
C1968 C1967 1.524 . S
C1969 C1966 1.403 1_565 S
C1969 C1970 1.392 . S
C1969 C1973 1.495 . S
C1970 C1969 1.392 . S
C1970 C1971 1.385 . S
C1970 C1972 1.478 . S
C1971 H1965 0.930 . S
C1971 C1967 1.400 1_565 S
C1971 C1970 1.385 . S
C1972 C1970 1.478 . S
C1972 C1974 1.381 . S
C1972 C1978 1.383 . S
C1973 C1969 1.495 . S
C1973 H1979 0.959 . S
C1973 H1980 0.961 . S
C1973 H1981 0.960 . S
C1974 C1972 1.381 . S
C1974 C1975 1.394 . S
C1974 H1982 0.930 . S
C1975 C1974 1.394 . S
C1975 C1976 1.383 . S
C1975 H1983 0.929 . S
C1976 C1975 1.383 . S
C1976 C1977 1.377 . S
C1977 H1961 0.930 . S
C1977 C1976 1.377 . S
C1977 C1978 1.379 . S
C1978 H1962 0.931 . S
C1978 C1972 1.383 . S
C1978 C1977 1.379 . S
H1979 C1973 0.959 . S
H1980 C1973 0.961 . S
H1981 C1973 0.960 . S
H1982 C1974 0.930 . S
H1983 C1975 0.929 . S
H1984 C1992 0.929 . S
H1985 C1994 0.930 . S
H1986 C1996 0.930 . S
H1987 C1999 0.929 . S
H1988 C2002 0.930 . S
H1989 C2004 0.960 . S
H1990 C2004 0.960 . S
H1991 C2004 0.960 . S
C1992 H1984 0.929 . S
C1992 C1993 1.377 . S
C1992 C1994 1.384 . S
C1993 C1992 1.377 . S
C1993 C1999 1.390 . S
C1994 H1985 0.930 . S
C1994 C1992 1.384 . S
C1994 C1995 1.372 . S
C1995 C1994 1.372 . S
C1995 C1996 1.400 . S
C1995 C2000 1.490 . S
C1996 H1986 0.930 . S
C1996 C1995 1.400 . S
C1996 C1999 1.386 . S
H1997 C2013 0.930 . S
H1998 C2014 0.931 . S
C1999 H1987 0.929 . S
C1999 C1993 1.390 . S
C1999 C1996 1.386 . S
C2000 C1995 1.490 . S
C2000 C2002 1.395 . S
C2000 C2003 1.403 . S
H2001 C2007 0.930 . S
C2002 H1988 0.930 . S
C2002 C2000 1.395 . S
C2002 C2005 1.403 1_655 S
C2003 C2000 1.403 . S
C2003 C2004 1.524 . S
C2003 C2007 1.400 1_655 S
C2004 H1989 0.960 . S
C2004 H1990 0.960 . S
C2004 H1991 0.960 . S
C2004 C2003 1.524 . S
C2005 C2002 1.403 1_455 S
C2005 C2006 1.392 . S
C2005 C2009 1.495 . S
C2006 C2005 1.392 . S
C2006 C2007 1.385 . S
C2006 C2008 1.478 . S
C2007 H2001 0.930 . S
C2007 C2003 1.400 1_455 S
C2007 C2006 1.385 . S
C2008 C2006 1.478 . S
C2008 C2010 1.381 . S
C2008 C2014 1.383 . S
C2009 C2005 1.495 . S
C2009 H2015 0.959 . S
C2009 H2016 0.961 . S
C2009 H2017 0.960 . S
C2010 C2008 1.381 . S
C2010 C2011 1.394 . S
C2010 H2018 0.930 . S
C2011 C2010 1.394 . S
C2011 C2012 1.383 . S
C2011 H2019 0.929 . S
C2012 C2011 1.383 . S
C2012 C2013 1.377 . S
C2013 H1997 0.930 . S
C2013 C2012 1.377 . S
C2013 C2014 1.379 . S
C2014 H1998 0.931 . S
C2014 C2008 1.383 . S
C2014 C2013 1.379 . S
H2015 C2009 0.959 . S
H2016 C2009 0.961 . S
H2017 C2009 0.960 . S
H2018 C2010 0.930 . S
H2019 C2011 0.929 . S
H2020 C2028 0.929 . S
H2021 C2030 0.930 . S
H2022 C2032 0.930 . S
H2023 C2035 0.929 . S
H2024 C2038 0.930 . S
H2025 C2040 0.960 . S
H2026 C2040 0.960 . S
H2027 C2040 0.960 . S
C2028 H2020 0.929 . S
C2028 C2029 1.377 . S
C2028 C2030 1.384 . S
C2029 C2028 1.377 . S
C2029 C2035 1.390 . S
C2030 H2021 0.930 . S
C2030 C2028 1.384 . S
C2030 C2031 1.372 . S
C2031 C2030 1.372 . S
C2031 C2032 1.400 . S
C2031 C2036 1.490 . S
C2032 H2022 0.930 . S
C2032 C2031 1.400 . S
C2032 C2035 1.386 . S
H2033 C2049 0.930 . S
H2034 C2050 0.931 . S
C2035 H2023 0.929 . S
C2035 C2029 1.390 . S
C2035 C2032 1.386 . S
C2036 C2031 1.490 . S
C2036 C2038 1.395 . S
C2036 C2039 1.403 . S
H2037 C2043 0.930 . S
C2038 H2024 0.930 . S
C2038 C2036 1.395 . S
C2038 C2041 1.403 1_565 S
C2039 C2036 1.403 . S
C2039 C2040 1.524 . S
C2039 C2043 1.400 1_565 S
C2040 H2025 0.960 . S
C2040 H2026 0.960 . S
C2040 H2027 0.960 . S
C2040 C2039 1.524 . S
C2041 C2038 1.403 1_545 S
C2041 C2042 1.392 . S
C2041 C2045 1.495 . S
C2042 C2041 1.392 . S
C2042 C2043 1.385 . S
C2042 C2044 1.478 . S
C2043 H2037 0.930 . S
C2043 C2039 1.400 1_545 S
C2043 C2042 1.385 . S
C2044 C2042 1.478 . S
C2044 C2046 1.381 . S
C2044 C2050 1.383 . S
C2045 C2041 1.495 . S
C2045 H2051 0.959 . S
C2045 H2052 0.961 . S
C2045 H2053 0.960 . S
C2046 C2044 1.381 . S
C2046 C2047 1.394 . S
C2046 H2054 0.930 . S
C2047 C2046 1.394 . S
C2047 C2048 1.383 . S
C2047 H2055 0.929 . S
C2048 C2047 1.383 . S
C2048 C2049 1.377 . S
C2049 H2033 0.930 . S
C2049 C2048 1.377 . S
C2049 C2050 1.379 . S
C2050 H2034 0.931 . S
C2050 C2044 1.383 . S
C2050 C2049 1.379 . S
H2051 C2045 0.959 . S
H2052 C2045 0.961 . S
H2053 C2045 0.960 . S
H2054 C2046 0.930 . S
H2055 C2047 0.929 . S
H2056 C2064 0.929 . S
H2057 C2066 0.930 . S
H2058 C2068 0.930 . S
H2059 C2071 0.929 . S
H2060 C2074 0.930 . S
H2061 C2076 0.960 . S
H2062 C2076 0.960 . S
H2063 C2076 0.960 . S
C2064 H2056 0.929 . S
C2064 C2065 1.377 . S
C2064 C2066 1.384 . S
C2065 C2064 1.377 . S
C2065 C2071 1.390 . S
C2066 H2057 0.930 . S
C2066 C2064 1.384 . S
C2066 C2067 1.372 . S
C2067 C2066 1.372 . S
C2067 C2068 1.400 . S
C2067 C2072 1.490 . S
C2068 H2058 0.930 . S
C2068 C2067 1.400 . S
C2068 C2071 1.386 . S
H2069 C2085 0.930 . S
H2070 C2086 0.931 . S
C2071 H2059 0.929 . S
C2071 C2065 1.390 . S
C2071 C2068 1.386 . S
C2072 C2067 1.490 . S
C2072 C2074 1.395 . S
C2072 C2075 1.403 . S
H2073 C2079 0.930 . S
C2074 H2060 0.930 . S
C2074 C2072 1.395 . S
C2074 C2077 1.403 1_455 S
C2075 C2072 1.403 . S
C2075 C2076 1.524 . S
C2075 C2079 1.400 1_455 S
C2076 H2061 0.960 . S
C2076 H2062 0.960 . S
C2076 H2063 0.960 . S
C2076 C2075 1.524 . S
C2077 C2074 1.403 1_655 S
C2077 C2078 1.392 . S
C2077 C2081 1.495 . S
C2078 C2077 1.392 . S
C2078 C2079 1.385 . S
C2078 C2080 1.478 . S
C2079 H2073 0.930 . S
C2079 C2075 1.400 1_655 S
C2079 C2078 1.385 . S
C2080 C2078 1.478 . S
C2080 C2082 1.381 . S
C2080 C2086 1.383 . S
C2081 C2077 1.495 . S
C2081 H2087 0.959 . S
C2081 H2088 0.961 . S
C2081 H2089 0.960 . S
C2082 C2080 1.381 . S
C2082 C2083 1.394 . S
C2082 H2090 0.930 . S
C2083 C2082 1.394 . S
C2083 C2084 1.383 . S
C2083 H2091 0.929 . S
C2084 C2083 1.383 . S
C2084 C2085 1.377 . S
C2085 H2069 0.930 . S
C2085 C2084 1.377 . S
C2085 C2086 1.379 . S
C2086 H2070 0.931 . S
C2086 C2080 1.383 . S
C2086 C2085 1.379 . S
H2087 C2081 0.959 . S
H2088 C2081 0.961 . S
H2089 C2081 0.960 . S
H2090 C2082 0.930 . S
H2091 C2083 0.929 . S
H2092 C2100 0.929 . S
H2093 C2102 0.930 . S
H2094 C2104 0.930 . S
H2095 C2107 0.929 . S
H2096 C2110 0.930 . S
H2097 C2112 0.960 . S
H2098 C2112 0.960 . S
H2099 C2112 0.960 . S
C2100 H2092 0.929 . S
C2100 C2101 1.377 . S
C2100 C2102 1.384 . S
C2101 C2100 1.377 . S
C2101 C2107 1.390 . S
C2102 H2093 0.930 . S
C2102 C2100 1.384 . S
C2102 C2103 1.372 . S
C2103 C2102 1.372 . S
C2103 C2104 1.400 . S
C2103 C2108 1.490 . S
C2104 H2094 0.930 . S
C2104 C2103 1.400 . S
C2104 C2107 1.386 . S
H2105 C2121 0.930 . S
H2106 C2122 0.931 . S
C2107 H2095 0.929 . S
C2107 C2101 1.390 . S
C2107 C2104 1.386 . S
C2108 C2103 1.490 . S
C2108 C2110 1.395 . S
C2108 C2111 1.403 . S
H2109 C2115 0.930 . S
C2110 H2096 0.930 . S
C2110 C2108 1.395 . S
C2110 C2113 1.403 1_565 S
C2111 C2108 1.403 . S
C2111 C2112 1.524 . S
C2111 C2115 1.400 1_565 S
C2112 H2097 0.960 . S
C2112 H2098 0.960 . S
C2112 H2099 0.960 . S
C2112 C2111 1.524 . S
C2113 C2110 1.403 1_545 S
C2113 C2114 1.392 . S
C2113 C2117 1.495 . S
C2114 C2113 1.392 . S
C2114 C2115 1.385 . S
C2114 C2116 1.478 . S
C2115 H2109 0.930 . S
C2115 C2111 1.400 1_545 S
C2115 C2114 1.385 . S
C2116 C2114 1.478 . S
C2116 C2118 1.381 . S
C2116 C2122 1.383 . S
C2117 C2113 1.495 . S
C2117 H2123 0.959 . S
C2117 H2124 0.961 . S
C2117 H2125 0.960 . S
C2118 C2116 1.381 . S
C2118 C2119 1.394 . S
C2118 H2126 0.930 . S
C2119 C2118 1.394 . S
C2119 C2120 1.383 . S
C2119 H2127 0.929 . S
C2120 C2119 1.383 . S
C2120 C2121 1.377 . S
C2121 H2105 0.930 . S
C2121 C2120 1.377 . S
C2121 C2122 1.379 . S
C2122 H2106 0.931 . S
C2122 C2116 1.383 . S
C2122 C2121 1.379 . S
H2123 C2117 0.959 . S
H2124 C2117 0.961 . S
H2125 C2117 0.960 . S
H2126 C2118 0.930 . S
H2127 C2119 0.929 . S
H2128 C2136 0.929 . S
H2129 C2138 0.930 . S
H2130 C2140 0.930 . S
H2131 C2143 0.929 . S
H2132 C2146 0.930 . S
H2133 C2148 0.960 . S
H2134 C2148 0.960 . S
H2135 C2148 0.960 . S
C2136 H2128 0.929 . S
C2136 C2137 1.377 . S
C2136 C2138 1.384 . S
C2137 C2136 1.377 . S
C2137 C2143 1.390 . S
C2138 H2129 0.930 . S
C2138 C2136 1.384 . S
C2138 C2139 1.372 . S
C2139 C2138 1.372 . S
C2139 C2140 1.400 . S
C2139 C2144 1.490 . S
C2140 H2130 0.930 . S
C2140 C2139 1.400 . S
C2140 C2143 1.386 . S
H2141 C2157 0.930 . S
H2142 C2158 0.931 . S
C2143 H2131 0.929 . S
C2143 C2137 1.390 . S
C2143 C2140 1.386 . S
C2144 C2139 1.490 . S
C2144 C2146 1.395 . S
C2144 C2147 1.403 . S
H2145 C2151 0.930 . S
C2146 H2132 0.930 . S
C2146 C2144 1.395 . S
C2146 C2149 1.403 . S
C2147 C2144 1.403 . S
C2147 C2148 1.524 . S
C2147 C2151 1.400 . S
C2148 H2133 0.960 . S
C2148 H2134 0.960 . S
C2148 H2135 0.960 . S
C2148 C2147 1.524 . S
C2149 C2146 1.403 . S
C2149 C2150 1.392 . S
C2149 C2153 1.495 . S
C2150 C2149 1.392 . S
C2150 C2151 1.385 . S
C2150 C2152 1.478 . S
C2151 H2145 0.930 . S
C2151 C2147 1.400 . S
C2151 C2150 1.385 . S
C2152 C2150 1.478 . S
C2152 C2154 1.381 . S
C2152 C2158 1.383 . S
C2153 C2149 1.495 . S
C2153 H2159 0.959 . S
C2153 H2160 0.961 . S
C2153 H2161 0.960 . S
C2154 C2152 1.381 . S
C2154 C2155 1.394 . S
C2154 H2162 0.930 . S
C2155 C2154 1.394 . S
C2155 C2156 1.383 . S
C2155 H2163 0.929 . S
C2156 C2155 1.383 . S
C2156 C2157 1.377 . S
C2157 H2141 0.930 . S
C2157 C2156 1.377 . S
C2157 C2158 1.379 . S
C2158 H2142 0.931 . S
C2158 C2152 1.383 . S
C2158 C2157 1.379 . S
H2159 C2153 0.959 . S
H2160 C2153 0.961 . S
H2161 C2153 0.960 . S
H2162 C2154 0.930 . S
H2163 C2155 0.929 . S
H2164 C2172 0.929 . S
H2165 C2174 0.930 . S
H2166 C2176 0.930 . S
H2167 C2179 0.929 . S
H2168 C2182 0.930 . S
H2169 C2184 0.960 . S
H2170 C2184 0.960 . S
H2171 C2184 0.960 . S
C2172 H2164 0.929 . S
C2172 C2173 1.377 . S
C2172 C2174 1.384 . S
C2173 C2172 1.377 . S
C2173 C2179 1.390 . S
C2174 H2165 0.930 . S
C2174 C2172 1.384 . S
C2174 C2175 1.372 . S
C2175 C2174 1.372 . S
C2175 C2176 1.400 . S
C2175 C2180 1.490 . S
C2176 H2166 0.930 . S
C2176 C2175 1.400 . S
C2176 C2179 1.386 . S
H2177 C2193 0.930 . S
H2178 C2194 0.931 . S
C2179 H2167 0.929 . S
C2179 C2173 1.390 . S
C2179 C2176 1.386 . S
C2180 C2175 1.490 . S
C2180 C2182 1.395 . S
C2180 C2183 1.403 . S
H2181 C2187 0.930 . S
C2182 H2168 0.930 . S
C2182 C2180 1.395 . S
C2182 C2185 1.403 . S
C2183 C2180 1.403 . S
C2183 C2184 1.524 . S
C2183 C2187 1.400 . S
C2184 H2169 0.960 . S
C2184 H2170 0.960 . S
C2184 H2171 0.960 . S
C2184 C2183 1.524 . S
C2185 C2182 1.403 . S
C2185 C2186 1.392 . S
C2185 C2189 1.495 . S
C2186 C2185 1.392 . S
C2186 C2187 1.385 . S
C2186 C2188 1.478 . S
C2187 H2181 0.930 . S
C2187 C2183 1.400 . S
C2187 C2186 1.385 . S
C2188 C2186 1.478 . S
C2188 C2190 1.381 . S
C2188 C2194 1.383 . S
C2189 C2185 1.495 . S
C2189 H2195 0.959 . S
C2189 H2196 0.961 . S
C2189 H2197 0.960 . S
C2190 C2188 1.381 . S
C2190 C2191 1.394 . S
C2190 H2198 0.930 . S
C2191 C2190 1.394 . S
C2191 C2192 1.383 . S
C2191 H2199 0.929 . S
C2192 C2191 1.383 . S
C2192 C2193 1.377 . S
C2193 H2177 0.930 . S
C2193 C2192 1.377 . S
C2193 C2194 1.379 . S
C2194 H2178 0.931 . S
C2194 C2188 1.383 . S
C2194 C2193 1.379 . S
H2195 C2189 0.959 . S
H2196 C2189 0.961 . S
H2197 C2189 0.960 . S
H2198 C2190 0.930 . S
H2199 C2191 0.929 . S
H2200 C2208 0.929 . S
H2201 C2210 0.930 . S
H2202 C2212 0.930 . S
H2203 C2215 0.929 . S
H2204 C2218 0.930 . S
H2205 C2220 0.960 . S
H2206 C2220 0.960 . S
H2207 C2220 0.960 . S
C2208 H2200 0.929 . S
C2208 C2209 1.377 . S
C2208 C2210 1.384 . S
C2209 C2208 1.377 . S
C2209 C2215 1.390 . S
C2210 H2201 0.930 . S
C2210 C2208 1.384 . S
C2210 C2211 1.372 . S
C2211 C2210 1.372 . S
C2211 C2212 1.400 . S
C2211 C2216 1.490 . S
C2212 H2202 0.930 . S
C2212 C2211 1.400 . S
C2212 C2215 1.386 . S
H2213 C2229 0.930 . S
H2214 C2230 0.931 . S
C2215 H2203 0.929 . S
C2215 C2209 1.390 . S
C2215 C2212 1.386 . S
C2216 C2211 1.490 . S
C2216 C2218 1.395 . S
C2216 C2219 1.403 . S
H2217 C2223 0.930 . S
C2218 H2204 0.930 . S
C2218 C2216 1.395 . S
C2218 C2221 1.403 . S
C2219 C2216 1.403 . S
C2219 C2220 1.524 . S
C2219 C2223 1.400 . S
C2220 H2205 0.960 . S
C2220 H2206 0.960 . S
C2220 H2207 0.960 . S
C2220 C2219 1.524 . S
C2221 C2218 1.403 . S
C2221 C2222 1.392 . S
C2221 C2225 1.495 . S
C2222 C2221 1.392 . S
C2222 C2223 1.385 . S
C2222 C2224 1.478 . S
C2223 H2217 0.930 . S
C2223 C2219 1.400 . S
C2223 C2222 1.385 . S
C2224 C2222 1.478 . S
C2224 C2226 1.381 . S
C2224 C2230 1.383 . S
C2225 C2221 1.495 . S
C2225 H2231 0.959 . S
C2225 H2232 0.961 . S
C2225 H2233 0.960 . S
C2226 C2224 1.381 . S
C2226 C2227 1.394 . S
C2226 H2234 0.930 . S
C2227 C2226 1.394 . S
C2227 C2228 1.383 . S
C2227 H2235 0.929 . S
C2228 C2227 1.383 . S
C2228 C2229 1.377 . S
C2229 H2213 0.930 . S
C2229 C2228 1.377 . S
C2229 C2230 1.379 . S
C2230 H2214 0.931 . S
C2230 C2224 1.383 . S
C2230 C2229 1.379 . S
H2231 C2225 0.959 . S
H2232 C2225 0.961 . S
H2233 C2225 0.960 . S
H2234 C2226 0.930 . S
H2235 C2227 0.929 . S
H2236 C2244 0.929 . S
H2237 C2246 0.930 . S
H2238 C2248 0.930 . S
H2239 C2251 0.929 . S
H2240 C2254 0.930 . S
H2241 C2256 0.960 . S
H2242 C2256 0.960 . S
H2243 C2256 0.960 . S
C2244 H2236 0.929 . S
C2244 C2245 1.377 . S
C2244 C2246 1.384 . S
C2245 C2244 1.377 . S
C2245 C2251 1.390 . S
C2246 H2237 0.930 . S
C2246 C2244 1.384 . S
C2246 C2247 1.372 . S
C2247 C2246 1.372 . S
C2247 C2248 1.400 . S
C2247 C2252 1.490 . S
C2248 H2238 0.930 . S
C2248 C2247 1.400 . S
C2248 C2251 1.386 . S
H2249 C2265 0.930 . S
H2250 C2266 0.931 . S
C2251 H2239 0.929 . S
C2251 C2245 1.390 . S
C2251 C2248 1.386 . S
C2252 C2247 1.490 . S
C2252 C2254 1.395 . S
C2252 C2255 1.403 . S
H2253 C2259 0.930 . S
C2254 H2240 0.930 . S
C2254 C2252 1.395 . S
C2254 C2257 1.403 . S
C2255 C2252 1.403 . S
C2255 C2256 1.524 . S
C2255 C2259 1.400 . S
C2256 H2241 0.960 . S
C2256 H2242 0.960 . S
C2256 H2243 0.960 . S
C2256 C2255 1.524 . S
C2257 C2254 1.403 . S
C2257 C2258 1.392 . S
C2257 C2261 1.495 . S
C2258 C2257 1.392 . S
C2258 C2259 1.385 . S
C2258 C2260 1.478 . S
C2259 H2253 0.930 . S
C2259 C2255 1.400 . S
C2259 C2258 1.385 . S
C2260 C2258 1.478 . S
C2260 C2262 1.381 . S
C2260 C2266 1.383 . S
C2261 C2257 1.495 . S
C2261 H2267 0.959 . S
C2261 H2268 0.961 . S
C2261 H2269 0.960 . S
C2262 C2260 1.381 . S
C2262 C2263 1.394 . S
C2262 H2270 0.930 . S
C2263 C2262 1.394 . S
C2263 C2264 1.383 . S
C2263 H2271 0.929 . S
C2264 C2263 1.383 . S
C2264 C2265 1.377 . S
C2265 H2249 0.930 . S
C2265 C2264 1.377 . S
C2265 C2266 1.379 . S
C2266 H2250 0.931 . S
C2266 C2260 1.383 . S
C2266 C2265 1.379 . S
H2267 C2261 0.959 . S
H2268 C2261 0.961 . S
H2269 C2261 0.960 . S
H2270 C2262 0.930 . S
H2271 C2263 0.929 . S
H2272 C2280 0.929 . S
H2273 C2282 0.930 . S
H2274 C2284 0.930 . S
H2275 C2287 0.929 . S
H2276 C2290 0.930 . S
H2277 C2292 0.960 . S
H2278 C2292 0.960 . S
H2279 C2292 0.960 . S
C2280 H2272 0.929 . S
C2280 C2281 1.377 . S
C2280 C2282 1.384 . S
C2281 C2280 1.377 . S
C2281 C2287 1.390 . S
C2282 H2273 0.930 . S
C2282 C2280 1.384 . S
C2282 C2283 1.372 . S
C2283 C2282 1.372 . S
C2283 C2284 1.400 . S
C2283 C2288 1.490 . S
C2284 H2274 0.930 . S
C2284 C2283 1.400 . S
C2284 C2287 1.386 . S
H2285 C2301 0.930 . S
H2286 C2302 0.931 . S
C2287 H2275 0.929 . S
C2287 C2281 1.390 . S
C2287 C2284 1.386 . S
C2288 C2283 1.490 . S
C2288 C2290 1.395 . S
C2288 C2291 1.403 . S
H2289 C2295 0.930 . S
C2290 H2276 0.930 . S
C2290 C2288 1.395 . S
C2290 C2293 1.403 . S
C2291 C2288 1.403 . S
C2291 C2292 1.524 . S
C2291 C2295 1.400 . S
C2292 H2277 0.960 . S
C2292 H2278 0.960 . S
C2292 H2279 0.960 . S
C2292 C2291 1.524 . S
C2293 C2290 1.403 . S
C2293 C2294 1.392 . S
C2293 C2297 1.495 . S
C2294 C2293 1.392 . S
C2294 C2295 1.385 . S
C2294 C2296 1.478 . S
C2295 H2289 0.930 . S
C2295 C2291 1.400 . S
C2295 C2294 1.385 . S
C2296 C2294 1.478 . S
C2296 C2298 1.381 . S
C2296 C2302 1.383 . S
C2297 C2293 1.495 . S
C2297 H2303 0.959 . S
C2297 H2304 0.961 . S
C2297 H2305 0.960 . S
C2298 C2296 1.381 . S
C2298 C2299 1.394 . S
C2298 H2306 0.930 . S
C2299 C2298 1.394 . S
C2299 C2300 1.383 . S
C2299 H2307 0.929 . S
C2300 C2299 1.383 . S
C2300 C2301 1.377 . S
C2301 H2285 0.930 . S
C2301 C2300 1.377 . S
C2301 C2302 1.379 . S
C2302 H2286 0.931 . S
C2302 C2296 1.383 . S
C2302 C2301 1.379 . S
H2303 C2297 0.959 . S
H2304 C2297 0.961 . S
H2305 C2297 0.960 . S
H2306 C2298 0.930 . S
H2307 C2299 0.929 . S
H2308 C2316 0.929 . S
H2309 C2318 0.930 . S
H2310 C2320 0.930 . S
H2311 C2323 0.929 . S
H2312 C2326 0.930 . S
H2313 C2328 0.960 . S
H2314 C2328 0.960 . S
H2315 C2328 0.960 . S
C2316 H2308 0.929 . S
C2316 C2317 1.377 . S
C2316 C2318 1.384 . S
C2317 C2316 1.377 . S
C2317 C2323 1.390 . S
C2318 H2309 0.930 . S
C2318 C2316 1.384 . S
C2318 C2319 1.372 . S
C2319 C2318 1.372 . S
C2319 C2320 1.400 . S
C2319 C2324 1.490 . S
C2320 H2310 0.930 . S
C2320 C2319 1.400 . S
C2320 C2323 1.386 . S
H2321 C2337 0.930 . S
H2322 C2338 0.931 . S
C2323 H2311 0.929 . S
C2323 C2317 1.390 . S
C2323 C2320 1.386 . S
C2324 C2319 1.490 . S
C2324 C2326 1.395 . S
C2324 C2327 1.403 . S
H2325 C2331 0.930 . S
C2326 H2312 0.930 . S
C2326 C2324 1.395 . S
C2326 C2329 1.403 . S
C2327 C2324 1.403 . S
C2327 C2328 1.524 . S
C2327 C2331 1.400 . S
C2328 H2313 0.960 . S
C2328 H2314 0.960 . S
C2328 H2315 0.960 . S
C2328 C2327 1.524 . S
C2329 C2326 1.403 . S
C2329 C2330 1.392 . S
C2329 C2333 1.495 . S
C2330 C2329 1.392 . S
C2330 C2331 1.385 . S
C2330 C2332 1.478 . S
C2331 H2325 0.930 . S
C2331 C2327 1.400 . S
C2331 C2330 1.385 . S
C2332 C2330 1.478 . S
C2332 C2334 1.381 . S
C2332 C2338 1.383 . S
C2333 C2329 1.495 . S
C2333 H2339 0.959 . S
C2333 H2340 0.961 . S
C2333 H2341 0.960 . S
C2334 C2332 1.381 . S
C2334 C2335 1.394 . S
C2334 H2342 0.930 . S
C2335 C2334 1.394 . S
C2335 C2336 1.383 . S
C2335 H2343 0.929 . S
C2336 C2335 1.383 . S
C2336 C2337 1.377 . S
C2337 H2321 0.930 . S
C2337 C2336 1.377 . S
C2337 C2338 1.379 . S
C2338 H2322 0.931 . S
C2338 C2332 1.383 . S
C2338 C2337 1.379 . S
H2339 C2333 0.959 . S
H2340 C2333 0.961 . S
H2341 C2333 0.960 . S
H2342 C2334 0.930 . S
H2343 C2335 0.929 . S
H2344 C2352 0.929 . S
H2345 C2354 0.930 . S
H2346 C2356 0.930 . S
H2347 C2359 0.929 . S
H2348 C2362 0.930 . S
H2349 C2364 0.960 . S
H2350 C2364 0.960 . S
H2351 C2364 0.960 . S
C2352 H2344 0.929 . S
C2352 C2353 1.377 . S
C2352 C2354 1.384 . S
C2353 C2352 1.377 . S
C2353 C2359 1.390 . S
C2354 H2345 0.930 . S
C2354 C2352 1.384 . S
C2354 C2355 1.372 . S
C2355 C2354 1.372 . S
C2355 C2356 1.400 . S
C2355 C2360 1.490 . S
C2356 H2346 0.930 . S
C2356 C2355 1.400 . S
C2356 C2359 1.386 . S
H2357 C2373 0.930 . S
H2358 C2374 0.931 . S
C2359 H2347 0.929 . S
C2359 C2353 1.390 . S
C2359 C2356 1.386 . S
C2360 C2355 1.490 . S
C2360 C2362 1.395 . S
C2360 C2363 1.403 . S
H2361 C2367 0.930 . S
C2362 H2348 0.930 . S
C2362 C2360 1.395 . S
C2362 C2365 1.403 . S
C2363 C2360 1.403 . S
C2363 C2364 1.524 . S
C2363 C2367 1.400 . S
C2364 H2349 0.960 . S
C2364 H2350 0.960 . S
C2364 H2351 0.960 . S
C2364 C2363 1.524 . S
C2365 C2362 1.403 . S
C2365 C2366 1.392 . S
C2365 C2369 1.495 . S
C2366 C2365 1.392 . S
C2366 C2367 1.385 . S
C2366 C2368 1.478 . S
C2367 H2361 0.930 . S
C2367 C2363 1.400 . S
C2367 C2366 1.385 . S
C2368 C2366 1.478 . S
C2368 C2370 1.381 . S
C2368 C2374 1.383 . S
C2369 C2365 1.495 . S
C2369 H2375 0.959 . S
C2369 H2376 0.961 . S
C2369 H2377 0.960 . S
C2370 C2368 1.381 . S
C2370 C2371 1.394 . S
C2370 H2378 0.930 . S
C2371 C2370 1.394 . S
C2371 C2372 1.383 . S
C2371 H2379 0.929 . S
C2372 C2371 1.383 . S
C2372 C2373 1.377 . S
C2373 H2357 0.930 . S
C2373 C2372 1.377 . S
C2373 C2374 1.379 . S
C2374 H2358 0.931 . S
C2374 C2368 1.383 . S
C2374 C2373 1.379 . S
H2375 C2369 0.959 . S
H2376 C2369 0.961 . S
H2377 C2369 0.960 . S
H2378 C2370 0.930 . S
H2379 C2371 0.929 . S
H2380 C2388 0.929 . S
H2381 C2390 0.930 . S
H2382 C2392 0.930 . S
H2383 C2395 0.929 . S
H2384 C2398 0.930 . S
H2385 C2400 0.960 . S
H2386 C2400 0.960 . S
H2387 C2400 0.960 . S
C2388 H2380 0.929 . S
C2388 C2389 1.377 . S
C2388 C2390 1.384 . S
C2389 C2388 1.377 . S
C2389 C2395 1.390 . S
C2390 H2381 0.930 . S
C2390 C2388 1.384 . S
C2390 C2391 1.372 . S
C2391 C2390 1.372 . S
C2391 C2392 1.400 . S
C2391 C2396 1.490 . S
C2392 H2382 0.930 . S
C2392 C2391 1.400 . S
C2392 C2395 1.386 . S
H2393 C2409 0.930 . S
H2394 C2410 0.931 . S
C2395 H2383 0.929 . S
C2395 C2389 1.390 . S
C2395 C2392 1.386 . S
C2396 C2391 1.490 . S
C2396 C2398 1.395 . S
C2396 C2399 1.403 . S
H2397 C2403 0.930 . S
C2398 H2384 0.930 . S
C2398 C2396 1.395 . S
C2398 C2401 1.403 . S
C2399 C2396 1.403 . S
C2399 C2400 1.524 . S
C2399 C2403 1.400 . S
C2400 H2385 0.960 . S
C2400 H2386 0.960 . S
C2400 H2387 0.960 . S
C2400 C2399 1.524 . S
C2401 C2398 1.403 . S
C2401 C2402 1.392 . S
C2401 C2405 1.495 . S
C2402 C2401 1.392 . S
C2402 C2403 1.385 . S
C2402 C2404 1.478 . S
C2403 H2397 0.930 . S
C2403 C2399 1.400 . S
C2403 C2402 1.385 . S
C2404 C2402 1.478 . S
C2404 C2406 1.381 . S
C2404 C2410 1.383 . S
C2405 C2401 1.495 . S
C2405 H2411 0.959 . S
C2405 H2412 0.961 . S
C2405 H2413 0.960 . S
C2406 C2404 1.381 . S
C2406 C2407 1.394 . S
C2406 H2414 0.930 . S
C2407 C2406 1.394 . S
C2407 C2408 1.383 . S
C2407 H2415 0.929 . S
C2408 C2407 1.383 . S
C2408 C2409 1.377 . S
C2409 H2393 0.930 . S
C2409 C2408 1.377 . S
C2409 C2410 1.379 . S
C2410 H2394 0.931 . S
C2410 C2404 1.383 . S
C2410 C2409 1.379 . S
H2411 C2405 0.959 . S
H2412 C2405 0.961 . S
H2413 C2405 0.960 . S
H2414 C2406 0.930 . S
H2415 C2407 0.929 . S
H2416 C2424 0.929 . S
H2417 C2426 0.930 . S
H2418 C2428 0.930 . S
H2419 C2431 0.929 . S
H2420 C2434 0.930 . S
H2421 C2436 0.960 . S
H2422 C2436 0.960 . S
H2423 C2436 0.960 . S
C2424 H2416 0.929 . S
C2424 C2425 1.377 . S
C2424 C2426 1.384 . S
C2425 C2424 1.377 . S
C2425 C2431 1.390 . S
C2426 H2417 0.930 . S
C2426 C2424 1.384 . S
C2426 C2427 1.372 . S
C2427 C2426 1.372 . S
C2427 C2428 1.400 . S
C2427 C2432 1.490 . S
C2428 H2418 0.930 . S
C2428 C2427 1.400 . S
C2428 C2431 1.386 . S
H2429 C2445 0.930 . S
H2430 C2446 0.931 . S
C2431 H2419 0.929 . S
C2431 C2425 1.390 . S
C2431 C2428 1.386 . S
C2432 C2427 1.490 . S
C2432 C2434 1.395 . S
C2432 C2435 1.403 . S
H2433 C2439 0.930 . S
C2434 H2420 0.930 . S
C2434 C2432 1.395 . S
C2434 C2437 1.403 . S
C2435 C2432 1.403 . S
C2435 C2436 1.524 . S
C2435 C2439 1.400 . S
C2436 H2421 0.960 . S
C2436 H2422 0.960 . S
C2436 H2423 0.960 . S
C2436 C2435 1.524 . S
C2437 C2434 1.403 . S
C2437 C2438 1.392 . S
C2437 C2441 1.495 . S
C2438 C2437 1.392 . S
C2438 C2439 1.385 . S
C2438 C2440 1.478 . S
C2439 H2433 0.930 . S
C2439 C2435 1.400 . S
C2439 C2438 1.385 . S
C2440 C2438 1.478 . S
C2440 C2442 1.381 . S
C2440 C2446 1.383 . S
C2441 C2437 1.495 . S
C2441 H2447 0.959 . S
C2441 H2448 0.961 . S
C2441 H2449 0.960 . S
C2442 C2440 1.381 . S
C2442 C2443 1.394 . S
C2442 H2450 0.930 . S
C2443 C2442 1.394 . S
C2443 C2444 1.383 . S
C2443 H2451 0.929 . S
C2444 C2443 1.383 . S
C2444 C2445 1.377 . S
C2445 H2429 0.930 . S
C2445 C2444 1.377 . S
C2445 C2446 1.379 . S
C2446 H2430 0.931 . S
C2446 C2440 1.383 . S
C2446 C2445 1.379 . S
H2447 C2441 0.959 . S
H2448 C2441 0.961 . S
H2449 C2441 0.960 . S
H2450 C2442 0.930 . S
H2451 C2443 0.929 . S
H2452 C2460 0.929 . S
H2453 C2462 0.930 . S
H2454 C2464 0.930 . S
H2455 C2467 0.929 . S
H2456 C2470 0.930 . S
H2457 C2472 0.960 . S
H2458 C2472 0.960 . S
H2459 C2472 0.960 . S
C2460 H2452 0.929 . S
C2460 C2461 1.377 . S
C2460 C2462 1.384 . S
C2461 C2460 1.377 . S
C2461 C2467 1.390 . S
C2462 H2453 0.930 . S
C2462 C2460 1.384 . S
C2462 C2463 1.372 . S
C2463 C2462 1.372 . S
C2463 C2464 1.400 . S
C2463 C2468 1.490 . S
C2464 H2454 0.930 . S
C2464 C2463 1.400 . S
C2464 C2467 1.386 . S
H2465 C2481 0.930 . S
H2466 C2482 0.931 . S
C2467 H2455 0.929 . S
C2467 C2461 1.390 . S
C2467 C2464 1.386 . S
C2468 C2463 1.490 . S
C2468 C2470 1.395 . S
C2468 C2471 1.403 . S
H2469 C2475 0.930 . S
C2470 H2456 0.930 . S
C2470 C2468 1.395 . S
C2470 C2473 1.403 . S
C2471 C2468 1.403 . S
C2471 C2472 1.524 . S
C2471 C2475 1.400 . S
C2472 H2457 0.960 . S
C2472 H2458 0.960 . S
C2472 H2459 0.960 . S
C2472 C2471 1.524 . S
C2473 C2470 1.403 . S
C2473 C2474 1.392 . S
C2473 C2477 1.495 . S
C2474 C2473 1.392 . S
C2474 C2475 1.385 . S
C2474 C2476 1.478 . S
C2475 H2469 0.930 . S
C2475 C2471 1.400 . S
C2475 C2474 1.385 . S
C2476 C2474 1.478 . S
C2476 C2478 1.381 . S
C2476 C2482 1.383 . S
C2477 C2473 1.495 . S
C2477 H2483 0.959 . S
C2477 H2484 0.961 . S
C2477 H2485 0.960 . S
C2478 C2476 1.381 . S
C2478 C2479 1.394 . S
C2478 H2486 0.930 . S
C2479 C2478 1.394 . S
C2479 C2480 1.383 . S
C2479 H2487 0.929 . S
C2480 C2479 1.383 . S
C2480 C2481 1.377 . S
C2481 H2465 0.930 . S
C2481 C2480 1.377 . S
C2481 C2482 1.379 . S
C2482 H2466 0.931 . S
C2482 C2476 1.383 . S
C2482 C2481 1.379 . S
H2483 C2477 0.959 . S
H2484 C2477 0.961 . S
H2485 C2477 0.960 . S
H2486 C2478 0.930 . S
H2487 C2479 0.929 . S
H2488 C2496 0.929 . S
H2489 C2498 0.930 . S
H2490 C2500 0.930 . S
H2491 C2503 0.929 . S
H2492 C2506 0.930 . S
H2493 C2508 0.960 . S
H2494 C2508 0.960 . S
H2495 C2508 0.960 . S
C2496 H2488 0.929 . S
C2496 C2497 1.377 . S
C2496 C2498 1.384 . S
C2497 C2496 1.377 . S
C2497 C2503 1.390 . S
C2498 H2489 0.930 . S
C2498 C2496 1.384 . S
C2498 C2499 1.372 . S
C2499 C2498 1.372 . S
C2499 C2500 1.400 . S
C2499 C2504 1.490 . S
C2500 H2490 0.930 . S
C2500 C2499 1.400 . S
C2500 C2503 1.386 . S
H2501 C2517 0.930 . S
H2502 C2518 0.931 . S
C2503 H2491 0.929 . S
C2503 C2497 1.390 . S
C2503 C2500 1.386 . S
C2504 C2499 1.490 . S
C2504 C2506 1.395 . S
C2504 C2507 1.403 . S
H2505 C2511 0.930 . S
C2506 H2492 0.930 . S
C2506 C2504 1.395 . S
C2506 C2509 1.403 . S
C2507 C2504 1.403 . S
C2507 C2508 1.524 . S
C2507 C2511 1.400 . S
C2508 H2493 0.960 . S
C2508 H2494 0.960 . S
C2508 H2495 0.960 . S
C2508 C2507 1.524 . S
C2509 C2506 1.403 . S
C2509 C2510 1.392 . S
C2509 C2513 1.495 . S
C2510 C2509 1.392 . S
C2510 C2511 1.385 . S
C2510 C2512 1.478 . S
C2511 H2505 0.930 . S
C2511 C2507 1.400 . S
C2511 C2510 1.385 . S
C2512 C2510 1.478 . S
C2512 C2514 1.381 . S
C2512 C2518 1.383 . S
C2513 C2509 1.495 . S
C2513 H2519 0.959 . S
C2513 H2520 0.961 . S
C2513 H2521 0.960 . S
C2514 C2512 1.381 . S
C2514 C2515 1.394 . S
C2514 H2522 0.930 . S
C2515 C2514 1.394 . S
C2515 C2516 1.383 . S
C2515 H2523 0.929 . S
C2516 C2515 1.383 . S
C2516 C2517 1.377 . S
C2517 H2501 0.930 . S
C2517 C2516 1.377 . S
C2517 C2518 1.379 . S
C2518 H2502 0.931 . S
C2518 C2512 1.383 . S
C2518 C2517 1.379 . S
H2519 C2513 0.959 . S
H2520 C2513 0.961 . S
H2521 C2513 0.960 . S
H2522 C2514 0.930 . S
H2523 C2515 0.929 . S
H2524 C2532 0.929 . S
H2525 C2534 0.930 . S
H2526 C2536 0.930 . S
H2527 C2539 0.929 . S
H2528 C2542 0.930 . S
H2529 C2544 0.960 . S
H2530 C2544 0.960 . S
H2531 C2544 0.960 . S
C2532 H2524 0.929 . S
C2532 C2533 1.377 . S
C2532 C2534 1.384 . S
C2533 C2532 1.377 . S
C2533 C2539 1.390 . S
C2534 H2525 0.930 . S
C2534 C2532 1.384 . S
C2534 C2535 1.372 . S
C2535 C2534 1.372 . S
C2535 C2536 1.400 . S
C2535 C2540 1.490 . S
C2536 H2526 0.930 . S
C2536 C2535 1.400 . S
C2536 C2539 1.386 . S
H2537 C2553 0.930 . S
H2538 C2554 0.931 . S
C2539 H2527 0.929 . S
C2539 C2533 1.390 . S
C2539 C2536 1.386 . S
C2540 C2535 1.490 . S
C2540 C2542 1.395 . S
C2540 C2543 1.403 . S
H2541 C2547 0.930 . S
C2542 H2528 0.930 . S
C2542 C2540 1.395 . S
C2542 C2545 1.403 . S
C2543 C2540 1.403 . S
C2543 C2544 1.524 . S
C2543 C2547 1.400 . S
C2544 H2529 0.960 . S
C2544 H2530 0.960 . S
C2544 H2531 0.960 . S
C2544 C2543 1.524 . S
C2545 C2542 1.403 . S
C2545 C2546 1.392 . S
C2545 C2549 1.495 . S
C2546 C2545 1.392 . S
C2546 C2547 1.385 . S
C2546 C2548 1.478 . S
C2547 H2541 0.930 . S
C2547 C2543 1.400 . S
C2547 C2546 1.385 . S
C2548 C2546 1.478 . S
C2548 C2550 1.381 . S
C2548 C2554 1.383 . S
C2549 C2545 1.495 . S
C2549 H2555 0.959 . S
C2549 H2556 0.961 . S
C2549 H2557 0.960 . S
C2550 C2548 1.381 . S
C2550 C2551 1.394 . S
C2550 H2558 0.930 . S
C2551 C2550 1.394 . S
C2551 C2552 1.383 . S
C2551 H2559 0.929 . S
C2552 C2551 1.383 . S
C2552 C2553 1.377 . S
C2553 H2537 0.930 . S
C2553 C2552 1.377 . S
C2553 C2554 1.379 . S
C2554 H2538 0.931 . S
C2554 C2548 1.383 . S
C2554 C2553 1.379 . S
H2555 C2549 0.959 . S
H2556 C2549 0.961 . S
H2557 C2549 0.960 . S
H2558 C2550 0.930 . S
H2559 C2551 0.929 . S
C1417 C1377 0.312 . S
C1436 C29 0.326 . S
C1453 C1105 0.313 . S
C1472 C108 0.318 . S
C1489 C233 0.311 . S
C1508 C1193 0.327 . S
C1525 C1289 0.313 . S
C1544 C293 0.322 . S
C1561 C821 0.312 . S
C1580 C401 0.321 . S
C1597 C489 0.311 . S
C1616 C937 0.316 . S
C1633 C577 0.314 . S
C1652 C997 0.321 . S
C1669 C673 0.312 . S
C1688 C724 0.325 . S
C1705 C460 1.418 . S
C1724 C20 1.426 . S
C1741 C557 1.417 . S
C1760 C145 1.421 . S
C1777 C645 1.428 . S
C1796 C225 1.403 . S
C1813 C321 1.426 . S
C1832 C381 1.423 . S
C1849 C57 1.435 . S
C1868 C137 1.422 . S
C1885 C196 1.418 . S
C1904 C117 1.425 . S
C1921 C205 1.424 . S
C1940 C284 1.432 . S
C1957 C49 1.405 . S
C1976 C313 1.393 . S
C1993 C665 1.405 . S
C2012 C409 1.386 . S
C2029 C372 1.434 . S
C2048 C469 1.409 . S
C2065 C497 1.415 . S
C2084 C585 1.401 . S
C2101 C636 1.436 . S
C2120 C548 1.452 . S
C2137 C1164 1.419 . S
C2156 C733 1.399 . S
C2173 C841 1.416 . S
C2192 C1252 1.405 . S
C2209 C1349 1.424 . S
C2228 C929 1.416 . S
C2245 C1085 1.425 . S
C2264 C1025 1.421 . S
C2281 C753 1.433 . S
C2300 C849 1.438 . S
C2317 C812 1.418 . S
C2336 C900 1.400 . S
C2353 C988 1.424 . S
C2372 C909 1.417 . S
C2389 C761 1.407 . S
C2408 C1017 1.386 . S
C2425 C1369 1.406 . S
C2444 C1113 1.412 . S
C2461 C1076 1.435 . S
C2480 C1173 1.430 . S
C2497 C1201 1.413 . S
C2516 C1281 1.410 . S
C2533 C1340 1.440 . S
C2552 C1261 1.449 . S
