# Generated by pormake.
# Topology qtz-x, (6)-cn, num edge types: 1
# Building blocks:
#     Node 0, Type 0, BuildingBlock: KUMJIN_clean_sbu_1, # of connection points: 6
#     Node 1, Type 0, BuildingBlock: KUMJIN_clean_sbu_1, # of connection points: 6
#     Node 2, Type 0, BuildingBlock: KUMJIN_clean_sbu_1, # of connection points: 6
#     Edge 3, Type (0, 0), BuildingBlock: MIFKUJ_clean_linker_0, # of connection points: 2
#     Edge 4, Type (0, 0), BuildingBlock: MIFKUJ_clean_linker_0, # of connection points: 2
#     Edge 5, Type (0, 0), BuildingBlock: MIFKUJ_clean_linker_0, # of connection points: 2
#     Edge 6, Type (0, 0), BuildingBlock: MIFKUJ_clean_linker_0, # of connection points: 2
#     Edge 7, Type (0, 0), BuildingBlock: MIFKUJ_clean_linker_0, # of connection points: 2
#     Edge 8, Type (0, 0), BuildingBlock: MIFKUJ_clean_linker_0, # of connection points: 2
#     Edge 9, Type (0, 0), BuildingBlock: MIFKUJ_clean_linker_0, # of connection points: 2
#     Edge 10, Type (0, 0), BuildingBlock: MIFKUJ_clean_linker_0, # of connection points: 2
#     Edge 11, Type (0, 0), BuildingBlock: MIFKUJ_clean_linker_0, # of connection points: 2
# Relax obj value: 0.204
# Max RMSD: 0.277
# Mean RMSD: 0.277
data_MOF--net-qtz-x--node1-KUMJIN_clean_sbu_1--edge1-MIFKUJ_clean_linker_0
_symmetry_space_group_name_H-M    P1
_symmetry_Int_Tables_number       1
_symmetry_cell_setting            triclinic
loop_
_symmetry_equiv_pos_as_xyz
'x, y, z'
_cell_length_a     19.337333
_cell_length_b     19.339158
_cell_length_c     64.202089
_cell_angle_alpha  90.056511
_cell_angle_beta   89.901623
_cell_angle_gamma 119.96527
loop_
_atom_site_label
_atom_site_type_symbol
_atom_site_fract_x
_atom_site_fract_y
_atom_site_fract_z
_atom_type_partial_charge
Eu0 Eu 0.97162 0.38951 0.15017 0.0
C1 C 0.35018 0.47808 0.16347 0.0
N2 N 0.28528 0.43814 0.17595 0.0
C3 C 0.33334 0.35211 0.18759 0.0
C4 C 0.40826 0.45448 0.16205 0.0
C5 C 0.27735 0.37766 0.18851 0.0
C6 C 0.39843 0.38982 0.17408 0.0
C7 C 0.42919 0.58994 0.14046 0.0
C8 C 0.36064 0.54519 0.15286 0.0
C9 C 0.48562 0.56484 0.1384 0.0
C10 C 0.4752 0.49729 0.14916 0.0
Eu11 Eu 0.19286 0.4838 0.17587 0.0
N12 N 0.30478 0.56774 0.155 0.0
C13 C 0.43951 0.65922 0.13073 0.0
C14 C 0.31646 0.63736 0.14635 0.0
C15 C 0.38333 0.68349 0.13388 0.0
H16 H 0.22742 0.34887 0.19914 0.0
H17 H 0.39156 0.73777 0.12675 0.0
H18 H 0.94514 0.54664 0.14492 0.0
H19 H 0.82401 0.13163 0.2027 0.0
H20 H 0.27346 0.65665 0.14879 0.0
H21 H 0.49131 0.69514 0.12107 0.0
H22 H 0.91495 0.21249 0.17476 0.0
H23 H 0.32655 0.30375 0.19737 0.0
H24 H 0.53826 0.59807 0.1288 0.0
H25 H 0.52008 0.47961 0.14774 0.0
H26 H 0.8662 0.60053 0.16132 0.0
H27 H 0.44179 0.36994 0.17346 0.0
H28 H 0.74053 0.17712 0.22057 0.0
N29 N 0.9005 0.44639 0.16506 0.0
C30 C 0.84638 0.40243 0.18003 0.0
C31 C 0.8609 0.54536 0.16688 0.0
C32 C 0.79962 0.43063 0.18969 0.0
C33 C 0.90643 0.5154 0.15787 0.0
C34 C 0.80783 0.50324 0.18299 0.0
N35 N 0.8846 0.30359 0.17641 0.0
C36 C 0.87931 0.23332 0.18219 0.0
C37 C 0.78543 0.2848 0.20214 0.0
C38 C 0.83861 0.32952 0.18596 0.0
C39 C 0.78041 0.21297 0.20817 0.0
C40 C 0.82749 0.18714 0.19814 0.0
H41 H 0.77279 0.52678 0.18998 0.0
H42 H 0.71041 0.40686 0.21335 0.0
H43 H 0.69873 0.27984 0.22442 0.0
O44 O 0.86219 0.29777 0.13531 0.0
O45 O 0.0074 0.44747 0.18202 0.0
O46 O 0.08202 0.39455 0.19259 0.0
O47 O 0.93 0.41456 0.12118 0.0
O48 O 0.01663 0.30113 0.15099 0.0
O49 O 0.12743 0.34839 0.17337 0.0
O50 O 0.1904 0.56086 0.20038 0.0
O51 O 0.18786 0.49041 0.14068 0.0
O52 O 0.0657 0.38461 0.13008 0.0
O53 O 0.27834 0.5233 0.2016 0.0
O54 O 0.14356 0.56575 0.16931 0.0
O55 O 0.05961 0.51615 0.14074 0.0
C56 C 0.03033 0.41715 0.19687 0.0
C57 C 0.79174 0.34665 0.11545 0.0
C58 C 0.71386 0.36912 0.08913 0.0
C59 C 0.65988 0.36281 0.10478 0.0
C60 C 0.73686 0.33953 0.13079 0.0
C61 C 0.67122 0.34758 0.12542 0.0
C62 C 0.77919 0.35994 0.09473 0.0
C63 C 0.07239 0.29382 0.16103 0.0
C64 C 0.86513 0.34521 0.12049 0.0
C65 C 0.74642 0.38584 0.20567 0.0
C66 C 0.73963 0.31338 0.21194 0.0
C67 C 0.14176 0.4365 0.12694 0.0
C68 C 0.31306 0.64803 0.2164 0.0
C69 C 0.38784 0.74173 0.24426 0.0
C70 C 0.42555 0.80254 0.22929 0.0
C71 C 0.35065 0.70948 0.20175 0.0
C72 C 0.332 0.66418 0.23755 0.0
C73 C 0.40702 0.78629 0.20818 0.0
C74 C 0.10636 0.57448 0.15329 0.0
C75 C 0.25244 0.56722 0.21006 0.0
H76 H 0.60955 0.37065 0.10118 0.0
H77 H 0.74482 0.32827 0.14684 0.0
H78 H 0.62941 0.34283 0.13734 0.0
H79 H 0.82099 0.36314 0.08298 0.0
H80 H 0.46975 0.86255 0.23386 0.0
H81 H 0.33606 0.69824 0.18542 0.0
H82 H 0.30181 0.61643 0.24876 0.0
H83 H 0.43614 0.83349 0.19679 0.0
Eu84 Eu 0.65089 0.09777 0.48056 0.0
C85 C 0.43741 0.73076 0.48172 0.0
N86 N 0.42515 0.78262 0.4933 0.0
C87 C 0.2869 0.71469 0.48389 0.0
C88 C 0.37421 0.66901 0.47044 0.0
C89 C 0.35145 0.77549 0.49466 0.0
C90 C 0.29831 0.66127 0.4717 0.0
C91 C 0.52862 0.68969 0.4682 0.0
C92 C 0.51429 0.7419 0.48046 0.0
C93 C 0.46577 0.62817 0.45692 0.0
C94 C 0.38885 0.61787 0.45803 0.0
Eu95 Eu 0.53705 0.88366 0.51073 0.0
N96 N 0.57456 0.80272 0.49137 0.0
C97 C 0.60555 0.7001 0.46783 0.0
C98 C 0.64767 0.80825 0.49244 0.0
C99 C 0.665 0.75896 0.48021 0.0
H100 H 0.34277 0.81696 0.50406 0.0
H101 H 0.7239 0.76556 0.4806 0.0
H102 H 0.83945 0.14689 0.47021 0.0
H103 H 0.53422 0.26241 0.52345 0.0
H104 H 0.69243 0.8484 0.50313 0.0
H105 H 0.61905 0.6615 0.45854 0.0
H106 H 0.52603 0.15348 0.5019 0.0
H107 H 0.2285 0.70921 0.48492 0.0
H108 H 0.47594 0.58785 0.44737 0.0
H109 H 0.34107 0.57019 0.44921 0.0
H110 H 0.97605 0.25336 0.47917 0.0
H111 H 0.24827 0.61458 0.46325 0.0
H112 H 0.66593 0.37409 0.53395 0.0
N113 N 0.783 0.19832 0.48752 0.0
C114 C 0.79217 0.26091 0.49922 0.0
C115 C 0.92488 0.25604 0.485 0.0
C116 C 0.86888 0.32368 0.50445 0.0
C117 C 0.84763 0.19538 0.48016 0.0
C118 C 0.9356 0.32038 0.49726 0.0
N119 N 0.65137 0.19977 0.50108 0.0
C120 C 0.58367 0.20032 0.50676 0.0
C121 C 0.7321 0.32631 0.51819 0.0
C122 C 0.72454 0.26205 0.50606 0.0
C123 C 0.66268 0.32577 0.52466 0.0
C124 C 0.5882 0.26273 0.5188 0.0
H125 H 0.99553 0.36741 0.50095 0.0
H126 H 0.93502 0.43634 0.52078 0.0
H127 H 0.81539 0.439 0.53263 0.0
O128 O 0.59364 0.13058 0.45629 0.0
O129 O 0.67248 0.10272 0.51547 0.0
O130 O 0.55711 0.99454 0.52801 0.0
O131 O 0.71622 0.15844 0.45241 0.0
O132 O 0.51492 0.03558 0.4827 0.0
O133 O 0.4751 0.95588 0.51241 0.0
O134 O 0.56808 0.83488 0.53763 0.0
O135 O 0.50588 0.89032 0.47683 0.0
O136 O 0.63003 0.98202 0.46693 0.0
O137 O 0.44556 0.80195 0.53236 0.0
O138 O 0.67264 0.95744 0.51319 0.0
O139 O 0.70742 0.02024 0.48141 0.0
C140 C 0.62328 0.0629 0.53072 0.0
C141 C 0.67939 0.24326 0.43578 0.0
C142 C 0.7315 0.33307 0.40595 0.0
C143 C 0.72789 0.39257 0.41775 0.0
C144 C 0.6768 0.30323 0.44746 0.0
C145 C 0.70052 0.37747 0.43836 0.0
C146 C 0.70589 0.25813 0.41512 0.0
C147 C 0.46306 0.9959 0.49763 0.0
C148 C 0.65778 0.1654 0.44477 0.0
C149 C 0.87658 0.38757 0.51661 0.0
C150 C 0.80841 0.38899 0.5234 0.0
C151 C 0.55808 0.92675 0.46202 0.0
C152 C 0.49008 0.82276 0.56708 0.0
C153 C 0.50773 0.81209 0.60437 0.0
C154 C 0.48443 0.86931 0.60814 0.0
C155 C 0.4659 0.87886 0.57126 0.0
C156 C 0.51069 0.78935 0.58366 0.0
C157 C 0.46317 0.90187 0.59169 0.0
C158 C 0.72643 0.99817 0.49882 0.0
C159 C 0.49635 0.80117 0.54542 0.0
H160 H 0.7478 0.45118 0.41124 0.0
H161 H 0.65696 0.29284 0.46352 0.0
H162 H 0.69864 0.4238 0.44739 0.0
H163 H 0.70672 0.21089 0.40621 0.0
H164 H 0.48323 0.88953 0.6238 0.0
H165 H 0.44942 0.90521 0.55874 0.0
H166 H 0.52824 0.74525 0.5804 0.0
H167 H 0.44485 0.9454 0.59478 0.0
Eu168 Eu 0.73196 0.47096 0.82208 0.0
C169 C 0.6288 0.71411 0.80918 0.0
N170 N 0.67716 0.71244 0.82434 0.0
C171 C 0.77736 0.84649 0.81579 0.0
C172 C 0.65497 0.78101 0.79601 0.0
C173 C 0.74844 0.77921 0.82859 0.0
C174 C 0.7311 0.84684 0.79917 0.0
C175 C 0.49874 0.65135 0.7924 0.0
C176 C 0.55136 0.65018 0.80738 0.0
C177 C 0.52575 0.71659 0.77878 0.0
C178 C 0.60369 0.78113 0.78054 0.0
Eu179 Eu 0.62293 0.59264 0.84396 0.0
N180 N 0.52751 0.58647 0.82025 0.0
C181 C 0.4205 0.58678 0.79158 0.0
C182 C 0.45073 0.52467 0.82009 0.0
C183 C 0.39618 0.52357 0.80563 0.0
H184 H 0.78252 0.7821 0.84213 0.0
H185 H 0.33558 0.47396 0.80528 0.0
H186 H 0.60559 0.28372 0.83724 0.0
H187 H 0.05616 0.64234 0.83035 0.0
H188 H 0.43213 0.4759 0.83097 0.0
H189 H 0.37827 0.58549 0.78029 0.0
H190 H 0.92625 0.60582 0.81472 0.0
H191 H 0.83473 0.89859 0.81899 0.0
H192 H 0.48653 0.71813 0.76698 0.0
H193 H 0.62318 0.83166 0.77016 0.0
H194 H 0.60484 0.18145 0.86055 0.0
H195 H 0.75339 0.89936 0.7894 0.0
H196 H 0.06453 0.5578 0.85807 0.0
N197 N 0.72624 0.36978 0.84377 0.0
C198 C 0.79514 0.38561 0.85336 0.0
C199 C 0.65857 0.23882 0.85879 0.0
C200 C 0.79771 0.32905 0.86669 0.0
C201 C 0.65898 0.29676 0.8457 0.0
C202 C 0.72799 0.25533 0.86952 0.0
N203 N 0.86023 0.50763 0.83499 0.0
C204 C 0.92849 0.57132 0.82759 0.0
C205 C 0.93739 0.4738 0.85793 0.0
C206 C 0.86395 0.45715 0.84905 0.0
C207 C 0.00691 0.54298 0.85168 0.0
C208 C 0.00252 0.59106 0.83613 0.0
H209 H 0.72756 0.21025 0.87962 0.0
H210 H 0.87294 0.30475 0.88682 0.0
H211 H 0.99534 0.43146 0.87911 0.0
O212 O 0.79924 0.44008 0.80025 0.0
O213 O 0.68664 0.44662 0.85562 0.0
O214 O 0.70442 0.569 0.86405 0.0
O215 O 0.67518 0.40047 0.79423 0.0
O216 O 0.80298 0.6071 0.82172 0.0
O217 O 0.75681 0.64957 0.84945 0.0
O218 O 0.5409 0.55847 0.87056 0.0
O219 O 0.60124 0.53961 0.81143 0.0
O220 O 0.72779 0.56952 0.80463 0.0
O221 O 0.60402 0.68072 0.86022 0.0
O222 O 0.54875 0.45876 0.84712 0.0
O223 O 0.59634 0.40441 0.82213 0.0
C224 C 0.68944 0.49769 0.86955 0.0
C225 C 0.72793 0.32529 0.77921 0.0
C226 C 0.71585 0.24614 0.74831 0.0
C227 C 0.70019 0.18142 0.7614 0.0
C228 C 0.71323 0.26069 0.79198 0.0
C229 C 0.69953 0.18906 0.78306 0.0
C230 C 0.73035 0.31825 0.75754 0.0
C231 C 0.81473 0.65731 0.83701 0.0
C232 C 0.73898 0.40032 0.78785 0.0
C233 C 0.86993 0.3471 0.87636 0.0
C234 C 0.9396 0.41936 0.87201 0.0
C235 C 0.65916 0.55844 0.79809 0.0
C236 C 0.5864 0.6587 0.89649 0.0
C237 C 0.56129 0.63908 0.93397 0.0
C238 C 0.63917 0.70236 0.93765 0.0
C239 C 0.66407 0.72163 0.90063 0.0
C240 C 0.53523 0.61782 0.91324 0.0
C241 C 0.69002 0.74308 0.92109 0.0
C242 C 0.54188 0.39942 0.83547 0.0
C243 C 0.56065 0.63187 0.87489 0.0
H244 H 0.68704 0.12436 0.75497 0.0
H245 H 0.71205 0.26549 0.80873 0.0
H246 H 0.68747 0.13894 0.79294 0.0
H247 H 0.74378 0.36952 0.74793 0.0
H248 H 0.66065 0.72113 0.95337 0.0
H249 H 0.70544 0.75338 0.88809 0.0
H250 H 0.476 0.56824 0.9101 0.0
H251 H 0.74994 0.79134 0.92413 0.0
H252 H 0.09581 0.66084 0.18462 0.0
H253 H 0.0919 0.78436 0.18218 0.0
H254 H 0.12115 0.78541 0.11539 0.0
H255 H 0.11932 0.6577 0.1178 0.0
H256 H 0.19159 0.9222 0.17213 0.0
H257 H 0.04066 0.88601 0.092 0.0
H258 H 0.94641 0.77788 0.06886 0.0
H259 H 0.84185 0.62371 0.12165 0.0
H260 H 0.93467 0.73155 0.1451 0.0
H261 H 0.20632 0.28629 0.1542 0.0
H262 H 0.21806 0.16775 0.14884 0.0
H263 H 0.96148 0.0205 0.15167 0.0
H264 H 0.94978 0.13931 0.15606 0.0
H265 H 0.01221 0.96122 0.12454 0.0
H266 H 0.08571 0.0479 0.19465 0.0
H267 H 0.1579 0.13576 0.22425 0.0
H268 H 0.3786 0.16265 0.2012 0.0
H269 H 0.30783 0.0758 0.17128 0.0
C270 C 0.1016 0.6877 0.16944 0.0
C271 C 0.10823 0.65069 0.15139 0.0
C272 C 0.09945 0.75824 0.16803 0.0
C273 C 0.10599 0.79426 0.1486 0.0
C274 C 0.11443 0.758 0.13052 0.0
C275 C 0.114 0.68566 0.13188 0.0
C276 C 0.10422 0.86986 0.14766 0.0
C277 C 0.15256 0.93076 0.16164 0.0
C278 C 0.05247 0.88067 0.1342 0.0
C279 C 0.99525 0.81635 0.12025 0.0
C280 C 0.99733 0.82913 0.09866 0.0
C281 C 0.94419 0.76794 0.0855 0.0
C282 C 0.88842 0.69386 0.09377 0.0
C283 C 0.88528 0.68099 0.11525 0.0
C284 C 0.93812 0.74207 0.12847 0.0
C285 C 0.15266 0.22845 0.15423 0.0
C286 C 0.0775 0.22158 0.15704 0.0
C287 C 0.15931 0.16085 0.15087 0.0
C288 C 0.09078 0.08494 0.15057 0.0
C289 C 0.01531 0.07839 0.15215 0.0
C290 C 0.00868 0.14636 0.15504 0.0
C291 C 0.09784 0.01228 0.14948 0.0
C292 C 0.05152 0.95268 0.13492 0.0
C293 C 0.14814 0.0005 0.16323 0.0
C294 C 0.19159 0.05602 0.18061 0.0
C295 C 0.14978 0.07332 0.19576 0.0
C296 C 0.19037 0.12263 0.21265 0.0
C297 C 0.27268 0.15433 0.21467 0.0
C298 C 0.31476 0.13767 0.19967 0.0
C299 C 0.27448 0.08854 0.18272 0.0
H300 H 0.30396 0.19229 0.22779 0.0
H301 H 0.84752 0.6465 0.08355 0.0
H302 H 0.39049 0.03326 0.4667 0.0
H303 H 0.26951 0.043 0.46959 0.0
H304 H 0.25364 0.98607 0.53507 0.0
H305 H 0.3726 0.97363 0.53213 0.0
H306 H 0.11478 0.90462 0.51862 0.0
H307 H 0.31594 0.17754 0.51756 0.0
H308 H 0.43511 0.29899 0.50493 0.0
H309 H 0.31454 0.28714 0.44781 0.0
H310 H 0.19495 0.16478 0.45994 0.0
H311 H 0.8033 0.99742 0.53432 0.0
H312 H 0.93414 0.00647 0.53697 0.0
H313 H 0.95841 0.02514 0.47008 0.0
H314 H 0.82792 0.01504 0.4673 0.0
H315 H 0.09664 0.13466 0.49108 0.0
H316 H 0.89942 0.84879 0.49322 0.0
H317 H 0.78393 0.72871 0.50805 0.0
H318 H 0.90284 0.77458 0.56705 0.0
H319 H 0.01908 0.89473 0.55261 0.0
C320 C 0.36117 0.02299 0.48169 0.0
C321 C 0.39062 0.0024 0.49915 0.0
C322 C 0.29244 0.02905 0.48337 0.0
C323 C 0.25322 0.01632 0.50263 0.0
C324 C 0.2829 0.99605 0.52007 0.0
C325 C 0.3508 0.98885 0.51834 0.0
C326 C 0.17948 0.02111 0.50443 0.0
C327 C 0.11133 0.95563 0.51292 0.0
C328 C 0.1749 0.08752 0.49695 0.0
C329 C 0.24659 0.16148 0.48961 0.0
C330 C 0.31498 0.20042 0.50224 0.0
C331 C 0.38262 0.26949 0.49517 0.0
C332 C 0.38247 0.30064 0.47556 0.0
C333 C 0.31459 0.26288 0.46299 0.0
C334 C 0.24681 0.19369 0.46996 0.0
C335 C 0.83679 0.00363 0.52022 0.0
C336 C 0.80599 0.00627 0.50063 0.0
C337 C 0.91129 0.00888 0.52175 0.0
C338 C 0.95553 0.01638 0.5037 0.0
C339 C 0.92527 0.02001 0.48418 0.0
C340 C 0.85087 0.01444 0.48263 0.0
C341 C 0.03231 0.01771 0.50488 0.0
C342 C 0.10086 0.08432 0.49697 0.0
C343 C 0.03776 0.95311 0.51328 0.0
C344 C 0.96753 0.88115 0.5219 0.0
C345 C 0.90065 0.83359 0.5094 0.0
C346 C 0.83514 0.7655 0.51771 0.0
C347 C 0.83585 0.74441 0.53848 0.0
C348 C 0.90227 0.7911 0.55097 0.0
C349 C 0.96804 0.85905 0.54273 0.0
H350 H 0.78506 0.69169 0.54487 0.0
H351 H 0.43489 0.35413 0.47012 0.0
H352 H 0.93177 0.72878 0.8077 0.0
H353 H 0.0613 0.84993 0.8118 0.0
H354 H 0.003 0.87155 0.87546 0.0
H355 H 0.87471 0.74802 0.87185 0.0
H356 H 0.05199 0.01012 0.84779 0.0
H357 H 0.13672 0.83134 0.87259 0.0
H358 H 0.15405 0.71342 0.87236 0.0
H359 H 0.28328 0.79094 0.81469 0.0
H360 H 0.26625 0.90917 0.8145 0.0
H361 H 0.43156 0.35034 0.8667 0.0
H362 H 0.31054 0.2206 0.87019 0.0
H363 H 0.36384 0.14449 0.8121 0.0
H364 H 0.48578 0.27335 0.80866 0.0
H365 H 0.31743 0.03084 0.84108 0.0
H366 H 0.22618 0.20501 0.815 0.0
H367 H 0.21155 0.32457 0.81523 0.0
H368 H 0.09239 0.25498 0.8744 0.0
H369 H 0.10755 0.13562 0.8747 0.0
C370 C 0.94746 0.75795 0.82274 0.0
C371 C 0.89385 0.72847 0.83954 0.0
C372 C 0.02108 0.82723 0.82501 0.0
C373 C 0.04128 0.86867 0.84396 0.0
C374 C 0.9881 0.83965 0.86078 0.0
C375 C 0.91504 0.7695 0.85865 0.0
C376 C 0.11569 0.94549 0.84556 0.0
C377 C 0.11028 0.01496 0.84674 0.0
C378 C 0.19089 0.9508 0.84368 0.0
C379 C 0.19962 0.8788 0.84345 0.0
C380 C 0.16816 0.82287 0.85975 0.0
C381 C 0.17833 0.75621 0.85976 0.0
C382 C 0.21984 0.74475 0.84354 0.0
C383 C 0.25124 0.79995 0.82726 0.0
C384 C 0.2415 0.8669 0.82722 0.0
C385 C 0.41732 0.30615 0.8546 0.0
C386 C 0.46785 0.32212 0.83733 0.0
C387 C 0.34826 0.23212 0.85664 0.0
C388 C 0.32812 0.17351 0.8413 0.0
C389 C 0.37863 0.18909 0.82411 0.0
C390 C 0.44803 0.2628 0.82214 0.0
C391 C 0.25395 0.09592 0.84298 0.0
C392 C 0.25931 0.02623 0.84236 0.0
C393 C 0.17856 0.09041 0.84523 0.0
C394 C 0.16881 0.16184 0.84498 0.0
C395 C 0.19744 0.21553 0.82814 0.0
C396 C 0.18899 0.28323 0.82817 0.0
C397 C 0.15127 0.29749 0.84485 0.0
C398 C 0.12173 0.24394 0.86151 0.0
C399 C 0.13023 0.17625 0.86159 0.0
H400 H 0.14475 0.34992 0.84483 0.0
H401 H 0.22744 0.69296 0.84355 0.0
H402 H 0.40137 0.58721 0.9377 0.0
H403 H 0.31725 0.53013 0.96848 0.0
H404 H 0.51655 0.5416 0.00171 0.0
H405 H 0.59928 0.59384 0.9706 0.0
H406 H 0.38708 0.41459 0.01348 0.0
H407 H 0.46521 0.69077 0.00567 0.0
H408 H 0.47947 0.80997 0.98775 0.0
H409 H 0.22463 0.69894 0.98254 0.0
H410 H 0.20892 0.57859 0.00021 0.0
H411 H 0.29119 0.46576 0.1175 0.0
H412 H 0.35033 0.48047 0.08297 0.0
H413 H 0.12598 0.4247 0.05475 0.0
H414 H 0.06703 0.41124 0.08945 0.0
H415 H 0.25663 0.56345 0.03927 0.0
H416 H 0.18505 0.29176 0.05278 0.0
H417 H 0.18108 0.18224 0.07333 0.0
H418 H 0.43659 0.29583 0.07063 0.0
H419 H 0.44238 0.40677 0.05032 0.0
C420 C 0.42681 0.5759 0.9514 0.0
C421 C 0.50763 0.59671 0.95183 0.0
C422 C 0.37884 0.544 0.96907 0.0
C423 C 0.4111 0.53362 0.98762 0.0
C424 C 0.49041 0.54987 0.98769 0.0
C425 C 0.53804 0.58078 0.96996 0.0
C426 C 0.36422 0.5109 0.00729 0.0
C427 C 0.35892 0.44741 0.01916 0.0
C428 C 0.32671 0.55316 0.01468 0.0
C429 C 0.33594 0.62535 0.00403 0.0
C430 C 0.41225 0.69155 0.00055 0.0
C431 C 0.42059 0.75934 0.99047 0.0
C432 C 0.35301 0.76193 0.98395 0.0
C433 C 0.27693 0.69678 0.98756 0.0
C434 C 0.26827 0.62877 0.99761 0.0
C435 C 0.25483 0.45733 0.10396 0.0
C436 C 0.17521 0.43893 0.10613 0.0
C437 C 0.28823 0.46454 0.08424 0.0
C438 C 0.24239 0.45334 0.06631 0.0
C439 C 0.16223 0.43337 0.06842 0.0
C440 C 0.12863 0.42545 0.08819 0.0
C441 C 0.27976 0.46749 0.04543 0.0
C442 C 0.28367 0.52979 0.0334 0.0
C443 C 0.31742 0.42531 0.0382 0.0
C444 C 0.31413 0.35804 0.05017 0.0
C445 C 0.24048 0.29376 0.05669 0.0
C446 C 0.23791 0.23133 0.06827 0.0
C447 C 0.30857 0.23216 0.07331 0.0
C448 C 0.38195 0.2953 0.06671 0.0
C449 C 0.38489 0.35794 0.05515 0.0
H450 H 0.30646 0.18381 0.0823 0.0
H451 H 0.35959 0.81449 0.97616 0.0
H452 H 0.70881 0.41802 0.37496 0.0
H453 H 0.76103 0.44078 0.33932 0.0
H454 H 0.87616 0.30348 0.35235 0.0
H455 H 0.82832 0.28446 0.38809 0.0
H456 H 0.97325 0.42994 0.3319 0.0
H457 H 0.69735 0.22792 0.32402 0.0
H458 H 0.55158 0.16957 0.32719 0.0
H459 H 0.56319 0.36065 0.2905 0.0
H460 H 0.70925 0.42071 0.28733 0.0
H461 H 0.04315 0.33587 0.23001 0.0
H462 H 0.99435 0.33024 0.26553 0.0
H463 H 0.90809 0.48908 0.24804 0.0
H464 H 0.95771 0.49592 0.21265 0.0
H465 H 0.79687 0.36078 0.27017 0.0
H466 H 0.07502 0.56298 0.27922 0.0
H467 H 0.22087 0.62004 0.27715 0.0
H468 H 0.20173 0.42015 0.31121 0.0
H469 H 0.05583 0.36279 0.31385 0.0
C470 C 0.74602 0.3935 0.37028 0.0
C471 C 0.76371 0.34876 0.38435 0.0
C472 C 0.775 0.40571 0.34983 0.0
C473 C 0.82148 0.37272 0.34303 0.0
C474 C 0.8401 0.32918 0.35716 0.0
C475 C 0.81192 0.31764 0.37758 0.0
C476 C 0.85232 0.38419 0.32137 0.0
C477 C 0.93434 0.41399 0.31845 0.0
C478 C 0.8021 0.36526 0.30373 0.0
C479 C 0.71434 0.32932 0.30566 0.0
C480 C 0.66891 0.25787 0.31678 0.0
C481 C 0.58621 0.22441 0.31855 0.0
C482 C 0.54818 0.26152 0.30911 0.0
C483 C 0.59275 0.33206 0.29784 0.0
C484 C 0.67548 0.36581 0.29604 0.0
C485 C 0.01445 0.37015 0.2338 0.0
C486 C 0.00375 0.41585 0.21852 0.0
C487 C 0.98666 0.36696 0.25408 0.0
C488 C 0.9481 0.40974 0.25945 0.0
C489 C 0.93757 0.45556 0.24422 0.0
C490 C 0.96572 0.45913 0.22399 0.0
C491 C 0.91734 0.40527 0.28086 0.0
C492 C 0.83551 0.37703 0.28369 0.0
C493 C 0.9674 0.42481 0.29847 0.0
C494 C 0.05469 0.45835 0.29655 0.0
C495 C 0.10196 0.53102 0.28613 0.0
C496 C 0.18464 0.56349 0.28491 0.0
C497 C 0.22047 0.5233 0.29387 0.0
C498 C 0.17384 0.45104 0.30424 0.0
C499 C 0.09126 0.41878 0.3057 0.0
H500 H 0.28433 0.54807 0.29287 0.0
H501 H 0.48415 0.23552 0.31049 0.0
H502 H 0.51992 0.51274 0.77731 0.0
H503 H 0.5042 0.54792 0.74182 0.0
H504 H 0.75966 0.66846 0.7332 0.0
H505 H 0.77587 0.63704 0.7691 0.0
H506 H 0.70377 0.7588 0.72007 0.0
H507 H 0.63116 0.48523 0.70984 0.0
H508 H 0.55715 0.3405 0.71686 0.0
H509 H 0.33626 0.332 0.70273 0.0
H510 H 0.40851 0.4769 0.69601 0.0
H511 H 0.62762 0.77505 0.60648 0.0
H512 H 0.66363 0.72068 0.63636 0.0
H513 H 0.47342 0.71684 0.67229 0.0
H514 H 0.43444 0.76751 0.64239 0.0
H515 H 0.51467 0.56638 0.66846 0.0
H516 H 0.64576 0.86029 0.71258 0.0
H517 H 0.72174 0.00578 0.70665 0.0
H518 H 0.83306 0.9709 0.65285 0.0
H519 H 0.75984 0.8257 0.6589 0.0
C520 C 0.5727 0.5471 0.76788 0.0
C521 C 0.64912 0.57336 0.77608 0.0
C522 C 0.56361 0.56621 0.74749 0.0
C523 C 0.63074 0.61013 0.73475 0.0
C524 C 0.70704 0.63448 0.74275 0.0
C525 C 0.71617 0.61617 0.76322 0.0
C526 C 0.62169 0.63472 0.71353 0.0
C527 C 0.66338 0.7164 0.70868 0.0
C528 C 0.56883 0.57951 0.69866 0.0
C529 C 0.52531 0.49214 0.70253 0.0
C530 C 0.56676 0.45264 0.70835 0.0
C531 C 0.52515 0.37055 0.71226 0.0
C532 C 0.44218 0.32713 0.71024 0.0
C533 C 0.40056 0.3657 0.70428 0.0
C534 C 0.44181 0.44781 0.70041 0.0
C535 C 0.59274 0.76169 0.62064 0.0
C536 C 0.52868 0.77663 0.6221 0.0
C537 C 0.61396 0.73143 0.63773 0.0
C538 C 0.57249 0.71717 0.6566 0.0
C539 C 0.507 0.72914 0.65791 0.0
C540 C 0.48525 0.75863 0.64084 0.0
C541 C 0.5967 0.68987 0.67521 0.0
C542 C 0.55664 0.60805 0.67971 0.0
C543 C 0.65169 0.74468 0.6897 0.0
C544 C 0.69549 0.83191 0.68583 0.0
C545 C 0.68642 0.88373 0.69948 0.0
C546 C 0.72936 0.96621 0.69617 0.0
C547 C 0.78178 0.99752 0.67929 0.0
C548 C 0.79179 0.9465 0.66579 0.0
C549 C 0.74939 0.86408 0.66912 0.0
H550 H 0.81512 0.0613 0.67672 0.0
H551 H 0.41014 0.26358 0.71327 0.0
H552 H 0.66065 0.57439 0.90054 0.0
H553 H 0.64711 0.54577 0.93761 0.0
H554 H 0.68857 0.34917 0.92678 0.0
H555 H 0.69475 0.37394 0.88925 0.0
H556 H 0.58836 0.31154 0.95714 0.0
H557 H 0.83883 0.54154 0.94108 0.0
H558 H 0.92672 0.67396 0.92566 0.0
H559 H 0.82537 0.7776 0.96592 0.0
H560 H 0.73643 0.64572 0.98147 0.0
H561 H 0.83014 0.45936 0.06065 0.0
H562 H 0.81451 0.47458 0.0238 0.0
H563 H 0.55818 0.34116 0.03078 0.0
H564 H 0.57369 0.31787 0.06739 0.0
H565 H 0.76162 0.54259 0.0022 0.0
H566 H 0.46841 0.24901 0.98622 0.0
H567 H 0.39216 0.11158 -0.00012 0.0
H568 H 0.60878 0.12805 0.02249 0.0
H569 H 0.68633 0.26523 0.00877 0.0
C570 C 0.66519 0.52421 0.90598 0.0
C571 C 0.67935 0.47704 0.89194 0.0
C572 C 0.65812 0.50817 0.92724 0.0
C573 C 0.66902 0.44673 0.93512 0.0
C574 C 0.68043 0.39735 0.92111 0.0
C575 C 0.68475 0.41195 0.89965 0.0
C576 C 0.67332 0.43752 0.95797 0.0
C577 C 0.62629 0.36202 0.967 0.0
C578 C 0.72378 0.50316 0.97085 0.0
C579 C 0.77983 0.58335 0.96218 0.0
C580 C 0.835 0.59249 0.94658 0.0
C581 C 0.88509 0.66749 0.93783 0.0
C582 C 0.88135 0.73408 0.94473 0.0
C583 C 0.82803 0.72592 0.96054 0.0
C584 C 0.77773 0.65102 0.96932 0.0
C585 C 0.77027 0.43149 0.05435 0.0
C586 C 0.70322 0.38557 0.06703 0.0
C587 C 0.76138 0.44148 0.03323 0.0
C588 C 0.68518 0.40777 0.02427 0.0
C589 C 0.61777 0.36587 0.03711 0.0
C590 C 0.62671 0.3538 0.0582 0.0
C591 C 0.67755 0.4162 0.00147 0.0
C592 C 0.72358 0.49193 0.99241 0.0
C593 C 0.62882 0.35016 0.9885 0.0
C594 C 0.58294 0.26756 0.99666 0.0
C595 C 0.49972 0.22315 0.99405 0.0
C596 C 0.4563 0.14536 0.00182 0.0
C597 C 0.49558 0.1112 0.0121 0.0
C598 C 0.5784 0.15468 0.01458 0.0
C599 C 0.6221 0.23247 0.00684 0.0
H600 H 0.46185 0.05098 0.01811 0.0
H601 H 0.91997 0.79205 0.93788 0.0
H602 H 0.4105 0.87394 0.26575 0.0
H603 H 0.43895 0.90243 0.30279 0.0
H604 H 0.4264 0.67503 0.31117 0.0
H605 H 0.40438 0.64916 0.27387 0.0
H606 H 0.35982 0.83843 0.33627 0.0
H607 H 0.54419 0.68194 0.35025 0.0
H608 H 0.63419 0.64856 0.33098 0.0
H609 H 0.69867 0.84624 0.2897 0.0
H610 H 0.6098 0.88133 0.30887 0.0
H611 H 0.41336 0.81695 0.4455 0.0
H612 H 0.382 0.78061 0.40876 0.0
H613 H 0.62491 0.9513 0.392 0.0
H614 H 0.65707 0.98645 0.42854 0.0
H615 H 0.57582 0.81548 0.37141 0.0
H616 H 0.47809 0.9948 0.38529 0.0
H617 H 0.39971 0.0435 0.40423 0.0
H618 H 0.18281 0.82932 0.38834 0.0
H619 H 0.2601 0.77876 0.36957 0.0
C620 C 0.41531 0.83063 0.2754 0.0
C621 C 0.40532 0.75927 0.26681 0.0
C622 C 0.4305 0.84654 0.29665 0.0
C623 C 0.43552 0.79125 0.30981 0.0
C624 C 0.42427 0.71937 0.30133 0.0
C625 C 0.41056 0.70412 0.28002 0.0
C626 C 0.45316 0.8093 0.33233 0.0
C627 C 0.40697 0.8332 0.34393 0.0
C628 C 0.51533 0.8036 0.34237 0.0
C629 C 0.56973 0.7837 0.33087 0.0
C630 C 0.57781 0.71843 0.3371 0.0
C631 C 0.62857 0.69918 0.32619 0.0
C632 C 0.67192 0.74509 0.30908 0.0
C633 C 0.66483 0.81055 0.3029 0.0
C634 C 0.61421 0.83009 0.31377 0.0
C635 C 0.46016 0.8462 0.434 0.0
C636 C 0.53775 0.90424 0.43995 0.0
C637 C 0.44208 0.82572 0.41301 0.0
C638 C 0.5011 0.86353 0.39764 0.0
C639 C 0.57858 0.92109 0.4036 0.0
C640 C 0.59671 0.94136 0.42452 0.0
C641 C 0.48249 0.84441 0.37526 0.0
C642 C 0.52835 0.82012 0.36373 0.0
C643 C 0.42165 0.85203 0.36518 0.0
C644 C 0.37492 0.88263 0.37621 0.0
C645 C 0.41371 0.95783 0.38596 0.0
C646 C 0.36949 0.98581 0.39665 0.0
C647 C 0.28634 0.93944 0.39753 0.0
C648 C 0.24724 0.86511 0.38767 0.0
C649 C 0.29121 0.83677 0.37699 0.0
H650 H 0.2522 0.96118 0.40582 0.0
H651 H 0.71112 0.73005 0.30064 0.0
H652 H 0.66608 0.31575 0.7191 0.0
H653 H 0.66051 0.29922 0.6814 0.0
H654 H 0.75472 0.14 0.687 0.0
H655 H 0.76402 0.1585 0.72474 0.0
H656 H 0.7793 0.32296 0.65044 0.0
H657 H 0.63054 0.97859 0.65435 0.0
H658 H 0.54655 0.86954 0.67857 0.0
H659 H 0.45153 0.00957 0.70427 0.0
H660 H 0.53433 0.11941 0.68016 0.0
H661 H 0.76713 0.15365 0.54969 0.0
H662 H 0.78989 0.19828 0.58612 0.0
H663 H 0.53644 0.1011 0.5945 0.0
H664 H 0.5136 0.05485 0.55842 0.0
H665 H 0.59198 0.05067 0.62423 0.0
H666 H 0.66839 0.30483 0.59316 0.0
H667 H 0.74351 0.41689 0.56895 0.0
H668 H 0.96419 0.46103 0.59643 0.0
H669 H 0.89031 0.34892 0.62079 0.0
C670 C 0.68732 0.27847 0.7124 0.0
C671 C 0.71504 0.23812 0.72516 0.0
C672 C 0.68397 0.2691 0.69079 0.0
C673 C 0.70701 0.21821 0.68148 0.0
C674 C 0.73625 0.17912 0.69398 0.0
C675 C 0.74063 0.18919 0.71559 0.0
C676 C 0.69518 0.20149 0.65887 0.0
C677 C 0.73859 0.26349 0.64465 0.0
C678 C 0.64094 0.12422 0.6514 0.0
C679 C 0.58973 0.05776 0.66568 0.0
C680 C 0.59157 0.98607 0.66512 0.0
C681 C 0.544 0.92401 0.67879 0.0
C682 C 0.49386 0.93254 0.69295 0.0
C683 C 0.49074 0.00313 0.69339 0.0
C684 C 0.53814 0.06543 0.67976 0.0
C685 C 0.71662 0.14291 0.55931 0.0
C686 C 0.63855 0.09953 0.55151 0.0
C687 C 0.72959 0.16848 0.58006 0.0
C688 C 0.66472 0.15248 0.59308 0.0
C689 C 0.58721 0.11301 0.58484 0.0
C690 C 0.57422 0.08658 0.56427 0.0
C691 C 0.67637 0.17202 0.61561 0.0
C692 C 0.63305 0.11025 0.62991 0.0
C693 C 0.72936 0.24985 0.62306 0.0
C694 C 0.77386 0.31811 0.60868 0.0
C695 C 0.73296 0.3382 0.59397 0.0
C696 C 0.77531 0.40174 0.58023 0.0
C697 C 0.85859 0.44583 0.58108 0.0
C698 C 0.89967 0.42676 0.59577 0.0
C699 C 0.85758 0.36336 0.60959 0.0
H700 H 0.89128 0.49487 0.57038 0.0
H701 H 0.45734 0.88439 0.70354 0.0
loop_
_geom_bond_atom_site_label_1
_geom_bond_atom_site_label_2
_geom_bond_distance
_geom_bond_site_symmetry_2
_ccdc_geom_bond_type
Eu0 N29 2.600 . S
Eu0 N35 2.562 . S
Eu0 O44 2.462 . S
Eu0 O45 2.373 . S
Eu0 O47 2.432 . S
Eu0 O48 2.291 . S
Eu0 O52 2.335 1_655 S
Eu0 O55 2.372 . S
Eu0 C64 2.787 . S
C1 N2 1.365 . S
C1 C4 1.405 . S
C1 C8 1.448 . S
N2 C1 1.365 . S
N2 C5 1.319 . S
N2 Eu11 2.600 . S
C3 C5 1.397 . S
C3 C6 1.367 . S
C3 H23 0.931 . S
C4 C1 1.405 . S
C4 C6 1.403 . S
C4 C10 1.439 . S
C5 N2 1.319 . S
C5 C3 1.397 . S
C5 H16 0.930 . S
C6 C3 1.367 . S
C6 C4 1.403 . S
C6 H27 0.929 . S
C7 C8 1.430 . S
C7 C9 1.387 . S
C7 C13 1.404 . S
C8 C1 1.448 . S
C8 C7 1.430 . S
C8 N12 1.351 . S
C9 C7 1.387 . S
C9 C10 1.374 . S
C9 H24 0.931 . S
C10 C4 1.439 . S
C10 C9 1.374 . S
C10 H25 0.931 . S
Eu11 N2 2.600 . S
Eu11 N12 2.562 . S
Eu11 O46 2.335 1_455 S
Eu11 O49 2.372 . S
Eu11 O50 2.462 . S
Eu11 O51 2.373 . S
Eu11 O53 2.432 . S
Eu11 O54 2.291 . S
Eu11 C75 2.787 . S
N12 C8 1.351 . S
N12 Eu11 2.562 . S
N12 C14 1.325 . S
C13 C7 1.404 . S
C13 C15 1.366 . S
C13 H21 0.930 . S
C14 N12 1.325 . S
C14 C15 1.416 . S
C14 H20 0.929 . S
C15 C13 1.366 . S
C15 C14 1.416 . S
C15 H17 0.930 . S
H16 C5 0.930 . S
H17 C15 0.930 . S
H18 C33 0.930 . S
H19 C40 0.930 . S
H20 C14 0.929 . S
H21 C13 0.930 . S
H22 C36 0.929 . S
H23 C3 0.931 . S
H24 C9 0.931 . S
H25 C10 0.931 . S
H26 C31 0.931 . S
H27 C6 0.929 . S
H28 C39 0.930 . S
N29 Eu0 2.600 . S
N29 C30 1.365 . S
N29 C33 1.319 . S
C30 N29 1.365 . S
C30 C32 1.405 . S
C30 C38 1.448 . S
C31 H26 0.931 . S
C31 C33 1.397 . S
C31 C34 1.367 . S
C32 C30 1.405 . S
C32 C34 1.403 . S
C32 C65 1.439 . S
C33 H18 0.930 . S
C33 N29 1.319 . S
C33 C31 1.397 . S
C34 C31 1.367 . S
C34 C32 1.403 . S
C34 H41 0.929 . S
N35 Eu0 2.562 . S
N35 C36 1.325 . S
N35 C38 1.351 . S
C36 H22 0.929 . S
C36 N35 1.325 . S
C36 C40 1.416 . S
C37 C38 1.430 . S
C37 C39 1.404 . S
C37 C66 1.387 . S
C38 C30 1.448 . S
C38 N35 1.351 . S
C38 C37 1.430 . S
C39 H28 0.930 . S
C39 C37 1.404 . S
C39 C40 1.366 . S
C40 H19 0.930 . S
C40 C36 1.416 . S
C40 C39 1.366 . S
H41 C34 0.929 . S
H42 C65 0.931 . S
H43 C66 0.931 . S
O44 Eu0 2.462 . S
O44 C64 1.252 . S
O45 Eu0 2.373 . S
O45 C56 1.249 . S
O46 Eu11 2.335 1_655 S
O46 C56 1.264 . S
O47 Eu0 2.432 . S
O47 C64 1.268 . S
O48 Eu0 2.291 . S
O48 C63 1.255 . S
O49 Eu11 2.372 . S
O49 C63 1.257 1_455 S
O50 Eu11 2.462 . S
O50 C75 1.252 . S
O51 Eu11 2.373 . S
O51 C67 1.249 . S
O52 Eu0 2.335 1_455 S
O52 C67 1.264 . S
O53 Eu11 2.432 . S
O53 C75 1.268 . S
O54 Eu11 2.291 . S
O54 C74 1.255 . S
O55 Eu0 2.372 . S
O55 C74 1.257 1_655 S
C56 O45 1.249 . S
C56 O46 1.264 . S
C57 C60 1.382 . S
C57 C62 1.390 . S
C57 C64 1.506 . S
C58 C59 1.398 . S
C58 C62 1.392 . S
C59 C58 1.398 . S
C59 C61 1.372 . S
C59 H76 0.931 . S
C60 C57 1.382 . S
C60 C61 1.390 . S
C60 H77 0.931 . S
C61 C59 1.372 . S
C61 C60 1.390 . S
C61 H78 0.929 . S
C62 C57 1.390 . S
C62 C58 1.392 . S
C62 H79 0.930 . S
C63 O48 1.255 . S
C63 O49 1.257 1_655 S
C64 Eu0 2.787 . S
C64 O44 1.252 . S
C64 O47 1.268 . S
C64 C57 1.506 . S
C65 C32 1.439 . S
C65 H42 0.931 . S
C65 C66 1.374 . S
C66 C37 1.387 . S
C66 H43 0.931 . S
C66 C65 1.374 . S
C67 O51 1.249 . S
C67 O52 1.264 . S
C68 C71 1.382 . S
C68 C72 1.390 . S
C68 C75 1.506 . S
C69 C70 1.398 . S
C69 C72 1.392 . S
C70 C69 1.398 . S
C70 C73 1.372 . S
C70 H80 0.931 . S
C71 C68 1.382 . S
C71 C73 1.390 . S
C71 H81 0.931 . S
C72 C68 1.390 . S
C72 C69 1.392 . S
C72 H82 0.930 . S
C73 C70 1.372 . S
C73 C71 1.390 . S
C73 H83 0.929 . S
C74 O54 1.255 . S
C74 O55 1.257 1_455 S
C75 Eu11 2.787 . S
C75 O50 1.252 . S
C75 O53 1.268 . S
C75 C68 1.506 . S
H76 C59 0.931 . S
H77 C60 0.931 . S
H78 C61 0.929 . S
H79 C62 0.930 . S
H80 C70 0.931 . S
H81 C71 0.931 . S
H82 C72 0.930 . S
H83 C73 0.929 . S
Eu84 N113 2.600 . S
Eu84 N119 2.562 . S
Eu84 O128 2.462 . S
Eu84 O129 2.373 . S
Eu84 O131 2.432 . S
Eu84 O132 2.291 . S
Eu84 O136 2.335 . S
Eu84 O139 2.372 . S
Eu84 C148 2.787 . S
C85 N86 1.365 . S
C85 C88 1.405 . S
C85 C92 1.448 . S
N86 C85 1.365 . S
N86 C89 1.319 . S
N86 Eu95 2.600 1_565 S
C87 C89 1.397 . S
C87 C90 1.367 . S
C87 H107 0.931 . S
C88 C85 1.405 . S
C88 C90 1.403 . S
C88 C94 1.439 . S
C89 N86 1.319 . S
C89 C87 1.397 . S
C89 H100 0.930 . S
C90 C87 1.367 . S
C90 C88 1.403 . S
C90 H111 0.929 . S
C91 C92 1.430 . S
C91 C93 1.387 . S
C91 C97 1.404 . S
C92 C85 1.448 . S
C92 C91 1.430 . S
C92 N96 1.351 . S
C93 C91 1.387 . S
C93 C94 1.374 . S
C93 H108 0.931 . S
C94 C88 1.439 . S
C94 C93 1.374 . S
C94 H109 0.931 . S
Eu95 N86 2.600 1_545 S
Eu95 N96 2.562 1_545 S
Eu95 O130 2.335 . S
Eu95 O133 2.372 . S
Eu95 O134 2.462 1_545 S
Eu95 O135 2.373 . S
Eu95 O137 2.432 1_545 S
Eu95 O138 2.291 . S
Eu95 C159 2.787 1_545 S
N96 C92 1.351 . S
N96 Eu95 2.562 1_565 S
N96 C98 1.325 . S
C97 C91 1.404 . S
C97 C99 1.366 . S
C97 H105 0.930 . S
C98 N96 1.325 . S
C98 C99 1.416 . S
C98 H104 0.929 . S
C99 C97 1.366 . S
C99 C98 1.416 . S
C99 H101 0.930 . S
H100 C89 0.930 . S
H101 C99 0.930 . S
H102 C117 0.930 . S
H103 C124 0.930 . S
H104 C98 0.929 . S
H105 C97 0.930 . S
H106 C120 0.929 . S
H107 C87 0.931 . S
H108 C93 0.931 . S
H109 C94 0.931 . S
H110 C115 0.931 . S
H111 C90 0.929 . S
H112 C123 0.930 . S
N113 Eu84 2.600 . S
N113 C114 1.365 . S
N113 C117 1.319 . S
C114 N113 1.365 . S
C114 C116 1.405 . S
C114 C122 1.448 . S
C115 H110 0.931 . S
C115 C117 1.397 1_455 S
C115 C118 1.367 . S
C116 C114 1.405 . S
C116 C118 1.403 1_655 S
C116 C149 1.439 . S
C117 H102 0.930 . S
C117 N113 1.319 . S
C117 C115 1.397 1_655 S
C118 C115 1.367 . S
C118 C116 1.403 1_455 S
C118 H125 0.929 . S
N119 Eu84 2.562 . S
N119 C120 1.325 . S
N119 C122 1.351 . S
C120 H106 0.929 . S
C120 N119 1.325 . S
C120 C124 1.416 . S
C121 C122 1.430 . S
C121 C123 1.404 . S
C121 C150 1.387 . S
C122 C114 1.448 . S
C122 N119 1.351 . S
C122 C121 1.430 . S
C123 H112 0.930 . S
C123 C121 1.404 . S
C123 C124 1.366 . S
C124 H103 0.930 . S
C124 C120 1.416 . S
C124 C123 1.366 . S
H125 C118 0.929 . S
H126 C149 0.931 1_455 S
H127 C150 0.931 . S
O128 Eu84 2.462 . S
O128 C148 1.252 . S
O129 Eu84 2.373 . S
O129 C140 1.249 . S
O130 Eu95 2.335 . S
O130 C140 1.264 . S
O131 Eu84 2.432 . S
O131 C148 1.268 . S
O132 Eu84 2.291 . S
O132 C147 1.255 . S
O133 Eu95 2.372 . S
O133 C147 1.257 . S
O134 Eu95 2.462 1_565 S
O134 C159 1.252 . S
O135 Eu95 2.373 . S
O135 C151 1.249 . S
O136 Eu84 2.335 . S
O136 C151 1.264 . S
O137 Eu95 2.432 1_565 S
O137 C159 1.268 . S
O138 Eu95 2.291 . S
O138 C158 1.255 . S
O139 Eu84 2.372 . S
O139 C158 1.257 . S
C140 O129 1.249 . S
C140 O130 1.264 . S
C141 C144 1.382 . S
C141 C146 1.390 . S
C141 C148 1.506 . S
C142 C143 1.398 . S
C142 C146 1.392 . S
C143 C142 1.398 . S
C143 C145 1.372 . S
C143 H160 0.931 . S
C144 C141 1.382 . S
C144 C145 1.390 . S
C144 H161 0.931 . S
C145 C143 1.372 . S
C145 C144 1.390 . S
C145 H162 0.929 . S
C146 C141 1.390 . S
C146 C142 1.392 . S
C146 H163 0.930 . S
C147 O132 1.255 . S
C147 O133 1.257 . S
C148 Eu84 2.787 . S
C148 O128 1.252 . S
C148 O131 1.268 . S
C148 C141 1.506 . S
C149 C116 1.439 . S
C149 H126 0.931 1_655 S
C149 C150 1.374 . S
C150 C121 1.387 . S
C150 H127 0.931 . S
C150 C149 1.374 . S
C151 O135 1.249 . S
C151 O136 1.264 . S
C152 C155 1.382 . S
C152 C156 1.390 . S
C152 C159 1.506 . S
C153 C154 1.398 . S
C153 C156 1.392 . S
C154 C153 1.398 . S
C154 C157 1.372 . S
C154 H164 0.931 . S
C155 C152 1.382 . S
C155 C157 1.390 . S
C155 H165 0.931 . S
C156 C152 1.390 . S
C156 C153 1.392 . S
C156 H166 0.930 . S
C157 C154 1.372 . S
C157 C155 1.390 . S
C157 H167 0.929 . S
C158 O138 1.255 . S
C158 O139 1.257 . S
C159 Eu95 2.787 1_565 S
C159 O134 1.252 . S
C159 O137 1.268 . S
C159 C152 1.506 . S
H160 C143 0.931 . S
H161 C144 0.931 . S
H162 C145 0.929 . S
H163 C146 0.930 . S
H164 C154 0.931 . S
H165 C155 0.931 . S
H166 C156 0.930 . S
H167 C157 0.929 . S
Eu168 N197 2.600 . S
Eu168 N203 2.562 . S
Eu168 O212 2.462 . S
Eu168 O213 2.373 . S
Eu168 O215 2.432 . S
Eu168 O216 2.291 . S
Eu168 O220 2.335 . S
Eu168 O223 2.372 . S
Eu168 C232 2.787 . S
C169 N170 1.365 . S
C169 C172 1.405 . S
C169 C176 1.448 . S
N170 C169 1.365 . S
N170 C173 1.319 . S
N170 Eu179 2.600 . S
C171 C173 1.397 . S
C171 C174 1.367 . S
C171 H191 0.931 . S
C172 C169 1.405 . S
C172 C174 1.403 . S
C172 C178 1.439 . S
C173 N170 1.319 . S
C173 C171 1.397 . S
C173 H184 0.930 . S
C174 C171 1.367 . S
C174 C172 1.403 . S
C174 H195 0.929 . S
C175 C176 1.430 . S
C175 C177 1.387 . S
C175 C181 1.404 . S
C176 C169 1.448 . S
C176 C175 1.430 . S
C176 N180 1.351 . S
C177 C175 1.387 . S
C177 C178 1.374 . S
C177 H192 0.931 . S
C178 C172 1.439 . S
C178 C177 1.374 . S
C178 H193 0.931 . S
Eu179 N170 2.600 . S
Eu179 N180 2.562 . S
Eu179 O214 2.335 . S
Eu179 O217 2.372 . S
Eu179 O218 2.462 . S
Eu179 O219 2.373 . S
Eu179 O221 2.432 . S
Eu179 O222 2.291 . S
Eu179 C243 2.787 . S
N180 C176 1.351 . S
N180 Eu179 2.562 . S
N180 C182 1.325 . S
C181 C175 1.404 . S
C181 C183 1.366 . S
C181 H189 0.930 . S
C182 N180 1.325 . S
C182 C183 1.416 . S
C182 H188 0.929 . S
C183 C181 1.366 . S
C183 C182 1.416 . S
C183 H185 0.930 . S
H184 C173 0.930 . S
H185 C183 0.930 . S
H186 C201 0.930 . S
H187 C208 0.930 1_455 S
H188 C182 0.929 . S
H189 C181 0.930 . S
H190 C204 0.929 . S
H191 C171 0.931 . S
H192 C177 0.931 . S
H193 C178 0.931 . S
H194 C199 0.931 . S
H195 C174 0.929 . S
H196 C207 0.921 1_455 S
N197 Eu168 2.600 . S
N197 C198 1.365 . S
N197 C201 1.319 . S
C198 N197 1.365 . S
C198 C200 1.405 . S
C198 C206 1.448 . S
C199 H194 0.931 . S
C199 C201 1.397 . S
C199 C202 1.367 . S
C200 C198 1.405 . S
C200 C202 1.403 . S
C200 C233 1.439 . S
C201 H186 0.930 . S
C201 N197 1.319 . S
C201 C199 1.397 . S
C202 C199 1.367 . S
C202 C200 1.403 . S
C202 H209 0.929 . S
N203 Eu168 2.562 . S
N203 C204 1.325 . S
N203 C206 1.351 . S
C204 H190 0.929 . S
C204 N203 1.325 . S
C204 C208 1.416 . S
C205 C206 1.430 . S
C205 C207 1.404 . S
C205 C234 1.387 . S
C206 C198 1.448 . S
C206 N203 1.351 . S
C206 C205 1.430 . S
C207 H196 0.921 1_655 S
C207 C205 1.404 . S
C207 C208 1.366 . S
C208 H187 0.930 1_655 S
C208 C204 1.416 . S
C208 C207 1.366 . S
H209 C202 0.929 . S
H210 C233 0.931 . S
H211 C234 0.931 . S
O212 Eu168 2.462 . S
O212 C232 1.252 . S
O213 Eu168 2.373 . S
O213 C224 1.249 . S
O214 Eu179 2.335 . S
O214 C224 1.264 . S
O215 Eu168 2.432 . S
O215 C232 1.268 . S
O216 Eu168 2.291 . S
O216 C231 1.255 . S
O217 Eu179 2.372 . S
O217 C231 1.257 . S
O218 Eu179 2.462 . S
O218 C243 1.252 . S
O219 Eu179 2.373 . S
O219 C235 1.249 . S
O220 Eu168 2.335 . S
O220 C235 1.264 . S
O221 Eu179 2.432 . S
O221 C243 1.268 . S
O222 Eu179 2.291 . S
O222 C242 1.255 . S
O223 Eu168 2.372 . S
O223 C242 1.257 . S
C224 O213 1.249 . S
C224 O214 1.264 . S
C225 C228 1.382 . S
C225 C230 1.390 . S
C225 C232 1.506 . S
C226 C227 1.398 . S
C226 C230 1.392 . S
C227 C226 1.398 . S
C227 C229 1.372 . S
C227 H244 0.931 . S
C228 C225 1.382 . S
C228 C229 1.390 . S
C228 H245 0.931 . S
C229 C227 1.372 . S
C229 C228 1.390 . S
C229 H246 0.929 . S
C230 C225 1.390 . S
C230 C226 1.392 . S
C230 H247 0.930 . S
C231 O216 1.255 . S
C231 O217 1.257 . S
C232 Eu168 2.787 . S
C232 O212 1.252 . S
C232 O215 1.268 . S
C232 C225 1.506 . S
C233 C200 1.439 . S
C233 H210 0.931 . S
C233 C234 1.374 . S
C234 C205 1.387 . S
C234 H211 0.931 . S
C234 C233 1.374 . S
C235 O219 1.249 . S
C235 O220 1.264 . S
C236 C239 1.382 . S
C236 C240 1.390 . S
C236 C243 1.506 . S
C237 C238 1.398 . S
C237 C240 1.392 . S
C238 C237 1.398 . S
C238 C241 1.372 . S
C238 H248 0.931 . S
C239 C236 1.382 . S
C239 C241 1.390 . S
C239 H249 0.931 . S
C240 C236 1.390 . S
C240 C237 1.392 . S
C240 H250 0.930 . S
C241 C238 1.372 . S
C241 C239 1.390 . S
C241 H251 0.929 . S
C242 O222 1.255 . S
C242 O223 1.257 . S
C243 Eu179 2.787 . S
C243 O218 1.252 . S
C243 O221 1.268 . S
C243 C236 1.506 . S
H244 C227 0.931 . S
H245 C228 0.931 . S
H246 C229 0.929 . S
H247 C230 0.930 . S
H248 C238 0.931 . S
H249 C239 0.931 . S
H250 C240 0.930 . S
H251 C241 0.929 . S
H252 C270 0.951 . S
H253 C272 0.951 . S
H254 C274 0.950 . S
H255 C275 0.950 . S
H256 C277 0.950 . S
H257 C280 0.950 . S
H258 C281 0.950 . S
H259 C283 0.950 . S
H260 C284 0.950 . S
H261 C285 0.951 . S
H262 C287 0.951 . S
H263 C289 0.950 . S
H264 C290 0.950 . S
H265 C292 0.950 . S
H266 C295 0.950 . S
H267 C296 0.950 . S
H268 C298 0.950 . S
H269 C299 0.950 . S
C270 H252 0.951 . S
C270 C271 1.366 1_655 S
C270 C272 1.388 . S
C271 C270 1.366 1_455 S
C271 C275 1.385 . S
C272 H253 0.951 . S
C272 C270 1.388 . S
C272 C273 1.366 1_655 S
C273 C272 1.366 1_455 S
C273 C274 1.414 . S
C273 C276 1.499 . S
C274 H254 0.950 . S
C274 C273 1.414 . S
C274 C275 1.374 . S
C275 H255 0.950 . S
C275 C271 1.385 . S
C275 C274 1.374 . S
C276 C273 1.499 . S
C276 C277 1.373 . S
C276 C278 1.389 1_455 S
C277 H256 0.950 . S
C277 C276 1.373 . S
C277 C293 1.377 . S
C278 C276 1.389 1_655 S
C278 C279 1.524 . S
C278 C292 1.377 . S
C279 C278 1.524 . S
C279 C280 1.397 1_655 S
C279 C284 1.363 . S
C280 H257 0.950 . S
C280 C279 1.397 1_455 S
C280 C281 1.334 . S
C281 H258 0.950 . S
C281 C280 1.334 . S
C281 C282 1.287 1_455 S
C282 C281 1.287 1_655 S
C282 C283 1.524 . S
C282 H301 0.913 . S
C283 H259 0.950 . S
C283 C282 1.524 . S
C283 C284 1.415 . S
C284 H260 0.950 . S
C284 C279 1.363 . S
C284 C283 1.415 . S
C285 H261 0.951 . S
C285 C286 1.366 1_455 S
C285 C287 1.388 . S
C286 C285 1.366 1_655 S
C286 C290 1.385 . S
C287 H262 0.951 . S
C287 C285 1.388 . S
C287 C288 1.366 1_455 S
C288 C287 1.366 1_655 S
C288 C289 1.414 . S
C288 C291 1.499 . S
C289 H263 0.950 . S
C289 C288 1.414 . S
C289 C290 1.374 . S
C290 H264 0.950 . S
C290 C286 1.385 . S
C290 C289 1.374 . S
C291 C288 1.499 . S
C291 C292 1.373 1_545 S
C291 C293 1.389 1_645 S
C292 H265 0.950 . S
C292 C278 1.377 . S
C292 C291 1.373 1_565 S
C293 C277 1.377 . S
C293 C291 1.389 1_465 S
C293 C294 1.524 1_565 S
C294 C293 1.524 1_545 S
C294 C295 1.397 1_455 S
C294 C299 1.363 . S
C295 H266 0.950 . S
C295 C294 1.397 1_655 S
C295 C296 1.334 . S
C296 H267 0.950 . S
C296 C295 1.334 . S
C296 C297 1.287 1_655 S
C297 C296 1.287 1_455 S
C297 C298 1.524 . S
C297 H300 0.999 . S
C298 H268 0.950 . S
C298 C297 1.524 . S
C298 C299 1.415 . S
C299 H269 0.950 . S
C299 C294 1.363 . S
C299 C298 1.415 . S
H300 C297 0.999 . S
H301 C282 0.913 . S
H302 C320 0.951 . S
H303 C322 0.951 . S
H304 C324 0.950 . S
H305 C325 0.950 . S
H306 C327 0.950 . S
H307 C330 0.950 . S
H308 C331 0.950 . S
H309 C333 0.950 . S
H310 C334 0.950 . S
H311 C335 0.951 . S
H312 C337 0.951 . S
H313 C339 0.950 . S
H314 C340 0.950 . S
H315 C342 0.950 . S
H316 C345 0.950 1_455 S
H317 C346 0.950 . S
H318 C348 0.950 . S
H319 C349 0.950 . S
C320 H302 0.951 . S
C320 C321 1.366 . S
C320 C322 1.388 . S
C321 C320 1.366 . S
C321 C325 1.385 . S
C322 H303 0.951 . S
C322 C320 1.388 . S
C322 C323 1.366 . S
C323 C322 1.366 . S
C323 C324 1.414 . S
C323 C326 1.499 . S
C324 H304 0.950 . S
C324 C323 1.414 . S
C324 C325 1.374 . S
C325 H305 0.950 . S
C325 C321 1.385 . S
C325 C324 1.374 . S
C326 C323 1.499 . S
C326 C327 1.373 . S
C326 C328 1.389 . S
C327 H306 0.950 . S
C327 C326 1.373 . S
C327 C343 1.377 . S
C328 C326 1.389 . S
C328 C329 1.524 . S
C328 C342 1.377 . S
C329 C328 1.524 . S
C329 C330 1.397 . S
C329 C334 1.363 . S
C330 H307 0.950 . S
C330 C329 1.397 . S
C330 C331 1.334 . S
C331 H308 0.950 . S
C331 C330 1.334 . S
C331 C332 1.287 . S
C332 C331 1.287 . S
C332 C333 1.524 . S
C332 H351 0.913 . S
C333 H309 0.950 . S
C333 C332 1.524 . S
C333 C334 1.415 . S
C334 H310 0.950 . S
C334 C329 1.363 . S
C334 C333 1.415 . S
C335 H311 0.951 . S
C335 C336 1.366 . S
C335 C337 1.388 . S
C336 C335 1.366 . S
C336 C340 1.385 . S
C337 H312 0.951 . S
C337 C335 1.388 . S
C337 C338 1.366 1_655 S
C338 C337 1.366 1_455 S
C338 C339 1.414 . S
C338 C341 1.499 . S
C339 H313 0.950 . S
C339 C338 1.414 . S
C339 C340 1.374 1_455 S
C340 H314 0.950 . S
C340 C336 1.385 . S
C340 C339 1.374 1_655 S
C341 C338 1.499 . S
C341 C342 1.373 . S
C341 C343 1.389 . S
C342 H315 0.950 . S
C342 C328 1.377 . S
C342 C341 1.373 . S
C343 C327 1.377 . S
C343 C341 1.389 . S
C343 C344 1.524 1_545 S
C344 C343 1.524 1_565 S
C344 C345 1.397 1_455 S
C344 C349 1.363 . S
C345 H316 0.950 1_655 S
C345 C344 1.397 1_655 S
C345 C346 1.334 . S
C346 H317 0.950 . S
C346 C345 1.334 . S
C346 C347 1.287 . S
C347 C346 1.287 . S
C347 C348 1.524 . S
C347 H350 0.999 . S
C348 H318 0.950 . S
C348 C347 1.524 . S
C348 C349 1.415 1_655 S
C349 H319 0.950 . S
C349 C344 1.363 . S
C349 C348 1.415 1_455 S
H350 C347 0.999 . S
H351 C332 0.913 . S
H352 C370 0.951 . S
H353 C372 0.951 . S
H354 C374 0.950 . S
H355 C375 0.950 . S
H356 C377 0.950 . S
H357 C380 0.950 . S
H358 C381 0.950 . S
H359 C383 0.950 . S
H360 C384 0.950 . S
H361 C385 0.951 . S
H362 C387 0.951 . S
H363 C389 0.950 . S
H364 C390 0.950 . S
H365 C392 0.950 . S
H366 C395 0.950 . S
H367 C396 0.950 . S
H368 C398 0.950 . S
H369 C399 0.950 1_565 S
C370 H352 0.951 . S
C370 C371 1.366 . S
C370 C372 1.388 1_655 S
C371 C370 1.366 . S
C371 C375 1.385 . S
C372 H353 0.951 . S
C372 C370 1.388 1_455 S
C372 C373 1.366 . S
C373 C372 1.366 . S
C373 C374 1.414 . S
C373 C376 1.499 . S
C374 H354 0.950 . S
C374 C373 1.414 . S
C374 C375 1.374 1_455 S
C375 H355 0.950 . S
C375 C371 1.385 . S
C375 C374 1.374 1_655 S
C376 C373 1.499 . S
C376 C377 1.373 . S
C376 C378 1.389 . S
C377 H356 0.950 . S
C377 C376 1.373 . S
C377 C393 1.377 . S
C378 C376 1.389 . S
C378 C379 1.524 . S
C378 C392 1.377 . S
C379 C378 1.524 . S
C379 C380 1.397 . S
C379 C384 1.363 . S
C380 H357 0.950 . S
C380 C379 1.397 . S
C380 C381 1.334 . S
C381 H358 0.950 . S
C381 C380 1.334 . S
C381 C382 1.287 . S
C382 C381 1.287 . S
C382 C383 1.524 . S
C382 H401 0.913 . S
C383 H359 0.950 . S
C383 C382 1.524 . S
C383 C384 1.415 . S
C384 H360 0.950 . S
C384 C379 1.363 . S
C384 C383 1.415 . S
C385 H361 0.951 . S
C385 C386 1.366 . S
C385 C387 1.388 . S
C386 C385 1.366 . S
C386 C390 1.385 . S
C387 H362 0.951 . S
C387 C385 1.388 . S
C387 C388 1.366 . S
C388 C387 1.366 . S
C388 C389 1.414 . S
C388 C391 1.499 . S
C389 H363 0.950 . S
C389 C388 1.414 . S
C389 C390 1.374 . S
C390 H364 0.950 . S
C390 C386 1.385 . S
C390 C389 1.374 . S
C391 C388 1.499 . S
C391 C392 1.373 1_545 S
C391 C393 1.389 1_545 S
C392 H365 0.950 . S
C392 C378 1.377 . S
C392 C391 1.373 1_565 S
C393 C377 1.377 . S
C393 C391 1.389 1_565 S
C393 C394 1.524 1_565 S
C394 C393 1.524 1_545 S
C394 C395 1.397 . S
C394 C399 1.363 . S
C395 H366 0.950 . S
C395 C394 1.397 . S
C395 C396 1.334 . S
C396 H367 0.950 . S
C396 C395 1.334 . S
C396 C397 1.287 . S
C397 C396 1.287 . S
C397 C398 1.524 . S
C397 H400 0.999 . S
C398 H368 0.950 . S
C398 C397 1.524 . S
C398 C399 1.415 . S
C399 H369 0.950 1_545 S
C399 C394 1.363 . S
C399 C398 1.415 . S
H400 C397 0.999 . S
H401 C382 0.913 . S
H402 C420 0.951 . S
H403 C422 0.951 . S
H404 C424 0.950 1_554 S
H405 C425 0.950 . S
H406 C427 0.950 . S
H407 C430 0.950 . S
H408 C431 0.950 . S
H409 C433 0.950 . S
H410 C434 0.968 . S
H411 C435 0.951 . S
H412 C437 0.951 . S
H413 C439 0.950 . S
H414 C440 0.950 . S
H415 C442 0.950 . S
H416 C445 0.950 . S
H417 C446 0.950 . S
H418 C448 0.950 . S
H419 C449 0.950 . S
C420 H402 0.951 . S
C420 C421 1.366 . S
C420 C422 1.388 . S
C421 C420 1.366 . S
C421 C425 1.385 . S
C422 H403 0.951 . S
C422 C420 1.388 . S
C422 C423 1.366 . S
C423 C422 1.366 . S
C423 C424 1.414 . S
C423 C426 1.499 1_556 S
C424 H404 0.950 1_556 S
C424 C423 1.414 . S
C424 C425 1.374 . S
C425 H405 0.950 . S
C425 C421 1.385 . S
C425 C424 1.374 . S
C426 C423 1.499 1_554 S
C426 C427 1.373 . S
C426 C428 1.389 . S
C427 H406 0.950 . S
C427 C426 1.373 . S
C427 C443 1.377 . S
C428 C426 1.389 . S
C428 C429 1.528 1_554 S
C428 C442 1.377 . S
C429 C428 1.528 1_556 S
C429 C430 1.395 . S
C429 C434 1.361 . S
C430 H407 0.950 . S
C430 C429 1.395 . S
C430 C431 1.334 . S
C431 H408 0.950 . S
C431 C430 1.334 . S
C431 C432 1.287 . S
C432 C431 1.287 . S
C432 C433 1.524 . S
C432 H451 0.913 . S
C433 H409 0.950 . S
C433 C432 1.524 . S
C433 C434 1.415 . S
C434 H410 0.968 . S
C434 C429 1.361 . S
C434 C433 1.415 . S
C435 H411 0.951 . S
C435 C436 1.366 . S
C435 C437 1.388 . S
C436 C435 1.366 . S
C436 C440 1.385 . S
C437 H412 0.951 . S
C437 C435 1.388 . S
C437 C438 1.366 . S
C438 C437 1.366 . S
C438 C439 1.414 . S
C438 C441 1.499 . S
C439 H413 0.950 . S
C439 C438 1.414 . S
C439 C440 1.374 . S
C440 H414 0.950 . S
C440 C436 1.385 . S
C440 C439 1.374 . S
C441 C438 1.499 . S
C441 C442 1.373 . S
C441 C443 1.389 . S
C442 H415 0.950 . S
C442 C428 1.377 . S
C442 C441 1.373 . S
C443 C427 1.377 . S
C443 C441 1.389 . S
C443 C444 1.524 . S
C444 C443 1.524 . S
C444 C445 1.397 . S
C444 C449 1.363 . S
C445 H416 0.950 . S
C445 C444 1.397 . S
C445 C446 1.334 . S
C446 H417 0.950 . S
C446 C445 1.334 . S
C446 C447 1.287 . S
C447 C446 1.287 . S
C447 C448 1.524 . S
C447 H450 0.999 . S
C448 H418 0.950 . S
C448 C447 1.524 . S
C448 C449 1.415 . S
C449 H419 0.950 . S
C449 C444 1.363 . S
C449 C448 1.415 . S
H450 C447 0.999 . S
H451 C432 0.913 . S
H452 C470 0.951 . S
H453 C472 0.951 . S
H454 C474 0.950 . S
H455 C475 0.950 . S
H456 C477 0.950 . S
H457 C480 0.950 . S
H458 C481 0.950 . S
H459 C483 0.950 . S
H460 C484 0.950 . S
H461 C485 0.951 . S
H462 C487 0.951 . S
H463 C489 0.950 . S
H464 C490 0.950 . S
H465 C492 0.950 . S
H466 C495 0.950 1_655 S
H467 C496 0.950 . S
H468 C498 0.950 . S
H469 C499 0.950 . S
C470 H452 0.951 . S
C470 C471 1.366 . S
C470 C472 1.388 . S
C471 C470 1.366 . S
C471 C475 1.385 . S
C472 H453 0.951 . S
C472 C470 1.388 . S
C472 C473 1.366 . S
C473 C472 1.366 . S
C473 C474 1.414 . S
C473 C476 1.499 . S
C474 H454 0.950 . S
C474 C473 1.414 . S
C474 C475 1.374 . S
C475 H455 0.950 . S
C475 C471 1.385 . S
C475 C474 1.374 . S
C476 C473 1.499 . S
C476 C477 1.373 . S
C476 C478 1.389 . S
C477 H456 0.950 . S
C477 C476 1.373 . S
C477 C493 1.377 . S
C478 C476 1.389 . S
C478 C479 1.524 . S
C478 C492 1.377 . S
C479 C478 1.524 . S
C479 C480 1.397 . S
C479 C484 1.363 . S
C480 H457 0.950 . S
C480 C479 1.397 . S
C480 C481 1.334 . S
C481 H458 0.950 . S
C481 C480 1.334 . S
C481 C482 1.287 . S
C482 C481 1.287 . S
C482 C483 1.524 . S
C482 H501 0.913 . S
C483 H459 0.950 . S
C483 C482 1.524 . S
C483 C484 1.415 . S
C484 H460 0.950 . S
C484 C479 1.363 . S
C484 C483 1.415 . S
C485 H461 0.951 . S
C485 C486 1.366 . S
C485 C487 1.388 . S
C486 C485 1.366 . S
C486 C490 1.385 . S
C487 H462 0.951 . S
C487 C485 1.388 . S
C487 C488 1.366 . S
C488 C487 1.366 . S
C488 C489 1.414 . S
C488 C491 1.499 . S
C489 H463 0.950 . S
C489 C488 1.414 . S
C489 C490 1.374 . S
C490 H464 0.950 . S
C490 C486 1.385 . S
C490 C489 1.374 . S
C491 C488 1.499 . S
C491 C492 1.373 . S
C491 C493 1.389 . S
C492 H465 0.950 . S
C492 C478 1.377 . S
C492 C491 1.373 . S
C493 C477 1.377 . S
C493 C491 1.389 . S
C493 C494 1.524 . S
C494 C493 1.524 . S
C494 C495 1.397 1_655 S
C494 C499 1.363 . S
C495 H466 0.950 1_455 S
C495 C494 1.397 1_455 S
C495 C496 1.334 . S
C496 H467 0.950 . S
C496 C495 1.334 . S
C496 C497 1.287 . S
C497 C496 1.287 . S
C497 C498 1.524 . S
C497 H500 0.999 . S
C498 H468 0.950 . S
C498 C497 1.524 . S
C498 C499 1.415 1_455 S
C499 H469 0.950 . S
C499 C494 1.363 . S
C499 C498 1.415 1_655 S
H500 C497 0.999 . S
H501 C482 0.913 . S
H502 C520 0.951 . S
H503 C522 0.951 . S
H504 C524 0.950 . S
H505 C525 0.950 . S
H506 C527 0.950 . S
H507 C530 0.950 . S
H508 C531 0.950 . S
H509 C533 0.950 . S
H510 C534 0.950 . S
H511 C535 0.951 . S
H512 C537 0.951 . S
H513 C539 0.950 . S
H514 C540 0.950 . S
H515 C542 0.950 . S
H516 C545 0.950 . S
H517 C546 0.950 1_545 S
H518 C548 0.950 . S
H519 C549 0.950 . S
C520 H502 0.951 . S
C520 C521 1.366 . S
C520 C522 1.388 . S
C521 C520 1.366 . S
C521 C525 1.385 . S
C522 H503 0.951 . S
C522 C520 1.388 . S
C522 C523 1.366 . S
C523 C522 1.366 . S
C523 C524 1.414 . S
C523 C526 1.499 . S
C524 H504 0.950 . S
C524 C523 1.414 . S
C524 C525 1.374 . S
C525 H505 0.950 . S
C525 C521 1.385 . S
C525 C524 1.374 . S
C526 C523 1.499 . S
C526 C527 1.373 . S
C526 C528 1.389 . S
C527 H506 0.950 . S
C527 C526 1.373 . S
C527 C543 1.377 . S
C528 C526 1.389 . S
C528 C529 1.524 . S
C528 C542 1.377 . S
C529 C528 1.524 . S
C529 C530 1.397 . S
C529 C534 1.363 . S
C530 H507 0.950 . S
C530 C529 1.397 . S
C530 C531 1.334 . S
C531 H508 0.950 . S
C531 C530 1.334 . S
C531 C532 1.287 . S
C532 C531 1.287 . S
C532 C533 1.524 . S
C532 H551 0.913 . S
C533 H509 0.950 . S
C533 C532 1.524 . S
C533 C534 1.415 . S
C534 H510 0.950 . S
C534 C529 1.363 . S
C534 C533 1.415 . S
C535 H511 0.951 . S
C535 C536 1.366 . S
C535 C537 1.388 . S
C536 C535 1.366 . S
C536 C540 1.385 . S
C537 H512 0.951 . S
C537 C535 1.388 . S
C537 C538 1.366 . S
C538 C537 1.366 . S
C538 C539 1.414 . S
C538 C541 1.499 . S
C539 H513 0.950 . S
C539 C538 1.414 . S
C539 C540 1.374 . S
C540 H514 0.950 . S
C540 C536 1.385 . S
C540 C539 1.374 . S
C541 C538 1.499 . S
C541 C542 1.373 . S
C541 C543 1.389 . S
C542 H515 0.950 . S
C542 C528 1.377 . S
C542 C541 1.373 . S
C543 C527 1.377 . S
C543 C541 1.389 . S
C543 C544 1.524 . S
C544 C543 1.524 . S
C544 C545 1.397 . S
C544 C549 1.363 . S
C545 H516 0.950 . S
C545 C544 1.397 . S
C545 C546 1.334 . S
C546 H517 0.950 1_565 S
C546 C545 1.334 . S
C546 C547 1.287 . S
C547 C546 1.287 . S
C547 C548 1.524 . S
C547 H550 0.999 1_565 S
C548 H518 0.950 . S
C548 C547 1.524 . S
C548 C549 1.415 . S
C549 H519 0.950 . S
C549 C544 1.363 . S
C549 C548 1.415 . S
H550 C547 0.999 1_545 S
H551 C532 0.913 . S
H552 C570 0.951 . S
H553 C572 0.951 . S
H554 C574 0.950 . S
H555 C575 0.950 . S
H556 C577 0.950 . S
H557 C580 0.950 . S
H558 C581 0.950 . S
H559 C583 0.950 . S
H560 C584 0.950 . S
H561 C585 0.951 . S
H562 C587 0.951 . S
H563 C589 0.950 . S
H564 C590 0.950 . S
H565 C592 0.950 . S
H566 C595 0.950 . S
H567 C596 0.936 1_564 S
H568 C598 0.950 . S
H569 C599 0.950 . S
C570 H552 0.951 . S
C570 C571 1.366 . S
C570 C572 1.388 . S
C571 C570 1.366 . S
C571 C575 1.385 . S
C572 H553 0.951 . S
C572 C570 1.388 . S
C572 C573 1.366 . S
C573 C572 1.366 . S
C573 C574 1.414 . S
C573 C576 1.499 . S
C574 H554 0.950 . S
C574 C573 1.414 . S
C574 C575 1.374 . S
C575 H555 0.950 . S
C575 C571 1.385 . S
C575 C574 1.374 . S
C576 C573 1.499 . S
C576 C577 1.373 . S
C576 C578 1.389 . S
C577 H556 0.950 . S
C577 C576 1.373 . S
C577 C593 1.377 . S
C578 C576 1.389 . S
C578 C579 1.524 . S
C578 C592 1.377 . S
C579 C578 1.524 . S
C579 C580 1.397 . S
C579 C584 1.363 . S
C580 H557 0.950 . S
C580 C579 1.397 . S
C580 C581 1.334 . S
C581 H558 0.950 . S
C581 C580 1.334 . S
C581 C582 1.287 . S
C582 C581 1.287 . S
C582 C583 1.524 . S
C582 H601 0.913 . S
C583 H559 0.950 . S
C583 C582 1.524 . S
C583 C584 1.415 . S
C584 H560 0.950 . S
C584 C579 1.363 . S
C584 C583 1.415 . S
C585 H561 0.951 . S
C585 C586 1.366 . S
C585 C587 1.388 . S
C586 C585 1.366 . S
C586 C590 1.385 . S
C587 H562 0.951 . S
C587 C585 1.388 . S
C587 C588 1.366 . S
C588 C587 1.366 . S
C588 C589 1.414 . S
C588 C591 1.499 1_554 S
C589 H563 0.950 . S
C589 C588 1.414 . S
C589 C590 1.374 . S
C590 H564 0.950 . S
C590 C586 1.385 . S
C590 C589 1.374 . S
C591 C588 1.499 1_556 S
C591 C592 1.373 . S
C591 C593 1.389 . S
C592 H565 0.950 . S
C592 C578 1.377 . S
C592 C591 1.373 . S
C593 C577 1.377 . S
C593 C591 1.389 . S
C593 C594 1.524 . S
C594 C593 1.524 . S
C594 C595 1.397 . S
C594 C599 1.363 . S
C595 H566 0.950 . S
C595 C594 1.397 . S
C595 C596 1.334 . S
C596 H567 0.936 1_546 S
C596 C595 1.334 . S
C596 C597 1.287 1_545 S
C597 C596 1.287 1_565 S
C597 C598 1.524 . S
C597 H600 0.999 . S
C598 H568 0.950 . S
C598 C597 1.524 . S
C598 C599 1.415 1_565 S
C599 H569 0.950 . S
C599 C594 1.363 . S
C599 C598 1.415 1_545 S
H600 C597 0.999 . S
H601 C582 0.913 . S
H602 C620 0.951 . S
H603 C622 0.951 . S
H604 C624 0.950 . S
H605 C625 0.950 . S
H606 C627 0.950 . S
H607 C630 0.950 . S
H608 C631 0.950 . S
H609 C633 0.950 . S
H610 C634 0.950 . S
H611 C635 0.951 . S
H612 C637 0.951 . S
H613 C639 0.950 . S
H614 C640 0.950 . S
H615 C642 0.950 . S
H616 C645 0.950 . S
H617 C646 0.950 . S
H618 C648 0.950 . S
H619 C649 0.950 . S
C620 H602 0.951 . S
C620 C621 1.366 . S
C620 C622 1.388 . S
C621 C620 1.366 . S
C621 C625 1.385 . S
C622 H603 0.951 . S
C622 C620 1.388 . S
C622 C623 1.366 . S
C623 C622 1.366 . S
C623 C624 1.414 . S
C623 C626 1.499 . S
C624 H604 0.950 . S
C624 C623 1.414 . S
C624 C625 1.374 . S
C625 H605 0.950 . S
C625 C621 1.385 . S
C625 C624 1.374 . S
C626 C623 1.499 . S
C626 C627 1.373 . S
C626 C628 1.389 . S
C627 H606 0.950 . S
C627 C626 1.373 . S
C627 C643 1.377 . S
C628 C626 1.389 . S
C628 C629 1.524 . S
C628 C642 1.377 . S
C629 C628 1.524 . S
C629 C630 1.397 . S
C629 C634 1.363 . S
C630 H607 0.950 . S
C630 C629 1.397 . S
C630 C631 1.334 . S
C631 H608 0.950 . S
C631 C630 1.334 . S
C631 C632 1.287 . S
C632 C631 1.287 . S
C632 C633 1.524 . S
C632 H651 0.913 . S
C633 H609 0.950 . S
C633 C632 1.524 . S
C633 C634 1.415 . S
C634 H610 0.950 . S
C634 C629 1.363 . S
C634 C633 1.415 . S
C635 H611 0.951 . S
C635 C636 1.366 . S
C635 C637 1.388 . S
C636 C635 1.366 . S
C636 C640 1.385 1_565 S
C637 H612 0.951 . S
C637 C635 1.388 . S
C637 C638 1.366 . S
C638 C637 1.366 . S
C638 C639 1.414 . S
C638 C641 1.499 . S
C639 H613 0.950 . S
C639 C638 1.414 . S
C639 C640 1.374 1_565 S
C640 H614 0.950 . S
C640 C636 1.385 1_545 S
C640 C639 1.374 1_545 S
C641 C638 1.499 . S
C641 C642 1.373 . S
C641 C643 1.389 . S
C642 H615 0.950 . S
C642 C628 1.377 . S
C642 C641 1.373 . S
C643 C627 1.377 . S
C643 C641 1.389 . S
C643 C644 1.524 . S
C644 C643 1.524 . S
C644 C645 1.397 1_565 S
C644 C649 1.363 . S
C645 H616 0.950 . S
C645 C644 1.397 1_545 S
C645 C646 1.334 . S
C646 H617 0.950 . S
C646 C645 1.334 . S
C646 C647 1.287 . S
C647 C646 1.287 . S
C647 C648 1.524 1_545 S
C647 H650 0.999 . S
C648 H618 0.950 . S
C648 C647 1.524 1_565 S
C648 C649 1.415 . S
C649 H619 0.950 . S
C649 C644 1.363 . S
C649 C648 1.415 . S
H650 C647 0.999 . S
H651 C632 0.913 . S
H652 C670 0.951 . S
H653 C672 0.951 . S
H654 C674 0.950 . S
H655 C675 0.950 1_455 S
H656 C677 0.950 . S
H657 C680 0.950 . S
H658 C681 0.950 . S
H659 C683 0.950 . S
H660 C684 0.950 . S
H661 C685 0.951 . S
H662 C687 0.951 . S
H663 C689 0.950 . S
H664 C690 0.950 . S
H665 C692 0.950 . S
H666 C695 0.950 . S
H667 C696 0.950 . S
H668 C698 0.950 . S
H669 C699 0.950 . S
C670 H652 0.951 . S
C670 C671 1.366 . S
C670 C672 1.388 . S
C671 C670 1.366 . S
C671 C675 1.385 . S
C672 H653 0.951 . S
C672 C670 1.388 . S
C672 C673 1.366 . S
C673 C672 1.366 . S
C673 C674 1.414 . S
C673 C676 1.499 . S
C674 H654 0.950 . S
C674 C673 1.414 . S
C674 C675 1.374 . S
C675 H655 0.950 1_655 S
C675 C671 1.385 . S
C675 C674 1.374 . S
C676 C673 1.499 . S
C676 C677 1.373 . S
C676 C678 1.389 . S
C677 H656 0.950 . S
C677 C676 1.373 . S
C677 C693 1.377 . S
C678 C676 1.389 . S
C678 C679 1.524 . S
C678 C692 1.377 . S
C679 C678 1.524 . S
C679 C680 1.397 . S
C679 C684 1.363 . S
C680 H657 0.950 . S
C680 C679 1.397 . S
C680 C681 1.334 . S
C681 H658 0.950 . S
C681 C680 1.334 . S
C681 C682 1.287 . S
C682 C681 1.287 . S
C682 C683 1.524 . S
C682 H701 0.913 . S
C683 H659 0.950 . S
C683 C682 1.524 . S
C683 C684 1.415 . S
C684 H660 0.950 . S
C684 C679 1.363 . S
C684 C683 1.415 . S
C685 H661 0.951 . S
C685 C686 1.366 . S
C685 C687 1.388 . S
C686 C685 1.366 . S
C686 C690 1.385 . S
C687 H662 0.951 . S
C687 C685 1.388 . S
C687 C688 1.366 . S
C688 C687 1.366 . S
C688 C689 1.414 . S
C688 C691 1.499 . S
C689 H663 0.950 . S
C689 C688 1.414 . S
C689 C690 1.374 . S
C690 H664 0.950 . S
C690 C686 1.385 . S
C690 C689 1.374 . S
C691 C688 1.499 . S
C691 C692 1.373 . S
C691 C693 1.389 . S
C692 H665 0.950 . S
C692 C678 1.377 . S
C692 C691 1.373 . S
C693 C677 1.377 . S
C693 C691 1.389 . S
C693 C694 1.524 . S
C694 C693 1.524 . S
C694 C695 1.397 . S
C694 C699 1.363 1_655 S
C695 H666 0.950 . S
C695 C694 1.397 . S
C695 C696 1.334 1_655 S
C696 H667 0.950 . S
C696 C695 1.334 1_455 S
C696 C697 1.287 . S
C697 C696 1.287 . S
C697 C698 1.524 . S
C697 H700 0.999 . S
C698 H668 0.950 . S
C698 C697 1.524 . S
C698 C699 1.415 . S
C699 H669 0.950 . S
C699 C694 1.363 1_455 S
C699 C698 1.415 . S
H700 C697 0.999 . S
H701 C682 0.913 . S
C271 C74 1.430 . S
C286 C63 1.430 . S
C321 C147 1.429 . S
C336 C158 1.429 . S
C371 C231 1.429 . S
C386 C242 1.429 . S
C421 C237 1.531 . S
C436 C67 1.661 . S
C471 C142 0.852 . S
C486 C56 1.082 . S
C521 C235 1.660 . S
C536 C153 1.530 . S
C571 C224 1.081 . S
C586 C58 0.852 . S
C621 C69 1.531 . S
C636 C151 1.661 1_565 S
C671 C226 0.856 . S
C686 C140 1.081 . S
