# Generated by pormake.
# Topology umb, (4)-cn, num edge types: 1
# Building blocks:
#     Node 0, Type 0, BuildingBlock: QUQFOY_clean_sbu_1, # of connection points: 4
#     Node 1, Type 0, BuildingBlock: QUQFOY_clean_sbu_1, # of connection points: 4
#     Node 2, Type 0, BuildingBlock: QUQFOY_clean_sbu_1, # of connection points: 4
#     Node 3, Type 0, BuildingBlock: QUQFOY_clean_sbu_1, # of connection points: 4
#     Node 4, Type 0, BuildingBlock: QUQFOY_clean_sbu_1, # of connection points: 4
#     Node 5, Type 0, BuildingBlock: QUQFOY_clean_sbu_1, # of connection points: 4
#     Node 6, Type 0, BuildingBlock: QUQFOY_clean_sbu_1, # of connection points: 4
#     Node 7, Type 0, BuildingBlock: QUQFOY_clean_sbu_1, # of connection points: 4
#     Node 8, Type 0, BuildingBlock: QUQFOY_clean_sbu_1, # of connection points: 4
#     Node 9, Type 0, BuildingBlock: QUQFOY_clean_sbu_1, # of connection points: 4
#     Node 10, Type 0, BuildingBlock: QUQFOY_clean_sbu_1, # of connection points: 4
#     Node 11, Type 0, BuildingBlock: QUQFOY_clean_sbu_1, # of connection points: 4
#     Edge 12, Type (0, 0), BuildingBlock: OJICUG_clean_linker_0, # of connection points: 2
#     Edge 13, Type (0, 0), BuildingBlock: OJICUG_clean_linker_0, # of connection points: 2
#     Edge 14, Type (0, 0), BuildingBlock: OJICUG_clean_linker_0, # of connection points: 2
#     Edge 15, Type (0, 0), BuildingBlock: OJICUG_clean_linker_0, # of connection points: 2
#     Edge 16, Type (0, 0), BuildingBlock: OJICUG_clean_linker_0, # of connection points: 2
#     Edge 17, Type (0, 0), BuildingBlock: OJICUG_clean_linker_0, # of connection points: 2
#     Edge 18, Type (0, 0), BuildingBlock: OJICUG_clean_linker_0, # of connection points: 2
#     Edge 19, Type (0, 0), BuildingBlock: OJICUG_clean_linker_0, # of connection points: 2
#     Edge 20, Type (0, 0), BuildingBlock: OJICUG_clean_linker_0, # of connection points: 2
#     Edge 21, Type (0, 0), BuildingBlock: OJICUG_clean_linker_0, # of connection points: 2
#     Edge 22, Type (0, 0), BuildingBlock: OJICUG_clean_linker_0, # of connection points: 2
#     Edge 23, Type (0, 0), BuildingBlock: OJICUG_clean_linker_0, # of connection points: 2
#     Edge 24, Type (0, 0), BuildingBlock: OJICUG_clean_linker_0, # of connection points: 2
#     Edge 25, Type (0, 0), BuildingBlock: OJICUG_clean_linker_0, # of connection points: 2
#     Edge 26, Type (0, 0), BuildingBlock: OJICUG_clean_linker_0, # of connection points: 2
#     Edge 27, Type (0, 0), BuildingBlock: OJICUG_clean_linker_0, # of connection points: 2
#     Edge 28, Type (0, 0), BuildingBlock: OJICUG_clean_linker_0, # of connection points: 2
#     Edge 29, Type (0, 0), BuildingBlock: OJICUG_clean_linker_0, # of connection points: 2
#     Edge 30, Type (0, 0), BuildingBlock: OJICUG_clean_linker_0, # of connection points: 2
#     Edge 31, Type (0, 0), BuildingBlock: OJICUG_clean_linker_0, # of connection points: 2
#     Edge 32, Type (0, 0), BuildingBlock: OJICUG_clean_linker_0, # of connection points: 2
#     Edge 33, Type (0, 0), BuildingBlock: OJICUG_clean_linker_0, # of connection points: 2
#     Edge 34, Type (0, 0), BuildingBlock: OJICUG_clean_linker_0, # of connection points: 2
#     Edge 35, Type (0, 0), BuildingBlock: OJICUG_clean_linker_0, # of connection points: 2
# Relax obj value: 0.090
# Max RMSD: 0.164
# Mean RMSD: 0.164
data_MOF--net-umb--node1-QUQFOY_clean_sbu_1--edge1-OJICUG_clean_linker_0
_symmetry_space_group_name_H-M    P1
_symmetry_Int_Tables_number       1
_symmetry_cell_setting            triclinic
loop_
_symmetry_equiv_pos_as_xyz
'x, y, z'
_cell_length_a     39.850714
_cell_length_b     39.249665
_cell_length_c     27.66995
_cell_angle_alpha  90.217303
_cell_angle_beta   91.085794
_cell_angle_gamma 120.39699
loop_
_atom_site_label
_atom_site_type_symbol
_atom_site_fract_x
_atom_site_fract_y
_atom_site_fract_z
_atom_type_partial_charge
O0 O 0.55932 0.12499 0.44416 0.0
Cd1 Cd 0.57123 0.11638 0.37493 0.0
Cd2 Cd 0.57386 0.18754 0.36009 0.0
O3 O 0.56003 0.18122 0.43355 0.0
O4 O 0.55742 0.06021 0.37039 0.0
O5 O 0.52834 0.08504 0.32594 0.0
C6 C 0.53147 0.055 0.3381 0.0
C7 C 0.55111 0.21535 0.30114 0.0
C8 C 0.55746 0.15408 0.46126 0.0
C9 C 0.64805 0.18359 0.35411 0.0
O10 O 0.63081 0.20332 0.35094 0.0
O11 O 0.62943 0.14692 0.36231 0.0
O12 O 0.57176 0.2355 0.33822 0.0
O13 O 0.54109 0.17852 0.29875 0.0
O14 O 0.44359 0.59156 0.76249 0.0
Cd15 Cd 0.46257 0.60989 0.69381 0.0
Cd16 Cd 0.38737 0.59229 0.68592 0.0
O17 O 0.38024 0.55837 0.74695 0.0
O18 O 0.50874 0.60375 0.68666 0.0
O19 O 0.45389 0.56909 0.64379 0.0
C20 C 0.48828 0.57579 0.65571 0.0
C21 C 0.33933 0.57866 0.62456 0.0
C22 C 0.40907 0.56906 0.77636 0.0
C23 C 0.45575 0.67725 0.70016 0.0
O24 O 0.42007 0.65116 0.70417 0.0
O25 O 0.48022 0.66815 0.68566 0.0
O26 O 0.33448 0.58506 0.66887 0.0
O27 O 0.37036 0.57744 0.61528 0.0
O28 O 0.82917 0.46074 0.10804 0.0
Cd29 Cd 0.82816 0.47522 1.0372 0.0
Cd30 Cd 0.76867 0.401 1.0363 0.0
O31 O 0.79533 0.39578 0.09962 0.0
O32 O 0.88164 0.51862 1.0243 0.0
O33 O 0.85476 0.45937 0.98914 0.0
C34 C 0.88501 0.494 0.99669 0.0
C35 C 0.73435 0.35177 0.97526 0.0
C36 C 0.81578 0.42666 0.12592 0.0
C37 C 0.75719 0.47268 1.04314 0.0
O38 O 0.74556 0.4364 0.05027 0.0
O39 O 0.79067 0.49558 1.02681 0.0
O40 O 0.72204 0.34745 1.01883 0.0
O41 O 0.76745 0.38292 0.96681 0.0
O42 O 0.37648 0.82046 0.41097 0.0
Cd43 Cd 0.37107 0.8293 0.33901 0.0
Cd44 Cd 0.35025 0.74943 0.33705 0.0
O45 O 0.36458 0.759 0.41135 0.0
O46 O 0.38726 0.88633 0.34081 0.0
O47 O 0.41964 0.86397 0.30084 0.0
C48 C 0.41634 0.89349 0.31479 0.0
C49 C 0.3666 0.71302 0.28312 0.0
C50 C 0.37211 0.7906 0.43402 0.0
C51 C 0.28809 0.77188 0.3209 0.0
O52 O 0.29719 0.74522 0.32467 0.0
O53 O 0.31414 0.80805 0.31992 0.0
O54 O 0.34303 0.69621 0.31805 0.0
O55 O 0.38244 0.75091 0.27993 0.0
O56 O 0.55834 0.4167 0.76119 0.0
Cd57 Cd 0.54518 0.41198 0.68852 0.0
Cd58 Cd 0.59961 0.38846 0.68699 0.0
O59 O 0.60294 0.39904 0.7619 0.0
O60 O 0.50802 0.43169 0.68508 0.0
O61 O 0.56353 0.46061 0.64683 0.0
C62 C 0.53159 0.45938 0.6575 0.0
C63 C 0.65275 0.407 0.63528 0.0
C64 C 0.58101 0.40837 0.78448 0.0
C65 C 0.51513 0.32742 0.66722 0.0
O66 O 0.55032 0.33555 0.67002 0.0
O67 O 0.50677 0.35447 0.67009 0.0
O68 O 0.64485 0.38169 0.66909 0.0
O69 O 0.63178 0.42351 0.63225 0.0
O70 O 0.11307 0.55432 0.09925 0.0
Cd71 Cd 0.10035 0.53875 1.02749 0.0
Cd72 Cd 0.17409 0.60162 1.0178 0.0
O73 O 0.171 0.60787 0.09276 0.0
O74 O 0.04338 0.50135 1.02402 0.0
O75 O 0.07151 0.55866 0.98663 0.0
C76 C 0.04019 0.52628 0.99709 0.0
C77 C 0.20292 0.65255 0.96059 0.0
C78 C 0.14358 0.58278 0.11887 0.0
C79 C 0.15798 0.51828 0.99815 0.0
O80 O 0.18194 0.55518 1.0017 0.0
O81 O 0.12205 0.50432 1.0048 0.0
O82 O 0.22311 0.64945 0.9954 0.0
O83 O 0.16572 0.62859 0.96012 0.0
O84 O 0.84247 0.39675 0.35092 0.0
Cd85 Cd 0.84742 0.38527 0.42238 0.0
Cd86 Cd 0.78717 0.39686 0.42552 0.0
O87 O 0.80886 0.4268 0.36109 0.0
O88 O 0.90129 0.39562 0.43196 0.0
O89 O 0.87909 0.43046 0.46841 0.0
C90 C 0.90776 0.4249 0.45971 0.0
C91 C 0.75612 0.413 0.48642 0.0
C92 C 0.82716 0.41581 0.33365 0.0
C93 C 0.77646 0.31404 0.42162 0.0
O94 O 0.76364 0.33729 0.41322 0.0
O95 O 0.81102 0.32722 0.43711 0.0
O96 O 0.74148 0.40296 0.44323 0.0
O97 O 0.78962 0.41616 0.49462 0.0
O98 O 0.38756 0.83485 0.6617 0.0
Cd99 Cd 0.40471 0.84655 0.73323 0.0
Cd100 Cd 0.34532 0.77043 0.74334 0.0
O101 O 0.33914 0.77332 0.66811 0.0
O102 O 0.44375 0.90383 0.73579 0.0
O103 O 0.38949 0.87774 0.77704 0.0
C104 C 0.422 0.90839 0.76571 0.0
C105 C 0.29501 0.7424 0.80001 0.0
C106 C 0.36149 0.80264 0.64203 0.0
C107 C 0.42793 0.78897 0.76133 0.0
O108 O 0.39179 0.76351 0.76076 0.0
O109 O 0.43983 0.82485 0.75252 0.0
O110 O 0.29813 0.72118 0.76669 0.0
O111 O 0.31886 0.7801 0.79941 0.0
O112 O 0.54417 0.4075 1.01111 0.0
Cd113 Cd 0.54539 0.42016 0.08339 0.0
Cd114 Cd 0.56584 0.36306 0.09024 0.0
O115 O 0.55759 0.35937 1.01474 0.0
O116 O 0.52438 0.4565 0.08463 0.0
O117 O 0.49594 0.39916 0.12156 0.0
C118 C 0.49647 0.43133 0.11053 0.0
C119 C 0.54716 0.31022 0.1444 0.0
C120 C 0.55124 0.38304 0.99 0.0
C121 C 0.62641 0.44847 0.11333 0.0
O122 O 0.61757 0.41257 0.10931 0.0
O123 O 0.60093 0.45833 0.10724 0.0
O124 O 0.57202 0.31727 0.11118 0.0
O125 O 0.53079 0.33144 0.14504 0.0
O126 O 0.12907 0.57084 0.35023 0.0
Cd127 Cd 0.12554 0.58505 0.42052 0.0
Cd128 Cd 0.20275 0.60589 0.42315 0.0
O129 O 0.19141 0.5891 0.34983 0.0
O130 O 0.06933 0.56759 0.4245 0.0
O131 O 0.09696 0.54203 0.4697 0.0
C132 C 0.06608 0.54273 0.4567 0.0
C133 C 0.23892 0.5889 0.47713 0.0
C134 C 0.15896 0.577 0.32739 0.0
C135 C 0.18319 0.67064 0.42872 0.0
O136 O 0.20917 0.66098 0.43251 0.0
O137 O 0.14744 0.64447 0.42691 0.0
O138 O 0.25497 0.61195 0.44118 0.0
O139 O 0.2019 0.57412 0.48162 0.0
O140 O 0.5307 0.14067 0.68909 0.0
Cd141 Cd 0.50747 0.13626 0.75558 0.0
Cd142 Cd 0.57619 0.21325 0.76468 0.0
O143 O 0.58461 0.19921 0.69429 0.0
O144 O 0.46146 0.08181 0.75076 0.0
O145 O 0.50936 0.09862 0.80396 0.0
C146 C 0.47697 0.07162 0.78453 0.0
C147 C 0.62745 0.2492 0.82294 0.0
C148 C 0.5609 0.16824 0.66993 0.0
C149 C 0.49543 0.20455 0.75952 0.0
O150 O 0.53222 0.22626 0.76417 0.0
O151 O 0.47906 0.16723 0.75847 0.0
O152 O 0.62475 0.26501 0.78343 0.0
O153 O 0.60206 0.21236 0.82879 0.0
O154 O 0.35796 0.50784 0.99531 0.0
Cd155 Cd 0.34055 0.4903 0.06465 0.0
Cd156 Cd 0.35873 0.56556 0.06968 0.0
O157 O 0.39243 0.5721 1.00973 0.0
O158 O 0.34825 0.44484 0.07632 0.0
O159 O 0.38174 0.50251 0.11511 0.0
C160 C 0.37616 0.46762 0.10604 0.0
C161 C 0.37332 0.61289 0.13256 0.0
C162 C 0.38107 0.54257 0.98092 0.0
C163 C 0.27469 0.49754 0.05568 0.0
O164 O 0.30071 0.53349 0.05006 0.0
O165 O 0.28335 0.47297 0.07279 0.0
O166 O 0.36774 0.61954 0.0884 0.0
O167 O 0.37305 0.58037 0.14085 0.0
C168 C 0.57418 0.1956 0.53737 0.0
C169 C 0.55734 0.15817 0.51466 0.0
H170 H 0.59007 0.22839 0.60456 0.0
C171 C 0.54444 0.1247 0.54369 0.0
H172 H 0.58512 0.22205 0.51602 0.0
C173 C 0.54746 0.12836 0.59407 0.0
C174 C 0.56419 0.16566 0.6169 0.0
H175 H 0.53175 0.09548 0.52743 0.0
H176 H 0.53617 0.1018 0.6153 0.0
C177 C 0.57785 0.19933 0.58801 0.0
C178 C 0.36944 0.52697 0.84492 0.0
C179 C 0.403 0.5603 0.82856 0.0
H180 H 0.33684 0.49488 0.90602 0.0
C181 C 0.43031 0.58719 0.86289 0.0
H182 H 0.34788 0.5059 0.81942 0.0
C183 C 0.42365 0.58148 0.91248 0.0
C184 C 0.39005 0.54819 0.92884 0.0
H185 H 0.45633 0.61349 0.85139 0.0
H186 H 0.44464 0.60317 0.93795 0.0
C187 C 0.36331 0.52069 0.89454 0.0
C188 C 0.82546 0.39069 0.24981 0.0
C189 C 0.82632 0.41994 0.28049 0.0
H190 H 0.82058 0.36921 0.17687 0.0
C191 C 0.82425 0.45136 0.25981 0.0
H192 H 0.82644 0.36574 0.26479 0.0
C193 C 0.82184 0.45372 0.20953 0.0
C194 C 0.82025 0.42411 0.17885 0.0
H195 H 0.82459 0.4741 0.28247 0.0
H196 H 0.82017 0.47833 0.19465 0.0
C197 C 0.82187 0.39244 0.19952 0.0
C198 C 0.3503 0.75821 0.51545 0.0
C199 C 0.37118 0.79241 0.48774 0.0
H200 H 0.32973 0.73441 0.58581 0.0
C201 C 0.38712 0.82946 0.51111 0.0
H202 H 0.33699 0.72921 0.49847 0.0
C203 C 0.38248 0.83245 0.56054 0.0
C204 C 0.36157 0.79848 0.58845 0.0
H205 H 0.40306 0.85649 0.49101 0.0
H206 H 0.39566 0.86164 0.57698 0.0
C207 C 0.34545 0.76122 0.5653 0.0
C208 C 0.57834 0.37205 0.91307 0.0
C209 C 0.55734 0.38694 0.93682 0.0
H210 H 0.60341 0.36798 0.8466 0.0
C211 C 0.54627 0.41038 0.91039 0.0
H212 H 0.58796 0.35449 0.93247 0.0
C213 C 0.5557 0.41867 0.86186 0.0
C214 C 0.57659 0.40389 0.83786 0.0
H215 H 0.53044 0.42275 0.92735 0.0
H216 H 0.54608 0.43644 0.84292 0.0
C217 C 0.58792 0.38049 0.86411 0.0
C218 C 0.18916 0.59974 0.24573 0.0
C219 C 0.15636 0.57597 0.27363 0.0
H220 H 0.21091 0.62163 0.17513 0.0
C221 C 0.11965 0.55564 0.2502 0.0
H222 H 0.21778 0.61646 0.26276 0.0
C223 C 0.11567 0.55898 0.20046 0.0
C224 C 0.14823 0.58305 0.17245 0.0
H225 H 0.09369 0.53742 0.27052 0.0
H226 H 0.08684 0.54256 0.18391 0.0
C227 C 0.18512 0.60337 0.19568 0.0
C228 C 0.74433 0.27175 0.35076 0.0
C229 C 0.75434 0.2745 0.40014 0.0
H230 H 0.70162 0.23818 0.2958 0.0
C231 C 0.73611 0.24096 0.42885 0.0
H232 H 0.75859 0.29748 0.32803 0.0
C233 C 0.7041 0.20651 0.4098 0.0
C234 C 0.69006 0.20626 0.36263 0.0
H235 H 0.74358 0.24272 0.46698 0.0
H236 H 0.68708 0.18251 0.43409 0.0
C237 C 0.71214 0.23777 0.33208 0.0
C238 C 0.47242 0.77845 0.71213 0.0
C239 C 0.45468 0.77408 0.757 0.0
H240 H 0.48669 0.74926 0.65736 0.0
C241 C 0.4505 0.74423 0.78801 0.0
H242 H 0.47556 0.80126 0.68755 0.0
C243 C 0.45778 0.71524 0.77115 0.0
C244 C 0.46835 0.71554 0.72293 0.0
H245 H 0.43675 0.74036 0.82258 0.0
H246 H 0.44986 0.68972 0.79347 0.0
C247 C 0.47872 0.74873 0.69469 0.0
C248 C 0.67735 0.49309 0.05983 0.0
C249 C 0.66728 0.47785 0.10672 0.0
H250 H 0.71531 0.50275 1.00086 0.0
C251 C 0.69504 0.4759 0.13633 0.0
H252 H 0.65609 0.4946 1.03632 0.0
C253 C 0.72927 0.48163 0.11635 0.0
C254 C 0.73531 0.48846 0.06659 0.0
H255 H 0.68776 0.46408 0.17242 0.0
H256 H 0.74802 0.47479 0.13799 0.0
C257 C 0.7111 0.49756 1.03928 0.0
C258 C 0.21668 0.73006 0.32214 0.0
C259 C 0.25083 0.76182 0.34188 0.0
H260 H 0.16467 0.67627 0.33723 0.0
C261 C 0.25264 0.77086 0.39153 0.0
H262 H 0.21475 0.72245 0.2841 0.0
C263 C 0.22546 0.74295 0.4225 0.0
C264 C 0.19499 0.7075 0.40329 0.0
H265 H 0.27889 0.79535 0.40755 0.0
H266 H 0.23143 0.74653 0.46113 0.0
C267 C 0.18809 0.70356 0.35289 0.0
C268 C 0.47716 0.28492 0.73231 0.0
C269 C 0.48628 0.28795 0.68301 0.0
H270 H 0.47359 0.25443 0.79785 0.0
C271 C 0.48235 0.25494 0.65831 0.0
H272 H 0.48032 0.31031 0.75213 0.0
C273 C 0.47595 0.22185 0.68429 0.0
C274 C 0.47584 0.22284 0.73513 0.0
H275 H 0.48963 0.25682 0.62051 0.0
H276 H 0.47829 0.19889 0.66547 0.0
C277 C 0.47324 0.25293 0.75872 0.0
C278 C 0.17205 0.474 1.04488 0.0
C279 C 0.17449 0.49257 1.00059 0.0
H280 H 0.20374 0.46133 0.09856 0.0
C281 C 0.20461 0.50022 0.96938 0.0
H282 H 0.14906 0.46822 0.06964 0.0
C283 C 0.23549 0.49606 0.98577 0.0
C284 C 0.23647 0.4845 1.0335 0.0
H285 H 0.20702 0.51468 0.93525 0.0
H286 H 0.26078 0.5066 0.96333 0.0
C287 C 0.2034 0.47036 0.06169 0.0
C288 C 0.51439 0.98567 0.31982 0.0
C289 C 0.50379 0.01483 0.31985 0.0
H290 H 0.49459 0.92372 0.31613 0.0
C291 C 0.46505 0.00394 0.30917 0.0
H292 H 0.54417 -0.00657 0.32775 0.0
C293 C 0.43667 0.96409 0.30358 0.0
C294 C 0.44683 0.93472 0.30716 0.0
H295 H 0.45614 0.02584 0.30909 0.0
H296 H 0.40646 0.95608 0.29926 0.0
C297 C 0.48613 0.94587 0.31284 0.0
C298 C 0.4735 0.50845 0.63138 0.0
C299 C 0.50131 0.54813 0.64151 0.0
H300 H 0.46164 0.44882 0.62894 0.0
C301 C 0.54067 0.559 0.64734 0.0
H302 H 0.44297 0.49915 0.62688 0.0
C303 C 0.55147 0.53016 0.64739 0.0
C304 C 0.52288 0.4901 0.64279 0.0
H305 H 0.56271 0.58944 0.65511 0.0
H306 H 0.5815 0.53887 0.65543 0.0
C307 C 0.48414 0.47961 0.63273 0.0
C308 C 0.93178 0.47207 0.97668 0.0
C309 C 0.924 0.50298 0.98195 0.0
H310 H -0.02465 0.45546 0.97779 0.0
C311 C 0.9552 0.54221 0.9828 0.0
H312 H 0.90837 0.44155 0.97606 0.0
C313 C -0.00638 0.55019 0.98284 0.0
C314 C 0.00123 0.51899 0.98319 0.0
H315 H 0.94996 0.5666 0.98672 0.0
H316 H 0.01715 0.58051 0.98689 0.0
C317 C 0.97012 0.48 0.97796 0.0
C318 C 0.01645 0.47335 0.47519 0.0
C319 C 0.02711 0.51326 0.47288 0.0
H320 H 0.96934 0.41336 0.47267 0.0
C321 C -0.0017 0.52365 0.47634 0.0
H322 H 0.03818 0.46466 0.47227 0.0
C323 C 0.95906 0.49444 0.47771 0.0
C324 C 0.94808 0.45443 0.47418 0.0
H325 H 0.00595 0.55433 0.47466 0.0
H326 H 0.93733 0.50328 0.47683 0.0
C327 C -0.02291 0.44406 0.47521 0.0
C328 C 0.48653 0.015 0.80138 0.0
C329 C 0.46103 0.02939 0.79414 0.0
H330 H 0.49379 0.9646 0.79716 0.0
C331 C 0.42113 0.00249 0.78609 0.0
H332 H 0.51744 0.03514 0.80718 0.0
C333 C 0.40745 0.96201 0.78156 0.0
C334 C 0.43374 0.94825 0.78359 0.0
H335 H 0.40094 0.01299 0.78027 0.0
H336 H 0.37704 0.94206 0.77229 0.0
C337 C 0.47307 0.97474 0.79534 0.0
C338 C 0.44362 0.48635 0.13138 0.0
C339 C 0.40496 0.45657 0.12172 0.0
H340 H 0.50329 0.50141 0.13497 0.0
C341 C 0.39613 0.41711 0.11774 0.0
H342 H 0.45136 0.51702 0.13453 0.0
C343 C 0.42593 0.4081 0.11901 0.0
C344 C 0.46489 0.43856 0.12314 0.0
H345 H 0.36653 0.39355 0.11039 0.0
H346 H 0.41873 0.37788 0.11247 0.0
C347 C 0.47339 0.47748 0.1314 0.0
C348 C 0.54536 0.22528 0.21241 0.0
C349 C 0.54315 0.23529 0.26063 0.0
H350 H 0.54905 0.24156 0.13777 0.0
C351 C 0.53816 0.26772 0.26964 0.0
H352 H 0.54968 0.20075 0.20433 0.0
C353 C 0.53653 0.29032 0.23141 0.0
C354 C 0.54128 0.28185 0.18344 0.0
H355 H 0.53657 0.27628 0.30642 0.0
H356 H 0.53394 0.31588 0.23971 0.0
C357 C 0.54514 0.24872 0.17431 0.0
C358 C 0.30023 0.58916 0.50224 0.0
C359 C 0.26285 0.58184 0.51347 0.0
H360 H 0.35319 0.59284 0.52796 0.0
C361 C 0.24979 0.57042 0.56078 0.0
H362 H 0.31124 0.59799 0.46618 0.0
C363 C 0.27416 0.5682 0.59645 0.0
C364 C 0.31187 0.5764 0.5855 0.0
H365 H 0.22129 0.56476 0.5708 0.0
H366 H 0.26369 0.56078 0.63294 0.0
C367 C 0.32425 0.58603 0.53764 0.0
C368 C 0.71564 0.33494 0.88704 0.0
C369 C 0.70966 0.32356 0.93573 0.0
H370 H 0.69439 0.32076 0.81355 0.0
C371 C 0.6778 0.28619 0.94647 0.0
H372 H 0.73966 0.36356 0.87738 0.0
C373 C 0.65215 0.26129 0.90968 0.0
C374 C 0.65718 0.27344 0.86126 0.0
H375 H 0.67222 0.27642 0.98353 0.0
H376 H 0.62749 0.23315 0.91948 0.0
C377 C 0.68955 0.31041 0.8504 0.0
C378 C 0.38626 0.67926 0.16297 0.0
C379 C 0.37643 0.64011 0.17255 0.0
H380 H 0.39184 0.73321 0.19044 0.0
C381 C 0.36617 0.62623 0.21989 0.0
H382 H 0.39425 0.69093 0.12693 0.0
C383 C 0.36397 0.65022 0.25607 0.0
C384 C 0.37288 0.68905 0.24619 0.0
H385 H 0.35814 0.59618 0.22852 0.0
H386 H 0.35457 0.63805 0.29163 0.0
C387 C 0.38496 0.70356 0.19945 0.0
C388 C 0.7128 0.40635 0.6098 0.0
C389 C 0.68263 0.41403 0.59887 0.0
H390 H 0.7604 0.40123 0.58327 0.0
C391 C 0.67916 0.42486 0.55144 0.0
H392 H 0.71627 0.3979 0.64595 0.0
C393 C 0.70386 0.42582 0.51525 0.0
C394 C 0.73336 0.41708 0.52587 0.0
H395 H 0.6561 0.43069 0.54169 0.0
H396 H 0.6993 0.43256 0.47863 0.0
C397 C 0.7382 0.40841 0.5739 0.0
C398 C 0.20959 0.66655 0.87182 0.0
C399 C 0.22269 0.6793 0.91964 0.0
H400 H 0.2226 0.67619 0.79635 0.0
C401 C 0.25768 0.71527 0.92736 0.0
H402 H 0.18302 0.63871 0.86471 0.0
C403 C 0.2797 0.73739 0.88815 0.0
C404 C 0.26793 0.72326 0.84044 0.0
H405 H 0.26864 0.72571 0.96379 0.0
H406 H 0.3072 0.76426 0.89534 0.0
C407 C 0.23232 0.68792 0.83268 0.0
loop_
_geom_bond_atom_site_label_1
_geom_bond_atom_site_label_2
_geom_bond_distance
_geom_bond_site_symmetry_2
_ccdc_geom_bond_type
O0 Cd1 2.223 . S
O0 C8 1.315 . S
Cd1 O0 2.223 . S
Cd1 O4 2.297 . S
Cd1 O5 2.439 . S
Cd1 O11 2.240 . S
Cd2 O3 2.240 . S
Cd2 O10 2.223 . S
Cd2 O12 2.297 . S
Cd2 O13 2.439 . S
O3 Cd2 2.240 . S
O3 C8 1.279 . S
O4 Cd1 2.297 . S
O4 C6 1.247 . S
O5 Cd1 2.439 . S
O5 C6 1.208 . S
C6 O4 1.247 . S
C6 O5 1.208 . S
C7 O12 1.247 . S
C7 O13 1.208 . S
C8 O0 1.315 . S
C8 O3 1.279 . S
C9 O10 1.315 . S
C9 O11 1.279 . S
O10 Cd2 2.223 . S
O10 C9 1.315 . S
O11 Cd1 2.240 . S
O11 C9 1.279 . S
O12 Cd2 2.297 . S
O12 C7 1.247 . S
O13 Cd2 2.439 . S
O13 C7 1.208 . S
O14 Cd15 2.223 . S
O14 C22 1.315 . S
Cd15 O14 2.223 . S
Cd15 O18 2.297 . S
Cd15 O19 2.439 . S
Cd15 O25 2.240 . S
Cd16 O17 2.240 . S
Cd16 O24 2.223 . S
Cd16 O26 2.297 . S
Cd16 O27 2.439 . S
O17 Cd16 2.240 . S
O17 C22 1.279 . S
O18 Cd15 2.297 . S
O18 C20 1.247 . S
O19 Cd15 2.439 . S
O19 C20 1.208 . S
C20 O18 1.247 . S
C20 O19 1.208 . S
C21 O26 1.247 . S
C21 O27 1.208 . S
C22 O14 1.315 . S
C22 O17 1.279 . S
C23 O24 1.315 . S
C23 O25 1.279 . S
O24 Cd16 2.223 . S
O24 C23 1.315 . S
O25 Cd15 2.240 . S
O25 C23 1.279 . S
O26 Cd16 2.297 . S
O26 C21 1.247 . S
O27 Cd16 2.439 . S
O27 C21 1.208 . S
O28 Cd29 2.223 . S
O28 C36 1.315 . S
Cd29 O28 2.223 . S
Cd29 O32 2.297 . S
Cd29 O33 2.439 1_554 S
Cd29 O39 2.240 1_554 S
Cd30 O31 2.240 . S
Cd30 O38 2.223 . S
Cd30 O40 2.297 1_554 S
Cd30 O41 2.439 1_554 S
O31 Cd30 2.240 . S
O31 C36 1.279 . S
O32 Cd29 2.297 . S
O32 C34 1.247 1_554 S
O33 Cd29 2.439 1_556 S
O33 C34 1.208 . S
C34 O32 1.247 1_556 S
C34 O33 1.208 . S
C35 O40 1.247 . S
C35 O41 1.208 . S
C36 O28 1.315 . S
C36 O31 1.279 . S
C37 O38 1.315 . S
C37 O39 1.279 1_554 S
O38 Cd30 2.223 . S
O38 C37 1.315 . S
O39 Cd29 2.240 1_556 S
O39 C37 1.279 1_556 S
O40 Cd30 2.297 1_556 S
O40 C35 1.247 . S
O41 Cd30 2.439 1_556 S
O41 C35 1.208 . S
O42 Cd43 2.223 . S
O42 C50 1.315 . S
Cd43 O42 2.223 . S
Cd43 O46 2.297 . S
Cd43 O47 2.439 . S
Cd43 O53 2.240 . S
Cd44 O45 2.240 . S
Cd44 O52 2.223 . S
Cd44 O54 2.297 . S
Cd44 O55 2.439 . S
O45 Cd44 2.240 . S
O45 C50 1.279 . S
O46 Cd43 2.297 . S
O46 C48 1.247 . S
O47 Cd43 2.439 . S
O47 C48 1.208 . S
C48 O46 1.247 . S
C48 O47 1.208 . S
C49 O54 1.247 . S
C49 O55 1.208 . S
C50 O42 1.315 . S
C50 O45 1.279 . S
C51 O52 1.315 . S
C51 O53 1.279 . S
O52 Cd44 2.223 . S
O52 C51 1.315 . S
O53 Cd43 2.240 . S
O53 C51 1.279 . S
O54 Cd44 2.297 . S
O54 C49 1.247 . S
O55 Cd44 2.439 . S
O55 C49 1.208 . S
O56 Cd57 2.223 . S
O56 C64 1.315 . S
Cd57 O56 2.223 . S
Cd57 O60 2.297 . S
Cd57 O61 2.439 . S
Cd57 O67 2.240 . S
Cd58 O59 2.240 . S
Cd58 O66 2.223 . S
Cd58 O68 2.297 . S
Cd58 O69 2.439 . S
O59 Cd58 2.240 . S
O59 C64 1.279 . S
O60 Cd57 2.297 . S
O60 C62 1.247 . S
O61 Cd57 2.439 . S
O61 C62 1.208 . S
C62 O60 1.247 . S
C62 O61 1.208 . S
C63 O68 1.247 . S
C63 O69 1.208 . S
C64 O56 1.315 . S
C64 O59 1.279 . S
C65 O66 1.315 . S
C65 O67 1.279 . S
O66 Cd58 2.223 . S
O66 C65 1.315 . S
O67 Cd57 2.240 . S
O67 C65 1.279 . S
O68 Cd58 2.297 . S
O68 C63 1.247 . S
O69 Cd58 2.439 . S
O69 C63 1.208 . S
O70 Cd71 2.223 . S
O70 C78 1.315 . S
Cd71 O70 2.223 . S
Cd71 O74 2.297 . S
Cd71 O75 2.439 1_554 S
Cd71 O81 2.240 1_554 S
Cd72 O73 2.240 . S
Cd72 O80 2.223 . S
Cd72 O82 2.297 1_554 S
Cd72 O83 2.439 1_554 S
O73 Cd72 2.240 . S
O73 C78 1.279 . S
O74 Cd71 2.297 . S
O74 C76 1.247 1_554 S
O75 Cd71 2.439 1_556 S
O75 C76 1.208 . S
C76 O74 1.247 1_556 S
C76 O75 1.208 . S
C77 O82 1.247 . S
C77 O83 1.208 . S
C78 O70 1.315 . S
C78 O73 1.279 . S
C79 O80 1.315 . S
C79 O81 1.279 1_554 S
O80 Cd72 2.223 . S
O80 C79 1.315 . S
O81 Cd71 2.240 1_556 S
O81 C79 1.279 1_556 S
O82 Cd72 2.297 1_556 S
O82 C77 1.247 . S
O83 Cd72 2.439 1_556 S
O83 C77 1.208 . S
O84 Cd85 2.223 . S
O84 C92 1.315 . S
Cd85 O84 2.223 . S
Cd85 O88 2.297 . S
Cd85 O89 2.439 . S
Cd85 O95 2.240 . S
Cd86 O87 2.240 . S
Cd86 O94 2.223 . S
Cd86 O96 2.297 . S
Cd86 O97 2.439 . S
O87 Cd86 2.240 . S
O87 C92 1.279 . S
O88 Cd85 2.297 . S
O88 C90 1.247 . S
O89 Cd85 2.439 . S
O89 C90 1.208 . S
C90 O88 1.247 . S
C90 O89 1.208 . S
C91 O96 1.247 . S
C91 O97 1.208 . S
C92 O84 1.315 . S
C92 O87 1.279 . S
C93 O94 1.315 . S
C93 O95 1.279 . S
O94 Cd86 2.223 . S
O94 C93 1.315 . S
O95 Cd85 2.240 . S
O95 C93 1.279 . S
O96 Cd86 2.297 . S
O96 C91 1.247 . S
O97 Cd86 2.439 . S
O97 C91 1.208 . S
O98 Cd99 2.223 . S
O98 C106 1.315 . S
Cd99 O98 2.223 . S
Cd99 O102 2.297 . S
Cd99 O103 2.439 . S
Cd99 O109 2.240 . S
Cd100 O101 2.240 . S
Cd100 O108 2.223 . S
Cd100 O110 2.297 . S
Cd100 O111 2.439 . S
O101 Cd100 2.240 . S
O101 C106 1.279 . S
O102 Cd99 2.297 . S
O102 C104 1.247 . S
O103 Cd99 2.439 . S
O103 C104 1.208 . S
C104 O102 1.247 . S
C104 O103 1.208 . S
C105 O110 1.247 . S
C105 O111 1.208 . S
C106 O98 1.315 . S
C106 O101 1.279 . S
C107 O108 1.315 . S
C107 O109 1.279 . S
O108 Cd100 2.223 . S
O108 C107 1.315 . S
O109 Cd99 2.240 . S
O109 C107 1.279 . S
O110 Cd100 2.297 . S
O110 C105 1.247 . S
O111 Cd100 2.439 . S
O111 C105 1.208 . S
O112 Cd113 2.223 1_556 S
O112 C120 1.315 . S
Cd113 O112 2.223 1_554 S
Cd113 O116 2.297 1_554 S
Cd113 O117 2.439 . S
Cd113 O123 2.240 . S
Cd114 O115 2.240 1_554 S
Cd114 O122 2.223 1_554 S
Cd114 O124 2.297 . S
Cd114 O125 2.439 . S
O115 Cd114 2.240 1_556 S
O115 C120 1.279 . S
O116 Cd113 2.297 1_556 S
O116 C118 1.247 1_556 S
O117 Cd113 2.439 . S
O117 C118 1.208 . S
C118 O116 1.247 1_554 S
C118 O117 1.208 . S
C119 O124 1.247 . S
C119 O125 1.208 . S
C120 O112 1.315 . S
C120 O115 1.279 . S
C121 O122 1.315 1_554 S
C121 O123 1.279 . S
O122 Cd114 2.223 1_556 S
O122 C121 1.315 1_556 S
O123 Cd113 2.240 . S
O123 C121 1.279 . S
O124 Cd114 2.297 . S
O124 C119 1.247 . S
O125 Cd114 2.439 . S
O125 C119 1.208 . S
O126 Cd127 2.223 . S
O126 C134 1.315 . S
Cd127 O126 2.223 . S
Cd127 O130 2.297 . S
Cd127 O131 2.439 . S
Cd127 O137 2.240 . S
Cd128 O129 2.240 . S
Cd128 O136 2.223 . S
Cd128 O138 2.297 . S
Cd128 O139 2.439 . S
O129 Cd128 2.240 . S
O129 C134 1.279 . S
O130 Cd127 2.297 . S
O130 C132 1.247 . S
O131 Cd127 2.439 . S
O131 C132 1.208 . S
C132 O130 1.247 . S
C132 O131 1.208 . S
C133 O138 1.247 . S
C133 O139 1.208 . S
C134 O126 1.315 . S
C134 O129 1.279 . S
C135 O136 1.315 . S
C135 O137 1.279 . S
O136 Cd128 2.223 . S
O136 C135 1.315 . S
O137 Cd127 2.240 . S
O137 C135 1.279 . S
O138 Cd128 2.297 . S
O138 C133 1.247 . S
O139 Cd128 2.439 . S
O139 C133 1.208 . S
O140 Cd141 2.223 . S
O140 C148 1.315 . S
Cd141 O140 2.223 . S
Cd141 O144 2.297 . S
Cd141 O145 2.439 . S
Cd141 O151 2.240 . S
Cd142 O143 2.240 . S
Cd142 O150 2.223 . S
Cd142 O152 2.297 . S
Cd142 O153 2.439 . S
O143 Cd142 2.240 . S
O143 C148 1.279 . S
O144 Cd141 2.297 . S
O144 C146 1.247 . S
O145 Cd141 2.439 . S
O145 C146 1.208 . S
C146 O144 1.247 . S
C146 O145 1.208 . S
C147 O152 1.247 . S
C147 O153 1.208 . S
C148 O140 1.315 . S
C148 O143 1.279 . S
C149 O150 1.315 . S
C149 O151 1.279 . S
O150 Cd142 2.223 . S
O150 C149 1.315 . S
O151 Cd141 2.240 . S
O151 C149 1.279 . S
O152 Cd142 2.297 . S
O152 C147 1.247 . S
O153 Cd142 2.439 . S
O153 C147 1.208 . S
O154 Cd155 2.223 1_556 S
O154 C162 1.315 . S
Cd155 O154 2.223 1_554 S
Cd155 O158 2.297 1_554 S
Cd155 O159 2.439 . S
Cd155 O165 2.240 . S
Cd156 O157 2.240 1_554 S
Cd156 O164 2.223 1_554 S
Cd156 O166 2.297 . S
Cd156 O167 2.439 . S
O157 Cd156 2.240 1_556 S
O157 C162 1.279 . S
O158 Cd155 2.297 1_556 S
O158 C160 1.247 1_556 S
O159 Cd155 2.439 . S
O159 C160 1.208 . S
C160 O158 1.247 1_554 S
C160 O159 1.208 . S
C161 O166 1.247 . S
C161 O167 1.208 . S
C162 O154 1.315 . S
C162 O157 1.279 . S
C163 O164 1.315 1_554 S
C163 O165 1.279 . S
O164 Cd156 2.223 1_556 S
O164 C163 1.315 1_556 S
O165 Cd155 2.240 . S
O165 C163 1.279 . S
O166 Cd156 2.297 . S
O166 C161 1.247 . S
O167 Cd156 2.439 . S
O167 C161 1.208 . S
C168 C169 1.387 . S
C168 H172 0.950 . S
C168 C177 1.390 . S
C169 C168 1.387 . S
C169 C171 1.387 . S
H170 C177 0.950 . S
C171 C169 1.387 . S
C171 C173 1.390 . S
C171 H175 0.950 . S
H172 C168 0.950 . S
C173 C171 1.390 . S
C173 C174 1.387 . S
C173 H176 0.950 . S
C174 C173 1.387 . S
C174 C177 1.387 . S
H175 C171 0.950 . S
H176 C173 0.950 . S
C177 C168 1.390 . S
C177 H170 0.950 . S
C177 C174 1.387 . S
C178 C179 1.387 . S
C178 H182 0.950 . S
C178 C187 1.390 . S
C179 C178 1.387 . S
C179 C181 1.387 . S
H180 C187 0.950 . S
C181 C179 1.387 . S
C181 C183 1.390 . S
C181 H185 0.950 . S
H182 C178 0.950 . S
C183 C181 1.390 . S
C183 C184 1.387 . S
C183 H186 0.950 . S
C184 C183 1.387 . S
C184 C187 1.387 . S
H185 C181 0.950 . S
H186 C183 0.950 . S
C187 C178 1.390 . S
C187 H180 0.950 . S
C187 C184 1.387 . S
C188 C189 1.387 . S
C188 H192 0.950 . S
C188 C197 1.390 . S
C189 C188 1.387 . S
C189 C191 1.387 . S
H190 C197 0.950 . S
C191 C189 1.387 . S
C191 C193 1.390 . S
C191 H195 0.950 . S
H192 C188 0.950 . S
C193 C191 1.390 . S
C193 C194 1.387 . S
C193 H196 0.950 . S
C194 C193 1.387 . S
C194 C197 1.387 . S
H195 C191 0.950 . S
H196 C193 0.950 . S
C197 C188 1.390 . S
C197 H190 0.950 . S
C197 C194 1.387 . S
C198 C199 1.387 . S
C198 H202 0.950 . S
C198 C207 1.390 . S
C199 C198 1.387 . S
C199 C201 1.387 . S
H200 C207 0.950 . S
C201 C199 1.387 . S
C201 C203 1.390 . S
C201 H205 0.950 . S
H202 C198 0.950 . S
C203 C201 1.390 . S
C203 C204 1.387 . S
C203 H206 0.950 . S
C204 C203 1.387 . S
C204 C207 1.387 . S
H205 C201 0.950 . S
H206 C203 0.950 . S
C207 C198 1.390 . S
C207 H200 0.950 . S
C207 C204 1.387 . S
C208 C209 1.387 . S
C208 H212 0.950 . S
C208 C217 1.390 . S
C209 C208 1.387 . S
C209 C211 1.387 . S
H210 C217 0.950 . S
C211 C209 1.387 . S
C211 C213 1.390 . S
C211 H215 0.950 . S
H212 C208 0.950 . S
C213 C211 1.390 . S
C213 C214 1.387 . S
C213 H216 0.950 . S
C214 C213 1.387 . S
C214 C217 1.387 . S
H215 C211 0.950 . S
H216 C213 0.950 . S
C217 C208 1.390 . S
C217 H210 0.950 . S
C217 C214 1.387 . S
C218 C219 1.387 . S
C218 H222 0.950 . S
C218 C227 1.390 . S
C219 C218 1.387 . S
C219 C221 1.387 . S
H220 C227 0.950 . S
C221 C219 1.387 . S
C221 C223 1.390 . S
C221 H225 0.950 . S
H222 C218 0.950 . S
C223 C221 1.390 . S
C223 C224 1.387 . S
C223 H226 0.950 . S
C224 C223 1.387 . S
C224 C227 1.387 . S
H225 C221 0.950 . S
H226 C223 0.950 . S
C227 C218 1.390 . S
C227 H220 0.950 . S
C227 C224 1.387 . S
C228 C229 1.387 . S
C228 H232 0.950 . S
C228 C237 1.390 . S
C229 C228 1.387 . S
C229 C231 1.387 . S
H230 C237 0.950 . S
C231 C229 1.387 . S
C231 C233 1.390 . S
C231 H235 0.950 . S
H232 C228 0.950 . S
C233 C231 1.390 . S
C233 C234 1.387 . S
C233 H236 0.950 . S
C234 C233 1.387 . S
C234 C237 1.387 . S
H235 C231 0.950 . S
H236 C233 0.950 . S
C237 C228 1.390 . S
C237 H230 0.950 . S
C237 C234 1.387 . S
C238 C239 1.387 . S
C238 H242 0.950 . S
C238 C247 1.390 . S
C239 C238 1.387 . S
C239 C241 1.387 . S
H240 C247 0.950 . S
C241 C239 1.387 . S
C241 C243 1.390 . S
C241 H245 0.950 . S
H242 C238 0.950 . S
C243 C241 1.390 . S
C243 C244 1.387 . S
C243 H246 0.950 . S
C244 C243 1.387 . S
C244 C247 1.387 . S
H245 C241 0.950 . S
H246 C243 0.950 . S
C247 C238 1.390 . S
C247 H240 0.950 . S
C247 C244 1.387 . S
C248 C249 1.387 . S
C248 H252 0.950 . S
C248 C257 1.390 . S
C249 C248 1.387 . S
C249 C251 1.387 . S
H250 C257 0.950 . S
C251 C249 1.387 . S
C251 C253 1.390 . S
C251 H255 0.950 . S
H252 C248 0.950 . S
C253 C251 1.390 . S
C253 C254 1.387 . S
C253 H256 0.950 . S
C254 C253 1.387 . S
C254 C257 1.387 . S
H255 C251 0.950 . S
H256 C253 0.950 . S
C257 C248 1.390 . S
C257 H250 0.950 . S
C257 C254 1.387 . S
C258 C259 1.387 . S
C258 H262 0.950 . S
C258 C267 1.390 . S
C259 C258 1.387 . S
C259 C261 1.387 . S
H260 C267 0.950 . S
C261 C259 1.387 . S
C261 C263 1.390 . S
C261 H265 0.950 . S
H262 C258 0.950 . S
C263 C261 1.390 . S
C263 C264 1.387 . S
C263 H266 0.950 . S
C264 C263 1.387 . S
C264 C267 1.387 . S
H265 C261 0.950 . S
H266 C263 0.950 . S
C267 C258 1.390 . S
C267 H260 0.950 . S
C267 C264 1.387 . S
C268 C269 1.387 . S
C268 H272 0.950 . S
C268 C277 1.390 . S
C269 C268 1.387 . S
C269 C271 1.387 . S
H270 C277 0.950 . S
C271 C269 1.387 . S
C271 C273 1.390 . S
C271 H275 0.950 . S
H272 C268 0.950 . S
C273 C271 1.390 . S
C273 C274 1.387 . S
C273 H276 0.950 . S
C274 C273 1.387 . S
C274 C277 1.387 . S
H275 C271 0.950 . S
H276 C273 0.950 . S
C277 C268 1.390 . S
C277 H270 0.950 . S
C277 C274 1.387 . S
C278 C279 1.387 . S
C278 H282 0.950 . S
C278 C287 1.390 . S
C279 C278 1.387 . S
C279 C281 1.387 . S
H280 C287 0.950 . S
C281 C279 1.387 . S
C281 C283 1.390 . S
C281 H285 0.950 . S
H282 C278 0.950 . S
C283 C281 1.390 . S
C283 C284 1.387 . S
C283 H286 0.950 . S
C284 C283 1.387 . S
C284 C287 1.387 . S
H285 C281 0.950 . S
H286 C283 0.950 . S
C287 C278 1.390 . S
C287 H280 0.950 . S
C287 C284 1.387 . S
C288 C289 1.387 . S
C288 H292 0.950 . S
C288 C297 1.390 1_545 S
C289 C288 1.387 . S
C289 C291 1.387 . S
H290 C297 0.950 . S
C291 C289 1.387 . S
C291 C293 1.390 1_545 S
C291 H295 0.950 . S
H292 C288 0.950 . S
C293 C291 1.390 1_565 S
C293 C294 1.387 . S
C293 H296 0.950 . S
C294 C293 1.387 . S
C294 C297 1.387 . S
H295 C291 0.950 . S
H296 C293 0.950 . S
C297 C288 1.390 1_565 S
C297 H290 0.950 . S
C297 C294 1.387 . S
C298 C299 1.387 . S
C298 H302 0.950 . S
C298 C307 1.390 . S
C299 C298 1.387 . S
C299 C301 1.387 . S
H300 C307 0.950 . S
C301 C299 1.387 . S
C301 C303 1.390 . S
C301 H305 0.950 . S
H302 C298 0.950 . S
C303 C301 1.390 . S
C303 C304 1.387 . S
C303 H306 0.950 . S
C304 C303 1.387 . S
C304 C307 1.387 . S
H305 C301 0.950 . S
H306 C303 0.950 . S
C307 C298 1.390 . S
C307 H300 0.950 . S
C307 C304 1.387 . S
C308 C309 1.387 1_554 S
C308 H312 0.950 . S
C308 C317 1.390 1_655 S
C309 C308 1.387 1_556 S
C309 C311 1.387 . S
H310 C317 0.950 . S
C311 C309 1.387 . S
C311 C313 1.390 1_655 S
C311 H315 0.950 . S
H312 C308 0.950 . S
C313 C311 1.390 1_455 S
C313 C314 1.387 . S
C313 H316 0.950 . S
C314 C313 1.387 . S
C314 C317 1.387 1_556 S
H315 C311 0.950 . S
H316 C313 0.950 . S
C317 C308 1.390 1_455 S
C317 H310 0.950 . S
C317 C314 1.387 1_554 S
C318 C319 1.387 . S
C318 H322 0.950 . S
C318 C327 1.390 1_455 S
C319 C318 1.387 . S
C319 C321 1.387 . S
H320 C327 0.950 . S
C321 C319 1.387 . S
C321 C323 1.390 1_455 S
C321 H325 0.950 . S
H322 C318 0.950 . S
C323 C321 1.390 1_655 S
C323 C324 1.387 . S
C323 H326 0.950 . S
C324 C323 1.387 . S
C324 C327 1.387 . S
H325 C321 0.950 . S
H326 C323 0.950 . S
C327 C318 1.390 1_655 S
C327 H320 0.950 . S
C327 C324 1.387 . S
C328 C329 1.387 . S
C328 H332 0.950 . S
C328 C337 1.390 1_545 S
C329 C328 1.387 . S
C329 C331 1.387 . S
H330 C337 0.950 . S
C331 C329 1.387 . S
C331 C333 1.390 1_545 S
C331 H335 0.950 . S
H332 C328 0.950 . S
C333 C331 1.390 1_565 S
C333 C334 1.387 . S
C333 H336 0.950 . S
C334 C333 1.387 . S
C334 C337 1.387 . S
H335 C331 0.950 . S
H336 C333 0.950 . S
C337 C328 1.390 1_565 S
C337 H330 0.950 . S
C337 C334 1.387 . S
C338 C339 1.387 1_556 S
C338 H342 0.950 . S
C338 C347 1.390 . S
C339 C338 1.387 1_554 S
C339 C341 1.387 . S
H340 C347 0.950 . S
C341 C339 1.387 . S
C341 C343 1.390 . S
C341 H345 0.950 . S
H342 C338 0.950 . S
C343 C341 1.390 . S
C343 C344 1.387 . S
C343 H346 0.950 . S
C344 C343 1.387 . S
C344 C347 1.387 1_554 S
H345 C341 0.950 . S
H346 C343 0.950 . S
C347 C338 1.390 . S
C347 H340 0.950 . S
C347 C344 1.387 1_556 S
C348 C349 1.387 . S
C348 H352 0.950 . S
C348 C357 1.390 . S
C349 C348 1.387 . S
C349 C351 1.387 . S
H350 C357 0.950 . S
C351 C349 1.387 . S
C351 C353 1.390 . S
C351 H355 0.950 . S
H352 C348 0.950 . S
C353 C351 1.390 . S
C353 C354 1.387 . S
C353 H356 0.950 . S
C354 C353 1.387 . S
C354 C357 1.387 . S
H355 C351 0.950 . S
H356 C353 0.950 . S
C357 C348 1.390 . S
C357 H350 0.950 . S
C357 C354 1.387 . S
C358 C359 1.387 . S
C358 H362 0.950 . S
C358 C367 1.390 . S
C359 C358 1.387 . S
C359 C361 1.387 . S
H360 C367 0.950 . S
C361 C359 1.387 . S
C361 C363 1.390 . S
C361 H365 0.950 . S
H362 C358 0.950 . S
C363 C361 1.390 . S
C363 C364 1.387 . S
C363 H366 0.950 . S
C364 C363 1.387 . S
C364 C367 1.387 . S
H365 C361 0.950 . S
H366 C363 0.950 . S
C367 C358 1.390 . S
C367 H360 0.950 . S
C367 C364 1.387 . S
C368 C369 1.387 . S
C368 H372 0.950 . S
C368 C377 1.390 . S
C369 C368 1.387 . S
C369 C371 1.387 . S
H370 C377 0.950 . S
C371 C369 1.387 . S
C371 C373 1.390 . S
C371 H375 0.950 . S
H372 C368 0.950 . S
C373 C371 1.390 . S
C373 C374 1.387 . S
C373 H376 0.950 . S
C374 C373 1.387 . S
C374 C377 1.387 . S
H375 C371 0.950 . S
H376 C373 0.950 . S
C377 C368 1.390 . S
C377 H370 0.950 . S
C377 C374 1.387 . S
C378 C379 1.387 . S
C378 H382 0.950 . S
C378 C387 1.390 . S
C379 C378 1.387 . S
C379 C381 1.387 . S
H380 C387 0.950 . S
C381 C379 1.387 . S
C381 C383 1.390 . S
C381 H385 0.950 . S
H382 C378 0.950 . S
C383 C381 1.390 . S
C383 C384 1.387 . S
C383 H386 0.950 . S
C384 C383 1.387 . S
C384 C387 1.387 . S
H385 C381 0.950 . S
H386 C383 0.950 . S
C387 C378 1.390 . S
C387 H380 0.950 . S
C387 C384 1.387 . S
C388 C389 1.387 . S
C388 H392 0.950 . S
C388 C397 1.390 . S
C389 C388 1.387 . S
C389 C391 1.387 . S
H390 C397 0.950 . S
C391 C389 1.387 . S
C391 C393 1.390 . S
C391 H395 0.950 . S
H392 C388 0.950 . S
C393 C391 1.390 . S
C393 C394 1.387 . S
C393 H396 0.950 . S
C394 C393 1.387 . S
C394 C397 1.387 . S
H395 C391 0.950 . S
H396 C393 0.950 . S
C397 C388 1.390 . S
C397 H390 0.950 . S
C397 C394 1.387 . S
C398 C399 1.387 . S
C398 H402 0.950 . S
C398 C407 1.390 . S
C399 C398 1.387 . S
C399 C401 1.387 . S
H400 C407 0.950 . S
C401 C399 1.387 . S
C401 C403 1.390 . S
C401 H405 0.950 . S
H402 C398 0.950 . S
C403 C401 1.390 . S
C403 C404 1.387 . S
C403 H406 0.950 . S
C404 C403 1.387 . S
C404 C407 1.387 . S
H405 C401 0.950 . S
H406 C403 0.950 . S
C407 C398 1.390 . S
C407 H400 0.950 . S
C407 C404 1.387 . S
C169 C8 1.619 . S
C174 C148 1.619 . S
C179 C22 1.622 . S
C184 C162 1.621 . S
C189 C92 1.620 . S
C194 C36 1.621 . S
C199 C50 1.619 . S
C204 C106 1.619 . S
C209 C120 1.619 . S
C214 C64 1.620 . S
C219 C134 1.619 . S
C224 C78 1.620 . S
C229 C93 1.010 . S
C234 C9 1.013 . S
C239 C107 1.010 . S
C244 C23 1.014 . S
C249 C121 1.011 . S
C254 C37 1.011 . S
C259 C51 1.014 . S
C264 C135 1.010 . S
C269 C65 1.010 . S
C274 C149 1.014 . S
C279 C79 1.011 . S
C284 C163 1.011 . S
C289 C6 1.409 . S
C294 C48 1.409 . S
C299 C20 1.409 . S
C304 C62 1.409 . S
C309 C34 1.409 . S
C314 C76 1.409 . S
C319 C132 1.412 . S
C324 C90 1.412 . S
C329 C146 1.412 . S
C334 C104 1.412 . S
C339 C160 1.409 . S
C344 C118 1.409 . S
C349 C7 1.404 . S
C354 C119 1.405 . S
C359 C133 1.404 . S
C364 C21 1.404 . S
C369 C35 1.403 . S
C374 C147 1.405 . S
C379 C161 1.405 . S
C384 C49 1.403 . S
C389 C63 1.404 . S
C394 C91 1.404 . S
C399 C77 1.404 . S
C404 C105 1.406 . S
