# Generated by pormake.
# Topology fni, (5)-cn, num edge types: 1
# Building blocks:
#     Node 0, Type 0, BuildingBlock: BEQFEK_clean_sbu_0, # of connection points: 5
#     Node 1, Type 0, BuildingBlock: BEQFEK_clean_sbu_0, # of connection points: 5
#     Node 2, Type 0, BuildingBlock: BEQFEK_clean_sbu_0, # of connection points: 5
#     Node 3, Type 0, BuildingBlock: BEQFEK_clean_sbu_0, # of connection points: 5
#     Node 4, Type 0, BuildingBlock: BEQFEK_clean_sbu_0, # of connection points: 5
#     Node 5, Type 0, BuildingBlock: BEQFEK_clean_sbu_0, # of connection points: 5
#     Node 6, Type 0, BuildingBlock: BEQFEK_clean_sbu_0, # of connection points: 5
#     Node 7, Type 0, BuildingBlock: BEQFEK_clean_sbu_0, # of connection points: 5
#     Edge 8, Type (0, 0), BuildingBlock: TEMPAE_clean_linker_10, # of connection points: 2
#     Edge 9, Type (0, 0), BuildingBlock: TEMPAE_clean_linker_10, # of connection points: 2
#     Edge 10, Type (0, 0), BuildingBlock: TEMPAE_clean_linker_10, # of connection points: 2
#     Edge 11, Type (0, 0), BuildingBlock: TEMPAE_clean_linker_10, # of connection points: 2
#     Edge 12, Type (0, 0), BuildingBlock: TEMPAE_clean_linker_10, # of connection points: 2
#     Edge 13, Type (0, 0), BuildingBlock: TEMPAE_clean_linker_10, # of connection points: 2
#     Edge 14, Type (0, 0), BuildingBlock: TEMPAE_clean_linker_10, # of connection points: 2
#     Edge 15, Type (0, 0), BuildingBlock: TEMPAE_clean_linker_10, # of connection points: 2
#     Edge 16, Type (0, 0), BuildingBlock: TEMPAE_clean_linker_10, # of connection points: 2
#     Edge 17, Type (0, 0), BuildingBlock: TEMPAE_clean_linker_10, # of connection points: 2
#     Edge 18, Type (0, 0), BuildingBlock: TEMPAE_clean_linker_10, # of connection points: 2
#     Edge 19, Type (0, 0), BuildingBlock: TEMPAE_clean_linker_10, # of connection points: 2
#     Edge 20, Type (0, 0), BuildingBlock: TEMPAE_clean_linker_10, # of connection points: 2
#     Edge 21, Type (0, 0), BuildingBlock: TEMPAE_clean_linker_10, # of connection points: 2
#     Edge 22, Type (0, 0), BuildingBlock: TEMPAE_clean_linker_10, # of connection points: 2
#     Edge 23, Type (0, 0), BuildingBlock: TEMPAE_clean_linker_10, # of connection points: 2
#     Edge 24, Type (0, 0), BuildingBlock: TEMPAE_clean_linker_10, # of connection points: 2
#     Edge 25, Type (0, 0), BuildingBlock: TEMPAE_clean_linker_10, # of connection points: 2
#     Edge 26, Type (0, 0), BuildingBlock: TEMPAE_clean_linker_10, # of connection points: 2
#     Edge 27, Type (0, 0), BuildingBlock: TEMPAE_clean_linker_10, # of connection points: 2
# Relax obj value: 0.156
# Max RMSD: 0.214
# Mean RMSD: 0.182
data_MOF--net-fni--node1-BEQFEK_clean_sbu_0--edge1-TEMPAE_clean_linker_10
_symmetry_space_group_name_H-M    P1
_symmetry_Int_Tables_number       1
_symmetry_cell_setting            triclinic
loop_
_symmetry_equiv_pos_as_xyz
'x, y, z'
_cell_length_a     51.836339
_cell_length_b     54.824035
_cell_length_c     19.211673
_cell_angle_alpha  91.297897
_cell_angle_beta   90.320968
_cell_angle_gamma 90.042808
loop_
_atom_site_label
_atom_site_type_symbol
_atom_site_fract_x
_atom_site_fract_y
_atom_site_fract_z
_atom_type_partial_charge
Co0 Co 0.37405 0.39446 0.07593 0.0
Co1 Co 0.38434 0.37909 0.92177 0.0
C2 C 0.33089 0.38918 0.97404 0.0
O3 O 0.33852 0.3957 0.0348 0.0
O4 O 0.34674 0.38209 0.92768 0.0
C5 C 0.35422 0.40297 0.21219 0.0
O6 O 0.33348 0.39211 0.18696 0.0
C7 C 0.38017 0.38263 0.77145 0.0
C8 C 0.41652 0.36575 0.73489 0.0
C9 C 0.39453 0.37761 0.71235 0.0
N10 N 0.39335 0.37464 0.82676 0.0
N11 N 0.41495 0.36436 0.80466 0.0
C12 C 0.35388 0.39392 0.77588 0.0
H13 H 0.35441 0.40985 0.81256 0.0
H14 H 0.34636 0.39953 0.72466 0.0
H15 H 0.34023 0.38036 0.79667 0.0
C16 C 0.41349 0.43144 0.04403 0.0
N17 N 0.39792 0.41277 0.02518 0.0
N18 N 0.40093 0.40763 0.95866 0.0
C19 C 0.41745 0.42389 0.93177 0.0
C20 C 0.42628 0.43946 0.9852 0.0
C21 C 0.4179 0.43944 0.11824 0.0
H22 H 0.4178 0.42335 0.15215 0.0
H23 H 0.40206 0.45181 0.13495 0.0
H24 H 0.43666 0.44893 0.12529 0.0
O25 O 0.38627 0.36052 0.08186 0.0
O26 O 0.39455 0.3493 0.97233 0.0
H27 H 0.43701 0.41119 0.84018 0.0
H28 H 0.43091 0.4437 0.8425 0.0
C29 C 0.42301 0.42559 0.85563 0.0
H30 H 0.405 0.42272 0.82534 0.0
H31 H 0.42885 0.35686 0.83735 0.0
O32 O 0.37307 0.40684 0.17214 0.0
C33 C 0.39396 0.34478 0.03704 0.0
Co34 Co 0.60951 0.88076 0.34896 0.0
Co35 Co 0.6275 0.89285 0.19963 0.0
C36 C 0.60751 0.84302 0.2385 0.0
O37 O 0.60089 0.84945 0.29994 0.0
O38 O 0.61854 0.85785 0.19836 0.0
C39 C 0.60494 0.86406 0.48669 0.0
O40 O 0.61865 0.84561 0.46257 0.0
C41 C 0.624 0.89123 0.04814 0.0
C42 C 0.64476 0.92465 0.01868 0.0
C43 C 0.63077 0.90506 0.99166 0.0
N44 N 0.63306 0.90241 0.10623 0.0
N45 N 0.6456 0.9223 0.08833 0.0
C46 C 0.61071 0.86694 0.04726 0.0
H47 H 0.59327 0.86798 0.08043 0.0
H48 H 0.60534 0.86042 0.99421 0.0
H49 H 0.62398 0.85324 0.06917 0.0
C50 C 0.57756 0.92464 0.32695 0.0
N51 N 0.59465 0.90778 0.30465 0.0
N52 N 0.60038 0.91167 0.23938 0.0
C53 C 0.58591 0.93032 0.21648 0.0
C54 C 0.57109 0.93943 0.27155 0.0
C55 C 0.56992 0.92787 0.40167 0.0
H56 H 0.58701 0.92517 0.43554 0.0
H57 H 0.55524 0.91396 0.41449 0.0
H58 H 0.56213 0.94636 0.41296 0.0
O59 O 0.64727 0.88458 0.35611 0.0
O60 O 0.66017 0.89749 0.25331 0.0
H61 H 0.60151 0.94992 0.13145 0.0
H62 H 0.56671 0.94761 0.13016 0.0
C63 C 0.58488 0.93785 0.14208 0.0
H64 H 0.58606 0.92154 0.10718 0.0
H65 H 0.6544 0.93443 0.12375 0.0
O66 O 0.59743 0.88026 0.44511 0.0
C67 C 0.66497 0.89204 0.31619 0.0
Co68 Co 0.11448 0.11152 0.43223 0.0
Co69 Co 0.13662 0.10187 0.58055 0.0
C70 C 0.11382 0.15052 0.53977 0.0
O71 O 0.10602 0.14319 0.47985 0.0
O72 O 0.12626 0.13649 0.57969 0.0
C73 C 0.10981 0.12687 0.29506 0.0
O74 O 0.1233 0.14526 0.32104 0.0
C75 C 0.13516 0.10459 0.73264 0.0
C76 C 0.15801 0.07245 0.76268 0.0
C77 C 0.1431 0.09136 0.78953 0.0
N78 N 0.14437 0.09365 0.67458 0.0
N79 N 0.15826 0.0746 0.69292 0.0
C80 C 0.12001 0.12786 0.73294 0.0
H81 H 0.10226 0.12532 0.70105 0.0
H82 H 0.11493 0.13438 0.78605 0.0
H83 H 0.13183 0.14226 0.70916 0.0
C84 C 0.0843 0.06726 0.46374 0.0
N85 N 0.10165 0.08464 0.48124 0.0
N86 N 0.10923 0.08173 0.54588 0.0
C87 C 0.09571 0.06325 0.57323 0.0
C88 C 0.07961 0.05316 0.52179 0.0
C89 C 0.07427 0.06324 0.39111 0.0
H90 H 0.08984 0.06661 0.35322 0.0
H91 H 0.05838 0.0763 0.38128 0.0
H92 H 0.06715 0.04433 0.38251 0.0
O93 O 0.15201 0.10874 0.42137 0.0
O94 O 0.1684 0.09789 0.52287 0.0
H95 H 0.11371 0.04596 0.65956 0.0
H96 H 0.07889 0.04705 0.66445 0.0
C97 C 0.09638 0.05715 0.64881 0.0
H98 H 0.09745 0.07413 0.68091 0.0
H99 H 0.16736 0.06271 0.65768 0.0
O100 O 0.10157 0.11077 0.33585 0.0
C101 C 0.17116 0.10265 0.45867 0.0
Co102 Co 0.87307 0.60341 0.6933 0.0
Co103 Co 0.89257 0.62172 0.83978 0.0
C104 C 0.83593 0.60952 0.80508 0.0
O105 O 0.83983 0.60154 0.74318 0.0
O106 O 0.85435 0.61806 0.84248 0.0
C107 C 0.85635 0.60203 0.55139 0.0
O108 O 0.83894 0.6177 0.57384 0.0
C109 C 0.89556 0.61246 0.98832 0.0
C110 C 0.91883 0.64339 0.02901 0.0
C111 C 0.90495 0.62316 0.04996 0.0
N112 N 0.90338 0.62587 0.93454 0.0
N113 N 0.91754 0.64417 0.95909 0.0
C114 C 0.87819 0.59073 0.9798 0.0
H115 H 0.87106 0.58868 0.92564 0.0
H116 H 0.88918 0.57395 0.99128 0.0
H117 H 0.86167 0.59225 0.01616 0.0
C118 C 0.91109 0.56476 0.72054 0.0
N119 N 0.8987 0.58538 0.73942 0.0
N120 N 0.90794 0.59352 0.79939 0.0
C121 C 0.92707 0.57864 0.81994 0.0
C122 C 0.92966 0.55981 0.77069 0.0
C123 C 0.90419 0.54958 0.65739 0.0
H124 H 0.88305 0.55023 0.64818 0.0
H125 H 0.91021 0.53032 0.66329 0.0
H126 H 0.91394 0.55715 0.61135 0.0
O127 O 0.88366 0.63802 0.68582 0.0
O128 O 0.90107 0.65099 0.78568 0.0
H129 H 0.96283 0.57466 0.87688 0.0
H130 H 0.93405 0.5757 0.92907 0.0
C131 C 0.94362 0.58334 0.8829 0.0
H132 H 0.94619 0.60325 0.89191 0.0
H133 H 0.92557 0.65764 0.92836 0.0
O134 O 0.87124 0.59208 0.59507 0.0
C135 C 0.8948 0.65458 0.72251 0.0
Co136 Co 0.40265 0.13921 0.33105 0.0
Co137 Co 0.3938 0.12609 0.175 0.0
C138 C 0.40717 0.17705 0.22527 0.0
O139 O 0.40936 0.17126 0.28875 0.0
O140 O 0.40077 0.16151 0.17827 0.0
C141 C 0.4286 0.14887 0.46509 0.0
O142 O 0.44961 0.15509 0.43191 0.0
C143 C 0.40737 0.12712 0.02945 0.0
C144 C 0.38414 0.0972 0.98225 0.0
C145 C 0.4017 0.11536 0.96675 0.0
N146 N 0.3937 0.11655 0.07965 0.0
N147 N 0.37984 0.09865 0.05132 0.0
C148 C 0.42718 0.14659 0.04293 0.0
H149 H 0.43586 0.1446 0.09541 0.0
H150 H 0.44267 0.14572 0.00333 0.0
H151 H 0.41774 0.16472 0.04089 0.0
C152 C 0.43842 0.09653 0.31748 0.0
N153 N 0.4222 0.11317 0.29079 0.0
N154 N 0.4198 0.10897 0.22344 0.0
C155 C 0.43549 0.09046 0.20427 0.0
C156 C 0.44761 0.08163 0.2634 0.0
C157 C 0.44242 0.09308 0.39388 0.0
H158 H 0.42463 0.09794 0.42274 0.0
H159 H 0.45833 0.10511 0.41262 0.0
H160 H 0.4475 0.07391 0.40509 0.0
O161 O 0.36582 0.13192 0.32341 0.0
O162 O 0.35887 0.11917 0.2145 0.0
H163 H 0.42287 0.0715 0.11157 0.0
H164 H 0.45755 0.07144 0.12407 0.0
C165 C 0.43971 0.08238 0.13019 0.0
H166 H 0.4416 0.0985 0.09714 0.0
H167 H 0.36745 0.08749 0.07907 0.0
O168 O 0.40869 0.14212 0.43117 0.0
C169 C 0.35082 0.1236 0.27607 0.0
Co170 Co 0.88673 0.8768 0.59982 0.0
Co171 Co 0.90164 0.86516 0.44686 0.0
C172 C 0.84799 0.88146 0.48967 0.0
O173 O 0.85406 0.88614 0.55288 0.0
O174 O 0.86434 0.87248 0.44723 0.0
C175 C 0.87686 0.90102 0.73643 0.0
O176 O 0.8704 0.92132 0.70574 0.0
C177 C 0.90041 0.87701 0.30104 0.0
C178 C 0.93087 0.85368 0.25505 0.0
C179 C 0.91222 0.87079 0.2387 0.0
N180 N 0.91138 0.86408 0.35178 0.0
N181 N 0.9296 0.85014 0.32415 0.0
C182 C 0.88075 0.89661 0.31382 0.0
H183 H 0.88345 0.90497 0.3665 0.0
H184 H 0.88221 0.91103 0.27442 0.0
H185 H 0.86115 0.88848 0.31085 0.0
C186 C 0.93308 0.90898 0.59076 0.0
N187 N 0.91579 0.89309 0.5631 0.0
N188 N 0.92077 0.88962 0.4966 0.0
C189 C 0.94051 0.90419 0.47878 0.0
C190 C 0.94924 0.91686 0.53812 0.0
C191 C 0.93546 0.91471 0.66709 0.0
H192 H 0.93052 0.89842 0.69741 0.0
H193 H 0.92192 0.92963 0.68134 0.0
H194 H 0.95537 0.92053 0.68112 0.0
O195 O 0.89131 0.84123 0.59186 0.0
O196 O 0.907 0.83233 0.48726 0.0
H197 H 0.96097 0.89127 0.38882 0.0
H198 H 0.96057 0.92421 0.39891 0.0
C199 C 0.94924 0.90728 0.40527 0.0
H200 H 0.93229 0.90835 0.37043 0.0
H201 H 0.94109 0.83823 0.35236 0.0
O202 O 0.88377 0.88252 0.70036 0.0
C203 C 0.90006 0.82583 0.54758 0.0
Co204 Co 0.09254 0.36001 0.83376 0.0
Co205 Co 0.11181 0.37597 0.68814 0.0
C206 C 0.09741 0.32334 0.72239 0.0
O207 O 0.08944 0.32806 0.78387 0.0
O208 O 0.10673 0.34004 0.68497 0.0
C209 C 0.08754 0.34314 0.97312 0.0
O210 O 0.10116 0.32442 0.95043 0.0
C211 C 0.10204 0.37825 0.53922 0.0
C212 C 0.13542 0.39916 0.50182 0.0
C213 C 0.11354 0.38664 0.47899 0.0
N214 N 0.1165 0.38543 0.59429 0.0
N215 N 0.13628 0.39815 0.57175 0.0
C216 C 0.07859 0.36245 0.54496 0.0
H217 H 0.07945 0.34702 0.50663 0.0
H218 H 0.07651 0.35545 0.59814 0.0
H219 H 0.06112 0.37341 0.53415 0.0
C220 C 0.05442 0.39893 0.80702 0.0
N221 N 0.07432 0.38468 0.78707 0.0
N222 N 0.08302 0.39213 0.72699 0.0
C223 C 0.06933 0.41172 0.70751 0.0
C224 C 0.05066 0.4165 0.75731 0.0
C225 C 0.04083 0.397 0.87515 0.0
H226 H 0.0541 0.40299 0.91773 0.0
H227 H 0.03557 0.37769 0.88384 0.0
H228 H 0.02323 0.40851 0.87696 0.0
O229 O 0.1296 0.36901 0.84423 0.0
O230 O 0.14301 0.3836 0.74383 0.0
H231 H 0.0959 0.42929 0.63978 0.0
H232 H 0.06464 0.44401 0.64566 0.0
C233 C 0.07483 0.42621 0.6442 0.0
H234 H 0.06831 0.41573 0.59733 0.0
H235 H 0.15078 0.40545 0.60384 0.0
O236 O 0.08022 0.35906 0.93037 0.0
C237 C 0.1471 0.37858 0.80734 0.0
Co238 Co 0.60151 0.63415 0.94203 0.0
Co239 Co 0.61299 0.61825 0.09322 0.0
C240 C 0.59815 0.67001 0.05685 0.0
O241 O 0.59322 0.66515 0.993 0.0
O242 O 0.6066 0.65367 0.09689 0.0
C243 C 0.57626 0.64436 0.80663 0.0
O244 O 0.55465 0.65013 0.83834 0.0
C245 C 0.59991 0.61893 0.23935 0.0
C246 C 0.62471 0.59032 0.28317 0.0
C247 C 0.60659 0.60795 0.30108 0.0
N248 N 0.61359 0.60851 0.18753 0.0
N249 N 0.62836 0.59134 0.21386 0.0
C250 C 0.57928 0.6376 0.2283 0.0
H251 H 0.57071 0.63529 0.1755 0.0
H252 H 0.56387 0.63606 0.26785 0.0
H253 H 0.58786 0.65611 0.23277 0.0
C254 C 0.56658 0.59077 0.94699 0.0
N255 N 0.58321 0.60691 0.97651 0.0
N256 N 0.58662 0.60149 0.04225 0.0
C257 C 0.57121 0.5826 0.05783 0.0
C258 C 0.55811 0.57491 -0.00231 0.0
C259 C 0.56134 0.58884 0.87034 0.0
H260 H 0.5788 0.59387 0.84096 0.0
H261 H 0.54548 0.60148 0.85682 0.0
H262 H 0.55562 0.57002 0.85437 0.0
O263 O 0.63883 0.62818 0.94794 0.0
O264 O 0.64754 0.61233 0.0506 0.0
H265 H 0.58512 0.562 0.14353 0.0
H266 H 0.55027 0.56227 0.13521 0.0
C267 C 0.56809 0.57322 0.12994 0.0
H268 H 0.56692 0.5887 0.16758 0.0
H269 H 0.64107 0.58054 0.18473 0.0
O270 O 0.59577 0.63783 0.84174 0.0
C271 C 0.65472 0.619 0.99061 0.0
C272 C 0.54359 0.53252 0.02435 0.0
C273 C 0.53954 0.55437 0.98938 0.0
C274 C 0.52509 0.51385 0.02207 0.0
C275 C 0.50291 0.51632 0.97949 0.0
C276 C 0.49957 0.53764 0.94025 0.0
C277 C 0.51749 0.55673 0.94745 0.0
C278 C 0.52891 0.49187 0.06701 0.0
C279 C 0.47697 0.54039 0.8911 0.0
C280 C 0.4673 0.45711 0.9389 0.0
C281 C 0.44545 0.45954 0.98123 0.0
C282 C 0.48551 0.47597 0.93506 0.0
C283 C 0.48275 0.49703 0.97833 0.0
C284 C 0.46099 0.49941 0.02213 0.0
C285 C 0.44217 0.48103 0.02112 0.0
C286 C 0.5077 0.47326 0.8849 0.0
C287 C 0.45788 0.52104 0.07148 0.0
H288 H 0.56103 0.53017 0.05476 0.0
H289 H 0.51405 0.5736 0.9207 0.0
H290 H 0.51169 0.48918 0.10007 0.0
H291 H 0.53116 0.47521 0.03387 0.0
H292 H 0.54616 0.49371 0.10132 0.0
H293 H 0.47929 0.55631 0.8569 0.0
H294 H 0.47464 0.52369 0.85791 0.0
H295 H 0.45895 0.54286 0.92121 0.0
H296 H 0.47033 0.44038 0.90901 0.0
H297 H 0.42504 0.48335 0.0526 0.0
H298 H 0.52578 0.4697 0.91401 0.0
H299 H 0.51051 0.49034 0.8559 0.0
H300 H 0.50458 0.45797 0.84682 0.0
H301 H 0.47543 0.52325 0.10443 0.0
H302 H 0.44091 0.51913 0.106 0.0
H303 H 0.45559 0.53799 0.04171 0.0
C304 C 0.48669 0.06116 0.31267 0.0
C305 C 0.46522 0.06037 0.26797 0.0
C306 C 0.50353 0.04121 0.31691 0.0
C307 C 0.49965 0.0206 0.27235 0.0
C308 C 0.47818 0.01981 0.22658 0.0
C309 C 0.46073 0.03932 0.22688 0.0
C310 C 0.52543 0.04222 0.36905 0.0
C311 C 0.47391 0.99863 0.17611 0.0
C312 C 0.55845 0.98137 0.23482 0.0
C313 C 0.5528 0.96026 0.27167 0.0
C314 C 0.54101 0.00089 0.23311 0.0
C315 C 0.51815 0.99994 0.27295 0.0
C316 C 0.51276 0.97904 0.31224 0.0
C317 C 0.52971 0.95913 0.30914 0.0
C318 C 0.54687 0.02235 0.18785 0.0
C319 C 0.48922 0.97775 0.35801 0.0
H320 H 0.49043 0.07743 0.34417 0.0
H321 H 0.44369 0.03817 0.19408 0.0
H322 H 0.52567 0.02538 0.40008 0.0
H323 H 0.54412 0.0432 0.34151 0.0
H324 H 0.52397 0.05825 0.40522 0.0
H325 H 0.45754 0.00186 0.13989 0.0
H326 H 0.49159 0.99532 0.14497 0.0
H327 H 0.46992 0.98178 0.20494 0.0
H328 H 0.5765 0.98265 0.20704 0.0
H329 H 0.52488 0.94269 0.33646 0.0
H330 H 0.54993 0.03899 0.22071 0.0
H331 H 0.53026 0.02594 0.15283 0.0
H332 H 0.56433 0.01929 0.15554 0.0
H333 H 0.48792 0.99437 0.39187 0.0
H334 H 0.4895 0.96149 0.3915 0.0
H335 H 0.47152 0.97697 0.3254 0.0
C336 C 0.96728 0.9564 0.58519 0.0
C337 C 0.97022 0.93533 0.54325 0.0
C338 C 0.98643 0.9745 0.58797 0.0
C339 C 0.00812 0.97233 0.54386 0.0
C340 C 0.01137 0.95098 0.50204 0.0
C341 C 0.99286 0.93234 0.50444 0.0
C342 C 0.98328 0.99602 0.63766 0.0
C343 C 0.03395 0.94802 0.4533 0.0
C344 C 0.03738 0.03282 0.49371 0.0
C345 C 0.06136 0.03238 0.52772 0.0
C346 C 0.02039 0.01297 0.49644 0.0
C347 C 0.02659 0.99296 0.53877 0.0
C348 C 0.05036 0.99279 0.57544 0.0
C349 C 0.06785 0.01205 0.56723 0.0
C350 C 0.99602 0.01327 0.45293 0.0
C351 C 0.05769 0.97238 0.62319 0.0
H352 H 0.94983 0.95904 0.61512 0.0
H353 H 0.99582 0.91566 0.47423 0.0
H354 H 0.00169 0.99985 0.66568 0.0
H355 H 0.97816 0.01252 0.60835 0.0
H356 H 0.96794 0.99284 0.67657 0.0
H357 H 0.03139 0.93228 0.41646 0.0
H358 H 0.03672 0.96477 0.42278 0.0
H359 H 0.05181 0.94504 0.48388 0.0
H360 H 0.03187 0.04866 0.46443 0.0
H361 H 0.0866 0.01116 0.59221 0.0
H362 H 0.97895 0.01507 0.48711 0.0
H363 H 0.994 0.99586 0.42271 0.0
H364 H 0.99579 0.02859 0.41603 0.0
H365 H 0.04055 0.96374 0.64672 0.0
H366 H 0.07059 0.97913 0.66581 0.0
H367 H 0.06841 0.95821 0.59318 0.0
C368 C 0.00673 0.43427 0.74927 0.0
C369 C 0.03312 0.43751 0.76141 0.0
C370 C 0.98985 0.45425 0.75189 0.0
C371 C 0.99972 0.47782 0.7681 0.0
C372 C 0.02642 0.48101 0.78153 0.0
C373 C 0.04288 0.46075 0.77754 0.0
C374 C 0.96156 0.4502 0.73641 0.0
C375 C 0.03757 0.50579 0.79987 0.0
C376 C 0.96145 0.53272 0.71001 0.0
C377 C 0.94814 0.53926 0.77085 0.0
C378 C 0.97825 0.5127 0.70834 0.0
C379 C 0.98218 0.49923 0.76947 0.0
C380 C 0.96921 0.50608 0.83154 0.0
C381 C 0.95214 0.52594 0.83131 0.0
C382 C 0.99159 0.50583 0.64102 0.0
C383 C 0.9732 0.49234 0.89795 0.0
H384 H 0.99942 0.41614 0.73687 0.0
H385 H 0.06338 0.46299 0.78723 0.0
H386 H 0.9498 0.45652 0.78136 0.0
H387 H 0.95566 0.46112 0.69105 0.0
H388 H 0.95701 0.43072 0.72491 0.0
H389 H 0.0586 0.50499 0.8111 0.0
H390 H 0.03434 0.51839 0.75631 0.0
H391 H 0.02764 0.5137 0.84613 0.0
H392 H 0.95871 0.54329 0.66356 0.0
H393 H 0.94164 0.53083 0.87819 0.0
H394 H 0.98657 0.4868 0.62533 0.0
H395 H 0.01282 0.50658 0.64835 0.0
H396 H 0.98619 0.51805 0.59794 0.0
H397 H 0.96681 0.47314 0.89035 0.0
H398 H 0.96241 0.50059 0.94238 0.0
H399 H 0.99401 0.49195 0.91167 0.0
C400 C 0.3386 0.39909 0.3342 0.0
C401 C 0.35799 0.40603 0.2881 0.0
C402 C 0.34374 0.39747 0.40567 0.0
C403 C 0.36886 0.40274 0.43106 0.0
C404 C 0.38792 0.41148 0.38558 0.0
C405 C 0.38219 0.41318 0.31461 0.0
C406 C 0.32278 0.38861 0.45318 0.0
C407 C 0.41494 0.41731 0.4108 0.0
C408 C 0.3806 0.40805 0.62554 0.0
C409 C 0.38871 0.38435 0.64033 0.0
C410 C 0.37388 0.41437 0.55758 0.0
C411 C 0.37598 0.39665 0.50332 0.0
C412 C 0.3851 0.37292 0.51773 0.0
C413 C 0.39143 0.36707 0.58632 0.0
C414 C 0.36435 0.43985 0.54398 0.0
C415 C 0.38794 0.35365 0.46082 0.0
H416 H 0.31977 0.39382 0.31417 0.0
H417 H 0.39723 0.41883 0.27943 0.0
H418 H 0.32739 0.36987 0.46994 0.0
H419 H 0.32166 0.4004 0.50078 0.0
H420 H 0.30358 0.38829 0.42721 0.0
H421 H 0.42646 0.4267 0.37082 0.0
H422 H 0.41445 0.42898 0.45867 0.0
H423 H 0.42495 0.40013 0.42413 0.0
H424 H 0.37947 0.42166 0.66726 0.0
H425 H 0.39804 0.34884 0.59799 0.0
H426 H 0.34468 0.43903 0.52091 0.0
H427 H 0.37701 0.44876 0.50574 0.0
H428 H 0.36375 0.45142 0.59217 0.0
H429 H 0.36893 0.34996 0.43591 0.0
H430 H 0.39571 0.33624 0.48068 0.0
H431 H 0.40103 0.36028 0.41983 0.0
C432 C 0.6434 0.90237 0.86711 0.0
C433 C 0.62434 0.90038 0.91784 0.0
C434 C 0.63798 0.89637 0.79725 0.0
C435 C 0.61293 0.88818 0.77825 0.0
C436 C 0.59338 0.88697 0.82907 0.0
C437 C 0.59924 0.89351 0.89823 0.0
C438 C 0.65915 0.89842 0.74399 0.0
C439 C 0.56648 0.87829 0.81069 0.0
C440 C 0.59605 0.89218 0.58731 0.0
C441 C 0.60293 0.86883 0.56238 0.0
C442 C 0.5984 0.89853 0.658 0.0
C443 C 0.60732 0.88092 0.70502 0.0
C444 C 0.61257 0.85683 0.68105 0.0
C445 C 0.61053 0.85111 0.60971 0.0
C446 C 0.59287 0.92447 0.68152 0.0
C447 C 0.62146 0.83743 0.73027 0.0
H448 H 0.6627 0.90803 0.88239 0.0
H449 H 0.58426 0.89293 0.9373 0.0
H450 H 0.66333 0.88017 0.72062 0.0
H451 H 0.65281 0.91031 0.70116 0.0
H452 H 0.67727 0.90598 0.7669 0.0
H453 H 0.55349 0.87852 0.85651 0.0
H454 H 0.55796 0.88994 0.77012 0.0
H455 H 0.56728 0.85942 0.78872 0.0
H456 H 0.59009 0.90599 0.55115 0.0
H457 H 0.61564 0.83298 0.5908 0.0
H458 H 0.61113 0.93348 0.69826 0.0
H459 H 0.57978 0.92479 0.72699 0.0
H460 H 0.584 0.93535 0.63956 0.0
H461 H 0.64104 0.842 0.75019 0.0
H462 H 0.62211 0.81906 0.70468 0.0
H463 H 0.60844 0.8367 0.77585 0.0
C464 C 0.15485 0.09368 0.91542 0.0
C465 C 0.13604 0.09526 0.86324 0.0
C466 C 0.14862 0.09842 0.98541 0.0
C467 C 0.12297 0.10484 0.00319 0.0
C468 C 0.10373 0.10562 0.9508 0.0
C469 C 0.11045 0.10043 0.88149 0.0
C470 C 0.16954 0.09695 0.04017 0.0
C471 C 0.0762 0.11239 0.96773 0.0
C472 C 0.10447 0.09852 0.19252 0.0
C473 C 0.10922 0.12217 0.21904 0.0
C474 C 0.10822 0.09273 0.12185 0.0
C475 C 0.11646 0.11113 0.07655 0.0
C476 C 0.11978 0.13535 0.10221 0.0
C477 C 0.11632 0.14055 0.17336 0.0
C478 C 0.10473 0.06664 0.09654 0.0
C479 C 0.12797 0.15557 0.05502 0.0
H480 H 0.17455 0.08928 0.90127 0.0
H481 H 0.09568 0.10059 0.84135 0.0
H482 H 0.17247 0.11514 0.06544 0.0
H483 H 0.16368 0.08424 0.08137 0.0
H484 H 0.18822 0.09066 0.01811 0.0
H485 H 0.06353 0.11192 0.92089 0.0
H486 H 0.06826 0.09974 0.00644 0.0
H487 H 0.07559 0.13102 0.99151 0.0
H488 H 0.09909 0.08418 0.22756 0.0
H489 H 0.11987 0.15888 0.19355 0.0
H490 H 0.12368 0.05896 0.0809 0.0
H491 H 0.092 0.06581 0.04995 0.0
H492 H 0.09637 0.05492 0.13712 0.0
H493 H 0.14787 0.15208 0.03629 0.0
H494 H 0.12756 0.17374 0.08179 0.0
H495 H 0.11519 0.15607 0.00855 0.0
C496 C 0.89917 0.63618 0.17443 0.0
C497 C 0.89882 0.61739 0.12352 0.0
C498 C 0.89231 0.63181 0.24359 0.0
C499 C 0.88447 0.60813 0.26237 0.0
C500 C 0.88452 0.58897 0.21186 0.0
C501 C 0.89226 0.59371 0.14353 0.0
C502 C 0.89324 0.65262 0.29645 0.0
C503 C 0.87613 0.56349 0.2298 0.0
C504 C 0.88743 0.59419 0.45482 0.0
C505 C 0.86233 0.60013 0.47628 0.0
C506 C 0.89476 0.59613 0.385 0.0
C507 C 0.87636 0.60355 0.3351 0.0
C508 C 0.85059 0.60815 0.35576 0.0
C509 C 0.84396 0.60672 0.42636 0.0
C510 C 0.92258 0.59163 0.3655 0.0
C511 C 0.83024 0.61541 0.30367 0.0
H512 H 0.90445 0.65452 0.16009 0.0
H513 H 0.8933 0.57869 0.10651 0.0
H514 H 0.87359 0.65637 0.31656 0.0
H515 H 0.90547 0.6476 0.3415 0.0
H516 H 0.90099 0.66965 0.27424 0.0
H517 H 0.87639 0.55079 0.18391 0.0
H518 H 0.88896 0.55612 0.2706 0.0
H519 H 0.8563 0.56395 0.25129 0.0
H520 H 0.90181 0.58929 0.49324 0.0
H521 H 0.82452 0.61122 0.44269 0.0
H522 H 0.93151 0.609 0.34935 0.0
H523 H 0.92382 0.57863 0.3206 0.0
H524 H 0.93404 0.58431 0.40937 0.0
H525 H 0.83472 0.63378 0.28385 0.0
H526 H 0.81063 0.61588 0.32671 0.0
H527 H 0.83016 0.6025 0.25835 0.0
C528 C 0.41364 0.14577 0.87782 0.0
C529 C 0.41096 0.12137 0.8968 0.0
C530 C 0.42053 0.15177 0.80999 0.0
C531 C 0.42428 0.13288 0.75977 0.0
C532 C 0.42249 0.10818 0.77923 0.0
C533 C 0.4157 0.10272 0.84765 0.0
C534 C 0.4221 0.17832 0.79108 0.0
C535 C 0.42628 0.08755 0.72689 0.0
C536 C 0.40428 0.14489 0.57482 0.0
C537 C 0.42813 0.14725 0.54152 0.0
C538 C 0.4029 0.1407 0.64606 0.0
C539 C 0.42596 0.13887 0.6852 0.0
C540 C 0.45013 0.14209 0.65267 0.0
C541 C 0.45095 0.1463 0.58081 0.0
C542 C 0.3767 0.13754 0.67894 0.0
C543 C 0.47503 0.14039 0.69329 0.0
H544 H 0.40919 0.16029 0.91497 0.0
H545 H 0.41362 0.08384 0.8624 0.0
H546 H 0.4395 0.18176 0.75943 0.0
H547 H 0.40503 0.18314 0.75914 0.0
H548 H 0.4226 0.19058 0.83792 0.0
H549 H 0.42731 0.06952 0.75203 0.0
H550 H 0.40995 0.08721 0.68927 0.0
H551 H 0.4442 0.09033 0.69681 0.0
H552 H 0.38655 0.14588 0.54484 0.0
H553 H 0.46941 0.14805 0.55516 0.0
H554 H 0.37432 0.15074 0.72307 0.0
H555 H 0.37505 0.11895 0.70014 0.0
H556 H 0.36064 0.14022 0.64135 0.0
H557 H 0.4745 0.15278 0.73971 0.0
H558 H 0.49208 0.14505 0.66142 0.0
H559 H 0.47747 0.12156 0.7123 0.0
C560 C 0.9257 0.88281 0.12005 0.0
C561 C 0.90599 0.87947 0.16841 0.0
C562 C 0.91999 0.88951 0.05168 0.0
C563 C 0.89393 0.89273 0.03136 0.0
C564 C 0.87401 0.89012 0.08062 0.0
C565 C 0.88027 0.88327 0.14843 0.0
C566 C 0.94174 0.89202 0.00038 0.0
C567 C 0.84599 0.89322 0.06079 0.0
C568 C 0.88096 0.92065 0.85521 0.0
C569 C 0.87851 0.89961 0.81288 0.0
C570 C 0.88546 0.91882 0.92714 0.0
C571 C 0.88739 0.89545 0.95675 0.0
C572 C 0.88389 0.87425 0.9145 0.0
C573 C 0.87952 0.8766 0.84319 0.0
C574 C 0.88899 0.94177 0.971 0.0
C575 C 0.88555 0.84898 0.94416 0.0
H576 H 0.94559 0.87984 0.13548 0.0
H577 H 0.86488 0.87991 0.18484 0.0
H578 H 0.94064 0.87698 0.96083 0.0
H579 H 0.93999 0.90943 0.97241 0.0
H580 H 0.96098 0.89141 0.02605 0.0
H581 H 0.83323 0.89387 0.10706 0.0
H582 H 0.84323 0.91018 0.03124 0.0
H583 H 0.83983 0.87772 0.02644 0.0
H584 H 0.88026 0.93845 0.83187 0.0
H585 H 0.87735 0.86027 0.81078 0.0
H586 H 0.90908 0.94267 0.99118 0.0
H587 H 0.87602 0.94155 0.0167 0.0
H588 H 0.88507 0.9585 0.94112 0.0
H589 H 0.90517 0.84593 0.96566 0.0
H590 H 0.8814 0.83442 0.90451 0.0
H591 H 0.87171 0.84718 0.98757 0.0
C592 C 0.08132 0.37689 0.38339 0.0
C593 C 0.1069 0.38087 0.4051 0.0
C594 C 0.07546 0.36982 0.31442 0.0
C595 C 0.09558 0.36765 0.26528 0.0
C596 C 0.12133 0.37262 0.28605 0.0
C597 C 0.12668 0.37901 0.35572 0.0
C598 C 0.04778 0.36456 0.29422 0.0
C599 C 0.14328 0.37111 0.23472 0.0
C600 C 0.09009 0.3303 0.09716 0.0
C601 C 0.08558 0.34854 0.04864 0.0
C602 C 0.09192 0.33608 0.16861 0.0
C603 C 0.08984 0.36073 0.19159 0.0
C604 C 0.08426 0.37905 0.1431 0.0
C605 C 0.08187 0.37269 0.07232 0.0
C606 C 0.09712 0.31596 0.21917 0.0
C607 C 0.08242 0.40561 0.16526 0.0
H608 H 0.0657 0.37953 0.41966 0.0
H609 H 0.1465 0.38223 0.37171 0.0
H610 H 0.04124 0.37757 0.25447 0.0
H611 H 0.04619 0.34596 0.27056 0.0
H612 H 0.03456 0.3659 0.33946 0.0
H613 H 0.16209 0.37626 0.25882 0.0
H614 H 0.14482 0.35227 0.21289 0.0
H615 H 0.13946 0.38333 0.19057 0.0
H616 H 0.09279 0.3116 0.07913 0.0
H617 H 0.07852 0.38693 0.03512 0.0
H618 H 0.08356 0.31728 0.2636 0.0
H619 H 0.11694 0.31792 0.24067 0.0
H620 H 0.09528 0.29756 0.19419 0.0
H621 H 0.06882 0.40798 0.20922 0.0
H622 H 0.07598 0.41733 0.12206 0.0
H623 H 0.10159 0.41212 0.18376 0.0
C624 C 0.55553 0.64009 0.68864 0.0
C625 C 0.57778 0.64257 0.72997 0.0
C626 C 0.55742 0.63541 0.61657 0.0
C627 C 0.5821 0.63333 0.58571 0.0
C628 C 0.60455 0.63681 0.62692 0.0
C629 C 0.6021 0.64136 0.69844 0.0
C630 C 0.53312 0.63189 0.57391 0.0
C631 C 0.63124 0.63497 0.59593 0.0
C632 C 0.59464 0.59602 0.42111 0.0
C633 C 0.59789 0.61433 0.3723 0.0
C634 C 0.58804 0.60189 0.4902 0.0
C635 C 0.58489 0.62667 0.51084 0.0
C636 C 0.58748 0.64518 0.46127 0.0
C637 C 0.59419 0.63879 0.39272 0.0
C638 C 0.58555 0.58165 0.54176 0.0
C639 C 0.58448 0.67181 0.48138 0.0
H640 H 0.53671 0.64091 0.71287 0.0
H641 H 0.61938 0.64351 0.73005 0.0
H642 H 0.53334 0.64392 0.52826 0.0
H643 H 0.53212 0.61279 0.55366 0.0
H644 H 0.51546 0.63579 0.60471 0.0
H645 H 0.64666 0.63915 0.63479 0.0
H646 H 0.63442 0.61627 0.57445 0.0
H647 H 0.63314 0.64774 0.55227 0.0
H648 H 0.59757 0.57711 0.40542 0.0
H649 H 0.59758 0.6531 0.35598 0.0
H650 H 0.5672 0.58347 0.57084 0.0
H651 H 0.60152 0.58297 0.58037 0.0
H652 H 0.58618 0.56329 0.51613 0.0
H653 H 0.56658 0.67474 0.51182 0.0
H654 H 0.5839 0.68364 0.4352 0.0
H655 H 0.60093 0.67767 0.51501 0.0
C656 C 0.18029 0.37086 0.89905 0.0
C657 C 0.17287 0.38306 0.8387 0.0
C658 C 0.20528 0.37337 0.92663 0.0
C659 C 0.22316 0.38882 0.89382 0.0
C660 C 0.2154 0.40214 0.83497 0.0
C661 C 0.19042 0.3989 0.80763 0.0
C662 C 0.21293 0.3585 0.98866 0.0
C663 C 0.23378 0.41915 0.79937 0.0
C664 C 0.28574 0.40499 0.98919 0.0
C665 C 0.30312 0.38901 0.95616 0.0
C666 C 0.25958 0.40535 0.96923 0.0
C667 C 0.25066 0.38896 0.91627 0.0
C668 C 0.26808 0.37244 0.88406 0.0
C669 C 0.29409 0.37283 0.90395 0.0
C670 C 0.24161 0.42349 0.00382 0.0
C671 C 0.25928 0.35429 0.82846 0.0
H672 H 0.16685 0.35856 0.92338 0.0
H673 H 0.18471 0.40862 0.7615 0.0
H674 H 0.22741 0.34462 0.97245 0.0
H675 H 0.22206 0.3703 0.02948 0.0
H676 H 0.1962 0.34898 0.01169 0.0
H677 H 0.22394 0.43024 0.75948 0.0
H678 H 0.24313 0.43163 0.83818 0.0
H679 H 0.24928 0.4084 0.77356 0.0
H680 H 0.29271 0.41759 0.02935 0.0
H681 H 0.30738 0.36019 0.8789 0.0
H682 H 0.22532 0.41383 0.02833 0.0
H683 H 0.23323 0.43562 0.96415 0.0
H684 H 0.25153 0.43492 0.04426 0.0
H685 H 0.24349 0.34281 0.84869 0.0
H686 H 0.27514 0.34216 0.8103 0.0
H687 H 0.2515 0.36408 0.78302 0.0
C688 C 0.58277 0.80363 0.23723 0.0
C689 C 0.60322 0.81774 0.21274 0.0
C690 C 0.57872 0.7797 0.21152 0.0
C691 C 0.59591 0.76958 0.16158 0.0
C692 C 0.61657 0.78381 0.13687 0.0
C693 C 0.61983 0.80774 0.16235 0.0
C694 C 0.55623 0.76517 0.23808 0.0
C695 C 0.63572 0.77356 0.08492 0.0
C696 C 0.60736 0.70151 0.14919 0.0
C697 C 0.59542 0.69518 0.08551 0.0
C698 C 0.60678 0.72548 0.17578 0.0
C699 C 0.59365 0.74363 0.13831 0.0
C700 C 0.58058 0.73723 0.07551 0.0
C701 C 0.58182 0.71308 0.04943 0.0
C702 C 0.62135 0.73158 0.24229 0.0
C703 C 0.56597 0.75604 0.03488 0.0
H704 H 0.56978 0.8114 0.27581 0.0
H705 H 0.63588 0.81846 0.14395 0.0
H706 H 0.54453 0.7579 0.19372 0.0
H707 H 0.5634 0.74929 0.26724 0.0
H708 H 0.54357 0.77625 0.27291 0.0
H709 H 0.65037 0.78724 0.06988 0.0
H710 H 0.64584 0.7577 0.10735 0.0
H711 H 0.62555 0.76693 0.0372 0.0
H712 H 0.61802 0.68787 0.17743 0.0
H713 H 0.57236 0.70828 0.00055 0.0
H714 H 0.60866 0.74133 0.27989 0.0
H715 H 0.63768 0.74393 0.23083 0.0
H716 H 0.62914 0.71507 0.26746 0.0
H717 H 0.55285 0.76654 0.06976 0.0
H718 H 0.55445 0.74766 0.99165 0.0
H719 H 0.57974 0.76921 0.01257 0.0
C720 C 0.31224 0.13438 0.34595 0.0
C721 C 0.32364 0.11934 0.29481 0.0
C722 C 0.28714 0.13005 0.36906 0.0
C723 C 0.27322 0.1098 0.34153 0.0
C724 C 0.28452 0.09457 0.28946 0.0
C725 C 0.30958 0.09971 0.26597 0.0
C726 C 0.27558 0.14717 0.42318 0.0
C727 C 0.27037 0.07258 0.25985 0.0
C728 C 0.21807 0.091 0.45824 0.0
C729 C 0.19705 0.10242 0.42636 0.0
C730 C 0.24282 0.09198 0.42879 0.0
C731 C 0.24666 0.10513 0.36699 0.0
C732 C 0.22538 0.11608 0.33365 0.0
C733 C 0.20085 0.11441 0.36336 0.0
C734 C 0.265 0.07963 0.46503 0.0
C735 C 0.22869 0.13071 0.26857 0.0
H736 H 0.32303 0.14968 0.36797 0.0
H737 H 0.31849 0.08794 0.22692 0.0
H738 H 0.25718 0.15479 0.40346 0.0
H739 H 0.27109 0.13705 0.47097 0.0
H740 H 0.28869 0.16253 0.43748 0.0
H741 H 0.2818 0.06261 0.21961 0.0
H742 H 0.2658 0.05989 0.30227 0.0
H743 H 0.25177 0.07822 0.23639 0.0
H744 H 0.21523 0.08149 0.50646 0.0
H745 H 0.18474 0.12333 0.33826 0.0
H746 H 0.27825 0.09363 0.48767 0.0
H747 H 0.27624 0.06843 0.42716 0.0
H748 H 0.25836 0.06777 0.50749 0.0
H749 H 0.24019 0.14733 0.28104 0.0
H750 H 0.20992 0.13637 0.24591 0.0
H751 H 0.23943 0.12001 0.22856 0.0
C752 C 0.91556 0.69603 0.72344 0.0
C753 C 0.89936 0.67864 0.69105 0.0
C754 C 0.91856 0.71935 0.6956 0.0
C755 C 0.90464 0.72554 0.63482 0.0
C756 C 0.88897 0.70779 0.60066 0.0
C757 C 0.88669 0.68454 0.62884 0.0
C758 C 0.93585 0.73766 0.73272 0.0
C759 C 0.87344 0.71374 0.53648 0.0
C760 C 0.88472 0.79162 0.61925 0.0
C761 C 0.90139 0.79997 0.56767 0.0
C762 C 0.88559 0.76746 0.64108 0.0
C763 C 0.90397 0.75125 0.6117 0.0
C764 C 0.921 0.75952 0.55976 0.0
C765 C 0.9193 0.78379 0.53767 0.0
C766 C 0.86666 0.75926 0.69536 0.0
C767 C 0.94113 0.74283 0.52822 0.0
H768 H 0.92565 0.69153 0.77102 0.0
H769 H 0.87415 0.67124 0.60328 0.0
H770 H 0.94884 0.74649 0.69508 0.0
H771 H 0.92393 0.75223 0.75734 0.0
H772 H 0.94777 0.72915 0.77381 0.0
H773 H 0.86401 0.69734 0.51268 0.0
H774 H 0.85825 0.72721 0.55049 0.0
H775 H 0.88589 0.72217 0.4969 0.0
H776 H 0.87066 0.80398 0.64219 0.0
H777 H 0.93233 0.79023 0.49815 0.0
H778 H 0.87719 0.75287 0.74192 0.0
H779 H 0.85509 0.74367 0.67453 0.0
H780 H 0.85325 0.77406 0.71196 0.0
H781 H 0.95386 0.73578 0.56981 0.0
H782 H 0.95323 0.75217 0.48939 0.0
H783 H 0.93172 0.72683 0.50241 0.0
C784 C 0.81236 0.87263 0.40541 0.0
C785 C 0.82139 0.88563 0.4644 0.0
C786 C 0.78702 0.87543 0.38129 0.0
C787 C 0.77039 0.89207 0.41603 0.0
C788 C 0.77959 0.90585 0.47434 0.0
C789 C 0.80493 0.90223 0.49847 0.0
C790 C 0.77783 0.85996 0.31992 0.0
C791 C 0.76257 0.9242 0.5116 0.0
C792 C 0.7101 0.90858 0.31379 0.0
C793 C 0.6917 0.89327 0.3434 0.0
C794 C 0.73562 0.90924 0.339 0.0
C795 C 0.74295 0.89373 0.39368 0.0
C796 C 0.72436 0.87841 0.42404 0.0
C797 C 0.69892 0.87859 0.39911 0.0
C798 C 0.7548 0.92623 0.3065 0.0
C799 C 0.73152 0.86113 0.48119 0.0
H800 H 0.82494 0.85968 0.37897 0.0
H801 H 0.81191 0.9125 0.54365 0.0
H802 H 0.76168 0.84811 0.33616 0.0
H803 H 0.77039 0.87173 0.27816 0.0
H804 H 0.79336 0.8482 0.29795 0.0
H805 H 0.77325 0.93488 0.55226 0.0
H806 H 0.75413 0.937 0.47379 0.0
H807 H 0.7463 0.91468 0.53664 0.0
H808 H 0.70454 0.92011 0.27115 0.0
H809 H 0.68481 0.8666 0.42198 0.0
H810 H 0.76977 0.91548 0.27851 0.0
H811 H 0.76477 0.93733 0.34753 0.0
H812 H 0.74551 0.93871 0.26912 0.0
H813 H 0.74607 0.84784 0.46163 0.0
H814 H 0.71461 0.85086 0.5004 0.0
H815 H 0.74039 0.87133 0.52571 0.0
C816 C 0.12584 0.18662 0.61375 0.0
C817 C 0.10912 0.1759 0.56422 0.0
C818 C 0.12198 0.21049 0.63888 0.0
C819 C 0.10066 0.224 0.61447 0.0
C820 C 0.08351 0.21327 0.56485 0.0
C821 C 0.08809 0.18936 0.53971 0.0
C822 C 0.14103 0.22139 0.69069 0.0
C823 C 0.0604 0.22706 0.53838 0.0
C824 C 0.08393 0.27934 0.72825 0.0
C825 C 0.09648 0.29807 0.69314 0.0
C826 C 0.08404 0.25524 0.7015 0.0
C827 C 0.0973 0.24975 0.63879 0.0
C828 C 0.10942 0.26869 0.6023 0.0
C829 C 0.10872 0.29258 0.62963 0.0
C830 C 0.0706 0.23555 0.74131 0.0
C831 C 0.12409 0.26357 0.53582 0.0
H832 H 0.14237 0.17645 0.63211 0.0
H833 H 0.07504 0.18109 0.50172 0.0
H834 H 0.15025 0.23773 0.66853 0.0
H835 H 0.1309 0.22743 0.73876 0.0
H836 H 0.1564 0.20829 0.7051 0.0
H837 H 0.04827 0.21575 0.50231 0.0
H838 H 0.04835 0.23341 0.58278 0.0
H839 H 0.06683 0.2435 0.5107 0.0
H840 H 0.07423 0.28343 0.77695 0.0
H841 H 0.11841 0.30689 0.60182 0.0
H842 H 0.08511 0.2228 0.76251 0.0
H843 H 0.0577 0.22477 0.70608 0.0
H844 H 0.05903 0.24313 0.78523 0.0
H845 H 0.14097 0.25183 0.54693 0.0
H846 H 0.13108 0.28053 0.51155 0.0
H847 H 0.11173 0.25351 0.4976 0.0
C848 C 0.69822 0.59884 -0.00318 0.0
C849 C 0.68192 0.6165 0.96861 0.0
C850 C 0.72361 0.59586 0.9724 0.0
C851 C 0.73292 0.61125 0.91978 0.0
C852 C 0.71666 0.6294 0.89232 0.0
C853 C 0.69135 0.63165 0.9166 0.0
C854 C 0.74034 0.57609 0.00214 0.0
C855 C 0.72599 0.64655 0.83733 0.0
C856 C 0.80454 0.6223 0.89706 0.0
C857 C 0.80972 0.60893 0.83548 0.0
C858 C 0.77982 0.62259 0.92624 0.0
C859 C 0.7598 0.6089 0.89372 0.0
C860 C 0.76505 0.59473 0.83286 0.0
C861 C 0.78992 0.59507 0.80407 0.0
C862 C 0.77492 0.6383 0.99044 0.0
C863 C 0.74426 0.57962 0.79732 0.0
H864 H 0.69095 0.58701 0.03668 0.0
H865 H 0.67893 0.6455 0.89501 0.0
H866 H 0.74664 0.56338 0.95981 0.0
H867 H 0.75801 0.5842 0.02592 0.0
H868 H 0.73015 0.56549 0.04221 0.0
H869 H 0.71103 0.66 0.82245 0.0
H870 H 0.74326 0.65665 0.85657 0.0
H871 H 0.73178 0.63602 0.78999 0.0
H872 H 0.8197 0.63305 0.92186 0.0
H873 H 0.79383 0.58448 0.75699 0.0
H874 H 0.7659 0.62735 0.0316 0.0
H875 H 0.76122 0.6531 0.9776 0.0
H876 H 0.79289 0.6467 0.01175 0.0
H877 H 0.7346 0.56785 0.83555 0.0
H878 H 0.75199 0.5679 0.75438 0.0
H879 H 0.72932 0.5918 0.77553 0.0
C880 C 0.38887 0.29976 0.03006 0.0
C881 C 0.40061 0.32029 0.06101 0.0
C882 C 0.39207 0.27661 0.05857 0.0
C883 C 0.40824 0.27392 0.11767 0.0
C884 C 0.42128 0.29449 0.14663 0.0
C885 C 0.41681 0.31758 0.11888 0.0
C886 C 0.37717 0.25528 0.02753 0.0
C887 C 0.43949 0.2922 0.20773 0.0
C888 C 0.39392 0.22044 0.23342 0.0
C889 C 0.41024 0.20255 0.20524 0.0
C890 C 0.39341 0.24397 0.20621 0.0
C891 C 0.41028 0.24982 0.15119 0.0
C892 C 0.42791 0.2321 0.12554 0.0
C893 C 0.42729 0.20846 0.15198 0.0
C894 C 0.3738 0.2621 0.2336 0.0
C895 C 0.44684 0.23788 0.0688 0.0
H896 H 0.37608 0.30203 0.98583 0.0
H897 H 0.4259 0.33358 0.14254 0.0
H898 H 0.39055 0.24045 0.01151 0.0
H899 H 0.36407 0.24779 0.06728 0.0
H900 H 0.36547 0.26046 0.98155 0.0
H901 H 0.45033 0.30936 0.21878 0.0
H902 H 0.42848 0.28751 0.25493 0.0
H903 H 0.45348 0.27724 0.19767 0.0
H904 H 0.3805 0.21559 0.27398 0.0
H905 H 0.43992 0.19449 0.1305 0.0
H906 H 0.36028 0.26697 0.19113 0.0
H907 H 0.3835 0.27915 0.2516 0.0
H908 H 0.36246 0.25483 0.27744 0.0
H909 H 0.43637 0.24035 0.01898 0.0
H910 H 0.46132 0.22315 0.06105 0.0
H911 H 0.4571 0.25522 0.08141 0.0
loop_
_geom_bond_atom_site_label_1
_geom_bond_atom_site_label_2
_geom_bond_distance
_geom_bond_site_symmetry_2
_ccdc_geom_bond_type
Co0 O3 1.970 . S
Co0 N17 1.989 . S
Co0 O25 1.967 . S
Co0 O32 1.920 . S
Co1 O4 1.966 . S
Co1 N10 2.022 . S
Co1 N18 1.993 . S
Co1 O26 1.941 . S
C2 O3 1.258 . S
C2 O4 1.263 1_554 S
O3 Co0 1.970 . S
O3 C2 1.258 . S
O4 Co1 1.966 . S
O4 C2 1.263 1_556 S
C5 O6 1.235 . S
C5 O32 1.289 . S
O6 C5 1.235 . S
C7 C9 1.400 . S
C7 N10 1.351 . S
C7 C12 1.501 . S
C8 C9 1.387 . S
C8 N11 1.341 . S
C9 C7 1.400 . S
C9 C8 1.387 . S
N10 Co1 2.022 . S
N10 C7 1.351 . S
N10 N11 1.365 . S
N11 C8 1.341 . S
N11 N10 1.365 . S
N11 H31 0.862 . S
C12 C7 1.501 . S
C12 H13 0.961 . S
C12 H14 0.961 . S
C12 H15 0.960 . S
H13 C12 0.961 . S
H14 C12 0.961 . S
H15 C12 0.960 . S
C16 N17 1.342 . S
C16 C20 1.401 . S
C16 C21 1.499 . S
N17 Co0 1.989 . S
N17 C16 1.342 . S
N17 N18 1.388 1_554 S
N18 Co1 1.993 . S
N18 N17 1.388 1_556 S
N18 C19 1.346 . S
C19 N18 1.346 . S
C19 C20 1.396 1_556 S
C19 C29 1.510 . S
C20 C16 1.401 . S
C20 C19 1.396 1_554 S
C21 C16 1.499 . S
C21 H22 0.959 . S
C21 H23 0.960 . S
C21 H24 0.961 . S
H22 C21 0.959 . S
H23 C21 0.960 . S
H24 C21 0.961 . S
O25 Co0 1.967 . S
O25 C33 1.258 . S
O26 Co1 1.941 . S
O26 C33 1.266 1_556 S
H27 C29 0.959 . S
H28 C29 0.961 . S
C29 C19 1.510 . S
C29 H27 0.959 . S
C29 H28 0.961 . S
C29 H30 0.960 . S
H30 C29 0.960 . S
H31 N11 0.862 . S
O32 Co0 1.920 . S
O32 C5 1.289 . S
C33 O25 1.258 . S
C33 O26 1.266 1_554 S
Co34 O37 1.970 . S
Co34 N51 1.989 . S
Co34 O59 1.967 . S
Co34 O66 1.920 . S
Co35 O38 1.966 . S
Co35 N44 2.022 . S
Co35 N52 1.993 . S
Co35 O60 1.941 . S
C36 O37 1.258 . S
C36 O38 1.263 . S
O37 Co34 1.970 . S
O37 C36 1.258 . S
O38 Co35 1.966 . S
O38 C36 1.263 . S
C39 O40 1.235 . S
C39 O66 1.289 . S
O40 C39 1.235 . S
C41 C43 1.400 1_554 S
C41 N44 1.351 . S
C41 C46 1.501 . S
C42 C43 1.387 . S
C42 N45 1.341 1_556 S
C43 C41 1.400 1_556 S
C43 C42 1.387 . S
N44 Co35 2.022 . S
N44 C41 1.351 . S
N44 N45 1.365 . S
N45 C42 1.341 1_554 S
N45 N44 1.365 . S
N45 H65 0.862 . S
C46 C41 1.501 . S
C46 H47 0.961 . S
C46 H48 0.961 . S
C46 H49 0.960 1_554 S
H47 C46 0.961 . S
H48 C46 0.961 . S
H49 C46 0.960 1_556 S
C50 N51 1.342 . S
C50 C54 1.401 . S
C50 C55 1.499 . S
N51 Co34 1.989 . S
N51 C50 1.342 . S
N51 N52 1.388 . S
N52 Co35 1.993 . S
N52 N51 1.388 . S
N52 C53 1.346 . S
C53 N52 1.346 . S
C53 C54 1.396 . S
C53 C63 1.510 . S
C54 C50 1.401 . S
C54 C53 1.396 . S
C55 C50 1.499 . S
C55 H56 0.959 . S
C55 H57 0.960 . S
C55 H58 0.961 . S
H56 C55 0.959 . S
H57 C55 0.960 . S
H58 C55 0.961 . S
O59 Co34 1.967 . S
O59 C67 1.258 . S
O60 Co35 1.941 . S
O60 C67 1.266 . S
H61 C63 0.959 . S
H62 C63 0.961 . S
C63 C53 1.510 . S
C63 H61 0.959 . S
C63 H62 0.961 . S
C63 H64 0.960 . S
H64 C63 0.960 . S
H65 N45 0.862 . S
O66 Co34 1.920 . S
O66 C39 1.289 . S
C67 O59 1.258 . S
C67 O60 1.266 . S
Co68 O71 1.970 . S
Co68 N85 1.989 . S
Co68 O93 1.967 . S
Co68 O100 1.920 . S
Co69 O72 1.966 . S
Co69 N78 2.022 . S
Co69 N86 1.993 . S
Co69 O94 1.941 . S
C70 O71 1.258 . S
C70 O72 1.263 . S
O71 Co68 1.970 . S
O71 C70 1.258 . S
O72 Co69 1.966 . S
O72 C70 1.263 . S
C73 O74 1.235 . S
C73 O100 1.289 . S
O74 C73 1.235 . S
C75 C77 1.400 . S
C75 N78 1.351 . S
C75 C80 1.501 . S
C76 C77 1.387 . S
C76 N79 1.341 . S
C77 C75 1.400 . S
C77 C76 1.387 . S
N78 Co69 2.022 . S
N78 C75 1.351 . S
N78 N79 1.365 . S
N79 C76 1.341 . S
N79 N78 1.365 . S
N79 H99 0.862 . S
C80 C75 1.501 . S
C80 H81 0.961 . S
C80 H82 0.961 . S
C80 H83 0.960 . S
H81 C80 0.961 . S
H82 C80 0.961 . S
H83 C80 0.960 . S
C84 N85 1.342 . S
C84 C88 1.401 . S
C84 C89 1.499 . S
N85 Co68 1.989 . S
N85 C84 1.342 . S
N85 N86 1.388 . S
N86 Co69 1.993 . S
N86 N85 1.388 . S
N86 C87 1.346 . S
C87 N86 1.346 . S
C87 C88 1.396 . S
C87 C97 1.510 . S
C88 C84 1.401 . S
C88 C87 1.396 . S
C89 C84 1.499 . S
C89 H90 0.959 . S
C89 H91 0.960 . S
C89 H92 0.961 . S
H90 C89 0.959 . S
H91 C89 0.960 . S
H92 C89 0.961 . S
O93 Co68 1.967 . S
O93 C101 1.258 . S
O94 Co69 1.941 . S
O94 C101 1.266 . S
H95 C97 0.959 . S
H96 C97 0.961 . S
C97 C87 1.510 . S
C97 H95 0.959 . S
C97 H96 0.961 . S
C97 H98 0.960 . S
H98 C97 0.960 . S
H99 N79 0.862 . S
O100 Co68 1.920 . S
O100 C73 1.289 . S
C101 O93 1.258 . S
C101 O94 1.266 . S
Co102 O105 1.970 . S
Co102 N119 1.989 . S
Co102 O127 1.967 . S
Co102 O134 1.920 . S
Co103 O106 1.966 . S
Co103 N112 2.022 . S
Co103 N120 1.993 . S
Co103 O128 1.941 . S
C104 O105 1.258 . S
C104 O106 1.263 . S
O105 Co102 1.970 . S
O105 C104 1.258 . S
O106 Co103 1.966 . S
O106 C104 1.263 . S
C107 O108 1.235 . S
C107 O134 1.289 . S
O108 C107 1.235 . S
C109 C111 1.400 . S
C109 N112 1.351 1_554 S
C109 C114 1.501 . S
C110 C111 1.387 . S
C110 N113 1.341 1_554 S
C111 C109 1.400 . S
C111 C110 1.387 . S
N112 Co103 2.022 . S
N112 C109 1.351 1_556 S
N112 N113 1.365 . S
N113 C110 1.341 1_556 S
N113 N112 1.365 . S
N113 H133 0.862 . S
C114 C109 1.501 . S
C114 H115 0.961 1_554 S
C114 H116 0.961 . S
C114 H117 0.960 . S
H115 C114 0.961 1_556 S
H116 C114 0.961 . S
H117 C114 0.960 . S
C118 N119 1.342 . S
C118 C122 1.401 . S
C118 C123 1.499 . S
N119 Co102 1.989 . S
N119 C118 1.342 . S
N119 N120 1.388 . S
N120 Co103 1.993 . S
N120 N119 1.388 . S
N120 C121 1.346 . S
C121 N120 1.346 . S
C121 C122 1.396 . S
C121 C131 1.510 . S
C122 C118 1.401 . S
C122 C121 1.396 . S
C123 C118 1.499 . S
C123 H124 0.959 . S
C123 H125 0.960 . S
C123 H126 0.961 . S
H124 C123 0.959 . S
H125 C123 0.960 . S
H126 C123 0.961 . S
O127 Co102 1.967 . S
O127 C135 1.258 . S
O128 Co103 1.941 . S
O128 C135 1.266 . S
H129 C131 0.959 . S
H130 C131 0.961 . S
C131 C121 1.510 . S
C131 H129 0.959 . S
C131 H130 0.961 . S
C131 H132 0.960 . S
H132 C131 0.960 . S
H133 N113 0.862 . S
O134 Co102 1.920 . S
O134 C107 1.289 . S
C135 O127 1.258 . S
C135 O128 1.266 . S
Co136 O139 1.970 . S
Co136 N153 1.989 . S
Co136 O161 1.967 . S
Co136 O168 1.920 . S
Co137 O140 1.966 . S
Co137 N146 2.022 . S
Co137 N154 1.993 . S
Co137 O162 1.941 . S
C138 O139 1.258 . S
C138 O140 1.263 . S
O139 Co136 1.970 . S
O139 C138 1.258 . S
O140 Co137 1.966 . S
O140 C138 1.263 . S
C141 O142 1.235 . S
C141 O168 1.289 . S
O142 C141 1.235 . S
C143 C145 1.400 1_554 S
C143 N146 1.351 . S
C143 C148 1.501 . S
C144 C145 1.387 . S
C144 N147 1.341 1_556 S
C145 C143 1.400 1_556 S
C145 C144 1.387 . S
N146 Co137 2.022 . S
N146 C143 1.351 . S
N146 N147 1.365 . S
N147 C144 1.341 1_554 S
N147 N146 1.365 . S
N147 H167 0.862 . S
C148 C143 1.501 . S
C148 H149 0.961 . S
C148 H150 0.961 . S
C148 H151 0.960 1_554 S
H149 C148 0.961 . S
H150 C148 0.961 . S
H151 C148 0.960 1_556 S
C152 N153 1.342 . S
C152 C156 1.401 . S
C152 C157 1.499 . S
N153 Co136 1.989 . S
N153 C152 1.342 . S
N153 N154 1.388 . S
N154 Co137 1.993 . S
N154 N153 1.388 . S
N154 C155 1.346 . S
C155 N154 1.346 . S
C155 C156 1.396 . S
C155 C165 1.510 . S
C156 C152 1.401 . S
C156 C155 1.396 . S
C157 C152 1.499 . S
C157 H158 0.959 . S
C157 H159 0.960 . S
C157 H160 0.961 . S
H158 C157 0.959 . S
H159 C157 0.960 . S
H160 C157 0.961 . S
O161 Co136 1.967 . S
O161 C169 1.258 . S
O162 Co137 1.941 . S
O162 C169 1.266 . S
H163 C165 0.959 . S
H164 C165 0.961 . S
C165 C155 1.510 . S
C165 H163 0.959 . S
C165 H164 0.961 . S
C165 H166 0.960 . S
H166 C165 0.960 . S
H167 N147 0.862 . S
O168 Co136 1.920 . S
O168 C141 1.289 . S
C169 O161 1.258 . S
C169 O162 1.266 . S
Co170 O173 1.970 . S
Co170 N187 1.989 . S
Co170 O195 1.967 . S
Co170 O202 1.920 . S
Co171 O174 1.966 . S
Co171 N180 2.022 . S
Co171 N188 1.993 . S
Co171 O196 1.941 . S
C172 O173 1.258 . S
C172 O174 1.263 . S
O173 Co170 1.970 . S
O173 C172 1.258 . S
O174 Co171 1.966 . S
O174 C172 1.263 . S
C175 O176 1.235 . S
C175 O202 1.289 . S
O176 C175 1.235 . S
C177 C179 1.400 . S
C177 N180 1.351 . S
C177 C182 1.501 . S
C178 C179 1.387 . S
C178 N181 1.341 . S
C179 C177 1.400 . S
C179 C178 1.387 . S
N180 Co171 2.022 . S
N180 C177 1.351 . S
N180 N181 1.365 . S
N181 C178 1.341 . S
N181 N180 1.365 . S
N181 H201 0.862 . S
C182 C177 1.501 . S
C182 H183 0.961 . S
C182 H184 0.961 . S
C182 H185 0.960 . S
H183 C182 0.961 . S
H184 C182 0.961 . S
H185 C182 0.960 . S
C186 N187 1.342 . S
C186 C190 1.401 . S
C186 C191 1.499 . S
N187 Co170 1.989 . S
N187 C186 1.342 . S
N187 N188 1.388 . S
N188 Co171 1.993 . S
N188 N187 1.388 . S
N188 C189 1.346 . S
C189 N188 1.346 . S
C189 C190 1.396 . S
C189 C199 1.510 . S
C190 C186 1.401 . S
C190 C189 1.396 . S
C191 C186 1.499 . S
C191 H192 0.959 . S
C191 H193 0.960 . S
C191 H194 0.961 . S
H192 C191 0.959 . S
H193 C191 0.960 . S
H194 C191 0.961 . S
O195 Co170 1.967 . S
O195 C203 1.258 . S
O196 Co171 1.941 . S
O196 C203 1.266 . S
H197 C199 0.959 . S
H198 C199 0.961 . S
C199 C189 1.510 . S
C199 H197 0.959 . S
C199 H198 0.961 . S
C199 H200 0.960 . S
H200 C199 0.960 . S
H201 N181 0.862 . S
O202 Co170 1.920 . S
O202 C175 1.289 . S
C203 O195 1.258 . S
C203 O196 1.266 . S
Co204 O207 1.970 . S
Co204 N221 1.989 . S
Co204 O229 1.967 . S
Co204 O236 1.920 . S
Co205 O208 1.966 . S
Co205 N214 2.022 . S
Co205 N222 1.993 . S
Co205 O230 1.941 . S
C206 O207 1.258 . S
C206 O208 1.263 . S
O207 Co204 1.970 . S
O207 C206 1.258 . S
O208 Co205 1.966 . S
O208 C206 1.263 . S
C209 O210 1.235 . S
C209 O236 1.289 . S
O210 C209 1.235 . S
C211 C213 1.400 . S
C211 N214 1.351 . S
C211 C216 1.501 . S
C212 C213 1.387 . S
C212 N215 1.341 . S
C213 C211 1.400 . S
C213 C212 1.387 . S
N214 Co205 2.022 . S
N214 C211 1.351 . S
N214 N215 1.365 . S
N215 C212 1.341 . S
N215 N214 1.365 . S
N215 H235 0.862 . S
C216 C211 1.501 . S
C216 H217 0.961 . S
C216 H218 0.961 . S
C216 H219 0.960 . S
H217 C216 0.961 . S
H218 C216 0.961 . S
H219 C216 0.960 . S
C220 N221 1.342 . S
C220 C224 1.401 . S
C220 C225 1.499 . S
N221 Co204 1.989 . S
N221 C220 1.342 . S
N221 N222 1.388 . S
N222 Co205 1.993 . S
N222 N221 1.388 . S
N222 C223 1.346 . S
C223 N222 1.346 . S
C223 C224 1.396 . S
C223 C233 1.510 . S
C224 C220 1.401 . S
C224 C223 1.396 . S
C225 C220 1.499 . S
C225 H226 0.959 . S
C225 H227 0.960 . S
C225 H228 0.961 . S
H226 C225 0.959 . S
H227 C225 0.960 . S
H228 C225 0.961 . S
O229 Co204 1.967 . S
O229 C237 1.258 . S
O230 Co205 1.941 . S
O230 C237 1.266 . S
H231 C233 0.959 . S
H232 C233 0.961 . S
C233 C223 1.510 . S
C233 H231 0.959 . S
C233 H232 0.961 . S
C233 H234 0.960 . S
H234 C233 0.960 . S
H235 N215 0.862 . S
O236 Co204 1.920 . S
O236 C209 1.289 . S
C237 O229 1.258 . S
C237 O230 1.266 . S
Co238 O241 1.970 . S
Co238 N255 1.989 . S
Co238 O263 1.967 . S
Co238 O270 1.920 . S
Co239 O242 1.966 . S
Co239 N248 2.022 . S
Co239 N256 1.993 . S
Co239 O264 1.941 . S
C240 O241 1.258 1_554 S
C240 O242 1.263 . S
O241 Co238 1.970 . S
O241 C240 1.258 1_556 S
O242 Co239 1.966 . S
O242 C240 1.263 . S
C243 O244 1.235 . S
C243 O270 1.289 . S
O244 C243 1.235 . S
C245 C247 1.400 . S
C245 N248 1.351 . S
C245 C250 1.501 . S
C246 C247 1.387 . S
C246 N249 1.341 . S
C247 C245 1.400 . S
C247 C246 1.387 . S
N248 Co239 2.022 . S
N248 C245 1.351 . S
N248 N249 1.365 . S
N249 C246 1.341 . S
N249 N248 1.365 . S
N249 H269 0.862 . S
C250 C245 1.501 . S
C250 H251 0.961 . S
C250 H252 0.961 . S
C250 H253 0.960 . S
H251 C250 0.961 . S
H252 C250 0.961 . S
H253 C250 0.960 . S
C254 N255 1.342 . S
C254 C258 1.401 1_556 S
C254 C259 1.499 . S
N255 Co238 1.989 . S
N255 C254 1.342 . S
N255 N256 1.388 1_556 S
N256 Co239 1.993 . S
N256 N255 1.388 1_554 S
N256 C257 1.346 . S
C257 N256 1.346 . S
C257 C258 1.396 . S
C257 C267 1.510 . S
C258 C254 1.401 1_554 S
C258 C257 1.396 . S
C259 C254 1.499 . S
C259 H260 0.959 . S
C259 H261 0.960 . S
C259 H262 0.961 . S
H260 C259 0.959 . S
H261 C259 0.960 . S
H262 C259 0.961 . S
O263 Co238 1.967 . S
O263 C271 1.258 1_556 S
O264 Co239 1.941 . S
O264 C271 1.266 . S
H265 C267 0.959 . S
H266 C267 0.961 . S
C267 C257 1.510 . S
C267 H265 0.959 . S
C267 H266 0.961 . S
C267 H268 0.960 . S
H268 C267 0.960 . S
H269 N249 0.862 . S
O270 Co238 1.920 . S
O270 C243 1.289 . S
C271 O263 1.258 1_554 S
C271 O264 1.266 . S
C272 C273 1.391 . S
C272 C274 1.394 . S
C272 H288 0.931 . S
C273 C272 1.391 . S
C273 C277 1.376 . S
C274 C272 1.394 . S
C274 C275 1.369 . S
C274 C278 1.531 . S
C275 C274 1.369 . S
C275 C276 1.410 . S
C275 C283 1.503 . S
C276 C275 1.410 . S
C276 C277 1.392 . S
C276 C279 1.511 1_554 S
C277 C273 1.376 . S
C277 C276 1.392 . S
C277 H289 0.929 1_554 S
C278 C274 1.531 . S
C278 H290 0.960 . S
C278 H291 0.962 . S
C278 H292 0.960 . S
C279 C276 1.511 1_556 S
C279 H293 0.961 . S
C279 H294 0.961 . S
C279 H295 0.961 1_556 S
C280 C281 1.370 1_556 S
C280 C282 1.363 . S
C280 H296 0.931 . S
C281 C280 1.370 1_554 S
C281 C285 1.408 . S
C282 C280 1.363 . S
C282 C283 1.370 1_556 S
C282 C286 1.524 . S
C283 C275 1.503 . S
C283 C282 1.370 1_554 S
C283 C284 1.403 . S
C284 C283 1.403 . S
C284 C285 1.404 . S
C284 C287 1.539 . S
C285 C281 1.408 . S
C285 C284 1.404 . S
C285 H297 0.930 . S
C286 C282 1.524 . S
C286 H298 0.956 . S
C286 H299 0.961 . S
C286 H300 0.961 . S
C287 C284 1.539 . S
C287 H301 0.958 . S
C287 H302 0.961 . S
C287 H303 0.960 . S
H288 C272 0.931 . S
H289 C277 0.929 1_556 S
H290 C278 0.960 . S
H291 C278 0.962 . S
H292 C278 0.960 . S
H293 C279 0.961 . S
H294 C279 0.961 . S
H295 C279 0.961 1_554 S
H296 C280 0.931 . S
H297 C285 0.930 . S
H298 C286 0.956 . S
H299 C286 0.961 . S
H300 C286 0.961 . S
H301 C287 0.958 . S
H302 C287 0.961 . S
H303 C287 0.960 . S
C304 C305 1.391 . S
C304 C306 1.394 . S
C304 H320 0.931 . S
C305 C304 1.391 . S
C305 C309 1.376 . S
C306 C304 1.394 . S
C306 C307 1.369 . S
C306 C310 1.531 . S
C307 C306 1.369 . S
C307 C308 1.410 . S
C307 C315 1.503 1_545 S
C308 C307 1.410 . S
C308 C309 1.392 . S
C308 C311 1.511 1_545 S
C309 C305 1.376 . S
C309 C308 1.392 . S
C309 H321 0.929 . S
C310 C306 1.531 . S
C310 H322 0.960 . S
C310 H323 0.962 . S
C310 H324 0.960 . S
C311 C308 1.511 1_565 S
C311 H325 0.961 . S
C311 H326 0.961 . S
C311 H327 0.961 . S
C312 C313 1.370 . S
C312 C314 1.363 . S
C312 H328 0.931 . S
C313 C312 1.370 . S
C313 C317 1.408 . S
C314 C312 1.363 . S
C314 C315 1.370 . S
C314 C318 1.524 1_565 S
C315 C307 1.503 1_565 S
C315 C314 1.370 . S
C315 C316 1.403 . S
C316 C315 1.403 . S
C316 C317 1.404 . S
C316 C319 1.539 . S
C317 C313 1.408 . S
C317 C316 1.404 . S
C317 H329 0.930 . S
C318 C314 1.524 1_545 S
C318 H330 0.956 . S
C318 H331 0.961 . S
C318 H332 0.961 . S
C319 C316 1.539 . S
C319 H333 0.958 . S
C319 H334 0.961 . S
C319 H335 0.960 . S
H320 C304 0.931 . S
H321 C309 0.929 . S
H322 C310 0.960 . S
H323 C310 0.962 . S
H324 C310 0.960 . S
H325 C311 0.961 . S
H326 C311 0.961 . S
H327 C311 0.961 . S
H328 C312 0.931 . S
H329 C317 0.930 . S
H330 C318 0.956 . S
H331 C318 0.961 . S
H332 C318 0.961 . S
H333 C319 0.958 . S
H334 C319 0.961 . S
H335 C319 0.960 . S
C336 C337 1.391 . S
C336 C338 1.394 1_655 S
C336 H352 0.931 . S
C337 C336 1.391 . S
C337 C341 1.376 . S
C338 C336 1.394 1_455 S
C338 C339 1.369 . S
C338 C342 1.531 . S
C339 C338 1.369 . S
C339 C340 1.410 . S
C339 C347 1.503 . S
C340 C339 1.410 . S
C340 C341 1.392 1_455 S
C340 C343 1.511 . S
C341 C337 1.376 . S
C341 C340 1.392 1_655 S
C341 H353 0.929 . S
C342 C338 1.531 . S
C342 H354 0.960 . S
C342 H355 0.962 1_455 S
C342 H356 0.960 . S
C343 C340 1.511 . S
C343 H357 0.961 . S
C343 H358 0.961 . S
C343 H359 0.961 . S
C344 C345 1.370 . S
C344 C346 1.363 . S
C344 H360 0.931 . S
C345 C344 1.370 . S
C345 C349 1.408 . S
C346 C344 1.363 . S
C346 C347 1.370 1_545 S
C346 C350 1.508 1_455 S
C347 C339 1.503 . S
C347 C346 1.370 1_565 S
C347 C348 1.403 . S
C348 C347 1.403 . S
C348 C349 1.404 1_565 S
C348 C351 1.539 . S
C349 C345 1.408 . S
C349 C348 1.404 1_545 S
C349 H361 0.924 1_545 S
C350 C346 1.508 1_655 S
C350 H362 0.966 . S
C350 H363 0.965 . S
C350 H364 0.962 . S
C351 C348 1.539 . S
C351 H365 0.958 . S
C351 H366 0.961 . S
C351 H367 0.960 . S
H352 C336 0.931 . S
H353 C341 0.929 . S
H354 C342 0.960 . S
H355 C342 0.962 1_655 S
H356 C342 0.960 . S
H357 C343 0.961 . S
H358 C343 0.961 . S
H359 C343 0.961 . S
H360 C344 0.931 . S
H361 C349 0.924 1_565 S
H362 C350 0.966 . S
H363 C350 0.965 . S
H364 C350 0.962 . S
H365 C351 0.958 . S
H366 C351 0.961 . S
H367 C351 0.960 . S
C368 C369 1.391 . S
C368 C370 1.394 1_455 S
C368 H384 0.931 . S
C369 C368 1.391 . S
C369 C373 1.376 . S
C370 C368 1.394 1_655 S
C370 C371 1.369 1_655 S
C370 C374 1.531 . S
C371 C370 1.369 1_455 S
C371 C372 1.410 . S
C371 C379 1.503 1_455 S
C372 C371 1.410 . S
C372 C373 1.392 . S
C372 C375 1.511 . S
C373 C369 1.376 . S
C373 C372 1.392 . S
C373 H385 0.929 . S
C374 C370 1.531 . S
C374 H386 0.960 . S
C374 H387 0.962 . S
C374 H388 0.960 . S
C375 C372 1.511 . S
C375 H389 0.961 . S
C375 H390 0.961 . S
C375 H391 0.961 . S
C376 C377 1.370 . S
C376 C378 1.363 . S
C376 H392 0.931 . S
C377 C376 1.370 . S
C377 C381 1.408 . S
C378 C376 1.363 . S
C378 C379 1.370 . S
C378 C382 1.524 1_655 S
C379 C371 1.503 1_655 S
C379 C378 1.370 . S
C379 C380 1.403 . S
C380 C379 1.403 . S
C380 C381 1.404 . S
C380 C383 1.539 . S
C381 C377 1.408 . S
C381 C380 1.404 . S
C381 H393 0.930 . S
C382 C378 1.524 1_455 S
C382 H394 0.956 1_455 S
C382 H395 0.961 . S
C382 H396 0.961 . S
C383 C380 1.539 . S
C383 H397 0.958 . S
C383 H398 0.961 . S
C383 H399 0.960 . S
H384 C368 0.931 . S
H385 C373 0.929 . S
H386 C374 0.960 . S
H387 C374 0.962 . S
H388 C374 0.960 . S
H389 C375 0.961 . S
H390 C375 0.961 . S
H391 C375 0.961 . S
H392 C376 0.931 . S
H393 C381 0.930 . S
H394 C382 0.956 1_655 S
H395 C382 0.961 . S
H396 C382 0.961 . S
H397 C383 0.958 . S
H398 C383 0.961 . S
H399 C383 0.960 . S
C400 C401 1.391 . S
C400 C402 1.394 . S
C400 H416 0.931 . S
C401 C400 1.391 . S
C401 C405 1.376 . S
C402 C400 1.394 . S
C402 C403 1.369 . S
C402 C406 1.531 . S
C403 C402 1.369 . S
C403 C404 1.410 . S
C403 C411 1.503 . S
C404 C403 1.410 . S
C404 C405 1.392 . S
C404 C407 1.511 . S
C405 C401 1.376 . S
C405 C404 1.392 . S
C405 H417 0.929 . S
C406 C402 1.531 . S
C406 H418 0.960 . S
C406 H419 0.962 . S
C406 H420 0.960 . S
C407 C404 1.511 . S
C407 H421 0.961 . S
C407 H422 0.961 . S
C407 H423 0.961 . S
C408 C409 1.370 . S
C408 C410 1.363 . S
C408 H424 0.931 . S
C409 C408 1.370 . S
C409 C413 1.408 . S
C410 C408 1.363 . S
C410 C411 1.370 . S
C410 C414 1.524 . S
C411 C403 1.503 . S
C411 C410 1.370 . S
C411 C412 1.403 . S
C412 C411 1.403 . S
C412 C413 1.404 . S
C412 C415 1.539 . S
C413 C409 1.408 . S
C413 C412 1.404 . S
C413 H425 0.930 . S
C414 C410 1.524 . S
C414 H426 0.956 . S
C414 H427 0.961 . S
C414 H428 0.961 . S
C415 C412 1.539 . S
C415 H429 0.958 . S
C415 H430 0.961 . S
C415 H431 0.960 . S
H416 C400 0.931 . S
H417 C405 0.929 . S
H418 C406 0.960 . S
H419 C406 0.962 . S
H420 C406 0.960 . S
H421 C407 0.961 . S
H422 C407 0.961 . S
H423 C407 0.961 . S
H424 C408 0.931 . S
H425 C413 0.930 . S
H426 C414 0.956 . S
H427 C414 0.961 . S
H428 C414 0.961 . S
H429 C415 0.958 . S
H430 C415 0.961 . S
H431 C415 0.960 . S
C432 C433 1.391 . S
C432 C434 1.394 . S
C432 H448 0.931 . S
C433 C432 1.391 . S
C433 C437 1.376 . S
C434 C432 1.394 . S
C434 C435 1.369 . S
C434 C438 1.531 . S
C435 C434 1.369 . S
C435 C436 1.410 . S
C435 C443 1.503 . S
C436 C435 1.410 . S
C436 C437 1.392 . S
C436 C439 1.511 . S
C437 C433 1.376 . S
C437 C436 1.392 . S
C437 H449 0.929 . S
C438 C434 1.531 . S
C438 H450 0.960 . S
C438 H451 0.962 . S
C438 H452 0.960 . S
C439 C436 1.511 . S
C439 H453 0.961 . S
C439 H454 0.961 . S
C439 H455 0.961 . S
C440 C441 1.370 . S
C440 C442 1.363 . S
C440 H456 0.931 . S
C441 C440 1.370 . S
C441 C445 1.408 . S
C442 C440 1.363 . S
C442 C443 1.370 . S
C442 C446 1.524 . S
C443 C435 1.503 . S
C443 C442 1.370 . S
C443 C444 1.403 . S
C444 C443 1.403 . S
C444 C445 1.404 . S
C444 C447 1.539 . S
C445 C441 1.408 . S
C445 C444 1.404 . S
C445 H457 0.930 . S
C446 C442 1.524 . S
C446 H458 0.956 . S
C446 H459 0.961 . S
C446 H460 0.961 . S
C447 C444 1.539 . S
C447 H461 0.958 . S
C447 H462 0.961 . S
C447 H463 0.960 . S
H448 C432 0.931 . S
H449 C437 0.929 . S
H450 C438 0.960 . S
H451 C438 0.962 . S
H452 C438 0.960 . S
H453 C439 0.961 . S
H454 C439 0.961 . S
H455 C439 0.961 . S
H456 C440 0.931 . S
H457 C445 0.930 . S
H458 C446 0.956 . S
H459 C446 0.961 . S
H460 C446 0.961 . S
H461 C447 0.958 . S
H462 C447 0.961 . S
H463 C447 0.960 . S
C464 C465 1.391 . S
C464 C466 1.394 1_556 S
C464 H480 0.931 . S
C465 C464 1.391 . S
C465 C469 1.376 . S
C466 C464 1.394 1_554 S
C466 C467 1.369 . S
C466 C470 1.531 . S
C467 C466 1.369 . S
C467 C468 1.410 . S
C467 C475 1.503 . S
C468 C467 1.410 . S
C468 C469 1.392 1_554 S
C468 C471 1.511 . S
C469 C465 1.376 . S
C469 C468 1.392 1_556 S
C469 H481 0.929 . S
C470 C466 1.531 . S
C470 H482 0.960 . S
C470 H483 0.962 . S
C470 H484 0.960 . S
C471 C468 1.511 . S
C471 H485 0.961 . S
C471 H486 0.961 . S
C471 H487 0.961 . S
C472 C473 1.370 . S
C472 C474 1.363 . S
C472 H488 0.931 . S
C473 C472 1.370 . S
C473 C477 1.408 . S
C474 C472 1.363 . S
C474 C475 1.370 . S
C474 C478 1.524 . S
C475 C467 1.503 . S
C475 C474 1.370 . S
C475 C476 1.403 . S
C476 C475 1.403 . S
C476 C477 1.404 . S
C476 C479 1.539 . S
C477 C473 1.408 . S
C477 C476 1.404 . S
C477 H489 0.930 . S
C478 C474 1.524 . S
C478 H490 0.956 . S
C478 H491 0.961 . S
C478 H492 0.961 . S
C479 C476 1.539 . S
C479 H493 0.958 . S
C479 H494 0.961 . S
C479 H495 0.960 . S
H480 C464 0.931 . S
H481 C469 0.929 . S
H482 C470 0.960 . S
H483 C470 0.962 . S
H484 C470 0.960 . S
H485 C471 0.961 . S
H486 C471 0.961 . S
H487 C471 0.961 . S
H488 C472 0.931 . S
H489 C477 0.930 . S
H490 C478 0.956 . S
H491 C478 0.961 . S
H492 C478 0.961 . S
H493 C479 0.958 . S
H494 C479 0.961 . S
H495 C479 0.960 . S
C496 C497 1.391 . S
C496 C498 1.394 . S
C496 H512 0.931 . S
C497 C496 1.391 . S
C497 C501 1.376 . S
C498 C496 1.394 . S
C498 C499 1.369 . S
C498 C502 1.531 . S
C499 C498 1.369 . S
C499 C500 1.410 . S
C499 C507 1.503 . S
C500 C499 1.410 . S
C500 C501 1.392 . S
C500 C503 1.511 . S
C501 C497 1.376 . S
C501 C500 1.392 . S
C501 H513 0.929 . S
C502 C498 1.531 . S
C502 H514 0.960 . S
C502 H515 0.962 . S
C502 H516 0.960 . S
C503 C500 1.511 . S
C503 H517 0.961 . S
C503 H518 0.961 . S
C503 H519 0.961 . S
C504 C505 1.370 . S
C504 C506 1.363 . S
C504 H520 0.931 . S
C505 C504 1.370 . S
C505 C509 1.408 . S
C506 C504 1.363 . S
C506 C507 1.370 . S
C506 C510 1.524 . S
C507 C499 1.503 . S
C507 C506 1.370 . S
C507 C508 1.403 . S
C508 C507 1.403 . S
C508 C509 1.404 . S
C508 C511 1.539 . S
C509 C505 1.408 . S
C509 C508 1.404 . S
C509 H521 0.930 . S
C510 C506 1.524 . S
C510 H522 0.956 . S
C510 H523 0.961 . S
C510 H524 0.961 . S
C511 C508 1.539 . S
C511 H525 0.958 . S
C511 H526 0.961 . S
C511 H527 0.960 . S
H512 C496 0.931 . S
H513 C501 0.929 . S
H514 C502 0.960 . S
H515 C502 0.962 . S
H516 C502 0.960 . S
H517 C503 0.961 . S
H518 C503 0.961 . S
H519 C503 0.961 . S
H520 C504 0.931 . S
H521 C509 0.930 . S
H522 C510 0.956 . S
H523 C510 0.961 . S
H524 C510 0.961 . S
H525 C511 0.958 . S
H526 C511 0.961 . S
H527 C511 0.960 . S
C528 C529 1.391 . S
C528 C530 1.394 . S
C528 H544 0.931 . S
C529 C528 1.391 . S
C529 C533 1.376 . S
C530 C528 1.394 . S
C530 C531 1.369 . S
C530 C534 1.531 . S
C531 C530 1.369 . S
C531 C532 1.410 . S
C531 C539 1.503 . S
C532 C531 1.410 . S
C532 C533 1.392 . S
C532 C535 1.511 . S
C533 C529 1.376 . S
C533 C532 1.392 . S
C533 H545 0.929 . S
C534 C530 1.531 . S
C534 H546 0.960 . S
C534 H547 0.962 . S
C534 H548 0.960 . S
C535 C532 1.511 . S
C535 H549 0.961 . S
C535 H550 0.961 . S
C535 H551 0.961 . S
C536 C537 1.370 . S
C536 C538 1.363 . S
C536 H552 0.931 . S
C537 C536 1.370 . S
C537 C541 1.408 . S
C538 C536 1.363 . S
C538 C539 1.370 . S
C538 C542 1.524 . S
C539 C531 1.503 . S
C539 C538 1.370 . S
C539 C540 1.403 . S
C540 C539 1.403 . S
C540 C541 1.404 . S
C540 C543 1.539 . S
C541 C537 1.408 . S
C541 C540 1.404 . S
C541 H553 0.930 . S
C542 C538 1.524 . S
C542 H554 0.956 . S
C542 H555 0.961 . S
C542 H556 0.961 . S
C543 C540 1.539 . S
C543 H557 0.958 . S
C543 H558 0.961 . S
C543 H559 0.960 . S
H544 C528 0.931 . S
H545 C533 0.929 . S
H546 C534 0.960 . S
H547 C534 0.962 . S
H548 C534 0.960 . S
H549 C535 0.961 . S
H550 C535 0.961 . S
H551 C535 0.961 . S
H552 C536 0.931 . S
H553 C541 0.930 . S
H554 C542 0.956 . S
H555 C542 0.961 . S
H556 C542 0.961 . S
H557 C543 0.958 . S
H558 C543 0.961 . S
H559 C543 0.960 . S
C560 C561 1.391 . S
C560 C562 1.394 . S
C560 H576 0.931 . S
C561 C560 1.391 . S
C561 C565 1.376 . S
C562 C560 1.394 . S
C562 C563 1.369 . S
C562 C566 1.531 1_554 S
C563 C562 1.369 . S
C563 C564 1.410 . S
C563 C571 1.503 1_554 S
C564 C563 1.410 . S
C564 C565 1.392 . S
C564 C567 1.511 . S
C565 C561 1.376 . S
C565 C564 1.392 . S
C565 H577 0.929 . S
C566 C562 1.531 1_556 S
C566 H578 0.960 . S
C566 H579 0.962 . S
C566 H580 0.960 . S
C567 C564 1.511 . S
C567 H581 0.961 . S
C567 H582 0.961 1_554 S
C567 H583 0.961 . S
C568 C569 1.370 . S
C568 C570 1.363 . S
C568 H584 0.931 . S
C569 C568 1.370 . S
C569 C573 1.408 . S
C570 C568 1.363 . S
C570 C571 1.370 . S
C570 C574 1.524 . S
C571 C563 1.503 1_556 S
C571 C570 1.370 . S
C571 C572 1.403 . S
C572 C571 1.403 . S
C572 C573 1.404 . S
C572 C575 1.539 . S
C573 C569 1.408 . S
C573 C572 1.404 . S
C573 H585 0.930 . S
C574 C570 1.524 . S
C574 H586 0.956 . S
C574 H587 0.961 . S
C574 H588 0.961 . S
C575 C572 1.539 . S
C575 H589 0.958 . S
C575 H590 0.961 . S
C575 H591 0.960 . S
H576 C560 0.931 . S
H577 C565 0.929 . S
H578 C566 0.960 . S
H579 C566 0.962 . S
H580 C566 0.960 . S
H581 C567 0.961 . S
H582 C567 0.961 1_556 S
H583 C567 0.961 . S
H584 C568 0.931 . S
H585 C573 0.930 . S
H586 C574 0.956 . S
H587 C574 0.961 . S
H588 C574 0.961 . S
H589 C575 0.958 . S
H590 C575 0.961 . S
H591 C575 0.960 . S
C592 C593 1.391 . S
C592 C594 1.394 . S
C592 H608 0.931 . S
C593 C592 1.391 . S
C593 C597 1.376 . S
C594 C592 1.394 . S
C594 C595 1.369 . S
C594 C598 1.531 . S
C595 C594 1.369 . S
C595 C596 1.410 . S
C595 C603 1.503 . S
C596 C595 1.410 . S
C596 C597 1.392 . S
C596 C599 1.511 . S
C597 C593 1.376 . S
C597 C596 1.392 . S
C597 H609 0.929 . S
C598 C594 1.531 . S
C598 H610 0.960 . S
C598 H611 0.962 . S
C598 H612 0.960 . S
C599 C596 1.511 . S
C599 H613 0.961 . S
C599 H614 0.961 . S
C599 H615 0.961 . S
C600 C601 1.370 . S
C600 C602 1.363 . S
C600 H616 0.931 . S
C601 C600 1.370 . S
C601 C605 1.408 . S
C602 C600 1.363 . S
C602 C603 1.370 . S
C602 C606 1.524 . S
C603 C595 1.503 . S
C603 C602 1.370 . S
C603 C604 1.403 . S
C604 C603 1.403 . S
C604 C605 1.404 . S
C604 C607 1.539 . S
C605 C601 1.408 . S
C605 C604 1.404 . S
C605 H617 0.930 . S
C606 C602 1.524 . S
C606 H618 0.956 . S
C606 H619 0.961 . S
C606 H620 0.961 . S
C607 C604 1.539 . S
C607 H621 0.958 . S
C607 H622 0.961 . S
C607 H623 0.960 . S
H608 C592 0.931 . S
H609 C597 0.929 . S
H610 C598 0.960 . S
H611 C598 0.962 . S
H612 C598 0.960 . S
H613 C599 0.961 . S
H614 C599 0.961 . S
H615 C599 0.961 . S
H616 C600 0.931 . S
H617 C605 0.930 . S
H618 C606 0.956 . S
H619 C606 0.961 . S
H620 C606 0.961 . S
H621 C607 0.958 . S
H622 C607 0.961 . S
H623 C607 0.960 . S
C624 C625 1.391 . S
C624 C626 1.394 . S
C624 H640 0.931 . S
C625 C624 1.391 . S
C625 C629 1.376 . S
C626 C624 1.394 . S
C626 C627 1.369 . S
C626 C630 1.531 . S
C627 C626 1.369 . S
C627 C628 1.410 . S
C627 C635 1.503 . S
C628 C627 1.410 . S
C628 C629 1.392 . S
C628 C631 1.511 . S
C629 C625 1.376 . S
C629 C628 1.392 . S
C629 H641 0.929 . S
C630 C626 1.531 . S
C630 H642 0.960 . S
C630 H643 0.962 . S
C630 H644 0.960 . S
C631 C628 1.511 . S
C631 H645 0.961 . S
C631 H646 0.961 . S
C631 H647 0.961 . S
C632 C633 1.370 . S
C632 C634 1.363 . S
C632 H648 0.931 . S
C633 C632 1.370 . S
C633 C637 1.408 . S
C634 C632 1.363 . S
C634 C635 1.370 . S
C634 C638 1.524 . S
C635 C627 1.503 . S
C635 C634 1.370 . S
C635 C636 1.403 . S
C636 C635 1.403 . S
C636 C637 1.404 . S
C636 C639 1.539 . S
C637 C633 1.408 . S
C637 C636 1.404 . S
C637 H649 0.930 . S
C638 C634 1.524 . S
C638 H650 0.956 . S
C638 H651 0.961 . S
C638 H652 0.961 . S
C639 C636 1.539 . S
C639 H653 0.958 . S
C639 H654 0.961 . S
C639 H655 0.960 . S
H640 C624 0.931 . S
H641 C629 0.929 . S
H642 C630 0.960 . S
H643 C630 0.962 . S
H644 C630 0.960 . S
H645 C631 0.961 . S
H646 C631 0.961 . S
H647 C631 0.961 . S
H648 C632 0.931 . S
H649 C637 0.930 . S
H650 C638 0.956 . S
H651 C638 0.961 . S
H652 C638 0.961 . S
H653 C639 0.958 . S
H654 C639 0.961 . S
H655 C639 0.960 . S
C656 C657 1.391 . S
C656 C658 1.394 . S
C656 H672 0.931 . S
C657 C656 1.391 . S
C657 C661 1.376 . S
C658 C656 1.394 . S
C658 C659 1.369 . S
C658 C662 1.531 . S
C659 C658 1.369 . S
C659 C660 1.410 . S
C659 C667 1.503 . S
C660 C659 1.410 . S
C660 C661 1.392 . S
C660 C663 1.511 . S
C661 C657 1.376 . S
C661 C660 1.392 . S
C661 H673 0.929 . S
C662 C658 1.531 . S
C662 H674 0.960 . S
C662 H675 0.962 . S
C662 H676 0.960 . S
C663 C660 1.511 . S
C663 H677 0.961 . S
C663 H678 0.961 . S
C663 H679 0.961 . S
C664 C665 1.370 1_554 S
C664 C666 1.363 1_554 S
C664 H680 0.931 . S
C665 C664 1.370 1_556 S
C665 C669 1.408 . S
C666 C664 1.363 1_556 S
C666 C667 1.370 . S
C666 C670 1.524 1_556 S
C667 C659 1.503 . S
C667 C666 1.370 . S
C667 C668 1.403 . S
C668 C667 1.403 . S
C668 C669 1.404 . S
C668 C671 1.539 . S
C669 C665 1.408 . S
C669 C668 1.404 . S
C669 H681 0.930 . S
C670 C666 1.524 1_554 S
C670 H682 0.956 . S
C670 H683 0.961 1_554 S
C670 H684 0.961 . S
C671 C668 1.539 . S
C671 H685 0.958 . S
C671 H686 0.961 . S
C671 H687 0.960 . S
H672 C656 0.931 . S
H673 C661 0.929 . S
H674 C662 0.960 . S
H675 C662 0.962 . S
H676 C662 0.960 . S
H677 C663 0.961 . S
H678 C663 0.961 . S
H679 C663 0.961 . S
H680 C664 0.931 . S
H681 C669 0.930 . S
H682 C670 0.956 . S
H683 C670 0.961 1_556 S
H684 C670 0.961 . S
H685 C671 0.958 . S
H686 C671 0.961 . S
H687 C671 0.960 . S
C688 C689 1.391 . S
C688 C690 1.394 . S
C688 H704 0.931 . S
C689 C688 1.391 . S
C689 C693 1.376 . S
C690 C688 1.394 . S
C690 C691 1.369 . S
C690 C694 1.531 . S
C691 C690 1.369 . S
C691 C692 1.410 . S
C691 C699 1.503 . S
C692 C691 1.410 . S
C692 C693 1.392 . S
C692 C695 1.511 . S
C693 C689 1.376 . S
C693 C692 1.392 . S
C693 H705 0.929 . S
C694 C690 1.531 . S
C694 H706 0.960 . S
C694 H707 0.962 . S
C694 H708 0.960 . S
C695 C692 1.511 . S
C695 H709 0.961 . S
C695 H710 0.961 . S
C695 H711 0.961 . S
C696 C697 1.370 . S
C696 C698 1.363 . S
C696 H712 0.931 . S
C697 C696 1.370 . S
C697 C701 1.408 . S
C698 C696 1.363 . S
C698 C699 1.370 . S
C698 C702 1.524 . S
C699 C691 1.503 . S
C699 C698 1.370 . S
C699 C700 1.403 . S
C700 C699 1.403 . S
C700 C701 1.404 . S
C700 C703 1.539 1_554 S
C701 C697 1.408 . S
C701 C700 1.404 . S
C701 H713 0.930 1_554 S
C702 C698 1.524 . S
C702 H714 0.956 . S
C702 H715 0.961 . S
C702 H716 0.961 . S
C703 C700 1.539 1_556 S
C703 H717 0.958 . S
C703 H718 0.961 . S
C703 H719 0.960 1_556 S
H704 C688 0.931 . S
H705 C693 0.929 . S
H706 C694 0.960 . S
H707 C694 0.962 . S
H708 C694 0.960 . S
H709 C695 0.961 . S
H710 C695 0.961 . S
H711 C695 0.961 . S
H712 C696 0.931 . S
H713 C701 0.930 1_556 S
H714 C702 0.956 . S
H715 C702 0.961 . S
H716 C702 0.961 . S
H717 C703 0.958 . S
H718 C703 0.961 . S
H719 C703 0.960 1_554 S
C720 C721 1.391 . S
C720 C722 1.394 . S
C720 H736 0.931 . S
C721 C720 1.391 . S
C721 C725 1.376 . S
C722 C720 1.394 . S
C722 C723 1.369 . S
C722 C726 1.531 . S
C723 C722 1.369 . S
C723 C724 1.410 . S
C723 C731 1.503 . S
C724 C723 1.410 . S
C724 C725 1.392 . S
C724 C727 1.511 . S
C725 C721 1.376 . S
C725 C724 1.392 . S
C725 H737 0.929 . S
C726 C722 1.531 . S
C726 H738 0.960 . S
C726 H739 0.962 . S
C726 H740 0.960 . S
C727 C724 1.511 . S
C727 H741 0.961 . S
C727 H742 0.961 . S
C727 H743 0.961 . S
C728 C729 1.370 . S
C728 C730 1.363 . S
C728 H744 0.931 . S
C729 C728 1.370 . S
C729 C733 1.408 . S
C730 C728 1.363 . S
C730 C731 1.370 . S
C730 C734 1.524 . S
C731 C723 1.503 . S
C731 C730 1.370 . S
C731 C732 1.403 . S
C732 C731 1.403 . S
C732 C733 1.404 . S
C732 C735 1.539 . S
C733 C729 1.408 . S
C733 C732 1.404 . S
C733 H745 0.930 . S
C734 C730 1.524 . S
C734 H746 0.956 . S
C734 H747 0.961 . S
C734 H748 0.961 . S
C735 C732 1.539 . S
C735 H749 0.958 . S
C735 H750 0.961 . S
C735 H751 0.960 . S
H736 C720 0.931 . S
H737 C725 0.929 . S
H738 C726 0.960 . S
H739 C726 0.962 . S
H740 C726 0.960 . S
H741 C727 0.961 . S
H742 C727 0.961 . S
H743 C727 0.961 . S
H744 C728 0.931 . S
H745 C733 0.930 . S
H746 C734 0.956 . S
H747 C734 0.961 . S
H748 C734 0.961 . S
H749 C735 0.958 . S
H750 C735 0.961 . S
H751 C735 0.960 . S
C752 C753 1.391 . S
C752 C754 1.394 . S
C752 H768 0.931 . S
C753 C752 1.391 . S
C753 C757 1.376 . S
C754 C752 1.394 . S
C754 C755 1.369 . S
C754 C758 1.531 . S
C755 C754 1.369 . S
C755 C756 1.410 . S
C755 C763 1.503 . S
C756 C755 1.410 . S
C756 C757 1.392 . S
C756 C759 1.511 . S
C757 C753 1.376 . S
C757 C756 1.392 . S
C757 H769 0.929 . S
C758 C754 1.531 . S
C758 H770 0.960 . S
C758 H771 0.962 . S
C758 H772 0.960 . S
C759 C756 1.511 . S
C759 H773 0.961 . S
C759 H774 0.961 . S
C759 H775 0.961 . S
C760 C761 1.370 . S
C760 C762 1.363 . S
C760 H776 0.931 . S
C761 C760 1.370 . S
C761 C765 1.408 . S
C762 C760 1.363 . S
C762 C763 1.370 . S
C762 C766 1.524 . S
C763 C755 1.503 . S
C763 C762 1.370 . S
C763 C764 1.403 . S
C764 C763 1.403 . S
C764 C765 1.404 . S
C764 C767 1.539 . S
C765 C761 1.408 . S
C765 C764 1.404 . S
C765 H777 0.930 . S
C766 C762 1.524 . S
C766 H778 0.956 . S
C766 H779 0.961 . S
C766 H780 0.961 . S
C767 C764 1.539 . S
C767 H781 0.958 . S
C767 H782 0.961 . S
C767 H783 0.960 . S
H768 C752 0.931 . S
H769 C757 0.929 . S
H770 C758 0.960 . S
H771 C758 0.962 . S
H772 C758 0.960 . S
H773 C759 0.961 . S
H774 C759 0.961 . S
H775 C759 0.961 . S
H776 C760 0.931 . S
H777 C765 0.930 . S
H778 C766 0.956 . S
H779 C766 0.961 . S
H780 C766 0.961 . S
H781 C767 0.958 . S
H782 C767 0.961 . S
H783 C767 0.960 . S
C784 C785 1.391 . S
C784 C786 1.394 . S
C784 H800 0.931 . S
C785 C784 1.391 . S
C785 C789 1.376 . S
C786 C784 1.394 . S
C786 C787 1.369 . S
C786 C790 1.531 . S
C787 C786 1.369 . S
C787 C788 1.410 . S
C787 C795 1.503 . S
C788 C787 1.410 . S
C788 C789 1.392 . S
C788 C791 1.511 . S
C789 C785 1.376 . S
C789 C788 1.392 . S
C789 H801 0.929 . S
C790 C786 1.531 . S
C790 H802 0.960 . S
C790 H803 0.962 . S
C790 H804 0.960 . S
C791 C788 1.511 . S
C791 H805 0.961 . S
C791 H806 0.961 . S
C791 H807 0.961 . S
C792 C793 1.370 . S
C792 C794 1.363 . S
C792 H808 0.931 . S
C793 C792 1.370 . S
C793 C797 1.408 . S
C794 C792 1.363 . S
C794 C795 1.370 . S
C794 C798 1.524 . S
C795 C787 1.503 . S
C795 C794 1.370 . S
C795 C796 1.403 . S
C796 C795 1.403 . S
C796 C797 1.404 . S
C796 C799 1.539 . S
C797 C793 1.408 . S
C797 C796 1.404 . S
C797 H809 0.930 . S
C798 C794 1.524 . S
C798 H810 0.956 . S
C798 H811 0.961 . S
C798 H812 0.961 . S
C799 C796 1.539 . S
C799 H813 0.958 . S
C799 H814 0.961 . S
C799 H815 0.960 . S
H800 C784 0.931 . S
H801 C789 0.929 . S
H802 C790 0.960 . S
H803 C790 0.962 . S
H804 C790 0.960 . S
H805 C791 0.961 . S
H806 C791 0.961 . S
H807 C791 0.961 . S
H808 C792 0.931 . S
H809 C797 0.930 . S
H810 C798 0.956 . S
H811 C798 0.961 . S
H812 C798 0.961 . S
H813 C799 0.958 . S
H814 C799 0.961 . S
H815 C799 0.960 . S
C816 C817 1.391 . S
C816 C818 1.394 . S
C816 H832 0.931 . S
C817 C816 1.391 . S
C817 C821 1.376 . S
C818 C816 1.394 . S
C818 C819 1.369 . S
C818 C822 1.531 . S
C819 C818 1.369 . S
C819 C820 1.410 . S
C819 C827 1.503 . S
C820 C819 1.410 . S
C820 C821 1.392 . S
C820 C823 1.511 . S
C821 C817 1.376 . S
C821 C820 1.392 . S
C821 H833 0.929 . S
C822 C818 1.531 . S
C822 H834 0.960 . S
C822 H835 0.962 . S
C822 H836 0.960 . S
C823 C820 1.511 . S
C823 H837 0.961 . S
C823 H838 0.961 . S
C823 H839 0.961 . S
C824 C825 1.370 . S
C824 C826 1.363 . S
C824 H840 0.931 . S
C825 C824 1.370 . S
C825 C829 1.408 . S
C826 C824 1.363 . S
C826 C827 1.370 . S
C826 C830 1.524 . S
C827 C819 1.503 . S
C827 C826 1.370 . S
C827 C828 1.403 . S
C828 C827 1.403 . S
C828 C829 1.404 . S
C828 C831 1.539 . S
C829 C825 1.408 . S
C829 C828 1.404 . S
C829 H841 0.930 . S
C830 C826 1.524 . S
C830 H842 0.956 . S
C830 H843 0.961 . S
C830 H844 0.961 . S
C831 C828 1.539 . S
C831 H845 0.958 . S
C831 H846 0.961 . S
C831 H847 0.960 . S
H832 C816 0.931 . S
H833 C821 0.929 . S
H834 C822 0.960 . S
H835 C822 0.962 . S
H836 C822 0.960 . S
H837 C823 0.961 . S
H838 C823 0.961 . S
H839 C823 0.961 . S
H840 C824 0.931 . S
H841 C829 0.930 . S
H842 C830 0.956 . S
H843 C830 0.961 . S
H844 C830 0.961 . S
H845 C831 0.958 . S
H846 C831 0.961 . S
H847 C831 0.960 . S
C848 C849 1.391 . S
C848 C850 1.394 . S
C848 H864 0.937 . S
C849 C848 1.391 . S
C849 C853 1.376 . S
C850 C848 1.394 . S
C850 C851 1.369 . S
C850 C854 1.531 . S
C851 C850 1.369 . S
C851 C852 1.410 . S
C851 C859 1.503 . S
C852 C851 1.410 . S
C852 C853 1.392 . S
C852 C855 1.511 . S
C853 C849 1.376 . S
C853 C852 1.392 . S
C853 H865 0.929 . S
C854 C850 1.531 . S
C854 H866 0.960 . S
C854 H867 0.962 . S
C854 H868 0.960 . S
C855 C852 1.511 . S
C855 H869 0.961 . S
C855 H870 0.961 . S
C855 H871 0.961 . S
C856 C857 1.370 . S
C856 C858 1.363 . S
C856 H872 0.931 . S
C857 C856 1.370 . S
C857 C861 1.408 . S
C858 C856 1.363 . S
C858 C859 1.370 . S
C858 C862 1.524 1_556 S
C859 C851 1.503 . S
C859 C858 1.370 . S
C859 C860 1.403 . S
C860 C859 1.403 . S
C860 C861 1.404 . S
C860 C863 1.539 . S
C861 C857 1.408 . S
C861 C860 1.404 . S
C861 H873 0.930 . S
C862 C858 1.524 1_554 S
C862 H874 0.956 . S
C862 H875 0.961 . S
C862 H876 0.961 . S
C863 C860 1.539 . S
C863 H877 0.958 . S
C863 H878 0.961 . S
C863 H879 0.960 . S
H864 C848 0.937 . S
H865 C853 0.929 . S
H866 C854 0.960 . S
H867 C854 0.962 . S
H868 C854 0.960 . S
H869 C855 0.961 . S
H870 C855 0.961 . S
H871 C855 0.961 . S
H872 C856 0.931 . S
H873 C861 0.930 . S
H874 C862 0.956 . S
H875 C862 0.961 . S
H876 C862 0.961 . S
H877 C863 0.958 . S
H878 C863 0.961 . S
H879 C863 0.960 . S
C880 C881 1.391 . S
C880 C882 1.394 . S
C880 H896 0.931 . S
C881 C880 1.391 . S
C881 C885 1.376 . S
C882 C880 1.394 . S
C882 C883 1.369 . S
C882 C886 1.531 . S
C883 C882 1.369 . S
C883 C884 1.410 . S
C883 C891 1.503 . S
C884 C883 1.410 . S
C884 C885 1.392 . S
C884 C887 1.511 . S
C885 C881 1.376 . S
C885 C884 1.392 . S
C885 H897 0.929 . S
C886 C882 1.531 . S
C886 H898 0.960 . S
C886 H899 0.962 . S
C886 H900 0.960 . S
C887 C884 1.511 . S
C887 H901 0.961 . S
C887 H902 0.961 . S
C887 H903 0.961 . S
C888 C889 1.370 . S
C888 C890 1.363 . S
C888 H904 0.931 . S
C889 C888 1.370 . S
C889 C893 1.408 . S
C890 C888 1.363 . S
C890 C891 1.370 . S
C890 C894 1.524 . S
C891 C883 1.503 . S
C891 C890 1.370 . S
C891 C892 1.403 . S
C892 C891 1.403 . S
C892 C893 1.404 . S
C892 C895 1.539 . S
C893 C889 1.408 . S
C893 C892 1.404 . S
C893 H905 0.930 . S
C894 C890 1.524 . S
C894 H906 0.956 . S
C894 H907 0.961 . S
C894 H908 0.961 . S
C895 C892 1.539 . S
C895 H909 0.958 . S
C895 H910 0.961 . S
C895 H911 0.960 . S
H896 C880 0.931 . S
H897 C885 0.929 . S
H898 C886 0.960 . S
H899 C886 0.962 . S
H900 C886 0.960 . S
H901 C887 0.961 . S
H902 C887 0.961 . S
H903 C887 0.961 . S
H904 C888 0.931 . S
H905 C893 0.930 . S
H906 C894 0.956 . S
H907 C894 0.961 . S
H908 C894 0.961 . S
H909 C895 0.958 . S
H910 C895 0.961 . S
H911 C895 0.960 . S
C273 C258 1.419 . S
C281 C20 1.427 . S
C305 C156 1.511 . S
C313 C54 1.506 . S
C337 C190 1.648 . S
C345 C88 1.643 . S
C369 C224 1.535 . S
C377 C122 1.529 . S
C401 C5 1.265 . S
C409 C9 1.231 . S
C433 C43 1.207 . S
C441 C39 1.225 . S
C465 C77 1.256 . S
C473 C73 1.265 . S
C497 C111 1.277 . S
C505 C107 1.306 . S
C529 C145 1.292 . S
C537 C141 1.292 . S
C561 C179 1.268 . S
C569 C175 1.305 . S
C593 C213 1.172 . S
C601 C209 1.225 1_554 S
C625 C243 1.233 . S
C633 C247 1.197 . S
C657 C237 1.435 . S
C665 C2 1.419 1_556 S
C689 C36 1.361 . S
C697 C240 1.385 . S
C721 C169 1.671 . S
C729 C101 1.646 . S
C753 C135 1.668 . S
C761 C203 1.682 . S
C785 C172 1.706 . S
C793 C67 1.697 . S
C817 C70 1.669 . S
C825 C206 1.663 . S
C849 C271 1.556 1_556 S
C857 C104 1.574 . S
C881 C33 1.625 . S
C889 C138 1.608 . S
