# Generated by pormake.
# Topology vby, (6)-cn, num edge types: 1
# Building blocks:
#     Node 0, Type 0, BuildingBlock: KUMBUR_clean_sbu_0, # of connection points: 6
#     Node 1, Type 0, BuildingBlock: KUMBUR_clean_sbu_0, # of connection points: 6
#     Node 2, Type 0, BuildingBlock: KUMBUR_clean_sbu_0, # of connection points: 6
#     Node 3, Type 0, BuildingBlock: KUMBUR_clean_sbu_0, # of connection points: 6
#     Node 4, Type 0, BuildingBlock: KUMBUR_clean_sbu_0, # of connection points: 6
#     Node 5, Type 0, BuildingBlock: KUMBUR_clean_sbu_0, # of connection points: 6
#     Node 6, Type 0, BuildingBlock: KUMBUR_clean_sbu_0, # of connection points: 6
#     Node 7, Type 0, BuildingBlock: KUMBUR_clean_sbu_0, # of connection points: 6
#     Edge 8, Type (0, 0), BuildingBlock: XIVTED_clean_linker_0, # of connection points: 2
#     Edge 9, Type (0, 0), BuildingBlock: XIVTED_clean_linker_0, # of connection points: 2
#     Edge 10, Type (0, 0), BuildingBlock: XIVTED_clean_linker_0, # of connection points: 2
#     Edge 11, Type (0, 0), BuildingBlock: XIVTED_clean_linker_0, # of connection points: 2
#     Edge 12, Type (0, 0), BuildingBlock: XIVTED_clean_linker_0, # of connection points: 2
#     Edge 13, Type (0, 0), BuildingBlock: XIVTED_clean_linker_0, # of connection points: 2
#     Edge 14, Type (0, 0), BuildingBlock: XIVTED_clean_linker_0, # of connection points: 2
#     Edge 15, Type (0, 0), BuildingBlock: XIVTED_clean_linker_0, # of connection points: 2
#     Edge 16, Type (0, 0), BuildingBlock: XIVTED_clean_linker_0, # of connection points: 2
#     Edge 17, Type (0, 0), BuildingBlock: XIVTED_clean_linker_0, # of connection points: 2
#     Edge 18, Type (0, 0), BuildingBlock: XIVTED_clean_linker_0, # of connection points: 2
#     Edge 19, Type (0, 0), BuildingBlock: XIVTED_clean_linker_0, # of connection points: 2
#     Edge 20, Type (0, 0), BuildingBlock: XIVTED_clean_linker_0, # of connection points: 2
#     Edge 21, Type (0, 0), BuildingBlock: XIVTED_clean_linker_0, # of connection points: 2
#     Edge 22, Type (0, 0), BuildingBlock: XIVTED_clean_linker_0, # of connection points: 2
#     Edge 23, Type (0, 0), BuildingBlock: XIVTED_clean_linker_0, # of connection points: 2
#     Edge 24, Type (0, 0), BuildingBlock: XIVTED_clean_linker_0, # of connection points: 2
#     Edge 25, Type (0, 0), BuildingBlock: XIVTED_clean_linker_0, # of connection points: 2
#     Edge 26, Type (0, 0), BuildingBlock: XIVTED_clean_linker_0, # of connection points: 2
#     Edge 27, Type (0, 0), BuildingBlock: XIVTED_clean_linker_0, # of connection points: 2
#     Edge 28, Type (0, 0), BuildingBlock: XIVTED_clean_linker_0, # of connection points: 2
#     Edge 29, Type (0, 0), BuildingBlock: XIVTED_clean_linker_0, # of connection points: 2
#     Edge 30, Type (0, 0), BuildingBlock: XIVTED_clean_linker_0, # of connection points: 2
#     Edge 31, Type (0, 0), BuildingBlock: XIVTED_clean_linker_0, # of connection points: 2
# Relax obj value: 0.109
# Max RMSD: 0.196
# Mean RMSD: 0.196
data_MOF--net-vby--node1-KUMBUR_clean_sbu_0--edge1-XIVTED_clean_linker_0
_symmetry_space_group_name_H-M    P1
_symmetry_Int_Tables_number       1
_symmetry_cell_setting            triclinic
loop_
_symmetry_equiv_pos_as_xyz
'x, y, z'
_cell_length_a     14.407396
_cell_length_b     98.377424
_cell_length_c     30.352745
_cell_angle_alpha  115.00524
_cell_angle_beta   89.850886
_cell_angle_gamma 90.235035
loop_
_atom_site_label
_atom_site_type_symbol
_atom_site_fract_x
_atom_site_fract_y
_atom_site_fract_z
_atom_type_partial_charge
Tb0 Tb 0.12434 0.40387 0.03082 0.0
C1 C 0.93963 0.34505 0.90261 0.0
C2 C 0.79561 0.34545 0.94404 0.0
C3 C 0.80318 0.33252 0.85596 0.0
C4 C 0.8893 0.34981 0.94502 0.0
C5 C 0.8984 0.33584 0.85772 0.0
C6 C 0.7518 0.33731 0.89916 0.0
C7 C 0.05119 0.33157 0.82161 0.0
N8 N 1.03205 0.34794 0.90636 0.0
C9 C 0.08892 0.34056 0.86719 0.0
C10 C 0.95521 0.32946 0.81661 0.0
Tb11 Tb 0.08792 0.36342 0.98219 0.0
N12 N 0.93495 0.35739 0.98755 0.0
C13 C 0.89224 0.35983 0.03062 0.0
C14 C 0.7502 0.34879 0.98814 0.0
C15 C 0.79934 0.35575 0.03156 0.0
H16 H 0.16321 0.34221 0.87073 0.0
H17 H 0.76555 0.35808 0.06589 0.0
H18 H 0.67942 0.33411 0.89762 0.0
H19 H 0.09617 0.32625 0.79041 0.0
H20 H 0.92814 0.36527 0.06476 0.0
H21 H 0.36407 0.4007 0.88791 0.0
H22 H 0.67827 0.34565 0.98901 0.0
H23 H 0.1488 0.42262 0.15281 0.0
H24 H 0.21701 0.39725 0.92046 0.0
H25 H 0.27454 0.43327 0.21138 0.0
H26 H 0.76977 0.32565 0.82174 0.0
H27 H 0.49808 0.41148 0.94213 0.0
H28 H 0.56388 0.42202 0.02598 0.0
H29 H 0.92626 0.32233 0.78142 0.0
H30 H 0.5411 0.42997 0.1136 0.0
N31 N 0.26258 0.40575 -0.00543 0.0
C32 C 0.27269 0.40189 0.94575 0.0
C33 C 0.43252 0.41003 0.95721 0.0
C34 C 0.4223 0.41424 0.00699 0.0
C35 C 0.35718 0.40391 0.92655 0.0
C36 C 0.33528 0.41209 0.02489 0.0
H37 H 0.43432 0.43397 0.18285 0.0
N38 N 0.23722 0.41474 0.09001 0.0
C39 C 0.2898 0.42824 0.17284 0.0
C40 C 0.32286 0.41636 0.074 0.0
C41 C 0.21883 0.42173 0.13909 0.0
C42 C 0.37964 0.42869 0.15662 0.0
C43 C 0.39655 0.42319 0.10678 0.0
O44 O 0.07485 0.42549 0.07526 0.0
O45 O 1.02505 0.38549 0.00558 0.0
O46 O 0.06363 0.36934 0.92156 0.0
O47 O 0.07767 0.39555 0.95467 0.0
O48 O 0.98116 0.40542 0.05826 0.0
O49 O 0.10151 0.41912 -0.00046 0.0
O50 O 0.17703 0.34466 0.96132 0.0
O51 O 0.18855 0.38193 0.01154 0.0
O52 O 0.11098 0.39881 0.0938 0.0
O53 O 0.08327 0.37297 0.06159 0.0
O54 O 0.22738 0.36285 0.95263 0.0
O55 O 0.08459 0.35014 0.02149 0.0
C56 C 0.95437 0.39195 0.03101 0.0
C57 C 0.12441 0.4448 0.05286 0.0
C58 C 0.12959 0.46916 0.04834 0.0
C59 C 0.08802 0.4549 0.03533 0.0
C60 C 0.2095 0.47286 0.0777 0.0
C61 C 0.20283 0.4491 0.08307 0.0
C62 C 0.24551 0.46291 0.09488 0.0
C63 C 0.06262 0.38227 0.91798 0.0
C64 C 0.07892 0.43007 0.04081 0.0
C65 C 0.48372 0.42491 0.08901 0.0
C66 C 0.49651 0.42047 0.0392 0.0
C67 C 0.25618 0.37578 0.98306 0.0
C68 C 0.1166 0.3244 0.97567 0.0
C69 C 0.16689 0.31442 0.98908 0.0
C70 C 0.13764 0.29931 0.97323 0.0
C71 C 0.05917 0.29437 0.943 0.0
C72 C 1.03792 0.31908 0.94625 0.0
C73 C 1.00987 0.30419 0.92975 0.0
C74 C 0.0943 0.38627 0.09829 0.0
C75 C 0.14398 0.3404 0.99339 0.0
H76 H 1.0264 0.45183 0.01277 0.0
H77 H 0.24458 0.4835 0.08741 0.0
H78 H 0.23095 0.44194 0.09824 0.0
H79 H 0.30645 0.46598 0.11788 0.0
H80 H 0.227 0.31847 0.01247 0.0
H81 H 1.03602 0.28282 0.9292 0.0
H82 H 0.99742 0.3264 0.93619 0.0
H83 H 0.94926 0.30027 0.90674 0.0
Tb84 Tb 1.01027 0.65593 0.03086 0.0
C85 C 0.77066 0.60626 0.94632 0.0
C86 C 0.68337 0.60492 0.0128 0.0
C87 C 0.60728 0.59883 0.93567 0.0
C88 C 0.76735 0.60783 0.99388 0.0
C89 C 0.69044 0.60155 0.91665 0.0
C90 C 0.60374 0.60052 0.98362 0.0
C91 C 0.78065 0.60144 0.84991 0.0
N92 N 0.85204 0.60908 0.9288 0.0
C93 C 0.85843 0.60578 0.88008 0.0
C94 C 0.69591 0.59953 0.8684 0.0
Tb95 Tb 0.97649 0.61548 0.98212 0.0
N96 N 0.84518 0.61243 0.0218 0.0
C97 C 0.84333 0.61322 0.06818 0.0
C98 C 0.68123 0.60653 0.06067 0.0
C99 C 0.76173 0.61058 0.08828 0.0
H100 H 0.92343 0.60556 0.86242 0.0
H101 H 0.76154 0.61144 0.12504 0.0
H102 H 0.53895 0.59838 -0.00219 0.0
H103 H 0.78694 0.59914 0.81185 0.0
H104 H 0.90383 0.61537 0.09065 0.0
H105 H 0.32087 0.65943 0.93581 0.0
H106 H 0.61818 0.60445 0.07642 0.0
H107 H 0.94835 0.67697 0.14473 0.0
H108 H 0.15922 0.65261 0.94286 0.0
H109 H 1.02479 0.69277 0.22265 0.0
H110 H 0.54528 0.59535 0.91347 0.0
H111 H 0.41629 0.6723 0.00963 0.0
H112 H 0.42604 0.68428 0.10095 0.0
H113 H 0.63595 0.59598 0.8447 0.0
H114 H 0.34564 0.69298 0.17982 0.0
N115 N 0.16157 0.66129 0.02018 0.0
C116 C 0.19919 0.65821 0.97554 0.0
C117 C 0.34493 0.66936 0.01303 0.0
C118 C 0.30496 0.6731 0.0587 0.0
C119 C 0.29122 0.66212 0.97131 0.0
C120 C 0.21179 0.66899 0.06103 0.0
H121 H 0.19506 0.69646 0.22563 0.0
N122 N 0.07492 0.67096 0.10476 0.0
C123 C 0.06587 0.68737 0.18995 0.0
C124 C 0.16719 0.67377 0.10516 0.0
C125 C 1.02282 0.67845 0.14579 0.0
C126 C 0.16205 0.68936 0.19153 0.0
C127 C 0.21359 0.68293 0.14849 0.0
O128 O 0.91845 0.67439 0.05342 0.0
O129 O 0.90952 0.63733 0.00255 0.0
O130 O 1.02112 0.62025 0.92127 0.0
O131 O 0.99814 0.64613 0.95141 0.0
O132 O 0.87699 0.65592 0.06516 0.0
O133 O 1.01249 0.6701 -0.00539 0.0
O134 O 1.00424 0.59441 0.92513 0.0
O135 O 0.07292 0.63405 0.00247 0.0
O136 O 1.04165 0.64964 0.09015 0.0
O137 O 1.01812 0.62358 0.05844 0.0
O138 O 0.12932 0.61331 0.97871 0.0
O139 O 1.00085 0.59723 -0.00034 0.0
C140 C 0.8461 0.64318 0.03425 0.0
C141 C 0.97524 0.69551 0.04283 0.0
C142 C 0.94726 0.72097 0.04983 0.0
C143 C 0.92334 0.70555 0.03038 0.0
C144 C 1.02359 0.72608 0.08149 0.0
C145 C 0.05171 0.70103 0.07383 0.0
C146 C 0.07533 0.71617 0.09322 0.0
C147 C 1.01371 0.63279 0.91547 0.0
C148 C 0.95112 0.67933 0.02292 0.0
C149 C 0.30829 0.68615 0.14685 0.0
C150 C 0.35395 0.68124 0.10195 0.0
C151 C 0.15057 0.62728 -0.0045 0.0
C152 C 0.9537 0.57353 0.93961 0.0
C153 C 0.98133 0.56275 0.9562 0.0
C154 C 0.93289 0.549 0.9417 0.0
C155 C 0.85528 0.5464 0.91111 0.0
C156 C 0.87681 0.57046 0.90849 0.0
C157 C 0.82768 0.55705 0.89475 0.0
C158 C 1.03846 0.63678 0.09418 0.0
C159 C 1.00706 0.58769 0.95414 0.0
H160 H 0.86464 0.7014 0.00601 0.0
H161 H 1.04486 0.73774 0.09636 0.0
H162 H 0.09412 0.69368 0.08282 0.0
H163 H 0.13471 0.7202 0.1171 0.0
H164 H 1.04167 0.56495 0.97949 0.0
H165 H 0.81524 0.53615 0.90003 0.0
H166 H 0.85486 0.57831 0.89434 0.0
H167 H 0.76811 0.55486 0.87103 0.0
Tb168 Tb 0.13651 0.61538 0.47271 0.0
C169 C 0.96782 0.67256 0.62745 0.0
C170 C 0.82034 0.6761 0.59605 0.0
C171 C 0.84223 0.68515 0.68326 0.0
C172 C 0.91185 0.67054 0.58848 0.0
C173 C 0.9346 0.68016 0.6754 0.0
C174 C 0.78514 0.68312 0.64361 0.0
C175 C 0.08849 0.67845 0.70397 0.0
N176 N 0.05698 0.66779 0.61817 0.0
C177 C 0.11839 0.67108 0.65572 0.0
C178 C 0.99595 0.68288 0.71389 0.0
Tb179 Tb 0.09912 0.65551 0.53779 0.0
N180 N 0.94897 0.66383 0.54324 0.0
C181 C 0.89946 0.66322 0.50403 0.0
C182 C 0.76798 0.67481 0.55574 0.0
C183 C 0.80819 0.6685 0.50958 0.0
H184 H 0.18996 0.66767 0.64872 0.0
H185 H 0.76881 0.66764 0.47819 0.0
H186 H 0.71471 0.68734 0.65016 0.0
H187 H 0.13688 0.68071 0.73348 0.0
H188 H 0.92883 0.65829 0.46802 0.0
H189 H 0.4657 0.60432 0.53596 0.0
H190 H 0.69731 0.6789 0.55994 0.0
H191 H 1.04747 0.60228 0.3615 0.0
H192 H 0.30479 0.61338 0.54455 0.0
H193 H 0.10204 0.58854 0.27708 0.0
H194 H 0.81503 0.69091 0.71982 0.0
H195 H 0.53943 0.59289 0.45477 0.0
H196 H 0.52415 0.58397 0.36425 0.0
H197 H 0.97314 0.68866 0.7513 0.0
H198 H 0.42506 0.5797 0.29357 0.0
N199 N 0.28731 0.60762 0.469 0.0
C200 C 0.33562 0.60843 0.5088 0.0
C201 C 0.4686 0.59688 0.45829 0.0
C202 C 0.4172 0.59532 0.41738 0.0
C203 C 0.42714 0.60329 0.50414 0.0
C204 C 0.32543 0.60077 0.42405 0.0
H205 H 0.26689 0.58112 0.26068 0.0
N206 N 0.18086 0.60312 0.39284 0.0
C207 C 0.15026 0.59134 0.30695 0.0
C208 C 0.27033 0.59847 0.38449 0.0
C209 C 0.11957 0.59913 0.3549 0.0
C210 C 0.24343 0.58721 0.29784 0.0
C211 C 0.30446 0.59053 0.33686 0.0
O212 O 1.04503 0.5969 0.44848 0.0
O213 O 1.03677 0.63338 0.5056 0.0
O214 O 0.05564 0.64478 0.58421 0.0
O215 O 0.14655 0.62324 0.55265 0.0
O216 O 0.9932 0.6152 0.44651 0.0
O217 O 0.14725 0.59958 0.50283 0.0
O218 O 0.18964 0.67414 0.56213 0.0
O219 O 0.1993 0.63751 0.50445 0.0
O220 O 0.1726 0.6259 0.42411 0.0
O221 O 0.08217 0.64744 0.4587 0.0
O222 O 0.24105 0.65537 0.56487 0.0
O223 O 0.09302 0.67051 0.50454 0.0
C224 C 0.96649 0.62799 0.47865 0.0
C225 C 0.10744 0.57459 0.44843 0.0
C226 C 0.10593 0.5489 0.44284 0.0
C227 C 0.08691 0.56441 0.46897 0.0
C228 C 0.14819 0.54393 0.39685 0.0
C229 C 0.14785 0.56908 0.40204 0.0
C230 C 0.16885 0.55394 0.37676 0.0
C231 C 0.09549 0.63322 0.58795 0.0
C232 C 0.0839 0.59077 0.47436 0.0
C233 C 0.39714 0.58569 0.32988 0.0
C234 C 0.45351 0.5881 0.37011 0.0
C235 C 0.26858 0.64274 0.53227 0.0
C236 C 0.13129 0.69577 0.55589 0.0
C237 C 0.17035 0.70579 0.53849 0.0
C238 C 0.14887 0.72129 0.56111 0.0
C239 C 0.08628 0.72641 0.60044 0.0
C240 C 0.07046 0.70138 0.59562 0.0
C241 C 1.0477 0.71653 0.61747 0.0
C242 C 0.12925 0.63742 0.4217 0.0
C243 C 0.15499 0.67958 0.53333 0.0
H244 H 0.05425 0.56847 0.50442 0.0
H245 H 0.16572 0.53222 0.3763 0.0
H246 H 0.16226 0.57637 0.38474 0.0
H247 H 0.20061 0.54992 0.34114 0.0
H248 H 0.21847 0.70158 0.50821 0.0
H249 H 0.0663 0.7381 0.61796 0.0
H250 H 1.0408 0.6941 0.6101 0.0
H251 H 1.00004 0.72066 0.64791 0.0
Tb252 Tb 0.99724 0.36316 0.47553 0.0
C253 C 0.8262 0.42063 0.62554 0.0
C254 C 0.68007 0.42353 0.59146 0.0
C255 C 0.6985 0.43356 0.67916 0.0
C256 C 0.77187 0.41812 0.58553 0.0
C257 C 0.79123 0.42874 0.67289 0.0
C258 C 0.64292 0.43094 0.63848 0.0
C259 C 0.94477 0.42813 0.70386 0.0
N260 N 0.91573 0.41597 0.61787 0.0
C261 C 0.97633 0.42015 0.65616 0.0
C262 C 0.85149 0.43225 0.71232 0.0
Tb263 Tb 0.96134 0.40338 0.53834 0.0
N264 N 0.81075 0.41107 0.54082 0.0
C265 C 0.76324 0.41001 0.50051 0.0
C266 C 0.62945 0.42172 0.55007 0.0
C267 C 0.67171 0.4151 0.50445 0.0
H268 H 0.04849 0.417 0.65002 0.0
H269 H 0.63375 0.41388 0.47225 0.0
H270 H 0.57224 0.43505 0.64379 0.0
H271 H 0.9924 0.43108 0.73404 0.0
H272 H 0.79478 0.40488 0.46495 0.0
H273 H 0.32587 0.35135 0.53764 0.0
H274 H 0.55862 0.42567 0.55302 0.0
H275 H 0.90786 0.35055 0.36411 0.0
H276 H 0.16635 0.36085 0.54673 0.0
H277 H 0.96153 0.33691 0.27972 0.0
H278 H 0.66993 0.43969 0.71525 0.0
H279 H 0.39778 0.33939 0.4561 0.0
H280 H 0.38119 0.33027 0.36557 0.0
H281 H 0.82736 0.43849 0.74929 0.0
H282 H 0.28188 0.32631 0.29522 0.0
N283 N 0.14684 0.35469 0.47108 0.0
C284 C 0.19586 0.35562 0.51081 0.0
C285 C 0.32731 0.34354 0.45983 0.0
C286 C 0.27545 0.34195 0.41905 0.0
C287 C 0.28687 0.35025 0.50586 0.0
C288 C 0.18418 0.34762 0.42601 0.0
H289 H 0.12475 0.32857 0.26282 0.0
N290 N 1.03999 0.35036 0.39541 0.0
C291 C 1.00942 0.33925 0.30948 0.0
C292 C 0.12882 0.34539 0.38666 0.0
C293 C 0.97919 0.34697 0.35755 0.0
C294 C 0.10166 0.3346 0.30007 0.0
C295 C 0.16237 0.33746 0.33891 0.0
O296 O 0.90531 0.34472 0.4521 0.0
O297 O 0.89744 0.38131 0.50777 0.0
O298 O 0.92374 0.39328 0.58789 0.0
O299 O 1.01347 0.37164 0.55475 0.0
O300 O 0.85632 0.36335 0.44746 0.0
O301 O 1.00153 0.34848 0.50997 0.0
O302 O 0.05289 0.42184 0.56225 0.0
O303 O 0.0603 0.38523 0.50683 0.0
O304 O 1.04337 0.37341 0.42827 0.0
O305 O 0.95401 0.39513 0.45815 0.0
O306 O 0.10444 0.40361 0.56498 0.0
O307 O 0.95138 0.41898 0.50739 0.0
C308 C 0.82868 0.37606 0.4796 0.0
C309 C 0.96134 0.32321 0.45986 0.0
C310 C 0.944 0.29808 0.45787 0.0
C311 C 0.92223 0.31357 0.47875 0.0
C312 C 1.00493 0.2925 0.41787 0.0
C313 C 1.02126 0.3172 0.41983 0.0
C314 C 1.04307 0.302 0.39913 0.0
C315 C 0.96641 0.38185 0.59125 0.0
C316 C 0.93904 0.33944 0.4815 0.0
C317 C 0.25444 0.33232 0.33162 0.0
C318 C 0.31095 0.33457 0.37166 0.0
C319 C 0.13076 0.39068 0.53356 0.0
C320 C 0.99103 0.44405 0.56125 0.0
C321 C 1.01223 0.45412 0.54035 0.0
C322 C 0.99338 0.46965 0.56607 0.0
C323 C 0.95052 0.47476 0.61193 0.0
C324 C 0.95012 0.4497 0.60753 0.0
C325 C 0.9292 0.46486 0.63236 0.0
C326 C 1.0054 0.38495 0.42357 0.0
C327 C 1.01452 0.42785 0.53587 0.0
H328 H 0.87577 0.31813 0.50968 0.0
H329 H 1.02184 0.28069 0.40026 0.0
H330 H 0.05068 0.32418 0.40413 0.0
H331 H 0.08922 0.29752 0.36809 0.0
H332 H 1.04531 0.44996 0.50499 0.0
H333 H 0.93312 0.48649 0.63216 0.0
H334 H 0.93529 0.44252 0.62515 0.0
H335 H 0.89705 0.46898 0.66791 0.0
Tb336 Tb 0.65734 0.90315 0.02213 0.0
C337 C 0.48116 0.844 0.88175 0.0
C338 C 0.33177 0.84286 0.91645 0.0
C339 C 0.35394 0.83034 0.82896 0.0
C340 C 0.42436 0.84804 0.92184 0.0
C341 C 0.44767 0.83471 0.83496 0.0
C342 C 0.29599 0.83442 0.86969 0.0
C343 C 0.6041 0.83339 0.80461 0.0
N344 N 0.57178 0.84817 0.88936 0.0
C345 C 0.63416 0.84252 0.85179 0.0
C346 C 0.51023 0.82962 0.79601 0.0
Tb347 Tb 0.61525 0.86301 0.96819 0.0
N348 N 0.46261 0.85581 0.9664 0.0
C349 C 0.41326 0.85774 0.00724 0.0
C350 C 0.27941 0.84569 0.95825 0.0
C351 C 0.32089 0.85294 0.00381 0.0
H352 H 0.70688 0.84534 0.85788 0.0
H353 H 0.2817 0.85489 0.03639 0.0
H354 H 0.22469 0.83052 0.86478 0.0
H355 H 0.6534 0.82925 0.77492 0.0
H356 H 0.44351 0.86332 0.0429 0.0
H357 H 0.92688 0.90039 0.89289 0.0
H358 H 0.20801 0.84194 0.95572 0.0
H359 H 0.647 0.92379 0.14122 0.0
H360 H 0.77353 0.89551 0.91707 0.0
H361 H 0.75502 0.93768 0.20846 0.0
H362 H 0.32647 0.82337 0.79323 0.0
H363 H 1.0465 0.91327 0.95487 0.0
H364 H 0.09119 0.92576 0.0427 0.0
H365 H 0.4873 0.82246 0.7595 0.0
H366 H 1.04601 0.93519 0.1287 0.0
N367 N 0.80166 0.90584 0.99355 0.0
C368 C 0.82272 0.90143 0.94532 0.0
C369 C 0.97808 0.91136 0.96611 0.0
C370 C 0.95616 0.91616 0.01525 0.0
C371 C 0.91073 0.90411 0.93106 0.0
C372 C 0.86599 0.91337 0.02802 0.0
H373 H 0.92104 0.93965 0.19093 0.0
N374 N 0.75252 0.91624 0.0871 0.0
C375 C 0.78076 0.93208 0.17159 0.0
C376 C 0.84106 0.91849 0.07633 0.0
C377 C 0.72007 0.92399 0.13356 0.0
C378 C 0.87425 0.9332 0.16153 0.0
C379 C 0.90489 0.92678 0.11328 0.0
O380 O 0.58461 0.92333 0.0599 0.0
O381 O 0.55517 0.88529 -0.00571 0.0
O382 O 0.57893 0.87039 0.91153 0.0
O383 O 0.62306 0.89566 0.94455 0.0
O384 O 0.51537 0.90458 0.05134 0.0
O385 O 0.66283 0.91958 -0.00487 0.0
O386 O 0.70501 0.84443 0.94939 0.0
O387 O 0.71814 0.88098 -0.00042 0.0
O388 O 0.66985 0.89609 0.08139 0.0
O389 O 0.59863 0.87243 0.04765 0.0
O390 O 0.75719 0.86226 0.94038 0.0
O391 O 0.6041 0.84928 0.0058 0.0
C392 C 0.48625 0.89153 0.02155 0.0
C393 C 0.53721 0.93626 0.01313 0.0
C394 C 0.48994 0.95807 -0.00054 0.0
C395 C 0.55581 0.9506 0.0155 0.0
C396 C 0.40469 0.95085 0.98112 0.0
C397 C 0.45228 0.92924 -0.00563 0.0
C398 C 0.38626 0.93657 0.97864 0.0
C399 C 0.59272 0.88324 0.90813 0.0
C400 C 0.60901 0.92875 0.02911 0.0
C401 C 0.99579 0.92901 0.10081 0.0
C402 C 1.02134 0.92372 0.05186 0.0
C403 C 0.78687 0.87491 0.97206 0.0
C404 C 0.64225 0.8237 0.96009 0.0
C405 C 0.69174 0.81374 0.97391 0.0
C406 C 0.66792 0.79831 0.9542 0.0
C407 C 0.59364 0.79315 0.92117 0.0
C408 C 0.56849 0.8181 0.9273 0.0
C409 C 0.54444 0.80298 0.90796 0.0
C410 C 0.63207 0.88429 0.08501 0.0
C411 C 0.66704 0.83985 0.97969 0.0
H412 H 0.62258 0.95579 0.02903 0.0
H413 H 0.35172 0.9563 0.96912 0.0
H414 H 0.43724 0.91813 0.99178 0.0
H415 H 0.32049 0.93115 0.96441 0.0
H416 H 0.74888 0.81793 -0.00067 0.0
H417 H 0.57234 0.78149 0.90608 0.0
H418 H 0.52887 0.82537 0.91667 0.0
H419 H 0.48701 0.79889 0.88275 0.0
Tb420 Tb 0.49829 0.15569 0.0381 0.0
C421 C 0.26884 0.10043 0.94181 0.0
C422 C 0.16125 0.10382 0.00712 0.0
C423 C 0.11218 0.09017 0.92329 0.0
C424 C 0.24958 0.10612 0.991 0.0
C425 C 0.20094 0.09204 0.90744 0.0
C426 C 0.09241 0.09603 0.97304 0.0
C427 C 0.31662 0.08628 0.84464 0.0
N428 N 0.3553 0.10245 0.92768 0.0
C429 C 0.3816 0.09449 0.88012 0.0
C430 C 0.22525 0.0853 0.85824 0.0
Tb431 Tb 0.4579 0.11557 0.98919 0.0
N432 N 0.31711 0.11393 0.02302 0.0
C433 C 0.30091 0.11921 0.07202 0.0
C434 C 0.14454 0.10941 0.05704 0.0
C435 C 0.21494 0.11703 0.08958 0.0
H436 H 0.45307 0.09459 0.86943 0.0
H437 H 0.20277 0.1214 0.12833 0.0
H438 H 1.02398 0.09433 0.9848 0.0
H439 H 0.33748 0.0805 0.80697 0.0
H440 H 0.35257 0.12535 0.09836 0.0
H441 H 0.83402 0.1623 0.96872 0.0
H442 H 0.07769 0.10789 0.07081 0.0
H443 H 0.40631 0.17647 0.14609 0.0
H444 H 0.67065 0.15464 0.96289 0.0
H445 H 0.46066 0.19285 0.22875 0.0
H446 H 0.05899 0.08391 0.8974 0.0
H447 H 0.9095 0.17484 0.04909 0.0
H448 H 0.89383 0.18642 0.14017 0.0
H449 H 0.17515 0.07878 0.83078 0.0
H450 H 0.79134 0.19472 0.21179 0.0
N451 N 0.65228 0.16224 0.03947 0.0
C452 C 0.70162 0.16009 -0.00157 0.0
C453 C 0.83737 0.17146 0.04685 0.0
C454 C 0.78503 0.1746 0.08886 0.0
C455 C 0.79488 0.16444 0.00147 0.0
C456 C 0.6914 0.16993 0.08383 0.0
H457 H 0.62866 0.19756 0.24507 0.0
N458 N 0.5425 0.17141 0.11603 0.0
C459 C 0.51035 0.18772 0.19963 0.0
C460 C 0.6342 0.17469 0.12382 0.0
C461 C 0.47981 0.17846 0.15265 0.0
C462 C 0.60526 0.19028 0.20876 0.0
C463 C 0.66838 0.18408 0.17032 0.0
O464 O 0.40964 0.17429 0.05416 0.0
O465 O 0.39617 0.13752 0.00813 0.0
O466 O 0.44766 0.12154 0.92764 0.0
O467 O 0.51534 0.14544 0.95871 0.0
O468 O 0.35538 0.15686 0.06483 0.0
O469 O 0.51074 0.16854 -0.00237 0.0
O470 O 0.52533 0.09497 0.94996 0.0
O471 O 0.5599 0.1335 0.01523 0.0
O472 O 0.52132 0.14966 0.09898 0.0
O473 O 0.50233 0.12354 0.06564 0.0
O474 O 0.59883 0.11385 0.95906 0.0
O475 O 0.45471 0.09943 0.01744 0.0
C476 C 0.32682 0.1439 0.03469 0.0
C477 C 0.47628 0.19432 0.04084 0.0
C478 C 0.45565 0.21944 0.04349 0.0
C479 C 0.42671 0.2043 0.02716 0.0
C480 C 0.53319 0.2244 0.07438 0.0
C481 C 0.55387 0.19967 0.0711 0.0
C482 C 0.58174 0.21458 0.08797 0.0
C483 C 0.48408 0.13313 0.92236 0.0
C484 C 0.44884 0.17832 0.02291 0.0
C485 C 0.76333 0.18769 0.17625 0.0
C486 C 0.82166 0.18296 0.13548 0.0
C487 C 0.62824 0.12702 0.98775 0.0
C488 C 0.57724 0.0821 -0.00386 0.0
C489 C 0.55862 0.06775 0.99368 0.0
C490 C 0.62553 0.06009 0.00837 0.0
C491 C 0.71185 0.0671 0.02535 0.0
C492 C 0.66332 0.08892 0.01347 0.0
C493 C 0.73037 0.08139 0.02782 0.0
C494 C 0.52009 0.13669 0.10243 0.0
C495 C 0.50415 0.08987 0.98201 0.0
H496 H 0.36728 0.20023 0.00326 0.0
H497 H 0.55608 0.23597 0.08852 0.0
H498 H 0.59358 0.19235 0.08158 0.0
H499 H 0.64152 0.21853 0.11159 0.0
H500 H 0.49106 0.06272 0.98126 0.0
H501 H 0.76551 0.0615 0.03632 0.0
H502 H 0.6784 0.10003 0.01613 0.0
H503 H 0.79696 0.08665 0.04101 0.0
Tb504 Tb 0.64975 0.11608 0.48513 0.0
C505 C 0.47986 0.17466 0.63255 0.0
C506 C 0.33286 0.17769 0.59961 0.0
C507 C 0.35476 0.18821 0.68714 0.0
C508 C 0.42411 0.17202 0.59299 0.0
C509 C 0.44676 0.18305 0.68014 0.0
C510 C 0.29784 0.18553 0.64691 0.0
C511 C 0.5999 0.18158 0.70991 0.0
N512 N 0.56863 0.16963 0.62408 0.0
C513 C 0.62971 0.17339 0.662 0.0
C514 C 0.50779 0.18631 0.71909 0.0
Tb515 Tb 0.61092 0.1562 0.54413 0.0
N516 N 0.46099 0.16451 0.54799 0.0
C517 C 0.41132 0.1631 0.5079 0.0
C518 C 0.28049 0.17564 0.55855 0.0
C519 C 0.32035 0.16847 0.51252 0.0
H520 H 0.70097 0.16978 0.65571 0.0
H521 H 0.28091 0.16698 0.4805 0.0
H522 H 0.22765 0.18985 0.65273 0.0
H523 H 0.64805 0.18423 0.73975 0.0
H524 H 0.44021 0.1575 0.47196 0.0
H525 H 0.97989 0.10816 0.55525 0.0
H526 H 0.21003 0.17978 0.56202 0.0
H527 H 0.56213 0.1002 0.3738 0.0
H528 H 0.81799 0.11672 0.56091 0.0
H529 H 0.61841 0.0848 0.29055 0.0
H530 H 0.32768 0.19457 0.72343 0.0
H531 H 0.05516 0.09529 0.47486 0.0
H532 H 1.04106 0.08424 0.38377 0.0
H533 H 0.48506 0.1927 0.75623 0.0
H534 H 0.94249 0.07786 0.31152 0.0
N535 N 0.8019 0.10926 0.48442 0.0
C536 C 0.84974 0.11112 0.52551 0.0
C537 C 0.98396 0.09903 0.47709 0.0
C538 C 0.93283 0.09629 0.43503 0.0
C539 C 0.94167 0.10626 0.52251 0.0
C540 C 0.84047 0.10144 0.44 0.0
H541 H 0.78421 0.07777 0.27643 0.0
N542 N 0.69539 0.10228 0.40634 0.0
C543 C 0.66623 0.08846 0.32084 0.0
C544 C 0.78529 0.09782 0.39951 0.0
C545 C 0.63458 0.09717 0.36806 0.0
C546 C 0.75992 0.08456 0.313 0.0
C547 C 0.82047 0.08901 0.35268 0.0
O548 O 0.56709 0.09655 0.46088 0.0
O549 O 0.54961 0.13402 0.51472 0.0
O550 O 0.56456 0.14662 0.59343 0.0
O551 O 0.65297 0.12482 0.56562 0.0
O552 O 0.50468 0.11489 0.45973 0.0
O553 O 0.66699 0.1013 0.51821 0.0
O554 O 0.70329 0.17455 0.56529 0.0
O555 O 0.71259 0.13823 0.51256 0.0
O556 O 0.68079 0.12513 0.43183 0.0
O557 O 0.5926 0.14698 0.4648 0.0
O558 O 0.75141 0.1564 0.57296 0.0
O559 O 0.60484 0.17047 0.5082 0.0
C560 C 0.4784 0.12806 0.48934 0.0
C561 C 0.54051 0.0858 0.51658 0.0
C562 C 0.49498 0.06469 0.53488 0.0
C563 C 0.5543 0.07105 0.51154 0.0
C564 C 0.4217 0.07346 0.56351 0.0
C565 C 0.46754 0.09435 0.54552 0.0
C566 C 0.40843 0.08816 0.56881 0.0
C567 C 0.60078 0.13515 0.59929 0.0
C568 C 0.60377 0.09201 0.49152 0.0
C569 C 0.91382 0.08451 0.34723 0.0
C570 C 0.96994 0.08815 0.38837 0.0
C571 C 0.78062 0.14377 0.54106 0.0
C572 C 0.64671 0.19581 0.55629 0.0
C573 C 0.68612 0.20523 0.53661 0.0
C574 C 0.66503 0.22075 0.55683 0.0
C575 C 0.60463 0.22657 0.59702 0.0
C576 C 0.58732 0.20208 0.59646 0.0
C577 C 0.56627 0.2173 0.61654 0.0
C578 C 0.63713 0.13641 0.42797 0.0
C579 C 0.66834 0.17957 0.5355 0.0
H580 H 0.61062 0.06447 0.48888 0.0
H581 H 0.37538 0.06904 0.58248 0.0
H582 H 0.45642 0.10575 0.55003 0.0
H583 H 0.35217 0.0948 0.5912 0.0
H584 H 0.73227 0.20049 0.50558 0.0
H585 H 0.5883 0.23842 0.61414 0.0
H586 H 0.55776 0.19528 0.61278 0.0
H587 H 0.52054 0.22197 0.64771 0.0
Tb588 Tb 0.46912 0.86348 0.46944 0.0
C589 C 0.24664 0.91906 0.57749 0.0
C590 C 0.13124 0.91668 0.51672 0.0
C591 C 0.09227 0.92955 0.60239 0.0
C592 C 0.22137 0.91392 0.52924 0.0
C593 C 0.18318 0.92737 0.61461 0.0
C594 C 0.06637 0.92423 0.55352 0.0
C595 C 0.30777 0.93278 0.67254 0.0
N596 N 0.3352 0.91686 0.58801 0.0
C597 C 0.36808 0.92467 0.63435 0.0
C598 C 0.21423 0.93384 0.66276 0.0
Tb599 Tb 0.42963 0.90372 0.52274 0.0
N600 N 0.28538 0.90641 0.49458 0.0
C601 C 0.26414 0.90202 0.44642 0.0
C602 C 0.10905 0.91188 0.46764 0.0
C603 C 0.17615 0.90468 0.43241 0.0
H604 H 0.44119 0.9245 0.6418 0.0
H605 H 0.15983 0.90097 0.39428 0.0
H606 H 0.99655 0.92625 0.54455 0.0
H607 H 0.33381 0.93842 0.70931 0.0
H608 H 0.31322 0.89616 0.41805 0.0
H609 H 0.80064 0.85521 0.53815 0.0
H610 H 1.04064 0.91377 0.4566 0.0
H611 H 0.37777 0.84596 0.359 0.0
H612 H 0.63986 0.86387 0.54449 0.0
H613 H 0.43098 0.8297 0.27619 0.0
H614 H 1.04233 0.93573 0.63041 0.0
H615 H 0.87386 0.84181 0.45751 0.0
H616 H 0.85732 0.83014 0.36659 0.0
H617 H 0.16773 0.9403 0.69227 0.0
H618 H 0.75623 0.82307 0.29495 0.0
N619 N 0.62077 0.85603 0.46787 0.0
C620 C 0.66984 0.85809 0.50882 0.0
C621 C 0.80286 0.84566 0.45996 0.0
C622 C 0.75079 0.84273 0.41811 0.0
C623 C 0.76165 0.85316 0.5055 0.0
C624 C 0.65875 0.84805 0.42337 0.0
H625 H 0.59632 0.82251 0.26101 0.0
N626 N 0.51236 0.84851 0.39069 0.0
C627 C 0.48008 0.83374 0.30593 0.0
C628 C 0.60245 0.8441 0.38322 0.0
C629 C 0.45016 0.84298 0.35304 0.0
C630 C 0.57352 0.82974 0.29748 0.0
C631 C 0.63575 0.83471 0.33649 0.0
O632 O 0.37628 0.84522 0.45151 0.0
O633 O 0.36721 0.88158 0.50069 0.0
O634 O 0.4173 0.89683 0.58248 0.0
O635 O 0.48607 0.87305 0.54879 0.0
O636 O 0.32816 0.86285 0.4412 0.0
O637 O 0.47838 0.8497 0.50696 0.0
O638 O 0.50282 0.92399 0.56001 0.0
O639 O 0.53016 0.88575 0.49541 0.0
O640 O 0.50814 0.87074 0.41276 0.0
O641 O 0.46346 0.89595 0.44489 0.0
O642 O 0.57226 0.90522 0.55101 0.0
O643 O 0.42497 0.92003 0.49521 0.0
C644 C 0.29879 0.87551 0.47286 0.0
C645 C 0.43464 0.82426 0.46198 0.0
C646 C 0.40579 0.79912 0.4582 0.0
C647 C 0.38587 0.81468 0.47813 0.0
C648 C 0.47568 0.79345 0.42266 0.0
C649 C 0.50383 0.81813 0.42664 0.0
C650 C 0.52417 0.8029 0.40715 0.0
C651 C 0.45376 0.88499 0.58614 0.0
C652 C 0.41343 0.84053 0.48159 0.0
C653 C 0.72891 0.83013 0.33062 0.0
C654 C 0.78644 0.83416 0.3714 0.0
C655 C 0.6 0.89202 0.52186 0.0
C656 C 0.55035 0.93692 0.51298 0.0
C657 C 0.5359 0.9518 0.51936 0.0
C658 C 0.60197 0.95925 0.50291 0.0
C659 C 0.68295 0.95144 0.48003 0.0
C660 C 0.63125 0.92939 0.48996 0.0
C661 C 0.69728 0.93667 0.47373 0.0
C662 C 0.49431 0.8835 0.40884 0.0
C663 C 0.47843 0.92935 0.52913 0.0
H664 H 0.33217 0.81927 0.50548 0.0
H665 H 0.49418 0.78169 0.4073 0.0
H666 H 0.54258 0.82509 0.41402 0.0
H667 H 0.57813 0.7984 0.37995 0.0
H668 H 0.47329 0.95756 0.53744 0.0
H669 H 0.73471 0.95662 0.46612 0.0
H670 H 0.64297 0.91789 0.4843 0.0
H671 H 0.75959 0.93079 0.45581 0.0
H672 H 0.35427 0.38614 0.07011 0.0
H673 H 0.85789 0.37969 0.94353 0.0
H674 H 0.3929 0.37044 0.91578 0.0
H675 H 0.81796 0.39738 0.09833 0.0
H676 H 0.68885 0.37579 0.93228 0.0
H677 H 0.52361 0.38966 0.08124 0.0
C678 C 0.39821 0.38363 0.03863 0.0
C679 C 0.35858 0.37862 0.99211 0.0
C680 C 0.71694 0.38041 0.96876 0.0
C681 C 0.55383 0.38213 0.00427 0.0
C682 C 0.81379 0.3825 0.97511 0.0
C683 C 0.85291 0.38829 0.02188 0.0
C684 C 0.65795 0.38428 0.00949 0.0
C685 C 0.79131 0.39246 0.06154 0.0
C686 C 0.49517 0.38553 0.0449 0.0
C687 C 0.4199 0.37479 0.95246 0.0
N688 N 0.69776 0.39026 0.0545 0.0
N689 N 0.51361 0.37675 0.95941 0.0
H690 H 0.24704 0.64054 0.08192 0.0
H691 H 0.74166 0.63748 0.95189 0.0
H692 H 0.28113 0.62357 0.92699 0.0
H693 H 0.71548 0.6454 0.10207 0.0
H694 H 0.5717 0.63494 0.94354 0.0
H695 H 0.416 0.64484 0.09179 0.0
C696 C 0.28975 0.63813 0.05009 0.0
C697 C 0.24909 0.63251 0.00372 0.0
C698 C 0.60299 0.63715 0.97831 0.0
C699 C 0.44367 0.63675 0.01441 0.0
C700 C 0.7002 0.63849 0.98294 0.0
C701 C 0.74334 0.64096 0.02715 0.0
C702 C 0.54769 0.63864 0.0185 0.0
C703 C 0.68545 0.64297 0.06686 0.0
C704 C 0.38649 0.64039 0.05563 0.0
C705 C 0.30895 0.62859 0.96354 0.0
N706 N 0.5912 0.64165 0.06155 0.0
N707 N 0.40244 0.63094 0.96977 0.0
H708 H 0.87067 0.63848 0.56657 0.0
H709 H 0.36435 0.63267 0.44425 0.0
H710 H 0.82949 0.62434 0.41307 0.0
H711 H 0.40646 0.6469 0.59773 0.0
H712 H 0.5335 0.62952 0.43179 0.0
H713 H 0.70185 0.64191 0.57894 0.0
C714 C 0.82644 0.63636 0.53557 0.0
C715 C 0.86518 0.63159 0.48885 0.0
C716 C 0.50587 0.63325 0.46822 0.0
C717 C 0.67003 0.63496 0.50244 0.0
C718 C 0.40892 0.63491 0.47523 0.0
C719 C 0.37038 0.6396 0.52196 0.0
C720 C 0.56562 0.63652 0.50828 0.0
C721 C 0.43261 0.64294 0.56094 0.0
C722 C 0.72958 0.63816 0.54253 0.0
C723 C 0.80319 0.62837 0.44985 0.0
N724 N 0.52626 0.64127 0.55326 0.0
N725 N 0.70954 0.63016 0.45747 0.0
H726 H 0.73319 0.38645 0.56775 0.0
H727 H 0.22602 0.37952 0.44537 0.0
H728 H 0.69028 0.37139 0.41397 0.0
H729 H 0.26821 0.39478 0.59928 0.0
H730 H 0.39473 0.37605 0.43287 0.0
H731 H 0.56405 0.3895 0.58029 0.0
C732 C 0.68844 0.38401 0.5367 0.0
C733 C 0.72676 0.37911 0.48985 0.0
C734 C 0.36724 0.38004 0.46941 0.0
C735 C 0.5315 0.38207 0.50365 0.0
C736 C 0.27041 0.38186 0.47646 0.0
C737 C 0.23198 0.38698 0.52335 0.0
C738 C 0.42709 0.38358 0.50957 0.0
C739 C 0.29425 0.39049 0.56239 0.0
C740 C 0.59149 0.38561 0.54377 0.0
C741 C 0.66431 0.37551 0.45083 0.0
N742 N 0.38787 0.38868 0.55468 0.0
N743 N 0.57065 0.37712 0.45856 0.0
H744 H 0.88308 0.88703 0.0603 0.0
H745 H 0.38869 0.87949 0.93432 0.0
H746 H 0.92633 0.86799 0.90554 0.0
H747 H 0.34932 0.89715 0.08916 0.0
H748 H 0.21991 0.87547 0.92318 0.0
H749 H 0.05234 0.89086 0.07218 0.0
C750 C 0.92794 0.8838 0.02884 0.0
C751 C 0.88953 0.87773 0.98183 0.0
C752 C 0.24799 0.88013 0.95966 0.0
C753 C 0.08477 0.88168 -0.00499 0.0
C754 C 0.34481 0.88232 0.96596 0.0
C755 C 0.38417 0.88817 0.01271 0.0
C756 C 0.189 0.88398 0.0004 0.0
C757 C 0.32259 0.89225 0.0524 0.0
C758 C 1.0249 0.8859 0.03557 0.0
C759 C 0.95217 0.8731 0.94247 0.0
N760 N 0.22895 0.89 0.0454 0.0
N761 N 1.04566 0.8753 0.94987 0.0
H762 H 0.23058 0.13064 0.94681 0.0
H763 H 0.72653 0.13888 0.07465 0.0
H764 H 0.1884 0.15114 0.1017 0.0
H765 H 0.76424 0.12098 0.91965 0.0
H766 H 0.89568 0.14264 0.0852 0.0
H767 H 0.06146 0.12647 0.93554 0.0
C768 C 0.18598 0.1341 0.97843 0.0
C769 C 0.22458 0.1407 0.02535 0.0
C770 C 0.86713 0.13797 0.04881 0.0
C771 C 1.02967 0.13638 0.01284 0.0
C772 C 0.77021 0.13594 0.04287 0.0
C773 C 0.7304 0.13015 -0.00375 0.0
C774 C 0.92559 0.13404 0.00785 0.0
C775 C 0.79146 0.12587 0.95632 0.0
C776 C 0.08914 0.13181 0.97205 0.0
C777 C 0.16233 0.14561 0.06488 0.0
N778 N 0.88518 0.12801 0.96298 0.0
N779 N 0.06894 0.14323 0.05783 0.0
H780 H 0.38258 0.14024 0.57718 0.0
H781 H 0.87686 0.13282 0.45288 0.0
H782 H 0.34201 0.12351 0.42269 0.0
H783 H 0.91923 0.14977 0.60734 0.0
H784 H 1.04615 0.12963 0.44077 0.0
H785 H 0.21414 0.14426 0.5891 0.0
C786 C 0.33863 0.1377 0.54581 0.0
C787 C 0.37746 0.13203 0.49892 0.0
C788 C 1.01854 0.13401 0.47736 0.0
C789 C 0.18258 0.13607 0.51208 0.0
C790 C 0.92155 0.13572 0.4842 0.0
C791 C 0.88303 0.14115 0.53115 0.0
C792 C 0.07829 0.13792 0.51775 0.0
C793 C 0.94535 0.14526 0.57043 0.0
C794 C 0.24193 0.13983 0.55254 0.0
C795 C 0.31566 0.12825 0.45956 0.0
N796 N 1.03898 0.14348 0.5629 0.0
N797 N 0.22214 0.13039 0.46696 0.0
H798 H 0.69738 0.87938 0.43457 0.0
H799 H 0.20203 0.88757 0.56102 0.0
H800 H 0.73626 0.89771 0.58952 0.0
H801 H 0.1599 0.86842 0.40621 0.0
H802 H 1.03273 0.89122 0.57272 0.0
H803 H 0.86601 0.87528 0.42351 0.0
C804 C 0.74108 0.88231 0.46625 0.0
C805 C 0.70164 0.8884 0.51303 0.0
C806 C 0.06043 0.88627 0.53614 0.0
C807 C 0.89665 0.88416 0.5008 0.0
C808 C 0.15741 0.88428 0.52951 0.0
C809 C 0.19613 0.87824 0.48254 0.0
C810 C 1.00086 0.88195 0.49551 0.0
C811 C 0.13379 0.87352 0.44311 0.0
C812 C 0.83783 0.8801 0.46 0.0
C813 C 0.76304 0.89263 0.55275 0.0
N814 N 1.04026 0.87561 0.45041 0.0
N815 N 0.85661 0.89035 0.54579 0.0
H816 H 0.9949 0.55279 0.03196 0.0
H817 H 0.06189 0.46472 0.9582 0.0
H818 H 0.93809 0.51841 0.88846 0.0
H819 H 0.10987 0.4994 0.10222 0.0
H820 H 1.0124 0.48402 0.93206 0.0
H821 H 1.03774 0.53329 0.05804 0.0
C822 C 0.992 0.54116 0.00581 0.0
C823 C 0.96246 0.5373 0.95794 0.0
C824 C 1.03354 0.48739 0.96942 0.0
C825 C 1.01053 0.51479 0.98777 0.0
C826 C 0.06113 0.47635 0.98444 0.0
C827 C 0.09104 0.48042 0.03237 0.0
C828 C 1.03559 0.50262 0.0026 0.0
C829 C 0.08918 0.49572 0.06466 0.0
C830 C 1.01582 0.53 0.02083 0.0
C831 C 0.95904 0.52196 0.92592 0.0
N832 N 0.0625 0.50621 0.04918 0.0
N833 N 0.98272 0.51131 0.94137 0.0
H834 H 0.07392 0.49725 0.61459 0.0
H835 H 1.0267 0.52119 0.39396 0.0
H836 H 0.96773 0.46775 0.47347 0.0
H837 H 0.13207 0.55071 0.53527 0.0
H838 H 1.00365 0.50165 0.42253 0.0
H839 H 0.09759 0.51673 0.58585 0.0
C840 C 0.05572 0.49484 0.57741 0.0
C841 C 1.01784 0.48083 0.54654 0.0
C842 C 1.03161 0.51239 0.44741 0.0
C843 C 1.04504 0.50325 0.51325 0.0
C844 C 1.04491 0.52359 0.43113 0.0
C845 C 0.0823 0.53763 0.46212 0.0
C846 C 0.05576 0.51515 0.49521 0.0
C847 C 0.10276 0.54012 0.51015 0.0
C848 C 0.06935 0.50601 0.56103 0.0
C849 C 0.99738 0.47832 0.4985 0.0
N850 N 0.08977 0.52897 0.5251 0.0
N851 N 1.01066 0.48944 0.48345 0.0
H852 H 0.58178 0.98174 0.07082 0.0
H853 H 0.53081 0.03662 0.93789 0.0
H854 H 0.44488 0.96912 0.93268 0.0
H855 H 0.67327 0.04889 0.07438 0.0
H856 H 0.49696 0.012 0.93591 0.0
H857 H 0.61558 1.00637 0.07284 0.0
C858 C 0.55918 0.98408 0.04074 0.0
C859 C 0.51035 0.97324 0.00147 0.0
C860 C 0.5357 0.02007 0.96629 0.0
C861 C 0.54811 1.00162 0.00388 0.0
C862 C 0.55464 0.03419 0.96761 0.0
C863 C 0.60505 0.04493 0.00639 0.0
C864 C 0.56712 0.01657 0.00407 0.0
C865 C 0.63529 0.04096 0.0434 0.0
C866 C 0.5781 0.99821 0.04208 0.0
C867 C 0.48157 0.97712 0.96404 0.0
N868 N 0.61578 0.02715 0.04134 0.0
N869 N 0.50092 0.99094 0.96616 0.0
H870 H 0.3636 0.04298 0.52254 0.0
H871 H 0.7303 0.98203 0.52446 0.0
H872 H 0.65943 0.05057 0.53544 0.0
H873 H 0.43835 0.97262 0.49513 0.0
H874 H 0.70476 1.00739 0.53147 0.0
H875 H 0.38861 0.01757 0.51571 0.0
C876 C 0.43386 0.03935 0.52415 0.0
C877 C 0.50948 0.04902 0.52967 0.0
C878 C 0.64622 0.99979 0.5235 0.0
C879 C 0.53872 0.01977 0.52162 0.0
C880 C 0.6608 0.98523 0.51923 0.0
C881 C 0.58652 0.97501 0.50894 0.0
C882 C 0.55654 1.00433 0.51764 0.0
C883 C 0.49774 0.98006 0.50366 0.0
C884 C 0.44811 0.02478 0.51999 0.0
C885 C 0.59901 0.04352 0.53073 0.0
N886 N 0.48535 0.9943 0.508 0.0
N887 N 0.61103 0.02933 0.52692 0.0
H888 H 0.32609 0.29506 0.97705 0.0
H889 H 0.26737 0.22354 0.03859 0.0
H890 H 0.06165 0.2786 0.00115 0.0
H891 H 0.53225 0.24034 0.01658 0.0
H892 H 0.19035 0.24327 0.02303 0.0
H893 H 0.40337 0.27533 0.99255 0.0
C894 C 0.28434 0.28742 0.98611 0.0
C895 C 0.18714 0.28844 0.98735 0.0
C896 C 0.26536 0.24262 0.0215 0.0
C897 C 0.27495 0.26565 0.00444 0.0
C898 C 0.30928 0.23126 0.02996 0.0
C899 C 0.4065 0.23032 0.02931 0.0
C900 C 0.31894 0.25312 0.01214 0.0
C901 C 0.4572 0.24077 0.01833 0.0
C902 C 0.32839 0.27606 -0.00545 0.0
C903 C 0.13665 0.2781 -0.0011 0.0
N904 N 0.41301 0.25171 0.01039 0.0
N905 N 0.18095 0.26715 0.00677 0.0
H906 H 0.72647 0.77005 0.89417 0.0
H907 H 0.89028 0.74931 0.11034 0.0
H908 H 0.7206 0.80144 0.04525 0.0
H909 H 0.89062 0.71778 0.9594 0.0
H910 H 0.82677 0.76841 0.08746 0.0
H911 H 0.78892 0.75098 0.91735 0.0
C912 C 0.73874 0.77296 0.93231 0.0
C913 C 0.71747 0.78737 0.96787 0.0
C914 C 0.84024 0.75731 0.05929 0.0
C915 C 0.78909 0.76545 -0.00523 0.0
C916 C 0.87642 0.74637 0.07232 0.0
C917 C 0.89644 0.73191 0.03668 0.0
C918 C 0.8239 0.75385 0.01013 0.0
C919 C 0.87578 0.72872 0.98812 0.0
C920 C 0.77436 0.76203 0.94551 0.0
C921 C 0.73635 0.79053 0.0166 0.0
N922 N 0.84131 0.73962 0.97625 0.0
N923 N 0.77049 0.77964 0.02863 0.0
H924 H 0.17921 0.71823 0.46746 0.0
H925 H 0.36269 0.80293 0.55128 0.0
H926 H 0.21245 0.74975 0.61735 0.0
H927 H 0.3389 0.77098 0.40142 0.0
H928 H 0.30036 0.78399 0.57622 0.0
H929 H 0.2358 0.73744 0.44237 0.0
C930 C 0.19914 0.72912 0.4951 0.0
C931 C 0.19022 0.73235 0.54463 0.0
C932 C 0.30839 0.78115 0.53784 0.0
C933 C 0.25392 0.75455 0.51617 0.0
C934 C 0.34315 0.79202 0.52361 0.0
C935 C 0.35683 0.78854 0.4742 0.0
C936 C 0.28673 0.76667 0.50243 0.0
C937 C 0.331 0.77412 0.43997 0.0
C938 C 0.23072 0.74015 0.48077 0.0
C939 C 0.21639 0.74678 0.57875 0.0
N940 N 0.29776 0.76374 0.45468 0.0
N941 N 0.24665 0.7573 0.56394 0.0
H942 H 0.76396 0.29671 0.48685 0.0
H943 H 0.84512 0.22193 0.52747 0.0
H944 H 1.02957 0.27496 0.46984 0.0
H945 H 0.57941 0.24358 0.54335 0.0
H946 H 0.91357 0.24092 0.50463 0.0
H947 H 0.69564 0.2776 0.50903 0.0
C948 C 0.80819 0.28804 0.4883 0.0
C949 C 0.90265 0.28745 0.47611 0.0
C950 C 0.84019 0.24149 0.51299 0.0
C951 C 0.82448 0.26531 0.50077 0.0
C952 C 0.8009 0.23055 0.5256 0.0
C953 C 0.70639 0.23117 0.53775 0.0
C954 C 0.78467 0.25315 0.51237 0.0
C955 C 0.65288 0.24275 0.53513 0.0
C956 C 0.76896 0.27703 0.50054 0.0
C957 C 0.95614 0.27577 0.47814 0.0
N958 N 0.69269 0.25327 0.52298 0.0
N959 N 0.91639 0.26519 0.49001 0.0
H960 H 1.02907 0.40971 0.1799 0.0
H961 H 0.12992 0.36928 0.35278 0.0
H962 H 0.13423 0.3646 0.12867 0.0
H963 H 0.92251 0.40394 0.38961 0.0
H964 H 0.15224 0.3701 0.27475 0.0
H965 H 1.00899 0.41036 0.26117 0.0
C966 C 0.04889 0.40003 0.18591 0.0
C967 C 0.08403 0.38712 0.14771 0.0
C968 C 0.1016 0.3775 0.29978 0.0
C969 C 0.06112 0.38779 0.24001 0.0
C970 C 0.08828 0.377 0.34439 0.0
C971 C 1.02228 0.38626 0.37744 0.0
C972 C 0.05001 0.38758 0.28816 0.0
C973 C 0.97334 0.39646 0.36501 0.0
C974 C 1.03662 0.40036 0.23206 0.0
C975 C 0.10679 0.37476 0.1571 0.0
N976 N 0.98812 0.39685 0.32118 0.0
N977 N 0.09547 0.37544 0.20237 0.0
H978 H 0.13461 0.61611 0.11415 0.0
H979 H 1.0216 0.65605 0.39747 0.0
H980 H 0.98801 0.65799 0.18281 0.0
H981 H 0.23043 0.62165 0.33854 0.0
H982 H 1.00601 0.65633 0.31821 0.0
H983 H 0.16588 0.61693 0.19482 0.0
C984 C 0.10968 0.62552 0.14626 0.0
C985 C 0.06012 0.63716 0.14207 0.0
C986 C 0.05534 0.64871 0.32252 0.0
C987 C 0.09468 0.63811 0.23388 0.0
C988 C 0.06436 0.64853 0.36792 0.0
C989 C 0.1257 0.6385 0.37453 0.0
C990 C 0.10766 0.63875 0.28313 0.0
C991 C 0.18003 0.6292 0.33476 0.0
C992 C 0.12788 0.62602 0.19216 0.0
C993 C 1.02896 0.64906 0.18456 0.0
N994 N 0.16902 0.62942 0.29055 0.0
N995 N 1.04628 0.6492 0.22864 0.0
H996 H 0.9528 0.65313 0.88321 0.0
H997 H 0.18836 0.61489 0.6212 0.0
H998 H 0.09846 0.61103 0.83545 0.0
H999 H 0.96964 0.64779 0.65933 0.0
H1000 H 0.16733 0.61391 0.70027 0.0
H1001 H 0.97151 0.65236 0.80251 0.0
C1002 C 0.98882 0.6437 0.85571 0.0
C1003 C 1.02394 0.63211 0.86609 0.0
C1004 C 0.12409 0.62131 0.69107 0.0
C1005 C 1.04588 0.63117 0.77327 0.0
C1006 C 0.136 0.62188 0.64604 0.0
C1007 C 0.08198 0.63167 0.63397 0.0
C1008 C 0.05817 0.63066 0.7241 0.0
C1009 C 1.0147 0.64038 0.66741 0.0
C1010 C 0.99911 0.64323 0.8095 0.0
C1011 C 0.06975 0.62015 0.82885 0.0
N1012 N 1.00532 0.63976 0.71094 0.0
N1013 N 0.0799 0.62002 0.78403 0.0
H1014 H 0.86346 0.39793 0.67344 0.0
H1015 H 0.11727 0.36117 0.83027 0.0
H1016 H 0.07404 0.36372 0.61757 0.0
H1017 H 0.96501 0.40258 0.89647 0.0
H1018 H 0.08364 0.36012 0.75039 0.0
H1019 H 0.88233 0.3981 0.75391 0.0
C1020 C 0.91402 0.39053 0.67807 0.0
C1021 C 0.96926 0.38113 0.63893 0.0
C1022 C 0.05694 0.36941 0.78226 0.0
C1023 C 0.98894 0.38093 0.73031 0.0
C1024 C 0.07515 0.3699 0.82787 0.0
C1025 C 1.04226 0.3818 0.86985 0.0
C1026 C 1.00548 0.38095 0.77847 0.0
C1027 C 0.99145 0.39319 0.8648 0.0
C1028 C 0.92432 0.39059 0.72393 0.0
C1029 C 1.03083 0.37133 0.64663 0.0
N1030 N 0.97425 0.39247 0.81979 0.0
N1031 N 1.03918 0.37153 0.69139 0.0
H1032 H 0.64253 0.86058 0.10905 0.0
H1033 H 0.46677 0.90667 0.3822 0.0
H1034 H 0.59178 0.90816 0.17151 0.0
H1035 H 0.58262 0.86221 0.32951 0.0
H1036 H 0.50644 0.90728 0.30464 0.0
H1037 H 0.61388 0.86062 0.18864 0.0
C1038 C 0.62635 0.87108 0.13964 0.0
C1039 C 0.62131 0.88446 0.13378 0.0
C1040 C 0.52301 0.89738 0.3101 0.0
C1041 C 0.587 0.88457 0.2249 0.0
C1042 C 0.50023 0.897 0.3544 0.0
C1043 C 0.51964 0.88421 0.36231 0.0
C1044 C 0.56508 0.88486 0.2732 0.0
C1045 C 0.56392 0.87212 0.32487 0.0
C1046 C 0.61014 0.8711 0.18509 0.0
C1047 C 0.59942 0.89771 0.17459 0.0
N1048 N 0.58452 0.87269 0.28196 0.0
N1049 N 0.58247 0.89742 0.21832 0.0
H1050 H 0.47699 0.1582 0.19196 0.0
H1051 H 0.72675 0.11867 0.34215 0.0
H1052 H 0.61106 0.11526 0.12141 0.0
H1053 H 0.53405 0.15546 0.40354 0.0
H1054 H 0.70154 0.11843 0.26187 0.0
H1055 H 0.51471 0.15871 0.27073 0.0
C1056 C 0.51589 0.149 0.19309 0.0
C1057 C 0.54236 0.13684 0.15014 0.0
C1058 C 0.6647 0.1265 0.29303 0.0
C1059 C 0.58407 0.13708 0.24049 0.0
C1060 C 0.67854 0.12658 0.33882 0.0
C1061 C 0.63024 0.13677 0.37964 0.0
C1062 C 0.60359 0.13689 0.28827 0.0
C1063 C 0.5718 0.14721 0.37331 0.0
C1064 C 0.53649 0.14919 0.23813 0.0
C1065 C 0.58939 0.12487 0.15378 0.0
N1066 N 0.56005 0.14696 0.32865 0.0
N1067 N 0.60911 0.1253 0.19826 0.0
H1068 H 0.5383 0.10905 0.83939 0.0
H1069 H 0.4806 0.15221 0.67073 0.0
H1070 H 0.4584 0.15548 0.89347 0.0
H1071 H 0.66789 0.11478 0.63219 0.0
H1072 H 0.44984 0.15115 0.74778 0.0
H1073 H 0.56391 0.10857 0.75864 0.0
C1074 C 0.52436 0.11904 0.83401 0.0
C1075 C 0.49475 0.13226 0.87286 0.0
C1076 C 0.49804 0.1432 0.72263 0.0
C1077 C 0.52497 0.13185 0.7812 0.0
C1078 C 0.51636 0.14386 0.67857 0.0
C1079 C 0.57946 0.13389 0.6453 0.0
C1080 C 0.54132 0.13227 0.73351 0.0
C1081 C 0.62 0.12286 0.65702 0.0
C1082 C 0.54019 0.11881 0.78818 0.0
C1083 C 0.48092 0.14505 0.86441 0.0
N1084 N 0.60027 0.12234 0.70027 0.0
N1085 N 0.49558 0.1445 0.81947 0.0
H1086 H 0.44274 0.8612 0.60965 0.0
H1087 H 0.6194 0.90674 0.88277 0.0
H1088 H 0.49322 0.90886 0.67311 0.0
H1089 H 0.50549 0.862 0.8282 0.0
H1090 H 0.57903 0.90767 0.80583 0.0
H1091 H 0.4718 0.86105 0.68877 0.0
C1092 C 0.45898 0.87168 0.64037 0.0
C1093 C 0.46405 0.88512 0.63487 0.0
C1094 C 0.56303 0.89764 0.81076 0.0
C1095 C 0.4988 0.88502 0.72556 0.0
C1096 C 0.58623 0.89707 0.85469 0.0
C1097 C 0.56749 0.88412 0.8619 0.0
C1098 C 0.5212 0.88513 0.77354 0.0
C1099 C 0.52359 0.87204 0.82413 0.0
C1100 C 0.47545 0.87159 0.68557 0.0
C1101 C 0.48587 0.89834 0.67589 0.0
N1102 N 0.50254 0.8728 0.78162 0.0
N1103 N 0.50309 0.89795 0.71942 0.0
loop_
_geom_bond_atom_site_label_1
_geom_bond_atom_site_label_2
_geom_bond_distance
_geom_bond_site_symmetry_2
_ccdc_geom_bond_type
Tb0 N31 2.660 . S
Tb0 N38 2.600 . S
Tb0 O44 2.546 . S
Tb0 O45 2.609 1_454 S
Tb0 O47 2.320 1_554 S
Tb0 O48 2.552 1_455 S
Tb0 O49 2.413 . S
Tb0 O51 2.362 . S
Tb0 O52 2.421 . S
Tb0 C64 2.833 . S
C1 C4 1.432 . S
C1 C5 1.414 . S
C1 N8 1.359 . S
C2 C4 1.417 . S
C2 C6 1.432 . S
C2 C14 1.410 1_556 S
C3 C5 1.444 . S
C3 C6 1.317 . S
C3 H26 0.929 . S
C4 C1 1.432 . S
C4 C2 1.417 . S
C4 N12 1.360 1_556 S
C5 C1 1.414 . S
C5 C3 1.444 . S
C5 C10 1.385 . S
C6 C2 1.432 . S
C6 C3 1.317 . S
C6 H18 0.930 . S
C7 C9 1.392 . S
C7 C10 1.370 . S
C7 H19 0.931 . S
N8 C1 1.359 . S
N8 C9 1.327 . S
N8 Tb11 2.600 1_655 S
C9 C7 1.392 . S
C9 N8 1.327 . S
C9 H16 0.930 1_655 S
C10 C5 1.385 . S
C10 C7 1.370 . S
C10 H29 0.930 . S
Tb11 N8 2.600 1_455 S
Tb11 N12 2.660 1_456 S
Tb11 O45 2.360 1_455 S
Tb11 O46 2.421 . S
Tb11 O50 2.546 . S
Tb11 O51 2.610 1_556 S
Tb11 O53 2.320 1_556 S
Tb11 O54 2.552 . S
Tb11 O55 2.413 . S
Tb11 C75 2.833 . S
N12 C4 1.360 1_554 S
N12 Tb11 2.660 1_654 S
N12 C13 1.305 . S
C13 N12 1.305 . S
C13 C15 1.407 . S
C13 H20 0.930 . S
C14 C2 1.410 1_554 S
C14 C15 1.345 . S
C14 H22 0.930 . S
C15 C13 1.407 . S
C15 C14 1.345 . S
C15 H17 0.930 . S
H16 C9 0.930 1_455 S
H17 C15 0.930 . S
H18 C6 0.930 . S
H19 C7 0.931 . S
H20 C13 0.930 . S
H21 C35 0.930 . S
H22 C14 0.930 . S
H23 C41 0.930 . S
H24 C32 0.930 . S
H25 C39 0.931 . S
H26 C3 0.929 . S
H27 C33 0.930 . S
H28 C66 0.930 . S
H29 C10 0.930 . S
H30 C65 0.929 . S
N31 Tb0 2.660 . S
N31 C32 1.305 1_554 S
N31 C36 1.360 . S
C32 H24 0.930 . S
C32 N31 1.305 1_556 S
C32 C35 1.407 . S
C33 H27 0.930 . S
C33 C34 1.410 1_556 S
C33 C35 1.345 . S
C34 C33 1.410 1_554 S
C34 C36 1.417 . S
C34 C66 1.432 . S
C35 H21 0.930 . S
C35 C32 1.407 . S
C35 C33 1.345 . S
C36 N31 1.360 . S
C36 C34 1.417 . S
C36 C40 1.432 . S
H37 C42 0.930 . S
N38 Tb0 2.600 . S
N38 C40 1.359 . S
N38 C41 1.327 . S
C39 H25 0.931 . S
C39 C41 1.392 . S
C39 C42 1.370 . S
C40 C36 1.432 . S
C40 N38 1.359 . S
C40 C43 1.414 . S
C41 H23 0.930 . S
C41 N38 1.327 . S
C41 C39 1.392 . S
C42 H37 0.930 . S
C42 C39 1.370 . S
C42 C43 1.385 . S
C43 C40 1.414 . S
C43 C42 1.385 . S
C43 C65 1.444 . S
O44 Tb0 2.546 . S
O44 C64 1.251 . S
O45 Tb0 2.609 1_656 S
O45 Tb11 2.360 1_655 S
O45 C56 1.284 1_556 S
O46 Tb11 2.421 . S
O46 C63 1.262 . S
O47 Tb0 2.320 1_556 S
O47 C63 1.260 . S
O48 Tb0 2.552 1_655 S
O48 C56 1.243 . S
O49 Tb0 2.413 . S
O49 C64 1.256 . S
O50 Tb11 2.546 . S
O50 C75 1.251 . S
O51 Tb0 2.362 . S
O51 Tb11 2.610 1_554 S
O51 C67 1.283 . S
O52 Tb0 2.421 . S
O52 C74 1.262 . S
O53 Tb11 2.320 1_554 S
O53 C74 1.260 . S
O54 Tb11 2.552 . S
O54 C67 1.243 1_556 S
O55 Tb11 2.413 . S
O55 C75 1.256 . S
C56 O45 1.284 1_554 S
C56 O48 1.243 . S
C57 C59 1.382 . S
C57 C61 1.393 . S
C57 C64 1.500 1_655 S
C58 C59 1.400 . S
C58 C60 1.384 . S
C59 C57 1.382 . S
C59 C58 1.400 . S
C59 H76 0.930 1_554 S
C60 C58 1.384 . S
C60 C62 1.392 . S
C60 H77 0.931 . S
C61 C57 1.393 . S
C61 C62 1.401 . S
C61 H78 0.930 1_655 S
C62 C60 1.392 . S
C62 C61 1.401 . S
C62 H79 0.930 . S
C63 O46 1.262 . S
C63 O47 1.260 . S
C64 Tb0 2.833 . S
C64 O44 1.251 . S
C64 O49 1.256 . S
C64 C57 1.500 1_455 S
C65 H30 0.929 . S
C65 C43 1.444 . S
C65 C66 1.317 . S
C66 H28 0.930 . S
C66 C34 1.432 . S
C66 C65 1.317 . S
C67 O51 1.283 . S
C67 O54 1.243 1_554 S
C68 C69 1.382 . S
C68 C72 1.393 . S
C68 C75 1.500 . S
C69 C68 1.382 . S
C69 C70 1.400 . S
C69 H80 0.930 1_556 S
C70 C69 1.400 . S
C70 C71 1.384 . S
C71 C70 1.384 . S
C71 C73 1.392 . S
C71 H81 0.931 . S
C72 C68 1.393 . S
C72 C73 1.401 . S
C72 H82 0.930 . S
C73 C71 1.392 . S
C73 C72 1.401 . S
C73 H83 0.930 . S
C74 O52 1.262 . S
C74 O53 1.260 . S
C75 Tb11 2.833 . S
C75 O50 1.251 . S
C75 O55 1.256 . S
C75 C68 1.500 . S
H76 C59 0.930 1_556 S
H77 C60 0.931 . S
H78 C61 0.930 1_455 S
H79 C62 0.930 . S
H80 C69 0.930 1_554 S
H81 C71 0.931 . S
H82 C72 0.930 . S
H83 C73 0.930 . S
Tb84 N115 2.660 1_655 S
Tb84 N122 2.600 1_655 S
Tb84 O128 2.546 . S
Tb84 O129 2.610 . S
Tb84 O131 2.320 1_554 S
Tb84 O132 2.552 . S
Tb84 O133 2.413 . S
Tb84 O135 2.362 1_655 S
Tb84 O136 2.421 . S
Tb84 C148 2.833 . S
C85 C88 1.432 . S
C85 C89 1.414 . S
C85 N92 1.359 . S
C86 C88 1.417 . S
C86 C90 1.432 . S
C86 C98 1.410 1_556 S
C87 C89 1.444 . S
C87 C90 1.317 . S
C87 H110 0.929 . S
C88 C85 1.432 . S
C88 C86 1.417 . S
C88 N96 1.360 1_556 S
C89 C85 1.414 . S
C89 C87 1.444 . S
C89 C94 1.385 . S
C90 C86 1.432 . S
C90 C87 1.317 . S
C90 H102 0.930 . S
C91 C93 1.392 . S
C91 C94 1.370 . S
C91 H103 0.931 . S
N92 C85 1.359 . S
N92 C93 1.327 . S
N92 Tb95 2.600 . S
C93 C91 1.392 . S
C93 N92 1.327 . S
C93 H100 0.930 . S
C94 C89 1.385 . S
C94 C91 1.370 . S
C94 H113 0.930 . S
Tb95 N92 2.600 . S
Tb95 N96 2.660 1_556 S
Tb95 O129 2.362 1_556 S
Tb95 O130 2.421 . S
Tb95 O134 2.546 . S
Tb95 O135 2.610 1_656 S
Tb95 O137 2.320 1_556 S
Tb95 O138 2.552 1_655 S
Tb95 O139 2.413 1_556 S
Tb95 C159 2.833 . S
N96 C88 1.360 1_554 S
N96 Tb95 2.660 1_554 S
N96 C97 1.305 . S
C97 N96 1.305 . S
C97 C99 1.407 . S
C97 H104 0.930 . S
C98 C86 1.410 1_554 S
C98 C99 1.345 . S
C98 H106 0.930 . S
C99 C97 1.407 . S
C99 C98 1.345 . S
C99 H101 0.930 . S
H100 C93 0.930 . S
H101 C99 0.930 . S
H102 C90 0.930 . S
H103 C91 0.931 . S
H104 C97 0.930 . S
H105 C119 0.930 . S
H106 C98 0.930 . S
H107 C125 0.930 1_655 S
H108 C116 0.930 . S
H109 C123 0.931 . S
H110 C87 0.929 . S
H111 C117 0.930 . S
H112 C150 0.930 . S
H113 C94 0.930 . S
H114 C149 0.929 . S
N115 Tb84 2.660 1_455 S
N115 C116 1.305 1_554 S
N115 C120 1.360 . S
C116 H108 0.930 . S
C116 N115 1.305 1_556 S
C116 C119 1.407 . S
C117 H111 0.930 . S
C117 C118 1.410 1_556 S
C117 C119 1.345 . S
C118 C117 1.410 1_554 S
C118 C120 1.417 . S
C118 C150 1.432 . S
C119 H105 0.930 . S
C119 C116 1.407 . S
C119 C117 1.345 . S
C120 N115 1.360 . S
C120 C118 1.417 . S
C120 C124 1.432 . S
H121 C126 0.930 . S
N122 Tb84 2.600 1_455 S
N122 C124 1.359 . S
N122 C125 1.327 . S
C123 H109 0.931 . S
C123 C125 1.392 . S
C123 C126 1.370 . S
C124 C120 1.432 . S
C124 N122 1.359 . S
C124 C127 1.414 . S
C125 H107 0.930 1_455 S
C125 N122 1.327 . S
C125 C123 1.392 . S
C126 H121 0.930 . S
C126 C123 1.370 . S
C126 C127 1.385 . S
C127 C124 1.414 . S
C127 C126 1.385 . S
C127 C149 1.444 . S
O128 Tb84 2.546 . S
O128 C148 1.251 . S
O129 Tb84 2.610 . S
O129 Tb95 2.362 1_554 S
O129 C140 1.283 . S
O130 Tb95 2.421 . S
O130 C147 1.262 . S
O131 Tb84 2.320 1_556 S
O131 C147 1.260 . S
O132 Tb84 2.552 . S
O132 C140 1.243 . S
O133 Tb84 2.413 . S
O133 C148 1.256 . S
O134 Tb95 2.546 . S
O134 C159 1.251 . S
O135 Tb84 2.362 1_455 S
O135 Tb95 2.610 1_454 S
O135 C151 1.283 . S
O136 Tb84 2.421 . S
O136 C158 1.262 . S
O137 Tb95 2.320 1_554 S
O137 C158 1.260 . S
O138 Tb95 2.552 1_455 S
O138 C151 1.243 1_556 S
O139 Tb95 2.413 1_554 S
O139 C159 1.256 1_554 S
C140 O129 1.283 . S
C140 O132 1.243 . S
C141 C143 1.382 . S
C141 C145 1.393 . S
C141 C148 1.500 . S
C142 C143 1.400 . S
C142 C144 1.384 . S
C143 C141 1.382 . S
C143 C142 1.400 . S
C143 H160 0.930 . S
C144 C142 1.384 . S
C144 C146 1.392 . S
C144 H161 0.931 . S
C145 C141 1.393 . S
C145 C146 1.401 . S
C145 H162 0.930 . S
C146 C144 1.392 . S
C146 C145 1.401 . S
C146 H163 0.930 . S
C147 O130 1.262 . S
C147 O131 1.260 . S
C148 Tb84 2.833 . S
C148 O128 1.251 . S
C148 O133 1.256 . S
C148 C141 1.500 . S
C149 H114 0.929 . S
C149 C127 1.444 . S
C149 C150 1.317 . S
C150 H112 0.930 . S
C150 C118 1.432 . S
C150 C149 1.317 . S
C151 O135 1.283 . S
C151 O138 1.243 1_554 S
C152 C153 1.382 . S
C152 C156 1.393 . S
C152 C159 1.500 1_455 S
C153 C152 1.382 . S
C153 C154 1.400 . S
C153 H164 0.930 1_556 S
C154 C153 1.400 . S
C154 C155 1.384 . S
C155 C154 1.384 . S
C155 C157 1.392 . S
C155 H165 0.931 . S
C156 C152 1.393 . S
C156 C157 1.401 . S
C156 H166 0.930 1_455 S
C157 C155 1.392 . S
C157 C156 1.401 . S
C157 H167 0.930 . S
C158 O136 1.262 . S
C158 O137 1.260 . S
C159 Tb95 2.833 . S
C159 O134 1.251 . S
C159 O139 1.256 1_556 S
C159 C152 1.500 1_655 S
H160 C143 0.930 . S
H161 C144 0.931 . S
H162 C145 0.930 . S
H163 C146 0.930 . S
H164 C153 0.930 1_554 S
H165 C155 0.931 . S
H166 C156 0.930 1_655 S
H167 C157 0.930 . S
Tb168 N199 2.660 . S
Tb168 N206 2.600 . S
Tb168 O212 2.546 . S
Tb168 O213 2.610 1_455 S
Tb168 O215 2.320 . S
Tb168 O216 2.552 1_455 S
Tb168 O217 2.413 . S
Tb168 O219 2.362 . S
Tb168 O220 2.421 . S
Tb168 C232 2.833 . S
C169 C172 1.432 . S
C169 C173 1.414 . S
C169 N176 1.359 . S
C170 C172 1.417 . S
C170 C174 1.432 . S
C170 C182 1.410 . S
C171 C173 1.444 . S
C171 C174 1.317 . S
C171 H194 0.929 . S
C172 C169 1.432 . S
C172 C170 1.417 . S
C172 N180 1.360 . S
C173 C169 1.414 . S
C173 C171 1.444 . S
C173 C178 1.385 . S
C174 C170 1.432 . S
C174 C171 1.317 . S
C174 H186 0.930 . S
C175 C177 1.392 . S
C175 C178 1.370 . S
C175 H187 0.931 . S
N176 C169 1.359 . S
N176 C177 1.327 . S
N176 Tb179 2.600 1_655 S
C177 C175 1.392 . S
C177 N176 1.327 . S
C177 H184 0.930 1_655 S
C178 C173 1.385 . S
C178 C175 1.370 . S
C178 H197 0.930 . S
Tb179 N176 2.600 1_455 S
Tb179 N180 2.660 1_455 S
Tb179 O213 2.362 1_455 S
Tb179 O214 2.421 . S
Tb179 O218 2.546 . S
Tb179 O219 2.610 . S
Tb179 O221 2.320 . S
Tb179 O222 2.552 . S
Tb179 O223 2.413 . S
Tb179 C243 2.833 . S
N180 C172 1.360 . S
N180 Tb179 2.660 1_655 S
N180 C181 1.305 . S
C181 N180 1.305 . S
C181 C183 1.407 . S
C181 H188 0.930 . S
C182 C170 1.410 . S
C182 C183 1.345 . S
C182 H190 0.930 . S
C183 C181 1.407 . S
C183 C182 1.345 . S
C183 H185 0.930 . S
H184 C177 0.930 1_455 S
H185 C183 0.930 . S
H186 C174 0.930 . S
H187 C175 0.931 . S
H188 C181 0.930 . S
H189 C203 0.930 . S
H190 C182 0.930 . S
H191 C209 0.930 . S
H192 C200 0.930 . S
H193 C207 0.931 . S
H194 C171 0.929 . S
H195 C201 0.930 . S
H196 C234 0.930 . S
H197 C178 0.930 . S
H198 C233 0.929 . S
N199 Tb168 2.660 . S
N199 C200 1.305 . S
N199 C204 1.360 . S
C200 H192 0.930 . S
C200 N199 1.305 . S
C200 C203 1.407 . S
C201 H195 0.930 . S
C201 C202 1.410 . S
C201 C203 1.345 . S
C202 C201 1.410 . S
C202 C204 1.417 . S
C202 C234 1.432 . S
C203 H189 0.930 . S
C203 C200 1.407 . S
C203 C201 1.345 . S
C204 N199 1.360 . S
C204 C202 1.417 . S
C204 C208 1.432 . S
H205 C210 0.930 . S
N206 Tb168 2.600 . S
N206 C208 1.359 . S
N206 C209 1.327 . S
C207 H193 0.931 . S
C207 C209 1.392 . S
C207 C210 1.370 . S
C208 C204 1.432 . S
C208 N206 1.359 . S
C208 C211 1.414 . S
C209 H191 0.930 . S
C209 N206 1.327 . S
C209 C207 1.392 . S
C210 H205 0.930 . S
C210 C207 1.370 . S
C210 C211 1.385 . S
C211 C208 1.414 . S
C211 C210 1.385 . S
C211 C233 1.444 . S
O212 Tb168 2.546 . S
O212 C232 1.251 . S
O213 Tb168 2.610 1_655 S
O213 Tb179 2.362 1_655 S
O213 C224 1.283 . S
O214 Tb179 2.421 . S
O214 C231 1.262 . S
O215 Tb168 2.320 . S
O215 C231 1.260 . S
O216 Tb168 2.552 1_655 S
O216 C224 1.243 . S
O217 Tb168 2.413 . S
O217 C232 1.256 . S
O218 Tb179 2.546 . S
O218 C243 1.251 . S
O219 Tb168 2.362 . S
O219 Tb179 2.610 . S
O219 C235 1.283 . S
O220 Tb168 2.421 . S
O220 C242 1.262 . S
O221 Tb179 2.320 . S
O221 C242 1.260 . S
O222 Tb179 2.552 . S
O222 C235 1.243 . S
O223 Tb179 2.413 . S
O223 C243 1.256 . S
C224 O213 1.283 . S
C224 O216 1.243 . S
C225 C227 1.382 . S
C225 C229 1.393 . S
C225 C232 1.500 1_655 S
C226 C227 1.400 . S
C226 C228 1.384 . S
C227 C225 1.382 . S
C227 C226 1.400 . S
C227 H244 0.930 . S
C228 C226 1.384 . S
C228 C230 1.392 . S
C228 H245 0.931 . S
C229 C225 1.393 . S
C229 C230 1.401 . S
C229 H246 0.930 1_655 S
C230 C228 1.392 . S
C230 C229 1.401 . S
C230 H247 0.930 . S
C231 O214 1.262 . S
C231 O215 1.260 . S
C232 Tb168 2.833 . S
C232 O212 1.251 . S
C232 O217 1.256 . S
C232 C225 1.500 1_455 S
C233 H198 0.929 . S
C233 C211 1.444 . S
C233 C234 1.317 . S
C234 H196 0.930 . S
C234 C202 1.432 . S
C234 C233 1.317 . S
C235 O219 1.283 . S
C235 O222 1.243 . S
C236 C237 1.382 . S
C236 C240 1.393 . S
C236 C243 1.500 . S
C237 C236 1.382 . S
C237 C238 1.400 . S
C237 H248 0.930 . S
C238 C237 1.400 . S
C238 C239 1.384 . S
C239 C238 1.384 . S
C239 C241 1.392 . S
C239 H249 0.931 . S
C240 C236 1.393 . S
C240 C241 1.401 . S
C240 H250 0.930 . S
C241 C239 1.392 . S
C241 C240 1.401 . S
C241 H251 0.930 . S
C242 O220 1.262 . S
C242 O221 1.260 . S
C243 Tb179 2.833 . S
C243 O218 1.251 . S
C243 O223 1.256 . S
C243 C236 1.500 . S
H244 C227 0.930 . S
H245 C228 0.931 . S
H246 C229 0.930 1_455 S
H247 C230 0.930 . S
H248 C237 0.930 . S
H249 C239 0.931 . S
H250 C240 0.930 . S
H251 C241 0.930 . S
Tb252 N283 2.660 1_655 S
Tb252 N290 2.600 1_655 S
Tb252 O296 2.546 . S
Tb252 O297 2.610 . S
Tb252 O299 2.320 . S
Tb252 O300 2.552 . S
Tb252 O301 2.413 . S
Tb252 O303 2.362 1_655 S
Tb252 O304 2.421 . S
Tb252 C316 2.833 . S
C253 C256 1.432 . S
C253 C257 1.414 . S
C253 N260 1.359 . S
C254 C256 1.417 . S
C254 C258 1.432 . S
C254 C266 1.410 . S
C255 C257 1.444 . S
C255 C258 1.317 . S
C255 H278 0.929 . S
C256 C253 1.432 . S
C256 C254 1.417 . S
C256 N264 1.360 . S
C257 C253 1.414 . S
C257 C255 1.444 . S
C257 C262 1.385 . S
C258 C254 1.432 . S
C258 C255 1.317 . S
C258 H270 0.930 . S
C259 C261 1.392 . S
C259 C262 1.370 . S
C259 H271 0.931 . S
N260 C253 1.359 . S
N260 C261 1.327 . S
N260 Tb263 2.600 . S
C261 C259 1.392 . S
C261 N260 1.327 . S
C261 H268 0.930 . S
C262 C257 1.385 . S
C262 C259 1.370 . S
C262 H281 0.930 . S
Tb263 N260 2.600 . S
Tb263 N264 2.660 . S
Tb263 O297 2.362 . S
Tb263 O298 2.421 . S
Tb263 O302 2.546 . S
Tb263 O303 2.610 1_655 S
Tb263 O305 2.320 . S
Tb263 O306 2.552 1_655 S
Tb263 O307 2.413 . S
Tb263 C327 2.833 . S
N264 C256 1.360 . S
N264 Tb263 2.660 . S
N264 C265 1.305 . S
C265 N264 1.305 . S
C265 C267 1.407 . S
C265 H272 0.930 . S
C266 C254 1.410 . S
C266 C267 1.345 . S
C266 H274 0.930 . S
C267 C265 1.407 . S
C267 C266 1.345 . S
C267 H269 0.930 . S
H268 C261 0.930 . S
H269 C267 0.930 . S
H270 C258 0.930 . S
H271 C259 0.931 . S
H272 C265 0.930 . S
H273 C287 0.930 . S
H274 C266 0.930 . S
H275 C293 0.930 1_655 S
H276 C284 0.930 . S
H277 C291 0.931 . S
H278 C255 0.929 . S
H279 C285 0.930 . S
H280 C318 0.930 . S
H281 C262 0.930 . S
H282 C317 0.929 . S
N283 Tb252 2.660 1_455 S
N283 C284 1.305 . S
N283 C288 1.360 . S
C284 H276 0.930 . S
C284 N283 1.305 . S
C284 C287 1.407 . S
C285 H279 0.930 . S
C285 C286 1.410 . S
C285 C287 1.345 . S
C286 C285 1.410 . S
C286 C288 1.417 . S
C286 C318 1.432 . S
C287 H273 0.930 . S
C287 C284 1.407 . S
C287 C285 1.345 . S
C288 N283 1.360 . S
C288 C286 1.417 . S
C288 C292 1.432 . S
H289 C294 0.930 . S
N290 Tb252 2.600 1_455 S
N290 C292 1.359 . S
N290 C293 1.327 . S
C291 H277 0.931 . S
C291 C293 1.392 . S
C291 C294 1.370 . S
C292 C288 1.432 . S
C292 N290 1.359 . S
C292 C295 1.414 . S
C293 H275 0.930 1_455 S
C293 N290 1.327 . S
C293 C291 1.392 . S
C294 H289 0.930 . S
C294 C291 1.370 . S
C294 C295 1.385 . S
C295 C292 1.414 . S
C295 C294 1.385 . S
C295 C317 1.444 . S
O296 Tb252 2.546 . S
O296 C316 1.251 . S
O297 Tb252 2.610 . S
O297 Tb263 2.362 . S
O297 C308 1.283 . S
O298 Tb263 2.421 . S
O298 C315 1.262 . S
O299 Tb252 2.320 . S
O299 C315 1.260 . S
O300 Tb252 2.552 . S
O300 C308 1.243 . S
O301 Tb252 2.413 . S
O301 C316 1.256 . S
O302 Tb263 2.546 . S
O302 C327 1.251 . S
O303 Tb252 2.362 1_455 S
O303 Tb263 2.610 1_455 S
O303 C319 1.283 . S
O304 Tb252 2.421 . S
O304 C326 1.262 . S
O305 Tb263 2.320 . S
O305 C326 1.260 . S
O306 Tb263 2.552 1_455 S
O306 C319 1.243 . S
O307 Tb263 2.413 . S
O307 C327 1.256 . S
C308 O297 1.283 . S
C308 O300 1.243 . S
C309 C311 1.382 . S
C309 C313 1.393 . S
C309 C316 1.500 . S
C310 C311 1.400 . S
C310 C312 1.384 . S
C311 C309 1.382 . S
C311 C310 1.400 . S
C311 H328 0.930 . S
C312 C310 1.384 . S
C312 C314 1.392 . S
C312 H329 0.931 . S
C313 C309 1.393 . S
C313 C314 1.401 . S
C313 H330 0.930 . S
C314 C312 1.392 . S
C314 C313 1.401 . S
C314 H331 0.930 . S
C315 O298 1.262 . S
C315 O299 1.260 . S
C316 Tb252 2.833 . S
C316 O296 1.251 . S
C316 O301 1.256 . S
C316 C309 1.500 . S
C317 H282 0.929 . S
C317 C295 1.444 . S
C317 C318 1.317 . S
C318 H280 0.930 . S
C318 C286 1.432 . S
C318 C317 1.317 . S
C319 O303 1.283 . S
C319 O306 1.243 . S
C320 C321 1.382 . S
C320 C324 1.393 . S
C320 C327 1.500 1_455 S
C321 C320 1.382 . S
C321 C322 1.400 . S
C321 H332 0.930 . S
C322 C321 1.400 . S
C322 C323 1.384 . S
C323 C322 1.384 . S
C323 C325 1.392 . S
C323 H333 0.931 . S
C324 C320 1.393 . S
C324 C325 1.401 . S
C324 H334 0.930 1_455 S
C325 C323 1.392 . S
C325 C324 1.401 . S
C325 H335 0.930 . S
C326 O304 1.262 . S
C326 O305 1.260 . S
C327 Tb263 2.833 . S
C327 O302 1.251 . S
C327 O307 1.256 . S
C327 C320 1.500 1_655 S
H328 C311 0.930 . S
H329 C312 0.931 . S
H330 C313 0.930 . S
H331 C314 0.930 . S
H332 C321 0.930 . S
H333 C323 0.931 . S
H334 C324 0.930 1_655 S
H335 C325 0.930 . S
Tb336 N367 2.660 . S
Tb336 N374 2.600 . S
Tb336 O380 2.546 . S
Tb336 O381 2.609 1_554 S
Tb336 O383 2.320 1_554 S
Tb336 O384 2.552 . S
Tb336 O385 2.413 . S
Tb336 O387 2.362 . S
Tb336 O388 2.421 . S
Tb336 C400 2.833 . S
C337 C340 1.432 . S
C337 C341 1.414 . S
C337 N344 1.359 . S
C338 C340 1.417 . S
C338 C342 1.432 . S
C338 C350 1.410 1_556 S
C339 C341 1.444 . S
C339 C342 1.317 . S
C339 H362 0.929 . S
C340 C337 1.432 . S
C340 C338 1.417 . S
C340 N348 1.360 1_556 S
C341 C337 1.414 . S
C341 C339 1.444 . S
C341 C346 1.385 . S
C342 C338 1.432 . S
C342 C339 1.317 . S
C342 H354 0.930 . S
C343 C345 1.392 . S
C343 C346 1.370 . S
C343 H355 0.931 . S
N344 C337 1.359 . S
N344 C345 1.327 . S
N344 Tb347 2.600 . S
C345 C343 1.392 . S
C345 N344 1.327 . S
C345 H352 0.930 . S
C346 C341 1.385 . S
C346 C343 1.370 . S
C346 H365 0.930 . S
Tb347 N344 2.600 . S
Tb347 N348 2.660 1_556 S
Tb347 O381 2.360 . S
Tb347 O382 2.421 . S
Tb347 O386 2.546 . S
Tb347 O387 2.610 1_556 S
Tb347 O389 2.320 1_556 S
Tb347 O390 2.552 . S
Tb347 O391 2.413 . S
Tb347 C411 2.833 . S
N348 C340 1.360 1_554 S
N348 Tb347 2.660 1_554 S
N348 C349 1.305 . S
C349 N348 1.305 . S
C349 C351 1.407 . S
C349 H356 0.930 . S
C350 C338 1.410 1_554 S
C350 C351 1.345 . S
C350 H358 0.930 . S
C351 C349 1.407 . S
C351 C350 1.345 . S
C351 H353 0.930 . S
H352 C345 0.930 . S
H353 C351 0.930 . S
H354 C342 0.930 . S
H355 C343 0.931 . S
H356 C349 0.930 . S
H357 C371 0.930 . S
H358 C350 0.930 . S
H359 C377 0.930 . S
H360 C368 0.930 . S
H361 C375 0.931 . S
H362 C339 0.929 . S
H363 C369 0.930 . S
H364 C402 0.930 . S
H365 C346 0.930 . S
H366 C401 0.929 . S
N367 Tb336 2.660 . S
N367 C368 1.305 1_554 S
N367 C372 1.360 . S
C368 H360 0.930 . S
C368 N367 1.305 1_556 S
C368 C371 1.407 . S
C369 H363 0.930 . S
C369 C370 1.410 1_556 S
C369 C371 1.345 . S
C370 C369 1.410 1_554 S
C370 C372 1.417 . S
C370 C402 1.432 . S
C371 H357 0.930 . S
C371 C368 1.407 . S
C371 C369 1.345 . S
C372 N367 1.360 . S
C372 C370 1.417 . S
C372 C376 1.432 . S
H373 C378 0.930 . S
N374 Tb336 2.600 . S
N374 C376 1.359 . S
N374 C377 1.327 . S
C375 H361 0.931 . S
C375 C377 1.392 . S
C375 C378 1.370 . S
C376 C372 1.432 . S
C376 N374 1.359 . S
C376 C379 1.414 . S
C377 H359 0.930 . S
C377 N374 1.327 . S
C377 C375 1.392 . S
C378 H373 0.930 . S
C378 C375 1.370 . S
C378 C379 1.385 . S
C379 C376 1.414 . S
C379 C378 1.385 . S
C379 C401 1.444 . S
O380 Tb336 2.546 . S
O380 C400 1.251 . S
O381 Tb336 2.609 1_556 S
O381 Tb347 2.360 . S
O381 C392 1.284 1_556 S
O382 Tb347 2.421 . S
O382 C399 1.262 . S
O383 Tb336 2.320 1_556 S
O383 C399 1.260 . S
O384 Tb336 2.552 . S
O384 C392 1.243 . S
O385 Tb336 2.413 . S
O385 C400 1.256 . S
O386 Tb347 2.546 . S
O386 C411 1.251 . S
O387 Tb336 2.362 . S
O387 Tb347 2.610 1_554 S
O387 C403 1.283 . S
O388 Tb336 2.421 . S
O388 C410 1.262 . S
O389 Tb347 2.320 1_554 S
O389 C410 1.260 . S
O390 Tb347 2.552 . S
O390 C403 1.243 1_556 S
O391 Tb347 2.413 . S
O391 C411 1.256 . S
C392 O381 1.284 1_554 S
C392 O384 1.243 . S
C393 C395 1.382 . S
C393 C397 1.393 . S
C393 C400 1.500 . S
C394 C395 1.400 . S
C394 C396 1.384 . S
C395 C393 1.382 . S
C395 C394 1.400 . S
C395 H412 0.930 1_554 S
C396 C394 1.384 . S
C396 C398 1.392 . S
C396 H413 0.931 . S
C397 C393 1.393 . S
C397 C398 1.401 . S
C397 H414 0.930 . S
C398 C396 1.392 . S
C398 C397 1.401 . S
C398 H415 0.930 . S
C399 O382 1.262 . S
C399 O383 1.260 . S
C400 Tb336 2.833 . S
C400 O380 1.251 . S
C400 O385 1.256 . S
C400 C393 1.500 . S
C401 H366 0.929 . S
C401 C379 1.444 . S
C401 C402 1.317 . S
C402 H364 0.930 . S
C402 C370 1.432 . S
C402 C401 1.317 . S
C403 O387 1.283 . S
C403 O390 1.243 1_554 S
C404 C405 1.382 . S
C404 C408 1.393 . S
C404 C411 1.500 . S
C405 C404 1.382 . S
C405 C406 1.400 . S
C405 H416 0.930 1_556 S
C406 C405 1.400 . S
C406 C407 1.384 . S
C407 C406 1.384 . S
C407 C409 1.392 . S
C407 H417 0.931 . S
C408 C404 1.393 . S
C408 C409 1.401 . S
C408 H418 0.930 . S
C409 C407 1.392 . S
C409 C408 1.401 . S
C409 H419 0.930 . S
C410 O388 1.262 . S
C410 O389 1.260 . S
C411 Tb347 2.833 . S
C411 O386 1.251 . S
C411 O391 1.256 . S
C411 C404 1.500 . S
H412 C395 0.930 1_556 S
H413 C396 0.931 . S
H414 C397 0.930 . S
H415 C398 0.930 . S
H416 C405 0.930 1_554 S
H417 C407 0.931 . S
H418 C408 0.930 . S
H419 C409 0.930 . S
Tb420 N451 2.660 . S
Tb420 N458 2.600 . S
Tb420 O464 2.546 . S
Tb420 O465 2.610 . S
Tb420 O467 2.320 1_554 S
Tb420 O468 2.552 . S
Tb420 O469 2.413 . S
Tb420 O471 2.362 . S
Tb420 O472 2.421 . S
Tb420 C484 2.833 . S
C421 C424 1.432 . S
C421 C425 1.414 . S
C421 N428 1.359 . S
C422 C424 1.417 . S
C422 C426 1.432 . S
C422 C434 1.410 1_556 S
C423 C425 1.444 . S
C423 C426 1.317 . S
C423 H446 0.929 . S
C424 C421 1.432 . S
C424 C422 1.417 . S
C424 N432 1.360 1_556 S
C425 C421 1.414 . S
C425 C423 1.444 . S
C425 C430 1.385 . S
C426 C422 1.432 . S
C426 C423 1.317 . S
C426 H438 0.930 . S
C427 C429 1.392 . S
C427 C430 1.370 . S
C427 H439 0.931 . S
N428 C421 1.359 . S
N428 C429 1.327 . S
N428 Tb431 2.600 . S
C429 C427 1.392 . S
C429 N428 1.327 . S
C429 H436 0.930 . S
C430 C425 1.385 . S
C430 C427 1.370 . S
C430 H449 0.930 . S
Tb431 N428 2.600 . S
Tb431 N432 2.660 1_556 S
Tb431 O465 2.362 1_556 S
Tb431 O466 2.421 . S
Tb431 O470 2.546 . S
Tb431 O471 2.610 1_556 S
Tb431 O473 2.320 1_556 S
Tb431 O474 2.552 . S
Tb431 O475 2.413 1_556 S
Tb431 C495 2.833 . S
N432 C424 1.360 1_554 S
N432 Tb431 2.660 1_554 S
N432 C433 1.305 . S
C433 N432 1.305 . S
C433 C435 1.407 . S
C433 H440 0.930 . S
C434 C422 1.410 1_554 S
C434 C435 1.345 . S
C434 H442 0.930 . S
C435 C433 1.407 . S
C435 C434 1.345 . S
C435 H437 0.930 . S
H436 C429 0.930 . S
H437 C435 0.930 . S
H438 C426 0.930 . S
H439 C427 0.931 . S
H440 C433 0.930 . S
H441 C455 0.930 . S
H442 C434 0.930 . S
H443 C461 0.930 . S
H444 C452 0.930 . S
H445 C459 0.931 . S
H446 C423 0.929 . S
H447 C453 0.930 . S
H448 C486 0.930 . S
H449 C430 0.930 . S
H450 C485 0.929 . S
N451 Tb420 2.660 . S
N451 C452 1.305 1_554 S
N451 C456 1.360 . S
C452 H444 0.930 . S
C452 N451 1.305 1_556 S
C452 C455 1.407 . S
C453 H447 0.930 . S
C453 C454 1.410 1_556 S
C453 C455 1.345 . S
C454 C453 1.410 1_554 S
C454 C456 1.417 . S
C454 C486 1.432 . S
C455 H441 0.930 . S
C455 C452 1.407 . S
C455 C453 1.345 . S
C456 N451 1.360 . S
C456 C454 1.417 . S
C456 C460 1.432 . S
H457 C462 0.930 . S
N458 Tb420 2.600 . S
N458 C460 1.359 . S
N458 C461 1.327 . S
C459 H445 0.931 . S
C459 C461 1.392 . S
C459 C462 1.370 . S
C460 C456 1.432 . S
C460 N458 1.359 . S
C460 C463 1.414 . S
C461 H443 0.930 . S
C461 N458 1.327 . S
C461 C459 1.392 . S
C462 H457 0.930 . S
C462 C459 1.370 . S
C462 C463 1.385 . S
C463 C460 1.414 . S
C463 C462 1.385 . S
C463 C485 1.444 . S
O464 Tb420 2.546 . S
O464 C484 1.251 . S
O465 Tb420 2.610 . S
O465 Tb431 2.362 1_554 S
O465 C476 1.283 . S
O466 Tb431 2.421 . S
O466 C483 1.262 . S
O467 Tb420 2.320 1_556 S
O467 C483 1.260 . S
O468 Tb420 2.552 . S
O468 C476 1.243 . S
O469 Tb420 2.413 . S
O469 C484 1.256 . S
O470 Tb431 2.546 . S
O470 C495 1.251 . S
O471 Tb420 2.362 . S
O471 Tb431 2.610 1_554 S
O471 C487 1.283 . S
O472 Tb420 2.421 . S
O472 C494 1.262 . S
O473 Tb431 2.320 1_554 S
O473 C494 1.260 . S
O474 Tb431 2.552 . S
O474 C487 1.243 1_556 S
O475 Tb431 2.413 1_554 S
O475 C495 1.256 1_554 S
C476 O465 1.283 . S
C476 O468 1.243 . S
C477 C479 1.382 . S
C477 C481 1.393 . S
C477 C484 1.500 . S
C478 C479 1.400 . S
C478 C480 1.384 . S
C479 C477 1.382 . S
C479 C478 1.400 . S
C479 H496 0.930 . S
C480 C478 1.384 . S
C480 C482 1.392 . S
C480 H497 0.931 . S
C481 C477 1.393 . S
C481 C482 1.401 . S
C481 H498 0.930 . S
C482 C480 1.392 . S
C482 C481 1.401 . S
C482 H499 0.930 . S
C483 O466 1.262 . S
C483 O467 1.260 . S
C484 Tb420 2.833 . S
C484 O464 1.251 . S
C484 O469 1.256 . S
C484 C477 1.500 . S
C485 H450 0.929 . S
C485 C463 1.444 . S
C485 C486 1.317 . S
C486 H448 0.930 . S
C486 C454 1.432 . S
C486 C485 1.317 . S
C487 O471 1.283 . S
C487 O474 1.243 1_554 S
C488 C489 1.382 . S
C488 C492 1.393 . S
C488 C495 1.500 . S
C489 C488 1.382 . S
C489 C490 1.400 . S
C489 H500 0.930 1_556 S
C490 C489 1.400 . S
C490 C491 1.384 . S
C491 C490 1.384 . S
C491 C493 1.392 . S
C491 H501 0.931 . S
C492 C488 1.393 . S
C492 C493 1.401 . S
C492 H502 0.930 . S
C493 C491 1.392 . S
C493 C492 1.401 . S
C493 H503 0.930 . S
C494 O472 1.262 . S
C494 O473 1.260 . S
C495 Tb431 2.833 . S
C495 O470 1.251 . S
C495 O475 1.256 1_556 S
C495 C488 1.500 . S
H496 C479 0.930 . S
H497 C480 0.931 . S
H498 C481 0.930 . S
H499 C482 0.930 . S
H500 C489 0.930 1_554 S
H501 C491 0.931 . S
H502 C492 0.930 . S
H503 C493 0.930 . S
Tb504 N535 2.660 . S
Tb504 N542 2.600 . S
Tb504 O548 2.546 . S
Tb504 O549 2.610 . S
Tb504 O551 2.320 . S
Tb504 O552 2.552 . S
Tb504 O553 2.413 . S
Tb504 O555 2.362 . S
Tb504 O556 2.421 . S
Tb504 C568 2.833 . S
C505 C508 1.432 . S
C505 C509 1.414 . S
C505 N512 1.359 . S
C506 C508 1.417 . S
C506 C510 1.432 . S
C506 C518 1.410 . S
C507 C509 1.444 . S
C507 C510 1.317 . S
C507 H530 0.929 . S
C508 C505 1.432 . S
C508 C506 1.417 . S
C508 N516 1.360 . S
C509 C505 1.414 . S
C509 C507 1.444 . S
C509 C514 1.385 . S
C510 C506 1.432 . S
C510 C507 1.317 . S
C510 H522 0.930 . S
C511 C513 1.392 . S
C511 C514 1.370 . S
C511 H523 0.931 . S
N512 C505 1.359 . S
N512 C513 1.327 . S
N512 Tb515 2.600 . S
C513 C511 1.392 . S
C513 N512 1.327 . S
C513 H520 0.930 . S
C514 C509 1.385 . S
C514 C511 1.370 . S
C514 H533 0.930 . S
Tb515 N512 2.600 . S
Tb515 N516 2.660 . S
Tb515 O549 2.362 . S
Tb515 O550 2.421 . S
Tb515 O554 2.546 . S
Tb515 O555 2.610 . S
Tb515 O557 2.320 . S
Tb515 O558 2.552 . S
Tb515 O559 2.413 . S
Tb515 C579 2.833 . S
N516 C508 1.360 . S
N516 Tb515 2.660 . S
N516 C517 1.305 . S
C517 N516 1.305 . S
C517 C519 1.407 . S
C517 H524 0.930 . S
C518 C506 1.410 . S
C518 C519 1.345 . S
C518 H526 0.930 . S
C519 C517 1.407 . S
C519 C518 1.345 . S
C519 H521 0.930 . S
H520 C513 0.930 . S
H521 C519 0.930 . S
H522 C510 0.930 . S
H523 C511 0.931 . S
H524 C517 0.930 . S
H525 C539 0.930 . S
H526 C518 0.930 . S
H527 C545 0.930 . S
H528 C536 0.930 . S
H529 C543 0.931 . S
H530 C507 0.929 . S
H531 C537 0.930 . S
H532 C570 0.930 . S
H533 C514 0.930 . S
H534 C569 0.929 . S
N535 Tb504 2.660 . S
N535 C536 1.305 . S
N535 C540 1.360 . S
C536 H528 0.930 . S
C536 N535 1.305 . S
C536 C539 1.407 . S
C537 H531 0.930 . S
C537 C538 1.410 . S
C537 C539 1.345 . S
C538 C537 1.410 . S
C538 C540 1.417 . S
C538 C570 1.432 . S
C539 H525 0.930 . S
C539 C536 1.407 . S
C539 C537 1.345 . S
C540 N535 1.360 . S
C540 C538 1.417 . S
C540 C544 1.432 . S
H541 C546 0.930 . S
N542 Tb504 2.600 . S
N542 C544 1.359 . S
N542 C545 1.327 . S
C543 H529 0.931 . S
C543 C545 1.392 . S
C543 C546 1.370 . S
C544 C540 1.432 . S
C544 N542 1.359 . S
C544 C547 1.414 . S
C545 H527 0.930 . S
C545 N542 1.327 . S
C545 C543 1.392 . S
C546 H541 0.930 . S
C546 C543 1.370 . S
C546 C547 1.385 . S
C547 C544 1.414 . S
C547 C546 1.385 . S
C547 C569 1.444 . S
O548 Tb504 2.546 . S
O548 C568 1.251 . S
O549 Tb504 2.610 . S
O549 Tb515 2.362 . S
O549 C560 1.283 . S
O550 Tb515 2.421 . S
O550 C567 1.262 . S
O551 Tb504 2.320 . S
O551 C567 1.260 . S
O552 Tb504 2.552 . S
O552 C560 1.243 . S
O553 Tb504 2.413 . S
O553 C568 1.256 . S
O554 Tb515 2.546 . S
O554 C579 1.251 . S
O555 Tb504 2.362 . S
O555 Tb515 2.610 . S
O555 C571 1.283 . S
O556 Tb504 2.421 . S
O556 C578 1.262 . S
O557 Tb515 2.320 . S
O557 C578 1.260 . S
O558 Tb515 2.552 . S
O558 C571 1.243 . S
O559 Tb515 2.413 . S
O559 C579 1.256 . S
C560 O549 1.283 . S
C560 O552 1.243 . S
C561 C563 1.382 . S
C561 C565 1.393 . S
C561 C568 1.500 . S
C562 C563 1.400 . S
C562 C564 1.384 . S
C563 C561 1.382 . S
C563 C562 1.400 . S
C563 H580 0.930 . S
C564 C562 1.384 . S
C564 C566 1.392 . S
C564 H581 0.931 . S
C565 C561 1.393 . S
C565 C566 1.401 . S
C565 H582 0.930 . S
C566 C564 1.392 . S
C566 C565 1.401 . S
C566 H583 0.930 . S
C567 O550 1.262 . S
C567 O551 1.260 . S
C568 Tb504 2.833 . S
C568 O548 1.251 . S
C568 O553 1.256 . S
C568 C561 1.500 . S
C569 H534 0.929 . S
C569 C547 1.444 . S
C569 C570 1.317 . S
C570 H532 0.930 . S
C570 C538 1.432 . S
C570 C569 1.317 . S
C571 O555 1.283 . S
C571 O558 1.243 . S
C572 C573 1.382 . S
C572 C576 1.393 . S
C572 C579 1.500 . S
C573 C572 1.382 . S
C573 C574 1.400 . S
C573 H584 0.930 . S
C574 C573 1.400 . S
C574 C575 1.384 . S
C575 C574 1.384 . S
C575 C577 1.392 . S
C575 H585 0.931 . S
C576 C572 1.393 . S
C576 C577 1.401 . S
C576 H586 0.930 . S
C577 C575 1.392 . S
C577 C576 1.401 . S
C577 H587 0.930 . S
C578 O556 1.262 . S
C578 O557 1.260 . S
C579 Tb515 2.833 . S
C579 O554 1.251 . S
C579 O559 1.256 . S
C579 C572 1.500 . S
H580 C563 0.930 . S
H581 C564 0.931 . S
H582 C565 0.930 . S
H583 C566 0.930 . S
H584 C573 0.930 . S
H585 C575 0.931 . S
H586 C576 0.930 . S
H587 C577 0.930 . S
Tb588 N619 2.660 . S
Tb588 N626 2.600 . S
Tb588 O632 2.546 . S
Tb588 O633 2.610 . S
Tb588 O635 2.320 . S
Tb588 O636 2.552 . S
Tb588 O637 2.413 . S
Tb588 O639 2.362 . S
Tb588 O640 2.421 . S
Tb588 C652 2.833 . S
C589 C592 1.432 . S
C589 C593 1.414 . S
C589 N596 1.359 . S
C590 C592 1.417 . S
C590 C594 1.432 . S
C590 C602 1.410 . S
C591 C593 1.444 . S
C591 C594 1.317 . S
C591 H614 0.929 . S
C592 C589 1.432 . S
C592 C590 1.417 . S
C592 N600 1.360 . S
C593 C589 1.414 . S
C593 C591 1.444 . S
C593 C598 1.385 . S
C594 C590 1.432 . S
C594 C591 1.317 . S
C594 H606 0.930 . S
C595 C597 1.392 . S
C595 C598 1.370 . S
C595 H607 0.931 . S
N596 C589 1.359 . S
N596 C597 1.327 . S
N596 Tb599 2.600 . S
C597 C595 1.392 . S
C597 N596 1.327 . S
C597 H604 0.930 . S
C598 C593 1.385 . S
C598 C595 1.370 . S
C598 H617 0.930 . S
Tb599 N596 2.600 . S
Tb599 N600 2.660 . S
Tb599 O633 2.362 . S
Tb599 O634 2.421 . S
Tb599 O638 2.546 . S
Tb599 O639 2.610 . S
Tb599 O641 2.320 . S
Tb599 O642 2.552 . S
Tb599 O643 2.413 . S
Tb599 C663 2.833 . S
N600 C592 1.360 . S
N600 Tb599 2.660 . S
N600 C601 1.305 . S
C601 N600 1.305 . S
C601 C603 1.407 . S
C601 H608 0.930 . S
C602 C590 1.410 . S
C602 C603 1.345 . S
C602 H610 0.930 . S
C603 C601 1.407 . S
C603 C602 1.345 . S
C603 H605 0.930 . S
H604 C597 0.930 . S
H605 C603 0.930 . S
H606 C594 0.930 . S
H607 C595 0.931 . S
H608 C601 0.930 . S
H609 C623 0.930 . S
H610 C602 0.930 . S
H611 C629 0.930 . S
H612 C620 0.930 . S
H613 C627 0.931 . S
H614 C591 0.929 . S
H615 C621 0.930 . S
H616 C654 0.930 . S
H617 C598 0.930 . S
H618 C653 0.929 . S
N619 Tb588 2.660 . S
N619 C620 1.305 . S
N619 C624 1.360 . S
C620 H612 0.930 . S
C620 N619 1.305 . S
C620 C623 1.407 . S
C621 H615 0.930 . S
C621 C622 1.410 . S
C621 C623 1.345 . S
C622 C621 1.410 . S
C622 C624 1.417 . S
C622 C654 1.432 . S
C623 H609 0.930 . S
C623 C620 1.407 . S
C623 C621 1.345 . S
C624 N619 1.360 . S
C624 C622 1.417 . S
C624 C628 1.432 . S
H625 C630 0.930 . S
N626 Tb588 2.600 . S
N626 C628 1.359 . S
N626 C629 1.327 . S
C627 H613 0.931 . S
C627 C629 1.392 . S
C627 C630 1.370 . S
C628 C624 1.432 . S
C628 N626 1.359 . S
C628 C631 1.414 . S
C629 H611 0.930 . S
C629 N626 1.327 . S
C629 C627 1.392 . S
C630 H625 0.930 . S
C630 C627 1.370 . S
C630 C631 1.385 . S
C631 C628 1.414 . S
C631 C630 1.385 . S
C631 C653 1.444 . S
O632 Tb588 2.546 . S
O632 C652 1.251 . S
O633 Tb588 2.610 . S
O633 Tb599 2.362 . S
O633 C644 1.283 . S
O634 Tb599 2.421 . S
O634 C651 1.262 . S
O635 Tb588 2.320 . S
O635 C651 1.260 . S
O636 Tb588 2.552 . S
O636 C644 1.243 . S
O637 Tb588 2.413 . S
O637 C652 1.256 . S
O638 Tb599 2.546 . S
O638 C663 1.251 . S
O639 Tb588 2.362 . S
O639 Tb599 2.610 . S
O639 C655 1.283 . S
O640 Tb588 2.421 . S
O640 C662 1.262 . S
O641 Tb599 2.320 . S
O641 C662 1.260 . S
O642 Tb599 2.552 . S
O642 C655 1.243 . S
O643 Tb599 2.413 . S
O643 C663 1.256 . S
C644 O633 1.283 . S
C644 O636 1.243 . S
C645 C647 1.382 . S
C645 C649 1.393 . S
C645 C652 1.500 . S
C646 C647 1.400 . S
C646 C648 1.384 . S
C647 C645 1.382 . S
C647 C646 1.400 . S
C647 H664 0.930 . S
C648 C646 1.384 . S
C648 C650 1.392 . S
C648 H665 0.931 . S
C649 C645 1.393 . S
C649 C650 1.401 . S
C649 H666 0.930 . S
C650 C648 1.392 . S
C650 C649 1.401 . S
C650 H667 0.930 . S
C651 O634 1.262 . S
C651 O635 1.260 . S
C652 Tb588 2.833 . S
C652 O632 1.251 . S
C652 O637 1.256 . S
C652 C645 1.500 . S
C653 H618 0.929 . S
C653 C631 1.444 . S
C653 C654 1.317 . S
C654 H616 0.930 . S
C654 C622 1.432 . S
C654 C653 1.317 . S
C655 O639 1.283 . S
C655 O642 1.243 . S
C656 C657 1.382 . S
C656 C660 1.393 . S
C656 C663 1.500 . S
C657 C656 1.382 . S
C657 C658 1.400 . S
C657 H668 0.930 . S
C658 C657 1.400 . S
C658 C659 1.384 . S
C659 C658 1.384 . S
C659 C661 1.392 . S
C659 H669 0.931 . S
C660 C656 1.393 . S
C660 C661 1.401 . S
C660 H670 0.930 . S
C661 C659 1.392 . S
C661 C660 1.401 . S
C661 H671 0.930 . S
C662 O640 1.262 . S
C662 O641 1.260 . S
C663 Tb599 2.833 . S
C663 O638 1.251 . S
C663 O643 1.256 . S
C663 C656 1.500 . S
H664 C647 0.930 . S
H665 C648 0.931 . S
H666 C649 0.930 . S
H667 C650 0.930 . S
H668 C657 0.930 . S
H669 C659 0.931 . S
H670 C660 0.930 . S
H671 C661 0.930 . S
H672 C678 0.930 . S
H673 C682 0.930 . S
H674 C687 0.929 . S
H675 C685 0.929 . S
H676 C680 0.929 . S
H677 C686 0.929 . S
C678 H672 0.930 . S
C678 C679 1.367 . S
C678 C686 1.378 . S
C679 C678 1.367 . S
C679 C687 1.433 1_554 S
C680 H676 0.929 . S
C680 C682 1.378 . S
C680 C684 1.350 1_556 S
C681 C684 1.463 . S
C681 C686 1.350 . S
C681 N689 1.427 1_554 S
C682 H673 0.930 . S
C682 C680 1.378 . S
C682 C683 1.378 . S
C683 C682 1.378 . S
C683 C685 1.420 1_556 S
C684 C680 1.350 1_554 S
C684 C681 1.463 . S
C684 N688 1.427 . S
C685 H675 0.929 . S
C685 C683 1.420 1_554 S
C685 N688 1.384 . S
C686 H677 0.929 . S
C686 C678 1.378 . S
C686 C681 1.350 . S
C687 H674 0.929 . S
C687 C679 1.433 1_556 S
C687 N689 1.384 . S
N688 C684 1.427 . S
N688 C685 1.384 . S
N689 C681 1.427 1_556 S
N689 C687 1.384 . S
H690 C696 0.930 . S
H691 C700 0.930 . S
H692 C705 0.929 . S
H693 C703 0.929 . S
H694 C698 0.929 . S
H695 C704 0.929 . S
C696 H690 0.930 . S
C696 C697 1.367 . S
C696 C704 1.378 . S
C697 C696 1.367 . S
C697 C705 1.433 1_554 S
C698 H694 0.929 . S
C698 C700 1.378 . S
C698 C702 1.350 1_556 S
C699 C702 1.463 . S
C699 C704 1.350 . S
C699 N707 1.427 1_554 S
C700 H691 0.930 . S
C700 C698 1.378 . S
C700 C701 1.367 1_556 S
C701 C700 1.367 1_554 S
C701 C703 1.433 . S
C702 C698 1.350 1_554 S
C702 C699 1.463 . S
C702 N706 1.427 . S
C703 H693 0.929 . S
C703 C701 1.433 . S
C703 N706 1.384 . S
C704 H695 0.929 . S
C704 C696 1.378 . S
C704 C699 1.350 . S
C705 H692 0.929 . S
C705 C697 1.433 1_556 S
C705 N707 1.384 . S
N706 C702 1.427 . S
N706 C703 1.384 . S
N707 C699 1.427 1_556 S
N707 C705 1.384 . S
H708 C714 0.930 . S
H709 C718 0.930 . S
H710 C723 0.929 . S
H711 C721 0.929 . S
H712 C716 0.929 . S
H713 C722 0.929 . S
C714 H708 0.930 . S
C714 C715 1.367 . S
C714 C722 1.378 . S
C715 C714 1.367 . S
C715 C723 1.433 . S
C716 H712 0.929 . S
C716 C718 1.378 . S
C716 C720 1.350 . S
C717 C720 1.463 . S
C717 C722 1.350 . S
C717 N725 1.427 . S
C718 H709 0.930 . S
C718 C716 1.378 . S
C718 C719 1.367 . S
C719 C718 1.367 . S
C719 C721 1.433 . S
C720 C716 1.350 . S
C720 C717 1.463 . S
C720 N724 1.427 . S
C721 H711 0.929 . S
C721 C719 1.433 . S
C721 N724 1.384 . S
C722 H713 0.929 . S
C722 C714 1.378 . S
C722 C717 1.350 . S
C723 H710 0.929 . S
C723 C715 1.433 . S
C723 N725 1.384 . S
N724 C720 1.427 . S
N724 C721 1.384 . S
N725 C717 1.427 . S
N725 C723 1.384 . S
H726 C732 0.930 . S
H727 C736 0.930 . S
H728 C741 0.929 . S
H729 C739 0.929 . S
H730 C734 0.929 . S
H731 C740 0.929 . S
C732 H726 0.930 . S
C732 C733 1.367 . S
C732 C740 1.378 . S
C733 C732 1.367 . S
C733 C741 1.433 . S
C734 H730 0.929 . S
C734 C736 1.378 . S
C734 C738 1.350 . S
C735 C738 1.463 . S
C735 C740 1.350 . S
C735 N743 1.427 . S
C736 H727 0.930 . S
C736 C734 1.378 . S
C736 C737 1.367 . S
C737 C736 1.367 . S
C737 C739 1.433 . S
C738 C734 1.350 . S
C738 C735 1.463 . S
C738 N742 1.427 . S
C739 H729 0.929 . S
C739 C737 1.433 . S
C739 N742 1.384 . S
C740 H731 0.929 . S
C740 C732 1.378 . S
C740 C735 1.350 . S
C741 H728 0.929 . S
C741 C733 1.433 . S
C741 N743 1.384 . S
N742 C738 1.427 . S
N742 C739 1.384 . S
N743 C735 1.427 . S
N743 C741 1.384 . S
H744 C750 0.930 . S
H745 C754 0.930 . S
H746 C759 0.929 . S
H747 C757 0.929 . S
H748 C752 0.929 . S
H749 C758 0.929 . S
C750 H744 0.930 . S
C750 C751 1.367 . S
C750 C758 1.378 . S
C751 C750 1.367 . S
C751 C759 1.433 1_554 S
C752 H748 0.929 . S
C752 C754 1.378 . S
C752 C756 1.350 1_556 S
C753 C756 1.463 . S
C753 C758 1.350 1_455 S
C753 N761 1.427 1_454 S
C754 H745 0.930 . S
C754 C752 1.378 . S
C754 C755 1.372 . S
C755 C754 1.372 . S
C755 C757 1.426 1_556 S
C756 C752 1.350 1_554 S
C756 C753 1.463 . S
C756 N760 1.427 . S
C757 H747 0.929 . S
C757 C755 1.426 1_554 S
C757 N760 1.384 . S
C758 H749 0.929 . S
C758 C750 1.378 . S
C758 C753 1.350 1_655 S
C759 H746 0.929 . S
C759 C751 1.433 1_556 S
C759 N761 1.384 . S
N760 C756 1.427 . S
N760 C757 1.384 . S
N761 C753 1.427 1_656 S
N761 C759 1.384 . S
H762 C768 0.930 . S
H763 C772 0.930 . S
H764 C777 0.929 . S
H765 C775 0.929 . S
H766 C770 0.929 . S
H767 C776 0.929 1_655 S
C768 H762 0.930 . S
C768 C769 1.367 1_556 S
C768 C776 1.378 . S
C769 C768 1.367 1_554 S
C769 C777 1.433 . S
C770 H766 0.929 . S
C770 C772 1.378 . S
C770 C774 1.350 . S
C771 C774 1.463 . S
C771 C776 1.350 1_654 S
C771 N779 1.427 1_655 S
C772 H763 0.930 . S
C772 C770 1.378 . S
C772 C773 1.367 . S
C773 C772 1.367 . S
C773 C775 1.433 1_554 S
C774 C770 1.350 . S
C774 C771 1.463 . S
C774 N778 1.427 1_554 S
C775 H765 0.929 . S
C775 C773 1.433 1_556 S
C775 N778 1.384 . S
C776 H767 0.929 1_455 S
C776 C768 1.378 . S
C776 C771 1.350 1_456 S
C777 H764 0.929 . S
C777 C769 1.433 . S
C777 N779 1.384 . S
N778 C774 1.427 1_556 S
N778 C775 1.384 . S
N779 C771 1.427 1_455 S
N779 C777 1.384 . S
H780 C786 0.930 . S
H781 C790 0.930 . S
H782 C795 0.929 . S
H783 C793 0.929 . S
H784 C788 0.929 . S
H785 C794 0.929 . S
C786 H780 0.930 . S
C786 C787 1.367 . S
C786 C794 1.378 . S
C787 C786 1.367 . S
C787 C795 1.433 . S
C788 H784 0.929 . S
C788 C790 1.378 . S
C788 C792 1.350 1_655 S
C789 C792 1.463 . S
C789 C794 1.350 . S
C789 N797 1.427 . S
C790 H781 0.930 . S
C790 C788 1.378 . S
C790 C791 1.367 . S
C791 C790 1.367 . S
C791 C793 1.433 . S
C792 C788 1.350 1_455 S
C792 C789 1.463 . S
C792 N796 1.427 1_455 S
C793 H783 0.929 . S
C793 C791 1.433 . S
C793 N796 1.384 . S
C794 H785 0.929 . S
C794 C786 1.378 . S
C794 C789 1.350 . S
C795 H782 0.929 . S
C795 C787 1.433 . S
C795 N797 1.384 . S
N796 C792 1.427 1_655 S
N796 C793 1.384 . S
N797 C789 1.427 . S
N797 C795 1.384 . S
H798 C804 0.930 . S
H799 C808 0.930 . S
H800 C813 0.929 . S
H801 C811 0.929 . S
H802 C806 0.929 1_655 S
H803 C812 0.929 . S
C804 H798 0.930 . S
C804 C805 1.367 . S
C804 C812 1.378 . S
C805 C804 1.367 . S
C805 C813 1.433 . S
C806 H802 0.929 1_455 S
C806 C808 1.378 . S
C806 C810 1.350 1_455 S
C807 C810 1.463 . S
C807 C812 1.350 . S
C807 N815 1.427 . S
C808 H799 0.930 . S
C808 C806 1.378 . S
C808 C809 1.367 . S
C809 C808 1.367 . S
C809 C811 1.433 . S
C810 C806 1.350 1_655 S
C810 C807 1.463 . S
C810 N814 1.427 1_655 S
C811 H801 0.929 . S
C811 C809 1.433 . S
C811 N814 1.384 . S
C812 H803 0.929 . S
C812 C804 1.378 . S
C812 C807 1.350 . S
C813 H800 0.929 . S
C813 C805 1.433 . S
C813 N815 1.384 . S
N814 C810 1.427 1_455 S
N814 C811 1.384 . S
N815 C807 1.427 . S
N815 C813 1.384 . S
H816 C822 0.930 . S
H817 C826 0.930 . S
H818 C831 0.929 . S
H819 C829 0.929 . S
H820 C824 0.929 1_455 S
H821 C830 0.929 1_655 S
C822 H816 0.930 . S
C822 C823 1.367 . S
C822 C830 1.378 . S
C823 C822 1.367 . S
C823 C831 1.433 1_554 S
C824 H820 0.929 1_655 S
C824 C826 1.378 . S
C824 C828 1.350 1_556 S
C825 C828 1.463 1_455 S
C825 C830 1.350 . S
C825 N833 1.427 1_554 S
C826 H817 0.930 . S
C826 C824 1.378 . S
C826 C827 1.367 1_556 S
C827 C826 1.367 1_554 S
C827 C829 1.433 . S
C828 C824 1.350 1_554 S
C828 C825 1.463 1_655 S
C828 N832 1.427 . S
C829 H819 0.929 . S
C829 C827 1.433 . S
C829 N832 1.384 . S
C830 H821 0.929 1_455 S
C830 C822 1.378 . S
C830 C825 1.350 . S
C831 H818 0.929 . S
C831 C823 1.433 1_556 S
C831 N833 1.384 . S
N832 C828 1.427 . S
N832 C829 1.384 . S
N833 C825 1.427 1_556 S
N833 C831 1.384 . S
H834 C840 0.930 . S
H835 C844 0.930 . S
H836 C849 0.929 1_655 S
H837 C847 0.929 1_455 S
H838 C842 0.929 . S
H839 C848 0.929 . S
C840 H834 0.930 . S
C840 C841 1.367 . S
C840 C848 1.378 . S
C841 C840 1.367 . S
C841 C849 1.433 . S
C842 H838 0.929 . S
C842 C844 1.378 . S
C842 C846 1.350 . S
C843 C846 1.463 1_455 S
C843 C848 1.350 . S
C843 N851 1.427 1_455 S
C844 H835 0.930 . S
C844 C842 1.378 . S
C844 C845 1.367 . S
C845 C844 1.367 . S
C845 C847 1.433 . S
C846 C842 1.350 . S
C846 C843 1.463 1_655 S
C846 N850 1.427 1_655 S
C847 H837 0.929 1_655 S
C847 C845 1.433 . S
C847 N850 1.384 1_655 S
C848 H839 0.929 . S
C848 C840 1.378 . S
C848 C843 1.350 . S
C849 H836 0.929 1_455 S
C849 C841 1.433 . S
C849 N851 1.384 1_455 S
N850 C846 1.427 1_455 S
N850 C847 1.384 1_455 S
N851 C843 1.427 1_655 S
N851 C849 1.384 1_655 S
H852 C858 0.930 . S
H853 C862 0.930 . S
H854 C867 0.929 . S
H855 C865 0.929 . S
H856 C860 0.929 . S
H857 C866 0.929 . S
C858 H852 0.930 . S
C858 C859 1.367 . S
C858 C866 1.378 . S
C859 C858 1.367 . S
C859 C867 1.433 1_554 S
C860 H856 0.929 . S
C860 C862 1.378 . S
C860 C864 1.350 1_556 S
C861 C864 1.463 1_565 S
C861 C866 1.350 . S
C861 N869 1.427 1_554 S
C862 H853 0.930 . S
C862 C860 1.378 . S
C862 C863 1.367 1_556 S
C863 C862 1.367 1_554 S
C863 C865 1.433 . S
C864 C860 1.350 1_554 S
C864 C861 1.463 1_545 S
C864 N868 1.427 . S
C865 H855 0.929 . S
C865 C863 1.433 . S
C865 N868 1.384 . S
C866 H857 0.929 . S
C866 C858 1.378 . S
C866 C861 1.350 . S
C867 H854 0.929 . S
C867 C859 1.433 1_556 S
C867 N869 1.384 . S
N868 C864 1.427 . S
N868 C865 1.384 . S
N869 C861 1.427 1_556 S
N869 C867 1.384 . S
H870 C876 0.930 . S
H871 C880 0.930 . S
H872 C885 0.929 . S
H873 C883 0.929 . S
H874 C878 0.895 1_545 S
H875 C884 0.895 1_565 S
C876 H870 0.930 . S
C876 C877 1.367 . S
C876 C884 1.378 . S
C877 C876 1.367 . S
C877 C885 1.433 . S
C878 H874 0.895 1_565 S
C878 C880 1.378 . S
C878 C882 1.350 . S
C879 C882 1.463 1_545 S
C879 C884 1.350 . S
C879 N887 1.427 . S
C880 H871 0.930 . S
C880 C878 1.378 . S
C880 C881 1.367 . S
C881 C880 1.367 . S
C881 C883 1.433 . S
C882 C878 1.350 . S
C882 C879 1.463 1_565 S
C882 N886 1.427 . S
C883 H873 0.929 . S
C883 C881 1.433 . S
C883 N886 1.384 . S
C884 H875 0.895 1_545 S
C884 C876 1.378 . S
C884 C879 1.350 . S
C885 H872 0.929 . S
C885 C877 1.433 . S
C885 N887 1.384 . S
N886 C882 1.427 . S
N886 C883 1.384 . S
N887 C879 1.427 . S
N887 C885 1.384 . S
H888 C894 0.930 . S
H889 C898 0.930 . S
H890 C903 0.929 . S
H891 C901 0.929 . S
H892 C896 0.929 . S
H893 C902 0.929 . S
C894 H888 0.930 . S
C894 C895 1.367 1_556 S
C894 C902 1.378 . S
C895 C894 1.367 1_554 S
C895 C903 1.433 . S
C896 H892 0.929 . S
C896 C898 1.378 . S
C896 C900 1.350 . S
C897 C900 1.463 . S
C897 C902 1.350 1_554 S
C897 N905 1.427 . S
C898 H889 0.930 . S
C898 C896 1.378 . S
C898 C899 1.367 . S
C899 C898 1.367 . S
C899 C901 1.433 1_554 S
C900 C896 1.350 . S
C900 C897 1.463 . S
C900 N904 1.427 1_554 S
C901 H891 0.929 . S
C901 C899 1.433 1_556 S
C901 N904 1.384 . S
C902 H893 0.929 . S
C902 C894 1.378 . S
C902 C897 1.350 1_556 S
C903 H890 0.929 . S
C903 C895 1.433 . S
C903 N905 1.384 . S
N904 C900 1.427 1_556 S
N904 C901 1.384 . S
N905 C897 1.427 . S
N905 C903 1.384 . S
H906 C912 0.930 . S
H907 C916 0.930 . S
H908 C921 0.929 . S
H909 C919 0.929 . S
H910 C914 0.929 . S
H911 C920 0.929 . S
C912 H906 0.930 . S
C912 C913 1.367 1_556 S
C912 C920 1.378 . S
C913 C912 1.367 1_554 S
C913 C921 1.433 . S
C914 H910 0.929 . S
C914 C916 1.378 . S
C914 C918 1.350 . S
C915 C918 1.463 . S
C915 C920 1.350 1_554 S
C915 N923 1.427 . S
C916 H907 0.930 . S
C916 C914 1.378 . S
C916 C917 1.367 . S
C917 C916 1.367 . S
C917 C919 1.433 1_554 S
C918 C914 1.350 . S
C918 C915 1.463 . S
C918 N922 1.427 1_554 S
C919 H909 0.929 . S
C919 C917 1.433 1_556 S
C919 N922 1.384 . S
C920 H911 0.929 . S
C920 C912 1.378 . S
C920 C915 1.350 1_556 S
C921 H908 0.929 . S
C921 C913 1.433 . S
C921 N923 1.384 . S
N922 C918 1.427 1_556 S
N922 C919 1.384 . S
N923 C915 1.427 . S
N923 C921 1.384 . S
H924 C930 0.930 . S
H925 C934 0.930 . S
H926 C939 0.929 . S
H927 C937 0.929 . S
H928 C932 0.929 . S
H929 C938 0.929 . S
C930 H924 0.930 . S
C930 C931 1.367 . S
C930 C938 1.378 . S
C931 C930 1.367 . S
C931 C939 1.433 . S
C932 H928 0.929 . S
C932 C934 1.378 . S
C932 C936 1.350 . S
C933 C936 1.463 . S
C933 C938 1.350 . S
C933 N941 1.427 . S
C934 H925 0.930 . S
C934 C932 1.378 . S
C934 C935 1.367 . S
C935 C934 1.367 . S
C935 C937 1.433 . S
C936 C932 1.350 . S
C936 C933 1.463 . S
C936 N940 1.427 . S
C937 H927 0.929 . S
C937 C935 1.433 . S
C937 N940 1.384 . S
C938 H929 0.929 . S
C938 C930 1.378 . S
C938 C933 1.350 . S
C939 H926 0.929 . S
C939 C931 1.433 . S
C939 N941 1.384 . S
N940 C936 1.427 . S
N940 C937 1.384 . S
N941 C933 1.427 . S
N941 C939 1.384 . S
H942 C948 0.930 . S
H943 C952 0.930 . S
H944 C957 0.929 . S
H945 C955 0.929 . S
H946 C950 0.929 . S
H947 C956 0.929 . S
C948 H942 0.930 . S
C948 C949 1.367 . S
C948 C956 1.378 . S
C949 C948 1.367 . S
C949 C957 1.433 . S
C950 H946 0.929 . S
C950 C952 1.378 . S
C950 C954 1.350 . S
C951 C954 1.463 . S
C951 C956 1.350 . S
C951 N959 1.427 . S
C952 H943 0.930 . S
C952 C950 1.378 . S
C952 C953 1.367 . S
C953 C952 1.367 . S
C953 C955 1.433 . S
C954 C950 1.350 . S
C954 C951 1.463 . S
C954 N958 1.427 . S
C955 H945 0.929 . S
C955 C953 1.433 . S
C955 N958 1.384 . S
C956 H947 0.929 . S
C956 C948 1.378 . S
C956 C951 1.350 . S
C957 H944 0.929 . S
C957 C949 1.433 . S
C957 N959 1.384 . S
N958 C954 1.427 . S
N958 C955 1.384 . S
N959 C951 1.427 . S
N959 C957 1.384 . S
H960 C966 0.930 . S
H961 C970 0.930 . S
H962 C975 0.929 . S
H963 C973 0.929 . S
H964 C968 0.929 . S
H965 C974 0.929 . S
C966 H960 0.930 . S
C966 C967 1.367 . S
C966 C974 1.378 . S
C967 C966 1.367 . S
C967 C975 1.433 . S
C968 H964 0.929 . S
C968 C970 1.378 . S
C968 C972 1.350 . S
C969 C972 1.463 . S
C969 C974 1.350 . S
C969 N977 1.427 . S
C970 H961 0.930 . S
C970 C968 1.378 . S
C970 C971 1.367 1_455 S
C971 C970 1.367 1_655 S
C971 C973 1.433 . S
C972 C968 1.350 . S
C972 C969 1.463 . S
C972 N976 1.427 1_455 S
C973 H963 0.929 . S
C973 C971 1.433 . S
C973 N976 1.384 . S
C974 H965 0.929 . S
C974 C966 1.378 . S
C974 C969 1.350 . S
C975 H962 0.929 . S
C975 C967 1.433 . S
C975 N977 1.384 . S
N976 C972 1.427 1_655 S
N976 C973 1.384 . S
N977 C969 1.427 . S
N977 C975 1.384 . S
H978 C984 0.930 . S
H979 C988 0.930 . S
H980 C993 0.929 . S
H981 C991 0.929 . S
H982 C986 0.929 . S
H983 C992 0.929 . S
C984 H978 0.930 . S
C984 C985 1.367 1_455 S
C984 C992 1.378 . S
C985 C984 1.367 1_655 S
C985 C993 1.433 . S
C986 H982 0.929 . S
C986 C988 1.378 . S
C986 C990 1.350 1_655 S
C987 C990 1.463 . S
C987 C992 1.350 . S
C987 N995 1.427 1_455 S
C988 H979 0.930 . S
C988 C986 1.378 . S
C988 C989 1.367 1_655 S
C989 C988 1.367 1_455 S
C989 C991 1.433 . S
C990 C986 1.350 1_455 S
C990 C987 1.463 . S
C990 N994 1.427 . S
C991 H981 0.929 . S
C991 C989 1.433 . S
C991 N994 1.384 . S
C992 H983 0.929 . S
C992 C984 1.378 . S
C992 C987 1.350 . S
C993 H980 0.929 . S
C993 C985 1.433 . S
C993 N995 1.384 . S
N994 C990 1.427 . S
N994 C991 1.384 . S
N995 C987 1.427 1_655 S
N995 C993 1.384 . S
H996 C1002 0.930 . S
H997 C1006 0.930 . S
H998 C1011 0.929 . S
H999 C1009 0.929 . S
H1000 C1004 0.929 . S
H1001 C1010 0.929 1_455 S
C1002 H996 0.930 . S
C1002 C1003 1.367 . S
C1002 C1010 1.378 . S
C1003 C1002 1.367 . S
C1003 C1011 1.433 . S
C1004 H1000 0.929 . S
C1004 C1006 1.378 . S
C1004 C1008 1.350 . S
C1005 C1008 1.463 . S
C1005 C1010 1.350 . S
C1005 N1013 1.427 . S
C1006 H997 0.930 . S
C1006 C1004 1.378 . S
C1006 C1007 1.367 1_655 S
C1007 C1006 1.367 1_455 S
C1007 C1009 1.433 . S
C1008 C1004 1.350 . S
C1008 C1005 1.463 . S
C1008 N1012 1.427 1_655 S
C1009 H999 0.929 . S
C1009 C1007 1.433 . S
C1009 N1012 1.384 . S
C1010 H1001 0.929 1_655 S
C1010 C1002 1.378 . S
C1010 C1005 1.350 . S
C1011 H998 0.929 . S
C1011 C1003 1.433 . S
C1011 N1013 1.384 . S
N1012 C1008 1.427 1_455 S
N1012 C1009 1.384 . S
N1013 C1005 1.427 . S
N1013 C1011 1.384 . S
H1014 C1020 0.930 . S
H1015 C1024 0.930 . S
H1016 C1029 0.929 . S
H1017 C1027 0.929 . S
H1018 C1022 0.929 . S
H1019 C1028 0.929 . S
C1020 H1014 0.930 . S
C1020 C1021 1.367 . S
C1020 C1028 1.378 . S
C1021 C1020 1.367 . S
C1021 C1029 1.433 . S
C1022 H1018 0.929 . S
C1022 C1024 1.378 . S
C1022 C1026 1.350 1_455 S
C1023 C1026 1.463 . S
C1023 C1028 1.350 . S
C1023 N1031 1.427 . S
C1024 H1015 0.930 . S
C1024 C1022 1.378 . S
C1024 C1025 1.367 . S
C1025 C1024 1.367 . S
C1025 C1027 1.433 1_455 S
C1026 C1022 1.350 1_655 S
C1026 C1023 1.463 . S
C1026 N1030 1.427 . S
C1027 H1017 0.929 . S
C1027 C1025 1.433 1_655 S
C1027 N1030 1.384 . S
C1028 H1019 0.929 . S
C1028 C1020 1.378 . S
C1028 C1023 1.350 . S
C1029 H1016 0.929 . S
C1029 C1021 1.433 . S
C1029 N1031 1.384 . S
N1030 C1026 1.427 . S
N1030 C1027 1.384 . S
N1031 C1023 1.427 . S
N1031 C1029 1.384 . S
H1032 C1038 0.930 . S
H1033 C1042 0.930 . S
H1034 C1047 0.929 . S
H1035 C1045 0.929 . S
H1036 C1040 0.929 . S
H1037 C1046 0.929 . S
C1038 H1032 0.930 . S
C1038 C1039 1.367 . S
C1038 C1046 1.378 . S
C1039 C1038 1.367 . S
C1039 C1047 1.433 . S
C1040 H1036 0.929 . S
C1040 C1042 1.378 . S
C1040 C1044 1.350 . S
C1041 C1044 1.463 . S
C1041 C1046 1.350 . S
C1041 N1049 1.427 . S
C1042 H1033 0.930 . S
C1042 C1040 1.378 . S
C1042 C1043 1.367 . S
C1043 C1042 1.367 . S
C1043 C1045 1.433 . S
C1044 C1040 1.350 . S
C1044 C1041 1.463 . S
C1044 N1048 1.427 . S
C1045 H1035 0.929 . S
C1045 C1043 1.433 . S
C1045 N1048 1.384 . S
C1046 H1037 0.929 . S
C1046 C1038 1.378 . S
C1046 C1041 1.350 . S
C1047 H1034 0.929 . S
C1047 C1039 1.433 . S
C1047 N1049 1.384 . S
N1048 C1044 1.427 . S
N1048 C1045 1.384 . S
N1049 C1041 1.427 . S
N1049 C1047 1.384 . S
H1050 C1056 0.930 . S
H1051 C1060 0.930 . S
H1052 C1065 0.929 . S
H1053 C1063 0.929 . S
H1054 C1058 0.929 . S
H1055 C1064 0.929 . S
C1056 H1050 0.930 . S
C1056 C1057 1.367 . S
C1056 C1064 1.378 . S
C1057 C1056 1.367 . S
C1057 C1065 1.433 . S
C1058 H1054 0.929 . S
C1058 C1060 1.378 . S
C1058 C1062 1.350 . S
C1059 C1062 1.463 . S
C1059 C1064 1.350 . S
C1059 N1067 1.427 . S
C1060 H1051 0.930 . S
C1060 C1058 1.378 . S
C1060 C1061 1.367 . S
C1061 C1060 1.367 . S
C1061 C1063 1.433 . S
C1062 C1058 1.350 . S
C1062 C1059 1.463 . S
C1062 N1066 1.427 . S
C1063 H1053 0.929 . S
C1063 C1061 1.433 . S
C1063 N1066 1.384 . S
C1064 H1055 0.929 . S
C1064 C1056 1.378 . S
C1064 C1059 1.350 . S
C1065 H1052 0.929 . S
C1065 C1057 1.433 . S
C1065 N1067 1.384 . S
N1066 C1062 1.427 . S
N1066 C1063 1.384 . S
N1067 C1059 1.427 . S
N1067 C1065 1.384 . S
H1068 C1074 0.930 . S
H1069 C1078 0.930 . S
H1070 C1083 0.929 . S
H1071 C1081 0.929 . S
H1072 C1076 0.929 . S
H1073 C1082 0.929 . S
C1074 H1068 0.930 . S
C1074 C1075 1.367 . S
C1074 C1082 1.378 . S
C1075 C1074 1.367 . S
C1075 C1083 1.433 . S
C1076 H1072 0.929 . S
C1076 C1078 1.378 . S
C1076 C1080 1.350 . S
C1077 C1080 1.463 . S
C1077 C1082 1.350 . S
C1077 N1085 1.427 . S
C1078 H1069 0.930 . S
C1078 C1076 1.378 . S
C1078 C1079 1.367 . S
C1079 C1078 1.367 . S
C1079 C1081 1.433 . S
C1080 C1076 1.350 . S
C1080 C1077 1.463 . S
C1080 N1084 1.427 . S
C1081 H1071 0.929 . S
C1081 C1079 1.433 . S
C1081 N1084 1.384 . S
C1082 H1073 0.929 . S
C1082 C1074 1.378 . S
C1082 C1077 1.350 . S
C1083 H1070 0.929 . S
C1083 C1075 1.433 . S
C1083 N1085 1.384 . S
N1084 C1080 1.427 . S
N1084 C1081 1.384 . S
N1085 C1077 1.427 . S
N1085 C1083 1.384 . S
H1086 C1092 0.930 . S
H1087 C1096 0.930 . S
H1088 C1101 0.929 . S
H1089 C1099 0.929 . S
H1090 C1094 0.929 . S
H1091 C1100 0.929 . S
C1092 H1086 0.930 . S
C1092 C1093 1.367 . S
C1092 C1100 1.378 . S
C1093 C1092 1.367 . S
C1093 C1101 1.433 . S
C1094 H1090 0.929 . S
C1094 C1096 1.378 . S
C1094 C1098 1.350 . S
C1095 C1098 1.463 . S
C1095 C1100 1.350 . S
C1095 N1103 1.427 . S
C1096 H1087 0.930 . S
C1096 C1094 1.378 . S
C1096 C1097 1.367 . S
C1097 C1096 1.367 . S
C1097 C1099 1.433 . S
C1098 C1094 1.350 . S
C1098 C1095 1.463 . S
C1098 N1102 1.427 . S
C1099 H1089 0.929 . S
C1099 C1097 1.433 . S
C1099 N1102 1.384 . S
C1100 H1091 0.929 . S
C1100 C1092 1.378 . S
C1100 C1095 1.350 . S
C1101 H1088 0.929 . S
C1101 C1093 1.433 . S
C1101 N1103 1.384 . S
N1102 C1098 1.427 . S
N1102 C1099 1.384 . S
N1103 C1095 1.427 . S
N1103 C1101 1.384 . S
C679 C67 2.086 . S
C683 C56 2.086 1_556 S
C697 C151 2.087 . S
C701 C140 2.087 . S
C715 C224 2.089 . S
C719 C235 2.089 . S
C733 C308 2.088 . S
C737 C319 2.088 . S
C751 C403 2.088 . S
C755 C392 2.088 1_556 S
C769 C476 2.088 . S
C773 C487 2.088 . S
C787 C560 2.088 . S
C791 C571 2.088 . S
C805 C655 2.088 . S
C809 C644 2.088 . S
C823 C154 1.803 1_554 S
C827 C58 1.803 . S
C841 C322 1.796 . S
C845 C226 1.796 . S
C859 C394 1.787 . S
C863 C490 1.787 1_554 S
C877 C562 1.788 . S
C881 C658 1.788 . S
C895 C70 1.392 1_554 S
C899 C478 1.392 . S
C913 C406 1.387 1_554 S
C917 C142 1.387 . S
C931 C238 1.400 . S
C935 C646 1.400 . S
C949 C310 1.408 . S
C953 C574 1.408 . S
C967 C74 1.506 . S
C971 C326 1.593 . S
C985 C158 1.598 . S
C989 C242 1.502 . S
C1003 C147 1.506 . S
C1007 C231 1.597 . S
C1021 C315 1.510 . S
C1025 C63 1.592 . S
C1039 C410 1.514 . S
C1043 C662 1.594 . S
C1057 C494 1.591 . S
C1061 C578 1.518 . S
C1075 C483 1.500 . S
C1079 C567 1.597 . S
C1093 C651 1.504 . S
C1097 C399 1.597 . S
