# Generated by pormake.
# Topology wlc, (5)-cn, num edge types: 1
# Building blocks:
#     Node 0, Type 0, BuildingBlock: BEQFEK_clean_sbu_0, # of connection points: 5
#     Node 1, Type 0, BuildingBlock: BEQFEK_clean_sbu_0, # of connection points: 5
#     Node 2, Type 0, BuildingBlock: BEQFEK_clean_sbu_0, # of connection points: 5
#     Node 3, Type 0, BuildingBlock: BEQFEK_clean_sbu_0, # of connection points: 5
#     Node 4, Type 0, BuildingBlock: BEQFEK_clean_sbu_0, # of connection points: 5
#     Node 5, Type 0, BuildingBlock: BEQFEK_clean_sbu_0, # of connection points: 5
#     Node 6, Type 0, BuildingBlock: BEQFEK_clean_sbu_0, # of connection points: 5
#     Node 7, Type 0, BuildingBlock: BEQFEK_clean_sbu_0, # of connection points: 5
#     Node 8, Type 0, BuildingBlock: BEQFEK_clean_sbu_0, # of connection points: 5
#     Node 9, Type 0, BuildingBlock: BEQFEK_clean_sbu_0, # of connection points: 5
#     Node 10, Type 0, BuildingBlock: BEQFEK_clean_sbu_0, # of connection points: 5
#     Node 11, Type 0, BuildingBlock: BEQFEK_clean_sbu_0, # of connection points: 5
#     Edge 12, Type (0, 0), BuildingBlock: KIFKEQ_clean_linker_1, # of connection points: 2
#     Edge 13, Type (0, 0), BuildingBlock: KIFKEQ_clean_linker_1, # of connection points: 2
#     Edge 14, Type (0, 0), BuildingBlock: KIFKEQ_clean_linker_1, # of connection points: 2
#     Edge 15, Type (0, 0), BuildingBlock: KIFKEQ_clean_linker_1, # of connection points: 2
#     Edge 16, Type (0, 0), BuildingBlock: KIFKEQ_clean_linker_1, # of connection points: 2
#     Edge 17, Type (0, 0), BuildingBlock: KIFKEQ_clean_linker_1, # of connection points: 2
#     Edge 18, Type (0, 0), BuildingBlock: KIFKEQ_clean_linker_1, # of connection points: 2
#     Edge 19, Type (0, 0), BuildingBlock: KIFKEQ_clean_linker_1, # of connection points: 2
#     Edge 20, Type (0, 0), BuildingBlock: KIFKEQ_clean_linker_1, # of connection points: 2
#     Edge 21, Type (0, 0), BuildingBlock: KIFKEQ_clean_linker_1, # of connection points: 2
#     Edge 22, Type (0, 0), BuildingBlock: KIFKEQ_clean_linker_1, # of connection points: 2
#     Edge 23, Type (0, 0), BuildingBlock: KIFKEQ_clean_linker_1, # of connection points: 2
#     Edge 24, Type (0, 0), BuildingBlock: KIFKEQ_clean_linker_1, # of connection points: 2
#     Edge 25, Type (0, 0), BuildingBlock: KIFKEQ_clean_linker_1, # of connection points: 2
#     Edge 26, Type (0, 0), BuildingBlock: KIFKEQ_clean_linker_1, # of connection points: 2
#     Edge 27, Type (0, 0), BuildingBlock: KIFKEQ_clean_linker_1, # of connection points: 2
#     Edge 28, Type (0, 0), BuildingBlock: KIFKEQ_clean_linker_1, # of connection points: 2
#     Edge 29, Type (0, 0), BuildingBlock: KIFKEQ_clean_linker_1, # of connection points: 2
#     Edge 30, Type (0, 0), BuildingBlock: KIFKEQ_clean_linker_1, # of connection points: 2
#     Edge 31, Type (0, 0), BuildingBlock: KIFKEQ_clean_linker_1, # of connection points: 2
#     Edge 32, Type (0, 0), BuildingBlock: KIFKEQ_clean_linker_1, # of connection points: 2
#     Edge 33, Type (0, 0), BuildingBlock: KIFKEQ_clean_linker_1, # of connection points: 2
#     Edge 34, Type (0, 0), BuildingBlock: KIFKEQ_clean_linker_1, # of connection points: 2
#     Edge 35, Type (0, 0), BuildingBlock: KIFKEQ_clean_linker_1, # of connection points: 2
#     Edge 36, Type (0, 0), BuildingBlock: KIFKEQ_clean_linker_1, # of connection points: 2
#     Edge 37, Type (0, 0), BuildingBlock: KIFKEQ_clean_linker_1, # of connection points: 2
#     Edge 38, Type (0, 0), BuildingBlock: KIFKEQ_clean_linker_1, # of connection points: 2
#     Edge 39, Type (0, 0), BuildingBlock: KIFKEQ_clean_linker_1, # of connection points: 2
#     Edge 40, Type (0, 0), BuildingBlock: KIFKEQ_clean_linker_1, # of connection points: 2
#     Edge 41, Type (0, 0), BuildingBlock: KIFKEQ_clean_linker_1, # of connection points: 2
# Relax obj value: 0.786
# Max RMSD: 0.281
# Mean RMSD: 0.281
data_MOF--net-wlc--node1-BEQFEK_clean_sbu_0--edge1-KIFKEQ_clean_linker_1
_symmetry_space_group_name_H-M    P1
_symmetry_Int_Tables_number       1
_symmetry_cell_setting            triclinic
loop_
_symmetry_equiv_pos_as_xyz
'x, y, z'
_cell_length_a     47.654784
_cell_length_b     47.649165
_cell_length_c     30.810307
_cell_angle_alpha  89.898783
_cell_angle_beta   89.984213
_cell_angle_gamma 120.08534
loop_
_atom_site_label
_atom_site_type_symbol
_atom_site_fract_x
_atom_site_fract_y
_atom_site_fract_z
_atom_type_partial_charge
Co0 Co 0.07064 0.41125 0.15148 0.0
Co1 Co 0.04754 0.35202 0.08992 0.0
C2 C 0.10269 0.37166 0.15145 0.0
O3 O 0.099 0.39483 0.16407 0.0
O4 O 0.08597 0.35334 0.12027 0.0
C5 C 0.11746 0.47155 0.18725 0.0
O6 O 0.13827 0.4652 0.16806 0.0
C7 C 0.05175 0.32829 0.00492 0.0
C8 C 0.00423 0.28366 -0.0016 0.0
C9 C 0.03224 0.3043 0.97546 0.0
N10 N 0.03561 0.32252 0.04266 0.0
N11 N 0.00749 0.29542 0.03892 0.0
C12 C 0.08524 0.3564 -0.002 0.0
H13 H 0.09914 0.36236 0.02879 0.0
H14 H 0.0839 0.37808 0.98817 0.0
H15 H 0.0981 0.35086 0.97235 0.0
C16 C 0.06623 0.4431 0.07408 0.0
N17 N 0.06746 0.41822 0.09275 0.0
N18 N 0.05367 0.39266 0.06744 0.0
C19 C 0.04147 0.40021 0.03248 0.0
C20 C 0.04971 0.43265 0.0352 0.0
C21 C 0.0745 0.47396 0.09717 0.0
H22 H 0.0587 0.46833 0.12611 0.0
H23 H 0.10007 0.48591 0.10808 0.0
H24 H 0.07137 0.49109 0.07611 0.0
O25 O 0.02815 0.379 0.17495 0.0
O26 O 0.01251 0.3348 0.1347 0.0
H27 H 0.00259 0.35217 0.01794 0.0
H28 H 0.0017 0.38406 0.98705 0.0
C29 C 0.01766 0.37576 0.00135 0.0
H30 H 0.03099 0.37229 0.97438 0.0
H31 H 0.98984 0.28592 0.06323 0.0
O32 O 0.08726 0.45151 0.18419 0.0
C33 C 0.00831 0.34922 0.16682 0.0
Co34 Co 0.57907 0.67511 0.15396 0.0
Co35 Co 0.64381 0.68808 0.11531 0.0
C36 C 0.62195 0.73808 0.12715 0.0
O37 O 0.59208 0.71685 0.12739 0.0
O38 O 0.64315 0.72946 0.12342 0.0
C39 C 0.51321 0.66035 0.16327 0.0
O40 O 0.51729 0.67328 0.12444 0.0
C41 C 0.67738 0.70393 0.03423 0.0
C42 C 0.71857 0.69594 0.04566 0.0
C43 C 0.70282 0.70322 0.01341 0.0
N44 N 0.67791 0.69707 0.07629 0.0
N45 N 0.70302 0.6931 0.08336 0.0
C46 C 0.65012 0.70645 0.014 0.0
H47 H 0.63031 0.70009 0.03774 0.0
H48 H 0.64049 0.69027 0.98535 0.0
H49 H 0.65923 0.73174 0.00301 0.0
C50 C 0.55288 0.61658 0.09843 0.0
N51 N 0.57711 0.64516 0.11297 0.0
N52 N 0.6047 0.65057 0.09606 0.0
C53 C 0.59891 0.62516 0.07054 0.0
C54 C 0.56579 0.60306 0.07082 0.0
C55 C 0.51849 0.60091 0.11387 0.0
H56 H 0.50664 0.61345 0.09883 0.0
H57 H 0.50453 0.57486 0.10505 0.0
H58 H 0.51792 0.60303 0.14962 0.0
O59 O 0.61097 0.68221 0.20066 0.0
O60 O 0.6537 0.68054 0.17436 0.0
H61 H 0.61599 0.59614 0.03833 0.0
H62 H 0.6316 0.63641 0.01739 0.0
C63 C 0.62465 0.62167 0.04751 0.0
H64 H 0.64643 0.6307 0.06837 0.0
H65 H 0.70835 0.68652 0.11326 0.0
O66 O 0.53663 0.65941 0.18149 0.0
C67 C 0.63782 0.6828 0.20615 0.0
Co68 Co 0.32758 0.91814 0.14923 0.0
Co69 Co 0.30092 0.95608 0.09895 0.0
C70 C 0.25814 0.88891 0.1365 0.0
O71 O 0.28222 0.88545 0.14498 0.0
O72 O 0.26206 0.91501 0.11957 0.0
C73 C 0.34162 0.8682 0.16565 0.0
O74 O 0.32269 0.85469 0.13196 0.0
C75 C 0.27551 0.96084 0.01694 0.0
C76 C 0.28136 0.00977 0.01775 0.0
C77 C 0.27289 0.98323 0.99105 0.0
N78 N 0.28551 0.97372 0.05646 0.0
N79 N 0.28802 0.00259 0.05734 0.0
C80 C 0.27358 0.92984 0.00284 0.0
H81 H 0.28058 0.919 0.0296 0.0
H82 H 0.28957 0.93429 0.97437 0.0
H83 H 0.24835 0.91229 0.99298 0.0
C84 C 0.37389 0.93926 0.07705 0.0
N85 N 0.34651 0.93526 0.09547 0.0
N86 N 0.33673 0.95299 0.07486 0.0
C87 C 0.35841 0.96967 0.04306 0.0
C88 C 0.38227 0.96099 0.04298 0.0
C89 C 0.39438 0.9266 0.0959 0.0
H90 H 0.3812 0.8998 0.09331 0.0
H91 H 0.41796 0.93636 0.0788 0.0
H92 H 0.39893 0.93316 0.13073 0.0
O93 O 0.3311 0.95314 0.18774 0.0
O94 O 0.31538 0.98327 0.15123 0.0
H95 H 0.35019 0.00991 0.03735 0.0
H96 H 0.38348 0.01352 0.00468 0.0
C97 C 0.35881 0.99649 0.01718 0.0
H98 H 0.34235 0.986 0.98898 0.0
H99 H 0.29653 0.01826 0.08388 0.0
O100 O 0.34796 0.89621 0.17796 0.0
C101 C 0.32608 0.97704 0.18567 0.0
Co102 Co 0.57651 0.90707 0.33163 0.0
Co103 Co 0.63423 0.94056 0.39616 0.0
C104 C 0.61701 0.87808 0.35126 0.0
O105 O 0.59216 0.8769 0.33468 0.0
O106 O 0.63618 0.90157 0.37541 0.0
C107 C 0.5155 0.85648 0.30351 0.0
O108 O 0.51829 0.84117 0.33726 0.0
C109 C 0.66008 0.94367 0.48263 0.0
C110 C 0.70151 0.99372 0.48527 0.0
C111 C 0.68391 0.96593 0.51011 0.0
N112 N 0.6631 0.95794 0.44391 0.0
N113 N 0.68826 0.98766 0.44539 0.0
C114 C 0.63511 0.90918 0.49228 0.0
H115 H 0.61207 0.90775 0.50213 0.0
H116 H 0.64334 0.89927 0.51887 0.0
H117 H 0.63011 0.89415 0.46272 0.0
C118 C 0.54177 0.91941 0.40004 0.0
N119 N 0.56772 0.91786 0.38615 0.0
N120 N 0.59199 0.93337 0.41331 0.0
C121 C 0.58218 0.94598 0.44532 0.0
C122 C 0.54983 0.93701 0.43825 0.0
C123 C 0.51214 0.90969 0.373 0.0
H124 H 0.51935 0.91816 0.33915 0.0
H125 H 0.49698 0.88287 0.3729 0.0
H126 H 0.49731 0.91992 0.38538 0.0
O127 O 0.60908 0.94671 0.30164 0.0
O128 O 0.65095 0.97169 0.34685 0.0
H129 H 0.62756 0.9872 0.46379 0.0
H130 H 0.59324 0.98198 0.49552 0.0
C131 C 0.60427 0.96922 0.47897 0.0
H132 H 0.60942 0.95574 0.504 0.0
H133 H 0.69566 0.00417 0.41968 0.0
O134 O 0.53756 0.88543 0.29554 0.0
C135 C 0.63732 0.97008 0.31058 0.0
Co136 Co 0.09136 0.6833 0.34449 0.0
Co137 Co 0.05203 0.70186 0.40369 0.0
C138 C 0.11977 0.7485 0.36828 0.0
O139 O 0.12564 0.7258 0.36124 0.0
O140 O 0.0921 0.74221 0.38239 0.0
C141 C 0.13933 0.67007 0.31006 0.0
O142 O 0.15786 0.6887 0.34153 0.0
C143 C 0.05024 0.72181 0.49102 0.0
C144 C 0.00329 0.72039 0.49471 0.0
C145 C 0.02989 0.72574 0.51943 0.0
N146 N 0.03605 0.71394 0.45192 0.0
N147 N 0.00821 0.71359 0.45398 0.0
C148 C 0.08295 0.72584 0.49989 0.0
H149 H 0.09821 0.73448 0.47024 0.0
H150 H 0.08023 0.70203 0.50877 0.0
H151 H 0.09517 0.74318 0.52685 0.0
C152 C 0.06841 0.62782 0.40415 0.0
N153 N 0.07258 0.65695 0.39289 0.0
N154 N 0.05576 0.66468 0.41901 0.0
C155 C 0.03975 0.64015 0.44768 0.0
C156 C 0.04743 0.61606 0.43926 0.0
C157 C 0.08258 0.61068 0.37976 0.0
H158 H 0.10931 0.62637 0.37855 0.0
H159 H 0.07664 0.58731 0.39527 0.0
H160 H 0.07336 0.60622 0.34595 0.0
O161 O 0.05824 0.68759 0.30998 0.0
O162 O 0.02262 0.69042 0.35397 0.0
H163 H 0.00026 0.64805 0.46279 0.0
H164 H -0.00283 0.612 0.48741 0.0
C165 C 0.01406 0.63759 0.47807 0.0
H166 H 0.0257 0.65156 0.50793 0.0
H167 H 0.99215 0.7077 0.42803 0.0
O168 O 0.11052 0.66475 0.30628 0.0
C169 C 0.0323 0.68868 0.31607 0.0
Co170 Co 0.33828 0.40016 0.32095 0.0
Co171 Co 0.30707 0.34789 0.39477 0.0
C172 C 0.26737 0.36623 0.34053 0.0
O173 O 0.2925 0.38658 0.32021 0.0
O174 O 0.26871 0.3491 0.3712 0.0
C175 C 0.34973 0.45958 0.2909 0.0
O176 O 0.33038 0.4548 0.32393 0.0
C177 C 0.27944 0.3277 0.48114 0.0
C178 C 0.29244 0.29067 0.49821 0.0
C179 C 0.27909 0.30836 0.51519 0.0
N180 N 0.29332 0.32245 0.44647 0.0
N181 N 0.3003 0.29969 0.45649 0.0
C182 C 0.26723 0.3512 0.48122 0.0
H183 H 0.28801 0.37634 0.48323 0.0
H184 H 0.25043 0.34653 0.50876 0.0
H185 H 0.2543 0.34917 0.4505 0.0
C186 C 0.38425 0.43732 0.38964 0.0
N187 N 0.35639 0.4114 0.37649 0.0
N188 N 0.34426 0.38983 0.40794 0.0
C189 C 0.36453 0.4016 0.44244 0.0
C190 C 0.39028 0.43225 0.43204 0.0
C191 C 0.40726 0.4639 0.35993 0.0
H192 H 0.40741 0.45383 0.3276 0.0
H193 H 0.39918 0.48192 0.35612 0.0
H194 H 0.43237 0.47652 0.37278 0.0
O195 O 0.34263 0.3639 0.29828 0.0
O196 O 0.31825 0.32549 0.34901 0.0
H197 H 0.35692 0.35876 0.47554 0.0
H198 H 0.38191 0.39592 0.50516 0.0
C199 C 0.36065 0.38308 0.48345 0.0
H200 H 0.33911 0.37994 0.50127 0.0
H201 H 0.312 0.2916 0.43566 0.0
O202 O 0.3577 0.43837 0.2824 0.0
C203 C 0.33271 0.33528 0.31254 0.0
Co204 Co 0.90627 0.58743 0.84221 0.0
Co205 Co 0.9428 0.64499 0.90223 0.0
C206 C 0.87665 0.62135 0.86082 0.0
O207 O 0.87104 0.59258 0.86372 0.0
O208 O 0.90349 0.64412 0.87509 0.0
C209 C 0.86033 0.52639 0.80456 0.0
O210 O 0.83976 0.52648 0.83286 0.0
C211 C 0.94205 0.66393 0.9908 0.0
C212 C 0.98602 0.71227 0.99481 0.0
C213 C 0.9608 0.68875 0.0196 0.0
N214 N 0.95591 0.67222 0.95145 0.0
N215 N 0.98192 0.70132 0.95376 0.0
C216 C 0.91105 0.63301 -0.00059 0.0
H217 H 0.89584 0.62521 0.9697 0.0
H218 H 0.9165 0.61362 0.00791 0.0
H219 H 0.89749 0.63604 0.02656 0.0
C220 C 0.93207 0.5566 0.89903 0.0
N221 N 0.92609 0.58056 0.88922 0.0
N222 N 0.94165 0.60488 0.91611 0.0
C223 C 0.959 0.59734 0.94367 0.0
C224 C 0.95336 0.5664 0.93368 0.0
C225 C 0.91914 0.52574 0.87378 0.0
H226 H 0.92925 0.53132 0.84039 0.0
H227 H 0.8924 0.5141 0.87145 0.0
H228 H 0.92521 0.50843 0.8893 0.0
O229 O 0.93873 0.62692 0.8095 0.0
O230 O 0.97368 0.66512 0.85446 0.0
H231 H 0.99561 0.64581 0.96055 0.0
H232 H 0.00287 0.61431 0.9812 0.0
C233 C 0.98407 0.62094 0.97428 0.0
H234 H 0.97219 0.62077 0.00532 0.0
H235 H -0.00258 0.7132 0.9277 0.0
O236 O 0.88913 0.55023 0.80307 0.0
C237 C 0.96414 0.65437 0.81624 0.0
Co238 Co 0.40701 0.32788 0.82847 0.0
Co239 Co 0.34979 0.29853 0.89467 0.0
C240 C 0.3719 0.2583 0.84446 0.0
O241 O 0.3962 0.28314 0.82871 0.0
O242 O 0.35181 0.26071 0.86917 0.0
C243 C 0.46064 0.34017 0.77248 0.0
O244 O 0.44911 0.30871 0.77368 0.0
C245 C 0.33583 0.27628 0.98272 0.0
C246 C 0.28777 0.27049 -0.00376 0.0
C247 C 0.31328 0.26889 0.01544 0.0
N248 N 0.32457 0.28242 0.94615 0.0
N249 N 0.29552 0.27837 0.95409 0.0
C250 C 0.36787 0.27767 0.98598 0.0
H251 H 0.37477 0.27216 0.95408 0.0
H252 H 0.38689 0.30241 -0.00448 0.0
H253 H 0.36687 0.26035 0.01093 0.0
C254 C 0.44076 0.37292 0.89855 0.0
N255 N 0.41533 0.34535 0.88391 0.0
N256 N 0.39069 0.3358 0.91058 0.0
C257 C 0.39945 0.35822 0.94241 0.0
C258 C 0.43159 0.38228 0.93596 0.0
C259 C 0.47235 0.39147 0.87492 0.0
H260 H 0.47979 0.37447 0.86196 0.0
H261 H 0.4917 0.40923 0.89658 0.0
H262 H 0.46931 0.40467 0.84729 0.0
O263 O 0.37052 0.33102 0.80286 0.0
O264 O 0.32884 0.31125 0.84916 0.0
H265 H 0.38224 0.38547 0.97804 0.0
H266 H 0.37829 0.35054 0.00545 0.0
C267 C 0.37621 0.35995 0.97345 0.0
H268 H 0.35095 0.3454 0.96161 0.0
H269 H 0.28159 0.28225 0.9313 0.0
O270 O 0.4457 0.3523 0.79204 0.0
C271 C 0.34177 0.32423 0.81282 0.0
Co272 Co 0.67828 0.0935 0.83301 0.0
Co273 Co 0.69567 0.05473 0.89549 0.0
C274 C 0.74264 0.1224 0.86035 0.0
O275 O 0.71991 0.12806 0.85238 0.0
O276 O 0.73628 0.09478 0.87485 0.0
C277 C 0.66363 0.14037 0.79931 0.0
O278 O 0.67835 0.15676 0.83442 0.0
C279 C 0.71493 0.05608 0.98412 0.0
C280 C 0.70703 0.00688 -0.00479 0.0
C281 C 0.71488 0.03563 0.01632 0.0
N282 N 0.70657 0.03987 0.94641 0.0
N283 N 0.70257 0.01068 0.9529 0.0
C284 C 0.72195 0.09029 0.98858 0.0
H285 H 0.69882 0.09044 0.99136 0.0
H286 H 0.7371 0.10207 0.01761 0.0
H287 H 0.73461 0.10443 0.95919 0.0
C288 C 0.62113 0.07072 0.88987 0.0
N289 N 0.65026 0.07438 0.8798 0.0
N290 N 0.65768 0.05816 0.90751 0.0
C291 C 0.63302 0.04321 0.93628 0.0
C292 C 0.60916 0.05099 0.92625 0.0
C293 C 0.60339 0.08249 0.8619 0.0
H294 H 0.60582 0.07771 0.82731 0.0
H295 H 0.61425 0.10903 0.86628 0.0
H296 H 0.57722 0.07045 0.87005 0.0
O297 O 0.68425 0.06069 0.80064 0.0
O298 O 0.68631 0.02518 0.84587 0.0
H299 H 0.63882 0.00371 0.95826 0.0
H300 H 0.60766 0.00748 0.98698 0.0
C301 C 0.63187 0.02099 0.97155 0.0
H302 H 0.64955 0.03552 -0.00291 0.0
H303 H 0.69512 0.99285 0.92903 0.0
O304 O 0.66119 0.11294 0.79261 0.0
C305 C 0.68573 0.03502 0.80752 0.0
Co306 Co 0.39933 0.06784 0.6468 0.0
Co307 Co 0.33386 0.03173 0.59758 0.0
C308 C 0.36194 0.09991 0.63386 0.0
O309 O 0.3887 0.10191 0.64368 0.0
O310 O 0.33895 0.07428 0.61703 0.0
C311 C 0.46266 0.11545 0.67794 0.0
O312 O 0.45497 0.13726 0.66621 0.0
C313 C 0.30491 0.02785 0.51514 0.0
C314 C 0.26078 0.97961 0.51576 0.0
C315 C 0.28005 0.00577 0.48888 0.0
N316 N 0.30085 0.01515 0.55505 0.0
N317 N 0.27386 0.98673 0.55578 0.0
C318 C 0.33508 0.05801 0.50107 0.0
H319 H 0.3521 0.06915 0.5286 0.0
H320 H 0.34718 0.05232 0.47452 0.0
H321 H 0.32859 0.07583 0.48844 0.0
C322 C 0.42275 0.04724 0.5732 0.0
N323 N 0.39966 0.05117 0.59246 0.0
N324 N 0.37172 0.03304 0.57313 0.0
C325 C 0.37605 0.01569 0.54178 0.0
C326 C 0.40867 0.02458 0.54048 0.0
C327 C 0.45652 0.0609 0.59026 0.0
H328 H 0.46712 0.08719 0.59657 0.0
H329 H 0.47229 0.05736 0.56705 0.0
H330 H 0.45572 0.04864 0.62126 0.0
O331 O 0.36713 0.0331 0.68523 0.0
O332 O 0.3203 0.00468 0.65017 0.0
H333 H 0.32701 0.97603 0.53823 0.0
H334 H 0.35609 0.97027 0.5072 0.0
C335 C 0.34906 0.98818 0.51765 0.0
H336 H 0.34335 0.99776 0.48819 0.0
H337 H 0.26583 0.97114 0.58255 0.0
O338 O 0.44221 0.08547 0.67342 0.0
C339 C 0.33769 0.01008 0.68394 0.0
Co340 Co 0.91463 0.32319 0.65074 0.0
Co341 Co 0.95041 0.30168 0.5885 0.0
C342 C 0.88283 0.25777 0.62715 0.0
O343 O 0.87861 0.28142 0.63515 0.0
O344 O 0.90969 0.26263 0.61163 0.0
C345 C 0.86906 0.33792 0.68927 0.0
O346 O 0.8481 0.31522 0.66337 0.0
C347 C 0.94402 0.28135 0.50005 0.0
C348 C 0.9913 0.28618 0.48373 0.0
C349 C 0.96211 0.28013 0.46547 0.0
N350 N 0.96196 0.2887 0.53628 0.0
N351 N 0.99001 0.29095 0.52664 0.0
C352 C 0.91046 0.27653 0.49936 0.0
H353 H 0.9119 0.30039 0.49568 0.0
H354 H 0.89607 0.2604 0.47227 0.0
H355 H 0.89794 0.26586 0.53044 0.0
C356 C 0.93597 0.37733 0.58929 0.0
N357 N 0.93253 0.34868 0.60172 0.0
N358 N 0.94871 0.34038 0.57532 0.0
C359 C 0.96397 0.3643 0.54561 0.0
C360 C 0.95599 0.38825 0.55322 0.0
C361 C 0.92311 0.39541 0.6143 0.0
H362 H 0.93276 0.3996 0.64787 0.0
H363 H 0.8963 0.38049 0.61613 0.0
H364 H 0.92989 0.41911 0.59914 0.0
O365 O 0.94749 0.31657 0.6824 0.0
O366 O 0.9808 0.31074 0.63712 0.0
H367 H 0.00343 0.39026 0.50022 0.0
H368 H 0.97349 0.34987 0.48443 0.0
C369 C 0.98731 0.36525 0.51235 0.0
H370 H 0.00212 0.35548 0.52633 0.0
H371 H 0.00889 0.29753 0.54875 0.0
O372 O 0.89835 0.34427 0.68963 0.0
C373 C 0.9721 0.31323 0.67546 0.0
Co374 Co 0.67761 0.5827 0.64971 0.0
Co375 Co 0.69625 0.64953 0.61005 0.0
C376 C 0.74448 0.62677 0.6259 0.0
O377 O 0.7223 0.59802 0.63424 0.0
O378 O 0.73767 0.64876 0.61683 0.0
C379 C 0.66312 0.51621 0.65711 0.0
O380 O 0.67805 0.52058 0.61974 0.0
C381 C 0.71333 0.68789 0.53235 0.0
C382 C 0.7019 0.72616 0.54855 0.0
C383 C 0.71094 0.71331 0.51449 0.0
N384 N 0.70556 0.68554 0.57451 0.0
N385 N 0.69973 0.70907 0.58449 0.0
C386 C 0.71788 0.66301 0.50868 0.0
H387 H 0.71306 0.64246 0.53038 0.0
H388 H 0.70162 0.65389 0.48005 0.0
H389 H 0.74323 0.67439 0.49679 0.0
C390 C 0.62476 0.55936 0.58581 0.0
N391 N 0.65275 0.58287 0.6028 0.0
N392 N 0.65953 0.61112 0.58653 0.0
C393 C 0.63535 0.6064 0.5591 0.0
C394 C 0.6129 0.57338 0.55727 0.0
C395 C 0.60733 0.52486 0.60119 0.0
H396 H 0.60679 0.52417 0.63715 0.0
H397 H 0.62045 0.5126 0.58952 0.0
H398 H 0.58203 0.51128 0.58909 0.0
O399 O 0.67679 0.61023 0.69733 0.0
O400 O 0.68629 0.65721 0.66918 0.0
H401 H 0.64028 0.65371 0.56048 0.0
H402 H 0.60708 0.62459 0.52732 0.0
C403 C 0.63231 0.63303 0.53785 0.0
H404 H 0.648 0.64154 0.50866 0.0
H405 H 0.69194 0.71195 0.61496 0.0
O406 O 0.66047 0.53913 0.67381 0.0
C407 C 0.68007 0.63834 0.70157 0.0
H408 H 0.94134 0.27306 0.74177 0.0
H409 H 0.03713 0.34169 0.69502 0.0
H410 H 0.96409 0.26796 0.80983 0.0
H411 H 0.06032 0.33701 0.7644 0.0
H412 H 0.00796 0.25144 0.92314 0.0
H413 H 0.00031 0.25019 0.84464 0.0
H414 H 0.05374 0.35481 0.84104 0.0
H415 H 0.06091 0.35619 0.91898 0.0
C416 C 0.96743 0.28673 0.74601 0.0
C417 C 0.98753 0.308 0.71355 0.0
C418 C 0.98051 0.28356 0.7848 0.0
C419 C 0.01401 0.30199 0.79241 0.0
C420 C 0.0344 0.32248 0.75926 0.0
C421 C 0.02124 0.32514 0.71972 0.0
C422 C 0.01894 0.27415 0.9054 0.0
C423 C 0.03517 0.30386 0.92755 0.0
C424 C 0.01457 0.27342 0.86048 0.0
C425 C 0.02626 0.30242 0.8368 0.0
C426 C 0.04487 0.33207 0.85831 0.0
C427 C 0.04911 0.33281 0.90327 0.0
H428 H 0.71767 0.66183 0.97313 0.0
H429 H 0.69569 0.73784 0.9471 0.0
H430 H 0.7127 0.64884 0.89622 0.0
H431 H 0.6889 0.72363 0.8702 0.0
H432 H 0.70548 0.70131 0.7281 0.0
H433 H 0.71493 0.721 0.80286 0.0
H434 H 0.66543 0.62207 0.84947 0.0
H435 H 0.65667 0.60247 0.77522 0.0
C436 C 0.71215 0.67604 0.95089 0.0
C437 C 0.70606 0.70017 0.96625 0.0
C438 C 0.70883 0.66828 0.90692 0.0
C439 C 0.69933 0.68449 0.87742 0.0
C440 C 0.69583 0.71043 0.89224 0.0
C441 C 0.69935 0.71832 0.93632 0.0
C442 C 0.69615 0.68381 0.75435 0.0
C443 C 0.68062 0.65034 0.74583 0.0
C444 C 0.70167 0.6951 0.79713 0.0
C445 C 0.69161 0.67308 0.83198 0.0
C446 C 0.67437 0.63965 0.82329 0.0
C447 C 0.66904 0.62841 0.78073 0.0
H448 H 0.27329 0.97943 0.70607 0.0
H449 H 0.36805 0.0049 0.75545 0.0
H450 H 0.25178 0.96839 0.78028 0.0
H451 H 0.34651 0.99397 0.82902 0.0
H452 H 0.31521 0.03335 0.94133 0.0
H453 H 0.32636 0.03203 0.86455 0.0
H454 H 0.24617 0.93393 0.85563 0.0
H455 H 0.23458 0.9353 0.93315 0.0
C456 C 0.28921 0.9815 0.73248 0.0
C457 C 0.32251 0.99368 0.72514 0.0
C458 C 0.2769 0.97531 0.77485 0.0
C459 C 0.29779 0.98121 0.81005 0.0
C460 C 0.33016 0.98993 0.80225 0.0
C461 C 0.34241 0.99604 0.76017 0.0
C462 C 0.2994 0.01177 0.92288 0.0
C463 C 0.27438 0.98423 0.94325 0.0
C464 C 0.30604 0.01088 0.87912 0.0
C465 C 0.2876 0.98257 0.85478 0.0
C466 C 0.26092 0.95583 0.87409 0.0
C467 C 0.25441 0.95662 0.91825 0.0
H468 H 0.63486 0.93715 0.57006 0.0
H469 H 0.73909 0.99376 0.55792 0.0
H470 H 0.63927 0.9468 0.64779 0.0
H471 H 0.74346 0.00363 0.63606 0.0
H472 H 0.72242 0.06414 0.73753 0.0
H473 H 0.72542 0.03942 0.67028 0.0
H474 H 0.66085 0.94432 0.72339 0.0
H475 H 0.65818 0.96954 0.79192 0.0
C476 C 0.65881 0.95031 0.58414 0.0
C477 C 0.68668 0.96461 0.55779 0.0
C478 C 0.66131 0.95594 0.62886 0.0
C479 C 0.69167 0.97621 0.64789 0.0
C480 C 0.71971 0.98814 0.62211 0.0
C481 C 0.71722 0.98252 0.57745 0.0
C482 C 0.70922 0.03791 0.73514 0.0
C483 C 0.68974 0.01869 0.76953 0.0
C484 C 0.71125 0.02371 0.69679 0.0
C485 C 0.69348 0.98991 0.69162 0.0
C486 C 0.67483 0.97045 0.72664 0.0
C487 C 0.67331 0.98478 0.76568 0.0
H488 H 0.00595 0.75519 0.57058 0.0
H489 H 0.0553 0.7 0.57658 0.0
H490 H -0.00292 0.74867 0.649 0.0
H491 H 0.04742 0.69461 0.6544 0.0
H492 H 0.02935 0.69222 0.79972 0.0
H493 H 0.05412 0.72127 0.73148 0.0
H494 H 0.9588 0.69209 0.68104 0.0
H495 H 0.93444 0.66289 0.74787 0.0
C496 C 0.01596 0.74276 0.58875 0.0
C497 C 0.03157 0.7284 0.56726 0.0
C498 C 0.01101 0.73918 0.63355 0.0
C499 C 0.02163 0.72118 0.65758 0.0
C500 C 0.03957 0.70914 0.63674 0.0
C501 C 0.04423 0.71243 0.59191 0.0
C502 C 0.01397 0.69261 0.77412 0.0
C503 C 0.9801 0.67504 0.77843 0.0
C504 C 0.02804 0.70919 0.73536 0.0
C505 C 0.00833 0.70907 0.70128 0.0
C506 C 0.97459 0.69302 0.70698 0.0
C507 C 0.96063 0.67596 0.74498 0.0
H508 H 0.29319 0.36331 0.56114 0.0
H509 H 0.25741 0.2607 0.57616 0.0
H510 H 0.29654 0.36981 0.63913 0.0
H511 H 0.26285 0.26765 0.65463 0.0
H512 H 0.27732 0.28468 0.79505 0.0
H513 H 0.25081 0.28223 0.72585 0.0
H514 H 0.33738 0.36891 0.68327 0.0
H515 H 0.36329 0.37135 0.75188 0.0
C516 C 0.28464 0.3418 0.58092 0.0
C517 C 0.27453 0.3113 0.56221 0.0
C518 C 0.28713 0.34569 0.6259 0.0
C519 C 0.28038 0.31938 0.65318 0.0
C520 C 0.26794 0.28842 0.63468 0.0
C521 C 0.26511 0.28445 0.58964 0.0
C522 C 0.29004 0.30388 0.77148 0.0
C523 C 0.32243 0.32802 0.77845 0.0
C524 C 0.27502 0.30231 0.73174 0.0
C525 C 0.2921 0.32509 0.69878 0.0
C526 C 0.32331 0.35107 0.70787 0.0
C527 C 0.33831 0.35243 0.74719 0.0
H528 H 0.96679 0.65819 0.3007 0.0
H529 H 0.06022 0.72516 0.24543 0.0
H530 H 0.94043 0.65961 0.23249 0.0
H531 H 0.03418 0.72731 0.1786 0.0
H532 H 0.9393 0.63708 0.07606 0.0
H533 H 0.94852 0.63957 0.15362 0.0
H534 H 0.9922 0.74368 0.14978 0.0
H535 H 0.98176 0.74128 0.07184 0.0
C536 C 0.98149 0.6736 0.2743 0.0
C537 C 0.01543 0.69123 0.27775 0.0
C538 C 0.96652 0.67446 0.23557 0.0
C539 C 0.98533 0.69381 0.20066 0.0
C540 C 0.0191 0.7126 0.20525 0.0
C541 C 0.03401 0.71107 0.24323 0.0
C542 C 0.94911 0.66037 0.09173 0.0
C543 C 0.95948 0.689 0.06758 0.0
C544 C 0.95457 0.66175 0.13639 0.0
C545 C 0.97108 0.69179 0.15749 0.0
C546 C 0.97938 0.72022 0.13409 0.0
C547 C 0.97353 0.71881 0.08954 0.0
H548 H 0.27908 0.2851 0.27931 0.0
H549 H 0.38338 0.33397 0.27373 0.0
H550 H 0.27562 0.25981 0.20994 0.0
H551 H 0.38042 0.30602 0.20618 0.0
H552 H 0.366 0.3118 0.06094 0.0
H553 H 0.37224 0.31744 0.13819 0.0
H554 H 0.27902 0.23009 0.15505 0.0
H555 H 0.27213 0.22616 0.0762 0.0
C556 C 0.30127 0.28887 0.2642 0.0
C557 C 0.33148 0.31156 0.28132 0.0
C558 C 0.29938 0.2743 0.22421 0.0
C559 C 0.3278 0.28162 0.20113 0.0
C560 C 0.35798 0.30091 0.22174 0.0
C561 C 0.35982 0.31651 0.26089 0.0
C562 C 0.34717 0.29333 0.08099 0.0
C563 C 0.31862 0.26851 0.06255 0.0
C564 C 0.35081 0.29636 0.12582 0.0
C565 C 0.32615 0.27426 0.15372 0.0
C566 C 0.29832 0.24808 0.13497 0.0
C567 C 0.29436 0.2456 0.0898 0.0
H568 H 0.61253 0.9889 0.24512 0.0
H569 H 0.70284 0.00244 0.29629 0.0
H570 H 0.63961 0.01556 0.17819 0.0
H571 H 0.73034 0.02957 0.22874 0.0
H572 H 0.73659 0.01001 0.07768 0.0
H573 H 0.72492 0.00527 0.15537 0.0
H574 H 0.67969 0.06376 0.14024 0.0
H575 H 0.68956 0.06689 0.06294 0.0
C576 C 0.63844 -0.00151 0.24246 0.0
C577 C 0.65552 0.99331 0.27562 0.0
C578 C 0.65407 0.01399 0.20417 0.0
C579 C 0.68711 0.02446 0.19802 0.0
C580 C 0.70479 0.02148 0.23249 0.0
C581 C 0.68913 0.00622 0.27122 0.0
C582 C 0.72492 0.02254 0.09122 0.0
C583 C 0.71442 0.03914 0.06402 0.0
C584 C 0.7185 0.02009 0.13578 0.0
C585 C 0.70124 0.03404 0.15389 0.0
C586 C 0.69289 0.05263 0.12719 0.0
C587 C 0.69909 0.05487 0.08272 0.0
H588 H 0.35822 0.97946 0.25963 0.0
H589 H 0.29461 0.0104 0.20473 0.0
H590 H 0.34597 0.99056 0.33211 0.0
H591 H 0.2824 0.02149 0.27779 0.0
H592 H 0.29186 0.05317 0.42881 0.0
H593 H 0.30741 0.05383 0.35257 0.0
H594 H 0.28823 0.95557 0.36628 0.0
H595 H 0.27328 0.95503 0.44189 0.0
C596 C 0.34236 0.98952 0.26293 0.0
C597 C 0.32686 0.99341 0.2266 0.0
C598 C 0.33522 0.99568 0.30441 0.0
C599 C 0.31256 0.00594 0.3103 0.0
C600 C 0.29976 0.01333 0.27389 0.0
C601 C 0.3069 0.00711 0.23216 0.0
C602 C 0.29065 0.03166 0.41519 0.0
C603 C 0.28189 0.00423 0.44126 0.0
C604 C 0.29946 0.03205 0.37175 0.0
C605 C 0.29982 0.00508 0.35421 0.0
C606 C 0.28885 0.97694 0.37949 0.0
C607 C 0.27984 0.97646 0.42254 0.0
H608 H 0.92736 0.30375 0.42243 0.0
H609 H 0.98512 0.25839 0.40067 0.0
H610 H 0.92343 0.30936 0.34537 0.0
H611 H 0.98387 0.26701 0.32293 0.0
H612 H 0.98067 0.28424 0.18421 0.0
H613 H 0.95767 0.25842 0.25393 0.0
H614 H 0.96193 0.34669 0.29763 0.0
H615 H 0.98359 0.37169 0.2281 0.0
C616 C 0.93824 0.29376 0.40143 0.0
C617 C 0.95592 0.27978 0.41816 0.0
C618 C 0.9366 0.29773 0.35683 0.0
C619 C 0.9536 0.28902 0.3277 0.0
C620 C 0.97003 0.27363 0.34418 0.0
C621 C 0.97111 0.26903 0.38889 0.0
C622 C 0.97531 0.29755 0.2081 0.0
C623 C 0.9845 0.33021 0.20102 0.0
C624 C 0.96256 0.28291 0.2483 0.0
C625 C 0.95869 0.30067 0.28191 0.0
C626 C 0.96441 0.33206 0.27275 0.0
C627 C 0.97703 0.34658 0.23273 0.0
H628 H 0.63388 0.72309 0.26367 0.0
H629 H 0.67578 0.66192 0.24543 0.0
H630 H 0.6573 0.73739 0.33567 0.0
H631 H 0.69789 0.67469 0.31916 0.0
H632 H 0.74934 0.71744 0.44578 0.0
H633 H 0.73547 0.71404 0.36872 0.0
H634 H 0.64644 0.71206 0.40312 0.0
H635 H 0.66092 0.71652 0.47911 0.0
C636 C 0.64776 0.7123 0.2755 0.0
C637 C 0.65246 0.69081 0.24957 0.0
C638 C 0.6612 0.7205 0.31679 0.0
C639 C 0.67903 0.70679 0.33363 0.0
C640 C 0.68453 0.68594 0.30711 0.0
C641 C 0.67162 0.6783 0.26514 0.0
C642 C 0.72714 0.71686 0.43648 0.0
C643 C 0.70614 0.71717 0.46816 0.0
C644 C 0.71905 0.71466 0.3925 0.0
C645 C 0.68971 0.71252 0.37963 0.0
C646 C 0.66951 0.71424 0.41155 0.0
C647 C 0.67778 0.71681 0.45525 0.0
H648 H 0.99248 0.55226 0.88624 0.0
H649 H 0.95314 0.54336 0.01481 0.0
H650 H 0.01562 0.51869 0.90765 0.0
H651 H 0.97652 0.50982 0.03674 0.0
H652 H 0.98793 0.42015 0.04369 0.0
H653 H 0.9661 0.45436 0.01928 0.0
H654 H 0.0571 0.51838 0.95562 0.0
H655 H 0.07862 0.48385 0.98 0.0
C656 C 0.98927 0.54342 0.91934 0.0
C657 C 0.97102 0.55014 0.94895 0.0
C658 C 0.0025 0.52426 0.9316 0.0
C659 C -0.00243 0.51127 0.97372 0.0
C660 C 0.98023 0.51902 0.00382 0.0
C661 C 0.96719 0.53846 0.99155 0.0
C662 C 0.0028 0.44104 0.0234 0.0
C663 C 0.0346 0.44912 0.01277 0.0
C664 C 0.99059 0.46092 0.01009 0.0
C665 C 0.01 0.48927 0.98592 0.0
C666 C 0.04147 0.49661 0.97396 0.0
C667 C 0.05373 0.4768 0.98755 0.0
H668 H 0.51748 0.58471 0.01236 0.0
H669 H 0.57227 0.54976 0.08229 0.0
H670 H 0.48348 0.53085 0.98108 0.0
H671 H 0.53855 0.49572 0.05062 0.0
H672 H 0.44781 0.39592 0.02143 0.0
H673 H 0.48096 0.44976 0.05428 0.0
H674 H 0.48854 0.49441 0.92936 0.0
H675 H 0.45526 0.44095 0.89717 0.0
C676 C 0.52246 0.56548 0.02042 0.0
C677 C 0.54769 0.5713 0.04901 0.0
C678 C 0.50306 0.5347 0.00262 0.0
C679 C 0.50832 0.50901 0.0134 0.0
C680 C 0.53372 0.51495 0.042 0.0
C681 C 0.55329 0.54589 0.05961 0.0
C682 C 0.45645 0.41738 0.00134 0.0
C683 C 0.44941 0.41447 0.95684 0.0
C684 C 0.4756 0.44809 0.01991 0.0
C685 C 0.48756 0.47632 0.99431 0.0
C686 C 0.4796 0.4732 0.95 0.0
C687 C 0.46075 0.44262 0.9315 0.0
H688 H 0.58247 0.0861 0.95549 0.0
H689 H 0.56191 0.98781 0.93841 0.0
H690 H 0.52691 0.06613 0.98004 0.0
H691 H 0.5069 0.9675 0.96549 0.0
H692 H 0.40144 0.93887 0.97464 0.0
H693 H 0.45646 0.96149 0.9458 0.0
H694 H 0.49023 0.04053 0.03749 0.0
H695 H 0.43487 0.01835 0.06452 0.0
C696 C 0.56612 0.06016 0.95788 0.0
C697 C 0.57655 0.03849 0.9457 0.0
C698 C 0.5343 0.04866 0.9721 0.0
C699 C 0.51217 0.01512 0.97476 0.0
C700 C 0.52296 0.99347 0.96324 0.0
C701 C 0.55471 0.00505 0.94855 0.0
C702 C 0.42064 0.96152 0.98762 0.0
C703 C 0.4141 0.97729 0.02106 0.0
C704 C 0.45225 0.97425 0.97172 0.0
C705 C 0.47807 0.00275 0.98955 0.0
C706 C 0.47108 0.01885 0.02245 0.0
C707 C 0.4394 0.00625 0.03797 0.0
H708 H 0.56419 -0.00018 0.44631 0.0
H709 H 0.49015 0.90134 0.47389 0.0
H710 H 0.52787 0.01905 0.47015 0.0
H711 H 0.45303 0.92009 0.49578 0.0
H712 H 0.40648 0.97027 0.57073 0.0
H713 H 0.44126 0.94866 0.54897 0.0
H714 H 0.48086 0.01953 0.44543 0.0
H715 H 0.44674 0.04166 0.46872 0.0
C716 C 0.54034 0.9824 0.45845 0.0
C717 C 0.53011 0.94921 0.45921 0.0
C718 C 0.51923 0.99327 0.47121 0.0
C719 C 0.48727 0.9711 0.4844 0.0
C720 C 0.47749 0.93792 0.48626 0.0
C721 C 0.49871 0.92714 0.47383 0.0
C722 C 0.42204 0.9805 0.5426 0.0
C723 C 0.42368 0.00712 0.52077 0.0
C724 C 0.4421 0.9683 0.5302 0.0
C725 C 0.46422 0.98254 0.49568 0.0
C726 C 0.46467 0.00838 0.47272 0.0
C727 C 0.44475 0.0207 0.48541 0.0
H728 H 0.0088 0.56021 0.39603 0.0
H729 H 0.05123 0.59702 0.52148 0.0
H730 H 0.98643 0.50454 0.42252 0.0
H731 H 0.02903 0.5412 0.54826 0.0
H732 H 0.01776 0.4387 0.55923 0.0
H733 H 0.03887 0.49429 0.53251 0.0
H734 H 0.94525 0.46627 0.47696 0.0
H735 H 0.92432 0.41084 0.50404 0.0
C736 C 0.01305 0.55623 0.42943 0.0
C737 C 0.03172 0.58266 0.4568 0.0
C738 C 0.00024 0.52446 0.44461 0.0
C739 C 0.00617 0.5185 0.48737 0.0
C740 C 0.02441 0.54506 0.51499 0.0
C741 C 0.03687 0.57691 0.4999 0.0
C742 C 0.00198 0.44449 0.54075 0.0
C743 C 0.96965 0.42065 0.53302 0.0
C744 C 0.01386 0.47627 0.52593 0.0
C745 C 0.99366 0.48467 0.5028 0.0
C746 C 0.96144 0.4605 0.49441 0.0
C747 C 0.94949 0.42884 0.50973 0.0
H748 H 0.59317 0.52682 0.49595 0.0
H749 H 0.56048 0.58056 0.5725 0.0
H750 H 0.53833 0.49288 0.46773 0.0
H751 H 0.50523 0.54628 0.54515 0.0
H752 H 0.41683 0.49595 0.45236 0.0
H753 H 0.47102 0.5321 0.48145 0.0
H754 H 0.48672 0.45061 0.49376 0.0
H755 H 0.43304 0.41496 0.46317 0.0
C756 C 0.57419 0.5316 0.50612 0.0
C757 C 0.58094 0.55648 0.53573 0.0
C758 C 0.54272 0.51193 0.49052 0.0
C759 C 0.51721 0.51655 0.50457 0.0
C760 C 0.5243 0.54219 0.53336 0.0
C761 C 0.55589 0.56194 0.54887 0.0
C762 C 0.4318 0.48584 0.46204 0.0
C763 C 0.42073 0.4527 0.45613 0.0
C764 C 0.46279 0.50647 0.47868 0.0
C765 C 0.4834 0.49436 0.48961 0.0
C766 C 0.47174 0.46089 0.485 0.0
C767 C 0.44079 0.44032 0.46823 0.0
H768 H 0.08079 0.4894 0.23382 0.0
H769 H 0.17833 0.52558 0.18569 0.0
H770 H 0.09584 0.54343 0.25887 0.0
H771 H 0.19332 0.58018 0.21152 0.0
H772 H 0.18287 0.65094 0.33206 0.0
H773 H 0.18563 0.60534 0.2997 0.0
H774 H 0.11894 0.59796 0.19972 0.0
H775 H 0.11597 0.64312 0.23168 0.0
C776 C 0.10554 0.50879 0.22899 0.0
C777 C 0.12827 0.50337 0.20727 0.0
C778 C 0.11408 0.53965 0.2433 0.0
C779 C 0.14549 0.56565 0.23637 0.0
C780 C 0.16892 0.56025 0.21688 0.0
C781 C 0.16031 0.52915 0.20225 0.0
C782 C 0.16985 0.64039 0.3022 0.0
C783 C 0.14867 0.64996 0.28476 0.0
C784 C 0.17152 0.61445 0.28377 0.0
C785 C 0.15222 0.59829 0.24774 0.0
C786 C 0.13389 0.61019 0.22767 0.0
C787 C 0.13212 0.63586 0.24605 0.0
H788 H 0.49567 0.64778 0.24777 0.0
H789 H 0.45771 0.62364 0.11747 0.0
H790 H 0.44677 0.60081 0.27563 0.0
H791 H 0.40893 0.57605 0.14535 0.0
H792 H 0.38133 0.47383 0.21315 0.0
H793 H 0.41222 0.52713 0.17918 0.0
H794 H 0.38372 0.5691 0.28207 0.0
H795 H 0.35241 0.5157 0.31592 0.0
C796 C 0.47629 0.63307 0.22535 0.0
C797 C 0.48048 0.63902 0.18055 0.0
C798 C 0.4483 0.60626 0.24125 0.0
C799 C 0.42437 0.58471 0.21247 0.0
C800 C 0.4272 0.59232 0.16805 0.0
C801 C 0.45497 0.6196 0.15221 0.0
C802 C 0.38113 0.4943 0.22804 0.0
C803 C 0.36485 0.49073 0.26742 0.0
C804 C 0.39848 0.52471 0.20837 0.0
C805 C 0.40019 0.55209 0.22806 0.0
C806 C 0.38263 0.54828 0.26629 0.0
C807 C 0.36484 0.51776 0.28562 0.0
H808 H 0.36004 0.87354 0.24963 0.0
H809 H 0.36113 0.82903 0.12813 0.0
H810 H 0.39565 0.85619 0.28158 0.0
H811 H 0.39758 0.81222 0.16002 0.0
H812 H 0.45452 0.81708 0.33466 0.0
H813 H 0.40395 0.80658 0.29984 0.0
H814 H 0.4573 0.85554 0.18409 0.0
H815 H 0.50771 0.8666 0.21906 0.0
C816 C 0.36738 0.85941 0.23012 0.0
C817 C 0.35828 0.8529 0.1864 0.0
C818 C 0.38742 0.84917 0.2485 0.0
C819 C 0.39919 0.83283 0.22318 0.0
C820 C 0.38857 0.82463 0.18014 0.0
C821 C 0.36786 0.83427 0.16197 0.0
C822 C 0.45519 0.82454 0.30126 0.0
C823 C 0.48486 0.84301 0.27958 0.0
C824 C 0.42635 0.81855 0.28144 0.0
C825 C 0.42691 0.83034 0.23946 0.0
C826 C 0.45623 0.84591 0.21632 0.0
C827 C 0.48506 0.85248 0.23642 0.0
H828 H 0.81253 0.33981 0.68367 0.0
H829 H 0.90714 0.38676 0.74429 0.0
H830 H 0.80378 0.38351 0.70968 0.0
H831 H 0.8983 0.42999 0.76954 0.0
H832 H 0.89512 0.5206 0.73919 0.0
H833 H 0.89114 0.47071 0.71269 0.0
H834 H 0.80561 0.41445 0.79081 0.0
H835 H 0.80954 0.46468 0.81807 0.0
C836 C 0.83111 0.35899 0.70321 0.0
C837 C 0.86076 0.36019 0.71134 0.0
C838 C 0.82605 0.38386 0.71798 0.0
C839 C 0.85066 0.4101 0.74072 0.0
C840 C 0.87924 0.4101 0.75139 0.0
C841 C 0.88421 0.38533 0.737 0.0
C842 C 0.87503 0.49766 0.75013 0.0
C843 C 0.85301 0.49651 0.78135 0.0
C844 C 0.87282 0.46919 0.73498 0.0
C845 C 0.84845 0.43908 0.7505 0.0
C846 C 0.82463 0.43758 0.77868 0.0
C847 C 0.82691 0.46626 0.79412 0.0
H848 H 0.50089 0.32395 0.72893 0.0
H849 H 0.49279 0.40596 0.77217 0.0
H850 H 0.55587 0.36137 0.70191 0.0
H851 H 0.5471 0.44257 0.746 0.0
H852 H 0.65071 0.50036 0.74172 0.0
H853 H 0.60395 0.4517 0.7704 0.0
H854 H 0.58125 0.41051 0.64177 0.0
H855 H 0.62859 0.45927 0.61295 0.0
C856 C 0.51073 0.34982 0.73257 0.0
C857 C 0.49262 0.36201 0.75301 0.0
C858 C 0.54209 0.37107 0.71726 0.0
C859 C 0.55576 0.40462 0.72291 0.0
C860 C 0.53732 0.41669 0.74229 0.0
C861 C 0.5061 0.39568 0.757 0.0
C862 C 0.6365 0.48036 0.71989 0.0
C863 C 0.64276 0.4836 0.67516 0.0
C864 C 0.60979 0.45262 0.73624 0.0
C865 C 0.5888 0.4279 0.70801 0.0
C866 C 0.59719 0.42937 0.66405 0.0
C867 C 0.62423 0.45718 0.64763 0.0
H868 H 0.63769 0.17776 0.82344 0.0
H869 H 0.64384 0.12256 0.71647 0.0
H870 H 0.59229 0.17867 0.78782 0.0
H871 H 0.59899 0.12398 0.68073 0.0
H872 H 0.48784 0.0762 0.69095 0.0
H873 H 0.54239 0.09137 0.7127 0.0
H874 H 0.56763 0.19186 0.71999 0.0
H875 H 0.51231 0.17665 0.69761 0.0
C876 C 0.6302 0.16698 0.79158 0.0
C877 C 0.64364 0.14942 0.77306 0.0
C878 C 0.6043 0.16757 0.7712 0.0
C879 C 0.59184 0.15077 0.73211 0.0
C880 C 0.60786 0.13658 0.71131 0.0
C881 C 0.63348 0.13579 0.73172 0.0
C882 C 0.50489 0.10159 0.69695 0.0
C883 C 0.49577 0.12525 0.69247 0.0
C884 C 0.53628 0.11031 0.70899 0.0
C885 C 0.5593 0.14285 0.71717 0.0
C886 C 0.55028 0.16664 0.71344 0.0
C887 C 0.51872 0.15791 0.70077 0.0
H888 H 0.24794 0.41003 0.33238 0.0
H889 H 0.21938 0.31038 0.30589 0.0
H890 H 0.2039 0.40512 0.28669 0.0
H891 H 0.1753 0.3055 0.25894 0.0
H892 H 0.14107 0.34455 0.13165 0.0
H893 H 0.17656 0.33689 0.18305 0.0
H894 H 0.141 0.37065 0.28782 0.0
H895 H 0.10643 0.37838 0.23774 0.0
C896 C 0.23145 0.38678 0.31784 0.0
C897 C 0.23628 0.36035 0.32338 0.0
C898 C 0.20654 0.38401 0.29137 0.0
C899 C 0.18645 0.35496 0.26917 0.0
C900 C 0.19064 0.32813 0.27562 0.0
C901 C 0.21532 0.33074 0.30298 0.0
C902 C 0.14071 0.34987 0.16574 0.0
C903 C 0.12186 0.36303 0.18045 0.0
C904 C 0.16073 0.34533 0.19508 0.0
C905 C 0.16167 0.35366 0.23917 0.0
C906 C 0.14109 0.36457 0.25395 0.0
C907 C 0.1215 0.36921 0.22505 0.0
H908 H 0.6761 0.89385 0.31831 0.0
H909 H 0.57885 0.8139 0.33707 0.0
H910 H 0.68381 0.86471 0.25819 0.0
H911 H 0.58658 0.78477 0.27766 0.0
H912 H 0.58569 0.76729 0.13724 0.0
H913 H 0.59057 0.80212 0.19789 0.0
H914 H 0.68293 0.812 0.23188 0.0
H915 H 0.67838 0.77736 0.1709 0.0
C916 C 0.65707 0.86934 0.31118 0.0
C917 C 0.62681 0.85609 0.33209 0.0
C918 C 0.6613 0.85293 0.27634 0.0
C919 C 0.63531 0.82316 0.26234 0.0
C920 C 0.60662 0.80822 0.28697 0.0
C921 C 0.60241 0.82455 0.32152 0.0
C922 C 0.60765 0.77789 0.1565 0.0
C923 C 0.63124 0.76892 0.14971 0.0
C924 C 0.61021 0.7974 0.19167 0.0
C925 C 0.63649 0.80853 0.22051 0.0
C926 C 0.66217 0.80324 0.21051 0.0
C927 C 0.65964 0.78365 0.1752 0.0
H928 H 0.23415 0.82497 0.15318 0.0
H929 H 0.21508 0.90349 0.17396 0.0
H930 H 0.19917 0.7957 0.21429 0.0
H931 H 0.18016 0.87415 0.23566 0.0
H932 H 0.18465 0.77743 0.3548 0.0
H933 H 0.21323 0.8123 0.29326 0.0
H934 H 0.12971 0.82166 0.26403 0.0
H935 H 0.10107 0.78689 0.32611 0.0
C936 C 0.22144 0.83539 0.16973 0.0
C937 C 0.22762 0.86663 0.15908 0.0
C938 C 0.20189 0.81892 0.20519 0.0
C939 C 0.1881 0.83334 0.23068 0.0
C940 C 0.19093 0.86276 0.21689 0.0
C941 C 0.21057 0.87932 0.18118 0.0
C942 C 0.17289 0.78804 0.33641 0.0
C943 C 0.14057 0.77918 0.34504 0.0
C944 C 0.189 0.80751 0.30071 0.0
C945 C 0.17313 0.81854 0.27298 0.0
C946 C 0.14229 0.81306 0.28459 0.0
C947 C 0.1261 0.79352 0.32052 0.0
H948 H 0.84664 0.65786 0.85239 0.0
H949 H 0.87946 0.60225 0.78007 0.0
H950 H 0.8243 0.66678 0.78528 0.0
H951 H 0.86038 0.61344 0.71336 0.0
H952 H 0.77167 0.58866 0.62835 0.0
H953 H 0.81034 0.59309 0.68228 0.0
H954 H 0.83012 0.68965 0.71466 0.0
H955 H 0.78995 0.68439 0.6613 0.0
C956 C 0.84943 0.648 0.8221 0.0
C957 C 0.8639 0.62867 0.8215 0.0
C958 C 0.83718 0.65348 0.78352 0.0
C959 C 0.84014 0.64046 0.74371 0.0
C960 C 0.85666 0.62302 0.74329 0.0
C961 C 0.86775 0.61668 0.78168 0.0
C962 C 0.7853 0.6114 0.64559 0.0
C963 C 0.77729 0.63585 0.64115 0.0
C964 C 0.80756 0.61401 0.67688 0.0
C965 C 0.82279 0.64144 0.70399 0.0
C966 C 0.81806 0.66778 0.69534 0.0
C967 C 0.79555 0.66505 0.66401 0.0
H968 H 0.40324 0.16463 0.63968 0.0
H969 H 0.30717 0.08901 0.67577 0.0
H970 H 0.40101 0.19983 0.69504 0.0
H971 H 0.3053 0.1238 0.73253 0.0
H972 H 0.41297 0.23599 0.82835 0.0
H973 H 0.40544 0.19653 0.77287 0.0
H974 H 0.30615 0.17357 0.7557 0.0
H975 H 0.31354 0.21242 0.81268 0.0
C976 C 0.3812 0.156 0.65849 0.0
C977 C 0.35546 0.12416 0.6536 0.0
C978 C 0.38013 0.17584 0.69082 0.0
C979 C 0.35352 0.16404 0.71935 0.0
C980 C 0.32628 0.13344 0.71139 0.0
C981 C 0.32719 0.11366 0.67851 0.0
C982 C 0.38917 0.2215 0.81398 0.0
C983 C 0.36385 0.22714 0.82471 0.0
C984 C 0.385 0.19943 0.78155 0.0
C985 C 0.35558 0.18295 0.75866 0.0
C986 C 0.3292 0.18617 0.77242 0.0
C987 C 0.33329 0.20808 0.80542 0.0
H988 H 0.89947 0.21749 0.66846 0.0
H989 H 0.81835 0.23146 0.64159 0.0
H990 H 0.87033 0.18334 0.73086 0.0
H991 H 0.78934 0.19731 0.70352 0.0
H992 H 0.77103 0.18698 0.84451 0.0
H993 H 0.80622 0.21466 0.78286 0.0
H994 H 0.81724 0.13147 0.75906 0.0
H995 H 0.78204 0.10365 0.82114 0.0
C996 C 0.87481 0.21195 0.6745 0.0
C997 C 0.86123 0.22736 0.65041 0.0
C998 C 0.85836 0.19278 0.7106 0.0
C999 C 0.8282 0.18881 0.7228 0.0
C1000 C 0.81307 0.2009 0.69552 0.0
C1001 C 0.8294 0.21996 0.65963 0.0
C1002 C 0.78205 0.17512 0.82732 0.0
C1003 C 0.77348 0.14306 0.83738 0.0
C1004 C 0.80173 0.19071 0.79159 0.0
C1005 C 0.81332 0.17461 0.76534 0.0
C1006 C 0.80819 0.14418 0.77849 0.0
C1007 C 0.78839 0.12847 0.81441 0.0
loop_
_geom_bond_atom_site_label_1
_geom_bond_atom_site_label_2
_geom_bond_distance
_geom_bond_site_symmetry_2
_ccdc_geom_bond_type
Co0 O3 1.970 . S
Co0 N17 1.989 . S
Co0 O25 1.967 . S
Co0 O32 1.920 . S
Co1 O4 1.966 . S
Co1 N10 2.022 . S
Co1 N18 1.993 . S
Co1 O26 1.941 . S
C2 O3 1.258 . S
C2 O4 1.263 . S
O3 Co0 1.970 . S
O3 C2 1.258 . S
O4 Co1 1.966 . S
O4 C2 1.263 . S
C5 O6 1.235 . S
C5 O32 1.289 . S
O6 C5 1.235 . S
C7 C9 1.400 1_554 S
C7 N10 1.351 . S
C7 C12 1.501 . S
C8 C9 1.387 . S
C8 N11 1.341 1_556 S
C9 C7 1.400 1_556 S
C9 C8 1.387 . S
N10 Co1 2.022 . S
N10 C7 1.351 . S
N10 N11 1.365 . S
N11 C8 1.341 1_554 S
N11 N10 1.365 . S
N11 H31 0.862 1_455 S
C12 C7 1.501 . S
C12 H13 0.961 . S
C12 H14 0.961 1_554 S
C12 H15 0.960 . S
H13 C12 0.961 . S
H14 C12 0.961 1_556 S
H15 C12 0.960 . S
C16 N17 1.342 . S
C16 C20 1.401 . S
C16 C21 1.499 . S
N17 Co0 1.989 . S
N17 C16 1.342 . S
N17 N18 1.388 . S
N18 Co1 1.993 . S
N18 N17 1.388 . S
N18 C19 1.346 . S
C19 N18 1.346 . S
C19 C20 1.396 . S
C19 C29 1.510 1_554 S
C20 C16 1.401 . S
C20 C19 1.396 . S
C21 C16 1.499 . S
C21 H22 0.959 . S
C21 H23 0.960 . S
C21 H24 0.961 . S
H22 C21 0.959 . S
H23 C21 0.960 . S
H24 C21 0.961 . S
O25 Co0 1.967 . S
O25 C33 1.258 . S
O26 Co1 1.941 . S
O26 C33 1.266 . S
H27 C29 0.959 . S
H28 C29 0.961 . S
C29 C19 1.510 1_556 S
C29 H27 0.959 . S
C29 H28 0.961 . S
C29 H30 0.960 1_556 S
H30 C29 0.960 1_554 S
H31 N11 0.862 1_655 S
O32 Co0 1.920 . S
O32 C5 1.289 . S
C33 O25 1.258 . S
C33 O26 1.266 . S
Co34 O37 1.970 . S
Co34 N51 1.989 . S
Co34 O59 1.967 . S
Co34 O66 1.920 . S
Co35 O38 1.966 . S
Co35 N44 2.022 . S
Co35 N52 1.993 . S
Co35 O60 1.941 . S
C36 O37 1.258 . S
C36 O38 1.263 . S
O37 Co34 1.970 . S
O37 C36 1.258 . S
O38 Co35 1.966 . S
O38 C36 1.263 . S
C39 O40 1.235 . S
C39 O66 1.289 . S
O40 C39 1.235 . S
C41 C43 1.400 1_554 S
C41 N44 1.351 . S
C41 C46 1.501 . S
C42 C43 1.387 . S
C42 N45 1.341 1_556 S
C43 C41 1.400 1_556 S
C43 C42 1.387 . S
N44 Co35 2.022 . S
N44 C41 1.351 . S
N44 N45 1.365 . S
N45 C42 1.341 1_554 S
N45 N44 1.365 . S
N45 H65 0.862 . S
C46 C41 1.501 . S
C46 H47 0.961 . S
C46 H48 0.961 1_554 S
C46 H49 0.960 . S
H47 C46 0.961 . S
H48 C46 0.961 1_556 S
H49 C46 0.960 . S
C50 N51 1.342 . S
C50 C54 1.401 . S
C50 C55 1.499 . S
N51 Co34 1.989 . S
N51 C50 1.342 . S
N51 N52 1.388 . S
N52 Co35 1.993 . S
N52 N51 1.388 . S
N52 C53 1.346 . S
C53 N52 1.346 . S
C53 C54 1.396 . S
C53 C63 1.510 1_554 S
C54 C50 1.401 . S
C54 C53 1.396 . S
C55 C50 1.499 . S
C55 H56 0.959 . S
C55 H57 0.960 . S
C55 H58 0.961 . S
H56 C55 0.959 . S
H57 C55 0.960 . S
H58 C55 0.961 . S
O59 Co34 1.967 . S
O59 C67 1.258 . S
O60 Co35 1.941 . S
O60 C67 1.266 . S
H61 C63 0.959 . S
H62 C63 0.961 . S
C63 C53 1.510 1_556 S
C63 H61 0.959 . S
C63 H62 0.961 . S
C63 H64 0.960 1_556 S
H64 C63 0.960 1_554 S
H65 N45 0.862 . S
O66 Co34 1.920 . S
O66 C39 1.289 . S
C67 O59 1.258 . S
C67 O60 1.266 . S
Co68 O71 1.970 . S
Co68 N85 1.989 . S
Co68 O93 1.967 . S
Co68 O100 1.920 . S
Co69 O72 1.966 . S
Co69 N78 2.022 . S
Co69 N86 1.993 . S
Co69 O94 1.941 . S
C70 O71 1.258 . S
C70 O72 1.263 . S
O71 Co68 1.970 . S
O71 C70 1.258 . S
O72 Co69 1.966 . S
O72 C70 1.263 . S
C73 O74 1.235 . S
C73 O100 1.289 . S
O74 C73 1.235 . S
C75 C77 1.400 1_554 S
C75 N78 1.351 . S
C75 C80 1.501 . S
C76 C77 1.387 . S
C76 N79 1.341 1_556 S
C77 C75 1.400 1_556 S
C77 C76 1.387 . S
N78 Co69 2.022 . S
N78 C75 1.351 . S
N78 N79 1.365 . S
N79 C76 1.341 1_554 S
N79 N78 1.365 . S
N79 H99 0.862 1_565 S
C80 C75 1.501 . S
C80 H81 0.961 . S
C80 H82 0.961 1_554 S
C80 H83 0.960 . S
H81 C80 0.961 . S
H82 C80 0.961 1_556 S
H83 C80 0.960 . S
C84 N85 1.342 . S
C84 C88 1.401 . S
C84 C89 1.499 . S
N85 Co68 1.989 . S
N85 C84 1.342 . S
N85 N86 1.388 . S
N86 Co69 1.993 . S
N86 N85 1.388 . S
N86 C87 1.346 . S
C87 N86 1.346 . S
C87 C88 1.396 . S
C87 C97 1.510 1_554 S
C88 C84 1.401 . S
C88 C87 1.396 . S
C89 C84 1.499 . S
C89 H90 0.959 . S
C89 H91 0.960 . S
C89 H92 0.961 . S
H90 C89 0.959 . S
H91 C89 0.960 . S
H92 C89 0.961 . S
O93 Co68 1.967 . S
O93 C101 1.258 . S
O94 Co69 1.941 . S
O94 C101 1.266 . S
H95 C97 0.959 . S
H96 C97 0.961 . S
C97 C87 1.510 1_556 S
C97 H95 0.959 . S
C97 H96 0.961 . S
C97 H98 0.960 1_556 S
H98 C97 0.960 1_554 S
H99 N79 0.862 1_545 S
O100 Co68 1.920 . S
O100 C73 1.289 . S
C101 O93 1.258 . S
C101 O94 1.266 . S
Co102 O105 1.970 . S
Co102 N119 1.989 . S
Co102 O127 1.967 . S
Co102 O134 1.920 . S
Co103 O106 1.966 . S
Co103 N112 2.022 . S
Co103 N120 1.993 . S
Co103 O128 1.941 . S
C104 O105 1.258 . S
C104 O106 1.263 . S
O105 Co102 1.970 . S
O105 C104 1.258 . S
O106 Co103 1.966 . S
O106 C104 1.263 . S
C107 O108 1.235 . S
C107 O134 1.289 . S
O108 C107 1.235 . S
C109 C111 1.400 . S
C109 N112 1.351 . S
C109 C114 1.501 . S
C110 C111 1.387 . S
C110 N113 1.341 . S
C111 C109 1.400 . S
C111 C110 1.387 . S
N112 Co103 2.022 . S
N112 C109 1.351 . S
N112 N113 1.365 . S
N113 C110 1.341 . S
N113 N112 1.365 . S
N113 H133 0.862 1_565 S
C114 C109 1.501 . S
C114 H115 0.961 . S
C114 H116 0.961 . S
C114 H117 0.960 . S
H115 C114 0.961 . S
H116 C114 0.961 . S
H117 C114 0.960 . S
C118 N119 1.342 . S
C118 C122 1.401 . S
C118 C123 1.499 . S
N119 Co102 1.989 . S
N119 C118 1.342 . S
N119 N120 1.388 . S
N120 Co103 1.993 . S
N120 N119 1.388 . S
N120 C121 1.346 . S
C121 N120 1.346 . S
C121 C122 1.396 . S
C121 C131 1.510 . S
C122 C118 1.401 . S
C122 C121 1.396 . S
C123 C118 1.499 . S
C123 H124 0.959 . S
C123 H125 0.960 . S
C123 H126 0.961 . S
H124 C123 0.959 . S
H125 C123 0.960 . S
H126 C123 0.961 . S
O127 Co102 1.967 . S
O127 C135 1.258 . S
O128 Co103 1.941 . S
O128 C135 1.266 . S
H129 C131 0.959 . S
H130 C131 0.961 . S
C131 C121 1.510 . S
C131 H129 0.959 . S
C131 H130 0.961 . S
C131 H132 0.960 . S
H132 C131 0.960 . S
H133 N113 0.862 1_545 S
O134 Co102 1.920 . S
O134 C107 1.289 . S
C135 O127 1.258 . S
C135 O128 1.266 . S
Co136 O139 1.970 . S
Co136 N153 1.989 . S
Co136 O161 1.967 . S
Co136 O168 1.920 . S
Co137 O140 1.966 . S
Co137 N146 2.022 . S
Co137 N154 1.993 . S
Co137 O162 1.941 . S
C138 O139 1.258 . S
C138 O140 1.263 . S
O139 Co136 1.970 . S
O139 C138 1.258 . S
O140 Co137 1.966 . S
O140 C138 1.263 . S
C141 O142 1.235 . S
C141 O168 1.289 . S
O142 C141 1.235 . S
C143 C145 1.400 . S
C143 N146 1.351 . S
C143 C148 1.501 . S
C144 C145 1.387 . S
C144 N147 1.341 . S
C145 C143 1.400 . S
C145 C144 1.387 . S
N146 Co137 2.022 . S
N146 C143 1.351 . S
N146 N147 1.365 . S
N147 C144 1.341 . S
N147 N146 1.365 . S
N147 H167 0.862 1_455 S
C148 C143 1.501 . S
C148 H149 0.961 . S
C148 H150 0.961 . S
C148 H151 0.960 . S
H149 C148 0.961 . S
H150 C148 0.961 . S
H151 C148 0.960 . S
C152 N153 1.342 . S
C152 C156 1.401 . S
C152 C157 1.499 . S
N153 Co136 1.989 . S
N153 C152 1.342 . S
N153 N154 1.388 . S
N154 Co137 1.993 . S
N154 N153 1.388 . S
N154 C155 1.346 . S
C155 N154 1.346 . S
C155 C156 1.396 . S
C155 C165 1.510 . S
C156 C152 1.401 . S
C156 C155 1.396 . S
C157 C152 1.499 . S
C157 H158 0.959 . S
C157 H159 0.960 . S
C157 H160 0.961 . S
H158 C157 0.959 . S
H159 C157 0.960 . S
H160 C157 0.961 . S
O161 Co136 1.967 . S
O161 C169 1.258 . S
O162 Co137 1.941 . S
O162 C169 1.266 . S
H163 C165 0.959 . S
H164 C165 0.961 . S
C165 C155 1.510 . S
C165 H163 0.959 . S
C165 H164 0.961 . S
C165 H166 0.960 . S
H166 C165 0.960 . S
H167 N147 0.862 1_655 S
O168 Co136 1.920 . S
O168 C141 1.289 . S
C169 O161 1.258 . S
C169 O162 1.266 . S
Co170 O173 1.970 . S
Co170 N187 1.989 . S
Co170 O195 1.967 . S
Co170 O202 1.920 . S
Co171 O174 1.966 . S
Co171 N180 2.022 . S
Co171 N188 1.993 . S
Co171 O196 1.941 . S
C172 O173 1.258 . S
C172 O174 1.263 . S
O173 Co170 1.970 . S
O173 C172 1.258 . S
O174 Co171 1.966 . S
O174 C172 1.263 . S
C175 O176 1.235 . S
C175 O202 1.289 . S
O176 C175 1.235 . S
C177 C179 1.400 . S
C177 N180 1.351 . S
C177 C182 1.501 . S
C178 C179 1.387 . S
C178 N181 1.341 . S
C179 C177 1.400 . S
C179 C178 1.387 . S
N180 Co171 2.022 . S
N180 C177 1.351 . S
N180 N181 1.365 . S
N181 C178 1.341 . S
N181 N180 1.365 . S
N181 H201 0.862 . S
C182 C177 1.501 . S
C182 H183 0.961 . S
C182 H184 0.961 . S
C182 H185 0.960 . S
H183 C182 0.961 . S
H184 C182 0.961 . S
H185 C182 0.960 . S
C186 N187 1.342 . S
C186 C190 1.401 . S
C186 C191 1.499 . S
N187 Co170 1.989 . S
N187 C186 1.342 . S
N187 N188 1.388 . S
N188 Co171 1.993 . S
N188 N187 1.388 . S
N188 C189 1.346 . S
C189 N188 1.346 . S
C189 C190 1.396 . S
C189 C199 1.510 . S
C190 C186 1.401 . S
C190 C189 1.396 . S
C191 C186 1.499 . S
C191 H192 0.959 . S
C191 H193 0.960 . S
C191 H194 0.961 . S
H192 C191 0.959 . S
H193 C191 0.960 . S
H194 C191 0.961 . S
O195 Co170 1.967 . S
O195 C203 1.258 . S
O196 Co171 1.941 . S
O196 C203 1.266 . S
H197 C199 0.959 . S
H198 C199 0.961 . S
C199 C189 1.510 . S
C199 H197 0.959 . S
C199 H198 0.961 . S
C199 H200 0.960 . S
H200 C199 0.960 . S
H201 N181 0.862 . S
O202 Co170 1.920 . S
O202 C175 1.289 . S
C203 O195 1.258 . S
C203 O196 1.266 . S
Co204 O207 1.970 . S
Co204 N221 1.989 . S
Co204 O229 1.967 . S
Co204 O236 1.920 . S
Co205 O208 1.966 . S
Co205 N214 2.022 . S
Co205 N222 1.993 . S
Co205 O230 1.941 . S
C206 O207 1.258 . S
C206 O208 1.263 . S
O207 Co204 1.970 . S
O207 C206 1.258 . S
O208 Co205 1.966 . S
O208 C206 1.263 . S
C209 O210 1.235 . S
C209 O236 1.289 . S
O210 C209 1.235 . S
C211 C213 1.400 1_556 S
C211 N214 1.351 . S
C211 C216 1.501 . S
C212 C213 1.387 . S
C212 N215 1.341 1_554 S
C213 C211 1.400 1_554 S
C213 C212 1.387 . S
N214 Co205 2.022 . S
N214 C211 1.351 . S
N214 N215 1.365 . S
N215 C212 1.341 1_556 S
N215 N214 1.365 . S
N215 H235 0.862 1_655 S
C216 C211 1.501 . S
C216 H217 0.961 . S
C216 H218 0.961 1_556 S
C216 H219 0.960 . S
H217 C216 0.961 . S
H218 C216 0.961 1_554 S
H219 C216 0.960 . S
C220 N221 1.342 . S
C220 C224 1.401 . S
C220 C225 1.499 . S
N221 Co204 1.989 . S
N221 C220 1.342 . S
N221 N222 1.388 . S
N222 Co205 1.993 . S
N222 N221 1.388 . S
N222 C223 1.346 . S
C223 N222 1.346 . S
C223 C224 1.396 . S
C223 C233 1.510 1_556 S
C224 C220 1.401 . S
C224 C223 1.396 . S
C225 C220 1.499 . S
C225 H226 0.959 . S
C225 H227 0.960 . S
C225 H228 0.961 . S
H226 C225 0.959 . S
H227 C225 0.960 . S
H228 C225 0.961 . S
O229 Co204 1.967 . S
O229 C237 1.258 . S
O230 Co205 1.941 . S
O230 C237 1.266 . S
H231 C233 0.959 . S
H232 C233 0.961 . S
C233 C223 1.510 1_554 S
C233 H231 0.959 . S
C233 H232 0.961 . S
C233 H234 0.960 1_554 S
H234 C233 0.960 1_556 S
H235 N215 0.862 1_455 S
O236 Co204 1.920 . S
O236 C209 1.289 . S
C237 O229 1.258 . S
C237 O230 1.266 . S
Co238 O241 1.970 . S
Co238 N255 1.989 . S
Co238 O263 1.967 . S
Co238 O270 1.920 . S
Co239 O242 1.966 . S
Co239 N248 2.022 . S
Co239 N256 1.993 . S
Co239 O264 1.941 . S
C240 O241 1.258 . S
C240 O242 1.263 . S
O241 Co238 1.970 . S
O241 C240 1.258 . S
O242 Co239 1.966 . S
O242 C240 1.263 . S
C243 O244 1.235 . S
C243 O270 1.289 . S
O244 C243 1.235 . S
C245 C247 1.400 1_556 S
C245 N248 1.351 . S
C245 C250 1.501 . S
C246 C247 1.387 . S
C246 N249 1.341 1_554 S
C247 C245 1.400 1_554 S
C247 C246 1.387 . S
N248 Co239 2.022 . S
N248 C245 1.351 . S
N248 N249 1.365 . S
N249 C246 1.341 1_556 S
N249 N248 1.365 . S
N249 H269 0.862 . S
C250 C245 1.501 . S
C250 H251 0.961 . S
C250 H252 0.961 1_556 S
C250 H253 0.960 . S
H251 C250 0.961 . S
H252 C250 0.961 1_554 S
H253 C250 0.960 . S
C254 N255 1.342 . S
C254 C258 1.401 . S
C254 C259 1.499 . S
N255 Co238 1.989 . S
N255 C254 1.342 . S
N255 N256 1.388 . S
N256 Co239 1.993 . S
N256 N255 1.388 . S
N256 C257 1.346 . S
C257 N256 1.346 . S
C257 C258 1.396 . S
C257 C267 1.510 1_556 S
C258 C254 1.401 . S
C258 C257 1.396 . S
C259 C254 1.499 . S
C259 H260 0.959 . S
C259 H261 0.960 . S
C259 H262 0.961 . S
H260 C259 0.959 . S
H261 C259 0.960 . S
H262 C259 0.961 . S
O263 Co238 1.967 . S
O263 C271 1.258 . S
O264 Co239 1.941 . S
O264 C271 1.266 . S
H265 C267 0.959 . S
H266 C267 0.961 . S
C267 C257 1.510 1_554 S
C267 H265 0.959 . S
C267 H266 0.961 . S
C267 H268 0.960 1_554 S
H268 C267 0.960 1_556 S
H269 N249 0.862 . S
O270 Co238 1.920 . S
O270 C243 1.289 . S
C271 O263 1.258 . S
C271 O264 1.266 . S
Co272 O275 1.970 . S
Co272 N289 1.989 . S
Co272 O297 1.967 . S
Co272 O304 1.920 . S
Co273 O276 1.966 . S
Co273 N282 2.022 . S
Co273 N290 1.993 . S
Co273 O298 1.941 . S
C274 O275 1.258 . S
C274 O276 1.263 . S
O275 Co272 1.970 . S
O275 C274 1.258 . S
O276 Co273 1.966 . S
O276 C274 1.263 . S
C277 O278 1.235 . S
C277 O304 1.289 . S
O278 C277 1.235 . S
C279 C281 1.400 1_556 S
C279 N282 1.351 . S
C279 C284 1.501 . S
C280 C281 1.387 . S
C280 N283 1.341 1_554 S
C281 C279 1.400 1_554 S
C281 C280 1.387 . S
N282 Co273 2.022 . S
N282 C279 1.351 . S
N282 N283 1.365 . S
N283 C280 1.341 1_556 S
N283 N282 1.365 . S
N283 H303 0.862 1_545 S
C284 C279 1.501 . S
C284 H285 0.961 . S
C284 H286 0.961 1_556 S
C284 H287 0.960 . S
H285 C284 0.961 . S
H286 C284 0.961 1_554 S
H287 C284 0.960 . S
C288 N289 1.342 . S
C288 C292 1.401 . S
C288 C293 1.499 . S
N289 Co272 1.989 . S
N289 C288 1.342 . S
N289 N290 1.388 . S
N290 Co273 1.993 . S
N290 N289 1.388 . S
N290 C291 1.346 . S
C291 N290 1.346 . S
C291 C292 1.396 . S
C291 C301 1.510 1_556 S
C292 C288 1.401 . S
C292 C291 1.396 . S
C293 C288 1.499 . S
C293 H294 0.959 . S
C293 H295 0.960 . S
C293 H296 0.961 . S
H294 C293 0.959 . S
H295 C293 0.960 . S
H296 C293 0.961 . S
O297 Co272 1.967 . S
O297 C305 1.258 . S
O298 Co273 1.941 . S
O298 C305 1.266 . S
H299 C301 0.959 . S
H300 C301 0.961 . S
C301 C291 1.510 1_554 S
C301 H299 0.959 . S
C301 H300 0.961 . S
C301 H302 0.960 1_554 S
H302 C301 0.960 1_556 S
H303 N283 0.862 1_565 S
O304 Co272 1.920 . S
O304 C277 1.289 . S
C305 O297 1.258 . S
C305 O298 1.266 . S
Co306 O309 1.970 . S
Co306 N323 1.989 . S
Co306 O331 1.967 . S
Co306 O338 1.920 . S
Co307 O310 1.966 . S
Co307 N316 2.022 . S
Co307 N324 1.993 . S
Co307 O332 1.941 . S
C308 O309 1.258 . S
C308 O310 1.263 . S
O309 Co306 1.970 . S
O309 C308 1.258 . S
O310 Co307 1.966 . S
O310 C308 1.263 . S
C311 O312 1.235 . S
C311 O338 1.289 . S
O312 C311 1.235 . S
C313 C315 1.400 . S
C313 N316 1.351 . S
C313 C318 1.501 . S
C314 C315 1.387 . S
C314 N317 1.341 . S
C315 C313 1.400 . S
C315 C314 1.387 . S
N316 Co307 2.022 . S
N316 C313 1.351 . S
N316 N317 1.365 . S
N317 C314 1.341 . S
N317 N316 1.365 . S
N317 H337 0.862 1_545 S
C318 C313 1.501 . S
C318 H319 0.961 . S
C318 H320 0.961 . S
C318 H321 0.960 . S
H319 C318 0.961 . S
H320 C318 0.961 . S
H321 C318 0.960 . S
C322 N323 1.342 . S
C322 C326 1.401 . S
C322 C327 1.499 . S
N323 Co306 1.989 . S
N323 C322 1.342 . S
N323 N324 1.388 . S
N324 Co307 1.993 . S
N324 N323 1.388 . S
N324 C325 1.346 . S
C325 N324 1.346 . S
C325 C326 1.396 . S
C325 C335 1.510 . S
C326 C322 1.401 . S
C326 C325 1.396 . S
C327 C322 1.499 . S
C327 H328 0.959 . S
C327 H329 0.960 . S
C327 H330 0.961 . S
H328 C327 0.959 . S
H329 C327 0.960 . S
H330 C327 0.961 . S
O331 Co306 1.967 . S
O331 C339 1.258 . S
O332 Co307 1.941 . S
O332 C339 1.266 . S
H333 C335 0.959 . S
H334 C335 0.961 . S
C335 C325 1.510 . S
C335 H333 0.959 . S
C335 H334 0.961 . S
C335 H336 0.960 . S
H336 C335 0.960 . S
H337 N317 0.862 1_565 S
O338 Co306 1.920 . S
O338 C311 1.289 . S
C339 O331 1.258 . S
C339 O332 1.266 . S
Co340 O343 1.970 . S
Co340 N357 1.989 . S
Co340 O365 1.967 . S
Co340 O372 1.920 . S
Co341 O344 1.966 . S
Co341 N350 2.022 . S
Co341 N358 1.993 . S
Co341 O366 1.941 . S
C342 O343 1.258 . S
C342 O344 1.263 . S
O343 Co340 1.970 . S
O343 C342 1.258 . S
O344 Co341 1.966 . S
O344 C342 1.263 . S
C345 O346 1.235 . S
C345 O372 1.289 . S
O346 C345 1.235 . S
C347 C349 1.400 . S
C347 N350 1.351 . S
C347 C352 1.501 . S
C348 C349 1.387 . S
C348 N351 1.341 . S
C349 C347 1.400 . S
C349 C348 1.387 . S
N350 Co341 2.022 . S
N350 C347 1.351 . S
N350 N351 1.365 . S
N351 C348 1.341 . S
N351 N350 1.365 . S
N351 H371 0.862 1_655 S
C352 C347 1.501 . S
C352 H353 0.961 . S
C352 H354 0.961 . S
C352 H355 0.960 . S
H353 C352 0.961 . S
H354 C352 0.961 . S
H355 C352 0.960 . S
C356 N357 1.342 . S
C356 C360 1.401 . S
C356 C361 1.499 . S
N357 Co340 1.989 . S
N357 C356 1.342 . S
N357 N358 1.388 . S
N358 Co341 1.993 . S
N358 N357 1.388 . S
N358 C359 1.346 . S
C359 N358 1.346 . S
C359 C360 1.396 . S
C359 C369 1.510 . S
C360 C356 1.401 . S
C360 C359 1.396 . S
C361 C356 1.499 . S
C361 H362 0.959 . S
C361 H363 0.960 . S
C361 H364 0.961 . S
H362 C361 0.959 . S
H363 C361 0.960 . S
H364 C361 0.961 . S
O365 Co340 1.967 . S
O365 C373 1.258 . S
O366 Co341 1.941 . S
O366 C373 1.266 . S
H367 C369 0.959 . S
H368 C369 0.961 . S
C369 C359 1.510 . S
C369 H367 0.959 . S
C369 H368 0.961 . S
C369 H370 0.960 . S
H370 C369 0.960 . S
H371 N351 0.862 1_455 S
O372 Co340 1.920 . S
O372 C345 1.289 . S
C373 O365 1.258 . S
C373 O366 1.266 . S
Co374 O377 1.970 . S
Co374 N391 1.989 . S
Co374 O399 1.967 . S
Co374 O406 1.920 . S
Co375 O378 1.966 . S
Co375 N384 2.022 . S
Co375 N392 1.993 . S
Co375 O400 1.941 . S
C376 O377 1.258 . S
C376 O378 1.263 . S
O377 Co374 1.970 . S
O377 C376 1.258 . S
O378 Co375 1.966 . S
O378 C376 1.263 . S
C379 O380 1.235 . S
C379 O406 1.289 . S
O380 C379 1.235 . S
C381 C383 1.400 . S
C381 N384 1.351 . S
C381 C386 1.501 . S
C382 C383 1.387 . S
C382 N385 1.341 . S
C383 C381 1.400 . S
C383 C382 1.387 . S
N384 Co375 2.022 . S
N384 C381 1.351 . S
N384 N385 1.365 . S
N385 C382 1.341 . S
N385 N384 1.365 . S
N385 H405 0.862 . S
C386 C381 1.501 . S
C386 H387 0.961 . S
C386 H388 0.961 . S
C386 H389 0.960 . S
H387 C386 0.961 . S
H388 C386 0.961 . S
H389 C386 0.960 . S
C390 N391 1.342 . S
C390 C394 1.401 . S
C390 C395 1.499 . S
N391 Co374 1.989 . S
N391 C390 1.342 . S
N391 N392 1.388 . S
N392 Co375 1.993 . S
N392 N391 1.388 . S
N392 C393 1.346 . S
C393 N392 1.346 . S
C393 C394 1.396 . S
C393 C403 1.510 . S
C394 C390 1.401 . S
C394 C393 1.396 . S
C395 C390 1.499 . S
C395 H396 0.959 . S
C395 H397 0.960 . S
C395 H398 0.961 . S
H396 C395 0.959 . S
H397 C395 0.960 . S
H398 C395 0.961 . S
O399 Co374 1.967 . S
O399 C407 1.258 . S
O400 Co375 1.941 . S
O400 C407 1.266 . S
H401 C403 0.959 . S
H402 C403 0.961 . S
C403 C393 1.510 . S
C403 H401 0.959 . S
C403 H402 0.961 . S
C403 H404 0.960 . S
H404 C403 0.960 . S
H405 N385 0.862 . S
O406 Co374 1.920 . S
O406 C379 1.289 . S
C407 O399 1.258 . S
C407 O400 1.266 . S
H408 C416 0.950 . S
H409 C421 0.950 . S
H410 C418 0.950 . S
H411 C420 0.950 . S
H412 C422 0.950 . S
H413 C424 0.950 . S
H414 C426 0.950 1_655 S
H415 C427 0.950 . S
C416 H408 0.950 . S
C416 C417 1.386 . S
C416 C418 1.391 . S
C417 C416 1.386 . S
C417 C421 1.393 1_655 S
C418 H410 0.950 . S
C418 C416 1.391 . S
C418 C419 1.400 1_655 S
C419 C418 1.400 1_455 S
C419 C420 1.398 . S
C419 C425 1.491 . S
C420 H411 0.950 . S
C420 C419 1.398 . S
C420 C421 1.391 . S
C421 H409 0.950 . S
C421 C417 1.393 1_455 S
C421 C420 1.391 . S
C422 H412 0.950 . S
C422 C423 1.386 . S
C422 C424 1.391 . S
C423 C422 1.386 . S
C423 C427 1.393 . S
C424 H413 0.950 . S
C424 C422 1.391 . S
C424 C425 1.400 . S
C425 C419 1.491 . S
C425 C424 1.400 . S
C425 C426 1.398 . S
C426 H414 0.950 1_455 S
C426 C425 1.398 . S
C426 C427 1.391 . S
C427 H415 0.950 . S
C427 C423 1.393 . S
C427 C426 1.391 . S
H428 C436 0.950 . S
H429 C441 0.950 . S
H430 C438 0.950 . S
H431 C440 0.950 . S
H432 C442 0.950 . S
H433 C444 0.950 . S
H434 C446 0.950 . S
H435 C447 0.950 . S
C436 H428 0.950 . S
C436 C437 1.386 . S
C436 C438 1.391 . S
C437 C436 1.386 . S
C437 C441 1.393 . S
C438 H430 0.950 . S
C438 C436 1.391 . S
C438 C439 1.400 . S
C439 C438 1.400 . S
C439 C440 1.398 . S
C439 C445 1.491 . S
C440 H431 0.950 . S
C440 C439 1.398 . S
C440 C441 1.391 . S
C441 H429 0.950 . S
C441 C437 1.393 . S
C441 C440 1.391 . S
C442 H432 0.950 . S
C442 C443 1.386 . S
C442 C444 1.391 . S
C443 C442 1.386 . S
C443 C447 1.393 . S
C444 H433 0.950 . S
C444 C442 1.391 . S
C444 C445 1.400 . S
C445 C439 1.491 . S
C445 C444 1.400 . S
C445 C446 1.398 . S
C446 H434 0.950 . S
C446 C445 1.398 . S
C446 C447 1.391 . S
C447 H435 0.950 . S
C447 C443 1.393 . S
C447 C446 1.391 . S
H448 C456 0.950 . S
H449 C461 0.950 . S
H450 C458 0.950 . S
H451 C460 0.950 . S
H452 C462 0.950 . S
H453 C464 0.950 1_545 S
H454 C466 0.950 . S
H455 C467 0.950 . S
C456 H448 0.950 . S
C456 C457 1.386 1_565 S
C456 C458 1.391 . S
C457 C456 1.386 1_545 S
C457 C461 1.393 . S
C458 H450 0.950 . S
C458 C456 1.391 . S
C458 C459 1.400 . S
C459 C458 1.400 . S
C459 C460 1.398 1_565 S
C459 C465 1.491 . S
C460 H451 0.950 . S
C460 C459 1.398 1_545 S
C460 C461 1.391 . S
C461 H449 0.950 . S
C461 C457 1.393 . S
C461 C460 1.391 . S
C462 H452 0.950 . S
C462 C463 1.386 . S
C462 C464 1.391 . S
C463 C462 1.386 . S
C463 C467 1.393 . S
C464 H453 0.950 1_565 S
C464 C462 1.391 . S
C464 C465 1.400 . S
C465 C459 1.491 . S
C465 C464 1.400 . S
C465 C466 1.398 . S
C466 H454 0.950 . S
C466 C465 1.398 . S
C466 C467 1.391 . S
C467 H455 0.950 . S
C467 C463 1.393 . S
C467 C466 1.391 . S
H468 C476 0.950 . S
H469 C481 0.950 . S
H470 C478 0.950 . S
H471 C480 0.950 1_545 S
H472 C482 0.950 . S
H473 C484 0.950 . S
H474 C486 0.950 . S
H475 C487 0.950 . S
C476 H468 0.950 . S
C476 C477 1.386 . S
C476 C478 1.391 . S
C477 C476 1.386 . S
C477 C481 1.393 . S
C478 H470 0.950 . S
C478 C476 1.391 . S
C478 C479 1.400 . S
C479 C478 1.400 . S
C479 C480 1.398 . S
C479 C485 1.491 . S
C480 H471 0.950 1_565 S
C480 C479 1.398 . S
C480 C481 1.391 . S
C481 H469 0.950 . S
C481 C477 1.393 . S
C481 C480 1.391 . S
C482 H472 0.950 . S
C482 C483 1.386 . S
C482 C484 1.391 . S
C483 C482 1.386 . S
C483 C487 1.393 1_545 S
C484 H473 0.950 . S
C484 C482 1.391 . S
C484 C485 1.400 1_545 S
C485 C479 1.491 . S
C485 C484 1.400 1_565 S
C485 C486 1.398 . S
C486 H474 0.950 . S
C486 C485 1.398 . S
C486 C487 1.391 . S
C487 H475 0.950 . S
C487 C483 1.393 1_565 S
C487 C486 1.391 . S
H488 C496 0.950 . S
H489 C501 0.950 . S
H490 C498 0.950 1_655 S
H491 C500 0.950 . S
H492 C502 0.950 . S
H493 C504 0.950 . S
H494 C506 0.950 . S
H495 C507 0.950 . S
C496 H488 0.950 . S
C496 C497 1.386 . S
C496 C498 1.391 . S
C497 C496 1.386 . S
C497 C501 1.393 . S
C498 H490 0.950 1_455 S
C498 C496 1.391 . S
C498 C499 1.400 . S
C499 C498 1.400 . S
C499 C500 1.398 . S
C499 C505 1.491 . S
C500 H491 0.950 . S
C500 C499 1.398 . S
C500 C501 1.391 . S
C501 H489 0.950 . S
C501 C497 1.393 . S
C501 C500 1.391 . S
C502 H492 0.950 . S
C502 C503 1.386 1_455 S
C502 C504 1.391 . S
C503 C502 1.386 1_655 S
C503 C507 1.393 . S
C504 H493 0.950 . S
C504 C502 1.391 . S
C504 C505 1.400 . S
C505 C499 1.491 . S
C505 C504 1.400 . S
C505 C506 1.398 1_455 S
C506 H494 0.950 . S
C506 C505 1.398 1_655 S
C506 C507 1.391 . S
C507 H495 0.950 . S
C507 C503 1.393 . S
C507 C506 1.391 . S
H508 C516 0.950 . S
H509 C521 0.950 . S
H510 C518 0.950 . S
H511 C520 0.950 . S
H512 C522 0.950 . S
H513 C524 0.950 . S
H514 C526 0.950 . S
H515 C527 0.950 . S
C516 H508 0.950 . S
C516 C517 1.386 . S
C516 C518 1.391 . S
C517 C516 1.386 . S
C517 C521 1.393 . S
C518 H510 0.950 . S
C518 C516 1.391 . S
C518 C519 1.400 . S
C519 C518 1.400 . S
C519 C520 1.398 . S
C519 C525 1.491 . S
C520 H511 0.950 . S
C520 C519 1.398 . S
C520 C521 1.391 . S
C521 H509 0.950 . S
C521 C517 1.393 . S
C521 C520 1.391 . S
C522 H512 0.950 . S
C522 C523 1.386 . S
C522 C524 1.391 . S
C523 C522 1.386 . S
C523 C527 1.393 . S
C524 H513 0.950 . S
C524 C522 1.391 . S
C524 C525 1.400 . S
C525 C519 1.491 . S
C525 C524 1.400 . S
C525 C526 1.398 . S
C526 H514 0.950 . S
C526 C525 1.398 . S
C526 C527 1.391 . S
C527 H515 0.950 . S
C527 C523 1.393 . S
C527 C526 1.391 . S
H528 C536 0.950 . S
H529 C541 0.950 . S
H530 C538 0.950 . S
H531 C540 0.950 . S
H532 C542 0.950 . S
H533 C544 0.950 1_455 S
H534 C546 0.950 . S
H535 C547 0.950 . S
C536 H528 0.950 . S
C536 C537 1.386 1_655 S
C536 C538 1.391 . S
C537 C536 1.386 1_455 S
C537 C541 1.393 . S
C538 H530 0.950 . S
C538 C536 1.391 . S
C538 C539 1.400 . S
C539 C538 1.400 . S
C539 C540 1.398 1_655 S
C539 C545 1.491 . S
C540 H531 0.950 . S
C540 C539 1.398 1_455 S
C540 C541 1.391 . S
C541 H529 0.950 . S
C541 C537 1.393 . S
C541 C540 1.391 . S
C542 H532 0.950 . S
C542 C543 1.386 . S
C542 C544 1.391 . S
C543 C542 1.386 . S
C543 C547 1.393 . S
C544 H533 0.950 1_655 S
C544 C542 1.391 . S
C544 C545 1.400 . S
C545 C539 1.491 . S
C545 C544 1.400 . S
C545 C546 1.398 . S
C546 H534 0.950 . S
C546 C545 1.398 . S
C546 C547 1.391 . S
C547 H535 0.950 . S
C547 C543 1.393 . S
C547 C546 1.391 . S
H548 C556 0.950 . S
H549 C561 0.950 . S
H550 C558 0.950 . S
H551 C560 0.950 . S
H552 C562 0.950 . S
H553 C564 0.950 . S
H554 C566 0.950 . S
H555 C567 0.950 . S
C556 H548 0.950 . S
C556 C557 1.386 . S
C556 C558 1.391 . S
C557 C556 1.386 . S
C557 C561 1.393 . S
C558 H550 0.950 . S
C558 C556 1.391 . S
C558 C559 1.400 . S
C559 C558 1.400 . S
C559 C560 1.398 . S
C559 C565 1.491 . S
C560 H551 0.950 . S
C560 C559 1.398 . S
C560 C561 1.391 . S
C561 H549 0.950 . S
C561 C557 1.393 . S
C561 C560 1.391 . S
C562 H552 0.950 . S
C562 C563 1.386 . S
C562 C564 1.391 . S
C563 C562 1.386 . S
C563 C567 1.393 . S
C564 H553 0.950 . S
C564 C562 1.391 . S
C564 C565 1.400 . S
C565 C559 1.491 . S
C565 C564 1.400 . S
C565 C566 1.398 . S
C566 H554 0.950 . S
C566 C565 1.398 . S
C566 C567 1.391 . S
C567 H555 0.950 . S
C567 C563 1.393 . S
C567 C566 1.391 . S
H568 C576 0.950 . S
H569 C581 0.950 . S
H570 C578 0.950 . S
H571 C580 0.935 . S
H572 C582 0.950 . S
H573 C584 0.950 . S
H574 C586 0.950 . S
H575 C587 0.950 . S
C576 H568 0.950 . S
C576 C577 1.386 . S
C576 C578 1.391 1_565 S
C577 C576 1.386 . S
C577 C581 1.393 . S
C578 H570 0.950 . S
C578 C576 1.391 1_545 S
C578 C579 1.400 . S
C579 C578 1.400 . S
C579 C580 1.398 1_545 S
C579 C585 1.491 . S
C580 H571 0.935 . S
C580 C579 1.398 1_565 S
C580 C581 1.391 . S
C581 H569 0.950 . S
C581 C577 1.393 . S
C581 C580 1.391 . S
C582 H572 0.950 . S
C582 C583 1.386 . S
C582 C584 1.391 . S
C583 C582 1.386 . S
C583 C587 1.393 . S
C584 H573 0.950 . S
C584 C582 1.391 . S
C584 C585 1.400 . S
C585 C579 1.491 . S
C585 C584 1.400 . S
C585 C586 1.398 . S
C586 H574 0.950 . S
C586 C585 1.398 . S
C586 C587 1.391 . S
C587 H575 0.950 . S
C587 C583 1.393 . S
C587 C586 1.391 . S
H588 C596 0.950 . S
H589 C601 0.950 . S
H590 C598 0.950 . S
H591 C600 0.950 . S
H592 C602 0.950 . S
H593 C604 0.950 . S
H594 C606 0.950 1_565 S
H595 C607 0.950 . S
C596 H588 0.950 . S
C596 C597 1.386 . S
C596 C598 1.391 . S
C597 C596 1.386 . S
C597 C601 1.393 1_565 S
C598 H590 0.950 . S
C598 C596 1.391 . S
C598 C599 1.400 1_565 S
C599 C598 1.400 1_545 S
C599 C600 1.398 . S
C599 C605 1.491 . S
C600 H591 0.950 . S
C600 C599 1.398 . S
C600 C601 1.391 . S
C601 H589 0.950 . S
C601 C597 1.393 1_545 S
C601 C600 1.391 . S
C602 H592 0.950 . S
C602 C603 1.386 . S
C602 C604 1.391 . S
C603 C602 1.386 . S
C603 C607 1.393 . S
C604 H593 0.950 . S
C604 C602 1.391 . S
C604 C605 1.400 . S
C605 C599 1.491 . S
C605 C604 1.400 . S
C605 C606 1.398 . S
C606 H594 0.950 1_545 S
C606 C605 1.398 . S
C606 C607 1.391 . S
C607 H595 0.950 . S
C607 C603 1.393 . S
C607 C606 1.391 . S
H608 C616 0.950 . S
H609 C621 0.950 . S
H610 C618 0.950 . S
H611 C620 0.950 . S
H612 C622 0.950 . S
H613 C624 0.950 . S
H614 C626 0.950 . S
H615 C627 0.950 . S
C616 H608 0.950 . S
C616 C617 1.386 . S
C616 C618 1.391 . S
C617 C616 1.386 . S
C617 C621 1.393 . S
C618 H610 0.950 . S
C618 C616 1.391 . S
C618 C619 1.400 . S
C619 C618 1.400 . S
C619 C620 1.398 . S
C619 C625 1.491 . S
C620 H611 0.950 . S
C620 C619 1.398 . S
C620 C621 1.391 . S
C621 H609 0.950 . S
C621 C617 1.393 . S
C621 C620 1.391 . S
C622 H612 0.950 . S
C622 C623 1.386 . S
C622 C624 1.391 1_455 S
C623 C622 1.386 . S
C623 C627 1.393 . S
C624 H613 0.950 . S
C624 C622 1.391 1_655 S
C624 C625 1.400 . S
C625 C619 1.491 . S
C625 C624 1.400 . S
C625 C626 1.398 . S
C626 H614 0.950 . S
C626 C625 1.398 . S
C626 C627 1.391 1_655 S
C627 H615 0.950 . S
C627 C623 1.393 . S
C627 C626 1.391 1_455 S
H628 C636 0.950 . S
H629 C641 0.950 . S
H630 C638 0.950 . S
H631 C640 0.950 . S
H632 C642 0.950 . S
H633 C644 0.950 . S
H634 C646 0.950 . S
H635 C647 0.950 . S
C636 H628 0.950 . S
C636 C637 1.386 . S
C636 C638 1.391 . S
C637 C636 1.386 . S
C637 C641 1.393 . S
C638 H630 0.950 . S
C638 C636 1.391 . S
C638 C639 1.400 . S
C639 C638 1.400 . S
C639 C640 1.398 . S
C639 C645 1.491 . S
C640 H631 0.950 . S
C640 C639 1.398 . S
C640 C641 1.391 . S
C641 H629 0.950 . S
C641 C637 1.393 . S
C641 C640 1.391 . S
C642 H632 0.950 . S
C642 C643 1.386 . S
C642 C644 1.391 . S
C643 C642 1.386 . S
C643 C647 1.393 . S
C644 H633 0.950 . S
C644 C642 1.391 . S
C644 C645 1.400 . S
C645 C639 1.491 . S
C645 C644 1.400 . S
C645 C646 1.398 . S
C646 H634 0.950 . S
C646 C645 1.398 . S
C646 C647 1.391 . S
C647 H635 0.950 . S
C647 C643 1.393 . S
C647 C646 1.391 . S
H648 C656 0.950 . S
H649 C661 0.950 . S
H650 C658 0.950 . S
H651 C660 0.950 . S
H652 C662 0.950 . S
H653 C664 0.950 . S
H654 C666 0.950 . S
H655 C667 0.950 . S
C656 H648 0.950 . S
C656 C657 1.386 1_455 S
C656 C658 1.391 . S
C657 C656 1.386 1_655 S
C657 C661 1.393 . S
C658 H650 0.950 . S
C658 C656 1.391 . S
C658 C659 1.400 1_455 S
C659 C658 1.400 1_655 S
C659 C660 1.398 . S
C659 C665 1.491 1_656 S
C660 H651 0.950 . S
C660 C659 1.398 . S
C660 C661 1.391 . S
C661 H649 0.950 . S
C661 C657 1.393 . S
C661 C660 1.391 . S
C662 H652 0.950 . S
C662 C663 1.386 1_655 S
C662 C664 1.391 . S
C663 C662 1.386 1_455 S
C663 C667 1.393 . S
C664 H653 0.950 . S
C664 C662 1.391 . S
C664 C665 1.400 1_655 S
C665 C659 1.491 1_454 S
C665 C664 1.400 1_455 S
C665 C666 1.398 . S
C666 H654 0.950 . S
C666 C665 1.398 . S
C666 C667 1.391 . S
C667 H655 0.950 . S
C667 C663 1.393 . S
C667 C666 1.391 . S
H668 C676 0.950 . S
H669 C681 0.950 . S
H670 C678 0.950 . S
H671 C680 0.950 . S
H672 C682 0.950 . S
H673 C684 0.950 . S
H674 C686 0.950 . S
H675 C687 0.950 . S
C676 H668 0.950 . S
C676 C677 1.386 1_556 S
C676 C678 1.391 . S
C677 C676 1.386 1_554 S
C677 C681 1.393 . S
C678 H670 0.950 . S
C678 C676 1.391 . S
C678 C679 1.400 1_556 S
C679 C678 1.400 1_554 S
C679 C680 1.398 . S
C679 C685 1.491 1_554 S
C680 H671 0.950 . S
C680 C679 1.398 . S
C680 C681 1.391 . S
C681 H669 0.950 . S
C681 C677 1.393 . S
C681 C680 1.391 . S
C682 H672 0.950 . S
C682 C683 1.386 1_554 S
C682 C684 1.391 . S
C683 C682 1.386 1_556 S
C683 C687 1.393 . S
C684 H673 0.950 . S
C684 C682 1.391 . S
C684 C685 1.400 1_554 S
C685 C679 1.491 1_556 S
C685 C684 1.400 1_556 S
C685 C686 1.398 . S
C686 H674 0.950 . S
C686 C685 1.398 . S
C686 C687 1.391 . S
C687 H675 0.950 . S
C687 C683 1.393 . S
C687 C686 1.391 . S
H688 C696 0.949 1_554 S
H689 C701 0.953 . S
H690 C698 0.950 . S
H691 C700 0.950 . S
H692 C702 0.949 1_556 S
H693 C704 0.950 . S
H694 C706 0.950 . S
H695 C707 0.953 . S
C696 H688 0.949 1_556 S
C696 C697 1.386 . S
C696 C698 1.391 1_556 S
C697 C696 1.386 . S
C697 C701 1.390 1_545 S
C698 H690 0.950 . S
C698 C696 1.391 1_554 S
C698 C699 1.400 1_554 S
C699 C698 1.400 1_556 S
C699 C700 1.398 1_545 S
C699 C705 1.491 1_546 S
C700 H691 0.950 . S
C700 C699 1.398 1_565 S
C700 C701 1.390 . S
C701 H689 0.953 . S
C701 C697 1.390 1_565 S
C701 C700 1.390 . S
C702 H692 0.949 1_554 S
C702 C703 1.386 . S
C702 C704 1.391 1_554 S
C703 C702 1.386 . S
C703 C707 1.390 1_565 S
C704 H693 0.950 . S
C704 C702 1.391 1_556 S
C704 C705 1.400 1_556 S
C705 C699 1.491 1_564 S
C705 C704 1.400 1_554 S
C705 C706 1.398 1_565 S
C706 H694 0.950 . S
C706 C705 1.398 1_545 S
C706 C707 1.390 . S
C707 H695 0.953 . S
C707 C703 1.390 1_545 S
C707 C706 1.390 . S
H708 C716 0.950 . S
H709 C721 0.950 . S
H710 C718 0.950 . S
H711 C720 0.950 . S
H712 C722 0.950 . S
H713 C724 0.950 . S
H714 C726 0.950 . S
H715 C727 0.950 . S
C716 H708 0.950 . S
C716 C717 1.386 1_545 S
C716 C718 1.391 . S
C717 C716 1.386 1_565 S
C717 C721 1.393 . S
C718 H710 0.950 . S
C718 C716 1.391 . S
C718 C719 1.400 1_545 S
C719 C718 1.400 1_565 S
C719 C720 1.398 . S
C719 C725 1.491 1_565 S
C720 H711 0.950 . S
C720 C719 1.398 . S
C720 C721 1.391 . S
C721 H709 0.950 . S
C721 C717 1.393 . S
C721 C720 1.391 . S
C722 H712 0.950 . S
C722 C723 1.386 1_565 S
C722 C724 1.391 . S
C723 C722 1.386 1_545 S
C723 C727 1.393 . S
C724 H713 0.950 . S
C724 C722 1.391 . S
C724 C725 1.400 1_565 S
C725 C719 1.491 1_545 S
C725 C724 1.400 1_545 S
C725 C726 1.398 . S
C726 H714 0.950 . S
C726 C725 1.398 . S
C726 C727 1.391 . S
C727 H715 0.950 . S
C727 C723 1.393 . S
C727 C726 1.391 . S
H728 C736 0.950 . S
H729 C741 0.950 . S
H730 C738 0.950 . S
H731 C740 0.950 . S
H732 C742 0.950 . S
H733 C744 0.950 . S
H734 C746 0.950 . S
H735 C747 0.950 . S
C736 H728 0.950 . S
C736 C737 1.386 1_655 S
C736 C738 1.391 . S
C737 C736 1.386 1_455 S
C737 C741 1.393 . S
C738 H730 0.950 . S
C738 C736 1.391 . S
C738 C739 1.400 1_655 S
C739 C738 1.400 1_455 S
C739 C740 1.398 . S
C739 C745 1.491 1_455 S
C740 H731 0.950 . S
C740 C739 1.398 . S
C740 C741 1.391 . S
C741 H729 0.950 . S
C741 C737 1.393 . S
C741 C740 1.391 . S
C742 H732 0.950 . S
C742 C743 1.386 1_455 S
C742 C744 1.391 . S
C743 C742 1.386 1_655 S
C743 C747 1.393 . S
C744 H733 0.950 . S
C744 C742 1.391 . S
C744 C745 1.400 1_455 S
C745 C739 1.491 1_655 S
C745 C744 1.400 1_655 S
C745 C746 1.398 . S
C746 H734 0.950 . S
C746 C745 1.398 . S
C746 C747 1.391 . S
C747 H735 0.950 . S
C747 C743 1.393 . S
C747 C746 1.391 . S
H748 C756 0.950 . S
H749 C761 0.950 . S
H750 C758 0.950 . S
H751 C760 0.950 . S
H752 C762 0.950 . S
H753 C764 0.950 . S
H754 C766 0.950 . S
H755 C767 0.950 . S
C756 H748 0.950 . S
C756 C757 1.386 . S
C756 C758 1.391 . S
C757 C756 1.386 . S
C757 C761 1.393 . S
C758 H750 0.950 . S
C758 C756 1.391 . S
C758 C759 1.400 . S
C759 C758 1.400 . S
C759 C760 1.398 . S
C759 C765 1.491 . S
C760 H751 0.950 . S
C760 C759 1.398 . S
C760 C761 1.391 . S
C761 H749 0.950 . S
C761 C757 1.393 . S
C761 C760 1.391 . S
C762 H752 0.950 . S
C762 C763 1.386 . S
C762 C764 1.391 . S
C763 C762 1.386 . S
C763 C767 1.393 . S
C764 H753 0.950 . S
C764 C762 1.391 . S
C764 C765 1.400 . S
C765 C759 1.491 . S
C765 C764 1.400 . S
C765 C766 1.398 . S
C766 H754 0.950 . S
C766 C765 1.398 . S
C766 C767 1.391 . S
C767 H755 0.950 . S
C767 C763 1.393 . S
C767 C766 1.391 . S
H768 C776 0.950 . S
H769 C781 0.950 . S
H770 C778 0.950 . S
H771 C780 0.950 . S
H772 C782 0.950 . S
H773 C784 0.950 . S
H774 C786 0.950 . S
H775 C787 0.950 . S
C776 H768 0.950 . S
C776 C777 1.386 . S
C776 C778 1.391 . S
C777 C776 1.386 . S
C777 C781 1.393 . S
C778 H770 0.950 . S
C778 C776 1.391 . S
C778 C779 1.400 . S
C779 C778 1.400 . S
C779 C780 1.398 . S
C779 C785 1.491 . S
C780 H771 0.950 . S
C780 C779 1.398 . S
C780 C781 1.391 . S
C781 H769 0.950 . S
C781 C777 1.393 . S
C781 C780 1.391 . S
C782 H772 0.950 . S
C782 C783 1.386 . S
C782 C784 1.391 . S
C783 C782 1.386 . S
C783 C787 1.393 . S
C784 H773 0.950 . S
C784 C782 1.391 . S
C784 C785 1.400 . S
C785 C779 1.491 . S
C785 C784 1.400 . S
C785 C786 1.398 . S
C786 H774 0.950 . S
C786 C785 1.398 . S
C786 C787 1.391 . S
C787 H775 0.950 . S
C787 C783 1.393 . S
C787 C786 1.391 . S
H788 C796 0.950 . S
H789 C801 0.950 . S
H790 C798 0.950 . S
H791 C800 0.950 . S
H792 C802 0.950 . S
H793 C804 0.950 . S
H794 C806 0.950 . S
H795 C807 0.950 . S
C796 H788 0.950 . S
C796 C797 1.386 . S
C796 C798 1.391 . S
C797 C796 1.386 . S
C797 C801 1.393 . S
C798 H790 0.950 . S
C798 C796 1.391 . S
C798 C799 1.400 . S
C799 C798 1.400 . S
C799 C800 1.398 . S
C799 C805 1.491 . S
C800 H791 0.950 . S
C800 C799 1.398 . S
C800 C801 1.391 . S
C801 H789 0.950 . S
C801 C797 1.393 . S
C801 C800 1.391 . S
C802 H792 0.950 . S
C802 C803 1.386 . S
C802 C804 1.391 . S
C803 C802 1.386 . S
C803 C807 1.393 . S
C804 H793 0.950 . S
C804 C802 1.391 . S
C804 C805 1.400 . S
C805 C799 1.491 . S
C805 C804 1.400 . S
C805 C806 1.398 . S
C806 H794 0.950 . S
C806 C805 1.398 . S
C806 C807 1.391 . S
C807 H795 0.950 . S
C807 C803 1.393 . S
C807 C806 1.391 . S
H808 C816 0.950 . S
H809 C821 0.950 . S
H810 C818 0.950 . S
H811 C820 0.950 . S
H812 C822 0.950 . S
H813 C824 0.950 . S
H814 C826 0.950 . S
H815 C827 0.950 . S
C816 H808 0.950 . S
C816 C817 1.386 . S
C816 C818 1.391 . S
C817 C816 1.386 . S
C817 C821 1.393 . S
C818 H810 0.950 . S
C818 C816 1.391 . S
C818 C819 1.400 . S
C819 C818 1.400 . S
C819 C820 1.398 . S
C819 C825 1.491 . S
C820 H811 0.950 . S
C820 C819 1.398 . S
C820 C821 1.391 . S
C821 H809 0.950 . S
C821 C817 1.393 . S
C821 C820 1.391 . S
C822 H812 0.950 . S
C822 C823 1.386 . S
C822 C824 1.391 . S
C823 C822 1.386 . S
C823 C827 1.393 . S
C824 H813 0.950 . S
C824 C822 1.391 . S
C824 C825 1.400 . S
C825 C819 1.491 . S
C825 C824 1.400 . S
C825 C826 1.398 . S
C826 H814 0.950 . S
C826 C825 1.398 . S
C826 C827 1.391 . S
C827 H815 0.950 . S
C827 C823 1.393 . S
C827 C826 1.391 . S
H828 C836 0.950 . S
H829 C841 0.950 . S
H830 C838 0.950 . S
H831 C840 0.950 . S
H832 C842 0.950 . S
H833 C844 0.950 . S
H834 C846 0.950 . S
H835 C847 0.950 . S
C836 H828 0.950 . S
C836 C837 1.386 . S
C836 C838 1.391 . S
C837 C836 1.386 . S
C837 C841 1.393 . S
C838 H830 0.950 . S
C838 C836 1.391 . S
C838 C839 1.400 . S
C839 C838 1.400 . S
C839 C840 1.398 . S
C839 C845 1.491 . S
C840 H831 0.950 . S
C840 C839 1.398 . S
C840 C841 1.391 . S
C841 H829 0.950 . S
C841 C837 1.393 . S
C841 C840 1.391 . S
C842 H832 0.950 . S
C842 C843 1.386 . S
C842 C844 1.391 . S
C843 C842 1.386 . S
C843 C847 1.393 . S
C844 H833 0.950 . S
C844 C842 1.391 . S
C844 C845 1.400 . S
C845 C839 1.491 . S
C845 C844 1.400 . S
C845 C846 1.398 . S
C846 H834 0.950 . S
C846 C845 1.398 . S
C846 C847 1.391 . S
C847 H835 0.950 . S
C847 C843 1.393 . S
C847 C846 1.391 . S
H848 C856 0.950 . S
H849 C861 0.950 . S
H850 C858 0.950 . S
H851 C860 0.950 . S
H852 C862 0.950 . S
H853 C864 0.950 . S
H854 C866 0.950 . S
H855 C867 0.950 . S
C856 H848 0.950 . S
C856 C857 1.386 . S
C856 C858 1.391 . S
C857 C856 1.386 . S
C857 C861 1.393 . S
C858 H850 0.950 . S
C858 C856 1.391 . S
C858 C859 1.400 . S
C859 C858 1.400 . S
C859 C860 1.398 . S
C859 C865 1.491 . S
C860 H851 0.950 . S
C860 C859 1.398 . S
C860 C861 1.391 . S
C861 H849 0.950 . S
C861 C857 1.393 . S
C861 C860 1.391 . S
C862 H852 0.950 . S
C862 C863 1.386 . S
C862 C864 1.391 . S
C863 C862 1.386 . S
C863 C867 1.393 . S
C864 H853 0.950 . S
C864 C862 1.391 . S
C864 C865 1.400 . S
C865 C859 1.491 . S
C865 C864 1.400 . S
C865 C866 1.398 . S
C866 H854 0.950 . S
C866 C865 1.398 . S
C866 C867 1.391 . S
C867 H855 0.950 . S
C867 C863 1.393 . S
C867 C866 1.391 . S
H868 C876 0.950 . S
H869 C881 0.950 . S
H870 C878 0.950 . S
H871 C880 0.950 . S
H872 C882 0.950 . S
H873 C884 0.950 . S
H874 C886 0.950 . S
H875 C887 0.950 . S
C876 H868 0.950 . S
C876 C877 1.386 . S
C876 C878 1.391 . S
C877 C876 1.386 . S
C877 C881 1.393 . S
C878 H870 0.950 . S
C878 C876 1.391 . S
C878 C879 1.400 . S
C879 C878 1.400 . S
C879 C880 1.398 . S
C879 C885 1.491 . S
C880 H871 0.950 . S
C880 C879 1.398 . S
C880 C881 1.391 . S
C881 H869 0.950 . S
C881 C877 1.393 . S
C881 C880 1.391 . S
C882 H872 0.950 . S
C882 C883 1.386 . S
C882 C884 1.391 . S
C883 C882 1.386 . S
C883 C887 1.393 . S
C884 H873 0.950 . S
C884 C882 1.391 . S
C884 C885 1.400 . S
C885 C879 1.491 . S
C885 C884 1.400 . S
C885 C886 1.398 . S
C886 H874 0.950 . S
C886 C885 1.398 . S
C886 C887 1.391 . S
C887 H875 0.950 . S
C887 C883 1.393 . S
C887 C886 1.391 . S
H888 C896 0.950 . S
H889 C901 0.950 . S
H890 C898 0.950 . S
H891 C900 0.950 . S
H892 C902 0.950 . S
H893 C904 0.950 . S
H894 C906 0.950 . S
H895 C907 0.950 . S
C896 H888 0.950 . S
C896 C897 1.386 . S
C896 C898 1.391 . S
C897 C896 1.386 . S
C897 C901 1.393 . S
C898 H890 0.950 . S
C898 C896 1.391 . S
C898 C899 1.400 . S
C899 C898 1.400 . S
C899 C900 1.398 . S
C899 C905 1.491 . S
C900 H891 0.950 . S
C900 C899 1.398 . S
C900 C901 1.391 . S
C901 H889 0.950 . S
C901 C897 1.393 . S
C901 C900 1.391 . S
C902 H892 0.950 . S
C902 C903 1.386 . S
C902 C904 1.391 . S
C903 C902 1.386 . S
C903 C907 1.393 . S
C904 H893 0.950 . S
C904 C902 1.391 . S
C904 C905 1.400 . S
C905 C899 1.491 . S
C905 C904 1.400 . S
C905 C906 1.398 . S
C906 H894 0.950 . S
C906 C905 1.398 . S
C906 C907 1.391 . S
C907 H895 0.950 . S
C907 C903 1.393 . S
C907 C906 1.391 . S
H908 C916 0.950 . S
H909 C921 0.950 . S
H910 C918 0.950 . S
H911 C920 0.950 . S
H912 C922 0.950 . S
H913 C924 0.950 . S
H914 C926 0.950 . S
H915 C927 0.950 . S
C916 H908 0.950 . S
C916 C917 1.386 . S
C916 C918 1.391 . S
C917 C916 1.386 . S
C917 C921 1.393 . S
C918 H910 0.950 . S
C918 C916 1.391 . S
C918 C919 1.400 . S
C919 C918 1.400 . S
C919 C920 1.398 . S
C919 C925 1.491 . S
C920 H911 0.950 . S
C920 C919 1.398 . S
C920 C921 1.391 . S
C921 H909 0.950 . S
C921 C917 1.393 . S
C921 C920 1.391 . S
C922 H912 0.950 . S
C922 C923 1.386 . S
C922 C924 1.391 . S
C923 C922 1.386 . S
C923 C927 1.393 . S
C924 H913 0.950 . S
C924 C922 1.391 . S
C924 C925 1.400 . S
C925 C919 1.491 . S
C925 C924 1.400 . S
C925 C926 1.398 . S
C926 H914 0.950 . S
C926 C925 1.398 . S
C926 C927 1.391 . S
C927 H915 0.950 . S
C927 C923 1.393 . S
C927 C926 1.391 . S
H928 C936 0.950 . S
H929 C941 0.950 . S
H930 C938 0.950 . S
H931 C940 0.950 . S
H932 C942 0.950 . S
H933 C944 0.950 . S
H934 C946 0.950 . S
H935 C947 0.950 . S
C936 H928 0.950 . S
C936 C937 1.386 . S
C936 C938 1.391 . S
C937 C936 1.386 . S
C937 C941 1.393 . S
C938 H930 0.950 . S
C938 C936 1.391 . S
C938 C939 1.400 . S
C939 C938 1.400 . S
C939 C940 1.398 . S
C939 C945 1.491 . S
C940 H931 0.950 . S
C940 C939 1.398 . S
C940 C941 1.391 . S
C941 H929 0.950 . S
C941 C937 1.393 . S
C941 C940 1.391 . S
C942 H932 0.950 . S
C942 C943 1.386 . S
C942 C944 1.391 . S
C943 C942 1.386 . S
C943 C947 1.393 . S
C944 H933 0.950 . S
C944 C942 1.391 . S
C944 C945 1.400 . S
C945 C939 1.491 . S
C945 C944 1.400 . S
C945 C946 1.398 . S
C946 H934 0.950 . S
C946 C945 1.398 . S
C946 C947 1.391 . S
C947 H935 0.950 . S
C947 C943 1.393 . S
C947 C946 1.391 . S
H948 C956 0.950 . S
H949 C961 0.950 . S
H950 C958 0.950 . S
H951 C960 0.950 . S
H952 C962 0.950 . S
H953 C964 0.950 . S
H954 C966 0.950 . S
H955 C967 0.950 . S
C956 H948 0.950 . S
C956 C957 1.386 . S
C956 C958 1.391 . S
C957 C956 1.386 . S
C957 C961 1.393 . S
C958 H950 0.950 . S
C958 C956 1.391 . S
C958 C959 1.400 . S
C959 C958 1.400 . S
C959 C960 1.398 . S
C959 C965 1.491 . S
C960 H951 0.950 . S
C960 C959 1.398 . S
C960 C961 1.391 . S
C961 H949 0.950 . S
C961 C957 1.393 . S
C961 C960 1.391 . S
C962 H952 0.950 . S
C962 C963 1.386 . S
C962 C964 1.391 . S
C963 C962 1.386 . S
C963 C967 1.393 . S
C964 H953 0.950 . S
C964 C962 1.391 . S
C964 C965 1.400 . S
C965 C959 1.491 . S
C965 C964 1.400 . S
C965 C966 1.398 . S
C966 H954 0.950 . S
C966 C965 1.398 . S
C966 C967 1.391 . S
C967 H955 0.950 . S
C967 C963 1.393 . S
C967 C966 1.391 . S
H968 C976 0.950 . S
H969 C981 0.950 . S
H970 C978 0.950 . S
H971 C980 0.950 . S
H972 C982 0.950 . S
H973 C984 0.950 . S
H974 C986 0.950 . S
H975 C987 0.950 . S
C976 H968 0.950 . S
C976 C977 1.386 . S
C976 C978 1.391 . S
C977 C976 1.386 . S
C977 C981 1.393 . S
C978 H970 0.950 . S
C978 C976 1.391 . S
C978 C979 1.400 . S
C979 C978 1.400 . S
C979 C980 1.398 . S
C979 C985 1.491 . S
C980 H971 0.950 . S
C980 C979 1.398 . S
C980 C981 1.391 . S
C981 H969 0.950 . S
C981 C977 1.393 . S
C981 C980 1.391 . S
C982 H972 0.950 . S
C982 C983 1.386 . S
C982 C984 1.391 . S
C983 C982 1.386 . S
C983 C987 1.393 . S
C984 H973 0.950 . S
C984 C982 1.391 . S
C984 C985 1.400 . S
C985 C979 1.491 . S
C985 C984 1.400 . S
C985 C986 1.398 . S
C986 H974 0.950 . S
C986 C985 1.398 . S
C986 C987 1.391 . S
C987 H975 0.950 . S
C987 C983 1.393 . S
C987 C986 1.391 . S
H988 C996 0.950 . S
H989 C1001 0.950 . S
H990 C998 0.950 . S
H991 C1000 0.950 . S
H992 C1002 0.950 . S
H993 C1004 0.950 . S
H994 C1006 0.950 . S
H995 C1007 0.950 . S
C996 H988 0.950 . S
C996 C997 1.386 . S
C996 C998 1.391 . S
C997 C996 1.386 . S
C997 C1001 1.393 . S
C998 H990 0.950 . S
C998 C996 1.391 . S
C998 C999 1.400 . S
C999 C998 1.400 . S
C999 C1000 1.398 . S
C999 C1005 1.491 . S
C1000 H991 0.950 . S
C1000 C999 1.398 . S
C1000 C1001 1.391 . S
C1001 H989 0.950 . S
C1001 C997 1.393 . S
C1001 C1000 1.391 . S
C1002 H992 0.950 . S
C1002 C1003 1.386 . S
C1002 C1004 1.391 . S
C1003 C1002 1.386 . S
C1003 C1007 1.393 . S
C1004 H993 0.950 . S
C1004 C1002 1.391 . S
C1004 C1005 1.400 . S
C1005 C999 1.491 . S
C1005 C1004 1.400 . S
C1005 C1006 1.398 . S
C1006 H994 0.950 . S
C1006 C1005 1.398 . S
C1006 C1007 1.391 . S
C1007 H995 0.950 . S
C1007 C1003 1.393 . S
C1007 C1006 1.391 . S
C417 C373 1.452 . S
C423 C9 1.290 . S
C437 C43 1.285 . S
C443 C407 1.454 . S
C457 C339 1.459 . S
C463 C77 1.295 . S
C477 C111 1.319 . S
C483 C305 1.448 . S
C497 C145 1.272 . S
C503 C237 1.460 . S
C517 C179 1.315 . S
C523 C271 1.446 . S
C537 C169 1.451 . S
C543 C213 1.293 . S
C557 C203 1.448 . S
C563 C247 1.319 . S
C577 C135 1.462 . S
C583 C281 1.275 . S
C597 C101 1.460 . S
C603 C315 1.289 . S
C617 C349 1.283 . S
C623 C33 1.462 . S
C637 C67 1.459 . S
C643 C383 1.296 . S
C657 C224 1.253 . S
C663 C20 1.253 . S
C677 C54 1.247 . S
C683 C258 1.247 . S
C697 C292 1.233 . S
C703 C88 1.233 . S
C717 C122 1.235 . S
C723 C326 1.235 . S
C737 C156 1.233 . S
C743 C360 1.233 . S
C757 C394 1.235 . S
C763 C190 1.235 . S
C777 C5 0.683 . S
C783 C141 0.675 . S
C797 C39 0.656 . S
C803 C175 0.643 . S
C817 C73 0.684 . S
C823 C107 0.687 . S
C837 C345 0.686 . S
C843 C209 0.686 . S
C857 C243 0.670 . S
C863 C379 0.680 . S
C877 C277 0.685 . S
C883 C311 0.679 . S
C897 C172 1.405 . S
C903 C2 1.408 . S
C917 C104 1.436 . S
C923 C36 1.437 . S
C937 C70 1.420 . S
C943 C138 1.425 . S
C957 C206 1.410 . S
C963 C376 1.406 . S
C977 C308 1.423 . S
C983 C240 1.418 . S
C997 C342 1.404 . S
C1003 C274 1.407 . S
