# Generated by pormake.
# Topology une, (4)-cn, num edge types: 1
# Building blocks:
#     Node 0, Type 0, BuildingBlock: GALJAG_clean_sbu_0, # of connection points: 4
#     Node 1, Type 0, BuildingBlock: GALJAG_clean_sbu_0, # of connection points: 4
#     Node 2, Type 0, BuildingBlock: GALJAG_clean_sbu_0, # of connection points: 4
#     Node 3, Type 0, BuildingBlock: GALJAG_clean_sbu_0, # of connection points: 4
#     Node 4, Type 0, BuildingBlock: GALJAG_clean_sbu_0, # of connection points: 4
#     Node 5, Type 0, BuildingBlock: GALJAG_clean_sbu_0, # of connection points: 4
#     Node 6, Type 0, BuildingBlock: GALJAG_clean_sbu_0, # of connection points: 4
#     Node 7, Type 0, BuildingBlock: GALJAG_clean_sbu_0, # of connection points: 4
#     Node 8, Type 0, BuildingBlock: GALJAG_clean_sbu_0, # of connection points: 4
#     Node 9, Type 0, BuildingBlock: GALJAG_clean_sbu_0, # of connection points: 4
#     Node 10, Type 0, BuildingBlock: GALJAG_clean_sbu_0, # of connection points: 4
#     Node 11, Type 0, BuildingBlock: GALJAG_clean_sbu_0, # of connection points: 4
#     Node 12, Type 0, BuildingBlock: GALJAG_clean_sbu_0, # of connection points: 4
#     Node 13, Type 0, BuildingBlock: GALJAG_clean_sbu_0, # of connection points: 4
#     Node 14, Type 0, BuildingBlock: GALJAG_clean_sbu_0, # of connection points: 4
#     Node 15, Type 0, BuildingBlock: GALJAG_clean_sbu_0, # of connection points: 4
#     Node 16, Type 0, BuildingBlock: GALJAG_clean_sbu_0, # of connection points: 4
#     Node 17, Type 0, BuildingBlock: GALJAG_clean_sbu_0, # of connection points: 4
#     Edge 18, Type (0, 0), BuildingBlock: AJUNOK_clean_linker_0, # of connection points: 2
#     Edge 19, Type (0, 0), BuildingBlock: AJUNOK_clean_linker_0, # of connection points: 2
#     Edge 20, Type (0, 0), BuildingBlock: AJUNOK_clean_linker_0, # of connection points: 2
#     Edge 21, Type (0, 0), BuildingBlock: AJUNOK_clean_linker_0, # of connection points: 2
#     Edge 22, Type (0, 0), BuildingBlock: AJUNOK_clean_linker_0, # of connection points: 2
#     Edge 23, Type (0, 0), BuildingBlock: AJUNOK_clean_linker_0, # of connection points: 2
#     Edge 24, Type (0, 0), BuildingBlock: AJUNOK_clean_linker_0, # of connection points: 2
#     Edge 25, Type (0, 0), BuildingBlock: AJUNOK_clean_linker_0, # of connection points: 2
#     Edge 26, Type (0, 0), BuildingBlock: AJUNOK_clean_linker_0, # of connection points: 2
#     Edge 27, Type (0, 0), BuildingBlock: AJUNOK_clean_linker_0, # of connection points: 2
#     Edge 28, Type (0, 0), BuildingBlock: AJUNOK_clean_linker_0, # of connection points: 2
#     Edge 29, Type (0, 0), BuildingBlock: AJUNOK_clean_linker_0, # of connection points: 2
#     Edge 30, Type (0, 0), BuildingBlock: AJUNOK_clean_linker_0, # of connection points: 2
#     Edge 31, Type (0, 0), BuildingBlock: AJUNOK_clean_linker_0, # of connection points: 2
#     Edge 32, Type (0, 0), BuildingBlock: AJUNOK_clean_linker_0, # of connection points: 2
#     Edge 33, Type (0, 0), BuildingBlock: AJUNOK_clean_linker_0, # of connection points: 2
#     Edge 34, Type (0, 0), BuildingBlock: AJUNOK_clean_linker_0, # of connection points: 2
#     Edge 35, Type (0, 0), BuildingBlock: AJUNOK_clean_linker_0, # of connection points: 2
#     Edge 36, Type (0, 0), BuildingBlock: AJUNOK_clean_linker_0, # of connection points: 2
#     Edge 37, Type (0, 0), BuildingBlock: AJUNOK_clean_linker_0, # of connection points: 2
#     Edge 38, Type (0, 0), BuildingBlock: AJUNOK_clean_linker_0, # of connection points: 2
#     Edge 39, Type (0, 0), BuildingBlock: AJUNOK_clean_linker_0, # of connection points: 2
#     Edge 40, Type (0, 0), BuildingBlock: AJUNOK_clean_linker_0, # of connection points: 2
#     Edge 41, Type (0, 0), BuildingBlock: AJUNOK_clean_linker_0, # of connection points: 2
#     Edge 42, Type (0, 0), BuildingBlock: AJUNOK_clean_linker_0, # of connection points: 2
#     Edge 43, Type (0, 0), BuildingBlock: AJUNOK_clean_linker_0, # of connection points: 2
#     Edge 44, Type (0, 0), BuildingBlock: AJUNOK_clean_linker_0, # of connection points: 2
#     Edge 45, Type (0, 0), BuildingBlock: AJUNOK_clean_linker_0, # of connection points: 2
#     Edge 46, Type (0, 0), BuildingBlock: AJUNOK_clean_linker_0, # of connection points: 2
#     Edge 47, Type (0, 0), BuildingBlock: AJUNOK_clean_linker_0, # of connection points: 2
#     Edge 48, Type (0, 0), BuildingBlock: AJUNOK_clean_linker_0, # of connection points: 2
#     Edge 49, Type (0, 0), BuildingBlock: AJUNOK_clean_linker_0, # of connection points: 2
#     Edge 50, Type (0, 0), BuildingBlock: AJUNOK_clean_linker_0, # of connection points: 2
#     Edge 51, Type (0, 0), BuildingBlock: AJUNOK_clean_linker_0, # of connection points: 2
#     Edge 52, Type (0, 0), BuildingBlock: AJUNOK_clean_linker_0, # of connection points: 2
#     Edge 53, Type (0, 0), BuildingBlock: AJUNOK_clean_linker_0, # of connection points: 2
# Relax obj value: 0.162
# Max RMSD: 0.140
# Mean RMSD: 0.139
data_MOF--net-une--node1-GALJAG_clean_sbu_0--edge1-AJUNOK_clean_linker_0
_symmetry_space_group_name_H-M    P1
_symmetry_Int_Tables_number       1
_symmetry_cell_setting            triclinic
loop_
_symmetry_equiv_pos_as_xyz
'x, y, z'
_cell_length_a     29.554217
_cell_length_b     29.575653
_cell_length_c     37.912501
_cell_angle_alpha  89.875807
_cell_angle_beta   90.026571
_cell_angle_gamma 119.9929
loop_
_atom_site_label
_atom_site_type_symbol
_atom_site_fract_x
_atom_site_fract_y
_atom_site_fract_z
_atom_type_partial_charge
In0 In 0.35882 0.06164 0.0559 0.0
O1 O 0.31484 0.07125 0.10186 0.0
O2 O 0.3962 0.1239 0.09995 0.0
C3 C 0.2785 0.96404 0.05815 0.0
C4 C 0.35401 0.12471 0.00706 0.0
C5 C 0.42982 0.03715 0.03072 0.0
O6 O 0.32122 0.97662 0.07342 0.0
O7 O 0.27623 0.00096 0.04314 0.0
O8 O 0.39996 0.04541 0.01148 0.0
O9 O 0.42615 0.04402 0.06337 0.0
C10 C 0.35316 0.11094 0.11496 0.0
O11 O 0.39405 0.13871 0.02596 0.0
O12 O 0.31742 0.0787 0.01236 0.0
In13 In 0.93285 0.2968 0.05775 0.0
O14 O 0.92505 0.23719 0.09874 0.0
O15 O 0.88062 0.27427 0.10775 0.0
C16 C 0.03213 0.3237 0.04574 0.0
C17 C 0.86763 0.22327 0.01292 0.0
C18 C 0.94881 0.3922 0.03912 0.0
O19 O 0.01593 0.32329 0.07664 0.0
O20 O -0.0018 0.30915 0.02174 0.0
O21 O 0.91979 0.35111 0.02225 0.0
O22 O 0.96511 0.38455 0.06814 0.0
C23 C 0.89163 0.23996 0.11774 0.0
O24 O 0.85472 0.25188 0.02982 0.0
O25 O 0.91346 0.23222 0.01864 0.0
In26 In 0.69429 0.6332 0.06237 0.0
O27 O 0.73532 0.59031 0.0442 0.0
O28 O 0.75183 0.66007 0.01699 0.0
C29 C 0.60081 0.56308 0.03456 0.0
C30 C 0.74788 0.644 0.12292 0.0
C31 C 0.68003 0.71545 0.06173 0.0
O32 O 0.63995 0.59388 0.01639 0.0
O33 O 0.60916 0.5658 0.06755 0.0
O34 O 0.64918 0.67393 0.07798 0.0
O35 O 0.71816 0.7155 0.0467 0.0
C36 C 0.76157 0.62331 0.02061 0.0
O37 O 0.756 0.68156 0.10313 0.0
O38 O 0.70934 0.60055 0.11375 0.0
In39 In 0.63165 0.93067 0.95429 0.0
O40 O 0.67652 0.92759 0.9064 0.0
O41 O 0.59826 0.86677 0.91096 0.0
C42 C 0.71178 0.02855 0.95531 0.0
C43 C 0.63932 0.8695 1.00352 0.0
C44 C 0.55679 0.95196 0.9761 0.0
O45 O 0.66903 0.01714 0.94054 0.0
O46 O 0.71419 0.99046 0.9682 0.0
O47 O 0.58492 0.94329 0.99683 0.0
O48 O 0.56405 0.94674 0.94378 0.0
C49 C 0.64097 0.88497 0.89438 0.0
O50 O 0.59947 0.85346 0.98407 0.0
O51 O 0.67378 0.91649 0.99873 0.0
In52 In 0.06031 0.69468 0.95714 0.0
O53 O 0.13743 0.73922 0.98636 0.0
O54 O 0.07827 0.75865 0.99645 0.0
C55 C 0.04337 0.59813 0.97296 0.0
C56 C 0.10152 0.75308 0.89775 0.0
C57 C 0.96071 0.6656 0.9696 0.0
O58 O 0.07176 0.63786 0.99128 0.0
O59 O 0.02894 0.60811 0.94398 0.0
O60 O 0.97723 0.66824 0.93851 0.0
O61 O 0.9946 0.6797 0.9936 0.0
C62 C 0.12392 0.76762 1.00293 0.0
O63 O 0.06555 0.75279 0.91568 0.0
O64 O 0.11525 0.7211 0.9085 0.0
In65 In 0.29832 0.36096 0.94904 0.0
O66 O 0.23928 0.31176 0.90678 0.0
O67 O 0.27829 0.39389 0.90004 0.0
C68 C 0.3144 0.27993 0.94977 0.0
C69 C 0.23122 0.36744 0.99316 0.0
C70 C 0.39338 0.43348 0.97348 0.0
O71 O 0.34409 0.32126 0.93292 0.0
O72 O 0.27607 0.27921 0.96504 0.0
O73 O 0.35565 0.40396 0.99317 0.0
O74 O 0.38262 0.42838 0.94084 0.0
C75 C 0.24314 0.34966 0.88916 0.0
O76 O 0.25471 0.40041 0.96897 0.0
O77 O 0.24321 0.33218 0.99596 0.0
In78 In 0.02883 0.39359 0.39516 0.0
O79 O 0.98842 0.39687 0.44562 0.0
O80 O 0.06533 0.45874 0.43735 0.0
C81 C 0.94764 0.29638 0.39496 0.0
C82 C 0.01655 0.454 0.34788 0.0
C83 C 0.10273 0.37427 0.36832 0.0
O84 O 0.99141 0.30657 0.40747 0.0
O85 O 0.94521 0.33517 0.38353 0.0
O86 O 0.0747 0.38598 0.34982 0.0
O87 O 0.09568 0.37489 0.40126 0.0
C88 C 0.02435 0.44057 0.45586 0.0
O89 O 0.05775 0.4706 0.36598 0.0
O90 O 0.98292 0.40678 0.35294 0.0
In91 In 0.59819 0.63492 0.39362 0.0
O92 O 0.52421 0.58999 0.36148 0.0
O93 O 0.58296 0.56859 0.35701 0.0
C94 C 0.61349 0.72962 0.37389 0.0
C95 C 0.55134 0.5778 0.45252 0.0
C96 C 0.69849 0.66425 0.38458 0.0
O97 O 0.58525 0.68825 0.35704 0.0
O98 O 0.62922 0.72253 0.40334 0.0
O99 O 0.68033 0.66294 0.41497 0.0
O100 O 0.66594 0.64922 0.35966 0.0
C101 C 0.53837 0.56017 0.34776 0.0
O102 O 0.58876 0.5774 0.43699 0.0
O103 O 0.53976 0.61049 0.44003 0.0
In104 In 0.35874 0.96245 0.3936 0.0
O105 O 0.40639 0.9267 0.37477 0.0
O106 O 0.42071 -0.00174 0.35116 0.0
C107 C 0.26405 0.88188 0.37495 0.0
C108 C 0.41596 0.98272 0.45362 0.0
C109 C 0.33451 0.03627 0.37961 0.0
O110 O 0.30476 0.89774 0.35674 0.0
O111 O 0.27177 0.90323 0.40494 0.0
O112 O 0.33111 0.01886 0.41055 0.0
O113 O 0.35161 0.01785 0.35665 0.0
C114 C 0.43259 0.96282 0.35292 0.0
O115 O 0.42023 0.0176 0.43249 0.0
O116 O 0.37987 0.9371 0.44583 0.0
In117 In 0.30187 0.2696 0.28351 0.0
O118 O 0.3538 0.26432 0.24137 0.0
O119 O 0.27211 0.21972 0.23287 0.0
C120 C 0.3847 0.36519 0.2888 0.0
C121 C 0.2932 0.19308 0.32566 0.0
C122 C 0.22905 0.29282 0.30685 0.0
O123 O 0.3458 0.35596 0.26988 0.0
O124 O 0.38215 0.32592 0.30395 0.0
O125 O 0.25419 0.27915 0.32678 0.0
O126 O 0.2381 0.29173 0.27428 0.0
C127 C 0.31735 0.23122 0.22242 0.0
O128 O 0.26228 0.18487 0.30032 0.0
O129 O 0.32727 0.24029 0.33051 0.0
In130 In 0.73075 0.03099 0.28851 0.0
O131 O 0.74115 0.08989 0.24587 0.0
O132 O 0.78652 0.05309 0.24061 0.0
C133 C 0.63214 0.00601 0.30084 0.0
C134 C 0.79243 0.10387 0.33509 0.0
C135 C 0.71041 0.93342 0.30468 0.0
O136 O 0.64908 0.01028 0.26969 0.0
O137 O 0.66509 0.01585 0.32497 0.0
O138 O 0.74237 0.97332 0.32165 0.0
O139 O 0.69388 0.9434 0.27664 0.0
C140 C 0.7763 0.08715 0.22891 0.0
O141 O 0.80629 0.0748 0.31981 0.0
O142 O 0.74757 0.09555 0.32691 0.0
In143 In 0.95928 0.69027 0.29072 0.0
O144 O 0.91975 0.73435 0.30935 0.0
O145 O 0.90631 0.66682 0.3384 0.0
C146 C 0.05551 0.76062 0.31427 0.0
C147 C 0.90153 0.67499 0.23151 0.0
C148 C 0.97243 0.60748 0.29275 0.0
O149 O 0.01687 0.73513 0.3343 0.0
O150 O 0.04513 0.75316 0.2816 0.0
O151 O 0.00225 0.64766 0.27493 0.0
O152 O 0.93585 0.609 0.30887 0.0
C153 C 0.89629 0.70337 0.33459 0.0
O154 O 0.89526 0.63911 0.25232 0.0
O155 O 0.93993 0.71942 0.23916 0.0
In156 In 0.68938 0.72591 0.72464 0.0
O157 O 0.72986 0.8097 0.70577 0.0
O158 O 0.66087 0.75459 0.67882 0.0
C159 C 0.76108 0.70303 0.69886 0.0
C160 C 0.67832 0.7671 0.78584 0.0
C161 C 0.60788 0.62914 0.72214 0.0
O162 O 0.73291 0.71392 0.6798 0.0
O163 O 0.75523 0.70626 0.73172 0.0
O164 O 0.64888 0.63984 0.73906 0.0
O165 O 0.60758 0.66754 0.70772 0.0
C166 C 0.69686 0.80149 0.68187 0.0
O167 O 0.64036 0.73357 0.7681 0.0
O168 O 0.72259 0.77715 0.77428 0.0
In169 In 0.25977 0.96325 0.72744 0.0
O170 O 0.25501 0.91264 0.77446 0.0
O171 O 0.19904 0.93707 0.77279 0.0
C172 C 0.35538 0.9749 0.72444 0.0
C173 C 0.19365 0.89584 0.67967 0.0
C174 C 0.28409 0.06009 0.70461 0.0
O175 O 0.34692 0.00765 0.74013 0.0
O176 O 0.31562 0.93646 0.71125 0.0
O177 O 0.2716 0.02191 0.6844 0.0
O178 O 0.28155 0.04898 0.73711 0.0
C179 C 0.21476 0.90943 0.78812 0.0
O180 O 0.17994 0.9198 0.70079 0.0
O181 O 0.24068 0.9072 0.68228 0.0
In182 In 0.0272 0.30411 0.72484 0.0
O183 O 0.08094 0.35077 0.76979 0.0
O184 O 0.05435 0.26985 0.76999 0.0
C185 C 0.00739 0.38277 0.72594 0.0
C186 C 0.09487 0.30905 0.67594 0.0
C187 C 0.93172 0.23162 0.70102 0.0
O188 O 0.97764 0.33982 0.74106 0.0
O189 O 0.04743 0.38618 0.71147 0.0
O190 O 0.96995 0.25878 0.68104 0.0
O191 O 0.94244 0.23818 0.73365 0.0
C192 C 0.08373 0.31384 0.78401 0.0
O193 O 0.07097 0.27006 0.69616 0.0
O194 O 0.08311 0.34426 0.67989 0.0
In195 In 0.96469 0.6013 0.61973 0.0
O196 O 0.92892 0.52268 0.6476 0.0
O197 O 0.0028 0.58364 0.6652 0.0
C198 C 0.88876 0.6206 0.64156 0.0
C199 C 0.97943 0.55812 0.56046 0.0
C200 C 0.04152 0.70054 0.62155 0.0
O201 O 0.91674 0.6116 0.66223 0.0
O202 O 0.89667 0.61663 0.60913 0.0
O203 O -0.0008 0.6872 0.60553 0.0
O204 O 0.04534 0.66376 0.63543 0.0
C205 C 0.96686 0.53681 0.66858 0.0
O206 O 0.01482 0.59833 0.5752 0.0
O207 O 0.93467 0.54127 0.57398 0.0
In208 In 0.38644 0.36344 0.61886 0.0
O209 O 0.38949 0.41232 0.57158 0.0
O210 O 0.44755 0.3907 0.57346 0.0
C211 C 0.28869 0.34593 0.61912 0.0
C212 C 0.45152 0.43385 0.66554 0.0
C213 C 0.36573 0.26954 0.64528 0.0
O214 O 0.29997 0.31411 0.60501 0.0
O215 O 0.32659 0.38608 0.63243 0.0
O216 O 0.37462 0.30822 0.66401 0.0
O217 O 0.36979 0.27863 0.61237 0.0
C218 C 0.43049 0.4172 0.55807 0.0
O219 O 0.46527 0.40801 0.64627 0.0
O220 O 0.40478 0.42304 0.6617 0.0
In221 In 0.62804 0.03185 0.62183 0.0
O222 O 0.58059 0.05929 0.65307 0.0
O223 O 0.5613 0.97993 0.65798 0.0
C224 C 0.72234 0.11231 0.64095 0.0
C225 C 0.57201 0.02208 0.56249 0.0
C226 C 0.65765 0.96088 0.6315 0.0
O227 O 0.68152 0.09622 0.65916 0.0
O228 O 0.7147 0.09171 0.61069 0.0
O229 O 0.65461 0.97615 0.60088 0.0
O230 O 0.64464 0.98027 0.65633 0.0
C231 C 0.55108 0.015 0.66664 0.0
O232 O 0.57101 0.98417 0.57838 0.0
O233 O 0.60469 0.06628 0.57496 0.0
C234 C 0.49091 0.00195 0.03874 0.0
C235 C 0.46283 0.01668 0.01607 0.0
C236 C 0.52008 0.98003 0.02555 0.0
C237 C 0.52244 0.97184 0.98911 0.0
H238 H 0.49018 0.00708 0.06697 0.0
H239 H 0.54131 0.9698 0.04419 0.0
S240 S 0.45587 0.00349 0.91838 0.0
N241 N 0.43918 0.02128 0.95513 0.0
N242 N 0.49395 0.98026 0.93057 0.0
C243 C 0.49445 0.98624 0.96613 0.0
C244 C 0.46474 0.00861 0.97953 0.0
C245 C 0.01195 0.48868 0.03856 0.0
C246 C 0.96994 0.44477 0.02273 0.0
C247 C 0.03673 0.53749 0.02157 0.0
C248 C 0.02073 0.54455 0.98795 0.0
H249 H 0.02645 0.48526 0.06409 0.0
H250 H 0.06845 0.57012 0.03517 0.0
S251 S 0.91197 0.44231 0.9352 0.0
N252 N 0.91299 0.4118 0.97144 0.0
N253 N 0.95954 0.50329 0.93969 0.0
C254 C 0.97873 0.501 0.97181 0.0
C255 C 0.95332 0.4513 0.98916 0.0
C256 C 0.45468 0.46956 0.02483 0.0
C257 C 0.44655 0.46802 0.98807 0.0
C258 C 0.50462 0.49961 0.0396 0.0
C259 C 0.54864 0.52942 0.01827 0.0
H260 H 0.42217 0.44713 0.0425 0.0
H261 H 0.50861 0.49967 0.06801 0.0
S262 S 0.54885 0.53869 0.92039 0.0
N263 N 0.48704 0.49884 0.93068 0.0
N264 N 0.58076 0.55528 0.95821 0.0
C265 C 0.54112 0.52819 0.98141 0.0
C266 C 0.49019 0.49759 0.9664 0.0
C267 C 0.15805 0.33203 0.37315 0.0
C268 C 0.13674 0.35603 0.35219 0.0
C269 C 0.18686 0.31092 0.35809 0.0
C270 C 0.19561 0.31285 0.32139 0.0
H271 H 0.15187 0.32882 0.40142 0.0
H272 H 0.20246 0.29296 0.37549 0.0
S273 S 0.14997 0.37327 0.25484 0.0
N274 N 0.12759 0.38166 0.2927 0.0
N275 N 0.18166 0.34209 0.26459 0.0
C276 C 0.17492 0.33713 0.30013 0.0
C277 C 0.1456 0.35871 0.31546 0.0
C278 C 0.67926 0.82526 0.37133 0.0
C279 C 0.63498 0.78186 0.35699 0.0
C280 C 0.70455 0.87337 0.35349 0.0
C281 C 0.68671 0.88024 0.3205 0.0
H282 H 0.69526 0.82188 0.39626 0.0
H283 H 0.73817 0.90563 0.36592 0.0
S284 S 0.57134 0.77924 0.27186 0.0
N285 N 0.57375 0.74918 0.30794 0.0
N286 N 0.6211 0.83942 0.2746 0.0
C287 C 0.64229 0.83721 0.30592 0.0
C288 C 0.61646 0.78821 0.32413 0.0
C289 C 0.11613 0.80726 0.36452 0.0
C290 C 0.10911 0.79243 0.32873 0.0
C291 C 0.16615 0.8347 0.37964 0.0
C292 C 0.2112 0.84781 0.35971 0.0
H293 H 0.08264 0.79786 0.38104 0.0
H294 H 0.1695 0.84626 0.40704 0.0
S295 S 0.21397 0.81549 0.26523 0.0
N296 N 0.15138 0.79148 0.27406 0.0
N297 N 0.24517 0.84222 0.30229 0.0
C298 C 0.2046 0.83225 0.324 0.0
C299 C 0.1537 0.80492 0.30855 0.0
C300 C 0.84673 0.64105 0.69166 0.0
C301 C 0.85402 0.63969 0.65499 0.0
C302 C 0.81757 0.66244 0.70566 0.0
C303 C 0.79447 0.68349 0.68359 0.0
H304 H 0.86399 0.6257 0.70989 0.0
H305 H 0.8128 0.66206 0.734 0.0
S306 S 0.80259 0.69068 0.58568 0.0
N307 N 0.83618 0.66202 0.59692 0.0
N308 N 0.78143 0.70216 0.62302 0.0
C309 C 0.80149 0.68249 0.64683 0.0
C310 C 0.83115 0.66058 0.6326 0.0
C311 C 0.32755 0.17254 0.63928 0.0
C312 C 0.34721 0.21688 0.66098 0.0
C313 C 0.30649 0.12218 0.65374 0.0
C314 C 0.30418 0.1139 0.69053 0.0
H315 H 0.32777 0.17659 0.61087 0.0
H316 H 0.29198 0.08943 0.63577 0.0
S317 S 0.3518 0.21702 0.75902 0.0
N318 N 0.36386 0.24917 0.72137 0.0
N319 N 0.32444 0.15475 0.74829 0.0
C320 C 0.32404 0.15791 0.71254 0.0
C321 C 0.34552 0.20924 0.69784 0.0
C322 C 0.82019 0.16239 0.63543 0.0
C323 C 0.77527 0.14544 0.65638 0.0
C324 C 0.87045 0.1893 0.65026 0.0
C325 C 0.87794 0.19971 0.68673 0.0
H326 H 0.81655 0.15448 0.60738 0.0
H327 H 0.90378 0.20196 0.63291 0.0
S328 S 0.77342 0.16405 0.75328 0.0
N329 N 0.74182 0.14165 0.71571 0.0
N330 N 0.83605 0.19147 0.74334 0.0
C331 C 0.83344 0.183 0.70799 0.0
C332 C 0.78226 0.15619 0.69288 0.0
C333 C 0.29542 0.1259 0.15598 0.0
C334 C 0.346 0.14223 0.14289 0.0
C335 C 0.2862 0.15578 0.18064 0.0
C336 C 0.32717 0.20325 0.19345 0.0
H337 H 0.26236 0.08965 0.14704 0.0
H338 H 0.24673 0.14093 0.19024 0.0
S339 S 0.46665 0.26479 0.16686 0.0
N340 N 0.4374 0.21002 0.14401 0.0
N341 N 0.42032 0.26595 0.19049 0.0
C342 C 0.37791 0.22038 0.18037 0.0
C343 C 0.38727 0.18997 0.15514 0.0
C344 C 0.8196 0.19885 0.16282 0.0
C345 C 0.86424 0.20219 0.14705 0.0
C346 C 0.79104 0.16092 0.18864 0.0
C347 C 0.8058 0.12458 0.19987 0.0
H348 H 0.80611 0.22532 0.15486 0.0
H349 H 0.75706 0.16024 0.19997 0.0
S350 S 0.9207 0.11755 0.16775 0.0
N351 N 0.92251 0.16625 0.14521 0.0
N352 N 0.86892 0.09533 0.19357 0.0
C353 C 0.85055 0.12768 0.18449 0.0
C354 C 0.87971 0.16635 0.15822 0.0
C355 C 0.86481 0.70834 0.18497 0.0
C356 C 0.86313 0.66594 0.203 0.0
C357 C 0.8266 0.70079 0.1599 0.0
C358 C 0.78495 0.65052 0.15177 0.0
H359 H 0.89557 0.74782 0.1905 0.0
H360 H 0.83001 0.73483 0.14663 0.0
S361 S 0.76318 0.52609 0.19085 0.0
N362 N 0.8165 0.57145 0.21046 0.0
N363 N 0.74506 0.55757 0.16347 0.0
C364 C 0.78286 0.60775 0.16951 0.0
C365 C 0.82183 0.61537 0.19501 0.0
C366 C 0.61109 0.80686 0.85484 0.0
C367 C 0.65096 0.85622 0.86597 0.0
C368 C 0.6207 0.7778 0.82966 0.0
C369 C 0.67073 0.79652 0.81486 0.0
H370 H 0.5721 0.79038 0.86571 0.0
H371 H 0.58848 0.74033 0.82163 0.0
S372 S 0.78864 0.92381 0.83452 0.0
N373 N 0.7426 0.92281 0.8597 0.0
N374 N 0.76045 0.86797 0.81288 0.0
C375 C 0.71101 0.84566 0.82585 0.0
C376 C 0.70116 0.87554 0.85119 0.0
C377 C 0.17689 0.80069 0.85584 0.0
C378 C 0.12855 0.79175 0.86887 0.0
C379 C 0.20489 0.83969 0.83053 0.0
C380 C 0.18575 0.87142 0.81699 0.0
H381 H 0.1937 0.77787 0.8656 0.0
H382 H 0.24181 0.84468 0.82132 0.0
S383 S 0.06025 0.86301 0.84161 0.0
N384 N 0.06228 0.81759 0.86582 0.0
N385 N 0.11469 0.89036 0.81823 0.0
C386 C 0.13731 0.86272 0.82964 0.0
C387 C 0.10881 0.82307 0.8555 0.0
C388 C 0.17112 0.29187 0.84755 0.0
C389 C 0.20466 0.34217 0.86115 0.0
C390 C 0.13137 0.28264 0.8233 0.0
C391 C 0.12312 0.32325 0.81188 0.0
H392 H 0.17551 0.25916 0.85577 0.0
H393 H 0.10724 0.24344 0.81323 0.0
S394 S 0.19856 0.46176 0.84077 0.0
N395 N 0.22591 0.43282 0.86202 0.0
N396 N 0.15132 0.41573 0.81692 0.0
C397 C 0.15607 0.37367 0.8256 0.0
C398 C 0.19679 0.38308 0.85003 0.0
C399 C 0.96548 0.44964 0.49944 0.0
C400 C 0.01531 0.47068 0.48377 0.0
C401 C 0.95371 0.4786 0.52333 0.0
C402 C 0.99129 0.52986 0.53273 0.0
H403 H 0.93487 0.41051 0.49292 0.0
H404 H 0.91499 0.46033 0.53484 0.0
S405 S 0.12768 0.60352 0.49916 0.0
N406 N 0.10243 0.54633 0.47935 0.0
N407 N 0.08067 0.6006 0.52428 0.0
C408 C 0.04135 0.55141 0.51731 0.0
C409 C 0.05327 0.52191 0.49291 0.0
C410 C 0.53875 0.50642 0.49439 0.0
C411 C 0.52049 0.53858 0.48031 0.0
C412 C 0.50899 0.4664 0.51872 0.0
C413 C 0.45943 0.45647 0.52983 0.0
H414 H 0.57649 0.5121 0.48654 0.0
H415 H 0.52527 0.44345 0.52915 0.0
S416 S 0.39271 0.52827 0.50008 0.0
N417 N 0.44907 0.55694 0.4789 0.0
N418 N 0.39302 0.48189 0.52419 0.0
C419 C 0.44046 0.48805 0.51566 0.0
C420 C 0.47098 0.52904 0.49111 0.0
C421 C 0.49603 0.96263 0.52424 0.0
C422 C 0.53372 0.0139 0.53404 0.0
C423 C 0.45722 0.9529 0.49913 0.0
C424 C 0.4544 0.99399 0.48254 0.0
H425 H 0.49622 0.92942 0.53619 0.0
H426 H 0.42974 0.91276 0.49227 0.0
S427 S 0.54272 0.1355 0.49924 0.0
N428 N 0.56487 0.10632 0.52551 0.0
N429 N 0.4924 0.08824 0.47821 0.0
C430 C 0.49162 0.04551 0.4922 0.0
C431 C 0.53111 0.0554 0.5179 0.0
C432 C 0.18601 0.89955 0.04612 0.0
C433 C 0.23692 0.90974 0.05303 0.0
C434 C 0.14832 0.85155 0.0324 0.0
C435 C 0.16061 0.8125 0.02448 0.0
H436 H 0.17602 0.92988 0.04953 0.0
H437 H 0.11039 0.84649 0.02578 0.0
S438 S 0.28644 0.81752 0.04245 0.0
N439 N 0.29622 0.87518 0.05497 0.0
N440 N 0.22538 0.78482 0.02849 0.0
C441 C 0.21019 0.8207 0.03388 0.0
C442 C 0.24841 0.86945 0.04841 0.0
C443 C 0.10863 0.37312 0.00731 0.0
C444 C 0.0868 0.34163 0.03724 0.0
C445 C 0.15781 0.38496 0.99499 0.0
C446 C 0.1861 0.36441 0.01167 0.0
H447 H 0.08675 0.38734 0.99263 0.0
H448 H 0.17208 0.40748 0.97087 0.0
S449 S 0.14777 0.28397 0.09311 0.0
N450 N 0.0985 0.29407 0.08532 0.0
N451 N 0.19077 0.31466 0.06135 0.0
C452 C 0.16589 0.33514 0.04279 0.0
C453 C 0.11616 0.32416 0.05584 0.0
C454 C 0.61738 0.74563 0.04778 0.0
C455 C 0.66867 0.75776 0.05566 0.0
C456 C 0.60748 0.7832 0.03285 0.0
C457 C 0.64849 0.83415 0.02605 0.0
H458 H 0.58529 0.70596 0.05056 0.0
H459 H 0.5679 0.7715 0.02492 0.0
S460 S 0.78854 0.88703 0.04799 0.0
N461 N 0.75988 0.82497 0.05968 0.0
N462 N 0.74146 0.89631 0.03275 0.0
C463 C 0.69928 0.84782 0.03703 0.0
C464 C 0.70936 0.80932 0.05153 0.0
C465 C 0.80418 0.09191 0.96875 0.0
C466 C 0.75348 0.0824 0.96188 0.0
C467 C 0.84211 0.13937 0.98301 0.0
C468 C 0.83031 0.17858 0.99148 0.0
H469 H 0.81391 0.0615 0.96469 0.0
H470 H 0.87991 0.14394 0.9894 0.0
S471 S 0.70513 0.1753 0.97425 0.0
N472 N 0.69484 0.11779 0.96092 0.0
N473 N 0.76614 0.20713 0.98837 0.0
C474 C 0.78088 0.17103 0.98238 0.0
C475 C 0.7424 0.12283 0.96733 0.0
C476 C 0.82917 0.65641 0.9733 0.0
C477 C 0.8065 0.62438 1.00308 0.0
C478 C 0.87805 0.6669 0.96069 0.0
C479 C 0.90586 0.64656 0.97808 0.0
H480 H 0.81016 0.67539 0.96066 0.0
H481 H 0.89558 0.69368 0.93876 0.0
S482 S 0.86133 0.55565 0.05416 0.0
N483 N 0.8134 0.56796 0.04709 0.0
N484 N 0.90589 0.58911 0.02388 0.0
C485 C 0.88236 0.61196 0.00635 0.0
C486 C 0.83231 0.60037 0.01872 0.0
C487 C 0.28571 0.18738 0.96228 0.0
C488 C 0.3267 0.23823 0.95576 0.0
C489 C 0.29557 0.1494 0.97617 0.0
C490 C 0.34668 0.16144 0.98482 0.0
H491 H 0.24551 0.17761 0.95828 0.0
H492 H 0.26247 0.11147 0.98245 0.0
S493 S 0.46808 0.28731 0.96854 0.0
N494 N 0.42063 0.29737 0.95516 0.0
N495 N 0.43924 0.22608 0.98224 0.0
C496 C 0.38836 0.21108 0.97601 0.0
C497 C 0.37833 0.24954 0.96117 0.0
C498 C 0.91645 0.20364 0.38016 0.0
C499 C 0.90493 0.24303 0.38851 0.0
C500 C 0.87862 0.1569 0.36473 0.0
C501 C 0.8281 0.14806 0.3576 0.0
H502 H 0.95586 0.21047 0.38304 0.0
H503 H 0.88993 0.12883 0.35664 0.0
S504 S 0.77634 0.23556 0.381 0.0
N505 N 0.83823 0.26781 0.39314 0.0
N506 N 0.76668 0.17966 0.36479 0.0
C507 C 0.81491 0.18525 0.36902 0.0
C508 C 0.85353 0.23292 0.38433 0.0
C509 C 0.82585 0.72521 0.33613 0.0
C510 C 0.85267 0.70335 0.35317 0.0
C511 C 0.77676 0.71447 0.34789 0.0
C512 C 0.75366 0.68283 0.37759 0.0
H513 H 0.84089 0.74746 0.31198 0.0
H514 H 0.75571 0.72919 0.33275 0.0
S515 S 0.81132 0.6233 0.4348 0.0
N516 N 0.85522 0.6533 0.40342 0.0
N517 N 0.76306 0.63467 0.42625 0.0
C518 C 0.78192 0.66473 0.39683 0.0
C519 C 0.83156 0.67464 0.38439 0.0
C520 C 0.27892 0.10329 0.32542 0.0
C521 C 0.29569 0.15032 0.34366 0.0
C522 C 0.29037 0.0658 0.33809 0.0
C523 C 0.31763 0.07345 0.36986 0.0
H524 H 0.25967 0.09667 0.30007 0.0
H525 H 0.27898 0.03113 0.32242 0.0
S526 S 0.36479 0.18698 0.42958 0.0
N527 N 0.33771 0.20098 0.39631 0.0
N528 N 0.35743 0.12896 0.42083 0.0
C529 C 0.33144 0.11847 0.38965 0.0
C530 C 0.32093 0.1574 0.37632 0.0
C531 C 0.5125 0.47278 0.32343 0.0
C532 C 0.50303 0.51471 0.32624 0.0
C533 C 0.47498 0.42516 0.30911 0.0
C534 C 0.42723 0.41822 0.29653 0.0
H535 H 0.54773 0.4756 0.33429 0.0
H536 H 0.48252 0.39287 0.3093 0.0
S537 S 0.38675 0.51831 0.29317 0.0
N538 N 0.44491 0.54818 0.31199 0.0
N539 N 0.37453 0.45857 0.28437 0.0
C540 C 0.41901 0.46107 0.29651 0.0
C541 C 0.45693 0.50942 0.31162 0.0
C542 C 0.55461 0.95597 0.33837 0.0
C543 C 0.57775 0.98933 0.30939 0.0
C544 C 0.50557 0.9446 0.35069 0.0
C545 C 0.47871 0.96738 0.33496 0.0
H546 H 0.57527 0.93966 0.35225 0.0
H547 H 0.49009 0.92026 0.37396 0.0
S548 S 0.52087 0.05385 0.25637 0.0
N549 N 0.5689 0.04158 0.26336 0.0
N550 N 0.47685 0.02167 0.28729 0.0
C551 C 0.50033 -0.00112 0.30488 0.0
C552 C 0.54992 0.00947 0.29183 0.0
C553 C 0.03525 0.57667 0.30385 0.0
C554 C 0.98344 0.56498 0.29873 0.0
C555 C 0.04607 0.53929 0.31791 0.0
C556 C 0.00542 0.48894 0.32653 0.0
H557 H 0.06736 0.61593 0.29943 0.0
H558 H 0.0863 0.55068 0.32362 0.0
S559 S 0.86358 0.43721 0.31232 0.0
N560 N 0.89163 0.49874 0.29945 0.0
N561 N 0.91169 0.42767 0.32481 0.0
C562 C 0.95371 0.4756 0.31846 0.0
C563 C 0.94276 0.51396 0.30486 0.0
C564 C 0.47719 0.51811 0.6949 0.0
C565 C 0.48886 0.47865 0.68682 0.0
C566 C 0.51539 0.56597 0.70855 0.0
C567 C 0.56605 0.57546 0.7154 0.0
H568 H 0.43934 0.51341 0.68852 0.0
H569 H 0.50583 0.59655 0.71232 0.0
S570 S 0.61431 0.4824 0.70349 0.0
N571 N 0.5531 0.45027 0.68979 0.0
N572 N 0.62474 0.54012 0.71644 0.0
C573 C 0.57707 0.53492 0.71022 0.0
C574 C 0.53843 0.48645 0.69563 0.0
C575 C 0.49752 0.04503 0.69906 0.0
C576 C 0.50471 0.00378 0.68775 0.0
C577 C 0.45004 0.03526 0.71384 0.0
C578 C 0.40814 0.98397 0.71726 0.0
H579 H 0.5279 0.08521 0.69506 0.0
H580 H 0.44506 0.06816 0.72038 0.0
S581 S 0.40928 0.86216 0.69633 0.0
N582 N 0.46787 0.90953 0.6848 0.0
N583 N 0.37841 0.89141 0.71199 0.0
C584 C 0.41602 0.94236 0.70841 0.0
C585 C 0.46446 0.95221 0.69379 0.0
C586 C 0.03357 0.47541 0.7169 0.0
C587 C 0.99347 0.42338 0.72051 0.0
C588 C 0.02346 0.51315 0.70287 0.0
C589 C 0.97311 0.49972 0.69116 0.0
H590 H 0.07357 0.48641 0.72315 0.0
H591 H 0.05617 0.55217 0.6988 0.0
S592 S 0.85344 0.36997 0.69938 0.0
N593 N 0.90058 0.36128 0.71531 0.0
N594 N 0.88157 0.43215 0.68797 0.0
C595 C 0.93188 0.44867 0.69722 0.0
C596 C 0.94208 0.41042 0.7122 0.0
C597 C 0.17071 0.81614 0.64517 0.0
C598 C 0.15629 0.85193 0.65767 0.0
C599 C 0.13357 0.76822 0.63104 0.0
C600 C 0.08112 0.75508 0.62806 0.0
H601 H 0.21024 0.82349 0.64848 0.0
H602 H 0.14551 0.74022 0.62399 0.0
S603 S 0.02458 0.83791 0.6521 0.0
N604 N 0.08693 0.87316 0.66287 0.0
N605 N 0.01716 0.78315 0.63525 0.0
C606 C 0.0669 0.79217 0.6375 0.0
C607 C 0.10457 0.8407 0.65261 0.0
C608 C 0.14883 0.2751 0.64878 0.0
C609 C 0.13871 0.31643 0.6534 0.0
C610 C 0.19615 0.28396 0.63424 0.0
C611 C 0.23489 0.33452 0.62449 0.0
H612 H 0.12135 0.23627 0.65826 0.0
H613 H 0.20401 0.2519 0.63329 0.0
S614 S 0.22446 0.45418 0.62559 0.0
N615 N 0.16861 0.40836 0.64235 0.0
N616 N 0.25802 0.42492 0.61599 0.0
C617 C 0.22362 0.3752 0.6262 0.0
C618 C 0.17525 0.36614 0.6404 0.0
C619 C 0.71788 0.8936 0.68012 0.0
C620 C 0.69511 0.84456 0.66365 0.0
C621 C 0.70751 0.93216 0.66816 0.0
C622 C 0.67525 0.9235 0.63881 0.0
H623 H 0.741 0.90116 0.70385 0.0
H624 H 0.72324 0.96834 0.68283 0.0
S625 S 0.61213 0.80471 0.5835 0.0
N626 N 0.64272 0.79105 0.61458 0.0
N627 N 0.62471 0.86483 0.59139 0.0
C628 C 0.65569 0.87642 0.62031 0.0
C629 C 0.66525 0.83651 0.63297 0.0
loop_
_geom_bond_atom_site_label_1
_geom_bond_atom_site_label_2
_geom_bond_distance
_geom_bond_site_symmetry_2
_ccdc_geom_bond_type
In0 O1 2.294 . S
In0 O2 2.326 . S
In0 O6 2.266 1_545 S
In0 O7 2.337 . S
In0 O8 2.266 . S
In0 O9 2.326 . S
In0 O11 2.294 . S
In0 O12 2.326 . S
O1 In0 2.294 . S
O1 C10 1.240 . S
O2 In0 2.326 . S
O2 C10 1.252 . S
C3 O6 1.252 . S
C3 O7 1.269 1_565 S
C4 O11 1.240 . S
C4 O12 1.252 . S
C5 O8 1.252 . S
C5 O9 1.260 . S
O6 In0 2.266 1_565 S
O6 C3 1.252 . S
O7 In0 2.337 . S
O7 C3 1.269 1_545 S
O8 In0 2.266 . S
O8 C5 1.252 . S
O9 In0 2.326 . S
O9 C5 1.260 . S
C10 O1 1.240 . S
C10 O2 1.252 . S
O11 In0 2.294 . S
O11 C4 1.240 . S
O12 In0 2.326 . S
O12 C4 1.252 . S
In13 O14 2.294 . S
In13 O15 2.326 . S
In13 O19 2.266 1_655 S
In13 O20 2.338 . S
In13 O21 2.266 . S
In13 O22 2.326 . S
In13 O24 2.294 . S
In13 O25 2.326 . S
O14 In13 2.294 . S
O14 C23 1.240 . S
O15 In13 2.326 . S
O15 C23 1.252 . S
C16 O19 1.252 . S
C16 O20 1.269 1_455 S
C17 O24 1.240 . S
C17 O25 1.252 . S
C18 O21 1.252 . S
C18 O22 1.260 . S
O19 In13 2.266 1_455 S
O19 C16 1.252 . S
O20 In13 2.338 . S
O20 C16 1.269 1_655 S
O21 In13 2.266 . S
O21 C18 1.252 . S
O22 In13 2.326 . S
O22 C18 1.260 . S
C23 O14 1.240 . S
C23 O15 1.252 . S
O24 In13 2.294 . S
O24 C17 1.240 . S
O25 In13 2.326 . S
O25 C17 1.252 . S
In26 O27 2.294 . S
In26 O28 2.326 . S
In26 O32 2.266 . S
In26 O33 2.326 . S
In26 O34 2.266 . S
In26 O35 2.338 . S
In26 O37 2.294 . S
In26 O38 2.326 . S
O27 In26 2.294 . S
O27 C36 1.240 . S
O28 In26 2.326 . S
O28 C36 1.252 . S
C29 O32 1.252 . S
C29 O33 1.260 . S
C30 O37 1.240 . S
C30 O38 1.252 . S
C31 O34 1.252 . S
C31 O35 1.269 . S
O32 In26 2.266 . S
O32 C29 1.252 . S
O33 In26 2.326 . S
O33 C29 1.260 . S
O34 In26 2.266 . S
O34 C31 1.252 . S
O35 In26 2.338 . S
O35 C31 1.269 . S
C36 O27 1.240 . S
C36 O28 1.252 . S
O37 In26 2.294 . S
O37 C30 1.240 . S
O38 In26 2.326 . S
O38 C30 1.252 . S
In39 O40 2.294 . S
In39 O41 2.326 . S
In39 O45 2.266 1_565 S
In39 O46 2.337 . S
In39 O47 2.266 . S
In39 O48 2.326 . S
In39 O50 2.294 . S
In39 O51 2.326 . S
O40 In39 2.294 . S
O40 C49 1.240 . S
O41 In39 2.326 . S
O41 C49 1.252 . S
C42 O45 1.252 . S
C42 O46 1.269 1_545 S
C43 O50 1.240 . S
C43 O51 1.252 . S
C44 O47 1.252 . S
C44 O48 1.260 . S
O45 In39 2.266 1_545 S
O45 C42 1.252 . S
O46 In39 2.337 . S
O46 C42 1.269 1_565 S
O47 In39 2.266 . S
O47 C44 1.252 . S
O48 In39 2.326 . S
O48 C44 1.260 . S
C49 O40 1.240 . S
C49 O41 1.252 . S
O50 In39 2.294 . S
O50 C43 1.240 . S
O51 In39 2.326 . S
O51 C43 1.252 . S
In52 O53 2.294 . S
In52 O54 2.326 . S
In52 O58 2.266 . S
In52 O59 2.326 . S
In52 O60 2.266 1_455 S
In52 O61 2.338 . S
In52 O63 2.294 . S
In52 O64 2.326 . S
O53 In52 2.294 . S
O53 C62 1.240 . S
O54 In52 2.326 . S
O54 C62 1.252 . S
C55 O58 1.252 . S
C55 O59 1.260 . S
C56 O63 1.240 . S
C56 O64 1.252 . S
C57 O60 1.252 . S
C57 O61 1.269 1_655 S
O58 In52 2.266 . S
O58 C55 1.252 . S
O59 In52 2.326 . S
O59 C55 1.260 . S
O60 In52 2.266 1_655 S
O60 C57 1.252 . S
O61 In52 2.338 . S
O61 C57 1.269 1_455 S
C62 O53 1.240 . S
C62 O54 1.252 . S
O63 In52 2.294 . S
O63 C56 1.240 . S
O64 In52 2.326 . S
O64 C56 1.252 . S
In65 O66 2.294 . S
In65 O67 2.326 . S
In65 O71 2.266 . S
In65 O72 2.338 . S
In65 O73 2.266 . S
In65 O74 2.326 . S
In65 O76 2.294 . S
In65 O77 2.326 . S
O66 In65 2.294 . S
O66 C75 1.240 . S
O67 In65 2.326 . S
O67 C75 1.252 . S
C68 O71 1.252 . S
C68 O72 1.269 . S
C69 O76 1.240 . S
C69 O77 1.252 . S
C70 O73 1.252 . S
C70 O74 1.260 . S
O71 In65 2.266 . S
O71 C68 1.252 . S
O72 In65 2.338 . S
O72 C68 1.269 . S
O73 In65 2.266 . S
O73 C70 1.252 . S
O74 In65 2.326 . S
O74 C70 1.260 . S
C75 O66 1.240 . S
C75 O67 1.252 . S
O76 In65 2.294 . S
O76 C69 1.240 . S
O77 In65 2.326 . S
O77 C69 1.252 . S
In78 O79 2.294 1_455 S
In78 O80 2.326 . S
In78 O84 2.266 1_455 S
In78 O85 2.326 1_455 S
In78 O86 2.266 . S
In78 O87 2.326 . S
In78 O89 2.294 . S
In78 O90 2.326 1_455 S
O79 In78 2.294 1_655 S
O79 C88 1.240 1_655 S
O80 In78 2.326 . S
O80 C88 1.252 . S
C81 O84 1.252 . S
C81 O85 1.260 . S
C82 O89 1.240 . S
C82 O90 1.252 1_455 S
C83 O86 1.252 . S
C83 O87 1.260 . S
O84 In78 2.266 1_655 S
O84 C81 1.252 . S
O85 In78 2.326 1_655 S
O85 C81 1.260 . S
O86 In78 2.266 . S
O86 C83 1.252 . S
O87 In78 2.326 . S
O87 C83 1.260 . S
C88 O79 1.240 1_455 S
C88 O80 1.252 . S
O89 In78 2.294 . S
O89 C82 1.240 . S
O90 In78 2.326 1_655 S
O90 C82 1.252 1_655 S
In91 O92 2.294 . S
In91 O93 2.326 . S
In91 O97 2.266 . S
In91 O98 2.326 . S
In91 O99 2.266 . S
In91 O100 2.326 . S
In91 O102 2.294 . S
In91 O103 2.326 . S
O92 In91 2.294 . S
O92 C101 1.240 . S
O93 In91 2.326 . S
O93 C101 1.252 . S
C94 O97 1.252 . S
C94 O98 1.260 . S
C95 O102 1.240 . S
C95 O103 1.252 . S
C96 O99 1.252 . S
C96 O100 1.260 . S
O97 In91 2.266 . S
O97 C94 1.252 . S
O98 In91 2.326 . S
O98 C94 1.260 . S
O99 In91 2.266 . S
O99 C96 1.252 . S
O100 In91 2.326 . S
O100 C96 1.260 . S
C101 O92 1.240 . S
C101 O93 1.252 . S
O102 In91 2.294 . S
O102 C95 1.240 . S
O103 In91 2.326 . S
O103 C95 1.252 . S
In104 O105 2.294 . S
In104 O106 2.326 1_565 S
In104 O110 2.266 . S
In104 O111 2.326 . S
In104 O112 2.266 1_565 S
In104 O113 2.326 1_565 S
In104 O115 2.294 1_565 S
In104 O116 2.326 . S
O105 In104 2.294 . S
O105 C114 1.240 . S
O106 In104 2.326 1_545 S
O106 C114 1.252 1_545 S
C107 O110 1.252 . S
C107 O111 1.260 . S
C108 O115 1.240 1_565 S
C108 O116 1.252 . S
C109 O112 1.252 . S
C109 O113 1.260 . S
O110 In104 2.266 . S
O110 C107 1.252 . S
O111 In104 2.326 . S
O111 C107 1.260 . S
O112 In104 2.266 1_545 S
O112 C109 1.252 . S
O113 In104 2.326 1_545 S
O113 C109 1.260 . S
C114 O105 1.240 . S
C114 O106 1.252 1_565 S
O115 In104 2.294 1_545 S
O115 C108 1.240 1_545 S
O116 In104 2.326 . S
O116 C108 1.252 . S
In117 O118 2.294 . S
In117 O119 2.326 . S
In117 O123 2.266 . S
In117 O124 2.326 . S
In117 O125 2.266 . S
In117 O126 2.326 . S
In117 O128 2.294 . S
In117 O129 2.326 . S
O118 In117 2.294 . S
O118 C127 1.240 . S
O119 In117 2.326 . S
O119 C127 1.252 . S
C120 O123 1.252 . S
C120 O124 1.260 . S
C121 O128 1.240 . S
C121 O129 1.252 . S
C122 O125 1.252 . S
C122 O126 1.260 . S
O123 In117 2.266 . S
O123 C120 1.252 . S
O124 In117 2.326 . S
O124 C120 1.260 . S
O125 In117 2.266 . S
O125 C122 1.252 . S
O126 In117 2.326 . S
O126 C122 1.260 . S
C127 O118 1.240 . S
C127 O119 1.252 . S
O128 In117 2.294 . S
O128 C121 1.240 . S
O129 In117 2.326 . S
O129 C121 1.252 . S
In130 O131 2.294 . S
In130 O132 2.326 . S
In130 O136 2.266 . S
In130 O137 2.326 . S
In130 O138 2.266 1_545 S
In130 O139 2.326 1_545 S
In130 O141 2.294 . S
In130 O142 2.326 . S
O131 In130 2.294 . S
O131 C140 1.240 . S
O132 In130 2.326 . S
O132 C140 1.252 . S
C133 O136 1.252 . S
C133 O137 1.260 . S
C134 O141 1.240 . S
C134 O142 1.252 . S
C135 O138 1.252 . S
C135 O139 1.260 . S
O136 In130 2.266 . S
O136 C133 1.252 . S
O137 In130 2.326 . S
O137 C133 1.260 . S
O138 In130 2.266 1_565 S
O138 C135 1.252 . S
O139 In130 2.326 1_565 S
O139 C135 1.260 . S
C140 O131 1.240 . S
C140 O132 1.252 . S
O141 In130 2.294 . S
O141 C134 1.240 . S
O142 In130 2.326 . S
O142 C134 1.252 . S
In143 O144 2.294 . S
In143 O145 2.326 . S
In143 O149 2.266 1_655 S
In143 O150 2.326 1_655 S
In143 O151 2.266 . S
In143 O152 2.326 . S
In143 O154 2.294 . S
In143 O155 2.326 . S
O144 In143 2.294 . S
O144 C153 1.240 . S
O145 In143 2.326 . S
O145 C153 1.252 . S
C146 O149 1.252 . S
C146 O150 1.260 . S
C147 O154 1.240 . S
C147 O155 1.252 . S
C148 O151 1.252 . S
C148 O152 1.260 . S
O149 In143 2.266 1_455 S
O149 C146 1.252 . S
O150 In143 2.326 1_455 S
O150 C146 1.260 . S
O151 In143 2.266 . S
O151 C148 1.252 . S
O152 In143 2.326 . S
O152 C148 1.260 . S
C153 O144 1.240 . S
C153 O145 1.252 . S
O154 In143 2.294 . S
O154 C147 1.240 . S
O155 In143 2.326 . S
O155 C147 1.252 . S
In156 O157 2.294 . S
In156 O158 2.326 . S
In156 O162 2.266 . S
In156 O163 2.326 . S
In156 O164 2.266 . S
In156 O165 2.326 . S
In156 O167 2.294 . S
In156 O168 2.326 . S
O157 In156 2.294 . S
O157 C166 1.240 . S
O158 In156 2.326 . S
O158 C166 1.252 . S
C159 O162 1.252 . S
C159 O163 1.260 . S
C160 O167 1.240 . S
C160 O168 1.252 . S
C161 O164 1.252 . S
C161 O165 1.260 . S
O162 In156 2.266 . S
O162 C159 1.252 . S
O163 In156 2.326 . S
O163 C159 1.260 . S
O164 In156 2.266 . S
O164 C161 1.252 . S
O165 In156 2.326 . S
O165 C161 1.260 . S
C166 O157 1.240 . S
C166 O158 1.252 . S
O167 In156 2.294 . S
O167 C160 1.240 . S
O168 In156 2.326 . S
O168 C160 1.252 . S
In169 O170 2.294 . S
In169 O171 2.326 . S
In169 O175 2.266 . S
In169 O176 2.326 . S
In169 O177 2.266 1_565 S
In169 O178 2.326 1_565 S
In169 O180 2.294 . S
In169 O181 2.326 . S
O170 In169 2.294 . S
O170 C179 1.240 . S
O171 In169 2.326 . S
O171 C179 1.252 . S
C172 O175 1.252 . S
C172 O176 1.260 . S
C173 O180 1.240 . S
C173 O181 1.252 . S
C174 O177 1.252 . S
C174 O178 1.260 . S
O175 In169 2.266 . S
O175 C172 1.252 . S
O176 In169 2.326 . S
O176 C172 1.260 . S
O177 In169 2.266 1_545 S
O177 C174 1.252 . S
O178 In169 2.326 1_545 S
O178 C174 1.260 . S
C179 O170 1.240 . S
C179 O171 1.252 . S
O180 In169 2.294 . S
O180 C173 1.240 . S
O181 In169 2.326 . S
O181 C173 1.252 . S
In182 O183 2.294 . S
In182 O184 2.326 . S
In182 O188 2.266 . S
In182 O189 2.326 . S
In182 O190 2.266 1_455 S
In182 O191 2.326 1_455 S
In182 O193 2.294 . S
In182 O194 2.326 . S
O183 In182 2.294 . S
O183 C192 1.240 . S
O184 In182 2.326 . S
O184 C192 1.252 . S
C185 O188 1.252 . S
C185 O189 1.260 . S
C186 O193 1.240 . S
C186 O194 1.252 . S
C187 O190 1.252 . S
C187 O191 1.260 . S
O188 In182 2.266 . S
O188 C185 1.252 . S
O189 In182 2.326 . S
O189 C185 1.260 . S
O190 In182 2.266 1_655 S
O190 C187 1.252 . S
O191 In182 2.326 1_655 S
O191 C187 1.260 . S
C192 O183 1.240 . S
C192 O184 1.252 . S
O193 In182 2.294 . S
O193 C186 1.240 . S
O194 In182 2.326 . S
O194 C186 1.252 . S
In195 O196 2.294 . S
In195 O197 2.326 1_655 S
In195 O201 2.266 . S
In195 O202 2.326 . S
In195 O203 2.266 1_655 S
In195 O204 2.326 1_655 S
In195 O206 2.294 1_655 S
In195 O207 2.326 . S
O196 In195 2.294 . S
O196 C205 1.240 . S
O197 In195 2.326 1_455 S
O197 C205 1.252 1_455 S
C198 O201 1.252 . S
C198 O202 1.260 . S
C199 O206 1.240 1_655 S
C199 O207 1.252 . S
C200 O203 1.252 . S
C200 O204 1.260 . S
O201 In195 2.266 . S
O201 C198 1.252 . S
O202 In195 2.326 . S
O202 C198 1.260 . S
O203 In195 2.266 1_455 S
O203 C200 1.252 . S
O204 In195 2.326 1_455 S
O204 C200 1.260 . S
C205 O196 1.240 . S
C205 O197 1.252 1_655 S
O206 In195 2.294 1_455 S
O206 C199 1.240 1_455 S
O207 In195 2.326 . S
O207 C199 1.252 . S
In208 O209 2.294 . S
In208 O210 2.326 . S
In208 O214 2.266 . S
In208 O215 2.326 . S
In208 O216 2.266 . S
In208 O217 2.326 . S
In208 O219 2.294 . S
In208 O220 2.326 . S
O209 In208 2.294 . S
O209 C218 1.240 . S
O210 In208 2.326 . S
O210 C218 1.252 . S
C211 O214 1.252 . S
C211 O215 1.260 . S
C212 O219 1.240 . S
C212 O220 1.252 . S
C213 O216 1.252 . S
C213 O217 1.260 . S
O214 In208 2.266 . S
O214 C211 1.252 . S
O215 In208 2.326 . S
O215 C211 1.260 . S
O216 In208 2.266 . S
O216 C213 1.252 . S
O217 In208 2.326 . S
O217 C213 1.260 . S
C218 O209 1.240 . S
C218 O210 1.252 . S
O219 In208 2.294 . S
O219 C212 1.240 . S
O220 In208 2.326 . S
O220 C212 1.252 . S
In221 O222 2.294 . S
In221 O223 2.326 1_545 S
In221 O227 2.266 . S
In221 O228 2.326 . S
In221 O229 2.266 1_545 S
In221 O230 2.326 1_545 S
In221 O232 2.294 1_545 S
In221 O233 2.326 . S
O222 In221 2.294 . S
O222 C231 1.240 . S
O223 In221 2.326 1_565 S
O223 C231 1.252 1_565 S
C224 O227 1.252 . S
C224 O228 1.260 . S
C225 O232 1.240 1_545 S
C225 O233 1.252 . S
C226 O229 1.252 . S
C226 O230 1.260 . S
O227 In221 2.266 . S
O227 C224 1.252 . S
O228 In221 2.326 . S
O228 C224 1.260 . S
O229 In221 2.266 1_565 S
O229 C226 1.252 . S
O230 In221 2.326 1_565 S
O230 C226 1.260 . S
C231 O222 1.240 . S
C231 O223 1.252 1_545 S
O232 In221 2.294 1_565 S
O232 C225 1.240 1_565 S
O233 In221 2.326 . S
O233 C225 1.252 . S
C234 C235 1.369 . S
C234 C236 1.419 . S
C234 H238 0.930 . S
C235 C234 1.369 . S
C235 C244 1.429 1_544 S
C236 C234 1.419 . S
C236 C237 1.363 1_544 S
C236 H239 0.929 . S
C237 C236 1.363 1_566 S
C237 C243 1.428 . S
H238 C234 0.930 . S
H239 C236 0.929 . S
S240 N241 1.613 . S
S240 N242 1.610 . S
N241 S240 1.613 . S
N241 C244 1.350 . S
N242 S240 1.610 . S
N242 C243 1.351 . S
C243 C237 1.428 . S
C243 N242 1.351 . S
C243 C244 1.434 . S
C244 C235 1.429 1_566 S
C244 N241 1.350 . S
C244 C243 1.434 . S
C245 C246 1.369 1_455 S
C245 C247 1.419 . S
C245 H249 0.930 . S
C246 C245 1.369 1_655 S
C246 C255 1.429 1_554 S
C247 C245 1.419 . S
C247 C248 1.363 1_554 S
C247 H250 0.929 . S
C248 C247 1.363 1_556 S
C248 C254 1.428 1_455 S
H249 C245 0.930 . S
H250 C247 0.929 . S
S251 N252 1.613 . S
S251 N253 1.610 . S
N252 S251 1.613 . S
N252 C255 1.350 . S
N253 S251 1.610 . S
N253 C254 1.351 . S
C254 C248 1.428 1_655 S
C254 N253 1.351 . S
C254 C255 1.434 . S
C255 C246 1.429 1_556 S
C255 N252 1.350 . S
C255 C254 1.434 . S
C256 C257 1.369 1_554 S
C256 C258 1.419 . S
C256 H260 0.930 . S
C257 C256 1.369 1_556 S
C257 C266 1.429 . S
C258 C256 1.419 . S
C258 C259 1.363 . S
C258 H261 0.929 . S
C259 C258 1.363 . S
C259 C265 1.428 1_554 S
H260 C256 0.930 . S
H261 C258 0.929 . S
S262 N263 1.613 . S
S262 N264 1.610 . S
N263 S262 1.613 . S
N263 C266 1.350 . S
N264 S262 1.610 . S
N264 C265 1.351 . S
C265 C259 1.428 1_556 S
C265 N264 1.351 . S
C265 C266 1.434 . S
C266 C257 1.429 . S
C266 N263 1.350 . S
C266 C265 1.434 . S
C267 C268 1.369 . S
C267 C269 1.419 . S
C267 H271 0.930 . S
C268 C267 1.369 . S
C268 C277 1.429 . S
C269 C267 1.419 . S
C269 C270 1.363 . S
C269 H272 0.929 . S
C270 C269 1.363 . S
C270 C276 1.428 . S
H271 C267 0.930 . S
H272 C269 0.929 . S
S273 N274 1.613 . S
S273 N275 1.610 . S
N274 S273 1.613 . S
N274 C277 1.350 . S
N275 S273 1.610 . S
N275 C276 1.351 . S
C276 C270 1.428 . S
C276 N275 1.351 . S
C276 C277 1.434 . S
C277 C268 1.429 . S
C277 N274 1.350 . S
C277 C276 1.434 . S
C278 C279 1.369 . S
C278 C280 1.419 . S
C278 H282 0.930 . S
C279 C278 1.369 . S
C279 C288 1.429 . S
C280 C278 1.419 . S
C280 C281 1.363 . S
C280 H283 0.929 . S
C281 C280 1.363 . S
C281 C287 1.428 . S
H282 C278 0.930 . S
H283 C280 0.929 . S
S284 N285 1.613 . S
S284 N286 1.610 . S
N285 S284 1.613 . S
N285 C288 1.350 . S
N286 S284 1.610 . S
N286 C287 1.351 . S
C287 C281 1.428 . S
C287 N286 1.351 . S
C287 C288 1.434 . S
C288 C279 1.429 . S
C288 N285 1.350 . S
C288 C287 1.434 . S
C289 C290 1.369 . S
C289 C291 1.419 . S
C289 H293 0.930 . S
C290 C289 1.369 . S
C290 C299 1.429 . S
C291 C289 1.419 . S
C291 C292 1.363 . S
C291 H294 0.929 . S
C292 C291 1.363 . S
C292 C298 1.428 . S
H293 C289 0.930 . S
H294 C291 0.929 . S
S295 N296 1.613 . S
S295 N297 1.610 . S
N296 S295 1.613 . S
N296 C299 1.350 . S
N297 S295 1.610 . S
N297 C298 1.351 . S
C298 C292 1.428 . S
C298 N297 1.351 . S
C298 C299 1.434 . S
C299 C290 1.429 . S
C299 N296 1.350 . S
C299 C298 1.434 . S
C300 C301 1.369 . S
C300 C302 1.419 . S
C300 H304 0.930 . S
C301 C300 1.369 . S
C301 C310 1.429 . S
C302 C300 1.419 . S
C302 C303 1.363 . S
C302 H305 0.929 . S
C303 C302 1.363 . S
C303 C309 1.428 . S
H304 C300 0.930 . S
H305 C302 0.929 . S
S306 N307 1.613 . S
S306 N308 1.610 . S
N307 S306 1.613 . S
N307 C310 1.350 . S
N308 S306 1.610 . S
N308 C309 1.351 . S
C309 C303 1.428 . S
C309 N308 1.351 . S
C309 C310 1.434 . S
C310 C301 1.429 . S
C310 N307 1.350 . S
C310 C309 1.434 . S
C311 C312 1.369 . S
C311 C313 1.419 . S
C311 H315 0.930 . S
C312 C311 1.369 . S
C312 C321 1.429 . S
C313 C311 1.419 . S
C313 C314 1.363 . S
C313 H316 0.929 . S
C314 C313 1.363 . S
C314 C320 1.428 . S
H315 C311 0.930 . S
H316 C313 0.929 . S
S317 N318 1.613 . S
S317 N319 1.610 . S
N318 S317 1.613 . S
N318 C321 1.350 . S
N319 S317 1.610 . S
N319 C320 1.351 . S
C320 C314 1.428 . S
C320 N319 1.351 . S
C320 C321 1.434 . S
C321 C312 1.429 . S
C321 N318 1.350 . S
C321 C320 1.434 . S
C322 C323 1.369 . S
C322 C324 1.419 . S
C322 H326 0.930 . S
C323 C322 1.369 . S
C323 C332 1.429 . S
C324 C322 1.419 . S
C324 C325 1.363 . S
C324 H327 0.929 . S
C325 C324 1.363 . S
C325 C331 1.428 . S
H326 C322 0.930 . S
H327 C324 0.929 . S
S328 N329 1.613 . S
S328 N330 1.610 . S
N329 S328 1.613 . S
N329 C332 1.350 . S
N330 S328 1.610 . S
N330 C331 1.351 . S
C331 C325 1.428 . S
C331 N330 1.351 . S
C331 C332 1.434 . S
C332 C323 1.429 . S
C332 N329 1.350 . S
C332 C331 1.434 . S
C333 C334 1.369 . S
C333 C335 1.419 . S
C333 H337 0.930 . S
C334 C333 1.369 . S
C334 C343 1.429 . S
C335 C333 1.419 . S
C335 C336 1.363 . S
C335 H338 0.929 . S
C336 C335 1.363 . S
C336 C342 1.428 . S
H337 C333 0.930 . S
H338 C335 0.929 . S
S339 N340 1.613 . S
S339 N341 1.610 . S
N340 S339 1.613 . S
N340 C343 1.350 . S
N341 S339 1.610 . S
N341 C342 1.351 . S
C342 C336 1.428 . S
C342 N341 1.351 . S
C342 C343 1.434 . S
C343 C334 1.429 . S
C343 N340 1.350 . S
C343 C342 1.434 . S
C344 C345 1.369 . S
C344 C346 1.419 . S
C344 H348 0.930 . S
C345 C344 1.369 . S
C345 C354 1.429 . S
C346 C344 1.419 . S
C346 C347 1.363 . S
C346 H349 0.929 . S
C347 C346 1.363 . S
C347 C353 1.428 . S
H348 C344 0.930 . S
H349 C346 0.929 . S
S350 N351 1.613 . S
S350 N352 1.610 . S
N351 S350 1.613 . S
N351 C354 1.350 . S
N352 S350 1.610 . S
N352 C353 1.351 . S
C353 C347 1.428 . S
C353 N352 1.351 . S
C353 C354 1.434 . S
C354 C345 1.429 . S
C354 N351 1.350 . S
C354 C353 1.434 . S
C355 C356 1.369 . S
C355 C357 1.419 . S
C355 H359 0.930 . S
C356 C355 1.369 . S
C356 C365 1.429 . S
C357 C355 1.419 . S
C357 C358 1.363 . S
C357 H360 0.929 . S
C358 C357 1.363 . S
C358 C364 1.428 . S
H359 C355 0.930 . S
H360 C357 0.929 . S
S361 N362 1.613 . S
S361 N363 1.610 . S
N362 S361 1.613 . S
N362 C365 1.350 . S
N363 S361 1.610 . S
N363 C364 1.351 . S
C364 C358 1.428 . S
C364 N363 1.351 . S
C364 C365 1.434 . S
C365 C356 1.429 . S
C365 N362 1.350 . S
C365 C364 1.434 . S
C366 C367 1.369 . S
C366 C368 1.419 . S
C366 H370 0.930 . S
C367 C366 1.369 . S
C367 C376 1.429 . S
C368 C366 1.419 . S
C368 C369 1.363 . S
C368 H371 0.929 . S
C369 C368 1.363 . S
C369 C375 1.428 . S
H370 C366 0.930 . S
H371 C368 0.929 . S
S372 N373 1.613 . S
S372 N374 1.610 . S
N373 S372 1.613 . S
N373 C376 1.350 . S
N374 S372 1.610 . S
N374 C375 1.351 . S
C375 C369 1.428 . S
C375 N374 1.351 . S
C375 C376 1.434 . S
C376 C367 1.429 . S
C376 N373 1.350 . S
C376 C375 1.434 . S
C377 C378 1.369 . S
C377 C379 1.419 . S
C377 H381 0.930 . S
C378 C377 1.369 . S
C378 C387 1.429 . S
C379 C377 1.419 . S
C379 C380 1.363 . S
C379 H382 0.929 . S
C380 C379 1.363 . S
C380 C386 1.428 . S
H381 C377 0.930 . S
H382 C379 0.929 . S
S383 N384 1.613 . S
S383 N385 1.610 . S
N384 S383 1.613 . S
N384 C387 1.350 . S
N385 S383 1.610 . S
N385 C386 1.351 . S
C386 C380 1.428 . S
C386 N385 1.351 . S
C386 C387 1.434 . S
C387 C378 1.429 . S
C387 N384 1.350 . S
C387 C386 1.434 . S
C388 C389 1.369 . S
C388 C390 1.419 . S
C388 H392 0.930 . S
C389 C388 1.369 . S
C389 C398 1.429 . S
C390 C388 1.419 . S
C390 C391 1.363 . S
C390 H393 0.929 . S
C391 C390 1.363 . S
C391 C397 1.428 . S
H392 C388 0.930 . S
H393 C390 0.929 . S
S394 N395 1.613 . S
S394 N396 1.610 . S
N395 S394 1.613 . S
N395 C398 1.350 . S
N396 S394 1.610 . S
N396 C397 1.351 . S
C397 C391 1.428 . S
C397 N396 1.351 . S
C397 C398 1.434 . S
C398 C389 1.429 . S
C398 N395 1.350 . S
C398 C397 1.434 . S
C399 C400 1.369 1_655 S
C399 C401 1.419 . S
C399 H403 0.930 . S
C400 C399 1.369 1_455 S
C400 C409 1.429 . S
C401 C399 1.419 . S
C401 C402 1.363 . S
C401 H404 0.929 . S
C402 C401 1.363 . S
C402 C408 1.428 1_655 S
H403 C399 0.930 . S
H404 C401 0.929 . S
S405 N406 1.613 . S
S405 N407 1.610 . S
N406 S405 1.613 . S
N406 C409 1.350 . S
N407 S405 1.610 . S
N407 C408 1.351 . S
C408 C402 1.428 1_455 S
C408 N407 1.351 . S
C408 C409 1.434 . S
C409 C400 1.429 . S
C409 N406 1.350 . S
C409 C408 1.434 . S
C410 C411 1.369 . S
C410 C412 1.419 . S
C410 H414 0.930 . S
C411 C410 1.369 . S
C411 C420 1.429 . S
C412 C410 1.419 . S
C412 C413 1.363 . S
C412 H415 0.929 . S
C413 C412 1.363 . S
C413 C419 1.428 . S
H414 C410 0.930 . S
H415 C412 0.929 . S
S416 N417 1.613 . S
S416 N418 1.610 . S
N417 S416 1.613 . S
N417 C420 1.350 . S
N418 S416 1.610 . S
N418 C419 1.351 . S
C419 C413 1.428 . S
C419 N418 1.351 . S
C419 C420 1.434 . S
C420 C411 1.429 . S
C420 N417 1.350 . S
C420 C419 1.434 . S
C421 C422 1.369 . S
C421 C423 1.419 1_545 S
C421 H425 0.930 . S
C422 C421 1.369 . S
C422 C431 1.429 . S
C423 C421 1.419 1_565 S
C423 C424 1.363 . S
C423 H426 0.929 . S
C424 C423 1.363 . S
C424 C430 1.428 . S
H425 C421 0.930 . S
H426 C423 0.929 . S
S427 N428 1.613 . S
S427 N429 1.610 1_545 S
N428 S427 1.613 . S
N428 C431 1.350 . S
N429 S427 1.610 1_565 S
N429 C430 1.351 . S
C430 C424 1.428 . S
C430 N429 1.351 . S
C430 C431 1.434 1_565 S
C431 C422 1.429 . S
C431 N428 1.350 . S
C431 C430 1.434 1_545 S
C432 C433 1.369 1_556 S
C432 C434 1.419 . S
C432 H436 0.930 . S
C433 C432 1.369 1_554 S
C433 C442 1.429 . S
C434 C432 1.419 . S
C434 C435 1.363 . S
C434 H437 0.929 . S
C435 C434 1.363 . S
C435 C441 1.428 1_556 S
H436 C432 0.930 . S
H437 C434 0.929 . S
S438 N439 1.613 . S
S438 N440 1.610 . S
N439 S438 1.613 . S
N439 C442 1.350 . S
N440 S438 1.610 . S
N440 C441 1.351 . S
C441 C435 1.428 1_554 S
C441 N440 1.351 . S
C441 C442 1.434 . S
C442 C433 1.429 . S
C442 N439 1.350 . S
C442 C441 1.434 . S
C443 C444 1.369 1_556 S
C443 C445 1.419 . S
C443 H447 0.930 . S
C444 C443 1.369 1_554 S
C444 C453 1.429 . S
C445 C443 1.419 . S
C445 C446 1.363 . S
C445 H448 0.929 . S
C446 C445 1.363 . S
C446 C452 1.428 1_556 S
H447 C443 0.930 . S
H448 C445 0.929 . S
S449 N450 1.613 . S
S449 N451 1.610 . S
N450 S449 1.613 . S
N450 C453 1.350 . S
N451 S449 1.610 . S
N451 C452 1.351 . S
C452 C446 1.428 1_554 S
C452 N451 1.351 . S
C452 C453 1.434 . S
C453 C444 1.429 . S
C453 N450 1.350 . S
C453 C452 1.434 . S
C454 C455 1.369 1_556 S
C454 C456 1.419 . S
C454 H458 0.930 . S
C455 C454 1.369 1_554 S
C455 C464 1.429 . S
C456 C454 1.419 . S
C456 C457 1.363 . S
C456 H459 0.929 . S
C457 C456 1.363 . S
C457 C463 1.428 1_556 S
H458 C454 0.930 . S
H459 C456 0.929 . S
S460 N461 1.613 . S
S460 N462 1.610 . S
N461 S460 1.613 . S
N461 C464 1.350 . S
N462 S460 1.610 . S
N462 C463 1.351 . S
C463 C457 1.428 1_554 S
C463 N462 1.351 . S
C463 C464 1.434 . S
C464 C455 1.429 . S
C464 N461 1.350 . S
C464 C463 1.434 . S
C465 C466 1.369 . S
C465 C467 1.419 1_556 S
C465 H469 0.930 . S
C466 C465 1.369 . S
C466 C475 1.429 . S
C467 C465 1.419 1_554 S
C467 C468 1.363 . S
C467 H470 0.929 . S
C468 C467 1.363 . S
C468 C474 1.428 . S
H469 C465 0.930 . S
H470 C467 0.929 . S
S471 N472 1.611 1_554 S
S471 N473 1.613 . S
N472 S471 1.611 1_556 S
N472 C475 1.350 . S
N473 S471 1.613 . S
N473 C474 1.351 . S
C474 C468 1.428 . S
C474 N473 1.351 . S
C474 C475 1.434 1_554 S
C475 C466 1.429 . S
C475 N472 1.350 . S
C475 C474 1.434 1_556 S
C476 C477 1.369 1_556 S
C476 C478 1.419 . S
C476 H480 0.930 . S
C477 C476 1.369 1_554 S
C477 C486 1.429 . S
C478 C476 1.419 . S
C478 C479 1.363 . S
C478 H481 0.929 . S
C479 C478 1.363 . S
C479 C485 1.428 1_556 S
H480 C476 0.930 . S
H481 C478 0.929 . S
S482 N483 1.613 . S
S482 N484 1.610 . S
N483 S482 1.613 . S
N483 C486 1.350 . S
N484 S482 1.610 . S
N484 C485 1.351 . S
C485 C479 1.428 1_554 S
C485 N484 1.351 . S
C485 C486 1.434 . S
C486 C477 1.429 . S
C486 N483 1.350 . S
C486 C485 1.434 . S
C487 C488 1.369 1_554 S
C487 C489 1.419 . S
C487 H491 0.930 . S
C488 C487 1.369 1_556 S
C488 C497 1.429 . S
C489 C487 1.419 . S
C489 C490 1.363 . S
C489 H492 0.929 . S
C490 C489 1.363 . S
C490 C496 1.428 1_554 S
H491 C487 0.930 . S
H492 C489 0.929 . S
S493 N494 1.613 . S
S493 N495 1.610 . S
N494 S493 1.613 . S
N494 C497 1.350 . S
N495 S493 1.610 . S
N495 C496 1.351 . S
C496 C490 1.428 1_556 S
C496 N495 1.351 . S
C496 C497 1.434 . S
C497 C488 1.429 . S
C497 N494 1.350 . S
C497 C496 1.434 . S
C498 C499 1.369 . S
C498 C500 1.419 . S
C498 H502 0.930 . S
C499 C498 1.369 . S
C499 C508 1.429 . S
C500 C498 1.419 . S
C500 C501 1.363 . S
C500 H503 0.929 . S
C501 C500 1.363 . S
C501 C507 1.428 . S
H502 C498 0.930 . S
H503 C500 0.929 . S
S504 N505 1.613 . S
S504 N506 1.610 . S
N505 S504 1.613 . S
N505 C508 1.350 . S
N506 S504 1.610 . S
N506 C507 1.351 . S
C507 C501 1.428 . S
C507 N506 1.351 . S
C507 C508 1.434 . S
C508 C499 1.429 . S
C508 N505 1.350 . S
C508 C507 1.434 . S
C509 C510 1.369 . S
C509 C511 1.419 . S
C509 H513 0.930 . S
C510 C509 1.369 . S
C510 C519 1.429 . S
C511 C509 1.419 . S
C511 C512 1.363 . S
C511 H514 0.929 . S
C512 C511 1.363 . S
C512 C518 1.428 . S
H513 C509 0.930 . S
H514 C511 0.929 . S
S515 N516 1.613 . S
S515 N517 1.610 . S
N516 S515 1.613 . S
N516 C519 1.350 . S
N517 S515 1.610 . S
N517 C518 1.351 . S
C518 C512 1.428 . S
C518 N517 1.351 . S
C518 C519 1.434 . S
C519 C510 1.429 . S
C519 N516 1.350 . S
C519 C518 1.434 . S
C520 C521 1.369 . S
C520 C522 1.419 . S
C520 H524 0.930 . S
C521 C520 1.369 . S
C521 C530 1.429 . S
C522 C520 1.419 . S
C522 C523 1.363 . S
C522 H525 0.929 . S
C523 C522 1.363 . S
C523 C529 1.428 . S
H524 C520 0.930 . S
H525 C522 0.929 . S
S526 N527 1.613 . S
S526 N528 1.610 . S
N527 S526 1.613 . S
N527 C530 1.350 . S
N528 S526 1.610 . S
N528 C529 1.351 . S
C529 C523 1.428 . S
C529 N528 1.351 . S
C529 C530 1.434 . S
C530 C521 1.429 . S
C530 N527 1.350 . S
C530 C529 1.434 . S
C531 C532 1.369 . S
C531 C533 1.419 . S
C531 H535 0.930 . S
C532 C531 1.369 . S
C532 C541 1.429 . S
C533 C531 1.419 . S
C533 C534 1.363 . S
C533 H536 0.929 . S
C534 C533 1.363 . S
C534 C540 1.428 . S
H535 C531 0.930 . S
H536 C533 0.929 . S
S537 N538 1.613 . S
S537 N539 1.610 . S
N538 S537 1.613 . S
N538 C541 1.350 . S
N539 S537 1.610 . S
N539 C540 1.351 . S
C540 C534 1.428 . S
C540 N539 1.351 . S
C540 C541 1.434 . S
C541 C532 1.429 . S
C541 N538 1.350 . S
C541 C540 1.434 . S
C542 C543 1.369 1_565 S
C542 C544 1.419 . S
C542 H546 0.930 . S
C543 C542 1.369 1_545 S
C543 C552 1.429 . S
C544 C542 1.419 . S
C544 C545 1.363 1_565 S
C544 H547 0.929 . S
C545 C544 1.363 1_545 S
C545 C551 1.428 . S
H546 C542 0.930 . S
H547 C544 0.929 . S
S548 N549 1.613 . S
S548 N550 1.610 . S
N549 S548 1.613 . S
N549 C552 1.350 . S
N550 S548 1.610 . S
N550 C551 1.351 . S
C551 C545 1.428 . S
C551 N550 1.351 . S
C551 C552 1.434 . S
C552 C543 1.429 . S
C552 N549 1.350 . S
C552 C551 1.434 . S
C553 C554 1.369 1_455 S
C553 C555 1.419 . S
C553 H557 0.930 . S
C554 C553 1.369 1_655 S
C554 C563 1.429 . S
C555 C553 1.419 . S
C555 C556 1.363 1_455 S
C555 H558 0.929 . S
C556 C555 1.363 1_655 S
C556 C562 1.428 . S
H557 C553 0.930 . S
H558 C555 0.929 . S
S559 N560 1.613 . S
S559 N561 1.610 . S
N560 S559 1.613 . S
N560 C563 1.350 . S
N561 S559 1.610 . S
N561 C562 1.351 . S
C562 C556 1.428 . S
C562 N561 1.351 . S
C562 C563 1.434 . S
C563 C554 1.429 . S
C563 N560 1.350 . S
C563 C562 1.434 . S
C564 C565 1.369 . S
C564 C566 1.419 . S
C564 H568 0.930 . S
C565 C564 1.369 . S
C565 C574 1.429 . S
C566 C564 1.419 . S
C566 C567 1.363 . S
C566 H569 0.929 . S
C567 C566 1.363 . S
C567 C573 1.428 . S
H568 C564 0.930 . S
H569 C566 0.929 . S
S570 N571 1.613 . S
S570 N572 1.610 . S
N571 S570 1.613 . S
N571 C574 1.350 . S
N572 S570 1.610 . S
N572 C573 1.351 . S
C573 C567 1.428 . S
C573 N572 1.351 . S
C573 C574 1.434 . S
C574 C565 1.429 . S
C574 N571 1.350 . S
C574 C573 1.434 . S
C575 C576 1.369 . S
C575 C577 1.419 . S
C575 H579 0.930 . S
C576 C575 1.369 . S
C576 C585 1.429 . S
C577 C575 1.419 . S
C577 C578 1.363 . S
C577 H580 0.929 . S
C578 C577 1.363 . S
C578 C584 1.428 . S
H579 C575 0.930 . S
H580 C577 0.929 . S
S581 N582 1.613 . S
S581 N583 1.610 1_545 S
N582 S581 1.613 . S
N582 C585 1.350 1_545 S
N583 S581 1.610 1_565 S
N583 C584 1.351 . S
C584 C578 1.428 . S
C584 N583 1.351 . S
C584 C585 1.434 . S
C585 C576 1.429 . S
C585 N582 1.350 1_565 S
C585 C584 1.434 . S
C586 C587 1.369 . S
C586 C588 1.419 . S
C586 H590 0.930 . S
C587 C586 1.369 . S
C587 C596 1.429 1_455 S
C588 C586 1.419 . S
C588 C589 1.363 . S
C588 H591 0.929 . S
C589 C588 1.363 . S
C589 C595 1.428 1_455 S
H590 C586 0.930 . S
H591 C588 0.929 . S
S592 N593 1.613 . S
S592 N594 1.610 . S
N593 S592 1.613 . S
N593 C596 1.350 . S
N594 S592 1.610 . S
N594 C595 1.351 . S
C595 C589 1.428 1_655 S
C595 N594 1.351 . S
C595 C596 1.434 . S
C596 C587 1.429 1_655 S
C596 N593 1.350 . S
C596 C595 1.434 . S
C597 C598 1.369 . S
C597 C599 1.419 . S
C597 H601 0.930 . S
C598 C597 1.369 . S
C598 C607 1.429 . S
C599 C597 1.419 . S
C599 C600 1.363 . S
C599 H602 0.929 . S
C600 C599 1.363 . S
C600 C606 1.428 . S
H601 C597 0.930 . S
H602 C599 0.929 . S
S603 N604 1.613 . S
S603 N605 1.610 . S
N604 S603 1.613 . S
N604 C607 1.350 . S
N605 S603 1.610 . S
N605 C606 1.351 . S
C606 C600 1.428 . S
C606 N605 1.351 . S
C606 C607 1.434 . S
C607 C598 1.429 . S
C607 N604 1.350 . S
C607 C606 1.434 . S
C608 C609 1.369 . S
C608 C610 1.419 . S
C608 H612 0.930 . S
C609 C608 1.369 . S
C609 C618 1.429 . S
C610 C608 1.419 . S
C610 C611 1.363 . S
C610 H613 0.929 . S
C611 C610 1.363 . S
C611 C617 1.428 . S
H612 C608 0.930 . S
H613 C610 0.929 . S
S614 N615 1.613 . S
S614 N616 1.610 . S
N615 S614 1.613 . S
N615 C618 1.350 . S
N616 S614 1.610 . S
N616 C617 1.351 . S
C617 C611 1.428 . S
C617 N616 1.351 . S
C617 C618 1.434 . S
C618 C609 1.429 . S
C618 N615 1.350 . S
C618 C617 1.434 . S
C619 C620 1.369 . S
C619 C621 1.419 . S
C619 H623 0.930 . S
C620 C619 1.369 . S
C620 C629 1.429 . S
C621 C619 1.419 . S
C621 C622 1.363 . S
C621 H624 0.929 . S
C622 C621 1.363 . S
C622 C628 1.428 . S
H623 C619 0.930 . S
H624 C621 0.929 . S
S625 N626 1.613 . S
S625 N627 1.610 . S
N626 S625 1.613 . S
N626 C629 1.350 . S
N627 S625 1.610 . S
N627 C628 1.351 . S
C628 C622 1.428 . S
C628 N627 1.351 . S
C628 C629 1.434 . S
C629 C620 1.429 . S
C629 N626 1.350 . S
C629 C628 1.434 . S
C235 C5 1.863 . S
C237 C44 1.868 . S
C246 C18 1.863 . S
C248 C55 1.869 . S
C257 C70 1.869 . S
C259 C29 1.863 . S
C268 C83 1.866 . S
C270 C122 1.865 . S
C279 C94 1.866 . S
C281 C135 1.866 . S
C290 C146 1.866 . S
C292 C107 1.866 . S
C301 C198 1.864 . S
C303 C159 1.866 . S
C312 C213 1.863 . S
C314 C174 1.869 . S
C323 C224 1.863 . S
C325 C187 1.868 . S
C334 C10 1.687 . S
C336 C127 1.690 . S
C345 C23 1.690 . S
C347 C140 1.687 . S
C356 C147 1.685 . S
C358 C30 1.692 . S
C367 C49 1.692 . S
C369 C160 1.686 . S
C378 C56 1.690 . S
C380 C179 1.688 . S
C389 C75 1.686 . S
C391 C192 1.691 . S
C400 C88 1.692 . S
C402 C199 1.687 . S
C411 C95 1.693 . S
C413 C218 1.686 . S
C422 C225 1.684 . S
C424 C108 1.692 . S
C433 C3 1.021 . S
C435 C62 1.020 . S
C444 C16 1.020 . S
C446 C69 1.021 . S
C455 C31 1.020 . S
C457 C43 1.021 . S
C466 C42 1.022 . S
C468 C17 1.019 . S
C477 C36 1.018 . S
C479 C57 1.022 . S
C488 C68 1.022 . S
C490 C4 1.020 . S
C499 C81 1.019 . S
C501 C134 1.021 . S
C510 C153 1.021 . S
C512 C96 1.020 . S
C521 C121 1.022 . S
C523 C109 1.020 . S
C532 C101 1.018 . S
C534 C120 1.022 . S
C543 C133 1.019 . S
C545 C114 1.021 1_545 S
C554 C148 1.021 . S
C556 C82 1.020 1_655 S
C565 C212 1.020 . S
C567 C161 1.021 . S
C576 C231 1.017 1_565 S
C578 C172 1.022 . S
C587 C185 1.023 . S
C589 C205 1.018 1_455 S
C598 C173 1.018 . S
C600 C200 1.022 . S
C609 C186 1.020 . S
C611 C211 1.021 . S
C620 C166 1.022 . S
C622 C226 1.020 . S
