# Generated by pormake.
# Topology smu, (6)-cn, num edge types: 1
# Building blocks:
#     Node 0, Type 0, BuildingBlock: BETFAJ_clean_sbu_0, # of connection points: 6
#     Node 1, Type 0, BuildingBlock: BETFAJ_clean_sbu_0, # of connection points: 6
#     Node 2, Type 0, BuildingBlock: BETFAJ_clean_sbu_0, # of connection points: 6
#     Node 3, Type 0, BuildingBlock: BETFAJ_clean_sbu_0, # of connection points: 6
#     Node 4, Type 0, BuildingBlock: BETFAJ_clean_sbu_0, # of connection points: 6
#     Node 5, Type 0, BuildingBlock: BETFAJ_clean_sbu_0, # of connection points: 6
#     Edge 6, Type (0, 0), BuildingBlock: CIFDUS_clean_linker_0, # of connection points: 2
#     Edge 7, Type (0, 0), BuildingBlock: CIFDUS_clean_linker_0, # of connection points: 2
#     Edge 8, Type (0, 0), BuildingBlock: CIFDUS_clean_linker_0, # of connection points: 2
#     Edge 9, Type (0, 0), BuildingBlock: CIFDUS_clean_linker_0, # of connection points: 2
#     Edge 10, Type (0, 0), BuildingBlock: CIFDUS_clean_linker_0, # of connection points: 2
#     Edge 11, Type (0, 0), BuildingBlock: CIFDUS_clean_linker_0, # of connection points: 2
#     Edge 12, Type (0, 0), BuildingBlock: CIFDUS_clean_linker_0, # of connection points: 2
#     Edge 13, Type (0, 0), BuildingBlock: CIFDUS_clean_linker_0, # of connection points: 2
#     Edge 14, Type (0, 0), BuildingBlock: CIFDUS_clean_linker_0, # of connection points: 2
#     Edge 15, Type (0, 0), BuildingBlock: CIFDUS_clean_linker_0, # of connection points: 2
#     Edge 16, Type (0, 0), BuildingBlock: CIFDUS_clean_linker_0, # of connection points: 2
#     Edge 17, Type (0, 0), BuildingBlock: CIFDUS_clean_linker_0, # of connection points: 2
#     Edge 18, Type (0, 0), BuildingBlock: CIFDUS_clean_linker_0, # of connection points: 2
#     Edge 19, Type (0, 0), BuildingBlock: CIFDUS_clean_linker_0, # of connection points: 2
#     Edge 20, Type (0, 0), BuildingBlock: CIFDUS_clean_linker_0, # of connection points: 2
#     Edge 21, Type (0, 0), BuildingBlock: CIFDUS_clean_linker_0, # of connection points: 2
#     Edge 22, Type (0, 0), BuildingBlock: CIFDUS_clean_linker_0, # of connection points: 2
#     Edge 23, Type (0, 0), BuildingBlock: CIFDUS_clean_linker_0, # of connection points: 2
# Relax obj value: 0.224
# Max RMSD: 0.321
# Mean RMSD: 0.321
data_MOF--net-smu--node1-BETFAJ_clean_sbu_0--edge1-CIFDUS_clean_linker_0
_symmetry_space_group_name_H-M    P1
_symmetry_Int_Tables_number       1
_symmetry_cell_setting            triclinic
loop_
_symmetry_equiv_pos_as_xyz
'x, y, z'
_cell_length_a     35.546724
_cell_length_b     35.514831
_cell_length_c     22.039759
_cell_angle_alpha  89.990375
_cell_angle_beta   90.325797
_cell_angle_gamma 120.11924
loop_
_atom_site_label
_atom_site_type_symbol
_atom_site_fract_x
_atom_site_fract_y
_atom_site_fract_z
_atom_type_partial_charge
Sm0 Sm 0.40253 0.09631 0.30697 0.0
Sm1 Sm 0.34117 0.13347 0.32136 0.0
C2 C 0.45756 0.0692 0.27646 0.0
C3 C 0.50503 0.0867 0.28374 0.0
C4 C 0.52491 0.0663 0.25434 0.0
C5 C 0.56989 0.08294 0.25964 0.0
C6 C 0.59632 0.12052 0.29463 0.0
C7 C 0.5762 0.14116 0.32363 0.0
C8 C 0.53109 0.12444 0.31823 0.0
C9 C 0.38186 0.10251 0.42729 0.0
C10 C 0.4441 0.1993 0.33079 0.0
C11 C 0.30207 0.17792 0.35032 0.0
C12 C 0.27093 0.19159 0.33026 0.0
C13 C 0.22757 0.16152 0.31486 0.0
C14 C 0.19861 0.17603 0.29942 0.0
C15 C 0.21241 0.22084 0.29924 0.0
C16 C 0.25604 0.25071 0.31366 0.0
C17 C 0.28487 0.23623 0.32903 0.0
C18 C 0.34582 0.11057 0.20376 0.0
C19 C 0.29557 0.03026 0.30423 0.0
O20 O 0.44621 0.09079 0.23997 0.0
O21 O 0.4341 0.05675 0.32571 0.0
O22 O 0.35692 0.09209 0.38203 0.0
O23 O 0.41992 0.1105 0.40933 0.0
O24 O 0.44994 0.1707 0.30041 0.0
O25 O 0.40693 0.18684 0.35785 0.0
O26 O 0.28738 0.13743 0.36681 0.0
O27 O 0.33897 0.19473 0.32121 0.0
O28 O 0.37772 0.12739 0.24071 0.0
O29 O 0.31332 0.1129 0.22553 0.0
O30 O 0.29146 0.06179 0.32937 0.0
O31 O 0.33383 0.03574 0.2866 0.0
H32 H 0.50563 0.03748 0.22691 0.0
H33 H 0.58402 0.06648 0.2356 0.0
H34 H 0.59515 0.16985 0.35136 0.0
H35 H 0.51651 0.14097 0.34104 0.0
H36 H 0.21587 0.12688 0.31556 0.0
H37 H 0.16511 0.15207 0.28924 0.0
H38 H 0.26796 0.28539 0.31321 0.0
H39 H 0.31815 0.26007 0.34077 0.0
Sm40 Sm 0.73284 0.65525 0.31926 0.0
Sm41 Sm 0.83181 0.71372 0.32909 0.0
C42 C 0.64958 0.60075 0.29496 0.0
C43 C 0.62209 0.55266 0.30344 0.0
C44 C 0.61601 0.52358 0.25588 0.0
C45 C 0.59218 0.47834 0.26488 0.0
C46 C 0.57352 0.46092 0.32158 0.0
C47 C 0.5795 0.49008 0.36897 0.0
C48 C 0.60328 0.53519 0.36002 0.0
C49 C 0.76349 0.67417 0.43866 0.0
C50 C 0.79116 0.6096 0.33307 0.0
C51 C 0.91662 0.75204 0.35099 0.0
C52 C 0.96018 0.78683 0.33194 0.0
C53 C 0.99042 0.7754 0.31111 0.0
C54 C 1.0328 0.80747 0.29633 0.0
C55 C 0.04597 0.85179 0.30233 0.0
C56 C 1.01547 0.86316 0.3229 0.0
C57 C 0.97305 0.83106 0.3375 0.0
C58 C 0.79859 0.70813 0.21412 0.0
C59 C 0.77588 0.76195 0.32442 0.0
O60 O 0.67992 0.61405 0.25383 0.0
O61 O 0.66291 0.62487 0.34395 0.0
O62 O 0.77748 0.69925 0.39389 0.0
O63 O 0.73254 0.63645 0.42021 0.0
O64 O 0.7561 0.60575 0.30664 0.0
O65 O 0.81927 0.64645 0.35931 0.0
O66 O 0.89088 0.76282 0.37883 0.0
O67 O 0.8959 0.71897 0.31403 0.0
O68 O 0.78646 0.67687 0.251 0.0
O69 O 0.83249 0.74256 0.23532 0.0
O70 O 0.81154 0.76412 0.34668 0.0
O71 O 0.74281 0.72501 0.30268 0.0
H72 H 0.62989 0.53579 0.21163 0.0
H73 H 0.58778 0.45702 0.22706 0.0
H74 H 0.56614 0.47806 0.41349 0.0
H75 H 0.60727 0.55637 0.39786 0.0
H76 H 0.98139 0.74148 0.3069 0.0
H77 H 0.0552 0.79751 0.28009 0.0
H78 H 1.02464 0.89696 0.32911 0.0
H79 H 0.95063 0.84093 0.35395 0.0
Sm80 Sm 0.96087 0.31655 0.29627 0.0
Sm81 Sm 0.93965 0.22532 0.33294 0.0
C82 C 0.96005 0.38472 0.24783 0.0
C83 C 0.94007 0.41118 0.26495 0.0
C84 C 0.92029 0.42396 0.2205 0.0
C85 C 0.9014 0.4491 0.23616 0.0
C86 C 0.90215 0.46222 0.29664 0.0
C87 C 0.92139 0.44873 0.34119 0.0
C88 C 0.93992 0.42335 0.32561 0.0
C89 C 0.98095 0.31318 0.41603 0.0
C90 C 0.85842 0.2419 0.316 0.0
C91 C 0.91335 0.14979 0.38865 0.0
C92 C 0.89342 0.10231 0.37894 0.0
C93 C 0.91379 0.08101 0.40463 0.0
C94 C 0.89415 0.03576 0.40173 0.0
C95 C 0.85339 1.0105 0.37332 0.0
C96 C 0.83361 0.03191 0.34553 0.0
C97 C 0.85337 0.07747 0.3485 0.0
C98 C 0.96158 0.2419 0.21171 0.0
C99 C 0.03859 0.29615 0.31204 0.0
O100 O 0.93337 0.34465 0.23095 0.0
O101 O 0.99147 0.38798 0.28256 0.0
O102 O 0.94789 0.28295 0.38862 0.0
O103 O 1.00075 0.34733 0.38206 0.0
O104 O 0.88737 0.28395 0.31949 0.0
O105 O 0.87087 0.21274 0.31283 0.0
O106 O 0.95312 0.17478 0.36985 0.0
O107 O 0.88891 0.16727 0.38142 0.0
O108 O 0.94053 0.25562 0.24155 0.0
O109 O 0.96557 0.21334 0.24342 0.0
O110 O 1.0125 0.26715 0.35174 0.0
O111 O 1.02429 0.31559 0.27469 0.0
H112 H 0.91973 0.41475 0.1735 0.0
H113 H 0.8872 0.45919 0.20065 0.0
H114 H 0.92204 0.45773 0.3883 0.0
H115 H 0.95429 0.4134 0.36109 0.0
H116 H 0.94463 0.09938 0.42827 0.0
H117 H 0.91076 1.02044 0.42251 0.0
H118 H 0.80223 1.0134 0.32335 0.0
H119 H 0.8369 0.09308 0.32821 0.0
Sm120 Sm 0.14475 0.3318 0.82627 0.0
Sm121 Sm 0.11188 0.39459 0.80609 0.0
C122 C 0.18864 0.2938 0.86217 0.0
C123 C 0.20254 0.26129 0.85981 0.0
C124 C 0.22434 0.25758 0.91045 0.0
C125 C 0.24124 0.22969 0.90929 0.0
C126 C 0.23634 0.20444 0.8575 0.0
C127 C 0.21477 0.20852 0.80627 0.0
C128 C 0.19804 0.23691 0.80737 0.0
C129 C 0.12993 0.34222 0.70637 0.0
C130 C 0.04341 0.28765 0.79665 0.0
C131 C 0.08939 0.45241 0.77272 0.0
C132 C 0.11374 0.50071 0.77575 0.0
C133 C 0.11214 0.5254 0.72711 0.0
C134 C 0.13674 0.57106 0.72863 0.0
C135 C 0.1634 0.59308 0.77902 0.0
C136 C 0.16484 0.56818 0.82769 0.0
C137 C 0.14055 0.52261 0.82593 0.0
C138 C 0.11069 0.37183 0.92748 0.0
C139 C 0.21251 0.43409 0.83777 0.0
O140 O 0.15059 0.28347 0.88466 0.0
O141 O 0.20175 0.32293 0.81908 0.0
O142 O 0.14739 0.37233 0.74562 0.0
O143 O 0.12443 0.30601 0.72864 0.0
O144 O 0.07329 0.2814 0.82303 0.0
O145 O 0.05066 0.32711 0.7814 0.0
O146 O 0.10401 0.4347 0.73455 0.0
O147 O 0.07816 0.43181 0.82448 0.0
O148 O 0.10065 0.3468 0.88234 0.0
O149 O 0.12439 0.41126 0.9086 0.0
O150 O 0.18642 0.44034 0.80203 0.0
O151 O 0.19739 0.39696 0.8664 0.0
H152 H 0.22888 0.27684 0.95087 0.0
H153 H 0.25831 0.228 0.94913 0.0
H154 H 0.21012 0.18923 0.76591 0.0
H155 H 0.18176 0.23988 0.76751 0.0
H156 H 0.09204 0.50933 0.68771 0.0
H157 H 0.13453 0.58916 0.69057 0.0
H158 H 0.18541 0.58392 0.8668 0.0
H159 H 0.14311 0.50449 0.86371 0.0
Sm160 Sm 0.23792 0.91764 0.82291 0.0
Sm161 Sm 0.33407 0.95139 0.80889 0.0
C162 C 0.15332 0.87449 0.84647 0.0
C163 C 0.10957 0.86489 0.82615 0.0
C164 C 0.07886 0.82231 0.80798 0.0
C165 C 0.03621 0.8113 0.79302 0.0
C166 C 1.02318 0.84263 0.79613 0.0
C167 C 0.05414 0.88539 0.8139 0.0
C168 C 0.09681 0.89641 0.82873 0.0
C169 C 0.26778 0.94071 0.70557 0.0
C170 C 0.29774 1.02079 0.81436 0.0
C171 C 0.41529 0.97559 0.77932 0.0
C172 C 0.4391 0.95129 0.78251 0.0
C173 C 0.46707 0.95461 0.73552 0.0
C174 C 0.48731 0.92936 0.73635 0.0
C175 C 0.48009 0.90031 0.78434 0.0
C176 C 0.45219 0.89727 0.83149 0.0
C177 C 0.43174 0.92223 0.8304 0.0
C178 C 0.30948 0.94656 0.9301 0.0
C179 C 0.27184 0.84972 0.8333 0.0
O180 O 0.18026 0.91294 0.86937 0.0
O181 O 0.17273 0.85863 0.81369 0.0
O182 O 0.27882 0.92055 0.74236 0.0
O183 O 0.23643 0.94463 0.72839 0.0
O184 O 0.26193 0.98905 0.83859 0.0
O185 O 0.32864 1.01402 0.79195 0.0
O186 O 0.38367 0.96127 0.7396 0.0
O187 O 0.40478 0.98576 0.83099 0.0
O188 O 0.29519 0.9579 0.88552 0.0
O189 O 0.33583 0.93406 0.9102 0.0
O190 O 0.30509 0.87693 0.80006 0.0
O191 O 0.24838 0.86343 0.86103 0.0
H192 H 0.08769 0.79723 0.8062 0.0
H193 H 1.01347 0.77823 0.779 0.0
H194 H 0.04514 0.91025 0.81789 0.0
H195 H 0.11949 0.92938 0.84321 0.0
H196 H 0.4729 0.97641 0.69782 0.0
H197 H 0.5089 0.93283 0.69958 0.0
H198 H 0.44542 0.87487 0.8687 0.0
H199 H 0.40965 0.91831 0.86671 0.0
Sm200 Sm 0.72645 0.82747 0.82056 0.0
Sm201 Sm 0.66634 0.72907 0.8109 0.0
C202 C 0.76479 0.91175 0.84592 0.0
C203 C 0.79822 0.95552 0.82683 0.0
C204 C 0.80856 0.99082 0.86532 0.0
C205 C 0.839 0.03314 0.84781 0.0
C206 C 0.85974 0.04099 0.79128 0.0
C207 C 0.84901 1.00537 0.75252 0.0
C208 C 0.81842 0.96295 0.77013 0.0
C209 C 0.71335 0.79502 0.70391 0.0
C210 C 0.77369 0.77154 0.80099 0.0
C211 C 0.60952 0.64637 0.78596 0.0
C212 C 0.56138 0.62311 0.78108 0.0
C213 C 0.53968 0.64443 0.75935 0.0
C214 C 0.49415 0.62377 0.76054 0.0
C215 C 0.46915 0.5814 0.78395 0.0
C216 C 0.49103 0.55997 0.80492 0.0
C217 C 0.53659 0.58062 0.80353 0.0
C218 C 0.69158 0.75895 0.92932 0.0
C219 C 0.62442 0.78866 0.83579 0.0
O220 O 0.77768 0.88609 0.86908 0.0
O221 O 0.73066 0.89143 0.81051 0.0
O222 O 0.68449 0.78306 0.74448 0.0
O223 O 0.74869 0.82918 0.72239 0.0
O224 O 0.77872 0.80888 0.82101 0.0
O225 O 0.73467 0.73677 0.79017 0.0
O226 O 0.63146 0.67514 0.7441 0.0
O227 O 0.62525 0.66019 0.84025 0.0
O228 O 0.71513 0.77229 0.88292 0.0
O229 O 0.65263 0.72915 0.91344 0.0
O230 O 0.61915 0.75589 0.80181 0.0
O231 O 0.66189 0.81345 0.86276 0.0
H232 H 0.79305 0.98564 0.90915 0.0
H233 H 0.84704 0.05959 0.87926 0.0
H234 H 0.86422 1.01031 0.70855 0.0
H235 H 0.81046 0.93603 0.73959 0.0
H236 H 0.55796 0.67748 0.74261 0.0
H237 H 0.47861 0.64152 0.74463 0.0
H238 H 0.47294 0.52714 0.82247 0.0
H239 H 0.55253 0.56364 0.82105 0.0
H240 H 0.27775 0.99803 0.96555 0.0
H241 H 0.36121 0.94999 1.02658 0.0
H242 H 0.38294 0.99862 0.11522 0.0
H243 H 0.37874 0.05646 0.17465 0.0
H244 H 0.29758 0.10563 0.10742 0.0
H245 H 0.27541 0.05593 1.02153 0.0
C246 C 0.30069 0.99806 0.99815 0.0
C247 C 0.31781 0.97035 0.98903 0.0
C248 C 0.31429 0.02724 1.04741 0.0
C249 C 0.3472 0.97069 1.03243 0.0
C250 C 0.36003 0.99891 0.08285 0.0
C251 C 0.35746 0.05729 0.14018 0.0
C252 C 0.34071 0.08563 0.14704 0.0
C253 C 0.34434 0.02798 0.09037 0.0
C254 C 0.31152 0.08474 0.10297 0.0
C255 C 0.29849 0.05604 1.05392 0.0
H256 H 0.78468 0.79937 0.65347 0.0
H257 H 0.6446 0.7258 0.64639 0.0
H258 H 0.64764 0.67729 0.56956 0.0
H259 H 0.69063 0.65853 0.50021 0.0
H260 H 0.83059 0.7352 0.50492 0.0
H261 H 0.82724 0.77917 0.58798 0.0
C262 C 0.75472 0.77276 0.63513 0.0
C263 C 0.71436 0.76617 0.65576 0.0
C264 C 0.75684 0.74518 0.59118 0.0
C265 C 0.676 0.73138 0.63162 0.0
C266 C 0.6778 0.70366 0.58773 0.0
C267 C 0.72037 0.68398 0.5208 0.0
C268 C 0.76096 0.69291 0.49754 0.0
C269 C 0.71807 0.71032 0.56697 0.0
C270 C 0.79913 0.72708 0.52305 0.0
C271 C 0.79716 0.75257 0.56994 0.0
H272 H 0.99575 0.32482 0.16537 0.0
H273 H 0.98301 0.19954 0.12985 0.0
H274 H 1.0292 0.2287 1.04068 0.0
H275 H 0.07434 0.28997 0.97311 0.0
H276 H 0.0925 0.41698 1.01238 0.0
H277 H 0.04455 0.38754 0.10026 0.0
C278 C 1.0028 0.30388 0.13774 0.0
C279 C 0.98546 0.25984 0.15394 0.0
C280 C 1.03124 0.32146 0.08776 0.0
C281 C 0.99554 0.23339 0.11811 0.0
C282 C 1.02228 0.25014 0.06732 0.0
C283 C 0.06826 0.31135 1.00136 0.0
C284 C 0.08716 0.35567 0.98603 0.0
C285 C 0.0407 0.2942 1.052 0.0
C286 C 0.07878 0.38283 1.0232 0.0
C287 C 0.05095 0.36589 0.07324 0.0
H288 H 0.3959 0.04406 0.48919 0.0
H289 H 0.32372 0.11171 0.49491 0.0
H290 H 0.28261 0.06807 0.58228 0.0
H291 H 0.26388 1.00761 0.65261 0.0
H292 H 0.33208 0.93601 0.64326 0.0
H293 H 0.37782 0.98383 0.56164 0.0
C294 C 0.37196 0.04996 0.51068 0.0
C295 C 0.36357 0.08188 0.48663 0.0
C296 C 0.34715 1.02337 0.55942 0.0
C297 C 0.33134 0.08804 0.51345 0.0
C298 C 0.30753 0.06274 0.56295 0.0
C299 C 0.28868 1.00231 0.63266 0.0
C300 C 0.29469 0.9683 0.65435 0.0
C301 C 0.3145 0.02971 0.58547 0.0
C302 C 0.32712 0.96219 0.62802 0.0
C303 C 0.35321 0.98953 0.58123 0.0
H304 H 0.67104 0.68754 0.99801 0.0
H305 H 0.75767 0.82628 0.98964 0.0
H306 H 0.79787 0.8228 0.07814 0.0
H307 H 0.81086 0.77982 0.15392 0.0
H308 H 0.72832 0.6403 0.1574 0.0
H309 H 0.68407 0.64433 0.07463 0.0
C310 C 0.69811 0.7171 1.01651 0.0
C311 C 0.7109 0.75734 0.98825 0.0
C312 C 0.72216 0.71451 0.06582 0.0
C313 C 0.74688 0.79516 1.01136 0.0
C314 C 0.77005 0.79307 1.06154 0.0
C315 C 0.78323 0.75022 0.13652 0.0
C316 C 0.7726 0.70976 0.16224 0.0
C317 C 0.75849 0.75284 0.08838 0.0
C318 C 0.73671 0.67183 0.13913 0.0
C319 C 0.71153 0.67417 0.09165 0.0
H320 H 0.04576 0.37957 0.47776 0.0
H321 H 0.96125 0.24035 0.48451 0.0
H322 H 1.00075 0.23709 0.57458 0.0
H323 H 0.0612 0.2741 0.64913 0.0
H324 H 0.14444 0.41355 0.64148 0.0
H325 H 0.10376 0.41647 0.55333 0.0
C326 C 1.03563 0.34843 0.49913 0.0
C327 C 1.00046 0.31019 0.47445 0.0
C328 C 0.05868 0.34692 0.55021 0.0
C329 C 0.98786 0.27024 0.50285 0.0
C330 C 1.01072 0.26841 0.55402 0.0
C331 C 0.07057 0.30511 0.62792 0.0
C332 C 0.1061 0.34367 0.65161 0.0
C333 C 0.04654 0.30652 0.57763 0.0
C334 C 0.11738 0.38355 0.62415 0.0
C335 C 0.09406 0.38518 0.57381 0.0
H336 H 0.6641 0.2057 0.29856 0.0
H337 H 0.63724 0.07298 0.30687 0.0
H338 H 0.71475 0.09859 0.3143 0.0
H339 H 0.79049 0.15818 0.3173 0.0
H340 H 0.81855 0.29126 0.31103 0.0
H341 H 0.74064 0.26597 0.30496 0.0
C342 C 0.67508 0.18232 0.3026 0.0
C343 C 0.64432 0.13724 0.30141 0.0
C344 C 0.72018 0.19734 0.30734 0.0
C345 C 0.65972 0.10773 0.30624 0.0
C346 C 0.70425 0.12238 0.31095 0.0
C347 C 0.77975 0.18182 0.31474 0.0
C348 C 0.81077 0.22671 0.31452 0.0
C349 C 0.73481 0.16705 0.31117 0.0
C350 C 0.79573 0.25657 0.31138 0.0
C351 C 0.75103 0.24208 0.30778 0.0
H352 H 0.58782 0.39595 0.27941 0.0
H353 H 0.49789 0.41689 0.38496 0.0
H354 H 0.45294 0.33893 0.40126 0.0
H355 H 0.43696 0.26476 0.38261 0.0
H356 H 0.52395 0.2414 0.27415 0.0
H357 H 0.57218 0.32016 0.2624 0.0
C358 C 0.5583 0.38345 0.30577 0.0
C359 C 0.54659 0.41271 0.3311 0.0
C360 C 0.53204 0.33805 0.31469 0.0
C361 C 0.50835 0.39562 0.36569 0.0
C362 C 0.48236 0.35085 0.37482 0.0
C363 C 0.46668 0.27664 0.35684 0.0
C364 C 0.47664 0.24685 0.32934 0.0
C365 C 0.49372 0.32178 0.34935 0.0
C366 C 0.51538 0.26335 0.29606 0.0
C367 C 0.54288 0.30847 0.28903 0.0
H368 H 0.82583 0.45712 0.25943 0.0
H369 H 0.9397 0.53348 0.37065 0.0
H370 H 0.91374 0.58343 0.3955 0.0
H371 H 0.86092 0.60786 0.38175 0.0
H372 H 0.74691 0.53246 0.27027 0.0
H373 H 0.77048 0.47974 0.25005 0.0
C374 C 0.84495 0.48472 0.28907 0.0
C375 C 0.88478 0.49146 0.31299 0.0
C376 C 0.82976 0.51353 0.30332 0.0
C377 C 0.90879 0.52713 0.35201 0.0
C378 C 0.89405 0.5559 0.36608 0.0
C379 C 0.84085 0.57966 0.35356 0.0
C380 C 0.80219 0.57441 0.32745 0.0
C381 C 0.85481 0.54967 0.3416 0.0
C382 C 0.77675 0.53747 0.29113 0.0
C383 C 0.79036 0.50736 0.27922 0.0
H384 H 0.17423 0.64681 0.87432 0.0
H385 H 0.21138 0.64901 0.68786 0.0
H386 H 0.25237 0.72863 0.68993 0.0
H387 H 0.27457 0.79819 0.74333 0.0
H388 H 0.23371 0.79506 0.92794 0.0
H389 H 0.19846 0.71572 0.92853 0.0
C390 C 0.19173 0.66465 0.83432 0.0
C391 C 0.18949 0.64175 0.78095 0.0
C392 C 0.21493 0.71051 0.83566 0.0
C393 C 0.21195 0.66564 0.72933 0.0
C394 C 0.23568 0.71126 0.7306 0.0
C395 C 0.25876 0.78011 0.78403 0.0
C396 C 0.25712 0.80254 0.83573 0.0
C397 C 0.23708 0.73414 0.78333 0.0
C398 C 0.23562 0.7786 0.88768 0.0
C399 C 0.21522 0.73317 0.88795 0.0
H400 H 0.51863 0.88436 0.88056 0.0
H401 H 0.4899 0.85554 0.6902 0.0
H402 H 0.52729 0.81351 0.69086 0.0
H403 H 0.57248 0.78873 0.74429 0.0
H404 H 0.60448 0.82171 0.93299 0.0
H405 H 0.56058 0.85701 0.93475 0.0
C406 C 0.52002 0.8684 0.83937 0.0
C407 C 0.50159 0.87336 0.78536 0.0
C408 C 0.54198 0.84464 0.83994 0.0
C409 C 0.50431 0.85288 0.73224 0.0
C410 C 0.52547 0.82855 0.73267 0.0
C411 C 0.56886 0.80272 0.78607 0.0
C412 C 0.59127 0.8022 0.83865 0.0
C413 C 0.54492 0.82461 0.78608 0.0
C414 C 0.58727 0.82144 0.8921 0.0
C415 C 0.56242 0.8419 0.89301 0.0
H416 H 0.26409 0.49485 0.75358 0.0
H417 H 0.26818 0.44253 0.92856 0.0
H418 H 0.34745 0.48436 0.92833 0.0
H419 H 0.41592 0.53198 0.87587 0.0
H420 H 0.41276 0.58249 0.69909 0.0
H421 H 0.33339 0.54574 0.70287 0.0
C422 C 0.28234 0.49335 0.79218 0.0
C423 C 0.26006 0.46557 0.84108 0.0
C424 C 0.32831 0.51682 0.79113 0.0
C425 C 0.28436 0.46357 0.89031 0.0
C426 C 0.3298 0.48735 0.89011 0.0
C427 C 0.39793 0.53482 0.83795 0.0
C428 C 0.42058 0.55981 0.78706 0.0
C429 C 0.35217 0.51328 0.84018 0.0
C430 C 0.39646 0.56376 0.73905 0.0
C431 C 0.35093 0.54257 0.74106 0.0
H432 H 0.20555 0.28486 0.35765 0.0
H433 H 0.14863 0.1914 0.21187 0.0
H434 H 0.09382 0.21278 0.19576 0.0
H435 H 0.0577 0.25267 0.23008 0.0
H436 H 0.11139 0.342 0.38025 0.0
H437 H 0.17297 0.32914 0.38621 0.0
C438 C 0.18173 0.26976 0.32151 0.0
C439 C 0.18112 0.23629 0.28631 0.0
C440 C 0.15003 0.28194 0.31291 0.0
C441 C 0.14948 0.21668 0.24032 0.0
C442 C 0.11829 0.22911 0.23079 0.0
C443 C 0.08382 0.27047 0.2625 0.0
C444 C 0.08095 0.29916 0.30357 0.0
C445 C 0.11772 0.26107 0.26759 0.0
C446 C 0.11385 0.32081 0.34711 0.0
C447 C 0.14859 0.31289 0.35106 0.0
H448 H 0.12181 0.85199 0.32768 0.0
H449 H 0.07253 0.92908 0.24491 0.0
H450 H 0.14648 0.98915 0.23167 0.0
H451 H 0.2242 1.02233 0.2525 0.0
H452 H 0.27523 0.94705 0.33459 0.0
H453 H 0.20156 0.88294 0.33724 0.0
C454 C 0.12724 0.88158 0.30564 0.0
C455 C 0.09143 0.88622 0.28845 0.0
C456 C 0.17011 0.91617 0.29786 0.0
C457 C 0.09927 0.92496 0.26015 0.0
C458 C 0.14159 0.95926 0.2521 0.0
C459 C 0.21922 0.99153 0.26982 0.0
C460 C 0.25469 0.98914 0.29357 0.0
C461 C 0.17707 0.95559 0.27217 0.0
C462 C 0.24826 0.94932 0.31564 0.0
C463 C 0.20614 0.91296 0.31773 0.0
H464 H 0.81016 0.95119 0.28165 0.0
H465 H 0.84683 0.96073 0.47056 0.0
H466 H 0.8198 0.88282 0.47368 0.0
H467 H 0.79393 0.8139 0.4205 0.0
H468 H 0.75735 0.80204 0.23192 0.0
H469 H 0.77485 0.87846 0.23109 0.0
C470 C 0.8115 0.93602 0.32367 0.0
C471 C 0.83155 0.96206 0.37542 0.0
C472 C 0.79584 0.89078 0.3252 0.0
C473 C 0.83279 0.94179 0.42963 0.0
C474 C 0.81707 0.89714 0.43162 0.0
C475 C 0.78873 0.82782 0.37964 0.0
C476 C 0.77439 0.80268 0.32642 0.0
C477 C 0.79976 0.87163 0.37935 0.0
C478 C 0.76781 0.82078 0.27363 0.0
C479 C 0.77837 0.86458 0.27305 0.0
H480 H 0.27834 0.18493 0.76866 0.0
H481 H 0.22766 0.15091 0.9506 0.0
H482 H 0.25001 0.09681 0.95595 0.0
H483 H 0.27742 0.0546 0.90703 0.0
H484 H 0.32423 0.08236 0.72356 0.0
H485 H 0.31099 0.14415 0.72091 0.0
C486 C 0.27229 0.16564 0.80938 0.0
C487 C 0.25142 0.17221 0.85926 0.0
C488 C 0.28486 0.13376 0.81204 0.0
C489 C 0.2442 0.1472 0.91192 0.0
C490 C 0.25685 0.11604 0.91504 0.0
C491 C 0.2857 0.07479 0.8669 0.0
C492 C 0.30178 0.06416 0.8157 0.0
C493 C 0.27655 0.10868 0.86524 0.0
C494 C 0.31235 0.09041 0.76384 0.0
C495 C 0.30414 0.12524 0.76213 0.0
H496 H 0.94765 0.76777 0.82585 0.0
H497 H 0.99548 0.89096 0.73441 0.0
H498 H 0.92134 0.87653 0.72132 0.0
H499 H 0.8441 0.83292 0.74485 0.0
H500 H 0.79451 0.70973 0.83554 0.0
H501 H 0.86805 0.7193 0.838 0.0
C502 C 0.94185 0.79108 0.80198 0.0
C503 C 0.9774 0.83091 0.78229 0.0
C504 C 0.89884 0.78249 0.79432 0.0
C505 C 0.96903 0.86068 0.7516 0.0
C506 C 0.92657 0.85232 0.74364 0.0
C507 C 0.8493 0.80773 0.76404 0.0
C508 C 0.81426 0.77083 0.79032 0.0
C509 C 0.89144 0.81395 0.76623 0.0
C510 C 0.82107 0.73823 0.81468 0.0
C511 C 0.86316 0.74402 0.81666 0.0
H512 H 1.03418 0.21559 0.74537 0.0
H513 H 0.96032 0.27062 0.81892 0.0
H514 H 0.89437 0.19823 0.81793 0.0
H515 H 0.8609 0.11808 0.80852 0.0
H516 H 0.93757 0.06459 0.73855 0.0
H517 H 0.99911 0.13767 0.72473 0.0
C518 C 1.00335 0.2118 0.75995 0.0
C519 C 1.00186 0.24798 0.78263 0.0
C520 C 0.9663 0.17031 0.76042 0.0
C521 C 0.96196 0.2431 0.80096 0.0
C522 C 0.9245 0.20168 0.80098 0.0
C523 C 0.891 0.12248 0.78982 0.0
C524 C 0.89468 0.08575 0.77525 0.0
C525 C 0.92673 0.16482 0.7829 0.0
C526 C 0.93361 0.09208 0.74985 0.0
C527 C 0.96899 0.13391 0.74231 0.0
loop_
_geom_bond_atom_site_label_1
_geom_bond_atom_site_label_2
_geom_bond_distance
_geom_bond_site_symmetry_2
_ccdc_geom_bond_type
Sm0 C2 2.846 . S
Sm0 O20 2.543 . S
Sm0 O21 2.450 . S
Sm0 O22 2.681 . S
Sm0 O23 2.464 . S
Sm0 O24 2.396 . S
Sm0 O28 2.386 . S
Sm0 O31 2.408 . S
Sm1 C11 2.846 . S
Sm1 O22 2.386 . S
Sm1 O25 2.408 . S
Sm1 O26 2.543 . S
Sm1 O27 2.450 . S
Sm1 O28 2.681 . S
Sm1 O29 2.464 . S
Sm1 O30 2.396 . S
C2 Sm0 2.846 . S
C2 C3 1.506 . S
C2 O20 1.261 . S
C2 O21 1.242 . S
C3 C2 1.506 . S
C3 C4 1.358 . S
C3 C8 1.382 . S
C4 C3 1.358 . S
C4 C5 1.385 . S
C4 H32 0.930 . S
C5 C4 1.385 . S
C5 C6 1.395 . S
C5 H33 0.929 . S
C6 C5 1.395 . S
C6 C7 1.335 . S
C7 C6 1.335 . S
C7 C8 1.398 . S
C7 H34 0.930 . S
C8 C3 1.382 . S
C8 C7 1.398 . S
C8 H35 0.929 . S
C9 O22 1.271 . S
C9 O23 1.251 . S
C10 O24 1.252 . S
C10 O25 1.272 . S
C11 Sm1 2.846 . S
C11 C12 1.506 . S
C11 O26 1.261 . S
C11 O27 1.242 . S
C12 C11 1.506 . S
C12 C13 1.358 . S
C12 C17 1.382 . S
C13 C12 1.358 . S
C13 C14 1.385 . S
C13 H36 0.930 . S
C14 C13 1.385 . S
C14 C15 1.395 . S
C14 H37 0.929 . S
C15 C14 1.395 . S
C15 C16 1.335 . S
C16 C15 1.335 . S
C16 C17 1.398 . S
C16 H38 0.930 . S
C17 C12 1.382 . S
C17 C16 1.398 . S
C17 H39 0.929 . S
C18 O28 1.271 . S
C18 O29 1.251 . S
C19 O30 1.252 . S
C19 O31 1.272 . S
O20 Sm0 2.543 . S
O20 C2 1.261 . S
O21 Sm0 2.450 . S
O21 C2 1.242 . S
O22 Sm0 2.681 . S
O22 Sm1 2.386 . S
O22 C9 1.271 . S
O23 Sm0 2.464 . S
O23 C9 1.251 . S
O24 Sm0 2.396 . S
O24 C10 1.252 . S
O25 Sm1 2.408 . S
O25 C10 1.272 . S
O26 Sm1 2.543 . S
O26 C11 1.261 . S
O27 Sm1 2.450 . S
O27 C11 1.242 . S
O28 Sm0 2.386 . S
O28 Sm1 2.681 . S
O28 C18 1.271 . S
O29 Sm1 2.464 . S
O29 C18 1.251 . S
O30 Sm1 2.396 . S
O30 C19 1.252 . S
O31 Sm0 2.408 . S
O31 C19 1.272 . S
H32 C4 0.930 . S
H33 C5 0.929 . S
H34 C7 0.930 . S
H35 C8 0.929 . S
H36 C13 0.930 . S
H37 C14 0.929 . S
H38 C16 0.930 . S
H39 C17 0.929 . S
Sm40 C42 2.846 . S
Sm40 O60 2.543 . S
Sm40 O61 2.450 . S
Sm40 O62 2.681 . S
Sm40 O63 2.464 . S
Sm40 O64 2.396 . S
Sm40 O68 2.386 . S
Sm40 O71 2.408 . S
Sm41 C51 2.846 . S
Sm41 O62 2.386 . S
Sm41 O65 2.408 . S
Sm41 O66 2.543 . S
Sm41 O67 2.450 . S
Sm41 O68 2.681 . S
Sm41 O69 2.464 . S
Sm41 O70 2.396 . S
C42 Sm40 2.846 . S
C42 C43 1.506 . S
C42 O60 1.261 . S
C42 O61 1.242 . S
C43 C42 1.506 . S
C43 C44 1.358 . S
C43 C48 1.382 . S
C44 C43 1.358 . S
C44 C45 1.385 . S
C44 H72 0.930 . S
C45 C44 1.385 . S
C45 C46 1.395 . S
C45 H73 0.929 . S
C46 C45 1.395 . S
C46 C47 1.335 . S
C47 C46 1.335 . S
C47 C48 1.398 . S
C47 H74 0.930 . S
C48 C43 1.382 . S
C48 C47 1.398 . S
C48 H75 0.929 . S
C49 O62 1.271 . S
C49 O63 1.251 . S
C50 O64 1.252 . S
C50 O65 1.272 . S
C51 Sm41 2.846 . S
C51 C52 1.506 . S
C51 O66 1.261 . S
C51 O67 1.242 . S
C52 C51 1.506 . S
C52 C53 1.358 . S
C52 C57 1.382 . S
C53 C52 1.358 . S
C53 C54 1.385 . S
C53 H76 0.930 . S
C54 C53 1.385 . S
C54 C55 1.395 1_655 S
C54 H77 0.929 . S
C55 C54 1.395 1_455 S
C55 C56 1.335 . S
C56 C55 1.335 . S
C56 C57 1.398 1_455 S
C56 H78 0.930 . S
C57 C52 1.382 . S
C57 C56 1.398 1_655 S
C57 H79 0.929 . S
C58 O68 1.271 . S
C58 O69 1.251 . S
C59 O70 1.252 . S
C59 O71 1.272 . S
O60 Sm40 2.543 . S
O60 C42 1.261 . S
O61 Sm40 2.450 . S
O61 C42 1.242 . S
O62 Sm40 2.681 . S
O62 Sm41 2.386 . S
O62 C49 1.271 . S
O63 Sm40 2.464 . S
O63 C49 1.251 . S
O64 Sm40 2.396 . S
O64 C50 1.252 . S
O65 Sm41 2.408 . S
O65 C50 1.272 . S
O66 Sm41 2.543 . S
O66 C51 1.261 . S
O67 Sm41 2.450 . S
O67 C51 1.242 . S
O68 Sm40 2.386 . S
O68 Sm41 2.681 . S
O68 C58 1.271 . S
O69 Sm41 2.464 . S
O69 C58 1.251 . S
O70 Sm41 2.396 . S
O70 C59 1.252 . S
O71 Sm40 2.408 . S
O71 C59 1.272 . S
H72 C44 0.930 . S
H73 C45 0.929 . S
H74 C47 0.930 . S
H75 C48 0.929 . S
H76 C53 0.930 . S
H77 C54 0.929 . S
H78 C56 0.930 . S
H79 C57 0.929 . S
Sm80 C82 2.846 . S
Sm80 O100 2.543 . S
Sm80 O101 2.450 . S
Sm80 O102 2.681 . S
Sm80 O103 2.464 . S
Sm80 O104 2.396 . S
Sm80 O108 2.386 . S
Sm80 O111 2.408 . S
Sm81 C91 2.846 . S
Sm81 O102 2.386 . S
Sm81 O105 2.408 . S
Sm81 O106 2.543 . S
Sm81 O107 2.450 . S
Sm81 O108 2.681 . S
Sm81 O109 2.464 . S
Sm81 O110 2.396 . S
C82 Sm80 2.846 . S
C82 C83 1.506 . S
C82 O100 1.261 . S
C82 O101 1.242 . S
C83 C82 1.506 . S
C83 C84 1.358 . S
C83 C88 1.382 . S
C84 C83 1.358 . S
C84 C85 1.385 . S
C84 H112 0.930 . S
C85 C84 1.385 . S
C85 C86 1.395 . S
C85 H113 0.929 . S
C86 C85 1.395 . S
C86 C87 1.335 . S
C87 C86 1.335 . S
C87 C88 1.398 . S
C87 H114 0.930 . S
C88 C83 1.382 . S
C88 C87 1.398 . S
C88 H115 0.929 . S
C89 O102 1.271 . S
C89 O103 1.251 . S
C90 O104 1.252 . S
C90 O105 1.272 . S
C91 Sm81 2.846 . S
C91 C92 1.506 . S
C91 O106 1.261 . S
C91 O107 1.242 . S
C92 C91 1.506 . S
C92 C93 1.358 . S
C92 C97 1.382 . S
C93 C92 1.358 . S
C93 C94 1.385 . S
C93 H116 0.930 . S
C94 C93 1.385 . S
C94 C95 1.395 1_545 S
C94 H117 0.929 . S
C95 C94 1.395 1_565 S
C95 C96 1.335 . S
C96 C95 1.335 . S
C96 C97 1.398 1_565 S
C96 H118 0.930 . S
C97 C92 1.382 . S
C97 C96 1.398 1_545 S
C97 H119 0.929 . S
C98 O108 1.271 . S
C98 O109 1.251 . S
C99 O110 1.252 . S
C99 O111 1.272 . S
O100 Sm80 2.543 . S
O100 C82 1.261 . S
O101 Sm80 2.450 . S
O101 C82 1.242 . S
O102 Sm80 2.681 . S
O102 Sm81 2.386 . S
O102 C89 1.271 . S
O103 Sm80 2.464 . S
O103 C89 1.251 . S
O104 Sm80 2.396 . S
O104 C90 1.252 . S
O105 Sm81 2.408 . S
O105 C90 1.272 . S
O106 Sm81 2.543 . S
O106 C91 1.261 . S
O107 Sm81 2.450 . S
O107 C91 1.242 . S
O108 Sm80 2.386 . S
O108 Sm81 2.681 . S
O108 C98 1.271 . S
O109 Sm81 2.464 . S
O109 C98 1.251 . S
O110 Sm81 2.396 . S
O110 C99 1.252 . S
O111 Sm80 2.408 . S
O111 C99 1.272 . S
H112 C84 0.930 . S
H113 C85 0.929 . S
H114 C87 0.930 . S
H115 C88 0.929 . S
H116 C93 0.930 . S
H117 C94 0.929 . S
H118 C96 0.930 . S
H119 C97 0.929 . S
Sm120 C122 2.846 . S
Sm120 O140 2.543 . S
Sm120 O141 2.450 . S
Sm120 O142 2.681 . S
Sm120 O143 2.464 . S
Sm120 O144 2.396 . S
Sm120 O148 2.386 . S
Sm120 O151 2.408 . S
Sm121 C131 2.846 . S
Sm121 O142 2.386 . S
Sm121 O145 2.408 . S
Sm121 O146 2.543 . S
Sm121 O147 2.450 . S
Sm121 O148 2.681 . S
Sm121 O149 2.464 . S
Sm121 O150 2.396 . S
C122 Sm120 2.846 . S
C122 C123 1.506 . S
C122 O140 1.261 . S
C122 O141 1.242 . S
C123 C122 1.506 . S
C123 C124 1.358 . S
C123 C128 1.382 . S
C124 C123 1.358 . S
C124 C125 1.385 . S
C124 H152 0.930 . S
C125 C124 1.385 . S
C125 C126 1.395 . S
C125 H153 0.929 . S
C126 C125 1.395 . S
C126 C127 1.335 . S
C127 C126 1.335 . S
C127 C128 1.398 . S
C127 H154 0.930 . S
C128 C123 1.382 . S
C128 C127 1.398 . S
C128 H155 0.929 . S
C129 O142 1.271 . S
C129 O143 1.251 . S
C130 O144 1.252 . S
C130 O145 1.272 . S
C131 Sm121 2.846 . S
C131 C132 1.506 . S
C131 O146 1.261 . S
C131 O147 1.242 . S
C132 C131 1.506 . S
C132 C133 1.358 . S
C132 C137 1.382 . S
C133 C132 1.358 . S
C133 C134 1.385 . S
C133 H156 0.930 . S
C134 C133 1.385 . S
C134 C135 1.395 . S
C134 H157 0.929 . S
C135 C134 1.395 . S
C135 C136 1.335 . S
C136 C135 1.335 . S
C136 C137 1.398 . S
C136 H158 0.930 . S
C137 C132 1.382 . S
C137 C136 1.398 . S
C137 H159 0.929 . S
C138 O148 1.271 . S
C138 O149 1.251 . S
C139 O150 1.252 . S
C139 O151 1.272 . S
O140 Sm120 2.543 . S
O140 C122 1.261 . S
O141 Sm120 2.450 . S
O141 C122 1.242 . S
O142 Sm120 2.681 . S
O142 Sm121 2.386 . S
O142 C129 1.271 . S
O143 Sm120 2.464 . S
O143 C129 1.251 . S
O144 Sm120 2.396 . S
O144 C130 1.252 . S
O145 Sm121 2.408 . S
O145 C130 1.272 . S
O146 Sm121 2.543 . S
O146 C131 1.261 . S
O147 Sm121 2.450 . S
O147 C131 1.242 . S
O148 Sm120 2.386 . S
O148 Sm121 2.681 . S
O148 C138 1.271 . S
O149 Sm121 2.464 . S
O149 C138 1.251 . S
O150 Sm121 2.396 . S
O150 C139 1.252 . S
O151 Sm120 2.408 . S
O151 C139 1.272 . S
H152 C124 0.930 . S
H153 C125 0.929 . S
H154 C127 0.930 . S
H155 C128 0.929 . S
H156 C133 0.930 . S
H157 C134 0.929 . S
H158 C136 0.930 . S
H159 C137 0.929 . S
Sm160 C162 2.846 . S
Sm160 O180 2.543 . S
Sm160 O181 2.450 . S
Sm160 O182 2.681 . S
Sm160 O183 2.464 . S
Sm160 O184 2.396 . S
Sm160 O188 2.386 . S
Sm160 O191 2.408 . S
Sm161 C171 2.846 . S
Sm161 O182 2.386 . S
Sm161 O185 2.408 . S
Sm161 O186 2.543 . S
Sm161 O187 2.450 . S
Sm161 O188 2.681 . S
Sm161 O189 2.464 . S
Sm161 O190 2.396 . S
C162 Sm160 2.846 . S
C162 C163 1.506 . S
C162 O180 1.261 . S
C162 O181 1.242 . S
C163 C162 1.506 . S
C163 C164 1.358 . S
C163 C168 1.382 . S
C164 C163 1.358 . S
C164 C165 1.385 . S
C164 H192 0.930 . S
C165 C164 1.385 . S
C165 C166 1.395 1_455 S
C165 H193 0.929 . S
C166 C165 1.395 1_655 S
C166 C167 1.335 . S
C167 C166 1.335 . S
C167 C168 1.398 1_655 S
C167 H194 0.930 . S
C168 C163 1.382 . S
C168 C167 1.398 1_455 S
C168 H195 0.929 . S
C169 O182 1.271 . S
C169 O183 1.251 . S
C170 O184 1.252 . S
C170 O185 1.272 . S
C171 Sm161 2.846 . S
C171 C172 1.506 . S
C171 O186 1.261 . S
C171 O187 1.242 . S
C172 C171 1.506 . S
C172 C173 1.358 . S
C172 C177 1.382 . S
C173 C172 1.358 . S
C173 C174 1.385 . S
C173 H196 0.930 . S
C174 C173 1.385 . S
C174 C175 1.395 . S
C174 H197 0.929 . S
C175 C174 1.395 . S
C175 C176 1.335 . S
C176 C175 1.335 . S
C176 C177 1.398 . S
C176 H198 0.930 . S
C177 C172 1.382 . S
C177 C176 1.398 . S
C177 H199 0.929 . S
C178 O188 1.271 . S
C178 O189 1.251 . S
C179 O190 1.252 . S
C179 O191 1.272 . S
O180 Sm160 2.543 . S
O180 C162 1.261 . S
O181 Sm160 2.450 . S
O181 C162 1.242 . S
O182 Sm160 2.681 . S
O182 Sm161 2.386 . S
O182 C169 1.271 . S
O183 Sm160 2.464 . S
O183 C169 1.251 . S
O184 Sm160 2.396 . S
O184 C170 1.252 . S
O185 Sm161 2.408 . S
O185 C170 1.272 . S
O186 Sm161 2.543 . S
O186 C171 1.261 . S
O187 Sm161 2.450 . S
O187 C171 1.242 . S
O188 Sm160 2.386 . S
O188 Sm161 2.681 . S
O188 C178 1.271 . S
O189 Sm161 2.464 . S
O189 C178 1.251 . S
O190 Sm161 2.396 . S
O190 C179 1.252 . S
O191 Sm160 2.408 . S
O191 C179 1.272 . S
H192 C164 0.930 . S
H193 C165 0.929 . S
H194 C167 0.930 . S
H195 C168 0.929 . S
H196 C173 0.930 . S
H197 C174 0.929 . S
H198 C176 0.930 . S
H199 C177 0.929 . S
Sm200 C202 2.846 . S
Sm200 O220 2.543 . S
Sm200 O221 2.450 . S
Sm200 O222 2.681 . S
Sm200 O223 2.464 . S
Sm200 O224 2.396 . S
Sm200 O228 2.386 . S
Sm200 O231 2.408 . S
Sm201 C211 2.846 . S
Sm201 O222 2.386 . S
Sm201 O225 2.408 . S
Sm201 O226 2.543 . S
Sm201 O227 2.450 . S
Sm201 O228 2.681 . S
Sm201 O229 2.464 . S
Sm201 O230 2.396 . S
C202 Sm200 2.846 . S
C202 C203 1.506 . S
C202 O220 1.261 . S
C202 O221 1.242 . S
C203 C202 1.506 . S
C203 C204 1.358 . S
C203 C208 1.382 . S
C204 C203 1.358 . S
C204 C205 1.385 . S
C204 H232 0.930 . S
C205 C204 1.385 . S
C205 C206 1.395 1_565 S
C205 H233 0.929 . S
C206 C205 1.395 1_545 S
C206 C207 1.335 . S
C207 C206 1.335 . S
C207 C208 1.398 1_545 S
C207 H234 0.930 . S
C208 C203 1.382 . S
C208 C207 1.398 1_565 S
C208 H235 0.929 . S
C209 O222 1.271 . S
C209 O223 1.251 . S
C210 O224 1.252 . S
C210 O225 1.272 . S
C211 Sm201 2.846 . S
C211 C212 1.506 . S
C211 O226 1.261 . S
C211 O227 1.242 . S
C212 C211 1.506 . S
C212 C213 1.358 . S
C212 C217 1.382 . S
C213 C212 1.358 . S
C213 C214 1.385 . S
C213 H236 0.930 . S
C214 C213 1.385 . S
C214 C215 1.395 . S
C214 H237 0.929 . S
C215 C214 1.395 . S
C215 C216 1.335 . S
C216 C215 1.335 . S
C216 C217 1.398 . S
C216 H238 0.930 . S
C217 C212 1.382 . S
C217 C216 1.398 . S
C217 H239 0.929 . S
C218 O228 1.271 . S
C218 O229 1.251 . S
C219 O230 1.252 . S
C219 O231 1.272 . S
O220 Sm200 2.543 . S
O220 C202 1.261 . S
O221 Sm200 2.450 . S
O221 C202 1.242 . S
O222 Sm200 2.681 . S
O222 Sm201 2.386 . S
O222 C209 1.271 . S
O223 Sm200 2.464 . S
O223 C209 1.251 . S
O224 Sm200 2.396 . S
O224 C210 1.252 . S
O225 Sm201 2.408 . S
O225 C210 1.272 . S
O226 Sm201 2.543 . S
O226 C211 1.261 . S
O227 Sm201 2.450 . S
O227 C211 1.242 . S
O228 Sm200 2.386 . S
O228 Sm201 2.681 . S
O228 C218 1.271 . S
O229 Sm201 2.464 . S
O229 C218 1.251 . S
O230 Sm201 2.396 . S
O230 C219 1.252 . S
O231 Sm200 2.408 . S
O231 C219 1.272 . S
H232 C204 0.930 . S
H233 C205 0.929 . S
H234 C207 0.930 . S
H235 C208 0.929 . S
H236 C213 0.930 . S
H237 C214 0.929 . S
H238 C216 0.930 . S
H239 C217 0.929 . S
H240 C246 0.930 . S
H241 C249 0.930 . S
H242 C250 0.930 . S
H243 C251 0.930 . S
H244 C254 0.930 . S
H245 C255 0.930 . S
C246 H240 0.930 . S
C246 C247 1.355 . S
C246 C248 1.415 1_556 S
C247 C246 1.355 . S
C247 C249 1.419 . S
C248 C246 1.415 1_554 S
C248 C253 1.425 1_564 S
C248 C255 1.409 . S
C249 H241 0.930 . S
C249 C247 1.419 . S
C249 C250 1.362 1_565 S
C250 H242 0.930 . S
C250 C249 1.362 1_545 S
C250 C253 1.409 . S
C251 H243 0.930 . S
C251 C252 1.355 . S
C251 C253 1.415 1_554 S
C252 C251 1.355 . S
C252 C254 1.419 . S
C253 C248 1.425 1_546 S
C253 C250 1.409 . S
C253 C251 1.415 1_556 S
C254 H244 0.930 . S
C254 C252 1.419 . S
C254 C255 1.362 1_545 S
C255 H245 0.930 . S
C255 C248 1.409 . S
C255 C254 1.362 1_565 S
H256 C262 0.930 . S
H257 C265 0.930 . S
H258 C266 0.930 . S
H259 C267 0.930 . S
H260 C270 0.930 . S
H261 C271 0.930 . S
C262 H256 0.930 . S
C262 C263 1.355 . S
C262 C264 1.415 . S
C263 C262 1.355 . S
C263 C265 1.419 . S
C264 C262 1.415 . S
C264 C269 1.425 . S
C264 C271 1.409 . S
C265 H257 0.930 . S
C265 C263 1.419 . S
C265 C266 1.362 . S
C266 H258 0.930 . S
C266 C265 1.362 . S
C266 C269 1.409 . S
C267 H259 0.930 . S
C267 C268 1.355 . S
C267 C269 1.415 . S
C268 C267 1.355 . S
C268 C270 1.419 . S
C269 C264 1.425 . S
C269 C266 1.409 . S
C269 C267 1.415 . S
C270 H260 0.930 . S
C270 C268 1.419 . S
C270 C271 1.362 . S
C271 H261 0.930 . S
C271 C264 1.409 . S
C271 C270 1.362 . S
H272 C278 0.935 . S
H273 C281 0.930 . S
H274 C282 0.930 . S
H275 C283 0.935 . S
H276 C286 0.930 . S
H277 C287 0.930 . S
C278 H272 0.935 . S
C278 C279 1.355 . S
C278 C280 1.415 1_554 S
C279 C278 1.355 . S
C279 C281 1.419 . S
C280 C278 1.415 1_556 S
C280 C285 1.425 1_656 S
C280 C287 1.409 . S
C281 H273 0.930 . S
C281 C279 1.419 . S
C281 C282 1.362 1_655 S
C282 H274 0.930 . S
C282 C281 1.362 1_455 S
C282 C285 1.409 . S
C283 H275 0.935 . S
C283 C284 1.355 . S
C283 C285 1.415 1_556 S
C284 C283 1.355 . S
C284 C286 1.419 . S
C285 C280 1.425 1_454 S
C285 C282 1.409 . S
C285 C283 1.415 1_554 S
C286 H276 0.930 . S
C286 C284 1.419 . S
C286 C287 1.362 1_455 S
C287 H277 0.930 . S
C287 C280 1.409 . S
C287 C286 1.362 1_655 S
H288 C294 0.930 . S
H289 C297 0.930 . S
H290 C298 0.930 . S
H291 C299 0.930 . S
H292 C302 0.930 . S
H293 C303 0.930 . S
C294 H288 0.930 . S
C294 C295 1.355 . S
C294 C296 1.426 . S
C295 C294 1.355 . S
C295 C297 1.419 . S
C296 C294 1.426 . S
C296 C301 1.433 1_545 S
C296 C303 1.391 1_545 S
C297 H289 0.930 . S
C297 C295 1.419 . S
C297 C298 1.362 . S
C298 H290 0.930 . S
C298 C297 1.362 . S
C298 C301 1.409 1_545 S
C299 H291 0.930 . S
C299 C300 1.355 . S
C299 C301 1.415 . S
C300 C299 1.355 . S
C300 C302 1.419 . S
C301 C296 1.433 1_565 S
C301 C298 1.409 1_565 S
C301 C299 1.415 . S
C302 H292 0.930 . S
C302 C300 1.419 . S
C302 C303 1.362 . S
C303 H293 0.930 . S
C303 C296 1.391 1_565 S
C303 C302 1.362 . S
H304 C310 0.930 . S
H305 C313 0.930 . S
H306 C314 0.930 . S
H307 C315 0.930 . S
H308 C318 0.930 . S
H309 C319 0.930 . S
C310 H304 0.930 . S
C310 C311 1.355 . S
C310 C312 1.415 . S
C311 C310 1.355 . S
C311 C313 1.419 . S
C312 C310 1.415 . S
C312 C317 1.425 1_556 S
C312 C319 1.409 . S
C313 H305 0.930 . S
C313 C311 1.419 . S
C313 C314 1.362 1_556 S
C314 H306 0.930 . S
C314 C313 1.362 1_554 S
C314 C317 1.409 . S
C315 H307 0.930 . S
C315 C316 1.355 . S
C315 C317 1.415 . S
C316 C315 1.355 . S
C316 C318 1.419 . S
C317 C312 1.425 1_554 S
C317 C314 1.409 . S
C317 C315 1.415 . S
C318 H308 0.930 . S
C318 C316 1.419 . S
C318 C319 1.362 1_554 S
C319 H309 0.930 . S
C319 C312 1.409 . S
C319 C318 1.362 1_556 S
H320 C326 0.930 . S
H321 C329 0.930 . S
H322 C330 0.930 . S
H323 C331 0.930 . S
H324 C334 0.930 . S
H325 C335 0.930 . S
C326 H320 0.930 . S
C326 C327 1.355 . S
C326 C328 1.415 1_655 S
C327 C326 1.355 . S
C327 C329 1.419 . S
C328 C326 1.415 1_455 S
C328 C333 1.425 1_455 S
C328 C335 1.409 . S
C329 H321 0.930 . S
C329 C327 1.419 . S
C329 C330 1.362 . S
C330 H322 0.930 . S
C330 C329 1.362 . S
C330 C333 1.409 . S
C331 H323 0.930 . S
C331 C332 1.355 . S
C331 C333 1.415 1_455 S
C332 C331 1.355 . S
C332 C334 1.419 . S
C333 C328 1.425 1_655 S
C333 C330 1.409 . S
C333 C331 1.415 1_655 S
C334 H324 0.930 . S
C334 C332 1.419 . S
C334 C335 1.362 . S
C335 H325 0.930 . S
C335 C328 1.409 . S
C335 C334 1.362 . S
H336 C342 0.930 . S
H337 C345 0.930 . S
H338 C346 0.930 . S
H339 C347 0.930 . S
H340 C350 0.930 . S
H341 C351 0.930 . S
C342 H336 0.930 . S
C342 C343 1.355 . S
C342 C344 1.415 . S
C343 C342 1.355 . S
C343 C345 1.419 . S
C344 C342 1.415 . S
C344 C349 1.425 . S
C344 C351 1.409 . S
C345 H337 0.930 . S
C345 C343 1.419 . S
C345 C346 1.362 . S
C346 H338 0.930 . S
C346 C345 1.362 . S
C346 C349 1.409 . S
C347 H339 0.930 . S
C347 C348 1.355 . S
C347 C349 1.415 . S
C348 C347 1.355 . S
C348 C350 1.419 . S
C349 C344 1.425 . S
C349 C346 1.409 . S
C349 C347 1.415 . S
C350 H340 0.930 . S
C350 C348 1.419 . S
C350 C351 1.362 . S
C351 H341 0.930 . S
C351 C344 1.409 . S
C351 C350 1.362 . S
H352 C358 0.930 . S
H353 C361 0.930 . S
H354 C362 0.930 . S
H355 C363 0.930 . S
H356 C366 0.930 . S
H357 C367 0.930 . S
C358 H352 0.930 . S
C358 C359 1.355 . S
C358 C360 1.415 . S
C359 C358 1.355 . S
C359 C361 1.419 . S
C360 C358 1.415 . S
C360 C365 1.425 . S
C360 C367 1.409 . S
C361 H353 0.930 . S
C361 C359 1.419 . S
C361 C362 1.362 . S
C362 H354 0.930 . S
C362 C361 1.362 . S
C362 C365 1.409 . S
C363 H355 0.930 . S
C363 C364 1.355 . S
C363 C365 1.415 . S
C364 C363 1.355 . S
C364 C366 1.419 . S
C365 C360 1.425 . S
C365 C362 1.409 . S
C365 C363 1.415 . S
C366 H356 0.930 . S
C366 C364 1.419 . S
C366 C367 1.362 . S
C367 H357 0.930 . S
C367 C360 1.409 . S
C367 C366 1.362 . S
H368 C374 0.930 . S
H369 C377 0.930 . S
H370 C378 0.930 . S
H371 C379 0.930 . S
H372 C382 0.930 . S
H373 C383 0.930 . S
C374 H368 0.930 . S
C374 C375 1.355 . S
C374 C376 1.415 . S
C375 C374 1.355 . S
C375 C377 1.419 . S
C376 C374 1.415 . S
C376 C381 1.425 . S
C376 C383 1.409 . S
C377 H369 0.930 . S
C377 C375 1.419 . S
C377 C378 1.362 . S
C378 H370 0.930 . S
C378 C377 1.362 . S
C378 C381 1.409 . S
C379 H371 0.930 . S
C379 C380 1.355 . S
C379 C381 1.415 . S
C380 C379 1.355 . S
C380 C382 1.419 . S
C381 C376 1.425 . S
C381 C378 1.409 . S
C381 C379 1.415 . S
C382 H372 0.930 . S
C382 C380 1.419 . S
C382 C383 1.362 . S
C383 H373 0.930 . S
C383 C376 1.409 . S
C383 C382 1.362 . S
H384 C390 0.930 . S
H385 C393 0.930 . S
H386 C394 0.930 . S
H387 C395 0.930 . S
H388 C398 0.930 . S
H389 C399 0.930 . S
C390 H384 0.930 . S
C390 C391 1.355 . S
C390 C392 1.415 . S
C391 C390 1.355 . S
C391 C393 1.419 . S
C392 C390 1.415 . S
C392 C397 1.425 . S
C392 C399 1.409 . S
C393 H385 0.930 . S
C393 C391 1.419 . S
C393 C394 1.362 . S
C394 H386 0.930 . S
C394 C393 1.362 . S
C394 C397 1.409 . S
C395 H387 0.930 . S
C395 C396 1.355 . S
C395 C397 1.415 . S
C396 C395 1.355 . S
C396 C398 1.419 . S
C397 C392 1.425 . S
C397 C394 1.409 . S
C397 C395 1.415 . S
C398 H388 0.930 . S
C398 C396 1.419 . S
C398 C399 1.362 . S
C399 H389 0.930 . S
C399 C392 1.409 . S
C399 C398 1.362 . S
H400 C406 0.930 . S
H401 C409 0.930 . S
H402 C410 0.930 . S
H403 C411 0.930 . S
H404 C414 0.930 . S
H405 C415 0.930 . S
C406 H400 0.930 . S
C406 C407 1.355 . S
C406 C408 1.415 . S
C407 C406 1.355 . S
C407 C409 1.419 . S
C408 C406 1.415 . S
C408 C413 1.425 . S
C408 C415 1.409 . S
C409 H401 0.930 . S
C409 C407 1.419 . S
C409 C410 1.362 . S
C410 H402 0.930 . S
C410 C409 1.362 . S
C410 C413 1.409 . S
C411 H403 0.930 . S
C411 C412 1.355 . S
C411 C413 1.415 . S
C412 C411 1.355 . S
C412 C414 1.419 . S
C413 C408 1.425 . S
C413 C410 1.409 . S
C413 C411 1.415 . S
C414 H404 0.930 . S
C414 C412 1.419 . S
C414 C415 1.362 . S
C415 H405 0.930 . S
C415 C408 1.409 . S
C415 C414 1.362 . S
H416 C422 0.930 . S
H417 C425 0.930 . S
H418 C426 0.930 . S
H419 C427 0.930 . S
H420 C430 0.930 . S
H421 C431 0.930 . S
C422 H416 0.930 . S
C422 C423 1.355 . S
C422 C424 1.415 . S
C423 C422 1.355 . S
C423 C425 1.419 . S
C424 C422 1.415 . S
C424 C429 1.425 . S
C424 C431 1.409 . S
C425 H417 0.930 . S
C425 C423 1.419 . S
C425 C426 1.362 . S
C426 H418 0.930 . S
C426 C425 1.362 . S
C426 C429 1.409 . S
C427 H419 0.930 . S
C427 C428 1.355 . S
C427 C429 1.415 . S
C428 C427 1.355 . S
C428 C430 1.419 . S
C429 C424 1.425 . S
C429 C426 1.409 . S
C429 C427 1.415 . S
C430 H420 0.930 . S
C430 C428 1.419 . S
C430 C431 1.362 . S
C431 H421 0.930 . S
C431 C424 1.409 . S
C431 C430 1.362 . S
H432 C438 0.930 . S
H433 C441 0.930 1_655 S
H434 C442 0.930 . S
H435 C443 0.930 . S
H436 C446 0.930 . S
H437 C447 0.930 . S
C438 H432 0.930 . S
C438 C439 1.355 . S
C438 C440 1.415 . S
C439 C438 1.355 . S
C439 C441 1.419 . S
C440 C438 1.415 . S
C440 C445 1.425 . S
C440 C447 1.409 . S
C441 H433 0.930 1_455 S
C441 C439 1.419 . S
C441 C442 1.362 1_455 S
C442 H434 0.930 . S
C442 C441 1.362 1_655 S
C442 C445 1.409 1_655 S
C443 H435 0.930 . S
C443 C444 1.355 . S
C443 C445 1.415 1_655 S
C444 C443 1.355 . S
C444 C446 1.419 1_655 S
C445 C440 1.425 . S
C445 C442 1.409 1_455 S
C445 C443 1.415 1_455 S
C446 H436 0.930 . S
C446 C444 1.419 1_455 S
C446 C447 1.362 . S
C447 H437 0.930 . S
C447 C440 1.409 . S
C447 C446 1.362 . S
H448 C454 0.930 1_545 S
H449 C457 0.930 . S
H450 C458 0.930 . S
H451 C459 0.930 . S
H452 C462 0.930 . S
H453 C463 0.930 . S
C454 H448 0.930 1_565 S
C454 C455 1.355 . S
C454 C456 1.415 . S
C455 C454 1.355 . S
C455 C457 1.419 . S
C456 C454 1.415 . S
C456 C461 1.425 . S
C456 C463 1.409 1_565 S
C457 H449 0.930 . S
C457 C455 1.419 . S
C457 C458 1.362 . S
C458 H450 0.930 . S
C458 C457 1.362 . S
C458 C461 1.409 . S
C459 H451 0.930 . S
C459 C460 1.355 1_565 S
C459 C461 1.415 . S
C460 C459 1.355 1_545 S
C460 C462 1.419 . S
C461 C456 1.425 . S
C461 C458 1.409 . S
C461 C459 1.415 . S
C462 H452 0.930 . S
C462 C460 1.419 . S
C462 C463 1.362 . S
C463 H453 0.930 . S
C463 C456 1.409 1_545 S
C463 C462 1.362 . S
H464 C470 0.930 . S
H465 C473 0.930 . S
H466 C474 0.930 . S
H467 C475 0.930 . S
H468 C478 0.930 . S
H469 C479 0.930 . S
C470 H464 0.930 . S
C470 C471 1.355 . S
C470 C472 1.415 . S
C471 C470 1.355 . S
C471 C473 1.419 . S
C472 C470 1.415 . S
C472 C477 1.425 . S
C472 C479 1.409 . S
C473 H465 0.930 . S
C473 C471 1.419 . S
C473 C474 1.362 . S
C474 H466 0.930 . S
C474 C473 1.362 . S
C474 C477 1.409 . S
C475 H467 0.930 . S
C475 C476 1.355 . S
C475 C477 1.415 . S
C476 C475 1.355 . S
C476 C478 1.419 . S
C477 C472 1.425 . S
C477 C474 1.409 . S
C477 C475 1.415 . S
C478 H468 0.930 . S
C478 C476 1.419 . S
C478 C479 1.362 . S
C479 H469 0.930 . S
C479 C472 1.409 . S
C479 C478 1.362 . S
H480 C486 0.930 . S
H481 C489 0.930 1_565 S
H482 C490 0.930 . S
H483 C491 0.930 . S
H484 C494 0.930 . S
H485 C495 0.930 . S
C486 H480 0.930 . S
C486 C487 1.355 . S
C486 C488 1.415 . S
C487 C486 1.355 . S
C487 C489 1.419 . S
C488 C486 1.415 . S
C488 C493 1.425 . S
C488 C495 1.409 . S
C489 H481 0.930 1_545 S
C489 C487 1.419 . S
C489 C490 1.362 1_545 S
C490 H482 0.930 . S
C490 C489 1.362 1_565 S
C490 C493 1.409 1_565 S
C491 H483 0.930 . S
C491 C492 1.355 . S
C491 C493 1.415 1_565 S
C492 C491 1.355 . S
C492 C494 1.419 1_565 S
C493 C488 1.425 . S
C493 C490 1.409 1_545 S
C493 C491 1.415 1_545 S
C494 H484 0.930 . S
C494 C492 1.419 1_545 S
C494 C495 1.362 . S
C495 H485 0.930 . S
C495 C488 1.409 . S
C495 C494 1.362 . S
H496 C502 0.930 . S
H497 C505 0.930 . S
H498 C506 0.930 . S
H499 C507 0.930 . S
H500 C510 0.930 . S
H501 C511 0.930 . S
C502 H496 0.930 . S
C502 C503 1.355 . S
C502 C504 1.415 . S
C503 C502 1.355 . S
C503 C505 1.419 . S
C504 C502 1.415 . S
C504 C509 1.425 . S
C504 C511 1.409 . S
C505 H497 0.930 . S
C505 C503 1.419 . S
C505 C506 1.362 . S
C506 H498 0.930 . S
C506 C505 1.362 . S
C506 C509 1.409 . S
C507 H499 0.930 . S
C507 C508 1.355 . S
C507 C509 1.415 . S
C508 C507 1.355 . S
C508 C510 1.419 . S
C509 C504 1.425 . S
C509 C506 1.409 . S
C509 C507 1.415 . S
C510 H500 0.930 . S
C510 C508 1.419 . S
C510 C511 1.362 . S
C511 H501 0.930 . S
C511 C504 1.409 . S
C511 C510 1.362 . S
H512 C518 0.930 . S
H513 C521 0.930 . S
H514 C522 0.930 . S
H515 C523 0.930 . S
H516 C526 0.930 . S
H517 C527 0.930 1_455 S
C518 H512 0.930 . S
C518 C519 1.355 . S
C518 C520 1.415 1_455 S
C519 C518 1.355 . S
C519 C521 1.419 1_455 S
C520 C518 1.415 1_655 S
C520 C525 1.425 . S
C520 C527 1.409 . S
C521 H513 0.930 . S
C521 C519 1.419 1_655 S
C521 C522 1.362 . S
C522 H514 0.930 . S
C522 C521 1.362 . S
C522 C525 1.409 . S
C523 H515 0.930 . S
C523 C524 1.355 . S
C523 C525 1.415 . S
C524 C523 1.355 . S
C524 C526 1.419 . S
C525 C520 1.425 . S
C525 C522 1.409 . S
C525 C523 1.415 . S
C526 H516 0.930 . S
C526 C524 1.419 . S
C526 C527 1.362 . S
C527 H517 0.930 1_655 S
C527 C520 1.409 . S
C527 C526 1.362 . S
C247 C178 2.279 . S
C252 C18 2.505 . S
C263 C209 2.559 . S
C268 C49 2.357 . S
C279 C98 2.505 . S
C284 C138 2.279 . S
C295 C9 2.337 . S
C300 C169 2.550 . S
C311 C218 2.357 . S
C316 C58 2.554 . S
C327 C89 2.358 . S
C332 C129 2.559 . S
C343 C6 1.899 . S
C348 C90 1.812 . S
C359 C46 1.928 . S
C364 C10 1.869 . S
C375 C86 1.927 . S
C380 C50 1.872 . S
C391 C135 1.896 . S
C396 C179 1.809 . S
C407 C175 1.887 . S
C412 C219 1.805 . S
C423 C139 1.825 . S
C428 C215 1.909 . S
C439 C15 1.349 . S
C444 C99 1.376 . S
C455 C55 1.243 . S
C460 C19 1.323 . S
C471 C95 1.245 . S
C476 C59 1.313 . S
C487 C126 1.342 . S
C492 C170 1.388 . S
C503 C166 1.250 . S
C508 C210 1.312 . S
C519 C130 1.385 . S
C524 C206 1.329 . S
