# Generated by pormake.
# Topology twt, (3)-cn, num edge types: 1
# Building blocks:
#     Node 0, Type 0, BuildingBlock: WUSLED_clean_sbu_0, # of connection points: 3
#     Node 1, Type 0, BuildingBlock: WUSLED_clean_sbu_0, # of connection points: 3
#     Node 2, Type 0, BuildingBlock: WUSLED_clean_sbu_0, # of connection points: 3
#     Node 3, Type 0, BuildingBlock: WUSLED_clean_sbu_0, # of connection points: 3
#     Node 4, Type 0, BuildingBlock: WUSLED_clean_sbu_0, # of connection points: 3
#     Node 5, Type 0, BuildingBlock: WUSLED_clean_sbu_0, # of connection points: 3
#     Edge 6, Type (0, 0), BuildingBlock: XIVTED_clean_linker_0, # of connection points: 2
#     Edge 7, Type (0, 0), BuildingBlock: XIVTED_clean_linker_0, # of connection points: 2
#     Edge 8, Type (0, 0), BuildingBlock: XIVTED_clean_linker_0, # of connection points: 2
#     Edge 9, Type (0, 0), BuildingBlock: XIVTED_clean_linker_0, # of connection points: 2
#     Edge 10, Type (0, 0), BuildingBlock: XIVTED_clean_linker_0, # of connection points: 2
#     Edge 11, Type (0, 0), BuildingBlock: XIVTED_clean_linker_0, # of connection points: 2
#     Edge 12, Type (0, 0), BuildingBlock: XIVTED_clean_linker_0, # of connection points: 2
#     Edge 13, Type (0, 0), BuildingBlock: XIVTED_clean_linker_0, # of connection points: 2
#     Edge 14, Type (0, 0), BuildingBlock: XIVTED_clean_linker_0, # of connection points: 2
# Relax obj value: 0.000
# Max RMSD: 0.004
# Mean RMSD: 0.004
data_MOF--net-twt--node1-WUSLED_clean_sbu_0--edge1-XIVTED_clean_linker_0
_symmetry_space_group_name_H-M    P1
_symmetry_Int_Tables_number       1
_symmetry_cell_setting            triclinic
loop_
_symmetry_equiv_pos_as_xyz
'x, y, z'
_cell_length_a     67.314585
_cell_length_b     67.44931
_cell_length_c     17.653603
_cell_angle_alpha  90.137084
_cell_angle_beta   89.987238
_cell_angle_gamma 119.59465
loop_
_atom_site_label
_atom_site_type_symbol
_atom_site_fract_x
_atom_site_fract_y
_atom_site_fract_z
_atom_type_partial_charge
C0 C 0.64588 0.28571 0.31558 0.0
C1 C 0.66754 0.30266 0.34003 0.0
C2 C 0.65313 0.32924 0.35891 0.0
C3 C 0.67112 0.32422 0.3616 0.0
C4 C 0.63151 0.31212 0.33405 0.0
C5 C 0.62795 0.29061 0.31266 0.0
U6 U 0.66548 0.24203 0.27279 0.0
O7 O 0.64906 0.20563 0.303 0.0
O8 O 0.65392 0.21582 0.18356 0.0
C9 C 0.64501 0.19885 0.23203 0.0
C10 C 0.64153 0.26281 0.2935 0.0
C11 C 0.62167 0.18037 0.21486 0.0
C12 C 0.582 0.16693 0.18054 0.0
C13 C 0.60384 0.18485 0.19876 0.0
C14 C 0.59553 0.1399 0.19536 0.0
C15 C 0.57757 0.1442 0.17843 0.0
C16 C 0.61731 0.15779 0.21331 0.0
C17 C 0.72953 0.26041 0.28837 0.0
C18 C 0.74552 0.23497 0.28908 0.0
C19 C 0.77062 0.27579 0.28061 0.0
C20 C 0.75167 0.27906 0.28265 0.0
C21 C 0.76786 0.25371 0.2844 0.0
C22 C 0.72653 0.23829 0.29102 0.0
C23 C 0.71002 0.2646 0.29292 0.0
O24 O 0.64963 0.26133 0.22726 0.0
O25 O 0.64482 0.25111 0.34662 0.0
O26 O 0.69534 0.25417 0.34787 0.0
O27 O 0.70015 0.26425 0.22832 0.0
H28 H 0.68163 0.29921 0.34245 0.0
H29 H 0.68806 0.33704 0.37955 0.0
H30 H 0.61717 0.31518 0.33225 0.0
H31 H 0.6111 0.27772 0.29417 0.0
H32 H 0.56854 0.17087 0.16873 0.0
H33 H 0.60685 0.20217 0.19996 0.0
H34 H 0.59289 0.12272 0.19329 0.0
H35 H 0.63087 0.154 0.22535 0.0
H36 H 0.74272 0.21776 0.2928 0.0
H37 H 0.78746 0.2906 0.27554 0.0
H38 H 0.75433 0.29626 0.28014 0.0
H39 H 0.70954 0.22364 0.29537 0.0
C40 C 0.60335 0.55464 0.64504 0.0
C41 C 0.60604 0.57064 0.70102 0.0
C42 C 0.56635 0.56145 0.68447 0.0
C43 C 0.58769 0.57394 0.72073 0.0
C44 C 0.56391 0.54569 0.62778 0.0
C45 C 0.58218 0.54231 0.60849 0.0
U46 U 0.66658 0.57251 0.60763 0.0
O47 O 0.68566 0.55501 0.63968 0.0
O48 O 0.68118 0.56034 0.51978 0.0
C49 C 0.68861 0.55089 0.56898 0.0
C50 C 0.62197 0.54991 0.62519 0.0
C51 C 0.68345 0.52739 0.55166 0.0
C52 C 0.6573 0.48843 0.51153 0.0
C53 C 0.66143 0.51036 0.53051 0.0
C54 C 0.69702 0.50024 0.53588 0.0
C55 C 0.67508 0.4831 0.51369 0.0
C56 C 0.70112 0.52212 0.55458 0.0
C57 C 0.71304 0.63598 0.62368 0.0
C58 C 0.75387 0.6522 0.64611 0.0
C59 C 0.73931 0.67593 0.596 0.0
C60 C 0.71712 0.65729 0.59762 0.0
C61 C 0.75799 0.6737 0.62072 0.0
C62 C 0.73163 0.6335 0.64735 0.0
C63 C 0.68924 0.61697 0.6276 0.0
O64 O 0.6319 0.55769 0.55939 0.0
O65 O 0.63648 0.55257 0.67946 0.0
O66 O 0.68437 0.60225 0.68292 0.0
O67 O 0.67979 0.60728 0.56279 0.0
H68 H 0.62225 0.58048 0.72984 0.0
H69 H 0.59026 0.58641 0.76395 0.0
H70 H 0.54769 0.53558 0.59931 0.0
H71 H 0.57969 0.52982 0.56538 0.0
H72 H 0.64015 0.47561 0.49564 0.0
H73 H 0.64751 0.51407 0.52818 0.0
H74 H 0.71119 0.49692 0.53723 0.0
H75 H 0.71825 0.53505 0.57052 0.0
H76 H 0.76786 0.64979 0.66464 0.0
H77 H 0.74175 0.69224 0.57699 0.0
H78 H 0.70303 0.65961 0.57932 0.0
H79 H 0.72895 0.61719 0.6673 0.0
C80 C 0.2906 0.50761 0.98499 0.0
C81 C 0.27314 0.51205 0.00718 0.0
C82 C 0.24734 0.47137 0.02834 0.0
C83 C 0.25171 0.49409 0.02876 0.0
C84 C 0.26501 0.46716 0.00615 0.0
C85 C 0.28637 0.48508 0.98472 0.0
U86 U 0.33402 0.5705 0.94198 0.0
O87 O 0.37079 0.58991 0.96752 0.0
O88 O 0.35917 0.58467 0.84931 0.0
C89 C 0.37671 0.59235 0.89569 0.0
C90 C 0.31327 0.52606 0.96167 0.0
C91 C 0.39502 0.58733 0.87435 0.0
C92 C 0.41659 0.56746 0.89313 0.0
C93 C 0.39842 0.57105 0.91299 0.0
C94 C 0.42788 0.596 0.79493 0.0
C95 C 0.43159 0.57994 0.83392 0.0
C96 C 0.40984 0.59966 0.81505 0.0
C97 C 0.31664 0.61685 0.96298 0.0
C98 C 0.34234 0.65782 0.9719 0.0
C99 C 0.30206 0.64321 0.94793 0.0
C100 C 0.29843 0.62092 0.94984 0.0
C101 C 0.32404 0.66197 0.95935 0.0
C102 C 0.33869 0.63547 0.97345 0.0
C103 C 0.31205 0.59308 0.96695 0.0
O104 O 0.31408 0.53568 0.89624 0.0
O105 O 0.32547 0.54085 0.01457 0.0
O106 O 0.32292 0.58858 0.02013 0.0
O107 O 0.31141 0.5833 0.90183 0.0
H108 H 0.27608 0.52935 0.00754 0.0
H109 H 0.23847 0.49798 0.04471 0.0
H110 H 0.26246 0.45 0.00624 0.0
H111 H 0.29966 0.48133 0.968 0.0
H112 H 0.41878 0.55477 0.92375 0.0
H113 H 0.38715 0.56121 0.95874 0.0
H114 H 0.43922 0.60613 0.74976 0.0
H115 H 0.4076 0.61236 0.78468 0.0
H116 H 0.35953 0.67185 0.97997 0.0
H117 H 0.28753 0.6457 0.93907 0.0
H118 H 0.28127 0.60679 0.94177 0.0
H119 H 0.35305 0.63274 0.98321 0.0
C120 C 1.0263 0.19746 0.31621 0.0
C121 C 1.00447 0.18034 0.33825 0.0
C122 C 1.01893 0.15392 0.35914 0.0
C123 C 1.00082 0.15878 0.3596 0.0
C124 C 0.04075 0.17122 0.33676 0.0
C125 C 0.04436 0.19273 0.31556 0.0
U126 U 1.00673 0.24111 0.27374 0.0
O127 O 1.02319 0.27757 0.30393 0.0
O128 O 1.01816 0.26717 0.1845 0.0
C129 C 1.02713 0.28422 0.23294 0.0
C130 C 0.03069 0.22035 0.29419 0.0
C131 C 0.05041 0.30274 0.21555 0.0
C132 C 0.0899 0.31624 0.17881 0.0
C133 C 0.06814 0.29829 0.19739 0.0
C134 C 0.0765 0.34326 0.19749 0.0
C135 C 0.09435 0.33898 0.1784 0.0
C136 C 0.0548 0.32533 0.21579 0.0
C137 C 0.94282 0.22294 0.28965 0.0
C138 C 0.92734 0.24862 0.27655 0.0
C139 C 0.90176 0.20811 0.29239 0.0
C140 C 0.92054 0.20456 0.29578 0.0
C141 C 0.90488 0.23019 0.28282 0.0
C142 C 0.94615 0.24502 0.27979 0.0
C143 C 0.96222 0.2186 0.29428 0.0
O144 O 1.02252 0.22174 0.22802 0.0
O145 O 1.02747 0.23214 0.34739 0.0
O146 O 0.97696 0.22916 0.34909 0.0
O147 O 0.97201 0.21882 0.22965 0.0
H148 H 0.99028 0.18367 0.33891 0.0
H149 H 0.98375 0.14583 0.37561 0.0
H150 H 0.05517 0.16828 0.33675 0.0
H151 H 0.06135 0.20575 0.29895 0.0
H152 H 0.10328 0.31232 0.16533 0.0
H153 H 0.06512 0.28095 0.1972 0.0
H154 H 0.07914 0.36045 0.19678 0.0
H155 H 0.04132 0.32911 0.22944 0.0
H156 H 0.93039 0.2658 0.26831 0.0
H157 H 0.8848 0.19356 0.29859 0.0
H158 H 0.91764 0.1874 0.30365 0.0
H159 H 0.96326 0.25943 0.27468 0.0
C160 C 0.06985 0.93183 0.65506 0.0
C161 C 0.06548 0.91063 0.68338 0.0
C162 C 0.10642 0.92501 0.69972 0.0
C163 C 0.0836 0.90724 0.70547 0.0
C164 C 0.11059 0.94615 0.67068 0.0
C165 C 0.0925 0.9495 0.64866 0.0
U166 U 1.00653 0.91238 0.6156 0.0
O167 O 0.9869 0.92957 0.64429 0.0
O168 O 0.99138 0.92315 0.52538 0.0
C169 C 0.98377 0.93288 0.57298 0.0
C170 C 0.05116 0.93605 0.63265 0.0
C171 C 0.98864 0.95611 0.55332 0.0
C172 C 1.01475 0.99517 0.51473 0.0
C173 C 1.01077 0.97338 0.5347 0.0
C174 C 0.97462 0.9827 0.53271 0.0
C175 C 0.9967 1.00011 0.51338 0.0
C176 C 0.97067 0.96097 0.5524 0.0
C177 C 0.96116 0.84899 0.64027 0.0
C178 C 0.92085 0.83251 0.60873 0.0
C179 C 0.93456 0.80919 0.668 0.0
C180 C 0.95671 0.82787 0.6692 0.0
C181 C 0.91629 0.81121 0.63779 0.0
C182 C 0.94309 0.85125 0.61007 0.0
C183 C 0.98477 0.86824 0.64191 0.0
O184 O 0.04118 0.92714 0.56766 0.0
O185 O 0.03662 0.93366 0.68635 0.0
O186 O 0.98935 0.88363 0.69488 0.0
O187 O 0.99377 0.87717 0.57596 0.0
H188 H 0.04807 0.89678 0.68882 0.0
H189 H 0.07971 0.89082 0.72824 0.0
H190 H 0.12789 0.9601 0.66416 0.0
H191 H 0.09621 0.96596 0.62663 0.0
H192 H 0.03201 1.0082 0.50107 0.0
H193 H 1.02491 0.96999 0.53543 0.0
H194 H 0.96026 0.98573 0.5313 0.0
H195 H 0.95346 0.94785 0.56641 0.0
H196 H 0.9072 0.83479 0.58579 0.0
H197 H 0.93184 0.79303 0.68977 0.0
H198 H 0.97046 0.82577 0.6925 0.0
H199 H 0.94619 0.86746 0.58762 0.0
C200 C 0.38015 0.97569 0.99162 0.0
C201 C 0.39777 0.9713 0.01182 0.0
C202 C 0.4237 1.01199 0.03266 0.0
C203 C 0.41935 0.98928 0.03222 0.0
C204 C 0.40588 1.01618 0.01228 0.0
C205 C 0.38437 0.99822 0.992 0.0
U206 U 0.33659 0.91257 0.95366 0.0
O207 O 0.30011 0.89314 0.98417 0.0
O208 O 0.31037 0.89736 0.86472 0.0
C209 C 0.29335 0.88985 0.91316 0.0
C210 C 0.35725 0.95714 0.97039 0.0
C211 C 0.27463 0.89444 0.89428 0.0
C212 C 0.26069 0.9194 0.84863 0.0
C213 C 0.27889 0.9159 0.86889 0.0
C214 C 0.23384 0.88016 0.88018 0.0
C215 C 0.23791 0.9015 0.85344 0.0
C216 C 0.252 0.8767 0.90025 0.0
C217 C 0.35489 0.86699 0.97568 0.0
C218 C 0.32966 0.82632 0.95581 0.0
C219 C 0.36915 0.84042 0.99126 0.0
C220 C 0.37274 0.86269 0.99256 0.0
C221 C 0.34754 0.82188 0.97308 0.0
C222 C 0.3333 0.84868 0.95716 0.0
C223 C 0.35926 0.89066 0.97791 0.0
O224 O 0.35585 0.94705 0.90524 0.0
O225 O 0.34557 0.94273 0.02458 0.0
O226 O 0.34873 0.8954 0.03168 0.0
O227 O 0.35894 0.89964 0.91225 0.0
H228 H 0.39483 0.95399 0.01171 0.0
H229 H 0.43269 0.98541 0.04672 0.0
H230 H 0.40842 0.03333 0.01306 0.0
H231 H 0.37095 1.00193 0.97686 0.0
H232 H 0.26452 0.93599 0.82771 0.0
H233 H 0.29626 0.92985 0.86394 0.0
H234 H 0.21658 0.8661 0.88608 0.0
H235 H 0.24835 0.86004 0.92007 0.0
H236 H 0.31275 0.81249 0.94233 0.0
H237 H 0.38343 0.83777 0.00362 0.0
H238 H 0.38956 0.87662 0.00669 0.0
H239 H 0.31928 0.85168 0.94405 0.0
H240 H 0.6788 0.35631 0.47769 0.0
H241 H 0.64851 0.4555 0.39737 0.0
H242 H 0.63567 0.35444 0.29377 0.0
H243 H 0.69244 0.45788 0.57938 0.0
H244 H 0.64301 0.41818 0.36018 0.0
H245 H 0.68396 0.39344 0.51587 0.0
C246 C 0.67053 0.36374 0.44493 0.0
C247 C 0.65675 0.35211 0.38231 0.0
C248 C 0.65384 0.42684 0.40832 0.0
C249 C 0.66238 0.39467 0.4265 0.0
C250 C 0.65686 0.44813 0.42998 0.0
C251 C 0.671 0.45998 0.49168 0.0
C252 C 0.66497 0.41718 0.4486 0.0
C253 C 0.68164 0.4496 0.53084 0.0
C254 C 0.67336 0.38491 0.46714 0.0
C255 C 0.64618 0.36253 0.34301 0.0
N256 N 0.67842 0.42887 0.50868 0.0
N257 N 0.64922 0.38315 0.36569 0.0
H258 H 0.53482 0.56352 0.59094 0.0
H259 H 0.46077 0.57413 0.92865 0.0
H260 H 0.55274 0.56643 0.82695 0.0
H261 H 0.4473 0.5781 0.69184 0.0
H262 H 0.4935 0.56964 0.89306 0.0
H263 H 0.50192 0.56747 0.62727 0.0
C264 C 0.53181 0.56491 0.65048 0.0
C265 C 0.54662 0.56459 0.70592 0.0
C266 C 0.48338 0.57149 0.84888 0.0
C267 C 0.50886 0.56924 0.74808 0.0
C268 C 0.46457 0.57389 0.86915 0.0
C269 C 0.45121 0.57654 0.81322 0.0
C270 C 0.48888 0.57159 0.772 0.0
C271 C 0.45723 0.57641 0.73702 0.0
C272 C 0.51305 0.56728 0.67119 0.0
C273 C 0.54197 0.56682 0.78215 0.0
N274 N 0.47554 0.57396 0.71875 0.0
N275 N 0.52349 0.56896 0.80095 0.0
H276 H 0.21908 0.47006 0.1435 0.0
H277 H 0.1232 0.34006 0.06599 0.0
H278 H 0.22348 0.42857 0.96496 0.0
H279 H 0.11797 0.38184 0.24172 0.0
H280 H 0.16028 0.37205 0.02992 0.0
H281 H 0.18211 0.43801 0.18047 0.0
C282 C 0.21224 0.45429 0.11167 0.0
C283 C 0.22455 0.45211 0.05097 0.0
C284 C 0.15104 0.37423 0.07643 0.0
C285 C 0.18219 0.41511 0.09378 0.0
C286 C 0.12989 0.35588 0.09746 0.0
C287 C 0.11732 0.35817 0.15706 0.0
C288 C 0.15983 0.39512 0.11524 0.0
C289 C 0.12682 0.3793 0.19478 0.0
C290 C 0.19116 0.43592 0.13319 0.0
C291 C 0.21487 0.43104 0.01279 0.0
N292 N 0.14744 0.39689 0.17329 0.0
N293 N 0.19434 0.41343 0.03478 0.0
H294 H 1.02447 0.02822 0.40046 0.0
H295 H 0.99212 0.12634 0.47476 0.0
H296 H 0.978 0.02467 0.5753 0.0
H297 H 0.03736 0.12917 0.29656 0.0
H298 H 0.98682 0.08918 0.51257 0.0
H299 H 1.03 0.06552 0.36326 0.0
C300 C 1.01555 0.03532 0.43147 0.0
C301 C 1.00071 0.02316 0.49116 0.0
C302 C 0.99791 0.09793 0.46516 0.0
C303 C 1.00679 0.06592 0.44811 0.0
C304 C 1.00083 0.11912 0.44316 0.0
C305 C 1.01524 0.13103 0.38227 0.0
C306 C 1.00943 0.08843 0.42608 0.0
C307 C 1.02634 0.12086 0.34447 0.0
C308 C 1.0186 0.05659 0.40982 0.0
C309 C 0.98936 0.03319 0.52831 0.0
N310 N 1.02321 0.10022 0.36693 0.0
N311 N 0.99264 0.05391 0.50623 0.0
H312 H 0.14576 0.95515 0.77471 0.0
H313 H 0.19872 0.87161 0.77731 0.0
H314 H 0.11152 0.88722 0.68015 0.0
H315 H 0.23252 0.93906 0.87566 0.0
H316 H 0.16672 0.87705 0.74147 0.0
H317 H 0.17773 0.9497 0.81122 0.0
C318 C 0.14497 0.93911 0.76122 0.0
C319 C 0.12584 0.92165 0.72391 0.0
C320 C 0.18112 0.89067 0.7709 0.0
C321 C 0.16249 0.9152 0.76654 0.0
C322 C 0.1994 0.88754 0.79187 0.0
C323 C 0.21843 0.90486 0.83004 0.0
C324 C 0.18173 0.91132 0.78798 0.0
C325 C 0.2184 0.9253 0.84571 0.0
C326 C 0.16323 0.93596 0.78254 0.0
C327 C 0.12572 0.90109 0.70944 0.0
N328 N 0.20037 0.92793 0.82478 0.0
N329 N 0.14374 0.89847 0.73058 0.0
H330 H 0.45262 1.01324 0.1453 0.0
H331 H 0.54805 0.14332 0.06888 0.0
H332 H 0.44718 0.05487 0.97021 0.0
H333 H 0.55434 0.10123 0.24027 0.0
H334 H 0.51075 0.1114 0.0338 0.0
H335 H 0.48979 0.04524 0.18115 0.0
C336 C 0.45927 0.02903 0.11397 0.0
C337 C 0.44661 0.03126 0.05456 0.0
C338 C 0.52027 0.10914 0.07914 0.0
C339 C 0.48922 0.06822 0.09614 0.0
C340 C 0.54154 0.12745 0.09961 0.0
C341 C 0.55448 0.12505 0.15767 0.0
C342 C 0.51172 0.08818 0.11701 0.0
C343 C 0.5452 0.10385 0.19449 0.0
C344 C 0.48047 0.04738 0.13486 0.0
C345 C 0.45607 0.05237 0.01704 0.0
N346 N 0.52446 0.0863 0.17359 0.0
N347 N 0.47673 0.06996 0.03841 0.0
H348 H 0.86343 0.20376 0.21285 0.0
H349 H 0.80928 0.27982 0.35488 0.0
H350 H 0.90023 0.26492 0.34698 0.0
H351 H 0.77311 0.22004 0.21395 0.0
H352 H 0.84266 0.2746 0.35245 0.0
H353 H 0.83018 0.20929 0.2131 0.0
C354 C 0.86453 0.21832 0.24262 0.0
C355 C 0.88474 0.23385 0.2802 0.0
C356 C 0.82744 0.26262 0.32198 0.0
C357 C 0.84661 0.24039 0.28016 0.0
C358 C 0.80835 0.26566 0.32295 0.0
C359 C 0.78825 0.25041 0.28427 0.0
C360 C 0.82657 0.24416 0.28213 0.0
C361 C 0.78806 0.23211 0.2453 0.0
C362 C 0.84554 0.22153 0.24239 0.0
C363 C 0.88518 0.25262 0.31657 0.0
N364 N 0.80689 0.22952 0.24518 0.0
N365 N 0.86642 0.25531 0.31584 0.0
H366 H 0.77836 0.70739 0.51346 0.0
H367 H 0.89496 0.77839 0.74707 0.0
H368 H 0.79136 0.68615 0.72944 0.0
H369 H 0.88364 0.79802 0.52569 0.0
H370 H 0.85688 0.74491 0.74226 0.0
H371 H 0.81649 0.74096 0.51772 0.0
C372 C 0.78918 0.70979 0.56194 0.0
C373 C 0.78153 0.69385 0.62126 0.0
C374 C 0.8627 0.75652 0.69468 0.0
C375 C 0.82542 0.73235 0.62629 0.0
C376 C 0.88454 0.77564 0.6972 0.0
C377 C 0.89269 0.79111 0.63652 0.0
C378 C 0.84873 0.7527 0.63102 0.0
C379 C 0.87809 0.78677 0.57418 0.0
C380 C 0.81103 0.72895 0.56415 0.0
C381 C 0.79655 0.69778 0.68198 0.0
N382 N 0.85689 0.76799 0.573 0.0
N383 N 0.81768 0.71662 0.68301 0.0
H384 H 0.30503 0.68047 0.86482 0.0
H385 H 0.36477 0.80248 0.0711 0.0
H386 H 0.35129 0.69763 0.05401 0.0
H387 H 0.32185 0.78694 0.87334 0.0
H388 H 0.35949 0.76399 0.0668 0.0
H389 H 0.31032 0.71904 0.86842 0.0
C390 C 0.31625 0.69231 0.90732 0.0
C391 C 0.32769 0.68569 0.95929 0.0
C392 C 0.35122 0.76897 0.02428 0.0
C393 C 0.33395 0.73008 0.96344 0.0
C394 C 0.35432 0.79104 0.02644 0.0
C395 C 0.34384 0.79813 0.97225 0.0
C396 C 0.33748 0.7537 0.96758 0.0
C397 C 0.33009 0.78226 0.91681 0.0
C398 C 0.31935 0.71439 0.90909 0.0
C399 C 0.34231 0.70197 0.01225 0.0
N400 N 0.32736 0.76085 0.91585 0.0
N401 N 0.34494 0.72332 0.01308 0.0
loop_
_geom_bond_atom_site_label_1
_geom_bond_atom_site_label_2
_geom_bond_distance
_geom_bond_site_symmetry_2
_ccdc_geom_bond_type
C0 C1 1.264 . S
C0 C5 1.479 . S
C0 C10 1.465 . S
C1 C0 1.264 . S
C1 C3 1.339 . S
C1 H28 0.931 . S
C2 C3 1.395 . S
C2 C4 1.320 . S
C3 C1 1.339 . S
C3 C2 1.395 . S
C3 H29 0.929 . S
C4 C2 1.320 . S
C4 C5 1.405 . S
C4 H30 0.930 . S
C5 C0 1.479 . S
C5 C4 1.405 . S
C5 H31 0.931 . S
U6 O7 2.454 . S
U6 O8 2.458 . S
U6 C9 2.984 . S
U6 C10 2.847 . S
U6 C23 2.882 . S
U6 O24 2.441 . S
U6 O25 2.420 . S
U6 O26 2.455 . S
U6 O27 2.449 . S
O7 U6 2.454 . S
O7 C9 1.353 . S
O8 U6 2.458 . S
O8 C9 1.286 . S
C9 U6 2.984 . S
C9 O7 1.353 . S
C9 O8 1.286 . S
C9 C11 1.363 . S
C10 C0 1.465 . S
C10 U6 2.847 . S
C10 O24 1.249 . S
C10 O25 1.202 . S
C11 C9 1.363 . S
C11 C13 1.408 . S
C11 C16 1.342 . S
C12 C13 1.310 . S
C12 C15 1.461 . S
C12 H32 0.932 . S
C13 C11 1.408 . S
C13 C12 1.310 . S
C13 H33 0.930 . S
C14 C15 1.474 . S
C14 C16 1.285 . S
C14 H34 0.929 . S
C15 C12 1.461 . S
C15 C14 1.474 . S
C16 C11 1.342 . S
C16 C14 1.285 . S
C16 H35 0.930 . S
C17 C20 1.424 . S
C17 C22 1.245 . S
C17 C23 1.428 . S
C18 C21 1.260 . S
C18 C22 1.477 . S
C18 H36 0.932 . S
C19 C20 1.384 . S
C19 C21 1.479 . S
C19 H37 0.929 . S
C20 C17 1.424 . S
C20 C19 1.384 . S
C20 H38 0.928 . S
C21 C18 1.260 . S
C21 C19 1.479 . S
C22 C17 1.245 . S
C22 C18 1.477 . S
C22 H39 0.932 . S
C23 U6 2.882 . S
C23 C17 1.428 . S
C23 O26 1.301 . S
C23 O27 1.282 . S
O24 U6 2.441 . S
O24 C10 1.249 . S
O25 U6 2.420 . S
O25 C10 1.202 . S
O26 U6 2.455 . S
O26 C23 1.301 . S
O27 U6 2.449 . S
O27 C23 1.282 . S
H28 C1 0.931 . S
H29 C3 0.929 . S
H30 C4 0.930 . S
H31 C5 0.931 . S
H32 C12 0.932 . S
H33 C13 0.930 . S
H34 C14 0.929 . S
H35 C16 0.930 . S
H36 C18 0.932 . S
H37 C19 0.929 . S
H38 C20 0.928 . S
H39 C22 0.932 . S
C40 C41 1.264 . S
C40 C45 1.479 . S
C40 C50 1.465 . S
C41 C40 1.264 . S
C41 C43 1.339 . S
C41 H68 0.931 . S
C42 C43 1.395 . S
C42 C44 1.320 . S
C43 C41 1.339 . S
C43 C42 1.395 . S
C43 H69 0.929 . S
C44 C42 1.320 . S
C44 C45 1.405 . S
C44 H70 0.930 . S
C45 C40 1.479 . S
C45 C44 1.405 . S
C45 H71 0.931 . S
U46 O47 2.454 . S
U46 O48 2.458 . S
U46 C49 2.984 . S
U46 C50 2.847 . S
U46 C63 2.882 . S
U46 O64 2.441 . S
U46 O65 2.420 . S
U46 O66 2.455 . S
U46 O67 2.449 . S
O47 U46 2.454 . S
O47 C49 1.353 . S
O48 U46 2.458 . S
O48 C49 1.286 . S
C49 U46 2.984 . S
C49 O47 1.353 . S
C49 O48 1.286 . S
C49 C51 1.363 . S
C50 C40 1.465 . S
C50 U46 2.847 . S
C50 O64 1.249 . S
C50 O65 1.202 . S
C51 C49 1.363 . S
C51 C53 1.408 . S
C51 C56 1.342 . S
C52 C53 1.310 . S
C52 C55 1.461 . S
C52 H72 0.932 . S
C53 C51 1.408 . S
C53 C52 1.310 . S
C53 H73 0.930 . S
C54 C55 1.474 . S
C54 C56 1.285 . S
C54 H74 0.929 . S
C55 C52 1.461 . S
C55 C54 1.474 . S
C56 C51 1.342 . S
C56 C54 1.285 . S
C56 H75 0.930 . S
C57 C60 1.424 . S
C57 C62 1.245 . S
C57 C63 1.428 . S
C58 C61 1.260 . S
C58 C62 1.477 . S
C58 H76 0.932 . S
C59 C60 1.384 . S
C59 C61 1.479 . S
C59 H77 0.929 . S
C60 C57 1.424 . S
C60 C59 1.384 . S
C60 H78 0.928 . S
C61 C58 1.260 . S
C61 C59 1.479 . S
C62 C57 1.245 . S
C62 C58 1.477 . S
C62 H79 0.932 . S
C63 U46 2.882 . S
C63 C57 1.428 . S
C63 O66 1.301 . S
C63 O67 1.282 . S
O64 U46 2.441 . S
O64 C50 1.249 . S
O65 U46 2.420 . S
O65 C50 1.202 . S
O66 U46 2.455 . S
O66 C63 1.301 . S
O67 U46 2.449 . S
O67 C63 1.282 . S
H68 C41 0.931 . S
H69 C43 0.929 . S
H70 C44 0.930 . S
H71 C45 0.931 . S
H72 C52 0.932 . S
H73 C53 0.930 . S
H74 C54 0.929 . S
H75 C56 0.930 . S
H76 C58 0.932 . S
H77 C59 0.929 . S
H78 C60 0.928 . S
H79 C62 0.932 . S
C80 C81 1.264 . S
C80 C85 1.479 . S
C80 C90 1.465 . S
C81 C80 1.264 . S
C81 C83 1.339 . S
C81 H108 0.931 . S
C82 C83 1.395 . S
C82 C84 1.320 . S
C83 C81 1.339 . S
C83 C82 1.395 . S
C83 H109 0.929 . S
C84 C82 1.320 . S
C84 C85 1.405 . S
C84 H110 0.930 . S
C85 C80 1.479 . S
C85 C84 1.405 . S
C85 H111 0.931 . S
U86 O87 2.454 1_554 S
U86 O88 2.458 1_554 S
U86 C89 2.984 1_554 S
U86 C90 2.847 . S
U86 C103 2.882 . S
U86 O104 2.441 . S
U86 O105 2.420 . S
U86 O106 2.456 . S
U86 O107 2.449 . S
O87 U86 2.454 1_556 S
O87 C89 1.353 . S
O88 U86 2.458 1_556 S
O88 C89 1.286 . S
C89 U86 2.984 1_556 S
C89 O87 1.353 . S
C89 O88 1.286 . S
C89 C91 1.363 . S
C90 C80 1.465 . S
C90 U86 2.847 . S
C90 O104 1.249 . S
C90 O105 1.202 . S
C91 C89 1.363 . S
C91 C93 1.408 . S
C91 C96 1.342 . S
C92 C93 1.310 . S
C92 C95 1.461 . S
C92 H112 0.932 . S
C93 C91 1.408 . S
C93 C92 1.310 . S
C93 H113 0.930 . S
C94 C95 1.474 . S
C94 C96 1.285 . S
C94 H114 0.929 . S
C95 C92 1.461 . S
C95 C94 1.474 . S
C96 C91 1.342 . S
C96 C94 1.285 . S
C96 H115 0.930 . S
C97 C100 1.424 . S
C97 C102 1.245 1_554 S
C97 C103 1.428 . S
C98 C101 1.260 . S
C98 C102 1.477 . S
C98 H116 0.932 . S
C99 C100 1.384 . S
C99 C101 1.479 1_554 S
C99 H117 0.929 . S
C100 C97 1.424 . S
C100 C99 1.384 . S
C100 H118 0.928 . S
C101 C98 1.260 . S
C101 C99 1.479 1_556 S
C102 C97 1.245 1_556 S
C102 C98 1.477 . S
C102 H119 0.932 . S
C103 U86 2.882 . S
C103 C97 1.428 . S
C103 O106 1.305 . S
C103 O107 1.282 . S
O104 U86 2.441 . S
O104 C90 1.249 . S
O105 U86 2.420 . S
O105 C90 1.202 . S
O106 U86 2.456 . S
O106 C103 1.305 . S
O107 U86 2.449 . S
O107 C103 1.282 . S
H108 C81 0.931 . S
H109 C83 0.929 . S
H110 C84 0.930 . S
H111 C85 0.931 . S
H112 C92 0.932 . S
H113 C93 0.930 . S
H114 C94 0.929 . S
H115 C96 0.930 . S
H116 C98 0.932 . S
H117 C99 0.929 . S
H118 C100 0.928 . S
H119 C102 0.932 . S
C120 C121 1.264 . S
C120 C125 1.479 . S
C120 C130 1.465 . S
C121 C120 1.264 . S
C121 C123 1.339 . S
C121 H148 0.931 . S
C122 C123 1.395 . S
C122 C124 1.320 . S
C123 C121 1.339 . S
C123 C122 1.395 . S
C123 H149 0.929 . S
C124 C122 1.320 . S
C124 C125 1.405 . S
C124 H150 0.930 1_655 S
C125 C120 1.479 . S
C125 C124 1.405 . S
C125 H151 0.931 1_655 S
U126 O127 2.454 1_655 S
U126 O128 2.458 . S
U126 C129 2.984 1_655 S
U126 C130 2.847 . S
U126 C143 2.882 . S
U126 O144 2.441 . S
U126 O145 2.420 . S
U126 O146 2.455 . S
U126 O147 2.449 . S
O127 U126 2.454 1_455 S
O127 C129 1.353 . S
O128 U126 2.458 . S
O128 C129 1.286 1_655 S
C129 U126 2.984 1_455 S
C129 O127 1.353 . S
C129 O128 1.286 1_455 S
C129 C131 1.363 . S
C130 C120 1.465 . S
C130 U126 2.847 . S
C130 O144 1.249 . S
C130 O145 1.202 . S
C131 C129 1.363 . S
C131 C133 1.408 . S
C131 C136 1.342 . S
C132 C133 1.310 . S
C132 C135 1.461 . S
C132 H152 0.932 . S
C133 C131 1.408 . S
C133 C132 1.310 . S
C133 H153 0.930 . S
C134 C135 1.474 . S
C134 C136 1.285 . S
C134 H154 0.929 . S
C135 C132 1.461 . S
C135 C134 1.474 . S
C136 C131 1.342 . S
C136 C134 1.285 . S
C136 H155 0.930 . S
C137 C140 1.424 . S
C137 C142 1.245 . S
C137 C143 1.428 . S
C138 C141 1.260 . S
C138 C142 1.477 . S
C138 H156 0.932 . S
C139 C140 1.384 . S
C139 C141 1.479 . S
C139 H157 0.929 . S
C140 C137 1.424 . S
C140 C139 1.384 . S
C140 H158 0.928 . S
C141 C138 1.260 . S
C141 C139 1.479 . S
C142 C137 1.245 . S
C142 C138 1.477 . S
C142 H159 0.932 . S
C143 U126 2.882 . S
C143 C137 1.428 . S
C143 O146 1.301 . S
C143 O147 1.282 . S
O144 U126 2.441 . S
O144 C130 1.249 . S
O145 U126 2.420 . S
O145 C130 1.202 . S
O146 U126 2.455 . S
O146 C143 1.301 . S
O147 U126 2.449 . S
O147 C143 1.282 . S
H148 C121 0.931 . S
H149 C123 0.929 . S
H150 C124 0.930 1_455 S
H151 C125 0.931 1_455 S
H152 C132 0.932 . S
H153 C133 0.930 . S
H154 C134 0.929 . S
H155 C136 0.930 . S
H156 C138 0.932 . S
H157 C139 0.929 . S
H158 C140 0.928 . S
H159 C142 0.932 . S
C160 C161 1.264 . S
C160 C165 1.479 . S
C160 C170 1.465 . S
C161 C160 1.264 . S
C161 C163 1.339 . S
C161 H188 0.931 . S
C162 C163 1.395 . S
C162 C164 1.320 . S
C163 C161 1.339 . S
C163 C162 1.395 . S
C163 H189 0.929 . S
C164 C162 1.320 . S
C164 C165 1.405 . S
C164 H190 0.930 . S
C165 C160 1.479 . S
C165 C164 1.405 . S
C165 H191 0.931 . S
U166 O167 2.454 . S
U166 O168 2.458 . S
U166 C169 2.984 . S
U166 C170 2.847 1_655 S
U166 C183 2.882 . S
U166 O184 2.441 1_655 S
U166 O185 2.420 . S
U166 O186 2.455 . S
U166 O187 2.449 . S
O167 U166 2.454 . S
O167 C169 1.353 . S
O168 U166 2.458 . S
O168 C169 1.286 . S
C169 U166 2.984 . S
C169 O167 1.353 . S
C169 O168 1.286 . S
C169 C171 1.363 . S
C170 C160 1.465 . S
C170 U166 2.847 1_455 S
C170 O184 1.249 . S
C170 O185 1.202 1_455 S
C171 C169 1.363 . S
C171 C173 1.408 . S
C171 C176 1.342 . S
C172 C173 1.310 . S
C172 C175 1.461 . S
C172 H192 0.932 1_665 S
C173 C171 1.408 . S
C173 C172 1.310 . S
C173 H193 0.930 1_655 S
C174 C175 1.474 . S
C174 C176 1.285 . S
C174 H194 0.929 . S
C175 C172 1.461 . S
C175 C174 1.474 . S
C176 C171 1.342 . S
C176 C174 1.285 . S
C176 H195 0.930 . S
C177 C180 1.424 . S
C177 C182 1.245 . S
C177 C183 1.428 . S
C178 C181 1.260 . S
C178 C182 1.477 . S
C178 H196 0.932 . S
C179 C180 1.384 . S
C179 C181 1.479 . S
C179 H197 0.929 . S
C180 C177 1.424 . S
C180 C179 1.384 . S
C180 H198 0.928 . S
C181 C178 1.260 . S
C181 C179 1.479 . S
C182 C177 1.245 . S
C182 C178 1.477 . S
C182 H199 0.932 . S
C183 U166 2.882 . S
C183 C177 1.428 . S
C183 O186 1.301 . S
C183 O187 1.282 . S
O184 U166 2.441 1_455 S
O184 C170 1.249 . S
O185 U166 2.420 . S
O185 C170 1.202 1_655 S
O186 U166 2.455 . S
O186 C183 1.301 . S
O187 U166 2.449 . S
O187 C183 1.282 . S
H188 C161 0.931 . S
H189 C163 0.929 . S
H190 C164 0.930 . S
H191 C165 0.931 . S
H192 C172 0.932 1_445 S
H193 C173 0.930 1_455 S
H194 C174 0.929 . S
H195 C176 0.930 . S
H196 C178 0.932 . S
H197 C179 0.929 . S
H198 C180 0.928 . S
H199 C182 0.932 . S
C200 C201 1.264 . S
C200 C205 1.479 . S
C200 C210 1.465 . S
C201 C200 1.264 . S
C201 C203 1.339 . S
C201 H228 0.931 . S
C202 C203 1.395 . S
C202 C204 1.320 . S
C203 C201 1.339 . S
C203 C202 1.395 . S
C203 H229 0.929 . S
C204 C202 1.320 . S
C204 C205 1.405 . S
C204 H230 0.930 1_565 S
C205 C200 1.479 . S
C205 C204 1.405 . S
C205 H231 0.931 . S
U206 O207 2.454 1_554 S
U206 O208 2.458 1_554 S
U206 C209 2.984 1_554 S
U206 C210 2.847 . S
U206 C223 2.882 . S
U206 O224 2.441 . S
U206 O225 2.420 . S
U206 O226 2.455 . S
U206 O227 2.449 . S
O207 U206 2.454 1_556 S
O207 C209 1.353 . S
O208 U206 2.458 1_556 S
O208 C209 1.286 . S
C209 U206 2.984 1_556 S
C209 O207 1.353 . S
C209 O208 1.286 . S
C209 C211 1.363 . S
C210 C200 1.465 . S
C210 U206 2.847 . S
C210 O224 1.249 . S
C210 O225 1.202 . S
C211 C209 1.363 . S
C211 C213 1.408 . S
C211 C216 1.342 . S
C212 C213 1.310 . S
C212 C215 1.461 . S
C212 H232 0.932 . S
C213 C211 1.408 . S
C213 C212 1.310 . S
C213 H233 0.930 . S
C214 C215 1.474 . S
C214 C216 1.285 . S
C214 H234 0.929 . S
C215 C212 1.461 . S
C215 C214 1.474 . S
C216 C211 1.342 . S
C216 C214 1.285 . S
C216 H235 0.930 . S
C217 C220 1.424 . S
C217 C222 1.245 1_554 S
C217 C223 1.428 . S
C218 C221 1.260 . S
C218 C222 1.477 . S
C218 H236 0.932 . S
C219 C220 1.384 . S
C219 C221 1.479 1_554 S
C219 H237 0.929 . S
C220 C217 1.424 . S
C220 C219 1.384 . S
C220 H238 0.928 . S
C221 C218 1.260 . S
C221 C219 1.479 1_556 S
C222 C217 1.245 1_556 S
C222 C218 1.477 . S
C222 H239 0.932 . S
C223 U206 2.882 . S
C223 C217 1.428 . S
C223 O226 1.301 . S
C223 O227 1.282 . S
O224 U206 2.441 . S
O224 C210 1.249 . S
O225 U206 2.420 . S
O225 C210 1.202 . S
O226 U206 2.455 . S
O226 C223 1.301 . S
O227 U206 2.449 . S
O227 C223 1.282 . S
H228 C201 0.931 . S
H229 C203 0.929 . S
H230 C204 0.930 1_545 S
H231 C205 0.931 . S
H232 C212 0.932 . S
H233 C213 0.930 . S
H234 C214 0.929 . S
H235 C216 0.930 . S
H236 C218 0.932 . S
H237 C219 0.929 . S
H238 C220 0.928 . S
H239 C222 0.932 . S
H240 C246 0.930 . S
H241 C250 0.930 . S
H242 C255 0.929 . S
H243 C253 0.929 . S
H244 C248 0.929 . S
H245 C254 0.929 . S
C246 H240 0.930 . S
C246 C247 1.367 . S
C246 C254 1.378 . S
C247 C246 1.367 . S
C247 C255 1.433 . S
C248 H244 0.929 . S
C248 C250 1.378 . S
C248 C252 1.350 . S
C249 C252 1.463 . S
C249 C254 1.350 . S
C249 N257 1.427 . S
C250 H241 0.930 . S
C250 C248 1.378 . S
C250 C251 1.367 . S
C251 C250 1.367 . S
C251 C253 1.433 . S
C252 C248 1.350 . S
C252 C249 1.463 . S
C252 N256 1.427 . S
C253 H243 0.929 . S
C253 C251 1.433 . S
C253 N256 1.384 . S
C254 H245 0.929 . S
C254 C246 1.378 . S
C254 C249 1.350 . S
C255 H242 0.929 . S
C255 C247 1.433 . S
C255 N257 1.384 . S
N256 C252 1.427 . S
N256 C253 1.384 . S
N257 C249 1.427 . S
N257 C255 1.384 . S
H258 C264 0.930 . S
H259 C268 0.930 . S
H260 C273 0.929 . S
H261 C271 0.929 . S
H262 C266 0.929 . S
H263 C272 0.929 . S
C264 H258 0.930 . S
C264 C265 1.367 . S
C264 C272 1.378 . S
C265 C264 1.367 . S
C265 C273 1.433 . S
C266 H262 0.929 . S
C266 C268 1.378 . S
C266 C270 1.350 . S
C267 C270 1.463 . S
C267 C272 1.350 . S
C267 N275 1.427 . S
C268 H259 0.930 . S
C268 C266 1.378 . S
C268 C269 1.367 . S
C269 C268 1.367 . S
C269 C271 1.433 . S
C270 C266 1.350 . S
C270 C267 1.463 . S
C270 N274 1.427 . S
C271 H261 0.929 . S
C271 C269 1.433 . S
C271 N274 1.384 . S
C272 H263 0.929 . S
C272 C264 1.378 . S
C272 C267 1.350 . S
C273 H260 0.929 . S
C273 C265 1.433 . S
C273 N275 1.384 . S
N274 C270 1.427 . S
N274 C271 1.384 . S
N275 C267 1.427 . S
N275 C273 1.384 . S
H276 C282 0.930 . S
H277 C286 0.930 . S
H278 C291 0.929 1_556 S
H279 C289 0.929 . S
H280 C284 0.929 . S
H281 C290 0.929 . S
C282 H276 0.930 . S
C282 C283 1.367 . S
C282 C290 1.378 . S
C283 C282 1.367 . S
C283 C291 1.433 . S
C284 H280 0.929 . S
C284 C286 1.378 . S
C284 C288 1.350 . S
C285 C288 1.463 . S
C285 C290 1.350 . S
C285 N293 1.427 . S
C286 H277 0.930 . S
C286 C284 1.378 . S
C286 C287 1.367 . S
C287 C286 1.367 . S
C287 C289 1.433 . S
C288 C284 1.350 . S
C288 C285 1.463 . S
C288 N292 1.427 . S
C289 H279 0.929 . S
C289 C287 1.433 . S
C289 N292 1.384 . S
C290 H281 0.929 . S
C290 C282 1.378 . S
C290 C285 1.350 . S
C291 H278 0.929 1_554 S
C291 C283 1.433 . S
C291 N293 1.384 . S
N292 C288 1.427 . S
N292 C289 1.384 . S
N293 C285 1.427 . S
N293 C291 1.384 . S
H294 C300 0.930 . S
H295 C304 0.930 . S
H296 C309 0.929 . S
H297 C307 0.929 . S
H298 C302 0.929 . S
H299 C308 0.929 . S
C300 H294 0.930 . S
C300 C301 1.367 . S
C300 C308 1.378 . S
C301 C300 1.367 . S
C301 C309 1.433 . S
C302 H298 0.929 . S
C302 C304 1.378 . S
C302 C306 1.350 . S
C303 C306 1.463 . S
C303 C308 1.350 . S
C303 N311 1.427 . S
C304 H295 0.930 . S
C304 C302 1.378 . S
C304 C305 1.367 . S
C305 C304 1.367 . S
C305 C307 1.433 . S
C306 C302 1.350 . S
C306 C303 1.463 . S
C306 N310 1.427 . S
C307 H297 0.929 . S
C307 C305 1.433 . S
C307 N310 1.384 . S
C308 H299 0.929 . S
C308 C300 1.378 . S
C308 C303 1.350 . S
C309 H296 0.929 . S
C309 C301 1.433 . S
C309 N311 1.384 . S
N310 C306 1.427 . S
N310 C307 1.384 . S
N311 C303 1.427 . S
N311 C309 1.384 . S
H312 C318 0.930 . S
H313 C322 0.930 . S
H314 C327 0.929 . S
H315 C325 0.929 . S
H316 C320 0.929 . S
H317 C326 0.929 . S
C318 H312 0.930 . S
C318 C319 1.367 . S
C318 C326 1.378 . S
C319 C318 1.367 . S
C319 C327 1.433 . S
C320 H316 0.929 . S
C320 C322 1.378 . S
C320 C324 1.350 . S
C321 C324 1.463 . S
C321 C326 1.350 . S
C321 N329 1.427 . S
C322 H313 0.930 . S
C322 C320 1.378 . S
C322 C323 1.367 . S
C323 C322 1.367 . S
C323 C325 1.433 . S
C324 C320 1.350 . S
C324 C321 1.463 . S
C324 N328 1.427 . S
C325 H315 0.929 . S
C325 C323 1.433 . S
C325 N328 1.384 . S
C326 H317 0.929 . S
C326 C318 1.378 . S
C326 C321 1.350 . S
C327 H314 0.929 . S
C327 C319 1.433 . S
C327 N329 1.384 . S
N328 C324 1.427 . S
N328 C325 1.384 . S
N329 C321 1.427 . S
N329 C327 1.384 . S
H330 C336 0.930 1_565 S
H331 C340 0.930 . S
H332 C345 0.929 1_556 S
H333 C343 0.929 . S
H334 C338 0.929 . S
H335 C344 0.929 . S
C336 H330 0.930 1_545 S
C336 C337 1.367 . S
C336 C344 1.378 . S
C337 C336 1.367 . S
C337 C345 1.433 . S
C338 H334 0.929 . S
C338 C340 1.378 . S
C338 C342 1.350 . S
C339 C342 1.463 . S
C339 C344 1.350 . S
C339 N347 1.427 . S
C340 H331 0.930 . S
C340 C338 1.378 . S
C340 C341 1.367 . S
C341 C340 1.367 . S
C341 C343 1.433 . S
C342 C338 1.350 . S
C342 C339 1.463 . S
C342 N346 1.427 . S
C343 H333 0.929 . S
C343 C341 1.433 . S
C343 N346 1.384 . S
C344 H335 0.929 . S
C344 C336 1.378 . S
C344 C339 1.350 . S
C345 H332 0.929 1_554 S
C345 C337 1.433 . S
C345 N347 1.384 . S
N346 C342 1.427 . S
N346 C343 1.384 . S
N347 C339 1.427 . S
N347 C345 1.384 . S
H348 C354 0.930 . S
H349 C358 0.930 . S
H350 C363 0.929 . S
H351 C361 0.929 . S
H352 C356 0.929 . S
H353 C362 0.929 . S
C354 H348 0.930 . S
C354 C355 1.367 . S
C354 C362 1.378 . S
C355 C354 1.367 . S
C355 C363 1.433 . S
C356 H352 0.929 . S
C356 C358 1.378 . S
C356 C360 1.350 . S
C357 C360 1.463 . S
C357 C362 1.350 . S
C357 N365 1.427 . S
C358 H349 0.930 . S
C358 C356 1.378 . S
C358 C359 1.367 . S
C359 C358 1.367 . S
C359 C361 1.433 . S
C360 C356 1.350 . S
C360 C357 1.463 . S
C360 N364 1.427 . S
C361 H351 0.929 . S
C361 C359 1.433 . S
C361 N364 1.384 . S
C362 H353 0.929 . S
C362 C354 1.378 . S
C362 C357 1.350 . S
C363 H350 0.929 . S
C363 C355 1.433 . S
C363 N365 1.384 . S
N364 C360 1.427 . S
N364 C361 1.384 . S
N365 C357 1.427 . S
N365 C363 1.384 . S
H366 C372 0.930 . S
H367 C376 0.930 . S
H368 C381 0.929 . S
H369 C379 0.929 . S
H370 C374 0.929 . S
H371 C380 0.929 . S
C372 H366 0.930 . S
C372 C373 1.367 . S
C372 C380 1.378 . S
C373 C372 1.367 . S
C373 C381 1.433 . S
C374 H370 0.929 . S
C374 C376 1.378 . S
C374 C378 1.350 . S
C375 C378 1.463 . S
C375 C380 1.350 . S
C375 N383 1.427 . S
C376 H367 0.930 . S
C376 C374 1.378 . S
C376 C377 1.367 . S
C377 C376 1.367 . S
C377 C379 1.433 . S
C378 C374 1.350 . S
C378 C375 1.463 . S
C378 N382 1.427 . S
C379 H369 0.929 . S
C379 C377 1.433 . S
C379 N382 1.384 . S
C380 H371 0.929 . S
C380 C372 1.378 . S
C380 C375 1.350 . S
C381 H368 0.929 . S
C381 C373 1.433 . S
C381 N383 1.384 . S
N382 C378 1.427 . S
N382 C379 1.384 . S
N383 C375 1.427 . S
N383 C381 1.384 . S
H384 C390 0.930 . S
H385 C394 0.930 . S
H386 C399 0.929 . S
H387 C397 0.929 . S
H388 C392 0.929 . S
H389 C398 0.929 . S
C390 H384 0.930 . S
C390 C391 1.367 . S
C390 C398 1.378 . S
C391 C390 1.367 . S
C391 C399 1.433 1_556 S
C392 H388 0.929 . S
C392 C394 1.378 . S
C392 C396 1.350 1_554 S
C393 C396 1.463 . S
C393 C398 1.350 . S
C393 N401 1.427 1_556 S
C394 H385 0.930 . S
C394 C392 1.378 . S
C394 C395 1.367 1_554 S
C395 C394 1.367 1_556 S
C395 C397 1.433 . S
C396 C392 1.350 1_556 S
C396 C393 1.463 . S
C396 N400 1.427 . S
C397 H387 0.929 . S
C397 C395 1.433 . S
C397 N400 1.384 . S
C398 H389 0.929 . S
C398 C390 1.378 . S
C398 C393 1.350 . S
C399 H386 0.929 . S
C399 C391 1.433 1_554 S
C399 N401 1.384 . S
N400 C396 1.427 . S
N400 C397 1.384 . S
N401 C393 1.427 1_554 S
N401 C399 1.384 . S
C247 C2 1.482 . S
C251 C55 1.502 . S
C265 C42 1.493 . S
C269 C95 1.505 . S
C283 C82 1.503 . S
C287 C135 1.511 . S
C301 C175 1.502 1_545 S
C305 C122 1.483 . S
C319 C162 1.486 . S
C323 C215 1.505 . S
C337 C202 1.504 1_545 S
C341 C15 1.510 . S
C355 C141 1.492 . S
C359 C21 1.489 . S
C373 C61 1.490 . S
C377 C181 1.483 . S
C391 C101 1.502 . S
C395 C221 1.497 . S
