# Generated by pormake.
# Topology uoj, (4)-cn, num edge types: 1
# Building blocks:
#     Node 0, Type 0, BuildingBlock: CEKHIL_clean_sbu_0, # of connection points: 4
#     Node 1, Type 0, BuildingBlock: CEKHIL_clean_sbu_0, # of connection points: 4
#     Node 2, Type 0, BuildingBlock: CEKHIL_clean_sbu_0, # of connection points: 4
#     Node 3, Type 0, BuildingBlock: CEKHIL_clean_sbu_0, # of connection points: 4
#     Node 4, Type 0, BuildingBlock: CEKHIL_clean_sbu_0, # of connection points: 4
#     Node 5, Type 0, BuildingBlock: CEKHIL_clean_sbu_0, # of connection points: 4
#     Node 6, Type 0, BuildingBlock: CEKHIL_clean_sbu_0, # of connection points: 4
#     Node 7, Type 0, BuildingBlock: CEKHIL_clean_sbu_0, # of connection points: 4
#     Edge 8, Type (0, 0), BuildingBlock: XIVTED_clean_linker_0, # of connection points: 2
#     Edge 9, Type (0, 0), BuildingBlock: XIVTED_clean_linker_0, # of connection points: 2
#     Edge 10, Type (0, 0), BuildingBlock: XIVTED_clean_linker_0, # of connection points: 2
#     Edge 11, Type (0, 0), BuildingBlock: XIVTED_clean_linker_0, # of connection points: 2
#     Edge 12, Type (0, 0), BuildingBlock: XIVTED_clean_linker_0, # of connection points: 2
#     Edge 13, Type (0, 0), BuildingBlock: XIVTED_clean_linker_0, # of connection points: 2
#     Edge 14, Type (0, 0), BuildingBlock: XIVTED_clean_linker_0, # of connection points: 2
#     Edge 15, Type (0, 0), BuildingBlock: XIVTED_clean_linker_0, # of connection points: 2
#     Edge 16, Type (0, 0), BuildingBlock: XIVTED_clean_linker_0, # of connection points: 2
#     Edge 17, Type (0, 0), BuildingBlock: XIVTED_clean_linker_0, # of connection points: 2
#     Edge 18, Type (0, 0), BuildingBlock: XIVTED_clean_linker_0, # of connection points: 2
#     Edge 19, Type (0, 0), BuildingBlock: XIVTED_clean_linker_0, # of connection points: 2
#     Edge 20, Type (0, 0), BuildingBlock: XIVTED_clean_linker_0, # of connection points: 2
#     Edge 21, Type (0, 0), BuildingBlock: XIVTED_clean_linker_0, # of connection points: 2
#     Edge 22, Type (0, 0), BuildingBlock: XIVTED_clean_linker_0, # of connection points: 2
#     Edge 23, Type (0, 0), BuildingBlock: XIVTED_clean_linker_0, # of connection points: 2
# Relax obj value: 0.110
# Max RMSD: 0.137
# Mean RMSD: 0.134
data_MOF--net-uoj--node1-CEKHIL_clean_sbu_0--edge1-XIVTED_clean_linker_0
_symmetry_space_group_name_H-M    P1
_symmetry_Int_Tables_number       1
_symmetry_cell_setting            triclinic
loop_
_symmetry_equiv_pos_as_xyz
'x, y, z'
_cell_length_a     33.159387
_cell_length_b     32.809187
_cell_length_c     35.222722
_cell_angle_alpha  89.997918
_cell_angle_beta   89.985321
_cell_angle_gamma 89.079688
loop_
_atom_site_label
_atom_site_type_symbol
_atom_site_fract_x
_atom_site_fract_y
_atom_site_fract_z
_atom_type_partial_charge
Co0 Co 0.07506 0.2844 0.43399 0.0
O1 O 0.11045 0.31574 0.40272 0.0
O2 O 0.04923 0.29605 0.38606 0.0
C3 C 0.12037 0.23751 0.45311 0.0
O4 O 0.03055 0.25126 0.45809 0.0
Co5 Co 0.08926 0.27935 0.521 0.0
O6 O 0.04734 0.23695 0.51852 0.0
C7 C 0.05313 0.35369 0.4884 0.0
C8 C 0.08197 0.31532 0.37743 0.0
C9 C 0.02431 0.23298 0.48982 0.0
O10 O 0.05177 0.33577 0.45604 0.0
O11 O 0.06953 0.33758 0.51781 0.0
O12 O 0.10309 0.2342 0.42015 0.0
O13 O 0.11322 0.2711 0.47127 0.0
Co14 Co 0.29236 0.91345 0.56485 0.0
O15 O 0.24015 0.89821 0.58242 0.0
O16 O 0.2616 0.89143 0.5231 0.0
C17 C 0.32688 0.88525 0.61331 0.0
O18 O 0.34452 0.92559 0.53691 0.0
Co19 Co 0.34347 0.97239 0.61421 0.0
O20 O 0.38676 0.95405 0.57902 0.0
C21 C 0.27572 0.00491 0.56867 0.0
C22 C 0.2328 0.88703 0.54783 0.0
C23 C 0.37941 0.93851 0.54665 0.0
O24 O 0.27135 0.96975 0.55324 0.0
O25 O 0.30072 0.0116 0.5956 0.0
O26 O 0.31581 0.86274 0.58492 0.0
O27 O 0.3137 0.92241 0.61299 0.0
Co28 Co 0.91618 0.7069 0.43791 0.0
O29 O 0.87904 0.6791 0.40549 0.0
O30 O 0.94182 0.69484 0.39006 0.0
C31 C 0.87415 0.75623 0.45804 0.0
O32 O 0.96263 0.73626 0.46295 0.0
Co33 Co 0.90219 0.71065 0.52495 0.0
O34 O 0.94588 0.75123 0.52323 0.0
C35 C 0.93171 0.63451 0.49049 0.0
C36 C 0.90799 0.67809 0.38062 0.0
C37 C 0.96935 0.75421 0.49473 0.0
O38 O 0.93527 0.65328 0.45872 0.0
O39 O 0.91685 0.65112 0.52036 0.0
O40 O 0.89182 0.75932 0.42523 0.0
O41 O 0.87881 0.72172 0.47536 0.0
Co42 Co 0.69978 0.08019 0.56624 0.0
O43 O 0.7507 0.09922 0.58387 0.0
O44 O 0.73012 0.10182 0.52402 0.0
C45 C 0.66261 0.10838 0.61308 0.0
O46 O 0.64906 0.06367 0.53802 0.0
Co47 Co 0.65203 0.02014 0.61772 0.0
O48 O 0.6097 0.02923 0.57884 0.0
C49 C 0.72239 0.99026 0.57439 0.0
C50 C 0.75826 0.10873 0.54887 0.0
C51 C 0.61619 0.04563 0.54665 0.0
O52 O 0.72424 0.02471 0.55716 0.0
O53 O 0.69794 0.98338 0.60172 0.0
O54 O 0.67299 0.13034 0.58405 0.0
O55 O 0.67806 0.07215 0.61436 0.0
Co56 Co 0.42486 0.78815 0.93124 0.0
O57 O 0.38578 0.80753 0.89513 0.0
O58 O 0.45149 0.80103 0.8841 0.0
C59 C 0.38961 0.7339 0.95015 0.0
O60 O 0.47388 0.76694 0.96007 0.0
Co61 Co 0.40619 0.78703 0.01636 0.0
O62 O 0.45561 0.75266 0.01984 0.0
C63 C 0.43231 0.86357 0.9819 0.0
C64 C 0.41561 0.81001 0.87144 0.0
C65 C 0.48129 0.75168 0.99297 0.0
O66 O 0.43437 0.84491 0.94992 0.0
O67 O 0.4203 0.84642 0.01243 0.0
O68 O 0.41123 0.73296 0.91947 0.0
O69 O 0.38657 0.76904 0.96704 0.0
Co70 Co 0.79634 0.57489 0.07041 0.0
O71 O 0.82773 0.61124 0.10062 0.0
O72 O 0.81306 0.54772 0.1165 0.0
C73 C 0.74582 0.61848 0.05718 0.0
O74 O 0.76388 0.52913 0.04712 0.0
Co75 Co 0.78502 0.59217 0.98495 0.0
O76 O 0.74353 0.54955 0.98921 0.0
C77 C 0.86148 0.55637 0.01081 0.0
C78 C 0.83036 0.5818 0.12515 0.0
C79 C 0.74279 0.52446 0.01682 0.0
O80 O 0.84617 0.55491 0.04419 0.0
O81 O 0.84296 0.5724 0.98248 0.0
O82 O 0.74717 0.59922 0.08935 0.0
O83 O 0.77751 0.61461 0.03572 0.0
Co84 Co 0.57353 0.20952 0.93211 0.0
O85 O 0.61225 0.19147 0.89504 0.0
O86 O 0.54619 0.19642 0.88538 0.0
C87 C 0.60707 0.26455 0.95147 0.0
O88 O 0.52489 0.22936 0.96228 0.0
Co89 Co 0.59452 0.21032 0.0173 0.0
O90 O 0.54551 0.24543 0.02102 0.0
C91 C 0.56946 0.13346 0.98251 0.0
C92 C 0.58197 0.18842 0.87192 0.0
C93 C 0.51883 0.2457 0.995 0.0
O94 O 0.56581 0.15231 0.9507 0.0
O95 O 0.58208 0.15064 0.0128 0.0
O96 O 0.5856 0.26541 0.92068 0.0
O97 O 0.61158 0.22911 0.96746 0.0
Co98 Co 0.20001 0.42096 0.06937 0.0
O99 O 0.17352 0.38206 0.10098 0.0
O100 O 0.17935 0.44778 0.11436 0.0
C101 C 0.25565 0.38354 0.0578 0.0
O102 O 0.22648 0.46969 0.04413 0.0
Co103 Co 0.21459 0.40062 0.98465 0.0
O104 O 0.24945 0.44894 0.98718 0.0
C105 C 0.1338 0.42602 0.00884 0.0
C106 C 0.1664 0.41205 0.12416 0.0
C107 C 0.24688 0.47546 0.01355 0.0
O108 O 0.14802 0.43211 0.04221 0.0
O109 O 0.15485 0.41182 0.98128 0.0
O110 O 0.25206 0.40422 0.08909 0.0
O111 O 0.22379 0.38238 0.03654 0.0
H112 H 0.1702 0.45767 0.18909 0.0
H113 H 0.04034 0.30194 0.31167 0.0
H114 H 0.11699 0.34961 0.14217 0.0
H115 H 0.13563 0.37413 0.35906 0.0
H116 H 0.05417 0.33148 0.24909 0.0
H117 H 0.14312 0.43942 0.25164 0.0
C118 C 0.15227 0.43053 0.19186 0.0
C119 C 0.14616 0.40481 0.16069 0.0
C120 C 0.07172 0.34107 0.27334 0.0
C121 C 0.11507 0.38407 0.23156 0.0
C122 C 0.06381 0.32435 0.30897 0.0
C123 C 0.08726 0.33528 0.34035 0.0
C124 C 0.10279 0.36934 0.26937 0.0
C125 C 0.11724 0.3645 0.33541 0.0
C126 C 0.13704 0.42006 0.22747 0.0
C127 C 0.12278 0.36996 0.16568 0.0
N128 N 0.12424 0.38048 0.30052 0.0
N129 N 0.10817 0.3605 0.20052 0.0
H130 H 0.32351 0.80878 0.643 0.0
H131 H 0.46512 0.84838 0.82086 0.0
H132 H 0.37968 0.92527 0.65848 0.0
H133 H 0.34943 0.79101 0.83076 0.0
H134 H 0.45032 0.86283 0.75348 0.0
H135 H 0.35098 0.78661 0.70456 0.0
C136 C 0.3425 0.82922 0.6589 0.0
C137 C 0.34916 0.86895 0.64609 0.0
C138 C 0.4285 0.84682 0.77056 0.0
C139 C 0.38074 0.84383 0.71555 0.0
C140 C 0.43682 0.83869 0.80875 0.0
C141 C 0.40816 0.81902 0.8312 0.0
C142 C 0.392 0.83386 0.75485 0.0
C143 C 0.372 0.80681 0.8144 0.0
C144 C 0.35787 0.8167 0.69394 0.0
C145 C 0.37364 0.89452 0.66775 0.0
N146 N 0.36501 0.81421 0.7771 0.0
N147 N 0.38857 0.88155 0.70163 0.0
H148 H 0.9535 0.68742 0.31656 0.0
H149 H 0.81898 0.5391 0.19082 0.0
H150 H 0.85006 0.62437 0.36016 0.0
H151 H 0.88454 0.63991 0.14391 0.0
H152 H 0.84348 0.55739 0.25418 0.0
H153 H 0.94094 0.65768 0.25387 0.0
C154 C 0.92839 0.66706 0.313 0.0
C155 C 0.90245 0.65868 0.34335 0.0
C156 C 0.85284 0.57511 0.22988 0.0
C157 C 0.88836 0.62433 0.27225 0.0
C158 C 0.83911 0.56459 0.19379 0.0
C159 C 0.84946 0.58835 0.1623 0.0
C160 C 0.87749 0.6092 0.23422 0.0
C161 C 0.87552 0.62112 0.16761 0.0
C162 C 0.92125 0.65019 0.27731 0.0
C163 C 0.87044 0.63201 0.33732 0.0
N164 N 0.88854 0.63072 0.20297 0.0
N165 N 0.86424 0.61578 0.3024 0.0
H166 H 0.64711 0.20821 0.82997 0.0
H167 H 0.61056 0.06803 0.65871 0.0
H168 H 0.53196 0.14945 0.82216 0.0
H169 H 0.66431 0.18542 0.64164 0.0
H170 H 0.58368 0.09187 0.71988 0.0
H171 H 0.65866 0.19429 0.76259 0.0
C172 C 0.62433 0.19224 0.81401 0.0
C173 C 0.58868 0.17964 0.83148 0.0
C174 C 0.6006 0.11261 0.70229 0.0
C175 C 0.60182 0.16351 0.75482 0.0
C176 C 0.61596 0.09909 0.66757 0.0
C177 C 0.63971 0.12487 0.64543 0.0
C178 C 0.61037 0.15159 0.71529 0.0
C179 C 0.64597 0.16477 0.65797 0.0
C180 C 0.63074 0.18477 0.77559 0.0
C181 C 0.55986 0.15952 0.80954 0.0
N182 N 0.63221 0.17667 0.69264 0.0
N183 N 0.56736 0.15136 0.77229 0.0
H184 H 0.27158 0.08367 0.59505 0.0
H185 H 0.13281 0.16161 0.42363 0.0
H186 H 0.22535 0.00522 0.50718 0.0
H187 H 0.16049 0.23608 0.52095 0.0
H188 H 0.16998 0.1049 0.45251 0.0
H189 H 0.23377 0.14081 0.56728 0.0
C190 C 0.25342 0.07837 0.57004 0.0
C191 C 0.25173 0.03953 0.55342 0.0
C192 C 0.16792 0.13362 0.46761 0.0
C193 C 0.20865 0.10484 0.52145 0.0
C194 C 0.14681 0.16604 0.45107 0.0
C195 C 0.14361 0.20352 0.46997 0.0
C196 C 0.18612 0.13879 0.50323 0.0
C197 C 0.16227 0.20761 0.50547 0.0
C198 C 0.23184 0.11103 0.55422 0.0
C199 C 0.22762 0.03455 0.52103 0.0
N200 N 0.18283 0.17557 0.52098 0.0
N201 N 0.20719 0.06686 0.50605 0.0
H202 H 0.1663 0.88438 0.59255 0.0
H203 H 0.03234 0.76148 0.44438 0.0
H204 H 0.20881 0.85232 0.48044 0.0
H205 H 0.99197 0.80039 0.55545 0.0
H206 H 0.09589 0.79673 0.45495 0.0
H207 H 0.10126 0.85569 0.57748 0.0
C208 C 0.16193 0.87128 0.56465 0.0
C209 C 0.19311 0.8705 0.53777 0.0
C210 C 0.07297 0.79769 0.47685 0.0
C211 C 0.11833 0.83735 0.52024 0.0
C212 C 0.03665 0.77763 0.47086 0.0
C213 C 0.00682 0.77763 0.49922 0.0
C214 C 0.07943 0.81786 0.51142 0.0
C215 C 0.01411 0.79916 0.53288 0.0
C216 C 0.12465 0.85494 0.55601 0.0
C217 C 0.18555 0.85341 0.502 0.0
N218 N 0.04968 0.81817 0.53806 0.0
N219 N 0.14888 0.83723 0.4943 0.0
H220 H 0.7289 0.91236 0.60244 0.0
H221 H 0.86714 0.83382 0.43088 0.0
H222 H 0.77438 0.9906 0.51403 0.0
H223 H 0.83403 0.7581 0.52578 0.0
H224 H 0.83294 0.89166 0.46111 0.0
H225 H 0.76763 0.85555 0.57538 0.0
C226 C 0.7472 0.91772 0.57751 0.0
C227 C 0.74813 0.95632 0.56036 0.0
C228 C 0.83321 0.86243 0.47539 0.0
C229 C 0.79228 0.89133 0.52915 0.0
C230 C 0.8526 0.82938 0.45808 0.0
C231 C 0.85324 0.79116 0.47584 0.0
C232 C 0.81416 0.85714 0.51062 0.0
C233 C 0.83412 0.78709 0.51112 0.0
C234 C 0.76928 0.88523 0.56207 0.0
C235 C 0.77253 0.9614 0.52817 0.0
N236 N 0.81521 0.81971 0.52734 0.0
N237 N 0.79341 0.92921 0.51348 0.0
H238 H 0.8234 0.11714 0.59462 0.0
H239 H 0.96144 0.22422 0.43953 0.0
H240 H 0.78376 0.1367 0.47921 0.0
H241 H 0.00198 0.18764 0.5512 0.0
H242 H 0.897 0.19118 0.45174 0.0
H243 H 0.88923 0.14289 0.57792 0.0
C244 C 0.82852 0.12696 0.56568 0.0
C245 C 0.79795 0.12495 0.53829 0.0
C246 C 0.9202 0.19015 0.47337 0.0
C247 C 0.87375 0.15455 0.51884 0.0
C248 C 0.95705 0.2089 0.46642 0.0
C249 C 0.98711 0.20914 0.49455 0.0
C250 C 0.91341 0.17168 0.5087 0.0
C251 C 0.97967 0.1887 0.52878 0.0
C252 C 0.8663 0.14153 0.5561 0.0
C253 C 0.80651 0.13788 0.5012 0.0
N254 N 0.94353 0.17114 0.53495 0.0
N255 N 0.84366 0.15237 0.49255 0.0
H256 H 0.25038 0.54286 0.06096 0.0
H257 H 0.38004 0.66571 0.90888 0.0
H258 H 0.29021 0.49791 0.95166 0.0
H259 H 0.34821 0.71875 0.01721 0.0
H260 H 0.34488 0.60472 0.92583 0.0
H261 H 0.28411 0.60768 0.04758 0.0
C262 C 0.26616 0.54649 0.03429 0.0
C263 C 0.26738 0.51475 0.00741 0.0
C264 C 0.34546 0.62941 0.94621 0.0
C265 C 0.30565 0.58849 0.99205 0.0
C266 C 0.36572 0.66447 0.9365 0.0
C267 C 0.36733 0.69736 0.96177 0.0
C268 C 0.32655 0.6266 0.98171 0.0
C269 C 0.34767 0.69396 0.99694 0.0
C270 C 0.28532 0.58346 0.02671 0.0
C271 C 0.28828 0.52121 0.97337 0.0
N272 N 0.32808 0.65896 0.00604 0.0
N273 N 0.30638 0.55715 0.96679 0.0
H274 H 0.68606 0.64297 0.10417 0.0
H275 H 0.54407 0.73871 0.94291 0.0
H276 H 0.72269 0.64756 0.98668 0.0
H277 H 0.51057 0.72351 0.06056 0.0
H278 H 0.61072 0.70912 0.95735 0.0
H279 H 0.6233 0.67723 0.08784 0.0
C280 C 0.68088 0.65133 0.0748 0.0
C281 C 0.70946 0.64215 0.04665 0.0
C282 C 0.58869 0.71237 0.9799 0.0
C283 C 0.63703 0.68137 0.02754 0.0
C284 C 0.55066 0.7292 0.97172 0.0
C285 C 0.52157 0.73353 0.00056 0.0
C286 C 0.5976 0.70002 0.01715 0.0
C287 C 0.53181 0.7207 0.03733 0.0
C288 C 0.6449 0.67093 0.06545 0.0
C289 C 0.70131 0.65414 0.00917 0.0
N290 N 0.56888 0.7046 0.04448 0.0
N291 N 0.66554 0.67298 0.00056 0.0
H292 H 0.68241 0.51192 0.96604 0.0
H293 H 0.66009 0.27441 0.01123 0.0
H294 H 0.74771 0.45261 0.05717 0.0
H295 H 0.59284 0.3411 0.92592 0.0
H296 H 0.69028 0.33886 0.03189 0.0
H297 H 0.64664 0.44926 0.95441 0.0
C298 C 0.6891 0.48571 0.98379 0.0
C299 C 0.71838 0.48746 0.01241 0.0
C300 C 0.66869 0.33922 0.00884 0.0
C301 C 0.6775 0.41501 0.99903 0.0
C302 C 0.65152 0.30254 0.99707 0.0
C303 C 0.62428 0.3024 0.96659 0.0
C304 C 0.65832 0.37569 0.98992 0.0
C305 C 0.61402 0.33962 0.94928 0.0
C306 C 0.66858 0.44981 0.97716 0.0
C307 C 0.72539 0.45255 0.03476 0.0
N308 N 0.63115 0.37456 0.96106 0.0
N309 N 0.70536 0.41752 0.02735 0.0
H310 H 0.45209 0.25056 0.94881 0.0
H311 H 0.32408 0.38038 0.09989 0.0
H312 H 0.49541 0.28566 0.0596 0.0
H313 H 0.27458 0.34038 0.9931 0.0
H314 H 0.38759 0.34662 0.08414 0.0
H315 H 0.38732 0.28387 0.96317 0.0
C316 C 0.44804 0.26521 0.97613 0.0
C317 C 0.47931 0.26529 0.00304 0.0
C318 C 0.36293 0.34511 0.06406 0.0
C319 C 0.40539 0.30342 0.01952 0.0
C320 C 0.3266 0.36446 0.07303 0.0
C321 C 0.29402 0.36311 0.04775 0.0
C322 C 0.36691 0.32424 0.02946 0.0
C323 C 0.29902 0.34204 0.01338 0.0
C324 C 0.41105 0.28418 0.98428 0.0
C325 C 0.47228 0.28473 0.03795 0.0
N326 N 0.33491 0.32337 0.00518 0.0
N327 N 0.43614 0.30301 0.04511 0.0
H328 H 0.9426 0.58313 0.43092 0.0
H329 H 0.04463 0.40309 0.55148 0.0
H330 H 0.95353 0.58871 0.553 0.0
H331 H 0.0176 0.3975 0.43155 0.0
H332 H 0.01211 0.47078 0.55396 0.0
H333 H 0.97028 0.51438 0.43197 0.0
C334 C 0.95082 0.56982 0.45805 0.0
C335 C 0.94607 0.5918 0.49192 0.0
C336 C 0.01329 0.4545 0.52723 0.0
C337 C 0.97809 0.51271 0.49334 0.0
C338 C 0.03194 0.41599 0.52574 0.0
C339 C 0.03404 0.39458 0.49123 0.0
C340 C 0.99686 0.47155 0.49396 0.0
C341 C 0.01691 0.41272 0.45882 0.0
C342 C 0.96657 0.53041 0.45865 0.0
C343 C 0.95674 0.57274 0.52625 0.0
N344 N -0.0008 0.45005 0.46103 0.0
N345 N 0.97263 0.53424 0.52609 0.0
H346 H 0.54828 0.0893 0.52922 0.0
H347 H 0.37932 0.99221 0.48861 0.0
H348 H 0.61555 0.98022 0.50089 0.0
H349 H 0.45165 0.89873 0.54258 0.0
H350 H 0.44084 0.02182 0.46231 0.0
H351 H 0.48776 0.0591 0.50234 0.0
C352 C 0.55067 0.05989 0.51534 0.0
C353 C 0.58658 0.03707 0.51709 0.0
C354 C 0.44302 0.99384 0.47854 0.0
C355 C 0.51761 0.00163 0.48785 0.0
C356 C 0.408 0.97666 0.49313 0.0
C357 C 0.41084 0.94334 0.51795 0.0
C358 C 0.48067 0.9773 0.48908 0.0
C359 C 0.4485 0.92457 0.52362 0.0
C360 C 0.51614 0.04252 0.49998 0.0
C361 C 0.58816 -0.00137 0.4998 0.0
N362 N 0.48217 0.94227 0.50982 0.0
N363 N 0.55374 0.98141 0.48713 0.0
H364 H 0.55218 0.08756 0.04592 0.0
H365 H 0.44801 0.91377 0.92224 0.0
H366 H 0.5506 0.08357 0.92335 0.0
H367 H 0.45467 0.90834 0.0446 0.0
H368 H 0.48356 0.97781 0.92348 0.0
H369 H 0.51709 0.02231 0.04727 0.0
C370 C 0.54506 0.07275 0.01933 0.0
C371 C 0.55418 0.0913 0.98445 0.0
C372 C 0.47718 0.96283 0.95016 0.0
C373 C 0.51347 0.01715 0.98586 0.0
C374 C 0.45661 0.92623 0.9495 0.0
C375 C 0.44842 0.90541 0.98338 0.0
C376 C 0.48993 0.97903 0.98495 0.0
C377 C 0.46021 0.92337 0.01779 0.0
C378 C 0.52473 0.03568 0.02015 0.0
C379 C 0.54396 0.07074 0.95094 0.0
N380 N 0.48063 0.95909 0.01769 0.0
N381 N 0.52401 0.03504 0.95252 0.0
H382 H 0.07348 0.41599 0.05886 0.0
H383 H 0.90647 0.54489 0.94489 0.0
H384 H 0.09747 0.46143 0.94631 0.0
H385 H 0.90801 0.52195 0.06578 0.0
H386 H 0.97142 0.50751 0.93952 0.0
H387 H 0.00565 0.44441 0.05532 0.0
C388 C 0.06417 0.43169 0.03316 0.0
C389 C 0.09109 0.43693 0.00305 0.0
C390 C 0.95721 0.51084 0.96705 0.0
C391 C 0.01361 0.47067 0.99906 0.0
C392 C 0.92035 0.53224 0.97019 0.0
C393 C 0.90155 0.53653 0.0058 0.0
C394 C 0.97479 0.49348 -0.0003 0.0
C395 C 0.9209 0.51944 0.03762 0.0
C396 C 0.02549 0.44813 0.03117 0.0
C397 C 0.0774 0.45696 0.97015 0.0
N398 N 0.95614 0.49871 0.03371 0.0
N399 N 0.03954 0.4738 0.96917 0.0
loop_
_geom_bond_atom_site_label_1
_geom_bond_atom_site_label_2
_geom_bond_distance
_geom_bond_site_symmetry_2
_ccdc_geom_bond_type
Co0 O1 2.216 . S
Co0 O2 2.091 . S
Co0 O4 2.004 . S
Co0 O10 2.021 . S
Co0 O12 2.137 . S
Co0 O13 2.244 . S
O1 Co0 2.216 . S
O1 C8 1.247 . S
O2 Co0 2.091 . S
O2 C8 1.261 . S
C3 O12 1.247 . S
C3 O13 1.272 . S
O4 Co0 2.004 . S
O4 C9 1.259 . S
Co5 O6 2.061 . S
Co5 O11 2.052 . S
Co5 O13 2.135 . S
O6 Co5 2.061 . S
O6 C9 1.235 . S
C7 O10 1.238 . S
C7 O11 1.241 . S
C8 O1 1.247 . S
C8 O2 1.261 . S
C9 O4 1.259 . S
C9 O6 1.235 . S
O10 Co0 2.021 . S
O10 C7 1.238 . S
O11 Co5 2.052 . S
O11 C7 1.241 . S
O12 Co0 2.137 . S
O12 C3 1.247 . S
O13 Co0 2.244 . S
O13 C3 1.272 . S
O13 Co5 2.135 . S
Co14 O15 2.216 . S
Co14 O16 2.091 . S
Co14 O18 2.004 . S
Co14 O24 2.021 . S
Co14 O26 2.137 . S
Co14 O27 2.244 . S
O15 Co14 2.216 . S
O15 C22 1.247 . S
O16 Co14 2.091 . S
O16 C22 1.261 . S
C17 O26 1.247 . S
C17 O27 1.272 . S
O18 Co14 2.004 . S
O18 C23 1.259 . S
Co19 O20 2.061 . S
Co19 O25 2.052 1_565 S
Co19 O27 2.135 . S
O20 Co19 2.061 . S
O20 C23 1.235 . S
C21 O24 1.238 . S
C21 O25 1.241 1_565 S
C22 O15 1.247 . S
C22 O16 1.261 . S
C23 O18 1.259 . S
C23 O20 1.235 . S
O24 Co14 2.021 . S
O24 C21 1.238 . S
O25 Co19 2.052 1_545 S
O25 C21 1.241 1_545 S
O26 Co14 2.137 . S
O26 C17 1.247 . S
O27 Co14 2.244 . S
O27 C17 1.272 . S
O27 Co19 2.135 . S
Co28 O29 2.216 . S
Co28 O30 2.091 . S
Co28 O32 2.004 . S
Co28 O38 2.021 . S
Co28 O40 2.137 . S
Co28 O41 2.244 . S
O29 Co28 2.216 . S
O29 C36 1.247 . S
O30 Co28 2.091 . S
O30 C36 1.261 . S
C31 O40 1.247 . S
C31 O41 1.272 . S
O32 Co28 2.004 . S
O32 C37 1.259 . S
Co33 O34 2.061 . S
Co33 O39 2.052 . S
Co33 O41 2.135 . S
O34 Co33 2.061 . S
O34 C37 1.235 . S
C35 O38 1.238 . S
C35 O39 1.241 . S
C36 O29 1.247 . S
C36 O30 1.261 . S
C37 O32 1.259 . S
C37 O34 1.235 . S
O38 Co28 2.021 . S
O38 C35 1.238 . S
O39 Co33 2.052 . S
O39 C35 1.241 . S
O40 Co28 2.137 . S
O40 C31 1.247 . S
O41 Co28 2.244 . S
O41 C31 1.272 . S
O41 Co33 2.135 . S
Co42 O43 2.216 . S
Co42 O44 2.091 . S
Co42 O46 2.004 . S
Co42 O52 2.021 . S
Co42 O54 2.137 . S
Co42 O55 2.244 . S
O43 Co42 2.216 . S
O43 C50 1.247 . S
O44 Co42 2.091 . S
O44 C50 1.261 . S
C45 O54 1.247 . S
C45 O55 1.272 . S
O46 Co42 2.004 . S
O46 C51 1.259 . S
Co47 O48 2.061 . S
Co47 O53 2.052 1_545 S
Co47 O55 2.135 . S
O48 Co47 2.061 . S
O48 C51 1.235 . S
C49 O52 1.238 . S
C49 O53 1.241 1_545 S
C50 O43 1.247 . S
C50 O44 1.261 . S
C51 O46 1.259 . S
C51 O48 1.235 . S
O52 Co42 2.021 . S
O52 C49 1.238 . S
O53 Co47 2.052 1_565 S
O53 C49 1.241 1_565 S
O54 Co42 2.137 . S
O54 C45 1.247 . S
O55 Co42 2.244 . S
O55 C45 1.272 . S
O55 Co47 2.135 . S
Co56 O57 2.216 . S
Co56 O58 2.091 . S
Co56 O60 2.004 . S
Co56 O66 2.021 . S
Co56 O68 2.137 . S
Co56 O69 2.244 . S
O57 Co56 2.216 . S
O57 C64 1.247 . S
O58 Co56 2.091 . S
O58 C64 1.261 . S
C59 O68 1.247 . S
C59 O69 1.272 . S
O60 Co56 2.004 . S
O60 C65 1.259 . S
Co61 O62 2.061 . S
Co61 O67 2.052 . S
Co61 O69 2.135 1_554 S
O62 Co61 2.061 . S
O62 C65 1.235 1_554 S
C63 O66 1.238 . S
C63 O67 1.241 1_556 S
C64 O57 1.247 . S
C64 O58 1.261 . S
C65 O60 1.259 . S
C65 O62 1.235 1_556 S
O66 Co56 2.021 . S
O66 C63 1.238 . S
O67 Co61 2.052 . S
O67 C63 1.241 1_554 S
O68 Co56 2.137 . S
O68 C59 1.247 . S
O69 Co56 2.244 . S
O69 C59 1.272 . S
O69 Co61 2.135 1_556 S
Co70 O71 2.216 . S
Co70 O72 2.091 . S
Co70 O74 2.004 . S
Co70 O80 2.021 . S
Co70 O82 2.137 . S
Co70 O83 2.244 . S
O71 Co70 2.216 . S
O71 C78 1.247 . S
O72 Co70 2.091 . S
O72 C78 1.261 . S
C73 O82 1.247 . S
C73 O83 1.272 . S
O74 Co70 2.004 . S
O74 C79 1.259 . S
Co75 O76 2.061 . S
Co75 O81 2.052 . S
Co75 O83 2.135 1_556 S
O76 Co75 2.061 . S
O76 C79 1.235 1_556 S
C77 O80 1.238 . S
C77 O81 1.241 1_554 S
C78 O71 1.247 . S
C78 O72 1.261 . S
C79 O74 1.259 . S
C79 O76 1.235 1_554 S
O80 Co70 2.021 . S
O80 C77 1.238 . S
O81 Co75 2.052 . S
O81 C77 1.241 1_556 S
O82 Co70 2.137 . S
O82 C73 1.247 . S
O83 Co70 2.244 . S
O83 C73 1.272 . S
O83 Co75 2.135 1_554 S
Co84 O85 2.216 . S
Co84 O86 2.091 . S
Co84 O88 2.004 . S
Co84 O94 2.021 . S
Co84 O96 2.137 . S
Co84 O97 2.244 . S
O85 Co84 2.216 . S
O85 C92 1.247 . S
O86 Co84 2.091 . S
O86 C92 1.261 . S
C87 O96 1.247 . S
C87 O97 1.272 . S
O88 Co84 2.004 . S
O88 C93 1.259 . S
Co89 O90 2.061 . S
Co89 O95 2.052 . S
Co89 O97 2.135 1_554 S
O90 Co89 2.061 . S
O90 C93 1.235 1_554 S
C91 O94 1.238 . S
C91 O95 1.241 1_556 S
C92 O85 1.247 . S
C92 O86 1.261 . S
C93 O88 1.259 . S
C93 O90 1.235 1_556 S
O94 Co84 2.021 . S
O94 C91 1.238 . S
O95 Co89 2.052 . S
O95 C91 1.241 1_554 S
O96 Co84 2.137 . S
O96 C87 1.247 . S
O97 Co84 2.244 . S
O97 C87 1.272 . S
O97 Co89 2.135 1_556 S
Co98 O99 2.216 . S
Co98 O100 2.091 . S
Co98 O102 2.004 . S
Co98 O108 2.021 . S
Co98 O110 2.137 . S
Co98 O111 2.244 . S
O99 Co98 2.216 . S
O99 C106 1.247 . S
O100 Co98 2.091 . S
O100 C106 1.261 . S
C101 O110 1.247 . S
C101 O111 1.272 . S
O102 Co98 2.004 . S
O102 C107 1.259 . S
Co103 O104 2.061 . S
Co103 O109 2.052 . S
Co103 O111 2.135 1_556 S
O104 Co103 2.061 . S
O104 C107 1.235 1_556 S
C105 O108 1.238 . S
C105 O109 1.241 1_554 S
C106 O99 1.247 . S
C106 O100 1.261 . S
C107 O102 1.259 . S
C107 O104 1.235 1_554 S
O108 Co98 2.021 . S
O108 C105 1.238 . S
O109 Co103 2.052 . S
O109 C105 1.241 1_556 S
O110 Co98 2.137 . S
O110 C101 1.247 . S
O111 Co98 2.244 . S
O111 C101 1.272 . S
O111 Co103 2.135 1_554 S
H112 C118 0.930 . S
H113 C122 0.930 . S
H114 C127 0.929 . S
H115 C125 0.929 . S
H116 C120 0.929 . S
H117 C126 0.929 . S
C118 H112 0.930 . S
C118 C119 1.367 . S
C118 C126 1.378 . S
C119 C118 1.367 . S
C119 C127 1.433 . S
C120 H116 0.929 . S
C120 C122 1.378 . S
C120 C124 1.350 . S
C121 C124 1.463 . S
C121 C126 1.350 . S
C121 N129 1.427 . S
C122 H113 0.930 . S
C122 C120 1.378 . S
C122 C123 1.367 . S
C123 C122 1.367 . S
C123 C125 1.433 . S
C124 C120 1.350 . S
C124 C121 1.463 . S
C124 N128 1.427 . S
C125 H115 0.929 . S
C125 C123 1.433 . S
C125 N128 1.384 . S
C126 H117 0.929 . S
C126 C118 1.378 . S
C126 C121 1.350 . S
C127 H114 0.929 . S
C127 C119 1.433 . S
C127 N129 1.384 . S
N128 C124 1.427 . S
N128 C125 1.384 . S
N129 C121 1.427 . S
N129 C127 1.384 . S
H130 C136 0.930 . S
H131 C140 0.930 . S
H132 C145 0.929 . S
H133 C143 0.929 . S
H134 C138 0.929 . S
H135 C144 0.929 . S
C136 H130 0.930 . S
C136 C137 1.367 . S
C136 C144 1.378 . S
C137 C136 1.367 . S
C137 C145 1.433 . S
C138 H134 0.929 . S
C138 C140 1.378 . S
C138 C142 1.350 . S
C139 C142 1.463 . S
C139 C144 1.350 . S
C139 N147 1.427 . S
C140 H131 0.930 . S
C140 C138 1.378 . S
C140 C141 1.367 . S
C141 C140 1.367 . S
C141 C143 1.433 . S
C142 C138 1.350 . S
C142 C139 1.463 . S
C142 N146 1.427 . S
C143 H133 0.929 . S
C143 C141 1.433 . S
C143 N146 1.384 . S
C144 H135 0.929 . S
C144 C136 1.378 . S
C144 C139 1.350 . S
C145 H132 0.929 . S
C145 C137 1.433 . S
C145 N147 1.384 . S
N146 C142 1.427 . S
N146 C143 1.384 . S
N147 C139 1.427 . S
N147 C145 1.384 . S
H148 C154 0.930 . S
H149 C158 0.930 . S
H150 C163 0.929 . S
H151 C161 0.929 . S
H152 C156 0.929 . S
H153 C162 0.929 . S
C154 H148 0.930 . S
C154 C155 1.367 . S
C154 C162 1.378 . S
C155 C154 1.367 . S
C155 C163 1.433 . S
C156 H152 0.929 . S
C156 C158 1.378 . S
C156 C160 1.350 . S
C157 C160 1.463 . S
C157 C162 1.350 . S
C157 N165 1.427 . S
C158 H149 0.930 . S
C158 C156 1.378 . S
C158 C159 1.367 . S
C159 C158 1.367 . S
C159 C161 1.433 . S
C160 C156 1.350 . S
C160 C157 1.463 . S
C160 N164 1.427 . S
C161 H151 0.929 . S
C161 C159 1.433 . S
C161 N164 1.384 . S
C162 H153 0.929 . S
C162 C154 1.378 . S
C162 C157 1.350 . S
C163 H150 0.929 . S
C163 C155 1.433 . S
C163 N165 1.384 . S
N164 C160 1.427 . S
N164 C161 1.384 . S
N165 C157 1.427 . S
N165 C163 1.384 . S
H166 C172 0.930 . S
H167 C176 0.930 . S
H168 C181 0.929 . S
H169 C179 0.929 . S
H170 C174 0.929 . S
H171 C180 0.929 . S
C172 H166 0.930 . S
C172 C173 1.367 . S
C172 C180 1.378 . S
C173 C172 1.367 . S
C173 C181 1.433 . S
C174 H170 0.929 . S
C174 C176 1.378 . S
C174 C178 1.350 . S
C175 C178 1.463 . S
C175 C180 1.350 . S
C175 N183 1.427 . S
C176 H167 0.930 . S
C176 C174 1.378 . S
C176 C177 1.367 . S
C177 C176 1.367 . S
C177 C179 1.433 . S
C178 C174 1.350 . S
C178 C175 1.463 . S
C178 N182 1.427 . S
C179 H169 0.929 . S
C179 C177 1.433 . S
C179 N182 1.384 . S
C180 H171 0.929 . S
C180 C172 1.378 . S
C180 C175 1.350 . S
C181 H168 0.929 . S
C181 C173 1.433 . S
C181 N183 1.384 . S
N182 C178 1.427 . S
N182 C179 1.384 . S
N183 C175 1.427 . S
N183 C181 1.384 . S
H184 C190 0.930 . S
H185 C194 0.930 . S
H186 C199 0.929 . S
H187 C197 0.929 . S
H188 C192 0.929 . S
H189 C198 0.929 . S
C190 H184 0.930 . S
C190 C191 1.367 . S
C190 C198 1.378 . S
C191 C190 1.367 . S
C191 C199 1.433 . S
C192 H188 0.929 . S
C192 C194 1.378 . S
C192 C196 1.350 . S
C193 C196 1.463 . S
C193 C198 1.350 . S
C193 N201 1.427 . S
C194 H185 0.930 . S
C194 C192 1.378 . S
C194 C195 1.367 . S
C195 C194 1.367 . S
C195 C197 1.433 . S
C196 C192 1.350 . S
C196 C193 1.463 . S
C196 N200 1.427 . S
C197 H187 0.929 . S
C197 C195 1.433 . S
C197 N200 1.384 . S
C198 H189 0.929 . S
C198 C190 1.378 . S
C198 C193 1.350 . S
C199 H186 0.929 . S
C199 C191 1.433 . S
C199 N201 1.384 . S
N200 C196 1.427 . S
N200 C197 1.384 . S
N201 C193 1.427 . S
N201 C199 1.384 . S
H202 C208 0.930 . S
H203 C212 0.930 . S
H204 C217 0.929 . S
H205 C215 0.929 . S
H206 C210 0.929 . S
H207 C216 0.929 . S
C208 H202 0.930 . S
C208 C209 1.367 . S
C208 C216 1.378 . S
C209 C208 1.367 . S
C209 C217 1.433 . S
C210 H206 0.929 . S
C210 C212 1.378 . S
C210 C214 1.350 . S
C211 C214 1.463 . S
C211 C216 1.350 . S
C211 N219 1.427 . S
C212 H203 0.930 . S
C212 C210 1.378 . S
C212 C213 1.367 . S
C213 C212 1.367 . S
C213 C215 1.433 . S
C214 C210 1.350 . S
C214 C211 1.463 . S
C214 N218 1.427 . S
C215 H205 0.929 . S
C215 C213 1.433 . S
C215 N218 1.384 . S
C216 H207 0.929 . S
C216 C208 1.378 . S
C216 C211 1.350 . S
C217 H204 0.929 . S
C217 C209 1.433 . S
C217 N219 1.384 . S
N218 C214 1.427 . S
N218 C215 1.384 . S
N219 C211 1.427 . S
N219 C217 1.384 . S
H220 C226 0.930 . S
H221 C230 0.930 . S
H222 C235 0.929 . S
H223 C233 0.929 . S
H224 C228 0.929 . S
H225 C234 0.929 . S
C226 H220 0.930 . S
C226 C227 1.367 . S
C226 C234 1.378 . S
C227 C226 1.367 . S
C227 C235 1.433 . S
C228 H224 0.929 . S
C228 C230 1.378 . S
C228 C232 1.350 . S
C229 C232 1.463 . S
C229 C234 1.350 . S
C229 N237 1.427 . S
C230 H221 0.930 . S
C230 C228 1.378 . S
C230 C231 1.367 . S
C231 C230 1.367 . S
C231 C233 1.433 . S
C232 C228 1.350 . S
C232 C229 1.463 . S
C232 N236 1.427 . S
C233 H223 0.929 . S
C233 C231 1.433 . S
C233 N236 1.384 . S
C234 H225 0.929 . S
C234 C226 1.378 . S
C234 C229 1.350 . S
C235 H222 0.929 . S
C235 C227 1.433 . S
C235 N237 1.384 . S
N236 C232 1.427 . S
N236 C233 1.384 . S
N237 C229 1.427 . S
N237 C235 1.384 . S
H238 C244 0.930 . S
H239 C248 0.930 . S
H240 C253 0.929 . S
H241 C251 0.929 . S
H242 C246 0.929 . S
H243 C252 0.929 . S
C244 H238 0.930 . S
C244 C245 1.367 . S
C244 C252 1.378 . S
C245 C244 1.367 . S
C245 C253 1.433 . S
C246 H242 0.929 . S
C246 C248 1.378 . S
C246 C250 1.350 . S
C247 C250 1.463 . S
C247 C252 1.350 . S
C247 N255 1.427 . S
C248 H239 0.930 . S
C248 C246 1.378 . S
C248 C249 1.367 . S
C249 C248 1.367 . S
C249 C251 1.433 . S
C250 C246 1.350 . S
C250 C247 1.463 . S
C250 N254 1.427 . S
C251 H241 0.929 . S
C251 C249 1.433 . S
C251 N254 1.384 . S
C252 H243 0.929 . S
C252 C244 1.378 . S
C252 C247 1.350 . S
C253 H240 0.929 . S
C253 C245 1.433 . S
C253 N255 1.384 . S
N254 C250 1.427 . S
N254 C251 1.384 . S
N255 C247 1.427 . S
N255 C253 1.384 . S
H256 C262 0.930 . S
H257 C266 0.930 . S
H258 C271 0.929 . S
H259 C269 0.929 . S
H260 C264 0.929 . S
H261 C270 0.929 . S
C262 H256 0.930 . S
C262 C263 1.367 . S
C262 C270 1.378 . S
C263 C262 1.367 . S
C263 C271 1.433 1_554 S
C264 H260 0.929 . S
C264 C266 1.378 . S
C264 C268 1.351 1_556 S
C265 C268 1.462 . S
C265 C270 1.350 . S
C265 N273 1.427 1_554 S
C266 H257 0.930 . S
C266 C264 1.378 . S
C266 C267 1.367 . S
C267 C266 1.367 . S
C267 C269 1.433 1_556 S
C268 C264 1.351 1_554 S
C268 C265 1.462 . S
C268 N272 1.426 . S
C269 H259 0.929 . S
C269 C267 1.433 1_554 S
C269 N272 1.384 . S
C270 H261 0.929 . S
C270 C262 1.378 . S
C270 C265 1.350 . S
C271 H258 0.929 . S
C271 C263 1.433 1_556 S
C271 N273 1.384 . S
N272 C268 1.426 . S
N272 C269 1.384 . S
N273 C265 1.427 1_556 S
N273 C271 1.384 . S
H274 C280 0.930 . S
H275 C284 0.930 . S
H276 C289 0.929 . S
H277 C287 0.929 . S
H278 C282 0.929 . S
H279 C288 0.929 . S
C280 H274 0.930 . S
C280 C281 1.367 . S
C280 C288 1.378 . S
C281 C280 1.367 . S
C281 C289 1.433 1_554 S
C282 H278 0.929 . S
C282 C284 1.378 . S
C282 C286 1.350 . S
C283 C286 1.463 1_554 S
C283 C288 1.350 . S
C283 N291 1.427 1_554 S
C284 H275 0.930 . S
C284 C282 1.378 . S
C284 C285 1.367 . S
C285 C284 1.367 . S
C285 C287 1.433 1_556 S
C286 C282 1.350 . S
C286 C283 1.463 1_556 S
C286 N290 1.427 1_556 S
C287 H277 0.929 . S
C287 C285 1.433 1_554 S
C287 N290 1.384 . S
C288 H279 0.929 . S
C288 C280 1.378 . S
C288 C283 1.350 . S
C289 H276 0.929 . S
C289 C281 1.433 1_556 S
C289 N291 1.384 . S
N290 C286 1.427 1_554 S
N290 C287 1.384 . S
N291 C283 1.427 1_556 S
N291 C289 1.384 . S
H292 C298 0.930 . S
H293 C302 0.930 . S
H294 C307 0.929 . S
H295 C305 0.929 . S
H296 C300 0.929 . S
H297 C306 0.929 . S
C298 H292 0.930 . S
C298 C299 1.367 1_556 S
C298 C306 1.378 . S
C299 C298 1.367 1_554 S
C299 C307 1.433 . S
C300 H296 0.929 . S
C300 C302 1.378 . S
C300 C304 1.350 . S
C301 C304 1.463 . S
C301 C306 1.350 1_554 S
C301 N309 1.427 . S
C302 H293 0.930 . S
C302 C300 1.378 . S
C302 C303 1.367 1_554 S
C303 C302 1.367 1_556 S
C303 C305 1.433 . S
C304 C300 1.350 . S
C304 C301 1.463 . S
C304 N308 1.427 1_554 S
C305 H295 0.929 . S
C305 C303 1.433 . S
C305 N308 1.384 . S
C306 H297 0.929 . S
C306 C298 1.378 . S
C306 C301 1.350 1_556 S
C307 H294 0.929 . S
C307 C299 1.433 . S
C307 N309 1.384 . S
N308 C304 1.427 1_556 S
N308 C305 1.384 . S
N309 C301 1.427 . S
N309 C307 1.384 . S
H310 C316 0.930 . S
H311 C320 0.930 . S
H312 C325 0.929 . S
H313 C323 0.929 . S
H314 C318 0.929 . S
H315 C324 0.929 . S
C316 H310 0.930 . S
C316 C317 1.367 . S
C316 C324 1.378 . S
C317 C316 1.367 . S
C317 C325 1.433 1_556 S
C318 H314 0.929 . S
C318 C320 1.378 . S
C318 C322 1.350 . S
C319 C322 1.463 1_556 S
C319 C324 1.350 . S
C319 N327 1.427 1_556 S
C320 H311 0.930 . S
C320 C318 1.378 . S
C320 C321 1.367 . S
C321 C320 1.367 . S
C321 C323 1.433 1_554 S
C322 C318 1.350 . S
C322 C319 1.463 1_554 S
C322 N326 1.427 1_554 S
C323 H313 0.929 . S
C323 C321 1.433 1_556 S
C323 N326 1.384 . S
C324 H315 0.929 . S
C324 C316 1.378 . S
C324 C319 1.350 . S
C325 H312 0.929 . S
C325 C317 1.433 1_554 S
C325 N327 1.384 . S
N326 C322 1.427 1_556 S
N326 C323 1.384 . S
N327 C319 1.427 1_554 S
N327 C325 1.384 . S
H328 C334 0.930 . S
H329 C338 0.930 . S
H330 C343 0.942 . S
H331 C341 0.942 . S
H332 C336 0.929 . S
H333 C342 0.929 . S
C334 H328 0.930 . S
C334 C335 1.367 . S
C334 C342 1.378 . S
C335 C334 1.367 . S
C335 C343 1.433 . S
C336 H332 0.929 . S
C336 C338 1.378 . S
C336 C340 1.350 . S
C337 C340 1.463 1_655 S
C337 C342 1.350 . S
C337 N345 1.427 1_655 S
C338 H329 0.930 . S
C338 C336 1.378 . S
C338 C339 1.367 . S
C339 C338 1.367 . S
C339 C341 1.433 . S
C340 C336 1.350 . S
C340 C337 1.463 1_455 S
C340 N344 1.427 1_455 S
C341 H331 0.942 . S
C341 C339 1.433 . S
C341 N344 1.384 1_455 S
C342 H333 0.929 . S
C342 C334 1.378 . S
C342 C337 1.350 . S
C343 H330 0.942 . S
C343 C335 1.433 . S
C343 N345 1.384 1_655 S
N344 C340 1.427 1_655 S
N344 C341 1.384 1_655 S
N345 C337 1.427 1_455 S
N345 C343 1.384 1_455 S
H346 C352 0.930 . S
H347 C356 0.930 . S
H348 C361 0.929 . S
H349 C359 0.929 . S
H350 C354 0.929 1_545 S
H351 C360 0.929 1_565 S
C352 H346 0.930 . S
C352 C353 1.367 . S
C352 C360 1.378 . S
C353 C352 1.367 . S
C353 C361 1.433 . S
C354 H350 0.929 1_565 S
C354 C356 1.378 . S
C354 C358 1.350 . S
C355 C358 1.463 1_545 S
C355 C360 1.350 . S
C355 N363 1.427 . S
C356 H347 0.930 . S
C356 C354 1.378 . S
C356 C357 1.367 . S
C357 C356 1.367 . S
C357 C359 1.433 . S
C358 C354 1.350 . S
C358 C355 1.463 1_565 S
C358 N362 1.427 . S
C359 H349 0.929 . S
C359 C357 1.433 . S
C359 N362 1.384 . S
C360 H351 0.929 1_545 S
C360 C352 1.378 . S
C360 C355 1.350 . S
C361 H348 0.929 . S
C361 C353 1.433 . S
C361 N363 1.384 . S
N362 C358 1.427 . S
N362 C359 1.384 . S
N363 C355 1.427 . S
N363 C361 1.384 . S
H364 C370 0.930 . S
H365 C374 0.930 . S
H366 C379 0.929 . S
H367 C377 0.929 . S
H368 C372 0.929 . S
H369 C378 0.929 . S
C370 H364 0.930 . S
C370 C371 1.367 1_554 S
C370 C378 1.378 . S
C371 C370 1.367 1_556 S
C371 C379 1.433 . S
C372 H368 0.929 . S
C372 C374 1.378 . S
C372 C376 1.350 . S
C373 C376 1.463 1_545 S
C373 C378 1.350 1_556 S
C373 N381 1.427 . S
C374 H365 0.930 . S
C374 C372 1.378 . S
C374 C375 1.367 . S
C375 C374 1.367 . S
C375 C377 1.433 1_556 S
C376 C372 1.350 . S
C376 C373 1.463 1_565 S
C376 N380 1.427 1_556 S
C377 H367 0.929 . S
C377 C375 1.433 1_554 S
C377 N380 1.384 . S
C378 H369 0.929 . S
C378 C370 1.378 . S
C378 C373 1.350 1_554 S
C379 H366 0.929 . S
C379 C371 1.433 . S
C379 N381 1.384 . S
N380 C376 1.427 1_554 S
N380 C377 1.384 . S
N381 C373 1.427 . S
N381 C379 1.384 . S
H382 C388 0.930 . S
H383 C392 0.930 . S
H384 C397 0.929 . S
H385 C395 0.929 . S
H386 C390 0.929 . S
H387 C396 0.929 . S
C388 H382 0.930 . S
C388 C389 1.367 . S
C388 C396 1.378 . S
C389 C388 1.367 . S
C389 C397 1.433 1_554 S
C390 H386 0.929 . S
C390 C392 1.378 . S
C390 C394 1.350 1_556 S
C391 C394 1.463 1_455 S
C391 C396 1.350 . S
C391 N399 1.427 1_554 S
C392 H383 0.930 . S
C392 C390 1.378 . S
C392 C393 1.367 1_556 S
C393 C392 1.367 1_554 S
C393 C395 1.433 . S
C394 C390 1.350 1_554 S
C394 C391 1.463 1_655 S
C394 N398 1.427 . S
C395 H385 0.929 . S
C395 C393 1.433 . S
C395 N398 1.384 . S
C396 H387 0.929 . S
C396 C388 1.378 . S
C396 C391 1.350 . S
C397 H384 0.929 . S
C397 C389 1.433 1_556 S
C397 N399 1.384 . S
N398 C394 1.427 . S
N398 C395 1.384 . S
N399 C391 1.427 1_556 S
N399 C397 1.384 . S
C119 C106 1.557 . S
C123 C8 1.556 . S
C137 C17 1.545 . S
C141 C64 1.540 . S
C155 C36 1.555 . S
C159 C78 1.558 . S
C173 C92 1.541 . S
C177 C45 1.544 . S
C191 C21 1.381 1_545 S
C195 C3 1.380 . S
C209 C22 1.432 . S
C213 C37 1.451 1_455 S
C227 C49 1.384 1_565 S
C231 C31 1.382 . S
C245 C50 1.432 . S
C249 C9 1.451 1_655 S
C263 C107 1.503 . S
C267 C59 1.451 . S
C281 C73 1.441 . S
C285 C65 1.481 . S
C299 C79 1.501 . S
C303 C87 1.456 . S
C317 C93 1.482 . S
C321 C101 1.435 . S
C335 C35 1.077 . S
C339 C7 1.076 . S
C353 C51 1.002 . S
C357 C23 1.020 . S
C371 C91 1.080 . S
C375 C63 1.082 . S
C389 C105 1.123 . S
C393 C77 1.121 . S
