# Generated by pormake.
# Topology wjt, (5)-cn, num edge types: 1
# Building blocks:
#     Node 0, Type 0, BuildingBlock: XOMCOT_clean_sbu_0, # of connection points: 5
#     Node 1, Type 0, BuildingBlock: XOMCOT_clean_sbu_0, # of connection points: 5
#     Node 2, Type 0, BuildingBlock: XOMCOT_clean_sbu_0, # of connection points: 5
#     Node 3, Type 0, BuildingBlock: XOMCOT_clean_sbu_0, # of connection points: 5
#     Node 4, Type 0, BuildingBlock: XOMCOT_clean_sbu_0, # of connection points: 5
#     Node 5, Type 0, BuildingBlock: XOMCOT_clean_sbu_0, # of connection points: 5
#     Node 6, Type 0, BuildingBlock: XOMCOT_clean_sbu_0, # of connection points: 5
#     Node 7, Type 0, BuildingBlock: XOMCOT_clean_sbu_0, # of connection points: 5
#     Node 8, Type 0, BuildingBlock: XOMCOT_clean_sbu_0, # of connection points: 5
#     Node 9, Type 0, BuildingBlock: XOMCOT_clean_sbu_0, # of connection points: 5
#     Node 10, Type 0, BuildingBlock: XOMCOT_clean_sbu_0, # of connection points: 5
#     Node 11, Type 0, BuildingBlock: XOMCOT_clean_sbu_0, # of connection points: 5
#     Edge 12, Type (0, 0), BuildingBlock: ZUJKAS_clean_linker_0, # of connection points: 2
#     Edge 13, Type (0, 0), BuildingBlock: ZUJKAS_clean_linker_0, # of connection points: 2
#     Edge 14, Type (0, 0), BuildingBlock: ZUJKAS_clean_linker_0, # of connection points: 2
#     Edge 15, Type (0, 0), BuildingBlock: ZUJKAS_clean_linker_0, # of connection points: 2
#     Edge 16, Type (0, 0), BuildingBlock: ZUJKAS_clean_linker_0, # of connection points: 2
#     Edge 17, Type (0, 0), BuildingBlock: ZUJKAS_clean_linker_0, # of connection points: 2
#     Edge 18, Type (0, 0), BuildingBlock: ZUJKAS_clean_linker_0, # of connection points: 2
#     Edge 19, Type (0, 0), BuildingBlock: ZUJKAS_clean_linker_0, # of connection points: 2
#     Edge 20, Type (0, 0), BuildingBlock: ZUJKAS_clean_linker_0, # of connection points: 2
#     Edge 21, Type (0, 0), BuildingBlock: ZUJKAS_clean_linker_0, # of connection points: 2
#     Edge 22, Type (0, 0), BuildingBlock: ZUJKAS_clean_linker_0, # of connection points: 2
#     Edge 23, Type (0, 0), BuildingBlock: ZUJKAS_clean_linker_0, # of connection points: 2
#     Edge 24, Type (0, 0), BuildingBlock: ZUJKAS_clean_linker_0, # of connection points: 2
#     Edge 25, Type (0, 0), BuildingBlock: ZUJKAS_clean_linker_0, # of connection points: 2
#     Edge 26, Type (0, 0), BuildingBlock: ZUJKAS_clean_linker_0, # of connection points: 2
#     Edge 27, Type (0, 0), BuildingBlock: ZUJKAS_clean_linker_0, # of connection points: 2
#     Edge 28, Type (0, 0), BuildingBlock: ZUJKAS_clean_linker_0, # of connection points: 2
#     Edge 29, Type (0, 0), BuildingBlock: ZUJKAS_clean_linker_0, # of connection points: 2
#     Edge 30, Type (0, 0), BuildingBlock: ZUJKAS_clean_linker_0, # of connection points: 2
#     Edge 31, Type (0, 0), BuildingBlock: ZUJKAS_clean_linker_0, # of connection points: 2
#     Edge 32, Type (0, 0), BuildingBlock: ZUJKAS_clean_linker_0, # of connection points: 2
#     Edge 33, Type (0, 0), BuildingBlock: ZUJKAS_clean_linker_0, # of connection points: 2
#     Edge 34, Type (0, 0), BuildingBlock: ZUJKAS_clean_linker_0, # of connection points: 2
#     Edge 35, Type (0, 0), BuildingBlock: ZUJKAS_clean_linker_0, # of connection points: 2
#     Edge 36, Type (0, 0), BuildingBlock: ZUJKAS_clean_linker_0, # of connection points: 2
#     Edge 37, Type (0, 0), BuildingBlock: ZUJKAS_clean_linker_0, # of connection points: 2
#     Edge 38, Type (0, 0), BuildingBlock: ZUJKAS_clean_linker_0, # of connection points: 2
#     Edge 39, Type (0, 0), BuildingBlock: ZUJKAS_clean_linker_0, # of connection points: 2
#     Edge 40, Type (0, 0), BuildingBlock: ZUJKAS_clean_linker_0, # of connection points: 2
#     Edge 41, Type (0, 0), BuildingBlock: ZUJKAS_clean_linker_0, # of connection points: 2
# Relax obj value: 0.228
# Max RMSD: 0.184
# Mean RMSD: 0.184
data_MOF--net-wjt--node1-XOMCOT_clean_sbu_0--edge1-ZUJKAS_clean_linker_0
_symmetry_space_group_name_H-M    P1
_symmetry_Int_Tables_number       1
_symmetry_cell_setting            triclinic
loop_
_symmetry_equiv_pos_as_xyz
'x, y, z'
_cell_length_a     86.676016
_cell_length_b     86.67194
_cell_length_c     21.646236
_cell_angle_alpha  89.978925
_cell_angle_beta   90.01515
_cell_angle_gamma 120.00333
loop_
_atom_site_label
_atom_site_type_symbol
_atom_site_fract_x
_atom_site_fract_y
_atom_site_fract_z
_atom_type_partial_charge
Co0 Co 0.31138 0.43047 0.25261 0.0
C1 C 0.30419 0.43008 0.38719 0.0
C2 C 0.28027 0.41477 0.33518 0.0
C3 C 0.27598 0.41276 0.39711 0.0
N4 N 0.29796 0.42592 0.32886 0.0
N5 N 0.29109 0.42247 0.4296 0.0
H6 H 0.31806 0.43732 0.39935 0.0
H7 H 0.27119 0.408 0.29741 0.0
C8 C 0.28307 0.43952 0.22002 0.0
O9 O 0.28576 0.44779 0.2732 0.0
N10 N 0.32424 0.43436 0.17646 0.0
C11 C 0.34192 0.4442 0.16674 0.0
C12 C 0.34504 0.44436 0.10414 0.0
C13 C 0.31689 0.42847 0.12051 0.0
N14 N 0.32925 0.43446 0.07531 0.0
C15 C 0.33785 0.46193 0.31301 0.0
C16 C 0.3361 0.48668 0.23752 0.0
C17 C 0.349 0.49263 0.28437 0.0
C18 C 0.34956 0.47995 0.32272 0.0
C19 C 0.32446 0.46834 0.22948 0.0
N20 N 0.32503 0.45614 0.26833 0.0
H21 H 0.33997 0.45268 0.33958 0.0
H22 H 0.31575 0.46405 0.18986 0.0
H23 H 0.35177 0.4511 0.20234 0.0
H24 H 0.30268 0.42049 0.1129 0.0
O25 O 0.327 0.42385 0.29278 0.0
O26 O 0.30213 0.40496 0.24405 0.0
O27 O 0.29223 0.43222 0.2054 0.0
C28 C 0.31603 0.40762 0.27577 0.0
H29 H 0.26286 0.40447 0.41664 0.0
H30 H 0.3579 0.45136 0.08164 0.0
H31 H 0.33561 0.49603 0.20548 0.0
H32 H 0.35944 0.48387 0.35902 0.0
Co33 Co 0.8833 0.31288 0.57734 0.0
C34 C 0.87691 0.30579 0.71222 0.0
C35 C 0.86852 0.28192 0.66015 0.0
C36 C 0.8663 0.2776 0.72204 0.0
N37 N 0.87487 0.29958 0.65391 0.0
N38 N 0.87156 0.29268 0.75455 0.0
H39 H 0.88336 0.31965 0.72439 0.0
H40 H 0.86625 0.27287 0.62233 0.0
C41 C 0.84585 0.28441 0.5475 0.0
O42 O 0.84061 0.28739 0.60091 0.0
N43 N 0.89184 0.32562 0.50084 0.0
C44 C 0.89972 0.3433 0.49103 0.0
C45 C 0.90266 0.34639 0.42844 0.0
C46 C 0.8903 0.31822 0.44497 0.0
N47 N 0.89671 0.33058 0.39974 0.0
C48 C 0.87841 0.33933 0.63827 0.0
C49 C 0.85149 0.3373 0.56438 0.0
C50 C 0.85858 0.35027 0.61097 0.0
C51 C 0.87205 0.35098 0.64849 0.0
C52 C 0.85827 0.32574 0.55576 0.0
N53 N 0.87122 0.32644 0.59387 0.0
H54 H 0.88991 0.34153 0.66421 0.0
H55 H 0.85371 0.31697 0.51633 0.0
H56 H 0.9028 0.35318 0.52662 0.0
H57 H 0.88409 0.30401 0.43748 0.0
O58 O 0.90576 0.32878 0.61569 0.0
O59 O 0.89966 0.30377 0.56803 0.0
O60 O 0.8622 0.29351 0.53152 0.0
C61 C 0.9111 0.31789 0.59838 0.0
H62 H 0.86158 0.26449 0.74151 0.0
H63 H 0.90861 0.35925 0.40586 0.0
H64 H 0.84147 0.3367 0.53298 0.0
H65 H 0.87812 0.36092 0.68453 0.0
Co66 Co 0.56983 0.88072 0.91355 0.0
C67 C 0.57504 0.87929 0.04815 0.0
C68 C 0.58391 0.86387 -0.00153 0.0
C69 C 0.58778 0.86371 0.06013 0.0
N70 N 0.57529 0.87312 0.99113 0.0
N71 N 0.58225 0.87353 0.09102 0.0
H72 H 0.57061 0.88864 0.05812 0.0
H73 H 0.58806 0.8584 0.96146 0.0
C74 C 0.56061 0.8433 0.88165 0.0
O75 O 0.55111 0.83768 0.93253 0.0
N76 N 0.56525 0.88861 0.83639 0.0
C77 C 0.55564 0.89665 0.82573 0.0
C78 C 0.55576 0.89959 0.76299 0.0
C79 C 0.57121 0.88692 0.78099 0.0
N80 N 0.56548 0.89333 0.7352 0.0
C81 C 0.53786 0.87189 0.98006 0.0
C82 C 0.51403 0.8481 0.89528 0.0
C83 C 0.50743 0.85208 0.94844 0.0
C84 C 0.51966 0.86415 0.99101 0.0
C85 C 0.53247 0.85608 0.88639 0.0
N86 N 0.54421 0.86747 0.92949 0.0
H87 H 0.54671 0.88226 0.01073 0.0
H88 H 0.53729 0.85355 0.84373 0.0
H89 H 0.54884 0.89988 0.86089 0.0
H90 H 0.57969 0.88121 0.77446 0.0
O91 O 0.57513 0.90301 0.95053 0.0
O92 O 0.59502 0.89793 0.9046 0.0
O93 O 0.56908 0.85991 0.86865 0.0
C94 C 0.59156 0.909 0.9339 0.0
H95 H 0.59491 0.85763 0.08014 0.0
H96 H 0.54888 0.90544 0.73958 0.0
H97 H 0.50506 0.83918 0.86038 0.0
H98 H 0.51522 0.86835 0.0311 0.0
Co99 Co 0.69145 0.57159 0.25259 0.0
C100 C 0.69868 0.57715 0.38705 0.0
C101 C 0.7225 0.58423 0.33665 0.0
C102 C 0.72683 0.58801 0.39816 0.0
N103 N 0.70468 0.57673 0.32984 0.0
N104 N 0.71178 0.58358 0.42959 0.0
H105 H 0.68515 0.57365 0.39741 0.0
H106 H 0.73197 0.58765 0.29947 0.0
C107 C 0.71849 0.56094 0.21808 0.0
O108 O 0.71429 0.55106 0.26811 0.0
N109 N 0.67886 0.56735 0.17567 0.0
C110 C 0.66117 0.55822 0.16526 0.0
C111 C 0.65835 0.55805 0.10238 0.0
C112 C 0.68652 0.57278 0.11997 0.0
N113 N 0.67436 0.56712 0.07425 0.0
C114 C 0.66818 0.53999 0.32054 0.0
C115 C 0.66547 0.51562 0.23282 0.0
C116 C 0.65488 0.50943 0.28615 0.0
C117 C 0.65671 0.52191 0.33081 0.0
C118 C 0.67703 0.53396 0.22467 0.0
N119 N 0.67844 0.54595 0.26869 0.0
H120 H 0.66781 0.54912 0.35291 0.0
H121 H 0.68418 0.53855 0.18155 0.0
H122 H 0.65112 0.55181 0.20063 0.0
H123 H 0.70075 0.58073 0.11306 0.0
O124 O 0.67498 0.57746 0.29037 0.0
O125 O 0.70004 0.5969 0.24371 0.0
O126 O 0.71101 0.57015 0.20679 0.0
C127 C 0.6857 0.59382 0.27359 0.0
H128 H 0.74009 0.59426 0.41774 0.0
H129 H 0.6456 0.55132 0.07911 0.0
H130 H 0.66419 0.50651 0.19633 0.0
H131 H 0.64883 0.51784 0.37272 0.0
Co132 Co 0.12352 0.69106 0.58856 0.0
C133 C 0.12563 0.69805 0.72307 0.0
C134 C 0.14106 0.72218 0.67239 0.0
C135 C 0.14164 0.72638 0.73402 0.0
N136 N 0.13152 0.70429 0.66565 0.0
N137 N 0.13184 0.71114 0.76561 0.0
H138 H 0.11626 0.68433 0.73363 0.0
H139 H 0.14646 0.73171 0.63509 0.0
C140 C 0.1607 0.71912 0.55323 0.0
O141 O 0.16681 0.71493 0.60217 0.0
N142 N 0.11526 0.67844 0.51178 0.0
C143 C 0.10703 0.66076 0.50142 0.0
C144 C 0.10433 0.65791 0.43859 0.0
C145 C 0.11727 0.68606 0.45613 0.0
N146 N 0.11093 0.67389 0.41047 0.0
C147 C 0.13307 0.66834 0.6544 0.0
C148 C 0.15579 0.66763 0.56652 0.0
C149 C 0.15225 0.65723 0.62001 0.0
C150 C 0.14074 0.65776 0.66419 0.0
C151 C 0.14787 0.67819 0.55874 0.0
N152 N 0.13699 0.67884 0.60325 0.0
H153 H 0.12309 0.66709 0.68645 0.0
H154 H 0.15003 0.68536 0.51583 0.0
H155 H 0.10364 0.65075 0.53678 0.0
H156 H 0.12332 0.70028 0.44919 0.0
O157 O 0.10154 0.67402 0.62728 0.0
O158 O 0.10606 0.69877 0.5808 0.0
O159 O 0.14396 0.71119 0.54252 0.0
C160 C 0.09531 0.68429 0.61101 0.0
H161 H 0.14806 0.73965 0.75361 0.0
H162 H 0.09852 0.64516 0.41532 0.0
H163 H 0.16431 0.66734 0.53047 0.0
H164 H 0.13686 0.6493 0.7047 0.0
Co165 Co 0.43247 0.12165 0.91968 0.0
C166 C 0.42737 0.1238 0.05413 0.0
C167 C 0.41882 0.13926 0.00295 0.0
C168 C 0.41518 0.13993 0.06456 0.0
N169 N 0.4271 0.12965 0.99655 0.0
N170 N 0.42053 0.13011 0.09646 0.0
H171 H 0.43159 0.11436 0.06501 0.0
H172 H 0.41483 0.14472 0.9654 0.0
C173 C 0.44258 0.15928 0.88599 0.0
O174 O 0.45195 0.16497 0.93712 0.0
N175 N 0.43699 0.11341 0.84309 0.0
C176 C 0.44645 0.10518 0.83283 0.0
C177 C 0.44673 0.10258 0.76994 0.0
C178 C 0.43151 0.11552 0.78731 0.0
N179 N 0.43743 0.10926 0.74168 0.0
C180 C 0.46388 0.12911 0.98691 0.0
C181 C 0.48853 0.15244 0.9031 0.0
C182 C 0.49454 0.1472 0.95486 0.0
C183 C 0.48192 0.13566 0.99752 0.0
C184 C 0.4702 0.1456 0.89441 0.0
N185 N 0.45806 0.13428 0.93675 0.0
H186 H 0.45467 0.11889 0.01725 0.0
H187 H 0.46577 0.1487 0.85195 0.0
H188 H 0.45298 0.10171 0.86829 0.0
H189 H 0.42333 0.12154 0.7803 0.0
O190 O 0.42649 0.09932 0.95791 0.0
O191 O 0.40718 0.10486 0.9096 0.0
O192 O 0.43395 0.14263 0.87365 0.0
C193 C 0.41021 0.0937 0.94036 0.0
H194 H 0.40843 0.14647 0.08394 0.0
H195 H 0.4537 0.0968 0.74675 0.0
H196 H 0.4978 0.16095 0.86804 0.0
H197 H 0.48588 0.1311 0.03792 0.0
Co198 Co 0.57045 0.68971 0.41398 0.0
C199 C 0.57501 0.6964 0.2793 0.0
C200 C 0.58407 0.72064 0.32952 0.0
C201 C 0.5878 0.72475 0.26784 0.0
N202 N 0.57545 0.70276 0.33657 0.0
N203 N 0.58216 0.70943 0.23658 0.0
H204 H 0.57056 0.68265 0.26902 0.0
H205 H 0.58834 0.7302 0.36676 0.0
C206 C 0.56051 0.71739 0.44624 0.0
O207 O 0.55107 0.7135 0.39519 0.0
N208 N 0.56625 0.6772 0.49095 0.0
C209 C 0.55712 0.6595 0.50111 0.0
C210 C 0.55712 0.65659 0.56383 0.0
C211 C 0.57179 0.6848 0.54666 0.0
N212 N 0.56627 0.67256 0.59214 0.0
C213 C 0.53869 0.66526 0.3492 0.0
C214 C 0.51453 0.66468 0.43371 0.0
C215 C 0.50822 0.65306 0.38304 0.0
C216 C 0.52057 0.65371 0.34005 0.0
C217 C 0.53291 0.67614 0.44109 0.0
N218 N 0.54479 0.67662 0.39836 0.0
H219 H 0.54775 0.66406 0.31864 0.0
H220 H 0.53757 0.68393 0.48291 0.0
H221 H 0.55069 0.64948 0.46564 0.0
H222 H 0.57979 0.69902 0.55371 0.0
O223 O 0.57642 0.67325 0.37646 0.0
O224 O 0.59579 0.69841 0.42264 0.0
O225 O 0.56909 0.70937 0.45927 0.0
C226 C 0.59278 0.68407 0.39298 0.0
H227 H 0.59495 0.73798 0.24805 0.0
H228 H 0.5505 0.6438 0.58688 0.0
H229 H 0.50547 0.66423 0.46904 0.0
H230 H 0.51634 0.64483 0.30061 0.0
Co231 Co 0.88141 0.57072 0.74746 0.0
C232 C 0.87826 0.57449 0.61279 0.0
C233 C 0.86457 0.58503 0.66421 0.0
C234 C 0.86379 0.58846 0.60246 0.0
N235 N 0.87316 0.57572 0.67059 0.0
N236 N 0.87254 0.58189 0.57046 0.0
H237 H 0.88686 0.56927 0.60167 0.0
H238 H 0.85999 0.58989 0.70191 0.0
C239 C 0.84394 0.56118 0.77991 0.0
O240 O 0.83839 0.552 0.72834 0.0
N241 N 0.88989 0.56654 0.82407 0.0
C242 C 0.89813 0.55711 0.83454 0.0
C243 C 0.90083 0.55697 0.89741 0.0
C244 C 0.88786 0.57215 0.87966 0.0
N245 N 0.8942 0.56634 0.92542 0.0
C246 C 0.87451 0.53894 0.68399 0.0
C247 C 0.85022 0.51477 0.76686 0.0
C248 C 0.85599 0.50848 0.71743 0.0
C249 C 0.86807 0.52084 0.67528 0.0
C250 C 0.85707 0.53315 0.77395 0.0
N251 N 0.86881 0.54505 0.7319 0.0
H252 H 0.8851 0.54798 0.65437 0.0
H253 H 0.85367 0.53779 0.81522 0.0
H254 H 0.90152 0.55047 0.79927 0.0
H255 H 0.88179 0.5803 0.88645 0.0
O256 O 0.90365 0.57664 0.7086 0.0
O257 O 0.89817 0.59609 0.75612 0.0
O258 O 0.86051 0.56942 0.79348 0.0
C259 C 0.90924 0.59298 0.7252 0.0
H260 H 0.85809 0.596 0.58302 0.0
H261 H 0.90662 0.55003 0.92076 0.0
H262 H 0.84133 0.50568 0.80162 0.0
H263 H 0.87312 0.51659 0.63702 0.0
Co264 Co 0.31111 0.87917 0.06779 0.0
C265 C 0.30437 0.87358 0.93283 0.0
C266 C 0.28011 0.86252 0.98438 0.0
C267 C 0.27597 0.86055 0.92235 0.0
N268 N 0.29794 0.87029 0.99104 0.0
N269 N 0.2913 0.86748 0.89017 0.0
H270 H 0.31825 0.8816 0.92122 0.0
H271 H 0.27074 0.85919 0.0219 0.0
C272 C 0.28271 0.84219 0.10266 0.0
O273 O 0.28658 0.83616 0.05276 0.0
N274 N 0.32374 0.88822 0.14425 0.0
C275 C 0.34143 0.89638 0.15407 0.0
C276 C 0.34452 0.89972 0.21649 0.0
C277 C 0.31632 0.88689 0.19996 0.0
N278 N 0.32868 0.89371 0.24511 0.0
C279 C 0.33596 0.87131 0.00856 0.0
C280 C 0.33417 0.84661 0.09306 0.0
C281 C 0.34599 0.85125 0.04309 0.0
C282 C 0.34678 0.86384 0.00075 0.0
C283 C 0.32348 0.85444 0.09905 0.0
N284 N 0.3239 0.86614 0.05563 0.0
H285 H 0.33826 0.88215 0.97876 0.0
H286 H 0.31543 0.8516 0.14009 0.0
H287 H 0.35132 0.89935 0.11859 0.0
H288 H 0.3021 0.8805 0.20747 0.0
O289 O 0.32768 0.90101 0.02712 0.0
O290 O 0.30281 0.89621 0.07312 0.0
O291 O 0.29118 0.85885 0.11487 0.0
C292 C 0.31715 0.90699 0.04239 0.0
H293 H 0.26277 0.85488 0.9026 0.0
H294 H 0.35739 0.90595 0.239 0.0
H295 H 0.33344 0.83732 0.12799 0.0
H296 H 0.35642 0.86867 0.96351 0.0
Co297 Co 0.43247 0.3102 0.40392 0.0
C298 C 0.42698 0.30285 0.26959 0.0
C299 C 0.42014 0.27908 0.32002 0.0
C300 C 0.41647 0.27476 0.25844 0.0
N301 N 0.42742 0.29688 0.32686 0.0
N302 N 0.42076 0.28977 0.22699 0.0
H303 H 0.43036 0.31634 0.25918 0.0
H304 H 0.41681 0.26963 0.3572 0.0
C305 C 0.44313 0.28327 0.43995 0.0
O306 O 0.45316 0.28748 0.3903 0.0
N307 N 0.43661 0.32288 0.48059 0.0
C308 C 0.44565 0.34059 0.49082 0.0
C309 C 0.4457 0.34345 0.55364 0.0
C310 C 0.43112 0.31527 0.53634 0.0
N311 N 0.43666 0.32746 0.5819 0.0
C312 C 0.46416 0.33329 0.33605 0.0
C313 C 0.48838 0.33658 0.42535 0.0
C314 C 0.49462 0.3471 0.37186 0.0
C315 C 0.48222 0.34492 0.32634 0.0
C316 C 0.47006 0.32482 0.4329 0.0
N317 N 0.45813 0.32317 0.38823 0.0
H318 H 0.45507 0.33346 0.30298 0.0
H319 H 0.46542 0.31774 0.47614 0.0
H320 H 0.45206 0.35062 0.45538 0.0
H321 H 0.4232 0.30104 0.5434 0.0
O322 O 0.42669 0.32662 0.3652 0.0
O323 O 0.40716 0.30169 0.4125 0.0
O324 O 0.43383 0.29069 0.45044 0.0
C325 C 0.41033 0.31596 0.38199 0.0
H326 H 0.41044 0.26152 0.2388 0.0
H327 H 0.45234 0.35623 0.5768 0.0
H328 H 0.49743 0.33809 0.46242 0.0
H329 H 0.48634 0.35271 0.28422 0.0
Co330 Co 0.12221 0.43192 0.74435 0.0
C331 C 0.12893 0.43173 0.60964 0.0
C332 C 0.1372 0.41605 0.66116 0.0
C333 C 0.13955 0.41418 0.59923 0.0
N334 N 0.13087 0.42736 0.66779 0.0
N335 N 0.13434 0.4241 0.56705 0.0
H336 H 0.12248 0.43918 0.5978 0.0
H337 H 0.13936 0.40911 0.6987 0.0
C338 C 0.15931 0.44012 0.77628 0.0
O339 O 0.16498 0.44884 0.72388 0.0
N340 N 0.11341 0.43582 0.82077 0.0
C341 C 0.10555 0.44565 0.83046 0.0
C342 C 0.10261 0.44582 0.89301 0.0
C343 C 0.11492 0.42996 0.8767 0.0
N344 N 0.10853 0.43595 0.92184 0.0
C345 C 0.12849 0.46413 0.68547 0.0
C346 C 0.15533 0.48779 0.76235 0.0
C347 C 0.14944 0.49454 0.71454 0.0
C348 C 0.13575 0.48236 0.67617 0.0
C349 C 0.14763 0.46933 0.77008 0.0
N350 N 0.13487 0.45767 0.73015 0.0
H351 H 0.11698 0.4553 0.65859 0.0
H352 H 0.15146 0.46455 0.80992 0.0
H353 H 0.10258 0.45252 0.79482 0.0
H354 H 0.12117 0.42201 0.88437 0.0
O355 O 0.10003 0.426 0.70476 0.0
O356 O 0.10552 0.40651 0.7514 0.0
O357 O 0.14285 0.43285 0.79092 0.0
C358 C 0.09438 0.4096 0.72087 0.0
H359 H 0.1443 0.40585 0.5795 0.0
H360 H 0.09675 0.45282 0.91551 0.0
H361 H 0.16552 0.49665 0.79437 0.0
H362 H 0.12997 0.48681 0.64096 0.0
Co363 Co 0.69119 0.12136 0.08013 0.0
C364 C 0.69812 0.12262 0.94566 0.0
C365 C 0.72216 0.13915 0.99534 0.0
C366 C 0.72633 0.13935 0.93381 0.0
N367 N 0.70431 0.12916 0.0026 0.0
N368 N 0.71114 0.12886 0.90284 0.0
H369 H 0.6845 0.11275 0.93576 0.0
H370 H 0.73172 0.14512 0.03228 0.0
C371 C 0.7188 0.15883 0.11399 0.0
O372 O 0.71462 0.16457 0.06404 0.0
N373 N 0.67864 0.11323 0.1572 0.0
C374 C 0.66094 0.10472 0.16738 0.0
C375 C 0.65804 0.10182 0.2301 0.0
C376 C 0.68623 0.11524 0.21295 0.0
N377 N 0.674 0.10858 0.25842 0.0
C378 C 0.66835 0.13038 0.01269 0.0
C379 C 0.66599 0.152 0.10143 0.0
C380 C 0.6553 0.14774 0.04841 0.0
C381 C 0.65699 0.13715 0.00316 0.0
C382 C 0.67744 0.14507 0.10884 0.0
N383 N 0.67863 0.13446 0.06444 0.0
H384 H 0.66785 0.12091 0.9799 0.0
H385 H 0.68465 0.1475 0.1518 0.0
H386 H 0.65093 0.10115 0.1319 0.0
H387 H 0.70045 0.12138 0.22003 0.0
O388 O 0.67428 0.09914 0.04267 0.0
O389 O 0.69924 0.10418 0.0887 0.0
O390 O 0.7111 0.14215 0.12557 0.0
C391 C 0.68472 0.09314 0.05921 0.0
H392 H 0.73956 0.146 0.91396 0.0
H393 H 0.64525 0.09566 0.25315 0.0
H394 H 0.66484 0.15981 0.1383 0.0
H395 H 0.64903 0.13347 0.96143 0.0
H396 H 0.27702 0.42686 0.10154 0.0
H397 H 0.25634 0.42736 0.0262 0.0
H398 H 0.239 0.4523 0.16019 0.0
H399 H 0.25994 0.45215 0.23582 0.0
H400 H 0.21997 0.41171 0.03108 0.0
H401 H 0.25102 0.48514 0.01125 0.0
H402 H 0.26207 0.47462 0.0481 0.0
H403 H 0.24524 0.47689 0.08883 0.0
C404 C 0.26886 0.4325 0.11515 0.0
C405 C 0.27022 0.43954 0.17478 0.0
C406 C 0.25702 0.43276 0.07191 0.0
C407 C 0.2463 0.4401 0.08718 0.0
C408 C 0.24742 0.44692 0.14691 0.0
H409 H 0.15213 0.4239 0.88947 0.0
H410 H 0.17326 0.42376 0.96378 0.0
C411 C 0.25933 0.44672 0.19023 0.0
C412 C 0.23374 0.44025 0.0408 0.0
H413 H 0.22315 0.46774 0.96111 0.0
C414 C 0.22068 0.42396 0.01571 0.0
C415 C 0.23484 0.45627 0.02012 0.0
C416 C 0.24914 0.47425 0.04295 0.0
C417 C 0.20853 0.42322 0.9712 0.0
C418 C 0.20928 0.43919 0.95196 0.0
C419 C 0.22251 0.45551 0.97632 0.0
C420 C 0.19647 0.43923 0.90656 0.0
C421 C 0.19518 0.40538 0.94441 0.0
C422 C 0.20252 0.44827 0.85011 0.0
C423 C 0.19046 0.44844 0.80746 0.0
C424 C 0.17212 0.43967 0.82068 0.0
C425 C 0.16614 0.43071 0.87751 0.0
C426 C 0.17819 0.43054 0.92003 0.0
H427 H 0.19929 0.39526 0.95171 0.0
H428 H 0.18212 0.40056 0.9674 0.0
H429 H 0.19338 0.40647 0.89411 0.0
H430 H 0.21659 0.45514 0.83894 0.0
H431 H 0.19555 0.45552 0.7643 0.0
H432 H 0.72863 0.15166 0.22574 0.0
H433 H 0.7498 0.17286 0.30009 0.0
H434 H 0.76058 0.21623 0.1769 0.0
H435 H 0.73914 0.19513 0.10257 0.0
H436 H 0.78558 0.19654 0.28814 0.0
H437 H 0.74896 0.23238 0.33838 0.0
H438 H 0.73891 0.21137 0.29789 0.0
H439 H 0.75349 0.23173 0.25779 0.0
C440 C 0.73546 0.1657 0.21434 0.0
C441 C 0.7321 0.17169 0.1582 0.0
C442 C 0.74758 0.17781 0.25698 0.0
C443 C 0.75657 0.19616 0.24454 0.0
C444 C 0.7535 0.20217 0.1881 0.0
H445 H 0.85167 0.27725 0.42941 0.0
H446 H 0.83 0.25569 0.35715 0.0
C447 C 0.74132 0.19007 0.14546 0.0
C448 C 0.76938 0.20892 0.29027 0.0
H449 H 0.77828 0.24504 0.37908 0.0
C450 C 0.78397 0.20712 0.30815 0.0
C451 C 0.76711 0.22255 0.31708 0.0
C452 C 0.75119 0.22457 0.30235 0.0
C453 C 0.79651 0.21874 0.35128 0.0
C454 C 0.79459 0.23277 0.37641 0.0
C455 C 0.77983 0.23439 0.35936 0.0
C456 C 0.80775 0.2459 0.42046 0.0
C457 C 0.81154 0.21571 0.37028 0.0
C458 C 0.80238 0.24794 0.47965 0.0
C459 C 0.81473 0.26039 0.52108 0.0
C460 C 0.8327 0.2711 0.50399 0.0
C461 C 0.83799 0.26912 0.44441 0.0
C462 C 0.82563 0.25672 0.40303 0.0
H463 H 0.80836 0.20183 0.36061 0.0
H464 H 0.82368 0.22483 0.34371 0.0
H465 H 0.81458 0.21846 0.42024 0.0
H466 H 0.78862 0.23979 0.49394 0.0
H467 H 0.81019 0.26159 0.56647 0.0
H468 H 0.57561 0.72583 0.56118 0.0
H469 H 0.57529 0.7469 0.63517 0.0
H470 H 0.54605 0.7603 0.50542 0.0
H471 H 0.54595 0.7389 0.4314 0.0
H472 H 0.58898 0.78274 0.62608 0.0
H473 H 0.51582 0.74893 0.66035 0.0
H474 H 0.52656 0.73835 0.62187 0.0
H475 H 0.52253 0.75408 0.58108 0.0
C476 C 0.56906 0.7332 0.54826 0.0
C477 C 0.56071 0.73058 0.49036 0.0
C478 C 0.5689 0.74527 0.5907 0.0
C479 C 0.5604 0.75498 0.57629 0.0
C480 C 0.55233 0.75265 0.51814 0.0
H481 H 0.57619 0.85004 0.76742 0.0
H482 H 0.57625 0.82867 0.69414 0.0
C483 C 0.55239 0.74049 0.4757 0.0
C484 C 0.56033 0.76777 0.62184 0.0
H485 H 0.53291 0.77769 0.70494 0.0
C486 C 0.57672 0.78162 0.64343 0.0
C487 C 0.54433 0.76614 0.64516 0.0
C488 C 0.5263 0.75098 0.62646 0.0
C489 C 0.57756 0.79402 0.68701 0.0
C490 C 0.56156 0.79275 0.70873 0.0
C491 C 0.54516 0.77875 0.68783 0.0
C492 C 0.56153 0.80575 0.75339 0.0
C493 C 0.59556 0.80815 0.71024 0.0
C494 C 0.55285 0.79993 0.81054 0.0
C495 C 0.55264 0.81212 0.85246 0.0
C496 C 0.56109 0.83037 0.83794 0.0
C497 C 0.56969 0.83612 0.78044 0.0
C498 C 0.56982 0.82392 0.73852 0.0
H499 H 0.60589 0.80433 0.70269 0.0
H500 H 0.59972 0.82075 0.6848 0.0
H501 H 0.59509 0.81072 0.76027 0.0
H502 H 0.54629 0.78595 0.82285 0.0
H503 H 0.54584 0.80722 0.89618 0.0
H504 H 0.80801 0.54731 0.76386 0.0
H505 H 0.78671 0.54767 0.83726 0.0
H506 H 0.829 0.5754 0.96951 0.0
H507 H 0.85041 0.57548 0.89613 0.0
H508 H 0.77727 0.53325 0.95265 0.0
H509 H 0.80638 0.60649 0.96538 0.0
H510 H 0.81269 0.59591 0.90668 0.0
H511 H 0.82211 0.5994 0.98296 0.0
C512 C 0.81281 0.55359 0.80841 0.0
C513 C 0.83096 0.56147 0.82388 0.0
C514 C 0.8006 0.55376 0.85036 0.0
C515 C 0.80629 0.56182 0.90853 0.0
C516 C 0.82436 0.56948 0.92438 0.0
H517 H 0.73869 0.54482 0.2292 0.0
H518 H 0.75985 0.54485 0.15426 0.0
C519 C 0.83657 0.56942 0.88239 0.0
C520 C 0.79329 0.56187 0.95315 0.0
H521 H 0.78427 0.58928 0.04027 0.0
C522 C 0.77875 0.5455 0.97164 0.0
C523 C 0.7951 0.57787 0.97731 0.0
C524 C 0.80981 0.59592 0.95666 0.0
C525 C 0.76615 0.54468 0.01434 0.0
C526 C 0.76834 0.56065 0.04024 0.0
C527 C 0.78271 0.57703 0.02098 0.0
C528 C 0.75566 0.56072 0.0863 0.0
C529 C 0.75042 0.52673 0.03035 0.0
C530 C 0.74668 0.57009 0.07392 0.0
C531 C 0.73476 0.57029 0.11695 0.0
C532 C 0.73156 0.56112 0.17341 0.0
C533 C 0.74074 0.55192 0.18605 0.0
C534 C 0.75275 0.55182 0.14305 0.0
H535 H 0.74809 0.51658 0.99465 0.0
H536 H 0.75305 0.52211 0.07484 0.0
H537 H 0.7381 0.52753 0.03548 0.0
H538 H 0.74876 0.57713 0.03059 0.0
H539 H 0.72796 0.57754 0.10562 0.0
H540 H 0.19677 0.7331 0.54487 0.0
H541 H 0.21706 0.75434 0.46851 0.0
H542 H 0.17326 0.75715 0.38557 0.0
H543 H 0.1528 0.73539 0.46023 0.0
H544 H 0.19276 0.75433 0.29942 0.0
H545 H 0.23807 0.80703 0.46116 0.0
H546 H 0.23673 0.78611 0.4773 0.0
H547 H 0.21723 0.78829 0.48585 0.0
C548 C 0.19149 0.73836 0.51071 0.0
C549 C 0.17319 0.73264 0.50892 0.0
C550 C 0.20313 0.75061 0.46726 0.0
C551 C 0.1968 0.75768 0.42196 0.0
C552 C 0.17852 0.75198 0.4202 0.0
H553 H 0.26668 0.84993 0.19676 0.0
H554 H 0.24513 0.82933 0.27172 0.0
C555 C 0.16683 0.73955 0.46305 0.0
C556 C 0.20904 0.77047 0.37487 0.0
H557 H 0.24814 0.80969 0.35699 0.0
C558 C 0.20481 0.7665 0.31207 0.0
C559 C 0.22464 0.78652 0.39118 0.0
C560 C 0.22935 0.79235 0.45753 0.0
C561 C 0.21581 0.77794 0.26527 0.0
C562 C 0.23187 0.79353 0.28154 0.0
C563 C 0.23596 0.79765 0.34435 0.0
C564 C 0.24454 0.80587 0.23439 0.0
C565 C 0.20985 0.77335 0.19898 0.0
C566 C 0.25151 0.79962 0.18845 0.0
C567 C 0.26362 0.81134 0.14482 0.0
C568 C 0.26932 0.82963 0.14712 0.0
C569 C 0.26252 0.83591 0.19362 0.0
C570 C 0.25022 0.82415 0.23662 0.0
H571 H 0.19516 0.76463 0.19566 0.0
H572 H 0.21384 0.78551 0.17101 0.0
H573 H 0.21604 0.766 0.1786 0.0
H574 H 0.24781 0.7857 0.18679 0.0
H575 H 0.2688 0.80612 0.11016 0.0
H576 H 0.45898 0.26281 0.42951 0.0
H577 H 0.45856 0.24146 0.50462 0.0
H578 H 0.42679 0.2533 0.62799 0.0
H579 H 0.42674 0.27424 0.5528 0.0
H580 H 0.47092 0.24654 0.62292 0.0
H581 H 0.39813 0.19949 0.62072 0.0
H582 H 0.40905 0.21676 0.56347 0.0
H583 H 0.40375 0.22194 0.63825 0.0
C584 C 0.45179 0.26078 0.47243 0.0
C585 C 0.44279 0.27016 0.48485 0.0
C586 C 0.4516 0.2486 0.51539 0.0
C587 C 0.44239 0.24555 0.57154 0.0
C588 C 0.43361 0.25508 0.58439 0.0
H589 H 0.45723 0.19544 0.89894 0.0
H590 H 0.45737 0.2165 0.82326 0.0
C591 C 0.43369 0.26716 0.54137 0.0
C592 C 0.44229 0.23268 0.61722 0.0
H593 H 0.4147 0.19537 0.70023 0.0
C594 C 0.45864 0.23531 0.63966 0.0
C595 C 0.42626 0.2179 0.63849 0.0
C596 C 0.40831 0.21371 0.61357 0.0
C597 C 0.45938 0.22371 0.6834 0.0
C598 C 0.44333 0.2093 0.70634 0.0
C599 C 0.427 0.20654 0.68322 0.0
C600 C 0.44313 0.19659 0.75295 0.0
C601 C 0.47738 0.22679 0.70357 0.0
C602 C 0.4346 0.17832 0.73949 0.0
C603 C 0.43427 0.16623 0.78293 0.0
C604 C 0.44251 0.17214 0.84089 0.0
C605 C 0.45088 0.19044 0.85462 0.0
C606 C 0.45108 0.20253 0.8112 0.0
H607 H 0.48796 0.23511 0.66978 0.0
H608 H 0.48095 0.2339 0.74851 0.0
H609 H 0.4772 0.21398 0.70955 0.0
H610 H 0.4283 0.1734 0.695 0.0
H611 H 0.42767 0.15226 0.77074 0.0
H612 H 0.49492 0.61808 0.35541 0.0
H613 H 0.46385 0.59504 0.34221 0.0
H614 H 0.44706 0.63292 0.38593 0.0
H615 H 0.47846 0.6564 0.39874 0.0
H616 H 0.43333 0.58797 0.4463 0.0
H617 H 0.42528 0.60424 0.20352 0.0
H618 H 0.44688 0.60863 0.22972 0.0
H619 H 0.43759 0.62146 0.26002 0.0
C620 C 0.48468 0.62163 0.36168 0.0
C621 C 0.48916 0.63913 0.37734 0.0
C622 C 0.46693 0.60841 0.35444 0.0
C623 C 0.45326 0.61237 0.36262 0.0
C624 C 0.45752 0.62971 0.37914 0.0
H625 H 0.34477 0.52212 0.28256 0.0
H626 H 0.36778 0.55326 0.30358 0.0
C627 C 0.47539 0.64303 0.3867 0.0
C628 C 0.43465 0.59794 0.35427 0.0
H629 H 0.40413 0.57563 0.24075 0.0
C630 C 0.42665 0.58549 0.40198 0.0
C631 C 0.42605 0.59481 0.2964 0.0
C632 C 0.43426 0.60796 0.24419 0.0
C633 C 0.41078 0.56939 0.39201 0.0
C634 C 0.40293 0.56559 0.33262 0.0
C635 C 0.41021 0.5786 0.28619 0.0
C636 C 0.38901 0.54728 0.31593 0.0
C637 C 0.40304 0.55611 0.44414 0.0
C638 C 0.39354 0.53388 0.31389 0.0
C639 C 0.38061 0.51632 0.30162 0.0
C640 C 0.36279 0.51171 0.29126 0.0
C641 C 0.35838 0.52529 0.29053 0.0
C642 C 0.37144 0.54301 0.30277 0.0
H643 H 0.40746 0.56271 0.48987 0.0
H644 H 0.38825 0.54879 0.44249 0.0
H645 H 0.40761 0.54627 0.43972 0.0
H646 H 0.40711 0.537 0.32264 0.0
H647 H 0.38456 0.50627 0.30088 0.0
H648 H 0.87828 0.49547 0.6985 0.0
H649 H 0.87065 0.46451 0.68495 0.0
H650 H 0.8151 0.44734 0.71236 0.0
H651 H 0.82269 0.47864 0.72584 0.0
H652 H 0.84761 0.43379 0.77846 0.0
H653 H 0.82277 0.42646 0.53643 0.0
H654 H 0.83883 0.44814 0.56603 0.0
H655 H 0.81643 0.43718 0.59462 0.0
C656 C 0.86441 0.48515 0.70136 0.0
C657 C 0.85104 0.48948 0.71247 0.0
C658 C 0.86009 0.46747 0.69391 0.0
C659 C 0.84233 0.45373 0.69716 0.0
C660 C 0.82888 0.45785 0.70935 0.0
H661 H 0.82474 0.3457 0.61209 0.0
H662 H 0.81647 0.36852 0.63484 0.0
C663 C 0.83323 0.47565 0.7173 0.0
C664 C 0.83835 0.43521 0.68755 0.0
H665 H 0.82978 0.40499 0.57254 0.0
C666 C 0.84322 0.42721 0.73406 0.0
C667 C 0.83262 0.42672 0.62957 0.0
C668 C 0.82732 0.43495 0.57846 0.0
C669 C 0.84358 0.41147 0.7228 0.0
C670 C 0.83924 0.40373 0.66327 0.0
C671 C 0.83311 0.41099 0.61809 0.0
C672 C 0.84368 0.38995 0.64508 0.0
C673 C 0.84954 0.40373 0.77368 0.0
C674 C 0.86163 0.39465 0.64129 0.0
C675 C 0.86634 0.38183 0.62809 0.0
C676 C 0.85318 0.36395 0.61852 0.0
C677 C 0.83515 0.35937 0.61943 0.0
C678 C 0.83041 0.37233 0.63263 0.0
H679 H 0.84761 0.40804 0.81998 0.0
H680 H 0.84216 0.38894 0.77178 0.0
H681 H 0.86394 0.40841 0.76791 0.0
H682 H 0.87205 0.40827 0.64954 0.0
H683 H 0.88036 0.3859 0.62614 0.0
H684 H 0.48282 0.84932 0.86298 0.0
H685 H 0.45237 0.84298 0.88311 0.0
H686 H 0.45802 0.83355 0.07511 0.0
H687 H 0.48837 0.83966 0.05538 0.0
H688 H 0.42045 0.81249 0.94636 0.0
H689 H 0.45012 0.8778 0.06777 0.0
H690 H 0.46285 0.87215 0.01595 0.0
H691 H 0.45757 0.86277 0.09218 0.0
C692 C 0.47741 0.8454 0.90911 0.0
C693 C 0.48807 0.84519 0.95776 0.0
C694 C 0.46004 0.84185 0.92056 0.0
C695 C 0.45309 0.83805 0.98072 0.0
C696 C 0.46325 0.83667 0.02851 0.0
H697 H 0.36467 0.8461 0.13538 0.0
H698 H 0.38876 0.83938 0.12372 0.0
C699 C 0.48058 0.84021 0.01716 0.0
C700 C 0.436 0.83728 0.99466 0.0
H701 H 0.41893 0.86082 0.06412 0.0
C702 C 0.42005 0.82298 0.97233 0.0
C703 C 0.43557 0.85098 0.02869 0.0
C704 C 0.45241 0.86689 0.0523 0.0
C705 C 0.40359 0.82203 0.98331 0.0
C706 C 0.40321 0.83596 0.01622 0.0
C707 C 0.41919 0.85009 0.03926 0.0
C708 C 0.38669 0.83693 0.02414 0.0
C709 C 0.3868 0.80604 0.96006 0.0
C710 C 0.37723 0.83739 0.97223 0.0
C711 C 0.3633 0.84099 0.97884 0.0
C712 C 0.35871 0.8445 0.03744 0.0
C713 C 0.36769 0.84326 0.08966 0.0
C714 C 0.38156 0.83954 0.08302 0.0
H715 H 0.38854 0.79423 0.95544 0.0
H716 H 0.37537 0.80259 0.99129 0.0
H717 H 0.38354 0.80906 0.91365 0.0
H718 H 0.38113 0.83581 0.92622 0.0
H719 H 0.35654 0.84165 0.93772 0.0
H720 H 0.6567 0.47933 0.25786 0.0
H721 H 0.63327 0.44807 0.27249 0.0
H722 H 0.59828 0.46548 0.34595 0.0
H723 H 0.62117 0.4964 0.33042 0.0
H724 H 0.60157 0.43819 0.41854 0.0
H725 H 0.58529 0.42196 0.16922 0.0
H726 H 0.60822 0.43235 0.19362 0.0
H727 H 0.5967 0.4447 0.19649 0.0
C728 C 0.64396 0.47645 0.27674 0.0
C729 C 0.64091 0.49039 0.29363 0.0
C730 C 0.63065 0.45863 0.28528 0.0
C731 C 0.61411 0.45453 0.31062 0.0
C732 C 0.61103 0.46838 0.32701 0.0
H733 H 0.50706 0.38064 0.32693 0.0
H734 H 0.53781 0.40405 0.31238 0.0
C735 C 0.6242 0.48608 0.31834 0.0
C736 C 0.59961 0.43591 0.3195 0.0
H737 H 0.56577 0.40127 0.2417 0.0
C738 C 0.59396 0.42986 0.37999 0.0
C739 C 0.58971 0.42521 0.26899 0.0
C740 C 0.59514 0.43128 0.20325 0.0
C741 C 0.5781 0.4138 0.39128 0.0
C742 C 0.56771 0.40358 0.34073 0.0
C743 C 0.57387 0.40914 0.28029 0.0
C744 C 0.54922 0.38878 0.34929 0.0
C745 C 0.57189 0.40847 0.45695 0.0
C746 C 0.54544 0.3724 0.37523 0.0
C747 C 0.5277 0.35878 0.38319 0.0
C748 C 0.51356 0.36138 0.3651 0.0
C749 C 0.51756 0.37795 0.3399 0.0
C750 C 0.53516 0.39142 0.33179 0.0
H751 H 0.58099 0.4185 0.49096 0.0
H752 H 0.55835 0.40664 0.46286 0.0
H753 H 0.57107 0.39554 0.46738 0.0
H754 H 0.55616 0.37013 0.38889 0.0
H755 H 0.52507 0.34617 0.40254 0.0
H756 H 0.15817 0.51971 0.80557 0.0
H757 H 0.16507 0.55054 0.79295 0.0
H758 H 0.16176 0.54397 0.59506 0.0
H759 H 0.15585 0.51348 0.60703 0.0
H760 H 0.18808 0.5772 0.62823 0.0
H761 H 0.12512 0.55995 0.75051 0.0
H762 H 0.14045 0.55644 0.79569 0.0
H763 H 0.13064 0.54332 0.72736 0.0
C764 C 0.15938 0.52493 0.75929 0.0
C765 C 0.15615 0.51397 0.70732 0.0
C766 C 0.1631 0.54251 0.75219 0.0
C767 C 0.16342 0.54939 0.69312 0.0
C768 C 0.16137 0.53889 0.64112 0.0
H769 H 0.1543 0.63528 0.53317 0.0
H770 H 0.16031 0.61091 0.55136 0.0
C771 C 0.15783 0.52139 0.64811 0.0
C772 C 0.16463 0.56699 0.68529 0.0
H773 H 0.14296 0.58977 0.71894 0.0
C774 C 0.17827 0.57999 0.64828 0.0
C775 C 0.1517 0.57055 0.71096 0.0
C776 C 0.13605 0.55679 0.74784 0.0
C777 C 0.17934 0.59646 0.63648 0.0
C778 C 0.16641 0.59994 0.66214 0.0
C779 C 0.15295 0.58708 0.69977 0.0
C780 C 0.16594 0.61647 0.64877 0.0
C781 C 0.19427 0.61002 0.59681 0.0
C782 C 0.16742 0.62786 0.69725 0.0
C783 C 0.16408 0.64183 0.68696 0.0
C784 C 0.15897 0.64456 0.62809 0.0
C785 C 0.15841 0.6337 0.57886 0.0
C786 C 0.16183 0.61974 0.58919 0.0
H787 H 0.20531 0.60707 0.59239 0.0
H788 H 0.18907 0.60991 0.54986 0.0
H789 H 0.19965 0.62363 0.61615 0.0
H790 H 0.17055 0.62553 0.74358 0.0
H791 H 0.16486 0.65011 0.72568 0.0
H792 H 0.65721 0.17966 0.07765 0.0
H793 H 0.63365 0.18742 0.06479 0.0
H794 H 0.59846 0.13503 0.99183 0.0
H795 H 0.62143 0.12702 0.00581 0.0
H796 H 0.60479 0.17044 0.92118 0.0
H797 H 0.58221 0.15968 0.16659 0.0
H798 H 0.60562 0.17097 0.14729 0.0
H799 H 0.59215 0.14748 0.1343 0.0
C800 C 0.64441 0.16979 0.0592 0.0
C801 C 0.6413 0.1528 0.04198 0.0
C802 C 0.63105 0.17428 0.05158 0.0
C803 C 0.61444 0.16182 0.02682 0.0
C804 C 0.61128 0.14488 0.01029 0.0
H805 H 0.50751 0.12563 0.98847 0.0
H806 H 0.53834 0.13365 0.00676 0.0
C807 C 0.6245 0.14038 0.01804 0.0
C808 C 0.59993 0.1659 0.01874 0.0
H809 H 0.56304 0.16112 0.09259 0.0
C810 C 0.59588 0.16896 0.95879 0.0
C811 C 0.58836 0.16378 0.06797 0.0
C812 C 0.59218 0.16031 0.13289 0.0
C813 C 0.57993 0.16887 0.9462 0.0
C814 C 0.56783 0.16565 0.9949 0.0
C815 C 0.57242 0.16367 0.05544 0.0
C816 C 0.54929 0.16142 0.98284 0.0
C817 C 0.5755 0.17092 0.8804 0.0
C818 C 0.54523 0.17439 0.96265 0.0
C819 C 0.52745 0.16983 0.95233 0.0
C820 C 0.51355 0.15228 0.9625 0.0
C821 C 0.51783 0.13935 0.9816 0.0
C822 C 0.53546 0.14389 0.99187 0.0
H823 H 0.58581 0.17205 0.84727 0.0
H824 H 0.56246 0.15933 0.86707 0.0
H825 H 0.57433 0.18306 0.87643 0.0
H826 H 0.55575 0.18802 0.95565 0.0
H827 H 0.52455 0.18007 0.93781 0.0
H828 H 0.31011 0.37879 0.20603 0.0
H829 H 0.32157 0.35849 0.227 0.0
H830 H 0.34132 0.38385 0.40376 0.0
H831 H 0.33074 0.40458 0.38142 0.0
H832 H 0.36669 0.38382 0.34201 0.0
H833 H 0.30857 0.31551 0.33143 0.0
H834 H 0.31082 0.3282 0.26315 0.0
H835 H 0.30622 0.33503 0.33611 0.0
C836 C 0.31653 0.37967 0.24987 0.0
C837 C 0.31968 0.39326 0.29198 0.0
C838 C 0.32298 0.36802 0.26206 0.0
C839 C 0.33224 0.36953 0.31723 0.0
C840 C 0.3343 0.38242 0.36082 0.0
H841 H 0.37901 0.30575 0.44373 0.0
H842 H 0.35846 0.3172 0.42681 0.0
C843 C 0.32825 0.39427 0.34806 0.0
C844 C 0.34186 0.35951 0.32658 0.0
H845 H 0.33744 0.31801 0.32736 0.0
C846 C 0.36018 0.36941 0.33936 0.0
C847 C 0.33343 0.34069 0.32356 0.0
C848 C 0.31364 0.32922 0.31344 0.0
C849 C 0.37033 0.36114 0.34858 0.0
C850 C 0.36213 0.34242 0.34263 0.0
C851 C 0.34374 0.33239 0.33104 0.0
C852 C 0.37273 0.33332 0.34769 0.0
C853 C 0.38977 0.3726 0.36539 0.0
C854 C 0.38707 0.33802 0.30739 0.0
C855 C 0.39889 0.33179 0.31755 0.0
C856 C 0.39637 0.32039 0.36742 0.0
C857 C 0.38126 0.31457 0.40507 0.0
C858 C 0.36953 0.32108 0.39541 0.0
H859 H 0.39258 0.38552 0.38571 0.0
H860 H 0.39399 0.36572 0.3989 0.0
H861 H 0.398 0.37553 0.32308 0.0
H862 H 0.38954 0.34711 0.26939 0.0
H863 H 0.41027 0.33624 0.28714 0.0
H864 H 0.06955 0.41333 0.65664 0.0
H865 H 0.03884 0.39078 0.63498 0.0
H866 H 0.04679 0.35116 0.72715 0.0
H867 H 0.07775 0.37393 0.75014 0.0
H868 H 0.02446 0.35867 0.57044 0.0
H869 H 0.00378 0.34823 0.81771 0.0
H870 H 0.02473 0.36679 0.7928 0.0
H871 H 0.02191 0.34483 0.79628 0.0
C872 C 0.06485 0.39983 0.6723 0.0
C873 C 0.07605 0.39545 0.70562 0.0
C874 C 0.04728 0.38692 0.65959 0.0
C875 C 0.04046 0.36932 0.67991 0.0
C876 C 0.05171 0.36472 0.71182 0.0
H877 H 0.92796 0.29958 0.56178 0.0
H878 H 0.9591 0.3078 0.58228 0.0
C879 C 0.06939 0.37772 0.72472 0.0
C880 C 0.02135 0.3563 0.6692 0.0
H881 H 0.98125 0.33488 0.74347 0.0
C882 C 0.01499 0.35312 0.60816 0.0
C883 C 0.00907 0.34914 0.71861 0.0
C884 C 0.01509 0.35244 0.78513 0.0
C885 C 0.99665 0.34396 0.59525 0.0
C886 C 0.98436 0.33758 0.64478 0.0
C887 C 0.99073 0.33975 0.70565 0.0
C888 C 0.96518 0.33137 0.63519 0.0
C889 C 0.99057 0.34232 0.52902 0.0
C890 C 0.9582 0.34161 0.65939 0.0
C891 C 0.94058 0.33695 0.64804 0.0
C892 C 0.92945 0.32189 0.61224 0.0
C893 C 0.93626 0.3113 0.58926 0.0
C894 C 0.95403 0.31602 0.60072 0.0
H895 H 0.00184 0.35007 0.49684 0.0
H896 H 0.98385 0.32812 0.51488 0.0
H897 H 0.98083 0.34702 0.52415 0.0
H898 H 0.96655 0.35351 0.68603 0.0
H899 H 0.93577 0.34535 0.66676 0.0
H900 H 0.65642 0.06909 0.99222 0.0
H901 H 0.64725 0.03808 0.97159 0.0
H902 H 0.69294 0.04393 0.07144 0.0
H903 H 0.70218 0.07523 0.09327 0.0
H904 H 0.66496 0.0228 0.91115 0.0
H905 H 0.6504 0.00155 0.15735 0.0
H906 H 0.65387 0.02284 0.13129 0.0
H907 H 0.67247 0.01928 0.13925 0.0
C908 C 0.66459 0.06386 0.00985 0.0
C909 C 0.67995 0.07458 0.0449 0.0
C910 C 0.65935 0.04612 0.99772 0.0
C911 C 0.66931 0.03864 0.02041 0.0
C912 C 0.68493 0.04939 0.0542 0.0
H913 H 0.62711 0.92638 0.90278 0.0
H914 H 0.64943 0.95755 0.92514 0.0
C915 C 0.69022 0.06726 0.06643 0.0
C916 C 0.66264 0.01941 0.00983 0.0
H917 H 0.64175 0.97911 0.08294 0.0
C918 C 0.66019 0.01321 0.94867 0.0
C919 C 0.65636 0.00699 0.05896 0.0
C920 C 0.65826 0.01288 0.12549 0.0
C921 C 0.65075 0.99491 0.93515 0.0
C922 C 0.64382 0.9825 0.98424 0.0
C923 C 0.64714 0.98868 0.04547 0.0
C924 C 0.63101 0.96335 0.97317 0.0
C925 C 0.64724 0.98905 0.8685 0.0
C926 C 0.61342 0.9562 0.99398 0.0
C927 C 0.60077 0.93852 0.98156 0.0
C928 C 0.60541 0.92754 0.94809 0.0
C929 C 0.62313 0.93456 0.92832 0.0
C930 C 0.63586 0.95236 0.94087 0.0
H931 H 0.65123 1.00044 0.8364 0.0
H932 H 0.65492 0.98239 0.85628 0.0
H933 H 0.63289 0.97933 0.86129 0.0
H934 H 0.60938 0.96444 0.01893 0.0
H935 H 0.58727 0.93353 0.99778 0.0
H936 H 0.62794 0.70216 0.4289 0.0
H937 H 0.65087 0.69417 0.40603 0.0
H938 H 0.61239 0.64866 0.30197 0.0
H939 H 0.5897 0.65658 0.32378 0.0
H940 H 0.65048 0.66325 0.43796 0.0
H941 H 0.65444 0.67053 0.18435 0.0
H942 H 0.64439 0.68018 0.23228 0.0
H943 H 0.63176 0.65717 0.209 0.0
C944 C 0.62447 0.69058 0.40058 0.0
C945 C 0.60702 0.68 0.37813 0.0
C946 C 0.63757 0.68605 0.38753 0.0
C947 C 0.63343 0.67102 0.35123 0.0
C948 C 0.61604 0.66057 0.32863 0.0
H949 H 0.65885 0.59081 0.34622 0.0
H950 H 0.65046 0.6132 0.36731 0.0
C951 C 0.60301 0.66503 0.34171 0.0
C952 C 0.64665 0.66519 0.34052 0.0
H953 H 0.66251 0.64951 0.22691 0.0
C954 C 0.65348 0.66064 0.39178 0.0
C955 C 0.65091 0.66212 0.28032 0.0
C956 C 0.64514 0.66795 0.2234 0.0
C957 C 0.66313 0.65171 0.38446 0.0
C958 C 0.66573 0.64696 0.32441 0.0
C959 C 0.66027 0.6529 0.27302 0.0
C960 C 0.67197 0.63404 0.31435 0.0
C961 C 0.66992 0.64691 0.44126 0.0
C962 C 0.68669 0.63816 0.27636 0.0
C963 C 0.6915 0.62524 0.26378 0.0
C964 C 0.68149 0.60797 0.28835 0.0
C965 C 0.66686 0.60399 0.32657 0.0
C966 C 0.66214 0.61684 0.33924 0.0
H967 H 0.67264 0.65658 0.47921 0.0
H968 H 0.6596 0.63357 0.45784 0.0
H969 H 0.68228 0.64652 0.4313 0.0
H970 H 0.69434 0.6513 0.2561 0.0
H971 H 0.70281 0.62867 0.23401 0.0
H972 H 0.0747 0.66206 0.70187 0.0
H973 H 0.04307 0.65083 0.72026 0.0
H974 H 0.04206 0.68335 0.5712 0.0
H975 H 0.07408 0.69513 0.55368 0.0
H976 H 0.02064 0.68142 0.672 0.0
H977 H 0.00697 0.61433 0.60139 0.0
H978 H 0.02252 0.62324 0.66412 0.0
H979 H 0.02835 0.63405 0.58986 0.0
C980 C 0.06779 0.66696 0.67333 0.0
C981 C 0.07674 0.67925 0.62569 0.0
C982 C 0.04971 0.66051 0.68384 0.0
C983 C 0.04011 0.66591 0.6461 0.0
C984 C 0.04921 0.67892 0.60057 0.0
H985 H 0.92624 0.59601 0.61785 0.0
H986 H 0.95753 0.61638 0.59374 0.0
C987 C 0.06745 0.68561 0.59056 0.0
C988 C 0.02044 0.65699 0.65191 0.0
H989 H 0.98321 0.61588 0.64996 0.0
C990 C 0.01237 0.66711 0.66668 0.0
C991 C 0.00966 0.63837 0.64373 0.0
C992 C 0.01728 0.62689 0.62326 0.0
C993 C 0.99382 0.65897 0.67529 0.0
C994 C 0.98317 0.64021 0.67032 0.0
C995 C 0.9913 0.63024 0.6542 0.0
C996 C 0.96359 0.63033 0.68129 0.0
C997 C 0.98584 0.67059 0.68869 0.0
C998 C 0.95632 0.63174 0.73772 0.0
C999 C 0.93822 0.62032 0.75089 0.0
C1000 C 0.92734 0.60705 0.70853 0.0
C1001 C 0.93444 0.60609 0.65139 0.0
C1002 C 0.95232 0.61773 0.63765 0.0
H1003 H 0.99447 0.68437 0.67122 0.0
H1004 H 0.97242 0.66508 0.66759 0.0
H1005 H 0.98453 0.6714 0.73941 0.0
H1006 H 0.96476 0.64101 0.77285 0.0
H1007 H 0.93303 0.62115 0.79553 0.0
H1008 H 0.38142 0.07096 0.87013 0.0
H1009 H 0.36128 0.03906 0.88932 0.0
H1010 H 0.38713 0.0438 0.06447 0.0
H1011 H 0.40771 0.07526 0.04384 0.0
H1012 H 0.38656 0.01843 0.00131 0.0
H1013 H 0.31855 0.00906 0.99413 0.0
H1014 H 0.33109 0.01959 0.92568 0.0
H1015 H 0.33823 0.03082 -0.00108 0.0
C1016 C 0.38248 0.06518 0.9132 0.0
C1017 C 0.39614 0.07543 0.95533 0.0
C1018 C 0.37091 0.047 0.92438 0.0
C1019 C 0.37256 0.03898 0.97864 0.0
C1020 C 0.3856 0.0496 0.02221 0.0
H1021 H 0.30717 0.92851 0.10231 0.0
H1022 H 0.31924 0.96058 0.08521 0.0
C1023 C 0.39736 0.06758 0.01041 0.0
C1024 C 0.36239 0.01931 0.98717 0.0
H1025 H 0.32069 0.98253 0.9881 0.0
C1026 C 0.37214 0.01066 -0.00108 0.0
C1027 C 0.34355 0.00909 0.98458 0.0
C1028 C 0.33223 0.01763 0.97578 0.0
C1029 C 0.3637 0.99221 0.00767 0.0
C1030 C 0.34495 0.98187 0.0021 0.0
C1031 C 0.33508 0.99045 0.99141 0.0
C1032 C 0.3356 0.96216 0.00722 0.0
C1033 C 0.37502 0.98403 0.02389 0.0
C1034 C 0.34021 0.95231 0.96753 0.0
C1035 C 0.33363 0.93419 0.97788 0.0
C1036 C 0.32194 0.92545 0.02717 0.0
C1037 C 0.31621 0.93496 0.06407 0.0
C1038 C 0.32307 0.95325 0.05432 0.0
H1039 H 0.38797 0.99401 0.04443 0.0
H1040 H 0.36807 0.97285 0.05705 0.0
H1041 H 0.37791 0.97882 0.98128 0.0
H1042 H 0.34947 0.9588 0.92989 0.0
H1043 H 0.33804 0.9271 0.9481 0.0
H1044 H 0.27072 0.39726 0.51424 0.0
H1045 H 0.27622 0.39823 0.62558 0.0
H1046 H 0.32235 0.45054 0.60593 0.0
H1047 H 0.31687 0.44975 0.495 0.0
H1048 H 0.32861 0.42587 0.67151 0.0
H1049 H 0.26953 0.42791 0.76124 0.0
H1050 H 0.26488 0.41038 0.70714 0.0
H1051 H 0.27687 0.43317 0.68203 0.0
C1052 C 0.28183 0.40909 0.53378 0.0
C1053 C 0.2934 0.4234 0.4957 0.0
C1054 C 0.28497 0.40962 0.59738 0.0
C1055 C 0.29964 0.4245 0.62393 0.0
C1056 C 0.31099 0.43891 0.58625 0.0
H1057 H 0.34898 0.45707 0.98361 0.0
H1058 H 0.34198 0.45378 0.87331 0.0
C1059 C 0.30787 0.4384 0.52286 0.0
C1060 C 0.30372 0.42483 0.69048 0.0
H1061 H 0.28828 0.42541 0.83496 0.0
C1062 C 0.31981 0.42578 0.70733 0.0
C1063 C 0.29215 0.42461 0.73691 0.0
C1064 C 0.27494 0.4241 0.72121 0.0
C1065 C 0.32464 0.42645 0.76955 0.0
C1066 C 0.31322 0.42653 0.81603 0.0
C1067 C 0.29701 0.42536 0.79918 0.0
C1068 C 0.31795 0.42815 0.88243 0.0
C1069 C 0.3418 0.4268 0.78491 0.0
C1070 C 0.30666 0.41495 0.92424 0.0
C1071 C 0.3106 0.41682 0.9873 0.0
C1072 C 0.32588 0.43199 0.00983 0.0
C1073 C 0.33729 0.44509 0.96768 0.0
C1074 C 0.3333 0.44323 0.90461 0.0
H1075 H 0.34628 0.42157 0.74624 0.0
H1076 H 0.35238 0.44076 0.79364 0.0
H1077 H 0.34031 0.41884 0.82701 0.0
H1078 H 0.29474 0.40321 0.90807 0.0
H1079 H 0.30165 0.4064 0.01844 0.0
H1080 H 0.89737 0.30301 0.34355 0.0
H1081 H 0.89392 0.2961 0.2332 0.0
H1082 H 0.89059 0.3433 0.19737 0.0
H1083 H 0.89402 0.35029 0.30767 0.0
H1084 H 0.86531 0.28967 0.15952 0.0
H1085 H 0.92745 0.34752 0.07158 0.0
H1086 H 0.92404 0.34152 0.15233 0.0
H1087 H 0.91434 0.35368 0.11865 0.0
C1088 C 0.89595 0.31195 0.31217 0.0
C1089 C 0.89597 0.32721 0.33436 0.0
C1090 C 0.89405 0.30801 0.24915 0.0
C1091 C 0.89221 0.31929 0.20709 0.0
C1092 C 0.8924 0.33463 0.22892 0.0
H1093 H 0.86975 0.31826 0.82008 0.0
H1094 H 0.87434 0.32365 0.93107 0.0
C1095 C 0.89436 0.33861 0.29196 0.0
C1096 C 0.88922 0.31455 0.14078 0.0
H1097 H 0.90552 0.32992 0.99652 0.0
C1098 C 0.87417 0.29838 0.12383 0.0
C1099 C 0.90084 0.32595 0.09448 0.0
C1100 C 0.91767 0.34306 0.11007 0.0
C1101 C 0.87014 0.29354 0.06155 0.0
C1102 C 0.88158 0.3051 0.0153 0.0
C1103 C 0.89675 0.32114 0.03225 0.0
C1104 C 0.87788 0.30106 0.94881 0.0
C1105 C 0.85342 0.27637 0.04561 0.0
C1106 C 0.87826 0.28649 0.9222 0.0
C1107 C 0.87572 0.28341 0.85859 0.0
C1108 C 0.87289 0.29494 0.82063 0.0
C1109 C 0.87219 0.30931 0.84787 0.0
C1110 C 0.87472 0.31237 0.91127 0.0
H1111 H 0.8442 0.27088 0.08561 0.0
H1112 H 0.84629 0.27839 0.00661 0.0
H1113 H 0.85706 0.26632 0.0311 0.0
H1114 H 0.88096 0.27778 0.95036 0.0
H1115 H 0.87656 0.27238 0.83897 0.0
H1116 H 0.58179 0.85256 0.1844 0.0
H1117 H 0.58145 0.85814 0.29536 0.0
H1118 H 0.58603 0.90901 0.25537 0.0
H1119 H 0.58662 0.90366 0.14487 0.0
H1120 H 0.60655 0.88851 0.37242 0.0
H1121 H 0.53885 0.88055 0.35631 0.0
H1122 H 0.54793 0.87281 0.29672 0.0
H1123 H 0.55518 0.89611 0.30325 0.0
C1124 C 0.58302 0.86503 0.19937 0.0
C1125 C 0.58391 0.87752 0.15598 0.0
C1126 C 0.58276 0.86817 0.26258 0.0
C1127 C 0.58338 0.88382 0.28313 0.0
C1128 C 0.58518 0.89669 0.24013 0.0
H1129 H 0.56741 0.91649 0.64724 0.0
H1130 H 0.57303 0.91545 0.53667 0.0
C1131 C 0.58542 0.89357 0.17708 0.0
C1132 C 0.58141 0.88639 0.34939 0.0
H1133 H 0.55304 0.88864 0.45338 0.0
C1134 C 0.59488 0.88856 0.3903 0.0
C1135 C 0.56618 0.88652 0.37211 0.0
C1136 C 0.55111 0.88374 0.33005 0.0
C1137 C 0.59356 0.89094 0.45376 0.0
C1138 C 0.57818 0.89076 0.47668 0.0
C1139 C 0.56482 0.88882 0.43554 0.0
C1140 C 0.57526 0.89173 0.54348 0.0
C1141 C 0.60872 0.89384 0.49555 0.0
C1142 C 0.57434 0.87856 0.5834 0.0
C1143 C 0.57112 0.87912 0.64619 0.0
C1144 C 0.5686 0.89278 0.67021 0.0
C1145 C 0.56923 0.90579 0.62995 0.0
C1146 C 0.57252 0.90526 0.56699 0.0
H1147 H 0.62139 0.89891 0.46948 0.0
H1148 H 0.61073 0.9034 0.5331 0.0
H1149 H 0.60559 0.88096 0.51695 0.0
H1150 H 0.57586 0.86769 0.56584 0.0
H1151 H 0.57029 0.86865 0.67573 0.0
H1152 H 0.65389 0.56948 0.9842 0.0
H1153 H 0.66059 0.57352 0.87309 0.0
H1154 H 0.70993 0.5741 0.90642 0.0
H1155 H 0.70322 0.56976 0.01658 0.0
H1156 H 0.69304 0.60265 0.81464 0.0
H1157 H 0.68343 0.53517 0.77157 0.0
H1158 H 0.67436 0.54029 0.83848 0.0
H1159 H 0.69759 0.54695 0.83585 0.0
C1160 C 0.66607 0.57033 0.96762 0.0
C1161 C 0.67805 0.56936 0.00906 0.0
C1162 C 0.66993 0.57274 0.90442 0.0
C1163 C 0.68568 0.57397 0.88184 0.0
C1164 C 0.69764 0.57303 0.92304 0.0
H1165 H 0.73205 0.58171 0.52111 0.0
H1166 H 0.72682 0.58139 0.63238 0.0
C1167 C 0.69385 0.57072 0.98602 0.0
C1168 C 0.68981 0.57636 0.8152 0.0
H1169 H 0.69611 0.55615 0.69042 0.0
C1170 C 0.69362 0.59248 0.78721 0.0
C1171 C 0.69065 0.56307 0.78005 0.0
C1172 C 0.68616 0.54532 0.80771 0.0
C1173 C 0.69862 0.59582 0.72482 0.0
C1174 C 0.69947 0.58251 0.68961 0.0
C1175 C 0.69557 0.56637 0.71771 0.0
C1176 C 0.7038 0.58473 0.62296 0.0
C1177 C 0.70333 0.61367 0.69757 0.0
C1178 C 0.69273 0.58693 0.58103 0.0
C1179 C 0.69576 0.58725 0.51764 0.0
C1180 C 0.70982 0.58516 0.49495 0.0
C1181 C 0.72122 0.5835 0.53717 0.0
C1182 C 0.71818 0.5832 0.60066 0.0
H1183 H 0.70698 0.62396 0.73397 0.0
H1184 H 0.71459 0.6183 0.66451 0.0
H1185 H 0.69163 0.61243 0.67227 0.0
H1186 H 0.68138 0.58784 0.59721 0.0
H1187 H 0.68691 0.58885 0.48645 0.0
H1188 H 0.13667 0.70305 0.35261 0.0
H1189 H 0.13874 0.70974 0.24249 0.0
H1190 H 0.09067 0.65972 0.20967 0.0
H1191 H 0.0883 0.65303 0.32069 0.0
H1192 H 0.1405 0.68806 0.14495 0.0
H1193 H 0.0822 0.69826 0.12455 0.0
H1194 H 0.09263 0.69915 0.19775 0.0
H1195 H 0.0783 0.67806 0.16181 0.0
C1196 C 0.12638 0.69356 0.3222 0.0
C1197 C 0.11219 0.67758 0.34534 0.0
C1198 C 0.12766 0.69737 0.25929 0.0
C1199 C 0.11473 0.68533 0.21836 0.0
C1200 C 0.10062 0.66927 0.24093 0.0
H1201 H 0.10252 0.68514 0.82299 0.0
H1202 H 0.09844 0.67951 0.93386 0.0
C1203 C 0.09937 0.6654 0.30406 0.0
C1204 C 0.11647 0.68947 0.15178 0.0
H1205 H 0.09743 0.69963 0.0323 0.0
C1206 C 0.13113 0.69062 0.1202 0.0
C1207 C 0.10417 0.69277 0.12005 0.0
C1208 C 0.08848 0.69215 0.15263 0.0
C1209 C 0.13371 0.69478 0.05715 0.0
C1210 C 0.12152 0.69828 0.02544 0.0
C1211 C 0.1068 0.69705 0.057 0.0
C1212 C 0.12353 0.70263 0.95889 0.0
C1213 C 0.14923 0.69497 0.02478 0.0
C1214 C 0.13875 0.7178 0.9365 0.0
C1215 C 0.14123 0.72095 0.873 0.0
C1216 C 0.12848 0.709 0.83102 0.0
C1217 C 0.11282 0.69433 0.85397 0.0
C1218 C 0.11038 0.69118 0.91734 0.0
H1219 H 0.15458 0.68775 0.05163 0.0
H1220 H 0.14531 0.68884 0.97822 0.0
H1221 H 0.16012 0.70896 0.01909 0.0
H1222 H 0.14887 0.72699 0.96808 0.0
H1223 H 0.1534 0.73235 0.85673 0.0
H1224 H 0.43445 0.13527 0.68401 0.0
H1225 H 0.42984 0.13748 0.57394 0.0
H1226 H 0.43128 0.08917 0.54055 0.0
H1227 H 0.43557 0.08667 0.65154 0.0
H1228 H 0.4529 0.13915 0.47557 0.0
H1229 H 0.3843 0.08095 0.45656 0.0
H1230 H 0.39406 0.09131 0.52964 0.0
H1231 H 0.40063 0.07693 0.49293 0.0
C1232 C 0.43354 0.12497 0.65348 0.0
C1233 C 0.43515 0.11066 0.67649 0.0
C1234 C 0.43103 0.12633 0.59057 0.0
C1235 C 0.42998 0.11337 0.54947 0.0
C1236 C 0.43179 0.09916 0.5719 0.0
H1237 H 0.41699 0.10076 0.15442 0.0
H1238 H 0.41876 0.09687 0.26529 0.0
C1239 C 0.4344 0.09783 0.63504 0.0
C1240 C 0.42746 0.11512 0.48291 0.0
H1241 H 0.39804 0.09609 0.36401 0.0
C1242 C 0.44091 0.12977 0.45107 0.0
C1243 C 0.41179 0.10283 0.45146 0.0
C1244 C 0.39677 0.08716 0.48427 0.0
C1245 C 0.43922 0.13235 0.38806 0.0
C1246 C 0.42347 0.12016 0.3566 0.0
C1247 C 0.41003 0.10546 0.38846 0.0
C1248 C 0.42103 0.1221 0.29 0.0
C1249 C 0.45451 0.14786 0.35543 0.0
C1250 C 0.42116 0.13735 0.26735 0.0
C1251 C 0.42037 0.13972 0.20379 0.0
C1252 C 0.41935 0.12684 0.16198 0.0
C1253 C 0.41826 0.11116 0.18522 0.0
C1254 C 0.4191 0.10883 0.24862 0.0
H1255 H 0.46713 0.1532 0.382 0.0
H1256 H 0.45663 0.14392 0.30878 0.0
H1257 H 0.45141 0.15875 0.34992 0.0
H1258 H 0.42225 0.14757 0.29875 0.0
H1259 H 0.42122 0.15191 0.18731 0.0
H1260 H 0.5861 0.68348 0.18195 0.0
H1261 H 0.58577 0.67789 0.07136 0.0
H1262 H 0.58199 0.72469 0.03265 0.0
H1263 H 0.58205 0.73026 0.14369 0.0
H1264 H 0.55715 0.67229 0.99235 0.0
H1265 H 0.62193 0.72911 0.91567 0.0
H1266 H 0.61731 0.72208 0.99539 0.0
H1267 H 0.60845 0.735 0.96204 0.0
C1268 C 0.5852 0.6926 0.15002 0.0
C1269 C 0.58386 0.70721 0.17153 0.0
C1270 C 0.58515 0.68945 0.08687 0.0
C1271 C 0.58395 0.70092 0.04405 0.0
C1272 C 0.58321 0.71585 0.06512 0.0
H1273 H 0.56937 0.70135 0.65188 0.0
H1274 H 0.57402 0.70761 0.76229 0.0
C1275 C 0.58324 0.71901 0.12844 0.0
C1276 C 0.58209 0.69646 0.97766 0.0
H1277 H 0.60167 0.71142 0.83704 0.0
C1278 C 0.56692 0.68075 0.95832 0.0
C1279 C 0.59487 0.7076 0.93373 0.0
C1280 C 0.61165 0.72433 0.95257 0.0
C1281 C 0.56394 0.67607 0.89571 0.0
C1282 C 0.57668 0.68724 0.85161 0.0
C1283 C 0.59195 0.70288 0.87108 0.0
C1284 C 0.57408 0.68331 0.78476 0.0
C1285 C 0.54691 0.65953 0.87718 0.0
C1286 C 0.5727 0.66762 0.76081 0.0
C1287 C 0.57 0.66398 0.69758 0.0
C1288 C 0.56888 0.6761 0.65733 0.0
C1289 C 0.57044 0.69187 0.68155 0.0
C1290 C 0.57303 0.69544 0.74464 0.0
H1291 H 0.53671 0.65495 0.91434 0.0
H1292 H 0.54123 0.6619 0.83464 0.0
H1293 H 0.54977 0.64863 0.86761 0.0
H1294 H 0.57383 0.65825 0.79095 0.0
H1295 H 0.56908 0.65185 0.68003 0.0
H1296 H 0.86832 0.56962 0.9828 0.0
H1297 H 0.86603 0.57412 0.09282 0.0
H1298 H 0.91404 0.57212 0.12675 0.0
H1299 H 0.91665 0.56799 0.01576 0.0
H1300 H 0.86377 0.55078 0.18995 0.0
H1301 H 0.92264 0.61881 0.21277 0.0
H1302 H 0.91253 0.60939 0.13908 0.0
H1303 H 0.92655 0.60244 0.1763 0.0
C1304 C 0.87856 0.57041 0.01341 0.0
C1305 C 0.8928 0.56867 0.99056 0.0
C1306 C 0.87715 0.57285 0.0763 0.0
C1307 C 0.88999 0.57369 0.11755 0.0
C1308 C 0.90415 0.57178 0.09528 0.0
H1309 H 0.90138 0.58416 0.51309 0.0
H1310 H 0.90546 0.58275 0.40215 0.0
C1311 C 0.90554 0.56926 0.03214 0.0
C1312 C 0.88811 0.576 0.18414 0.0
H1313 H 0.90722 0.60476 0.30467 0.0
C1314 C 0.87323 0.56258 0.21513 0.0
C1315 C 0.9005 0.59143 0.21646 0.0
C1316 C 0.91641 0.60645 0.18457 0.0
C1317 C 0.87052 0.56406 0.27815 0.0
C1318 C 0.88284 0.57956 0.31047 0.0
C1319 C 0.89776 0.59297 0.27949 0.0
C1320 C 0.8808 0.58172 0.37713 0.0
C1321 C 0.85474 0.54883 0.30988 0.0
C1322 C 0.86581 0.58212 0.39958 0.0
C1323 C 0.86334 0.58274 0.46313 0.0
C1324 C 0.87585 0.583 0.50505 0.0
C1325 C 0.89126 0.58347 0.48209 0.0
C1326 C 0.89371 0.58284 0.4187 0.0
H1327 H 0.8491 0.53635 0.2824 0.0
H1328 H 0.8585 0.54628 0.35623 0.0
H1329 H 0.84413 0.55231 0.31605 0.0
H1330 H 0.85588 0.58162 0.36799 0.0
H1331 H 0.85137 0.58239 0.47953 0.0
H1332 H 0.30055 0.89352 0.30047 0.0
H1333 H 0.29361 0.89024 0.41077 0.0
H1334 H 0.34198 0.88929 0.44839 0.0
H1335 H 0.34897 0.89245 0.33814 0.0
H1336 H 0.28859 0.8619 0.48561 0.0
H1337 H 0.34409 0.92594 0.57232 0.0
H1338 H 0.33801 0.92212 0.49167 0.0
H1339 H 0.35123 0.91361 0.52534 0.0
C1340 C 0.30974 0.89265 0.33218 0.0
C1341 C 0.32531 0.89321 0.31046 0.0
C1342 C 0.30578 0.89086 0.39519 0.0
C1343 C 0.31737 0.88972 0.43771 0.0
C1344 C 0.33305 0.89053 0.4164 0.0
H1345 H 0.31843 0.86888 0.82441 0.0
H1346 H 0.32363 0.874 0.71353 0.0
C1347 C 0.33703 0.89235 0.35337 0.0
C1348 C 0.3126 0.88672 0.50396 0.0
H1349 H 0.32735 0.90379 0.64785 0.0
C1350 C 0.29695 0.87112 0.52115 0.0
C1351 C 0.32355 0.8988 0.55001 0.0
C1352 C 0.34007 0.91614 0.53402 0.0
C1353 C 0.29225 0.86699 0.58349 0.0
C1354 C 0.3034 0.87892 0.62956 0.0
C1355 C 0.31888 0.89466 0.6123 0.0
C1356 C 0.29962 0.87509 0.69615 0.0
C1357 C 0.27574 0.84965 0.59964 0.0
C1358 C 0.28435 0.87396 0.72301 0.0
C1359 C 0.28136 0.87108 0.78656 0.0
C1360 C 0.29369 0.86944 0.82423 0.0
C1361 C 0.30884 0.87036 0.79682 0.0
C1362 C 0.31179 0.87321 0.73347 0.0
H1363 H 0.27082 0.8403 0.55988 0.0
H1364 H 0.27836 0.84306 0.63901 0.0
H1365 H 0.26502 0.85238 0.61362 0.0
H1366 H 0.27496 0.87569 0.69506 0.0
H1367 H 0.2697 0.87066 0.80637 0.0
H1368 H 0.43449 0.29888 0.64018 0.0
H1369 H 0.42998 0.29217 0.75036 0.0
H1370 H 0.42961 0.34109 0.78249 0.0
H1371 H 0.43385 0.34779 0.67141 0.0
H1372 H 0.45297 0.31482 0.84866 0.0
H1373 H 0.38308 0.30088 0.86673 0.0
H1374 H 0.393 0.30032 0.79399 0.0
H1375 H 0.39878 0.32128 0.82901 0.0
C1376 C 0.43321 0.30812 0.67046 0.0
C1377 C 0.43433 0.32379 0.6471 0.0
C1378 C 0.43075 0.30431 0.73342 0.0
C1379 C 0.42924 0.31602 0.77419 0.0
C1380 C 0.43051 0.33178 0.75139 0.0
H1381 H 0.41544 0.31458 0.16967 0.0
H1382 H 0.41699 0.32038 0.05891 0.0
C1383 C 0.43308 0.33566 0.68821 0.0
C1384 C 0.42688 0.31186 0.84083 0.0
H1385 H 0.3971 0.30003 0.95927 0.0
C1386 C 0.44077 0.31156 0.87297 0.0
C1387 C 0.41094 0.30767 0.87202 0.0
C1388 C 0.3955 0.3074 0.83884 0.0
C1389 C 0.43923 0.30736 0.93601 0.0
C1390 C 0.42318 0.30291 0.96717 0.0
C1391 C 0.40932 0.30332 0.93504 0.0
C1392 C 0.42082 0.29837 0.03365 0.0
C1393 C 0.45495 0.30813 0.96897 0.0
C1394 C 0.42187 0.28372 0.05594 0.0
C1395 C 0.4212 0.28048 0.11941 0.0
C1396 C 0.41938 0.2918 0.16153 0.0
C1397 C 0.41734 0.30588 0.13864 0.0
C1398 C 0.41806 0.30913 0.0753 0.0
H1399 H 0.46753 0.31604 0.94272 0.0
H1400 H 0.45664 0.31404 0.01572 0.0
H1401 H 0.45269 0.29441 0.97426 0.0
H1402 H 0.42361 0.27502 0.02432 0.0
H1403 H 0.4228 0.26954 0.13557 0.0
H1404 H 0.1296 0.39908 0.48191 0.0
H1405 H 0.126 0.40063 0.37023 0.0
H1406 H 0.13204 0.45285 0.39125 0.0
H1407 H 0.1362 0.45165 0.5023 0.0
H1408 H 0.09942 0.40455 0.31139 0.0
H1409 H 0.16659 0.46013 0.25116 0.0
H1410 H 0.16189 0.44829 0.3236 0.0
H1411 H 0.15613 0.46537 0.31284 0.0
C1412 C 0.1305 0.41103 0.4626 0.0
C1413 C 0.13317 0.42524 0.50099 0.0
C1414 C 0.12832 0.41183 0.3989 0.0
C1415 C 0.12895 0.42693 0.37251 0.0
C1416 C 0.13181 0.4412 0.41057 0.0
H1417 H 0.11163 0.45873 0.01309 0.0
H1418 H 0.11555 0.45559 0.12348 0.0
C1419 C 0.13397 0.44041 0.47412 0.0
C1420 C 0.12575 0.42747 0.30563 0.0
H1421 H 0.14402 0.45166 0.17444 0.0
C1422 C 0.10921 0.41473 0.28124 0.0
C1423 C 0.13857 0.44081 0.26661 0.0
C1424 C 0.15686 0.45433 0.28966 0.0
C1425 C 0.10495 0.41528 0.21903 0.0
C1426 C 0.11766 0.42879 0.18033 0.0
C1427 C 0.13427 0.4414 0.20452 0.0
C1428 C 0.11409 0.43004 0.11431 0.0
C1429 C 0.08675 0.40169 0.19553 0.0
C1430 C 0.11189 0.41666 0.0729 0.0
C1431 C 0.10959 0.41839 0.00995 0.0
C1432 C 0.10951 0.43356 0.98727 0.0
C1433 C 0.11139 0.44679 0.02915 0.0
C1434 C 0.11376 0.44508 0.09212 0.0
H1435 H 0.07723 0.3948 0.2339 0.0
H1436 H 0.08123 0.40806 0.16504 0.0
H1437 H 0.08787 0.3915 0.16802 0.0
H1438 H 0.11233 0.40506 0.08909 0.0
H1439 H 0.10801 0.4079 0.97895 0.0
H1440 H 0.6533 0.08495 0.34607 0.0
H1441 H 0.65975 0.08642 0.45691 0.0
H1442 H 0.70911 0.13561 0.42873 0.0
H1443 H 0.70281 0.13417 0.31837 0.0
H1444 H 0.71309 0.11192 0.50263 0.0
H1445 H 0.65639 0.11973 0.58178 0.0
H1446 H 0.6501 0.10041 0.53478 0.0
H1447 H 0.66322 0.12227 0.50194 0.0
C1448 C 0.66544 0.09613 0.36372 0.0
C1449 C 0.67755 0.10942 0.32361 0.0
C1450 C 0.66911 0.09696 0.42692 0.0
C1451 C 0.68482 0.11123 0.45101 0.0
C1452 C 0.69693 0.12447 0.41101 0.0
H1453 H 0.73164 0.15011 0.80983 0.0
H1454 H 0.72604 0.14461 0.69887 0.0
C1455 C 0.69334 0.12359 0.34794 0.0
C1456 C 0.68879 0.11244 0.51786 0.0
H1457 H 0.67382 0.11651 0.65925 0.0
C1458 C 0.70452 0.11292 0.53694 0.0
C1459 C 0.67758 0.11379 0.56235 0.0
C1460 C 0.66096 0.11419 0.54433 0.0
C1461 C 0.70929 0.11463 0.59954 0.0
C1462 C 0.69811 0.11604 0.64385 0.0
C1463 C 0.68231 0.11536 0.62492 0.0
C1464 C 0.70266 0.11859 0.71021 0.0
C1465 C 0.72614 0.11476 0.61794 0.0
C1466 C 0.69143 0.10573 0.75298 0.0
C1467 C 0.69462 0.10881 0.81616 0.0
C1468 C 0.709 0.12492 0.83775 0.0
C1469 C 0.72058 0.13753 0.79463 0.0
C1470 C 0.71739 0.13441 0.7313 0.0
H1471 H 0.73105 0.10951 0.58059 0.0
H1472 H 0.73668 0.12864 0.62802 0.0
H1473 H 0.72397 0.1067 0.66033 0.0
H1474 H 0.68002 0.09343 0.73744 0.0
H1475 H 0.68568 0.09864 0.84803 0.0
loop_
_geom_bond_atom_site_label_1
_geom_bond_atom_site_label_2
_geom_bond_distance
_geom_bond_site_symmetry_2
_ccdc_geom_bond_type
Co0 N4 2.148 . S
Co0 N10 2.128 . S
Co0 N20 2.194 . S
Co0 O25 2.351 . S
Co0 O26 2.155 . S
Co0 O27 2.096 . S
C1 N4 1.301 . S
C1 N5 1.328 . S
C1 H6 0.930 . S
C2 C3 1.333 . S
C2 N4 1.317 . S
C2 H7 0.930 . S
C3 C2 1.333 . S
C3 N5 1.350 . S
C3 H29 0.931 . S
N4 Co0 2.148 . S
N4 C1 1.301 . S
N4 C2 1.317 . S
N5 C1 1.328 . S
N5 C3 1.350 . S
H6 C1 0.930 . S
H7 C2 0.930 . S
C8 O9 1.224 . S
C8 O27 1.247 . S
O9 C8 1.224 . S
N10 Co0 2.128 . S
N10 C11 1.355 . S
N10 C13 1.311 . S
C11 N10 1.355 . S
C11 C12 1.363 . S
C11 H23 0.929 . S
C12 C11 1.363 . S
C12 N14 1.375 . S
C12 H30 0.931 . S
C13 N10 1.311 . S
C13 N14 1.347 . S
C13 H24 0.929 . S
N14 C12 1.375 . S
N14 C13 1.347 . S
C15 C18 1.365 . S
C15 N20 1.328 . S
C15 H21 0.929 . S
C16 C17 1.362 . S
C16 C19 1.378 . S
C16 H31 0.929 . S
C17 C16 1.362 . S
C17 C18 1.366 . S
C18 C15 1.365 . S
C18 C17 1.366 . S
C18 H32 0.930 . S
C19 C16 1.378 . S
C19 N20 1.315 . S
C19 H22 0.930 . S
N20 Co0 2.194 . S
N20 C15 1.328 . S
N20 C19 1.315 . S
H21 C15 0.929 . S
H22 C19 0.930 . S
H23 C11 0.929 . S
H24 C13 0.929 . S
O25 Co0 2.351 . S
O25 C28 1.244 . S
O26 Co0 2.155 . S
O26 C28 1.240 . S
O27 Co0 2.096 . S
O27 C8 1.247 . S
C28 O25 1.244 . S
C28 O26 1.240 . S
H29 C3 0.931 . S
H30 C12 0.931 . S
H31 C16 0.929 . S
H32 C18 0.930 . S
Co33 N37 2.148 . S
Co33 N43 2.128 . S
Co33 N53 2.194 . S
Co33 O58 2.351 . S
Co33 O59 2.155 . S
Co33 O60 2.096 . S
C34 N37 1.301 . S
C34 N38 1.328 . S
C34 H39 0.930 . S
C35 C36 1.333 . S
C35 N37 1.317 . S
C35 H40 0.930 . S
C36 C35 1.333 . S
C36 N38 1.350 . S
C36 H62 0.931 . S
N37 Co33 2.148 . S
N37 C34 1.301 . S
N37 C35 1.317 . S
N38 C34 1.328 . S
N38 C36 1.350 . S
H39 C34 0.930 . S
H40 C35 0.930 . S
C41 O42 1.224 . S
C41 O60 1.247 . S
O42 C41 1.224 . S
N43 Co33 2.128 . S
N43 C44 1.355 . S
N43 C46 1.311 . S
C44 N43 1.355 . S
C44 C45 1.363 . S
C44 H56 0.929 . S
C45 C44 1.363 . S
C45 N47 1.375 . S
C45 H63 0.931 . S
C46 N43 1.311 . S
C46 N47 1.347 . S
C46 H57 0.929 . S
N47 C45 1.375 . S
N47 C46 1.347 . S
C48 C51 1.365 . S
C48 N53 1.328 . S
C48 H54 0.929 . S
C49 C50 1.362 . S
C49 C52 1.378 . S
C49 H64 0.929 . S
C50 C49 1.362 . S
C50 C51 1.366 . S
C51 C48 1.365 . S
C51 C50 1.366 . S
C51 H65 0.930 . S
C52 C49 1.378 . S
C52 N53 1.315 . S
C52 H55 0.930 . S
N53 Co33 2.194 . S
N53 C48 1.328 . S
N53 C52 1.315 . S
H54 C48 0.929 . S
H55 C52 0.930 . S
H56 C44 0.929 . S
H57 C46 0.929 . S
O58 Co33 2.351 . S
O58 C61 1.244 . S
O59 Co33 2.155 . S
O59 C61 1.240 . S
O60 Co33 2.096 . S
O60 C41 1.247 . S
C61 O58 1.244 . S
C61 O59 1.240 . S
H62 C36 0.931 . S
H63 C45 0.931 . S
H64 C49 0.929 . S
H65 C51 0.930 . S
Co66 N70 2.148 1_556 S
Co66 N76 2.128 . S
Co66 N86 2.194 . S
Co66 O91 2.351 . S
Co66 O92 2.155 . S
Co66 O93 2.096 . S
C67 N70 1.301 . S
C67 N71 1.328 . S
C67 H72 0.930 . S
C68 C69 1.333 . S
C68 N70 1.317 . S
C68 H73 0.930 . S
C69 C68 1.333 . S
C69 N71 1.350 . S
C69 H95 0.931 . S
N70 Co66 2.148 1_554 S
N70 C67 1.301 . S
N70 C68 1.317 . S
N71 C67 1.328 . S
N71 C69 1.350 . S
H72 C67 0.930 . S
H73 C68 0.930 . S
C74 O75 1.224 . S
C74 O93 1.247 . S
O75 C74 1.224 . S
N76 Co66 2.128 . S
N76 C77 1.355 . S
N76 C79 1.311 . S
C77 N76 1.355 . S
C77 C78 1.363 . S
C77 H89 0.929 . S
C78 C77 1.363 . S
C78 N80 1.375 . S
C78 H96 0.931 . S
C79 N76 1.311 . S
C79 N80 1.347 . S
C79 H90 0.929 . S
N80 C78 1.375 . S
N80 C79 1.347 . S
C81 C84 1.365 . S
C81 N86 1.328 . S
C81 H87 0.929 . S
C82 C83 1.362 . S
C82 C85 1.378 . S
C82 H97 0.929 . S
C83 C82 1.362 . S
C83 C84 1.366 . S
C84 C81 1.365 . S
C84 C83 1.366 . S
C84 H98 0.930 . S
C85 C82 1.378 . S
C85 N86 1.315 . S
C85 H88 0.930 . S
N86 Co66 2.194 . S
N86 C81 1.328 . S
N86 C85 1.315 . S
H87 C81 0.929 . S
H88 C85 0.930 . S
H89 C77 0.929 . S
H90 C79 0.929 . S
O91 Co66 2.351 . S
O91 C94 1.244 . S
O92 Co66 2.155 . S
O92 C94 1.240 . S
O93 Co66 2.096 . S
O93 C74 1.247 . S
C94 O91 1.244 . S
C94 O92 1.240 . S
H95 C69 0.931 . S
H96 C78 0.931 . S
H97 C82 0.929 . S
H98 C84 0.930 . S
Co99 N103 2.148 . S
Co99 N109 2.128 . S
Co99 N119 2.194 . S
Co99 O124 2.351 . S
Co99 O125 2.155 . S
Co99 O126 2.096 . S
C100 N103 1.301 . S
C100 N104 1.328 . S
C100 H105 0.930 . S
C101 C102 1.333 . S
C101 N103 1.317 . S
C101 H106 0.930 . S
C102 C101 1.333 . S
C102 N104 1.350 . S
C102 H128 0.931 . S
N103 Co99 2.148 . S
N103 C100 1.301 . S
N103 C101 1.317 . S
N104 C100 1.328 . S
N104 C102 1.350 . S
H105 C100 0.930 . S
H106 C101 0.930 . S
C107 O108 1.224 . S
C107 O126 1.247 . S
O108 C107 1.224 . S
N109 Co99 2.128 . S
N109 C110 1.355 . S
N109 C112 1.311 . S
C110 N109 1.355 . S
C110 C111 1.363 . S
C110 H122 0.929 . S
C111 C110 1.363 . S
C111 N113 1.375 . S
C111 H129 0.931 . S
C112 N109 1.311 . S
C112 N113 1.347 . S
C112 H123 0.929 . S
N113 C111 1.375 . S
N113 C112 1.347 . S
C114 C117 1.365 . S
C114 N119 1.328 . S
C114 H120 0.929 . S
C115 C116 1.362 . S
C115 C118 1.378 . S
C115 H130 0.929 . S
C116 C115 1.362 . S
C116 C117 1.366 . S
C117 C114 1.365 . S
C117 C116 1.366 . S
C117 H131 0.930 . S
C118 C115 1.378 . S
C118 N119 1.315 . S
C118 H121 0.930 . S
N119 Co99 2.194 . S
N119 C114 1.328 . S
N119 C118 1.315 . S
H120 C114 0.929 . S
H121 C118 0.930 . S
H122 C110 0.929 . S
H123 C112 0.929 . S
O124 Co99 2.351 . S
O124 C127 1.244 . S
O125 Co99 2.155 . S
O125 C127 1.240 . S
O126 Co99 2.096 . S
O126 C107 1.247 . S
C127 O124 1.244 . S
C127 O125 1.240 . S
H128 C102 0.931 . S
H129 C111 0.931 . S
H130 C115 0.929 . S
H131 C117 0.930 . S
Co132 N136 2.148 . S
Co132 N142 2.128 . S
Co132 N152 2.194 . S
Co132 O157 2.351 . S
Co132 O158 2.155 . S
Co132 O159 2.096 . S
C133 N136 1.301 . S
C133 N137 1.328 . S
C133 H138 0.930 . S
C134 C135 1.333 . S
C134 N136 1.317 . S
C134 H139 0.930 . S
C135 C134 1.333 . S
C135 N137 1.350 . S
C135 H161 0.931 . S
N136 Co132 2.148 . S
N136 C133 1.301 . S
N136 C134 1.317 . S
N137 C133 1.328 . S
N137 C135 1.350 . S
H138 C133 0.930 . S
H139 C134 0.930 . S
C140 O141 1.224 . S
C140 O159 1.247 . S
O141 C140 1.224 . S
N142 Co132 2.128 . S
N142 C143 1.355 . S
N142 C145 1.311 . S
C143 N142 1.355 . S
C143 C144 1.363 . S
C143 H155 0.929 . S
C144 C143 1.363 . S
C144 N146 1.375 . S
C144 H162 0.931 . S
C145 N142 1.311 . S
C145 N146 1.347 . S
C145 H156 0.929 . S
N146 C144 1.375 . S
N146 C145 1.347 . S
C147 C150 1.365 . S
C147 N152 1.328 . S
C147 H153 0.929 . S
C148 C149 1.362 . S
C148 C151 1.378 . S
C148 H163 0.929 . S
C149 C148 1.362 . S
C149 C150 1.366 . S
C150 C147 1.365 . S
C150 C149 1.366 . S
C150 H164 0.930 . S
C151 C148 1.378 . S
C151 N152 1.315 . S
C151 H154 0.930 . S
N152 Co132 2.194 . S
N152 C147 1.328 . S
N152 C151 1.315 . S
H153 C147 0.929 . S
H154 C151 0.930 . S
H155 C143 0.929 . S
H156 C145 0.929 . S
O157 Co132 2.351 . S
O157 C160 1.244 . S
O158 Co132 2.155 . S
O158 C160 1.240 . S
O159 Co132 2.096 . S
O159 C140 1.247 . S
C160 O157 1.244 . S
C160 O158 1.240 . S
H161 C135 0.931 . S
H162 C144 0.931 . S
H163 C148 0.929 . S
H164 C150 0.930 . S
Co165 N169 2.148 1_556 S
Co165 N175 2.128 . S
Co165 N185 2.194 . S
Co165 O190 2.351 . S
Co165 O191 2.155 . S
Co165 O192 2.096 . S
C166 N169 1.301 . S
C166 N170 1.328 . S
C166 H171 0.930 . S
C167 C168 1.333 . S
C167 N169 1.317 . S
C167 H172 0.930 . S
C168 C167 1.333 . S
C168 N170 1.350 . S
C168 H194 0.931 . S
N169 Co165 2.148 1_554 S
N169 C166 1.301 . S
N169 C167 1.317 . S
N170 C166 1.328 . S
N170 C168 1.350 . S
H171 C166 0.930 . S
H172 C167 0.930 . S
C173 O174 1.224 . S
C173 O192 1.247 . S
O174 C173 1.224 . S
N175 Co165 2.128 . S
N175 C176 1.355 . S
N175 C178 1.311 . S
C176 N175 1.355 . S
C176 C177 1.363 . S
C176 H188 0.929 . S
C177 C176 1.363 . S
C177 N179 1.375 . S
C177 H195 0.931 . S
C178 N175 1.311 . S
C178 N179 1.347 . S
C178 H189 0.929 . S
N179 C177 1.375 . S
N179 C178 1.347 . S
C180 C183 1.365 . S
C180 N185 1.328 . S
C180 H186 0.929 . S
C181 C182 1.362 . S
C181 C184 1.378 . S
C181 H196 0.929 . S
C182 C181 1.362 . S
C182 C183 1.366 . S
C183 C180 1.365 . S
C183 C182 1.366 . S
C183 H197 0.930 . S
C184 C181 1.378 . S
C184 N185 1.315 . S
C184 H187 0.930 . S
N185 Co165 2.194 . S
N185 C180 1.328 . S
N185 C184 1.315 . S
H186 C180 0.929 . S
H187 C184 0.930 . S
H188 C176 0.929 . S
H189 C178 0.929 . S
O190 Co165 2.351 . S
O190 C193 1.244 . S
O191 Co165 2.155 . S
O191 C193 1.240 . S
O192 Co165 2.096 . S
O192 C173 1.247 . S
C193 O190 1.244 . S
C193 O191 1.240 . S
H194 C168 0.931 . S
H195 C177 0.931 . S
H196 C181 0.929 . S
H197 C183 0.930 . S
Co198 N202 2.148 . S
Co198 N208 2.128 . S
Co198 N218 2.194 . S
Co198 O223 2.351 . S
Co198 O224 2.155 . S
Co198 O225 2.096 . S
C199 N202 1.301 . S
C199 N203 1.328 . S
C199 H204 0.930 . S
C200 C201 1.333 . S
C200 N202 1.317 . S
C200 H205 0.930 . S
C201 C200 1.333 . S
C201 N203 1.350 . S
C201 H227 0.931 . S
N202 Co198 2.148 . S
N202 C199 1.301 . S
N202 C200 1.317 . S
N203 C199 1.328 . S
N203 C201 1.350 . S
H204 C199 0.930 . S
H205 C200 0.930 . S
C206 O207 1.224 . S
C206 O225 1.247 . S
O207 C206 1.224 . S
N208 Co198 2.128 . S
N208 C209 1.355 . S
N208 C211 1.311 . S
C209 N208 1.355 . S
C209 C210 1.363 . S
C209 H221 0.929 . S
C210 C209 1.363 . S
C210 N212 1.375 . S
C210 H228 0.931 . S
C211 N208 1.311 . S
C211 N212 1.347 . S
C211 H222 0.929 . S
N212 C210 1.375 . S
N212 C211 1.347 . S
C213 C216 1.365 . S
C213 N218 1.328 . S
C213 H219 0.929 . S
C214 C215 1.362 . S
C214 C217 1.378 . S
C214 H229 0.929 . S
C215 C214 1.362 . S
C215 C216 1.366 . S
C216 C213 1.365 . S
C216 C215 1.366 . S
C216 H230 0.930 . S
C217 C214 1.378 . S
C217 N218 1.315 . S
C217 H220 0.930 . S
N218 Co198 2.194 . S
N218 C213 1.328 . S
N218 C217 1.315 . S
H219 C213 0.929 . S
H220 C217 0.930 . S
H221 C209 0.929 . S
H222 C211 0.929 . S
O223 Co198 2.351 . S
O223 C226 1.244 . S
O224 Co198 2.155 . S
O224 C226 1.240 . S
O225 Co198 2.096 . S
O225 C206 1.247 . S
C226 O223 1.244 . S
C226 O224 1.240 . S
H227 C201 0.931 . S
H228 C210 0.931 . S
H229 C214 0.929 . S
H230 C216 0.930 . S
Co231 N235 2.148 . S
Co231 N241 2.128 . S
Co231 N251 2.194 . S
Co231 O256 2.351 . S
Co231 O257 2.155 . S
Co231 O258 2.096 . S
C232 N235 1.301 . S
C232 N236 1.328 . S
C232 H237 0.930 . S
C233 C234 1.333 . S
C233 N235 1.317 . S
C233 H238 0.930 . S
C234 C233 1.333 . S
C234 N236 1.350 . S
C234 H260 0.931 . S
N235 Co231 2.148 . S
N235 C232 1.301 . S
N235 C233 1.317 . S
N236 C232 1.328 . S
N236 C234 1.350 . S
H237 C232 0.930 . S
H238 C233 0.930 . S
C239 O240 1.224 . S
C239 O258 1.247 . S
O240 C239 1.224 . S
N241 Co231 2.128 . S
N241 C242 1.355 . S
N241 C244 1.311 . S
C242 N241 1.355 . S
C242 C243 1.363 . S
C242 H254 0.929 . S
C243 C242 1.363 . S
C243 N245 1.375 . S
C243 H261 0.931 . S
C244 N241 1.311 . S
C244 N245 1.347 . S
C244 H255 0.929 . S
N245 C243 1.375 . S
N245 C244 1.347 . S
C246 C249 1.365 . S
C246 N251 1.328 . S
C246 H252 0.929 . S
C247 C248 1.362 . S
C247 C250 1.378 . S
C247 H262 0.929 . S
C248 C247 1.362 . S
C248 C249 1.366 . S
C249 C246 1.365 . S
C249 C248 1.366 . S
C249 H263 0.930 . S
C250 C247 1.378 . S
C250 N251 1.315 . S
C250 H253 0.930 . S
N251 Co231 2.194 . S
N251 C246 1.328 . S
N251 C250 1.315 . S
H252 C246 0.929 . S
H253 C250 0.930 . S
H254 C242 0.929 . S
H255 C244 0.929 . S
O256 Co231 2.351 . S
O256 C259 1.244 . S
O257 Co231 2.155 . S
O257 C259 1.240 . S
O258 Co231 2.096 . S
O258 C239 1.247 . S
C259 O256 1.244 . S
C259 O257 1.240 . S
H260 C234 0.931 . S
H261 C243 0.931 . S
H262 C247 0.929 . S
H263 C249 0.930 . S
Co264 N268 2.148 1_554 S
Co264 N274 2.128 . S
Co264 N284 2.194 . S
Co264 O289 2.351 . S
Co264 O290 2.155 . S
Co264 O291 2.096 . S
C265 N268 1.301 . S
C265 N269 1.328 . S
C265 H270 0.930 . S
C266 C267 1.333 . S
C266 N268 1.317 . S
C266 H271 0.930 . S
C267 C266 1.333 . S
C267 N269 1.350 . S
C267 H293 0.931 . S
N268 Co264 2.148 1_556 S
N268 C265 1.301 . S
N268 C266 1.317 . S
N269 C265 1.328 . S
N269 C267 1.350 . S
H270 C265 0.930 . S
H271 C266 0.930 . S
C272 O273 1.224 . S
C272 O291 1.247 . S
O273 C272 1.224 . S
N274 Co264 2.128 . S
N274 C275 1.355 . S
N274 C277 1.311 . S
C275 N274 1.355 . S
C275 C276 1.363 . S
C275 H287 0.929 . S
C276 C275 1.363 . S
C276 N278 1.375 . S
C276 H294 0.931 . S
C277 N274 1.311 . S
C277 N278 1.347 . S
C277 H288 0.929 . S
N278 C276 1.375 . S
N278 C277 1.347 . S
C279 C282 1.365 . S
C279 N284 1.328 . S
C279 H285 0.929 . S
C280 C281 1.362 . S
C280 C283 1.378 . S
C280 H295 0.929 . S
C281 C280 1.362 . S
C281 C282 1.366 . S
C282 C279 1.365 . S
C282 C281 1.366 . S
C282 H296 0.930 . S
C283 C280 1.378 . S
C283 N284 1.315 . S
C283 H286 0.930 . S
N284 Co264 2.194 . S
N284 C279 1.328 . S
N284 C283 1.315 . S
H285 C279 0.929 . S
H286 C283 0.930 . S
H287 C275 0.929 . S
H288 C277 0.929 . S
O289 Co264 2.351 . S
O289 C292 1.244 . S
O290 Co264 2.155 . S
O290 C292 1.240 . S
O291 Co264 2.096 . S
O291 C272 1.247 . S
C292 O289 1.244 . S
C292 O290 1.240 . S
H293 C267 0.931 . S
H294 C276 0.931 . S
H295 C280 0.929 . S
H296 C282 0.930 . S
Co297 N301 2.148 . S
Co297 N307 2.128 . S
Co297 N317 2.194 . S
Co297 O322 2.351 . S
Co297 O323 2.155 . S
Co297 O324 2.096 . S
C298 N301 1.301 . S
C298 N302 1.328 . S
C298 H303 0.930 . S
C299 C300 1.333 . S
C299 N301 1.317 . S
C299 H304 0.930 . S
C300 C299 1.333 . S
C300 N302 1.350 . S
C300 H326 0.931 . S
N301 Co297 2.148 . S
N301 C298 1.301 . S
N301 C299 1.317 . S
N302 C298 1.328 . S
N302 C300 1.350 . S
H303 C298 0.930 . S
H304 C299 0.930 . S
C305 O306 1.224 . S
C305 O324 1.247 . S
O306 C305 1.224 . S
N307 Co297 2.128 . S
N307 C308 1.355 . S
N307 C310 1.311 . S
C308 N307 1.355 . S
C308 C309 1.363 . S
C308 H320 0.929 . S
C309 C308 1.363 . S
C309 N311 1.375 . S
C309 H327 0.931 . S
C310 N307 1.311 . S
C310 N311 1.347 . S
C310 H321 0.929 . S
N311 C309 1.375 . S
N311 C310 1.347 . S
C312 C315 1.365 . S
C312 N317 1.328 . S
C312 H318 0.929 . S
C313 C314 1.362 . S
C313 C316 1.378 . S
C313 H328 0.929 . S
C314 C313 1.362 . S
C314 C315 1.366 . S
C315 C312 1.365 . S
C315 C314 1.366 . S
C315 H329 0.930 . S
C316 C313 1.378 . S
C316 N317 1.315 . S
C316 H319 0.930 . S
N317 Co297 2.194 . S
N317 C312 1.328 . S
N317 C316 1.315 . S
H318 C312 0.929 . S
H319 C316 0.930 . S
H320 C308 0.929 . S
H321 C310 0.929 . S
O322 Co297 2.351 . S
O322 C325 1.244 . S
O323 Co297 2.155 . S
O323 C325 1.240 . S
O324 Co297 2.096 . S
O324 C305 1.247 . S
C325 O322 1.244 . S
C325 O323 1.240 . S
H326 C300 0.931 . S
H327 C309 0.931 . S
H328 C313 0.929 . S
H329 C315 0.930 . S
Co330 N334 2.148 . S
Co330 N340 2.128 . S
Co330 N350 2.194 . S
Co330 O355 2.351 . S
Co330 O356 2.155 . S
Co330 O357 2.096 . S
C331 N334 1.301 . S
C331 N335 1.328 . S
C331 H336 0.930 . S
C332 C333 1.333 . S
C332 N334 1.317 . S
C332 H337 0.930 . S
C333 C332 1.333 . S
C333 N335 1.350 . S
C333 H359 0.931 . S
N334 Co330 2.148 . S
N334 C331 1.301 . S
N334 C332 1.317 . S
N335 C331 1.328 . S
N335 C333 1.350 . S
H336 C331 0.930 . S
H337 C332 0.930 . S
C338 O339 1.224 . S
C338 O357 1.247 . S
O339 C338 1.224 . S
N340 Co330 2.128 . S
N340 C341 1.355 . S
N340 C343 1.311 . S
C341 N340 1.355 . S
C341 C342 1.363 . S
C341 H353 0.929 . S
C342 C341 1.363 . S
C342 N344 1.375 . S
C342 H360 0.931 . S
C343 N340 1.311 . S
C343 N344 1.347 . S
C343 H354 0.929 . S
N344 C342 1.375 . S
N344 C343 1.347 . S
C345 C348 1.365 . S
C345 N350 1.328 . S
C345 H351 0.929 . S
C346 C347 1.362 . S
C346 C349 1.378 . S
C346 H361 0.929 . S
C347 C346 1.362 . S
C347 C348 1.366 . S
C348 C345 1.365 . S
C348 C347 1.366 . S
C348 H362 0.930 . S
C349 C346 1.378 . S
C349 N350 1.315 . S
C349 H352 0.930 . S
N350 Co330 2.194 . S
N350 C345 1.328 . S
N350 C349 1.315 . S
H351 C345 0.929 . S
H352 C349 0.930 . S
H353 C341 0.929 . S
H354 C343 0.929 . S
O355 Co330 2.351 . S
O355 C358 1.244 . S
O356 Co330 2.155 . S
O356 C358 1.240 . S
O357 Co330 2.096 . S
O357 C338 1.247 . S
C358 O355 1.244 . S
C358 O356 1.240 . S
H359 C333 0.931 . S
H360 C342 0.931 . S
H361 C346 0.929 . S
H362 C348 0.930 . S
Co363 N367 2.148 1_554 S
Co363 N373 2.128 . S
Co363 N383 2.194 . S
Co363 O388 2.351 . S
Co363 O389 2.155 . S
Co363 O390 2.096 . S
C364 N367 1.301 . S
C364 N368 1.328 . S
C364 H369 0.930 . S
C365 C366 1.333 . S
C365 N367 1.317 . S
C365 H370 0.930 . S
C366 C365 1.333 . S
C366 N368 1.350 . S
C366 H392 0.931 . S
N367 Co363 2.148 1_556 S
N367 C364 1.301 . S
N367 C365 1.317 . S
N368 C364 1.328 . S
N368 C366 1.350 . S
H369 C364 0.930 . S
H370 C365 0.930 . S
C371 O372 1.224 . S
C371 O390 1.247 . S
O372 C371 1.224 . S
N373 Co363 2.128 . S
N373 C374 1.355 . S
N373 C376 1.311 . S
C374 N373 1.355 . S
C374 C375 1.363 . S
C374 H386 0.929 . S
C375 C374 1.363 . S
C375 N377 1.375 . S
C375 H393 0.931 . S
C376 N373 1.311 . S
C376 N377 1.347 . S
C376 H387 0.929 . S
N377 C375 1.375 . S
N377 C376 1.347 . S
C378 C381 1.365 . S
C378 N383 1.328 . S
C378 H384 0.929 . S
C379 C380 1.362 . S
C379 C382 1.378 . S
C379 H394 0.929 . S
C380 C379 1.362 . S
C380 C381 1.366 . S
C381 C378 1.365 . S
C381 C380 1.366 . S
C381 H395 0.930 . S
C382 C379 1.378 . S
C382 N383 1.315 . S
C382 H385 0.930 . S
N383 Co363 2.194 . S
N383 C378 1.328 . S
N383 C382 1.315 . S
H384 C378 0.929 . S
H385 C382 0.930 . S
H386 C374 0.929 . S
H387 C376 0.929 . S
O388 Co363 2.351 . S
O388 C391 1.244 . S
O389 Co363 2.155 . S
O389 C391 1.240 . S
O390 Co363 2.096 . S
O390 C371 1.247 . S
C391 O388 1.244 . S
C391 O389 1.240 . S
H392 C366 0.931 . S
H393 C375 0.931 . S
H394 C379 0.929 . S
H395 C381 0.930 . S
H396 C404 0.929 . S
H397 C406 0.930 . S
H398 C408 0.930 . S
H399 C411 0.929 . S
H400 C414 0.930 . S
H401 C416 0.960 . S
H402 C416 0.960 . S
H403 C416 0.960 . S
C404 H396 0.929 . S
C404 C405 1.377 . S
C404 C406 1.384 . S
C405 C404 1.377 . S
C405 C411 1.390 . S
C406 H397 0.930 . S
C406 C404 1.384 . S
C406 C407 1.372 . S
C407 C406 1.372 . S
C407 C408 1.400 . S
C407 C412 1.490 . S
C408 H398 0.930 . S
C408 C407 1.400 . S
C408 C411 1.386 . S
H409 C425 0.930 . S
H410 C426 0.931 . S
C411 H399 0.929 . S
C411 C405 1.390 . S
C411 C408 1.386 . S
C412 C407 1.490 . S
C412 C414 1.395 1_554 S
C412 C415 1.403 . S
H413 C419 0.930 . S
C414 H400 0.930 . S
C414 C412 1.395 1_556 S
C414 C417 1.403 . S
C415 C412 1.403 . S
C415 C416 1.524 . S
C415 C419 1.400 . S
C416 H401 0.960 . S
C416 H402 0.960 . S
C416 H403 0.960 . S
C416 C415 1.524 . S
C417 C414 1.403 . S
C417 C418 1.392 . S
C417 C421 1.495 . S
C418 C417 1.392 . S
C418 C419 1.385 1_556 S
C418 C420 1.478 . S
C419 H413 0.930 . S
C419 C415 1.400 . S
C419 C418 1.385 1_554 S
C420 C418 1.478 . S
C420 C422 1.381 . S
C420 C426 1.383 . S
C421 C417 1.495 . S
C421 H427 0.959 . S
C421 H428 0.961 . S
C421 H429 0.960 . S
C422 C420 1.381 . S
C422 C423 1.394 . S
C422 H430 0.930 . S
C423 C422 1.394 . S
C423 C424 1.383 . S
C423 H431 0.929 . S
C424 C423 1.383 . S
C424 C425 1.377 . S
C425 H409 0.930 . S
C425 C424 1.377 . S
C425 C426 1.379 . S
C426 H410 0.931 . S
C426 C420 1.383 . S
C426 C425 1.379 . S
H427 C421 0.959 . S
H428 C421 0.961 . S
H429 C421 0.960 . S
H430 C422 0.930 . S
H431 C423 0.929 . S
H432 C440 0.929 . S
H433 C442 0.930 . S
H434 C444 0.930 . S
H435 C447 0.929 . S
H436 C450 0.930 . S
H437 C452 0.960 . S
H438 C452 0.960 . S
H439 C452 0.960 . S
C440 H432 0.929 . S
C440 C441 1.377 . S
C440 C442 1.384 . S
C441 C440 1.377 . S
C441 C447 1.390 . S
C442 H433 0.930 . S
C442 C440 1.384 . S
C442 C443 1.372 . S
C443 C442 1.372 . S
C443 C444 1.400 . S
C443 C448 1.490 . S
C444 H434 0.930 . S
C444 C443 1.400 . S
C444 C447 1.386 . S
H445 C461 0.930 . S
H446 C462 0.931 . S
C447 H435 0.929 . S
C447 C441 1.390 . S
C447 C444 1.386 . S
C448 C443 1.490 . S
C448 C450 1.395 . S
C448 C451 1.403 . S
H449 C455 0.930 . S
C450 H436 0.930 . S
C450 C448 1.395 . S
C450 C453 1.403 . S
C451 C448 1.403 . S
C451 C452 1.524 . S
C451 C455 1.400 . S
C452 H437 0.960 . S
C452 H438 0.960 . S
C452 H439 0.960 . S
C452 C451 1.524 . S
C453 C450 1.403 . S
C453 C454 1.392 . S
C453 C457 1.495 . S
C454 C453 1.392 . S
C454 C455 1.385 . S
C454 C456 1.478 . S
C455 H449 0.930 . S
C455 C451 1.400 . S
C455 C454 1.385 . S
C456 C454 1.478 . S
C456 C458 1.381 . S
C456 C462 1.383 . S
C457 C453 1.495 . S
C457 H463 0.959 . S
C457 H464 0.961 . S
C457 H465 0.960 . S
C458 C456 1.381 . S
C458 C459 1.394 . S
C458 H466 0.930 . S
C459 C458 1.394 . S
C459 C460 1.383 . S
C459 H467 0.929 . S
C460 C459 1.383 . S
C460 C461 1.377 . S
C461 H445 0.930 . S
C461 C460 1.377 . S
C461 C462 1.379 . S
C462 H446 0.931 . S
C462 C456 1.383 . S
C462 C461 1.379 . S
H463 C457 0.959 . S
H464 C457 0.961 . S
H465 C457 0.960 . S
H466 C458 0.930 . S
H467 C459 0.929 . S
H468 C476 0.929 . S
H469 C478 0.930 . S
H470 C480 0.930 . S
H471 C483 0.929 . S
H472 C486 0.930 . S
H473 C488 0.960 . S
H474 C488 0.960 . S
H475 C488 0.960 . S
C476 H468 0.929 . S
C476 C477 1.377 . S
C476 C478 1.384 . S
C477 C476 1.377 . S
C477 C483 1.390 . S
C478 H469 0.930 . S
C478 C476 1.384 . S
C478 C479 1.372 . S
C479 C478 1.372 . S
C479 C480 1.400 . S
C479 C484 1.490 . S
C480 H470 0.930 . S
C480 C479 1.400 . S
C480 C483 1.386 . S
H481 C497 0.930 . S
H482 C498 0.931 . S
C483 H471 0.929 . S
C483 C477 1.390 . S
C483 C480 1.386 . S
C484 C479 1.490 . S
C484 C486 1.395 . S
C484 C487 1.403 . S
H485 C491 0.930 . S
C486 H472 0.930 . S
C486 C484 1.395 . S
C486 C489 1.403 . S
C487 C484 1.403 . S
C487 C488 1.524 . S
C487 C491 1.400 . S
C488 H473 0.960 . S
C488 H474 0.960 . S
C488 H475 0.960 . S
C488 C487 1.524 . S
C489 C486 1.403 . S
C489 C490 1.392 . S
C489 C493 1.495 . S
C490 C489 1.392 . S
C490 C491 1.385 . S
C490 C492 1.478 . S
C491 H485 0.930 . S
C491 C487 1.400 . S
C491 C490 1.385 . S
C492 C490 1.478 . S
C492 C494 1.381 . S
C492 C498 1.383 . S
C493 C489 1.495 . S
C493 H499 0.959 . S
C493 H500 0.961 . S
C493 H501 0.960 . S
C494 C492 1.381 . S
C494 C495 1.394 . S
C494 H502 0.930 . S
C495 C494 1.394 . S
C495 C496 1.383 . S
C495 H503 0.929 . S
C496 C495 1.383 . S
C496 C497 1.377 . S
C497 H481 0.930 . S
C497 C496 1.377 . S
C497 C498 1.379 . S
C498 H482 0.931 . S
C498 C492 1.383 . S
C498 C497 1.379 . S
H499 C493 0.959 . S
H500 C493 0.961 . S
H501 C493 0.960 . S
H502 C494 0.930 . S
H503 C495 0.929 . S
H504 C512 0.929 . S
H505 C514 0.930 . S
H506 C516 0.930 . S
H507 C519 0.929 . S
H508 C522 0.930 . S
H509 C524 0.960 1_554 S
H510 C524 0.960 . S
H511 C524 0.962 . S
C512 H504 0.929 . S
C512 C513 1.377 . S
C512 C514 1.384 . S
C513 C512 1.377 . S
C513 C519 1.390 . S
C514 H505 0.930 . S
C514 C512 1.384 . S
C514 C515 1.372 . S
C515 C514 1.372 . S
C515 C516 1.400 . S
C515 C520 1.490 . S
C516 H506 0.930 . S
C516 C515 1.400 . S
C516 C519 1.386 . S
H517 C533 0.930 . S
H518 C534 0.931 . S
C519 H507 0.929 . S
C519 C513 1.390 . S
C519 C516 1.386 . S
C520 C515 1.490 . S
C520 C522 1.395 . S
C520 C523 1.403 . S
H521 C527 0.930 . S
C522 H508 0.930 . S
C522 C520 1.395 . S
C522 C525 1.403 . S
C523 C520 1.403 . S
C523 C524 1.524 . S
C523 C527 1.400 1_556 S
C524 H509 0.960 1_556 S
C524 H510 0.960 . S
C524 H511 0.962 . S
C524 C523 1.524 . S
C525 C522 1.403 . S
C525 C526 1.392 1_556 S
C525 C529 1.495 . S
C526 C525 1.392 1_554 S
C526 C527 1.385 . S
C526 C528 1.478 . S
C527 H521 0.930 . S
C527 C523 1.400 1_554 S
C527 C526 1.385 . S
C528 C526 1.478 . S
C528 C530 1.381 . S
C528 C534 1.383 . S
C529 C525 1.495 . S
C529 H535 0.959 . S
C529 H536 0.961 1_556 S
C529 H537 0.960 . S
C530 C528 1.381 . S
C530 C531 1.394 . S
C530 H538 0.930 . S
C531 C530 1.394 . S
C531 C532 1.383 . S
C531 H539 0.929 . S
C532 C531 1.383 . S
C532 C533 1.377 . S
C533 H517 0.930 . S
C533 C532 1.377 . S
C533 C534 1.379 . S
C534 H518 0.931 . S
C534 C528 1.383 . S
C534 C533 1.379 . S
H535 C529 0.959 . S
H536 C529 0.961 1_554 S
H537 C529 0.960 . S
H538 C530 0.930 . S
H539 C531 0.929 . S
H540 C548 0.929 . S
H541 C550 0.930 . S
H542 C552 0.930 . S
H543 C555 0.929 . S
H544 C558 0.930 . S
H545 C560 0.960 . S
H546 C560 0.960 . S
H547 C560 0.960 . S
C548 H540 0.929 . S
C548 C549 1.377 . S
C548 C550 1.384 . S
C549 C548 1.377 . S
C549 C555 1.390 . S
C550 H541 0.930 . S
C550 C548 1.384 . S
C550 C551 1.372 . S
C551 C550 1.372 . S
C551 C552 1.400 . S
C551 C556 1.490 . S
C552 H542 0.930 . S
C552 C551 1.400 . S
C552 C555 1.386 . S
H553 C569 0.930 . S
H554 C570 0.931 . S
C555 H543 0.929 . S
C555 C549 1.390 . S
C555 C552 1.386 . S
C556 C551 1.490 . S
C556 C558 1.395 . S
C556 C559 1.403 . S
H557 C563 0.930 . S
C558 H544 0.930 . S
C558 C556 1.395 . S
C558 C561 1.403 . S
C559 C556 1.403 . S
C559 C560 1.524 . S
C559 C563 1.400 . S
C560 H545 0.960 . S
C560 H546 0.960 . S
C560 H547 0.960 . S
C560 C559 1.524 . S
C561 C558 1.403 . S
C561 C562 1.392 . S
C561 C565 1.495 . S
C562 C561 1.392 . S
C562 C563 1.385 . S
C562 C564 1.478 . S
C563 H557 0.930 . S
C563 C559 1.400 . S
C563 C562 1.385 . S
C564 C562 1.478 . S
C564 C566 1.381 . S
C564 C570 1.383 . S
C565 C561 1.495 . S
C565 H571 0.959 . S
C565 H572 0.961 . S
C565 H573 0.960 . S
C566 C564 1.381 . S
C566 C567 1.394 . S
C566 H574 0.930 . S
C567 C566 1.394 . S
C567 C568 1.383 . S
C567 H575 0.929 . S
C568 C567 1.383 . S
C568 C569 1.377 . S
C569 H553 0.930 . S
C569 C568 1.377 . S
C569 C570 1.379 . S
C570 H554 0.931 . S
C570 C564 1.383 . S
C570 C569 1.379 . S
H571 C565 0.959 . S
H572 C565 0.961 . S
H573 C565 0.960 . S
H574 C566 0.930 . S
H575 C567 0.929 . S
H576 C584 0.929 . S
H577 C586 0.930 . S
H578 C588 0.930 . S
H579 C591 0.929 . S
H580 C594 0.930 . S
H581 C596 0.960 . S
H582 C596 0.960 . S
H583 C596 0.960 . S
C584 H576 0.929 . S
C584 C585 1.377 . S
C584 C586 1.384 . S
C585 C584 1.377 . S
C585 C591 1.390 . S
C586 H577 0.930 . S
C586 C584 1.384 . S
C586 C587 1.372 . S
C587 C586 1.372 . S
C587 C588 1.400 . S
C587 C592 1.490 . S
C588 H578 0.930 . S
C588 C587 1.400 . S
C588 C591 1.386 . S
H589 C605 0.930 . S
H590 C606 0.931 . S
C591 H579 0.929 . S
C591 C585 1.390 . S
C591 C588 1.386 . S
C592 C587 1.490 . S
C592 C594 1.395 . S
C592 C595 1.403 . S
H593 C599 0.930 . S
C594 H580 0.930 . S
C594 C592 1.395 . S
C594 C597 1.403 . S
C595 C592 1.403 . S
C595 C596 1.524 . S
C595 C599 1.400 . S
C596 H581 0.960 . S
C596 H582 0.960 . S
C596 H583 0.960 . S
C596 C595 1.524 . S
C597 C594 1.403 . S
C597 C598 1.392 . S
C597 C601 1.495 . S
C598 C597 1.392 . S
C598 C599 1.385 . S
C598 C600 1.478 . S
C599 H593 0.930 . S
C599 C595 1.400 . S
C599 C598 1.385 . S
C600 C598 1.478 . S
C600 C602 1.381 . S
C600 C606 1.383 . S
C601 C597 1.495 . S
C601 H607 0.959 . S
C601 H608 0.961 . S
C601 H609 0.960 . S
C602 C600 1.381 . S
C602 C603 1.394 . S
C602 H610 0.930 . S
C603 C602 1.394 . S
C603 C604 1.383 . S
C603 H611 0.929 . S
C604 C603 1.383 . S
C604 C605 1.377 . S
C605 H589 0.930 . S
C605 C604 1.377 . S
C605 C606 1.379 . S
C606 H590 0.931 . S
C606 C600 1.383 . S
C606 C605 1.379 . S
H607 C601 0.959 . S
H608 C601 0.961 . S
H609 C601 0.960 . S
H610 C602 0.930 . S
H611 C603 0.929 . S
H612 C620 0.929 . S
H613 C622 0.930 . S
H614 C624 0.930 . S
H615 C627 0.929 . S
H616 C630 0.930 . S
H617 C632 0.960 . S
H618 C632 0.960 . S
H619 C632 0.960 . S
C620 H612 0.929 . S
C620 C621 1.377 . S
C620 C622 1.384 . S
C621 C620 1.377 . S
C621 C627 1.390 . S
C622 H613 0.930 . S
C622 C620 1.384 . S
C622 C623 1.372 . S
C623 C622 1.372 . S
C623 C624 1.400 . S
C623 C628 1.490 . S
C624 H614 0.930 . S
C624 C623 1.400 . S
C624 C627 1.386 . S
H625 C641 0.930 . S
H626 C642 0.931 . S
C627 H615 0.929 . S
C627 C621 1.390 . S
C627 C624 1.386 . S
C628 C623 1.490 . S
C628 C630 1.395 . S
C628 C631 1.403 . S
H629 C635 0.930 . S
C630 H616 0.930 . S
C630 C628 1.395 . S
C630 C633 1.403 . S
C631 C628 1.403 . S
C631 C632 1.524 . S
C631 C635 1.400 . S
C632 H617 0.960 . S
C632 H618 0.960 . S
C632 H619 0.960 . S
C632 C631 1.524 . S
C633 C630 1.403 . S
C633 C634 1.392 . S
C633 C637 1.495 . S
C634 C633 1.392 . S
C634 C635 1.385 . S
C634 C636 1.478 . S
C635 H629 0.930 . S
C635 C631 1.400 . S
C635 C634 1.385 . S
C636 C634 1.478 . S
C636 C638 1.381 . S
C636 C642 1.383 . S
C637 C633 1.495 . S
C637 H643 0.959 . S
C637 H644 0.961 . S
C637 H645 0.960 . S
C638 C636 1.381 . S
C638 C639 1.394 . S
C638 H646 0.930 . S
C639 C638 1.394 . S
C639 C640 1.383 . S
C639 H647 0.929 . S
C640 C639 1.383 . S
C640 C641 1.377 . S
C641 H625 0.930 . S
C641 C640 1.377 . S
C641 C642 1.379 . S
C642 H626 0.931 . S
C642 C636 1.383 . S
C642 C641 1.379 . S
H643 C637 0.959 . S
H644 C637 0.961 . S
H645 C637 0.960 . S
H646 C638 0.930 . S
H647 C639 0.929 . S
H648 C656 0.929 . S
H649 C658 0.930 . S
H650 C660 0.930 . S
H651 C663 0.929 . S
H652 C666 0.930 . S
H653 C668 0.960 . S
H654 C668 0.960 . S
H655 C668 0.960 . S
C656 H648 0.929 . S
C656 C657 1.377 . S
C656 C658 1.384 . S
C657 C656 1.377 . S
C657 C663 1.390 . S
C658 H649 0.930 . S
C658 C656 1.384 . S
C658 C659 1.372 . S
C659 C658 1.372 . S
C659 C660 1.400 . S
C659 C664 1.490 . S
C660 H650 0.930 . S
C660 C659 1.400 . S
C660 C663 1.386 . S
H661 C677 0.930 . S
H662 C678 0.931 . S
C663 H651 0.929 . S
C663 C657 1.390 . S
C663 C660 1.386 . S
C664 C659 1.490 . S
C664 C666 1.395 . S
C664 C667 1.403 . S
H665 C671 0.930 . S
C666 H652 0.930 . S
C666 C664 1.395 . S
C666 C669 1.403 . S
C667 C664 1.403 . S
C667 C668 1.524 . S
C667 C671 1.400 . S
C668 H653 0.960 . S
C668 H654 0.960 . S
C668 H655 0.960 . S
C668 C667 1.524 . S
C669 C666 1.403 . S
C669 C670 1.392 . S
C669 C673 1.495 . S
C670 C669 1.392 . S
C670 C671 1.385 . S
C670 C672 1.478 . S
C671 H665 0.930 . S
C671 C667 1.400 . S
C671 C670 1.385 . S
C672 C670 1.478 . S
C672 C674 1.381 . S
C672 C678 1.383 . S
C673 C669 1.495 . S
C673 H679 0.959 . S
C673 H680 0.961 . S
C673 H681 0.960 . S
C674 C672 1.381 . S
C674 C675 1.394 . S
C674 H682 0.930 . S
C675 C674 1.394 . S
C675 C676 1.383 . S
C675 H683 0.929 . S
C676 C675 1.383 . S
C676 C677 1.377 . S
C677 H661 0.930 . S
C677 C676 1.377 . S
C677 C678 1.379 . S
C678 H662 0.931 . S
C678 C672 1.383 . S
C678 C677 1.379 . S
H679 C673 0.959 . S
H680 C673 0.961 . S
H681 C673 0.960 . S
H682 C674 0.930 . S
H683 C675 0.929 . S
H684 C692 0.929 . S
H685 C694 0.930 . S
H686 C696 0.930 . S
H687 C699 0.929 1_554 S
H688 C702 0.930 . S
H689 C704 0.960 . S
H690 C704 0.960 . S
H691 C704 0.960 . S
C692 H684 0.929 . S
C692 C693 1.377 . S
C692 C694 1.384 . S
C693 C692 1.377 . S
C693 C699 1.390 . S
C694 H685 0.930 . S
C694 C692 1.384 . S
C694 C695 1.372 . S
C695 C694 1.372 . S
C695 C696 1.400 1_556 S
C695 C700 1.490 . S
C696 H686 0.930 . S
C696 C695 1.400 1_554 S
C696 C699 1.386 1_554 S
H697 C713 0.930 . S
H698 C714 0.931 . S
C699 H687 0.929 1_556 S
C699 C693 1.390 . S
C699 C696 1.386 1_556 S
C700 C695 1.490 . S
C700 C702 1.395 . S
C700 C703 1.403 1_556 S
H701 C707 0.930 . S
C702 H688 0.930 . S
C702 C700 1.395 . S
C702 C705 1.403 . S
C703 C700 1.403 1_554 S
C703 C704 1.524 . S
C703 C707 1.400 . S
C704 H689 0.960 . S
C704 H690 0.960 . S
C704 H691 0.960 . S
C704 C703 1.524 . S
C705 C702 1.403 . S
C705 C706 1.397 . S
C705 C709 1.495 . S
C706 C705 1.397 . S
C706 C707 1.382 1_556 S
C706 C708 1.477 1_556 S
C707 H701 0.930 . S
C707 C703 1.400 . S
C707 C706 1.382 1_554 S
C708 C706 1.477 1_554 S
C708 C710 1.381 1_554 S
C708 C714 1.383 . S
C709 C705 1.495 . S
C709 H715 0.959 . S
C709 H716 0.961 . S
C709 H717 0.960 . S
C710 C708 1.381 1_556 S
C710 C711 1.394 1_556 S
C710 H718 0.930 . S
C711 C710 1.394 1_554 S
C711 C712 1.383 . S
C711 H719 0.929 1_554 S
C712 C711 1.383 . S
C712 C713 1.377 . S
C713 H697 0.930 . S
C713 C712 1.377 . S
C713 C714 1.379 . S
C714 H698 0.931 . S
C714 C708 1.383 . S
C714 C713 1.379 . S
H715 C709 0.959 . S
H716 C709 0.961 . S
H717 C709 0.960 . S
H718 C710 0.930 . S
H719 C711 0.929 1_556 S
H720 C728 0.929 . S
H721 C730 0.930 . S
H722 C732 0.930 . S
H723 C735 0.929 . S
H724 C738 0.930 . S
H725 C740 0.960 . S
H726 C740 0.960 . S
H727 C740 0.960 . S
C728 H720 0.929 . S
C728 C729 1.377 . S
C728 C730 1.384 . S
C729 C728 1.377 . S
C729 C735 1.390 . S
C730 H721 0.930 . S
C730 C728 1.384 . S
C730 C731 1.372 . S
C731 C730 1.372 . S
C731 C732 1.400 . S
C731 C736 1.490 . S
C732 H722 0.930 . S
C732 C731 1.400 . S
C732 C735 1.386 . S
H733 C749 0.930 . S
H734 C750 0.931 . S
C735 H723 0.929 . S
C735 C729 1.390 . S
C735 C732 1.386 . S
C736 C731 1.490 . S
C736 C738 1.395 . S
C736 C739 1.403 . S
H737 C743 0.930 . S
C738 H724 0.930 . S
C738 C736 1.395 . S
C738 C741 1.403 . S
C739 C736 1.403 . S
C739 C740 1.524 . S
C739 C743 1.400 . S
C740 H725 0.960 . S
C740 H726 0.960 . S
C740 H727 0.960 . S
C740 C739 1.524 . S
C741 C738 1.403 . S
C741 C742 1.392 . S
C741 C745 1.495 . S
C742 C741 1.392 . S
C742 C743 1.385 . S
C742 C744 1.478 . S
C743 H737 0.930 . S
C743 C739 1.400 . S
C743 C742 1.385 . S
C744 C742 1.478 . S
C744 C746 1.381 . S
C744 C750 1.383 . S
C745 C741 1.495 . S
C745 H751 0.959 . S
C745 H752 0.961 . S
C745 H753 0.960 . S
C746 C744 1.381 . S
C746 C747 1.394 . S
C746 H754 0.930 . S
C747 C746 1.394 . S
C747 C748 1.383 . S
C747 H755 0.929 . S
C748 C747 1.383 . S
C748 C749 1.377 . S
C749 H733 0.930 . S
C749 C748 1.377 . S
C749 C750 1.379 . S
C750 H734 0.931 . S
C750 C744 1.383 . S
C750 C749 1.379 . S
H751 C745 0.959 . S
H752 C745 0.961 . S
H753 C745 0.960 . S
H754 C746 0.930 . S
H755 C747 0.929 . S
H756 C764 0.929 . S
H757 C766 0.930 . S
H758 C768 0.930 . S
H759 C771 0.929 . S
H760 C774 0.930 . S
H761 C776 0.960 . S
H762 C776 0.960 . S
H763 C776 0.960 . S
C764 H756 0.929 . S
C764 C765 1.377 . S
C764 C766 1.384 . S
C765 C764 1.377 . S
C765 C771 1.390 . S
C766 H757 0.930 . S
C766 C764 1.384 . S
C766 C767 1.372 . S
C767 C766 1.372 . S
C767 C768 1.400 . S
C767 C772 1.490 . S
C768 H758 0.930 . S
C768 C767 1.400 . S
C768 C771 1.386 . S
H769 C785 0.930 . S
H770 C786 0.931 . S
C771 H759 0.929 . S
C771 C765 1.390 . S
C771 C768 1.386 . S
C772 C767 1.490 . S
C772 C774 1.395 . S
C772 C775 1.403 . S
H773 C779 0.930 . S
C774 H760 0.930 . S
C774 C772 1.395 . S
C774 C777 1.403 . S
C775 C772 1.403 . S
C775 C776 1.524 . S
C775 C779 1.400 . S
C776 H761 0.960 . S
C776 H762 0.960 . S
C776 H763 0.960 . S
C776 C775 1.524 . S
C777 C774 1.403 . S
C777 C778 1.392 . S
C777 C781 1.495 . S
C778 C777 1.392 . S
C778 C779 1.385 . S
C778 C780 1.478 . S
C779 H773 0.930 . S
C779 C775 1.400 . S
C779 C778 1.385 . S
C780 C778 1.478 . S
C780 C782 1.381 . S
C780 C786 1.383 . S
C781 C777 1.495 . S
C781 H787 0.959 . S
C781 H788 0.961 . S
C781 H789 0.960 . S
C782 C780 1.381 . S
C782 C783 1.394 . S
C782 H790 0.930 . S
C783 C782 1.394 . S
C783 C784 1.383 . S
C783 H791 0.929 . S
C784 C783 1.383 . S
C784 C785 1.377 . S
C785 H769 0.930 . S
C785 C784 1.377 . S
C785 C786 1.379 . S
C786 H770 0.931 . S
C786 C780 1.383 . S
C786 C785 1.379 . S
H787 C781 0.959 . S
H788 C781 0.961 . S
H789 C781 0.960 . S
H790 C782 0.930 . S
H791 C783 0.929 . S
H792 C800 0.929 . S
H793 C802 0.930 . S
H794 C804 0.930 . S
H795 C807 0.929 . S
H796 C810 0.930 . S
H797 C812 0.960 . S
H798 C812 0.960 . S
H799 C812 0.960 . S
C800 H792 0.929 . S
C800 C801 1.377 . S
C800 C802 1.384 . S
C801 C800 1.377 . S
C801 C807 1.390 . S
C802 H793 0.930 . S
C802 C800 1.384 . S
C802 C803 1.372 . S
C803 C802 1.372 . S
C803 C804 1.400 . S
C803 C808 1.490 . S
C804 H794 0.930 . S
C804 C803 1.400 . S
C804 C807 1.386 . S
H805 C821 0.930 . S
H806 C822 0.931 . S
C807 H795 0.929 . S
C807 C801 1.390 . S
C807 C804 1.386 . S
C808 C803 1.490 . S
C808 C810 1.395 1_554 S
C808 C811 1.403 . S
H809 C815 0.930 . S
C810 H796 0.930 . S
C810 C808 1.395 1_556 S
C810 C813 1.403 . S
C811 C808 1.403 . S
C811 C812 1.524 . S
C811 C815 1.400 . S
C812 H797 0.960 . S
C812 H798 0.960 . S
C812 H799 0.960 . S
C812 C811 1.524 . S
C813 C810 1.403 . S
C813 C814 1.392 . S
C813 C817 1.495 . S
C814 C813 1.392 . S
C814 C815 1.385 1_556 S
C814 C816 1.478 . S
C815 H809 0.930 . S
C815 C811 1.400 . S
C815 C814 1.385 1_554 S
C816 C814 1.478 . S
C816 C818 1.381 . S
C816 C822 1.383 . S
C817 C813 1.495 . S
C817 H823 0.959 . S
C817 H824 0.961 . S
C817 H825 0.960 . S
C818 C816 1.381 . S
C818 C819 1.394 . S
C818 H826 0.930 . S
C819 C818 1.394 . S
C819 C820 1.383 . S
C819 H827 0.929 . S
C820 C819 1.383 . S
C820 C821 1.377 . S
C821 H805 0.930 . S
C821 C820 1.377 . S
C821 C822 1.379 . S
C822 H806 0.931 . S
C822 C816 1.383 . S
C822 C821 1.379 . S
H823 C817 0.959 . S
H824 C817 0.961 . S
H825 C817 0.960 . S
H826 C818 0.930 . S
H827 C819 0.929 . S
H828 C836 0.929 . S
H829 C838 0.930 . S
H830 C840 0.930 . S
H831 C843 0.929 . S
H832 C846 0.930 . S
H833 C848 0.960 . S
H834 C848 0.960 . S
H835 C848 0.960 . S
C836 H828 0.929 . S
C836 C837 1.377 . S
C836 C838 1.384 . S
C837 C836 1.377 . S
C837 C843 1.390 . S
C838 H829 0.930 . S
C838 C836 1.384 . S
C838 C839 1.372 . S
C839 C838 1.372 . S
C839 C840 1.400 . S
C839 C844 1.490 . S
C840 H830 0.930 . S
C840 C839 1.400 . S
C840 C843 1.386 . S
H841 C857 0.930 . S
H842 C858 0.931 . S
C843 H831 0.929 . S
C843 C837 1.390 . S
C843 C840 1.386 . S
C844 C839 1.490 . S
C844 C846 1.395 . S
C844 C847 1.403 . S
H845 C851 0.930 . S
C846 H832 0.930 . S
C846 C844 1.395 . S
C846 C849 1.403 . S
C847 C844 1.403 . S
C847 C848 1.524 . S
C847 C851 1.400 . S
C848 H833 0.960 . S
C848 H834 0.960 . S
C848 H835 0.960 . S
C848 C847 1.524 . S
C849 C846 1.403 . S
C849 C850 1.392 . S
C849 C853 1.495 . S
C850 C849 1.392 . S
C850 C851 1.385 . S
C850 C852 1.478 . S
C851 H845 0.930 . S
C851 C847 1.400 . S
C851 C850 1.385 . S
C852 C850 1.478 . S
C852 C854 1.381 . S
C852 C858 1.383 . S
C853 C849 1.495 . S
C853 H859 0.959 . S
C853 H860 0.961 . S
C853 H861 0.960 . S
C854 C852 1.381 . S
C854 C855 1.394 . S
C854 H862 0.930 . S
C855 C854 1.394 . S
C855 C856 1.383 . S
C855 H863 0.929 . S
C856 C855 1.383 . S
C856 C857 1.377 . S
C857 H841 0.930 . S
C857 C856 1.377 . S
C857 C858 1.379 . S
C858 H842 0.931 . S
C858 C852 1.383 . S
C858 C857 1.379 . S
H859 C853 0.959 . S
H860 C853 0.961 . S
H861 C853 0.960 . S
H862 C854 0.930 . S
H863 C855 0.929 . S
H864 C872 0.929 . S
H865 C874 0.930 . S
H866 C876 0.930 . S
H867 C879 0.929 . S
H868 C882 0.930 . S
H869 C884 0.963 . S
H870 C884 0.960 . S
H871 C884 0.960 . S
C872 H864 0.929 . S
C872 C873 1.377 . S
C872 C874 1.384 . S
C873 C872 1.377 . S
C873 C879 1.390 . S
C874 H865 0.930 . S
C874 C872 1.384 . S
C874 C875 1.372 . S
C875 C874 1.372 . S
C875 C876 1.400 . S
C875 C880 1.490 . S
C876 H866 0.930 . S
C876 C875 1.400 . S
C876 C879 1.386 . S
H877 C893 0.930 . S
H878 C894 0.931 . S
C879 H867 0.929 . S
C879 C873 1.390 . S
C879 C876 1.386 . S
C880 C875 1.490 . S
C880 C882 1.395 . S
C880 C883 1.403 . S
H881 C887 0.930 . S
C882 H868 0.930 . S
C882 C880 1.395 . S
C882 C885 1.403 1_455 S
C883 C880 1.403 . S
C883 C884 1.524 . S
C883 C887 1.400 1_455 S
C884 H869 0.963 . S
C884 H870 0.960 . S
C884 H871 0.960 . S
C884 C883 1.524 . S
C885 C882 1.403 1_655 S
C885 C886 1.392 . S
C885 C889 1.495 . S
C886 C885 1.392 . S
C886 C887 1.385 . S
C886 C888 1.478 . S
C887 H881 0.930 . S
C887 C883 1.400 1_655 S
C887 C886 1.385 . S
C888 C886 1.478 . S
C888 C890 1.381 . S
C888 C894 1.383 . S
C889 C885 1.495 . S
C889 H895 0.976 . S
C889 H896 0.961 . S
C889 H897 0.960 . S
C890 C888 1.381 . S
C890 C891 1.394 . S
C890 H898 0.930 . S
C891 C890 1.394 . S
C891 C892 1.383 . S
C891 H899 0.929 . S
C892 C891 1.383 . S
C892 C893 1.377 . S
C893 H877 0.930 . S
C893 C892 1.377 . S
C893 C894 1.379 . S
C894 H878 0.931 . S
C894 C888 1.383 . S
C894 C893 1.379 . S
H895 C889 0.976 . S
H896 C889 0.961 . S
H897 C889 0.960 . S
H898 C890 0.930 . S
H899 C891 0.929 . S
H900 C908 0.929 . S
H901 C910 0.930 . S
H902 C912 0.930 . S
H903 C915 0.929 . S
H904 C918 0.930 . S
H905 C920 0.978 . S
H906 C920 0.960 . S
H907 C920 0.960 . S
C908 H900 0.929 . S
C908 C909 1.377 1_556 S
C908 C910 1.384 . S
C909 C908 1.377 1_554 S
C909 C915 1.390 . S
C910 H901 0.930 . S
C910 C908 1.384 . S
C910 C911 1.372 1_556 S
C911 C910 1.372 1_554 S
C911 C912 1.400 . S
C911 C916 1.490 . S
C912 H902 0.930 . S
C912 C911 1.400 . S
C912 C915 1.386 . S
H913 C929 0.930 1_554 S
H914 C930 0.931 . S
C915 H903 0.929 . S
C915 C909 1.390 . S
C915 C912 1.386 . S
C916 C911 1.490 . S
C916 C918 1.395 1_554 S
C916 C919 1.403 . S
H917 C923 0.930 . S
C918 H904 0.930 . S
C918 C916 1.395 1_556 S
C918 C921 1.403 1_545 S
C919 C916 1.403 . S
C919 C920 1.524 . S
C919 C923 1.400 1_545 S
C920 H905 0.978 . S
C920 H906 0.960 . S
C920 H907 0.960 . S
C920 C919 1.524 . S
C921 C918 1.403 1_565 S
C921 C922 1.392 . S
C921 C925 1.495 . S
C922 C921 1.392 . S
C922 C923 1.385 1_556 S
C922 C924 1.478 . S
C923 H917 0.930 . S
C923 C919 1.400 1_565 S
C923 C922 1.385 1_554 S
C924 C922 1.478 . S
C924 C926 1.381 . S
C924 C930 1.382 1_556 S
C925 C921 1.495 . S
C925 H931 0.978 . S
C925 H932 0.961 . S
C925 H933 0.960 . S
C926 C924 1.381 . S
C926 C927 1.394 . S
C926 H934 0.930 . S
C927 C926 1.394 . S
C927 C928 1.383 . S
C927 H935 0.929 . S
C928 C927 1.383 . S
C928 C929 1.377 . S
C929 H913 0.930 1_556 S
C929 C928 1.377 . S
C929 C930 1.379 1_556 S
C930 H914 0.931 . S
C930 C924 1.382 1_554 S
C930 C929 1.379 1_554 S
H931 C925 0.978 . S
H932 C925 0.961 . S
H933 C925 0.960 . S
H934 C926 0.930 . S
H935 C927 0.929 . S
H936 C944 0.929 . S
H937 C946 0.930 . S
H938 C948 0.930 . S
H939 C951 0.929 . S
H940 C954 0.930 . S
H941 C956 0.960 . S
H942 C956 0.960 . S
H943 C956 0.960 . S
C944 H936 0.929 . S
C944 C945 1.377 . S
C944 C946 1.384 . S
C945 C944 1.377 . S
C945 C951 1.390 . S
C946 H937 0.930 . S
C946 C944 1.384 . S
C946 C947 1.372 . S
C947 C946 1.372 . S
C947 C948 1.400 . S
C947 C952 1.490 . S
C948 H938 0.930 . S
C948 C947 1.400 . S
C948 C951 1.386 . S
H949 C965 0.930 . S
H950 C966 0.931 . S
C951 H939 0.929 . S
C951 C945 1.390 . S
C951 C948 1.386 . S
C952 C947 1.490 . S
C952 C954 1.395 . S
C952 C955 1.403 . S
H953 C959 0.930 . S
C954 H940 0.930 . S
C954 C952 1.395 . S
C954 C957 1.403 . S
C955 C952 1.403 . S
C955 C956 1.524 . S
C955 C959 1.400 . S
C956 H941 0.960 . S
C956 H942 0.960 . S
C956 H943 0.960 . S
C956 C955 1.524 . S
C957 C954 1.403 . S
C957 C958 1.392 . S
C957 C961 1.495 . S
C958 C957 1.392 . S
C958 C959 1.385 . S
C958 C960 1.478 . S
C959 H953 0.930 . S
C959 C955 1.400 . S
C959 C958 1.385 . S
C960 C958 1.478 . S
C960 C962 1.381 . S
C960 C966 1.383 . S
C961 C957 1.495 . S
C961 H967 0.959 . S
C961 H968 0.961 . S
C961 H969 0.960 . S
C962 C960 1.381 . S
C962 C963 1.394 . S
C962 H970 0.930 . S
C963 C962 1.394 . S
C963 C964 1.383 . S
C963 H971 0.929 . S
C964 C963 1.383 . S
C964 C965 1.377 . S
C965 H949 0.930 . S
C965 C964 1.377 . S
C965 C966 1.379 . S
C966 H950 0.931 . S
C966 C960 1.383 . S
C966 C965 1.379 . S
H967 C961 0.959 . S
H968 C961 0.961 . S
H969 C961 0.960 . S
H970 C962 0.930 . S
H971 C963 0.929 . S
H972 C980 0.929 . S
H973 C982 0.930 . S
H974 C984 0.930 . S
H975 C987 0.929 . S
H976 C990 0.930 . S
H977 C992 0.960 . S
H978 C992 0.960 . S
H979 C992 0.960 . S
C980 H972 0.929 . S
C980 C981 1.377 . S
C980 C982 1.384 . S
C981 C980 1.377 . S
C981 C987 1.390 . S
C982 H973 0.930 . S
C982 C980 1.384 . S
C982 C983 1.372 . S
C983 C982 1.372 . S
C983 C984 1.400 . S
C983 C988 1.490 . S
C984 H974 0.930 . S
C984 C983 1.400 . S
C984 C987 1.386 . S
H985 C1001 0.930 . S
H986 C1002 0.931 . S
C987 H975 0.929 . S
C987 C981 1.390 . S
C987 C984 1.386 . S
C988 C983 1.490 . S
C988 C990 1.395 . S
C988 C991 1.403 . S
H989 C995 0.930 . S
C990 H976 0.930 . S
C990 C988 1.395 . S
C990 C993 1.403 1_455 S
C991 C988 1.403 . S
C991 C992 1.524 . S
C991 C995 1.400 1_455 S
C992 H977 0.960 . S
C992 H978 0.960 . S
C992 H979 0.960 . S
C992 C991 1.524 . S
C993 C990 1.403 1_655 S
C993 C994 1.392 . S
C993 C997 1.495 . S
C994 C993 1.392 . S
C994 C995 1.385 . S
C994 C996 1.478 . S
C995 H989 0.930 . S
C995 C991 1.400 1_655 S
C995 C994 1.385 . S
C996 C994 1.478 . S
C996 C998 1.381 . S
C996 C1002 1.383 . S
C997 C993 1.495 . S
C997 H1003 0.959 . S
C997 H1004 0.961 . S
C997 H1005 0.960 . S
C998 C996 1.381 . S
C998 C999 1.394 . S
C998 H1006 0.930 . S
C999 C998 1.394 . S
C999 C1000 1.383 . S
C999 H1007 0.929 . S
C1000 C999 1.383 . S
C1000 C1001 1.377 . S
C1001 H985 0.930 . S
C1001 C1000 1.377 . S
C1001 C1002 1.379 . S
C1002 H986 0.931 . S
C1002 C996 1.383 . S
C1002 C1001 1.379 . S
H1003 C997 0.959 . S
H1004 C997 0.961 . S
H1005 C997 0.960 . S
H1006 C998 0.930 . S
H1007 C999 0.929 . S
H1008 C1016 0.929 . S
H1009 C1018 0.930 . S
H1010 C1020 0.930 . S
H1011 C1023 0.929 . S
H1012 C1026 0.930 . S
H1013 C1028 0.960 . S
H1014 C1028 0.960 1_556 S
H1015 C1028 0.960 . S
C1016 H1008 0.929 . S
C1016 C1017 1.377 . S
C1016 C1018 1.384 . S
C1017 C1016 1.377 . S
C1017 C1023 1.390 1_556 S
C1018 H1009 0.930 . S
C1018 C1016 1.384 . S
C1018 C1019 1.372 . S
C1019 C1018 1.372 . S
C1019 C1020 1.400 1_556 S
C1019 C1024 1.490 . S
C1020 H1010 0.930 . S
C1020 C1019 1.400 1_554 S
C1020 C1023 1.386 . S
H1021 C1037 0.930 . S
H1022 C1038 0.931 . S
C1023 H1011 0.929 . S
C1023 C1017 1.390 1_554 S
C1023 C1020 1.386 . S
C1024 C1019 1.490 . S
C1024 C1026 1.395 . S
C1024 C1027 1.403 1_556 S
H1025 C1031 0.930 . S
C1026 H1012 0.930 . S
C1026 C1024 1.395 . S
C1026 C1029 1.403 1_545 S
C1027 C1024 1.403 1_554 S
C1027 C1028 1.524 . S
C1027 C1031 1.400 1_545 S
C1028 H1013 0.960 . S
C1028 H1014 0.960 1_554 S
C1028 H1015 0.960 . S
C1028 C1027 1.524 . S
C1029 C1026 1.403 1_565 S
C1029 C1030 1.392 1_556 S
C1029 C1033 1.495 . S
C1030 C1029 1.392 1_554 S
C1030 C1031 1.385 . S
C1030 C1032 1.478 . S
C1031 H1025 0.930 . S
C1031 C1027 1.400 1_565 S
C1031 C1030 1.385 . S
C1032 C1030 1.478 . S
C1032 C1034 1.381 1_554 S
C1032 C1038 1.383 . S
C1033 C1029 1.495 . S
C1033 H1039 0.959 . S
C1033 H1040 0.961 . S
C1033 H1041 0.960 . S
C1034 C1032 1.381 1_556 S
C1034 C1035 1.394 . S
C1034 H1042 0.930 . S
C1035 C1034 1.394 . S
C1035 C1036 1.383 1_556 S
C1035 H1043 0.929 . S
C1036 C1035 1.383 1_554 S
C1036 C1037 1.377 . S
C1037 H1021 0.930 . S
C1037 C1036 1.377 . S
C1037 C1038 1.379 . S
C1038 H1022 0.931 . S
C1038 C1032 1.383 . S
C1038 C1037 1.379 . S
H1039 C1033 0.959 . S
H1040 C1033 0.961 . S
H1041 C1033 0.960 . S
H1042 C1034 0.930 . S
H1043 C1035 0.929 . S
H1044 C1052 0.929 . S
H1045 C1054 0.930 . S
H1046 C1056 0.930 . S
H1047 C1059 0.929 . S
H1048 C1062 0.930 . S
H1049 C1064 0.960 . S
H1050 C1064 0.960 . S
H1051 C1064 0.960 . S
C1052 H1044 0.929 . S
C1052 C1053 1.377 . S
C1052 C1054 1.384 . S
C1053 C1052 1.377 . S
C1053 C1059 1.390 . S
C1054 H1045 0.930 . S
C1054 C1052 1.384 . S
C1054 C1055 1.372 . S
C1055 C1054 1.372 . S
C1055 C1056 1.400 . S
C1055 C1060 1.490 . S
C1056 H1046 0.930 . S
C1056 C1055 1.400 . S
C1056 C1059 1.386 . S
H1057 C1073 0.927 1_554 S
H1058 C1074 0.931 . S
C1059 H1047 0.929 . S
C1059 C1053 1.390 . S
C1059 C1056 1.386 . S
C1060 C1055 1.490 . S
C1060 C1062 1.395 . S
C1060 C1063 1.403 . S
H1061 C1067 0.930 . S
C1062 H1048 0.930 . S
C1062 C1060 1.395 . S
C1062 C1065 1.403 . S
C1063 C1060 1.403 . S
C1063 C1064 1.524 . S
C1063 C1067 1.400 . S
C1064 H1049 0.960 . S
C1064 H1050 0.960 . S
C1064 H1051 0.960 . S
C1064 C1063 1.524 . S
C1065 C1062 1.403 . S
C1065 C1066 1.392 . S
C1065 C1069 1.495 . S
C1066 C1065 1.392 . S
C1066 C1067 1.385 . S
C1066 C1068 1.478 . S
C1067 H1061 0.930 . S
C1067 C1063 1.400 . S
C1067 C1066 1.385 . S
C1068 C1066 1.478 . S
C1068 C1070 1.381 . S
C1068 C1074 1.383 . S
C1069 C1065 1.495 . S
C1069 H1075 0.959 . S
C1069 H1076 0.961 . S
C1069 H1077 0.960 . S
C1070 C1068 1.381 . S
C1070 C1071 1.394 . S
C1070 H1078 0.930 . S
C1071 C1070 1.394 . S
C1071 C1072 1.383 1_556 S
C1071 H1079 0.929 1_556 S
C1072 C1071 1.383 1_554 S
C1072 C1073 1.377 1_554 S
C1073 H1057 0.927 1_556 S
C1073 C1072 1.377 1_556 S
C1073 C1074 1.379 . S
C1074 H1058 0.931 . S
C1074 C1068 1.383 . S
C1074 C1073 1.379 . S
H1075 C1069 0.959 . S
H1076 C1069 0.961 . S
H1077 C1069 0.960 . S
H1078 C1070 0.930 . S
H1079 C1071 0.929 1_554 S
H1080 C1088 0.929 . S
H1081 C1090 0.930 . S
H1082 C1092 0.930 . S
H1083 C1095 0.929 . S
H1084 C1098 0.930 . S
H1085 C1100 0.960 . S
H1086 C1100 0.960 . S
H1087 C1100 0.960 . S
C1088 H1080 0.929 . S
C1088 C1089 1.377 . S
C1088 C1090 1.384 . S
C1089 C1088 1.377 . S
C1089 C1095 1.390 . S
C1090 H1081 0.930 . S
C1090 C1088 1.384 . S
C1090 C1091 1.372 . S
C1091 C1090 1.372 . S
C1091 C1092 1.400 . S
C1091 C1096 1.490 . S
C1092 H1082 0.930 . S
C1092 C1091 1.400 . S
C1092 C1095 1.386 . S
H1093 C1109 0.930 . S
H1094 C1110 0.931 . S
C1095 H1083 0.929 . S
C1095 C1089 1.390 . S
C1095 C1092 1.386 . S
C1096 C1091 1.490 . S
C1096 C1098 1.395 . S
C1096 C1099 1.403 . S
H1097 C1103 0.930 . S
C1098 H1084 0.930 . S
C1098 C1096 1.395 . S
C1098 C1101 1.403 . S
C1099 C1096 1.403 . S
C1099 C1100 1.524 . S
C1099 C1103 1.400 . S
C1100 H1085 0.960 . S
C1100 H1086 0.960 . S
C1100 H1087 0.960 . S
C1100 C1099 1.524 . S
C1101 C1098 1.403 . S
C1101 C1102 1.392 . S
C1101 C1105 1.495 . S
C1102 C1101 1.392 . S
C1102 C1103 1.385 . S
C1102 C1104 1.478 1_554 S
C1103 H1097 0.930 . S
C1103 C1099 1.400 . S
C1103 C1102 1.385 . S
C1104 C1102 1.478 1_556 S
C1104 C1106 1.381 . S
C1104 C1110 1.383 . S
C1105 C1101 1.495 . S
C1105 H1111 0.959 . S
C1105 H1112 0.961 . S
C1105 H1113 0.960 . S
C1106 C1104 1.381 . S
C1106 C1107 1.394 . S
C1106 H1114 0.930 . S
C1107 C1106 1.394 . S
C1107 C1108 1.383 . S
C1107 H1115 0.929 . S
C1108 C1107 1.383 . S
C1108 C1109 1.377 . S
C1109 H1093 0.930 . S
C1109 C1108 1.377 . S
C1109 C1110 1.379 . S
C1110 H1094 0.931 . S
C1110 C1104 1.383 . S
C1110 C1109 1.379 . S
H1111 C1105 0.959 . S
H1112 C1105 0.961 . S
H1113 C1105 0.960 . S
H1114 C1106 0.930 . S
H1115 C1107 0.929 . S
H1116 C1124 0.929 . S
H1117 C1126 0.930 . S
H1118 C1128 0.930 . S
H1119 C1131 0.929 . S
H1120 C1134 0.930 . S
H1121 C1136 0.960 . S
H1122 C1136 0.960 . S
H1123 C1136 0.960 . S
C1124 H1116 0.929 . S
C1124 C1125 1.377 . S
C1124 C1126 1.384 . S
C1125 C1124 1.377 . S
C1125 C1131 1.390 . S
C1126 H1117 0.930 . S
C1126 C1124 1.384 . S
C1126 C1127 1.372 . S
C1127 C1126 1.372 . S
C1127 C1128 1.400 . S
C1127 C1132 1.490 . S
C1128 H1118 0.930 . S
C1128 C1127 1.400 . S
C1128 C1131 1.386 . S
H1129 C1145 0.930 . S
H1130 C1146 0.931 . S
C1131 H1119 0.929 . S
C1131 C1125 1.390 . S
C1131 C1128 1.386 . S
C1132 C1127 1.490 . S
C1132 C1134 1.395 . S
C1132 C1135 1.403 . S
H1133 C1139 0.930 . S
C1134 H1120 0.930 . S
C1134 C1132 1.395 . S
C1134 C1137 1.403 . S
C1135 C1132 1.403 . S
C1135 C1136 1.524 . S
C1135 C1139 1.400 . S
C1136 H1121 0.960 . S
C1136 H1122 0.960 . S
C1136 H1123 0.960 . S
C1136 C1135 1.524 . S
C1137 C1134 1.403 . S
C1137 C1138 1.392 . S
C1137 C1141 1.495 . S
C1138 C1137 1.392 . S
C1138 C1139 1.385 . S
C1138 C1140 1.478 . S
C1139 H1133 0.930 . S
C1139 C1135 1.400 . S
C1139 C1138 1.385 . S
C1140 C1138 1.478 . S
C1140 C1142 1.381 . S
C1140 C1146 1.383 . S
C1141 C1137 1.495 . S
C1141 H1147 0.959 . S
C1141 H1148 0.961 . S
C1141 H1149 0.960 . S
C1142 C1140 1.381 . S
C1142 C1143 1.394 . S
C1142 H1150 0.930 . S
C1143 C1142 1.394 . S
C1143 C1144 1.383 . S
C1143 H1151 0.929 . S
C1144 C1143 1.383 . S
C1144 C1145 1.377 . S
C1145 H1129 0.930 . S
C1145 C1144 1.377 . S
C1145 C1146 1.379 . S
C1146 H1130 0.931 . S
C1146 C1140 1.383 . S
C1146 C1145 1.379 . S
H1147 C1141 0.959 . S
H1148 C1141 0.961 . S
H1149 C1141 0.960 . S
H1150 C1142 0.930 . S
H1151 C1143 0.929 . S
H1152 C1160 0.921 1_554 S
H1153 C1162 0.930 . S
H1154 C1164 0.930 . S
H1155 C1167 0.929 1_554 S
H1156 C1170 0.930 . S
H1157 C1172 0.960 . S
H1158 C1172 0.960 . S
H1159 C1172 0.960 . S
C1160 H1152 0.921 1_556 S
C1160 C1161 1.377 1_556 S
C1160 C1162 1.384 . S
C1161 C1160 1.377 1_554 S
C1161 C1167 1.390 1_554 S
C1162 H1153 0.930 . S
C1162 C1160 1.384 . S
C1162 C1163 1.372 . S
C1163 C1162 1.372 . S
C1163 C1164 1.400 . S
C1163 C1168 1.490 . S
C1164 H1154 0.930 . S
C1164 C1163 1.400 . S
C1164 C1167 1.386 . S
H1165 C1181 0.930 . S
H1166 C1182 0.931 . S
C1167 H1155 0.929 1_556 S
C1167 C1161 1.390 1_556 S
C1167 C1164 1.386 . S
C1168 C1163 1.490 . S
C1168 C1170 1.395 . S
C1168 C1171 1.403 . S
H1169 C1175 0.930 . S
C1170 H1156 0.930 . S
C1170 C1168 1.395 . S
C1170 C1173 1.403 . S
C1171 C1168 1.403 . S
C1171 C1172 1.524 . S
C1171 C1175 1.400 . S
C1172 H1157 0.960 . S
C1172 H1158 0.960 . S
C1172 H1159 0.960 . S
C1172 C1171 1.524 . S
C1173 C1170 1.403 . S
C1173 C1174 1.392 . S
C1173 C1177 1.495 . S
C1174 C1173 1.392 . S
C1174 C1175 1.385 . S
C1174 C1176 1.478 . S
C1175 H1169 0.930 . S
C1175 C1171 1.400 . S
C1175 C1174 1.385 . S
C1176 C1174 1.478 . S
C1176 C1178 1.381 . S
C1176 C1182 1.383 . S
C1177 C1173 1.495 . S
C1177 H1183 0.959 . S
C1177 H1184 0.961 . S
C1177 H1185 0.960 . S
C1178 C1176 1.381 . S
C1178 C1179 1.394 . S
C1178 H1186 0.930 . S
C1179 C1178 1.394 . S
C1179 C1180 1.383 . S
C1179 H1187 0.929 . S
C1180 C1179 1.383 . S
C1180 C1181 1.377 . S
C1181 H1165 0.930 . S
C1181 C1180 1.377 . S
C1181 C1182 1.379 . S
C1182 H1166 0.931 . S
C1182 C1176 1.383 . S
C1182 C1181 1.379 . S
H1183 C1177 0.959 . S
H1184 C1177 0.961 . S
H1185 C1177 0.960 . S
H1186 C1178 0.930 . S
H1187 C1179 0.929 . S
H1188 C1196 0.929 . S
H1189 C1198 0.930 . S
H1190 C1200 0.930 . S
H1191 C1203 0.929 . S
H1192 C1206 0.930 . S
H1193 C1208 0.960 . S
H1194 C1208 0.960 . S
H1195 C1208 0.960 . S
C1196 H1188 0.929 . S
C1196 C1197 1.377 . S
C1196 C1198 1.384 . S
C1197 C1196 1.377 . S
C1197 C1203 1.390 . S
C1198 H1189 0.930 . S
C1198 C1196 1.384 . S
C1198 C1199 1.372 . S
C1199 C1198 1.372 . S
C1199 C1200 1.400 . S
C1199 C1204 1.490 . S
C1200 H1190 0.930 . S
C1200 C1199 1.400 . S
C1200 C1203 1.386 . S
H1201 C1217 0.930 . S
H1202 C1218 0.931 . S
C1203 H1191 0.929 . S
C1203 C1197 1.390 . S
C1203 C1200 1.386 . S
C1204 C1199 1.490 . S
C1204 C1206 1.395 . S
C1204 C1207 1.403 . S
H1205 C1211 0.930 . S
C1206 H1192 0.930 . S
C1206 C1204 1.395 . S
C1206 C1209 1.403 . S
C1207 C1204 1.403 . S
C1207 C1208 1.524 . S
C1207 C1211 1.400 . S
C1208 H1193 0.960 . S
C1208 H1194 0.960 . S
C1208 H1195 0.960 . S
C1208 C1207 1.524 . S
C1209 C1206 1.403 . S
C1209 C1210 1.392 . S
C1209 C1213 1.495 . S
C1210 C1209 1.392 . S
C1210 C1211 1.385 . S
C1210 C1212 1.478 1_554 S
C1211 H1205 0.930 . S
C1211 C1207 1.400 . S
C1211 C1210 1.385 . S
C1212 C1210 1.478 1_556 S
C1212 C1214 1.381 . S
C1212 C1218 1.383 . S
C1213 C1209 1.495 . S
C1213 H1219 0.959 . S
C1213 H1220 0.961 . S
C1213 H1221 0.960 . S
C1214 C1212 1.381 . S
C1214 C1215 1.394 . S
C1214 H1222 0.930 . S
C1215 C1214 1.394 . S
C1215 C1216 1.383 . S
C1215 H1223 0.929 . S
C1216 C1215 1.383 . S
C1216 C1217 1.377 . S
C1217 H1201 0.930 . S
C1217 C1216 1.377 . S
C1217 C1218 1.379 . S
C1218 H1202 0.931 . S
C1218 C1212 1.383 . S
C1218 C1217 1.379 . S
H1219 C1213 0.959 . S
H1220 C1213 0.961 . S
H1221 C1213 0.960 . S
H1222 C1214 0.930 . S
H1223 C1215 0.929 . S
H1224 C1232 0.929 . S
H1225 C1234 0.930 . S
H1226 C1236 0.930 . S
H1227 C1239 0.929 . S
H1228 C1242 0.930 . S
H1229 C1244 0.960 . S
H1230 C1244 0.960 . S
H1231 C1244 0.960 . S
C1232 H1224 0.929 . S
C1232 C1233 1.377 . S
C1232 C1234 1.384 . S
C1233 C1232 1.377 . S
C1233 C1239 1.390 . S
C1234 H1225 0.930 . S
C1234 C1232 1.384 . S
C1234 C1235 1.372 . S
C1235 C1234 1.372 . S
C1235 C1236 1.400 . S
C1235 C1240 1.490 . S
C1236 H1226 0.930 . S
C1236 C1235 1.400 . S
C1236 C1239 1.386 . S
H1237 C1253 0.930 . S
H1238 C1254 0.931 . S
C1239 H1227 0.929 . S
C1239 C1233 1.390 . S
C1239 C1236 1.386 . S
C1240 C1235 1.490 . S
C1240 C1242 1.395 . S
C1240 C1243 1.403 . S
H1241 C1247 0.930 . S
C1242 H1228 0.930 . S
C1242 C1240 1.395 . S
C1242 C1245 1.403 . S
C1243 C1240 1.403 . S
C1243 C1244 1.524 . S
C1243 C1247 1.400 . S
C1244 H1229 0.960 . S
C1244 H1230 0.960 . S
C1244 H1231 0.960 . S
C1244 C1243 1.524 . S
C1245 C1242 1.403 . S
C1245 C1246 1.392 . S
C1245 C1249 1.495 . S
C1246 C1245 1.392 . S
C1246 C1247 1.385 . S
C1246 C1248 1.478 . S
C1247 H1241 0.930 . S
C1247 C1243 1.400 . S
C1247 C1246 1.385 . S
C1248 C1246 1.478 . S
C1248 C1250 1.381 . S
C1248 C1254 1.383 . S
C1249 C1245 1.495 . S
C1249 H1255 0.959 . S
C1249 H1256 0.961 . S
C1249 H1257 0.960 . S
C1250 C1248 1.381 . S
C1250 C1251 1.394 . S
C1250 H1258 0.930 . S
C1251 C1250 1.394 . S
C1251 C1252 1.383 . S
C1251 H1259 0.929 . S
C1252 C1251 1.383 . S
C1252 C1253 1.377 . S
C1253 H1237 0.930 . S
C1253 C1252 1.377 . S
C1253 C1254 1.379 . S
C1254 H1238 0.931 . S
C1254 C1248 1.383 . S
C1254 C1253 1.379 . S
H1255 C1249 0.959 . S
H1256 C1249 0.961 . S
H1257 C1249 0.960 . S
H1258 C1250 0.930 . S
H1259 C1251 0.929 . S
H1260 C1268 0.929 . S
H1261 C1270 0.930 . S
H1262 C1272 0.930 . S
H1263 C1275 0.929 . S
H1264 C1278 0.930 . S
H1265 C1280 0.960 . S
H1266 C1280 0.960 . S
H1267 C1280 0.960 . S
C1268 H1260 0.929 . S
C1268 C1269 1.377 . S
C1268 C1270 1.384 . S
C1269 C1268 1.377 . S
C1269 C1275 1.390 . S
C1270 H1261 0.930 . S
C1270 C1268 1.384 . S
C1270 C1271 1.372 . S
C1271 C1270 1.372 . S
C1271 C1272 1.400 . S
C1271 C1276 1.490 1_554 S
C1272 H1262 0.930 . S
C1272 C1271 1.400 . S
C1272 C1275 1.386 . S
H1273 C1289 0.930 . S
H1274 C1290 0.931 . S
C1275 H1263 0.929 . S
C1275 C1269 1.390 . S
C1275 C1272 1.386 . S
C1276 C1271 1.490 1_556 S
C1276 C1278 1.395 . S
C1276 C1279 1.403 . S
H1277 C1283 0.930 . S
C1278 H1264 0.930 . S
C1278 C1276 1.395 . S
C1278 C1281 1.403 . S
C1279 C1276 1.403 . S
C1279 C1280 1.524 . S
C1279 C1283 1.400 . S
C1280 H1265 0.960 . S
C1280 H1266 0.960 . S
C1280 H1267 0.960 . S
C1280 C1279 1.524 . S
C1281 C1278 1.403 . S
C1281 C1282 1.392 . S
C1281 C1285 1.495 . S
C1282 C1281 1.392 . S
C1282 C1283 1.385 . S
C1282 C1284 1.478 . S
C1283 H1277 0.930 . S
C1283 C1279 1.400 . S
C1283 C1282 1.385 . S
C1284 C1282 1.478 . S
C1284 C1286 1.381 . S
C1284 C1290 1.383 . S
C1285 C1281 1.495 . S
C1285 H1291 0.959 . S
C1285 H1292 0.961 . S
C1285 H1293 0.960 . S
C1286 C1284 1.381 . S
C1286 C1287 1.394 . S
C1286 H1294 0.930 . S
C1287 C1286 1.394 . S
C1287 C1288 1.383 . S
C1287 H1295 0.929 . S
C1288 C1287 1.383 . S
C1288 C1289 1.377 . S
C1289 H1273 0.930 . S
C1289 C1288 1.377 . S
C1289 C1290 1.379 . S
C1290 H1274 0.931 . S
C1290 C1284 1.383 . S
C1290 C1289 1.379 . S
H1291 C1285 0.959 . S
H1292 C1285 0.961 . S
H1293 C1285 0.960 . S
H1294 C1286 0.930 . S
H1295 C1287 0.929 . S
H1296 C1304 0.929 1_556 S
H1297 C1306 0.930 . S
H1298 C1308 0.930 . S
H1299 C1311 0.929 . S
H1300 C1314 0.930 . S
H1301 C1316 0.960 . S
H1302 C1316 0.960 . S
H1303 C1316 0.960 . S
C1304 H1296 0.929 1_554 S
C1304 C1305 1.377 1_554 S
C1304 C1306 1.384 . S
C1305 C1304 1.377 1_556 S
C1305 C1311 1.390 1_556 S
C1306 H1297 0.930 . S
C1306 C1304 1.384 . S
C1306 C1307 1.372 . S
C1307 C1306 1.372 . S
C1307 C1308 1.400 . S
C1307 C1312 1.490 . S
C1308 H1298 0.930 . S
C1308 C1307 1.400 . S
C1308 C1311 1.386 . S
H1309 C1325 0.930 . S
H1310 C1326 0.931 . S
C1311 H1299 0.929 . S
C1311 C1305 1.390 1_554 S
C1311 C1308 1.386 . S
C1312 C1307 1.490 . S
C1312 C1314 1.395 . S
C1312 C1315 1.403 . S
H1313 C1319 0.930 . S
C1314 H1300 0.930 . S
C1314 C1312 1.395 . S
C1314 C1317 1.403 . S
C1315 C1312 1.403 . S
C1315 C1316 1.524 . S
C1315 C1319 1.400 . S
C1316 H1301 0.960 . S
C1316 H1302 0.960 . S
C1316 H1303 0.960 . S
C1316 C1315 1.524 . S
C1317 C1314 1.403 . S
C1317 C1318 1.392 . S
C1317 C1321 1.495 . S
C1318 C1317 1.392 . S
C1318 C1319 1.385 . S
C1318 C1320 1.478 . S
C1319 H1313 0.930 . S
C1319 C1315 1.400 . S
C1319 C1318 1.385 . S
C1320 C1318 1.478 . S
C1320 C1322 1.381 . S
C1320 C1326 1.383 . S
C1321 C1317 1.495 . S
C1321 H1327 0.959 . S
C1321 H1328 0.961 . S
C1321 H1329 0.960 . S
C1322 C1320 1.381 . S
C1322 C1323 1.394 . S
C1322 H1330 0.930 . S
C1323 C1322 1.394 . S
C1323 C1324 1.383 . S
C1323 H1331 0.929 . S
C1324 C1323 1.383 . S
C1324 C1325 1.377 . S
C1325 H1309 0.930 . S
C1325 C1324 1.377 . S
C1325 C1326 1.379 . S
C1326 H1310 0.931 . S
C1326 C1320 1.383 . S
C1326 C1325 1.379 . S
H1327 C1321 0.959 . S
H1328 C1321 0.961 . S
H1329 C1321 0.960 . S
H1330 C1322 0.930 . S
H1331 C1323 0.929 . S
H1332 C1340 0.929 . S
H1333 C1342 0.930 . S
H1334 C1344 0.930 . S
H1335 C1347 0.929 . S
H1336 C1350 0.930 . S
H1337 C1352 0.960 . S
H1338 C1352 0.960 . S
H1339 C1352 0.960 . S
C1340 H1332 0.929 . S
C1340 C1341 1.377 . S
C1340 C1342 1.384 . S
C1341 C1340 1.377 . S
C1341 C1347 1.390 . S
C1342 H1333 0.930 . S
C1342 C1340 1.384 . S
C1342 C1343 1.372 . S
C1343 C1342 1.372 . S
C1343 C1344 1.400 . S
C1343 C1348 1.490 . S
C1344 H1334 0.930 . S
C1344 C1343 1.400 . S
C1344 C1347 1.386 . S
H1345 C1361 0.930 . S
H1346 C1362 0.931 . S
C1347 H1335 0.929 . S
C1347 C1341 1.390 . S
C1347 C1344 1.386 . S
C1348 C1343 1.490 . S
C1348 C1350 1.395 . S
C1348 C1351 1.403 . S
H1349 C1355 0.930 . S
C1350 H1336 0.930 . S
C1350 C1348 1.395 . S
C1350 C1353 1.403 . S
C1351 C1348 1.403 . S
C1351 C1352 1.524 . S
C1351 C1355 1.400 . S
C1352 H1337 0.960 . S
C1352 H1338 0.960 . S
C1352 H1339 0.960 . S
C1352 C1351 1.524 . S
C1353 C1350 1.403 . S
C1353 C1354 1.392 . S
C1353 C1357 1.495 . S
C1354 C1353 1.392 . S
C1354 C1355 1.385 . S
C1354 C1356 1.478 . S
C1355 H1349 0.930 . S
C1355 C1351 1.400 . S
C1355 C1354 1.385 . S
C1356 C1354 1.478 . S
C1356 C1358 1.381 . S
C1356 C1362 1.383 . S
C1357 C1353 1.495 . S
C1357 H1363 0.959 . S
C1357 H1364 0.961 . S
C1357 H1365 0.960 . S
C1358 C1356 1.381 . S
C1358 C1359 1.394 . S
C1358 H1366 0.930 . S
C1359 C1358 1.394 . S
C1359 C1360 1.383 . S
C1359 H1367 0.929 . S
C1360 C1359 1.383 . S
C1360 C1361 1.377 . S
C1361 H1345 0.930 . S
C1361 C1360 1.377 . S
C1361 C1362 1.379 . S
C1362 H1346 0.931 . S
C1362 C1356 1.383 . S
C1362 C1361 1.379 . S
H1363 C1357 0.959 . S
H1364 C1357 0.961 . S
H1365 C1357 0.960 . S
H1366 C1358 0.930 . S
H1367 C1359 0.929 . S
H1368 C1376 0.929 . S
H1369 C1378 0.930 . S
H1370 C1380 0.930 . S
H1371 C1383 0.929 . S
H1372 C1386 0.930 . S
H1373 C1388 0.960 . S
H1374 C1388 0.960 . S
H1375 C1388 0.960 . S
C1376 H1368 0.929 . S
C1376 C1377 1.377 . S
C1376 C1378 1.384 . S
C1377 C1376 1.377 . S
C1377 C1383 1.390 . S
C1378 H1369 0.930 . S
C1378 C1376 1.384 . S
C1378 C1379 1.372 . S
C1379 C1378 1.372 . S
C1379 C1380 1.400 . S
C1379 C1384 1.490 . S
C1380 H1370 0.930 . S
C1380 C1379 1.400 . S
C1380 C1383 1.386 . S
H1381 C1397 0.930 . S
H1382 C1398 0.931 . S
C1383 H1371 0.929 . S
C1383 C1377 1.390 . S
C1383 C1380 1.386 . S
C1384 C1379 1.490 . S
C1384 C1386 1.395 . S
C1384 C1387 1.403 . S
H1385 C1391 0.930 . S
C1386 H1372 0.930 . S
C1386 C1384 1.395 . S
C1386 C1389 1.403 . S
C1387 C1384 1.403 . S
C1387 C1388 1.524 . S
C1387 C1391 1.400 . S
C1388 H1373 0.960 . S
C1388 H1374 0.960 . S
C1388 H1375 0.960 . S
C1388 C1387 1.524 . S
C1389 C1386 1.403 . S
C1389 C1390 1.392 . S
C1389 C1393 1.495 . S
C1390 C1389 1.392 . S
C1390 C1391 1.385 . S
C1390 C1392 1.478 1_556 S
C1391 H1385 0.930 . S
C1391 C1387 1.400 . S
C1391 C1390 1.385 . S
C1392 C1390 1.478 1_554 S
C1392 C1394 1.381 . S
C1392 C1398 1.383 . S
C1393 C1389 1.495 . S
C1393 H1399 0.959 . S
C1393 H1400 0.961 1_556 S
C1393 H1401 0.960 1_556 S
C1394 C1392 1.381 . S
C1394 C1395 1.394 . S
C1394 H1402 0.930 . S
C1395 C1394 1.394 . S
C1395 C1396 1.383 . S
C1395 H1403 0.929 . S
C1396 C1395 1.383 . S
C1396 C1397 1.377 . S
C1397 H1381 0.930 . S
C1397 C1396 1.377 . S
C1397 C1398 1.379 . S
C1398 H1382 0.931 . S
C1398 C1392 1.383 . S
C1398 C1397 1.379 . S
H1399 C1393 0.959 . S
H1400 C1393 0.961 1_554 S
H1401 C1393 0.960 1_554 S
H1402 C1394 0.930 . S
H1403 C1395 0.929 . S
H1404 C1412 0.929 . S
H1405 C1414 0.930 . S
H1406 C1416 0.930 . S
H1407 C1419 0.929 . S
H1408 C1422 0.930 . S
H1409 C1424 0.960 . S
H1410 C1424 0.960 . S
H1411 C1424 0.960 . S
C1412 H1404 0.929 . S
C1412 C1413 1.377 . S
C1412 C1414 1.384 . S
C1413 C1412 1.377 . S
C1413 C1419 1.390 . S
C1414 H1405 0.930 . S
C1414 C1412 1.384 . S
C1414 C1415 1.372 . S
C1415 C1414 1.372 . S
C1415 C1416 1.400 . S
C1415 C1420 1.490 . S
C1416 H1406 0.930 . S
C1416 C1415 1.400 . S
C1416 C1419 1.386 . S
H1417 C1433 0.930 . S
H1418 C1434 0.931 . S
C1419 H1407 0.929 . S
C1419 C1413 1.390 . S
C1419 C1416 1.386 . S
C1420 C1415 1.490 . S
C1420 C1422 1.395 . S
C1420 C1423 1.403 . S
H1421 C1427 0.930 . S
C1422 H1408 0.930 . S
C1422 C1420 1.395 . S
C1422 C1425 1.403 . S
C1423 C1420 1.403 . S
C1423 C1424 1.524 . S
C1423 C1427 1.400 . S
C1424 H1409 0.960 . S
C1424 H1410 0.960 . S
C1424 H1411 0.960 . S
C1424 C1423 1.524 . S
C1425 C1422 1.403 . S
C1425 C1426 1.392 . S
C1425 C1429 1.495 . S
C1426 C1425 1.392 . S
C1426 C1427 1.385 . S
C1426 C1428 1.478 . S
C1427 H1421 0.930 . S
C1427 C1423 1.400 . S
C1427 C1426 1.385 . S
C1428 C1426 1.478 . S
C1428 C1430 1.381 . S
C1428 C1434 1.383 . S
C1429 C1425 1.495 . S
C1429 H1435 0.959 . S
C1429 H1436 0.961 . S
C1429 H1437 0.960 . S
C1430 C1428 1.381 . S
C1430 C1431 1.394 . S
C1430 H1438 0.930 . S
C1431 C1430 1.394 . S
C1431 C1432 1.383 1_554 S
C1431 H1439 0.929 1_554 S
C1432 C1431 1.383 1_556 S
C1432 C1433 1.377 1_556 S
C1433 H1417 0.930 . S
C1433 C1432 1.377 1_554 S
C1433 C1434 1.379 . S
C1434 H1418 0.931 . S
C1434 C1428 1.383 . S
C1434 C1433 1.379 . S
H1435 C1429 0.959 . S
H1436 C1429 0.961 . S
H1437 C1429 0.960 . S
H1438 C1430 0.930 . S
H1439 C1431 0.929 1_556 S
H1440 C1448 0.929 . S
H1441 C1450 0.930 . S
H1442 C1452 0.930 . S
H1443 C1455 0.929 . S
H1444 C1458 0.930 . S
H1445 C1460 0.960 . S
H1446 C1460 0.960 . S
H1447 C1460 0.960 . S
C1448 H1440 0.929 . S
C1448 C1449 1.377 . S
C1448 C1450 1.384 . S
C1449 C1448 1.377 . S
C1449 C1455 1.390 . S
C1450 H1441 0.930 . S
C1450 C1448 1.384 . S
C1450 C1451 1.372 . S
C1451 C1450 1.372 . S
C1451 C1452 1.400 . S
C1451 C1456 1.490 . S
C1452 H1442 0.930 . S
C1452 C1451 1.400 . S
C1452 C1455 1.386 . S
H1453 C1469 0.930 . S
H1454 C1470 0.931 . S
C1455 H1443 0.929 . S
C1455 C1449 1.390 . S
C1455 C1452 1.386 . S
C1456 C1451 1.490 . S
C1456 C1458 1.395 . S
C1456 C1459 1.403 . S
H1457 C1463 0.930 . S
C1458 H1444 0.930 . S
C1458 C1456 1.395 . S
C1458 C1461 1.403 . S
C1459 C1456 1.403 . S
C1459 C1460 1.524 . S
C1459 C1463 1.400 . S
C1460 H1445 0.960 . S
C1460 H1446 0.960 . S
C1460 H1447 0.960 . S
C1460 C1459 1.524 . S
C1461 C1458 1.403 . S
C1461 C1462 1.392 . S
C1461 C1465 1.495 . S
C1462 C1461 1.392 . S
C1462 C1463 1.385 . S
C1462 C1464 1.478 . S
C1463 H1457 0.930 . S
C1463 C1459 1.400 . S
C1463 C1462 1.385 . S
C1464 C1462 1.478 . S
C1464 C1466 1.381 . S
C1464 C1470 1.383 . S
C1465 C1461 1.495 . S
C1465 H1471 0.959 . S
C1465 H1472 0.961 . S
C1465 H1473 0.960 . S
C1466 C1464 1.381 . S
C1466 C1467 1.394 . S
C1466 H1474 0.930 . S
C1467 C1466 1.394 . S
C1467 C1468 1.383 . S
C1467 H1475 0.929 . S
C1468 C1467 1.383 . S
C1468 C1469 1.377 . S
C1469 H1453 0.930 . S
C1469 C1468 1.377 . S
C1469 C1470 1.379 . S
C1470 H1454 0.931 . S
C1470 C1464 1.383 . S
C1470 C1469 1.379 . S
H1471 C1465 0.959 . S
H1472 C1465 0.961 . S
H1473 C1465 0.960 . S
H1474 C1466 0.930 . S
H1475 C1467 0.929 . S
C405 C8 1.128 . S
C424 C338 1.161 . S
C441 C371 1.122 . S
C460 C41 1.139 . S
C477 C206 1.126 . S
C496 C74 1.161 . S
C513 C239 1.136 . S
C532 C107 1.103 . S
C549 C140 1.134 . S
C568 C272 1.139 . S
C585 C305 1.136 . S
C604 C173 1.124 . S
C621 C215 1.633 . S
C640 C17 1.620 . S
C657 C248 1.633 . S
C676 C50 1.619 . S
C693 C83 1.633 . S
C712 C281 1.626 . S
C729 C116 1.638 . S
C748 C314 1.640 . S
C765 C347 1.637 . S
C784 C149 1.643 . S
C801 C380 1.638 . S
C820 C182 1.641 . S
C837 C28 1.297 . S
C856 C325 1.275 . S
C873 C358 1.293 . S
C892 C61 1.284 . S
C909 C391 1.293 . S
C928 C94 1.297 . S
C945 C226 1.297 . S
C964 C127 1.312 . S
C981 C160 1.293 . S
C1000 C259 1.302 . S
C1017 C193 1.298 . S
C1036 C292 1.278 . S
C1053 N5 0.946 . S
C1072 N14 0.925 . S
C1089 N47 0.941 . S
C1108 N38 0.937 . S
C1125 N71 0.943 . S
C1144 N80 0.946 . S
C1161 N113 0.941 . S
C1180 N104 0.944 . S
C1197 N146 0.947 . S
C1216 N137 0.932 . S
C1233 N179 0.947 . S
C1252 N170 0.934 . S
C1269 N203 0.947 . S
C1288 N212 0.927 . S
C1305 N245 0.949 . S
C1324 N236 0.940 . S
C1341 N278 0.942 . S
C1360 N269 0.933 . S
C1377 N311 0.949 . S
C1396 N302 0.944 . S
C1413 N335 0.943 . S
C1432 N344 0.938 . S
C1449 N377 0.941 . S
C1468 N368 0.942 . S
