# Generated by pormake.
# Topology ecs, (8)-cn, num edge types: 1
# Building blocks:
#     Node 0, Type 0, BuildingBlock: TAGTUT_clean_sbu_1, # of connection points: 8
#     Node 1, Type 0, BuildingBlock: TAGTUT_clean_sbu_1, # of connection points: 8
#     Node 2, Type 0, BuildingBlock: TAGTUT_clean_sbu_1, # of connection points: 8
#     Node 3, Type 0, BuildingBlock: TAGTUT_clean_sbu_1, # of connection points: 8
#     Node 4, Type 0, BuildingBlock: TAGTUT_clean_sbu_1, # of connection points: 8
#     Node 5, Type 0, BuildingBlock: TAGTUT_clean_sbu_1, # of connection points: 8
#     Node 6, Type 0, BuildingBlock: TAGTUT_clean_sbu_1, # of connection points: 8
#     Node 7, Type 0, BuildingBlock: TAGTUT_clean_sbu_1, # of connection points: 8
#     Node 8, Type 0, BuildingBlock: TAGTUT_clean_sbu_1, # of connection points: 8
#     Node 9, Type 0, BuildingBlock: TAGTUT_clean_sbu_1, # of connection points: 8
#     Node 10, Type 0, BuildingBlock: TAGTUT_clean_sbu_1, # of connection points: 8
#     Node 11, Type 0, BuildingBlock: TAGTUT_clean_sbu_1, # of connection points: 8
#     Edge 12, Type (0, 0), BuildingBlock: ZUJKAS_clean_linker_0, # of connection points: 2
#     Edge 13, Type (0, 0), BuildingBlock: ZUJKAS_clean_linker_0, # of connection points: 2
#     Edge 14, Type (0, 0), BuildingBlock: ZUJKAS_clean_linker_0, # of connection points: 2
#     Edge 15, Type (0, 0), BuildingBlock: ZUJKAS_clean_linker_0, # of connection points: 2
#     Edge 16, Type (0, 0), BuildingBlock: ZUJKAS_clean_linker_0, # of connection points: 2
#     Edge 17, Type (0, 0), BuildingBlock: ZUJKAS_clean_linker_0, # of connection points: 2
#     Edge 18, Type (0, 0), BuildingBlock: ZUJKAS_clean_linker_0, # of connection points: 2
#     Edge 19, Type (0, 0), BuildingBlock: ZUJKAS_clean_linker_0, # of connection points: 2
#     Edge 20, Type (0, 0), BuildingBlock: ZUJKAS_clean_linker_0, # of connection points: 2
#     Edge 21, Type (0, 0), BuildingBlock: ZUJKAS_clean_linker_0, # of connection points: 2
#     Edge 22, Type (0, 0), BuildingBlock: ZUJKAS_clean_linker_0, # of connection points: 2
#     Edge 23, Type (0, 0), BuildingBlock: ZUJKAS_clean_linker_0, # of connection points: 2
#     Edge 24, Type (0, 0), BuildingBlock: ZUJKAS_clean_linker_0, # of connection points: 2
#     Edge 25, Type (0, 0), BuildingBlock: ZUJKAS_clean_linker_0, # of connection points: 2
#     Edge 26, Type (0, 0), BuildingBlock: ZUJKAS_clean_linker_0, # of connection points: 2
#     Edge 27, Type (0, 0), BuildingBlock: ZUJKAS_clean_linker_0, # of connection points: 2
#     Edge 28, Type (0, 0), BuildingBlock: ZUJKAS_clean_linker_0, # of connection points: 2
#     Edge 29, Type (0, 0), BuildingBlock: ZUJKAS_clean_linker_0, # of connection points: 2
#     Edge 30, Type (0, 0), BuildingBlock: ZUJKAS_clean_linker_0, # of connection points: 2
#     Edge 31, Type (0, 0), BuildingBlock: ZUJKAS_clean_linker_0, # of connection points: 2
#     Edge 32, Type (0, 0), BuildingBlock: ZUJKAS_clean_linker_0, # of connection points: 2
#     Edge 33, Type (0, 0), BuildingBlock: ZUJKAS_clean_linker_0, # of connection points: 2
#     Edge 34, Type (0, 0), BuildingBlock: ZUJKAS_clean_linker_0, # of connection points: 2
#     Edge 35, Type (0, 0), BuildingBlock: ZUJKAS_clean_linker_0, # of connection points: 2
#     Edge 36, Type (0, 0), BuildingBlock: ZUJKAS_clean_linker_0, # of connection points: 2
#     Edge 37, Type (0, 0), BuildingBlock: ZUJKAS_clean_linker_0, # of connection points: 2
#     Edge 38, Type (0, 0), BuildingBlock: ZUJKAS_clean_linker_0, # of connection points: 2
#     Edge 39, Type (0, 0), BuildingBlock: ZUJKAS_clean_linker_0, # of connection points: 2
#     Edge 40, Type (0, 0), BuildingBlock: ZUJKAS_clean_linker_0, # of connection points: 2
#     Edge 41, Type (0, 0), BuildingBlock: ZUJKAS_clean_linker_0, # of connection points: 2
#     Edge 42, Type (0, 0), BuildingBlock: ZUJKAS_clean_linker_0, # of connection points: 2
#     Edge 43, Type (0, 0), BuildingBlock: ZUJKAS_clean_linker_0, # of connection points: 2
#     Edge 44, Type (0, 0), BuildingBlock: ZUJKAS_clean_linker_0, # of connection points: 2
#     Edge 45, Type (0, 0), BuildingBlock: ZUJKAS_clean_linker_0, # of connection points: 2
#     Edge 46, Type (0, 0), BuildingBlock: ZUJKAS_clean_linker_0, # of connection points: 2
#     Edge 47, Type (0, 0), BuildingBlock: ZUJKAS_clean_linker_0, # of connection points: 2
#     Edge 48, Type (0, 0), BuildingBlock: ZUJKAS_clean_linker_0, # of connection points: 2
#     Edge 49, Type (0, 0), BuildingBlock: ZUJKAS_clean_linker_0, # of connection points: 2
#     Edge 50, Type (0, 0), BuildingBlock: ZUJKAS_clean_linker_0, # of connection points: 2
#     Edge 51, Type (0, 0), BuildingBlock: ZUJKAS_clean_linker_0, # of connection points: 2
#     Edge 52, Type (0, 0), BuildingBlock: ZUJKAS_clean_linker_0, # of connection points: 2
#     Edge 53, Type (0, 0), BuildingBlock: ZUJKAS_clean_linker_0, # of connection points: 2
#     Edge 54, Type (0, 0), BuildingBlock: ZUJKAS_clean_linker_0, # of connection points: 2
#     Edge 55, Type (0, 0), BuildingBlock: ZUJKAS_clean_linker_0, # of connection points: 2
#     Edge 56, Type (0, 0), BuildingBlock: ZUJKAS_clean_linker_0, # of connection points: 2
#     Edge 57, Type (0, 0), BuildingBlock: ZUJKAS_clean_linker_0, # of connection points: 2
#     Edge 58, Type (0, 0), BuildingBlock: ZUJKAS_clean_linker_0, # of connection points: 2
#     Edge 59, Type (0, 0), BuildingBlock: ZUJKAS_clean_linker_0, # of connection points: 2
# Relax obj value: 0.341
# Max RMSD: 0.278
# Mean RMSD: 0.278
data_MOF--net-ecs--node1-TAGTUT_clean_sbu_1--edge1-ZUJKAS_clean_linker_0
_symmetry_space_group_name_H-M    P1
_symmetry_Int_Tables_number       1
_symmetry_cell_setting            triclinic
loop_
_symmetry_equiv_pos_as_xyz
'x, y, z'
_cell_length_a     66.665794
_cell_length_b     66.678462
_cell_length_c     33.804468
_cell_angle_alpha  89.98306
_cell_angle_beta   89.976023
_cell_angle_gamma 120.0031
loop_
_atom_site_label
_atom_site_type_symbol
_atom_site_fract_x
_atom_site_fract_y
_atom_site_fract_z
_atom_type_partial_charge
C0 C 0.47055 0.39823 0.10291 0.0
C1 C 0.51719 0.37495 0.07519 0.0
C2 C 0.44682 0.28822 0.10153 0.0
Mg3 Mg 0.49877 0.38326 0.15407 0.0
O4 O 0.47184 0.35445 0.15104 0.0
Mg5 Mg 0.45994 0.34278 0.09603 0.0
Mg6 Mg 0.47465 0.32762 0.16946 0.0
O7 O 0.47843 0.3013 0.18723 0.0
Mg8 Mg 0.45484 0.27048 0.18464 0.0
Mg9 Mg 0.4954 0.313 0.23833 0.0
C10 C 0.50323 0.36516 0.23959 0.0
C11 C 0.53019 0.34607 0.17006 0.0
O12 O 0.46061 0.37801 0.08674 0.0
O13 O 0.48469 0.40354 0.13193 0.0
O14 O 0.49629 0.36003 0.06592 0.0
O15 O 0.52216 0.38501 0.10874 0.0
O16 O 0.50854 0.38188 0.21517 0.0
O17 O 0.48838 0.34401 0.23092 0.0
C18 C 0.42102 0.31551 0.16513 0.0
O19 O 0.43585 0.31264 0.18535 0.0
O20 O 0.42615 0.32586 0.13135 0.0
O21 O 0.50263 0.28226 0.23497 0.0
O22 O 0.47665 0.25575 0.19316 0.0
O23 O 0.46219 0.28973 0.27454 0.0
C24 C 0.49459 0.26326 0.21527 0.0
O25 O 0.43394 0.26339 0.23655 0.0
O26 O 0.44222 0.27172 0.12605 0.0
C27 C 0.44161 0.27257 0.27034 0.0
O28 O 0.46117 0.30957 0.11004 0.0
O29 O 0.51303 0.34536 0.15185 0.0
O30 O 0.52768 0.33521 0.2024 0.0
C31 C 0.60065 0.07049 0.11061 0.0
C32 C 0.62342 0.13899 0.07345 0.0
C33 C 0.71017 0.15649 0.09635 0.0
Mg34 Mg 0.61686 0.11593 0.15586 0.0
O35 O 0.64553 0.11761 0.15245 0.0
Mg36 Mg 0.65592 0.11481 0.0975 0.0
Mg37 Mg 0.67281 0.14794 0.16704 0.0
O38 O 0.69968 0.17856 0.18061 0.0
Mg39 Mg 0.73071 0.18708 0.17404 0.0
Mg40 Mg 0.68977 0.18645 0.23109 0.0
C41 C 0.63735 0.14242 0.23835 0.0
C42 C 0.65455 0.18516 0.1643 0.0
O43 O 0.62047 0.07999 0.09302 0.0
O44 O 0.59605 0.08059 0.13851 0.0
O45 O 0.63813 0.13262 0.06485 0.0
O46 O 0.61408 0.13528 0.10755 0.0
O47 O 0.62015 0.13022 0.21521 0.0
O48 O 0.65831 0.14809 0.2292 0.0
C49 C 0.68469 0.10624 0.16777 0.0
O50 O 0.68777 0.12465 0.18573 0.0
O51 O 0.67379 0.09944 0.13467 0.0
O52 O 0.71987 0.22434 0.22123 0.0
O53 O 0.74401 0.22371 0.17536 0.0
O54 O 0.71478 0.17864 0.2672 0.0
C55 C 0.73725 0.23474 0.1976 0.0
O56 O 0.7411 0.17766 0.22747 0.0
O57 O 0.72765 0.16986 0.118 0.0
C58 C 0.73274 0.1766 0.26189 0.0
O59 O 0.68918 0.14984 0.10678 0.0
O60 O 0.65466 0.168 0.14759 0.0
O61 O 0.66639 0.19472 0.19527 0.0
C62 C 0.92329 0.52445 0.10694 0.0
C63 C 0.85395 0.48171 0.07647 0.0
C64 C 0.84274 0.5559 0.1007 0.0
Mg65 Mg 0.87882 0.49844 0.15683 0.0
O66 O 0.87908 0.52642 0.15269 0.0
Mg67 Mg 0.88118 0.53892 0.09757 0.0
Mg68 Mg 0.85074 0.52664 0.17082 0.0
O69 O 0.82235 0.52642 0.18859 0.0
Mg70 Mg 0.8168 0.55102 0.18281 0.0
Mg71 Mg 0.81557 0.51005 0.24051 0.0
C72 C 0.85646 0.49688 0.24203 0.0
C73 C 0.8097 0.47222 0.17485 0.0
O74 O 0.91448 0.53569 0.09028 0.0
O75 O 0.9133 0.51038 0.13576 0.0
O76 O 0.86118 0.50289 0.0674 0.0
O77 O 0.85726 0.47593 0.11078 0.0
O78 O 0.8662 0.48957 0.21762 0.0
O79 O 0.85234 0.51331 0.23338 0.0
C80 C 0.89499 0.57899 0.165 0.0
O81 O 0.87709 0.56507 0.18571 0.0
O82 O 0.89959 0.57299 0.13157 0.0
O83 O 0.77846 0.50546 0.23542 0.0
O84 O 0.78007 0.52997 0.18791 0.0
O85 O 0.82748 0.54416 0.27491 0.0
C86 C 0.76865 0.51318 0.21195 0.0
O87 O 0.82913 0.57181 0.23545 0.0
O88 O 0.83203 0.56248 0.12434 0.0
C89 C 0.83074 0.56461 0.26968 0.0
O90 O 0.84767 0.54014 0.11023 0.0
O91 O 0.82644 0.48786 0.15439 0.0
O92 O 0.80321 0.47707 0.20713 0.0
C93 C 0.39547 0.46778 0.39926 0.0
C94 C 0.37162 0.51435 0.42432 0.0
C95 C 0.28537 0.44361 0.39635 0.0
Mg96 Mg 0.38081 0.49578 0.34676 0.0
O97 O 0.35211 0.4687 0.34915 0.0
Mg98 Mg 0.33987 0.45695 0.40397 0.0
Mg99 Mg 0.32547 0.47142 0.32945 0.0
O100 O 0.2994 0.47521 0.31046 0.0
Mg101 Mg 0.26829 0.45226 0.31305 0.0
Mg102 Mg 0.31187 0.49274 0.25994 0.0
C103 C 0.36396 0.49995 0.26009 0.0
C104 C 0.34384 0.52682 0.32975 0.0
O105 O 0.37509 0.4577 0.41491 0.0
O106 O 0.401 0.48197 0.37027 0.0
O107 O 0.35682 0.49341 0.43364 0.0
O108 O 0.38191 0.51937 0.39095 0.0
O109 O 0.38026 0.5052 0.28535 0.0
O110 O 0.34262 0.48535 0.26818 0.0
C111 C 0.31342 0.4179 0.33479 0.0
O112 O 0.31095 0.43269 0.31366 0.0
O113 O 0.32324 0.42307 0.36901 0.0
O114 O 0.28146 0.50047 0.26269 0.0
O115 O 0.25457 0.47505 0.30476 0.0
O116 O 0.28852 0.45985 0.22313 0.0
C117 C 0.26251 0.49294 0.28238 0.0
O118 O 0.26108 0.43191 0.26034 0.0
O119 O 0.26892 0.43899 0.37172 0.0
C120 C 0.27081 0.43955 0.22684 0.0
O121 O 0.30676 0.45803 0.38828 0.0
O122 O 0.34257 0.50946 0.34799 0.0
O123 O 0.33396 0.52474 0.29651 0.0
C124 C 0.53187 0.93026 0.38636 0.0
C125 C 0.48697 0.86204 0.42659 0.0
C126 C 0.55635 0.8452 0.40183 0.0
Mg127 Mg 0.50218 0.88414 0.34328 0.0
O128 O 0.52935 0.88283 0.34586 0.0
Mg129 Mg 0.54328 0.88638 0.40037 0.0
Mg130 Mg 0.52661 0.85264 0.33139 0.0
O131 O 0.52337 0.82224 0.31801 0.0
Mg132 Mg 0.54656 0.81467 0.32428 0.0
Mg133 Mg 0.50555 0.81401 0.26756 0.0
C134 C 0.49567 0.85707 0.26126 0.0
C135 C 0.47122 0.81458 0.33454 0.0
O136 O 0.54249 0.92112 0.40407 0.0
O137 O 0.51678 0.91967 0.35922 0.0
O138 O 0.50819 0.86872 0.4345 0.0
O139 O 0.48086 0.86526 0.39259 0.0
O140 O 0.49051 0.86903 0.28469 0.0
O141 O 0.51151 0.85203 0.26952 0.0
C142 C 0.58007 0.89475 0.32921 0.0
O143 O 0.56468 0.87617 0.31177 0.0
O144 O 0.57616 0.9017 0.36232 0.0
O145 O 0.49887 0.77639 0.27697 0.0
O146 O 0.52386 0.77803 0.3235 0.0
O147 O 0.53849 0.82266 0.23114 0.0
C148 C 0.50632 0.76657 0.30096 0.0
O149 O 0.56612 0.8241 0.27053 0.0
O150 O 0.56078 0.83209 0.3801 0.0
C151 C 0.55863 0.82505 0.23623 0.0
O152 O 0.54161 0.85136 0.39157 0.0
O153 O 0.48831 0.83204 0.35115 0.0
O154 O 0.4738 0.80506 0.30376 0.0
C155 C 0.0728 0.60036 0.39328 0.0
C156 C 0.14278 0.62461 0.42209 0.0
C157 C 0.15809 0.71052 0.40088 0.0
Mg158 Mg 0.11656 0.61701 0.34282 0.0
O159 O 0.1179 0.64548 0.34711 0.0
Mg160 Mg 0.117 0.65603 0.40281 0.0
Mg161 Mg 0.1475 0.67295 0.32981 0.0
O162 O 0.17747 0.69996 0.31348 0.0
Mg163 Mg 0.18533 0.73081 0.31994 0.0
Mg164 Mg 0.18329 0.6899 0.26122 0.0
C165 C 0.13991 0.63716 0.25811 0.0
C166 C 0.18534 0.65539 0.32598 0.0
O167 O 0.08265 0.62032 0.41041 0.0
O168 O 0.08203 0.59579 0.36392 0.0
O169 O 0.13635 0.63905 0.43214 0.0
O170 O 0.13798 0.61502 0.38818 0.0
O171 O 0.12877 0.62008 0.28205 0.0
O172 O 0.14541 0.65808 0.26723 0.0
C173 C 0.10533 0.68415 0.33549 0.0
O174 O 0.12334 0.68775 0.31543 0.0
O175 O 0.09995 0.67311 0.36861 0.0
O176 O 0.22125 0.72065 0.26643 0.0
O177 O 0.22195 0.74529 0.3126 0.0
O178 O 0.17329 0.71413 0.22778 0.0
C179 C 0.23231 0.73864 0.28855 0.0
O180 O 0.17279 0.74007 0.26902 0.0
O181 O 0.17042 0.72791 0.37827 0.0
C182 C 0.17075 0.73167 0.23437 0.0
O183 O 0.1514 0.68953 0.39046 0.0
O184 O 0.16869 0.65525 0.34514 0.0
O185 O 0.1936 0.66721 0.29446 0.0
C186 C 0.50446 0.7371 0.78189 0.0
C187 C 0.55831 0.72957 0.72538 0.0
C188 C 0.49657 0.63597 0.7552 0.0
Mg189 Mg 0.54469 0.73037 0.8114 0.0
O190 O 0.52158 0.69941 0.80775 0.0
Mg191 Mg 0.50473 0.68812 0.75653 0.0
Mg192 Mg 0.5256 0.67313 0.8249 0.0
O193 O 0.52873 0.64643 0.84292 0.0
Mg194 Mg 0.50199 0.6175 0.84015 0.0
Mg195 Mg 0.5411 0.65801 0.89786 0.0
C196 C 0.5532 0.71218 0.89362 0.0
C197 C 0.57954 0.68587 0.82861 0.0
O198 O 0.49694 0.71853 0.76112 0.0
O199 O 0.52229 0.74452 0.80427 0.0
O200 O 0.53797 0.71208 0.72066 0.0
O201 O 0.56566 0.73851 0.75942 0.0
O202 O 0.55754 0.72881 0.86957 0.0
O203 O 0.539 0.69084 0.88482 0.0
C204 C 0.46983 0.65413 0.82372 0.0
O205 O 0.48692 0.65478 0.84221 0.0
O206 O 0.47256 0.66548 0.79189 0.0
O207 O 0.54102 0.623 0.90581 0.0
O208 O 0.51697 0.59762 0.86038 0.0
O209 O 0.50534 0.64024 0.92947 0.0
C210 C 0.53127 0.60292 0.88915 0.0
O211 O 0.47927 0.61489 0.88749 0.0
O212 O 0.49125 0.61926 0.77971 0.0
C213 C 0.4845 0.62488 0.92106 0.0
O214 O 0.51189 0.65706 0.76334 0.0
O215 O 0.56451 0.68843 0.80842 0.0
O216 O 0.57462 0.67553 0.86232 0.0
C217 C 0.26236 0.76799 0.78852 0.0
C218 C 0.27034 0.82908 0.72901 0.0
C219 C 0.36385 0.8608 0.76282 0.0
Mg220 Mg 0.2685 0.81499 0.81574 0.0
O221 O 0.29953 0.82299 0.81294 0.0
Mg222 Mg 0.31135 0.81706 0.76265 0.0
Mg223 Mg 0.32589 0.85288 0.83109 0.0
O224 O 0.35268 0.88235 0.85006 0.0
Mg225 Mg 0.3813 0.88376 0.84859 0.0
Mg226 Mg 0.34039 0.88291 0.9045 0.0
C227 C 0.28594 0.84185 0.89791 0.0
C228 C 0.31415 0.89476 0.83408 0.0
O229 O 0.28077 0.77898 0.76729 0.0
O230 O 0.25479 0.77844 0.81041 0.0
O231 O 0.28809 0.82656 0.72531 0.0
O232 O 0.26076 0.8272 0.76256 0.0
O233 O 0.26956 0.82978 0.87334 0.0
O234 O 0.30731 0.84856 0.89008 0.0
C235 C 0.34381 0.81521 0.83165 0.0
O236 O 0.34328 0.83179 0.84982 0.0
O237 O 0.33306 0.80703 0.79924 0.0
O238 O 0.37571 0.91734 0.91416 0.0
O239 O 0.40156 0.9183 0.87006 0.0
O240 O 0.35677 0.86372 0.9365 0.0
C241 C 0.39609 0.92738 0.89848 0.0
O242 O 0.38236 0.86263 0.8955 0.0
O243 O 0.38022 0.87178 0.78804 0.0
C244 C 0.37176 0.85765 0.92853 0.0
O245 O 0.34269 0.85516 0.77014 0.0
O246 O 0.31149 0.87714 0.81387 0.0
O247 O 0.32407 0.89984 0.86816 0.0
C248 C 0.23255 0.48924 0.77619 0.0
C249 C 0.16789 0.43826 0.72546 0.0
C250 C 0.14403 0.50598 0.75616 0.0
Mg251 Mg 0.18516 0.45242 0.81046 0.0
O252 O 0.1804 0.4777 0.8071 0.0
Mg253 Mg 0.1852 0.49333 0.75473 0.0
Mg254 Mg 0.15186 0.47693 0.82624 0.0
O255 O 0.12321 0.4761 0.84545 0.0
Mg256 Mg 0.12137 0.50291 0.84144 0.0
Mg257 Mg 0.12141 0.46304 0.89986 0.0
C258 C 0.16094 0.4476 0.89454 0.0
C259 C 0.10854 0.4241 0.83077 0.0
O260 O 0.22204 0.49754 0.75588 0.0
O261 O 0.22182 0.47222 0.80019 0.0
O262 O 0.17201 0.45902 0.7205 0.0
O263 O 0.16989 0.43099 0.75935 0.0
O264 O 0.17142 0.44127 0.86993 0.0
O265 O 0.15566 0.46326 0.88617 0.0
C266 C 0.19266 0.5314 0.82116 0.0
O267 O 0.17608 0.51592 0.84225 0.0
O268 O 0.19851 0.52631 0.78841 0.0
O269 O 0.08728 0.46472 0.90823 0.0
O270 O 0.08673 0.48925 0.86294 0.0
O271 O 0.14064 0.4992 0.93052 0.0
C272 C 0.07748 0.47511 0.89191 0.0
O273 O 0.14253 0.52556 0.88752 0.0
O274 O 0.13351 0.51244 0.78053 0.0
C275 C 0.14676 0.52018 0.9215 0.0
O276 O 0.14891 0.4901 0.76489 0.0
O277 O 0.12622 0.43883 0.81064 0.0
O278 O 0.10351 0.42896 0.86486 0.0
C279 C 0.7402 0.50711 0.71226 0.0
C280 C 0.7315 0.55975 0.76948 0.0
C281 C 0.63793 0.49698 0.74045 0.0
Mg282 Mg 0.73242 0.5467 0.68285 0.0
O283 O 0.70162 0.52316 0.68697 0.0
Mg284 Mg 0.69064 0.50604 0.73816 0.0
Mg285 Mg 0.67476 0.52619 0.66985 0.0
O286 O 0.64743 0.52826 0.65193 0.0
Mg287 Mg 0.61903 0.50092 0.65506 0.0
Mg288 Mg 0.6586 0.54052 0.59683 0.0
C289 C 0.7134 0.55459 0.60091 0.0
C290 C 0.68568 0.57952 0.66573 0.0
O291 O 0.72168 0.49931 0.73328 0.0
O292 O 0.74718 0.52477 0.68956 0.0
O293 O 0.71408 0.53935 0.77409 0.0
O294 O 0.74045 0.56726 0.73545 0.0
O295 O 0.73031 0.55959 0.62469 0.0
O296 O 0.69223 0.53977 0.60978 0.0
C297 C 0.65725 0.47076 0.67092 0.0
O298 O 0.65746 0.48767 0.65262 0.0
O299 O 0.66856 0.47366 0.70283 0.0
O300 O 0.62285 0.5391 0.58884 0.0
O301 O 0.59805 0.51456 0.63449 0.0
O302 O 0.64184 0.50459 0.5659 0.0
C303 C 0.6028 0.52876 0.60571 0.0
O304 O 0.61738 0.47819 0.60856 0.0
O305 O 0.62115 0.49121 0.71595 0.0
C306 C 0.62722 0.48356 0.57483 0.0
O307 O 0.65896 0.51229 0.73174 0.0
O308 O 0.68906 0.56497 0.6858 0.0
O309 O 0.67516 0.57416 0.63217 0.0
C310 C 0.49342 0.23198 0.71166 0.0
C311 C 0.4394 0.17071 0.76608 0.0
C312 C 0.50202 0.13885 0.73651 0.0
Mg313 Mg 0.4537 0.18541 0.68009 0.0
O314 O 0.47656 0.17731 0.6849 0.0
Mg315 Mg 0.49314 0.18266 0.73638 0.0
Mg316 Mg 0.47355 0.1477 0.66644 0.0
O317 O 0.4716 0.11858 0.64702 0.0
Mg318 Mg 0.49903 0.11765 0.64973 0.0
Mg319 Mg 0.45985 0.11856 0.59191 0.0
C320 C 0.446 0.15921 0.59781 0.0
C321 C 0.42032 0.10538 0.66049 0.0
O322 O 0.50049 0.22067 0.7328 0.0
O323 O 0.47616 0.22191 0.68803 0.0
O324 O 0.45944 0.17288 0.77154 0.0
O325 O 0.43258 0.17274 0.73181 0.0
O326 O 0.44103 0.1711 0.62165 0.0
O327 O 0.46061 0.15262 0.60669 0.0
C328 C 0.52894 0.18538 0.66935 0.0
O329 O 0.51217 0.1691 0.65016 0.0
O330 O 0.52581 0.19317 0.70178 0.0
O331 O 0.46126 0.08448 0.58196 0.0
O332 O 0.48569 0.08349 0.62696 0.0
O333 O 0.49603 0.13833 0.56176 0.0
C334 C 0.47159 0.07454 0.59791 0.0
O335 O 0.5222 0.13981 0.60443 0.0
O336 O 0.50802 0.12835 0.71128 0.0
C337 C 0.51703 0.14477 0.57095 0.0
O338 O 0.48676 0.14472 0.72831 0.0
O339 O 0.43465 0.12309 0.68123 0.0
O340 O 0.42597 0.1008 0.62668 0.0
C341 C 0.76779 0.26284 0.71419 0.0
C342 C 0.82898 0.27116 0.77163 0.0
C343 C 0.8612 0.36424 0.73873 0.0
Mg344 Mg 0.8147 0.26921 0.68519 0.0
O345 O 0.82251 0.30022 0.68743 0.0
Mg346 Mg 0.81694 0.31219 0.73793 0.0
Mg347 Mg 0.85304 0.32624 0.67052 0.0
O348 O 0.88324 0.35263 0.65288 0.0
Mg349 Mg 0.88556 0.38162 0.65407 0.0
Mg350 Mg 0.88475 0.34036 0.59896 0.0
C351 C 0.84191 0.2864 0.6032 0.0
C352 C 0.89392 0.31329 0.67153 0.0
O353 O 0.77888 0.28177 0.73403 0.0
O354 O 0.77812 0.25508 0.69236 0.0
O355 O 0.82608 0.28868 0.77541 0.0
O356 O 0.82754 0.26186 0.73798 0.0
O357 O 0.82919 0.26997 0.6273 0.0
O358 O 0.84945 0.30784 0.6117 0.0
C359 C 0.81636 0.34516 0.66838 0.0
O360 O 0.83294 0.34431 0.65078 0.0
O361 O 0.80761 0.33435 0.70063 0.0
O362 O 0.91991 0.37522 0.59084 0.0
O363 O 0.92053 0.40128 0.63407 0.0
O364 O 0.86716 0.35797 0.5651 0.0
C365 C 0.92995 0.39558 0.60653 0.0
O366 O 0.86534 0.3832 0.60613 0.0
O367 O 0.87293 0.38077 0.71411 0.0
C368 C 0.86116 0.37307 0.5727 0.0
O369 O 0.8551 0.34304 0.73097 0.0
O370 O 0.87598 0.31117 0.68981 0.0
O371 O 0.9003 0.32309 0.63744 0.0
H372 H 0.48388 0.22345 0.17542 0.0
H373 H 0.50904 0.20722 0.16391 0.0
H374 H 0.56126 0.25954 0.23892 0.0
H375 H 0.53624 0.27597 0.25085 0.0
H376 H 0.55386 0.23332 0.12867 0.0
H377 H 0.55695 0.19835 0.27644 0.0
H378 H 0.53441 0.20454 0.26259 0.0
H379 H 0.56255 0.22767 0.27651 0.0
C380 C 0.50052 0.2313 0.19015 0.0
C381 C 0.50807 0.25113 0.21393 0.0
C382 C 0.51489 0.22201 0.18338 0.0
C383 C 0.53693 0.23219 0.20057 0.0
C384 C 0.54416 0.2513 0.22575 0.0
H385 H 0.66047 0.22752 0.14605 0.0
H386 H 0.6302 0.23829 0.14836 0.0
C387 C 0.52983 0.26067 0.2325 0.0
C388 C 0.55299 0.22385 0.18989 0.0
H389 H 0.58391 0.2004 0.22842 0.0
C390 C 0.56035 0.22599 0.15037 0.0
C391 C 0.56125 0.21421 0.2183 0.0
C392 C 0.55328 0.21083 0.26079 0.0
C393 C 0.57621 0.21912 0.13869 0.0
C394 C 0.58487 0.21003 0.16731 0.0
C395 C 0.5772 0.20749 0.20663 0.0
C396 C 0.60218 0.20322 0.15752 0.0
C397 C 0.58359 0.22149 0.09596 0.0
C398 C 0.59624 0.17996 0.16094 0.0
C399 C 0.61338 0.17385 0.15927 0.0
C400 C 0.63666 0.19088 0.154 0.0
C401 C 0.6425 0.21405 0.14883 0.0
C402 C 0.62529 0.22018 0.15029 0.0
H403 H 0.57248 0.22525 0.07639 0.0
H404 H 0.60174 0.23587 0.09313 0.0
H405 H 0.583 0.2054 0.08561 0.0
H406 H 0.57854 0.16674 0.16722 0.0
H407 H 0.60861 0.15611 0.16558 0.0
H408 H 0.78789 0.43616 0.22534 0.0
H409 H 0.77522 0.39571 0.21337 0.0
H410 H 0.79547 0.41073 0.09107 0.0
H411 H 0.80807 0.45196 0.10271 0.0
H412 H 0.74276 0.36353 0.14284 0.0
H413 H 0.83364 0.38125 0.15515 0.0
H414 H 0.82542 0.40059 0.17788 0.0
H415 H 0.82663 0.39927 0.12506 0.0
C416 C 0.78938 0.431 0.19559 0.0
C417 C 0.79952 0.44742 0.16501 0.0
C418 C 0.78214 0.40782 0.18891 0.0
C419 C 0.78478 0.40046 0.15157 0.0
C420 C 0.79373 0.41637 0.12026 0.0
H421 H 0.76876 0.26176 0.14122 0.0
H422 H 0.78056 0.30173 0.1241 0.0
C423 C 0.80105 0.43981 0.12696 0.0
C424 C 0.77937 0.37629 0.14724 0.0
H425 H 0.80377 0.34261 0.16307 0.0
C426 C 0.75607 0.35883 0.14625 0.0
C427 C 0.79684 0.37038 0.15164 0.0
C428 C 0.82211 0.38875 0.15251 0.0
C429 C 0.74968 0.33554 0.1516 0.0
C430 C 0.76707 0.32978 0.15941 0.0
C431 C 0.79047 0.34712 0.15772 0.0
C432 C 0.76121 0.3061 0.17137 0.0
C433 C 0.72434 0.3174 0.14964 0.0
C434 C 0.7473 0.29569 0.20477 0.0
C435 C 0.74046 0.27282 0.21467 0.0
C436 C 0.74765 0.26002 0.19159 0.0
C437 C 0.76282 0.27104 0.15963 0.0
C438 C 0.76952 0.29388 0.14962 0.0
H439 H 0.71454 0.32328 0.13102 0.0
H440 H 0.72186 0.30083 0.13753 0.0
H441 H 0.71686 0.31415 0.17987 0.0
H442 H 0.74134 0.30512 0.22276 0.0
H443 H 0.72896 0.26498 0.23966 0.0
H444 H 0.74469 0.50524 0.14395 0.0
H445 H 0.70379 0.47847 0.133 0.0
H446 H 0.69404 0.4642 0.25832 0.0
H447 H 0.73573 0.4898 0.26892 0.0
H448 H 0.67322 0.42642 0.22264 0.0
H449 H 0.6482 0.48313 0.14468 0.0
H450 H 0.67131 0.48282 0.11833 0.0
H451 H 0.6761 0.49443 0.16791 0.0
C452 C 0.73375 0.49678 0.16933 0.0
C453 C 0.7433 0.49976 0.20739 0.0
C454 C 0.71026 0.48155 0.16304 0.0
C455 C 0.69555 0.46969 0.19487 0.0
C456 C 0.70497 0.47322 0.23323 0.0
H457 H 0.54692 0.39168 0.1761 0.0
H458 H 0.58748 0.42167 0.17893 0.0
C459 C 0.72872 0.48792 0.23937 0.0
C460 C 0.67088 0.45216 0.18753 0.0
H461 H 0.62285 0.44214 0.13552 0.0
C462 C 0.66212 0.43 0.20405 0.0
C463 C 0.6562 0.45677 0.16355 0.0
C464 C 0.66341 0.48067 0.14805 0.0
C465 C 0.63927 0.41237 0.19724 0.0
C466 C 0.62513 0.41653 0.17111 0.0
C467 C 0.63383 0.43872 0.15474 0.0
C468 C 0.60061 0.39882 0.16331 0.0
C469 C 0.63041 0.38983 0.21944 0.0
C470 C 0.5943 0.37614 0.1517 0.0
C471 C 0.57096 0.35879 0.15108 0.0
C472 C 0.55371 0.36423 0.16006 0.0
C473 C 0.55994 0.38723 0.16819 0.0
C474 C 0.58316 0.40435 0.17003 0.0
H475 H 0.64087 0.39203 0.24638 0.0
H476 H 0.61208 0.38267 0.22857 0.0
H477 H 0.63163 0.37702 0.20015 0.0
H478 H 0.60741 0.37161 0.14498 0.0
H479 H 0.56644 0.34105 0.14521 0.0
H480 H 0.22881 0.6626 0.33757 0.0
H481 H 0.24038 0.63294 0.33409 0.0
H482 H 0.16859 0.57972 0.32572 0.0
H483 H 0.15713 0.60921 0.3282 0.0
H484 H 0.22538 0.58857 0.37924 0.0
H485 H 0.20134 0.57812 0.21979 0.0
H486 H 0.206 0.603 0.24827 0.0
H487 H 0.17962 0.57588 0.25394 0.0
C488 C 0.21555 0.64448 0.33653 0.0
C489 C 0.19206 0.63803 0.3347 0.0
C490 C 0.22213 0.62763 0.33433 0.0
C491 C 0.20529 0.60424 0.32948 0.0
C492 C 0.18179 0.5977 0.32958 0.0
H493 H 0.22388 0.48447 0.32425 0.0
H494 H 0.20889 0.51083 0.33435 0.0
C495 C 0.17523 0.61451 0.33186 0.0
C496 C 0.2123 0.58698 0.32049 0.0
H497 H 0.21356 0.55307 0.24596 0.0
C498 C 0.22278 0.58074 0.35019 0.0
C499 C 0.20907 0.57711 0.28233 0.0
C500 C 0.19856 0.58392 0.24905 0.0
C501 C 0.22995 0.56457 0.34283 0.0
C502 C 0.22632 0.55436 0.30489 0.0
C503 C 0.21607 0.56082 0.27507 0.0
C504 C 0.23373 0.53741 0.29545 0.0
C505 C 0.24172 0.55883 0.37542 0.0
C506 C 0.25194 0.54326 0.26877 0.0
C507 C 0.26055 0.52822 0.26276 0.0
C508 C 0.25099 0.50703 0.28326 0.0
C509 C 0.23179 0.50069 0.30815 0.0
C510 C 0.22326 0.51577 0.31419 0.0
H511 H 0.2474 0.57156 0.40001 0.0
H512 H 0.22944 0.54147 0.38762 0.0
H513 H 0.25703 0.55828 0.36381 0.0
H514 H 0.26009 0.55985 0.2538 0.0
H515 H 0.27528 0.53364 0.24327 0.0
H516 H 0.33811 0.55909 0.37041 0.0
H517 H 0.36731 0.60039 0.37734 0.0
H518 H 0.41747 0.58797 0.31794 0.0
H519 H 0.3889 0.54691 0.31344 0.0
H520 H 0.43835 0.61956 0.37129 0.0
H521 H 0.38142 0.64136 0.28345 0.0
H522 H 0.36919 0.62782 0.32997 0.0
H523 H 0.3744 0.61192 0.2922 0.0
C524 C 0.35562 0.56526 0.36007 0.0
C525 C 0.3615 0.55012 0.34157 0.0
C526 C 0.37217 0.58879 0.36351 0.0
C527 C 0.39439 0.59739 0.34708 0.0
C528 C 0.40046 0.58183 0.3307 0.0
H529 H 0.47924 0.73349 0.24683 0.0
H530 H 0.45345 0.69209 0.25928 0.0
C531 C 0.38417 0.55838 0.32811 0.0
C532 C 0.41089 0.62259 0.34363 0.0
H533 H 0.41742 0.67238 0.30308 0.0
C534 C 0.43378 0.63115 0.35646 0.0
C535 C 0.40502 0.63758 0.32348 0.0
C536 C 0.38126 0.62921 0.30612 0.0
C537 C 0.45108 0.65408 0.34893 0.0
C538 C 0.44506 0.66922 0.32973 0.0
C539 C 0.42205 0.66079 0.31775 0.0
C540 C 0.46223 0.69384 0.32143 0.0
C541 C 0.47572 0.66138 0.36011 0.0
C542 C 0.47592 0.70855 0.35197 0.0
C543 C 0.49114 0.73195 0.34455 0.0
C544 C 0.49238 0.74132 0.30676 0.0
C545 C 0.47868 0.72667 0.27615 0.0
C546 C 0.4639 0.70308 0.28334 0.0
H547 H 0.47849 0.64629 0.36144 0.0
H548 H 0.4883 0.67413 0.33876 0.0
H549 H 0.47945 0.66938 0.38994 0.0
H550 H 0.47439 0.70213 0.38187 0.0
H551 H 0.50114 0.74294 0.36896 0.0
H552 H 0.26097 0.72714 0.24857 0.0
H553 H 0.30224 0.74215 0.26052 0.0
H554 H 0.30294 0.79102 0.34474 0.0
H555 H 0.26174 0.77619 0.33326 0.0
H556 H 0.34183 0.78827 0.25597 0.0
H557 H 0.32472 0.75173 0.40822 0.0
H558 H 0.30219 0.74296 0.3715 0.0
H559 H 0.31285 0.77005 0.39691 0.0
C560 C 0.26994 0.74134 0.26916 0.0
C561 C 0.25792 0.75026 0.29028 0.0
C562 C 0.29351 0.74983 0.27602 0.0
C563 C 0.30541 0.7673 0.30413 0.0
C564 C 0.29387 0.77719 0.32351 0.0
H565 H 0.45366 0.84316 0.33811 0.0
H566 H 0.41284 0.83207 0.33677 0.0
C567 C 0.27035 0.76876 0.31667 0.0
C568 C 0.32967 0.77457 0.31424 0.0
H569 H 0.36403 0.77442 0.3891 0.0
C570 C 0.34673 0.78531 0.28505 0.0
C571 C 0.33584 0.77035 0.35212 0.0
C572 C 0.31796 0.75797 0.38398 0.0
C573 C 0.36995 0.79223 0.2929 0.0
C574 C 0.37619 0.78847 0.33104 0.0
C575 C 0.35912 0.77748 0.36009 0.0
C576 C 0.40039 0.79532 0.34055 0.0
C577 C 0.3876 0.80318 0.26015 0.0
C578 C 0.40677 0.77836 0.34542 0.0
C579 C 0.43018 0.78476 0.34722 0.0
C580 C 0.44738 0.80819 0.34486 0.0
C581 C 0.44083 0.82514 0.34238 0.0
C582 C 0.41749 0.81877 0.34061 0.0
H583 H 0.3793 0.80052 0.23066 0.0
H584 H 0.3982 0.8221 0.26545 0.0
H585 H 0.39947 0.79601 0.25957 0.0
H586 H 0.39374 0.76015 0.34525 0.0
H587 H 0.43488 0.77139 0.34804 0.0
H588 H 0.51343 0.77519 0.82571 0.0
H589 H 0.48726 0.79008 0.83864 0.0
H590 H 0.43737 0.7401 0.75775 0.0
H591 H 0.46338 0.7249 0.7445 0.0
H592 H 0.44543 0.78782 0.75288 0.0
H593 H 0.42617 0.75044 0.90467 0.0
H594 H 0.4563 0.76787 0.89187 0.0
H595 H 0.43865 0.7409 0.86683 0.0
C596 C 0.49705 0.76751 0.81015 0.0
C597 C 0.49043 0.74865 0.78432 0.0
C598 C 0.48208 0.77599 0.81781 0.0
C599 C 0.46028 0.76585 0.79975 0.0
C600 C 0.4541 0.74798 0.77221 0.0
H601 H 0.33605 0.7716 0.8433 0.0
H602 H 0.36559 0.75989 0.84081 0.0
C603 C 0.46903 0.73938 0.7646 0.0
C604 C 0.44361 0.77339 0.81057 0.0
H605 H 0.40956 0.77321 0.8863 0.0
C606 C 0.43762 0.78471 0.78203 0.0
C607 C 0.43335 0.76904 0.84856 0.0
C608 C 0.43874 0.75624 0.87978 0.0
C609 C 0.42169 0.79202 0.79062 0.0
C610 C 0.41169 0.78797 0.8288 0.0
C611 C 0.4175 0.77645 0.85725 0.0
C612 C 0.39451 0.79495 0.83883 0.0
C613 C 0.41536 0.80366 0.75859 0.0
C614 C 0.40117 0.81847 0.84039 0.0
C615 C 0.38441 0.82512 0.84198 0.0
C616 C 0.36079 0.80836 0.84278 0.0
C617 C 0.3542 0.78481 0.84382 0.0
C618 C 0.37101 0.77813 0.84218 0.0
H619 H 0.4216 0.80187 0.72906 0.0
H620 H 0.39629 0.79624 0.75726 0.0
H621 H 0.42332 0.8224 0.7653 0.0
H622 H 0.41925 0.83166 0.83766 0.0
H623 H 0.3899 0.84329 0.83875 0.0
H624 H 0.1895 0.552 0.88992 0.0
H625 H 0.20153 0.59326 0.89854 0.0
H626 H 0.23346 0.60814 0.78336 0.0
H627 H 0.22127 0.56763 0.77419 0.0
H628 H 0.25889 0.64166 0.85117 0.0
H629 H 0.16769 0.61989 0.82313 0.0
H630 H 0.17378 0.60399 0.85975 0.0
H631 H 0.17777 0.60042 0.80833 0.0
C632 C 0.19897 0.56411 0.86658 0.0
C633 C 0.20355 0.55633 0.83093 0.0
C634 C 0.20598 0.58759 0.87162 0.0
C635 C 0.2179 0.60347 0.84119 0.0
C636 C 0.22413 0.59606 0.80705 0.0
H637 H 0.27306 0.73884 0.7483 0.0
H638 H 0.26097 0.69875 0.76514 0.0
C639 C 0.21707 0.57279 0.80195 0.0
C640 C 0.22229 0.62743 0.84231 0.0
H641 H 0.19658 0.65896 0.81806 0.0
C642 C 0.24525 0.64557 0.8448 0.0
C643 C 0.2044 0.63231 0.834 0.0
C644 C 0.17947 0.61323 0.83102 0.0
C645 C 0.25095 0.66852 0.83755 0.0
C646 C 0.23327 0.67324 0.82626 0.0
C647 C 0.21012 0.65523 0.82609 0.0
C648 C 0.23859 0.69661 0.81335 0.0
C649 C 0.2759 0.68743 0.84156 0.0
C650 C 0.22872 0.70809 0.83299 0.0
C651 C 0.23523 0.73086 0.82293 0.0
C652 C 0.25181 0.74259 0.79308 0.0
C653 C 0.26045 0.73045 0.77168 0.0
C654 C 0.25377 0.70762 0.78159 0.0
H655 H 0.28554 0.68226 0.8621 0.0
H656 H 0.28447 0.69084 0.81222 0.0
H657 H 0.27724 0.70376 0.85251 0.0
H658 H 0.21669 0.69977 0.85717 0.0
H659 H 0.22812 0.7396 0.83998 0.0
H660 H 0.26126 0.47985 0.82052 0.0
H661 H 0.30266 0.50546 0.83174 0.0
H662 H 0.30343 0.55343 0.74543 0.0
H663 H 0.26204 0.52799 0.73376 0.0
H664 H 0.34309 0.54604 0.74413 0.0
H665 H 0.3233 0.56751 0.89296 0.0
H666 H 0.31145 0.53723 0.88233 0.0
H667 H 0.30149 0.5537 0.85512 0.0
C668 C 0.27026 0.49561 0.80327 0.0
C669 C 0.2582 0.50201 0.77663 0.0
C670 C 0.2939 0.51026 0.80994 0.0
C671 C 0.30586 0.5315 0.79005 0.0
C672 C 0.29436 0.53716 0.7613 0.0
H673 H 0.43211 0.65929 0.83276 0.0
H674 H 0.3915 0.62808 0.8292 0.0
C675 C 0.2707 0.52256 0.75465 0.0
C676 C 0.32994 0.5485 0.80093 0.0
H677 H 0.36274 0.58501 0.87506 0.0
C678 C 0.34747 0.55448 0.77279 0.0
C679 C 0.33539 0.55964 0.83822 0.0
C680 C 0.31695 0.55441 0.86891 0.0
C681 C 0.37045 0.57132 0.78102 0.0
C682 C 0.37593 0.58227 0.81848 0.0
C683 C 0.35841 0.57637 0.84658 0.0
C684 C 0.39974 0.60054 0.82812 0.0
C685 C 0.3886 0.57772 0.74927 0.0
C686 C 0.41751 0.59519 0.83042 0.0
C687 C 0.44053 0.6129 0.83253 0.0
C688 C 0.44608 0.63616 0.83329 0.0
C689 C 0.42817 0.64144 0.83334 0.0
C690 C 0.40508 0.62368 0.8311 0.0
H691 H 0.38077 0.57067 0.71991 0.0
H692 H 0.39964 0.59683 0.74686 0.0
H693 H 0.39997 0.57058 0.75709 0.0
H694 H 0.41367 0.57741 0.82809 0.0
H695 H 0.45395 0.60839 0.82986 0.0
H696 H 0.7294 0.46693 0.75147 0.0
H697 H 0.7457 0.44178 0.73984 0.0
H698 H 0.79423 0.49106 0.65634 0.0
H699 H 0.7781 0.51634 0.66754 0.0
H700 H 0.76736 0.44473 0.6272 0.0
H701 H 0.80887 0.44873 0.77177 0.0
H702 H 0.77947 0.44273 0.7749 0.0
H703 H 0.8016 0.47029 0.75649 0.0
C704 C 0.74384 0.47268 0.73121 0.0
C705 C 0.75235 0.49365 0.71034 0.0
C706 C 0.75314 0.45828 0.72465 0.0
C707 C 0.77116 0.46463 0.6973 0.0
C708 C 0.7803 0.48589 0.67755 0.0
H709 H 0.84581 0.39098 0.66434 0.0
H710 H 0.83568 0.42144 0.66407 0.0
C711 C 0.77108 0.50034 0.68415 0.0
C712 C 0.77942 0.44841 0.68735 0.0
H713 H 0.80485 0.41955 0.72681 0.0
C714 C 0.77572 0.43932 0.64884 0.0
C715 C 0.79042 0.44157 0.71564 0.0
C716 C 0.79554 0.45145 0.75695 0.0
C717 C 0.78225 0.42305 0.63816 0.0
C718 C 0.7926 0.41574 0.6668 0.0
C719 C 0.79679 0.42521 0.70501 0.0
C720 C 0.79886 0.39786 0.65832 0.0
C721 C 0.77812 0.41379 0.59647 0.0
C722 C 0.78151 0.37461 0.65402 0.0
C723 C 0.78733 0.35716 0.65374 0.0
C724 C 0.81057 0.36287 0.65713 0.0
C725 C 0.82793 0.38622 0.65953 0.0
C726 C 0.82212 0.4036 0.66007 0.0
H727 H 0.77392 0.42425 0.57609 0.0
H728 H 0.7936 0.41349 0.58507 0.0
H729 H 0.76339 0.39573 0.59636 0.0
H730 H 0.76342 0.36986 0.65347 0.0
H731 H 0.77365 0.3392 0.65318 0.0
H732 H 0.66375 0.43423 0.65636 0.0
H733 H 0.63349 0.39313 0.65728 0.0
H734 H 0.58124 0.41281 0.66947 0.0
H735 H 0.61127 0.45354 0.66928 0.0
H736 H 0.58366 0.38365 0.73141 0.0
H737 H 0.579 0.34948 0.57941 0.0
H738 H 0.60746 0.36759 0.59983 0.0
H739 H 0.5894 0.37977 0.5892 0.0
C740 C 0.64571 0.42967 0.65753 0.0
C741 C 0.63968 0.44695 0.66103 0.0
C742 C 0.6285 0.4063 0.65816 0.0
C743 C 0.60517 0.40006 0.66294 0.0
C744 C 0.59912 0.41734 0.66509 0.0
H745 H 0.48546 0.26184 0.66791 0.0
H746 H 0.51167 0.30323 0.65812 0.0
C747 C 0.61626 0.44061 0.66424 0.0
C748 C 0.58746 0.3758 0.671 0.0
H749 H 0.55793 0.32208 0.62962 0.0
C750 C 0.57793 0.37016 0.70917 0.0
C751 C 0.58002 0.35845 0.64177 0.0
C752 C 0.58931 0.364 0.6001 0.0
C753 C 0.56129 0.34739 0.71911 0.0
C754 C 0.55425 0.32987 0.69017 0.0
C755 C 0.56349 0.3356 0.65176 0.0
C756 C 0.53751 0.30538 0.69922 0.0
C757 C 0.55125 0.34228 0.76033 0.0
C758 C 0.54322 0.29305 0.72623 0.0
C759 C 0.52827 0.26936 0.73203 0.0
C760 C 0.50741 0.25759 0.71068 0.0
C761 C 0.50137 0.27029 0.68485 0.0
C762 C 0.51635 0.29394 0.67904 0.0
H763 H 0.55421 0.35825 0.77576 0.0
H764 H 0.53234 0.32977 0.75957 0.0
H765 H 0.55965 0.33446 0.77789 0.0
H766 H 0.55962 0.30157 0.74176 0.0
H767 H 0.53353 0.26015 0.75202 0.0
H768 H 0.56523 0.22863 0.65564 0.0
H769 H 0.60642 0.23984 0.65683 0.0
H770 H 0.58734 0.16801 0.66748 0.0
H771 H 0.54648 0.15691 0.6668 0.0
H772 H 0.6159 0.19994 0.73073 0.0
H773 H 0.65087 0.22945 0.57903 0.0
H774 H 0.63213 0.23922 0.5988 0.0
H775 H 0.62063 0.20907 0.58835 0.0
C776 C 0.56995 0.21528 0.65651 0.0
C777 C 0.55282 0.19187 0.65951 0.0
C778 C 0.59337 0.22165 0.6573 0.0
C779 C 0.59979 0.20467 0.66176 0.0
C780 C 0.58266 0.18127 0.66335 0.0
H781 H 0.73845 0.22445 0.67123 0.0
H782 H 0.69707 0.20882 0.66044 0.0
C783 C 0.55934 0.17492 0.6623 0.0
C784 C 0.62403 0.21141 0.67027 0.0
H785 H 0.67803 0.23603 0.62978 0.0
C786 C 0.62952 0.20775 0.70868 0.0
C787 C 0.64153 0.2214 0.64127 0.0
C788 C 0.63613 0.22495 0.5994 0.0
C789 C 0.6523 0.21421 0.7191 0.0
C790 C 0.66996 0.22476 0.69039 0.0
C791 C 0.66439 0.22802 0.65173 0.0
C792 C 0.69444 0.23287 0.69998 0.0
C793 C 0.65729 0.20959 0.76061 0.0
C794 C 0.70648 0.25129 0.72642 0.0
C795 C 0.73016 0.26031 0.73276 0.0
C796 C 0.7422 0.25109 0.71256 0.0
C797 C 0.72978 0.232 0.6873 0.0
C798 C 0.70614 0.22307 0.68092 0.0
H799 H 0.64129 0.19668 0.77611 0.0
H800 H 0.66984 0.20325 0.76034 0.0
H801 H 0.66505 0.22595 0.7778 0.0
H802 H 0.69773 0.25921 0.74109 0.0
H803 H 0.73915 0.27504 0.7523 0.0
H804 H 0.51943 0.5607 0.85778 0.0
H805 H 0.50963 0.52565 0.89518 0.0
H806 H 0.53512 0.56597 0.00194 0.0
H807 H 0.54482 0.6012 0.9649 0.0
H808 H 0.53321 0.51075 0.94834 0.0
H809 H 0.4645 0.5217 0.02115 0.0
H810 H 0.48016 0.53826 0.97828 0.0
H811 H 0.49341 0.54581 0.0263 0.0
C812 C 0.52359 0.56225 0.88902 0.0
C813 C 0.53252 0.58369 0.9085 0.0
C814 C 0.51791 0.54218 0.91034 0.0
C815 C 0.52105 0.54323 0.95141 0.0
C816 C 0.53214 0.56484 0.97031 0.0
H817 H 0.48286 0.44077 0.13333 0.0
H818 H 0.49248 0.47557 0.09535 0.0
C819 C 0.53792 0.58498 0.94898 0.0
C820 C 0.51078 0.52156 0.97466 0.0
H821 H 0.46839 0.48999 0.0422 0.0
C822 C 0.51903 0.50615 0.96884 0.0
C823 C 0.49211 0.51562 0.00102 0.0
C824 C 0.48183 0.53109 0.00693 0.0
C825 C 0.50945 0.48509 0.98944 0.0
C826 C 0.49083 0.47918 0.01589 0.0
C827 C 0.48255 0.49457 0.02166 0.0
C828 C 0.48074 0.45764 0.03948 0.0
C829 C 0.51967 0.46958 0.98347 0.0
C830 C 0.46957 0.43591 0.02097 0.0
C831 C 0.46392 0.4159 0.04263 0.0
C832 C 0.4695 0.41745 0.08306 0.0
C833 C 0.47857 0.43902 0.10214 0.0
C834 C 0.48413 0.45895 0.0805 0.0
H835 H 0.53679 0.47876 0.96847 0.0
H836 H 0.52176 0.46279 0.01224 0.0
H837 H 0.5078 0.4546 0.96484 0.0
H838 H 0.4664 0.43457 0.98939 0.0
H839 H 0.4569 0.39957 0.02703 0.0
H840 H 0.55836 0.04223 0.14404 0.0
H841 H 0.52283 0.01632 0.10862 0.0
H842 H 0.56211 0.02603 0.0019 0.0
H843 H 0.59783 0.05223 0.03697 0.0
H844 H 0.52787 0.03918 0.99639 0.0
H845 H 0.49168 0.95105 0.06045 0.0
H846 H 0.50046 0.97384 0.09625 0.0
H847 H 0.52185 0.97292 0.06517 0.0
C848 C 0.55959 0.03826 0.11337 0.0
C849 C 0.58092 0.04955 0.09322 0.0
C850 C 0.53922 0.02337 0.09319 0.0
C851 C 0.53986 0.01937 0.05264 0.0
C852 C 0.56132 0.02897 0.03324 0.0
H853 H 0.43896 0.95709 0.86873 0.0
H854 H 0.47343 0.98245 0.90697 0.0
C855 C 0.58174 0.04381 0.05344 0.0
C856 C 0.51811 0.00802 0.02958 0.0
H857 H 0.46659 0.95779 0.01978 0.0
C858 C 0.51451 0.02133 0.00127 0.0
C859 C 0.50063 0.9849 0.03657 0.0
C860 C 0.50384 0.96974 0.06602 0.0
C861 C 0.49378 0.01213 0.97981 0.0
C862 C 0.47638 0.98892 0.98645 0.0
C863 C 0.47991 0.97567 0.015 0.0
C864 C 0.45508 0.97738 0.96221 0.0
C865 C 0.49057 0.02744 0.95066 0.0
C866 C 0.4332 0.96666 0.98032 0.0
C867 C 0.41336 0.95207 0.95847 0.0
C868 C 0.41521 0.94774 0.9183 0.0
C869 C 0.43694 0.95999 0.89964 0.0
C870 C 0.4567 0.97459 0.92145 0.0
H871 H 0.50187 0.04607 0.95785 0.0
H872 H 0.49529 0.02447 0.92062 0.0
H873 H 0.47228 0.02346 0.94998 0.0
H874 H 0.43162 0.96863 0.01179 0.0
H875 H 0.39693 0.94283 0.97381 0.0
H876 H 0.94225 0.54135 0.034 0.0
H877 H 0.96875 0.53278 0.99745 0.0
H878 H 0.97554 0.49799 0.0997 0.0
H879 H 0.94925 0.50658 0.13666 0.0
H880 H 0.01771 0.52575 0.0563 0.0
H881 H 0.94456 0.46485 0.96072 0.0
H882 H 0.94932 0.49385 0.96303 0.0
H883 H 0.94024 0.47603 0.0066 0.0
C884 C 0.94982 0.5324 0.04911 0.0
C885 C 0.94337 0.5244 0.08816 0.0
C886 C 0.96477 0.52731 0.02801 0.0
C887 C 0.97356 0.51423 0.04561 0.0
C888 C 0.96869 0.50787 0.08548 0.0
H889 H 0.05918 0.45738 0.96491 0.0
H890 H 0.03198 0.46453 0.00242 0.0
C891 C 0.95369 0.51286 0.10657 0.0
C892 C 0.98674 0.50601 0.02198 0.0
H893 H 0.98168 0.47065 0.94487 0.0
C894 C 0.00986 0.51367 0.032 0.0
C895 C 0.97632 0.4901 0.9905 0.0
C896 C 0.95119 0.48052 0.97965 0.0
C897 C 0.02307 0.50627 0.01072 0.0
C898 C 0.01268 0.49042 0.97914 0.0
C899 C 0.98952 0.48269 0.96923 0.0
C900 C 0.02604 0.48266 0.95488 0.0
C901 C 0.04822 0.51595 0.02152 0.0
C902 C 0.03048 0.48916 0.915 0.0
C903 C 0.04584 0.48495 0.89336 0.0
C904 C 0.05702 0.4741 0.91122 0.0
C905 C 0.05098 0.46585 0.95023 0.0
C906 C 0.03561 0.47013 0.97188 0.0
H907 H 0.05478 0.53156 0.04057 0.0
H908 H 0.05019 0.50264 0.03799 0.0
H909 H 0.05917 0.52058 0.99455 0.0
H910 H 0.02304 0.49862 0.90122 0.0
H911 H 0.04992 0.49137 0.86329 0.0
H912 H 0.39716 0.45565 0.47608 0.0
H913 H 0.43231 0.46496 0.51319 0.0
H914 H 0.47239 0.48798 0.40569 0.0
H915 H 0.43744 0.47851 0.36832 0.0
H916 H 0.4865 0.46434 0.45903 0.0
H917 H 0.47833 0.53491 0.53123 0.0
H918 H 0.45378 0.50628 0.53659 0.0
H919 H 0.46145 0.51946 0.4885 0.0
C920 C 0.41331 0.46195 0.46011 0.0
C921 C 0.41459 0.46668 0.41935 0.0
C922 C 0.43341 0.46752 0.48144 0.0
C923 C 0.45497 0.47777 0.46226 0.0
C924 C 0.45593 0.48035 0.42106 0.0
H925 H 0.59962 0.54109 0.52971 0.0
H926 H 0.56373 0.53108 0.49451 0.0
C927 C 0.43592 0.47488 0.39976 0.0
C928 C 0.47676 0.48766 0.48513 0.0
H929 H 0.51008 0.53069 0.55046 0.0
C930 C 0.49167 0.47882 0.47905 0.0
C931 C 0.48349 0.50672 0.5109 0.0
C932 C 0.46857 0.5176 0.51708 0.0
C933 C 0.51305 0.4883 0.49861 0.0
C934 C 0.5198 0.50739 0.52427 0.0
C935 C 0.50486 0.51618 0.53051 0.0
C936 C 0.54189 0.51764 0.54629 0.0
C937 C 0.52807 0.47754 0.49225 0.0
C938 C 0.54157 0.51487 0.5874 0.0
C939 C 0.56201 0.5207 0.60763 0.0
C940 C 0.58311 0.52947 0.58704 0.0
C941 C 0.58368 0.53437 0.54645 0.0
C942 C 0.56317 0.52842 0.52619 0.0
H943 H 0.51835 0.46021 0.47815 0.0
H944 H 0.54278 0.48891 0.47264 0.0
H945 H 0.53531 0.47576 0.52076 0.0
H946 H 0.52532 0.50682 0.60345 0.0
H947 H 0.56102 0.5169 0.63897 0.0
H948 H 0.51805 0.95824 0.3513 0.0
H949 H 0.50938 0.98535 0.38511 0.0
H950 H 0.53893 0.97661 0.49269 0.0
H951 H 0.54792 0.94968 0.45907 0.0
H952 H 0.47856 0.96902 0.44782 0.0
H953 H 0.5613 0.04584 0.49309 0.0
H954 H 0.55973 0.02623 0.45475 0.0
H955 H 0.55932 0.01878 0.50598 0.0
C956 C 0.52345 0.96269 0.38179 0.0
C957 C 0.53342 0.95157 0.40264 0.0
C958 C 0.5184 0.97813 0.40108 0.0
C959 C 0.52338 0.98286 0.44141 0.0
C960 C 0.53519 0.97341 0.46141 0.0
H961 H 0.48561 0.04541 0.62733 0.0
H962 H 0.49528 0.02048 0.58877 0.0
C963 C 0.54034 0.958 0.44208 0.0
C964 C 0.51339 0.99488 0.4637 0.0
H965 H 0.52704 0.04044 0.52516 0.0
C966 C 0.48916 0.98479 0.46443 0.0
C967 C 0.52725 0.01528 0.48551 0.0
C968 C 0.55335 0.02731 0.48459 0.0
C969 C 0.47837 0.99431 0.48716 0.0
C970 C 0.49223 0.01454 0.50935 0.0
C971 C 0.51647 0.02477 0.50831 0.0
C972 C 0.48214 0.02573 0.5336 0.0
C973 C 0.45228 0.98237 0.48808 0.0
C974 C 0.47056 0.03602 0.51561 0.0
C975 C 0.46485 0.05021 0.53762 0.0
C976 C 0.47095 0.05452 0.57783 0.0
C977 C 0.48082 0.0426 0.59636 0.0
C978 C 0.48646 0.02842 0.57437 0.0
H979 H 0.44417 0.96429 0.47699 0.0
H980 H 0.44596 0.98212 0.51858 0.0
H981 H 0.44644 0.992 0.46897 0.0
H982 H 0.46728 0.03431 0.48406 0.0
H983 H 0.45737 0.05921 0.52238 0.0
H984 H 0.9458 0.39665 0.53145 0.0
H985 H 0.97199 0.4315 0.49411 0.0
H986 H 0.98602 0.47261 0.59977 0.0
H987 H 0.96018 0.43796 0.63736 0.0
H988 H 0.96111 0.46685 0.488 0.0
H989 H 0.04975 0.50103 0.54784 0.0
H990 H 0.02708 0.47137 0.55494 0.0
H991 H 0.02816 0.49401 0.58534 0.0
C992 C 0.95519 0.41294 0.54712 0.0
C993 C 0.95074 0.41457 0.58732 0.0
C994 C 0.97 0.43287 0.52564 0.0
C995 C 0.98086 0.45462 0.54415 0.0
C996 C 0.97804 0.45599 0.58498 0.0
H997 H 0.05683 0.59769 0.46884 0.0
H998 H 0.03128 0.56214 0.50505 0.0
C999 C 0.96318 0.43613 0.60642 0.0
C1000 C 0.99244 0.47608 0.52024 0.0
H1001 H 0.04306 0.52718 0.50957 0.0
C1002 C 0.9791 0.47996 0.49239 0.0
C1003 C 0.01579 0.49324 0.52645 0.0
C1004 C 0.03111 0.48967 0.55501 0.0
C1005 C 0.9884 0.50076 0.47102 0.0
C1006 C 0.01172 0.51797 0.47738 0.0
C1007 C 0.02508 0.51404 0.5051 0.0
C1008 C 0.02315 0.5397 0.45419 0.0
C1009 C 0.97309 0.50434 0.44245 0.0
C1010 C 0.02621 0.53893 0.4133 0.0
C1011 C 0.04069 0.55919 0.39249 0.0
C1012 C 0.05255 0.5806 0.41228 0.0
C1013 C 0.04792 0.58155 0.45263 0.0
C1014 C 0.03347 0.56122 0.47346 0.0
H1015 H 0.95442 0.49263 0.44904 0.0
H1016 H 0.9768 0.52253 0.44319 0.0
H1017 H 0.97644 0.50053 0.41199 0.0
H1018 H 0.01862 0.52249 0.39793 0.0
H1019 H 0.04382 0.55784 0.36141 0.0
H1020 H 0.51281 0.36377 0.99641 0.0
H1021 H 0.542 0.38281 0.94492 0.0
H1022 H 0.5928 0.42357 0.03334 0.0
H1023 H 0.56365 0.40489 0.08504 0.0
H1024 H 0.58887 0.45017 0.97669 0.0
H1025 H 0.59832 0.38094 0.90491 0.0
H1026 H 0.5685 0.37326 0.90908 0.0
H1027 H 0.5853 0.3774 0.95318 0.0
C1028 C 0.53032 0.37633 0.00509 0.0
C1029 C 0.53577 0.38291 0.04491 0.0
C1030 C 0.54708 0.38714 0.97555 0.0
C1031 C 0.56967 0.40453 0.98525 0.0
C1032 C 0.57551 0.41017 0.02516 0.0
H1033 H 0.66441 0.50704 0.80831 0.0
H1034 H 0.65309 0.48522 0.87094 0.0
C1035 C 0.55877 0.39942 0.05471 0.0
C1036 C 0.58606 0.41878 0.95352 0.0
H1037 H 0.60856 0.41494 0.865 0.0
C1038 C 0.59369 0.4426 0.95272 0.0
C1039 C 0.59239 0.40891 0.92234 0.0
C1040 C 0.58589 0.38376 0.92259 0.0
C1041 C 0.60595 0.45644 0.9202 0.0
C1042 C 0.61105 0.44625 0.8879 0.0
C1043 C 0.60465 0.42274 0.88979 0.0
C1044 C 0.61958 0.45863 0.84969 0.0
C1045 C 0.61191 0.48146 0.91943 0.0
C1046 C 0.60487 0.45053 0.81682 0.0
C1047 C 0.61122 0.46283 0.78141 0.0
C1048 C 0.63253 0.48359 0.77783 0.0
C1049 C 0.6478 0.49125 0.81025 0.0
C1050 C 0.64133 0.47885 0.84603 0.0
H1051 H 0.60392 0.48579 0.94442 0.0
H1052 H 0.63098 0.49282 0.92137 0.0
H1053 H 0.60607 0.48546 0.89126 0.0
H1054 H 0.58807 0.43496 0.81889 0.0
H1055 H 0.59915 0.45612 0.75692 0.0
H1056 H 0.63402 0.14411 0.99429 0.0
H1057 H 0.61505 0.15383 0.942 0.0
H1058 H 0.57477 0.16546 0.02931 0.0
H1059 H 0.59327 0.15534 0.08169 0.0
H1060 H 0.54794 0.13453 0.97296 0.0
H1061 H 0.61812 0.21254 0.90075 0.0
H1062 H 0.62525 0.19004 0.90583 0.0
H1063 H 0.62124 0.20319 0.94939 0.0
C1064 C 0.62153 0.14926 0.0025 0.0
C1065 C 0.61511 0.14879 0.04227 0.0
C1066 C 0.61078 0.15496 0.97252 0.0
C1067 C 0.5936 0.16056 0.98173 0.0
C1068 C 0.58802 0.16126 0.02151 0.0
H1069 H 0.49206 0.15491 0.80497 0.0
H1070 H 0.51373 0.16466 0.86769 0.0
C1071 C 0.59869 0.15549 0.05146 0.0
C1072 C 0.57957 0.16279 0.94975 0.0
H1073 H 0.5839 0.18939 0.86132 0.0
C1074 C 0.55567 0.14688 0.94896 0.0
C1075 C 0.58967 0.17896 0.91858 0.0
C1076 C 0.61495 0.1973 0.91883 0.0
C1077 C 0.54194 0.14557 0.91648 0.0
C1078 C 0.55233 0.16086 0.88423 0.0
C1079 C 0.57595 0.17768 0.88609 0.0
C1080 C 0.53998 0.15733 0.8461 0.0
C1081 C 0.5168 0.1268 0.91572 0.0
C1082 C 0.54794 0.15071 0.81304 0.0
C1083 C 0.53574 0.14519 0.77758 0.0
C1084 C 0.51521 0.1462 0.77412 0.0
C1085 C 0.50767 0.15375 0.8068 0.0
C1086 C 0.51997 0.15925 0.84262 0.0
H1087 H 0.5123 0.11436 0.94057 0.0
H1088 H 0.5057 0.13478 0.91793 0.0
H1089 H 0.51263 0.11705 0.88744 0.0
H1090 H 0.56335 0.14917 0.81497 0.0
H1091 H 0.54238 0.13986 0.75294 0.0
H1092 H 0.84716 0.33998 0.80869 0.0
H1093 H 0.83629 0.35209 0.87 0.0
H1094 H 0.8451 0.4134 0.81117 0.0
H1095 H 0.85587 0.40158 0.75045 0.0
H1096 H 0.86663 0.3948 0.90821 0.0
H1097 H 0.78345 0.38975 0.87025 0.0
H1098 H 0.79481 0.3743 0.84294 0.0
H1099 H 0.8055 0.40454 0.83354 0.0
C1100 C 0.84643 0.35585 0.8088 0.0
C1101 C 0.85267 0.36997 0.77496 0.0
C1102 C 0.84019 0.36271 0.84372 0.0
C1103 C 0.83961 0.38349 0.84492 0.0
C1104 C 0.84501 0.3971 0.81072 0.0
H1105 H 0.84659 0.48707 0.99823 0.0
H1106 H 0.8392 0.45962 0.94463 0.0
C1107 C 0.85146 0.39044 0.77614 0.0
C1108 C 0.83605 0.39258 0.88262 0.0
H1109 H 0.80475 0.41486 0.9245 0.0
C1110 C 0.85281 0.39872 0.91228 0.0
C1111 C 0.81816 0.39792 0.88747 0.0
C1112 C 0.79933 0.3911 0.85699 0.0
C1113 C 0.85298 0.41128 0.94569 0.0
C1114 C 0.83545 0.41723 0.95008 0.0
C1115 C 0.81813 0.41026 0.92113 0.0
C1116 C 0.83597 0.43217 0.983 0.0
C1117 C 0.87277 0.41929 0.97468 0.0
C1118 C 0.83554 0.42547 0.02244 0.0
C1119 C 0.84009 0.44121 0.05308 0.0
C1120 C 0.84467 0.46383 0.04496 0.0
C1121 C 0.84322 0.46985 0.0056 0.0
C1122 C 0.83895 0.45415 0.9749 0.0
H1123 H 0.88744 0.41786 0.96227 0.0
H1124 H 0.87932 0.43757 0.9835 0.0
H1125 H 0.86661 0.40838 0.00167 0.0
H1126 H 0.83274 0.4084 0.02943 0.0
H1127 H 0.84107 0.43594 0.08297 0.0
H1128 H 0.50748 0.65999 0.68481 0.0
H1129 H 0.48438 0.64825 0.6236 0.0
H1130 H 0.43056 0.58821 0.68338 0.0
H1131 H 0.45318 0.5997 0.74392 0.0
H1132 H 0.47117 0.6067 0.58476 0.0
H1133 H 0.39347 0.61184 0.62395 0.0
H1134 H 0.41998 0.62635 0.65227 0.0
H1135 H 0.3996 0.59614 0.66045 0.0
C1136 C 0.49057 0.64449 0.68491 0.0
C1137 C 0.48232 0.6306 0.71897 0.0
C1138 C 0.4774 0.63783 0.65003 0.0
C1139 C 0.45561 0.61751 0.64908 0.0
C1140 C 0.44708 0.60418 0.68354 0.0
H1141 H 0.36153 0.5097 0.50356 0.0
H1142 H 0.38124 0.53897 0.55478 0.0
C1143 C 0.46023 0.61064 0.71806 0.0
C1144 C 0.44278 0.60844 0.61144 0.0
H1145 H 0.38853 0.58471 0.57163 0.0
C1146 C 0.45329 0.60244 0.58133 0.0
C1147 C 0.41941 0.60279 0.60717 0.0
C1148 C 0.40755 0.60985 0.63757 0.0
C1149 C 0.44061 0.58949 0.5484 0.0
C1150 C 0.41689 0.58278 0.54516 0.0
C1151 C 0.40669 0.58983 0.57423 0.0
C1152 C 0.40207 0.5666 0.51381 0.0
C1153 C 0.45232 0.58181 0.51866 0.0
C1154 C 0.40642 0.57276 0.47375 0.0
C1155 C 0.39525 0.55605 0.44437 0.0
C1156 C 0.37943 0.53289 0.45455 0.0
C1157 C 0.37368 0.5273 0.49463 0.0
C1158 C 0.38494 0.54402 0.52399 0.0
H1159 H 0.46948 0.58505 0.52916 0.0
H1160 H 0.44133 0.56305 0.51215 0.0
H1161 H 0.45498 0.59148 0.49062 0.0
H1162 H 0.41926 0.59022 0.46526 0.0
H1163 H 0.3999 0.56107 0.41379 0.0
H1164 H 0.34089 0.84894 0.69142 0.0
H1165 H 0.35384 0.83919 0.62985 0.0
H1166 H 0.41304 0.84447 0.69116 0.0
H1167 H 0.40028 0.85389 0.75208 0.0
H1168 H 0.39524 0.86847 0.5933 0.0
H1169 H 0.39198 0.78599 0.62753 0.0
H1170 H 0.37703 0.797 0.65714 0.0
H1171 H 0.40735 0.80716 0.66506 0.0
C1172 C 0.35643 0.8476 0.69177 0.0
C1173 C 0.36974 0.85253 0.7264 0.0
C1174 C 0.3638 0.84203 0.65667 0.0
C1175 C 0.38428 0.84083 0.65601 0.0
C1176 C 0.39697 0.84482 0.69102 0.0
H1177 H 0.49351 0.85858 0.50598 0.0
H1178 H 0.4652 0.84942 0.55903 0.0
C1179 C 0.38978 0.85054 0.72579 0.0
C1180 C 0.39416 0.83826 0.61829 0.0
H1181 H 0.41952 0.80972 0.57661 0.0
C1182 C 0.40004 0.85529 0.58914 0.0
C1183 C 0.40053 0.82112 0.61303 0.0
C1184 C 0.39365 0.80165 0.64224 0.0
C1185 C 0.4134 0.85654 0.55614 0.0
C1186 C 0.42075 0.84007 0.5519 0.0
C1187 C 0.41398 0.82239 0.58007 0.0
C1188 C 0.43671 0.842 0.5197 0.0
C1189 C 0.42065 0.87625 0.52722 0.0
C1190 C 0.42981 0.83992 0.48007 0.0
C1191 C 0.44593 0.84522 0.44973 0.0
C1192 C 0.46927 0.85258 0.45843 0.0
C1193 C 0.47574 0.85307 0.49818 0.0
C1194 C 0.45957 0.84783 0.52855 0.0
H1195 H 0.41715 0.88982 0.53869 0.0
H1196 H 0.4394 0.88438 0.5203 0.0
H1197 H 0.41088 0.86947 0.49922 0.0
H1198 H 0.41215 0.83507 0.47263 0.0
H1199 H 0.44023 0.84447 0.41952 0.0
H1200 H 0.15646 0.49302 0.68718 0.0
H1201 H 0.16759 0.51449 0.62425 0.0
H1202 H 0.16205 0.56999 0.67882 0.0
H1203 H 0.15119 0.54903 0.74105 0.0
H1204 H 0.13895 0.52688 0.58397 0.0
H1205 H 0.22233 0.60532 0.6174 0.0
H1206 H 0.21079 0.57938 0.64724 0.0
H1207 H 0.20112 0.59995 0.65476 0.0
C1208 C 0.15801 0.50997 0.68578 0.0
C1209 C 0.15266 0.51919 0.71889 0.0
C1210 C 0.1644 0.52221 0.64993 0.0
C1211 C 0.16601 0.544 0.64708 0.0
C1212 C 0.16146 0.55348 0.68053 0.0
H1213 H 0.14974 0.63533 0.50101 0.0
H1214 H 0.16042 0.61617 0.55157 0.0
C1215 C 0.15491 0.54126 0.71601 0.0
C1216 C 0.16947 0.55583 0.6085 0.0
H1217 H 0.19912 0.6093 0.5657 0.0
C1218 C 0.15248 0.54469 0.57934 0.0
C1219 C 0.18709 0.57909 0.60272 0.0
C1220 C 0.20649 0.59154 0.63208 0.0
C1221 C 0.15154 0.55674 0.54603 0.0
C1222 C 0.16836 0.58044 0.54146 0.0
C1223 C 0.1862 0.59118 0.56938 0.0
C1224 C 0.16612 0.59475 0.51021 0.0
C1225 C 0.1316 0.54444 0.51749 0.0
C1226 C 0.16684 0.58981 0.47012 0.0
C1227 C 0.16057 0.60059 0.44115 0.0
C1228 C 0.15366 0.61668 0.45177 0.0
C1229 C 0.15481 0.62294 0.49177 0.0
C1230 C 0.16095 0.61203 0.52073 0.0
H1231 H 0.11796 0.52743 0.52906 0.0
H1232 H 0.12359 0.55522 0.51101 0.0
H1233 H 0.13811 0.54137 0.48924 0.0
H1234 H 0.17121 0.57683 0.46136 0.0
H1235 H 0.16007 0.59545 0.41066 0.0
H1236 H 0.40397 0.53974 0.24436 0.0
H1237 H 0.41698 0.56023 0.182 0.0
H1238 H 0.3524 0.51124 0.1272 0.0
H1239 H 0.33887 0.49026 0.19053 0.0
H1240 H 0.41899 0.53546 0.11038 0.0
H1241 H 0.36721 0.57964 0.09333 0.0
H1242 H 0.37271 0.5716 0.14146 0.0
H1243 H 0.35307 0.54963 0.10821 0.0
C1244 C 0.39232 0.53323 0.21929 0.0
C1245 C 0.37045 0.51308 0.22237 0.0
C1246 C 0.39981 0.54511 0.18364 0.0
C1247 C 0.38569 0.53726 0.15008 0.0
C1248 C 0.36348 0.51765 0.15299 0.0
H1249 H 0.43832 0.59285 0.91399 0.0
H1250 H 0.41127 0.57181 0.96766 0.0
C1251 C 0.35582 0.50566 0.18906 0.0
C1252 C 0.39556 0.54883 0.11182 0.0
H1253 H 0.3973 0.58913 0.04721 0.0
C1254 C 0.41402 0.54692 0.09619 0.0
C1255 C 0.38904 0.56379 0.09359 0.0
C1256 C 0.36946 0.56649 0.10983 0.0
C1257 C 0.42669 0.56017 0.06358 0.0
C1258 C 0.42087 0.57591 0.04638 0.0
C1259 C 0.40177 0.57715 0.06081 0.0
C1260 C 0.43523 0.59159 0.01425 0.0
C1261 C 0.44662 0.55771 0.04824 0.0
C1262 C 0.45729 0.61029 0.02281 0.0
C1263 C 0.47284 0.62241 0.99227 0.0
C1264 C 0.46659 0.6159 0.95261 0.0
C1265 C 0.44379 0.59827 0.94416 0.0
C1266 C 0.42824 0.58621 0.97477 0.0
H1267 H 0.44664 0.54234 0.06091 0.0
H1268 H 0.44589 0.55624 0.01548 0.0
H1269 H 0.46321 0.57337 0.05621 0.0
H1270 H 0.46292 0.61466 0.05323 0.0
H1271 H 0.49018 0.63591 -9e-05 0.0
H1272 H 0.35688 0.84837 0.00553 0.0
H1273 H 0.37551 0.83969 0.05992 0.0
H1274 H 0.42283 0.83566 0.97777 0.0
H1275 H 0.40427 0.84409 0.9231 0.0
H1276 H 0.40796 0.80271 0.04456 0.0
H1277 H 0.44144 0.89445 0.08795 0.0
H1278 H 0.41048 0.87752 0.08339 0.0
H1279 H 0.42839 0.88321 0.04037 0.0
C1280 C 0.37087 0.84508 0.99881 0.0
C1281 C 0.37935 0.84739 0.95998 0.0
C1282 C 0.38152 0.84015 0.02996 0.0
C1283 C 0.40081 0.8375 0.02285 0.0
C1284 C 0.40803 0.83777 0.98385 0.0
H1285 H 0.50782 0.84915 0.18752 0.0
H1286 H 0.48441 0.84032 0.12676 0.0
C1287 C 0.3974 0.84266 0.95264 0.0
C1288 C 0.41514 0.83744 0.05625 0.0
H1289 H 0.44912 0.87142 0.13164 0.0
C1290 C 0.41707 0.81772 0.06357 0.0
C1291 C 0.42734 0.85725 0.08043 0.0
C1292 C 0.42706 0.87941 0.07256 0.0
C1293 C 0.43019 0.81705 0.09565 0.0
C1294 C 0.44163 0.83658 0.12052 0.0
C1295 C 0.44019 0.85644 0.11249 0.0
C1296 C 0.45407 0.83667 0.15676 0.0
C1297 C 0.4313 0.7954 0.10364 0.0
C1298 C 0.44447 0.83687 0.19348 0.0
C1299 C 0.45774 0.8421 0.22772 0.0
C1300 C 0.48092 0.84725 0.22594 0.0
C1301 C 0.49002 0.84528 0.18959 0.0
C1302 C 0.47668 0.8402 0.15501 0.0
H1303 H 0.42052 0.78125 0.08262 0.0
H1304 H 0.44952 0.79933 0.10129 0.0
H1305 H 0.42536 0.7893 0.13429 0.0
H1306 H 0.42708 0.83421 0.19536 0.0
H1307 H 0.45013 0.8431 0.25545 0.0
H1308 H 0.15809 0.56546 0.91426 0.0
H1309 H 0.1675 0.59368 0.96689 0.0
H1310 H 0.1647 0.54422 0.05217 0.0
H1311 H 0.15604 0.51602 -0.00063 0.0
H1312 H 0.13765 0.58663 0.02519 0.0
H1313 H 0.22037 0.60306 0.09111 0.0
H1314 H 0.21069 0.58976 0.04312 0.0
H1315 H 0.19985 0.5727 0.0875 0.0
C1316 C 0.16017 0.56074 0.944 0.0
C1317 C 0.15632 0.5384 0.95249 0.0
C1318 C 0.1655 0.57694 0.97411 0.0
C1319 C 0.16699 0.57119 0.01346 0.0
C1320 C 0.16417 0.54928 0.02192 0.0
H1321 H 0.14613 0.60059 0.244 0.0
H1322 H 0.15695 0.58986 0.18235 0.0
C1323 C 0.15904 0.53308 0.99168 0.0
C1324 C 0.16823 0.58673 0.04598 0.0
H1325 H 0.19589 0.61144 0.13258 0.0
C1326 C 0.1507 0.59253 0.04823 0.0
C1327 C 0.18527 0.59442 0.07597 0.0
C1328 C 0.20524 0.58986 0.07413 0.0
C1329 C 0.14884 0.60449 0.08086 0.0
C1330 C 0.1652 0.61116 0.11184 0.0
C1331 C 0.18342 0.60638 0.10871 0.0
C1332 C 0.16164 0.6199 0.14998 0.0
C1333 C 0.1285 0.60851 0.08314 0.0
C1334 C 0.16136 0.64081 0.15266 0.0
C1335 C 0.15501 0.64705 0.18819 0.0
C1336 C 0.14874 0.63234 0.22127 0.0
C1337 C 0.15029 0.61208 0.21883 0.0
C1338 C 0.1567 0.60598 0.18366 0.0
H1339 H 0.11555 0.59916 0.05952 0.0
H1340 H 0.11974 0.60285 0.11228 0.0
H1341 H 0.13476 0.62729 0.0799 0.0
H1342 H 0.16549 0.65198 0.12708 0.0
H1343 H 0.15426 0.66289 0.18936 0.0
H1344 H 0.54494 0.40328 0.25406 0.0
H1345 H 0.56702 0.41426 0.31511 0.0
H1346 H 0.51543 0.35093 0.37024 0.0
H1347 H 0.49286 0.33962 0.30842 0.0
H1348 H 0.52701 0.39202 0.41286 0.0
H1349 H 0.6063 0.39076 0.36925 0.0
H1350 H 0.59856 0.40593 0.33415 0.0
H1351 H 0.57946 0.37542 0.34199 0.0
C1352 C 0.53824 0.39151 0.27896 0.0
C1353 C 0.51696 0.37065 0.27648 0.0
C1354 C 0.5511 0.39772 0.31377 0.0
C1355 C 0.54309 0.38326 0.34701 0.0
C1356 C 0.52203 0.36221 0.34469 0.0
H1357 H 0.59847 0.43678 0.58377 0.0
H1358 H 0.57907 0.40823 0.5315 0.0
C1359 C 0.50915 0.3558 0.30947 0.0
C1360 C 0.55581 0.39168 0.38487 0.0
H1361 H 0.61025 0.41593 0.42397 0.0
C1362 C 0.54503 0.3967 0.41586 0.0
C1363 C 0.57937 0.3979 0.38846 0.0
C1364 C 0.59154 0.39201 0.35681 0.0
C1365 C 0.55762 0.40928 0.44915 0.0
C1366 C 0.58151 0.41654 0.45184 0.0
C1367 C 0.59197 0.4104 0.42182 0.0
C1368 C 0.59622 0.4324 0.48362 0.0
C1369 C 0.5456 0.41605 0.47982 0.0
C1370 C 0.61339 0.45509 0.47407 0.0
C1371 C 0.62477 0.47144 0.50391 0.0
C1372 C 0.61908 0.46538 0.54388 0.0
C1373 C 0.60314 0.44214 0.55335 0.0
C1374 C 0.5919 0.42579 0.52349 0.0
H1375 H 0.52839 0.41278 0.46959 0.0
H1376 H 0.54298 0.4058 0.50714 0.0
H1377 H 0.55634 0.43468 0.48749 0.0
H1378 H 0.6171 0.4605 0.44343 0.0
H1379 H 0.63701 0.48911 0.49549 0.0
H1380 H 0.51201 0.14962 0.49166 0.0
H1381 H 0.54129 0.15982 0.4402 0.0
H1382 H 0.59316 0.17473 0.5293 0.0
H1383 H 0.56392 0.16399 0.58093 0.0
H1384 H 0.58495 0.19823 0.42149 0.0
H1385 H 0.59192 0.12161 0.46686 0.0
H1386 H 0.56929 0.1265 0.48504 0.0
H1387 H 0.59816 0.14296 0.50447 0.0
C1388 C 0.52972 0.1555 0.50044 0.0
C1389 C 0.53548 0.15559 0.54049 0.0
C1390 C 0.54646 0.16134 0.47094 0.0
C1391 C 0.56927 0.16748 0.48089 0.0
C1392 C 0.57553 0.16949 0.52092 0.0
H1393 H 0.66312 0.15819 0.30683 0.0
H1394 H 0.65198 0.17011 0.36814 0.0
C1395 C 0.55877 0.16347 0.55044 0.0
C1396 C 0.58567 0.16954 0.4493 0.0
H1397 H 0.61232 0.1416 0.41034 0.0
C1398 C 0.59124 0.18608 0.41933 0.0
C1399 C 0.59397 0.15374 0.4466 0.0
C1400 C 0.58796 0.13507 0.47722 0.0
C1401 C 0.60411 0.18666 0.386 0.0
C1402 C 0.61129 0.17004 0.3823 0.0
C1403 C 0.6069 0.1544 0.41332 0.0
C1404 C 0.62004 0.16613 0.34436 0.0
C1405 C 0.60938 0.20471 0.35457 0.0
C1406 C 0.60585 0.16004 0.3108 0.0
C1407 C 0.61202 0.15309 0.27624 0.0
C1408 C 0.6325 0.15192 0.27436 0.0
C1409 C 0.64723 0.15887 0.30745 0.0
C1410 C 0.6409 0.1657 0.34239 0.0
H1411 H 0.6107 0.22063 0.36756 0.0
H1412 H 0.62577 0.20941 0.3388 0.0
H1413 H 0.59507 0.19778 0.33268 0.0
H1414 H 0.58944 0.1597 0.31177 0.0
H1415 H 0.60038 0.14815 0.25118 0.0
H1416 H 0.83475 0.4505 0.25125 0.0
H1417 H 0.82739 0.429 0.3131 0.0
H1418 H 0.85265 0.49247 0.37908 0.0
H1419 H 0.85969 0.51417 0.31672 0.0
H1420 H 0.8765 0.46559 0.39015 0.0
H1421 H 0.78115 0.4119 0.40846 0.0
H1422 H 0.79175 0.41268 0.35921 0.0
H1423 H 0.79477 0.43868 0.38067 0.0
C1424 C 0.83815 0.45979 0.279 0.0
C1425 C 0.84792 0.48398 0.2794 0.0
C1426 C 0.8338 0.44747 0.31428 0.0
C1427 C 0.83936 0.45913 0.35061 0.0
C1428 C 0.84806 0.48317 0.35126 0.0
H1429 H 0.84181 0.40068 0.57985 0.0
H1430 H 0.8336 0.42041 0.52686 0.0
C1431 C 0.85202 0.49552 0.31578 0.0
C1432 C 0.83927 0.44657 0.38678 0.0
H1433 H 0.80429 0.40043 0.44568 0.0
C1434 C 0.86071 0.45159 0.40273 0.0
C1435 C 0.81863 0.42821 0.40281 0.0
C1436 C 0.79521 0.42258 0.38719 0.0
C1437 C 0.8621 0.43819 0.43341 0.0
C1438 C 0.84153 0.41931 0.44847 0.0
C1439 C 0.82001 0.41477 0.43362 0.0
C1440 C 0.84243 0.4043 0.47977 0.0
C1441 C 0.88558 0.44396 0.44912 0.0
C1442 C 0.84924 0.38805 0.47062 0.0
C1443 C 0.85378 0.37653 0.50086 0.0
C1444 C 0.85181 0.38132 0.54075 0.0
C1445 C 0.84357 0.39659 0.54955 0.0
C1446 C 0.83886 0.40792 0.51931 0.0
H1447 H 0.89961 0.46085 0.43782 0.0
H1448 H 0.88564 0.44449 0.48196 0.0
H1449 H 0.88944 0.43024 0.44007 0.0
H1450 H 0.85206 0.38507 0.44014 0.0
H1451 H 0.8601 0.36493 0.49299 0.0
H1452 H 0.30541 0.37872 0.37357 0.0
H1453 H 0.31189 0.34838 0.34694 0.0
H1454 H 0.31951 0.37698 0.22994 0.0
H1455 H 0.3129 0.40742 0.25628 0.0
H1456 H 0.29776 0.32305 0.23948 0.0
H1457 H 0.383 0.37978 0.31174 0.0
H1458 H 0.3574 0.37024 0.3414 0.0
H1459 H 0.36294 0.38976 0.30095 0.0
C1460 C 0.30756 0.37806 0.34192 0.0
C1461 C 0.30905 0.39573 0.31713 0.0
C1462 C 0.31125 0.36068 0.32677 0.0
C1463 C 0.31655 0.3607 0.28665 0.0
C1464 C 0.31544 0.3767 0.26104 0.0
H1465 H 0.38498 0.317 0.12981 0.0
H1466 H 0.35514 0.32147 0.16276 0.0
C1467 C 0.3116 0.39408 0.27615 0.0
C1468 C 0.32748 0.34726 0.27313 0.0
H1469 H 0.37906 0.34817 0.27583 0.0
C1470 C 0.31544 0.32832 0.24766 0.0
C1471 C 0.35049 0.35411 0.28411 0.0
C1472 C 0.36438 0.37465 0.31086 0.0
C1473 C 0.32606 0.31625 0.23233 0.0
C1474 C 0.34945 0.32375 0.24201 0.0
C1475 C 0.3611 0.34223 0.26859 0.0
C1476 C 0.36335 0.31496 0.22163 0.0
C1477 C 0.31208 0.29567 0.2059 0.0
C1478 C 0.37771 0.30914 0.24342 0.0
C1479 C 0.39526 0.30697 0.22458 0.0
C1480 C 0.39881 0.3107 0.18359 0.0
C1481 C 0.38292 0.31421 0.16148 0.0
C1482 C 0.36556 0.31654 0.18032 0.0
H1483 H 0.29344 0.28674 0.21405 0.0
H1484 H 0.31355 0.3017 0.17487 0.0
H1485 H 0.31826 0.28301 0.20742 0.0
H1486 H 0.37636 0.30783 0.27536 0.0
H1487 H 0.4071 0.30418 0.24255 0.0
H1488 H 0.58067 0.91088 0.25616 0.0
H1489 H 0.61093 0.94685 0.22817 0.0
H1490 H 0.65674 0.95305 0.32373 0.0
H1491 H 0.62514 0.9181 0.3541 0.0
H1492 H 0.66106 0.99059 0.31895 0.0
H1493 H 0.66522 0.97146 0.16345 0.0
H1494 H 0.63534 0.96174 0.17235 0.0
H1495 H 0.64942 0.94839 0.19837 0.0
C1496 C 0.59749 0.91946 0.27038 0.0
C1497 C 0.6007 0.91159 0.30698 0.0
C1498 C 0.615 0.94011 0.25415 0.0
C1499 C 0.63661 0.95283 0.27311 0.0
C1500 C 0.64035 0.94382 0.3083 0.0
H1501 H 0.70624 0.08299 0.14142 0.0
H1502 H 0.7033 0.04807 0.17112 0.0
C1503 C 0.62241 0.92366 0.32548 0.0
C1504 C 0.65355 0.97687 0.25946 0.0
H1505 H 0.67019 0.01044 0.17647 0.0
C1506 C 0.66357 0.99475 0.28769 0.0
C1507 C 0.65807 0.98286 0.21888 0.0
C1508 C 0.65164 0.96496 0.18676 0.0
C1509 C 0.67597 0.01818 0.27648 0.0
C1510 C 0.67698 0.02415 0.23598 0.0
C1511 C 0.6689 0.00628 0.20771 0.0
C1512 C 0.68385 0.04817 0.22255 0.0
C1513 C 0.68773 0.03609 0.30849 0.0
C1514 C 0.67509 0.06082 0.24217 0.0
C1515 C 0.678 0.08145 0.22629 0.0
C1516 C 0.68872 0.08938 0.18942 0.0
C1517 C 0.69823 0.07739 0.17024 0.0
C1518 C 0.69624 0.05724 0.18704 0.0
H1519 H 0.69509 0.02964 0.33135 0.0
H1520 H 0.70191 0.05269 0.29662 0.0
H1521 H 0.67475 0.03924 0.32352 0.0
H1522 H 0.66454 0.05403 0.26844 0.0
H1523 H 0.66986 0.08998 0.24105 0.0
H1524 H 0.10283 0.69602 0.25845 0.0
H1525 H 0.06821 0.69169 0.22554 0.0
H1526 H 0.03283 0.67659 0.33785 0.0
H1527 H 0.06736 0.68169 0.37091 0.0
H1528 H 0.03121 0.65056 0.22491 0.0
H1529 H 0.00459 0.71024 0.28648 0.0
H1530 H 0.03346 0.71481 0.29317 0.0
H1531 H 0.01023 0.69558 0.32555 0.0
C1532 C 0.08803 0.69278 0.27636 0.0
C1533 C 0.08779 0.6888 0.31727 0.0
C1534 C 0.06818 0.69022 0.25746 0.0
C1535 C 0.0478 0.68376 0.27911 0.0
C1536 C 0.04833 0.68199 0.32041 0.0
H1537 H 0.90471 0.5903 0.24332 0.0
H1538 H 0.94171 0.62089 0.26967 0.0
C1539 C 0.06816 0.6847 0.33931 0.0
C1540 C 0.02512 0.67445 0.25852 0.0
H1541 H 0.97342 0.67375 0.26022 0.0
C1542 C 0.01883 0.65608 0.23193 0.0
C1543 C 0.00874 0.68136 0.26799 0.0
C1544 C 0.01473 0.70175 0.29458 0.0
C1545 C 0.99645 0.64376 0.2161 0.0
C1546 C 0.97983 0.65009 0.2267 0.0
C1547 C 0.98618 0.6689 0.25228 0.0
C1548 C 0.95559 0.63631 0.21263 0.0
C1549 C 0.99041 0.6233 0.18949 0.0
C1550 C 0.95067 0.63579 0.17221 0.0
C1551 C 0.92966 0.6183 0.15708 0.0
C1552 C 0.91314 0.60112 0.18217 0.0
C1553 C 0.91704 0.60328 0.22324 0.0
C1554 C 0.93821 0.62073 0.23835 0.0
H1555 H 0.004 0.6183 0.18967 0.0
H1556 H 0.97373 0.60808 0.19866 0.0
H1557 H 0.98842 0.62777 0.15867 0.0
H1558 H 0.96379 0.6478 0.15196 0.0
H1559 H 0.92707 0.61724 0.12534 0.0
H1560 H 0.58909 0.68529 0.74994 0.0
H1561 H 0.61953 0.67864 0.72353 0.0
H1562 H 0.64977 0.68902 0.83963 0.0
H1563 H 0.61949 0.69561 0.86627 0.0
H1564 H 0.676 0.70224 0.73653 0.0
H1565 H 0.61585 0.61602 0.80309 0.0
H1566 H 0.60615 0.6359 0.78901 0.0
H1567 H 0.62388 0.6416 0.83207 0.0
C1568 C 0.60284 0.68728 0.76947 0.0
C1569 C 0.6017 0.69065 0.8103 0.0
C1570 C 0.62019 0.68339 0.75435 0.0
C1571 C 0.63669 0.68308 0.77978 0.0
C1572 C 0.63716 0.68916 0.81957 0.0
H1573 H 0.69377 0.59235 0.74402 0.0
H1574 H 0.68866 0.6226 0.7753 0.0
C1575 C 0.61982 0.69291 0.83473 0.0
C1576 C 0.65007 0.67196 0.76694 0.0
H1577 H 0.6482 0.61993 0.76958 0.0
C1578 C 0.67011 0.68431 0.7439 0.0
C1579 C 0.64243 0.64866 0.77701 0.0
C1580 C 0.62086 0.6346 0.80151 0.0
C1581 C 0.68253 0.67371 0.73012 0.0
C1582 C 0.67435 0.65007 0.73895 0.0
C1583 C 0.65466 0.63807 0.763 0.0
C1584 C 0.68399 0.63644 0.7203 0.0
C1585 C 0.70428 0.68799 0.70633 0.0
C1586 C 0.6843 0.63487 0.67895 0.0
C1587 C 0.68747 0.61778 0.66104 0.0
C1588 C 0.68998 0.60157 0.68408 0.0
C1589 C 0.69187 0.6045 0.72536 0.0
C1590 C 0.68882 0.62175 0.7433 0.0
H1591 H 0.7129 0.70651 0.71512 0.0
H1592 H 0.71676 0.68169 0.70994 0.0
H1593 H 0.69968 0.68697 0.67456 0.0
H1594 H 0.6802 0.64557 0.66042 0.0
H1595 H 0.68608 0.61616 0.62914 0.0
H1596 H 0.30732 0.92696 0.87167 0.0
H1597 H 0.31345 0.96326 0.84339 0.0
H1598 H 0.31834 0.93976 0.72695 0.0
H1599 H 0.31229 0.90326 0.75506 0.0
H1600 H 0.35774 0.98857 0.80288 0.0
H1601 H 0.28439 0.97848 0.71035 0.0
H1602 H 0.2806 0.95919 0.75093 0.0
H1603 H 0.29257 0.95665 0.70493 0.0
C1604 C 0.30881 0.9291 0.83983 0.0
C1605 C 0.30968 0.91235 0.81568 0.0
C1606 C 0.31228 0.94989 0.82374 0.0
C1607 C 0.31643 0.95425 0.78314 0.0
C1608 C 0.3149 0.93663 0.75833 0.0
H1609 H 0.38674 0.06591 0.62543 0.0
H1610 H 0.35799 0.03107 0.65881 0.0
C1611 C 0.31141 0.91573 0.77446 0.0
C1612 C 0.32703 0.97841 0.76843 0.0
H1613 H 0.32024 0.01372 0.70332 0.0
C1614 C 0.34943 0.99424 0.78158 0.0
C1615 C 0.3162 0.98556 0.7404 0.0
C1616 C 0.29203 0.96919 0.72587 0.0
C1617 C 0.3618 0.01675 0.76615 0.0
C1618 C 0.35112 0.02402 0.73772 0.0
C1619 C 0.32835 0.00832 0.72544 0.0
C1620 C 0.36445 0.04667 0.71694 0.0
C1621 C 0.38674 0.03189 0.77867 0.0
C1622 C 0.3766 0.06764 0.73789 0.0
C1623 C 0.39359 0.0877 0.7189 0.0
C1624 C 0.39832 0.08718 0.67846 0.0
C1625 C 0.38396 0.06692 0.65676 0.0
C1626 C 0.36735 0.04688 0.67584 0.0
H1627 H 0.39372 0.02177 0.79342 0.0
H1628 H 0.39793 0.04097 0.75284 0.0
H1629 H 0.38794 0.04508 0.80001 0.0
H1630 H 0.37405 0.06813 0.76943 0.0
H1631 H 0.40404 0.10306 0.73645 0.0
H1632 H 0.91113 0.33118 0.74285 0.0
H1633 H 0.94767 0.33803 0.77018 0.0
H1634 H 0.9519 0.29444 0.67986 0.0
H1635 H 0.91644 0.29001 0.64955 0.0
H1636 H 0.9678 0.32016 0.80082 0.0
H1637 H 0.01013 0.34845 0.65374 0.0
H1638 H 0.98029 0.34009 0.66113 0.0
H1639 H 0.98875 0.31838 0.65594 0.0
C1640 C 0.9196 0.32262 0.72934 0.0
C1641 C 0.91111 0.31021 0.69401 0.0
C1642 C 0.94064 0.32659 0.74493 0.0
C1643 C 0.95334 0.31759 0.72629 0.0
C1644 C 0.94328 0.3027 0.69369 0.0
H1645 H 0.08617 0.37914 0.85722 0.0
H1646 H 0.0505 0.34697 0.82953 0.0
C1647 C 0.92272 0.29969 0.67685 0.0
C1648 C 0.97768 0.32573 0.73944 0.0
H1649 H 0.03384 0.3532 0.70733 0.0
C1650 C 0.98224 0.32746 0.78028 0.0
C1651 C 0.99672 0.33509 0.71279 0.0
C1652 C 0.9938 0.33562 0.66854 0.0
C1653 C 0.00489 0.34025 0.79528 0.0
C1654 C 0.02392 0.34997 0.7686 0.0
C1655 C 0.0194 0.34606 0.72787 0.0
C1656 C 0.04807 0.36712 0.78127 0.0
C1657 C 0.00774 0.34471 0.8393 0.0
C1658 C 0.06016 0.3884 0.76108 0.0
C1659 C 0.08127 0.40611 0.7753 0.0
C1660 C 0.09047 0.40327 0.81074 0.0
C1661 C 0.07932 0.38168 0.82981 0.0
C1662 C 0.05867 0.36348 0.81442 0.0
H1663 H 0.99124 0.34097 0.85371 0.0
H1664 H 0.01337 0.33326 0.85312 0.0
H1665 H 0.02081 0.36301 0.8457 0.0
H1666 H 0.05268 0.39191 0.73542 0.0
H1667 H 0.08939 0.42272 0.76035 0.0
H1668 H 0.40701 0.18442 0.76655 0.0
H1669 H 0.40107 0.2049 0.82061 0.0
H1670 H 0.43827 0.18414 0.89936 0.0
H1671 H 0.44556 0.16466 0.84464 0.0
H1672 H 0.38506 0.20155 0.8924 0.0
H1673 H 0.48069 0.25287 0.89766 0.0
H1674 H 0.4654 0.23111 0.86053 0.0
H1675 H 0.47041 0.22302 0.90886 0.0
C1676 C 0.41335 0.1835 0.7956 0.0
C1677 C 0.42748 0.17353 0.8009 0.0
C1678 C 0.40999 0.19539 0.82656 0.0
C1679 C 0.42024 0.19705 0.86352 0.0
C1680 C 0.43113 0.18397 0.87052 0.0
H1681 H 0.40747 0.24896 0.08191 0.0
H1682 H 0.39848 0.23035 0.01794 0.0
C1683 C 0.43498 0.17251 0.83934 0.0
C1684 C 0.42183 0.21438 0.8929 0.0
H1685 H 0.46062 0.25928 0.94987 0.0
C1686 C 0.40159 0.21428 0.90481 0.0
C1687 C 0.4435 0.23185 0.90762 0.0
C1688 C 0.46623 0.23494 0.89264 0.0
C1689 C 0.40233 0.23024 0.93281 0.0
C1690 C 0.42377 0.24615 0.95048 0.0
C1691 C 0.44409 0.24704 0.93682 0.0
C1692 C 0.42546 0.25983 0.98643 0.0
C1693 C 0.38009 0.22985 0.94283 0.0
C1694 C 0.44332 0.28305 0.99048 0.0
C1695 C 0.44899 0.29366 0.02781 0.0
C1696 C 0.43682 0.28115 0.06148 0.0
C1697 C 0.41736 0.25898 0.05655 0.0
C1698 C 0.41196 0.24834 0.01963 0.0
H1699 H 0.36879 0.22539 0.91633 0.0
H1700 H 0.37045 0.21624 0.96535 0.0
H1701 H 0.3833 0.24677 0.95451 0.0
H1702 H 0.45398 0.29237 0.9653 0.0
H1703 H 0.46407 0.31075 0.03069 0.0
H1704 H 0.73821 0.13964 0.07596 0.0
H1705 H 0.76075 0.14958 0.01467 0.0
H1706 H 0.71945 0.17703 0.96666 0.0
H1707 H 0.69623 0.16609 0.02722 0.0
H1708 H 0.73686 0.16115 0.90833 0.0
H1709 H 0.80615 0.21866 0.0134 0.0
H1710 H 0.79402 0.18822 0.02212 0.0
H1711 H 0.7763 0.20134 0.0282 0.0
C1712 C 0.73316 0.1466 0.05139 0.0
C1713 C 0.71565 0.15227 0.05621 0.0
C1714 C 0.74626 0.1526 0.01665 0.0
C1715 C 0.74239 0.16492 0.98685 0.0
C1716 C 0.72292 0.16778 0.98953 0.0
H1717 H 0.82451 0.28123 0.8485 0.0
H1718 H 0.80715 0.25302 0.90158 0.0
C1719 C 0.70949 0.16133 0.02401 0.0
C1720 C 0.76039 0.17804 0.95652 0.0
H1721 H 0.81537 0.22388 0.9461 0.0
C1722 C 0.75416 0.17462 0.91645 0.0
C1723 C 0.78286 0.19591 0.96736 0.0
C1724 C 0.79026 0.20147 0.01007 0.0
C1725 C 0.76947 0.18905 0.88699 0.0
C1726 C 0.79184 0.20706 0.89792 0.0
C1727 C 0.79836 0.20989 0.93782 0.0
C1728 C 0.80728 0.22507 0.86925 0.0
C1729 C 0.76099 0.1858 0.84479 0.0
C1730 C 0.81486 0.21927 0.83465 0.0
C1731 C 0.8248 0.23542 0.804 0.0
C1732 C 0.82733 0.25764 0.8076 0.0
C1733 C 0.82254 0.26423 0.84437 0.0
C1734 C 0.81249 0.24804 0.87481 0.0
H1735 H 0.74197 0.174 0.84264 0.0
H1736 H 0.76532 0.20268 0.83129 0.0
H1737 H 0.76959 0.17821 0.82717 0.0
H1738 H 0.81172 0.20184 0.83031 0.0
H1739 H 0.82862 0.22982 0.77636 0.0
H1740 H 0.83247 0.53127 0.03228 0.0
H1741 H 0.82246 0.54291 0.97014 0.0
H1742 H 0.84896 0.61208 0.01567 0.0
H1743 H 0.85819 0.6002 0.07824 0.0
H1744 H 0.8049 0.59352 0.99749 0.0
H1745 H 0.84918 0.57995 0.87106 0.0
H1746 H 0.8358 0.5548 0.90211 0.0
H1747 H 0.85898 0.58161 0.92139 0.0
C1748 C 0.83725 0.54925 0.02821 0.0
C1749 C 0.846 0.56483 0.05998 0.0
C1750 C 0.83147 0.55592 0.99266 0.0
C1751 C 0.83484 0.57839 0.98821 0.0
C1752 C 0.84608 0.59465 0.01843 0.0
H1753 H 0.77472 0.59842 0.77228 0.0
H1754 H 0.80192 0.60933 0.82727 0.0
C1755 C 0.85153 0.5879 0.05406 0.0
C1756 C 0.82294 0.58355 0.95594 0.0
H1757 H 0.81238 0.57764 0.85669 0.0
C1758 C 0.80695 0.59054 0.96659 0.0
C1759 C 0.82567 0.57993 0.91557 0.0
C1760 C 0.84354 0.5739 0.90184 0.0
C1761 C 0.79271 0.59266 0.93834 0.0
C1762 C 0.79415 0.58723 0.89845 0.0
C1763 C 0.8111 0.58163 0.88738 0.0
C1764 C 0.77681 0.58482 0.86847 0.0
C1765 C 0.77592 0.60023 0.9517 0.0
C1766 C 0.75334 0.5683 0.87401 0.0
C1767 C 0.73766 0.56209 0.84271 0.0
C1768 C 0.74524 0.57203 0.80503 0.0
C1769 C 0.76824 0.59028 0.80076 0.0
C1770 C 0.78392 0.59646 0.83213 0.0
H1771 H 0.78242 0.61137 0.97843 0.0
H1772 H 0.77275 0.60987 0.92804 0.0
H1773 H 0.75918 0.58472 0.95954 0.0
H1774 H 0.74746 0.55887 0.90161 0.0
H1775 H 0.7201 0.54805 0.84722 0.0
H1776 H 0.25569 0.39892 0.41605 0.0
H1777 H 0.23273 0.38604 0.47691 0.0
H1778 H 0.27376 0.45457 0.52593 0.0
H1779 H 0.29747 0.46709 0.46585 0.0
H1780 H 0.2578 0.422 0.5834 0.0
H1781 H 0.18576 0.40699 0.48247 0.0
H1782 H 0.19836 0.38921 0.47276 0.0
H1783 H 0.21534 0.42006 0.46591 0.0
C1784 C 0.26045 0.41087 0.44063 0.0
C1785 C 0.27821 0.434 0.43637 0.0
C1786 C 0.24712 0.40362 0.47512 0.0
C1787 C 0.2509 0.4196 0.50526 0.0
C1788 C 0.27033 0.44199 0.50283 0.0
H1789 H 0.16775 0.44988 0.64787 0.0
H1790 H 0.18415 0.43883 0.59362 0.0
C1791 C 0.28402 0.44912 0.46864 0.0
C1792 C 0.23321 0.41418 0.53651 0.0
H1793 H 0.1775 0.40235 0.5502 0.0
C1794 C 0.24014 0.41738 0.57626 0.0
C1795 C 0.21022 0.40846 0.527 0.0
C1796 C 0.20196 0.40617 0.48476 0.0
C1797 C 0.22507 0.41592 0.60663 0.0
C1798 C 0.20214 0.4104 0.59707 0.0
C1799 C 0.19493 0.40625 0.55749 0.0
C1800 C 0.18677 0.41242 0.62668 0.0
C1801 C 0.23436 0.42182 0.64831 0.0
C1802 C 0.18086 0.39986 0.66224 0.0
C1803 C 0.17153 0.40626 0.69365 0.0
C1804 C 0.16793 0.42528 0.6898 0.0
C1805 C 0.17068 0.43545 0.65224 0.0
C1806 C 0.18017 0.42919 0.62108 0.0
H1807 H 0.25353 0.42997 0.64926 0.0
H1808 H 0.22947 0.43383 0.66228 0.0
H1809 H 0.22689 0.40575 0.66628 0.0
H1810 H 0.18499 0.38625 0.66669 0.0
H1811 H 0.16927 0.39773 0.72191 0.0
H1812 H 0.59928 0.77103 0.72259 0.0
H1813 H 0.61115 0.79948 0.66924 0.0
H1814 H 0.55656 0.74885 0.59545 0.0
H1815 H 0.54498 0.72018 0.6479 0.0
H1816 H 0.59433 0.77831 0.55255 0.0
H1817 H 0.56955 0.82744 0.6555 0.0
H1818 H 0.59283 0.82319 0.67159 0.0
H1819 H 0.56414 0.79871 0.66661 0.0
C1820 C 0.59029 0.76566 0.69454 0.0
C1821 C 0.57071 0.74345 0.69 0.0
C1822 C 0.59695 0.78208 0.66423 0.0
C1823 C 0.58411 0.77656 0.62906 0.0
C1824 C 0.56648 0.75362 0.62266 0.0
H1825 H 0.53268 0.83555 0.47087 0.0
H1826 H 0.54495 0.82477 0.53156 0.0
C1827 C 0.55991 0.73717 0.65275 0.0
C1828 C 0.58703 0.79478 0.60059 0.0
H1829 H 0.57781 0.84057 0.59004 0.0
C1830 C 0.59116 0.7922 0.56078 0.0
C1831 C 0.58249 0.81268 0.61144 0.0
C1832 C 0.57682 0.81568 0.65351 0.0
C1833 C 0.58982 0.80627 0.53123 0.0
C1834 C 0.58496 0.82398 0.54197 0.0
C1835 C 0.58182 0.82722 0.58199 0.0
C1836 C 0.58008 0.83705 0.51156 0.0
C1837 C 0.59202 0.80088 0.48856 0.0
C1838 C 0.59631 0.84943 0.48181 0.0
C1839 C 0.58921 0.85532 0.44697 0.0
C1840 C 0.56599 0.84949 0.44201 0.0
C1841 C 0.55073 0.84041 0.47417 0.0
C1842 C 0.5577 0.83405 0.50873 0.0
H1843 H 0.59089 0.78377 0.48521 0.0
H1844 H 0.57826 0.80094 0.47014 0.0
H1845 H 0.60908 0.81427 0.47684 0.0
H1846 H 0.61386 0.85258 0.48393 0.0
H1847 H 0.60127 0.86232 0.42246 0.0
H1848 H 0.22833 0.8273 0.72391 0.0
H1849 H 0.20093 0.81027 0.66926 0.0
H1850 H 0.25388 0.80872 0.59829 0.0
H1851 H 0.28151 0.82622 0.6521 0.0
H1852 H 0.22395 0.81593 0.55376 0.0
H1853 H 0.17585 0.74098 0.65527 0.0
H1854 H 0.17879 0.76798 0.67146 0.0
H1855 H 0.20404 0.76498 0.66723 0.0
C1856 C 0.23443 0.82414 0.6962 0.0
C1857 C 0.257 0.82751 0.69288 0.0
C1858 C 0.21862 0.81412 0.66514 0.0
C1859 C 0.22512 0.80733 0.6304 0.0
C1860 C 0.24837 0.81344 0.62516 0.0
H1861 H 0.1696 0.69741 0.46913 0.0
H1862 H 0.18037 0.72031 0.53006 0.0
C1863 C 0.26422 0.82356 0.65602 0.0
C1864 C 0.2076 0.79171 0.60131 0.0
H1865 H 0.16325 0.73605 0.58945 0.0
C1866 C 0.2104 0.7986 0.56158 0.0
C1867 C 0.19018 0.76894 0.61164 0.0
C1868 C 0.18704 0.7601 0.65362 0.0
C1869 C 0.19694 0.78313 0.53165 0.0
C1870 C 0.17966 0.76028 0.5419 0.0
C1871 C 0.17627 0.75363 0.58179 0.0
C1872 C 0.16705 0.74247 0.51112 0.0
C1873 C 0.20243 0.79103 0.48914 0.0
C1874 C 0.15424 0.74603 0.48187 0.0
C1875 C 0.14833 0.73313 0.44696 0.0
C1876 C 0.1546 0.71611 0.4414 0.0
C1877 C 0.16438 0.71029 0.47296 0.0
C1878 C 0.17071 0.72352 0.50763 0.0
H1879 H 0.21934 0.80731 0.48617 0.0
H1880 H 0.2029 0.77755 0.47054 0.0
H1881 H 0.1888 0.79431 0.47735 0.0
H1882 H 0.15064 0.76012 0.48449 0.0
H1883 H 0.14081 0.7379 0.42289 0.0
H1884 H 0.53599 0.68892 0.96398 0.0
H1885 H 0.54516 0.70712 0.02962 0.0
H1886 H 0.60045 0.76984 0.97864 0.0
H1887 H 0.59237 0.75146 0.91419 0.0
H1888 H 0.61038 0.76741 0.05228 0.0
H1889 H 0.51959 0.74951 0.04322 0.0
H1890 H 0.52216 0.72405 0.04648 0.0
H1891 H 0.53299 0.74246 0.00356 0.0
C1892 C 0.55073 0.70621 0.96719 0.0
C1893 C 0.563 0.71904 0.93381 0.0
C1894 C 0.55575 0.71674 0.00459 0.0
C1895 C 0.57277 0.74024 0.00868 0.0
C1896 C 0.58696 0.75186 0.97625 0.0
H1897 H 0.55398 0.83345 0.15839 0.0
H1898 H 0.56232 0.81604 0.10173 0.0
C1899 C 0.58223 0.74131 0.93925 0.0
C1900 C 0.5738 0.75397 0.04408 0.0
H1901 H 0.54177 0.77176 0.09652 0.0
C1902 C 0.59535 0.76829 0.06215 0.0
C1903 C 0.55433 0.75563 0.05624 0.0
C1904 C 0.53102 0.7423 0.03619 0.0
C1905 C 0.59805 0.7844 0.09151 0.0
C1906 C 0.57846 0.78567 0.10413 0.0
C1907 C 0.55686 0.77099 0.08665 0.0
C1908 C 0.57937 0.80145 0.13609 0.0
C1909 C 0.62199 0.80043 0.10745 0.0
C1910 C 0.58759 0.80047 0.17382 0.0
C1911 C 0.5835 0.81106 0.20602 0.0
C1912 C 0.57039 0.82216 0.20134 0.0
C1913 C 0.56404 0.82497 0.163 0.0
C1914 C 0.56865 0.81484 0.13064 0.0
H1915 H 0.63556 0.80304 0.08563 0.0
H1916 H 0.62426 0.8176 0.1154 0.0
H1917 H 0.62481 0.79261 0.13434 0.0
H1918 H 0.5955 0.78995 0.17915 0.0
H1919 H 0.58852 0.8084 0.23515 0.0
H1920 H 0.30795 0.84698 0.96925 0.0
H1921 H 0.28856 0.83745 0.03389 0.0
H1922 H 0.22732 0.83194 0.98008 0.0
H1923 H 0.2469 0.84274 0.9166 0.0
H1924 H 0.22843 0.84294 0.05447 0.0
H1925 H 0.24504 0.76932 0.04281 0.0
H1926 H 0.27074 0.79702 0.048 0.0
H1927 H 0.25312 0.79062 0.00429 0.0
C1928 C 0.29076 0.84479 0.97166 0.0
C1929 C 0.27865 0.84485 0.93771 0.0
C1930 C 0.27955 0.839 0.00849 0.0
C1931 C 0.25607 0.83283 0.0114 0.0
C1932 C 0.24525 0.83615 0.97855 0.0
H1933 H 0.16113 0.71911 0.15646 0.0
H1934 H 0.17806 0.74538 0.10029 0.0
C1935 C 0.25649 0.84226 0.94212 0.0
C1936 C 0.24154 0.81957 0.04576 0.0
H1937 H 0.22232 0.76876 0.0958 0.0
C1938 C 0.22715 0.82676 0.0637 0.0
C1939 C 0.23932 0.79807 0.05697 0.0
C1940 C 0.25268 0.78814 0.03682 0.0
C1941 C 0.21052 0.813 0.0922 0.0
C1942 C 0.20877 0.79181 0.10403 0.0
C1943 C 0.22344 0.78487 0.08654 0.0
C1944 C 0.1927 0.7767 0.13551 0.0
C1945 C 0.19454 0.82097 0.10817 0.0
C1946 C 0.19368 0.78555 0.17355 0.0
C1947 C 0.18334 0.77056 0.20549 0.0
C1948 C 0.17255 0.7464 0.20021 0.0
C1949 C 0.16944 0.7376 0.16156 0.0
C1950 C 0.1793 0.75264 0.12947 0.0
H1951 H 0.19223 0.8322 0.08652 0.0
H1952 H 0.17724 0.80611 0.11566 0.0
H1953 H 0.20225 0.83136 0.13532 0.0
H1954 H 0.20416 0.80392 0.17933 0.0
H1955 H 0.18616 0.778 0.23484 0.0
H1956 H 0.17314 0.47214 0.96305 0.0
H1957 H 0.18384 0.45989 0.02396 0.0
H1958 H 0.15436 0.39048 0.97793 0.0
H1959 H 0.14462 0.40298 0.91634 0.0
H1960 H 0.16614 0.4273 0.08286 0.0
H1961 H 0.22258 0.41092 0.9826 0.0
H1962 H 0.20655 0.42447 0.96581 0.0
H1963 H 0.19213 0.39361 0.97285 0.0
C1964 C 0.16807 0.45406 0.96667 0.0
C1965 C 0.15834 0.43854 0.93501 0.0
C1966 C 0.17434 0.44709 0.00135 0.0
C1967 C 0.17065 0.42447 0.00481 0.0
C1968 C 0.15803 0.40819 0.97532 0.0
H1969 H 0.22833 0.39988 0.22133 0.0
H1970 H 0.2016 0.38979 0.16569 0.0
C1971 C 0.1522 0.41526 0.9404 0.0
C1972 C 0.18275 0.41904 0.03627 0.0
H1973 H 0.2261 0.40652 0.05049 0.0
C1974 C 0.17901 0.42242 0.07592 0.0
C1975 C 0.19983 0.41302 0.02696 0.0
C1976 C 0.20573 0.41048 0.98479 0.0
C1977 C 0.19238 0.42071 0.10644 0.0
C1978 C 0.20957 0.41487 0.09708 0.0
C1979 C 0.21271 0.41066 0.05758 0.0
C1980 C 0.22659 0.41639 0.12695 0.0
C1981 C 0.18894 0.42661 0.1481 0.0
C1982 C 0.25005 0.43308 0.12218 0.0
C1983 C 0.26551 0.4386 0.1536 0.0
C1984 C 0.2577 0.42772 0.19057 0.0
C1985 C 0.23489 0.40892 0.19354 0.0
C1986 C 0.21946 0.40329 0.1619 0.0
H1987 H 0.17812 0.43498 0.14896 0.0
H1988 H 0.18011 0.41051 0.16596 0.0
H1989 H 0.20585 0.43843 0.16224 0.0
H1990 H 0.25605 0.44314 0.09518 0.0
H1991 H 0.28301 0.45292 0.14993 0.0
H1992 H 0.82472 0.60243 0.27203 0.0
H1993 H 0.80839 0.61302 0.32743 0.0
H1994 H 0.81565 0.56464 0.40224 0.0
H1995 H 0.8324 0.55434 0.34756 0.0
H1996 H 0.7675 0.58161 0.35786 0.0
H1997 H 0.83124 0.61606 0.47901 0.0
H1998 H 0.83947 0.61449 0.42871 0.0
H1999 H 0.8285 0.58958 0.46077 0.0
C2000 C 0.82384 0.59478 0.3007 0.0
C2001 C 0.82955 0.5772 0.30505 0.0
C2002 C 0.81428 0.60074 0.33232 0.0
C2003 C 0.8106 0.58953 0.36898 0.0
C2004 C 0.81855 0.57379 0.37447 0.0
H2005 H 0.70013 0.53168 0.53079 0.0
H2006 H 0.72247 0.54485 0.46946 0.0
C2007 C 0.82813 0.56785 0.34297 0.0
C2008 C 0.79546 0.59137 0.39935 0.0
H2009 H 0.79074 0.59623 0.4988 0.0
C2010 C 0.77274 0.58534 0.38859 0.0
C2011 C 0.80227 0.59653 0.43934 0.0
C2012 C 0.8268 0.60477 0.45251 0.0
C2013 C 0.75629 0.58287 0.41708 0.0
C2014 C 0.76257 0.58602 0.45751 0.0
C2015 C 0.7857 0.59352 0.4679 0.0
C2016 C 0.74535 0.57989 0.48996 0.0
C2017 C 0.73229 0.57657 0.40352 0.0
C2018 C 0.75009 0.59532 0.52149 0.0
C2019 C 0.73754 0.58765 0.55672 0.0
C2020 C 0.71983 0.5645 0.56089 0.0
C2021 C 0.71339 0.54973 0.52802 0.0
C2022 C 0.72625 0.55729 0.49291 0.0
H2023 H 0.73273 0.58338 0.37333 0.0
H2024 H 0.72135 0.55744 0.40224 0.0
H2025 H 0.72407 0.58339 0.42395 0.0
H2026 H 0.76463 0.61283 0.51996 0.0
H2027 H 0.74292 0.59931 0.58181 0.0
H2028 H 0.45482 0.28343 0.34758 0.0
H2029 H 0.44372 0.25562 0.40132 0.0
H2030 H 0.38944 0.20338 0.32913 0.0
H2031 H 0.40084 0.23096 0.27448 0.0
H2032 H 0.40641 0.22612 0.44514 0.0
H2033 H 0.4324 0.17709 0.34423 0.0
H2034 H 0.43708 0.20543 0.33206 0.0
H2035 H 0.40864 0.18047 0.32782 0.0
C2036 C 0.44004 0.26626 0.34334 0.0
C2037 C 0.42924 0.25926 0.30617 0.0
C2038 C 0.43375 0.25031 0.37419 0.0
C2039 C 0.41639 0.22718 0.36862 0.0
C2040 C 0.40344 0.22096 0.33352 0.0
H2041 H 0.40129 0.14323 0.57725 0.0
H2042 H 0.38863 0.15319 0.51606 0.0
C2043 C 0.40983 0.23688 0.30245 0.0
C2044 C 0.41402 0.20947 0.39777 0.0
H2045 H 0.42464 0.1647 0.41009 0.0
C2046 C 0.40996 0.2124 0.43746 0.0
C2047 C 0.41908 0.19184 0.38763 0.0
C2048 C 0.42474 0.18853 0.34572 0.0
C2049 C 0.41184 0.19893 0.46754 0.0
C2050 C 0.41718 0.18147 0.45748 0.0
C2051 C 0.42028 0.17788 0.41762 0.0
C2052 C 0.4224 0.1689 0.48836 0.0
C2053 C 0.40963 0.20467 0.50999 0.0
C2054 C 0.44487 0.1721 0.49116 0.0
C2055 C 0.45189 0.16566 0.52557 0.0
C2056 C 0.43658 0.15626 0.55761 0.0
C2057 C 0.41338 0.15051 0.55284 0.0
C2058 C 0.40624 0.15649 0.51816 0.0
H2059 H 0.4105 0.22169 0.51273 0.0
H2060 H 0.39267 0.19124 0.52197 0.0
H2061 H 0.42353 0.20501 0.52856 0.0
H2062 H 0.45757 0.18143 0.4683 0.0
H2063 H 0.46992 0.17045 0.52875 0.0
H2064 H 0.72076 0.17129 0.34043 0.0
H2065 H 0.74767 0.18956 0.39541 0.0
H2066 H 0.80543 0.2091 0.31662 0.0
H2067 H 0.77877 0.19 0.26202 0.0
H2068 H 0.81643 0.20265 0.38968 0.0
H2069 H 0.77782 0.2592 0.39548 0.0
H2070 H 0.75663 0.22953 0.40485 0.0
H2071 H 0.77068 0.23782 0.35729 0.0
C2072 C 0.73915 0.17869 0.33509 0.0
C2073 C 0.74759 0.17966 0.2966 0.0
C2074 C 0.75454 0.18939 0.36644 0.0
C2075 C 0.77856 0.20163 0.35964 0.0
C2076 C 0.78697 0.20015 0.3224 0.0
H2077 H 0.85113 0.31068 0.53334 0.0
H2078 H 0.84356 0.29361 0.46699 0.0
C2079 C 0.77161 0.18908 0.29118 0.0
C2080 C 0.79461 0.21795 0.38979 0.0
H2081 H 0.8028 0.26288 0.44874 0.0
C2082 C 0.81359 0.21595 0.40244 0.0
C2083 C 0.79165 0.23608 0.40503 0.0
C2084 C 0.77327 0.241 0.38962 0.0
C2085 C 0.82876 0.23063 0.43182 0.0
C2086 C 0.82437 0.24725 0.44985 0.0
C2087 C 0.80621 0.2501 0.43536 0.0
C2088 C 0.83599 0.25962 0.48694 0.0
C2089 C 0.84928 0.22811 0.44307 0.0
C2090 C 0.83571 0.24672 0.51992 0.0
C2091 C 0.84046 0.25656 0.5575 0.0
C2092 C 0.84501 0.27936 0.5632 0.0
C2093 C 0.84764 0.29307 0.52992 0.0
C2094 C 0.84315 0.28325 0.492 0.0
H2095 H 0.85606 0.22332 0.41688 0.0
H2096 H 0.86351 0.2443 0.45599 0.0
H2097 H 0.84372 0.21391 0.465 0.0
H2098 H 0.8298 0.22842 0.51734 0.0
H2099 H 0.83856 0.24558 0.58253 0.0
loop_
_geom_bond_atom_site_label_1
_geom_bond_atom_site_label_2
_geom_bond_distance
_geom_bond_site_symmetry_2
_ccdc_geom_bond_type
C0 O12 1.241 . S
C0 O13 1.280 . S
C1 O14 1.277 . S
C1 O15 1.245 . S
C2 O26 1.247 . S
C2 O28 1.289 . S
Mg3 O4 1.926 . S
Mg3 O13 1.984 . S
Mg3 O15 1.988 . S
Mg3 O16 2.061 . S
O4 Mg3 1.926 . S
O4 Mg5 1.986 . S
O4 Mg6 1.917 . S
Mg5 O4 1.986 . S
Mg5 O12 2.042 . S
Mg5 O14 2.041 . S
Mg5 O20 2.038 . S
Mg5 O28 2.238 . S
Mg6 O4 1.917 . S
Mg6 O7 1.917 . S
Mg6 O17 2.106 . S
Mg6 O19 2.079 . S
Mg6 O28 2.106 . S
Mg6 O29 2.079 . S
O7 Mg6 1.917 . S
O7 Mg8 1.926 . S
O7 Mg9 1.986 . S
Mg8 O7 1.926 . S
Mg8 O22 1.984 . S
Mg8 O25 1.988 . S
Mg8 O26 2.061 . S
Mg9 O7 1.986 . S
Mg9 O17 2.238 . S
Mg9 O21 2.042 . S
Mg9 O23 2.041 . S
Mg9 O30 2.038 . S
C10 O16 1.247 . S
C10 O17 1.289 . S
C11 O29 1.245 . S
C11 O30 1.274 . S
O12 C0 1.241 . S
O12 Mg5 2.042 . S
O13 C0 1.280 . S
O13 Mg3 1.984 . S
O14 C1 1.277 . S
O14 Mg5 2.041 . S
O15 C1 1.245 . S
O15 Mg3 1.988 . S
O16 Mg3 2.061 . S
O16 C10 1.247 . S
O17 Mg6 2.106 . S
O17 Mg9 2.238 . S
O17 C10 1.289 . S
C18 O19 1.245 . S
C18 O20 1.274 . S
O19 Mg6 2.079 . S
O19 C18 1.245 . S
O20 Mg5 2.038 . S
O20 C18 1.274 . S
O21 Mg9 2.042 . S
O21 C24 1.241 . S
O22 Mg8 1.984 . S
O22 C24 1.280 . S
O23 Mg9 2.041 . S
O23 C27 1.277 . S
C24 O21 1.241 . S
C24 O22 1.280 . S
O25 Mg8 1.988 . S
O25 C27 1.245 . S
O26 C2 1.247 . S
O26 Mg8 2.061 . S
C27 O23 1.277 . S
C27 O25 1.245 . S
O28 C2 1.289 . S
O28 Mg5 2.238 . S
O28 Mg6 2.106 . S
O29 Mg6 2.079 . S
O29 C11 1.245 . S
O30 Mg9 2.038 . S
O30 C11 1.274 . S
C31 O43 1.241 . S
C31 O44 1.280 . S
C32 O45 1.277 . S
C32 O46 1.245 . S
C33 O57 1.247 . S
C33 O59 1.289 . S
Mg34 O35 1.926 . S
Mg34 O44 1.984 . S
Mg34 O46 1.988 . S
Mg34 O47 2.061 . S
O35 Mg34 1.926 . S
O35 Mg36 1.986 . S
O35 Mg37 1.917 . S
Mg36 O35 1.986 . S
Mg36 O43 2.042 . S
Mg36 O45 2.041 . S
Mg36 O51 2.038 . S
Mg36 O59 2.238 . S
Mg37 O35 1.917 . S
Mg37 O38 1.917 . S
Mg37 O48 2.106 . S
Mg37 O50 2.079 . S
Mg37 O59 2.106 . S
Mg37 O60 2.079 . S
O38 Mg37 1.917 . S
O38 Mg39 1.926 . S
O38 Mg40 1.986 . S
Mg39 O38 1.926 . S
Mg39 O53 1.984 . S
Mg39 O56 1.988 . S
Mg39 O57 2.061 . S
Mg40 O38 1.986 . S
Mg40 O48 2.238 . S
Mg40 O52 2.042 . S
Mg40 O54 2.041 . S
Mg40 O61 2.038 . S
C41 O47 1.247 . S
C41 O48 1.289 . S
C42 O60 1.245 . S
C42 O61 1.274 . S
O43 C31 1.241 . S
O43 Mg36 2.042 . S
O44 C31 1.280 . S
O44 Mg34 1.984 . S
O45 C32 1.277 . S
O45 Mg36 2.041 . S
O46 C32 1.245 . S
O46 Mg34 1.988 . S
O47 Mg34 2.061 . S
O47 C41 1.247 . S
O48 Mg37 2.106 . S
O48 Mg40 2.238 . S
O48 C41 1.289 . S
C49 O50 1.245 . S
C49 O51 1.274 . S
O50 Mg37 2.079 . S
O50 C49 1.245 . S
O51 Mg36 2.038 . S
O51 C49 1.274 . S
O52 Mg40 2.042 . S
O52 C55 1.241 . S
O53 Mg39 1.984 . S
O53 C55 1.280 . S
O54 Mg40 2.041 . S
O54 C58 1.277 . S
C55 O52 1.241 . S
C55 O53 1.280 . S
O56 Mg39 1.988 . S
O56 C58 1.245 . S
O57 C33 1.247 . S
O57 Mg39 2.061 . S
C58 O54 1.277 . S
C58 O56 1.245 . S
O59 C33 1.289 . S
O59 Mg36 2.238 . S
O59 Mg37 2.106 . S
O60 Mg37 2.079 . S
O60 C42 1.245 . S
O61 Mg40 2.038 . S
O61 C42 1.274 . S
C62 O74 1.241 . S
C62 O75 1.280 . S
C63 O76 1.277 . S
C63 O77 1.245 . S
C64 O88 1.247 . S
C64 O90 1.289 . S
Mg65 O66 1.926 . S
Mg65 O75 1.984 . S
Mg65 O77 1.988 . S
Mg65 O78 2.061 . S
O66 Mg65 1.926 . S
O66 Mg67 1.986 . S
O66 Mg68 1.917 . S
Mg67 O66 1.986 . S
Mg67 O74 2.042 . S
Mg67 O76 2.041 . S
Mg67 O82 2.038 . S
Mg67 O90 2.238 . S
Mg68 O66 1.917 . S
Mg68 O69 1.917 . S
Mg68 O79 2.106 . S
Mg68 O81 2.079 . S
Mg68 O90 2.106 . S
Mg68 O91 2.079 . S
O69 Mg68 1.917 . S
O69 Mg70 1.926 . S
O69 Mg71 1.986 . S
Mg70 O69 1.926 . S
Mg70 O84 1.984 . S
Mg70 O87 1.988 . S
Mg70 O88 2.061 . S
Mg71 O69 1.986 . S
Mg71 O79 2.238 . S
Mg71 O83 2.042 . S
Mg71 O85 2.041 . S
Mg71 O92 2.038 . S
C72 O78 1.247 . S
C72 O79 1.289 . S
C73 O91 1.245 . S
C73 O92 1.274 . S
O74 C62 1.241 . S
O74 Mg67 2.042 . S
O75 C62 1.280 . S
O75 Mg65 1.984 . S
O76 C63 1.277 . S
O76 Mg67 2.041 . S
O77 C63 1.245 . S
O77 Mg65 1.988 . S
O78 Mg65 2.061 . S
O78 C72 1.247 . S
O79 Mg68 2.106 . S
O79 Mg71 2.238 . S
O79 C72 1.289 . S
C80 O81 1.245 . S
C80 O82 1.274 . S
O81 Mg68 2.079 . S
O81 C80 1.245 . S
O82 Mg67 2.038 . S
O82 C80 1.274 . S
O83 Mg71 2.042 . S
O83 C86 1.241 . S
O84 Mg70 1.984 . S
O84 C86 1.280 . S
O85 Mg71 2.041 . S
O85 C89 1.277 . S
C86 O83 1.241 . S
C86 O84 1.280 . S
O87 Mg70 1.988 . S
O87 C89 1.245 . S
O88 C64 1.247 . S
O88 Mg70 2.061 . S
C89 O85 1.277 . S
C89 O87 1.245 . S
O90 C64 1.289 . S
O90 Mg67 2.238 . S
O90 Mg68 2.106 . S
O91 Mg68 2.079 . S
O91 C73 1.245 . S
O92 Mg71 2.038 . S
O92 C73 1.274 . S
C93 O105 1.241 . S
C93 O106 1.280 . S
C94 O107 1.277 . S
C94 O108 1.245 . S
C95 O119 1.247 . S
C95 O121 1.289 . S
Mg96 O97 1.926 . S
Mg96 O106 1.984 . S
Mg96 O108 1.988 . S
Mg96 O109 2.061 . S
O97 Mg96 1.926 . S
O97 Mg98 1.986 . S
O97 Mg99 1.917 . S
Mg98 O97 1.986 . S
Mg98 O105 2.042 . S
Mg98 O107 2.041 . S
Mg98 O113 2.038 . S
Mg98 O121 2.238 . S
Mg99 O97 1.917 . S
Mg99 O100 1.917 . S
Mg99 O110 2.106 . S
Mg99 O112 2.079 . S
Mg99 O121 2.106 . S
Mg99 O122 2.079 . S
O100 Mg99 1.917 . S
O100 Mg101 1.926 . S
O100 Mg102 1.986 . S
Mg101 O100 1.926 . S
Mg101 O115 1.984 . S
Mg101 O118 1.988 . S
Mg101 O119 2.061 . S
Mg102 O100 1.986 . S
Mg102 O110 2.238 . S
Mg102 O114 2.042 . S
Mg102 O116 2.041 . S
Mg102 O123 2.038 . S
C103 O109 1.247 . S
C103 O110 1.289 . S
C104 O122 1.245 . S
C104 O123 1.274 . S
O105 C93 1.241 . S
O105 Mg98 2.042 . S
O106 C93 1.280 . S
O106 Mg96 1.984 . S
O107 C94 1.277 . S
O107 Mg98 2.041 . S
O108 C94 1.245 . S
O108 Mg96 1.988 . S
O109 Mg96 2.061 . S
O109 C103 1.247 . S
O110 Mg99 2.106 . S
O110 Mg102 2.238 . S
O110 C103 1.289 . S
C111 O112 1.245 . S
C111 O113 1.274 . S
O112 Mg99 2.079 . S
O112 C111 1.245 . S
O113 Mg98 2.038 . S
O113 C111 1.274 . S
O114 Mg102 2.042 . S
O114 C117 1.241 . S
O115 Mg101 1.984 . S
O115 C117 1.280 . S
O116 Mg102 2.041 . S
O116 C120 1.277 . S
C117 O114 1.241 . S
C117 O115 1.280 . S
O118 Mg101 1.988 . S
O118 C120 1.245 . S
O119 C95 1.247 . S
O119 Mg101 2.061 . S
C120 O116 1.277 . S
C120 O118 1.245 . S
O121 C95 1.289 . S
O121 Mg98 2.238 . S
O121 Mg99 2.106 . S
O122 Mg99 2.079 . S
O122 C104 1.245 . S
O123 Mg102 2.038 . S
O123 C104 1.274 . S
C124 O136 1.241 . S
C124 O137 1.280 . S
C125 O138 1.277 . S
C125 O139 1.245 . S
C126 O150 1.247 . S
C126 O152 1.289 . S
Mg127 O128 1.926 . S
Mg127 O137 1.984 . S
Mg127 O139 1.988 . S
Mg127 O140 2.061 . S
O128 Mg127 1.926 . S
O128 Mg129 1.986 . S
O128 Mg130 1.917 . S
Mg129 O128 1.986 . S
Mg129 O136 2.042 . S
Mg129 O138 2.041 . S
Mg129 O144 2.038 . S
Mg129 O152 2.238 . S
Mg130 O128 1.917 . S
Mg130 O131 1.917 . S
Mg130 O141 2.106 . S
Mg130 O143 2.079 . S
Mg130 O152 2.106 . S
Mg130 O153 2.079 . S
O131 Mg130 1.917 . S
O131 Mg132 1.926 . S
O131 Mg133 1.986 . S
Mg132 O131 1.926 . S
Mg132 O146 1.984 . S
Mg132 O149 1.988 . S
Mg132 O150 2.061 . S
Mg133 O131 1.986 . S
Mg133 O141 2.238 . S
Mg133 O145 2.042 . S
Mg133 O147 2.041 . S
Mg133 O154 2.038 . S
C134 O140 1.247 . S
C134 O141 1.289 . S
C135 O153 1.245 . S
C135 O154 1.274 . S
O136 C124 1.241 . S
O136 Mg129 2.042 . S
O137 C124 1.280 . S
O137 Mg127 1.984 . S
O138 C125 1.277 . S
O138 Mg129 2.041 . S
O139 C125 1.245 . S
O139 Mg127 1.988 . S
O140 Mg127 2.061 . S
O140 C134 1.247 . S
O141 Mg130 2.106 . S
O141 Mg133 2.238 . S
O141 C134 1.289 . S
C142 O143 1.245 . S
C142 O144 1.274 . S
O143 Mg130 2.079 . S
O143 C142 1.245 . S
O144 Mg129 2.038 . S
O144 C142 1.274 . S
O145 Mg133 2.042 . S
O145 C148 1.241 . S
O146 Mg132 1.984 . S
O146 C148 1.280 . S
O147 Mg133 2.041 . S
O147 C151 1.277 . S
C148 O145 1.241 . S
C148 O146 1.280 . S
O149 Mg132 1.988 . S
O149 C151 1.245 . S
O150 C126 1.247 . S
O150 Mg132 2.061 . S
C151 O147 1.277 . S
C151 O149 1.245 . S
O152 C126 1.289 . S
O152 Mg129 2.238 . S
O152 Mg130 2.106 . S
O153 Mg130 2.079 . S
O153 C135 1.245 . S
O154 Mg133 2.038 . S
O154 C135 1.274 . S
C155 O167 1.241 . S
C155 O168 1.280 . S
C156 O169 1.277 . S
C156 O170 1.245 . S
C157 O181 1.247 . S
C157 O183 1.289 . S
Mg158 O159 1.926 . S
Mg158 O168 1.984 . S
Mg158 O170 1.988 . S
Mg158 O171 2.061 . S
O159 Mg158 1.926 . S
O159 Mg160 1.986 . S
O159 Mg161 1.917 . S
Mg160 O159 1.986 . S
Mg160 O167 2.042 . S
Mg160 O169 2.041 . S
Mg160 O175 2.038 . S
Mg160 O183 2.238 . S
Mg161 O159 1.917 . S
Mg161 O162 1.917 . S
Mg161 O172 2.106 . S
Mg161 O174 2.079 . S
Mg161 O183 2.106 . S
Mg161 O184 2.079 . S
O162 Mg161 1.917 . S
O162 Mg163 1.926 . S
O162 Mg164 1.986 . S
Mg163 O162 1.926 . S
Mg163 O177 1.984 . S
Mg163 O180 1.988 . S
Mg163 O181 2.061 . S
Mg164 O162 1.986 . S
Mg164 O172 2.238 . S
Mg164 O176 2.042 . S
Mg164 O178 2.041 . S
Mg164 O185 2.038 . S
C165 O171 1.247 . S
C165 O172 1.289 . S
C166 O184 1.245 . S
C166 O185 1.274 . S
O167 C155 1.241 . S
O167 Mg160 2.042 . S
O168 C155 1.280 . S
O168 Mg158 1.984 . S
O169 C156 1.277 . S
O169 Mg160 2.041 . S
O170 C156 1.245 . S
O170 Mg158 1.988 . S
O171 Mg158 2.061 . S
O171 C165 1.247 . S
O172 Mg161 2.106 . S
O172 Mg164 2.238 . S
O172 C165 1.289 . S
C173 O174 1.245 . S
C173 O175 1.274 . S
O174 Mg161 2.079 . S
O174 C173 1.245 . S
O175 Mg160 2.038 . S
O175 C173 1.274 . S
O176 Mg164 2.042 . S
O176 C179 1.241 . S
O177 Mg163 1.984 . S
O177 C179 1.280 . S
O178 Mg164 2.041 . S
O178 C182 1.277 . S
C179 O176 1.241 . S
C179 O177 1.280 . S
O180 Mg163 1.988 . S
O180 C182 1.245 . S
O181 C157 1.247 . S
O181 Mg163 2.061 . S
C182 O178 1.277 . S
C182 O180 1.245 . S
O183 C157 1.289 . S
O183 Mg160 2.238 . S
O183 Mg161 2.106 . S
O184 Mg161 2.079 . S
O184 C166 1.245 . S
O185 Mg164 2.038 . S
O185 C166 1.274 . S
C186 O198 1.241 . S
C186 O199 1.280 . S
C187 O200 1.277 . S
C187 O201 1.245 . S
C188 O212 1.247 . S
C188 O214 1.289 . S
Mg189 O190 1.926 . S
Mg189 O199 1.984 . S
Mg189 O201 1.988 . S
Mg189 O202 2.061 . S
O190 Mg189 1.926 . S
O190 Mg191 1.986 . S
O190 Mg192 1.917 . S
Mg191 O190 1.986 . S
Mg191 O198 2.042 . S
Mg191 O200 2.041 . S
Mg191 O206 2.038 . S
Mg191 O214 2.238 . S
Mg192 O190 1.917 . S
Mg192 O193 1.917 . S
Mg192 O203 2.106 . S
Mg192 O205 2.079 . S
Mg192 O214 2.106 . S
Mg192 O215 2.079 . S
O193 Mg192 1.917 . S
O193 Mg194 1.926 . S
O193 Mg195 1.986 . S
Mg194 O193 1.926 . S
Mg194 O208 1.984 . S
Mg194 O211 1.988 . S
Mg194 O212 2.061 . S
Mg195 O193 1.986 . S
Mg195 O203 2.238 . S
Mg195 O207 2.042 . S
Mg195 O209 2.041 . S
Mg195 O216 2.038 . S
C196 O202 1.247 . S
C196 O203 1.289 . S
C197 O215 1.245 . S
C197 O216 1.274 . S
O198 C186 1.241 . S
O198 Mg191 2.042 . S
O199 C186 1.280 . S
O199 Mg189 1.984 . S
O200 C187 1.277 . S
O200 Mg191 2.041 . S
O201 C187 1.245 . S
O201 Mg189 1.988 . S
O202 Mg189 2.061 . S
O202 C196 1.247 . S
O203 Mg192 2.106 . S
O203 Mg195 2.238 . S
O203 C196 1.289 . S
C204 O205 1.245 . S
C204 O206 1.274 . S
O205 Mg192 2.079 . S
O205 C204 1.245 . S
O206 Mg191 2.038 . S
O206 C204 1.274 . S
O207 Mg195 2.042 . S
O207 C210 1.241 . S
O208 Mg194 1.984 . S
O208 C210 1.280 . S
O209 Mg195 2.041 . S
O209 C213 1.277 . S
C210 O207 1.241 . S
C210 O208 1.280 . S
O211 Mg194 1.988 . S
O211 C213 1.245 . S
O212 C188 1.247 . S
O212 Mg194 2.061 . S
C213 O209 1.277 . S
C213 O211 1.245 . S
O214 C188 1.289 . S
O214 Mg191 2.238 . S
O214 Mg192 2.106 . S
O215 Mg192 2.079 . S
O215 C197 1.245 . S
O216 Mg195 2.038 . S
O216 C197 1.274 . S
C217 O229 1.241 . S
C217 O230 1.280 . S
C218 O231 1.277 . S
C218 O232 1.245 . S
C219 O243 1.247 . S
C219 O245 1.289 . S
Mg220 O221 1.926 . S
Mg220 O230 1.984 . S
Mg220 O232 1.988 . S
Mg220 O233 2.061 . S
O221 Mg220 1.926 . S
O221 Mg222 1.986 . S
O221 Mg223 1.917 . S
Mg222 O221 1.986 . S
Mg222 O229 2.042 . S
Mg222 O231 2.041 . S
Mg222 O237 2.038 . S
Mg222 O245 2.238 . S
Mg223 O221 1.917 . S
Mg223 O224 1.917 . S
Mg223 O234 2.106 . S
Mg223 O236 2.079 . S
Mg223 O245 2.106 . S
Mg223 O246 2.079 . S
O224 Mg223 1.917 . S
O224 Mg225 1.926 . S
O224 Mg226 1.986 . S
Mg225 O224 1.926 . S
Mg225 O239 1.984 . S
Mg225 O242 1.988 . S
Mg225 O243 2.061 . S
Mg226 O224 1.986 . S
Mg226 O234 2.238 . S
Mg226 O238 2.042 . S
Mg226 O240 2.041 . S
Mg226 O247 2.038 . S
C227 O233 1.247 . S
C227 O234 1.289 . S
C228 O246 1.245 . S
C228 O247 1.274 . S
O229 C217 1.241 . S
O229 Mg222 2.042 . S
O230 C217 1.280 . S
O230 Mg220 1.984 . S
O231 C218 1.277 . S
O231 Mg222 2.041 . S
O232 C218 1.245 . S
O232 Mg220 1.988 . S
O233 Mg220 2.061 . S
O233 C227 1.247 . S
O234 Mg223 2.106 . S
O234 Mg226 2.238 . S
O234 C227 1.289 . S
C235 O236 1.245 . S
C235 O237 1.274 . S
O236 Mg223 2.079 . S
O236 C235 1.245 . S
O237 Mg222 2.038 . S
O237 C235 1.274 . S
O238 Mg226 2.042 . S
O238 C241 1.241 . S
O239 Mg225 1.984 . S
O239 C241 1.280 . S
O240 Mg226 2.041 . S
O240 C244 1.277 . S
C241 O238 1.241 . S
C241 O239 1.280 . S
O242 Mg225 1.988 . S
O242 C244 1.245 . S
O243 C219 1.247 . S
O243 Mg225 2.061 . S
C244 O240 1.277 . S
C244 O242 1.245 . S
O245 C219 1.289 . S
O245 Mg222 2.238 . S
O245 Mg223 2.106 . S
O246 Mg223 2.079 . S
O246 C228 1.245 . S
O247 Mg226 2.038 . S
O247 C228 1.274 . S
C248 O260 1.241 . S
C248 O261 1.280 . S
C249 O262 1.277 . S
C249 O263 1.245 . S
C250 O274 1.247 . S
C250 O276 1.289 . S
Mg251 O252 1.926 . S
Mg251 O261 1.984 . S
Mg251 O263 1.988 . S
Mg251 O264 2.061 . S
O252 Mg251 1.926 . S
O252 Mg253 1.986 . S
O252 Mg254 1.917 . S
Mg253 O252 1.986 . S
Mg253 O260 2.042 . S
Mg253 O262 2.041 . S
Mg253 O268 2.038 . S
Mg253 O276 2.238 . S
Mg254 O252 1.917 . S
Mg254 O255 1.917 . S
Mg254 O265 2.106 . S
Mg254 O267 2.079 . S
Mg254 O276 2.106 . S
Mg254 O277 2.079 . S
O255 Mg254 1.917 . S
O255 Mg256 1.926 . S
O255 Mg257 1.986 . S
Mg256 O255 1.926 . S
Mg256 O270 1.984 . S
Mg256 O273 1.988 . S
Mg256 O274 2.061 . S
Mg257 O255 1.986 . S
Mg257 O265 2.238 . S
Mg257 O269 2.042 . S
Mg257 O271 2.041 . S
Mg257 O278 2.038 . S
C258 O264 1.247 . S
C258 O265 1.289 . S
C259 O277 1.245 . S
C259 O278 1.274 . S
O260 C248 1.241 . S
O260 Mg253 2.042 . S
O261 C248 1.280 . S
O261 Mg251 1.984 . S
O262 C249 1.277 . S
O262 Mg253 2.041 . S
O263 C249 1.245 . S
O263 Mg251 1.988 . S
O264 Mg251 2.061 . S
O264 C258 1.247 . S
O265 Mg254 2.106 . S
O265 Mg257 2.238 . S
O265 C258 1.289 . S
C266 O267 1.245 . S
C266 O268 1.274 . S
O267 Mg254 2.079 . S
O267 C266 1.245 . S
O268 Mg253 2.038 . S
O268 C266 1.274 . S
O269 Mg257 2.042 . S
O269 C272 1.241 . S
O270 Mg256 1.984 . S
O270 C272 1.280 . S
O271 Mg257 2.041 . S
O271 C275 1.277 . S
C272 O269 1.241 . S
C272 O270 1.280 . S
O273 Mg256 1.988 . S
O273 C275 1.245 . S
O274 C250 1.247 . S
O274 Mg256 2.061 . S
C275 O271 1.277 . S
C275 O273 1.245 . S
O276 C250 1.289 . S
O276 Mg253 2.238 . S
O276 Mg254 2.106 . S
O277 Mg254 2.079 . S
O277 C259 1.245 . S
O278 Mg257 2.038 . S
O278 C259 1.274 . S
C279 O291 1.241 . S
C279 O292 1.280 . S
C280 O293 1.277 . S
C280 O294 1.245 . S
C281 O305 1.247 . S
C281 O307 1.289 . S
Mg282 O283 1.926 . S
Mg282 O292 1.984 . S
Mg282 O294 1.988 . S
Mg282 O295 2.061 . S
O283 Mg282 1.926 . S
O283 Mg284 1.986 . S
O283 Mg285 1.917 . S
Mg284 O283 1.986 . S
Mg284 O291 2.042 . S
Mg284 O293 2.041 . S
Mg284 O299 2.038 . S
Mg284 O307 2.238 . S
Mg285 O283 1.917 . S
Mg285 O286 1.917 . S
Mg285 O296 2.106 . S
Mg285 O298 2.079 . S
Mg285 O307 2.106 . S
Mg285 O308 2.079 . S
O286 Mg285 1.917 . S
O286 Mg287 1.926 . S
O286 Mg288 1.986 . S
Mg287 O286 1.926 . S
Mg287 O301 1.984 . S
Mg287 O304 1.988 . S
Mg287 O305 2.061 . S
Mg288 O286 1.986 . S
Mg288 O296 2.238 . S
Mg288 O300 2.042 . S
Mg288 O302 2.041 . S
Mg288 O309 2.038 . S
C289 O295 1.247 . S
C289 O296 1.289 . S
C290 O308 1.245 . S
C290 O309 1.274 . S
O291 C279 1.241 . S
O291 Mg284 2.042 . S
O292 C279 1.280 . S
O292 Mg282 1.984 . S
O293 C280 1.277 . S
O293 Mg284 2.041 . S
O294 C280 1.245 . S
O294 Mg282 1.988 . S
O295 Mg282 2.061 . S
O295 C289 1.247 . S
O296 Mg285 2.106 . S
O296 Mg288 2.238 . S
O296 C289 1.289 . S
C297 O298 1.245 . S
C297 O299 1.274 . S
O298 Mg285 2.079 . S
O298 C297 1.245 . S
O299 Mg284 2.038 . S
O299 C297 1.274 . S
O300 Mg288 2.042 . S
O300 C303 1.241 . S
O301 Mg287 1.984 . S
O301 C303 1.280 . S
O302 Mg288 2.041 . S
O302 C306 1.277 . S
C303 O300 1.241 . S
C303 O301 1.280 . S
O304 Mg287 1.988 . S
O304 C306 1.245 . S
O305 C281 1.247 . S
O305 Mg287 2.061 . S
C306 O302 1.277 . S
C306 O304 1.245 . S
O307 C281 1.289 . S
O307 Mg284 2.238 . S
O307 Mg285 2.106 . S
O308 Mg285 2.079 . S
O308 C290 1.245 . S
O309 Mg288 2.038 . S
O309 C290 1.274 . S
C310 O322 1.241 . S
C310 O323 1.280 . S
C311 O324 1.277 . S
C311 O325 1.245 . S
C312 O336 1.247 . S
C312 O338 1.289 . S
Mg313 O314 1.926 . S
Mg313 O323 1.984 . S
Mg313 O325 1.988 . S
Mg313 O326 2.061 . S
O314 Mg313 1.926 . S
O314 Mg315 1.986 . S
O314 Mg316 1.917 . S
Mg315 O314 1.986 . S
Mg315 O322 2.042 . S
Mg315 O324 2.041 . S
Mg315 O330 2.038 . S
Mg315 O338 2.238 . S
Mg316 O314 1.917 . S
Mg316 O317 1.917 . S
Mg316 O327 2.106 . S
Mg316 O329 2.079 . S
Mg316 O338 2.106 . S
Mg316 O339 2.079 . S
O317 Mg316 1.917 . S
O317 Mg318 1.926 . S
O317 Mg319 1.986 . S
Mg318 O317 1.926 . S
Mg318 O332 1.984 . S
Mg318 O335 1.988 . S
Mg318 O336 2.061 . S
Mg319 O317 1.986 . S
Mg319 O327 2.238 . S
Mg319 O331 2.042 . S
Mg319 O333 2.041 . S
Mg319 O340 2.038 . S
C320 O326 1.247 . S
C320 O327 1.289 . S
C321 O339 1.245 . S
C321 O340 1.274 . S
O322 C310 1.241 . S
O322 Mg315 2.042 . S
O323 C310 1.280 . S
O323 Mg313 1.984 . S
O324 C311 1.277 . S
O324 Mg315 2.041 . S
O325 C311 1.245 . S
O325 Mg313 1.988 . S
O326 Mg313 2.061 . S
O326 C320 1.247 . S
O327 Mg316 2.106 . S
O327 Mg319 2.238 . S
O327 C320 1.289 . S
C328 O329 1.245 . S
C328 O330 1.274 . S
O329 Mg316 2.079 . S
O329 C328 1.245 . S
O330 Mg315 2.038 . S
O330 C328 1.274 . S
O331 Mg319 2.042 . S
O331 C334 1.241 . S
O332 Mg318 1.984 . S
O332 C334 1.280 . S
O333 Mg319 2.041 . S
O333 C337 1.277 . S
C334 O331 1.241 . S
C334 O332 1.280 . S
O335 Mg318 1.988 . S
O335 C337 1.245 . S
O336 C312 1.247 . S
O336 Mg318 2.061 . S
C337 O333 1.277 . S
C337 O335 1.245 . S
O338 C312 1.289 . S
O338 Mg315 2.238 . S
O338 Mg316 2.106 . S
O339 Mg316 2.079 . S
O339 C321 1.245 . S
O340 Mg319 2.038 . S
O340 C321 1.274 . S
C341 O353 1.241 . S
C341 O354 1.280 . S
C342 O355 1.277 . S
C342 O356 1.245 . S
C343 O367 1.247 . S
C343 O369 1.289 . S
Mg344 O345 1.926 . S
Mg344 O354 1.984 . S
Mg344 O356 1.988 . S
Mg344 O357 2.061 . S
O345 Mg344 1.926 . S
O345 Mg346 1.986 . S
O345 Mg347 1.917 . S
Mg346 O345 1.986 . S
Mg346 O353 2.042 . S
Mg346 O355 2.041 . S
Mg346 O361 2.038 . S
Mg346 O369 2.238 . S
Mg347 O345 1.917 . S
Mg347 O348 1.917 . S
Mg347 O358 2.106 . S
Mg347 O360 2.079 . S
Mg347 O369 2.106 . S
Mg347 O370 2.079 . S
O348 Mg347 1.917 . S
O348 Mg349 1.926 . S
O348 Mg350 1.986 . S
Mg349 O348 1.926 . S
Mg349 O363 1.984 . S
Mg349 O366 1.988 . S
Mg349 O367 2.061 . S
Mg350 O348 1.986 . S
Mg350 O358 2.238 . S
Mg350 O362 2.042 . S
Mg350 O364 2.041 . S
Mg350 O371 2.038 . S
C351 O357 1.247 . S
C351 O358 1.289 . S
C352 O370 1.245 . S
C352 O371 1.274 . S
O353 C341 1.241 . S
O353 Mg346 2.042 . S
O354 C341 1.280 . S
O354 Mg344 1.984 . S
O355 C342 1.277 . S
O355 Mg346 2.041 . S
O356 C342 1.245 . S
O356 Mg344 1.988 . S
O357 Mg344 2.061 . S
O357 C351 1.247 . S
O358 Mg347 2.106 . S
O358 Mg350 2.238 . S
O358 C351 1.289 . S
C359 O360 1.245 . S
C359 O361 1.274 . S
O360 Mg347 2.079 . S
O360 C359 1.245 . S
O361 Mg346 2.038 . S
O361 C359 1.274 . S
O362 Mg350 2.042 . S
O362 C365 1.241 . S
O363 Mg349 1.984 . S
O363 C365 1.280 . S
O364 Mg350 2.041 . S
O364 C368 1.277 . S
C365 O362 1.241 . S
C365 O363 1.280 . S
O366 Mg349 1.988 . S
O366 C368 1.245 . S
O367 C343 1.247 . S
O367 Mg349 2.061 . S
C368 O364 1.277 . S
C368 O366 1.245 . S
O369 C343 1.289 . S
O369 Mg346 2.238 . S
O369 Mg347 2.106 . S
O370 Mg347 2.079 . S
O370 C352 1.245 . S
O371 Mg350 2.038 . S
O371 C352 1.274 . S
H372 C380 0.929 . S
H373 C382 0.930 . S
H374 C384 0.930 . S
H375 C387 0.929 . S
H376 C390 0.930 . S
H377 C392 0.960 . S
H378 C392 0.960 . S
H379 C392 0.960 . S
C380 H372 0.929 . S
C380 C381 1.377 . S
C380 C382 1.384 . S
C381 C380 1.377 . S
C381 C387 1.390 . S
C382 H373 0.930 . S
C382 C380 1.384 . S
C382 C383 1.372 . S
C383 C382 1.372 . S
C383 C384 1.400 . S
C383 C388 1.490 . S
C384 H374 0.930 . S
C384 C383 1.400 . S
C384 C387 1.386 . S
H385 C401 0.930 . S
H386 C402 0.931 . S
C387 H375 0.929 . S
C387 C381 1.390 . S
C387 C384 1.386 . S
C388 C383 1.490 . S
C388 C390 1.395 . S
C388 C391 1.403 . S
H389 C395 0.930 . S
C390 H376 0.930 . S
C390 C388 1.395 . S
C390 C393 1.403 . S
C391 C388 1.403 . S
C391 C392 1.524 . S
C391 C395 1.400 . S
C392 H377 0.960 . S
C392 H378 0.960 . S
C392 H379 0.960 . S
C392 C391 1.524 . S
C393 C390 1.403 . S
C393 C394 1.392 . S
C393 C397 1.495 . S
C394 C393 1.392 . S
C394 C395 1.385 . S
C394 C396 1.478 . S
C395 H389 0.930 . S
C395 C391 1.400 . S
C395 C394 1.385 . S
C396 C394 1.478 . S
C396 C398 1.381 . S
C396 C402 1.383 . S
C397 C393 1.495 . S
C397 H403 0.959 . S
C397 H404 0.961 . S
C397 H405 0.960 . S
C398 C396 1.381 . S
C398 C399 1.394 . S
C398 H406 0.930 . S
C399 C398 1.394 . S
C399 C400 1.383 . S
C399 H407 0.929 . S
C400 C399 1.383 . S
C400 C401 1.377 . S
C401 H385 0.930 . S
C401 C400 1.377 . S
C401 C402 1.379 . S
C402 H386 0.931 . S
C402 C396 1.383 . S
C402 C401 1.379 . S
H403 C397 0.959 . S
H404 C397 0.961 . S
H405 C397 0.960 . S
H406 C398 0.930 . S
H407 C399 0.929 . S
H408 C416 0.929 . S
H409 C418 0.930 . S
H410 C420 0.930 . S
H411 C423 0.929 . S
H412 C426 0.930 . S
H413 C428 0.960 . S
H414 C428 0.960 . S
H415 C428 0.960 . S
C416 H408 0.929 . S
C416 C417 1.377 . S
C416 C418 1.384 . S
C417 C416 1.377 . S
C417 C423 1.390 . S
C418 H409 0.930 . S
C418 C416 1.384 . S
C418 C419 1.372 . S
C419 C418 1.372 . S
C419 C420 1.400 . S
C419 C424 1.490 . S
C420 H410 0.930 . S
C420 C419 1.400 . S
C420 C423 1.386 . S
H421 C437 0.930 . S
H422 C438 0.931 . S
C423 H411 0.929 . S
C423 C417 1.390 . S
C423 C420 1.386 . S
C424 C419 1.490 . S
C424 C426 1.395 . S
C424 C427 1.403 . S
H425 C431 0.930 . S
C426 H412 0.930 . S
C426 C424 1.395 . S
C426 C429 1.403 . S
C427 C424 1.403 . S
C427 C428 1.524 . S
C427 C431 1.400 . S
C428 H413 0.960 . S
C428 H414 0.960 . S
C428 H415 0.960 . S
C428 C427 1.524 . S
C429 C426 1.403 . S
C429 C430 1.392 . S
C429 C433 1.495 . S
C430 C429 1.392 . S
C430 C431 1.385 . S
C430 C432 1.478 . S
C431 H425 0.930 . S
C431 C427 1.400 . S
C431 C430 1.385 . S
C432 C430 1.478 . S
C432 C434 1.381 . S
C432 C438 1.383 . S
C433 C429 1.495 . S
C433 H439 0.959 . S
C433 H440 0.961 . S
C433 H441 0.960 . S
C434 C432 1.381 . S
C434 C435 1.394 . S
C434 H442 0.930 . S
C435 C434 1.394 . S
C435 C436 1.383 . S
C435 H443 0.929 . S
C436 C435 1.383 . S
C436 C437 1.377 . S
C437 H421 0.930 . S
C437 C436 1.377 . S
C437 C438 1.379 . S
C438 H422 0.931 . S
C438 C432 1.383 . S
C438 C437 1.379 . S
H439 C433 0.959 . S
H440 C433 0.961 . S
H441 C433 0.960 . S
H442 C434 0.930 . S
H443 C435 0.929 . S
H444 C452 0.929 . S
H445 C454 0.930 . S
H446 C456 0.930 . S
H447 C459 0.929 . S
H448 C462 0.930 . S
H449 C464 0.960 . S
H450 C464 0.960 . S
H451 C464 0.960 . S
C452 H444 0.929 . S
C452 C453 1.377 . S
C452 C454 1.384 . S
C453 C452 1.377 . S
C453 C459 1.390 . S
C454 H445 0.930 . S
C454 C452 1.384 . S
C454 C455 1.372 . S
C455 C454 1.372 . S
C455 C456 1.400 . S
C455 C460 1.490 . S
C456 H446 0.930 . S
C456 C455 1.400 . S
C456 C459 1.386 . S
H457 C473 0.930 . S
H458 C474 0.931 . S
C459 H447 0.929 . S
C459 C453 1.390 . S
C459 C456 1.386 . S
C460 C455 1.490 . S
C460 C462 1.395 . S
C460 C463 1.403 . S
H461 C467 0.930 . S
C462 H448 0.930 . S
C462 C460 1.395 . S
C462 C465 1.403 . S
C463 C460 1.403 . S
C463 C464 1.524 . S
C463 C467 1.400 . S
C464 H449 0.960 . S
C464 H450 0.960 . S
C464 H451 0.960 . S
C464 C463 1.524 . S
C465 C462 1.403 . S
C465 C466 1.392 . S
C465 C469 1.495 . S
C466 C465 1.392 . S
C466 C467 1.385 . S
C466 C468 1.478 . S
C467 H461 0.930 . S
C467 C463 1.400 . S
C467 C466 1.385 . S
C468 C466 1.478 . S
C468 C470 1.381 . S
C468 C474 1.383 . S
C469 C465 1.495 . S
C469 H475 0.959 . S
C469 H476 0.961 . S
C469 H477 0.960 . S
C470 C468 1.381 . S
C470 C471 1.394 . S
C470 H478 0.930 . S
C471 C470 1.394 . S
C471 C472 1.383 . S
C471 H479 0.929 . S
C472 C471 1.383 . S
C472 C473 1.377 . S
C473 H457 0.930 . S
C473 C472 1.377 . S
C473 C474 1.379 . S
C474 H458 0.931 . S
C474 C468 1.383 . S
C474 C473 1.379 . S
H475 C469 0.959 . S
H476 C469 0.961 . S
H477 C469 0.960 . S
H478 C470 0.930 . S
H479 C471 0.929 . S
H480 C488 0.929 . S
H481 C490 0.930 . S
H482 C492 0.930 . S
H483 C495 0.929 . S
H484 C498 0.930 . S
H485 C500 0.960 . S
H486 C500 0.960 . S
H487 C500 0.960 . S
C488 H480 0.929 . S
C488 C489 1.377 . S
C488 C490 1.384 . S
C489 C488 1.377 . S
C489 C495 1.390 . S
C490 H481 0.930 . S
C490 C488 1.384 . S
C490 C491 1.372 . S
C491 C490 1.372 . S
C491 C492 1.400 . S
C491 C496 1.490 . S
C492 H482 0.930 . S
C492 C491 1.400 . S
C492 C495 1.386 . S
H493 C509 0.930 . S
H494 C510 0.931 . S
C495 H483 0.929 . S
C495 C489 1.390 . S
C495 C492 1.386 . S
C496 C491 1.490 . S
C496 C498 1.395 . S
C496 C499 1.403 . S
H497 C503 0.930 . S
C498 H484 0.930 . S
C498 C496 1.395 . S
C498 C501 1.403 . S
C499 C496 1.403 . S
C499 C500 1.524 . S
C499 C503 1.400 . S
C500 H485 0.960 . S
C500 H486 0.960 . S
C500 H487 0.960 . S
C500 C499 1.524 . S
C501 C498 1.403 . S
C501 C502 1.392 . S
C501 C505 1.495 . S
C502 C501 1.392 . S
C502 C503 1.385 . S
C502 C504 1.478 . S
C503 H497 0.930 . S
C503 C499 1.400 . S
C503 C502 1.385 . S
C504 C502 1.478 . S
C504 C506 1.381 . S
C504 C510 1.383 . S
C505 C501 1.495 . S
C505 H511 0.959 . S
C505 H512 0.961 . S
C505 H513 0.960 . S
C506 C504 1.381 . S
C506 C507 1.394 . S
C506 H514 0.930 . S
C507 C506 1.394 . S
C507 C508 1.383 . S
C507 H515 0.929 . S
C508 C507 1.383 . S
C508 C509 1.377 . S
C509 H493 0.930 . S
C509 C508 1.377 . S
C509 C510 1.379 . S
C510 H494 0.931 . S
C510 C504 1.383 . S
C510 C509 1.379 . S
H511 C505 0.959 . S
H512 C505 0.961 . S
H513 C505 0.960 . S
H514 C506 0.930 . S
H515 C507 0.929 . S
H516 C524 0.929 . S
H517 C526 0.930 . S
H518 C528 0.930 . S
H519 C531 0.929 . S
H520 C534 0.930 . S
H521 C536 0.960 . S
H522 C536 0.960 . S
H523 C536 0.960 . S
C524 H516 0.929 . S
C524 C525 1.377 . S
C524 C526 1.384 . S
C525 C524 1.377 . S
C525 C531 1.390 . S
C526 H517 0.930 . S
C526 C524 1.384 . S
C526 C527 1.372 . S
C527 C526 1.372 . S
C527 C528 1.400 . S
C527 C532 1.490 . S
C528 H518 0.930 . S
C528 C527 1.400 . S
C528 C531 1.386 . S
H529 C545 0.930 . S
H530 C546 0.931 . S
C531 H519 0.929 . S
C531 C525 1.390 . S
C531 C528 1.386 . S
C532 C527 1.490 . S
C532 C534 1.395 . S
C532 C535 1.403 . S
H533 C539 0.930 . S
C534 H520 0.930 . S
C534 C532 1.395 . S
C534 C537 1.403 . S
C535 C532 1.403 . S
C535 C536 1.524 . S
C535 C539 1.400 . S
C536 H521 0.960 . S
C536 H522 0.960 . S
C536 H523 0.960 . S
C536 C535 1.524 . S
C537 C534 1.403 . S
C537 C538 1.392 . S
C537 C541 1.495 . S
C538 C537 1.392 . S
C538 C539 1.385 . S
C538 C540 1.478 . S
C539 H533 0.930 . S
C539 C535 1.400 . S
C539 C538 1.385 . S
C540 C538 1.478 . S
C540 C542 1.381 . S
C540 C546 1.383 . S
C541 C537 1.495 . S
C541 H547 0.959 . S
C541 H548 0.961 . S
C541 H549 0.960 . S
C542 C540 1.381 . S
C542 C543 1.394 . S
C542 H550 0.930 . S
C543 C542 1.394 . S
C543 C544 1.383 . S
C543 H551 0.929 . S
C544 C543 1.383 . S
C544 C545 1.377 . S
C545 H529 0.930 . S
C545 C544 1.377 . S
C545 C546 1.379 . S
C546 H530 0.931 . S
C546 C540 1.383 . S
C546 C545 1.379 . S
H547 C541 0.959 . S
H548 C541 0.961 . S
H549 C541 0.960 . S
H550 C542 0.930 . S
H551 C543 0.929 . S
H552 C560 0.929 . S
H553 C562 0.930 . S
H554 C564 0.930 . S
H555 C567 0.929 . S
H556 C570 0.930 . S
H557 C572 0.960 . S
H558 C572 0.960 . S
H559 C572 0.960 . S
C560 H552 0.929 . S
C560 C561 1.377 . S
C560 C562 1.384 . S
C561 C560 1.377 . S
C561 C567 1.390 . S
C562 H553 0.930 . S
C562 C560 1.384 . S
C562 C563 1.372 . S
C563 C562 1.372 . S
C563 C564 1.400 . S
C563 C568 1.490 . S
C564 H554 0.930 . S
C564 C563 1.400 . S
C564 C567 1.386 . S
H565 C581 0.930 . S
H566 C582 0.931 . S
C567 H555 0.929 . S
C567 C561 1.390 . S
C567 C564 1.386 . S
C568 C563 1.490 . S
C568 C570 1.395 . S
C568 C571 1.403 . S
H569 C575 0.930 . S
C570 H556 0.930 . S
C570 C568 1.395 . S
C570 C573 1.403 . S
C571 C568 1.403 . S
C571 C572 1.524 . S
C571 C575 1.400 . S
C572 H557 0.960 . S
C572 H558 0.960 . S
C572 H559 0.960 . S
C572 C571 1.524 . S
C573 C570 1.403 . S
C573 C574 1.392 . S
C573 C577 1.495 . S
C574 C573 1.392 . S
C574 C575 1.385 . S
C574 C576 1.478 . S
C575 H569 0.930 . S
C575 C571 1.400 . S
C575 C574 1.385 . S
C576 C574 1.478 . S
C576 C578 1.381 . S
C576 C582 1.383 . S
C577 C573 1.495 . S
C577 H583 0.959 . S
C577 H584 0.961 . S
C577 H585 0.960 . S
C578 C576 1.381 . S
C578 C579 1.394 . S
C578 H586 0.930 . S
C579 C578 1.394 . S
C579 C580 1.383 . S
C579 H587 0.929 . S
C580 C579 1.383 . S
C580 C581 1.377 . S
C581 H565 0.930 . S
C581 C580 1.377 . S
C581 C582 1.379 . S
C582 H566 0.931 . S
C582 C576 1.383 . S
C582 C581 1.379 . S
H583 C577 0.959 . S
H584 C577 0.961 . S
H585 C577 0.960 . S
H586 C578 0.930 . S
H587 C579 0.929 . S
H588 C596 0.929 . S
H589 C598 0.930 . S
H590 C600 0.930 . S
H591 C603 0.929 . S
H592 C606 0.930 . S
H593 C608 0.960 . S
H594 C608 0.960 . S
H595 C608 0.960 . S
C596 H588 0.929 . S
C596 C597 1.377 . S
C596 C598 1.384 . S
C597 C596 1.377 . S
C597 C603 1.390 . S
C598 H589 0.930 . S
C598 C596 1.384 . S
C598 C599 1.372 . S
C599 C598 1.372 . S
C599 C600 1.400 . S
C599 C604 1.490 . S
C600 H590 0.930 . S
C600 C599 1.400 . S
C600 C603 1.386 . S
H601 C617 0.930 . S
H602 C618 0.931 . S
C603 H591 0.929 . S
C603 C597 1.390 . S
C603 C600 1.386 . S
C604 C599 1.490 . S
C604 C606 1.395 . S
C604 C607 1.403 . S
H605 C611 0.930 . S
C606 H592 0.930 . S
C606 C604 1.395 . S
C606 C609 1.403 . S
C607 C604 1.403 . S
C607 C608 1.524 . S
C607 C611 1.400 . S
C608 H593 0.960 . S
C608 H594 0.960 . S
C608 H595 0.960 . S
C608 C607 1.524 . S
C609 C606 1.403 . S
C609 C610 1.392 . S
C609 C613 1.495 . S
C610 C609 1.392 . S
C610 C611 1.385 . S
C610 C612 1.478 . S
C611 H605 0.930 . S
C611 C607 1.400 . S
C611 C610 1.385 . S
C612 C610 1.478 . S
C612 C614 1.381 . S
C612 C618 1.383 . S
C613 C609 1.495 . S
C613 H619 0.959 . S
C613 H620 0.961 . S
C613 H621 0.960 . S
C614 C612 1.381 . S
C614 C615 1.394 . S
C614 H622 0.930 . S
C615 C614 1.394 . S
C615 C616 1.383 . S
C615 H623 0.929 . S
C616 C615 1.383 . S
C616 C617 1.377 . S
C617 H601 0.930 . S
C617 C616 1.377 . S
C617 C618 1.379 . S
C618 H602 0.931 . S
C618 C612 1.383 . S
C618 C617 1.379 . S
H619 C613 0.959 . S
H620 C613 0.961 . S
H621 C613 0.960 . S
H622 C614 0.930 . S
H623 C615 0.929 . S
H624 C632 0.929 . S
H625 C634 0.930 . S
H626 C636 0.930 . S
H627 C639 0.929 . S
H628 C642 0.930 . S
H629 C644 0.960 . S
H630 C644 0.960 . S
H631 C644 0.960 . S
C632 H624 0.929 . S
C632 C633 1.377 . S
C632 C634 1.384 . S
C633 C632 1.377 . S
C633 C639 1.390 . S
C634 H625 0.930 . S
C634 C632 1.384 . S
C634 C635 1.372 . S
C635 C634 1.372 . S
C635 C636 1.400 . S
C635 C640 1.490 . S
C636 H626 0.930 . S
C636 C635 1.400 . S
C636 C639 1.386 . S
H637 C653 0.930 . S
H638 C654 0.931 . S
C639 H627 0.929 . S
C639 C633 1.390 . S
C639 C636 1.386 . S
C640 C635 1.490 . S
C640 C642 1.395 . S
C640 C643 1.403 . S
H641 C647 0.930 . S
C642 H628 0.930 . S
C642 C640 1.395 . S
C642 C645 1.403 . S
C643 C640 1.403 . S
C643 C644 1.524 . S
C643 C647 1.400 . S
C644 H629 0.960 . S
C644 H630 0.960 . S
C644 H631 0.960 . S
C644 C643 1.524 . S
C645 C642 1.403 . S
C645 C646 1.392 . S
C645 C649 1.495 . S
C646 C645 1.392 . S
C646 C647 1.385 . S
C646 C648 1.478 . S
C647 H641 0.930 . S
C647 C643 1.400 . S
C647 C646 1.385 . S
C648 C646 1.478 . S
C648 C650 1.381 . S
C648 C654 1.383 . S
C649 C645 1.495 . S
C649 H655 0.959 . S
C649 H656 0.961 . S
C649 H657 0.960 . S
C650 C648 1.381 . S
C650 C651 1.394 . S
C650 H658 0.930 . S
C651 C650 1.394 . S
C651 C652 1.383 . S
C651 H659 0.929 . S
C652 C651 1.383 . S
C652 C653 1.377 . S
C653 H637 0.930 . S
C653 C652 1.377 . S
C653 C654 1.379 . S
C654 H638 0.931 . S
C654 C648 1.383 . S
C654 C653 1.379 . S
H655 C649 0.959 . S
H656 C649 0.961 . S
H657 C649 0.960 . S
H658 C650 0.930 . S
H659 C651 0.929 . S
H660 C668 0.929 . S
H661 C670 0.930 . S
H662 C672 0.930 . S
H663 C675 0.929 . S
H664 C678 0.930 . S
H665 C680 0.960 . S
H666 C680 0.960 . S
H667 C680 0.960 . S
C668 H660 0.929 . S
C668 C669 1.377 . S
C668 C670 1.384 . S
C669 C668 1.377 . S
C669 C675 1.390 . S
C670 H661 0.930 . S
C670 C668 1.384 . S
C670 C671 1.372 . S
C671 C670 1.372 . S
C671 C672 1.400 . S
C671 C676 1.490 . S
C672 H662 0.930 . S
C672 C671 1.400 . S
C672 C675 1.386 . S
H673 C689 0.930 . S
H674 C690 0.931 . S
C675 H663 0.929 . S
C675 C669 1.390 . S
C675 C672 1.386 . S
C676 C671 1.490 . S
C676 C678 1.395 . S
C676 C679 1.403 . S
H677 C683 0.930 . S
C678 H664 0.930 . S
C678 C676 1.395 . S
C678 C681 1.403 . S
C679 C676 1.403 . S
C679 C680 1.524 . S
C679 C683 1.400 . S
C680 H665 0.960 . S
C680 H666 0.960 . S
C680 H667 0.960 . S
C680 C679 1.524 . S
C681 C678 1.403 . S
C681 C682 1.392 . S
C681 C685 1.495 . S
C682 C681 1.392 . S
C682 C683 1.385 . S
C682 C684 1.478 . S
C683 H677 0.930 . S
C683 C679 1.400 . S
C683 C682 1.385 . S
C684 C682 1.478 . S
C684 C686 1.381 . S
C684 C690 1.383 . S
C685 C681 1.495 . S
C685 H691 0.959 . S
C685 H692 0.961 . S
C685 H693 0.960 . S
C686 C684 1.381 . S
C686 C687 1.394 . S
C686 H694 0.930 . S
C687 C686 1.394 . S
C687 C688 1.383 . S
C687 H695 0.929 . S
C688 C687 1.383 . S
C688 C689 1.377 . S
C689 H673 0.930 . S
C689 C688 1.377 . S
C689 C690 1.379 . S
C690 H674 0.931 . S
C690 C684 1.383 . S
C690 C689 1.379 . S
H691 C685 0.959 . S
H692 C685 0.961 . S
H693 C685 0.960 . S
H694 C686 0.930 . S
H695 C687 0.929 . S
H696 C704 0.929 . S
H697 C706 0.930 . S
H698 C708 0.930 . S
H699 C711 0.929 . S
H700 C714 0.930 . S
H701 C716 0.960 . S
H702 C716 0.960 . S
H703 C716 0.960 . S
C704 H696 0.929 . S
C704 C705 1.377 . S
C704 C706 1.384 . S
C705 C704 1.377 . S
C705 C711 1.390 . S
C706 H697 0.930 . S
C706 C704 1.384 . S
C706 C707 1.372 . S
C707 C706 1.372 . S
C707 C708 1.400 . S
C707 C712 1.490 . S
C708 H698 0.930 . S
C708 C707 1.400 . S
C708 C711 1.386 . S
H709 C725 0.930 . S
H710 C726 0.931 . S
C711 H699 0.929 . S
C711 C705 1.390 . S
C711 C708 1.386 . S
C712 C707 1.490 . S
C712 C714 1.395 . S
C712 C715 1.403 . S
H713 C719 0.930 . S
C714 H700 0.930 . S
C714 C712 1.395 . S
C714 C717 1.403 . S
C715 C712 1.403 . S
C715 C716 1.524 . S
C715 C719 1.400 . S
C716 H701 0.960 . S
C716 H702 0.960 . S
C716 H703 0.960 . S
C716 C715 1.524 . S
C717 C714 1.403 . S
C717 C718 1.392 . S
C717 C721 1.495 . S
C718 C717 1.392 . S
C718 C719 1.385 . S
C718 C720 1.478 . S
C719 H713 0.930 . S
C719 C715 1.400 . S
C719 C718 1.385 . S
C720 C718 1.478 . S
C720 C722 1.381 . S
C720 C726 1.383 . S
C721 C717 1.495 . S
C721 H727 0.959 . S
C721 H728 0.961 . S
C721 H729 0.960 . S
C722 C720 1.381 . S
C722 C723 1.394 . S
C722 H730 0.930 . S
C723 C722 1.394 . S
C723 C724 1.383 . S
C723 H731 0.929 . S
C724 C723 1.383 . S
C724 C725 1.377 . S
C725 H709 0.930 . S
C725 C724 1.377 . S
C725 C726 1.379 . S
C726 H710 0.931 . S
C726 C720 1.383 . S
C726 C725 1.379 . S
H727 C721 0.959 . S
H728 C721 0.961 . S
H729 C721 0.960 . S
H730 C722 0.930 . S
H731 C723 0.929 . S
H732 C740 0.929 . S
H733 C742 0.930 . S
H734 C744 0.930 . S
H735 C747 0.929 . S
H736 C750 0.930 . S
H737 C752 0.960 . S
H738 C752 0.960 . S
H739 C752 0.960 . S
C740 H732 0.929 . S
C740 C741 1.377 . S
C740 C742 1.384 . S
C741 C740 1.377 . S
C741 C747 1.390 . S
C742 H733 0.930 . S
C742 C740 1.384 . S
C742 C743 1.372 . S
C743 C742 1.372 . S
C743 C744 1.400 . S
C743 C748 1.490 . S
C744 H734 0.930 . S
C744 C743 1.400 . S
C744 C747 1.386 . S
H745 C761 0.930 . S
H746 C762 0.931 . S
C747 H735 0.929 . S
C747 C741 1.390 . S
C747 C744 1.386 . S
C748 C743 1.490 . S
C748 C750 1.395 . S
C748 C751 1.403 . S
H749 C755 0.930 . S
C750 H736 0.930 . S
C750 C748 1.395 . S
C750 C753 1.403 . S
C751 C748 1.403 . S
C751 C752 1.524 . S
C751 C755 1.400 . S
C752 H737 0.960 . S
C752 H738 0.960 . S
C752 H739 0.960 . S
C752 C751 1.524 . S
C753 C750 1.403 . S
C753 C754 1.392 . S
C753 C757 1.495 . S
C754 C753 1.392 . S
C754 C755 1.385 . S
C754 C756 1.478 . S
C755 H749 0.930 . S
C755 C751 1.400 . S
C755 C754 1.385 . S
C756 C754 1.478 . S
C756 C758 1.381 . S
C756 C762 1.383 . S
C757 C753 1.495 . S
C757 H763 0.959 . S
C757 H764 0.961 . S
C757 H765 0.960 . S
C758 C756 1.381 . S
C758 C759 1.394 . S
C758 H766 0.930 . S
C759 C758 1.394 . S
C759 C760 1.383 . S
C759 H767 0.929 . S
C760 C759 1.383 . S
C760 C761 1.377 . S
C761 H745 0.930 . S
C761 C760 1.377 . S
C761 C762 1.379 . S
C762 H746 0.931 . S
C762 C756 1.383 . S
C762 C761 1.379 . S
H763 C757 0.959 . S
H764 C757 0.961 . S
H765 C757 0.960 . S
H766 C758 0.930 . S
H767 C759 0.929 . S
H768 C776 0.929 . S
H769 C778 0.930 . S
H770 C780 0.930 . S
H771 C783 0.929 . S
H772 C786 0.930 . S
H773 C788 0.960 . S
H774 C788 0.960 . S
H775 C788 0.960 . S
C776 H768 0.929 . S
C776 C777 1.377 . S
C776 C778 1.384 . S
C777 C776 1.377 . S
C777 C783 1.390 . S
C778 H769 0.930 . S
C778 C776 1.384 . S
C778 C779 1.372 . S
C779 C778 1.372 . S
C779 C780 1.400 . S
C779 C784 1.490 . S
C780 H770 0.930 . S
C780 C779 1.400 . S
C780 C783 1.386 . S
H781 C797 0.930 . S
H782 C798 0.931 . S
C783 H771 0.929 . S
C783 C777 1.390 . S
C783 C780 1.386 . S
C784 C779 1.490 . S
C784 C786 1.395 . S
C784 C787 1.403 . S
H785 C791 0.930 . S
C786 H772 0.930 . S
C786 C784 1.395 . S
C786 C789 1.403 . S
C787 C784 1.403 . S
C787 C788 1.524 . S
C787 C791 1.400 . S
C788 H773 0.960 . S
C788 H774 0.960 . S
C788 H775 0.960 . S
C788 C787 1.524 . S
C789 C786 1.403 . S
C789 C790 1.392 . S
C789 C793 1.495 . S
C790 C789 1.392 . S
C790 C791 1.385 . S
C790 C792 1.478 . S
C791 H785 0.930 . S
C791 C787 1.400 . S
C791 C790 1.385 . S
C792 C790 1.478 . S
C792 C794 1.381 . S
C792 C798 1.383 . S
C793 C789 1.495 . S
C793 H799 0.959 . S
C793 H800 0.961 . S
C793 H801 0.960 . S
C794 C792 1.381 . S
C794 C795 1.394 . S
C794 H802 0.930 . S
C795 C794 1.394 . S
C795 C796 1.383 . S
C795 H803 0.929 . S
C796 C795 1.383 . S
C796 C797 1.377 . S
C797 H781 0.930 . S
C797 C796 1.377 . S
C797 C798 1.379 . S
C798 H782 0.931 . S
C798 C792 1.383 . S
C798 C797 1.379 . S
H799 C793 0.959 . S
H800 C793 0.961 . S
H801 C793 0.960 . S
H802 C794 0.930 . S
H803 C795 0.929 . S
H804 C812 0.929 . S
H805 C814 0.930 . S
H806 C816 0.930 . S
H807 C819 0.929 . S
H808 C822 0.930 . S
H809 C824 0.960 . S
H810 C824 0.960 . S
H811 C824 0.960 . S
C812 H804 0.929 . S
C812 C813 1.377 . S
C812 C814 1.384 . S
C813 C812 1.377 . S
C813 C819 1.390 . S
C814 H805 0.930 . S
C814 C812 1.384 . S
C814 C815 1.372 . S
C815 C814 1.372 . S
C815 C816 1.400 . S
C815 C820 1.490 . S
C816 H806 0.930 . S
C816 C815 1.400 . S
C816 C819 1.386 . S
H817 C833 0.930 . S
H818 C834 0.931 . S
C819 H807 0.929 . S
C819 C813 1.390 . S
C819 C816 1.386 . S
C820 C815 1.490 . S
C820 C822 1.395 . S
C820 C823 1.403 1_556 S
H821 C827 0.930 . S
C822 H808 0.930 . S
C822 C820 1.395 . S
C822 C825 1.403 . S
C823 C820 1.403 1_554 S
C823 C824 1.524 . S
C823 C827 1.400 . S
C824 H809 0.960 . S
C824 H810 0.960 . S
C824 H811 0.960 . S
C824 C823 1.524 . S
C825 C822 1.403 . S
C825 C826 1.392 1_556 S
C825 C829 1.495 . S
C826 C825 1.392 1_554 S
C826 C827 1.385 . S
C826 C828 1.478 . S
C827 H821 0.930 . S
C827 C823 1.400 . S
C827 C826 1.385 . S
C828 C826 1.478 . S
C828 C830 1.381 . S
C828 C834 1.383 . S
C829 C825 1.495 . S
C829 H835 0.959 . S
C829 H836 0.961 . S
C829 H837 0.960 . S
C830 C828 1.381 . S
C830 C831 1.394 . S
C830 H838 0.930 . S
C831 C830 1.394 . S
C831 C832 1.383 . S
C831 H839 0.929 . S
C832 C831 1.383 . S
C832 C833 1.377 . S
C833 H817 0.930 . S
C833 C832 1.377 . S
C833 C834 1.379 . S
C834 H818 0.931 . S
C834 C828 1.383 . S
C834 C833 1.379 . S
H835 C829 0.959 . S
H836 C829 0.961 . S
H837 C829 0.960 . S
H838 C830 0.930 . S
H839 C831 0.929 . S
H840 C848 0.929 . S
H841 C850 0.930 . S
H842 C852 0.930 . S
H843 C855 0.929 . S
H844 C858 0.930 . S
H845 C860 0.960 . S
H846 C860 0.960 . S
H847 C860 0.960 . S
C848 H840 0.929 . S
C848 C849 1.377 . S
C848 C850 1.384 . S
C849 C848 1.377 . S
C849 C855 1.390 . S
C850 H841 0.930 . S
C850 C848 1.384 . S
C850 C851 1.372 . S
C851 C850 1.372 . S
C851 C852 1.400 . S
C851 C856 1.490 . S
C852 H842 0.930 . S
C852 C851 1.400 . S
C852 C855 1.386 . S
H853 C869 0.930 . S
H854 C870 0.931 . S
C855 H843 0.929 . S
C855 C849 1.390 . S
C855 C852 1.386 . S
C856 C851 1.490 . S
C856 C858 1.395 . S
C856 C859 1.403 1_545 S
H857 C863 0.930 . S
C858 H844 0.930 . S
C858 C856 1.395 . S
C858 C861 1.403 1_554 S
C859 C856 1.403 1_565 S
C859 C860 1.524 . S
C859 C863 1.400 1_554 S
C860 H845 0.960 . S
C860 H846 0.960 . S
C860 H847 0.960 . S
C860 C859 1.524 . S
C861 C858 1.403 1_556 S
C861 C862 1.392 1_545 S
C861 C865 1.495 . S
C862 C861 1.392 1_565 S
C862 C863 1.385 . S
C862 C864 1.478 . S
C863 H857 0.930 . S
C863 C859 1.400 1_556 S
C863 C862 1.385 . S
C864 C862 1.478 . S
C864 C866 1.381 . S
C864 C870 1.383 . S
C865 C861 1.495 . S
C865 H871 0.959 . S
C865 H872 0.961 . S
C865 H873 0.960 . S
C866 C864 1.381 . S
C866 C867 1.394 . S
C866 H874 0.930 . S
C867 C866 1.394 . S
C867 C868 1.383 . S
C867 H875 0.929 . S
C868 C867 1.383 . S
C868 C869 1.377 . S
C869 H853 0.930 . S
C869 C868 1.377 . S
C869 C870 1.379 . S
C870 H854 0.931 . S
C870 C864 1.383 . S
C870 C869 1.379 . S
H871 C865 0.959 . S
H872 C865 0.961 . S
H873 C865 0.960 . S
H874 C866 0.930 . S
H875 C867 0.929 . S
H876 C884 0.929 . S
H877 C886 0.930 . S
H878 C888 0.930 . S
H879 C891 0.929 . S
H880 C894 0.930 . S
H881 C896 0.960 . S
H882 C896 0.960 . S
H883 C896 0.960 1_554 S
C884 H876 0.929 . S
C884 C885 1.377 . S
C884 C886 1.384 . S
C885 C884 1.377 . S
C885 C891 1.390 . S
C886 H877 0.930 . S
C886 C884 1.384 . S
C886 C887 1.372 . S
C887 C886 1.372 . S
C887 C888 1.400 . S
C887 C892 1.490 . S
C888 H878 0.930 . S
C888 C887 1.400 . S
C888 C891 1.386 . S
H889 C905 0.930 . S
H890 C906 0.931 . S
C891 H879 0.929 . S
C891 C885 1.390 . S
C891 C888 1.386 . S
C892 C887 1.490 . S
C892 C894 1.395 1_655 S
C892 C895 1.403 1_554 S
H893 C899 0.930 . S
C894 H880 0.930 . S
C894 C892 1.395 1_455 S
C894 C897 1.403 . S
C895 C892 1.403 1_556 S
C895 C896 1.524 . S
C895 C899 1.400 . S
C896 H881 0.960 . S
C896 H882 0.960 . S
C896 H883 0.960 1_556 S
C896 C895 1.524 . S
C897 C894 1.403 . S
C897 C898 1.392 1_554 S
C897 C901 1.495 . S
C898 C897 1.392 1_556 S
C898 C899 1.385 1_455 S
C898 C900 1.478 . S
C899 H893 0.930 . S
C899 C895 1.400 . S
C899 C898 1.385 1_655 S
C900 C898 1.478 . S
C900 C902 1.381 . S
C900 C906 1.383 . S
C901 C897 1.495 . S
C901 H907 0.959 . S
C901 H908 0.961 . S
C901 H909 0.960 1_554 S
C902 C900 1.381 . S
C902 C903 1.394 . S
C902 H910 0.930 . S
C903 C902 1.394 . S
C903 C904 1.383 . S
C903 H911 0.929 . S
C904 C903 1.383 . S
C904 C905 1.377 . S
C905 H889 0.930 . S
C905 C904 1.377 . S
C905 C906 1.379 . S
C906 H890 0.931 . S
C906 C900 1.383 . S
C906 C905 1.379 . S
H907 C901 0.959 . S
H908 C901 0.961 . S
H909 C901 0.960 1_556 S
H910 C902 0.930 . S
H911 C903 0.929 . S
H912 C920 0.929 . S
H913 C922 0.930 . S
H914 C924 0.930 . S
H915 C927 0.929 . S
H916 C930 0.930 . S
H917 C932 0.960 . S
H918 C932 0.960 . S
H919 C932 0.960 . S
C920 H912 0.929 . S
C920 C921 1.377 . S
C920 C922 1.384 . S
C921 C920 1.377 . S
C921 C927 1.390 . S
C922 H913 0.930 . S
C922 C920 1.384 . S
C922 C923 1.372 . S
C923 C922 1.372 . S
C923 C924 1.400 . S
C923 C928 1.490 . S
C924 H914 0.930 . S
C924 C923 1.400 . S
C924 C927 1.386 . S
H925 C941 0.930 . S
H926 C942 0.931 . S
C927 H915 0.929 . S
C927 C921 1.390 . S
C927 C924 1.386 . S
C928 C923 1.490 . S
C928 C930 1.395 . S
C928 C931 1.403 . S
H929 C935 0.930 . S
C930 H916 0.930 . S
C930 C928 1.395 . S
C930 C933 1.403 . S
C931 C928 1.403 . S
C931 C932 1.524 . S
C931 C935 1.400 . S
C932 H917 0.960 . S
C932 H918 0.960 . S
C932 H919 0.960 . S
C932 C931 1.524 . S
C933 C930 1.403 . S
C933 C934 1.392 . S
C933 C937 1.495 . S
C934 C933 1.392 . S
C934 C935 1.385 . S
C934 C936 1.478 . S
C935 H929 0.930 . S
C935 C931 1.400 . S
C935 C934 1.385 . S
C936 C934 1.478 . S
C936 C938 1.381 . S
C936 C942 1.383 . S
C937 C933 1.495 . S
C937 H943 0.959 . S
C937 H944 0.961 . S
C937 H945 0.960 . S
C938 C936 1.381 . S
C938 C939 1.394 . S
C938 H946 0.930 . S
C939 C938 1.394 . S
C939 C940 1.383 . S
C939 H947 0.929 . S
C940 C939 1.383 . S
C940 C941 1.377 . S
C941 H925 0.930 . S
C941 C940 1.377 . S
C941 C942 1.379 . S
C942 H926 0.931 . S
C942 C936 1.383 . S
C942 C941 1.379 . S
H943 C937 0.959 . S
H944 C937 0.961 . S
H945 C937 0.960 . S
H946 C938 0.930 . S
H947 C939 0.929 . S
H948 C956 0.929 . S
H949 C958 0.930 . S
H950 C960 0.930 . S
H951 C963 0.929 . S
H952 C966 0.930 . S
H953 C968 0.960 1_545 S
H954 C968 0.960 1_545 S
H955 C968 0.960 . S
C956 H948 0.929 . S
C956 C957 1.377 . S
C956 C958 1.384 . S
C957 C956 1.377 . S
C957 C963 1.390 . S
C958 H949 0.930 . S
C958 C956 1.384 . S
C958 C959 1.372 . S
C959 C958 1.372 . S
C959 C960 1.400 . S
C959 C964 1.490 . S
C960 H950 0.930 . S
C960 C959 1.400 . S
C960 C963 1.386 . S
H961 C977 0.930 . S
H962 C978 0.931 . S
C963 H951 0.929 . S
C963 C957 1.390 . S
C963 C960 1.386 . S
C964 C959 1.490 . S
C964 C966 1.395 . S
C964 C967 1.403 . S
H965 C971 0.930 . S
C966 H952 0.930 . S
C966 C964 1.395 . S
C966 C969 1.403 1_565 S
C967 C964 1.403 . S
C967 C968 1.524 . S
C967 C971 1.400 1_565 S
C968 H953 0.960 1_565 S
C968 H954 0.960 1_565 S
C968 H955 0.960 . S
C968 C967 1.524 . S
C969 C966 1.403 1_545 S
C969 C970 1.392 . S
C969 C973 1.495 . S
C970 C969 1.392 . S
C970 C971 1.385 . S
C970 C972 1.478 . S
C971 H965 0.930 . S
C971 C967 1.400 1_545 S
C971 C970 1.385 . S
C972 C970 1.478 . S
C972 C974 1.381 . S
C972 C978 1.383 . S
C973 C969 1.495 . S
C973 H979 0.959 1_545 S
C973 H980 0.961 1_545 S
C973 H981 0.960 . S
C974 C972 1.381 . S
C974 C975 1.394 . S
C974 H982 0.930 . S
C975 C974 1.394 . S
C975 C976 1.383 . S
C975 H983 0.929 . S
C976 C975 1.383 . S
C976 C977 1.377 . S
C977 H961 0.930 . S
C977 C976 1.377 . S
C977 C978 1.379 . S
C978 H962 0.931 . S
C978 C972 1.383 . S
C978 C977 1.379 . S
H979 C973 0.959 1_565 S
H980 C973 0.961 1_565 S
H981 C973 0.960 . S
H982 C974 0.930 . S
H983 C975 0.929 . S
H984 C992 0.929 . S
H985 C994 0.930 . S
H986 C996 0.930 . S
H987 C999 0.929 . S
H988 C1002 0.930 . S
H989 C1004 0.960 . S
H990 C1004 0.960 . S
H991 C1004 0.960 . S
C992 H984 0.929 . S
C992 C993 1.377 . S
C992 C994 1.384 . S
C993 C992 1.377 . S
C993 C999 1.390 . S
C994 H985 0.930 . S
C994 C992 1.384 . S
C994 C995 1.372 . S
C995 C994 1.372 . S
C995 C996 1.400 . S
C995 C1000 1.490 . S
C996 H986 0.930 . S
C996 C995 1.400 . S
C996 C999 1.386 . S
H997 C1013 0.930 . S
H998 C1014 0.931 . S
C999 H987 0.929 . S
C999 C993 1.390 . S
C999 C996 1.386 . S
C1000 C995 1.490 . S
C1000 C1002 1.395 . S
C1000 C1003 1.403 1_655 S
H1001 C1007 0.930 . S
C1002 H988 0.930 . S
C1002 C1000 1.395 . S
C1002 C1005 1.403 . S
C1003 C1000 1.403 1_455 S
C1003 C1004 1.524 . S
C1003 C1007 1.400 . S
C1004 H989 0.960 . S
C1004 H990 0.960 . S
C1004 H991 0.960 . S
C1004 C1003 1.524 . S
C1005 C1002 1.403 . S
C1005 C1006 1.392 1_655 S
C1005 C1009 1.495 . S
C1006 C1005 1.392 1_455 S
C1006 C1007 1.385 . S
C1006 C1008 1.478 . S
C1007 H1001 0.930 . S
C1007 C1003 1.400 . S
C1007 C1006 1.385 . S
C1008 C1006 1.478 . S
C1008 C1010 1.381 . S
C1008 C1014 1.383 . S
C1009 C1005 1.495 . S
C1009 H1015 0.959 . S
C1009 H1016 0.961 . S
C1009 H1017 0.960 . S
C1010 C1008 1.381 . S
C1010 C1011 1.394 . S
C1010 H1018 0.930 . S
C1011 C1010 1.394 . S
C1011 C1012 1.383 . S
C1011 H1019 0.929 . S
C1012 C1011 1.383 . S
C1012 C1013 1.377 . S
C1013 H997 0.930 . S
C1013 C1012 1.377 . S
C1013 C1014 1.379 . S
C1014 H998 0.931 . S
C1014 C1008 1.383 . S
C1014 C1013 1.379 . S
H1015 C1009 0.959 . S
H1016 C1009 0.961 . S
H1017 C1009 0.960 . S
H1018 C1010 0.930 . S
H1019 C1011 0.929 . S
H1020 C1028 0.929 . S
H1021 C1030 0.930 . S
H1022 C1032 0.930 . S
H1023 C1035 0.929 . S
H1024 C1038 0.930 . S
H1025 C1040 0.960 . S
H1026 C1040 0.960 . S
H1027 C1040 0.960 . S
C1028 H1020 0.929 . S
C1028 C1029 1.377 . S
C1028 C1030 1.384 . S
C1029 C1028 1.377 . S
C1029 C1035 1.390 . S
C1030 H1021 0.930 . S
C1030 C1028 1.384 . S
C1030 C1031 1.372 . S
C1031 C1030 1.372 . S
C1031 C1032 1.400 . S
C1031 C1036 1.490 . S
C1032 H1022 0.930 . S
C1032 C1031 1.400 . S
C1032 C1035 1.386 . S
H1033 C1049 0.930 . S
H1034 C1050 0.931 . S
C1035 H1023 0.929 . S
C1035 C1029 1.390 . S
C1035 C1032 1.386 . S
C1036 C1031 1.490 . S
C1036 C1038 1.395 . S
C1036 C1039 1.403 . S
H1037 C1043 0.930 . S
C1038 H1024 0.930 . S
C1038 C1036 1.395 . S
C1038 C1041 1.403 . S
C1039 C1036 1.403 . S
C1039 C1040 1.524 . S
C1039 C1043 1.400 . S
C1040 H1025 0.960 . S
C1040 H1026 0.960 . S
C1040 H1027 0.960 . S
C1040 C1039 1.524 . S
C1041 C1038 1.403 . S
C1041 C1042 1.392 . S
C1041 C1045 1.495 . S
C1042 C1041 1.392 . S
C1042 C1043 1.385 . S
C1042 C1044 1.478 . S
C1043 H1037 0.930 . S
C1043 C1039 1.400 . S
C1043 C1042 1.385 . S
C1044 C1042 1.478 . S
C1044 C1046 1.381 . S
C1044 C1050 1.383 . S
C1045 C1041 1.495 . S
C1045 H1051 0.959 . S
C1045 H1052 0.961 . S
C1045 H1053 0.960 . S
C1046 C1044 1.381 . S
C1046 C1047 1.394 . S
C1046 H1054 0.930 . S
C1047 C1046 1.394 . S
C1047 C1048 1.383 . S
C1047 H1055 0.929 . S
C1048 C1047 1.383 . S
C1048 C1049 1.377 . S
C1049 H1033 0.930 . S
C1049 C1048 1.377 . S
C1049 C1050 1.379 . S
C1050 H1034 0.931 . S
C1050 C1044 1.383 . S
C1050 C1049 1.379 . S
H1051 C1045 0.959 . S
H1052 C1045 0.961 . S
H1053 C1045 0.960 . S
H1054 C1046 0.930 . S
H1055 C1047 0.929 . S
H1056 C1064 0.929 . S
H1057 C1066 0.930 . S
H1058 C1068 0.930 . S
H1059 C1071 0.929 . S
H1060 C1074 0.930 . S
H1061 C1076 0.960 . S
H1062 C1076 0.960 . S
H1063 C1076 0.960 . S
C1064 H1056 0.929 . S
C1064 C1065 1.377 . S
C1064 C1066 1.384 . S
C1065 C1064 1.377 . S
C1065 C1071 1.390 . S
C1066 H1057 0.930 . S
C1066 C1064 1.384 . S
C1066 C1067 1.372 . S
C1067 C1066 1.372 . S
C1067 C1068 1.400 . S
C1067 C1072 1.490 . S
C1068 H1058 0.930 . S
C1068 C1067 1.400 . S
C1068 C1071 1.386 . S
H1069 C1085 0.930 . S
H1070 C1086 0.931 . S
C1071 H1059 0.929 . S
C1071 C1065 1.390 . S
C1071 C1068 1.386 . S
C1072 C1067 1.490 . S
C1072 C1074 1.395 . S
C1072 C1075 1.403 . S
H1073 C1079 0.930 . S
C1074 H1060 0.930 . S
C1074 C1072 1.395 . S
C1074 C1077 1.403 . S
C1075 C1072 1.403 . S
C1075 C1076 1.524 . S
C1075 C1079 1.400 . S
C1076 H1061 0.960 . S
C1076 H1062 0.960 . S
C1076 H1063 0.960 . S
C1076 C1075 1.524 . S
C1077 C1074 1.403 . S
C1077 C1078 1.392 . S
C1077 C1081 1.495 . S
C1078 C1077 1.392 . S
C1078 C1079 1.385 . S
C1078 C1080 1.478 . S
C1079 H1073 0.930 . S
C1079 C1075 1.400 . S
C1079 C1078 1.385 . S
C1080 C1078 1.478 . S
C1080 C1082 1.381 . S
C1080 C1086 1.383 . S
C1081 C1077 1.495 . S
C1081 H1087 0.959 . S
C1081 H1088 0.961 . S
C1081 H1089 0.960 . S
C1082 C1080 1.381 . S
C1082 C1083 1.394 . S
C1082 H1090 0.930 . S
C1083 C1082 1.394 . S
C1083 C1084 1.383 . S
C1083 H1091 0.929 . S
C1084 C1083 1.383 . S
C1084 C1085 1.377 . S
C1085 H1069 0.930 . S
C1085 C1084 1.377 . S
C1085 C1086 1.379 . S
C1086 H1070 0.931 . S
C1086 C1080 1.383 . S
C1086 C1085 1.379 . S
H1087 C1081 0.959 . S
H1088 C1081 0.961 . S
H1089 C1081 0.960 . S
H1090 C1082 0.930 . S
H1091 C1083 0.929 . S
H1092 C1100 0.929 . S
H1093 C1102 0.930 . S
H1094 C1104 0.930 . S
H1095 C1107 0.929 . S
H1096 C1110 0.930 . S
H1097 C1112 0.960 . S
H1098 C1112 0.960 . S
H1099 C1112 0.960 . S
C1100 H1092 0.929 . S
C1100 C1101 1.377 . S
C1100 C1102 1.384 . S
C1101 C1100 1.377 . S
C1101 C1107 1.390 . S
C1102 H1093 0.930 . S
C1102 C1100 1.384 . S
C1102 C1103 1.372 . S
C1103 C1102 1.372 . S
C1103 C1104 1.400 . S
C1103 C1108 1.490 . S
C1104 H1094 0.930 . S
C1104 C1103 1.400 . S
C1104 C1107 1.386 . S
H1105 C1121 0.930 . S
H1106 C1122 0.931 . S
C1107 H1095 0.929 . S
C1107 C1101 1.390 . S
C1107 C1104 1.386 . S
C1108 C1103 1.490 . S
C1108 C1110 1.395 . S
C1108 C1111 1.403 . S
H1109 C1115 0.930 . S
C1110 H1096 0.930 . S
C1110 C1108 1.395 . S
C1110 C1113 1.403 . S
C1111 C1108 1.403 . S
C1111 C1112 1.524 . S
C1111 C1115 1.400 . S
C1112 H1097 0.960 . S
C1112 H1098 0.960 . S
C1112 H1099 0.960 . S
C1112 C1111 1.524 . S
C1113 C1110 1.403 . S
C1113 C1114 1.392 . S
C1113 C1117 1.495 . S
C1114 C1113 1.392 . S
C1114 C1115 1.385 . S
C1114 C1116 1.478 . S
C1115 H1109 0.930 . S
C1115 C1111 1.400 . S
C1115 C1114 1.385 . S
C1116 C1114 1.478 . S
C1116 C1118 1.381 . S
C1116 C1122 1.383 . S
C1117 C1113 1.495 . S
C1117 H1123 0.959 . S
C1117 H1124 0.961 . S
C1117 H1125 0.960 . S
C1118 C1116 1.381 . S
C1118 C1119 1.394 1_556 S
C1118 H1126 0.930 . S
C1119 C1118 1.394 1_554 S
C1119 C1120 1.383 1_554 S
C1119 H1127 0.929 . S
C1120 C1119 1.383 1_556 S
C1120 C1121 1.377 . S
C1121 H1105 0.930 . S
C1121 C1120 1.377 . S
C1121 C1122 1.379 . S
C1122 H1106 0.931 . S
C1122 C1116 1.383 . S
C1122 C1121 1.379 . S
H1123 C1117 0.959 . S
H1124 C1117 0.961 . S
H1125 C1117 0.960 . S
H1126 C1118 0.930 . S
H1127 C1119 0.929 . S
H1128 C1136 0.929 . S
H1129 C1138 0.930 . S
H1130 C1140 0.930 . S
H1131 C1143 0.929 . S
H1132 C1146 0.930 . S
H1133 C1148 0.960 . S
H1134 C1148 0.960 . S
H1135 C1148 0.960 . S
C1136 H1128 0.929 . S
C1136 C1137 1.377 . S
C1136 C1138 1.384 . S
C1137 C1136 1.377 . S
C1137 C1143 1.390 . S
C1138 H1129 0.930 . S
C1138 C1136 1.384 . S
C1138 C1139 1.372 . S
C1139 C1138 1.372 . S
C1139 C1140 1.400 . S
C1139 C1144 1.490 . S
C1140 H1130 0.930 . S
C1140 C1139 1.400 . S
C1140 C1143 1.386 . S
H1141 C1157 0.930 . S
H1142 C1158 0.931 . S
C1143 H1131 0.929 . S
C1143 C1137 1.390 . S
C1143 C1140 1.386 . S
C1144 C1139 1.490 . S
C1144 C1146 1.395 . S
C1144 C1147 1.403 . S
H1145 C1151 0.930 . S
C1146 H1132 0.930 . S
C1146 C1144 1.395 . S
C1146 C1149 1.403 . S
C1147 C1144 1.403 . S
C1147 C1148 1.524 . S
C1147 C1151 1.400 . S
C1148 H1133 0.960 . S
C1148 H1134 0.960 . S
C1148 H1135 0.960 . S
C1148 C1147 1.524 . S
C1149 C1146 1.403 . S
C1149 C1150 1.392 . S
C1149 C1153 1.495 . S
C1150 C1149 1.392 . S
C1150 C1151 1.385 . S
C1150 C1152 1.478 . S
C1151 H1145 0.930 . S
C1151 C1147 1.400 . S
C1151 C1150 1.385 . S
C1152 C1150 1.478 . S
C1152 C1154 1.381 . S
C1152 C1158 1.383 . S
C1153 C1149 1.495 . S
C1153 H1159 0.959 . S
C1153 H1160 0.961 . S
C1153 H1161 0.960 . S
C1154 C1152 1.381 . S
C1154 C1155 1.394 . S
C1154 H1162 0.930 . S
C1155 C1154 1.394 . S
C1155 C1156 1.383 . S
C1155 H1163 0.929 . S
C1156 C1155 1.383 . S
C1156 C1157 1.377 . S
C1157 H1141 0.930 . S
C1157 C1156 1.377 . S
C1157 C1158 1.379 . S
C1158 H1142 0.931 . S
C1158 C1152 1.383 . S
C1158 C1157 1.379 . S
H1159 C1153 0.959 . S
H1160 C1153 0.961 . S
H1161 C1153 0.960 . S
H1162 C1154 0.930 . S
H1163 C1155 0.929 . S
H1164 C1172 0.929 . S
H1165 C1174 0.930 . S
H1166 C1176 0.930 . S
H1167 C1179 0.929 . S
H1168 C1182 0.930 . S
H1169 C1184 0.960 . S
H1170 C1184 0.960 . S
H1171 C1184 0.960 . S
C1172 H1164 0.929 . S
C1172 C1173 1.377 . S
C1172 C1174 1.384 . S
C1173 C1172 1.377 . S
C1173 C1179 1.390 . S
C1174 H1165 0.930 . S
C1174 C1172 1.384 . S
C1174 C1175 1.372 . S
C1175 C1174 1.372 . S
C1175 C1176 1.400 . S
C1175 C1180 1.490 . S
C1176 H1166 0.930 . S
C1176 C1175 1.400 . S
C1176 C1179 1.386 . S
H1177 C1193 0.930 . S
H1178 C1194 0.931 . S
C1179 H1167 0.929 . S
C1179 C1173 1.390 . S
C1179 C1176 1.386 . S
C1180 C1175 1.490 . S
C1180 C1182 1.395 . S
C1180 C1183 1.403 . S
H1181 C1187 0.930 . S
C1182 H1168 0.930 . S
C1182 C1180 1.395 . S
C1182 C1185 1.403 . S
C1183 C1180 1.403 . S
C1183 C1184 1.524 . S
C1183 C1187 1.400 . S
C1184 H1169 0.960 . S
C1184 H1170 0.960 . S
C1184 H1171 0.960 . S
C1184 C1183 1.524 . S
C1185 C1182 1.403 . S
C1185 C1186 1.392 . S
C1185 C1189 1.495 . S
C1186 C1185 1.392 . S
C1186 C1187 1.385 . S
C1186 C1188 1.478 . S
C1187 H1181 0.930 . S
C1187 C1183 1.400 . S
C1187 C1186 1.385 . S
C1188 C1186 1.478 . S
C1188 C1190 1.381 . S
C1188 C1194 1.383 . S
C1189 C1185 1.495 . S
C1189 H1195 0.959 . S
C1189 H1196 0.961 . S
C1189 H1197 0.960 . S
C1190 C1188 1.381 . S
C1190 C1191 1.394 . S
C1190 H1198 0.930 . S
C1191 C1190 1.394 . S
C1191 C1192 1.383 . S
C1191 H1199 0.929 . S
C1192 C1191 1.383 . S
C1192 C1193 1.377 . S
C1193 H1177 0.930 . S
C1193 C1192 1.377 . S
C1193 C1194 1.379 . S
C1194 H1178 0.931 . S
C1194 C1188 1.383 . S
C1194 C1193 1.379 . S
H1195 C1189 0.959 . S
H1196 C1189 0.961 . S
H1197 C1189 0.960 . S
H1198 C1190 0.930 . S
H1199 C1191 0.929 . S
H1200 C1208 0.929 . S
H1201 C1210 0.930 . S
H1202 C1212 0.930 . S
H1203 C1215 0.929 . S
H1204 C1218 0.930 . S
H1205 C1220 0.960 . S
H1206 C1220 0.960 . S
H1207 C1220 0.960 . S
C1208 H1200 0.929 . S
C1208 C1209 1.377 . S
C1208 C1210 1.384 . S
C1209 C1208 1.377 . S
C1209 C1215 1.390 . S
C1210 H1201 0.930 . S
C1210 C1208 1.384 . S
C1210 C1211 1.372 . S
C1211 C1210 1.372 . S
C1211 C1212 1.400 . S
C1211 C1216 1.490 . S
C1212 H1202 0.930 . S
C1212 C1211 1.400 . S
C1212 C1215 1.386 . S
H1213 C1229 0.930 . S
H1214 C1230 0.931 . S
C1215 H1203 0.929 . S
C1215 C1209 1.390 . S
C1215 C1212 1.386 . S
C1216 C1211 1.490 . S
C1216 C1218 1.395 . S
C1216 C1219 1.403 . S
H1217 C1223 0.930 . S
C1218 H1204 0.930 . S
C1218 C1216 1.395 . S
C1218 C1221 1.403 . S
C1219 C1216 1.403 . S
C1219 C1220 1.524 . S
C1219 C1223 1.400 . S
C1220 H1205 0.960 . S
C1220 H1206 0.960 . S
C1220 H1207 0.960 . S
C1220 C1219 1.524 . S
C1221 C1218 1.403 . S
C1221 C1222 1.392 . S
C1221 C1225 1.495 . S
C1222 C1221 1.392 . S
C1222 C1223 1.385 . S
C1222 C1224 1.478 . S
C1223 H1217 0.930 . S
C1223 C1219 1.400 . S
C1223 C1222 1.385 . S
C1224 C1222 1.478 . S
C1224 C1226 1.381 . S
C1224 C1230 1.383 . S
C1225 C1221 1.495 . S
C1225 H1231 0.959 . S
C1225 H1232 0.961 . S
C1225 H1233 0.960 . S
C1226 C1224 1.381 . S
C1226 C1227 1.394 . S
C1226 H1234 0.930 . S
C1227 C1226 1.394 . S
C1227 C1228 1.383 . S
C1227 H1235 0.929 . S
C1228 C1227 1.383 . S
C1228 C1229 1.377 . S
C1229 H1213 0.930 . S
C1229 C1228 1.377 . S
C1229 C1230 1.379 . S
C1230 H1214 0.931 . S
C1230 C1224 1.383 . S
C1230 C1229 1.379 . S
H1231 C1225 0.959 . S
H1232 C1225 0.961 . S
H1233 C1225 0.960 . S
H1234 C1226 0.930 . S
H1235 C1227 0.929 . S
H1236 C1244 0.929 . S
H1237 C1246 0.930 . S
H1238 C1248 0.930 . S
H1239 C1251 0.929 . S
H1240 C1254 0.930 . S
H1241 C1256 0.960 . S
H1242 C1256 0.960 . S
H1243 C1256 0.960 . S
C1244 H1236 0.929 . S
C1244 C1245 1.377 . S
C1244 C1246 1.384 . S
C1245 C1244 1.377 . S
C1245 C1251 1.390 . S
C1246 H1237 0.930 . S
C1246 C1244 1.384 . S
C1246 C1247 1.372 . S
C1247 C1246 1.372 . S
C1247 C1248 1.400 . S
C1247 C1252 1.490 . S
C1248 H1238 0.930 . S
C1248 C1247 1.400 . S
C1248 C1251 1.386 . S
H1249 C1265 0.930 1_556 S
H1250 C1266 0.931 . S
C1251 H1239 0.929 . S
C1251 C1245 1.390 . S
C1251 C1248 1.386 . S
C1252 C1247 1.490 . S
C1252 C1254 1.395 . S
C1252 C1255 1.403 . S
H1253 C1259 0.930 . S
C1254 H1240 0.930 . S
C1254 C1252 1.395 . S
C1254 C1257 1.403 . S
C1255 C1252 1.403 . S
C1255 C1256 1.524 . S
C1255 C1259 1.400 . S
C1256 H1241 0.960 . S
C1256 H1242 0.960 . S
C1256 H1243 0.960 . S
C1256 C1255 1.524 . S
C1257 C1254 1.403 . S
C1257 C1258 1.392 . S
C1257 C1261 1.495 . S
C1258 C1257 1.392 . S
C1258 C1259 1.385 . S
C1258 C1260 1.478 . S
C1259 H1253 0.930 . S
C1259 C1255 1.400 . S
C1259 C1258 1.385 . S
C1260 C1258 1.478 . S
C1260 C1262 1.381 . S
C1260 C1266 1.383 . S
C1261 C1257 1.495 . S
C1261 H1267 0.959 . S
C1261 H1268 0.961 . S
C1261 H1269 0.960 . S
C1262 C1260 1.381 . S
C1262 C1263 1.394 . S
C1262 H1270 0.930 . S
C1263 C1262 1.394 . S
C1263 C1264 1.383 . S
C1263 H1271 0.929 . S
C1264 C1263 1.383 . S
C1264 C1265 1.377 . S
C1265 H1249 0.930 1_554 S
C1265 C1264 1.377 . S
C1265 C1266 1.379 . S
C1266 H1250 0.931 . S
C1266 C1260 1.383 . S
C1266 C1265 1.379 . S
H1267 C1261 0.959 . S
H1268 C1261 0.961 . S
H1269 C1261 0.960 . S
H1270 C1262 0.930 . S
H1271 C1263 0.929 . S
H1272 C1280 0.929 . S
H1273 C1282 0.930 . S
H1274 C1284 0.930 . S
H1275 C1287 0.929 1_556 S
H1276 C1290 0.930 . S
H1277 C1292 0.960 . S
H1278 C1292 0.960 . S
H1279 C1292 0.960 . S
C1280 H1272 0.929 . S
C1280 C1281 1.377 . S
C1280 C1282 1.384 . S
C1281 C1280 1.377 . S
C1281 C1287 1.390 . S
C1282 H1273 0.930 . S
C1282 C1280 1.384 . S
C1282 C1283 1.372 . S
C1283 C1282 1.372 . S
C1283 C1284 1.400 . S
C1283 C1288 1.490 . S
C1284 H1274 0.930 . S
C1284 C1283 1.400 . S
C1284 C1287 1.386 . S
H1285 C1301 0.930 . S
H1286 C1302 0.931 . S
C1287 H1275 0.929 1_554 S
C1287 C1281 1.390 . S
C1287 C1284 1.386 . S
C1288 C1283 1.490 . S
C1288 C1290 1.395 . S
C1288 C1291 1.403 . S
H1289 C1295 0.930 . S
C1290 H1276 0.930 . S
C1290 C1288 1.395 . S
C1290 C1293 1.403 . S
C1291 C1288 1.403 . S
C1291 C1292 1.524 . S
C1291 C1295 1.400 . S
C1292 H1277 0.960 . S
C1292 H1278 0.960 . S
C1292 H1279 0.960 . S
C1292 C1291 1.524 . S
C1293 C1290 1.403 . S
C1293 C1294 1.392 . S
C1293 C1297 1.495 . S
C1294 C1293 1.392 . S
C1294 C1295 1.385 . S
C1294 C1296 1.478 . S
C1295 H1289 0.930 . S
C1295 C1291 1.400 . S
C1295 C1294 1.385 . S
C1296 C1294 1.478 . S
C1296 C1298 1.381 . S
C1296 C1302 1.383 . S
C1297 C1293 1.495 . S
C1297 H1303 0.959 . S
C1297 H1304 0.961 . S
C1297 H1305 0.960 . S
C1298 C1296 1.381 . S
C1298 C1299 1.394 . S
C1298 H1306 0.930 . S
C1299 C1298 1.394 . S
C1299 C1300 1.383 . S
C1299 H1307 0.929 . S
C1300 C1299 1.383 . S
C1300 C1301 1.377 . S
C1301 H1285 0.930 . S
C1301 C1300 1.377 . S
C1301 C1302 1.379 . S
C1302 H1286 0.931 . S
C1302 C1296 1.383 . S
C1302 C1301 1.379 . S
H1303 C1297 0.959 . S
H1304 C1297 0.961 . S
H1305 C1297 0.960 . S
H1306 C1298 0.930 . S
H1307 C1299 0.929 . S
H1308 C1316 0.929 1_556 S
H1309 C1318 0.930 . S
H1310 C1320 0.930 . S
H1311 C1323 0.929 . S
H1312 C1326 0.930 . S
H1313 C1328 0.960 . S
H1314 C1328 0.960 . S
H1315 C1328 0.960 . S
C1316 H1308 0.929 1_554 S
C1316 C1317 1.377 . S
C1316 C1318 1.384 . S
C1317 C1316 1.377 . S
C1317 C1323 1.390 . S
C1318 H1309 0.930 . S
C1318 C1316 1.384 . S
C1318 C1319 1.372 . S
C1319 C1318 1.372 . S
C1319 C1320 1.400 . S
C1319 C1324 1.490 . S
C1320 H1310 0.930 . S
C1320 C1319 1.400 . S
C1320 C1323 1.386 . S
H1321 C1337 0.930 . S
H1322 C1338 0.931 . S
C1323 H1311 0.929 . S
C1323 C1317 1.390 . S
C1323 C1320 1.386 . S
C1324 C1319 1.490 . S
C1324 C1326 1.395 . S
C1324 C1327 1.403 . S
H1325 C1331 0.930 . S
C1326 H1312 0.930 . S
C1326 C1324 1.395 . S
C1326 C1329 1.403 . S
C1327 C1324 1.403 . S
C1327 C1328 1.524 . S
C1327 C1331 1.400 . S
C1328 H1313 0.960 . S
C1328 H1314 0.960 . S
C1328 H1315 0.960 . S
C1328 C1327 1.524 . S
C1329 C1326 1.403 . S
C1329 C1330 1.392 . S
C1329 C1333 1.495 . S
C1330 C1329 1.392 . S
C1330 C1331 1.385 . S
C1330 C1332 1.478 . S
C1331 H1325 0.930 . S
C1331 C1327 1.400 . S
C1331 C1330 1.385 . S
C1332 C1330 1.478 . S
C1332 C1334 1.381 . S
C1332 C1338 1.383 . S
C1333 C1329 1.495 . S
C1333 H1339 0.959 . S
C1333 H1340 0.961 . S
C1333 H1341 0.960 . S
C1334 C1332 1.381 . S
C1334 C1335 1.394 . S
C1334 H1342 0.930 . S
C1335 C1334 1.394 . S
C1335 C1336 1.383 . S
C1335 H1343 0.929 . S
C1336 C1335 1.383 . S
C1336 C1337 1.377 . S
C1337 H1321 0.930 . S
C1337 C1336 1.377 . S
C1337 C1338 1.379 . S
C1338 H1322 0.931 . S
C1338 C1332 1.383 . S
C1338 C1337 1.379 . S
H1339 C1333 0.959 . S
H1340 C1333 0.961 . S
H1341 C1333 0.960 . S
H1342 C1334 0.930 . S
H1343 C1335 0.929 . S
H1344 C1352 0.929 . S
H1345 C1354 0.930 . S
H1346 C1356 0.930 . S
H1347 C1359 0.929 . S
H1348 C1362 0.930 . S
H1349 C1364 0.960 . S
H1350 C1364 0.960 . S
H1351 C1364 0.960 . S
C1352 H1344 0.929 . S
C1352 C1353 1.377 . S
C1352 C1354 1.384 . S
C1353 C1352 1.377 . S
C1353 C1359 1.390 . S
C1354 H1345 0.930 . S
C1354 C1352 1.384 . S
C1354 C1355 1.372 . S
C1355 C1354 1.372 . S
C1355 C1356 1.400 . S
C1355 C1360 1.490 . S
C1356 H1346 0.930 . S
C1356 C1355 1.400 . S
C1356 C1359 1.386 . S
H1357 C1373 0.930 . S
H1358 C1374 0.931 . S
C1359 H1347 0.929 . S
C1359 C1353 1.390 . S
C1359 C1356 1.386 . S
C1360 C1355 1.490 . S
C1360 C1362 1.395 . S
C1360 C1363 1.403 . S
H1361 C1367 0.930 . S
C1362 H1348 0.930 . S
C1362 C1360 1.395 . S
C1362 C1365 1.403 . S
C1363 C1360 1.403 . S
C1363 C1364 1.524 . S
C1363 C1367 1.400 . S
C1364 H1349 0.960 . S
C1364 H1350 0.960 . S
C1364 H1351 0.960 . S
C1364 C1363 1.524 . S
C1365 C1362 1.403 . S
C1365 C1366 1.392 . S
C1365 C1369 1.495 . S
C1366 C1365 1.392 . S
C1366 C1367 1.385 . S
C1366 C1368 1.478 . S
C1367 H1361 0.930 . S
C1367 C1363 1.400 . S
C1367 C1366 1.385 . S
C1368 C1366 1.478 . S
C1368 C1370 1.381 . S
C1368 C1374 1.383 . S
C1369 C1365 1.495 . S
C1369 H1375 0.959 . S
C1369 H1376 0.961 . S
C1369 H1377 0.960 . S
C1370 C1368 1.381 . S
C1370 C1371 1.394 . S
C1370 H1378 0.930 . S
C1371 C1370 1.394 . S
C1371 C1372 1.383 . S
C1371 H1379 0.929 . S
C1372 C1371 1.383 . S
C1372 C1373 1.377 . S
C1373 H1357 0.930 . S
C1373 C1372 1.377 . S
C1373 C1374 1.379 . S
C1374 H1358 0.931 . S
C1374 C1368 1.383 . S
C1374 C1373 1.379 . S
H1375 C1369 0.959 . S
H1376 C1369 0.961 . S
H1377 C1369 0.960 . S
H1378 C1370 0.930 . S
H1379 C1371 0.929 . S
H1380 C1388 0.929 . S
H1381 C1390 0.930 . S
H1382 C1392 0.930 . S
H1383 C1395 0.929 . S
H1384 C1398 0.930 . S
H1385 C1400 0.960 . S
H1386 C1400 0.960 . S
H1387 C1400 0.960 . S
C1388 H1380 0.929 . S
C1388 C1389 1.377 . S
C1388 C1390 1.384 . S
C1389 C1388 1.377 . S
C1389 C1395 1.390 . S
C1390 H1381 0.930 . S
C1390 C1388 1.384 . S
C1390 C1391 1.372 . S
C1391 C1390 1.372 . S
C1391 C1392 1.400 . S
C1391 C1396 1.490 . S
C1392 H1382 0.930 . S
C1392 C1391 1.400 . S
C1392 C1395 1.386 . S
H1393 C1409 0.930 . S
H1394 C1410 0.931 . S
C1395 H1383 0.929 . S
C1395 C1389 1.390 . S
C1395 C1392 1.386 . S
C1396 C1391 1.490 . S
C1396 C1398 1.395 . S
C1396 C1399 1.403 . S
H1397 C1403 0.930 . S
C1398 H1384 0.930 . S
C1398 C1396 1.395 . S
C1398 C1401 1.403 . S
C1399 C1396 1.403 . S
C1399 C1400 1.524 . S
C1399 C1403 1.400 . S
C1400 H1385 0.960 . S
C1400 H1386 0.960 . S
C1400 H1387 0.960 . S
C1400 C1399 1.524 . S
C1401 C1398 1.403 . S
C1401 C1402 1.392 . S
C1401 C1405 1.495 . S
C1402 C1401 1.392 . S
C1402 C1403 1.385 . S
C1402 C1404 1.478 . S
C1403 H1397 0.930 . S
C1403 C1399 1.400 . S
C1403 C1402 1.385 . S
C1404 C1402 1.478 . S
C1404 C1406 1.381 . S
C1404 C1410 1.383 . S
C1405 C1401 1.495 . S
C1405 H1411 0.959 . S
C1405 H1412 0.961 . S
C1405 H1413 0.960 . S
C1406 C1404 1.381 . S
C1406 C1407 1.394 . S
C1406 H1414 0.930 . S
C1407 C1406 1.394 . S
C1407 C1408 1.383 . S
C1407 H1415 0.929 . S
C1408 C1407 1.383 . S
C1408 C1409 1.377 . S
C1409 H1393 0.930 . S
C1409 C1408 1.377 . S
C1409 C1410 1.379 . S
C1410 H1394 0.931 . S
C1410 C1404 1.383 . S
C1410 C1409 1.379 . S
H1411 C1405 0.959 . S
H1412 C1405 0.961 . S
H1413 C1405 0.960 . S
H1414 C1406 0.930 . S
H1415 C1407 0.929 . S
H1416 C1424 0.929 . S
H1417 C1426 0.930 . S
H1418 C1428 0.930 . S
H1419 C1431 0.929 . S
H1420 C1434 0.930 . S
H1421 C1436 0.960 . S
H1422 C1436 0.960 . S
H1423 C1436 0.960 . S
C1424 H1416 0.929 . S
C1424 C1425 1.377 . S
C1424 C1426 1.384 . S
C1425 C1424 1.377 . S
C1425 C1431 1.390 . S
C1426 H1417 0.930 . S
C1426 C1424 1.384 . S
C1426 C1427 1.372 . S
C1427 C1426 1.372 . S
C1427 C1428 1.400 . S
C1427 C1432 1.490 . S
C1428 H1418 0.930 . S
C1428 C1427 1.400 . S
C1428 C1431 1.386 . S
H1429 C1445 0.930 . S
H1430 C1446 0.931 . S
C1431 H1419 0.929 . S
C1431 C1425 1.390 . S
C1431 C1428 1.386 . S
C1432 C1427 1.490 . S
C1432 C1434 1.395 . S
C1432 C1435 1.403 . S
H1433 C1439 0.930 . S
C1434 H1420 0.930 . S
C1434 C1432 1.395 . S
C1434 C1437 1.403 . S
C1435 C1432 1.403 . S
C1435 C1436 1.524 . S
C1435 C1439 1.400 . S
C1436 H1421 0.960 . S
C1436 H1422 0.960 . S
C1436 H1423 0.960 . S
C1436 C1435 1.524 . S
C1437 C1434 1.403 . S
C1437 C1438 1.392 . S
C1437 C1441 1.495 . S
C1438 C1437 1.392 . S
C1438 C1439 1.385 . S
C1438 C1440 1.478 . S
C1439 H1433 0.930 . S
C1439 C1435 1.400 . S
C1439 C1438 1.385 . S
C1440 C1438 1.478 . S
C1440 C1442 1.381 . S
C1440 C1446 1.383 . S
C1441 C1437 1.495 . S
C1441 H1447 0.959 . S
C1441 H1448 0.961 . S
C1441 H1449 0.960 . S
C1442 C1440 1.381 . S
C1442 C1443 1.394 . S
C1442 H1450 0.930 . S
C1443 C1442 1.394 . S
C1443 C1444 1.383 . S
C1443 H1451 0.929 . S
C1444 C1443 1.383 . S
C1444 C1445 1.377 . S
C1445 H1429 0.930 . S
C1445 C1444 1.377 . S
C1445 C1446 1.379 . S
C1446 H1430 0.931 . S
C1446 C1440 1.383 . S
C1446 C1445 1.379 . S
H1447 C1441 0.959 . S
H1448 C1441 0.961 . S
H1449 C1441 0.960 . S
H1450 C1442 0.930 . S
H1451 C1443 0.929 . S
H1452 C1460 0.929 . S
H1453 C1462 0.930 . S
H1454 C1464 0.930 . S
H1455 C1467 0.929 . S
H1456 C1470 0.930 . S
H1457 C1472 0.960 . S
H1458 C1472 0.960 . S
H1459 C1472 0.960 . S
C1460 H1452 0.929 . S
C1460 C1461 1.377 . S
C1460 C1462 1.384 . S
C1461 C1460 1.377 . S
C1461 C1467 1.390 . S
C1462 H1453 0.930 . S
C1462 C1460 1.384 . S
C1462 C1463 1.372 . S
C1463 C1462 1.372 . S
C1463 C1464 1.400 . S
C1463 C1468 1.490 . S
C1464 H1454 0.930 . S
C1464 C1463 1.400 . S
C1464 C1467 1.386 . S
H1465 C1481 0.930 . S
H1466 C1482 0.931 . S
C1467 H1455 0.929 . S
C1467 C1461 1.390 . S
C1467 C1464 1.386 . S
C1468 C1463 1.490 . S
C1468 C1470 1.395 . S
C1468 C1471 1.403 . S
H1469 C1475 0.930 . S
C1470 H1456 0.930 . S
C1470 C1468 1.395 . S
C1470 C1473 1.403 . S
C1471 C1468 1.403 . S
C1471 C1472 1.524 . S
C1471 C1475 1.400 . S
C1472 H1457 0.960 . S
C1472 H1458 0.960 . S
C1472 H1459 0.960 . S
C1472 C1471 1.524 . S
C1473 C1470 1.403 . S
C1473 C1474 1.392 . S
C1473 C1477 1.495 . S
C1474 C1473 1.392 . S
C1474 C1475 1.385 . S
C1474 C1476 1.478 . S
C1475 H1469 0.930 . S
C1475 C1471 1.400 . S
C1475 C1474 1.385 . S
C1476 C1474 1.478 . S
C1476 C1478 1.381 . S
C1476 C1482 1.383 . S
C1477 C1473 1.495 . S
C1477 H1483 0.959 . S
C1477 H1484 0.961 . S
C1477 H1485 0.960 . S
C1478 C1476 1.381 . S
C1478 C1479 1.394 . S
C1478 H1486 0.930 . S
C1479 C1478 1.394 . S
C1479 C1480 1.383 . S
C1479 H1487 0.929 . S
C1480 C1479 1.383 . S
C1480 C1481 1.377 . S
C1481 H1465 0.930 . S
C1481 C1480 1.377 . S
C1481 C1482 1.379 . S
C1482 H1466 0.931 . S
C1482 C1476 1.383 . S
C1482 C1481 1.379 . S
H1483 C1477 0.959 . S
H1484 C1477 0.961 . S
H1485 C1477 0.960 . S
H1486 C1478 0.930 . S
H1487 C1479 0.929 . S
H1488 C1496 0.929 . S
H1489 C1498 0.930 . S
H1490 C1500 0.930 . S
H1491 C1503 0.929 . S
H1492 C1506 0.930 . S
H1493 C1508 0.960 . S
H1494 C1508 0.960 . S
H1495 C1508 0.960 . S
C1496 H1488 0.929 . S
C1496 C1497 1.377 . S
C1496 C1498 1.384 . S
C1497 C1496 1.377 . S
C1497 C1503 1.390 . S
C1498 H1489 0.930 . S
C1498 C1496 1.384 . S
C1498 C1499 1.372 . S
C1499 C1498 1.372 . S
C1499 C1500 1.400 . S
C1499 C1504 1.490 . S
C1500 H1490 0.930 . S
C1500 C1499 1.400 . S
C1500 C1503 1.386 . S
H1501 C1517 0.930 . S
H1502 C1518 0.931 . S
C1503 H1491 0.929 . S
C1503 C1497 1.390 . S
C1503 C1500 1.386 . S
C1504 C1499 1.490 . S
C1504 C1506 1.430 . S
C1504 C1507 1.403 . S
H1505 C1511 0.930 . S
C1506 H1492 0.930 . S
C1506 C1504 1.430 . S
C1506 C1509 1.369 1_565 S
C1507 C1504 1.403 . S
C1507 C1508 1.524 . S
C1507 C1511 1.400 1_565 S
C1508 H1493 0.960 . S
C1508 H1494 0.960 . S
C1508 H1495 0.960 . S
C1508 C1507 1.524 . S
C1509 C1506 1.369 1_545 S
C1509 C1510 1.392 . S
C1509 C1513 1.495 . S
C1510 C1509 1.392 . S
C1510 C1511 1.385 . S
C1510 C1512 1.478 . S
C1511 H1505 0.930 . S
C1511 C1507 1.400 1_545 S
C1511 C1510 1.385 . S
C1512 C1510 1.478 . S
C1512 C1514 1.381 . S
C1512 C1518 1.383 . S
C1513 C1509 1.495 . S
C1513 H1519 0.959 . S
C1513 H1520 0.961 . S
C1513 H1521 0.960 . S
C1514 C1512 1.381 . S
C1514 C1515 1.394 . S
C1514 H1522 0.930 . S
C1515 C1514 1.394 . S
C1515 C1516 1.383 . S
C1515 H1523 0.929 . S
C1516 C1515 1.383 . S
C1516 C1517 1.377 . S
C1517 H1501 0.930 . S
C1517 C1516 1.377 . S
C1517 C1518 1.379 . S
C1518 H1502 0.931 . S
C1518 C1512 1.383 . S
C1518 C1517 1.379 . S
H1519 C1513 0.959 . S
H1520 C1513 0.961 . S
H1521 C1513 0.960 . S
H1522 C1514 0.930 . S
H1523 C1515 0.929 . S
H1524 C1532 0.929 . S
H1525 C1534 0.930 . S
H1526 C1536 0.930 . S
H1527 C1539 0.929 . S
H1528 C1542 0.930 . S
H1529 C1544 0.960 1_655 S
H1530 C1544 0.960 . S
H1531 C1544 0.960 . S
C1532 H1524 0.929 . S
C1532 C1533 1.377 . S
C1532 C1534 1.384 . S
C1533 C1532 1.377 . S
C1533 C1539 1.390 . S
C1534 H1525 0.930 . S
C1534 C1532 1.384 . S
C1534 C1535 1.372 . S
C1535 C1534 1.372 . S
C1535 C1536 1.400 . S
C1535 C1540 1.490 . S
C1536 H1526 0.930 . S
C1536 C1535 1.400 . S
C1536 C1539 1.386 . S
H1537 C1553 0.930 . S
H1538 C1554 0.931 . S
C1539 H1527 0.929 . S
C1539 C1533 1.390 . S
C1539 C1536 1.386 . S
C1540 C1535 1.490 . S
C1540 C1542 1.395 . S
C1540 C1543 1.403 . S
H1541 C1547 0.930 . S
C1542 H1528 0.930 . S
C1542 C1540 1.395 . S
C1542 C1545 1.369 1_455 S
C1543 C1540 1.403 . S
C1543 C1544 1.524 . S
C1543 C1547 1.400 1_455 S
C1544 H1529 0.960 1_455 S
C1544 H1530 0.960 . S
C1544 H1531 0.960 . S
C1544 C1543 1.524 . S
C1545 C1542 1.369 1_655 S
C1545 C1546 1.440 . S
C1545 C1549 1.482 . S
C1546 C1545 1.440 . S
C1546 C1547 1.385 . S
C1546 C1548 1.478 . S
C1547 H1541 0.930 . S
C1547 C1543 1.400 1_655 S
C1547 C1546 1.385 . S
C1548 C1546 1.478 . S
C1548 C1550 1.381 . S
C1548 C1554 1.383 . S
C1549 C1545 1.482 . S
C1549 H1555 0.959 1_655 S
C1549 H1556 0.961 . S
C1549 H1557 0.960 . S
C1550 C1548 1.381 . S
C1550 C1551 1.394 . S
C1550 H1558 0.930 . S
C1551 C1550 1.394 . S
C1551 C1552 1.383 . S
C1551 H1559 0.929 . S
C1552 C1551 1.383 . S
C1552 C1553 1.377 . S
C1553 H1537 0.930 . S
C1553 C1552 1.377 . S
C1553 C1554 1.379 . S
C1554 H1538 0.931 . S
C1554 C1548 1.383 . S
C1554 C1553 1.379 . S
H1555 C1549 0.959 1_455 S
H1556 C1549 0.961 . S
H1557 C1549 0.960 . S
H1558 C1550 0.930 . S
H1559 C1551 0.929 . S
H1560 C1568 0.929 . S
H1561 C1570 0.930 . S
H1562 C1572 0.930 . S
H1563 C1575 0.929 . S
H1564 C1578 0.930 . S
H1565 C1580 0.960 . S
H1566 C1580 0.960 . S
H1567 C1580 0.960 . S
C1568 H1560 0.929 . S
C1568 C1569 1.377 . S
C1568 C1570 1.384 . S
C1569 C1568 1.377 . S
C1569 C1575 1.390 . S
C1570 H1561 0.930 . S
C1570 C1568 1.384 . S
C1570 C1571 1.372 . S
C1571 C1570 1.372 . S
C1571 C1572 1.400 . S
C1571 C1576 1.490 . S
C1572 H1562 0.930 . S
C1572 C1571 1.400 . S
C1572 C1575 1.386 . S
H1573 C1589 0.930 . S
H1574 C1590 0.931 . S
C1575 H1563 0.929 . S
C1575 C1569 1.390 . S
C1575 C1572 1.386 . S
C1576 C1571 1.490 . S
C1576 C1578 1.395 . S
C1576 C1579 1.403 . S
H1577 C1583 0.930 . S
C1578 H1564 0.930 . S
C1578 C1576 1.395 . S
C1578 C1581 1.403 . S
C1579 C1576 1.403 . S
C1579 C1580 1.524 . S
C1579 C1583 1.400 . S
C1580 H1565 0.960 . S
C1580 H1566 0.960 . S
C1580 H1567 0.960 . S
C1580 C1579 1.524 . S
C1581 C1578 1.403 . S
C1581 C1582 1.392 . S
C1581 C1585 1.495 . S
C1582 C1581 1.392 . S
C1582 C1583 1.385 . S
C1582 C1584 1.478 . S
C1583 H1577 0.930 . S
C1583 C1579 1.400 . S
C1583 C1582 1.385 . S
C1584 C1582 1.478 . S
C1584 C1586 1.381 . S
C1584 C1590 1.383 . S
C1585 C1581 1.495 . S
C1585 H1591 0.959 . S
C1585 H1592 0.961 . S
C1585 H1593 0.960 . S
C1586 C1584 1.381 . S
C1586 C1587 1.394 . S
C1586 H1594 0.930 . S
C1587 C1586 1.394 . S
C1587 C1588 1.383 . S
C1587 H1595 0.929 . S
C1588 C1587 1.383 . S
C1588 C1589 1.377 . S
C1589 H1573 0.930 . S
C1589 C1588 1.377 . S
C1589 C1590 1.379 . S
C1590 H1574 0.931 . S
C1590 C1584 1.383 . S
C1590 C1589 1.379 . S
H1591 C1585 0.959 . S
H1592 C1585 0.961 . S
H1593 C1585 0.960 . S
H1594 C1586 0.930 . S
H1595 C1587 0.929 . S
H1596 C1604 0.929 . S
H1597 C1606 0.930 . S
H1598 C1608 0.930 . S
H1599 C1611 0.929 . S
H1600 C1614 0.931 . S
H1601 C1616 0.960 . S
H1602 C1616 0.960 . S
H1603 C1616 0.960 . S
C1604 H1596 0.929 . S
C1604 C1605 1.377 . S
C1604 C1606 1.384 . S
C1605 C1604 1.377 . S
C1605 C1611 1.390 . S
C1606 H1597 0.930 . S
C1606 C1604 1.384 . S
C1606 C1607 1.372 . S
C1607 C1606 1.372 . S
C1607 C1608 1.400 . S
C1607 C1612 1.490 . S
C1608 H1598 0.930 . S
C1608 C1607 1.400 . S
C1608 C1611 1.386 . S
H1609 C1625 0.930 . S
H1610 C1626 0.931 . S
C1611 H1599 0.929 . S
C1611 C1605 1.390 . S
C1611 C1608 1.386 . S
C1612 C1607 1.490 . S
C1612 C1614 1.402 . S
C1612 C1615 1.403 . S
H1613 C1619 0.930 . S
C1614 H1600 0.931 . S
C1614 C1612 1.402 . S
C1614 C1617 1.394 1_565 S
C1615 C1612 1.403 . S
C1615 C1616 1.524 . S
C1615 C1619 1.400 1_565 S
C1616 H1601 0.960 . S
C1616 H1602 0.960 . S
C1616 H1603 0.960 . S
C1616 C1615 1.524 . S
C1617 C1614 1.394 1_545 S
C1617 C1618 1.392 . S
C1617 C1621 1.495 . S
C1618 C1617 1.392 . S
C1618 C1619 1.385 . S
C1618 C1620 1.478 . S
C1619 H1613 0.930 . S
C1619 C1615 1.400 1_545 S
C1619 C1618 1.385 . S
C1620 C1618 1.478 . S
C1620 C1622 1.381 . S
C1620 C1626 1.383 . S
C1621 C1617 1.495 . S
C1621 H1627 0.959 . S
C1621 H1628 0.961 . S
C1621 H1629 0.960 . S
C1622 C1620 1.381 . S
C1622 C1623 1.394 . S
C1622 H1630 0.930 . S
C1623 C1622 1.394 . S
C1623 C1624 1.383 . S
C1623 H1631 0.929 . S
C1624 C1623 1.383 . S
C1624 C1625 1.377 . S
C1625 H1609 0.930 . S
C1625 C1624 1.377 . S
C1625 C1626 1.379 . S
C1626 H1610 0.931 . S
C1626 C1620 1.383 . S
C1626 C1625 1.379 . S
H1627 C1621 0.959 . S
H1628 C1621 0.961 . S
H1629 C1621 0.960 . S
H1630 C1622 0.930 . S
H1631 C1623 0.929 . S
H1632 C1640 0.929 . S
H1633 C1642 0.930 . S
H1634 C1644 0.930 . S
H1635 C1647 0.929 . S
H1636 C1650 0.930 . S
H1637 C1652 0.960 1_455 S
H1638 C1652 0.960 . S
H1639 C1652 0.960 . S
C1640 H1632 0.929 . S
C1640 C1641 1.377 . S
C1640 C1642 1.384 . S
C1641 C1640 1.377 . S
C1641 C1647 1.390 . S
C1642 H1633 0.930 . S
C1642 C1640 1.384 . S
C1642 C1643 1.372 . S
C1643 C1642 1.372 . S
C1643 C1644 1.400 . S
C1643 C1648 1.490 . S
C1644 H1634 0.930 . S
C1644 C1643 1.400 . S
C1644 C1647 1.386 . S
H1645 C1661 0.930 . S
H1646 C1662 0.931 . S
C1647 H1635 0.929 . S
C1647 C1641 1.390 . S
C1647 C1644 1.386 . S
C1648 C1643 1.490 . S
C1648 C1650 1.395 . S
C1648 C1651 1.403 . S
H1649 C1655 0.930 . S
C1650 H1636 0.930 . S
C1650 C1648 1.395 . S
C1650 C1653 1.403 1_655 S
C1651 C1648 1.403 . S
C1651 C1652 1.524 . S
C1651 C1655 1.400 1_655 S
C1652 H1637 0.960 1_655 S
C1652 H1638 0.960 . S
C1652 H1639 0.960 . S
C1652 C1651 1.524 . S
C1653 C1650 1.403 1_455 S
C1653 C1654 1.392 . S
C1653 C1657 1.495 . S
C1654 C1653 1.392 . S
C1654 C1655 1.385 . S
C1654 C1656 1.478 . S
C1655 H1649 0.930 . S
C1655 C1651 1.400 1_455 S
C1655 C1654 1.385 . S
C1656 C1654 1.478 . S
C1656 C1658 1.381 . S
C1656 C1662 1.383 . S
C1657 C1653 1.495 . S
C1657 H1663 0.959 1_455 S
C1657 H1664 0.961 . S
C1657 H1665 0.960 . S
C1658 C1656 1.381 . S
C1658 C1659 1.394 . S
C1658 H1666 0.930 . S
C1659 C1658 1.394 . S
C1659 C1660 1.383 . S
C1659 H1667 0.929 . S
C1660 C1659 1.383 . S
C1660 C1661 1.377 . S
C1661 H1645 0.930 . S
C1661 C1660 1.377 . S
C1661 C1662 1.379 . S
C1662 H1646 0.931 . S
C1662 C1656 1.383 . S
C1662 C1661 1.379 . S
H1663 C1657 0.959 1_655 S
H1664 C1657 0.961 . S
H1665 C1657 0.960 . S
H1666 C1658 0.930 . S
H1667 C1659 0.929 . S
H1668 C1676 0.929 . S
H1669 C1678 0.930 . S
H1670 C1680 0.930 . S
H1671 C1683 0.929 . S
H1672 C1686 0.930 . S
H1673 C1688 0.960 . S
H1674 C1688 0.960 . S
H1675 C1688 0.960 . S
C1676 H1668 0.929 . S
C1676 C1677 1.377 . S
C1676 C1678 1.384 . S
C1677 C1676 1.377 . S
C1677 C1683 1.390 . S
C1678 H1669 0.930 . S
C1678 C1676 1.384 . S
C1678 C1679 1.372 . S
C1679 C1678 1.372 . S
C1679 C1680 1.400 . S
C1679 C1684 1.490 . S
C1680 H1670 0.930 . S
C1680 C1679 1.400 . S
C1680 C1683 1.386 . S
H1681 C1697 0.930 . S
H1682 C1698 0.931 . S
C1683 H1671 0.929 . S
C1683 C1677 1.390 . S
C1683 C1680 1.386 . S
C1684 C1679 1.490 . S
C1684 C1686 1.395 . S
C1684 C1687 1.403 . S
H1685 C1691 0.930 . S
C1686 H1672 0.930 . S
C1686 C1684 1.395 . S
C1686 C1689 1.403 . S
C1687 C1684 1.403 . S
C1687 C1688 1.524 . S
C1687 C1691 1.400 . S
C1688 H1673 0.960 . S
C1688 H1674 0.960 . S
C1688 H1675 0.960 . S
C1688 C1687 1.524 . S
C1689 C1686 1.403 . S
C1689 C1690 1.392 . S
C1689 C1693 1.495 . S
C1690 C1689 1.392 . S
C1690 C1691 1.385 . S
C1690 C1692 1.478 . S
C1691 H1685 0.930 . S
C1691 C1687 1.400 . S
C1691 C1690 1.385 . S
C1692 C1690 1.478 . S
C1692 C1694 1.381 . S
C1692 C1698 1.383 . S
C1693 C1689 1.495 . S
C1693 H1699 0.959 . S
C1693 H1700 0.961 . S
C1693 H1701 0.960 . S
C1694 C1692 1.381 . S
C1694 C1695 1.394 . S
C1694 H1702 0.930 . S
C1695 C1694 1.394 . S
C1695 C1696 1.383 1_556 S
C1695 H1703 0.929 . S
C1696 C1695 1.383 1_554 S
C1696 C1697 1.377 . S
C1697 H1681 0.930 . S
C1697 C1696 1.377 . S
C1697 C1698 1.379 1_554 S
C1698 H1682 0.931 . S
C1698 C1692 1.383 . S
C1698 C1697 1.379 1_556 S
H1699 C1693 0.959 . S
H1700 C1693 0.961 . S
H1701 C1693 0.960 . S
H1702 C1694 0.930 . S
H1703 C1695 0.929 . S
H1704 C1712 0.929 . S
H1705 C1714 0.930 . S
H1706 C1716 0.930 . S
H1707 C1719 0.929 . S
H1708 C1722 0.930 . S
H1709 C1724 0.960 . S
H1710 C1724 0.960 . S
H1711 C1724 0.960 . S
C1712 H1704 0.929 . S
C1712 C1713 1.377 . S
C1712 C1714 1.384 1_554 S
C1713 C1712 1.377 . S
C1713 C1719 1.390 1_554 S
C1714 H1705 0.930 . S
C1714 C1712 1.384 1_556 S
C1714 C1715 1.372 . S
C1715 C1714 1.372 . S
C1715 C1716 1.400 . S
C1715 C1720 1.490 . S
C1716 H1706 0.930 . S
C1716 C1715 1.400 . S
C1716 C1719 1.386 . S
H1717 C1733 0.930 . S
H1718 C1734 0.931 . S
C1719 H1707 0.929 . S
C1719 C1713 1.390 1_556 S
C1719 C1716 1.386 . S
C1720 C1715 1.490 . S
C1720 C1722 1.395 . S
C1720 C1723 1.403 . S
H1721 C1727 0.930 . S
C1722 H1708 0.930 . S
C1722 C1720 1.395 . S
C1722 C1725 1.403 . S
C1723 C1720 1.403 . S
C1723 C1724 1.524 . S
C1723 C1727 1.400 . S
C1724 H1709 0.960 . S
C1724 H1710 0.960 . S
C1724 H1711 0.960 . S
C1724 C1723 1.524 . S
C1725 C1722 1.403 . S
C1725 C1726 1.392 . S
C1725 C1729 1.495 . S
C1726 C1725 1.392 . S
C1726 C1727 1.385 . S
C1726 C1728 1.478 . S
C1727 H1721 0.930 . S
C1727 C1723 1.400 . S
C1727 C1726 1.385 . S
C1728 C1726 1.478 . S
C1728 C1730 1.381 . S
C1728 C1734 1.383 . S
C1729 C1725 1.495 . S
C1729 H1735 0.959 . S
C1729 H1736 0.961 . S
C1729 H1737 0.960 . S
C1730 C1728 1.381 . S
C1730 C1731 1.394 . S
C1730 H1738 0.930 . S
C1731 C1730 1.394 . S
C1731 C1732 1.383 . S
C1731 H1739 0.929 . S
C1732 C1731 1.383 . S
C1732 C1733 1.377 . S
C1733 H1717 0.930 . S
C1733 C1732 1.377 . S
C1733 C1734 1.379 . S
C1734 H1718 0.931 . S
C1734 C1728 1.383 . S
C1734 C1733 1.379 . S
H1735 C1729 0.959 . S
H1736 C1729 0.961 . S
H1737 C1729 0.960 . S
H1738 C1730 0.930 . S
H1739 C1731 0.929 . S
H1740 C1748 0.929 . S
H1741 C1750 0.930 . S
H1742 C1752 0.930 . S
H1743 C1755 0.929 . S
H1744 C1758 0.930 . S
H1745 C1760 0.960 . S
H1746 C1760 0.960 . S
H1747 C1760 0.960 . S
C1748 H1740 0.929 . S
C1748 C1749 1.377 . S
C1748 C1750 1.384 1_554 S
C1749 C1748 1.377 . S
C1749 C1755 1.390 1_554 S
C1750 H1741 0.930 . S
C1750 C1748 1.384 1_556 S
C1750 C1751 1.372 . S
C1751 C1750 1.372 . S
C1751 C1752 1.400 . S
C1751 C1756 1.490 . S
C1752 H1742 0.930 . S
C1752 C1751 1.400 . S
C1752 C1755 1.386 . S
H1753 C1769 0.930 . S
H1754 C1770 0.931 . S
C1755 H1743 0.929 . S
C1755 C1749 1.390 1_556 S
C1755 C1752 1.386 . S
C1756 C1751 1.490 . S
C1756 C1758 1.395 . S
C1756 C1759 1.403 . S
H1757 C1763 0.930 . S
C1758 H1744 0.930 . S
C1758 C1756 1.395 . S
C1758 C1761 1.403 . S
C1759 C1756 1.403 . S
C1759 C1760 1.524 . S
C1759 C1763 1.400 . S
C1760 H1745 0.960 . S
C1760 H1746 0.960 . S
C1760 H1747 0.960 . S
C1760 C1759 1.524 . S
C1761 C1758 1.403 . S
C1761 C1762 1.392 . S
C1761 C1765 1.495 . S
C1762 C1761 1.392 . S
C1762 C1763 1.385 . S
C1762 C1764 1.478 . S
C1763 H1757 0.930 . S
C1763 C1759 1.400 . S
C1763 C1762 1.385 . S
C1764 C1762 1.478 . S
C1764 C1766 1.381 . S
C1764 C1770 1.383 . S
C1765 C1761 1.495 . S
C1765 H1771 0.959 . S
C1765 H1772 0.961 . S
C1765 H1773 0.960 . S
C1766 C1764 1.381 . S
C1766 C1767 1.394 . S
C1766 H1774 0.930 . S
C1767 C1766 1.394 . S
C1767 C1768 1.383 . S
C1767 H1775 0.929 . S
C1768 C1767 1.383 . S
C1768 C1769 1.377 . S
C1769 H1753 0.930 . S
C1769 C1768 1.377 . S
C1769 C1770 1.379 . S
C1770 H1754 0.931 . S
C1770 C1764 1.383 . S
C1770 C1769 1.379 . S
H1771 C1765 0.959 . S
H1772 C1765 0.961 . S
H1773 C1765 0.960 . S
H1774 C1766 0.930 . S
H1775 C1767 0.929 . S
H1776 C1784 0.929 . S
H1777 C1786 0.930 . S
H1778 C1788 0.930 . S
H1779 C1791 0.929 . S
H1780 C1794 0.930 . S
H1781 C1796 0.960 . S
H1782 C1796 0.960 . S
H1783 C1796 0.960 . S
C1784 H1776 0.929 . S
C1784 C1785 1.377 . S
C1784 C1786 1.384 . S
C1785 C1784 1.377 . S
C1785 C1791 1.390 . S
C1786 H1777 0.930 . S
C1786 C1784 1.384 . S
C1786 C1787 1.372 . S
C1787 C1786 1.372 . S
C1787 C1788 1.400 . S
C1787 C1792 1.490 . S
C1788 H1778 0.930 . S
C1788 C1787 1.400 . S
C1788 C1791 1.386 . S
H1789 C1805 0.930 . S
H1790 C1806 0.931 . S
C1791 H1779 0.929 . S
C1791 C1785 1.390 . S
C1791 C1788 1.386 . S
C1792 C1787 1.490 . S
C1792 C1794 1.395 . S
C1792 C1795 1.403 . S
H1793 C1799 0.930 . S
C1794 H1780 0.930 . S
C1794 C1792 1.395 . S
C1794 C1797 1.403 . S
C1795 C1792 1.403 . S
C1795 C1796 1.524 . S
C1795 C1799 1.400 . S
C1796 H1781 0.960 . S
C1796 H1782 0.960 . S
C1796 H1783 0.960 . S
C1796 C1795 1.524 . S
C1797 C1794 1.403 . S
C1797 C1798 1.392 . S
C1797 C1801 1.495 . S
C1798 C1797 1.392 . S
C1798 C1799 1.385 . S
C1798 C1800 1.478 . S
C1799 H1793 0.930 . S
C1799 C1795 1.400 . S
C1799 C1798 1.385 . S
C1800 C1798 1.478 . S
C1800 C1802 1.381 . S
C1800 C1806 1.383 . S
C1801 C1797 1.495 . S
C1801 H1807 0.959 . S
C1801 H1808 0.961 . S
C1801 H1809 0.960 . S
C1802 C1800 1.381 . S
C1802 C1803 1.394 . S
C1802 H1810 0.930 . S
C1803 C1802 1.394 . S
C1803 C1804 1.383 . S
C1803 H1811 0.929 . S
C1804 C1803 1.383 . S
C1804 C1805 1.377 . S
C1805 H1789 0.930 . S
C1805 C1804 1.377 . S
C1805 C1806 1.379 . S
C1806 H1790 0.931 . S
C1806 C1800 1.383 . S
C1806 C1805 1.379 . S
H1807 C1801 0.959 . S
H1808 C1801 0.961 . S
H1809 C1801 0.960 . S
H1810 C1802 0.930 . S
H1811 C1803 0.929 . S
H1812 C1820 0.929 . S
H1813 C1822 0.930 . S
H1814 C1824 0.930 . S
H1815 C1827 0.929 . S
H1816 C1830 0.930 . S
H1817 C1832 0.960 . S
H1818 C1832 0.960 . S
H1819 C1832 0.960 . S
C1820 H1812 0.929 . S
C1820 C1821 1.377 . S
C1820 C1822 1.384 . S
C1821 C1820 1.377 . S
C1821 C1827 1.390 . S
C1822 H1813 0.930 . S
C1822 C1820 1.384 . S
C1822 C1823 1.372 . S
C1823 C1822 1.372 . S
C1823 C1824 1.400 . S
C1823 C1828 1.490 . S
C1824 H1814 0.930 . S
C1824 C1823 1.400 . S
C1824 C1827 1.386 . S
H1825 C1841 0.930 . S
H1826 C1842 0.931 . S
C1827 H1815 0.929 . S
C1827 C1821 1.390 . S
C1827 C1824 1.386 . S
C1828 C1823 1.490 . S
C1828 C1830 1.395 . S
C1828 C1831 1.403 . S
H1829 C1835 0.930 . S
C1830 H1816 0.930 . S
C1830 C1828 1.395 . S
C1830 C1833 1.403 . S
C1831 C1828 1.403 . S
C1831 C1832 1.524 . S
C1831 C1835 1.400 . S
C1832 H1817 0.960 . S
C1832 H1818 0.960 . S
C1832 H1819 0.960 . S
C1832 C1831 1.524 . S
C1833 C1830 1.403 . S
C1833 C1834 1.392 . S
C1833 C1837 1.495 . S
C1834 C1833 1.392 . S
C1834 C1835 1.385 . S
C1834 C1836 1.478 . S
C1835 H1829 0.930 . S
C1835 C1831 1.400 . S
C1835 C1834 1.385 . S
C1836 C1834 1.478 . S
C1836 C1838 1.381 . S
C1836 C1842 1.383 . S
C1837 C1833 1.495 . S
C1837 H1843 0.959 . S
C1837 H1844 0.961 . S
C1837 H1845 0.960 . S
C1838 C1836 1.381 . S
C1838 C1839 1.394 . S
C1838 H1846 0.930 . S
C1839 C1838 1.394 . S
C1839 C1840 1.383 . S
C1839 H1847 0.929 . S
C1840 C1839 1.383 . S
C1840 C1841 1.377 . S
C1841 H1825 0.930 . S
C1841 C1840 1.377 . S
C1841 C1842 1.379 . S
C1842 H1826 0.931 . S
C1842 C1836 1.383 . S
C1842 C1841 1.379 . S
H1843 C1837 0.959 . S
H1844 C1837 0.961 . S
H1845 C1837 0.960 . S
H1846 C1838 0.930 . S
H1847 C1839 0.929 . S
H1848 C1856 0.929 . S
H1849 C1858 0.930 . S
H1850 C1860 0.930 . S
H1851 C1863 0.929 . S
H1852 C1866 0.930 . S
H1853 C1868 0.960 . S
H1854 C1868 0.960 . S
H1855 C1868 0.960 . S
C1856 H1848 0.929 . S
C1856 C1857 1.377 . S
C1856 C1858 1.384 . S
C1857 C1856 1.377 . S
C1857 C1863 1.390 . S
C1858 H1849 0.930 . S
C1858 C1856 1.384 . S
C1858 C1859 1.372 . S
C1859 C1858 1.372 . S
C1859 C1860 1.400 . S
C1859 C1864 1.490 . S
C1860 H1850 0.930 . S
C1860 C1859 1.400 . S
C1860 C1863 1.386 . S
H1861 C1877 0.930 . S
H1862 C1878 0.931 . S
C1863 H1851 0.929 . S
C1863 C1857 1.390 . S
C1863 C1860 1.386 . S
C1864 C1859 1.490 . S
C1864 C1866 1.395 . S
C1864 C1867 1.403 . S
H1865 C1871 0.930 . S
C1866 H1852 0.930 . S
C1866 C1864 1.395 . S
C1866 C1869 1.403 . S
C1867 C1864 1.403 . S
C1867 C1868 1.524 . S
C1867 C1871 1.400 . S
C1868 H1853 0.960 . S
C1868 H1854 0.960 . S
C1868 H1855 0.960 . S
C1868 C1867 1.524 . S
C1869 C1866 1.403 . S
C1869 C1870 1.392 . S
C1869 C1873 1.495 . S
C1870 C1869 1.392 . S
C1870 C1871 1.385 . S
C1870 C1872 1.478 . S
C1871 H1865 0.930 . S
C1871 C1867 1.400 . S
C1871 C1870 1.385 . S
C1872 C1870 1.478 . S
C1872 C1874 1.381 . S
C1872 C1878 1.383 . S
C1873 C1869 1.495 . S
C1873 H1879 0.959 . S
C1873 H1880 0.961 . S
C1873 H1881 0.960 . S
C1874 C1872 1.381 . S
C1874 C1875 1.394 . S
C1874 H1882 0.930 . S
C1875 C1874 1.394 . S
C1875 C1876 1.383 . S
C1875 H1883 0.929 . S
C1876 C1875 1.383 . S
C1876 C1877 1.377 . S
C1877 H1861 0.930 . S
C1877 C1876 1.377 . S
C1877 C1878 1.379 . S
C1878 H1862 0.931 . S
C1878 C1872 1.383 . S
C1878 C1877 1.379 . S
H1879 C1873 0.959 . S
H1880 C1873 0.961 . S
H1881 C1873 0.960 . S
H1882 C1874 0.930 . S
H1883 C1875 0.929 . S
H1884 C1892 0.929 . S
H1885 C1894 0.930 . S
H1886 C1896 0.930 . S
H1887 C1899 0.929 . S
H1888 C1902 0.930 . S
H1889 C1904 0.960 . S
H1890 C1904 0.960 . S
H1891 C1904 0.960 . S
C1892 H1884 0.929 . S
C1892 C1893 1.377 1_554 S
C1892 C1894 1.384 . S
C1893 C1892 1.377 1_556 S
C1893 C1899 1.390 . S
C1894 H1885 0.930 . S
C1894 C1892 1.384 . S
C1894 C1895 1.372 . S
C1895 C1894 1.372 . S
C1895 C1896 1.400 . S
C1895 C1900 1.490 . S
C1896 H1886 0.930 . S
C1896 C1895 1.400 . S
C1896 C1899 1.386 1_554 S
H1897 C1913 0.930 . S
H1898 C1914 0.931 . S
C1899 H1887 0.929 . S
C1899 C1893 1.390 . S
C1899 C1896 1.386 1_556 S
C1900 C1895 1.490 . S
C1900 C1902 1.395 . S
C1900 C1903 1.403 . S
H1901 C1907 0.930 . S
C1902 H1888 0.930 . S
C1902 C1900 1.395 . S
C1902 C1905 1.403 . S
C1903 C1900 1.403 . S
C1903 C1904 1.524 . S
C1903 C1907 1.400 . S
C1904 H1889 0.960 . S
C1904 H1890 0.960 . S
C1904 H1891 0.960 . S
C1904 C1903 1.524 . S
C1905 C1902 1.403 . S
C1905 C1906 1.392 . S
C1905 C1909 1.495 . S
C1906 C1905 1.392 . S
C1906 C1907 1.385 . S
C1906 C1908 1.478 . S
C1907 H1901 0.930 . S
C1907 C1903 1.400 . S
C1907 C1906 1.385 . S
C1908 C1906 1.478 . S
C1908 C1910 1.381 . S
C1908 C1914 1.383 . S
C1909 C1905 1.495 . S
C1909 H1915 0.959 . S
C1909 H1916 0.961 . S
C1909 H1917 0.960 . S
C1910 C1908 1.381 . S
C1910 C1911 1.394 . S
C1910 H1918 0.930 . S
C1911 C1910 1.394 . S
C1911 C1912 1.383 . S
C1911 H1919 0.929 . S
C1912 C1911 1.383 . S
C1912 C1913 1.377 . S
C1913 H1897 0.930 . S
C1913 C1912 1.377 . S
C1913 C1914 1.379 . S
C1914 H1898 0.931 . S
C1914 C1908 1.383 . S
C1914 C1913 1.379 . S
H1915 C1909 0.959 . S
H1916 C1909 0.961 . S
H1917 C1909 0.960 . S
H1918 C1910 0.930 . S
H1919 C1911 0.929 . S
H1920 C1928 0.929 . S
H1921 C1930 0.930 . S
H1922 C1932 0.930 . S
H1923 C1935 0.929 . S
H1924 C1938 0.930 . S
H1925 C1940 0.960 . S
H1926 C1940 0.960 . S
H1927 C1940 0.960 . S
C1928 H1920 0.929 . S
C1928 C1929 1.377 1_554 S
C1928 C1930 1.384 . S
C1929 C1928 1.377 1_556 S
C1929 C1935 1.390 . S
C1930 H1921 0.930 . S
C1930 C1928 1.384 . S
C1930 C1931 1.372 . S
C1931 C1930 1.372 . S
C1931 C1932 1.400 . S
C1931 C1936 1.490 . S
C1932 H1922 0.930 . S
C1932 C1931 1.400 . S
C1932 C1935 1.386 1_554 S
H1933 C1949 0.930 . S
H1934 C1950 0.931 . S
C1935 H1923 0.929 . S
C1935 C1929 1.390 . S
C1935 C1932 1.386 1_556 S
C1936 C1931 1.490 . S
C1936 C1938 1.395 . S
C1936 C1939 1.403 . S
H1937 C1943 0.930 . S
C1938 H1924 0.930 . S
C1938 C1936 1.395 . S
C1938 C1941 1.403 . S
C1939 C1936 1.403 . S
C1939 C1940 1.524 . S
C1939 C1943 1.400 . S
C1940 H1925 0.960 . S
C1940 H1926 0.960 . S
C1940 H1927 0.960 . S
C1940 C1939 1.524 . S
C1941 C1938 1.403 . S
C1941 C1942 1.392 . S
C1941 C1945 1.495 . S
C1942 C1941 1.392 . S
C1942 C1943 1.385 . S
C1942 C1944 1.478 . S
C1943 H1937 0.930 . S
C1943 C1939 1.400 . S
C1943 C1942 1.385 . S
C1944 C1942 1.478 . S
C1944 C1946 1.381 . S
C1944 C1950 1.383 . S
C1945 C1941 1.495 . S
C1945 H1951 0.959 . S
C1945 H1952 0.961 . S
C1945 H1953 0.960 . S
C1946 C1944 1.381 . S
C1946 C1947 1.394 . S
C1946 H1954 0.930 . S
C1947 C1946 1.394 . S
C1947 C1948 1.383 . S
C1947 H1955 0.929 . S
C1948 C1947 1.383 . S
C1948 C1949 1.377 . S
C1949 H1933 0.930 . S
C1949 C1948 1.377 . S
C1949 C1950 1.379 . S
C1950 H1934 0.931 . S
C1950 C1944 1.383 . S
C1950 C1949 1.379 . S
H1951 C1945 0.959 . S
H1952 C1945 0.961 . S
H1953 C1945 0.960 . S
H1954 C1946 0.930 . S
H1955 C1947 0.929 . S
H1956 C1964 0.929 . S
H1957 C1966 0.930 . S
H1958 C1968 0.930 . S
H1959 C1971 0.929 . S
H1960 C1974 0.930 . S
H1961 C1976 0.960 . S
H1962 C1976 0.960 . S
H1963 C1976 0.960 . S
C1964 H1956 0.929 . S
C1964 C1965 1.377 . S
C1964 C1966 1.384 1_556 S
C1965 C1964 1.377 . S
C1965 C1971 1.390 1_556 S
C1966 H1957 0.930 . S
C1966 C1964 1.384 1_554 S
C1966 C1967 1.372 . S
C1967 C1966 1.372 . S
C1967 C1968 1.400 . S
C1967 C1972 1.490 . S
C1968 H1958 0.930 . S
C1968 C1967 1.400 . S
C1968 C1971 1.386 . S
H1969 C1985 0.930 . S
H1970 C1986 0.931 . S
C1971 H1959 0.929 . S
C1971 C1965 1.390 1_554 S
C1971 C1968 1.386 . S
C1972 C1967 1.490 . S
C1972 C1974 1.395 . S
C1972 C1975 1.403 . S
H1973 C1979 0.930 . S
C1974 H1960 0.930 . S
C1974 C1972 1.395 . S
C1974 C1977 1.403 . S
C1975 C1972 1.403 . S
C1975 C1976 1.524 . S
C1975 C1979 1.400 . S
C1976 H1961 0.960 . S
C1976 H1962 0.960 . S
C1976 H1963 0.960 . S
C1976 C1975 1.524 . S
C1977 C1974 1.403 . S
C1977 C1978 1.392 . S
C1977 C1981 1.495 . S
C1978 C1977 1.392 . S
C1978 C1979 1.385 . S
C1978 C1980 1.478 . S
C1979 H1973 0.930 . S
C1979 C1975 1.400 . S
C1979 C1978 1.385 . S
C1980 C1978 1.478 . S
C1980 C1982 1.381 . S
C1980 C1986 1.383 . S
C1981 C1977 1.495 . S
C1981 H1987 0.959 . S
C1981 H1988 0.961 . S
C1981 H1989 0.960 . S
C1982 C1980 1.381 . S
C1982 C1983 1.394 . S
C1982 H1990 0.930 . S
C1983 C1982 1.394 . S
C1983 C1984 1.383 . S
C1983 H1991 0.929 . S
C1984 C1983 1.383 . S
C1984 C1985 1.377 . S
C1985 H1969 0.930 . S
C1985 C1984 1.377 . S
C1985 C1986 1.379 . S
C1986 H1970 0.931 . S
C1986 C1980 1.383 . S
C1986 C1985 1.379 . S
H1987 C1981 0.959 . S
H1988 C1981 0.961 . S
H1989 C1981 0.960 . S
H1990 C1982 0.930 . S
H1991 C1983 0.929 . S
H1992 C2000 0.929 . S
H1993 C2002 0.930 . S
H1994 C2004 0.930 . S
H1995 C2007 0.929 . S
H1996 C2010 0.930 . S
H1997 C2012 0.960 . S
H1998 C2012 0.960 . S
H1999 C2012 0.960 . S
C2000 H1992 0.929 . S
C2000 C2001 1.377 . S
C2000 C2002 1.384 . S
C2001 C2000 1.377 . S
C2001 C2007 1.390 . S
C2002 H1993 0.930 . S
C2002 C2000 1.384 . S
C2002 C2003 1.372 . S
C2003 C2002 1.372 . S
C2003 C2004 1.400 . S
C2003 C2008 1.490 . S
C2004 H1994 0.930 . S
C2004 C2003 1.400 . S
C2004 C2007 1.386 . S
H2005 C2021 0.930 . S
H2006 C2022 0.931 . S
C2007 H1995 0.929 . S
C2007 C2001 1.390 . S
C2007 C2004 1.386 . S
C2008 C2003 1.490 . S
C2008 C2010 1.395 . S
C2008 C2011 1.403 . S
H2009 C2015 0.930 . S
C2010 H1996 0.930 . S
C2010 C2008 1.395 . S
C2010 C2013 1.403 . S
C2011 C2008 1.403 . S
C2011 C2012 1.524 . S
C2011 C2015 1.400 . S
C2012 H1997 0.960 . S
C2012 H1998 0.960 . S
C2012 H1999 0.960 . S
C2012 C2011 1.524 . S
C2013 C2010 1.403 . S
C2013 C2014 1.392 . S
C2013 C2017 1.495 . S
C2014 C2013 1.392 . S
C2014 C2015 1.385 . S
C2014 C2016 1.478 . S
C2015 H2009 0.930 . S
C2015 C2011 1.400 . S
C2015 C2014 1.385 . S
C2016 C2014 1.478 . S
C2016 C2018 1.381 . S
C2016 C2022 1.383 . S
C2017 C2013 1.495 . S
C2017 H2023 0.959 . S
C2017 H2024 0.961 . S
C2017 H2025 0.960 . S
C2018 C2016 1.381 . S
C2018 C2019 1.394 . S
C2018 H2026 0.930 . S
C2019 C2018 1.394 . S
C2019 C2020 1.383 . S
C2019 H2027 0.929 . S
C2020 C2019 1.383 . S
C2020 C2021 1.377 . S
C2021 H2005 0.930 . S
C2021 C2020 1.377 . S
C2021 C2022 1.379 . S
C2022 H2006 0.931 . S
C2022 C2016 1.383 . S
C2022 C2021 1.379 . S
H2023 C2017 0.959 . S
H2024 C2017 0.961 . S
H2025 C2017 0.960 . S
H2026 C2018 0.930 . S
H2027 C2019 0.929 . S
H2028 C2036 0.929 . S
H2029 C2038 0.930 . S
H2030 C2040 0.930 . S
H2031 C2043 0.929 . S
H2032 C2046 0.930 . S
H2033 C2048 0.960 . S
H2034 C2048 0.960 . S
H2035 C2048 0.960 . S
C2036 H2028 0.929 . S
C2036 C2037 1.377 . S
C2036 C2038 1.384 . S
C2037 C2036 1.377 . S
C2037 C2043 1.390 . S
C2038 H2029 0.930 . S
C2038 C2036 1.384 . S
C2038 C2039 1.372 . S
C2039 C2038 1.372 . S
C2039 C2040 1.400 . S
C2039 C2044 1.490 . S
C2040 H2030 0.930 . S
C2040 C2039 1.400 . S
C2040 C2043 1.386 . S
H2041 C2057 0.930 . S
H2042 C2058 0.931 . S
C2043 H2031 0.929 . S
C2043 C2037 1.390 . S
C2043 C2040 1.386 . S
C2044 C2039 1.490 . S
C2044 C2046 1.395 . S
C2044 C2047 1.403 . S
H2045 C2051 0.930 . S
C2046 H2032 0.930 . S
C2046 C2044 1.395 . S
C2046 C2049 1.403 . S
C2047 C2044 1.403 . S
C2047 C2048 1.524 . S
C2047 C2051 1.400 . S
C2048 H2033 0.960 . S
C2048 H2034 0.960 . S
C2048 H2035 0.960 . S
C2048 C2047 1.524 . S
C2049 C2046 1.403 . S
C2049 C2050 1.392 . S
C2049 C2053 1.495 . S
C2050 C2049 1.392 . S
C2050 C2051 1.385 . S
C2050 C2052 1.478 . S
C2051 H2045 0.930 . S
C2051 C2047 1.400 . S
C2051 C2050 1.385 . S
C2052 C2050 1.478 . S
C2052 C2054 1.381 . S
C2052 C2058 1.383 . S
C2053 C2049 1.495 . S
C2053 H2059 0.959 . S
C2053 H2060 0.961 . S
C2053 H2061 0.960 . S
C2054 C2052 1.381 . S
C2054 C2055 1.394 . S
C2054 H2062 0.930 . S
C2055 C2054 1.394 . S
C2055 C2056 1.383 . S
C2055 H2063 0.929 . S
C2056 C2055 1.383 . S
C2056 C2057 1.377 . S
C2057 H2041 0.930 . S
C2057 C2056 1.377 . S
C2057 C2058 1.379 . S
C2058 H2042 0.931 . S
C2058 C2052 1.383 . S
C2058 C2057 1.379 . S
H2059 C2053 0.959 . S
H2060 C2053 0.961 . S
H2061 C2053 0.960 . S
H2062 C2054 0.930 . S
H2063 C2055 0.929 . S
H2064 C2072 0.929 . S
H2065 C2074 0.930 . S
H2066 C2076 0.930 . S
H2067 C2079 0.929 . S
H2068 C2082 0.930 . S
H2069 C2084 0.960 . S
H2070 C2084 0.960 . S
H2071 C2084 0.960 . S
C2072 H2064 0.929 . S
C2072 C2073 1.377 . S
C2072 C2074 1.384 . S
C2073 C2072 1.377 . S
C2073 C2079 1.390 . S
C2074 H2065 0.930 . S
C2074 C2072 1.384 . S
C2074 C2075 1.372 . S
C2075 C2074 1.372 . S
C2075 C2076 1.400 . S
C2075 C2080 1.490 . S
C2076 H2066 0.930 . S
C2076 C2075 1.400 . S
C2076 C2079 1.386 . S
H2077 C2093 0.930 . S
H2078 C2094 0.931 . S
C2079 H2067 0.929 . S
C2079 C2073 1.390 . S
C2079 C2076 1.386 . S
C2080 C2075 1.490 . S
C2080 C2082 1.395 . S
C2080 C2083 1.403 . S
H2081 C2087 0.930 . S
C2082 H2068 0.930 . S
C2082 C2080 1.395 . S
C2082 C2085 1.403 . S
C2083 C2080 1.403 . S
C2083 C2084 1.524 . S
C2083 C2087 1.400 . S
C2084 H2069 0.960 . S
C2084 H2070 0.960 . S
C2084 H2071 0.960 . S
C2084 C2083 1.524 . S
C2085 C2082 1.403 . S
C2085 C2086 1.392 . S
C2085 C2089 1.495 . S
C2086 C2085 1.392 . S
C2086 C2087 1.385 . S
C2086 C2088 1.478 . S
C2087 H2081 0.930 . S
C2087 C2083 1.400 . S
C2087 C2086 1.385 . S
C2088 C2086 1.478 . S
C2088 C2090 1.381 . S
C2088 C2094 1.383 . S
C2089 C2085 1.495 . S
C2089 H2095 0.959 . S
C2089 H2096 0.961 . S
C2089 H2097 0.960 . S
C2090 C2088 1.381 . S
C2090 C2091 1.394 . S
C2090 H2098 0.930 . S
C2091 C2090 1.394 . S
C2091 C2092 1.383 . S
C2091 H2099 0.929 . S
C2092 C2091 1.383 . S
C2092 C2093 1.377 . S
C2093 H2077 0.930 . S
C2093 C2092 1.377 . S
C2093 C2094 1.379 . S
C2094 H2078 0.931 . S
C2094 C2088 1.383 . S
C2094 C2093 1.379 . S
H2095 C2089 0.959 . S
H2096 C2089 0.961 . S
H2097 C2089 0.960 . S
H2098 C2090 0.930 . S
H2099 C2091 0.929 . S
C381 C24 1.011 . S
C400 C42 0.953 . S
C417 C73 0.924 . S
C436 C55 1.006 . S
C453 C86 1.015 . S
C472 C11 0.950 . S
C489 C166 0.933 . S
C508 C117 1.018 . S
C525 C104 0.944 . S
C544 C148 1.023 . S
C561 C179 1.014 . S
C580 C135 0.922 . S
C597 C186 1.014 . S
C616 C235 0.906 . S
C633 C266 0.944 . S
C652 C217 1.004 . S
C669 C248 1.015 . S
C688 C204 0.887 . S
C705 C279 1.010 . S
C724 C359 0.998 . S
C741 C297 0.950 . S
C760 C310 0.999 . S
C777 C328 0.944 . S
C796 C341 1.006 . S
C813 C210 1.125 . S
C832 C0 1.077 . S
C849 C31 1.143 . S
C868 C241 1.190 . S
C885 C62 1.127 . S
C904 C272 1.072 . S
C921 C93 1.133 . S
C940 C303 1.075 . S
C957 C124 1.146 . S
C976 C334 1.142 . S
C993 C365 1.143 . S
C1012 C155 1.190 . S
C1029 C1 0.899 1_556 S
C1048 C281 0.931 . S
C1065 C32 0.899 1_556 S
C1084 C312 0.931 . S
C1101 C343 0.892 . S
C1120 C63 0.872 1_556 S
C1137 C188 0.895 . S
C1156 C94 0.873 . S
C1173 C219 0.888 . S
C1192 C125 0.877 . S
C1209 C250 0.898 . S
C1228 C156 0.879 . S
C1245 C103 0.889 . S
C1264 C213 0.901 1_554 S
C1281 C244 0.904 1_554 S
C1300 C134 0.904 . S
C1317 C275 0.905 1_554 S
C1336 C165 0.928 . S
C1353 C10 0.884 . S
C1372 C306 0.873 . S
C1389 C337 0.895 . S
C1408 C41 0.850 . S
C1425 C72 0.890 . S
C1444 C368 0.905 . S
C1461 C111 2.116 . S
C1480 C18 2.122 . S
C1497 C142 2.115 . S
C1516 C49 2.121 . S
C1533 C173 2.122 . S
C1552 C80 2.091 . S
C1569 C197 2.117 . S
C1588 C290 2.134 . S
C1605 C228 2.122 . S
C1624 C321 2.119 . S
C1641 C352 2.114 . S
C1660 C259 2.093 . S
C1677 C311 1.425 . S
C1696 C2 1.556 . S
C1713 C33 1.557 . S
C1732 C342 1.422 . S
C1749 C64 1.562 . S
C1768 C280 1.473 . S
C1785 C95 1.558 . S
C1804 C249 1.403 . S
C1821 C187 1.426 . S
C1840 C126 1.548 . S
C1857 C218 1.426 . S
C1876 C157 1.547 . S
C1893 C196 1.565 . S
C1912 C151 1.448 . S
C1929 C227 1.564 . S
C1948 C182 1.434 . S
C1965 C258 1.557 . S
C1984 C120 1.400 . S
C2001 C89 1.442 . S
C2020 C289 1.579 . S
C2037 C27 1.433 . S
C2056 C320 1.545 . S
C2073 C58 1.435 . S
C2092 C351 1.549 . S
