# Generated by pormake.
# Topology ana-e, (6)-cn, num edge types: 1
# Building blocks:
#     Node 0, Type 0, BuildingBlock: UKALOJ_clean_sbu_0, # of connection points: 6
#     Node 1, Type 0, BuildingBlock: UKALOJ_clean_sbu_0, # of connection points: 6
#     Node 2, Type 0, BuildingBlock: UKALOJ_clean_sbu_0, # of connection points: 6
#     Node 3, Type 0, BuildingBlock: UKALOJ_clean_sbu_0, # of connection points: 6
#     Node 4, Type 0, BuildingBlock: UKALOJ_clean_sbu_0, # of connection points: 6
#     Node 5, Type 0, BuildingBlock: UKALOJ_clean_sbu_0, # of connection points: 6
#     Node 6, Type 0, BuildingBlock: UKALOJ_clean_sbu_0, # of connection points: 6
#     Node 7, Type 0, BuildingBlock: UKALOJ_clean_sbu_0, # of connection points: 6
#     Node 8, Type 0, BuildingBlock: UKALOJ_clean_sbu_0, # of connection points: 6
#     Node 9, Type 0, BuildingBlock: UKALOJ_clean_sbu_0, # of connection points: 6
#     Node 10, Type 0, BuildingBlock: UKALOJ_clean_sbu_0, # of connection points: 6
#     Node 11, Type 0, BuildingBlock: UKALOJ_clean_sbu_0, # of connection points: 6
#     Node 12, Type 0, BuildingBlock: UKALOJ_clean_sbu_0, # of connection points: 6
#     Node 13, Type 0, BuildingBlock: UKALOJ_clean_sbu_0, # of connection points: 6
#     Node 14, Type 0, BuildingBlock: UKALOJ_clean_sbu_0, # of connection points: 6
#     Node 15, Type 0, BuildingBlock: UKALOJ_clean_sbu_0, # of connection points: 6
#     Node 16, Type 0, BuildingBlock: UKALOJ_clean_sbu_0, # of connection points: 6
#     Node 17, Type 0, BuildingBlock: UKALOJ_clean_sbu_0, # of connection points: 6
#     Node 18, Type 0, BuildingBlock: UKALOJ_clean_sbu_0, # of connection points: 6
#     Node 19, Type 0, BuildingBlock: UKALOJ_clean_sbu_0, # of connection points: 6
#     Node 20, Type 0, BuildingBlock: UKALOJ_clean_sbu_0, # of connection points: 6
#     Node 21, Type 0, BuildingBlock: UKALOJ_clean_sbu_0, # of connection points: 6
#     Node 22, Type 0, BuildingBlock: UKALOJ_clean_sbu_0, # of connection points: 6
#     Node 23, Type 0, BuildingBlock: UKALOJ_clean_sbu_0, # of connection points: 6
#     Node 24, Type 0, BuildingBlock: UKALOJ_clean_sbu_0, # of connection points: 6
#     Node 25, Type 0, BuildingBlock: UKALOJ_clean_sbu_0, # of connection points: 6
#     Node 26, Type 0, BuildingBlock: UKALOJ_clean_sbu_0, # of connection points: 6
#     Node 27, Type 0, BuildingBlock: UKALOJ_clean_sbu_0, # of connection points: 6
#     Node 28, Type 0, BuildingBlock: UKALOJ_clean_sbu_0, # of connection points: 6
#     Node 29, Type 0, BuildingBlock: UKALOJ_clean_sbu_0, # of connection points: 6
#     Node 30, Type 0, BuildingBlock: UKALOJ_clean_sbu_0, # of connection points: 6
#     Node 31, Type 0, BuildingBlock: UKALOJ_clean_sbu_0, # of connection points: 6
#     Node 32, Type 0, BuildingBlock: UKALOJ_clean_sbu_0, # of connection points: 6
#     Node 33, Type 0, BuildingBlock: UKALOJ_clean_sbu_0, # of connection points: 6
#     Node 34, Type 0, BuildingBlock: UKALOJ_clean_sbu_0, # of connection points: 6
#     Node 35, Type 0, BuildingBlock: UKALOJ_clean_sbu_0, # of connection points: 6
#     Node 36, Type 0, BuildingBlock: UKALOJ_clean_sbu_0, # of connection points: 6
#     Node 37, Type 0, BuildingBlock: UKALOJ_clean_sbu_0, # of connection points: 6
#     Node 38, Type 0, BuildingBlock: UKALOJ_clean_sbu_0, # of connection points: 6
#     Node 39, Type 0, BuildingBlock: UKALOJ_clean_sbu_0, # of connection points: 6
#     Node 40, Type 0, BuildingBlock: UKALOJ_clean_sbu_0, # of connection points: 6
#     Node 41, Type 0, BuildingBlock: UKALOJ_clean_sbu_0, # of connection points: 6
#     Node 42, Type 0, BuildingBlock: UKALOJ_clean_sbu_0, # of connection points: 6
#     Node 43, Type 0, BuildingBlock: UKALOJ_clean_sbu_0, # of connection points: 6
#     Node 44, Type 0, BuildingBlock: UKALOJ_clean_sbu_0, # of connection points: 6
#     Node 45, Type 0, BuildingBlock: UKALOJ_clean_sbu_0, # of connection points: 6
#     Node 46, Type 0, BuildingBlock: UKALOJ_clean_sbu_0, # of connection points: 6
#     Node 47, Type 0, BuildingBlock: UKALOJ_clean_sbu_0, # of connection points: 6
#     Node 48, Type 0, BuildingBlock: UKALOJ_clean_sbu_0, # of connection points: 6
#     Node 49, Type 0, BuildingBlock: UKALOJ_clean_sbu_0, # of connection points: 6
#     Node 50, Type 0, BuildingBlock: UKALOJ_clean_sbu_0, # of connection points: 6
#     Node 51, Type 0, BuildingBlock: UKALOJ_clean_sbu_0, # of connection points: 6
#     Node 52, Type 0, BuildingBlock: UKALOJ_clean_sbu_0, # of connection points: 6
#     Node 53, Type 0, BuildingBlock: UKALOJ_clean_sbu_0, # of connection points: 6
#     Node 54, Type 0, BuildingBlock: UKALOJ_clean_sbu_0, # of connection points: 6
#     Node 55, Type 0, BuildingBlock: UKALOJ_clean_sbu_0, # of connection points: 6
#     Node 56, Type 0, BuildingBlock: UKALOJ_clean_sbu_0, # of connection points: 6
#     Node 57, Type 0, BuildingBlock: UKALOJ_clean_sbu_0, # of connection points: 6
#     Node 58, Type 0, BuildingBlock: UKALOJ_clean_sbu_0, # of connection points: 6
#     Node 59, Type 0, BuildingBlock: UKALOJ_clean_sbu_0, # of connection points: 6
#     Node 60, Type 0, BuildingBlock: UKALOJ_clean_sbu_0, # of connection points: 6
#     Node 61, Type 0, BuildingBlock: UKALOJ_clean_sbu_0, # of connection points: 6
#     Node 62, Type 0, BuildingBlock: UKALOJ_clean_sbu_0, # of connection points: 6
#     Node 63, Type 0, BuildingBlock: UKALOJ_clean_sbu_0, # of connection points: 6
#     Node 64, Type 0, BuildingBlock: UKALOJ_clean_sbu_0, # of connection points: 6
#     Node 65, Type 0, BuildingBlock: UKALOJ_clean_sbu_0, # of connection points: 6
#     Node 66, Type 0, BuildingBlock: UKALOJ_clean_sbu_0, # of connection points: 6
#     Node 67, Type 0, BuildingBlock: UKALOJ_clean_sbu_0, # of connection points: 6
#     Node 68, Type 0, BuildingBlock: UKALOJ_clean_sbu_0, # of connection points: 6
#     Node 69, Type 0, BuildingBlock: UKALOJ_clean_sbu_0, # of connection points: 6
#     Node 70, Type 0, BuildingBlock: UKALOJ_clean_sbu_0, # of connection points: 6
#     Node 71, Type 0, BuildingBlock: UKALOJ_clean_sbu_0, # of connection points: 6
#     Node 72, Type 0, BuildingBlock: UKALOJ_clean_sbu_0, # of connection points: 6
#     Node 73, Type 0, BuildingBlock: UKALOJ_clean_sbu_0, # of connection points: 6
#     Node 74, Type 0, BuildingBlock: UKALOJ_clean_sbu_0, # of connection points: 6
#     Node 75, Type 0, BuildingBlock: UKALOJ_clean_sbu_0, # of connection points: 6
#     Node 76, Type 0, BuildingBlock: UKALOJ_clean_sbu_0, # of connection points: 6
#     Node 77, Type 0, BuildingBlock: UKALOJ_clean_sbu_0, # of connection points: 6
#     Node 78, Type 0, BuildingBlock: UKALOJ_clean_sbu_0, # of connection points: 6
#     Node 79, Type 0, BuildingBlock: UKALOJ_clean_sbu_0, # of connection points: 6
#     Node 80, Type 0, BuildingBlock: UKALOJ_clean_sbu_0, # of connection points: 6
#     Node 81, Type 0, BuildingBlock: UKALOJ_clean_sbu_0, # of connection points: 6
#     Node 82, Type 0, BuildingBlock: UKALOJ_clean_sbu_0, # of connection points: 6
#     Node 83, Type 0, BuildingBlock: UKALOJ_clean_sbu_0, # of connection points: 6
#     Node 84, Type 0, BuildingBlock: UKALOJ_clean_sbu_0, # of connection points: 6
#     Node 85, Type 0, BuildingBlock: UKALOJ_clean_sbu_0, # of connection points: 6
#     Node 86, Type 0, BuildingBlock: UKALOJ_clean_sbu_0, # of connection points: 6
#     Node 87, Type 0, BuildingBlock: UKALOJ_clean_sbu_0, # of connection points: 6
#     Node 88, Type 0, BuildingBlock: UKALOJ_clean_sbu_0, # of connection points: 6
#     Node 89, Type 0, BuildingBlock: UKALOJ_clean_sbu_0, # of connection points: 6
#     Node 90, Type 0, BuildingBlock: UKALOJ_clean_sbu_0, # of connection points: 6
#     Node 91, Type 0, BuildingBlock: UKALOJ_clean_sbu_0, # of connection points: 6
#     Node 92, Type 0, BuildingBlock: UKALOJ_clean_sbu_0, # of connection points: 6
#     Node 93, Type 0, BuildingBlock: UKALOJ_clean_sbu_0, # of connection points: 6
#     Node 94, Type 0, BuildingBlock: UKALOJ_clean_sbu_0, # of connection points: 6
#     Node 95, Type 0, BuildingBlock: UKALOJ_clean_sbu_0, # of connection points: 6
#     Edge 96, Type (0, 0), None
#     Edge 97, Type (0, 0), None
#     Edge 98, Type (0, 0), None
#     Edge 99, Type (0, 0), None
#     Edge 100, Type (0, 0), None
#     Edge 101, Type (0, 0), None
#     Edge 102, Type (0, 0), None
#     Edge 103, Type (0, 0), None
#     Edge 104, Type (0, 0), None
#     Edge 105, Type (0, 0), None
#     Edge 106, Type (0, 0), None
#     Edge 107, Type (0, 0), None
#     Edge 108, Type (0, 0), None
#     Edge 109, Type (0, 0), None
#     Edge 110, Type (0, 0), None
#     Edge 111, Type (0, 0), None
#     Edge 112, Type (0, 0), None
#     Edge 113, Type (0, 0), None
#     Edge 114, Type (0, 0), None
#     Edge 115, Type (0, 0), None
#     Edge 116, Type (0, 0), None
#     Edge 117, Type (0, 0), None
#     Edge 118, Type (0, 0), None
#     Edge 119, Type (0, 0), None
#     Edge 120, Type (0, 0), None
#     Edge 121, Type (0, 0), None
#     Edge 122, Type (0, 0), None
#     Edge 123, Type (0, 0), None
#     Edge 124, Type (0, 0), None
#     Edge 125, Type (0, 0), None
#     Edge 126, Type (0, 0), None
#     Edge 127, Type (0, 0), None
#     Edge 128, Type (0, 0), None
#     Edge 129, Type (0, 0), None
#     Edge 130, Type (0, 0), None
#     Edge 131, Type (0, 0), None
#     Edge 132, Type (0, 0), None
#     Edge 133, Type (0, 0), None
#     Edge 134, Type (0, 0), None
#     Edge 135, Type (0, 0), None
#     Edge 136, Type (0, 0), None
#     Edge 137, Type (0, 0), None
#     Edge 138, Type (0, 0), None
#     Edge 139, Type (0, 0), None
#     Edge 140, Type (0, 0), None
#     Edge 141, Type (0, 0), None
#     Edge 142, Type (0, 0), None
#     Edge 143, Type (0, 0), None
#     Edge 144, Type (0, 0), None
#     Edge 145, Type (0, 0), None
#     Edge 146, Type (0, 0), None
#     Edge 147, Type (0, 0), None
#     Edge 148, Type (0, 0), None
#     Edge 149, Type (0, 0), None
#     Edge 150, Type (0, 0), None
#     Edge 151, Type (0, 0), None
#     Edge 152, Type (0, 0), None
#     Edge 153, Type (0, 0), None
#     Edge 154, Type (0, 0), None
#     Edge 155, Type (0, 0), None
#     Edge 156, Type (0, 0), None
#     Edge 157, Type (0, 0), None
#     Edge 158, Type (0, 0), None
#     Edge 159, Type (0, 0), None
#     Edge 160, Type (0, 0), None
#     Edge 161, Type (0, 0), None
#     Edge 162, Type (0, 0), None
#     Edge 163, Type (0, 0), None
#     Edge 164, Type (0, 0), None
#     Edge 165, Type (0, 0), None
#     Edge 166, Type (0, 0), None
#     Edge 167, Type (0, 0), None
#     Edge 168, Type (0, 0), None
#     Edge 169, Type (0, 0), None
#     Edge 170, Type (0, 0), None
#     Edge 171, Type (0, 0), None
#     Edge 172, Type (0, 0), None
#     Edge 173, Type (0, 0), None
#     Edge 174, Type (0, 0), None
#     Edge 175, Type (0, 0), None
#     Edge 176, Type (0, 0), None
#     Edge 177, Type (0, 0), None
#     Edge 178, Type (0, 0), None
#     Edge 179, Type (0, 0), None
#     Edge 180, Type (0, 0), None
#     Edge 181, Type (0, 0), None
#     Edge 182, Type (0, 0), None
#     Edge 183, Type (0, 0), None
#     Edge 184, Type (0, 0), None
#     Edge 185, Type (0, 0), None
#     Edge 186, Type (0, 0), None
#     Edge 187, Type (0, 0), None
#     Edge 188, Type (0, 0), None
#     Edge 189, Type (0, 0), None
#     Edge 190, Type (0, 0), None
#     Edge 191, Type (0, 0), None
#     Edge 192, Type (0, 0), None
#     Edge 193, Type (0, 0), None
#     Edge 194, Type (0, 0), None
#     Edge 195, Type (0, 0), None
#     Edge 196, Type (0, 0), None
#     Edge 197, Type (0, 0), None
#     Edge 198, Type (0, 0), None
#     Edge 199, Type (0, 0), None
#     Edge 200, Type (0, 0), None
#     Edge 201, Type (0, 0), None
#     Edge 202, Type (0, 0), None
#     Edge 203, Type (0, 0), None
#     Edge 204, Type (0, 0), None
#     Edge 205, Type (0, 0), None
#     Edge 206, Type (0, 0), None
#     Edge 207, Type (0, 0), None
#     Edge 208, Type (0, 0), None
#     Edge 209, Type (0, 0), None
#     Edge 210, Type (0, 0), None
#     Edge 211, Type (0, 0), None
#     Edge 212, Type (0, 0), None
#     Edge 213, Type (0, 0), None
#     Edge 214, Type (0, 0), None
#     Edge 215, Type (0, 0), None
#     Edge 216, Type (0, 0), None
#     Edge 217, Type (0, 0), None
#     Edge 218, Type (0, 0), None
#     Edge 219, Type (0, 0), None
#     Edge 220, Type (0, 0), None
#     Edge 221, Type (0, 0), None
#     Edge 222, Type (0, 0), None
#     Edge 223, Type (0, 0), None
#     Edge 224, Type (0, 0), None
#     Edge 225, Type (0, 0), None
#     Edge 226, Type (0, 0), None
#     Edge 227, Type (0, 0), None
#     Edge 228, Type (0, 0), None
#     Edge 229, Type (0, 0), None
#     Edge 230, Type (0, 0), None
#     Edge 231, Type (0, 0), None
#     Edge 232, Type (0, 0), None
#     Edge 233, Type (0, 0), None
#     Edge 234, Type (0, 0), None
#     Edge 235, Type (0, 0), None
#     Edge 236, Type (0, 0), None
#     Edge 237, Type (0, 0), None
#     Edge 238, Type (0, 0), None
#     Edge 239, Type (0, 0), None
#     Edge 240, Type (0, 0), None
#     Edge 241, Type (0, 0), None
#     Edge 242, Type (0, 0), None
#     Edge 243, Type (0, 0), None
#     Edge 244, Type (0, 0), None
#     Edge 245, Type (0, 0), None
#     Edge 246, Type (0, 0), None
#     Edge 247, Type (0, 0), None
#     Edge 248, Type (0, 0), None
#     Edge 249, Type (0, 0), None
#     Edge 250, Type (0, 0), None
#     Edge 251, Type (0, 0), None
#     Edge 252, Type (0, 0), None
#     Edge 253, Type (0, 0), None
#     Edge 254, Type (0, 0), None
#     Edge 255, Type (0, 0), None
#     Edge 256, Type (0, 0), None
#     Edge 257, Type (0, 0), None
#     Edge 258, Type (0, 0), None
#     Edge 259, Type (0, 0), None
#     Edge 260, Type (0, 0), None
#     Edge 261, Type (0, 0), None
#     Edge 262, Type (0, 0), None
#     Edge 263, Type (0, 0), None
#     Edge 264, Type (0, 0), None
#     Edge 265, Type (0, 0), None
#     Edge 266, Type (0, 0), None
#     Edge 267, Type (0, 0), None
#     Edge 268, Type (0, 0), None
#     Edge 269, Type (0, 0), None
#     Edge 270, Type (0, 0), None
#     Edge 271, Type (0, 0), None
#     Edge 272, Type (0, 0), None
#     Edge 273, Type (0, 0), None
#     Edge 274, Type (0, 0), None
#     Edge 275, Type (0, 0), None
#     Edge 276, Type (0, 0), None
#     Edge 277, Type (0, 0), None
#     Edge 278, Type (0, 0), None
#     Edge 279, Type (0, 0), None
#     Edge 280, Type (0, 0), None
#     Edge 281, Type (0, 0), None
#     Edge 282, Type (0, 0), None
#     Edge 283, Type (0, 0), None
#     Edge 284, Type (0, 0), None
#     Edge 285, Type (0, 0), None
#     Edge 286, Type (0, 0), None
#     Edge 287, Type (0, 0), None
#     Edge 288, Type (0, 0), None
#     Edge 289, Type (0, 0), None
#     Edge 290, Type (0, 0), None
#     Edge 291, Type (0, 0), None
#     Edge 292, Type (0, 0), None
#     Edge 293, Type (0, 0), None
#     Edge 294, Type (0, 0), None
#     Edge 295, Type (0, 0), None
#     Edge 296, Type (0, 0), None
#     Edge 297, Type (0, 0), None
#     Edge 298, Type (0, 0), None
#     Edge 299, Type (0, 0), None
#     Edge 300, Type (0, 0), None
#     Edge 301, Type (0, 0), None
#     Edge 302, Type (0, 0), None
#     Edge 303, Type (0, 0), None
#     Edge 304, Type (0, 0), None
#     Edge 305, Type (0, 0), None
#     Edge 306, Type (0, 0), None
#     Edge 307, Type (0, 0), None
#     Edge 308, Type (0, 0), None
#     Edge 309, Type (0, 0), None
#     Edge 310, Type (0, 0), None
#     Edge 311, Type (0, 0), None
#     Edge 312, Type (0, 0), None
#     Edge 313, Type (0, 0), None
#     Edge 314, Type (0, 0), None
#     Edge 315, Type (0, 0), None
#     Edge 316, Type (0, 0), None
#     Edge 317, Type (0, 0), None
#     Edge 318, Type (0, 0), None
#     Edge 319, Type (0, 0), None
#     Edge 320, Type (0, 0), None
#     Edge 321, Type (0, 0), None
#     Edge 322, Type (0, 0), None
#     Edge 323, Type (0, 0), None
#     Edge 324, Type (0, 0), None
#     Edge 325, Type (0, 0), None
#     Edge 326, Type (0, 0), None
#     Edge 327, Type (0, 0), None
#     Edge 328, Type (0, 0), None
#     Edge 329, Type (0, 0), None
#     Edge 330, Type (0, 0), None
#     Edge 331, Type (0, 0), None
#     Edge 332, Type (0, 0), None
#     Edge 333, Type (0, 0), None
#     Edge 334, Type (0, 0), None
#     Edge 335, Type (0, 0), None
#     Edge 336, Type (0, 0), None
#     Edge 337, Type (0, 0), None
#     Edge 338, Type (0, 0), None
#     Edge 339, Type (0, 0), None
#     Edge 340, Type (0, 0), None
#     Edge 341, Type (0, 0), None
#     Edge 342, Type (0, 0), None
#     Edge 343, Type (0, 0), None
#     Edge 344, Type (0, 0), None
#     Edge 345, Type (0, 0), None
#     Edge 346, Type (0, 0), None
#     Edge 347, Type (0, 0), None
#     Edge 348, Type (0, 0), None
#     Edge 349, Type (0, 0), None
#     Edge 350, Type (0, 0), None
#     Edge 351, Type (0, 0), None
#     Edge 352, Type (0, 0), None
#     Edge 353, Type (0, 0), None
#     Edge 354, Type (0, 0), None
#     Edge 355, Type (0, 0), None
#     Edge 356, Type (0, 0), None
#     Edge 357, Type (0, 0), None
#     Edge 358, Type (0, 0), None
#     Edge 359, Type (0, 0), None
#     Edge 360, Type (0, 0), None
#     Edge 361, Type (0, 0), None
#     Edge 362, Type (0, 0), None
#     Edge 363, Type (0, 0), None
#     Edge 364, Type (0, 0), None
#     Edge 365, Type (0, 0), None
#     Edge 366, Type (0, 0), None
#     Edge 367, Type (0, 0), None
#     Edge 368, Type (0, 0), None
#     Edge 369, Type (0, 0), None
#     Edge 370, Type (0, 0), None
#     Edge 371, Type (0, 0), None
#     Edge 372, Type (0, 0), None
#     Edge 373, Type (0, 0), None
#     Edge 374, Type (0, 0), None
#     Edge 375, Type (0, 0), None
#     Edge 376, Type (0, 0), None
#     Edge 377, Type (0, 0), None
#     Edge 378, Type (0, 0), None
#     Edge 379, Type (0, 0), None
#     Edge 380, Type (0, 0), None
#     Edge 381, Type (0, 0), None
#     Edge 382, Type (0, 0), None
#     Edge 383, Type (0, 0), None
# Relax obj value: 0.669
# Max RMSD: 0.294
# Mean RMSD: 0.294
data_MOF--net-ana-e--node1-UKALOJ_clean_sbu_0--edge1-none
_symmetry_space_group_name_H-M    P1
_symmetry_Int_Tables_number       1
_symmetry_cell_setting            triclinic
loop_
_symmetry_equiv_pos_as_xyz
'x, y, z'
_cell_length_a     42.238385
_cell_length_b     42.238371
_cell_length_c     42.238724
_cell_angle_alpha  89.999904
_cell_angle_beta   89.999931
_cell_angle_gamma 90.000481
loop_
_atom_site_label
_atom_site_type_symbol
_atom_site_fract_x
_atom_site_fract_y
_atom_site_fract_z
_atom_type_partial_charge
Zn0 Zn 0.03442 0.13386 0.33286 0.0
O1 O -0.01187 0.1545 0.33693 0.0
C2 C 0.00692 0.07238 0.35734 0.0
Zn3 Zn 0.03349 0.12834 0.38552 0.0
C4 C 0.974 0.15608 0.36354 0.0
O5 O 0.98725 0.14517 0.38812 0.0
C6 C 0.09579 0.10879 0.35718 0.0
O7 O 0.04932 0.17679 0.38509 0.0
O8 O 0.0542 0.17914 0.33305 0.0
N9 N 0.03391 0.12498 0.43394 0.0
C10 C 0.0558 0.13465 0.45485 0.0
C11 C 0.02522 0.1025 0.47906 0.0
N12 N 0.01465 0.10535 0.44907 0.0
N13 N 0.0506 0.12125 0.48352 0.0
C14 C 0.00844 0.13469 0.26272 0.0
C15 C 0.03979 0.10123 0.24153 0.0
N16 N 0.03202 0.12955 0.28374 0.0
N17 N 0.05154 0.10896 0.27021 0.0
N18 N 0.01283 0.1172 0.23631 0.0
H19 H -0.01106 0.1784 0.27941 0.0
H20 H 0.96843 0.16147 0.24565 0.0
H21 H 0.9641 0.14435 0.28436 0.0
C22 C 0.98085 0.15608 0.26816 0.0
C23 C 0.08702 0.14801 0.44471 0.0
H24 H 0.08581 0.15947 0.42152 0.0
H25 H 0.09612 0.16527 0.46207 0.0
H26 H 0.10402 0.12827 0.44262 0.0
O27 O 0.08086 0.11207 0.38305 0.0
O28 O 0.08179 0.11482 0.33124 0.0
C29 C 0.05708 0.19198 0.36019 0.0
O30 O 0.01315 0.08936 0.33348 0.0
O31 O 0.01655 0.08114 0.38435 0.0
Zn32 Zn 0.09239 0.78442 0.58286 0.0
O33 O 0.07174 0.73813 0.58693 0.0
C34 C 0.15387 0.75692 0.60734 0.0
Zn35 Zn 0.0979 0.78349 0.63552 0.0
C36 C 0.07016 0.724 0.61354 0.0
O37 O 0.08108 0.73725 0.63812 0.0
C38 C 0.11746 0.84579 0.60719 0.0
O39 O 0.04945 0.79932 0.63508 0.0
O40 O 0.04712 0.8042 0.58304 0.0
N41 N 0.10127 0.7839 0.68394 0.0
C42 C 0.09158 0.80579 0.70486 0.0
C43 C 0.12377 0.77524 0.72905 0.0
N44 N 0.12093 0.76467 0.69906 0.0
N45 N 0.10501 0.8006 0.73352 0.0
C46 C 0.09157 0.75844 0.51272 0.0
C47 C 0.12503 0.78979 0.49153 0.0
N48 N 0.09671 0.78202 0.53374 0.0
N49 N 0.1173 0.80154 0.52021 0.0
N50 N 0.10906 0.76283 0.48631 0.0
H51 H 0.04786 0.73894 0.52941 0.0
H52 H 0.06479 0.71842 0.49565 0.0
H53 H 0.08191 0.7141 0.53436 0.0
C54 C 0.07018 0.73084 0.51816 0.0
C55 C 0.07817 0.83699 0.69474 0.0
H56 H 0.06675 0.83578 0.67153 0.0
H57 H 0.06086 0.846 0.71209 0.0
H58 H 0.09788 0.85403 0.6927 0.0
O59 O 0.11417 0.83086 0.63305 0.0
O60 O 0.11144 0.83179 0.58125 0.0
C61 C 0.03426 0.80708 0.61018 0.0
O62 O 0.13688 0.76315 0.58348 0.0
O63 O 0.14511 0.76655 0.63435 0.0
Zn64 Zn 0.44183 0.84239 0.83286 0.0
O65 O 0.48812 0.82174 0.83693 0.0
C66 C 0.46932 0.90387 0.85734 0.0
Zn67 Zn 0.44276 0.8479 0.88552 0.0
C68 C 0.50225 0.82016 0.86354 0.0
O69 O 0.489 0.83108 0.88812 0.0
C70 C 0.38046 0.86746 0.85719 0.0
O71 O 0.42692 0.79946 0.88509 0.0
O72 O 0.42204 0.79711 0.83305 0.0
N73 N 0.44234 0.85127 0.93394 0.0
C74 C 0.42045 0.84159 0.95485 0.0
C75 C 0.45102 0.87374 0.97906 0.0
N76 N 0.4616 0.87089 0.94907 0.0
N77 N 0.42565 0.855 0.98352 0.0
C78 C 0.46779 0.84157 0.76272 0.0
C79 C 0.43643 0.87503 0.74153 0.0
N80 N 0.44421 0.8467 0.78375 0.0
N81 N 0.42469 0.8673 0.77022 0.0
N82 N 0.4634 0.85906 0.73631 0.0
H83 H 0.48729 0.79785 0.7794 0.0
H84 H 0.5078 0.81479 0.74564 0.0
H85 H 0.51212 0.8319 0.78435 0.0
C86 C 0.49538 0.82017 0.76816 0.0
C87 C 0.38922 0.82823 0.94472 0.0
H88 H 0.39044 0.81677 0.92152 0.0
H89 H 0.38013 0.81097 0.96207 0.0
H90 H 0.37223 0.84798 0.94263 0.0
O91 O 0.39539 0.86418 0.88305 0.0
O92 O 0.39445 0.86143 0.83125 0.0
C93 C 0.41917 0.78427 0.8602 0.0
O94 O 0.46309 0.88689 0.83348 0.0
O95 O 0.4597 0.8951 0.88435 0.0
Zn96 Zn 0.38386 0.19183 0.08286 0.0
O97 O 0.40451 0.23812 0.08693 0.0
C98 C 0.32238 0.21933 0.10734 0.0
Zn99 Zn 0.37835 0.19276 0.13551 0.0
C100 C 0.40609 0.25224 0.11354 0.0
O101 O 0.39517 0.23899 0.13811 0.0
C102 C 0.35879 0.13046 0.10719 0.0
O103 O 0.4268 0.17693 0.13508 0.0
O104 O 0.42913 0.17204 0.08304 0.0
N105 N 0.37498 0.19234 0.18394 0.0
C106 C 0.38466 0.17046 0.20486 0.0
C107 C 0.35247 0.201 0.22905 0.0
N108 N 0.35532 0.21158 0.19906 0.0
N109 N 0.37124 0.17565 0.23352 0.0
C110 C 0.38468 0.21781 0.01272 0.0
C111 C 0.35122 0.18645 -0.00847 0.0
N112 N 0.37955 0.19422 0.03374 0.0
N113 N 0.35895 0.17471 0.02021 0.0
N114 N 0.36719 0.21342 0.98631 0.0
H115 H 0.42839 0.23731 0.0294 0.0
H116 H 0.41146 0.25782 -0.00435 0.0
H117 H 0.39434 0.26215 0.03436 0.0
C118 C 0.40607 0.2454 0.01816 0.0
C119 C 0.39808 0.13926 0.19474 0.0
H120 H 0.4095 0.14046 0.17153 0.0
H121 H 0.41539 0.13025 0.21209 0.0
H122 H 0.37837 0.12222 0.1927 0.0
O123 O 0.36208 0.14538 0.13305 0.0
O124 O 0.36481 0.14446 0.08125 0.0
C125 C 0.44199 0.16917 0.11019 0.0
O126 O 0.33937 0.21309 0.08347 0.0
O127 O 0.33114 0.20969 0.13435 0.0
Zn128 Zn 0.03443 0.84239 0.14338 0.0
O129 O -0.01187 0.82174 0.13932 0.0
C130 C 0.00693 0.90386 0.11891 0.0
Zn131 Zn 0.03349 0.8479 0.09073 0.0
C132 C 0.974 0.82016 0.11271 0.0
O133 O 0.98725 0.83108 0.08813 0.0
C134 C 0.09579 0.86745 0.11905 0.0
O135 O 0.04932 0.79945 0.09116 0.0
O136 O 0.05421 0.79711 0.1432 0.0
N137 N 0.0339 0.85127 0.0423 0.0
C138 C 0.05578 0.84158 0.02138 0.0
C139 C 0.02524 0.87378 -0.00281 0.0
N140 N 0.01466 0.87093 0.02718 0.0
N141 N 0.05059 0.85501 -0.00728 0.0
C142 C 0.00846 0.84156 0.21352 0.0
C143 C 0.03981 0.87503 0.23471 0.0
N144 N 0.03204 0.8467 0.1925 0.0
N145 N 0.05155 0.8673 0.20602 0.0
N146 N 0.01285 0.85906 0.23993 0.0
H147 H -0.01103 0.79784 0.19685 0.0
H148 H 0.96845 0.81478 0.23061 0.0
H149 H 0.96413 0.83189 0.19189 0.0
C150 C 0.98087 0.82017 0.20809 0.0
C151 C 0.08698 0.82816 0.0315 0.0
H152 H 0.08578 0.81674 0.05471 0.0
H153 H 0.09599 0.81086 0.01415 0.0
H154 H 0.10403 0.84787 0.03353 0.0
O155 O 0.08086 0.86416 0.09318 0.0
O156 O 0.0818 0.86143 0.14499 0.0
C157 C 0.05708 0.78426 0.11605 0.0
O158 O 0.01317 0.88688 0.14277 0.0
O159 O 0.01656 0.8951 0.09189 0.0
Zn160 Zn 0.37835 0.78349 0.34073 0.0
O161 O 0.42679 0.79932 0.34116 0.0
C162 C 0.35879 0.84579 0.36905 0.0
Zn163 Zn 0.38386 0.78441 0.39338 0.0
C164 C 0.44198 0.80708 0.36606 0.0
O165 O 0.42913 0.8042 0.3932 0.0
C166 C 0.32238 0.75692 0.3689 0.0
O167 O 0.40451 0.73813 0.38931 0.0
O168 O 0.39517 0.73725 0.33813 0.0
N169 N 0.37955 0.78202 0.4425 0.0
C170 C 0.38469 0.75844 0.46352 0.0
C171 C 0.35123 0.78979 0.48472 0.0
N172 N 0.35896 0.80153 0.45603 0.0
N173 N 0.3672 0.76282 0.48994 0.0
C174 C 0.38466 0.80578 0.27138 0.0
C175 C 0.35247 0.77524 0.24719 0.0
N176 N 0.37497 0.7839 0.2923 0.0
N177 N 0.35532 0.76466 0.27718 0.0
N178 N 0.37124 0.80059 0.24272 0.0
H179 H 0.4095 0.83578 0.30472 0.0
H180 H 0.41539 0.846 0.26415 0.0
H181 H 0.37837 0.85403 0.28354 0.0
C182 C 0.39808 0.83698 0.2815 0.0
C183 C 0.40608 0.73085 0.45808 0.0
H184 H 0.4284 0.73894 0.44683 0.0
H185 H 0.41147 0.71843 0.48059 0.0
H186 H 0.39435 0.7141 0.44188 0.0
O187 O 0.33937 0.76315 0.39277 0.0
O188 O 0.33114 0.76655 0.34189 0.0
C189 C 0.40609 0.724 0.3627 0.0
O190 O 0.36208 0.83086 0.34319 0.0
O191 O 0.36481 0.83179 0.395 0.0
Zn192 Zn 0.44276 0.12835 0.59072 0.0
O193 O 0.42693 0.1768 0.59116 0.0
C194 C 0.38045 0.10879 0.61905 0.0
Zn195 Zn 0.44182 0.13386 0.64338 0.0
C196 C 0.41917 0.19199 0.61605 0.0
O197 O 0.42204 0.17913 0.6432 0.0
C198 C 0.46931 0.07238 0.61891 0.0
O199 O 0.48811 0.15451 0.63931 0.0
O200 O 0.48899 0.14517 0.58813 0.0
N201 N 0.44421 0.12955 0.6925 0.0
C202 C 0.46779 0.13469 0.71352 0.0
C203 C 0.43643 0.10122 0.73471 0.0
N204 N 0.42469 0.10895 0.70602 0.0
N205 N 0.4634 0.11719 0.73994 0.0
C206 C 0.42046 0.13466 0.52138 0.0
C207 C 0.45101 0.10247 0.49719 0.0
N208 N 0.44235 0.12497 0.5423 0.0
N209 N 0.46158 0.10532 0.52718 0.0
N210 N 0.42565 0.12124 0.49272 0.0
H211 H 0.39047 0.1595 0.55471 0.0
H212 H 0.38025 0.16539 0.51415 0.0
H213 H 0.37222 0.12837 0.53353 0.0
C214 C 0.38926 0.14808 0.5315 0.0
C215 C 0.49537 0.15608 0.70809 0.0
H216 H 0.48728 0.1784 0.69685 0.0
H217 H 0.50779 0.16147 0.7306 0.0
H218 H 0.51212 0.14436 0.69189 0.0
O219 O 0.46308 0.08937 0.64277 0.0
O220 O 0.45969 0.08114 0.59189 0.0
C221 C 0.50224 0.15609 0.6127 0.0
O222 O 0.39538 0.11208 0.59318 0.0
O223 O 0.39445 0.11482 0.64499 0.0
Zn224 Zn 0.09239 0.19183 0.89338 0.0
O225 O 0.07173 0.23812 0.88931 0.0
C226 C 0.15386 0.21933 0.8689 0.0
Zn227 Zn 0.0979 0.19276 0.84072 0.0
C228 C 0.07015 0.25225 0.8627 0.0
O229 O 0.08107 0.239 0.83812 0.0
C230 C 0.11746 0.13046 0.86905 0.0
O231 O 0.04945 0.17693 0.84116 0.0
O232 O 0.04711 0.17205 0.8932 0.0
N233 N 0.10127 0.19235 0.7923 0.0
C234 C 0.09158 0.17047 0.77138 0.0
C235 C 0.12378 0.20101 0.74719 0.0
N236 N 0.12093 0.21158 0.77718 0.0
N237 N 0.10501 0.17565 0.74272 0.0
C238 C 0.09155 0.21781 0.96352 0.0
C239 C 0.12501 0.18646 0.98471 0.0
N240 N 0.09669 0.19423 0.9425 0.0
N241 N 0.11729 0.17471 0.95603 0.0
N242 N 0.10904 0.21342 -0.01007 0.0
H243 H 0.04784 0.23731 0.94683 0.0
H244 H 0.06477 0.25782 0.98059 0.0
H245 H 0.0819 0.26215 0.94188 0.0
C246 C 0.07017 0.2454 0.95808 0.0
C247 C 0.07817 0.13926 0.7815 0.0
H248 H 0.06675 0.14047 0.80471 0.0
H249 H 0.06086 0.13025 0.76415 0.0
H250 H 0.09788 0.12222 0.78354 0.0
O251 O 0.11417 0.14539 0.84319 0.0
O252 O 0.11143 0.14446 0.89499 0.0
C253 C 0.03426 0.16917 0.86605 0.0
O254 O 0.13688 0.2131 0.89277 0.0
O255 O 0.1451 0.2097 0.84189 0.0
Zn256 Zn 0.33286 0.03442 0.13385 0.0
O257 O 0.33694 -0.01188 0.1545 0.0
C258 C 0.35734 0.00692 0.07238 0.0
Zn259 Zn 0.38552 0.03349 0.12834 0.0
C260 C 0.36355 0.974 0.15609 0.0
O261 O 0.38812 0.98726 0.14517 0.0
C262 C 0.35719 0.09578 0.10878 0.0
O263 O 0.38509 0.04933 0.17678 0.0
O264 O 0.33305 0.0542 0.17913 0.0
N265 N 0.43395 0.0339 0.12497 0.0
C266 C 0.45486 0.0558 0.13465 0.0
C267 C 0.47907 0.02522 0.1025 0.0
N268 N 0.44907 0.01465 0.10534 0.0
N269 N 0.48353 0.0506 0.12124 0.0
C270 C 0.26273 0.00844 0.13468 0.0
C271 C 0.24153 0.03979 0.10123 0.0
N272 N 0.28375 0.03202 0.12955 0.0
N273 N 0.27021 0.05154 0.10896 0.0
N274 N 0.23631 0.01282 0.1172 0.0
H275 H 0.27942 -0.01107 0.17839 0.0
H276 H 0.24566 0.96842 0.16146 0.0
H277 H 0.28436 0.9641 0.14434 0.0
C278 C 0.26817 0.98084 0.15607 0.0
C279 C 0.44472 0.08702 0.14801 0.0
H280 H 0.42153 0.08581 0.15947 0.0
H281 H 0.46208 0.09611 0.16527 0.0
H282 H 0.44263 0.10402 0.12826 0.0
O283 O 0.38306 0.08086 0.11206 0.0
O284 O 0.33125 0.08179 0.11482 0.0
C285 C 0.3602 0.05708 0.19198 0.0
O286 O 0.33348 0.01315 0.08936 0.0
O287 O 0.38436 0.01655 0.08114 0.0
Zn288 Zn 0.19183 0.08286 0.38385 0.0
O289 O 0.23812 0.08693 0.4045 0.0
C290 C 0.21933 0.10734 0.32238 0.0
Zn291 Zn 0.19276 0.13552 0.37834 0.0
C292 C 0.25224 0.11354 0.40608 0.0
O293 O 0.23899 0.13812 0.39516 0.0
C294 C 0.13046 0.10719 0.35878 0.0
O295 O 0.17693 0.13509 0.42679 0.0
O296 O 0.17204 0.08305 0.42913 0.0
N297 N 0.19235 0.18395 0.37497 0.0
C298 C 0.17046 0.20486 0.38466 0.0
C299 C 0.20101 0.22906 0.35246 0.0
N300 N 0.21158 0.19907 0.35531 0.0
N301 N 0.17565 0.23353 0.37123 0.0
C302 C 0.21781 0.01273 0.38468 0.0
C303 C 0.18645 -0.00847 0.35122 0.0
N304 N 0.19422 0.03375 0.37954 0.0
N305 N 0.17471 0.02021 0.35895 0.0
N306 N 0.21342 0.98631 0.36719 0.0
H307 H 0.23731 0.02941 0.42839 0.0
H308 H 0.25782 -0.00435 0.41146 0.0
H309 H 0.26215 0.03436 0.39434 0.0
C310 C 0.2454 0.01817 0.40607 0.0
C311 C 0.13926 0.19474 0.39807 0.0
H312 H 0.14046 0.17153 0.40949 0.0
H313 H 0.13025 0.21209 0.41538 0.0
H314 H 0.12222 0.19271 0.37836 0.0
O315 O 0.14539 0.13306 0.36207 0.0
O316 O 0.14446 0.08125 0.36481 0.0
C317 C 0.16917 0.11019 0.44198 0.0
O318 O 0.21309 0.08348 0.33936 0.0
O319 O 0.20969 0.13435 0.33114 0.0
Zn320 Zn 0.14339 0.94183 0.63385 0.0
O321 O 0.13931 0.98812 0.6545 0.0
C322 C 0.11891 0.96933 0.57238 0.0
Zn323 Zn 0.09073 0.94276 0.62834 0.0
C324 C 0.1127 0.00224 0.65608 0.0
O325 O 0.08812 -0.01101 0.64517 0.0
C326 C 0.11906 0.88046 0.60878 0.0
O327 O 0.09115 0.92692 0.67678 0.0
O328 O 0.1432 0.92205 0.67913 0.0
N329 N 0.0423 0.94234 0.62497 0.0
C330 C 0.02139 0.92044 0.63465 0.0
C331 C -0.00282 0.95102 0.6025 0.0
N332 N 0.02717 0.9616 0.60534 0.0
N333 N -0.00728 0.92565 0.62124 0.0
C334 C 0.21352 0.96781 0.63469 0.0
C335 C 0.23472 0.93645 0.60123 0.0
N336 N 0.1925 0.94422 0.62955 0.0
N337 N 0.20603 0.92471 0.60896 0.0
N338 N 0.23994 0.96342 0.6172 0.0
H339 H 0.19683 0.98732 0.67839 0.0
H340 H 0.23059 0.00783 0.66146 0.0
H341 H 0.19188 0.01215 0.64434 0.0
C342 C 0.20808 -0.00459 0.65607 0.0
C343 C 0.03153 0.88922 0.64801 0.0
H344 H 0.05472 0.89043 0.65947 0.0
H345 H 0.01417 0.88013 0.66527 0.0
H346 H 0.03362 0.87223 0.62826 0.0
O347 O 0.09319 0.89539 0.61206 0.0
O348 O 0.145 0.89446 0.61482 0.0
C349 C 0.11605 0.91917 0.69198 0.0
O350 O 0.14277 0.96309 0.58936 0.0
O351 O 0.09189 0.9597 0.58114 0.0
Zn352 Zn 0.28349 0.84073 0.87834 0.0
O353 O 0.29931 0.84116 0.92679 0.0
C354 C 0.34578 0.86906 0.85879 0.0
Zn355 Zn 0.28441 0.89339 0.88386 0.0
C356 C 0.30707 0.86605 0.94198 0.0
O357 O 0.3042 0.8932 0.92913 0.0
C358 C 0.25692 0.86891 0.82238 0.0
O359 O 0.23813 0.88931 0.90451 0.0
O360 O 0.23725 0.83813 0.89516 0.0
N361 N 0.28202 0.9425 0.87955 0.0
C362 C 0.25844 0.96352 0.88469 0.0
C363 C 0.28979 0.98472 0.85123 0.0
N364 N 0.30154 0.95604 0.85896 0.0
N365 N 0.26282 -0.01006 0.8672 0.0
C366 C 0.30578 0.77138 0.88466 0.0
C367 C 0.27524 0.74719 0.85246 0.0
N368 N 0.2839 0.7923 0.87497 0.0
N369 N 0.26466 0.77718 0.85531 0.0
N370 N 0.30059 0.74272 0.87123 0.0
H371 H 0.33578 0.80472 0.9095 0.0
H372 H 0.346 0.76416 0.91538 0.0
H373 H 0.35403 0.78354 0.87837 0.0
C374 C 0.33698 0.7815 0.89808 0.0
C375 C 0.23084 0.95808 0.90607 0.0
H376 H 0.23893 0.94684 0.9284 0.0
H377 H 0.21842 0.98059 0.91146 0.0
H378 H 0.2141 0.94188 0.89434 0.0
O379 O 0.26315 0.89277 0.83936 0.0
O380 O 0.26655 0.8419 0.83114 0.0
C381 C 0.224 0.8627 0.90608 0.0
O382 O 0.33086 0.84319 0.86208 0.0
O383 O 0.33179 0.895 0.86481 0.0
Zn384 Zn 0.38552 0.94275 0.3479 0.0
O385 O 0.38509 0.92692 0.29946 0.0
C386 C 0.35719 0.88046 0.36746 0.0
Zn387 Zn 0.33286 0.94183 0.34238 0.0
C388 C 0.3602 0.91917 0.28426 0.0
O389 O 0.33305 0.92205 0.2971 0.0
C390 C 0.35735 0.96933 0.40386 0.0
O391 O 0.33693 0.98812 0.32173 0.0
O392 O 0.38811 -0.01101 0.33107 0.0
N393 N 0.28374 0.94421 0.34669 0.0
C394 C 0.26275 0.96786 0.3417 0.0
C395 C 0.24155 0.93635 0.37503 0.0
N396 N 0.2702 0.92461 0.36719 0.0
N397 N 0.23638 0.96344 0.35925 0.0
C398 C 0.45486 0.92044 0.34159 0.0
C399 C 0.47907 0.95102 0.37374 0.0
N400 N 0.43395 0.94234 0.35127 0.0
N401 N 0.44908 0.96159 0.3709 0.0
N402 N 0.48353 0.92565 0.355 0.0
H403 H 0.42152 0.89043 0.31677 0.0
H404 H 0.46208 0.88013 0.31097 0.0
H405 H 0.44263 0.87223 0.34798 0.0
C406 C 0.44472 0.88922 0.32823 0.0
C407 C 0.26816 -0.0045 0.32036 0.0
H408 H 0.27933 0.98744 0.29799 0.0
H409 H 0.24564 0.00795 0.31506 0.0
H410 H 0.2844 0.0122 0.33207 0.0
O411 O 0.33348 0.96309 0.38688 0.0
O412 O 0.38436 0.95969 0.3951 0.0
C413 C 0.36354 0.00224 0.32015 0.0
O414 O 0.38306 0.89538 0.36418 0.0
O415 O 0.33125 0.89445 0.36142 0.0
Zn416 Zn 0.28441 0.08286 0.59238 0.0
O417 O 0.23812 0.08692 0.57173 0.0
C418 C 0.25692 0.10735 0.65386 0.0
Zn419 Zn 0.28349 0.13552 0.59789 0.0
C420 C 0.224 0.11354 0.57015 0.0
O421 O 0.23725 0.13811 0.58107 0.0
C422 C 0.34578 0.1072 0.61745 0.0
O423 O 0.29932 0.13509 0.54945 0.0
O424 O 0.3042 0.08305 0.5471 0.0
N425 N 0.2839 0.18395 0.60126 0.0
C426 C 0.3058 0.20486 0.59158 0.0
C427 C 0.27522 0.22907 0.62373 0.0
N428 N 0.26464 0.19907 0.62088 0.0
N429 N 0.30059 0.23353 0.60499 0.0
C430 C 0.25838 0.01275 0.5917 0.0
C431 C 0.28989 -0.00845 0.62503 0.0
N432 N 0.28203 0.03374 0.59669 0.0
N433 N 0.30164 0.0202 0.61719 0.0
N434 N 0.2628 0.98638 0.60925 0.0
H435 H 0.23879 0.02932 0.54799 0.0
H436 H 0.21829 -0.00436 0.56507 0.0
H437 H 0.21404 0.0344 0.58208 0.0
C438 C 0.23074 0.01815 0.57036 0.0
C439 C 0.33702 0.19472 0.57822 0.0
H440 H 0.33581 0.17153 0.56676 0.0
H441 H 0.34611 0.21208 0.56096 0.0
H442 H 0.35401 0.19263 0.59797 0.0
O443 O 0.33085 0.13306 0.61417 0.0
O444 O 0.33179 0.08125 0.61142 0.0
C445 C 0.30708 0.1102 0.53426 0.0
O446 O 0.26315 0.08348 0.63687 0.0
O447 O 0.26655 0.13436 0.6451 0.0
Zn448 Zn 0.09073 0.0335 0.8479 0.0
O449 O 0.09116 0.04933 0.79946 0.0
C450 C 0.11905 0.09579 0.86746 0.0
Zn451 Zn 0.14339 0.03442 0.84238 0.0
C452 C 0.11605 0.05708 0.78426 0.0
O453 O 0.1432 0.0542 0.7971 0.0
C454 C 0.1189 0.00692 0.90386 0.0
O455 O 0.13932 -0.01187 0.82173 0.0
O456 O 0.08813 0.98726 0.83107 0.0
N457 N 0.1925 0.03203 0.84669 0.0
C458 C 0.21349 0.00839 0.84171 0.0
C459 C 0.2347 0.03989 0.87503 0.0
N460 N 0.20604 0.05164 0.8672 0.0
N461 N 0.23986 0.01281 0.85925 0.0
C462 C 0.02139 0.0558 0.84159 0.0
C463 C -0.00282 0.02523 0.87374 0.0
N464 N 0.0423 0.03391 0.85126 0.0
N465 N 0.02717 0.01465 0.87089 0.0
N466 N -0.00728 0.0506 0.855 0.0
H467 H 0.05472 0.08581 0.81677 0.0
H468 H 0.01417 0.09612 0.81096 0.0
H469 H 0.03361 0.10402 0.84797 0.0
C470 C 0.03153 0.08703 0.82823 0.0
C471 C 0.20809 0.98075 0.82036 0.0
H472 H 0.19692 -0.0112 0.79799 0.0
H473 H 0.23061 0.9683 0.81506 0.0
H474 H 0.19184 0.96404 0.83208 0.0
O475 O 0.14276 0.01315 0.88688 0.0
O476 O 0.09189 0.01656 0.8951 0.0
C477 C 0.11271 0.97401 0.82015 0.0
O478 O 0.09319 0.08086 0.86418 0.0
O479 O 0.14499 0.08179 0.86142 0.0
Zn480 Zn 0.19184 0.89339 0.09238 0.0
O481 O 0.23812 0.88932 0.07173 0.0
C482 C 0.21933 0.8689 0.15386 0.0
Zn483 Zn 0.19276 0.84073 0.09789 0.0
C484 C 0.25225 0.86271 0.07015 0.0
O485 O 0.23899 0.83813 0.08107 0.0
C486 C 0.13047 0.86905 0.11745 0.0
O487 O 0.17692 0.84116 0.04945 0.0
O488 O 0.17205 0.8932 0.0471 0.0
N489 N 0.19235 0.7923 0.10126 0.0
C490 C 0.17045 0.77139 0.09158 0.0
C491 C 0.20103 0.74718 0.12373 0.0
N492 N 0.2116 0.77717 0.12088 0.0
N493 N 0.17565 0.74272 0.10499 0.0
C494 C 0.21787 0.96349 0.0917 0.0
C495 C 0.18636 0.9847 0.12503 0.0
N496 N 0.19422 0.9425 0.09669 0.0
N497 N 0.17461 0.95604 0.11719 0.0
N498 N 0.21344 -0.01014 0.10925 0.0
H499 H 0.23745 0.94692 0.04799 0.0
H500 H 0.25796 0.98061 0.06507 0.0
H501 H 0.26221 0.94185 0.08208 0.0
C502 C 0.24551 0.95809 0.07036 0.0
C503 C 0.13922 0.78153 0.07822 0.0
H504 H 0.14044 0.80472 0.06676 0.0
H505 H 0.13013 0.76417 0.06096 0.0
H506 H 0.12223 0.78362 0.09797 0.0
O507 O 0.14539 0.84318 0.11417 0.0
O508 O 0.14446 0.89499 0.11142 0.0
C509 C 0.16917 0.86605 0.03426 0.0
O510 O 0.2131 0.89276 0.13687 0.0
O511 O 0.2097 0.84189 0.1451 0.0
Zn512 Zn 0.13386 0.33286 0.03441 0.0
O513 O 0.15451 0.33693 -0.01188 0.0
C514 C 0.07238 0.35735 0.00692 0.0
Zn515 Zn 0.12834 0.38552 0.03349 0.0
C516 C 0.15608 0.36354 0.974 0.0
O517 O 0.14516 0.38811 0.98725 0.0
C518 C 0.10879 0.3572 0.09579 0.0
O519 O 0.17679 0.38508 0.04931 0.0
O520 O 0.17913 0.33304 0.0542 0.0
N521 N 0.12497 0.43395 0.0339 0.0
C522 C 0.13467 0.45487 0.05578 0.0
C523 C 0.10248 0.47906 0.02524 0.0
N524 N 0.10532 0.44907 0.01466 0.0
N525 N 0.12124 0.48353 0.05059 0.0
C526 C 0.13453 0.26275 0.00838 0.0
C527 C 0.1012 0.24155 0.03989 0.0
N528 N 0.12954 0.28374 0.03203 0.0
N529 N 0.10904 0.27021 0.05163 0.0
N530 N 0.11698 0.23639 0.0128 0.0
H531 H 0.17825 0.27933 -0.0112 0.0
H532 H 0.16117 0.24564 0.96829 0.0
H533 H 0.14416 0.2844 0.96404 0.0
C534 C 0.15588 0.26816 0.98074 0.0
C535 C 0.14808 0.44474 0.08698 0.0
H536 H 0.1595 0.42153 0.08578 0.0
H537 H 0.16539 0.46209 0.096 0.0
H538 H 0.12837 0.44271 0.10402 0.0
O539 O 0.11208 0.38306 0.08086 0.0
O540 O 0.11481 0.33126 0.08178 0.0
C541 C 0.19198 0.36019 0.05707 0.0
O542 O 0.08936 0.33349 0.01314 0.0
O543 O 0.08114 0.38436 0.01656 0.0
Zn544 Zn 0.63386 0.14339 0.94182 0.0
O545 O 0.65451 0.13933 0.98811 0.0
C546 C 0.57238 0.1189 0.96932 0.0
Zn547 Zn 0.62835 0.09073 0.94275 0.0
C548 C 0.65609 0.11272 0.00223 0.0
O549 O 0.64518 0.08814 -0.01102 0.0
C550 C 0.60878 0.11906 0.88045 0.0
O551 O 0.67679 0.09117 0.92691 0.0
O552 O 0.67914 0.14322 0.92204 0.0
N553 N 0.62499 0.04231 0.94233 0.0
C554 C 0.63466 0.0214 0.92043 0.0
C555 C 0.60252 -0.00281 0.95101 0.0
N556 N 0.60536 0.02718 0.96159 0.0
N557 N 0.62126 -0.00727 0.92564 0.0
C558 C 0.63468 0.21353 0.96779 0.0
C559 C 0.60121 0.23472 0.93643 0.0
N560 N 0.62954 0.19251 0.94421 0.0
N561 N 0.60894 0.20604 0.92469 0.0
N562 N 0.61719 0.23995 0.9634 0.0
H563 H 0.6784 0.19686 0.98728 0.0
H564 H 0.66146 0.23061 0.00779 0.0
H565 H 0.64434 0.1919 0.01212 0.0
C566 C 0.65607 0.2081 -0.00462 0.0
C567 C 0.64802 0.03154 0.88921 0.0
H568 H 0.65948 0.05473 0.89043 0.0
H569 H 0.66528 0.01418 0.88012 0.0
H570 H 0.62827 0.03362 0.87222 0.0
O571 O 0.61207 0.0932 0.89538 0.0
O572 O 0.61482 0.145 0.89444 0.0
C573 C 0.69198 0.11607 0.91916 0.0
O574 O 0.58936 0.14277 0.96308 0.0
O575 O 0.58115 0.09189 0.95969 0.0
Zn576 Zn 0.08286 0.38386 0.19183 0.0
O577 O 0.08694 0.40451 0.23812 0.0
C578 C 0.10734 0.32238 0.21932 0.0
Zn579 Zn 0.13552 0.37834 0.19275 0.0
C580 C 0.11355 0.40609 0.25224 0.0
O581 O 0.13812 0.39517 0.23899 0.0
C582 C 0.10719 0.35879 0.13046 0.0
O583 O 0.1351 0.42679 0.17692 0.0
O584 O 0.08306 0.42914 0.17205 0.0
N585 N 0.18395 0.37498 0.19234 0.0
C586 C 0.20486 0.38465 0.17044 0.0
C587 C 0.22907 0.3525 0.20102 0.0
N588 N 0.19908 0.35535 0.21159 0.0
N589 N 0.23353 0.37125 0.17564 0.0
C590 C 0.01273 0.3847 0.21781 0.0
C591 C -0.00847 0.35124 0.18645 0.0
N592 N 0.03375 0.37956 0.19422 0.0
N593 N 0.02021 0.35897 0.17471 0.0
N594 N 0.98631 0.36721 0.21342 0.0
H595 H 0.02942 0.4284 0.23731 0.0
H596 H -0.00434 0.41147 0.25782 0.0
H597 H 0.03437 0.39435 0.26214 0.0
C598 C 0.01817 0.40608 0.2454 0.0
C599 C 0.19472 0.39802 0.13922 0.0
H600 H 0.17153 0.40947 0.14043 0.0
H601 H 0.21208 0.41528 0.13013 0.0
H602 H 0.19263 0.37827 0.12223 0.0
O603 O 0.13306 0.36207 0.14539 0.0
O604 O 0.08125 0.36482 0.14445 0.0
C605 C 0.11021 0.44198 0.16917 0.0
O606 O 0.08348 0.33937 0.21309 0.0
O607 O 0.13435 0.33114 0.2097 0.0
Zn608 Zn 0.8479 0.88552 0.44275 0.0
O609 O 0.79946 0.88508 0.42691 0.0
C610 C 0.86747 0.85719 0.38045 0.0
Zn611 Zn 0.84239 0.83286 0.44181 0.0
C612 C 0.78426 0.86018 0.41916 0.0
O613 O 0.79712 0.83303 0.42203 0.0
C614 C 0.90387 0.85735 0.46932 0.0
O615 O 0.82174 0.83692 0.48811 0.0
O616 O 0.83107 0.88811 0.48898 0.0
N617 N 0.84671 0.78374 0.4442 0.0
C618 C 0.84158 0.76272 0.46778 0.0
C619 C 0.87505 0.74154 0.43643 0.0
N620 N 0.86731 0.77022 0.42469 0.0
N621 N 0.85907 0.73631 0.46339 0.0
C622 C 0.84159 0.95485 0.42043 0.0
C623 C 0.87373 0.97906 0.45101 0.0
N624 N 0.85126 0.93394 0.44233 0.0
N625 N 0.87089 0.94907 0.46159 0.0
N626 N 0.85499 0.98352 0.42564 0.0
H627 H 0.81677 0.92152 0.39043 0.0
H628 H 0.81096 0.96207 0.38012 0.0
H629 H 0.84797 0.94263 0.37222 0.0
C630 C 0.82822 0.94471 0.38921 0.0
C631 C 0.82018 0.76815 0.49537 0.0
H632 H 0.79786 0.77939 0.48727 0.0
H633 H 0.8148 0.74563 0.50779 0.0
H634 H 0.83191 0.78435 0.51211 0.0
O635 O 0.88689 0.83348 0.46308 0.0
O636 O 0.8951 0.88436 0.45969 0.0
C637 C 0.82016 0.86353 0.50223 0.0
O638 O 0.86418 0.88306 0.39538 0.0
O639 O 0.86143 0.83125 0.39444 0.0
Zn640 Zn 0.84074 0.0979 0.19274 0.0
O641 O 0.84117 0.04945 0.17691 0.0
C642 C 0.86906 0.11745 0.13044 0.0
Zn643 Zn 0.89339 0.09238 0.19182 0.0
C644 C 0.86606 0.03425 0.16916 0.0
O645 O 0.89321 0.0471 0.17204 0.0
C646 C 0.86891 0.15386 0.21931 0.0
O647 O 0.88933 0.07173 0.23811 0.0
O648 O 0.83814 0.08107 0.23898 0.0
N649 N 0.94251 0.09669 0.19421 0.0
C650 C 0.9635 0.09171 0.21785 0.0
C651 C 0.9847 0.12504 0.18635 0.0
N652 N 0.95605 0.1172 0.1746 0.0
N653 N -0.01013 0.10926 0.21344 0.0
C654 C 0.7714 0.09159 0.17043 0.0
C655 C 0.74719 0.12375 0.20101 0.0
N656 N 0.79231 0.10126 0.19233 0.0
N657 N 0.77718 0.1209 0.21158 0.0
N658 N 0.74273 0.105 0.17564 0.0
H659 H 0.80473 0.06677 0.14043 0.0
H660 H 0.76417 0.06096 0.13013 0.0
H661 H 0.78361 0.09797 0.12221 0.0
C662 C 0.78153 0.07822 0.13921 0.0
C663 C 0.9581 0.07036 0.24549 0.0
H664 H 0.94693 0.04799 0.23743 0.0
H665 H 0.98062 0.06506 0.25794 0.0
H666 H 0.94185 0.08207 0.2622 0.0
O667 O 0.89277 0.13688 0.21308 0.0
O668 O 0.8419 0.1451 0.20968 0.0
C669 C 0.86271 0.07015 0.25223 0.0
O670 O 0.8432 0.11417 0.14537 0.0
O671 O 0.895 0.11141 0.14444 0.0
Zn672 Zn 0.34239 0.64338 0.53441 0.0
O673 O 0.32173 0.63932 0.48812 0.0
C674 C 0.40387 0.6189 0.50692 0.0
Zn675 Zn 0.3479 0.59073 0.53349 0.0
C676 C 0.32016 0.61271 0.474 0.0
O677 O 0.33108 0.58813 0.48725 0.0
C678 C 0.36746 0.61905 0.59579 0.0
O679 O 0.29945 0.59116 0.54931 0.0
O680 O 0.29711 0.6432 0.5542 0.0
N681 N 0.35127 0.5423 0.5339 0.0
C682 C 0.34158 0.52138 0.55578 0.0
C683 C 0.37377 0.49719 0.52524 0.0
N684 N 0.37093 0.52718 0.51466 0.0
N685 N 0.355 0.49272 0.55059 0.0
C686 C 0.34171 0.71349 0.50838 0.0
C687 C 0.37504 0.7347 0.53989 0.0
N688 N 0.3467 0.6925 0.53203 0.0
N689 N 0.3672 0.70604 0.55163 0.0
N690 N 0.35926 0.73986 0.5128 0.0
H691 H 0.29799 0.69692 0.4888 0.0
H692 H 0.31507 0.73061 0.46829 0.0
H693 H 0.33208 0.69184 0.46404 0.0
C694 C 0.32037 0.70809 0.48074 0.0
C695 C 0.32816 0.5315 0.58698 0.0
H696 H 0.31674 0.55471 0.58578 0.0
H697 H 0.31086 0.51415 0.59599 0.0
H698 H 0.34787 0.53353 0.60402 0.0
O699 O 0.36417 0.59318 0.58086 0.0
O700 O 0.36143 0.64499 0.58178 0.0
C701 C 0.28426 0.61605 0.55707 0.0
O702 O 0.38688 0.64276 0.51314 0.0
O703 O 0.39511 0.59189 0.51656 0.0
Zn704 Zn 0.08287 0.59239 0.28441 0.0
O705 O 0.08694 0.57174 0.23813 0.0
C706 C 0.10735 0.65387 0.25692 0.0
Zn707 Zn 0.13553 0.5979 0.28349 0.0
C708 C 0.11355 0.57016 0.224 0.0
O709 O 0.13813 0.58108 0.23725 0.0
C710 C 0.1072 0.61746 0.34579 0.0
O711 O 0.1351 0.54945 0.29931 0.0
O712 O 0.08306 0.54711 0.3042 0.0
N713 N 0.18396 0.60127 0.2839 0.0
C714 C 0.20488 0.59158 0.30578 0.0
C715 C 0.22907 0.62377 0.27523 0.0
N716 N 0.19908 0.62093 0.26466 0.0
N717 N 0.23354 0.605 0.30059 0.0
C718 C 0.01274 0.59156 0.25844 0.0
C719 C -0.00846 0.62501 0.2898 0.0
N720 N 0.03376 0.5967 0.28202 0.0
N721 N 0.02022 0.61729 0.30154 0.0
N722 N 0.98632 0.60904 0.26283 0.0
H723 H 0.02943 0.54785 0.23894 0.0
H724 H -0.00434 0.56478 0.21843 0.0
H725 H 0.03437 0.5819 0.2141 0.0
C726 C 0.01818 0.57017 0.23085 0.0
C727 C 0.19476 0.57816 0.33698 0.0
H728 H 0.17154 0.56674 0.33578 0.0
H729 H 0.2121 0.56086 0.346 0.0
H730 H 0.19272 0.59788 0.35402 0.0
O731 O 0.13307 0.61417 0.33086 0.0
O732 O 0.08126 0.61143 0.33179 0.0
C733 C 0.1102 0.53426 0.30707 0.0
O734 O 0.08349 0.63688 0.26315 0.0
O735 O 0.13436 0.6451 0.26655 0.0
Zn736 Zn 0.39337 0.38386 0.78441 0.0
O737 O 0.3893 0.40451 0.73812 0.0
C738 C 0.36889 0.32238 0.75692 0.0
Zn739 Zn 0.34072 0.37835 0.78349 0.0
C740 C 0.36269 0.40609 0.724 0.0
O741 O 0.33812 0.39517 0.73725 0.0
C742 C 0.36904 0.35879 0.84578 0.0
O743 O 0.34115 0.4268 0.79931 0.0
O744 O 0.39319 0.42913 0.8042 0.0
N745 N 0.29229 0.37498 0.7839 0.0
C746 C 0.27137 0.38467 0.80578 0.0
C747 C 0.24718 0.35248 0.77523 0.0
N748 N 0.27717 0.35532 0.76466 0.0
N749 N 0.24271 0.37124 0.80059 0.0
C750 C 0.46351 0.38469 0.75844 0.0
C751 C 0.48471 0.35123 0.78979 0.0
N752 N 0.44249 0.37955 0.78202 0.0
N753 N 0.45602 0.35896 0.80153 0.0
N754 N 0.48993 0.3672 0.76283 0.0
H755 H 0.44682 0.4284 0.73893 0.0
H756 H 0.48058 0.41147 0.71843 0.0
H757 H 0.44188 0.39434 0.7141 0.0
C758 C 0.45807 0.40608 0.73084 0.0
C759 C 0.28149 0.39808 0.83698 0.0
H760 H 0.30471 0.4095 0.83578 0.0
H761 H 0.26414 0.41539 0.846 0.0
H762 H 0.28353 0.37837 0.85402 0.0
O763 O 0.34318 0.36208 0.83086 0.0
O764 O 0.39499 0.36481 0.83178 0.0
C765 C 0.36604 0.44199 0.80707 0.0
O766 O 0.39276 0.33937 0.76315 0.0
O767 O 0.34188 0.33114 0.76655 0.0
Zn768 Zn 0.94182 0.84239 0.6434 0.0
O769 O -0.01187 0.82176 0.63933 0.0
C770 C 0.9693 0.90387 0.61895 0.0
Zn771 Zn 0.94277 0.8479 0.59074 0.0
C772 C 0.00225 0.82016 0.61271 0.0
O773 O -0.01101 0.83106 0.58813 0.0
C774 C 0.88046 0.86746 0.61907 0.0
O775 O 0.92692 0.79947 0.59116 0.0
O776 O 0.92206 0.7971 0.6432 0.0
N777 N 0.94235 0.85128 0.54232 0.0
C778 C 0.92042 0.84165 0.52142 0.0
C779 C 0.95102 0.87379 0.49721 0.0
N780 N 0.96162 0.8709 0.52719 0.0
N781 N 0.9256 0.85511 0.49277 0.0
C782 C 0.96779 0.84155 0.71354 0.0
C783 C 0.93642 0.875 0.73474 0.0
N784 N 0.9442 0.84668 0.69252 0.0
N785 N 0.92468 0.86727 0.70605 0.0
N786 N 0.96339 0.85904 0.73996 0.0
H787 H 0.9873 0.79785 0.69685 0.0
H788 H 0.0078 0.81478 0.73061 0.0
H789 H 0.01213 0.83191 0.69191 0.0
C790 C -0.00462 0.82017 0.7081 0.0
C791 C 0.8892 0.82828 0.53156 0.0
H792 H 0.89043 0.81681 0.55475 0.0
H793 H 0.88011 0.81102 0.5142 0.0
H794 H 0.87221 0.84802 0.53366 0.0
O795 O 0.8954 0.8642 0.59321 0.0
O796 O 0.89444 0.8614 0.64501 0.0
C797 C 0.91917 0.78426 0.61605 0.0
O798 O 0.96304 0.8869 0.64281 0.0
O799 O 0.95974 0.8951 0.59192 0.0
Zn800 Zn 0.88385 0.19182 0.39339 0.0
O801 O 0.9045 0.23811 0.38932 0.0
C802 C 0.82238 0.21932 0.36891 0.0
Zn803 Zn 0.87835 0.19276 0.34073 0.0
C804 C 0.90609 0.25224 0.36271 0.0
O805 O 0.89517 0.23899 0.33814 0.0
C806 C 0.85878 0.13045 0.36905 0.0
O807 O 0.9268 0.17693 0.34118 0.0
O808 O 0.92913 0.17204 0.39322 0.0
N809 N 0.87498 0.19235 0.29231 0.0
C810 C 0.88463 0.17044 0.2714 0.0
C811 C 0.85245 0.20101 0.2472 0.0
N812 N 0.85534 0.2116 0.27718 0.0
N813 N 0.87115 0.1756 0.24276 0.0
C814 C 0.88467 0.21778 0.46353 0.0
C815 C 0.85119 0.18644 0.48471 0.0
N816 N 0.87953 0.1942 0.4425 0.0
N817 N 0.85893 0.17469 0.45603 0.0
N818 N 0.86717 0.2134 0.48994 0.0
H819 H 0.92839 0.23727 0.44686 0.0
H820 H 0.91145 0.25779 0.48061 0.0
H821 H 0.89434 0.26212 0.4419 0.0
C822 C 0.90607 0.24537 0.4581 0.0
C823 C 0.89806 0.13925 0.28152 0.0
H824 H 0.90948 0.14046 0.30473 0.0
H825 H 0.91537 0.13024 0.26417 0.0
H826 H 0.87836 0.12219 0.28356 0.0
O827 O 0.86207 0.14539 0.34319 0.0
O828 O 0.86481 0.14445 0.395 0.0
C829 C 0.94198 0.16917 0.36607 0.0
O830 O 0.83936 0.21308 0.39277 0.0
O831 O 0.83115 0.2097 0.34189 0.0
Zn832 Zn 0.53443 0.13386 0.14341 0.0
O833 O 0.48812 0.15448 0.13933 0.0
C834 C 0.50694 0.07237 0.11895 0.0
Zn835 Zn 0.53348 0.12834 0.09074 0.0
C836 C 0.474 0.15608 0.11272 0.0
O837 O 0.48726 0.14519 0.08814 0.0
C838 C 0.59579 0.10878 0.11907 0.0
O839 O 0.54933 0.17678 0.09117 0.0
O840 O 0.55419 0.17914 0.14321 0.0
N841 N 0.5339 0.12497 0.04232 0.0
C842 C 0.55583 0.1346 0.02142 0.0
C843 C 0.52523 0.10247 -0.00279 0.0
N844 N 0.51463 0.10536 0.02719 0.0
N845 N 0.55065 0.12115 -0.00722 0.0
C846 C 0.50846 0.13469 0.21354 0.0
C847 C 0.53983 0.10124 0.23474 0.0
N848 N 0.53205 0.12956 0.19252 0.0
N849 N 0.55157 0.10897 0.20605 0.0
N850 N 0.51286 0.11721 0.23996 0.0
H851 H 0.48895 0.1784 0.19685 0.0
H852 H 0.46845 0.16147 0.23062 0.0
H853 H 0.46412 0.14434 0.19191 0.0
C854 C 0.48087 0.15607 0.2081 0.0
C855 C 0.58705 0.14797 0.03157 0.0
H856 H 0.58583 0.15943 0.05476 0.0
H857 H 0.59614 0.16523 0.01421 0.0
H858 H 0.60404 0.12822 0.03366 0.0
O859 O 0.58084 0.11204 0.09321 0.0
O860 O 0.58181 0.11485 0.14502 0.0
C861 C 0.55708 0.19198 0.11606 0.0
O862 O 0.51321 0.08935 0.14281 0.0
O863 O 0.51651 0.08115 0.09192 0.0
Zn864 Zn 0.5979 0.78349 0.84072 0.0
O865 O 0.54945 0.79932 0.84117 0.0
C866 C 0.61747 0.84579 0.86904 0.0
Zn867 Zn 0.5924 0.78442 0.89338 0.0
C868 C 0.53426 0.80708 0.86607 0.0
O869 O 0.54712 0.80421 0.89321 0.0
C870 C 0.65387 0.75692 0.86889 0.0
O871 O 0.57174 0.73813 0.88932 0.0
O872 O 0.58108 0.73725 0.83813 0.0
N873 N 0.59672 0.78204 0.94249 0.0
C874 C 0.59158 0.75846 0.96352 0.0
C875 C 0.62506 0.78981 0.9847 0.0
N876 N 0.61732 0.80155 0.95602 0.0
N877 N 0.60908 0.76285 -0.01007 0.0
C878 C 0.59158 0.80578 0.77138 0.0
C879 C 0.62377 0.77524 0.74718 0.0
N880 N 0.60127 0.7839 0.79229 0.0
N881 N 0.62092 0.76466 0.77717 0.0
N882 N 0.605 0.80059 0.74271 0.0
H883 H 0.56674 0.83578 0.80471 0.0
H884 H 0.56085 0.84599 0.76415 0.0
H885 H 0.59787 0.85403 0.78352 0.0
C886 C 0.57816 0.83698 0.7815 0.0
C887 C 0.57019 0.73087 0.95809 0.0
H888 H 0.54786 0.73897 0.94685 0.0
H889 H 0.56481 0.71845 0.98061 0.0
H890 H 0.58191 0.71413 0.94189 0.0
O891 O 0.63689 0.76316 0.89275 0.0
O892 O 0.6451 0.76656 0.84188 0.0
C893 C 0.57016 0.724 0.86271 0.0
O894 O 0.61417 0.83086 0.84318 0.0
O895 O 0.61145 0.83179 0.89498 0.0
Zn896 Zn 0.94277 0.12834 0.8855 0.0
O897 O 0.92692 0.17679 0.88507 0.0
C898 C 0.88046 0.1088 0.85717 0.0
Zn899 Zn 0.94182 0.13386 0.83283 0.0
C900 C 0.91917 0.19199 0.86018 0.0
O901 O 0.92206 0.17915 0.83303 0.0
C902 C 0.9693 0.07238 0.85729 0.0
O903 O 0.98812 0.15449 0.83691 0.0
O904 O -0.01101 0.14518 0.8881 0.0
N905 N 0.9442 0.12957 0.78372 0.0
C906 C 0.96779 0.1347 0.7627 0.0
C907 C 0.93642 0.10125 0.7415 0.0
N908 N 0.92468 0.10898 0.77019 0.0
N909 N 0.96339 0.11721 0.73628 0.0
C910 C 0.92046 0.13465 0.95484 0.0
C911 C 0.95101 0.10246 0.97903 0.0
N912 N 0.94235 0.12496 0.93392 0.0
N913 N 0.96158 0.1053 0.94905 0.0
N914 N 0.92565 0.12122 0.98351 0.0
H915 H 0.89046 0.15948 0.92151 0.0
H916 H 0.88025 0.16537 0.96207 0.0
H917 H 0.87222 0.12835 0.94269 0.0
C918 C 0.88926 0.14806 0.94472 0.0
C919 C -0.00462 0.15608 0.76814 0.0
H920 H 0.9873 0.1784 0.77939 0.0
H921 H 0.0078 0.16147 0.74562 0.0
H922 H 0.01212 0.14434 0.78433 0.0
O923 O 0.96304 0.08936 0.83343 0.0
O924 O 0.95972 0.08114 0.88432 0.0
C925 C 0.00225 0.15608 0.86352 0.0
O926 O 0.8954 0.11206 0.88303 0.0
O927 O 0.89444 0.11485 0.83123 0.0
Zn928 Zn 0.59239 0.19183 0.58285 0.0
O929 O 0.57174 0.23812 0.58692 0.0
C930 C 0.65386 0.21933 0.60733 0.0
Zn931 Zn 0.5979 0.19276 0.63551 0.0
C932 C 0.57016 0.25225 0.61353 0.0
O933 O 0.58108 0.239 0.63811 0.0
C934 C 0.61746 0.13046 0.60718 0.0
O935 O 0.54945 0.17693 0.63507 0.0
O936 O 0.54712 0.17204 0.58303 0.0
N937 N 0.60127 0.19235 0.68393 0.0
C938 C 0.59158 0.17047 0.70485 0.0
C939 C 0.62378 0.20101 0.72904 0.0
N940 N 0.62093 0.21159 0.69905 0.0
N941 N 0.60501 0.17566 0.73352 0.0
C942 C 0.59156 0.2178 0.51271 0.0
C943 C 0.62503 0.18646 0.49152 0.0
N944 N 0.5967 0.19422 0.53374 0.0
N945 N 0.6173 0.17471 0.52021 0.0
N946 N 0.60905 0.21342 0.4863 0.0
H947 H 0.54784 0.23729 0.5294 0.0
H948 H 0.56477 0.25781 0.49564 0.0
H949 H 0.58189 0.26214 0.53435 0.0
C950 C 0.57016 0.24539 0.51816 0.0
C951 C 0.57816 0.13927 0.69474 0.0
H952 H 0.56674 0.14048 0.67152 0.0
H953 H 0.56085 0.13026 0.71208 0.0
H954 H 0.59786 0.12222 0.69271 0.0
O955 O 0.61417 0.14539 0.63305 0.0
O956 O 0.61144 0.14446 0.58124 0.0
C957 C 0.53426 0.16917 0.61017 0.0
O958 O 0.63688 0.2131 0.58347 0.0
O959 O 0.6451 0.2097 0.63434 0.0
Zn960 Zn 0.53348 0.8479 0.3855 0.0
O961 O 0.54932 0.79946 0.38508 0.0
C962 C 0.59579 0.86745 0.35717 0.0
Zn963 Zn 0.53443 0.84238 0.33284 0.0
C964 C 0.55707 0.78426 0.36018 0.0
O965 O 0.55419 0.7971 0.33303 0.0
C966 C 0.50694 0.90387 0.35729 0.0
O967 O 0.48812 0.82175 0.33691 0.0
O968 O 0.48725 0.83107 0.38811 0.0
N969 N 0.53205 0.84668 0.28372 0.0
C970 C 0.50846 0.84155 0.2627 0.0
C971 C 0.53983 0.875 0.24151 0.0
N972 N 0.55157 0.86727 0.27019 0.0
N973 N 0.51285 0.85904 0.23628 0.0
C974 C 0.55578 0.8416 0.45485 0.0
C975 C 0.52524 0.87379 0.47904 0.0
N976 N 0.5339 0.85128 0.43393 0.0
N977 N 0.51466 0.87094 0.44905 0.0
N978 N 0.55059 0.85502 0.48351 0.0
H979 H 0.58578 0.81677 0.42151 0.0
H980 H 0.59599 0.81087 0.46207 0.0
H981 H 0.60403 0.84789 0.4427 0.0
C982 C 0.58698 0.82818 0.44473 0.0
C983 C 0.48086 0.82017 0.26814 0.0
H984 H 0.48895 0.79784 0.27939 0.0
H985 H 0.46845 0.81478 0.24563 0.0
H986 H 0.46412 0.8319 0.28434 0.0
O987 O 0.5132 0.88689 0.33343 0.0
O988 O 0.51652 0.8951 0.38432 0.0
C989 C 0.474 0.82016 0.36353 0.0
O990 O 0.58085 0.86418 0.38303 0.0
O991 O 0.5818 0.8614 0.33123 0.0
Zn992 Zn 0.87835 0.78348 0.13551 0.0
O993 O 0.9268 0.79931 0.13507 0.0
C994 C 0.85879 0.84578 0.10718 0.0
Zn995 Zn 0.88386 0.78441 0.08285 0.0
C996 C 0.94199 0.80707 0.11018 0.0
O997 O 0.92913 0.8042 0.08303 0.0
C998 C 0.82238 0.75691 0.10733 0.0
O999 O 0.90451 0.73812 0.08693 0.0
O1000 O 0.89517 0.73725 0.13811 0.0
N1001 N 0.87955 0.78202 0.03374 0.0
C1002 C 0.88469 0.75844 0.01272 0.0
C1003 C 0.85122 0.78979 -0.00848 0.0
N1004 N 0.85895 0.80153 0.02021 0.0
N1005 N 0.8672 0.76283 0.9863 0.0
C1006 C 0.88467 0.80578 0.20486 0.0
C1007 C 0.85247 0.77524 0.22905 0.0
N1008 N 0.87498 0.78389 0.18394 0.0
N1009 N 0.85532 0.76466 0.19906 0.0
N1010 N 0.87124 0.80059 0.23352 0.0
H1011 H 0.9095 0.83577 0.17152 0.0
H1012 H 0.9154 0.84598 0.21208 0.0
H1013 H 0.87838 0.85403 0.19271 0.0
C1014 C 0.89809 0.83698 0.19474 0.0
C1015 C 0.90608 0.73085 0.01816 0.0
H1016 H 0.9284 0.73894 0.0294 0.0
H1017 H 0.91147 0.71843 -0.00436 0.0
H1018 H 0.89435 0.71411 0.03435 0.0
O1019 O 0.83937 0.76315 0.08347 0.0
O1020 O 0.83114 0.76655 0.13435 0.0
C1021 C 0.90609 0.724 0.11354 0.0
O1022 O 0.86208 0.83086 0.13305 0.0
O1023 O 0.86481 0.83178 0.08124 0.0
Zn1024 Zn 0.59075 0.94277 0.84789 0.0
O1025 O 0.59117 0.92692 0.79946 0.0
C1026 C 0.61909 0.88047 0.86744 0.0
Zn1027 Zn 0.64341 0.94183 0.84237 0.0
C1028 C 0.61606 0.91918 0.78425 0.0
O1029 O 0.64321 0.92207 0.79709 0.0
C1030 C 0.61896 0.96931 0.90386 0.0
O1031 O 0.63933 -0.01187 0.82175 0.0
O1032 O 0.58814 -0.01101 0.83105 0.0
N1033 N 0.69253 0.94422 0.84666 0.0
C1034 C 0.71354 0.96781 0.84153 0.0
C1035 C 0.73475 0.93644 0.87497 0.0
N1036 N 0.70607 0.9247 0.86724 0.0
N1037 N 0.73996 0.96342 0.85901 0.0
C1038 C 0.52143 0.92042 0.84164 0.0
C1039 C 0.49722 0.95102 0.87378 0.0
N1040 N 0.54233 0.94235 0.85127 0.0
N1041 N 0.5272 0.96162 0.87089 0.0
N1042 N 0.49278 0.9256 0.8551 0.0
H1043 H 0.55476 0.89042 0.81681 0.0
H1044 H 0.51421 0.88011 0.81101 0.0
H1045 H 0.53366 0.87221 0.84802 0.0
C1046 C 0.53157 0.8892 0.82827 0.0
C1047 C 0.70809 -0.00459 0.82016 0.0
H1048 H 0.69684 0.98733 0.79783 0.0
H1049 H 0.73061 0.00783 0.81476 0.0
H1050 H 0.69191 0.01216 0.8319 0.0
O1051 O 0.64282 0.96305 0.88688 0.0
O1052 O 0.59193 0.95974 0.89509 0.0
C1053 C 0.61272 0.00225 0.82015 0.0
O1054 O 0.59323 0.89541 0.86419 0.0
O1055 O 0.64503 0.89444 0.86138 0.0
Zn1056 Zn 0.78349 0.84073 0.59789 0.0
O1057 O 0.79932 0.84117 0.54944 0.0
C1058 C 0.84578 0.86905 0.61745 0.0
Zn1059 Zn 0.78442 0.89339 0.59238 0.0
C1060 C 0.80708 0.86606 0.53425 0.0
O1061 O 0.8042 0.89321 0.5471 0.0
C1062 C 0.75692 0.8689 0.65386 0.0
O1063 O 0.73813 0.88931 0.57173 0.0
O1064 O 0.73725 0.83813 0.58107 0.0
N1065 N 0.78203 0.9425 0.59669 0.0
C1066 C 0.75844 0.96352 0.59156 0.0
C1067 C 0.7898 0.98472 0.62502 0.0
N1068 N 0.80154 0.95603 0.61729 0.0
N1069 N 0.76283 -0.01006 0.60904 0.0
C1070 C 0.80578 0.77138 0.59157 0.0
C1071 C 0.77524 0.74719 0.62376 0.0
N1072 N 0.7839 0.7923 0.60126 0.0
N1073 N 0.76466 0.77718 0.62091 0.0
N1074 N 0.8006 0.74272 0.60499 0.0
H1075 H 0.83578 0.80472 0.56674 0.0
H1076 H 0.84599 0.76416 0.56084 0.0
H1077 H 0.85403 0.78353 0.59786 0.0
C1078 C 0.83698 0.7815 0.57815 0.0
C1079 C 0.73085 0.95808 0.57017 0.0
H1080 H 0.73894 0.94684 0.54785 0.0
H1081 H 0.71843 0.9806 0.56478 0.0
H1082 H 0.7141 0.94189 0.5819 0.0
O1083 O 0.76315 0.89276 0.63687 0.0
O1084 O 0.76655 0.84189 0.64509 0.0
C1085 C 0.724 0.8627 0.57015 0.0
O1086 O 0.83086 0.84318 0.61416 0.0
O1087 O 0.83179 0.895 0.61143 0.0
Zn1088 Zn 0.83283 0.03442 0.34237 0.0
O1089 O 0.83691 0.98812 0.32174 0.0
C1090 C 0.85728 0.00694 0.40386 0.0
Zn1091 Zn 0.88549 0.03348 0.34789 0.0
C1092 C 0.86352 0.974 0.32015 0.0
O1093 O 0.8881 0.98726 0.33105 0.0
C1094 C 0.85716 0.09578 0.36745 0.0
O1095 O 0.88507 0.04933 0.29945 0.0
O1096 O 0.83302 0.05418 0.29708 0.0
N1097 N 0.93391 0.0339 0.35127 0.0
C1098 C 0.95482 0.05582 0.34163 0.0
C1099 C 0.97903 0.02522 0.37378 0.0
N1100 N 0.94905 0.01463 0.37089 0.0
N1101 N 0.98346 0.05065 0.3551 0.0
C1102 C 0.7627 0.00844 0.34154 0.0
C1103 C 0.74149 0.0398 0.37498 0.0
N1104 N 0.78371 0.03203 0.34666 0.0
N1105 N 0.77017 0.05155 0.36725 0.0
N1106 N 0.73628 0.01283 0.35902 0.0
H1107 H 0.7794 -0.01108 0.29784 0.0
H1108 H 0.74563 0.96842 0.31476 0.0
H1109 H 0.78433 0.9641 0.3319 0.0
C1110 C 0.76815 0.98084 0.32016 0.0
C1111 C 0.94468 0.08704 0.32826 0.0
H1112 H 0.92148 0.08582 0.3168 0.0
H1113 H 0.96203 0.09612 0.31099 0.0
H1114 H 0.94259 0.10404 0.348 0.0
O1115 O 0.88302 0.08084 0.36419 0.0
O1116 O 0.83121 0.08181 0.36139 0.0
C1117 C 0.86018 0.05707 0.28425 0.0
O1118 O 0.83342 0.0132 0.38688 0.0
O1119 O 0.88431 0.01651 0.39508 0.0
Zn1120 Zn 0.69182 0.08284 0.09238 0.0
O1121 O 0.73813 0.08692 0.07175 0.0
C1122 C 0.71931 0.1073 0.15386 0.0
Zn1123 Zn 0.69277 0.13551 0.0979 0.0
C1124 C 0.75225 0.11353 0.07015 0.0
O1125 O 0.73899 0.13811 0.08106 0.0
C1126 C 0.63046 0.10717 0.11745 0.0
O1127 O 0.67692 0.13507 0.04945 0.0
O1128 O 0.67206 0.08303 0.04709 0.0
N1129 N 0.69235 0.18393 0.10128 0.0
C1130 C 0.67047 0.20485 0.09159 0.0
C1131 C 0.70101 0.22905 0.12379 0.0
N1132 N 0.71158 0.19906 0.12094 0.0
N1133 N 0.67565 0.23352 0.10502 0.0
C1134 C 0.7178 0.01271 0.09154 0.0
C1135 C 0.68644 -0.0085 0.12499 0.0
N1136 N 0.69421 0.03373 0.09667 0.0
N1137 N 0.67469 0.02019 0.11726 0.0
N1138 N 0.71341 0.98629 0.10903 0.0
H1139 H 0.73732 0.02941 0.04784 0.0
H1140 H 0.75782 -0.00436 0.06477 0.0
H1141 H 0.76214 0.03434 0.0819 0.0
C1142 C 0.7454 0.01815 0.07016 0.0
C1143 C 0.63927 0.19473 0.07817 0.0
H1144 H 0.64047 0.17151 0.06677 0.0
H1145 H 0.63026 0.21207 0.06086 0.0
H1146 H 0.62222 0.19271 0.09788 0.0
O1147 O 0.6454 0.13304 0.11419 0.0
O1148 O 0.64444 0.08123 0.1114 0.0
C1149 C 0.66918 0.11018 0.03425 0.0
O1150 O 0.71305 0.08344 0.13688 0.0
O1151 O 0.70973 0.13433 0.1451 0.0
Zn1152 Zn 0.6434 0.03442 0.63386 0.0
O1153 O 0.63933 -0.01187 0.65451 0.0
C1154 C 0.61891 0.00692 0.57237 0.0
Zn1155 Zn 0.59074 0.03349 0.62834 0.0
C1156 C 0.61271 0.97401 0.65609 0.0
O1157 O 0.58814 0.98726 0.64517 0.0
C1158 C 0.61906 0.09578 0.60878 0.0
O1159 O 0.59117 0.04933 0.67678 0.0
O1160 O 0.64321 0.0542 0.67913 0.0
N1161 N 0.54232 0.0339 0.62498 0.0
C1162 C 0.52142 0.05583 0.63461 0.0
C1163 C 0.4972 0.02522 0.60247 0.0
N1164 N 0.52718 0.01463 0.60536 0.0
N1165 N 0.49277 0.05065 0.62115 0.0
C1166 C 0.7135 0.00839 0.63454 0.0
C1167 C 0.73471 0.03989 0.60121 0.0
N1168 N 0.69251 0.03203 0.62955 0.0
N1169 N 0.70606 0.05164 0.60905 0.0
N1170 N 0.73987 0.01281 0.61699 0.0
H1171 H 0.69693 -0.0112 0.67825 0.0
H1172 H 0.73062 0.9683 0.66118 0.0
H1173 H 0.69186 0.96404 0.64416 0.0
C1174 C 0.7081 0.98075 0.65588 0.0
C1175 C 0.53156 0.08705 0.64798 0.0
H1176 H 0.55475 0.08582 0.65945 0.0
H1177 H 0.5142 0.09614 0.66524 0.0
H1178 H 0.53366 0.10404 0.62824 0.0
O1179 O 0.5932 0.08086 0.61206 0.0
O1180 O 0.64501 0.08179 0.61482 0.0
C1181 C 0.61606 0.05708 0.69198 0.0
O1182 O 0.64278 0.01315 0.58936 0.0
O1183 O 0.5919 0.01655 0.58114 0.0
Zn1184 Zn 0.69275 0.84072 0.37834 0.0
O1185 O 0.67692 0.84116 0.42678 0.0
C1186 C 0.63046 0.86904 0.35878 0.0
Zn1187 Zn 0.69183 0.89338 0.38386 0.0
C1188 C 0.66917 0.86605 0.44198 0.0
O1189 O 0.67205 0.8932 0.42913 0.0
C1190 C 0.71932 0.86889 0.32237 0.0
O1191 O 0.73812 0.88932 0.4045 0.0
O1192 O 0.73899 0.83814 0.39517 0.0
N1193 N 0.6942 0.9425 0.37954 0.0
C1194 C 0.71784 0.9635 0.38452 0.0
C1195 C 0.68633 0.98469 0.35119 0.0
N1196 N 0.67459 0.95603 0.35903 0.0
N1197 N 0.71341 -0.01014 0.36697 0.0
C1198 C 0.67045 0.77139 0.38466 0.0
C1199 C 0.70103 0.74718 0.35251 0.0
N1200 N 0.69235 0.7923 0.37498 0.0
N1201 N 0.7116 0.77717 0.35536 0.0
N1202 N 0.67565 0.74272 0.37125 0.0
H1203 H 0.64044 0.80472 0.40948 0.0
H1204 H 0.63013 0.76417 0.41527 0.0
H1205 H 0.62223 0.78361 0.37827 0.0
C1206 C 0.63922 0.78152 0.39802 0.0
C1207 C 0.74548 0.9581 0.40587 0.0
H1208 H 0.73743 0.94694 0.42824 0.0
H1209 H 0.75793 0.98062 0.41116 0.0
H1210 H 0.76218 0.94185 0.39416 0.0
O1211 O 0.71309 0.89276 0.33936 0.0
O1212 O 0.70969 0.84188 0.33114 0.0
C1213 C 0.75225 0.86271 0.40608 0.0
O1214 O 0.64539 0.84318 0.36206 0.0
O1215 O 0.64446 0.89499 0.36482 0.0
Zn1216 Zn 0.88551 0.94275 0.12834 0.0
O1217 O 0.88508 0.92692 0.17678 0.0
C1218 C 0.85718 0.88046 0.10878 0.0
Zn1219 Zn 0.83285 0.94182 0.13385 0.0
C1220 C 0.86018 0.91916 0.19197 0.0
O1221 O 0.83303 0.92204 0.17913 0.0
C1222 C 0.85734 0.96932 0.07237 0.0
O1223 O 0.83691 0.98811 0.1545 0.0
O1224 O 0.8881 -0.01101 0.14516 0.0
N1225 N 0.78373 0.9442 0.12953 0.0
C1226 C 0.76274 0.96784 0.13452 0.0
C1227 C 0.74154 0.93634 0.10119 0.0
N1228 N 0.77019 0.9246 0.10903 0.0
N1229 N 0.73637 0.96342 0.11697 0.0
C1230 C 0.95483 0.92042 0.13461 0.0
C1231 C 0.97904 0.95102 0.10247 0.0
N1232 N 0.93393 0.94234 0.12498 0.0
N1233 N 0.94906 0.96162 0.10536 0.0
N1234 N 0.98347 0.9256 0.12115 0.0
H1235 H 0.9215 0.89042 0.15945 0.0
H1236 H 0.96205 0.88011 0.16524 0.0
H1237 H 0.94259 0.8722 0.12824 0.0
C1238 C 0.94469 0.8892 0.14798 0.0
C1239 C 0.76814 -0.00452 0.15587 0.0
H1240 H 0.7793 0.98742 0.17825 0.0
H1241 H 0.74562 0.00793 0.16117 0.0
H1242 H 0.78438 0.01218 0.14416 0.0
O1243 O 0.83347 0.96308 0.08935 0.0
O1244 O 0.88435 0.95969 0.08114 0.0
C1245 C 0.86353 0.00224 0.15608 0.0
O1246 O 0.88305 0.89539 0.11206 0.0
O1247 O 0.83124 0.89445 0.11481 0.0
Zn1248 Zn 0.78442 0.08286 0.88385 0.0
O1249 O 0.73813 0.08692 0.9045 0.0
C1250 C 0.75692 0.10735 0.82237 0.0
Zn1251 Zn 0.78349 0.13552 0.87834 0.0
C1252 C 0.724 0.11354 0.90608 0.0
O1253 O 0.73726 0.13811 0.89516 0.0
C1254 C 0.84578 0.1072 0.85878 0.0
O1255 O 0.79933 0.13509 0.92678 0.0
O1256 O 0.8042 0.08305 0.92913 0.0
N1257 N 0.7839 0.18395 0.87498 0.0
C1258 C 0.8058 0.20486 0.88465 0.0
C1259 C 0.77522 0.22907 0.85251 0.0
N1260 N 0.76464 0.19908 0.85535 0.0
N1261 N 0.80059 0.23353 0.87125 0.0
C1262 C 0.7584 0.01275 0.88452 0.0
C1263 C 0.78991 -0.00844 0.85118 0.0
N1264 N 0.78204 0.03375 0.87953 0.0
N1265 N 0.80165 0.02021 0.85902 0.0
N1266 N 0.76283 0.98638 0.86696 0.0
H1267 H 0.73882 0.02931 0.92824 0.0
H1268 H 0.71831 -0.00438 0.91115 0.0
H1269 H 0.71406 0.03439 0.89416 0.0
C1270 C 0.73077 0.01814 0.90586 0.0
C1271 C 0.83702 0.19472 0.89801 0.0
H1272 H 0.83581 0.17153 0.90947 0.0
H1273 H 0.84612 0.21208 0.91527 0.0
H1274 H 0.85401 0.19263 0.87826 0.0
O1275 O 0.83086 0.13307 0.86206 0.0
O1276 O 0.83179 0.08126 0.86481 0.0
C1277 C 0.80708 0.11019 0.94197 0.0
O1278 O 0.76316 0.08349 0.83935 0.0
O1279 O 0.76655 0.13436 0.83114 0.0
Zn1280 Zn 0.84238 0.64339 0.94182 0.0
O1281 O 0.82173 0.63932 0.98811 0.0
C1282 C 0.90387 0.61891 0.96931 0.0
Zn1283 Zn 0.8479 0.59073 0.94274 0.0
C1284 C 0.82016 0.61271 0.00224 0.0
O1285 O 0.83108 0.58814 -0.01102 0.0
C1286 C 0.86745 0.61905 0.88045 0.0
O1287 O 0.79945 0.59116 0.92692 0.0
O1288 O 0.79711 0.6432 0.92204 0.0
N1289 N 0.85127 0.5423 0.94234 0.0
C1290 C 0.84159 0.52138 0.92046 0.0
C1291 C 0.87378 0.49719 0.951 0.0
N1292 N 0.87093 0.52718 0.96157 0.0
N1293 N 0.85501 0.49272 0.92564 0.0
C1294 C 0.84171 0.7135 0.96785 0.0
C1295 C 0.87504 0.7347 0.93635 0.0
N1296 N 0.84669 0.69251 0.94421 0.0
N1297 N 0.8672 0.70604 0.9246 0.0
N1298 N 0.85926 0.73986 0.96343 0.0
H1299 H 0.79799 0.69692 0.98744 0.0
H1300 H 0.81506 0.73061 0.00794 0.0
H1301 H 0.83208 0.69185 0.0122 0.0
C1302 C 0.82036 0.70809 -0.00451 0.0
C1303 C 0.82817 0.5315 0.88925 0.0
H1304 H 0.81674 0.55471 0.89046 0.0
H1305 H 0.81086 0.51415 0.88024 0.0
H1306 H 0.84787 0.53354 0.87221 0.0
O1307 O 0.86417 0.59319 0.89537 0.0
O1308 O 0.86142 0.64499 0.89445 0.0
C1309 C 0.78426 0.61606 0.91916 0.0
O1310 O 0.88688 0.64277 0.96309 0.0
O1311 O 0.89511 0.5919 0.95968 0.0
Zn1312 Zn 0.3479 0.88549 0.03347 0.0
O1313 O 0.29946 0.88506 0.04933 0.0
C1314 C 0.36746 0.85716 0.09579 0.0
Zn1315 Zn 0.34239 0.83283 0.03443 0.0
C1316 C 0.28426 0.86017 0.05707 0.0
O1317 O 0.2971 0.83302 0.05418 0.0
C1318 C 0.40387 0.85729 0.00694 0.0
O1319 O 0.32176 0.83691 -0.01188 0.0
O1320 O 0.33106 0.8881 0.98725 0.0
N1321 N 0.34669 0.78372 0.03204 0.0
C1322 C 0.34155 0.76269 0.00846 0.0
C1323 C 0.37501 0.7415 0.03982 0.0
N1324 N 0.36728 0.77018 0.05156 0.0
N1325 N 0.35904 0.73628 0.01285 0.0
C1326 C 0.34164 0.95482 0.05582 0.0
C1327 C 0.37378 0.97903 0.02522 0.0
N1328 N 0.35128 0.93392 0.0339 0.0
N1329 N 0.37089 0.94905 0.01462 0.0
N1330 N 0.3551 0.98346 0.05064 0.0
H1331 H 0.31681 0.92148 0.08582 0.0
H1332 H 0.31101 0.96203 0.09612 0.0
H1333 H 0.34802 0.94258 0.10404 0.0
C1334 C 0.32827 0.94467 0.08704 0.0
C1335 C 0.32017 0.76814 0.98086 0.0
H1336 H 0.29785 0.77939 -0.01105 0.0
H1337 H 0.31478 0.74562 0.96844 0.0
H1338 H 0.33191 0.78433 0.96412 0.0
O1339 O 0.3869 0.83343 0.0132 0.0
O1340 O 0.3951 0.88432 0.01651 0.0
C1341 C 0.32016 0.86352 0.974 0.0
O1342 O 0.3642 0.88302 0.08084 0.0
O1343 O 0.3614 0.83122 0.08181 0.0
Zn1344 Zn 0.84072 0.5979 0.78348 0.0
O1345 O 0.84115 0.54946 0.79932 0.0
C1346 C 0.86905 0.61746 0.84577 0.0
Zn1347 Zn 0.89338 0.59239 0.78441 0.0
C1348 C 0.86605 0.53426 0.80707 0.0
O1349 O 0.8932 0.54711 0.80419 0.0
C1350 C 0.8689 0.65386 0.75691 0.0
O1351 O 0.88931 0.57174 0.73812 0.0
O1352 O 0.83813 0.58107 0.73724 0.0
N1353 N 0.9425 0.5967 0.78203 0.0
C1354 C 0.96352 0.59156 0.75845 0.0
C1355 C 0.98471 0.62502 0.78981 0.0
N1356 N 0.95603 0.61729 0.80154 0.0
N1357 N -0.01006 0.60905 0.76284 0.0
C1358 C 0.77139 0.59159 0.80579 0.0
C1359 C 0.74718 0.62373 0.77521 0.0
N1360 N 0.7923 0.60126 0.78389 0.0
N1361 N 0.77717 0.62089 0.76464 0.0
N1362 N 0.74272 0.60499 0.80059 0.0
H1363 H 0.80472 0.56677 0.8358 0.0
H1364 H 0.76417 0.56097 0.84611 0.0
H1365 H 0.78361 0.59798 0.85401 0.0
C1366 C 0.78153 0.57823 0.83701 0.0
C1367 C 0.95809 0.57017 0.73086 0.0
H1368 H 0.94685 0.54784 0.73895 0.0
H1369 H 0.9806 0.56478 0.71844 0.0
H1370 H 0.94189 0.5819 0.71412 0.0
O1371 O 0.89277 0.63688 0.76315 0.0
O1372 O 0.84189 0.6451 0.76654 0.0
C1373 C 0.8627 0.57016 0.72399 0.0
O1374 O 0.84318 0.61418 0.83085 0.0
O1375 O 0.89499 0.61143 0.83178 0.0
Zn1376 Zn 0.12834 0.09075 0.53347 0.0
O1377 O 0.17678 0.09118 0.54932 0.0
C1378 C 0.10879 0.11908 0.59579 0.0
Zn1379 Zn 0.13386 0.14341 0.53442 0.0
C1380 C 0.19198 0.11607 0.55707 0.0
O1381 O 0.17914 0.14322 0.55418 0.0
C1382 C 0.07237 0.11895 0.50694 0.0
O1383 O 0.15449 0.13934 0.48812 0.0
O1384 O 0.14519 0.08814 0.48725 0.0
N1385 N 0.12956 0.19253 0.53204 0.0
C1386 C 0.13469 0.21355 0.50846 0.0
C1387 C 0.10124 0.23475 0.53982 0.0
N1388 N 0.10897 0.20606 0.55156 0.0
N1389 N 0.1172 0.23997 0.51285 0.0
C1390 C 0.13461 0.02143 0.55582 0.0
C1391 C 0.10247 -0.00279 0.52522 0.0
N1392 N 0.12497 0.04233 0.53389 0.0
N1393 N 0.10536 0.02719 0.51462 0.0
N1394 N 0.12115 -0.00722 0.55064 0.0
H1395 H 0.15944 0.05477 0.58582 0.0
H1396 H 0.16524 0.01422 0.59612 0.0
H1397 H 0.12823 0.03366 0.60404 0.0
C1398 C 0.14798 0.03157 0.58704 0.0
C1399 C 0.15607 0.20811 0.48086 0.0
H1400 H 0.1784 0.19686 0.48894 0.0
H1401 H 0.16146 0.23063 0.46844 0.0
H1402 H 0.14433 0.19192 0.46412 0.0
O1403 O 0.08935 0.14282 0.5132 0.0
O1404 O 0.08115 0.09192 0.51651 0.0
C1405 C 0.15609 0.11273 0.47399 0.0
O1406 O 0.11204 0.09322 0.58084 0.0
O1407 O 0.11485 0.14502 0.58181 0.0
Zn1408 Zn 0.13549 0.87835 0.78348 0.0
O1409 O 0.13506 0.92679 0.79933 0.0
C1410 C 0.10717 0.85879 0.84579 0.0
Zn1411 Zn 0.08283 0.88387 0.78442 0.0
C1412 C 0.11017 0.94199 0.80707 0.0
O1413 O 0.08302 0.92915 0.80418 0.0
C1414 C 0.10729 0.82238 0.75694 0.0
O1415 O 0.0869 0.9045 0.73812 0.0
O1416 O 0.13809 0.89519 0.73725 0.0
N1417 N 0.03371 0.87956 0.78205 0.0
C1418 C 0.01272 0.88454 0.7584 0.0
C1419 C -0.00848 0.85121 0.78991 0.0
N1420 N 0.02017 0.85906 0.80166 0.0
N1421 N 0.98635 0.86699 0.76282 0.0
C1422 C 0.20482 0.88461 0.80582 0.0
C1423 C 0.22903 0.85247 0.77522 0.0
N1424 N 0.18392 0.87498 0.78389 0.0
N1425 N 0.19905 0.85537 0.76462 0.0
N1426 N 0.23346 0.87115 0.80065 0.0
H1427 H 0.17148 0.90944 0.83582 0.0
H1428 H 0.21203 0.91525 0.84612 0.0
H1429 H 0.19258 0.87824 0.85404 0.0
C1430 C 0.19467 0.89799 0.83704 0.0
C1431 C 0.01812 0.90588 0.73076 0.0
H1432 H 0.02929 0.92825 0.73881 0.0
H1433 H -0.0044 0.91118 0.71831 0.0
H1434 H 0.03436 0.89416 0.71406 0.0
O1435 O 0.08343 0.83936 0.76319 0.0
O1436 O 0.13432 0.83115 0.76651 0.0
C1437 C 0.11351 0.90609 0.724 0.0
O1438 O 0.13303 0.86205 0.83084 0.0
O1439 O 0.08123 0.86485 0.8318 0.0
Zn1440 Zn 0.62834 0.38551 0.44274 0.0
O1441 O 0.67679 0.38508 0.42692 0.0
C1442 C 0.60879 0.35719 0.38044 0.0
Zn1443 Zn 0.63386 0.33286 0.44182 0.0
C1444 C 0.69199 0.36018 0.41916 0.0
O1445 O 0.67914 0.33304 0.42204 0.0
C1446 C 0.57238 0.35734 0.46931 0.0
O1447 O 0.65451 0.33692 0.48811 0.0
O1448 O 0.64516 0.38811 0.48898 0.0
N1449 N 0.62955 0.28374 0.4442 0.0
C1450 C 0.63454 0.26275 0.46785 0.0
C1451 C 0.6012 0.24154 0.43635 0.0
N1452 N 0.60904 0.2702 0.4246 0.0
N1453 N 0.61699 0.23638 0.46343 0.0
C1454 C 0.63466 0.45486 0.42046 0.0
C1455 C 0.60246 0.47905 0.45099 0.0
N1456 N 0.62497 0.43394 0.44234 0.0
N1457 N 0.60531 0.44906 0.46157 0.0
N1458 N 0.62123 0.48353 0.42564 0.0
H1459 H 0.6595 0.42153 0.39046 0.0
H1460 H 0.66539 0.46209 0.38025 0.0
H1461 H 0.62838 0.44272 0.37221 0.0
C1462 C 0.64808 0.44474 0.38926 0.0
C1463 C 0.65588 0.26815 0.49548 0.0
H1464 H 0.67825 0.27932 0.48743 0.0
H1465 H 0.66118 0.24563 0.50793 0.0
H1466 H 0.64417 0.28439 0.51219 0.0
O1467 O 0.58936 0.33348 0.46308 0.0
O1468 O 0.58114 0.38435 0.45967 0.0
C1469 C 0.65608 0.36353 0.50223 0.0
O1470 O 0.61207 0.38306 0.39537 0.0
O1471 O 0.61482 0.33125 0.39444 0.0
Zn1472 Zn 0.89338 0.38386 0.69182 0.0
O1473 O 0.88931 0.40451 0.73811 0.0
C1474 C 0.86889 0.32238 0.71932 0.0
Zn1475 Zn 0.84072 0.37835 0.69275 0.0
C1476 C 0.8627 0.40609 0.75223 0.0
O1477 O 0.83813 0.39517 0.73898 0.0
C1478 C 0.86904 0.35878 0.63045 0.0
O1479 O 0.84116 0.4268 0.67692 0.0
O1480 O 0.8932 0.42913 0.67203 0.0
N1481 N 0.79229 0.37498 0.69234 0.0
C1482 C 0.77137 0.38467 0.67045 0.0
C1483 C 0.74718 0.35248 0.701 0.0
N1484 N 0.77717 0.35533 0.71157 0.0
N1485 N 0.74271 0.37125 0.67564 0.0
C1486 C 0.96352 0.38468 0.71778 0.0
C1487 C 0.98471 0.35122 0.68643 0.0
N1488 N 0.94249 0.37954 0.6942 0.0
N1489 N 0.95602 0.35894 0.67469 0.0
N1490 N -0.01007 0.36719 0.71339 0.0
H1491 H 0.94684 0.4284 0.73728 0.0
H1492 H 0.9806 0.41146 0.75779 0.0
H1493 H 0.94189 0.39435 0.76212 0.0
C1494 C 0.95808 0.40608 0.74537 0.0
C1495 C 0.7815 0.39809 0.63925 0.0
H1496 H 0.80471 0.40951 0.64046 0.0
H1497 H 0.76415 0.4154 0.63025 0.0
H1498 H 0.78352 0.37838 0.62221 0.0
O1499 O 0.84318 0.36208 0.64538 0.0
O1500 O 0.89498 0.36481 0.64445 0.0
C1501 C 0.86606 0.44199 0.66916 0.0
O1502 O 0.89276 0.33937 0.71308 0.0
O1503 O 0.84188 0.33115 0.70968 0.0
Zn1504 Zn 0.58286 0.59239 0.19182 0.0
O1505 O 0.58693 0.57174 0.23811 0.0
C1506 C 0.60735 0.65386 0.21932 0.0
Zn1507 Zn 0.63552 0.5979 0.19275 0.0
C1508 C 0.61354 0.57016 0.25223 0.0
O1509 O 0.63811 0.58107 0.23898 0.0
C1510 C 0.6072 0.61747 0.13045 0.0
O1511 O 0.63508 0.54945 0.17691 0.0
O1512 O 0.58304 0.54712 0.17203 0.0
N1513 N 0.68395 0.60126 0.19234 0.0
C1514 C 0.70487 0.59157 0.17046 0.0
C1515 C 0.72906 0.62376 0.201 0.0
N1516 N 0.69907 0.62092 0.21157 0.0
N1517 N 0.73353 0.605 0.17565 0.0
C1518 C 0.51272 0.59157 0.21778 0.0
C1519 C 0.49154 0.62504 0.18643 0.0
N1520 N 0.53375 0.59671 0.1942 0.0
N1521 N 0.52022 0.61731 0.17469 0.0
N1522 N 0.48631 0.60906 0.21339 0.0
H1523 H 0.5294 0.54785 0.23727 0.0
H1524 H 0.49564 0.56479 0.25778 0.0
H1525 H 0.53435 0.5819 0.26211 0.0
C1526 C 0.51816 0.57018 0.24537 0.0
C1527 C 0.69475 0.57816 0.13925 0.0
H1528 H 0.67153 0.56674 0.14046 0.0
H1529 H 0.7121 0.56085 0.13024 0.0
H1530 H 0.69272 0.59787 0.12221 0.0
O1531 O 0.63307 0.61417 0.14538 0.0
O1532 O 0.58126 0.61144 0.14444 0.0
C1533 C 0.61018 0.53426 0.16916 0.0
O1534 O 0.58349 0.63688 0.21308 0.0
O1535 O 0.63436 0.6451 0.20968 0.0
Zn1536 Zn 0.53442 0.63386 0.83285 0.0
O1537 O 0.48813 0.65451 0.83693 0.0
C1538 C 0.50692 0.57238 0.85734 0.0
Zn1539 Zn 0.53349 0.62835 0.88551 0.0
C1540 C 0.474 0.65609 0.86354 0.0
O1541 O 0.48726 0.64517 0.88811 0.0
C1542 C 0.59579 0.60878 0.85718 0.0
O1543 O 0.54932 0.6768 0.88507 0.0
O1544 O 0.55421 0.67913 0.83303 0.0
N1545 N 0.5339 0.62498 0.93394 0.0
C1546 C 0.55579 0.63467 0.95486 0.0
C1547 C 0.52525 0.60248 0.97905 0.0
N1548 N 0.51467 0.60532 0.94906 0.0
N1549 N 0.5506 0.62124 0.98352 0.0
C1550 C 0.50844 0.63468 0.76272 0.0
C1551 C 0.53979 0.60122 0.74152 0.0
N1552 N 0.53202 0.62954 0.78374 0.0
N1553 N 0.55154 0.60895 0.77021 0.0
N1554 N 0.51283 0.61719 0.7363 0.0
H1555 H 0.48894 0.67839 0.7794 0.0
H1556 H 0.46843 0.66146 0.74564 0.0
H1557 H 0.4641 0.64434 0.78436 0.0
C1558 C 0.48085 0.65607 0.76816 0.0
C1559 C 0.58699 0.64809 0.94473 0.0
H1560 H 0.58578 0.6595 0.92152 0.0
H1561 H 0.596 0.6654 0.96208 0.0
H1562 H 0.60403 0.62838 0.94271 0.0
O1563 O 0.58086 0.61208 0.88305 0.0
O1564 O 0.58179 0.61481 0.83124 0.0
C1565 C 0.55708 0.69199 0.86018 0.0
O1566 O 0.51315 0.58937 0.83348 0.0
O1567 O 0.51655 0.58114 0.88435 0.0
Zn1568 Zn 0.5979 0.28348 0.1355 0.0
O1569 O 0.54946 0.29932 0.13507 0.0
C1570 C 0.61745 0.34578 0.10717 0.0
Zn1571 Zn 0.59238 0.28441 0.08284 0.0
C1572 C 0.53426 0.30707 0.11018 0.0
O1573 O 0.5471 0.30418 0.08303 0.0
C1574 C 0.65387 0.25693 0.1073 0.0
O1575 O 0.57174 0.23812 0.08691 0.0
O1576 O 0.58107 0.23725 0.1381 0.0
N1577 N 0.59668 0.28203 0.03372 0.0
C1578 C 0.5917 0.25838 0.01273 0.0
C1579 C 0.62501 0.28991 -0.00848 0.0
N1580 N 0.61717 0.30165 0.02017 0.0
N1581 N 0.60924 0.26281 0.98636 0.0
C1582 C 0.59159 0.30578 0.20485 0.0
C1583 C 0.62378 0.27524 0.22904 0.0
N1584 N 0.60128 0.2839 0.18393 0.0
N1585 N 0.62094 0.26466 0.19905 0.0
N1586 N 0.60502 0.30059 0.23351 0.0
H1587 H 0.56676 0.33578 0.17151 0.0
H1588 H 0.56087 0.346 0.21207 0.0
H1589 H 0.59789 0.35403 0.19269 0.0
C1590 C 0.57818 0.33698 0.19472 0.0
C1591 C 0.57037 0.23074 0.01814 0.0
H1592 H 0.54799 0.23878 0.02932 0.0
H1593 H 0.56507 0.21828 -0.00437 0.0
H1594 H 0.58209 0.21403 0.03438 0.0
O1595 O 0.63689 0.26318 0.08344 0.0
O1596 O 0.64511 0.26652 0.13433 0.0
C1597 C 0.57016 0.224 0.11352 0.0
O1598 O 0.61419 0.33085 0.13304 0.0
O1599 O 0.6114 0.33179 0.08123 0.0
Zn1600 Zn 0.94183 0.34238 0.33285 0.0
O1601 O 0.98812 0.32173 0.33692 0.0
C1602 C 0.96933 0.40387 0.35734 0.0
Zn1603 Zn 0.94275 0.3479 0.38551 0.0
C1604 C 0.00224 0.32016 0.36353 0.0
O1605 O -0.01101 0.33108 0.3881 0.0
C1606 C 0.88046 0.36746 0.35719 0.0
O1607 O 0.92693 0.29945 0.38507 0.0
O1608 O 0.92204 0.29711 0.33303 0.0
N1609 N 0.94235 0.35127 0.43394 0.0
C1610 C 0.92046 0.34158 0.45486 0.0
C1611 C 0.951 0.37377 0.47905 0.0
N1612 N 0.96158 0.37092 0.44906 0.0
N1613 N 0.92565 0.355 0.48352 0.0
C1614 C 0.96786 0.34172 0.26275 0.0
C1615 C 0.93636 0.37505 0.24154 0.0
N1616 N 0.94422 0.3467 0.28374 0.0
N1617 N 0.92461 0.36721 0.2702 0.0
N1618 N 0.96344 0.35927 0.23638 0.0
H1619 H 0.98745 0.298 0.27932 0.0
H1620 H 0.00795 0.31508 0.24563 0.0
H1621 H 0.01221 0.33208 0.2844 0.0
C1622 C -0.0045 0.32037 0.26815 0.0
C1623 C 0.88926 0.32816 0.44474 0.0
H1624 H 0.89047 0.31674 0.42152 0.0
H1625 H 0.88026 0.31085 0.46209 0.0
H1626 H 0.87222 0.34786 0.44271 0.0
O1627 O 0.89538 0.36417 0.38306 0.0
O1628 O 0.89446 0.36143 0.33125 0.0
C1629 C 0.91917 0.28426 0.36018 0.0
O1630 O 0.9631 0.38688 0.33348 0.0
O1631 O 0.95969 0.39511 0.38435 0.0
Zn1632 Zn 0.87835 0.69277 0.63549 0.0
O1633 O 0.92679 0.67692 0.63507 0.0
C1634 C 0.8588 0.63046 0.60716 0.0
Zn1635 Zn 0.88388 0.69183 0.58282 0.0
C1636 C 0.94199 0.66918 0.61018 0.0
O1637 O 0.92916 0.67207 0.58303 0.0
C1638 C 0.82238 0.71931 0.60728 0.0
O1639 O 0.9045 0.73813 0.5869 0.0
O1640 O 0.89519 0.73899 0.63809 0.0
N1641 N 0.87958 0.69421 0.53371 0.0
C1642 C 0.88456 0.71786 0.51272 0.0
C1643 C 0.85125 0.68634 0.4915 0.0
N1644 N 0.85909 0.6746 0.52016 0.0
N1645 N 0.86702 0.71344 0.48635 0.0
C1646 C 0.88461 0.67042 0.70481 0.0
C1647 C 0.85247 0.70102 0.72902 0.0
N1648 N 0.87497 0.69235 0.68391 0.0
N1649 N 0.85536 0.71162 0.69904 0.0
N1650 N 0.87114 0.6756 0.73345 0.0
H1651 H 0.90944 0.64042 0.67148 0.0
H1652 H 0.91523 0.63011 0.71203 0.0
H1653 H 0.87823 0.62221 0.69257 0.0
C1654 C 0.89798 0.6392 0.69467 0.0
C1655 C 0.90589 0.74551 0.51813 0.0
H1656 H 0.92826 0.73747 0.52931 0.0
H1657 H 0.9112 0.75796 0.49562 0.0
H1658 H 0.89416 0.76221 0.53437 0.0
O1659 O 0.83936 0.71305 0.58342 0.0
O1660 O 0.83115 0.70973 0.63431 0.0
C1661 C 0.90609 0.75225 0.61351 0.0
O1662 O 0.86205 0.6454 0.63302 0.0
O1663 O 0.86486 0.64445 0.58121 0.0
Zn1664 Zn 0.53441 0.34239 0.64339 0.0
O1665 O 0.48812 0.32173 0.63933 0.0
C1666 C 0.50691 0.40387 0.6189 0.0
Zn1667 Zn 0.53348 0.3479 0.59073 0.0
C1668 C 0.474 0.32015 0.61272 0.0
O1669 O 0.48725 0.33107 0.58814 0.0
C1670 C 0.59578 0.36747 0.61905 0.0
O1671 O 0.54931 0.29945 0.59117 0.0
O1672 O 0.5542 0.29711 0.64321 0.0
N1673 N 0.53389 0.35127 0.54231 0.0
C1674 C 0.5558 0.34161 0.5214 0.0
C1675 C 0.52523 0.3738 0.4972 0.0
N1676 N 0.51464 0.37091 0.52718 0.0
N1677 N 0.55063 0.3551 0.49276 0.0
C1678 C 0.50838 0.34171 0.7135 0.0
C1679 C 0.53988 0.37505 0.7347 0.0
N1680 N 0.53203 0.3467 0.69251 0.0
N1681 N 0.55163 0.36721 0.70605 0.0
N1682 N 0.5128 0.35926 0.73987 0.0
H1683 H 0.4888 0.29799 0.69693 0.0
H1684 H 0.4683 0.31507 0.73062 0.0
H1685 H 0.46404 0.33208 0.69185 0.0
C1686 C 0.48075 0.32037 0.7081 0.0
C1687 C 0.58699 0.32819 0.53152 0.0
H1688 H 0.58577 0.31676 0.55473 0.0
H1689 H 0.596 0.31088 0.51417 0.0
H1690 H 0.60404 0.34789 0.53356 0.0
O1691 O 0.58085 0.36418 0.59319 0.0
O1692 O 0.58178 0.36144 0.64499 0.0
C1693 C 0.55707 0.28426 0.61607 0.0
O1694 O 0.51314 0.38688 0.64277 0.0
O1695 O 0.51654 0.3951 0.59189 0.0
Zn1696 Zn 0.87834 0.28348 0.84074 0.0
O1697 O 0.92678 0.29933 0.84116 0.0
C1698 C 0.85879 0.34579 0.86907 0.0
Zn1699 Zn 0.88386 0.28443 0.8934 0.0
C1700 C 0.94198 0.30707 0.86605 0.0
O1701 O 0.92914 0.30418 0.8932 0.0
C1702 C 0.82237 0.25694 0.86895 0.0
O1703 O 0.90448 0.23812 0.88933 0.0
O1704 O 0.89518 0.23726 0.83813 0.0
N1705 N 0.87957 0.28204 0.94252 0.0
C1706 C 0.8847 0.25846 0.96354 0.0
C1707 C 0.85125 0.28982 0.98474 0.0
N1708 N 0.85898 0.30156 0.95606 0.0
N1709 N 0.86721 0.26285 -0.01004 0.0
C1710 C 0.88459 0.30583 0.77142 0.0
C1711 C 0.85245 0.27523 0.74721 0.0
N1712 N 0.87496 0.2839 0.79232 0.0
N1713 N 0.85534 0.26463 0.77719 0.0
N1714 N 0.87113 0.30065 0.74278 0.0
H1715 H 0.90943 0.33583 0.80476 0.0
H1716 H 0.91523 0.34613 0.76421 0.0
H1717 H 0.87822 0.35404 0.78365 0.0
C1718 C 0.89796 0.33705 0.78156 0.0
C1719 C 0.90608 0.23086 0.95809 0.0
H1720 H 0.9284 0.23894 0.94684 0.0
H1721 H 0.91147 0.21844 0.98061 0.0
H1722 H 0.89434 0.21411 0.94191 0.0
O1723 O 0.83935 0.26321 0.89281 0.0
O1724 O 0.83114 0.26651 0.84192 0.0
C1725 C 0.90608 0.224 0.86271 0.0
O1726 O 0.86204 0.33084 0.84322 0.0
O1727 O 0.86485 0.33181 0.89502 0.0
Zn1728 Zn 0.94277 0.62835 0.09074 0.0
O1729 O 0.92694 0.67679 0.09118 0.0
C1730 C 0.88047 0.60877 0.11905 0.0
Zn1731 Zn 0.94184 0.63386 0.1434 0.0
C1732 C 0.91918 0.69198 0.11607 0.0
O1733 O 0.92205 0.67913 0.14322 0.0
C1734 C 0.96934 0.57238 0.11891 0.0
O1735 O -0.01187 0.65451 0.13933 0.0
O1736 O -0.011 0.64517 0.08814 0.0
N1737 N 0.94422 0.62954 0.19251 0.0
C1738 C 0.96787 0.63453 0.2135 0.0
C1739 C 0.93636 0.60119 0.23471 0.0
N1740 N 0.92462 0.60903 0.20605 0.0
N1741 N 0.96345 0.61698 0.23987 0.0
C1742 C 0.92045 0.63463 0.0214 0.0
C1743 C 0.95101 0.60244 -0.00279 0.0
N1744 N 0.94236 0.62498 0.04231 0.0
N1745 N 0.96161 0.60533 0.02719 0.0
N1746 N 0.92561 0.62115 -0.00723 0.0
H1747 H 0.89047 0.65948 0.05474 0.0
H1748 H 0.88025 0.66536 0.01418 0.0
H1749 H 0.8722 0.62835 0.03356 0.0
C1750 C 0.88925 0.64806 0.03153 0.0
C1751 C -0.0045 0.65588 0.2081 0.0
H1752 H 0.98745 0.67825 0.19693 0.0
H1753 H 0.00795 0.66118 0.23062 0.0
H1754 H 0.01221 0.64417 0.19186 0.0
O1755 O 0.96311 0.58936 0.14277 0.0
O1756 O 0.9597 0.58114 0.0919 0.0
C1757 C 0.00225 0.65609 0.11272 0.0
O1758 O 0.8954 0.61207 0.09319 0.0
O1759 O 0.89446 0.61481 0.145 0.0
Zn1760 Zn 0.59791 0.69277 0.34074 0.0
O1761 O 0.54947 0.67692 0.34116 0.0
C1762 C 0.61746 0.63046 0.36907 0.0
Zn1763 Zn 0.59239 0.69182 0.39341 0.0
C1764 C 0.53427 0.66917 0.36605 0.0
O1765 O 0.5471 0.67206 0.3932 0.0
C1766 C 0.65388 0.7193 0.36896 0.0
O1767 O 0.57176 0.73812 0.38933 0.0
O1768 O 0.58106 0.73899 0.33814 0.0
N1769 N 0.59668 0.6942 0.44252 0.0
C1770 C 0.59155 0.71779 0.46354 0.0
C1771 C 0.62499 0.68642 0.48474 0.0
N1772 N 0.61726 0.67468 0.45606 0.0
N1773 N 0.60903 0.7134 0.48996 0.0
C1774 C 0.59165 0.67042 0.27142 0.0
C1775 C 0.62379 0.70102 0.24721 0.0
N1776 N 0.60129 0.69235 0.29232 0.0
N1777 N 0.6209 0.71162 0.27719 0.0
N1778 N 0.60511 0.6756 0.24278 0.0
H1779 H 0.56682 0.64042 0.30476 0.0
H1780 H 0.56102 0.63011 0.26421 0.0
H1781 H 0.59803 0.6222 0.28365 0.0
C1782 C 0.57828 0.6392 0.28156 0.0
C1783 C 0.57017 0.74539 0.4581 0.0
H1784 H 0.54785 0.7373 0.44684 0.0
H1785 H 0.56477 0.7578 0.48061 0.0
H1786 H 0.58191 0.76213 0.44191 0.0
O1787 O 0.6369 0.71304 0.39281 0.0
O1788 O 0.6451 0.70974 0.34192 0.0
C1789 C 0.57016 0.75224 0.36272 0.0
O1790 O 0.61421 0.64541 0.34322 0.0
O1791 O 0.6114 0.64444 0.39502 0.0
Zn1792 Zn 0.83286 0.53443 0.63384 0.0
O1793 O 0.83692 0.48813 0.65449 0.0
C1794 C 0.85734 0.50693 0.57237 0.0
Zn1795 Zn 0.88552 0.53349 0.62834 0.0
C1796 C 0.86353 0.474 0.65607 0.0
O1797 O 0.88811 0.48725 0.64516 0.0
C1798 C 0.8572 0.59579 0.60877 0.0
O1799 O 0.88507 0.54932 0.67679 0.0
O1800 O 0.83303 0.55421 0.67912 0.0
N1801 N 0.93394 0.5339 0.62497 0.0
C1802 C 0.95486 0.55578 0.63466 0.0
C1803 C 0.97906 0.52524 0.60246 0.0
N1804 N 0.94907 0.51466 0.60531 0.0
N1805 N 0.98353 0.55059 0.62123 0.0
C1806 C 0.76271 0.50847 0.63466 0.0
C1807 C 0.74153 0.53982 0.60119 0.0
N1808 N 0.78374 0.53204 0.62952 0.0
N1809 N 0.77022 0.55156 0.60892 0.0
N1810 N 0.7363 0.51286 0.61717 0.0
H1811 H 0.77939 0.48897 0.67838 0.0
H1812 H 0.74563 0.46846 0.66144 0.0
H1813 H 0.78434 0.46413 0.64433 0.0
C1814 C 0.76815 0.48088 0.65606 0.0
C1815 C 0.94474 0.58698 0.64808 0.0
H1816 H 0.92153 0.58577 0.65949 0.0
H1817 H 0.96209 0.59598 0.66539 0.0
H1818 H 0.94272 0.60403 0.62837 0.0
O1819 O 0.88307 0.58086 0.61206 0.0
O1820 O 0.83125 0.5818 0.6148 0.0
C1821 C 0.86018 0.55708 0.69197 0.0
O1822 O 0.83348 0.51316 0.58935 0.0
O1823 O 0.88436 0.51655 0.58113 0.0
Zn1824 Zn 0.69182 0.58283 0.88385 0.0
O1825 O 0.73812 0.58691 0.90447 0.0
C1826 C 0.7193 0.60728 0.82236 0.0
Zn1827 Zn 0.69277 0.63549 0.87833 0.0
C1828 C 0.75225 0.61352 0.90607 0.0
O1829 O 0.73899 0.6381 0.89517 0.0
C1830 C 0.63046 0.60716 0.85878 0.0
O1831 O 0.67692 0.63508 0.92677 0.0
O1832 O 0.67206 0.58303 0.92913 0.0
N1833 N 0.69235 0.68392 0.87495 0.0
C1834 C 0.67042 0.70482 0.88459 0.0
C1835 C 0.70102 0.72903 0.85245 0.0
N1836 N 0.71162 0.69905 0.85534 0.0
N1837 N 0.6756 0.73346 0.87113 0.0
C1838 C 0.71779 0.51269 0.88469 0.0
C1839 C 0.68642 0.4915 0.85124 0.0
N1840 N 0.6942 0.53372 0.87956 0.0
N1841 N 0.67468 0.52018 0.85897 0.0
N1842 N 0.7134 0.48628 0.8672 0.0
H1843 H 0.7373 0.52939 0.92839 0.0
H1844 H 0.7578 0.49562 0.91146 0.0
H1845 H 0.76213 0.53433 0.89433 0.0
C1846 C 0.74538 0.51814 0.90607 0.0
C1847 C 0.63921 0.69468 0.89796 0.0
H1848 H 0.64043 0.67148 0.90942 0.0
H1849 H 0.63012 0.71203 0.91522 0.0
H1850 H 0.62221 0.69258 0.87822 0.0
O1851 O 0.6454 0.63302 0.86203 0.0
O1852 O 0.64444 0.58122 0.86484 0.0
C1853 C 0.66917 0.61018 0.94197 0.0
O1854 O 0.71304 0.58342 0.83934 0.0
O1855 O 0.70973 0.63432 0.83114 0.0
Zn1856 Zn 0.59073 0.44276 0.12833 0.0
O1857 O 0.59116 0.42692 0.17678 0.0
C1858 C 0.61905 0.38046 0.10877 0.0
Zn1859 Zn 0.64339 0.44182 0.13384 0.0
C1860 C 0.61605 0.41917 0.19197 0.0
O1861 O 0.6432 0.42204 0.17912 0.0
C1862 C 0.6189 0.46932 0.07237 0.0
O1863 O 0.63932 0.48812 0.15449 0.0
O1864 O 0.58813 0.48899 0.14516 0.0
N1865 N 0.6925 0.44421 0.12953 0.0
C1866 C 0.71353 0.46778 0.13467 0.0
C1867 C 0.73471 0.43643 0.10121 0.0
N1868 N 0.70603 0.42469 0.10894 0.0
N1869 N 0.73994 0.46339 0.11718 0.0
C1870 C 0.52139 0.42044 0.13464 0.0
C1871 C 0.49718 0.45102 0.1025 0.0
N1872 N 0.5423 0.44234 0.12497 0.0
N1873 N 0.52717 0.4616 0.10534 0.0
N1874 N 0.49272 0.42565 0.12124 0.0
H1875 H 0.55473 0.39043 0.15946 0.0
H1876 H 0.51418 0.38013 0.16527 0.0
H1877 H 0.53362 0.37223 0.12826 0.0
C1878 C 0.53153 0.38922 0.148 0.0
C1879 C 0.70809 0.49538 0.15606 0.0
H1880 H 0.69685 0.48728 0.17839 0.0
H1881 H 0.73061 0.50779 0.16145 0.0
H1882 H 0.6919 0.51212 0.14433 0.0
O1883 O 0.64277 0.46308 0.08935 0.0
O1884 O 0.59189 0.4597 0.08113 0.0
C1885 C 0.61271 0.50224 0.15607 0.0
O1886 O 0.59319 0.39539 0.11205 0.0
O1887 O 0.645 0.39445 0.11481 0.0
Zn1888 Zn 0.78442 0.3934 0.38385 0.0
O1889 O 0.73813 0.38933 0.40449 0.0
C1890 C 0.75692 0.36892 0.32237 0.0
Zn1891 Zn 0.78349 0.34074 0.37834 0.0
C1892 C 0.724 0.36272 0.40608 0.0
O1893 O 0.73725 0.33814 0.39517 0.0
C1894 C 0.84578 0.36907 0.35878 0.0
O1895 O 0.79932 0.34117 0.42678 0.0
O1896 O 0.8042 0.39321 0.42913 0.0
N1897 N 0.7839 0.29232 0.37497 0.0
C1898 C 0.80582 0.27142 0.38461 0.0
C1899 C 0.77522 0.24721 0.35247 0.0
N1900 N 0.76463 0.27719 0.35536 0.0
N1901 N 0.80064 0.24277 0.37115 0.0
C1902 C 0.75846 0.46354 0.38468 0.0
C1903 C 0.78981 0.48473 0.35121 0.0
N1904 N 0.78204 0.44251 0.37954 0.0
N1905 N 0.80155 0.45604 0.35894 0.0
N1906 N 0.76285 0.48995 0.36719 0.0
H1907 H 0.73896 0.44686 0.42839 0.0
H1908 H 0.71845 0.48062 0.41146 0.0
H1909 H 0.71412 0.4419 0.39434 0.0
C1910 C 0.73086 0.4581 0.40607 0.0
C1911 C 0.83704 0.28156 0.39798 0.0
H1912 H 0.83582 0.30475 0.40945 0.0
H1913 H 0.84613 0.2642 0.41524 0.0
H1914 H 0.85404 0.28366 0.37824 0.0
O1915 O 0.83085 0.3432 0.36206 0.0
O1916 O 0.8318 0.39501 0.36481 0.0
C1917 C 0.80708 0.36606 0.44197 0.0
O1918 O 0.76316 0.39278 0.33935 0.0
O1919 O 0.76654 0.3419 0.33114 0.0
Zn1920 Zn 0.83283 0.44182 0.84238 0.0
O1921 O 0.8369 0.48812 0.82174 0.0
C1922 C 0.8573 0.46931 0.90386 0.0
Zn1923 Zn 0.8855 0.44276 0.8479 0.0
C1924 C 0.86351 0.50225 0.82015 0.0
O1925 O 0.88809 0.48899 0.83106 0.0
C1926 C 0.85718 0.38046 0.86745 0.0
O1927 O 0.88506 0.42692 0.79945 0.0
O1928 O 0.83302 0.42205 0.79709 0.0
N1929 N 0.93393 0.44235 0.85127 0.0
C1930 C 0.95485 0.42047 0.84158 0.0
C1931 C 0.97904 0.45101 0.87378 0.0
N1932 N 0.94905 0.46159 0.87093 0.0
N1933 N 0.98351 0.42566 0.85501 0.0
C1934 C 0.76272 0.46784 0.8417 0.0
C1935 C 0.74152 0.43632 0.87503 0.0
N1936 N 0.78372 0.44419 0.84669 0.0
N1937 N 0.77018 0.42458 0.86719 0.0
N1938 N 0.73636 0.46341 0.85925 0.0
H1939 H 0.77929 0.48743 0.79799 0.0
H1940 H 0.7456 0.50793 0.81507 0.0
H1941 H 0.78437 0.51218 0.83208 0.0
C1942 C 0.76812 0.49548 0.82036 0.0
C1943 C 0.94473 0.38927 0.82816 0.0
H1944 H 0.92151 0.39047 0.81676 0.0
H1945 H 0.96207 0.38027 0.81085 0.0
H1946 H 0.94271 0.37222 0.84787 0.0
O1947 O 0.88304 0.3954 0.86418 0.0
O1948 O 0.83123 0.39444 0.8614 0.0
C1949 C 0.86017 0.41917 0.78425 0.0
O1950 O 0.83344 0.46305 0.88688 0.0
O1951 O 0.88433 0.45972 0.8951 0.0
Zn1952 Zn 0.78443 0.58282 0.09237 0.0
O1953 O 0.73813 0.5869 0.07174 0.0
C1954 C 0.75695 0.60728 0.15386 0.0
Zn1955 Zn 0.78349 0.63549 0.0979 0.0
C1956 C 0.72401 0.61351 0.07015 0.0
O1957 O 0.73727 0.63809 0.08105 0.0
C1958 C 0.84579 0.60716 0.11745 0.0
O1959 O 0.79934 0.63506 0.04946 0.0
O1960 O 0.80419 0.58302 0.04709 0.0
N1961 N 0.78391 0.68391 0.10127 0.0
C1962 C 0.80583 0.70481 0.09163 0.0
C1963 C 0.77523 0.72902 0.12377 0.0
N1964 N 0.76463 0.69904 0.12089 0.0
N1965 N 0.80065 0.73345 0.10509 0.0
C1966 C 0.75839 0.51272 0.09169 0.0
C1967 C 0.78991 0.4915 0.12501 0.0
N1968 N 0.78205 0.5337 0.09667 0.0
N1969 N 0.80166 0.52016 0.11717 0.0
N1970 N 0.76281 0.48635 0.10924 0.0
H1971 H 0.7388 0.52931 0.04798 0.0
H1972 H 0.7183 0.49561 0.06505 0.0
H1973 H 0.71404 0.53436 0.08208 0.0
C1974 C 0.73075 0.51813 0.07035 0.0
C1975 C 0.83705 0.69467 0.07826 0.0
H1976 H 0.83582 0.67147 0.0668 0.0
H1977 H 0.84613 0.71202 0.06099 0.0
H1978 H 0.85405 0.69258 0.098 0.0
O1979 O 0.83085 0.63302 0.1142 0.0
O1980 O 0.83181 0.58121 0.11139 0.0
C1981 C 0.80708 0.61017 0.03425 0.0
O1982 O 0.7632 0.58342 0.13688 0.0
O1983 O 0.76652 0.63431 0.14509 0.0
Zn1984 Zn 0.59074 0.53348 0.3479 0.0
O1985 O 0.59118 0.54932 0.29945 0.0
C1986 C 0.61907 0.59578 0.36745 0.0
Zn1987 Zn 0.64341 0.53442 0.34237 0.0
C1988 C 0.61607 0.55707 0.28425 0.0
O1989 O 0.64322 0.55419 0.29709 0.0
C1990 C 0.61894 0.50694 0.40386 0.0
O1991 O 0.63934 0.48812 0.32174 0.0
O1992 O 0.58815 0.48726 0.33106 0.0
N1993 N 0.69253 0.53204 0.34667 0.0
C1994 C 0.71352 0.50839 0.34169 0.0
C1995 C 0.73472 0.53991 0.37501 0.0
N1996 N 0.70607 0.55166 0.36717 0.0
N1997 N 0.73988 0.51282 0.35924 0.0
C1998 C 0.5214 0.55578 0.34158 0.0
C1999 C 0.49721 0.52524 0.37378 0.0
N2000 N 0.54232 0.53389 0.35127 0.0
N2001 N 0.52719 0.51466 0.37093 0.0
N2002 N 0.49273 0.55059 0.35501 0.0
H2003 H 0.55474 0.58578 0.31676 0.0
H2004 H 0.51417 0.59598 0.31085 0.0
H2005 H 0.53354 0.60403 0.34787 0.0
C2006 C 0.53152 0.58698 0.32816 0.0
C2007 C 0.70811 0.48075 0.32036 0.0
H2008 H 0.69693 0.4888 0.29799 0.0
H2009 H 0.73063 0.4683 0.31506 0.0
H2010 H 0.69187 0.46404 0.33208 0.0
O2011 O 0.6428 0.51319 0.38688 0.0
O2012 O 0.59192 0.51653 0.39509 0.0
C2013 C 0.61272 0.474 0.32015 0.0
O2014 O 0.5932 0.58085 0.36418 0.0
O2015 O 0.64501 0.5818 0.3614 0.0
Zn2016 Zn 0.69182 0.39342 0.59237 0.0
O2017 O 0.73812 0.38935 0.57174 0.0
C2018 C 0.7193 0.36896 0.65386 0.0
Zn2019 Zn 0.69276 0.34076 0.59789 0.0
C2020 C 0.75224 0.36273 0.57014 0.0
O2021 O 0.73898 0.33816 0.58105 0.0
C2022 C 0.63045 0.36909 0.61745 0.0
O2023 O 0.67691 0.34118 0.54945 0.0
O2024 O 0.67205 0.39323 0.54708 0.0
N2025 N 0.69234 0.29234 0.60126 0.0
C2026 C 0.67042 0.27143 0.59163 0.0
C2027 C 0.70102 0.24722 0.62377 0.0
N2028 N 0.71161 0.27721 0.62088 0.0
N2029 N 0.6756 0.24279 0.60509 0.0
C2030 C 0.71785 0.46353 0.59168 0.0
C2031 C 0.68634 0.48474 0.625 0.0
N2032 N 0.6942 0.44254 0.59666 0.0
N2033 N 0.67459 0.45609 0.61716 0.0
N2034 N 0.71343 0.4899 0.60922 0.0
H2035 H 0.73745 0.44693 0.54798 0.0
H2036 H 0.75795 0.48063 0.56504 0.0
H2037 H 0.7622 0.44188 0.58207 0.0
C2038 C 0.74549 0.45812 0.57035 0.0
C2039 C 0.6392 0.28157 0.57825 0.0
H2040 H 0.64042 0.30477 0.5668 0.0
H2041 H 0.63012 0.26422 0.56099 0.0
H2042 H 0.6222 0.28366 0.59799 0.0
O2043 O 0.64539 0.34322 0.61419 0.0
O2044 O 0.64443 0.39503 0.61138 0.0
C2045 C 0.66917 0.36608 0.53425 0.0
O2046 O 0.71304 0.39282 0.63688 0.0
O2047 O 0.70972 0.34193 0.64509 0.0
Zn2048 Zn 0.62834 0.8855 0.53347 0.0
O2049 O 0.67679 0.88506 0.54931 0.0
C2050 C 0.60878 0.85718 0.59578 0.0
Zn2051 Zn 0.63386 0.83283 0.53442 0.0
C2052 C 0.69199 0.86017 0.55707 0.0
O2053 O 0.67914 0.83302 0.55419 0.0
C2054 C 0.57237 0.85731 0.50693 0.0
O2055 O 0.6545 0.8369 0.48812 0.0
O2056 O 0.64518 0.88809 0.48725 0.0
N2057 N 0.62955 0.78372 0.53204 0.0
C2058 C 0.63453 0.76272 0.5084 0.0
C2059 C 0.6012 0.74152 0.53991 0.0
N2060 N 0.60904 0.77018 0.55165 0.0
N2061 N 0.61698 0.73636 0.51283 0.0
C2062 C 0.63463 0.95483 0.55579 0.0
C2063 C 0.60245 0.97903 0.52523 0.0
N2064 N 0.62497 0.93392 0.53388 0.0
N2065 N 0.60533 0.94905 0.51463 0.0
N2066 N 0.62115 0.98347 0.55063 0.0
H2067 H 0.65947 0.92149 0.58578 0.0
H2068 H 0.66536 0.96205 0.596 0.0
H2069 H 0.62834 0.94267 0.60404 0.0
C2070 C 0.64805 0.9447 0.58699 0.0
C2071 C 0.65587 0.76812 0.48076 0.0
H2072 H 0.67825 0.77929 0.48881 0.0
H2073 H 0.66117 0.7456 0.46831 0.0
H2074 H 0.64416 0.78437 0.46406 0.0
O2075 O 0.58935 0.83344 0.51318 0.0
O2076 O 0.58114 0.88433 0.51651 0.0
C2077 C 0.65609 0.86351 0.47399 0.0
O2078 O 0.61205 0.88304 0.58084 0.0
O2079 O 0.61483 0.83124 0.5818 0.0
Zn2080 Zn 0.12835 0.59073 0.44275 0.0
O2081 O 0.1768 0.59116 0.42692 0.0
C2082 C 0.1088 0.61905 0.38046 0.0
Zn2083 Zn 0.13387 0.64339 0.44183 0.0
C2084 C 0.192 0.61605 0.41917 0.0
O2085 O 0.17915 0.6432 0.42205 0.0
C2086 C 0.07239 0.6189 0.46932 0.0
O2087 O 0.15452 0.63932 0.48812 0.0
O2088 O 0.14518 0.58813 0.48899 0.0
N2089 N 0.12957 0.6925 0.44422 0.0
C2090 C 0.13455 0.71349 0.46786 0.0
C2091 C 0.10123 0.7347 0.43635 0.0
N2092 N 0.10906 0.70605 0.42461 0.0
N2093 N 0.117 0.73986 0.46344 0.0
C2094 C 0.13466 0.52139 0.42044 0.0
C2095 C 0.10251 0.49718 0.45102 0.0
N2096 N 0.12499 0.5423 0.44234 0.0
N2097 N 0.10536 0.52717 0.46159 0.0
N2098 N 0.12126 0.49272 0.42565 0.0
H2099 H 0.15949 0.55472 0.39043 0.0
H2100 H 0.16529 0.51417 0.38013 0.0
H2101 H 0.12828 0.53362 0.37223 0.0
C2102 C 0.14803 0.53153 0.38922 0.0
C2103 C 0.15589 0.70809 0.4955 0.0
H2104 H 0.17827 0.69692 0.48745 0.0
H2105 H 0.16119 0.73061 0.50795 0.0
H2106 H 0.14418 0.69185 0.51221 0.0
O2107 O 0.08938 0.64277 0.46309 0.0
O2108 O 0.08115 0.59189 0.45969 0.0
C2109 C 0.1561 0.61271 0.50224 0.0
O2110 O 0.11208 0.59319 0.39539 0.0
O2111 O 0.11484 0.645 0.39446 0.0
Zn2112 Zn 0.63549 0.87834 0.69276 0.0
O2113 O 0.63507 0.92678 0.67691 0.0
C2114 C 0.60716 0.85879 0.63046 0.0
Zn2115 Zn 0.58283 0.88387 0.69182 0.0
C2116 C 0.61017 0.94199 0.66917 0.0
O2117 O 0.58302 0.92916 0.67206 0.0
C2118 C 0.60729 0.82238 0.7193 0.0
O2119 O 0.5869 0.9045 0.73812 0.0
O2120 O 0.6381 0.89519 0.73898 0.0
N2121 N 0.53371 0.87957 0.6942 0.0
C2122 C 0.51272 0.88455 0.71786 0.0
C2123 C 0.49151 0.85123 0.68634 0.0
N2124 N 0.52016 0.85908 0.67459 0.0
N2125 N 0.48636 0.867 0.71344 0.0
C2126 C 0.70482 0.88461 0.67041 0.0
C2127 C 0.72903 0.85246 0.70101 0.0
N2128 N 0.68392 0.87497 0.69234 0.0
N2129 N 0.69905 0.85535 0.71161 0.0
N2130 N 0.73346 0.87114 0.67559 0.0
H2131 H 0.67148 0.90944 0.64042 0.0
H2132 H 0.71203 0.91524 0.63012 0.0
H2133 H 0.69259 0.87824 0.6222 0.0
C2134 C 0.69468 0.89798 0.6392 0.0
C2135 C 0.51813 0.90588 0.7455 0.0
H2136 H 0.52931 0.92826 0.73745 0.0
H2137 H 0.49562 0.91119 0.75795 0.0
H2138 H 0.53437 0.89416 0.76221 0.0
O2139 O 0.58343 0.83936 0.71304 0.0
O2140 O 0.63432 0.83115 0.70972 0.0
C2141 C 0.61352 0.90609 0.75224 0.0
O2142 O 0.63302 0.86204 0.6454 0.0
O2143 O 0.58122 0.86486 0.64443 0.0
Zn2144 Zn 0.34789 0.38552 0.94275 0.0
O2145 O 0.29945 0.38509 0.92691 0.0
C2146 C 0.36745 0.35719 0.88046 0.0
Zn2147 Zn 0.34237 0.33286 0.94183 0.0
C2148 C 0.28425 0.3602 0.91916 0.0
O2149 O 0.29709 0.33305 0.92204 0.0
C2150 C 0.40386 0.35735 0.96932 0.0
O2151 O 0.32172 0.33693 0.98812 0.0
O2152 O 0.33107 0.38811 -0.01102 0.0
N2153 N 0.34668 0.28374 0.94421 0.0
C2154 C 0.3417 0.26275 0.96786 0.0
C2155 C 0.37502 0.24155 0.93635 0.0
N2156 N 0.36719 0.2702 0.92461 0.0
N2157 N 0.35925 0.23638 0.96344 0.0
C2158 C 0.34158 0.45486 0.92044 0.0
C2159 C 0.37373 0.47907 0.95102 0.0
N2160 N 0.35126 0.43395 0.94234 0.0
N2161 N 0.37089 0.44908 0.96159 0.0
N2162 N 0.35499 0.48353 0.92564 0.0
H2163 H 0.31676 0.42153 0.89043 0.0
H2164 H 0.31096 0.46208 0.88013 0.0
H2165 H 0.34797 0.44263 0.87222 0.0
C2166 C 0.32822 0.44472 0.88922 0.0
C2167 C 0.32036 0.26816 -0.0045 0.0
H2168 H 0.29798 0.27933 0.98745 0.0
H2169 H 0.31506 0.24564 0.00795 0.0
H2170 H 0.33207 0.2844 0.0122 0.0
O2171 O 0.38687 0.33348 0.96309 0.0
O2172 O 0.39509 0.38436 0.95969 0.0
C2173 C 0.32015 0.36354 0.00224 0.0
O2174 O 0.36417 0.38306 0.89538 0.0
O2175 O 0.36141 0.33125 0.89445 0.0
Zn2176 Zn 0.34073 0.5979 0.69275 0.0
O2177 O 0.34115 0.54946 0.67692 0.0
C2178 C 0.36905 0.61745 0.63046 0.0
Zn2179 Zn 0.39339 0.59238 0.69183 0.0
C2180 C 0.36604 0.53426 0.66917 0.0
O2181 O 0.3932 0.5471 0.67205 0.0
C2182 C 0.3689 0.65386 0.71932 0.0
O2183 O 0.38932 0.57173 0.73812 0.0
O2184 O 0.33813 0.58107 0.73899 0.0
N2185 N 0.4425 0.59669 0.69421 0.0
C2186 C 0.46349 0.5917 0.71786 0.0
C2187 C 0.4847 0.62503 0.68635 0.0
N2188 N 0.45604 0.61719 0.67461 0.0
N2189 N 0.48986 0.60925 0.71344 0.0
C2190 C 0.27139 0.59159 0.67044 0.0
C2191 C 0.24718 0.62374 0.70102 0.0
N2192 N 0.2923 0.60126 0.69234 0.0
N2193 N 0.27717 0.62089 0.7116 0.0
N2194 N 0.24272 0.60499 0.67565 0.0
H2195 H 0.30472 0.56677 0.64043 0.0
H2196 H 0.26417 0.56097 0.63013 0.0
H2197 H 0.28362 0.59798 0.62223 0.0
C2198 C 0.28152 0.57823 0.63922 0.0
C2199 C 0.45809 0.57036 0.7455 0.0
H2200 H 0.44692 0.54799 0.73745 0.0
H2201 H 0.48061 0.56506 0.75795 0.0
H2202 H 0.44185 0.58208 0.7622 0.0
O2203 O 0.39276 0.63688 0.71309 0.0
O2204 O 0.34189 0.6451 0.70969 0.0
C2205 C 0.36271 0.57015 0.75224 0.0
O2206 O 0.34318 0.61417 0.64538 0.0
O2207 O 0.39499 0.61142 0.64445 0.0
Zn2208 Zn 0.8479 0.09074 0.03347 0.0
O2209 O 0.79946 0.09118 0.04931 0.0
C2210 C 0.86746 0.11906 0.09577 0.0
Zn2211 Zn 0.84239 0.14341 0.03441 0.0
C2212 C 0.78426 0.11607 0.05707 0.0
O2213 O 0.7971 0.14322 0.05418 0.0
C2214 C 0.90387 0.11894 0.00692 0.0
O2215 O 0.82175 0.13934 0.98811 0.0
O2216 O 0.83106 0.08815 0.98724 0.0
N2217 N 0.84669 0.19253 0.03204 0.0
C2218 C 0.84171 0.21352 0.0084 0.0
C2219 C 0.87504 0.23472 0.03991 0.0
N2220 N 0.86719 0.20606 0.05165 0.0
N2221 N 0.85926 0.23989 0.01282 0.0
C2222 C 0.84162 0.02141 0.05579 0.0
C2223 C 0.8738 -0.00279 0.02522 0.0
N2224 N 0.85127 0.04232 0.03388 0.0
N2225 N 0.87091 0.02719 0.01462 0.0
N2226 N 0.8551 -0.00723 0.05063 0.0
H2227 H 0.81678 0.05475 0.08578 0.0
H2228 H 0.8109 0.01419 0.09601 0.0
H2229 H 0.84791 0.03358 0.10403 0.0
C2230 C 0.8282 0.03154 0.08699 0.0
C2231 C 0.82037 0.20812 0.98076 0.0
H2232 H 0.798 0.19695 -0.0112 0.0
H2233 H 0.81508 0.23064 0.9683 0.0
H2234 H 0.83209 0.19187 0.96405 0.0
O2235 O 0.88689 0.1428 0.01318 0.0
O2236 O 0.8951 0.09191 0.01651 0.0
C2237 C 0.82016 0.11273 0.97399 0.0
O2238 O 0.86419 0.0932 0.08083 0.0
O2239 O 0.86141 0.14501 0.08179 0.0
Zn2240 Zn 0.58283 0.09238 0.78441 0.0
O2241 O 0.58691 0.07175 0.73811 0.0
C2242 C 0.60729 0.15388 0.75693 0.0
Zn2243 Zn 0.6355 0.09791 0.78347 0.0
C2244 C 0.61352 0.07016 0.72399 0.0
O2245 O 0.6381 0.08107 0.73725 0.0
C2246 C 0.60717 0.11746 0.84577 0.0
O2247 O 0.63507 0.04946 0.79931 0.0
O2248 O 0.58303 0.0471 0.80418 0.0
N2249 N 0.68392 0.10129 0.78388 0.0
C2250 C 0.70483 0.09164 0.80579 0.0
C2251 C 0.72903 0.12382 0.77523 0.0
N2252 N 0.69905 0.12093 0.76463 0.0
N2253 N 0.73347 0.10512 0.80063 0.0
C2254 C 0.51273 0.0917 0.75838 0.0
C2255 C 0.49152 0.12502 0.78989 0.0
N2256 N 0.53371 0.09668 0.78203 0.0
N2257 N 0.52017 0.11718 0.80164 0.0
N2258 N 0.48636 0.10925 0.7628 0.0
H2259 H 0.52931 0.04799 0.73879 0.0
H2260 H 0.49562 0.06506 0.71829 0.0
H2261 H 0.53438 0.08209 0.71404 0.0
C2262 C 0.51814 0.07036 0.73074 0.0
C2263 C 0.6947 0.07821 0.83699 0.0
H2264 H 0.67149 0.06679 0.83578 0.0
H2265 H 0.71205 0.06091 0.846 0.0
H2266 H 0.69267 0.09792 0.85404 0.0
O2267 O 0.63303 0.1142 0.83084 0.0
O2268 O 0.58123 0.11141 0.83179 0.0
C2269 C 0.61018 0.03426 0.80706 0.0
O2270 O 0.58343 0.13689 0.76318 0.0
O2271 O 0.63432 0.14511 0.76651 0.0
Zn2272 Zn 0.89341 0.88387 0.28441 0.0
O2273 O 0.88933 0.9045 0.23811 0.0
C2274 C 0.86895 0.82237 0.25693 0.0
Zn2275 Zn 0.84075 0.87834 0.28347 0.0
C2276 C 0.86272 0.90608 0.22399 0.0
O2277 O 0.83814 0.89517 0.23724 0.0
C2278 C 0.86908 0.85879 0.34577 0.0
O2279 O 0.84117 0.92679 0.29931 0.0
O2280 O 0.89321 0.92915 0.30417 0.0
N2281 N 0.79232 0.87496 0.28388 0.0
C2282 C 0.77141 0.88461 0.30579 0.0
C2283 C 0.74722 0.85243 0.27523 0.0
N2284 N 0.7772 0.85532 0.26463 0.0
N2285 N 0.74278 0.87113 0.30063 0.0
C2286 C 0.96352 0.88455 0.25838 0.0
C2287 C 0.98473 0.85123 0.28989 0.0
N2288 N 0.94253 0.87957 0.28203 0.0
N2289 N 0.95607 0.85907 0.30164 0.0
N2290 N -0.01011 0.86701 0.2628 0.0
H2291 H 0.94693 0.92826 0.23878 0.0
H2292 H 0.98062 0.91119 0.21828 0.0
H2293 H 0.94187 0.89416 0.21403 0.0
C2294 C 0.95811 0.90588 0.23073 0.0
C2295 C 0.78154 0.89803 0.33699 0.0
H2296 H 0.80475 0.90946 0.33578 0.0
H2297 H 0.76419 0.91534 0.346 0.0
H2298 H 0.78358 0.87833 0.35404 0.0
O2299 O 0.84321 0.86206 0.33084 0.0
O2300 O 0.89502 0.86485 0.33179 0.0
C2301 C 0.86606 0.94199 0.30706 0.0
O2302 O 0.89281 0.83936 0.26318 0.0
O2303 O 0.84192 0.83114 0.26651 0.0
Zn2304 Zn 0.44182 0.34239 0.14341 0.0
O2305 O 0.48812 0.32175 0.13933 0.0
C2306 C 0.46931 0.40387 0.11895 0.0
Zn2307 Zn 0.44277 0.3479 0.09075 0.0
C2308 C 0.50225 0.32016 0.11272 0.0
O2309 O 0.48899 0.33106 0.08814 0.0
C2310 C 0.38046 0.36746 0.11907 0.0
O2311 O 0.42692 0.29946 0.09118 0.0
O2312 O 0.42205 0.2971 0.14322 0.0
N2313 N 0.44235 0.35128 0.04232 0.0
C2314 C 0.42044 0.34163 0.02141 0.0
C2315 C 0.451 0.37381 -0.00278 0.0
N2316 N 0.4616 0.37092 0.02719 0.0
N2317 N 0.4256 0.35511 -0.00722 0.0
C2318 C 0.46779 0.34156 0.21354 0.0
C2319 C 0.43642 0.37501 0.23474 0.0
N2320 N 0.4442 0.34669 0.19252 0.0
N2321 N 0.42468 0.36727 0.20606 0.0
N2322 N 0.4634 0.35905 0.23996 0.0
H2323 H 0.4873 0.29785 0.19685 0.0
H2324 H 0.5078 0.31479 0.23062 0.0
H2325 H 0.51213 0.33192 0.19191 0.0
C2326 C 0.49539 0.32018 0.2081 0.0
C2327 C 0.38924 0.32821 0.03154 0.0
H2328 H 0.39046 0.31679 0.05475 0.0
H2329 H 0.38023 0.31089 0.01419 0.0
H2330 H 0.37219 0.34791 0.03357 0.0
O2331 O 0.3954 0.36419 0.09321 0.0
O2332 O 0.39444 0.36141 0.14501 0.0
C2333 C 0.41917 0.28426 0.11607 0.0
O2334 O 0.46305 0.38689 0.14281 0.0
O2335 O 0.45973 0.3951 0.09192 0.0
Zn2336 Zn 0.37835 0.69277 0.84075 0.0
O2337 O 0.42679 0.67693 0.84118 0.0
C2338 C 0.35879 0.63046 0.86907 0.0
Zn2339 Zn 0.38386 0.69182 0.89341 0.0
C2340 C 0.44199 0.66918 0.86607 0.0
O2341 O 0.42915 0.67206 0.89322 0.0
C2342 C 0.32238 0.71931 0.86895 0.0
O2343 O 0.4045 0.73812 0.88934 0.0
O2344 O 0.39518 0.739 0.83815 0.0
N2345 N 0.37956 0.69419 0.94253 0.0
C2346 C 0.38454 0.71784 0.96352 0.0
C2347 C 0.35122 0.68632 0.98472 0.0
N2348 N 0.35906 0.67458 0.95607 0.0
N2349 N 0.36699 0.71341 -0.01011 0.0
C2350 C 0.38462 0.67044 0.77141 0.0
C2351 C 0.35244 0.70101 0.74722 0.0
N2352 N 0.37497 0.69236 0.79232 0.0
N2353 N 0.35533 0.71161 0.7772 0.0
N2354 N 0.37114 0.67561 0.74278 0.0
H2355 H 0.40947 0.64046 0.80475 0.0
H2356 H 0.41535 0.63024 0.76419 0.0
H2357 H 0.37834 0.6222 0.78357 0.0
C2358 C 0.39805 0.63925 0.78154 0.0
C2359 C 0.40588 0.74548 0.95812 0.0
H2360 H 0.42825 0.73743 0.94695 0.0
H2361 H 0.41118 0.75793 0.98064 0.0
H2362 H 0.39416 0.76218 0.94188 0.0
O2363 O 0.33936 0.71305 0.89281 0.0
O2364 O 0.33115 0.70973 0.84192 0.0
C2365 C 0.40609 0.75225 0.86273 0.0
O2366 O 0.36206 0.6454 0.84321 0.0
O2367 O 0.36484 0.64444 0.89501 0.0
Zn2368 Zn 0.03442 0.63387 0.64341 0.0
O2369 O -0.01188 0.6545 0.63934 0.0
C2370 C 0.00694 0.57238 0.61895 0.0
Zn2371 Zn 0.03348 0.62834 0.59075 0.0
C2372 C 0.974 0.65609 0.61272 0.0
O2373 O 0.98726 0.64518 0.58815 0.0
C2374 C 0.09579 0.60878 0.61907 0.0
O2375 O 0.04933 0.67679 0.59118 0.0
O2376 O 0.05419 0.67915 0.64323 0.0
N2377 N 0.0339 0.62497 0.54232 0.0
C2378 C 0.05581 0.63462 0.52142 0.0
C2379 C 0.02524 0.60244 0.49722 0.0
N2380 N 0.01465 0.60533 0.5272 0.0
N2381 N 0.05065 0.62114 0.49278 0.0
C2382 C 0.00839 0.63454 0.71352 0.0
C2383 C 0.0399 0.60122 0.73473 0.0
N2384 N 0.03204 0.62956 0.69253 0.0
N2385 N 0.05165 0.60906 0.70607 0.0
N2386 N 0.01281 0.61699 0.73988 0.0
H2387 H -0.01121 0.67825 0.69693 0.0
H2388 H 0.96829 0.66118 0.73062 0.0
H2389 H 0.96404 0.64416 0.69187 0.0
C2390 C 0.98075 0.65588 0.70811 0.0
C2391 C 0.08701 0.64804 0.53154 0.0
H2392 H 0.08579 0.65946 0.55476 0.0
H2393 H 0.09602 0.66535 0.5142 0.0
H2394 H 0.10406 0.62834 0.53358 0.0
O2395 O 0.08085 0.61205 0.59321 0.0
O2396 O 0.0818 0.61484 0.64502 0.0
C2397 C 0.05707 0.69199 0.61608 0.0
O2398 O 0.01319 0.58936 0.64281 0.0
O2399 O 0.01652 0.58115 0.59192 0.0
Zn2400 Zn 0.0979 0.28348 0.34075 0.0
O2401 O 0.04946 0.29933 0.34118 0.0
C2402 C 0.11746 0.34579 0.36907 0.0
Zn2403 Zn 0.09238 0.28443 0.39341 0.0
C2404 C 0.03426 0.30707 0.36607 0.0
O2405 O 0.0471 0.30419 0.39322 0.0
C2406 C 0.15387 0.25694 0.36895 0.0
O2407 O 0.07175 0.23812 0.38934 0.0
O2408 O 0.08106 0.23726 0.33815 0.0
N2409 N 0.09669 0.28205 0.44253 0.0
C2410 C 0.0917 0.25841 0.46352 0.0
C2411 C 0.12503 0.28992 0.48472 0.0
N2412 N 0.11718 0.30166 0.45607 0.0
N2413 N 0.10925 0.26283 0.48989 0.0
C2414 C 0.09163 0.30582 0.27143 0.0
C2415 C 0.12377 0.27522 0.24721 0.0
N2416 N 0.10127 0.2839 0.29232 0.0
N2417 N 0.12088 0.26463 0.27719 0.0
N2418 N 0.1051 0.30065 0.24278 0.0
H2419 H 0.0668 0.33582 0.30476 0.0
H2420 H 0.061 0.34613 0.26421 0.0
H2421 H 0.09801 0.35404 0.28366 0.0
C2422 C 0.07826 0.33704 0.28157 0.0
C2423 C 0.07037 0.23077 0.45812 0.0
H2424 H 0.04799 0.23881 0.44694 0.0
H2425 H 0.06507 0.21831 0.48064 0.0
H2426 H 0.08209 0.21406 0.44188 0.0
O2427 O 0.13689 0.2632 0.39281 0.0
O2428 O 0.1451 0.26652 0.34192 0.0
C2429 C 0.07016 0.224 0.36273 0.0
O2430 O 0.1142 0.33084 0.34321 0.0
O2431 O 0.1114 0.33181 0.39501 0.0
Zn2432 Zn 0.44278 0.62834 0.38549 0.0
O2433 O 0.42693 0.67679 0.38506 0.0
C2434 C 0.38047 0.60878 0.35717 0.0
Zn2435 Zn 0.44183 0.63386 0.33283 0.0
C2436 C 0.41918 0.69199 0.36017 0.0
O2437 O 0.42207 0.67914 0.33302 0.0
C2438 C 0.46932 0.57237 0.35729 0.0
O2439 O 0.48813 0.6545 0.3369 0.0
O2440 O 0.489 0.64518 0.38809 0.0
N2441 N 0.44422 0.62956 0.28371 0.0
C2442 C 0.46787 0.63455 0.26272 0.0
C2443 C 0.43635 0.60123 0.24151 0.0
N2444 N 0.4246 0.60907 0.27016 0.0
N2445 N 0.46344 0.61701 0.23635 0.0
C2446 C 0.42045 0.63462 0.45482 0.0
C2447 C 0.45101 0.60243 0.47902 0.0
N2448 N 0.44236 0.62497 0.43392 0.0
N2449 N 0.46161 0.60532 0.44904 0.0
N2450 N 0.42561 0.62113 0.48346 0.0
H2451 H 0.39047 0.65946 0.42148 0.0
H2452 H 0.38025 0.66535 0.46204 0.0
H2453 H 0.3722 0.62834 0.44267 0.0
C2454 C 0.38925 0.64804 0.4447 0.0
C2455 C 0.49551 0.65588 0.26813 0.0
H2456 H 0.48746 0.67825 0.27931 0.0
H2457 H 0.50796 0.66119 0.24562 0.0
H2458 H 0.51221 0.64416 0.28437 0.0
O2459 O 0.46307 0.58936 0.33343 0.0
O2460 O 0.45974 0.58114 0.38432 0.0
C2461 C 0.50225 0.65609 0.36351 0.0
O2462 O 0.39541 0.61205 0.38303 0.0
O2463 O 0.39445 0.61484 0.33123 0.0
Zn2464 Zn 0.09239 0.69182 0.08283 0.0
O2465 O 0.07176 0.73812 0.08691 0.0
C2466 C 0.15388 0.7193 0.10728 0.0
Zn2467 Zn 0.09791 0.69277 0.13549 0.0
C2468 C 0.07017 0.75225 0.11352 0.0
O2469 O 0.08107 0.73899 0.1381 0.0
C2470 C 0.11746 0.63046 0.10716 0.0
O2471 O 0.04947 0.67692 0.13507 0.0
O2472 O 0.04711 0.67206 0.08303 0.0
N2473 N 0.10129 0.69235 0.18392 0.0
C2474 C 0.09165 0.67042 0.20482 0.0
C2475 C 0.12379 0.70102 0.22903 0.0
N2476 N 0.1209 0.71162 0.19905 0.0
N2477 N 0.10511 0.6756 0.23346 0.0
C2478 C 0.09155 0.71778 0.0127 0.0
C2479 C 0.125 0.68642 -0.0085 0.0
N2480 N 0.09669 0.6942 0.03372 0.0
N2481 N 0.11727 0.67468 0.02018 0.0
N2482 N 0.10904 0.71339 0.98628 0.0
H2483 H 0.04785 0.73729 0.02939 0.0
H2484 H 0.06477 0.7578 -0.00438 0.0
H2485 H 0.08191 0.76212 0.03433 0.0
C2486 C 0.07017 0.74538 0.01814 0.0
C2487 C 0.07828 0.63921 0.19468 0.0
H2488 H 0.06682 0.64043 0.17148 0.0
H2489 H 0.06101 0.63013 0.21203 0.0
H2490 H 0.09802 0.62221 0.19259 0.0
O2491 O 0.11421 0.6454 0.13302 0.0
O2492 O 0.1114 0.64444 0.08122 0.0
C2493 C 0.03427 0.66917 0.11018 0.0
O2494 O 0.1369 0.71304 0.08342 0.0
O2495 O 0.1451 0.70974 0.13432 0.0
Zn2496 Zn 0.03347 0.34791 0.88549 0.0
O2497 O 0.04931 0.29946 0.88506 0.0
C2498 C 0.09578 0.36747 0.85717 0.0
Zn2499 Zn 0.03441 0.34239 0.83283 0.0
C2500 C 0.05706 0.28426 0.86016 0.0
O2501 O 0.05418 0.2971 0.83301 0.0
C2502 C 0.00692 0.40387 0.85729 0.0
O2503 O 0.98811 0.32175 0.8369 0.0
O2504 O 0.98725 0.33107 0.88809 0.0
N2505 N 0.03203 0.34669 0.78371 0.0
C2506 C 0.00838 0.3417 0.76272 0.0
C2507 C 0.03989 0.37502 0.74151 0.0
N2508 N 0.05164 0.36718 0.77016 0.0
N2509 N 0.0128 0.35925 0.73635 0.0
C2510 C 0.0558 0.34163 0.95482 0.0
C2511 C 0.02523 0.37382 0.97902 0.0
N2512 N 0.03388 0.35128 0.93392 0.0
N2513 N 0.01463 0.37092 0.94904 0.0
N2514 N 0.05064 0.35511 0.98346 0.0
H2515 H 0.08578 0.31679 0.92148 0.0
H2516 H 0.096 0.3109 0.96204 0.0
H2517 H 0.10404 0.34791 0.94267 0.0
C2518 C 0.08699 0.32821 0.9447 0.0
C2519 C 0.98074 0.32037 0.76813 0.0
H2520 H -0.01122 0.298 0.77931 0.0
H2521 H 0.96829 0.31506 0.74561 0.0
H2522 H 0.96403 0.33209 0.78437 0.0
O2523 O 0.01318 0.38689 0.83343 0.0
O2524 O 0.01651 0.3951 0.88432 0.0
C2525 C 0.97399 0.32016 0.86351 0.0
O2526 O 0.08084 0.3642 0.88303 0.0
O2527 O 0.08179 0.36141 0.83123 0.0
Zn2528 Zn 0.37834 0.28348 0.63549 0.0
O2529 O 0.42678 0.29933 0.63507 0.0
C2530 C 0.35878 0.34579 0.60716 0.0
Zn2531 Zn 0.38386 0.28443 0.58283 0.0
C2532 C 0.44198 0.30707 0.61018 0.0
O2533 O 0.42914 0.30419 0.58303 0.0
C2534 C 0.32237 0.25694 0.60728 0.0
O2535 O 0.40448 0.23812 0.58691 0.0
O2536 O 0.39518 0.23725 0.6381 0.0
N2537 N 0.37956 0.28205 0.53371 0.0
C2538 C 0.3847 0.25846 0.51269 0.0
C2539 C 0.35124 0.28982 0.49149 0.0
N2540 N 0.35897 0.30156 0.52018 0.0
N2541 N 0.36721 0.26285 0.48627 0.0
C2542 C 0.3846 0.30582 0.70482 0.0
C2543 C 0.35245 0.27523 0.72903 0.0
N2544 N 0.37496 0.2839 0.68392 0.0
N2545 N 0.35534 0.26463 0.69905 0.0
N2546 N 0.37113 0.30065 0.73346 0.0
H2547 H 0.40943 0.33582 0.67148 0.0
H2548 H 0.41524 0.34612 0.71203 0.0
H2549 H 0.37823 0.35404 0.69259 0.0
C2550 C 0.39797 0.33704 0.69467 0.0
C2551 C 0.40608 0.23087 0.51814 0.0
H2552 H 0.4284 0.23895 0.52939 0.0
H2553 H 0.41147 0.21845 0.49562 0.0
H2554 H 0.39434 0.21412 0.53433 0.0
O2555 O 0.33935 0.26321 0.58342 0.0
O2556 O 0.33114 0.26651 0.63431 0.0
C2557 C 0.40608 0.224 0.61352 0.0
O2558 O 0.36204 0.33084 0.63302 0.0
O2559 O 0.36484 0.33181 0.58122 0.0
Zn2560 Zn 0.14342 0.44182 0.34239 0.0
O2561 O 0.13935 0.48812 0.32176 0.0
C2562 C 0.11896 0.46931 0.40387 0.0
Zn2563 Zn 0.09076 0.44277 0.3479 0.0
C2564 C 0.11274 0.50225 0.32016 0.0
O2565 O 0.08815 0.489 0.33106 0.0
C2566 C 0.11908 0.38046 0.36746 0.0
O2567 O 0.09119 0.42693 0.29945 0.0
O2568 O 0.14323 0.42205 0.2971 0.0
N2569 N 0.04233 0.44236 0.35128 0.0
C2570 C 0.02142 0.42045 0.34163 0.0
C2571 C -0.00277 0.45101 0.37381 0.0
N2572 N 0.02721 0.46161 0.37092 0.0
N2573 N -0.00722 0.42561 0.35511 0.0
C2574 C 0.21356 0.46778 0.34155 0.0
C2575 C 0.23475 0.43642 0.37501 0.0
N2576 N 0.19253 0.4442 0.34669 0.0
N2577 N 0.20607 0.42468 0.36728 0.0
N2578 N 0.23997 0.46339 0.35904 0.0
H2579 H 0.19687 0.48729 0.29785 0.0
H2580 H 0.23064 0.50779 0.31478 0.0
H2581 H 0.19193 0.51212 0.33191 0.0
C2582 C 0.20812 0.49538 0.32017 0.0
C2583 C 0.03155 0.38925 0.3282 0.0
H2584 H 0.05476 0.39046 0.31678 0.0
H2585 H 0.0142 0.38024 0.31089 0.0
H2586 H 0.03358 0.3722 0.3479 0.0
O2587 O 0.09322 0.3954 0.36419 0.0
O2588 O 0.14503 0.39444 0.3614 0.0
C2589 C 0.11608 0.41917 0.28426 0.0
O2590 O 0.14282 0.46304 0.38689 0.0
O2591 O 0.09193 0.45973 0.3951 0.0
Zn2592 Zn 0.28348 0.34075 0.0979 0.0
O2593 O 0.29933 0.34118 0.04946 0.0
C2594 C 0.34578 0.36908 0.11746 0.0
Zn2595 Zn 0.28443 0.39342 0.09238 0.0
C2596 C 0.30707 0.36607 0.03426 0.0
O2597 O 0.30419 0.39322 0.0471 0.0
C2598 C 0.25694 0.36895 0.15387 0.0
O2599 O 0.23812 0.38934 0.07176 0.0
O2600 O 0.23726 0.33814 0.08106 0.0
N2601 N 0.28205 0.44253 0.09668 0.0
C2602 C 0.25847 0.46355 0.09155 0.0
C2603 C 0.28983 0.48475 0.125 0.0
N2604 N 0.30157 0.45606 0.11727 0.0
N2605 N 0.26286 0.48997 0.10903 0.0
C2606 C 0.30582 0.27143 0.09164 0.0
C2607 C 0.27522 0.24721 0.12378 0.0
N2608 N 0.2839 0.29233 0.10127 0.0
N2609 N 0.26463 0.27719 0.12089 0.0
N2610 N 0.30065 0.24278 0.1051 0.0
H2611 H 0.33582 0.30477 0.06681 0.0
H2612 H 0.34612 0.26422 0.061 0.0
H2613 H 0.35404 0.28366 0.09801 0.0
C2614 C 0.33704 0.28157 0.07826 0.0
C2615 C 0.23087 0.45811 0.07017 0.0
H2616 H 0.23895 0.44686 0.04785 0.0
H2617 H 0.21845 0.48063 0.06478 0.0
H2618 H 0.21412 0.44192 0.08191 0.0
O2619 O 0.26321 0.39282 0.13689 0.0
O2620 O 0.26651 0.34192 0.14509 0.0
C2621 C 0.224 0.36272 0.07016 0.0
O2622 O 0.33084 0.34322 0.1142 0.0
O2623 O 0.33181 0.39503 0.1114 0.0
Zn2624 Zn 0.33283 0.53443 0.84238 0.0
O2625 O 0.3369 0.48812 0.82176 0.0
C2626 C 0.35728 0.50694 0.90387 0.0
Zn2627 Zn 0.38549 0.53348 0.8479 0.0
C2628 C 0.36351 0.474 0.82016 0.0
O2629 O 0.3881 0.48726 0.83106 0.0
C2630 C 0.35716 0.59579 0.86746 0.0
O2631 O 0.38506 0.54933 0.79946 0.0
O2632 O 0.33302 0.55419 0.7971 0.0
N2633 N 0.43392 0.5339 0.85127 0.0
C2634 C 0.45481 0.55582 0.84164 0.0
C2635 C 0.47903 0.52523 0.87378 0.0
N2636 N 0.44905 0.51463 0.87089 0.0
N2637 N 0.48346 0.55065 0.8551 0.0
C2638 C 0.26269 0.50847 0.84155 0.0
C2639 C 0.24149 0.53983 0.875 0.0
N2640 N 0.28371 0.53205 0.84668 0.0
N2641 N 0.27018 0.55157 0.86727 0.0
N2642 N 0.23627 0.51286 0.85904 0.0
H2643 H 0.27938 0.48895 0.79785 0.0
H2644 H 0.24561 0.46845 0.81478 0.0
H2645 H 0.28432 0.46412 0.83191 0.0
C2646 C 0.26813 0.48087 0.82017 0.0
C2647 C 0.44467 0.58704 0.82826 0.0
H2648 H 0.42148 0.58582 0.81681 0.0
H2649 H 0.46203 0.59612 0.811 0.0
H2650 H 0.44259 0.60404 0.84801 0.0
O2651 O 0.38302 0.58084 0.8642 0.0
O2652 O 0.33122 0.58181 0.86139 0.0
C2653 C 0.36017 0.55707 0.78426 0.0
O2654 O 0.33342 0.51321 0.88689 0.0
O2655 O 0.38432 0.51651 0.89509 0.0
Zn2656 Zn 0.19182 0.58283 0.59239 0.0
O2657 O 0.23812 0.58691 0.57176 0.0
C2658 C 0.2193 0.60729 0.65387 0.0
Zn2659 Zn 0.19277 0.63549 0.5979 0.0
C2660 C 0.25225 0.61352 0.57016 0.0
O2661 O 0.23899 0.6381 0.58106 0.0
C2662 C 0.13046 0.60717 0.61746 0.0
O2663 O 0.17692 0.63507 0.54946 0.0
O2664 O 0.17206 0.58302 0.5471 0.0
N2665 N 0.19235 0.68392 0.60128 0.0
C2666 C 0.17043 0.70482 0.59164 0.0
C2667 C 0.20102 0.72903 0.62378 0.0
N2668 N 0.21162 0.69905 0.62089 0.0
N2669 N 0.1756 0.73346 0.6051 0.0
C2670 C 0.21778 0.51269 0.59155 0.0
C2671 C 0.18642 0.4915 0.625 0.0
N2672 N 0.1942 0.53372 0.59669 0.0
N2673 N 0.17468 0.52018 0.61727 0.0
N2674 N 0.21339 0.48627 0.60904 0.0
H2675 H 0.23729 0.52939 0.54785 0.0
H2676 H 0.25779 0.49562 0.56478 0.0
H2677 H 0.26212 0.53432 0.58191 0.0
C2678 C 0.24538 0.51813 0.57017 0.0
C2679 C 0.13921 0.69467 0.57827 0.0
H2680 H 0.14043 0.67148 0.56681 0.0
H2681 H 0.13013 0.71203 0.561 0.0
H2682 H 0.12221 0.69259 0.59801 0.0
O2683 O 0.14541 0.63303 0.61421 0.0
O2684 O 0.14443 0.58122 0.6114 0.0
C2685 C 0.16918 0.61017 0.53426 0.0
O2686 O 0.21304 0.58343 0.6369 0.0
O2687 O 0.20974 0.63432 0.6451 0.0
Zn2688 Zn 0.09076 0.53348 0.12835 0.0
O2689 O 0.0912 0.54932 0.17679 0.0
C2690 C 0.11908 0.59578 0.10878 0.0
Zn2691 Zn 0.14342 0.53443 0.13386 0.0
C2692 C 0.11609 0.55707 0.19199 0.0
O2693 O 0.14324 0.55419 0.17914 0.0
C2694 C 0.11896 0.50694 0.07237 0.0
O2695 O 0.13936 0.48812 0.1545 0.0
O2696 O 0.08816 0.48725 0.14518 0.0
N2697 N 0.19254 0.53205 0.12955 0.0
C2698 C 0.21353 0.50841 0.13454 0.0
C2699 C 0.23473 0.53992 0.10121 0.0
N2700 N 0.20608 0.55167 0.10905 0.0
N2701 N 0.2399 0.51284 0.11699 0.0
C2702 C 0.02143 0.5558 0.13462 0.0
C2703 C -0.00277 0.52523 0.10244 0.0
N2704 N 0.04233 0.53389 0.12497 0.0
N2705 N 0.02721 0.51464 0.10533 0.0
N2706 N -0.00721 0.55064 0.12114 0.0
H2707 H 0.05477 0.58578 0.15947 0.0
H2708 H 0.0142 0.596 0.16536 0.0
H2709 H 0.03358 0.60405 0.12834 0.0
C2710 C 0.03155 0.587 0.14805 0.0
C2711 C 0.20813 0.48077 0.15587 0.0
H2712 H 0.19696 0.48882 0.17825 0.0
H2713 H 0.23065 0.46832 0.16117 0.0
H2714 H 0.19189 0.46406 0.14416 0.0
O2715 O 0.14282 0.5132 0.08935 0.0
O2716 O 0.09193 0.51652 0.08115 0.0
C2717 C 0.11274 0.474 0.15609 0.0
O2718 O 0.09322 0.58085 0.11205 0.0
O2719 O 0.14502 0.58181 0.11484 0.0
Zn2720 Zn 0.19276 0.34076 0.87834 0.0
O2721 O 0.17691 0.34119 0.92678 0.0
C2722 C 0.13045 0.36908 0.85878 0.0
Zn2723 Zn 0.19181 0.39342 0.88386 0.0
C2724 C 0.16916 0.36608 0.94198 0.0
O2725 O 0.17205 0.39323 0.92914 0.0
C2726 C 0.21929 0.36896 0.82237 0.0
O2727 O 0.23811 0.38935 0.90449 0.0
O2728 O 0.23898 0.33816 0.89518 0.0
N2729 N 0.19418 0.44254 0.87955 0.0
C2730 C 0.21783 0.46353 0.88454 0.0
C2731 C 0.18632 0.48473 0.85121 0.0
N2732 N 0.17457 0.45608 0.85905 0.0
N2733 N 0.21341 0.4899 0.86699 0.0
C2734 C 0.17042 0.27143 0.88461 0.0
C2735 C 0.20102 0.24722 0.85247 0.0
N2736 N 0.19234 0.29233 0.87497 0.0
N2737 N 0.21161 0.2772 0.85535 0.0
N2738 N 0.1756 0.24279 0.87114 0.0
H2739 H 0.14042 0.30477 0.90943 0.0
H2740 H 0.13012 0.26422 0.91524 0.0
H2741 H 0.1222 0.28366 0.87823 0.0
C2742 C 0.1392 0.28157 0.89798 0.0
C2743 C 0.24547 0.45813 0.90588 0.0
H2744 H 0.23742 0.44695 0.92825 0.0
H2745 H 0.25792 0.48065 0.91118 0.0
H2746 H 0.26217 0.44189 0.89416 0.0
O2747 O 0.21304 0.39282 0.83935 0.0
O2748 O 0.20972 0.34193 0.83114 0.0
C2749 C 0.25223 0.36274 0.90608 0.0
O2750 O 0.14539 0.34322 0.86204 0.0
O2751 O 0.14443 0.39503 0.86484 0.0
Zn2752 Zn 0.38549 0.44277 0.62834 0.0
O2753 O 0.38505 0.42692 0.67679 0.0
C2754 C 0.35717 0.38046 0.60878 0.0
Zn2755 Zn 0.33282 0.44182 0.63386 0.0
C2756 C 0.36016 0.41917 0.69198 0.0
O2757 O 0.33301 0.42205 0.67914 0.0
C2758 C 0.35729 0.4693 0.57237 0.0
O2759 O 0.33689 0.48812 0.65449 0.0
O2760 O 0.38808 0.48899 0.64518 0.0
N2761 N 0.28371 0.44419 0.62955 0.0
C2762 C 0.26271 0.46783 0.63454 0.0
C2763 C 0.24151 0.43632 0.60121 0.0
N2764 N 0.27017 0.42458 0.60905 0.0
N2765 N 0.23635 0.46341 0.61699 0.0
C2766 C 0.45482 0.42044 0.63462 0.0
C2767 C 0.47902 0.45101 0.60244 0.0
N2768 N 0.43391 0.44236 0.62497 0.0
N2769 N 0.44904 0.46161 0.60533 0.0
N2770 N 0.48346 0.42561 0.62114 0.0
H2771 H 0.42148 0.39046 0.65946 0.0
H2772 H 0.46204 0.38024 0.66535 0.0
H2773 H 0.44266 0.3722 0.62834 0.0
C2774 C 0.44469 0.38925 0.64804 0.0
C2775 C 0.26812 0.49547 0.65587 0.0
H2776 H 0.27929 0.48743 0.67825 0.0
H2777 H 0.2456 0.50792 0.66117 0.0
H2778 H 0.28436 0.51218 0.64416 0.0
O2779 O 0.33343 0.46305 0.58935 0.0
O2780 O 0.38432 0.45972 0.58114 0.0
C2781 C 0.36351 0.50224 0.65608 0.0
O2782 O 0.38303 0.3954 0.61205 0.0
O2783 O 0.33122 0.39444 0.61484 0.0
Zn2784 Zn 0.28444 0.58282 0.38386 0.0
O2785 O 0.23813 0.5869 0.40449 0.0
C2786 C 0.25695 0.60729 0.32237 0.0
Zn2787 Zn 0.28349 0.63549 0.37834 0.0
C2788 C 0.22401 0.61351 0.40608 0.0
O2789 O 0.23727 0.63809 0.39518 0.0
C2790 C 0.3458 0.60717 0.35878 0.0
O2791 O 0.29934 0.63506 0.42678 0.0
O2792 O 0.3042 0.58302 0.42914 0.0
N2793 N 0.2839 0.68391 0.37497 0.0
C2794 C 0.30583 0.70481 0.38461 0.0
C2795 C 0.27523 0.72903 0.35247 0.0
N2796 N 0.26463 0.69904 0.35536 0.0
N2797 N 0.30065 0.73346 0.37115 0.0
C2798 C 0.25842 0.51271 0.38454 0.0
C2799 C 0.28993 0.49151 0.35122 0.0
N2800 N 0.28206 0.53371 0.37956 0.0
N2801 N 0.30167 0.52017 0.35906 0.0
N2802 N 0.26284 0.48635 0.36699 0.0
H2803 H 0.23883 0.52929 0.42825 0.0
H2804 H 0.21833 0.4956 0.41118 0.0
H2805 H 0.21407 0.53436 0.39416 0.0
C2806 C 0.23078 0.51812 0.40588 0.0
C2807 C 0.33705 0.69467 0.39798 0.0
H2808 H 0.33583 0.67148 0.40944 0.0
H2809 H 0.34613 0.71203 0.41524 0.0
H2810 H 0.35405 0.69259 0.37824 0.0
O2811 O 0.33085 0.63303 0.36204 0.0
O2812 O 0.33182 0.58122 0.36484 0.0
C2813 C 0.30708 0.61017 0.44198 0.0
O2814 O 0.26321 0.58343 0.33935 0.0
O2815 O 0.26653 0.63432 0.33114 0.0
Zn2816 Zn 0.34238 0.14342 0.44181 0.0
O2817 O 0.32175 0.13935 0.48812 0.0
C2818 C 0.40387 0.11895 0.4693 0.0
Zn2819 Zn 0.3479 0.09075 0.44276 0.0
C2820 C 0.32016 0.11273 0.50224 0.0
O2821 O 0.33107 0.08816 0.48899 0.0
C2822 C 0.36746 0.11907 0.38045 0.0
O2823 O 0.29946 0.09119 0.42692 0.0
O2824 O 0.2971 0.14323 0.42205 0.0
N2825 N 0.35128 0.04233 0.44235 0.0
C2826 C 0.34163 0.02142 0.42044 0.0
C2827 C 0.37381 -0.00278 0.45101 0.0
N2828 N 0.37092 0.0272 0.4616 0.0
N2829 N 0.35511 -0.00722 0.4256 0.0
C2830 C 0.34171 0.21353 0.46783 0.0
C2831 C 0.37504 0.23473 0.43632 0.0
N2832 N 0.34669 0.19253 0.44419 0.0
N2833 N 0.3672 0.20607 0.42458 0.0
N2834 N 0.35926 0.23989 0.46341 0.0
H2835 H 0.29799 0.19695 0.48742 0.0
H2836 H 0.31507 0.23064 0.50792 0.0
H2837 H 0.33208 0.19188 0.51218 0.0
C2838 C 0.32037 0.20813 0.49547 0.0
C2839 C 0.3282 0.03154 0.38925 0.0
H2840 H 0.31678 0.05475 0.39046 0.0
H2841 H 0.31089 0.01419 0.38024 0.0
H2842 H 0.34791 0.03357 0.37219 0.0
O2843 O 0.36419 0.09321 0.3954 0.0
O2844 O 0.36141 0.14501 0.39444 0.0
C2845 C 0.28426 0.11608 0.41917 0.0
O2846 O 0.38689 0.14281 0.46305 0.0
O2847 O 0.3951 0.09192 0.45972 0.0
Zn2848 Zn 0.8479 0.3855 0.53347 0.0
O2849 O 0.79946 0.38508 0.54932 0.0
C2850 C 0.86744 0.35717 0.59577 0.0
Zn2851 Zn 0.84237 0.33284 0.53441 0.0
C2852 C 0.78425 0.36019 0.55706 0.0
O2853 O 0.79708 0.33304 0.55417 0.0
C2854 C 0.90387 0.35729 0.50693 0.0
O2855 O 0.82175 0.33691 0.48811 0.0
O2856 O 0.83106 0.3881 0.48725 0.0
N2857 N 0.84666 0.28372 0.53203 0.0
C2858 C 0.84168 0.26273 0.50838 0.0
C2859 C 0.87499 0.24152 0.5399 0.0
N2860 N 0.86716 0.27017 0.55165 0.0
N2861 N 0.85922 0.23636 0.51281 0.0
C2862 C 0.84164 0.45482 0.55581 0.0
C2863 C 0.87378 0.47903 0.52521 0.0
N2864 N 0.85127 0.43392 0.53389 0.0
N2865 N 0.87089 0.44905 0.51462 0.0
N2866 N 0.8551 0.48347 0.55063 0.0
H2867 H 0.8168 0.42149 0.58581 0.0
H2868 H 0.811 0.46204 0.59612 0.0
H2869 H 0.84801 0.44259 0.60403 0.0
C2870 C 0.82827 0.44468 0.58703 0.0
C2871 C 0.82035 0.26814 0.48074 0.0
H2872 H 0.79798 0.27932 0.48878 0.0
H2873 H 0.81505 0.24562 0.46829 0.0
H2874 H 0.83208 0.28438 0.46403 0.0
O2875 O 0.88688 0.33343 0.51319 0.0
O2876 O 0.89509 0.38432 0.51651 0.0
C2877 C 0.82015 0.36353 0.47399 0.0
O2878 O 0.86419 0.38303 0.58083 0.0
O2879 O 0.86138 0.33123 0.5818 0.0
Zn2880 Zn 0.34075 0.0979 0.28348 0.0
O2881 O 0.34119 0.04946 0.29933 0.0
C2882 C 0.36908 0.11746 0.34578 0.0
Zn2883 Zn 0.39342 0.09238 0.28442 0.0
C2884 C 0.36608 0.03425 0.30707 0.0
O2885 O 0.39323 0.04709 0.30418 0.0
C2886 C 0.36895 0.15387 0.25693 0.0
O2887 O 0.38935 0.07175 0.23812 0.0
O2888 O 0.33816 0.08106 0.23725 0.0
N2889 N 0.44254 0.09669 0.28205 0.0
C2890 C 0.46353 0.0917 0.2584 0.0
C2891 C 0.48473 0.12503 0.28991 0.0
N2892 N 0.45608 0.11719 0.30166 0.0
N2893 N 0.4899 0.10925 0.26282 0.0
C2894 C 0.27143 0.09163 0.30582 0.0
C2895 C 0.24722 0.12377 0.27522 0.0
N2896 N 0.29233 0.10127 0.28389 0.0
N2897 N 0.2772 0.12088 0.26462 0.0
N2898 N 0.24279 0.1051 0.30064 0.0
H2899 H 0.30477 0.0668 0.33581 0.0
H2900 H 0.26422 0.061 0.34612 0.0
H2901 H 0.28366 0.098 0.35404 0.0
C2902 C 0.28157 0.07826 0.33703 0.0
C2903 C 0.45813 0.07036 0.23076 0.0
H2904 H 0.44695 0.04799 0.23881 0.0
H2905 H 0.48065 0.06507 0.21831 0.0
H2906 H 0.44189 0.08208 0.21406 0.0
O2907 O 0.39281 0.13689 0.26319 0.0
O2908 O 0.34192 0.14509 0.26651 0.0
C2909 C 0.36274 0.07015 0.224 0.0
O2910 O 0.34322 0.1142 0.33084 0.0
O2911 O 0.39502 0.11139 0.3318 0.0
Zn2912 Zn 0.62835 0.59075 0.03347 0.0
O2913 O 0.67679 0.59117 0.04932 0.0
C2914 C 0.6088 0.61908 0.09577 0.0
Zn2915 Zn 0.63388 0.64341 0.03441 0.0
C2916 C 0.692 0.61606 0.05706 0.0
O2917 O 0.67917 0.64321 0.05417 0.0
C2918 C 0.57239 0.61896 0.00693 0.0
O2919 O 0.65451 0.63934 0.98811 0.0
O2920 O 0.64519 0.58814 0.98725 0.0
N2921 N 0.62959 0.69253 0.03203 0.0
C2922 C 0.63457 0.71352 0.00837 0.0
C2923 C 0.60126 0.73474 0.03989 0.0
N2924 N 0.6091 0.70608 0.05164 0.0
N2925 N 0.61703 0.73989 0.0128 0.0
C2926 C 0.63461 0.52142 0.05581 0.0
C2927 C 0.60247 0.49721 0.02521 0.0
N2928 N 0.62498 0.54233 0.03389 0.0
N2929 N 0.60536 0.52719 0.01462 0.0
N2930 N 0.62115 0.49278 0.05063 0.0
H2931 H 0.65945 0.55476 0.08581 0.0
H2932 H 0.66524 0.51421 0.09612 0.0
H2933 H 0.62823 0.53366 0.10403 0.0
C2934 C 0.64798 0.53156 0.08703 0.0
C2935 C 0.6559 0.7081 0.98073 0.0
H2936 H 0.67827 0.69692 -0.01123 0.0
H2937 H 0.6612 0.73062 0.96828 0.0
H2938 H 0.64417 0.69187 0.96402 0.0
O2939 O 0.58937 0.64282 0.01318 0.0
O2940 O 0.58116 0.59193 0.01651 0.0
C2941 C 0.6561 0.61272 0.97399 0.0
O2942 O 0.61206 0.59322 0.08083 0.0
O2943 O 0.61487 0.64502 0.08179 0.0
Zn2944 Zn 0.6355 0.37835 0.28347 0.0
O2945 O 0.63507 0.42679 0.29932 0.0
C2946 C 0.60717 0.35879 0.34577 0.0
Zn2947 Zn 0.58284 0.38387 0.28441 0.0
C2948 C 0.61018 0.44199 0.30706 0.0
O2949 O 0.58303 0.42915 0.30418 0.0
C2950 C 0.6073 0.32238 0.25692 0.0
O2951 O 0.5869 0.4045 0.23811 0.0
O2952 O 0.6381 0.39519 0.23724 0.0
N2953 N 0.53372 0.37956 0.28204 0.0
C2954 C 0.51273 0.38455 0.25839 0.0
C2955 C 0.49152 0.35123 0.28991 0.0
N2956 N 0.52018 0.35907 0.30165 0.0
N2957 N 0.48636 0.367 0.26282 0.0
C2958 C 0.70482 0.38462 0.30581 0.0
C2959 C 0.72904 0.35249 0.27521 0.0
N2960 N 0.68392 0.37498 0.28389 0.0
N2961 N 0.69906 0.35537 0.26461 0.0
N2962 N 0.73347 0.37116 0.30063 0.0
H2963 H 0.67149 0.40945 0.33581 0.0
H2964 H 0.71203 0.41524 0.34613 0.0
H2965 H 0.69258 0.37823 0.35403 0.0
C2966 C 0.69468 0.39798 0.33703 0.0
C2967 C 0.51813 0.40588 0.23075 0.0
H2968 H 0.5293 0.42825 0.2388 0.0
H2969 H 0.49561 0.41118 0.2183 0.0
H2970 H 0.53437 0.39416 0.21405 0.0
O2971 O 0.58344 0.33935 0.26318 0.0
O2972 O 0.63433 0.33115 0.2665 0.0
C2973 C 0.61352 0.40609 0.22399 0.0
O2974 O 0.63304 0.36205 0.33083 0.0
O2975 O 0.58123 0.36485 0.33179 0.0
Zn2976 Zn 0.13386 0.83283 0.94182 0.0
O2977 O 0.1545 0.8369 -0.01188 0.0
C2978 C 0.07237 0.8573 0.9693 0.0
Zn2979 Zn 0.12834 0.8855 0.94277 0.0
C2980 C 0.15609 0.86351 0.00224 0.0
O2981 O 0.14518 0.88809 -0.01101 0.0
C2982 C 0.10878 0.85718 0.88046 0.0
O2983 O 0.17679 0.88506 0.92692 0.0
O2984 O 0.17914 0.83302 0.92205 0.0
N2985 N 0.12497 0.93392 0.94235 0.0
C2986 C 0.13462 0.95483 0.92044 0.0
C2987 C 0.10244 0.97903 0.95101 0.0
N2988 N 0.10533 0.94905 0.96161 0.0
N2989 N 0.12114 0.98347 0.92561 0.0
C2990 C 0.13454 0.76272 0.96783 0.0
C2991 C 0.10121 0.74152 0.93632 0.0
N2992 N 0.12955 0.78371 0.94419 0.0
N2993 N 0.10905 0.77018 0.92458 0.0
N2994 N 0.11698 0.73635 0.96341 0.0
H2995 H 0.17825 0.77929 0.98742 0.0
H2996 H 0.16118 0.7456 0.00792 0.0
H2997 H 0.14416 0.78436 0.01218 0.0
C2998 C 0.15588 0.76812 -0.00453 0.0
C2999 C 0.14804 0.94471 0.88925 0.0
H3000 H 0.15946 0.92149 0.89046 0.0
H3001 H 0.16535 0.96205 0.88024 0.0
H3002 H 0.12834 0.94268 0.8722 0.0
O3003 O 0.11205 0.88304 0.8954 0.0
O3004 O 0.11484 0.83123 0.89444 0.0
C3005 C 0.19199 0.86017 0.91917 0.0
O3006 O 0.08935 0.83344 0.96305 0.0
O3007 O 0.08114 0.88433 0.95972 0.0
Zn3008 Zn 0.39342 0.88386 0.19182 0.0
O3009 O 0.38935 0.9045 0.23812 0.0
C3010 C 0.36895 0.82237 0.21931 0.0
Zn3011 Zn 0.34075 0.87834 0.19277 0.0
C3012 C 0.36274 0.90609 0.25224 0.0
O3013 O 0.33816 0.89518 0.23899 0.0
C3014 C 0.36907 0.85878 0.13046 0.0
O3015 O 0.34119 0.92679 0.17692 0.0
O3016 O 0.39323 0.92914 0.17205 0.0
N3017 N 0.29233 0.87497 0.19235 0.0
C3018 C 0.27142 0.88462 0.17044 0.0
C3019 C 0.24722 0.85244 0.20101 0.0
N3020 N 0.2772 0.85533 0.2116 0.0
N3021 N 0.24278 0.87114 0.1756 0.0
C3022 C 0.46353 0.88454 0.21784 0.0
C3023 C 0.48473 0.85121 0.18633 0.0
N3024 N 0.44254 0.87955 0.19419 0.0
N3025 N 0.45607 0.85905 0.17459 0.0
N3026 N 0.48989 0.86698 0.21342 0.0
H3027 H 0.44695 0.92825 0.23743 0.0
H3028 H 0.48065 0.91118 0.25793 0.0
H3029 H 0.44188 0.89416 0.26218 0.0
C3030 C 0.45813 0.90588 0.24548 0.0
C3031 C 0.28155 0.89804 0.13924 0.0
H3032 H 0.30476 0.90946 0.14046 0.0
H3033 H 0.2642 0.91535 0.13024 0.0
H3034 H 0.28358 0.87834 0.12219 0.0
O3035 O 0.34321 0.86205 0.1454 0.0
O3036 O 0.39502 0.86484 0.14444 0.0
C3037 C 0.36608 0.94199 0.16917 0.0
O3038 O 0.39281 0.83935 0.21305 0.0
O3039 O 0.34192 0.83115 0.20972 0.0
Zn3040 Zn 0.08283 0.09238 0.69182 0.0
O3041 O 0.0869 0.07175 0.73812 0.0
C3042 C 0.1073 0.15387 0.7193 0.0
Zn3043 Zn 0.13549 0.0979 0.69276 0.0
C3044 C 0.11351 0.07016 0.75224 0.0
O3045 O 0.13809 0.08107 0.73899 0.0
C3046 C 0.10717 0.11746 0.63046 0.0
O3047 O 0.13506 0.04946 0.67692 0.0
O3048 O 0.08301 0.0471 0.67205 0.0
N3049 N 0.18392 0.10128 0.69235 0.0
C3050 C 0.20483 0.09163 0.67044 0.0
C3051 C 0.22902 0.12381 0.701 0.0
N3052 N 0.19904 0.12092 0.7116 0.0
N3053 N 0.23346 0.10511 0.6756 0.0
C3054 C 0.01272 0.09171 0.71784 0.0
C3055 C -0.00848 0.12504 0.68633 0.0
N3056 N 0.03371 0.09669 0.69419 0.0
N3057 N 0.02017 0.11719 0.67458 0.0
N3058 N 0.98635 0.10926 0.71341 0.0
H3059 H 0.02929 0.04799 0.73743 0.0
H3060 H -0.0044 0.06507 0.75793 0.0
H3061 H 0.03436 0.08208 0.76218 0.0
C3062 C 0.01812 0.07037 0.74548 0.0
C3063 C 0.1947 0.0782 0.63924 0.0
H3064 H 0.17149 0.06678 0.64046 0.0
H3065 H 0.21205 0.0609 0.63024 0.0
H3066 H 0.19267 0.09791 0.62219 0.0
O3067 O 0.13303 0.1142 0.6454 0.0
O3068 O 0.08123 0.11141 0.64444 0.0
C3069 C 0.11016 0.03426 0.66917 0.0
O3070 O 0.08343 0.13689 0.71305 0.0
O3071 O 0.13432 0.1451 0.70972 0.0
loop_
_geom_bond_atom_site_label_1
_geom_bond_atom_site_label_2
_geom_bond_distance
_geom_bond_site_symmetry_2
_ccdc_geom_bond_type
Zn0 O1 2.055 . S
Zn0 O8 2.046 . S
Zn0 N16 2.036 . S
Zn0 O28 2.053 . S
Zn0 O30 2.066 . S
O1 Zn0 2.055 . S
O1 C4 1.259 . S
C2 O30 1.256 . S
C2 O31 1.244 . S
Zn3 O5 2.046 . S
Zn3 O7 2.055 . S
Zn3 N9 2.036 . S
Zn3 O27 2.066 . S
Zn3 O31 2.053 . S
C4 O1 1.259 . S
C4 O5 1.254 . S
O5 Zn3 2.046 . S
O5 C4 1.254 . S
C6 O27 1.256 . S
C6 O28 1.244 . S
O7 Zn3 2.055 . S
O7 C29 1.259 . S
O8 Zn0 2.046 . S
O8 C29 1.254 . S
N9 Zn3 2.036 . S
N9 C10 1.298 . S
N9 N12 1.398 . S
C10 N9 1.298 . S
C10 N13 1.367 . S
C10 C23 1.481 . S
C11 N12 1.299 . S
C11 N13 1.379 . S
N12 N9 1.398 . S
N12 C11 1.299 . S
N13 C10 1.367 . S
N13 C11 1.379 . S
C14 N16 1.298 . S
C14 N18 1.367 . S
C14 C22 1.481 1_455 S
C15 N17 1.299 . S
C15 N18 1.379 . S
N16 Zn0 2.036 . S
N16 C14 1.298 . S
N16 N17 1.398 . S
N17 C15 1.299 . S
N17 N16 1.398 . S
N18 C14 1.367 . S
N18 C15 1.379 . S
H19 C22 0.980 . S
H20 C22 0.981 . S
H21 C22 0.981 . S
C22 C14 1.481 1_655 S
C22 H19 0.980 . S
C22 H20 0.981 . S
C22 H21 0.981 . S
C23 C10 1.481 . S
C23 H24 0.980 . S
C23 H25 0.981 . S
C23 H26 0.981 . S
H24 C23 0.980 . S
H25 C23 0.981 . S
H26 C23 0.981 . S
O27 Zn3 2.066 . S
O27 C6 1.256 . S
O28 Zn0 2.053 . S
O28 C6 1.244 . S
C29 O7 1.259 . S
C29 O8 1.254 . S
O30 Zn0 2.066 . S
O30 C2 1.256 . S
O31 C2 1.244 . S
O31 Zn3 2.053 . S
Zn32 O33 2.055 . S
Zn32 O40 2.046 . S
Zn32 N48 2.036 . S
Zn32 O60 2.053 . S
Zn32 O62 2.066 . S
O33 Zn32 2.055 . S
O33 C36 1.259 . S
C34 O62 1.256 . S
C34 O63 1.244 . S
Zn35 O37 2.046 . S
Zn35 O39 2.055 . S
Zn35 N41 2.036 . S
Zn35 O59 2.066 . S
Zn35 O63 2.053 . S
C36 O33 1.259 . S
C36 O37 1.254 . S
O37 Zn35 2.046 . S
O37 C36 1.254 . S
C38 O59 1.256 . S
C38 O60 1.244 . S
O39 Zn35 2.055 . S
O39 C61 1.259 . S
O40 Zn32 2.046 . S
O40 C61 1.254 . S
N41 Zn35 2.036 . S
N41 C42 1.298 . S
N41 N44 1.398 . S
C42 N41 1.298 . S
C42 N45 1.367 . S
C42 C55 1.481 . S
C43 N44 1.299 . S
C43 N45 1.379 . S
N44 N41 1.398 . S
N44 C43 1.299 . S
N45 C42 1.367 . S
N45 C43 1.379 . S
C46 N48 1.298 . S
C46 N50 1.367 . S
C46 C54 1.481 . S
C47 N49 1.299 . S
C47 N50 1.379 . S
N48 Zn32 2.036 . S
N48 C46 1.298 . S
N48 N49 1.398 . S
N49 C47 1.299 . S
N49 N48 1.398 . S
N50 C46 1.367 . S
N50 C47 1.379 . S
H51 C54 0.980 . S
H52 C54 0.981 . S
H53 C54 0.981 . S
C54 C46 1.481 . S
C54 H51 0.980 . S
C54 H52 0.981 . S
C54 H53 0.981 . S
C55 C42 1.481 . S
C55 H56 0.980 . S
C55 H57 0.981 . S
C55 H58 0.981 . S
H56 C55 0.980 . S
H57 C55 0.981 . S
H58 C55 0.981 . S
O59 Zn35 2.066 . S
O59 C38 1.256 . S
O60 Zn32 2.053 . S
O60 C38 1.244 . S
C61 O39 1.259 . S
C61 O40 1.254 . S
O62 Zn32 2.066 . S
O62 C34 1.256 . S
O63 C34 1.244 . S
O63 Zn35 2.053 . S
Zn64 O65 2.055 . S
Zn64 O72 2.046 . S
Zn64 N80 2.036 . S
Zn64 O92 2.053 . S
Zn64 O94 2.066 . S
O65 Zn64 2.055 . S
O65 C68 1.259 . S
C66 O94 1.256 . S
C66 O95 1.244 . S
Zn67 O69 2.046 . S
Zn67 O71 2.055 . S
Zn67 N73 2.036 . S
Zn67 O91 2.066 . S
Zn67 O95 2.053 . S
C68 O65 1.259 . S
C68 O69 1.254 . S
O69 Zn67 2.046 . S
O69 C68 1.254 . S
C70 O91 1.256 . S
C70 O92 1.244 . S
O71 Zn67 2.055 . S
O71 C93 1.259 . S
O72 Zn64 2.046 . S
O72 C93 1.254 . S
N73 Zn67 2.036 . S
N73 C74 1.298 . S
N73 N76 1.398 . S
C74 N73 1.298 . S
C74 N77 1.357 1_556 S
C74 C87 1.481 . S
C75 N76 1.301 1_554 S
C75 N77 1.379 . S
N76 N73 1.398 . S
N76 C75 1.301 1_556 S
N77 C74 1.357 1_554 S
N77 C75 1.379 . S
C78 N80 1.298 . S
C78 N82 1.367 . S
C78 C86 1.481 . S
C79 N81 1.299 . S
C79 N82 1.379 . S
N80 Zn64 2.036 . S
N80 C78 1.298 . S
N80 N81 1.398 . S
N81 C79 1.299 . S
N81 N80 1.398 . S
N82 C78 1.367 . S
N82 C79 1.379 . S
H83 C86 0.980 . S
H84 C86 0.981 . S
H85 C86 0.981 . S
C86 C78 1.481 . S
C86 H83 0.980 . S
C86 H84 0.981 . S
C86 H85 0.981 . S
C87 C74 1.481 . S
C87 H88 0.980 . S
C87 H89 0.981 . S
C87 H90 0.981 . S
H88 C87 0.980 . S
H89 C87 0.981 . S
H90 C87 0.981 . S
O91 Zn67 2.066 . S
O91 C70 1.256 . S
O92 Zn64 2.053 . S
O92 C70 1.244 . S
C93 O71 1.259 . S
C93 O72 1.254 . S
O94 Zn64 2.066 . S
O94 C66 1.256 . S
O95 C66 1.244 . S
O95 Zn67 2.053 . S
Zn96 O97 2.055 . S
Zn96 O104 2.046 . S
Zn96 N112 2.036 . S
Zn96 O124 2.053 . S
Zn96 O126 2.066 . S
O97 Zn96 2.055 . S
O97 C100 1.259 . S
C98 O126 1.256 . S
C98 O127 1.244 . S
Zn99 O101 2.046 . S
Zn99 O103 2.055 . S
Zn99 N105 2.036 . S
Zn99 O123 2.066 . S
Zn99 O127 2.053 . S
C100 O97 1.259 . S
C100 O101 1.254 . S
O101 Zn99 2.046 . S
O101 C100 1.254 . S
C102 O123 1.256 . S
C102 O124 1.244 . S
O103 Zn99 2.055 . S
O103 C125 1.259 . S
O104 Zn96 2.046 . S
O104 C125 1.254 . S
N105 Zn99 2.036 . S
N105 C106 1.298 . S
N105 N108 1.398 . S
C106 N105 1.298 . S
C106 N109 1.367 . S
C106 C119 1.481 . S
C107 N108 1.299 . S
C107 N109 1.379 . S
N108 N105 1.398 . S
N108 C107 1.299 . S
N109 C106 1.367 . S
N109 C107 1.379 . S
C110 N112 1.298 . S
C110 N114 1.367 1_554 S
C110 C118 1.481 . S
C111 N113 1.299 1_556 S
C111 N114 1.379 . S
N112 Zn96 2.036 . S
N112 C110 1.298 . S
N112 N113 1.398 . S
N113 C111 1.299 1_554 S
N113 N112 1.398 . S
N114 C110 1.367 1_556 S
N114 C111 1.379 . S
H115 C118 0.980 . S
H116 C118 0.981 . S
H117 C118 0.981 . S
C118 C110 1.481 . S
C118 H115 0.980 . S
C118 H116 0.981 . S
C118 H117 0.981 . S
C119 C106 1.481 . S
C119 H120 0.980 . S
C119 H121 0.981 . S
C119 H122 0.981 . S
H120 C119 0.980 . S
H121 C119 0.981 . S
H122 C119 0.981 . S
O123 Zn99 2.066 . S
O123 C102 1.256 . S
O124 Zn96 2.053 . S
O124 C102 1.244 . S
C125 O103 1.259 . S
C125 O104 1.254 . S
O126 Zn96 2.066 . S
O126 C98 1.256 . S
O127 C98 1.244 . S
O127 Zn99 2.053 . S
Zn128 O129 2.055 . S
Zn128 O136 2.046 . S
Zn128 N144 2.036 . S
Zn128 O156 2.053 . S
Zn128 O158 2.066 . S
O129 Zn128 2.055 . S
O129 C132 1.259 . S
C130 O158 1.256 . S
C130 O159 1.244 . S
Zn131 O133 2.046 . S
Zn131 O135 2.055 . S
Zn131 N137 2.036 . S
Zn131 O155 2.066 . S
Zn131 O159 2.053 . S
C132 O129 1.259 . S
C132 O133 1.254 . S
O133 Zn131 2.046 . S
O133 C132 1.254 . S
C134 O155 1.256 . S
C134 O156 1.244 . S
O135 Zn131 2.055 . S
O135 C157 1.259 . S
O136 Zn128 2.046 . S
O136 C157 1.254 . S
N137 Zn131 2.036 . S
N137 C138 1.298 . S
N137 N140 1.398 . S
C138 N137 1.298 . S
C138 N141 1.357 1_554 S
C138 C151 1.481 . S
C139 N140 1.301 1_556 S
C139 N141 1.379 . S
N140 N137 1.398 . S
N140 C139 1.301 1_554 S
N141 C138 1.357 1_556 S
N141 C139 1.379 . S
C142 N144 1.298 . S
C142 N146 1.367 . S
C142 C150 1.481 1_455 S
C143 N145 1.299 . S
C143 N146 1.379 . S
N144 Zn128 2.036 . S
N144 C142 1.298 . S
N144 N145 1.398 . S
N145 C143 1.299 . S
N145 N144 1.398 . S
N146 C142 1.367 . S
N146 C143 1.379 . S
H147 C150 0.980 . S
H148 C150 0.981 . S
H149 C150 0.981 . S
C150 C142 1.481 1_655 S
C150 H147 0.980 . S
C150 H148 0.981 . S
C150 H149 0.981 . S
C151 C138 1.481 . S
C151 H152 0.980 . S
C151 H153 0.981 . S
C151 H154 0.981 . S
H152 C151 0.980 . S
H153 C151 0.981 . S
H154 C151 0.981 . S
O155 Zn131 2.066 . S
O155 C134 1.256 . S
O156 Zn128 2.053 . S
O156 C134 1.244 . S
C157 O135 1.259 . S
C157 O136 1.254 . S
O158 Zn128 2.066 . S
O158 C130 1.256 . S
O159 C130 1.244 . S
O159 Zn131 2.053 . S
Zn160 O161 2.055 . S
Zn160 O168 2.046 . S
Zn160 N176 2.036 . S
Zn160 O188 2.053 . S
Zn160 O190 2.066 . S
O161 Zn160 2.055 . S
O161 C164 1.259 . S
C162 O190 1.256 . S
C162 O191 1.244 . S
Zn163 O165 2.046 . S
Zn163 O167 2.055 . S
Zn163 N169 2.036 . S
Zn163 O187 2.066 . S
Zn163 O191 2.053 . S
C164 O161 1.259 . S
C164 O165 1.254 . S
O165 Zn163 2.046 . S
O165 C164 1.254 . S
C166 O187 1.256 . S
C166 O188 1.244 . S
O167 Zn163 2.055 . S
O167 C189 1.259 . S
O168 Zn160 2.046 . S
O168 C189 1.254 . S
N169 Zn163 2.036 . S
N169 C170 1.298 . S
N169 N172 1.398 . S
C170 N169 1.298 . S
C170 N173 1.367 . S
C170 C183 1.481 . S
C171 N172 1.299 . S
C171 N173 1.379 . S
N172 N169 1.398 . S
N172 C171 1.299 . S
N173 C170 1.367 . S
N173 C171 1.379 . S
C174 N176 1.298 . S
C174 N178 1.367 . S
C174 C182 1.481 . S
C175 N177 1.299 . S
C175 N178 1.379 . S
N176 Zn160 2.036 . S
N176 C174 1.298 . S
N176 N177 1.398 . S
N177 C175 1.299 . S
N177 N176 1.398 . S
N178 C174 1.367 . S
N178 C175 1.379 . S
H179 C182 0.980 . S
H180 C182 0.981 . S
H181 C182 0.981 . S
C182 C174 1.481 . S
C182 H179 0.980 . S
C182 H180 0.981 . S
C182 H181 0.981 . S
C183 C170 1.481 . S
C183 H184 0.980 . S
C183 H185 0.981 . S
C183 H186 0.981 . S
H184 C183 0.980 . S
H185 C183 0.981 . S
H186 C183 0.981 . S
O187 Zn163 2.066 . S
O187 C166 1.256 . S
O188 Zn160 2.053 . S
O188 C166 1.244 . S
C189 O167 1.259 . S
C189 O168 1.254 . S
O190 Zn160 2.066 . S
O190 C162 1.256 . S
O191 C162 1.244 . S
O191 Zn163 2.053 . S
Zn192 O193 2.055 . S
Zn192 O200 2.046 . S
Zn192 N208 2.036 . S
Zn192 O220 2.053 . S
Zn192 O222 2.066 . S
O193 Zn192 2.055 . S
O193 C196 1.259 . S
C194 O222 1.256 . S
C194 O223 1.244 . S
Zn195 O197 2.046 . S
Zn195 O199 2.055 . S
Zn195 N201 2.036 . S
Zn195 O219 2.066 . S
Zn195 O223 2.053 . S
C196 O193 1.259 . S
C196 O197 1.254 . S
O197 Zn195 2.046 . S
O197 C196 1.254 . S
C198 O219 1.256 . S
C198 O220 1.244 . S
O199 Zn195 2.055 . S
O199 C221 1.259 . S
O200 Zn192 2.046 . S
O200 C221 1.254 . S
N201 Zn195 2.036 . S
N201 C202 1.298 . S
N201 N204 1.398 . S
C202 N201 1.298 . S
C202 N205 1.367 . S
C202 C215 1.481 . S
C203 N204 1.299 . S
C203 N205 1.379 . S
N204 N201 1.398 . S
N204 C203 1.299 . S
N205 C202 1.367 . S
N205 C203 1.379 . S
C206 N208 1.298 . S
C206 N210 1.367 . S
C206 C214 1.481 . S
C207 N209 1.299 . S
C207 N210 1.379 . S
N208 Zn192 2.036 . S
N208 C206 1.298 . S
N208 N209 1.398 . S
N209 C207 1.299 . S
N209 N208 1.398 . S
N210 C206 1.367 . S
N210 C207 1.379 . S
H211 C214 0.980 . S
H212 C214 0.981 . S
H213 C214 0.981 . S
C214 C206 1.481 . S
C214 H211 0.980 . S
C214 H212 0.981 . S
C214 H213 0.981 . S
C215 C202 1.481 . S
C215 H216 0.980 . S
C215 H217 0.981 . S
C215 H218 0.981 . S
H216 C215 0.980 . S
H217 C215 0.981 . S
H218 C215 0.981 . S
O219 Zn195 2.066 . S
O219 C198 1.256 . S
O220 Zn192 2.053 . S
O220 C198 1.244 . S
C221 O199 1.259 . S
C221 O200 1.254 . S
O222 Zn192 2.066 . S
O222 C194 1.256 . S
O223 C194 1.244 . S
O223 Zn195 2.053 . S
Zn224 O225 2.055 . S
Zn224 O232 2.046 . S
Zn224 N240 2.036 . S
Zn224 O252 2.053 . S
Zn224 O254 2.066 . S
O225 Zn224 2.055 . S
O225 C228 1.259 . S
C226 O254 1.256 . S
C226 O255 1.244 . S
Zn227 O229 2.046 . S
Zn227 O231 2.055 . S
Zn227 N233 2.036 . S
Zn227 O251 2.066 . S
Zn227 O255 2.053 . S
C228 O225 1.259 . S
C228 O229 1.254 . S
O229 Zn227 2.046 . S
O229 C228 1.254 . S
C230 O251 1.256 . S
C230 O252 1.244 . S
O231 Zn227 2.055 . S
O231 C253 1.259 . S
O232 Zn224 2.046 . S
O232 C253 1.254 . S
N233 Zn227 2.036 . S
N233 C234 1.298 . S
N233 N236 1.398 . S
C234 N233 1.298 . S
C234 N237 1.367 . S
C234 C247 1.481 . S
C235 N236 1.299 . S
C235 N237 1.379 . S
N236 N233 1.398 . S
N236 C235 1.299 . S
N237 C234 1.367 . S
N237 C235 1.379 . S
C238 N240 1.298 . S
C238 N242 1.367 1_556 S
C238 C246 1.481 . S
C239 N241 1.299 1_554 S
C239 N242 1.379 . S
N240 Zn224 2.036 . S
N240 C238 1.298 . S
N240 N241 1.398 . S
N241 C239 1.299 1_556 S
N241 N240 1.398 . S
N242 C238 1.367 1_554 S
N242 C239 1.379 . S
H243 C246 0.980 . S
H244 C246 0.981 . S
H245 C246 0.981 . S
C246 C238 1.481 . S
C246 H243 0.980 . S
C246 H244 0.981 . S
C246 H245 0.981 . S
C247 C234 1.481 . S
C247 H248 0.980 . S
C247 H249 0.981 . S
C247 H250 0.981 . S
H248 C247 0.980 . S
H249 C247 0.981 . S
H250 C247 0.981 . S
O251 Zn227 2.066 . S
O251 C230 1.256 . S
O252 Zn224 2.053 . S
O252 C230 1.244 . S
C253 O231 1.259 . S
C253 O232 1.254 . S
O254 Zn224 2.066 . S
O254 C226 1.256 . S
O255 C226 1.244 . S
O255 Zn227 2.053 . S
Zn256 O257 2.055 . S
Zn256 O264 2.046 . S
Zn256 N272 2.036 . S
Zn256 O284 2.053 . S
Zn256 O286 2.066 . S
O257 Zn256 2.055 . S
O257 C260 1.259 . S
C258 O286 1.256 . S
C258 O287 1.244 . S
Zn259 O261 2.046 . S
Zn259 O263 2.055 . S
Zn259 N265 2.036 . S
Zn259 O283 2.066 . S
Zn259 O287 2.053 . S
C260 O257 1.259 . S
C260 O261 1.254 . S
O261 Zn259 2.046 . S
O261 C260 1.254 . S
C262 O283 1.256 . S
C262 O284 1.244 . S
O263 Zn259 2.055 . S
O263 C285 1.259 . S
O264 Zn256 2.046 . S
O264 C285 1.254 . S
N265 Zn259 2.036 . S
N265 C266 1.298 . S
N265 N268 1.398 . S
C266 N265 1.298 . S
C266 N269 1.367 . S
C266 C279 1.481 . S
C267 N268 1.299 . S
C267 N269 1.379 . S
N268 N265 1.398 . S
N268 C267 1.299 . S
N269 C266 1.367 . S
N269 C267 1.379 . S
C270 N272 1.298 . S
C270 N274 1.367 . S
C270 C278 1.481 1_545 S
C271 N273 1.299 . S
C271 N274 1.379 . S
N272 Zn256 2.036 . S
N272 C270 1.298 . S
N272 N273 1.398 . S
N273 C271 1.299 . S
N273 N272 1.398 . S
N274 C270 1.367 . S
N274 C271 1.379 . S
H275 C278 0.980 . S
H276 C278 0.981 . S
H277 C278 0.981 . S
C278 C270 1.481 1_565 S
C278 H275 0.980 . S
C278 H276 0.981 . S
C278 H277 0.981 . S
C279 C266 1.481 . S
C279 H280 0.980 . S
C279 H281 0.981 . S
C279 H282 0.981 . S
H280 C279 0.980 . S
H281 C279 0.981 . S
H282 C279 0.981 . S
O283 Zn259 2.066 . S
O283 C262 1.256 . S
O284 Zn256 2.053 . S
O284 C262 1.244 . S
C285 O263 1.259 . S
C285 O264 1.254 . S
O286 Zn256 2.066 . S
O286 C258 1.256 . S
O287 C258 1.244 . S
O287 Zn259 2.053 . S
Zn288 O289 2.055 . S
Zn288 O296 2.046 . S
Zn288 N304 2.036 . S
Zn288 O316 2.053 . S
Zn288 O318 2.066 . S
O289 Zn288 2.055 . S
O289 C292 1.259 . S
C290 O318 1.256 . S
C290 O319 1.244 . S
Zn291 O293 2.046 . S
Zn291 O295 2.055 . S
Zn291 N297 2.036 . S
Zn291 O315 2.066 . S
Zn291 O319 2.053 . S
C292 O289 1.259 . S
C292 O293 1.254 . S
O293 Zn291 2.046 . S
O293 C292 1.254 . S
C294 O315 1.256 . S
C294 O316 1.244 . S
O295 Zn291 2.055 . S
O295 C317 1.259 . S
O296 Zn288 2.046 . S
O296 C317 1.254 . S
N297 Zn291 2.036 . S
N297 C298 1.298 . S
N297 N300 1.398 . S
C298 N297 1.298 . S
C298 N301 1.367 . S
C298 C311 1.481 . S
C299 N300 1.299 . S
C299 N301 1.379 . S
N300 N297 1.398 . S
N300 C299 1.299 . S
N301 C298 1.367 . S
N301 C299 1.379 . S
C302 N304 1.298 . S
C302 N306 1.367 1_545 S
C302 C310 1.481 . S
C303 N305 1.299 1_565 S
C303 N306 1.379 . S
N304 Zn288 2.036 . S
N304 C302 1.298 . S
N304 N305 1.398 . S
N305 C303 1.299 1_545 S
N305 N304 1.398 . S
N306 C302 1.367 1_565 S
N306 C303 1.379 . S
H307 C310 0.980 . S
H308 C310 0.981 . S
H309 C310 0.981 . S
C310 C302 1.481 . S
C310 H307 0.980 . S
C310 H308 0.981 . S
C310 H309 0.981 . S
C311 C298 1.481 . S
C311 H312 0.980 . S
C311 H313 0.981 . S
C311 H314 0.981 . S
H312 C311 0.980 . S
H313 C311 0.981 . S
H314 C311 0.981 . S
O315 Zn291 2.066 . S
O315 C294 1.256 . S
O316 Zn288 2.053 . S
O316 C294 1.244 . S
C317 O295 1.259 . S
C317 O296 1.254 . S
O318 Zn288 2.066 . S
O318 C290 1.256 . S
O319 C290 1.244 . S
O319 Zn291 2.053 . S
Zn320 O321 2.055 . S
Zn320 O328 2.046 . S
Zn320 N336 2.036 . S
Zn320 O348 2.053 . S
Zn320 O350 2.066 . S
O321 Zn320 2.055 . S
O321 C324 1.259 . S
C322 O350 1.256 . S
C322 O351 1.244 . S
Zn323 O325 2.046 . S
Zn323 O327 2.055 . S
Zn323 N329 2.036 . S
Zn323 O347 2.066 . S
Zn323 O351 2.053 . S
C324 O321 1.259 . S
C324 O325 1.254 . S
O325 Zn323 2.046 . S
O325 C324 1.254 . S
C326 O347 1.256 . S
C326 O348 1.244 . S
O327 Zn323 2.055 . S
O327 C349 1.259 . S
O328 Zn320 2.046 . S
O328 C349 1.254 . S
N329 Zn323 2.036 . S
N329 C330 1.298 . S
N329 N332 1.398 . S
C330 N329 1.298 . S
C330 N333 1.357 1_455 S
C330 C343 1.481 . S
C331 N332 1.301 1_655 S
C331 N333 1.379 . S
N332 N329 1.398 . S
N332 C331 1.301 1_455 S
N333 C330 1.357 1_655 S
N333 C331 1.379 . S
C334 N336 1.298 . S
C334 N338 1.367 . S
C334 C342 1.481 1_565 S
C335 N337 1.299 . S
C335 N338 1.379 . S
N336 Zn320 2.036 . S
N336 C334 1.298 . S
N336 N337 1.398 . S
N337 C335 1.299 . S
N337 N336 1.398 . S
N338 C334 1.367 . S
N338 C335 1.379 . S
H339 C342 0.980 . S
H340 C342 0.981 . S
H341 C342 0.981 . S
C342 C334 1.481 1_545 S
C342 H339 0.980 . S
C342 H340 0.981 . S
C342 H341 0.981 . S
C343 C330 1.481 . S
C343 H344 0.980 . S
C343 H345 0.981 . S
C343 H346 0.981 . S
H344 C343 0.980 . S
H345 C343 0.981 . S
H346 C343 0.981 . S
O347 Zn323 2.066 . S
O347 C326 1.256 . S
O348 Zn320 2.053 . S
O348 C326 1.244 . S
C349 O327 1.259 . S
C349 O328 1.254 . S
O350 Zn320 2.066 . S
O350 C322 1.256 . S
O351 C322 1.244 . S
O351 Zn323 2.053 . S
Zn352 O353 2.055 . S
Zn352 O360 2.046 . S
Zn352 N368 2.036 . S
Zn352 O380 2.053 . S
Zn352 O382 2.066 . S
O353 Zn352 2.055 . S
O353 C356 1.259 . S
C354 O382 1.256 . S
C354 O383 1.244 . S
Zn355 O357 2.046 . S
Zn355 O359 2.055 . S
Zn355 N361 2.036 . S
Zn355 O379 2.066 . S
Zn355 O383 2.053 . S
C356 O353 1.259 . S
C356 O357 1.254 . S
O357 Zn355 2.046 . S
O357 C356 1.254 . S
C358 O379 1.256 . S
C358 O380 1.244 . S
O359 Zn355 2.055 . S
O359 C381 1.259 . S
O360 Zn352 2.046 . S
O360 C381 1.254 . S
N361 Zn355 2.036 . S
N361 C362 1.298 . S
N361 N364 1.398 . S
C362 N361 1.298 . S
C362 N365 1.367 1_565 S
C362 C375 1.481 . S
C363 N364 1.299 1_545 S
C363 N365 1.379 . S
N364 N361 1.398 . S
N364 C363 1.299 1_565 S
N365 C362 1.367 1_545 S
N365 C363 1.379 . S
C366 N368 1.298 . S
C366 N370 1.367 . S
C366 C374 1.481 . S
C367 N369 1.299 . S
C367 N370 1.379 . S
N368 Zn352 2.036 . S
N368 C366 1.298 . S
N368 N369 1.398 . S
N369 C367 1.299 . S
N369 N368 1.398 . S
N370 C366 1.367 . S
N370 C367 1.379 . S
H371 C374 0.980 . S
H372 C374 0.981 . S
H373 C374 0.981 . S
C374 C366 1.481 . S
C374 H371 0.980 . S
C374 H372 0.981 . S
C374 H373 0.981 . S
C375 C362 1.481 . S
C375 H376 0.980 . S
C375 H377 0.981 . S
C375 H378 0.981 . S
H376 C375 0.980 . S
H377 C375 0.981 . S
H378 C375 0.981 . S
O379 Zn355 2.066 . S
O379 C358 1.256 . S
O380 Zn352 2.053 . S
O380 C358 1.244 . S
C381 O359 1.259 . S
C381 O360 1.254 . S
O382 Zn352 2.066 . S
O382 C354 1.256 . S
O383 C354 1.244 . S
O383 Zn355 2.053 . S
Zn384 O385 2.055 . S
Zn384 O392 2.046 . S
Zn384 N400 2.036 . S
Zn384 O412 2.053 . S
Zn384 O414 2.066 . S
O385 Zn384 2.055 . S
O385 C388 1.259 . S
C386 O414 1.256 . S
C386 O415 1.244 . S
Zn387 O389 2.046 . S
Zn387 O391 2.055 . S
Zn387 N393 2.036 . S
Zn387 O411 2.066 . S
Zn387 O415 2.053 . S
C388 O385 1.259 . S
C388 O389 1.254 . S
O389 Zn387 2.046 . S
O389 C388 1.254 . S
C390 O411 1.256 . S
C390 O412 1.244 . S
O391 Zn387 2.055 . S
O391 C413 1.259 . S
O392 Zn384 2.046 . S
O392 C413 1.254 . S
N393 Zn387 2.036 . S
N393 C394 1.298 . S
N393 N396 1.398 . S
C394 N393 1.298 . S
C394 N397 1.367 . S
C394 C407 1.481 1_565 S
C395 N396 1.299 . S
C395 N397 1.379 . S
N396 N393 1.398 . S
N396 C395 1.299 . S
N397 C394 1.367 . S
N397 C395 1.379 . S
C398 N400 1.298 . S
C398 N402 1.367 . S
C398 C406 1.481 . S
C399 N401 1.299 . S
C399 N402 1.379 . S
N400 Zn384 2.036 . S
N400 C398 1.298 . S
N400 N401 1.398 . S
N401 C399 1.299 . S
N401 N400 1.398 . S
N402 C398 1.367 . S
N402 C399 1.379 . S
H403 C406 0.980 . S
H404 C406 0.981 . S
H405 C406 0.981 . S
C406 C398 1.481 . S
C406 H403 0.980 . S
C406 H404 0.981 . S
C406 H405 0.981 . S
C407 C394 1.481 1_545 S
C407 H408 0.980 . S
C407 H409 0.981 . S
C407 H410 0.981 . S
H408 C407 0.980 . S
H409 C407 0.981 . S
H410 C407 0.981 . S
O411 Zn387 2.066 . S
O411 C390 1.256 . S
O412 Zn384 2.053 . S
O412 C390 1.244 . S
C413 O391 1.259 . S
C413 O392 1.254 . S
O414 Zn384 2.066 . S
O414 C386 1.256 . S
O415 C386 1.244 . S
O415 Zn387 2.053 . S
Zn416 O417 2.055 . S
Zn416 O424 2.046 . S
Zn416 N432 2.036 . S
Zn416 O444 2.053 . S
Zn416 O446 2.066 . S
O417 Zn416 2.055 . S
O417 C420 1.259 . S
C418 O446 1.256 . S
C418 O447 1.244 . S
Zn419 O421 2.046 . S
Zn419 O423 2.055 . S
Zn419 N425 2.036 . S
Zn419 O443 2.066 . S
Zn419 O447 2.053 . S
C420 O417 1.259 . S
C420 O421 1.254 . S
O421 Zn419 2.046 . S
O421 C420 1.254 . S
C422 O443 1.256 . S
C422 O444 1.244 . S
O423 Zn419 2.055 . S
O423 C445 1.259 . S
O424 Zn416 2.046 . S
O424 C445 1.254 . S
N425 Zn419 2.036 . S
N425 C426 1.298 . S
N425 N428 1.398 . S
C426 N425 1.298 . S
C426 N429 1.367 . S
C426 C439 1.481 . S
C427 N428 1.299 . S
C427 N429 1.379 . S
N428 N425 1.398 . S
N428 C427 1.299 . S
N429 C426 1.367 . S
N429 C427 1.379 . S
C430 N432 1.298 . S
C430 N434 1.367 1_545 S
C430 C438 1.481 . S
C431 N433 1.299 1_565 S
C431 N434 1.379 . S
N432 Zn416 2.036 . S
N432 C430 1.298 . S
N432 N433 1.398 . S
N433 C431 1.299 1_545 S
N433 N432 1.398 . S
N434 C430 1.367 1_565 S
N434 C431 1.379 . S
H435 C438 0.980 . S
H436 C438 0.981 . S
H437 C438 0.981 . S
C438 C430 1.481 . S
C438 H435 0.980 . S
C438 H436 0.981 . S
C438 H437 0.981 . S
C439 C426 1.481 . S
C439 H440 0.980 . S
C439 H441 0.981 . S
C439 H442 0.981 . S
H440 C439 0.980 . S
H441 C439 0.981 . S
H442 C439 0.981 . S
O443 Zn419 2.066 . S
O443 C422 1.256 . S
O444 Zn416 2.053 . S
O444 C422 1.244 . S
C445 O423 1.259 . S
C445 O424 1.254 . S
O446 Zn416 2.066 . S
O446 C418 1.256 . S
O447 C418 1.244 . S
O447 Zn419 2.053 . S
Zn448 O449 2.055 . S
Zn448 O456 2.046 . S
Zn448 N464 2.036 . S
Zn448 O476 2.053 . S
Zn448 O478 2.066 . S
O449 Zn448 2.055 . S
O449 C452 1.259 . S
C450 O478 1.256 . S
C450 O479 1.244 . S
Zn451 O453 2.046 . S
Zn451 O455 2.055 . S
Zn451 N457 2.036 . S
Zn451 O475 2.066 . S
Zn451 O479 2.053 . S
C452 O449 1.259 . S
C452 O453 1.254 . S
O453 Zn451 2.046 . S
O453 C452 1.254 . S
C454 O475 1.256 . S
C454 O476 1.244 . S
O455 Zn451 2.055 . S
O455 C477 1.259 . S
O456 Zn448 2.046 . S
O456 C477 1.254 . S
N457 Zn451 2.036 . S
N457 C458 1.298 . S
N457 N460 1.398 . S
C458 N457 1.298 . S
C458 N461 1.367 . S
C458 C471 1.481 1_545 S
C459 N460 1.299 . S
C459 N461 1.379 . S
N460 N457 1.398 . S
N460 C459 1.299 . S
N461 C458 1.367 . S
N461 C459 1.379 . S
C462 N464 1.298 . S
C462 N466 1.357 1_455 S
C462 C470 1.481 . S
C463 N465 1.301 1_655 S
C463 N466 1.379 . S
N464 Zn448 2.036 . S
N464 C462 1.298 . S
N464 N465 1.398 . S
N465 C463 1.301 1_455 S
N465 N464 1.398 . S
N466 C462 1.357 1_655 S
N466 C463 1.379 . S
H467 C470 0.980 . S
H468 C470 0.981 . S
H469 C470 0.981 . S
C470 C462 1.481 . S
C470 H467 0.980 . S
C470 H468 0.981 . S
C470 H469 0.981 . S
C471 C458 1.481 1_565 S
C471 H472 0.980 . S
C471 H473 0.981 . S
C471 H474 0.981 . S
H472 C471 0.980 . S
H473 C471 0.981 . S
H474 C471 0.981 . S
O475 Zn451 2.066 . S
O475 C454 1.256 . S
O476 Zn448 2.053 . S
O476 C454 1.244 . S
C477 O455 1.259 . S
C477 O456 1.254 . S
O478 Zn448 2.066 . S
O478 C450 1.256 . S
O479 C450 1.244 . S
O479 Zn451 2.053 . S
Zn480 O481 2.055 . S
Zn480 O488 2.046 . S
Zn480 N496 2.036 . S
Zn480 O508 2.053 . S
Zn480 O510 2.066 . S
O481 Zn480 2.055 . S
O481 C484 1.259 . S
C482 O510 1.256 . S
C482 O511 1.244 . S
Zn483 O485 2.046 . S
Zn483 O487 2.055 . S
Zn483 N489 2.036 . S
Zn483 O507 2.066 . S
Zn483 O511 2.053 . S
C484 O481 1.259 . S
C484 O485 1.254 . S
O485 Zn483 2.046 . S
O485 C484 1.254 . S
C486 O507 1.256 . S
C486 O508 1.244 . S
O487 Zn483 2.055 . S
O487 C509 1.259 . S
O488 Zn480 2.046 . S
O488 C509 1.254 . S
N489 Zn483 2.036 . S
N489 C490 1.298 . S
N489 N492 1.398 . S
C490 N489 1.298 . S
C490 N493 1.367 . S
C490 C503 1.481 . S
C491 N492 1.299 . S
C491 N493 1.379 . S
N492 N489 1.398 . S
N492 C491 1.299 . S
N493 C490 1.367 . S
N493 C491 1.379 . S
C494 N496 1.298 . S
C494 N498 1.367 1_565 S
C494 C502 1.481 . S
C495 N497 1.299 1_545 S
C495 N498 1.379 . S
N496 Zn480 2.036 . S
N496 C494 1.298 . S
N496 N497 1.398 . S
N497 C495 1.299 1_565 S
N497 N496 1.398 . S
N498 C494 1.367 1_545 S
N498 C495 1.379 . S
H499 C502 0.980 . S
H500 C502 0.981 . S
H501 C502 0.981 . S
C502 C494 1.481 . S
C502 H499 0.980 . S
C502 H500 0.981 . S
C502 H501 0.981 . S
C503 C490 1.481 . S
C503 H504 0.980 . S
C503 H505 0.981 . S
C503 H506 0.981 . S
H504 C503 0.980 . S
H505 C503 0.981 . S
H506 C503 0.981 . S
O507 Zn483 2.066 . S
O507 C486 1.256 . S
O508 Zn480 2.053 . S
O508 C486 1.244 . S
C509 O487 1.259 . S
C509 O488 1.254 . S
O510 Zn480 2.066 . S
O510 C482 1.256 . S
O511 C482 1.244 . S
O511 Zn483 2.053 . S
Zn512 O513 2.055 . S
Zn512 O520 2.046 . S
Zn512 N528 2.036 . S
Zn512 O540 2.053 . S
Zn512 O542 2.066 . S
O513 Zn512 2.055 . S
O513 C516 1.259 . S
C514 O542 1.256 . S
C514 O543 1.244 . S
Zn515 O517 2.046 . S
Zn515 O519 2.055 . S
Zn515 N521 2.036 . S
Zn515 O539 2.066 . S
Zn515 O543 2.053 . S
C516 O513 1.259 . S
C516 O517 1.254 . S
O517 Zn515 2.046 . S
O517 C516 1.254 . S
C518 O539 1.256 . S
C518 O540 1.244 . S
O519 Zn515 2.055 . S
O519 C541 1.259 . S
O520 Zn512 2.046 . S
O520 C541 1.254 . S
N521 Zn515 2.036 . S
N521 C522 1.298 . S
N521 N524 1.398 . S
C522 N521 1.298 . S
C522 N525 1.367 . S
C522 C535 1.481 . S
C523 N524 1.299 . S
C523 N525 1.379 . S
N524 N521 1.398 . S
N524 C523 1.299 . S
N525 C522 1.367 . S
N525 C523 1.379 . S
C526 N528 1.298 . S
C526 N530 1.367 . S
C526 C534 1.481 1_554 S
C527 N529 1.299 . S
C527 N530 1.379 . S
N528 Zn512 2.036 . S
N528 C526 1.298 . S
N528 N529 1.398 . S
N529 C527 1.299 . S
N529 N528 1.398 . S
N530 C526 1.367 . S
N530 C527 1.379 . S
H531 C534 0.980 . S
H532 C534 0.981 . S
H533 C534 0.981 . S
C534 C526 1.481 1_556 S
C534 H531 0.980 . S
C534 H532 0.981 . S
C534 H533 0.981 . S
C535 C522 1.481 . S
C535 H536 0.980 . S
C535 H537 0.981 . S
C535 H538 0.981 . S
H536 C535 0.980 . S
H537 C535 0.981 . S
H538 C535 0.981 . S
O539 Zn515 2.066 . S
O539 C518 1.256 . S
O540 Zn512 2.053 . S
O540 C518 1.244 . S
C541 O519 1.259 . S
C541 O520 1.254 . S
O542 Zn512 2.066 . S
O542 C514 1.256 . S
O543 C514 1.244 . S
O543 Zn515 2.053 . S
Zn544 O545 2.055 . S
Zn544 O552 2.046 . S
Zn544 N560 2.036 . S
Zn544 O572 2.053 . S
Zn544 O574 2.066 . S
O545 Zn544 2.055 . S
O545 C548 1.259 . S
C546 O574 1.256 . S
C546 O575 1.244 . S
Zn547 O549 2.046 . S
Zn547 O551 2.055 . S
Zn547 N553 2.036 . S
Zn547 O571 2.066 . S
Zn547 O575 2.053 . S
C548 O545 1.259 . S
C548 O549 1.254 . S
O549 Zn547 2.046 . S
O549 C548 1.254 . S
C550 O571 1.256 . S
C550 O572 1.244 . S
O551 Zn547 2.055 . S
O551 C573 1.259 . S
O552 Zn544 2.046 . S
O552 C573 1.254 . S
N553 Zn547 2.036 . S
N553 C554 1.298 . S
N553 N556 1.398 . S
C554 N553 1.298 . S
C554 N557 1.357 1_545 S
C554 C567 1.481 . S
C555 N556 1.301 1_565 S
C555 N557 1.379 . S
N556 N553 1.398 . S
N556 C555 1.301 1_545 S
N557 C554 1.357 1_565 S
N557 C555 1.379 . S
C558 N560 1.298 . S
C558 N562 1.367 . S
C558 C566 1.481 1_556 S
C559 N561 1.299 . S
C559 N562 1.379 . S
N560 Zn544 2.036 . S
N560 C558 1.298 . S
N560 N561 1.398 . S
N561 C559 1.299 . S
N561 N560 1.398 . S
N562 C558 1.367 . S
N562 C559 1.379 . S
H563 C566 0.980 . S
H564 C566 0.981 . S
H565 C566 0.981 . S
C566 C558 1.481 1_554 S
C566 H563 0.980 . S
C566 H564 0.981 . S
C566 H565 0.981 . S
C567 C554 1.481 . S
C567 H568 0.980 . S
C567 H569 0.981 . S
C567 H570 0.981 . S
H568 C567 0.980 . S
H569 C567 0.981 . S
H570 C567 0.981 . S
O571 Zn547 2.066 . S
O571 C550 1.256 . S
O572 Zn544 2.053 . S
O572 C550 1.244 . S
C573 O551 1.259 . S
C573 O552 1.254 . S
O574 Zn544 2.066 . S
O574 C546 1.256 . S
O575 C546 1.244 . S
O575 Zn547 2.053 . S
Zn576 O577 2.055 . S
Zn576 O584 2.046 . S
Zn576 N592 2.036 . S
Zn576 O604 2.053 . S
Zn576 O606 2.066 . S
O577 Zn576 2.055 . S
O577 C580 1.259 . S
C578 O606 1.256 . S
C578 O607 1.244 . S
Zn579 O581 2.046 . S
Zn579 O583 2.055 . S
Zn579 N585 2.036 . S
Zn579 O603 2.066 . S
Zn579 O607 2.053 . S
C580 O577 1.259 . S
C580 O581 1.254 . S
O581 Zn579 2.046 . S
O581 C580 1.254 . S
C582 O603 1.256 . S
C582 O604 1.244 . S
O583 Zn579 2.055 . S
O583 C605 1.259 . S
O584 Zn576 2.046 . S
O584 C605 1.254 . S
N585 Zn579 2.036 . S
N585 C586 1.298 . S
N585 N588 1.398 . S
C586 N585 1.298 . S
C586 N589 1.367 . S
C586 C599 1.481 . S
C587 N588 1.299 . S
C587 N589 1.379 . S
N588 N585 1.398 . S
N588 C587 1.299 . S
N589 C586 1.367 . S
N589 C587 1.379 . S
C590 N592 1.298 . S
C590 N594 1.367 1_455 S
C590 C598 1.481 . S
C591 N593 1.299 1_655 S
C591 N594 1.379 . S
N592 Zn576 2.036 . S
N592 C590 1.298 . S
N592 N593 1.398 . S
N593 C591 1.299 1_455 S
N593 N592 1.398 . S
N594 C590 1.367 1_655 S
N594 C591 1.379 . S
H595 C598 0.980 . S
H596 C598 0.981 . S
H597 C598 0.981 . S
C598 C590 1.481 . S
C598 H595 0.980 . S
C598 H596 0.981 . S
C598 H597 0.981 . S
C599 C586 1.481 . S
C599 H600 0.980 . S
C599 H601 0.981 . S
C599 H602 0.981 . S
H600 C599 0.980 . S
H601 C599 0.981 . S
H602 C599 0.981 . S
O603 Zn579 2.066 . S
O603 C582 1.256 . S
O604 Zn576 2.053 . S
O604 C582 1.244 . S
C605 O583 1.259 . S
C605 O584 1.254 . S
O606 Zn576 2.066 . S
O606 C578 1.256 . S
O607 C578 1.244 . S
O607 Zn579 2.053 . S
Zn608 O609 2.055 . S
Zn608 O616 2.046 . S
Zn608 N624 2.036 . S
Zn608 O636 2.053 . S
Zn608 O638 2.066 . S
O609 Zn608 2.055 . S
O609 C612 1.259 . S
C610 O638 1.256 . S
C610 O639 1.244 . S
Zn611 O613 2.046 . S
Zn611 O615 2.055 . S
Zn611 N617 2.036 . S
Zn611 O635 2.066 . S
Zn611 O639 2.053 . S
C612 O609 1.259 . S
C612 O613 1.254 . S
O613 Zn611 2.046 . S
O613 C612 1.254 . S
C614 O635 1.256 . S
C614 O636 1.244 . S
O615 Zn611 2.055 . S
O615 C637 1.259 . S
O616 Zn608 2.046 . S
O616 C637 1.254 . S
N617 Zn611 2.036 . S
N617 C618 1.298 . S
N617 N620 1.398 . S
C618 N617 1.298 . S
C618 N621 1.367 . S
C618 C631 1.481 . S
C619 N620 1.299 . S
C619 N621 1.379 . S
N620 N617 1.398 . S
N620 C619 1.299 . S
N621 C618 1.367 . S
N621 C619 1.379 . S
C622 N624 1.298 . S
C622 N626 1.357 1_565 S
C622 C630 1.481 . S
C623 N625 1.301 1_545 S
C623 N626 1.379 . S
N624 Zn608 2.036 . S
N624 C622 1.298 . S
N624 N625 1.398 . S
N625 C623 1.301 1_565 S
N625 N624 1.398 . S
N626 C622 1.357 1_545 S
N626 C623 1.379 . S
H627 C630 0.980 . S
H628 C630 0.981 . S
H629 C630 0.981 . S
C630 C622 1.481 . S
C630 H627 0.980 . S
C630 H628 0.981 . S
C630 H629 0.981 . S
C631 C618 1.481 . S
C631 H632 0.980 . S
C631 H633 0.981 . S
C631 H634 0.981 . S
H632 C631 0.980 . S
H633 C631 0.981 . S
H634 C631 0.981 . S
O635 Zn611 2.066 . S
O635 C614 1.256 . S
O636 Zn608 2.053 . S
O636 C614 1.244 . S
C637 O615 1.259 . S
C637 O616 1.254 . S
O638 Zn608 2.066 . S
O638 C610 1.256 . S
O639 C610 1.244 . S
O639 Zn611 2.053 . S
Zn640 O641 2.055 . S
Zn640 O648 2.046 . S
Zn640 N656 2.036 . S
Zn640 O668 2.053 . S
Zn640 O670 2.066 . S
O641 Zn640 2.055 . S
O641 C644 1.259 . S
C642 O670 1.256 . S
C642 O671 1.244 . S
Zn643 O645 2.046 . S
Zn643 O647 2.055 . S
Zn643 N649 2.036 . S
Zn643 O667 2.066 . S
Zn643 O671 2.053 . S
C644 O641 1.259 . S
C644 O645 1.254 . S
O645 Zn643 2.046 . S
O645 C644 1.254 . S
C646 O667 1.256 . S
C646 O668 1.244 . S
O647 Zn643 2.055 . S
O647 C669 1.259 . S
O648 Zn640 2.046 . S
O648 C669 1.254 . S
N649 Zn643 2.036 . S
N649 C650 1.298 . S
N649 N652 1.398 . S
C650 N649 1.298 . S
C650 N653 1.367 1_655 S
C650 C663 1.481 . S
C651 N652 1.299 1_455 S
C651 N653 1.379 . S
N652 N649 1.398 . S
N652 C651 1.299 1_655 S
N653 C650 1.367 1_455 S
N653 C651 1.379 . S
C654 N656 1.298 . S
C654 N658 1.367 . S
C654 C662 1.481 . S
C655 N657 1.299 . S
C655 N658 1.379 . S
N656 Zn640 2.036 . S
N656 C654 1.298 . S
N656 N657 1.398 . S
N657 C655 1.299 . S
N657 N656 1.398 . S
N658 C654 1.367 . S
N658 C655 1.379 . S
H659 C662 0.980 . S
H660 C662 0.981 . S
H661 C662 0.981 . S
C662 C654 1.481 . S
C662 H659 0.980 . S
C662 H660 0.981 . S
C662 H661 0.981 . S
C663 C650 1.481 . S
C663 H664 0.980 . S
C663 H665 0.981 . S
C663 H666 0.981 . S
H664 C663 0.980 . S
H665 C663 0.981 . S
H666 C663 0.981 . S
O667 Zn643 2.066 . S
O667 C646 1.256 . S
O668 Zn640 2.053 . S
O668 C646 1.244 . S
C669 O647 1.259 . S
C669 O648 1.254 . S
O670 Zn640 2.066 . S
O670 C642 1.256 . S
O671 C642 1.244 . S
O671 Zn643 2.053 . S
Zn672 O673 2.055 . S
Zn672 O680 2.046 . S
Zn672 N688 2.036 . S
Zn672 O700 2.053 . S
Zn672 O702 2.066 . S
O673 Zn672 2.055 . S
O673 C676 1.259 . S
C674 O702 1.256 . S
C674 O703 1.244 . S
Zn675 O677 2.046 . S
Zn675 O679 2.055 . S
Zn675 N681 2.036 . S
Zn675 O699 2.066 . S
Zn675 O703 2.053 . S
C676 O673 1.259 . S
C676 O677 1.254 . S
O677 Zn675 2.046 . S
O677 C676 1.254 . S
C678 O699 1.256 . S
C678 O700 1.244 . S
O679 Zn675 2.055 . S
O679 C701 1.259 . S
O680 Zn672 2.046 . S
O680 C701 1.254 . S
N681 Zn675 2.036 . S
N681 C682 1.298 . S
N681 N684 1.398 . S
C682 N681 1.298 . S
C682 N685 1.367 . S
C682 C695 1.481 . S
C683 N684 1.299 . S
C683 N685 1.379 . S
N684 N681 1.398 . S
N684 C683 1.299 . S
N685 C682 1.367 . S
N685 C683 1.379 . S
C686 N688 1.298 . S
C686 N690 1.367 . S
C686 C694 1.481 . S
C687 N689 1.299 . S
C687 N690 1.379 . S
N688 Zn672 2.036 . S
N688 C686 1.298 . S
N688 N689 1.398 . S
N689 C687 1.299 . S
N689 N688 1.398 . S
N690 C686 1.367 . S
N690 C687 1.379 . S
H691 C694 0.980 . S
H692 C694 0.981 . S
H693 C694 0.981 . S
C694 C686 1.481 . S
C694 H691 0.980 . S
C694 H692 0.981 . S
C694 H693 0.981 . S
C695 C682 1.481 . S
C695 H696 0.980 . S
C695 H697 0.981 . S
C695 H698 0.981 . S
H696 C695 0.980 . S
H697 C695 0.981 . S
H698 C695 0.981 . S
O699 Zn675 2.066 . S
O699 C678 1.256 . S
O700 Zn672 2.053 . S
O700 C678 1.244 . S
C701 O679 1.259 . S
C701 O680 1.254 . S
O702 Zn672 2.066 . S
O702 C674 1.256 . S
O703 C674 1.244 . S
O703 Zn675 2.053 . S
Zn704 O705 2.055 . S
Zn704 O712 2.046 . S
Zn704 N720 2.036 . S
Zn704 O732 2.053 . S
Zn704 O734 2.066 . S
O705 Zn704 2.055 . S
O705 C708 1.259 . S
C706 O734 1.256 . S
C706 O735 1.244 . S
Zn707 O709 2.046 . S
Zn707 O711 2.055 . S
Zn707 N713 2.036 . S
Zn707 O731 2.066 . S
Zn707 O735 2.053 . S
C708 O705 1.259 . S
C708 O709 1.254 . S
O709 Zn707 2.046 . S
O709 C708 1.254 . S
C710 O731 1.256 . S
C710 O732 1.244 . S
O711 Zn707 2.055 . S
O711 C733 1.259 . S
O712 Zn704 2.046 . S
O712 C733 1.254 . S
N713 Zn707 2.036 . S
N713 C714 1.298 . S
N713 N716 1.398 . S
C714 N713 1.298 . S
C714 N717 1.367 . S
C714 C727 1.481 . S
C715 N716 1.299 . S
C715 N717 1.379 . S
N716 N713 1.398 . S
N716 C715 1.299 . S
N717 C714 1.367 . S
N717 C715 1.379 . S
C718 N720 1.298 . S
C718 N722 1.367 1_455 S
C718 C726 1.481 . S
C719 N721 1.299 1_655 S
C719 N722 1.379 . S
N720 Zn704 2.036 . S
N720 C718 1.298 . S
N720 N721 1.398 . S
N721 C719 1.299 1_455 S
N721 N720 1.398 . S
N722 C718 1.367 1_655 S
N722 C719 1.379 . S
H723 C726 0.980 . S
H724 C726 0.981 . S
H725 C726 0.981 . S
C726 C718 1.481 . S
C726 H723 0.980 . S
C726 H724 0.981 . S
C726 H725 0.981 . S
C727 C714 1.481 . S
C727 H728 0.980 . S
C727 H729 0.981 . S
C727 H730 0.981 . S
H728 C727 0.980 . S
H729 C727 0.981 . S
H730 C727 0.981 . S
O731 Zn707 2.066 . S
O731 C710 1.256 . S
O732 Zn704 2.053 . S
O732 C710 1.244 . S
C733 O711 1.259 . S
C733 O712 1.254 . S
O734 Zn704 2.066 . S
O734 C706 1.256 . S
O735 C706 1.244 . S
O735 Zn707 2.053 . S
Zn736 O737 2.055 . S
Zn736 O744 2.046 . S
Zn736 N752 2.036 . S
Zn736 O764 2.053 . S
Zn736 O766 2.066 . S
O737 Zn736 2.055 . S
O737 C740 1.259 . S
C738 O766 1.256 . S
C738 O767 1.244 . S
Zn739 O741 2.046 . S
Zn739 O743 2.055 . S
Zn739 N745 2.036 . S
Zn739 O763 2.066 . S
Zn739 O767 2.053 . S
C740 O737 1.259 . S
C740 O741 1.254 . S
O741 Zn739 2.046 . S
O741 C740 1.254 . S
C742 O763 1.256 . S
C742 O764 1.244 . S
O743 Zn739 2.055 . S
O743 C765 1.259 . S
O744 Zn736 2.046 . S
O744 C765 1.254 . S
N745 Zn739 2.036 . S
N745 C746 1.298 . S
N745 N748 1.398 . S
C746 N745 1.298 . S
C746 N749 1.367 . S
C746 C759 1.481 . S
C747 N748 1.299 . S
C747 N749 1.379 . S
N748 N745 1.398 . S
N748 C747 1.299 . S
N749 C746 1.367 . S
N749 C747 1.379 . S
C750 N752 1.298 . S
C750 N754 1.367 . S
C750 C758 1.481 . S
C751 N753 1.299 . S
C751 N754 1.379 . S
N752 Zn736 2.036 . S
N752 C750 1.298 . S
N752 N753 1.398 . S
N753 C751 1.299 . S
N753 N752 1.398 . S
N754 C750 1.367 . S
N754 C751 1.379 . S
H755 C758 0.980 . S
H756 C758 0.981 . S
H757 C758 0.981 . S
C758 C750 1.481 . S
C758 H755 0.980 . S
C758 H756 0.981 . S
C758 H757 0.981 . S
C759 C746 1.481 . S
C759 H760 0.980 . S
C759 H761 0.981 . S
C759 H762 0.981 . S
H760 C759 0.980 . S
H761 C759 0.981 . S
H762 C759 0.981 . S
O763 Zn739 2.066 . S
O763 C742 1.256 . S
O764 Zn736 2.053 . S
O764 C742 1.244 . S
C765 O743 1.259 . S
C765 O744 1.254 . S
O766 Zn736 2.066 . S
O766 C738 1.256 . S
O767 C738 1.244 . S
O767 Zn739 2.053 . S
Zn768 O769 2.055 . S
Zn768 O776 2.046 . S
Zn768 N784 2.036 . S
Zn768 O796 2.053 . S
Zn768 O798 2.066 . S
O769 Zn768 2.055 . S
O769 C772 1.259 . S
C770 O798 1.256 . S
C770 O799 1.244 . S
Zn771 O773 2.046 . S
Zn771 O775 2.055 . S
Zn771 N777 2.036 . S
Zn771 O795 2.066 . S
Zn771 O799 2.053 . S
C772 O769 1.259 . S
C772 O773 1.254 . S
O773 Zn771 2.046 . S
O773 C772 1.254 . S
C774 O795 1.256 . S
C774 O796 1.244 . S
O775 Zn771 2.055 . S
O775 C797 1.259 . S
O776 Zn768 2.046 . S
O776 C797 1.254 . S
N777 Zn771 2.036 . S
N777 C778 1.298 . S
N777 N780 1.398 . S
C778 N777 1.298 . S
C778 N781 1.367 . S
C778 C791 1.481 . S
C779 N780 1.299 . S
C779 N781 1.379 . S
N780 N777 1.398 . S
N780 C779 1.299 . S
N781 C778 1.367 . S
N781 C779 1.379 . S
C782 N784 1.298 . S
C782 N786 1.367 . S
C782 C790 1.481 1_655 S
C783 N785 1.299 . S
C783 N786 1.379 . S
N784 Zn768 2.036 . S
N784 C782 1.298 . S
N784 N785 1.398 . S
N785 C783 1.299 . S
N785 N784 1.398 . S
N786 C782 1.367 . S
N786 C783 1.379 . S
H787 C790 0.980 . S
H788 C790 0.981 . S
H789 C790 0.981 . S
C790 C782 1.481 1_455 S
C790 H787 0.980 . S
C790 H788 0.981 . S
C790 H789 0.981 . S
C791 C778 1.481 . S
C791 H792 0.980 . S
C791 H793 0.981 . S
C791 H794 0.981 . S
H792 C791 0.980 . S
H793 C791 0.981 . S
H794 C791 0.981 . S
O795 Zn771 2.066 . S
O795 C774 1.256 . S
O796 Zn768 2.053 . S
O796 C774 1.244 . S
C797 O775 1.259 . S
C797 O776 1.254 . S
O798 Zn768 2.066 . S
O798 C770 1.256 . S
O799 C770 1.244 . S
O799 Zn771 2.053 . S
Zn800 O801 2.055 . S
Zn800 O808 2.046 . S
Zn800 N816 2.036 . S
Zn800 O828 2.053 . S
Zn800 O830 2.066 . S
O801 Zn800 2.055 . S
O801 C804 1.259 . S
C802 O830 1.256 . S
C802 O831 1.244 . S
Zn803 O805 2.046 . S
Zn803 O807 2.055 . S
Zn803 N809 2.036 . S
Zn803 O827 2.066 . S
Zn803 O831 2.053 . S
C804 O801 1.259 . S
C804 O805 1.254 . S
O805 Zn803 2.046 . S
O805 C804 1.254 . S
C806 O827 1.256 . S
C806 O828 1.244 . S
O807 Zn803 2.055 . S
O807 C829 1.259 . S
O808 Zn800 2.046 . S
O808 C829 1.254 . S
N809 Zn803 2.036 . S
N809 C810 1.298 . S
N809 N812 1.398 . S
C810 N809 1.298 . S
C810 N813 1.367 . S
C810 C823 1.481 . S
C811 N812 1.299 . S
C811 N813 1.379 . S
N812 N809 1.398 . S
N812 C811 1.299 . S
N813 C810 1.367 . S
N813 C811 1.379 . S
C814 N816 1.298 . S
C814 N818 1.367 . S
C814 C822 1.481 . S
C815 N817 1.299 . S
C815 N818 1.379 . S
N816 Zn800 2.036 . S
N816 C814 1.298 . S
N816 N817 1.398 . S
N817 C815 1.299 . S
N817 N816 1.398 . S
N818 C814 1.367 . S
N818 C815 1.379 . S
H819 C822 0.980 . S
H820 C822 0.981 . S
H821 C822 0.981 . S
C822 C814 1.481 . S
C822 H819 0.980 . S
C822 H820 0.981 . S
C822 H821 0.981 . S
C823 C810 1.481 . S
C823 H824 0.980 . S
C823 H825 0.981 . S
C823 H826 0.981 . S
H824 C823 0.980 . S
H825 C823 0.981 . S
H826 C823 0.981 . S
O827 Zn803 2.066 . S
O827 C806 1.256 . S
O828 Zn800 2.053 . S
O828 C806 1.244 . S
C829 O807 1.259 . S
C829 O808 1.254 . S
O830 Zn800 2.066 . S
O830 C802 1.256 . S
O831 C802 1.244 . S
O831 Zn803 2.053 . S
Zn832 O833 2.055 . S
Zn832 O840 2.046 . S
Zn832 N848 2.036 . S
Zn832 O860 2.053 . S
Zn832 O862 2.066 . S
O833 Zn832 2.055 . S
O833 C836 1.259 . S
C834 O862 1.256 . S
C834 O863 1.244 . S
Zn835 O837 2.046 . S
Zn835 O839 2.055 . S
Zn835 N841 2.036 . S
Zn835 O859 2.066 . S
Zn835 O863 2.053 . S
C836 O833 1.259 . S
C836 O837 1.254 . S
O837 Zn835 2.046 . S
O837 C836 1.254 . S
C838 O859 1.256 . S
C838 O860 1.244 . S
O839 Zn835 2.055 . S
O839 C861 1.259 . S
O840 Zn832 2.046 . S
O840 C861 1.254 . S
N841 Zn835 2.036 . S
N841 C842 1.298 . S
N841 N844 1.398 . S
C842 N841 1.298 . S
C842 N845 1.357 1_554 S
C842 C855 1.481 . S
C843 N844 1.301 1_556 S
C843 N845 1.379 . S
N844 N841 1.398 . S
N844 C843 1.301 1_554 S
N845 C842 1.357 1_556 S
N845 C843 1.379 . S
C846 N848 1.298 . S
C846 N850 1.367 . S
C846 C854 1.481 . S
C847 N849 1.299 . S
C847 N850 1.379 . S
N848 Zn832 2.036 . S
N848 C846 1.298 . S
N848 N849 1.398 . S
N849 C847 1.299 . S
N849 N848 1.398 . S
N850 C846 1.367 . S
N850 C847 1.379 . S
H851 C854 0.980 . S
H852 C854 0.981 . S
H853 C854 0.981 . S
C854 C846 1.481 . S
C854 H851 0.980 . S
C854 H852 0.981 . S
C854 H853 0.981 . S
C855 C842 1.481 . S
C855 H856 0.980 . S
C855 H857 0.981 . S
C855 H858 0.981 . S
H856 C855 0.980 . S
H857 C855 0.981 . S
H858 C855 0.981 . S
O859 Zn835 2.066 . S
O859 C838 1.256 . S
O860 Zn832 2.053 . S
O860 C838 1.244 . S
C861 O839 1.259 . S
C861 O840 1.254 . S
O862 Zn832 2.066 . S
O862 C834 1.256 . S
O863 C834 1.244 . S
O863 Zn835 2.053 . S
Zn864 O865 2.055 . S
Zn864 O872 2.046 . S
Zn864 N880 2.036 . S
Zn864 O892 2.053 . S
Zn864 O894 2.066 . S
O865 Zn864 2.055 . S
O865 C868 1.259 . S
C866 O894 1.256 . S
C866 O895 1.244 . S
Zn867 O869 2.046 . S
Zn867 O871 2.055 . S
Zn867 N873 2.036 . S
Zn867 O891 2.066 . S
Zn867 O895 2.053 . S
C868 O865 1.259 . S
C868 O869 1.254 . S
O869 Zn867 2.046 . S
O869 C868 1.254 . S
C870 O891 1.256 . S
C870 O892 1.244 . S
O871 Zn867 2.055 . S
O871 C893 1.259 . S
O872 Zn864 2.046 . S
O872 C893 1.254 . S
N873 Zn867 2.036 . S
N873 C874 1.298 . S
N873 N876 1.398 . S
C874 N873 1.298 . S
C874 N877 1.367 1_556 S
C874 C887 1.481 . S
C875 N876 1.299 1_554 S
C875 N877 1.379 . S
N876 N873 1.398 . S
N876 C875 1.299 1_556 S
N877 C874 1.367 1_554 S
N877 C875 1.379 . S
C878 N880 1.298 . S
C878 N882 1.367 . S
C878 C886 1.481 . S
C879 N881 1.299 . S
C879 N882 1.379 . S
N880 Zn864 2.036 . S
N880 C878 1.298 . S
N880 N881 1.398 . S
N881 C879 1.299 . S
N881 N880 1.398 . S
N882 C878 1.367 . S
N882 C879 1.379 . S
H883 C886 0.980 . S
H884 C886 0.981 . S
H885 C886 0.981 . S
C886 C878 1.481 . S
C886 H883 0.980 . S
C886 H884 0.981 . S
C886 H885 0.981 . S
C887 C874 1.481 . S
C887 H888 0.980 . S
C887 H889 0.981 . S
C887 H890 0.981 . S
H888 C887 0.980 . S
H889 C887 0.981 . S
H890 C887 0.981 . S
O891 Zn867 2.066 . S
O891 C870 1.256 . S
O892 Zn864 2.053 . S
O892 C870 1.244 . S
C893 O871 1.259 . S
C893 O872 1.254 . S
O894 Zn864 2.066 . S
O894 C866 1.256 . S
O895 C866 1.244 . S
O895 Zn867 2.053 . S
Zn896 O897 2.055 . S
Zn896 O904 2.046 . S
Zn896 N912 2.036 . S
Zn896 O924 2.053 . S
Zn896 O926 2.066 . S
O897 Zn896 2.055 . S
O897 C900 1.259 . S
C898 O926 1.256 . S
C898 O927 1.244 . S
Zn899 O901 2.046 . S
Zn899 O903 2.055 . S
Zn899 N905 2.036 . S
Zn899 O923 2.066 . S
Zn899 O927 2.053 . S
C900 O897 1.259 . S
C900 O901 1.254 . S
O901 Zn899 2.046 . S
O901 C900 1.254 . S
C902 O923 1.256 . S
C902 O924 1.244 . S
O903 Zn899 2.055 . S
O903 C925 1.259 . S
O904 Zn896 2.046 . S
O904 C925 1.254 . S
N905 Zn899 2.036 . S
N905 C906 1.298 . S
N905 N908 1.398 . S
C906 N905 1.298 . S
C906 N909 1.367 . S
C906 C919 1.481 1_655 S
C907 N908 1.299 . S
C907 N909 1.379 . S
N908 N905 1.398 . S
N908 C907 1.299 . S
N909 C906 1.367 . S
N909 C907 1.379 . S
C910 N912 1.298 . S
C910 N914 1.357 1_556 S
C910 C918 1.481 . S
C911 N913 1.301 1_554 S
C911 N914 1.379 . S
N912 Zn896 2.036 . S
N912 C910 1.298 . S
N912 N913 1.398 . S
N913 C911 1.301 1_556 S
N913 N912 1.398 . S
N914 C910 1.357 1_554 S
N914 C911 1.379 . S
H915 C918 0.980 . S
H916 C918 0.981 . S
H917 C918 0.981 . S
C918 C910 1.481 . S
C918 H915 0.980 . S
C918 H916 0.981 . S
C918 H917 0.981 . S
C919 C906 1.481 1_455 S
C919 H920 0.980 . S
C919 H921 0.981 . S
C919 H922 0.981 . S
H920 C919 0.980 . S
H921 C919 0.981 . S
H922 C919 0.981 . S
O923 Zn899 2.066 . S
O923 C902 1.256 . S
O924 Zn896 2.053 . S
O924 C902 1.244 . S
C925 O903 1.259 . S
C925 O904 1.254 . S
O926 Zn896 2.066 . S
O926 C898 1.256 . S
O927 C898 1.244 . S
O927 Zn899 2.053 . S
Zn928 O929 2.055 . S
Zn928 O936 2.046 . S
Zn928 N944 2.036 . S
Zn928 O956 2.053 . S
Zn928 O958 2.066 . S
O929 Zn928 2.055 . S
O929 C932 1.259 . S
C930 O958 1.256 . S
C930 O959 1.244 . S
Zn931 O933 2.046 . S
Zn931 O935 2.055 . S
Zn931 N937 2.036 . S
Zn931 O955 2.066 . S
Zn931 O959 2.053 . S
C932 O929 1.259 . S
C932 O933 1.254 . S
O933 Zn931 2.046 . S
O933 C932 1.254 . S
C934 O955 1.256 . S
C934 O956 1.244 . S
O935 Zn931 2.055 . S
O935 C957 1.259 . S
O936 Zn928 2.046 . S
O936 C957 1.254 . S
N937 Zn931 2.036 . S
N937 C938 1.298 . S
N937 N940 1.398 . S
C938 N937 1.298 . S
C938 N941 1.367 . S
C938 C951 1.481 . S
C939 N940 1.299 . S
C939 N941 1.379 . S
N940 N937 1.398 . S
N940 C939 1.299 . S
N941 C938 1.367 . S
N941 C939 1.379 . S
C942 N944 1.298 . S
C942 N946 1.367 . S
C942 C950 1.481 . S
C943 N945 1.299 . S
C943 N946 1.379 . S
N944 Zn928 2.036 . S
N944 C942 1.298 . S
N944 N945 1.398 . S
N945 C943 1.299 . S
N945 N944 1.398 . S
N946 C942 1.367 . S
N946 C943 1.379 . S
H947 C950 0.980 . S
H948 C950 0.981 . S
H949 C950 0.981 . S
C950 C942 1.481 . S
C950 H947 0.980 . S
C950 H948 0.981 . S
C950 H949 0.981 . S
C951 C938 1.481 . S
C951 H952 0.980 . S
C951 H953 0.981 . S
C951 H954 0.981 . S
H952 C951 0.980 . S
H953 C951 0.981 . S
H954 C951 0.981 . S
O955 Zn931 2.066 . S
O955 C934 1.256 . S
O956 Zn928 2.053 . S
O956 C934 1.244 . S
C957 O935 1.259 . S
C957 O936 1.254 . S
O958 Zn928 2.066 . S
O958 C930 1.256 . S
O959 C930 1.244 . S
O959 Zn931 2.053 . S
Zn960 O961 2.055 . S
Zn960 O968 2.046 . S
Zn960 N976 2.036 . S
Zn960 O988 2.053 . S
Zn960 O990 2.066 . S
O961 Zn960 2.055 . S
O961 C964 1.259 . S
C962 O990 1.256 . S
C962 O991 1.244 . S
Zn963 O965 2.046 . S
Zn963 O967 2.055 . S
Zn963 N969 2.036 . S
Zn963 O987 2.066 . S
Zn963 O991 2.053 . S
C964 O961 1.259 . S
C964 O965 1.254 . S
O965 Zn963 2.046 . S
O965 C964 1.254 . S
C966 O987 1.256 . S
C966 O988 1.244 . S
O967 Zn963 2.055 . S
O967 C989 1.259 . S
O968 Zn960 2.046 . S
O968 C989 1.254 . S
N969 Zn963 2.036 . S
N969 C970 1.298 . S
N969 N972 1.398 . S
C970 N969 1.298 . S
C970 N973 1.367 . S
C970 C983 1.481 . S
C971 N972 1.299 . S
C971 N973 1.379 . S
N972 N969 1.398 . S
N972 C971 1.299 . S
N973 C970 1.367 . S
N973 C971 1.379 . S
C974 N976 1.298 . S
C974 N978 1.367 . S
C974 C982 1.481 . S
C975 N977 1.299 . S
C975 N978 1.379 . S
N976 Zn960 2.036 . S
N976 C974 1.298 . S
N976 N977 1.398 . S
N977 C975 1.299 . S
N977 N976 1.398 . S
N978 C974 1.367 . S
N978 C975 1.379 . S
H979 C982 0.980 . S
H980 C982 0.981 . S
H981 C982 0.981 . S
C982 C974 1.481 . S
C982 H979 0.980 . S
C982 H980 0.981 . S
C982 H981 0.981 . S
C983 C970 1.481 . S
C983 H984 0.980 . S
C983 H985 0.981 . S
C983 H986 0.981 . S
H984 C983 0.980 . S
H985 C983 0.981 . S
H986 C983 0.981 . S
O987 Zn963 2.066 . S
O987 C966 1.256 . S
O988 Zn960 2.053 . S
O988 C966 1.244 . S
C989 O967 1.259 . S
C989 O968 1.254 . S
O990 Zn960 2.066 . S
O990 C962 1.256 . S
O991 C962 1.244 . S
O991 Zn963 2.053 . S
Zn992 O993 2.055 . S
Zn992 O1000 2.046 . S
Zn992 N1008 2.036 . S
Zn992 O1020 2.053 . S
Zn992 O1022 2.066 . S
O993 Zn992 2.055 . S
O993 C996 1.259 . S
C994 O1022 1.256 . S
C994 O1023 1.244 . S
Zn995 O997 2.046 . S
Zn995 O999 2.055 . S
Zn995 N1001 2.036 . S
Zn995 O1019 2.066 . S
Zn995 O1023 2.053 . S
C996 O993 1.259 . S
C996 O997 1.254 . S
O997 Zn995 2.046 . S
O997 C996 1.254 . S
C998 O1019 1.256 . S
C998 O1020 1.244 . S
O999 Zn995 2.055 . S
O999 C1021 1.259 . S
O1000 Zn992 2.046 . S
O1000 C1021 1.254 . S
N1001 Zn995 2.036 . S
N1001 C1002 1.298 . S
N1001 N1004 1.398 . S
C1002 N1001 1.298 . S
C1002 N1005 1.367 1_554 S
C1002 C1015 1.481 . S
C1003 N1004 1.299 1_556 S
C1003 N1005 1.379 . S
N1004 N1001 1.398 . S
N1004 C1003 1.299 1_554 S
N1005 C1002 1.367 1_556 S
N1005 C1003 1.379 . S
C1006 N1008 1.298 . S
C1006 N1010 1.367 . S
C1006 C1014 1.481 . S
C1007 N1009 1.299 . S
C1007 N1010 1.379 . S
N1008 Zn992 2.036 . S
N1008 C1006 1.298 . S
N1008 N1009 1.398 . S
N1009 C1007 1.299 . S
N1009 N1008 1.398 . S
N1010 C1006 1.367 . S
N1010 C1007 1.379 . S
H1011 C1014 0.980 . S
H1012 C1014 0.981 . S
H1013 C1014 0.981 . S
C1014 C1006 1.481 . S
C1014 H1011 0.980 . S
C1014 H1012 0.981 . S
C1014 H1013 0.981 . S
C1015 C1002 1.481 . S
C1015 H1016 0.980 . S
C1015 H1017 0.981 . S
C1015 H1018 0.981 . S
H1016 C1015 0.980 . S
H1017 C1015 0.981 . S
H1018 C1015 0.981 . S
O1019 Zn995 2.066 . S
O1019 C998 1.256 . S
O1020 Zn992 2.053 . S
O1020 C998 1.244 . S
C1021 O999 1.259 . S
C1021 O1000 1.254 . S
O1022 Zn992 2.066 . S
O1022 C994 1.256 . S
O1023 C994 1.244 . S
O1023 Zn995 2.053 . S
Zn1024 O1025 2.055 . S
Zn1024 O1032 2.046 . S
Zn1024 N1040 2.036 . S
Zn1024 O1052 2.053 . S
Zn1024 O1054 2.066 . S
O1025 Zn1024 2.055 . S
O1025 C1028 1.259 . S
C1026 O1054 1.256 . S
C1026 O1055 1.244 . S
Zn1027 O1029 2.046 . S
Zn1027 O1031 2.055 . S
Zn1027 N1033 2.036 . S
Zn1027 O1051 2.066 . S
Zn1027 O1055 2.053 . S
C1028 O1025 1.259 . S
C1028 O1029 1.254 . S
O1029 Zn1027 2.046 . S
O1029 C1028 1.254 . S
C1030 O1051 1.256 . S
C1030 O1052 1.244 . S
O1031 Zn1027 2.055 . S
O1031 C1053 1.259 . S
O1032 Zn1024 2.046 . S
O1032 C1053 1.254 . S
N1033 Zn1027 2.036 . S
N1033 C1034 1.298 . S
N1033 N1036 1.398 . S
C1034 N1033 1.298 . S
C1034 N1037 1.367 . S
C1034 C1047 1.481 1_565 S
C1035 N1036 1.299 . S
C1035 N1037 1.379 . S
N1036 N1033 1.398 . S
N1036 C1035 1.299 . S
N1037 C1034 1.367 . S
N1037 C1035 1.379 . S
C1038 N1040 1.298 . S
C1038 N1042 1.367 . S
C1038 C1046 1.481 . S
C1039 N1041 1.299 . S
C1039 N1042 1.379 . S
N1040 Zn1024 2.036 . S
N1040 C1038 1.298 . S
N1040 N1041 1.398 . S
N1041 C1039 1.299 . S
N1041 N1040 1.398 . S
N1042 C1038 1.367 . S
N1042 C1039 1.379 . S
H1043 C1046 0.980 . S
H1044 C1046 0.981 . S
H1045 C1046 0.981 . S
C1046 C1038 1.481 . S
C1046 H1043 0.980 . S
C1046 H1044 0.981 . S
C1046 H1045 0.981 . S
C1047 C1034 1.481 1_545 S
C1047 H1048 0.980 . S
C1047 H1049 0.981 . S
C1047 H1050 0.981 . S
H1048 C1047 0.980 . S
H1049 C1047 0.981 . S
H1050 C1047 0.981 . S
O1051 Zn1027 2.066 . S
O1051 C1030 1.256 . S
O1052 Zn1024 2.053 . S
O1052 C1030 1.244 . S
C1053 O1031 1.259 . S
C1053 O1032 1.254 . S
O1054 Zn1024 2.066 . S
O1054 C1026 1.256 . S
O1055 C1026 1.244 . S
O1055 Zn1027 2.053 . S
Zn1056 O1057 2.055 . S
Zn1056 O1064 2.046 . S
Zn1056 N1072 2.036 . S
Zn1056 O1084 2.053 . S
Zn1056 O1086 2.066 . S
O1057 Zn1056 2.055 . S
O1057 C1060 1.259 . S
C1058 O1086 1.256 . S
C1058 O1087 1.244 . S
Zn1059 O1061 2.046 . S
Zn1059 O1063 2.055 . S
Zn1059 N1065 2.036 . S
Zn1059 O1083 2.066 . S
Zn1059 O1087 2.053 . S
C1060 O1057 1.259 . S
C1060 O1061 1.254 . S
O1061 Zn1059 2.046 . S
O1061 C1060 1.254 . S
C1062 O1083 1.256 . S
C1062 O1084 1.244 . S
O1063 Zn1059 2.055 . S
O1063 C1085 1.259 . S
O1064 Zn1056 2.046 . S
O1064 C1085 1.254 . S
N1065 Zn1059 2.036 . S
N1065 C1066 1.298 . S
N1065 N1068 1.398 . S
C1066 N1065 1.298 . S
C1066 N1069 1.367 1_565 S
C1066 C1079 1.481 . S
C1067 N1068 1.299 1_545 S
C1067 N1069 1.379 . S
N1068 N1065 1.398 . S
N1068 C1067 1.299 1_565 S
N1069 C1066 1.367 1_545 S
N1069 C1067 1.379 . S
C1070 N1072 1.298 . S
C1070 N1074 1.367 . S
C1070 C1078 1.481 . S
C1071 N1073 1.299 . S
C1071 N1074 1.379 . S
N1072 Zn1056 2.036 . S
N1072 C1070 1.298 . S
N1072 N1073 1.398 . S
N1073 C1071 1.299 . S
N1073 N1072 1.398 . S
N1074 C1070 1.367 . S
N1074 C1071 1.379 . S
H1075 C1078 0.980 . S
H1076 C1078 0.981 . S
H1077 C1078 0.981 . S
C1078 C1070 1.481 . S
C1078 H1075 0.980 . S
C1078 H1076 0.981 . S
C1078 H1077 0.981 . S
C1079 C1066 1.481 . S
C1079 H1080 0.980 . S
C1079 H1081 0.981 . S
C1079 H1082 0.981 . S
H1080 C1079 0.980 . S
H1081 C1079 0.981 . S
H1082 C1079 0.981 . S
O1083 Zn1059 2.066 . S
O1083 C1062 1.256 . S
O1084 Zn1056 2.053 . S
O1084 C1062 1.244 . S
C1085 O1063 1.259 . S
C1085 O1064 1.254 . S
O1086 Zn1056 2.066 . S
O1086 C1058 1.256 . S
O1087 C1058 1.244 . S
O1087 Zn1059 2.053 . S
Zn1088 O1089 2.055 . S
Zn1088 O1096 2.046 . S
Zn1088 N1104 2.036 . S
Zn1088 O1116 2.053 . S
Zn1088 O1118 2.066 . S
O1089 Zn1088 2.055 . S
O1089 C1092 1.259 . S
C1090 O1118 1.256 . S
C1090 O1119 1.244 . S
Zn1091 O1093 2.046 . S
Zn1091 O1095 2.055 . S
Zn1091 N1097 2.036 . S
Zn1091 O1115 2.066 . S
Zn1091 O1119 2.053 . S
C1092 O1089 1.259 . S
C1092 O1093 1.254 . S
O1093 Zn1091 2.046 . S
O1093 C1092 1.254 . S
C1094 O1115 1.256 . S
C1094 O1116 1.244 . S
O1095 Zn1091 2.055 . S
O1095 C1117 1.259 . S
O1096 Zn1088 2.046 . S
O1096 C1117 1.254 . S
N1097 Zn1091 2.036 . S
N1097 C1098 1.298 . S
N1097 N1100 1.398 . S
C1098 N1097 1.298 . S
C1098 N1101 1.357 1_655 S
C1098 C1111 1.481 . S
C1099 N1100 1.301 1_455 S
C1099 N1101 1.379 . S
N1100 N1097 1.398 . S
N1100 C1099 1.301 1_655 S
N1101 C1098 1.357 1_455 S
N1101 C1099 1.379 . S
C1102 N1104 1.298 . S
C1102 N1106 1.367 . S
C1102 C1110 1.481 1_545 S
C1103 N1105 1.299 . S
C1103 N1106 1.379 . S
N1104 Zn1088 2.036 . S
N1104 C1102 1.298 . S
N1104 N1105 1.398 . S
N1105 C1103 1.299 . S
N1105 N1104 1.398 . S
N1106 C1102 1.367 . S
N1106 C1103 1.379 . S
H1107 C1110 0.980 . S
H1108 C1110 0.981 . S
H1109 C1110 0.981 . S
C1110 C1102 1.481 1_565 S
C1110 H1107 0.980 . S
C1110 H1108 0.981 . S
C1110 H1109 0.981 . S
C1111 C1098 1.481 . S
C1111 H1112 0.980 . S
C1111 H1113 0.981 . S
C1111 H1114 0.981 . S
H1112 C1111 0.980 . S
H1113 C1111 0.981 . S
H1114 C1111 0.981 . S
O1115 Zn1091 2.066 . S
O1115 C1094 1.256 . S
O1116 Zn1088 2.053 . S
O1116 C1094 1.244 . S
C1117 O1095 1.259 . S
C1117 O1096 1.254 . S
O1118 Zn1088 2.066 . S
O1118 C1090 1.256 . S
O1119 C1090 1.244 . S
O1119 Zn1091 2.053 . S
Zn1120 O1121 2.055 . S
Zn1120 O1128 2.046 . S
Zn1120 N1136 2.036 . S
Zn1120 O1148 2.053 . S
Zn1120 O1150 2.066 . S
O1121 Zn1120 2.055 . S
O1121 C1124 1.259 . S
C1122 O1150 1.256 . S
C1122 O1151 1.244 . S
Zn1123 O1125 2.046 . S
Zn1123 O1127 2.055 . S
Zn1123 N1129 2.036 . S
Zn1123 O1147 2.066 . S
Zn1123 O1151 2.053 . S
C1124 O1121 1.259 . S
C1124 O1125 1.254 . S
O1125 Zn1123 2.046 . S
O1125 C1124 1.254 . S
C1126 O1147 1.256 . S
C1126 O1148 1.244 . S
O1127 Zn1123 2.055 . S
O1127 C1149 1.259 . S
O1128 Zn1120 2.046 . S
O1128 C1149 1.254 . S
N1129 Zn1123 2.036 . S
N1129 C1130 1.298 . S
N1129 N1132 1.398 . S
C1130 N1129 1.298 . S
C1130 N1133 1.367 . S
C1130 C1143 1.481 . S
C1131 N1132 1.299 . S
C1131 N1133 1.379 . S
N1132 N1129 1.398 . S
N1132 C1131 1.299 . S
N1133 C1130 1.367 . S
N1133 C1131 1.379 . S
C1134 N1136 1.298 . S
C1134 N1138 1.367 1_545 S
C1134 C1142 1.481 . S
C1135 N1137 1.299 1_565 S
C1135 N1138 1.379 . S
N1136 Zn1120 2.036 . S
N1136 C1134 1.298 . S
N1136 N1137 1.398 . S
N1137 C1135 1.299 1_545 S
N1137 N1136 1.398 . S
N1138 C1134 1.367 1_565 S
N1138 C1135 1.379 . S
H1139 C1142 0.980 . S
H1140 C1142 0.981 . S
H1141 C1142 0.981 . S
C1142 C1134 1.481 . S
C1142 H1139 0.980 . S
C1142 H1140 0.981 . S
C1142 H1141 0.981 . S
C1143 C1130 1.481 . S
C1143 H1144 0.980 . S
C1143 H1145 0.981 . S
C1143 H1146 0.981 . S
H1144 C1143 0.980 . S
H1145 C1143 0.981 . S
H1146 C1143 0.981 . S
O1147 Zn1123 2.066 . S
O1147 C1126 1.256 . S
O1148 Zn1120 2.053 . S
O1148 C1126 1.244 . S
C1149 O1127 1.259 . S
C1149 O1128 1.254 . S
O1150 Zn1120 2.066 . S
O1150 C1122 1.256 . S
O1151 C1122 1.244 . S
O1151 Zn1123 2.053 . S
Zn1152 O1153 2.055 . S
Zn1152 O1160 2.046 . S
Zn1152 N1168 2.036 . S
Zn1152 O1180 2.053 . S
Zn1152 O1182 2.066 . S
O1153 Zn1152 2.055 . S
O1153 C1156 1.259 . S
C1154 O1182 1.256 . S
C1154 O1183 1.244 . S
Zn1155 O1157 2.046 . S
Zn1155 O1159 2.055 . S
Zn1155 N1161 2.036 . S
Zn1155 O1179 2.066 . S
Zn1155 O1183 2.053 . S
C1156 O1153 1.259 . S
C1156 O1157 1.254 . S
O1157 Zn1155 2.046 . S
O1157 C1156 1.254 . S
C1158 O1179 1.256 . S
C1158 O1180 1.244 . S
O1159 Zn1155 2.055 . S
O1159 C1181 1.259 . S
O1160 Zn1152 2.046 . S
O1160 C1181 1.254 . S
N1161 Zn1155 2.036 . S
N1161 C1162 1.298 . S
N1161 N1164 1.398 . S
C1162 N1161 1.298 . S
C1162 N1165 1.367 . S
C1162 C1175 1.481 . S
C1163 N1164 1.299 . S
C1163 N1165 1.379 . S
N1164 N1161 1.398 . S
N1164 C1163 1.299 . S
N1165 C1162 1.367 . S
N1165 C1163 1.379 . S
C1166 N1168 1.298 . S
C1166 N1170 1.367 . S
C1166 C1174 1.481 1_545 S
C1167 N1169 1.299 . S
C1167 N1170 1.379 . S
N1168 Zn1152 2.036 . S
N1168 C1166 1.298 . S
N1168 N1169 1.398 . S
N1169 C1167 1.299 . S
N1169 N1168 1.398 . S
N1170 C1166 1.367 . S
N1170 C1167 1.379 . S
H1171 C1174 0.980 . S
H1172 C1174 0.981 . S
H1173 C1174 0.981 . S
C1174 C1166 1.481 1_565 S
C1174 H1171 0.980 . S
C1174 H1172 0.981 . S
C1174 H1173 0.981 . S
C1175 C1162 1.481 . S
C1175 H1176 0.980 . S
C1175 H1177 0.981 . S
C1175 H1178 0.981 . S
H1176 C1175 0.980 . S
H1177 C1175 0.981 . S
H1178 C1175 0.981 . S
O1179 Zn1155 2.066 . S
O1179 C1158 1.256 . S
O1180 Zn1152 2.053 . S
O1180 C1158 1.244 . S
C1181 O1159 1.259 . S
C1181 O1160 1.254 . S
O1182 Zn1152 2.066 . S
O1182 C1154 1.256 . S
O1183 C1154 1.244 . S
O1183 Zn1155 2.053 . S
Zn1184 O1185 2.055 . S
Zn1184 O1192 2.046 . S
Zn1184 N1200 2.036 . S
Zn1184 O1212 2.053 . S
Zn1184 O1214 2.066 . S
O1185 Zn1184 2.055 . S
O1185 C1188 1.259 . S
C1186 O1214 1.256 . S
C1186 O1215 1.244 . S
Zn1187 O1189 2.046 . S
Zn1187 O1191 2.055 . S
Zn1187 N1193 2.036 . S
Zn1187 O1211 2.066 . S
Zn1187 O1215 2.053 . S
C1188 O1185 1.259 . S
C1188 O1189 1.254 . S
O1189 Zn1187 2.046 . S
O1189 C1188 1.254 . S
C1190 O1211 1.256 . S
C1190 O1212 1.244 . S
O1191 Zn1187 2.055 . S
O1191 C1213 1.259 . S
O1192 Zn1184 2.046 . S
O1192 C1213 1.254 . S
N1193 Zn1187 2.036 . S
N1193 C1194 1.298 . S
N1193 N1196 1.398 . S
C1194 N1193 1.298 . S
C1194 N1197 1.367 1_565 S
C1194 C1207 1.481 . S
C1195 N1196 1.299 1_545 S
C1195 N1197 1.379 . S
N1196 N1193 1.398 . S
N1196 C1195 1.299 1_565 S
N1197 C1194 1.367 1_545 S
N1197 C1195 1.379 . S
C1198 N1200 1.298 . S
C1198 N1202 1.367 . S
C1198 C1206 1.481 . S
C1199 N1201 1.299 . S
C1199 N1202 1.379 . S
N1200 Zn1184 2.036 . S
N1200 C1198 1.298 . S
N1200 N1201 1.398 . S
N1201 C1199 1.299 . S
N1201 N1200 1.398 . S
N1202 C1198 1.367 . S
N1202 C1199 1.379 . S
H1203 C1206 0.980 . S
H1204 C1206 0.981 . S
H1205 C1206 0.981 . S
C1206 C1198 1.481 . S
C1206 H1203 0.980 . S
C1206 H1204 0.981 . S
C1206 H1205 0.981 . S
C1207 C1194 1.481 . S
C1207 H1208 0.980 . S
C1207 H1209 0.981 . S
C1207 H1210 0.981 . S
H1208 C1207 0.980 . S
H1209 C1207 0.981 . S
H1210 C1207 0.981 . S
O1211 Zn1187 2.066 . S
O1211 C1190 1.256 . S
O1212 Zn1184 2.053 . S
O1212 C1190 1.244 . S
C1213 O1191 1.259 . S
C1213 O1192 1.254 . S
O1214 Zn1184 2.066 . S
O1214 C1186 1.256 . S
O1215 C1186 1.244 . S
O1215 Zn1187 2.053 . S
Zn1216 O1217 2.055 . S
Zn1216 O1224 2.046 . S
Zn1216 N1232 2.036 . S
Zn1216 O1244 2.053 . S
Zn1216 O1246 2.066 . S
O1217 Zn1216 2.055 . S
O1217 C1220 1.259 . S
C1218 O1246 1.256 . S
C1218 O1247 1.244 . S
Zn1219 O1221 2.046 . S
Zn1219 O1223 2.055 . S
Zn1219 N1225 2.036 . S
Zn1219 O1243 2.066 . S
Zn1219 O1247 2.053 . S
C1220 O1217 1.259 . S
C1220 O1221 1.254 . S
O1221 Zn1219 2.046 . S
O1221 C1220 1.254 . S
C1222 O1243 1.256 . S
C1222 O1244 1.244 . S
O1223 Zn1219 2.055 . S
O1223 C1245 1.259 . S
O1224 Zn1216 2.046 . S
O1224 C1245 1.254 . S
N1225 Zn1219 2.036 . S
N1225 C1226 1.298 . S
N1225 N1228 1.398 . S
C1226 N1225 1.298 . S
C1226 N1229 1.367 . S
C1226 C1239 1.481 1_565 S
C1227 N1228 1.299 . S
C1227 N1229 1.379 . S
N1228 N1225 1.398 . S
N1228 C1227 1.299 . S
N1229 C1226 1.367 . S
N1229 C1227 1.379 . S
C1230 N1232 1.298 . S
C1230 N1234 1.357 1_655 S
C1230 C1238 1.481 . S
C1231 N1233 1.301 1_455 S
C1231 N1234 1.379 . S
N1232 Zn1216 2.036 . S
N1232 C1230 1.298 . S
N1232 N1233 1.398 . S
N1233 C1231 1.301 1_655 S
N1233 N1232 1.398 . S
N1234 C1230 1.357 1_455 S
N1234 C1231 1.379 . S
H1235 C1238 0.980 . S
H1236 C1238 0.981 . S
H1237 C1238 0.981 . S
C1238 C1230 1.481 . S
C1238 H1235 0.980 . S
C1238 H1236 0.981 . S
C1238 H1237 0.981 . S
C1239 C1226 1.481 1_545 S
C1239 H1240 0.980 . S
C1239 H1241 0.981 . S
C1239 H1242 0.981 . S
H1240 C1239 0.980 . S
H1241 C1239 0.981 . S
H1242 C1239 0.981 . S
O1243 Zn1219 2.066 . S
O1243 C1222 1.256 . S
O1244 Zn1216 2.053 . S
O1244 C1222 1.244 . S
C1245 O1223 1.259 . S
C1245 O1224 1.254 . S
O1246 Zn1216 2.066 . S
O1246 C1218 1.256 . S
O1247 C1218 1.244 . S
O1247 Zn1219 2.053 . S
Zn1248 O1249 2.055 . S
Zn1248 O1256 2.046 . S
Zn1248 N1264 2.036 . S
Zn1248 O1276 2.053 . S
Zn1248 O1278 2.066 . S
O1249 Zn1248 2.055 . S
O1249 C1252 1.259 . S
C1250 O1278 1.256 . S
C1250 O1279 1.244 . S
Zn1251 O1253 2.046 . S
Zn1251 O1255 2.055 . S
Zn1251 N1257 2.036 . S
Zn1251 O1275 2.066 . S
Zn1251 O1279 2.053 . S
C1252 O1249 1.259 . S
C1252 O1253 1.254 . S
O1253 Zn1251 2.046 . S
O1253 C1252 1.254 . S
C1254 O1275 1.256 . S
C1254 O1276 1.244 . S
O1255 Zn1251 2.055 . S
O1255 C1277 1.259 . S
O1256 Zn1248 2.046 . S
O1256 C1277 1.254 . S
N1257 Zn1251 2.036 . S
N1257 C1258 1.298 . S
N1257 N1260 1.398 . S
C1258 N1257 1.298 . S
C1258 N1261 1.367 . S
C1258 C1271 1.481 . S
C1259 N1260 1.299 . S
C1259 N1261 1.379 . S
N1260 N1257 1.398 . S
N1260 C1259 1.299 . S
N1261 C1258 1.367 . S
N1261 C1259 1.379 . S
C1262 N1264 1.298 . S
C1262 N1266 1.367 1_545 S
C1262 C1270 1.481 . S
C1263 N1265 1.299 1_565 S
C1263 N1266 1.379 . S
N1264 Zn1248 2.036 . S
N1264 C1262 1.298 . S
N1264 N1265 1.398 . S
N1265 C1263 1.299 1_545 S
N1265 N1264 1.398 . S
N1266 C1262 1.367 1_565 S
N1266 C1263 1.379 . S
H1267 C1270 0.980 . S
H1268 C1270 0.981 . S
H1269 C1270 0.981 . S
C1270 C1262 1.481 . S
C1270 H1267 0.980 . S
C1270 H1268 0.981 . S
C1270 H1269 0.981 . S
C1271 C1258 1.481 . S
C1271 H1272 0.980 . S
C1271 H1273 0.981 . S
C1271 H1274 0.981 . S
H1272 C1271 0.980 . S
H1273 C1271 0.981 . S
H1274 C1271 0.981 . S
O1275 Zn1251 2.066 . S
O1275 C1254 1.256 . S
O1276 Zn1248 2.053 . S
O1276 C1254 1.244 . S
C1277 O1255 1.259 . S
C1277 O1256 1.254 . S
O1278 Zn1248 2.066 . S
O1278 C1250 1.256 . S
O1279 C1250 1.244 . S
O1279 Zn1251 2.053 . S
Zn1280 O1281 2.055 . S
Zn1280 O1288 2.046 . S
Zn1280 N1296 2.036 . S
Zn1280 O1308 2.053 . S
Zn1280 O1310 2.066 . S
O1281 Zn1280 2.055 . S
O1281 C1284 1.259 . S
C1282 O1310 1.256 . S
C1282 O1311 1.244 . S
Zn1283 O1285 2.046 . S
Zn1283 O1287 2.055 . S
Zn1283 N1289 2.036 . S
Zn1283 O1307 2.066 . S
Zn1283 O1311 2.053 . S
C1284 O1281 1.259 . S
C1284 O1285 1.254 . S
O1285 Zn1283 2.046 . S
O1285 C1284 1.254 . S
C1286 O1307 1.256 . S
C1286 O1308 1.244 . S
O1287 Zn1283 2.055 . S
O1287 C1309 1.259 . S
O1288 Zn1280 2.046 . S
O1288 C1309 1.254 . S
N1289 Zn1283 2.036 . S
N1289 C1290 1.298 . S
N1289 N1292 1.398 . S
C1290 N1289 1.298 . S
C1290 N1293 1.367 . S
C1290 C1303 1.481 . S
C1291 N1292 1.299 . S
C1291 N1293 1.379 . S
N1292 N1289 1.398 . S
N1292 C1291 1.299 . S
N1293 C1290 1.367 . S
N1293 C1291 1.379 . S
C1294 N1296 1.298 . S
C1294 N1298 1.367 . S
C1294 C1302 1.481 1_556 S
C1295 N1297 1.299 . S
C1295 N1298 1.379 . S
N1296 Zn1280 2.036 . S
N1296 C1294 1.298 . S
N1296 N1297 1.398 . S
N1297 C1295 1.299 . S
N1297 N1296 1.398 . S
N1298 C1294 1.367 . S
N1298 C1295 1.379 . S
H1299 C1302 0.980 . S
H1300 C1302 0.981 . S
H1301 C1302 0.981 . S
C1302 C1294 1.481 1_554 S
C1302 H1299 0.980 . S
C1302 H1300 0.981 . S
C1302 H1301 0.981 . S
C1303 C1290 1.481 . S
C1303 H1304 0.980 . S
C1303 H1305 0.981 . S
C1303 H1306 0.981 . S
H1304 C1303 0.980 . S
H1305 C1303 0.981 . S
H1306 C1303 0.981 . S
O1307 Zn1283 2.066 . S
O1307 C1286 1.256 . S
O1308 Zn1280 2.053 . S
O1308 C1286 1.244 . S
C1309 O1287 1.259 . S
C1309 O1288 1.254 . S
O1310 Zn1280 2.066 . S
O1310 C1282 1.256 . S
O1311 C1282 1.244 . S
O1311 Zn1283 2.053 . S
Zn1312 O1313 2.055 . S
Zn1312 O1320 2.046 . S
Zn1312 N1328 2.036 . S
Zn1312 O1340 2.053 . S
Zn1312 O1342 2.066 . S
O1313 Zn1312 2.055 . S
O1313 C1316 1.259 . S
C1314 O1342 1.256 . S
C1314 O1343 1.244 . S
Zn1315 O1317 2.046 . S
Zn1315 O1319 2.055 . S
Zn1315 N1321 2.036 . S
Zn1315 O1339 2.066 . S
Zn1315 O1343 2.053 . S
C1316 O1313 1.259 . S
C1316 O1317 1.254 . S
O1317 Zn1315 2.046 . S
O1317 C1316 1.254 . S
C1318 O1339 1.256 . S
C1318 O1340 1.244 . S
O1319 Zn1315 2.055 . S
O1319 C1341 1.259 . S
O1320 Zn1312 2.046 . S
O1320 C1341 1.254 . S
N1321 Zn1315 2.036 . S
N1321 C1322 1.298 . S
N1321 N1324 1.398 . S
C1322 N1321 1.298 . S
C1322 N1325 1.367 . S
C1322 C1335 1.481 1_554 S
C1323 N1324 1.299 . S
C1323 N1325 1.379 . S
N1324 N1321 1.398 . S
N1324 C1323 1.299 . S
N1325 C1322 1.367 . S
N1325 C1323 1.379 . S
C1326 N1328 1.298 . S
C1326 N1330 1.357 1_565 S
C1326 C1334 1.481 . S
C1327 N1329 1.301 1_545 S
C1327 N1330 1.379 . S
N1328 Zn1312 2.036 . S
N1328 C1326 1.298 . S
N1328 N1329 1.398 . S
N1329 C1327 1.301 1_565 S
N1329 N1328 1.398 . S
N1330 C1326 1.357 1_545 S
N1330 C1327 1.379 . S
H1331 C1334 0.980 . S
H1332 C1334 0.981 . S
H1333 C1334 0.981 . S
C1334 C1326 1.481 . S
C1334 H1331 0.980 . S
C1334 H1332 0.981 . S
C1334 H1333 0.981 . S
C1335 C1322 1.481 1_556 S
C1335 H1336 0.980 . S
C1335 H1337 0.981 . S
C1335 H1338 0.981 . S
H1336 C1335 0.980 . S
H1337 C1335 0.981 . S
H1338 C1335 0.981 . S
O1339 Zn1315 2.066 . S
O1339 C1318 1.256 . S
O1340 Zn1312 2.053 . S
O1340 C1318 1.244 . S
C1341 O1319 1.259 . S
C1341 O1320 1.254 . S
O1342 Zn1312 2.066 . S
O1342 C1314 1.256 . S
O1343 C1314 1.244 . S
O1343 Zn1315 2.053 . S
Zn1344 O1345 2.055 . S
Zn1344 O1352 2.046 . S
Zn1344 N1360 2.036 . S
Zn1344 O1372 2.053 . S
Zn1344 O1374 2.066 . S
O1345 Zn1344 2.055 . S
O1345 C1348 1.259 . S
C1346 O1374 1.256 . S
C1346 O1375 1.244 . S
Zn1347 O1349 2.046 . S
Zn1347 O1351 2.055 . S
Zn1347 N1353 2.036 . S
Zn1347 O1371 2.066 . S
Zn1347 O1375 2.053 . S
C1348 O1345 1.259 . S
C1348 O1349 1.254 . S
O1349 Zn1347 2.046 . S
O1349 C1348 1.254 . S
C1350 O1371 1.256 . S
C1350 O1372 1.244 . S
O1351 Zn1347 2.055 . S
O1351 C1373 1.259 . S
O1352 Zn1344 2.046 . S
O1352 C1373 1.254 . S
N1353 Zn1347 2.036 . S
N1353 C1354 1.298 . S
N1353 N1356 1.398 . S
C1354 N1353 1.298 . S
C1354 N1357 1.367 1_655 S
C1354 C1367 1.481 . S
C1355 N1356 1.299 1_455 S
C1355 N1357 1.379 . S
N1356 N1353 1.398 . S
N1356 C1355 1.299 1_655 S
N1357 C1354 1.367 1_455 S
N1357 C1355 1.379 . S
C1358 N1360 1.298 . S
C1358 N1362 1.367 . S
C1358 C1366 1.481 . S
C1359 N1361 1.299 . S
C1359 N1362 1.379 . S
N1360 Zn1344 2.036 . S
N1360 C1358 1.298 . S
N1360 N1361 1.398 . S
N1361 C1359 1.299 . S
N1361 N1360 1.398 . S
N1362 C1358 1.367 . S
N1362 C1359 1.379 . S
H1363 C1366 0.980 . S
H1364 C1366 0.981 . S
H1365 C1366 0.981 . S
C1366 C1358 1.481 . S
C1366 H1363 0.980 . S
C1366 H1364 0.981 . S
C1366 H1365 0.981 . S
C1367 C1354 1.481 . S
C1367 H1368 0.980 . S
C1367 H1369 0.981 . S
C1367 H1370 0.981 . S
H1368 C1367 0.980 . S
H1369 C1367 0.981 . S
H1370 C1367 0.981 . S
O1371 Zn1347 2.066 . S
O1371 C1350 1.256 . S
O1372 Zn1344 2.053 . S
O1372 C1350 1.244 . S
C1373 O1351 1.259 . S
C1373 O1352 1.254 . S
O1374 Zn1344 2.066 . S
O1374 C1346 1.256 . S
O1375 C1346 1.244 . S
O1375 Zn1347 2.053 . S
Zn1376 O1377 2.055 . S
Zn1376 O1384 2.046 . S
Zn1376 N1392 2.036 . S
Zn1376 O1404 2.053 . S
Zn1376 O1406 2.066 . S
O1377 Zn1376 2.055 . S
O1377 C1380 1.259 . S
C1378 O1406 1.256 . S
C1378 O1407 1.244 . S
Zn1379 O1381 2.046 . S
Zn1379 O1383 2.055 . S
Zn1379 N1385 2.036 . S
Zn1379 O1403 2.066 . S
Zn1379 O1407 2.053 . S
C1380 O1377 1.259 . S
C1380 O1381 1.254 . S
O1381 Zn1379 2.046 . S
O1381 C1380 1.254 . S
C1382 O1403 1.256 . S
C1382 O1404 1.244 . S
O1383 Zn1379 2.055 . S
O1383 C1405 1.259 . S
O1384 Zn1376 2.046 . S
O1384 C1405 1.254 . S
N1385 Zn1379 2.036 . S
N1385 C1386 1.298 . S
N1385 N1388 1.398 . S
C1386 N1385 1.298 . S
C1386 N1389 1.367 . S
C1386 C1399 1.481 . S
C1387 N1388 1.299 . S
C1387 N1389 1.379 . S
N1388 N1385 1.398 . S
N1388 C1387 1.299 . S
N1389 C1386 1.367 . S
N1389 C1387 1.379 . S
C1390 N1392 1.298 . S
C1390 N1394 1.357 1_545 S
C1390 C1398 1.481 . S
C1391 N1393 1.301 1_565 S
C1391 N1394 1.379 . S
N1392 Zn1376 2.036 . S
N1392 C1390 1.298 . S
N1392 N1393 1.398 . S
N1393 C1391 1.301 1_545 S
N1393 N1392 1.398 . S
N1394 C1390 1.357 1_565 S
N1394 C1391 1.379 . S
H1395 C1398 0.980 . S
H1396 C1398 0.981 . S
H1397 C1398 0.981 . S
C1398 C1390 1.481 . S
C1398 H1395 0.980 . S
C1398 H1396 0.981 . S
C1398 H1397 0.981 . S
C1399 C1386 1.481 . S
C1399 H1400 0.980 . S
C1399 H1401 0.981 . S
C1399 H1402 0.981 . S
H1400 C1399 0.980 . S
H1401 C1399 0.981 . S
H1402 C1399 0.981 . S
O1403 Zn1379 2.066 . S
O1403 C1382 1.256 . S
O1404 Zn1376 2.053 . S
O1404 C1382 1.244 . S
C1405 O1383 1.259 . S
C1405 O1384 1.254 . S
O1406 Zn1376 2.066 . S
O1406 C1378 1.256 . S
O1407 C1378 1.244 . S
O1407 Zn1379 2.053 . S
Zn1408 O1409 2.055 . S
Zn1408 O1416 2.046 . S
Zn1408 N1424 2.036 . S
Zn1408 O1436 2.053 . S
Zn1408 O1438 2.066 . S
O1409 Zn1408 2.055 . S
O1409 C1412 1.259 . S
C1410 O1438 1.256 . S
C1410 O1439 1.244 . S
Zn1411 O1413 2.046 . S
Zn1411 O1415 2.055 . S
Zn1411 N1417 2.036 . S
Zn1411 O1435 2.066 . S
Zn1411 O1439 2.053 . S
C1412 O1409 1.259 . S
C1412 O1413 1.254 . S
O1413 Zn1411 2.046 . S
O1413 C1412 1.254 . S
C1414 O1435 1.256 . S
C1414 O1436 1.244 . S
O1415 Zn1411 2.055 . S
O1415 C1437 1.259 . S
O1416 Zn1408 2.046 . S
O1416 C1437 1.254 . S
N1417 Zn1411 2.036 . S
N1417 C1418 1.298 . S
N1417 N1420 1.398 . S
C1418 N1417 1.298 . S
C1418 N1421 1.367 1_455 S
C1418 C1431 1.481 . S
C1419 N1420 1.299 1_655 S
C1419 N1421 1.379 . S
N1420 N1417 1.398 . S
N1420 C1419 1.299 1_455 S
N1421 C1418 1.367 1_655 S
N1421 C1419 1.379 . S
C1422 N1424 1.298 . S
C1422 N1426 1.367 . S
C1422 C1430 1.481 . S
C1423 N1425 1.299 . S
C1423 N1426 1.379 . S
N1424 Zn1408 2.036 . S
N1424 C1422 1.298 . S
N1424 N1425 1.398 . S
N1425 C1423 1.299 . S
N1425 N1424 1.398 . S
N1426 C1422 1.367 . S
N1426 C1423 1.379 . S
H1427 C1430 0.980 . S
H1428 C1430 0.981 . S
H1429 C1430 0.981 . S
C1430 C1422 1.481 . S
C1430 H1427 0.980 . S
C1430 H1428 0.981 . S
C1430 H1429 0.981 . S
C1431 C1418 1.481 . S
C1431 H1432 0.980 . S
C1431 H1433 0.981 . S
C1431 H1434 0.981 . S
H1432 C1431 0.980 . S
H1433 C1431 0.981 . S
H1434 C1431 0.981 . S
O1435 Zn1411 2.066 . S
O1435 C1414 1.256 . S
O1436 Zn1408 2.053 . S
O1436 C1414 1.244 . S
C1437 O1415 1.259 . S
C1437 O1416 1.254 . S
O1438 Zn1408 2.066 . S
O1438 C1410 1.256 . S
O1439 C1410 1.244 . S
O1439 Zn1411 2.053 . S
Zn1440 O1441 2.055 . S
Zn1440 O1448 2.046 . S
Zn1440 N1456 2.036 . S
Zn1440 O1468 2.053 . S
Zn1440 O1470 2.066 . S
O1441 Zn1440 2.055 . S
O1441 C1444 1.259 . S
C1442 O1470 1.256 . S
C1442 O1471 1.244 . S
Zn1443 O1445 2.046 . S
Zn1443 O1447 2.055 . S
Zn1443 N1449 2.036 . S
Zn1443 O1467 2.066 . S
Zn1443 O1471 2.053 . S
C1444 O1441 1.259 . S
C1444 O1445 1.254 . S
O1445 Zn1443 2.046 . S
O1445 C1444 1.254 . S
C1446 O1467 1.256 . S
C1446 O1468 1.244 . S
O1447 Zn1443 2.055 . S
O1447 C1469 1.259 . S
O1448 Zn1440 2.046 . S
O1448 C1469 1.254 . S
N1449 Zn1443 2.036 . S
N1449 C1450 1.298 . S
N1449 N1452 1.398 . S
C1450 N1449 1.298 . S
C1450 N1453 1.367 . S
C1450 C1463 1.481 . S
C1451 N1452 1.299 . S
C1451 N1453 1.379 . S
N1452 N1449 1.398 . S
N1452 C1451 1.299 . S
N1453 C1450 1.367 . S
N1453 C1451 1.379 . S
C1454 N1456 1.298 . S
C1454 N1458 1.367 . S
C1454 C1462 1.481 . S
C1455 N1457 1.299 . S
C1455 N1458 1.379 . S
N1456 Zn1440 2.036 . S
N1456 C1454 1.298 . S
N1456 N1457 1.398 . S
N1457 C1455 1.299 . S
N1457 N1456 1.398 . S
N1458 C1454 1.367 . S
N1458 C1455 1.379 . S
H1459 C1462 0.980 . S
H1460 C1462 0.981 . S
H1461 C1462 0.981 . S
C1462 C1454 1.481 . S
C1462 H1459 0.980 . S
C1462 H1460 0.981 . S
C1462 H1461 0.981 . S
C1463 C1450 1.481 . S
C1463 H1464 0.980 . S
C1463 H1465 0.981 . S
C1463 H1466 0.981 . S
H1464 C1463 0.980 . S
H1465 C1463 0.981 . S
H1466 C1463 0.981 . S
O1467 Zn1443 2.066 . S
O1467 C1446 1.256 . S
O1468 Zn1440 2.053 . S
O1468 C1446 1.244 . S
C1469 O1447 1.259 . S
C1469 O1448 1.254 . S
O1470 Zn1440 2.066 . S
O1470 C1442 1.256 . S
O1471 C1442 1.244 . S
O1471 Zn1443 2.053 . S
Zn1472 O1473 2.055 . S
Zn1472 O1480 2.046 . S
Zn1472 N1488 2.036 . S
Zn1472 O1500 2.053 . S
Zn1472 O1502 2.066 . S
O1473 Zn1472 2.055 . S
O1473 C1476 1.259 . S
C1474 O1502 1.256 . S
C1474 O1503 1.244 . S
Zn1475 O1477 2.046 . S
Zn1475 O1479 2.055 . S
Zn1475 N1481 2.036 . S
Zn1475 O1499 2.066 . S
Zn1475 O1503 2.053 . S
C1476 O1473 1.259 . S
C1476 O1477 1.254 . S
O1477 Zn1475 2.046 . S
O1477 C1476 1.254 . S
C1478 O1499 1.256 . S
C1478 O1500 1.244 . S
O1479 Zn1475 2.055 . S
O1479 C1501 1.259 . S
O1480 Zn1472 2.046 . S
O1480 C1501 1.254 . S
N1481 Zn1475 2.036 . S
N1481 C1482 1.298 . S
N1481 N1484 1.398 . S
C1482 N1481 1.298 . S
C1482 N1485 1.367 . S
C1482 C1495 1.481 . S
C1483 N1484 1.299 . S
C1483 N1485 1.379 . S
N1484 N1481 1.398 . S
N1484 C1483 1.299 . S
N1485 C1482 1.367 . S
N1485 C1483 1.379 . S
C1486 N1488 1.298 . S
C1486 N1490 1.367 1_655 S
C1486 C1494 1.481 . S
C1487 N1489 1.299 1_455 S
C1487 N1490 1.379 . S
N1488 Zn1472 2.036 . S
N1488 C1486 1.298 . S
N1488 N1489 1.398 . S
N1489 C1487 1.299 1_655 S
N1489 N1488 1.398 . S
N1490 C1486 1.367 1_455 S
N1490 C1487 1.379 . S
H1491 C1494 0.980 . S
H1492 C1494 0.981 . S
H1493 C1494 0.981 . S
C1494 C1486 1.481 . S
C1494 H1491 0.980 . S
C1494 H1492 0.981 . S
C1494 H1493 0.981 . S
C1495 C1482 1.481 . S
C1495 H1496 0.980 . S
C1495 H1497 0.981 . S
C1495 H1498 0.981 . S
H1496 C1495 0.980 . S
H1497 C1495 0.981 . S
H1498 C1495 0.981 . S
O1499 Zn1475 2.066 . S
O1499 C1478 1.256 . S
O1500 Zn1472 2.053 . S
O1500 C1478 1.244 . S
C1501 O1479 1.259 . S
C1501 O1480 1.254 . S
O1502 Zn1472 2.066 . S
O1502 C1474 1.256 . S
O1503 C1474 1.244 . S
O1503 Zn1475 2.053 . S
Zn1504 O1505 2.055 . S
Zn1504 O1512 2.046 . S
Zn1504 N1520 2.036 . S
Zn1504 O1532 2.053 . S
Zn1504 O1534 2.066 . S
O1505 Zn1504 2.055 . S
O1505 C1508 1.259 . S
C1506 O1534 1.256 . S
C1506 O1535 1.244 . S
Zn1507 O1509 2.046 . S
Zn1507 O1511 2.055 . S
Zn1507 N1513 2.036 . S
Zn1507 O1531 2.066 . S
Zn1507 O1535 2.053 . S
C1508 O1505 1.259 . S
C1508 O1509 1.254 . S
O1509 Zn1507 2.046 . S
O1509 C1508 1.254 . S
C1510 O1531 1.256 . S
C1510 O1532 1.244 . S
O1511 Zn1507 2.055 . S
O1511 C1533 1.259 . S
O1512 Zn1504 2.046 . S
O1512 C1533 1.254 . S
N1513 Zn1507 2.036 . S
N1513 C1514 1.298 . S
N1513 N1516 1.398 . S
C1514 N1513 1.298 . S
C1514 N1517 1.367 . S
C1514 C1527 1.481 . S
C1515 N1516 1.299 . S
C1515 N1517 1.379 . S
N1516 N1513 1.398 . S
N1516 C1515 1.299 . S
N1517 C1514 1.367 . S
N1517 C1515 1.379 . S
C1518 N1520 1.298 . S
C1518 N1522 1.367 . S
C1518 C1526 1.481 . S
C1519 N1521 1.299 . S
C1519 N1522 1.379 . S
N1520 Zn1504 2.036 . S
N1520 C1518 1.298 . S
N1520 N1521 1.398 . S
N1521 C1519 1.299 . S
N1521 N1520 1.398 . S
N1522 C1518 1.367 . S
N1522 C1519 1.379 . S
H1523 C1526 0.980 . S
H1524 C1526 0.981 . S
H1525 C1526 0.981 . S
C1526 C1518 1.481 . S
C1526 H1523 0.980 . S
C1526 H1524 0.981 . S
C1526 H1525 0.981 . S
C1527 C1514 1.481 . S
C1527 H1528 0.980 . S
C1527 H1529 0.981 . S
C1527 H1530 0.981 . S
H1528 C1527 0.980 . S
H1529 C1527 0.981 . S
H1530 C1527 0.981 . S
O1531 Zn1507 2.066 . S
O1531 C1510 1.256 . S
O1532 Zn1504 2.053 . S
O1532 C1510 1.244 . S
C1533 O1511 1.259 . S
C1533 O1512 1.254 . S
O1534 Zn1504 2.066 . S
O1534 C1506 1.256 . S
O1535 C1506 1.244 . S
O1535 Zn1507 2.053 . S
Zn1536 O1537 2.055 . S
Zn1536 O1544 2.046 . S
Zn1536 N1552 2.036 . S
Zn1536 O1564 2.053 . S
Zn1536 O1566 2.066 . S
O1537 Zn1536 2.055 . S
O1537 C1540 1.259 . S
C1538 O1566 1.256 . S
C1538 O1567 1.244 . S
Zn1539 O1541 2.046 . S
Zn1539 O1543 2.055 . S
Zn1539 N1545 2.036 . S
Zn1539 O1563 2.066 . S
Zn1539 O1567 2.053 . S
C1540 O1537 1.259 . S
C1540 O1541 1.254 . S
O1541 Zn1539 2.046 . S
O1541 C1540 1.254 . S
C1542 O1563 1.256 . S
C1542 O1564 1.244 . S
O1543 Zn1539 2.055 . S
O1543 C1565 1.259 . S
O1544 Zn1536 2.046 . S
O1544 C1565 1.254 . S
N1545 Zn1539 2.036 . S
N1545 C1546 1.298 . S
N1545 N1548 1.398 . S
C1546 N1545 1.298 . S
C1546 N1549 1.357 1_556 S
C1546 C1559 1.481 . S
C1547 N1548 1.301 1_554 S
C1547 N1549 1.379 . S
N1548 N1545 1.398 . S
N1548 C1547 1.301 1_556 S
N1549 C1546 1.357 1_554 S
N1549 C1547 1.379 . S
C1550 N1552 1.298 . S
C1550 N1554 1.367 . S
C1550 C1558 1.481 . S
C1551 N1553 1.299 . S
C1551 N1554 1.379 . S
N1552 Zn1536 2.036 . S
N1552 C1550 1.298 . S
N1552 N1553 1.398 . S
N1553 C1551 1.299 . S
N1553 N1552 1.398 . S
N1554 C1550 1.367 . S
N1554 C1551 1.379 . S
H1555 C1558 0.980 . S
H1556 C1558 0.981 . S
H1557 C1558 0.981 . S
C1558 C1550 1.481 . S
C1558 H1555 0.980 . S
C1558 H1556 0.981 . S
C1558 H1557 0.981 . S
C1559 C1546 1.481 . S
C1559 H1560 0.980 . S
C1559 H1561 0.981 . S
C1559 H1562 0.981 . S
H1560 C1559 0.980 . S
H1561 C1559 0.981 . S
H1562 C1559 0.981 . S
O1563 Zn1539 2.066 . S
O1563 C1542 1.256 . S
O1564 Zn1536 2.053 . S
O1564 C1542 1.244 . S
C1565 O1543 1.259 . S
C1565 O1544 1.254 . S
O1566 Zn1536 2.066 . S
O1566 C1538 1.256 . S
O1567 C1538 1.244 . S
O1567 Zn1539 2.053 . S
Zn1568 O1569 2.055 . S
Zn1568 O1576 2.046 . S
Zn1568 N1584 2.036 . S
Zn1568 O1596 2.053 . S
Zn1568 O1598 2.066 . S
O1569 Zn1568 2.055 . S
O1569 C1572 1.259 . S
C1570 O1598 1.256 . S
C1570 O1599 1.244 . S
Zn1571 O1573 2.046 . S
Zn1571 O1575 2.055 . S
Zn1571 N1577 2.036 . S
Zn1571 O1595 2.066 . S
Zn1571 O1599 2.053 . S
C1572 O1569 1.259 . S
C1572 O1573 1.254 . S
O1573 Zn1571 2.046 . S
O1573 C1572 1.254 . S
C1574 O1595 1.256 . S
C1574 O1596 1.244 . S
O1575 Zn1571 2.055 . S
O1575 C1597 1.259 . S
O1576 Zn1568 2.046 . S
O1576 C1597 1.254 . S
N1577 Zn1571 2.036 . S
N1577 C1578 1.298 . S
N1577 N1580 1.398 . S
C1578 N1577 1.298 . S
C1578 N1581 1.367 1_554 S
C1578 C1591 1.481 . S
C1579 N1580 1.299 1_556 S
C1579 N1581 1.379 . S
N1580 N1577 1.398 . S
N1580 C1579 1.299 1_554 S
N1581 C1578 1.367 1_556 S
N1581 C1579 1.379 . S
C1582 N1584 1.298 . S
C1582 N1586 1.367 . S
C1582 C1590 1.481 . S
C1583 N1585 1.299 . S
C1583 N1586 1.379 . S
N1584 Zn1568 2.036 . S
N1584 C1582 1.298 . S
N1584 N1585 1.398 . S
N1585 C1583 1.299 . S
N1585 N1584 1.398 . S
N1586 C1582 1.367 . S
N1586 C1583 1.379 . S
H1587 C1590 0.980 . S
H1588 C1590 0.981 . S
H1589 C1590 0.981 . S
C1590 C1582 1.481 . S
C1590 H1587 0.980 . S
C1590 H1588 0.981 . S
C1590 H1589 0.981 . S
C1591 C1578 1.481 . S
C1591 H1592 0.980 . S
C1591 H1593 0.981 . S
C1591 H1594 0.981 . S
H1592 C1591 0.980 . S
H1593 C1591 0.981 . S
H1594 C1591 0.981 . S
O1595 Zn1571 2.066 . S
O1595 C1574 1.256 . S
O1596 Zn1568 2.053 . S
O1596 C1574 1.244 . S
C1597 O1575 1.259 . S
C1597 O1576 1.254 . S
O1598 Zn1568 2.066 . S
O1598 C1570 1.256 . S
O1599 C1570 1.244 . S
O1599 Zn1571 2.053 . S
Zn1600 O1601 2.055 . S
Zn1600 O1608 2.046 . S
Zn1600 N1616 2.036 . S
Zn1600 O1628 2.053 . S
Zn1600 O1630 2.066 . S
O1601 Zn1600 2.055 . S
O1601 C1604 1.259 . S
C1602 O1630 1.256 . S
C1602 O1631 1.244 . S
Zn1603 O1605 2.046 . S
Zn1603 O1607 2.055 . S
Zn1603 N1609 2.036 . S
Zn1603 O1627 2.066 . S
Zn1603 O1631 2.053 . S
C1604 O1601 1.259 . S
C1604 O1605 1.254 . S
O1605 Zn1603 2.046 . S
O1605 C1604 1.254 . S
C1606 O1627 1.256 . S
C1606 O1628 1.244 . S
O1607 Zn1603 2.055 . S
O1607 C1629 1.259 . S
O1608 Zn1600 2.046 . S
O1608 C1629 1.254 . S
N1609 Zn1603 2.036 . S
N1609 C1610 1.298 . S
N1609 N1612 1.398 . S
C1610 N1609 1.298 . S
C1610 N1613 1.367 . S
C1610 C1623 1.481 . S
C1611 N1612 1.299 . S
C1611 N1613 1.379 . S
N1612 N1609 1.398 . S
N1612 C1611 1.299 . S
N1613 C1610 1.367 . S
N1613 C1611 1.379 . S
C1614 N1616 1.298 . S
C1614 N1618 1.367 . S
C1614 C1622 1.481 1_655 S
C1615 N1617 1.299 . S
C1615 N1618 1.379 . S
N1616 Zn1600 2.036 . S
N1616 C1614 1.298 . S
N1616 N1617 1.398 . S
N1617 C1615 1.299 . S
N1617 N1616 1.398 . S
N1618 C1614 1.367 . S
N1618 C1615 1.379 . S
H1619 C1622 0.980 . S
H1620 C1622 0.981 . S
H1621 C1622 0.981 . S
C1622 C1614 1.481 1_455 S
C1622 H1619 0.980 . S
C1622 H1620 0.981 . S
C1622 H1621 0.981 . S
C1623 C1610 1.481 . S
C1623 H1624 0.980 . S
C1623 H1625 0.981 . S
C1623 H1626 0.981 . S
H1624 C1623 0.980 . S
H1625 C1623 0.981 . S
H1626 C1623 0.981 . S
O1627 Zn1603 2.066 . S
O1627 C1606 1.256 . S
O1628 Zn1600 2.053 . S
O1628 C1606 1.244 . S
C1629 O1607 1.259 . S
C1629 O1608 1.254 . S
O1630 Zn1600 2.066 . S
O1630 C1602 1.256 . S
O1631 C1602 1.244 . S
O1631 Zn1603 2.053 . S
Zn1632 O1633 2.055 . S
Zn1632 O1640 2.046 . S
Zn1632 N1648 2.036 . S
Zn1632 O1660 2.053 . S
Zn1632 O1662 2.066 . S
O1633 Zn1632 2.055 . S
O1633 C1636 1.259 . S
C1634 O1662 1.256 . S
C1634 O1663 1.244 . S
Zn1635 O1637 2.046 . S
Zn1635 O1639 2.055 . S
Zn1635 N1641 2.036 . S
Zn1635 O1659 2.066 . S
Zn1635 O1663 2.053 . S
C1636 O1633 1.259 . S
C1636 O1637 1.254 . S
O1637 Zn1635 2.046 . S
O1637 C1636 1.254 . S
C1638 O1659 1.256 . S
C1638 O1660 1.244 . S
O1639 Zn1635 2.055 . S
O1639 C1661 1.259 . S
O1640 Zn1632 2.046 . S
O1640 C1661 1.254 . S
N1641 Zn1635 2.036 . S
N1641 C1642 1.298 . S
N1641 N1644 1.398 . S
C1642 N1641 1.298 . S
C1642 N1645 1.367 . S
C1642 C1655 1.481 . S
C1643 N1644 1.299 . S
C1643 N1645 1.379 . S
N1644 N1641 1.398 . S
N1644 C1643 1.299 . S
N1645 C1642 1.367 . S
N1645 C1643 1.379 . S
C1646 N1648 1.298 . S
C1646 N1650 1.367 . S
C1646 C1654 1.481 . S
C1647 N1649 1.299 . S
C1647 N1650 1.379 . S
N1648 Zn1632 2.036 . S
N1648 C1646 1.298 . S
N1648 N1649 1.398 . S
N1649 C1647 1.299 . S
N1649 N1648 1.398 . S
N1650 C1646 1.367 . S
N1650 C1647 1.379 . S
H1651 C1654 0.980 . S
H1652 C1654 0.981 . S
H1653 C1654 0.981 . S
C1654 C1646 1.481 . S
C1654 H1651 0.980 . S
C1654 H1652 0.981 . S
C1654 H1653 0.981 . S
C1655 C1642 1.481 . S
C1655 H1656 0.980 . S
C1655 H1657 0.981 . S
C1655 H1658 0.981 . S
H1656 C1655 0.980 . S
H1657 C1655 0.981 . S
H1658 C1655 0.981 . S
O1659 Zn1635 2.066 . S
O1659 C1638 1.256 . S
O1660 Zn1632 2.053 . S
O1660 C1638 1.244 . S
C1661 O1639 1.259 . S
C1661 O1640 1.254 . S
O1662 Zn1632 2.066 . S
O1662 C1634 1.256 . S
O1663 C1634 1.244 . S
O1663 Zn1635 2.053 . S
Zn1664 O1665 2.055 . S
Zn1664 O1672 2.046 . S
Zn1664 N1680 2.036 . S
Zn1664 O1692 2.053 . S
Zn1664 O1694 2.066 . S
O1665 Zn1664 2.055 . S
O1665 C1668 1.259 . S
C1666 O1694 1.256 . S
C1666 O1695 1.244 . S
Zn1667 O1669 2.046 . S
Zn1667 O1671 2.055 . S
Zn1667 N1673 2.036 . S
Zn1667 O1691 2.066 . S
Zn1667 O1695 2.053 . S
C1668 O1665 1.259 . S
C1668 O1669 1.254 . S
O1669 Zn1667 2.046 . S
O1669 C1668 1.254 . S
C1670 O1691 1.256 . S
C1670 O1692 1.244 . S
O1671 Zn1667 2.055 . S
O1671 C1693 1.259 . S
O1672 Zn1664 2.046 . S
O1672 C1693 1.254 . S
N1673 Zn1667 2.036 . S
N1673 C1674 1.298 . S
N1673 N1676 1.398 . S
C1674 N1673 1.298 . S
C1674 N1677 1.367 . S
C1674 C1687 1.481 . S
C1675 N1676 1.299 . S
C1675 N1677 1.379 . S
N1676 N1673 1.398 . S
N1676 C1675 1.299 . S
N1677 C1674 1.367 . S
N1677 C1675 1.379 . S
C1678 N1680 1.298 . S
C1678 N1682 1.367 . S
C1678 C1686 1.481 . S
C1679 N1681 1.299 . S
C1679 N1682 1.379 . S
N1680 Zn1664 2.036 . S
N1680 C1678 1.298 . S
N1680 N1681 1.398 . S
N1681 C1679 1.299 . S
N1681 N1680 1.398 . S
N1682 C1678 1.367 . S
N1682 C1679 1.379 . S
H1683 C1686 0.980 . S
H1684 C1686 0.981 . S
H1685 C1686 0.981 . S
C1686 C1678 1.481 . S
C1686 H1683 0.980 . S
C1686 H1684 0.981 . S
C1686 H1685 0.981 . S
C1687 C1674 1.481 . S
C1687 H1688 0.980 . S
C1687 H1689 0.981 . S
C1687 H1690 0.981 . S
H1688 C1687 0.980 . S
H1689 C1687 0.981 . S
H1690 C1687 0.981 . S
O1691 Zn1667 2.066 . S
O1691 C1670 1.256 . S
O1692 Zn1664 2.053 . S
O1692 C1670 1.244 . S
C1693 O1671 1.259 . S
C1693 O1672 1.254 . S
O1694 Zn1664 2.066 . S
O1694 C1666 1.256 . S
O1695 C1666 1.244 . S
O1695 Zn1667 2.053 . S
Zn1696 O1697 2.055 . S
Zn1696 O1704 2.046 . S
Zn1696 N1712 2.036 . S
Zn1696 O1724 2.053 . S
Zn1696 O1726 2.066 . S
O1697 Zn1696 2.055 . S
O1697 C1700 1.259 . S
C1698 O1726 1.256 . S
C1698 O1727 1.244 . S
Zn1699 O1701 2.046 . S
Zn1699 O1703 2.055 . S
Zn1699 N1705 2.036 . S
Zn1699 O1723 2.066 . S
Zn1699 O1727 2.053 . S
C1700 O1697 1.259 . S
C1700 O1701 1.254 . S
O1701 Zn1699 2.046 . S
O1701 C1700 1.254 . S
C1702 O1723 1.256 . S
C1702 O1724 1.244 . S
O1703 Zn1699 2.055 . S
O1703 C1725 1.259 . S
O1704 Zn1696 2.046 . S
O1704 C1725 1.254 . S
N1705 Zn1699 2.036 . S
N1705 C1706 1.298 . S
N1705 N1708 1.398 . S
C1706 N1705 1.298 . S
C1706 N1709 1.367 1_556 S
C1706 C1719 1.481 . S
C1707 N1708 1.299 1_554 S
C1707 N1709 1.379 . S
N1708 N1705 1.398 . S
N1708 C1707 1.299 1_556 S
N1709 C1706 1.367 1_554 S
N1709 C1707 1.379 . S
C1710 N1712 1.298 . S
C1710 N1714 1.367 . S
C1710 C1718 1.481 . S
C1711 N1713 1.299 . S
C1711 N1714 1.379 . S
N1712 Zn1696 2.036 . S
N1712 C1710 1.298 . S
N1712 N1713 1.398 . S
N1713 C1711 1.299 . S
N1713 N1712 1.398 . S
N1714 C1710 1.367 . S
N1714 C1711 1.379 . S
H1715 C1718 0.980 . S
H1716 C1718 0.981 . S
H1717 C1718 0.981 . S
C1718 C1710 1.481 . S
C1718 H1715 0.980 . S
C1718 H1716 0.981 . S
C1718 H1717 0.981 . S
C1719 C1706 1.481 . S
C1719 H1720 0.980 . S
C1719 H1721 0.981 . S
C1719 H1722 0.981 . S
H1720 C1719 0.980 . S
H1721 C1719 0.981 . S
H1722 C1719 0.981 . S
O1723 Zn1699 2.066 . S
O1723 C1702 1.256 . S
O1724 Zn1696 2.053 . S
O1724 C1702 1.244 . S
C1725 O1703 1.259 . S
C1725 O1704 1.254 . S
O1726 Zn1696 2.066 . S
O1726 C1698 1.256 . S
O1727 C1698 1.244 . S
O1727 Zn1699 2.053 . S
Zn1728 O1729 2.055 . S
Zn1728 O1736 2.046 . S
Zn1728 N1744 2.036 . S
Zn1728 O1756 2.053 . S
Zn1728 O1758 2.066 . S
O1729 Zn1728 2.055 . S
O1729 C1732 1.259 . S
C1730 O1758 1.256 . S
C1730 O1759 1.244 . S
Zn1731 O1733 2.046 . S
Zn1731 O1735 2.055 . S
Zn1731 N1737 2.036 . S
Zn1731 O1755 2.066 . S
Zn1731 O1759 2.053 . S
C1732 O1729 1.259 . S
C1732 O1733 1.254 . S
O1733 Zn1731 2.046 . S
O1733 C1732 1.254 . S
C1734 O1755 1.256 . S
C1734 O1756 1.244 . S
O1735 Zn1731 2.055 . S
O1735 C1757 1.259 . S
O1736 Zn1728 2.046 . S
O1736 C1757 1.254 . S
N1737 Zn1731 2.036 . S
N1737 C1738 1.298 . S
N1737 N1740 1.398 . S
C1738 N1737 1.298 . S
C1738 N1741 1.367 . S
C1738 C1751 1.481 1_655 S
C1739 N1740 1.299 . S
C1739 N1741 1.379 . S
N1740 N1737 1.398 . S
N1740 C1739 1.299 . S
N1741 C1738 1.367 . S
N1741 C1739 1.379 . S
C1742 N1744 1.298 . S
C1742 N1746 1.357 1_554 S
C1742 C1750 1.481 . S
C1743 N1745 1.301 1_556 S
C1743 N1746 1.379 . S
N1744 Zn1728 2.036 . S
N1744 C1742 1.298 . S
N1744 N1745 1.398 . S
N1745 C1743 1.301 1_554 S
N1745 N1744 1.398 . S
N1746 C1742 1.357 1_556 S
N1746 C1743 1.379 . S
H1747 C1750 0.980 . S
H1748 C1750 0.981 . S
H1749 C1750 0.981 . S
C1750 C1742 1.481 . S
C1750 H1747 0.980 . S
C1750 H1748 0.981 . S
C1750 H1749 0.981 . S
C1751 C1738 1.481 1_455 S
C1751 H1752 0.980 . S
C1751 H1753 0.981 . S
C1751 H1754 0.981 . S
H1752 C1751 0.980 . S
H1753 C1751 0.981 . S
H1754 C1751 0.981 . S
O1755 Zn1731 2.066 . S
O1755 C1734 1.256 . S
O1756 Zn1728 2.053 . S
O1756 C1734 1.244 . S
C1757 O1735 1.259 . S
C1757 O1736 1.254 . S
O1758 Zn1728 2.066 . S
O1758 C1730 1.256 . S
O1759 C1730 1.244 . S
O1759 Zn1731 2.053 . S
Zn1760 O1761 2.055 . S
Zn1760 O1768 2.046 . S
Zn1760 N1776 2.036 . S
Zn1760 O1788 2.053 . S
Zn1760 O1790 2.066 . S
O1761 Zn1760 2.055 . S
O1761 C1764 1.259 . S
C1762 O1790 1.256 . S
C1762 O1791 1.244 . S
Zn1763 O1765 2.046 . S
Zn1763 O1767 2.055 . S
Zn1763 N1769 2.036 . S
Zn1763 O1787 2.066 . S
Zn1763 O1791 2.053 . S
C1764 O1761 1.259 . S
C1764 O1765 1.254 . S
O1765 Zn1763 2.046 . S
O1765 C1764 1.254 . S
C1766 O1787 1.256 . S
C1766 O1788 1.244 . S
O1767 Zn1763 2.055 . S
O1767 C1789 1.259 . S
O1768 Zn1760 2.046 . S
O1768 C1789 1.254 . S
N1769 Zn1763 2.036 . S
N1769 C1770 1.298 . S
N1769 N1772 1.398 . S
C1770 N1769 1.298 . S
C1770 N1773 1.367 . S
C1770 C1783 1.481 . S
C1771 N1772 1.299 . S
C1771 N1773 1.379 . S
N1772 N1769 1.398 . S
N1772 C1771 1.299 . S
N1773 C1770 1.367 . S
N1773 C1771 1.379 . S
C1774 N1776 1.298 . S
C1774 N1778 1.367 . S
C1774 C1782 1.481 . S
C1775 N1777 1.299 . S
C1775 N1778 1.379 . S
N1776 Zn1760 2.036 . S
N1776 C1774 1.298 . S
N1776 N1777 1.398 . S
N1777 C1775 1.299 . S
N1777 N1776 1.398 . S
N1778 C1774 1.367 . S
N1778 C1775 1.379 . S
H1779 C1782 0.980 . S
H1780 C1782 0.981 . S
H1781 C1782 0.981 . S
C1782 C1774 1.481 . S
C1782 H1779 0.980 . S
C1782 H1780 0.981 . S
C1782 H1781 0.981 . S
C1783 C1770 1.481 . S
C1783 H1784 0.980 . S
C1783 H1785 0.981 . S
C1783 H1786 0.981 . S
H1784 C1783 0.980 . S
H1785 C1783 0.981 . S
H1786 C1783 0.981 . S
O1787 Zn1763 2.066 . S
O1787 C1766 1.256 . S
O1788 Zn1760 2.053 . S
O1788 C1766 1.244 . S
C1789 O1767 1.259 . S
C1789 O1768 1.254 . S
O1790 Zn1760 2.066 . S
O1790 C1762 1.256 . S
O1791 C1762 1.244 . S
O1791 Zn1763 2.053 . S
Zn1792 O1793 2.055 . S
Zn1792 O1800 2.046 . S
Zn1792 N1808 2.036 . S
Zn1792 O1820 2.053 . S
Zn1792 O1822 2.066 . S
O1793 Zn1792 2.055 . S
O1793 C1796 1.259 . S
C1794 O1822 1.256 . S
C1794 O1823 1.244 . S
Zn1795 O1797 2.046 . S
Zn1795 O1799 2.055 . S
Zn1795 N1801 2.036 . S
Zn1795 O1819 2.066 . S
Zn1795 O1823 2.053 . S
C1796 O1793 1.259 . S
C1796 O1797 1.254 . S
O1797 Zn1795 2.046 . S
O1797 C1796 1.254 . S
C1798 O1819 1.256 . S
C1798 O1820 1.244 . S
O1799 Zn1795 2.055 . S
O1799 C1821 1.259 . S
O1800 Zn1792 2.046 . S
O1800 C1821 1.254 . S
N1801 Zn1795 2.036 . S
N1801 C1802 1.298 . S
N1801 N1804 1.398 . S
C1802 N1801 1.298 . S
C1802 N1805 1.357 1_655 S
C1802 C1815 1.481 . S
C1803 N1804 1.301 1_455 S
C1803 N1805 1.379 . S
N1804 N1801 1.398 . S
N1804 C1803 1.301 1_655 S
N1805 C1802 1.357 1_455 S
N1805 C1803 1.379 . S
C1806 N1808 1.298 . S
C1806 N1810 1.367 . S
C1806 C1814 1.481 . S
C1807 N1809 1.299 . S
C1807 N1810 1.379 . S
N1808 Zn1792 2.036 . S
N1808 C1806 1.298 . S
N1808 N1809 1.398 . S
N1809 C1807 1.299 . S
N1809 N1808 1.398 . S
N1810 C1806 1.367 . S
N1810 C1807 1.379 . S
H1811 C1814 0.980 . S
H1812 C1814 0.981 . S
H1813 C1814 0.981 . S
C1814 C1806 1.481 . S
C1814 H1811 0.980 . S
C1814 H1812 0.981 . S
C1814 H1813 0.981 . S
C1815 C1802 1.481 . S
C1815 H1816 0.980 . S
C1815 H1817 0.981 . S
C1815 H1818 0.981 . S
H1816 C1815 0.980 . S
H1817 C1815 0.981 . S
H1818 C1815 0.981 . S
O1819 Zn1795 2.066 . S
O1819 C1798 1.256 . S
O1820 Zn1792 2.053 . S
O1820 C1798 1.244 . S
C1821 O1799 1.259 . S
C1821 O1800 1.254 . S
O1822 Zn1792 2.066 . S
O1822 C1794 1.256 . S
O1823 C1794 1.244 . S
O1823 Zn1795 2.053 . S
Zn1824 O1825 2.055 . S
Zn1824 O1832 2.046 . S
Zn1824 N1840 2.036 . S
Zn1824 O1852 2.053 . S
Zn1824 O1854 2.066 . S
O1825 Zn1824 2.055 . S
O1825 C1828 1.259 . S
C1826 O1854 1.256 . S
C1826 O1855 1.244 . S
Zn1827 O1829 2.046 . S
Zn1827 O1831 2.055 . S
Zn1827 N1833 2.036 . S
Zn1827 O1851 2.066 . S
Zn1827 O1855 2.053 . S
C1828 O1825 1.259 . S
C1828 O1829 1.254 . S
O1829 Zn1827 2.046 . S
O1829 C1828 1.254 . S
C1830 O1851 1.256 . S
C1830 O1852 1.244 . S
O1831 Zn1827 2.055 . S
O1831 C1853 1.259 . S
O1832 Zn1824 2.046 . S
O1832 C1853 1.254 . S
N1833 Zn1827 2.036 . S
N1833 C1834 1.298 . S
N1833 N1836 1.398 . S
C1834 N1833 1.298 . S
C1834 N1837 1.367 . S
C1834 C1847 1.481 . S
C1835 N1836 1.299 . S
C1835 N1837 1.379 . S
N1836 N1833 1.398 . S
N1836 C1835 1.299 . S
N1837 C1834 1.367 . S
N1837 C1835 1.379 . S
C1838 N1840 1.298 . S
C1838 N1842 1.367 . S
C1838 C1846 1.481 . S
C1839 N1841 1.299 . S
C1839 N1842 1.379 . S
N1840 Zn1824 2.036 . S
N1840 C1838 1.298 . S
N1840 N1841 1.398 . S
N1841 C1839 1.299 . S
N1841 N1840 1.398 . S
N1842 C1838 1.367 . S
N1842 C1839 1.379 . S
H1843 C1846 0.980 . S
H1844 C1846 0.981 . S
H1845 C1846 0.981 . S
C1846 C1838 1.481 . S
C1846 H1843 0.980 . S
C1846 H1844 0.981 . S
C1846 H1845 0.981 . S
C1847 C1834 1.481 . S
C1847 H1848 0.980 . S
C1847 H1849 0.981 . S
C1847 H1850 0.981 . S
H1848 C1847 0.980 . S
H1849 C1847 0.981 . S
H1850 C1847 0.981 . S
O1851 Zn1827 2.066 . S
O1851 C1830 1.256 . S
O1852 Zn1824 2.053 . S
O1852 C1830 1.244 . S
C1853 O1831 1.259 . S
C1853 O1832 1.254 . S
O1854 Zn1824 2.066 . S
O1854 C1826 1.256 . S
O1855 C1826 1.244 . S
O1855 Zn1827 2.053 . S
Zn1856 O1857 2.055 . S
Zn1856 O1864 2.046 . S
Zn1856 N1872 2.036 . S
Zn1856 O1884 2.053 . S
Zn1856 O1886 2.066 . S
O1857 Zn1856 2.055 . S
O1857 C1860 1.259 . S
C1858 O1886 1.256 . S
C1858 O1887 1.244 . S
Zn1859 O1861 2.046 . S
Zn1859 O1863 2.055 . S
Zn1859 N1865 2.036 . S
Zn1859 O1883 2.066 . S
Zn1859 O1887 2.053 . S
C1860 O1857 1.259 . S
C1860 O1861 1.254 . S
O1861 Zn1859 2.046 . S
O1861 C1860 1.254 . S
C1862 O1883 1.256 . S
C1862 O1884 1.244 . S
O1863 Zn1859 2.055 . S
O1863 C1885 1.259 . S
O1864 Zn1856 2.046 . S
O1864 C1885 1.254 . S
N1865 Zn1859 2.036 . S
N1865 C1866 1.298 . S
N1865 N1868 1.398 . S
C1866 N1865 1.298 . S
C1866 N1869 1.367 . S
C1866 C1879 1.481 . S
C1867 N1868 1.299 . S
C1867 N1869 1.379 . S
N1868 N1865 1.398 . S
N1868 C1867 1.299 . S
N1869 C1866 1.367 . S
N1869 C1867 1.379 . S
C1870 N1872 1.298 . S
C1870 N1874 1.367 . S
C1870 C1878 1.481 . S
C1871 N1873 1.299 . S
C1871 N1874 1.379 . S
N1872 Zn1856 2.036 . S
N1872 C1870 1.298 . S
N1872 N1873 1.398 . S
N1873 C1871 1.299 . S
N1873 N1872 1.398 . S
N1874 C1870 1.367 . S
N1874 C1871 1.379 . S
H1875 C1878 0.980 . S
H1876 C1878 0.981 . S
H1877 C1878 0.981 . S
C1878 C1870 1.481 . S
C1878 H1875 0.980 . S
C1878 H1876 0.981 . S
C1878 H1877 0.981 . S
C1879 C1866 1.481 . S
C1879 H1880 0.980 . S
C1879 H1881 0.981 . S
C1879 H1882 0.981 . S
H1880 C1879 0.980 . S
H1881 C1879 0.981 . S
H1882 C1879 0.981 . S
O1883 Zn1859 2.066 . S
O1883 C1862 1.256 . S
O1884 Zn1856 2.053 . S
O1884 C1862 1.244 . S
C1885 O1863 1.259 . S
C1885 O1864 1.254 . S
O1886 Zn1856 2.066 . S
O1886 C1858 1.256 . S
O1887 C1858 1.244 . S
O1887 Zn1859 2.053 . S
Zn1888 O1889 2.055 . S
Zn1888 O1896 2.046 . S
Zn1888 N1904 2.036 . S
Zn1888 O1916 2.053 . S
Zn1888 O1918 2.066 . S
O1889 Zn1888 2.055 . S
O1889 C1892 1.259 . S
C1890 O1918 1.256 . S
C1890 O1919 1.244 . S
Zn1891 O1893 2.046 . S
Zn1891 O1895 2.055 . S
Zn1891 N1897 2.036 . S
Zn1891 O1915 2.066 . S
Zn1891 O1919 2.053 . S
C1892 O1889 1.259 . S
C1892 O1893 1.254 . S
O1893 Zn1891 2.046 . S
O1893 C1892 1.254 . S
C1894 O1915 1.256 . S
C1894 O1916 1.244 . S
O1895 Zn1891 2.055 . S
O1895 C1917 1.259 . S
O1896 Zn1888 2.046 . S
O1896 C1917 1.254 . S
N1897 Zn1891 2.036 . S
N1897 C1898 1.298 . S
N1897 N1900 1.398 . S
C1898 N1897 1.298 . S
C1898 N1901 1.367 . S
C1898 C1911 1.481 . S
C1899 N1900 1.299 . S
C1899 N1901 1.379 . S
N1900 N1897 1.398 . S
N1900 C1899 1.299 . S
N1901 C1898 1.367 . S
N1901 C1899 1.379 . S
C1902 N1904 1.298 . S
C1902 N1906 1.367 . S
C1902 C1910 1.481 . S
C1903 N1905 1.299 . S
C1903 N1906 1.379 . S
N1904 Zn1888 2.036 . S
N1904 C1902 1.298 . S
N1904 N1905 1.398 . S
N1905 C1903 1.299 . S
N1905 N1904 1.398 . S
N1906 C1902 1.367 . S
N1906 C1903 1.379 . S
H1907 C1910 0.980 . S
H1908 C1910 0.981 . S
H1909 C1910 0.981 . S
C1910 C1902 1.481 . S
C1910 H1907 0.980 . S
C1910 H1908 0.981 . S
C1910 H1909 0.981 . S
C1911 C1898 1.481 . S
C1911 H1912 0.980 . S
C1911 H1913 0.981 . S
C1911 H1914 0.981 . S
H1912 C1911 0.980 . S
H1913 C1911 0.981 . S
H1914 C1911 0.981 . S
O1915 Zn1891 2.066 . S
O1915 C1894 1.256 . S
O1916 Zn1888 2.053 . S
O1916 C1894 1.244 . S
C1917 O1895 1.259 . S
C1917 O1896 1.254 . S
O1918 Zn1888 2.066 . S
O1918 C1890 1.256 . S
O1919 C1890 1.244 . S
O1919 Zn1891 2.053 . S
Zn1920 O1921 2.055 . S
Zn1920 O1928 2.046 . S
Zn1920 N1936 2.036 . S
Zn1920 O1948 2.053 . S
Zn1920 O1950 2.066 . S
O1921 Zn1920 2.055 . S
O1921 C1924 1.259 . S
C1922 O1950 1.256 . S
C1922 O1951 1.244 . S
Zn1923 O1925 2.046 . S
Zn1923 O1927 2.055 . S
Zn1923 N1929 2.036 . S
Zn1923 O1947 2.066 . S
Zn1923 O1951 2.053 . S
C1924 O1921 1.259 . S
C1924 O1925 1.254 . S
O1925 Zn1923 2.046 . S
O1925 C1924 1.254 . S
C1926 O1947 1.256 . S
C1926 O1948 1.244 . S
O1927 Zn1923 2.055 . S
O1927 C1949 1.259 . S
O1928 Zn1920 2.046 . S
O1928 C1949 1.254 . S
N1929 Zn1923 2.036 . S
N1929 C1930 1.298 . S
N1929 N1932 1.398 . S
C1930 N1929 1.298 . S
C1930 N1933 1.357 1_655 S
C1930 C1943 1.481 . S
C1931 N1932 1.301 1_455 S
C1931 N1933 1.379 . S
N1932 N1929 1.398 . S
N1932 C1931 1.301 1_655 S
N1933 C1930 1.357 1_455 S
N1933 C1931 1.379 . S
C1934 N1936 1.298 . S
C1934 N1938 1.367 . S
C1934 C1942 1.481 . S
C1935 N1937 1.299 . S
C1935 N1938 1.379 . S
N1936 Zn1920 2.036 . S
N1936 C1934 1.298 . S
N1936 N1937 1.398 . S
N1937 C1935 1.299 . S
N1937 N1936 1.398 . S
N1938 C1934 1.367 . S
N1938 C1935 1.379 . S
H1939 C1942 0.980 . S
H1940 C1942 0.981 . S
H1941 C1942 0.981 . S
C1942 C1934 1.481 . S
C1942 H1939 0.980 . S
C1942 H1940 0.981 . S
C1942 H1941 0.981 . S
C1943 C1930 1.481 . S
C1943 H1944 0.980 . S
C1943 H1945 0.981 . S
C1943 H1946 0.981 . S
H1944 C1943 0.980 . S
H1945 C1943 0.981 . S
H1946 C1943 0.981 . S
O1947 Zn1923 2.066 . S
O1947 C1926 1.256 . S
O1948 Zn1920 2.053 . S
O1948 C1926 1.244 . S
C1949 O1927 1.259 . S
C1949 O1928 1.254 . S
O1950 Zn1920 2.066 . S
O1950 C1922 1.256 . S
O1951 C1922 1.244 . S
O1951 Zn1923 2.053 . S
Zn1952 O1953 2.055 . S
Zn1952 O1960 2.046 . S
Zn1952 N1968 2.036 . S
Zn1952 O1980 2.053 . S
Zn1952 O1982 2.066 . S
O1953 Zn1952 2.055 . S
O1953 C1956 1.259 . S
C1954 O1982 1.256 . S
C1954 O1983 1.244 . S
Zn1955 O1957 2.046 . S
Zn1955 O1959 2.055 . S
Zn1955 N1961 2.036 . S
Zn1955 O1979 2.066 . S
Zn1955 O1983 2.053 . S
C1956 O1953 1.259 . S
C1956 O1957 1.254 . S
O1957 Zn1955 2.046 . S
O1957 C1956 1.254 . S
C1958 O1979 1.256 . S
C1958 O1980 1.244 . S
O1959 Zn1955 2.055 . S
O1959 C1981 1.259 . S
O1960 Zn1952 2.046 . S
O1960 C1981 1.254 . S
N1961 Zn1955 2.036 . S
N1961 C1962 1.298 . S
N1961 N1964 1.398 . S
C1962 N1961 1.298 . S
C1962 N1965 1.367 . S
C1962 C1975 1.481 . S
C1963 N1964 1.299 . S
C1963 N1965 1.379 . S
N1964 N1961 1.398 . S
N1964 C1963 1.299 . S
N1965 C1962 1.367 . S
N1965 C1963 1.379 . S
C1966 N1968 1.298 . S
C1966 N1970 1.367 . S
C1966 C1974 1.481 . S
C1967 N1969 1.299 . S
C1967 N1970 1.379 . S
N1968 Zn1952 2.036 . S
N1968 C1966 1.298 . S
N1968 N1969 1.398 . S
N1969 C1967 1.299 . S
N1969 N1968 1.398 . S
N1970 C1966 1.367 . S
N1970 C1967 1.379 . S
H1971 C1974 0.980 . S
H1972 C1974 0.981 . S
H1973 C1974 0.981 . S
C1974 C1966 1.481 . S
C1974 H1971 0.980 . S
C1974 H1972 0.981 . S
C1974 H1973 0.981 . S
C1975 C1962 1.481 . S
C1975 H1976 0.980 . S
C1975 H1977 0.981 . S
C1975 H1978 0.981 . S
H1976 C1975 0.980 . S
H1977 C1975 0.981 . S
H1978 C1975 0.981 . S
O1979 Zn1955 2.066 . S
O1979 C1958 1.256 . S
O1980 Zn1952 2.053 . S
O1980 C1958 1.244 . S
C1981 O1959 1.259 . S
C1981 O1960 1.254 . S
O1982 Zn1952 2.066 . S
O1982 C1954 1.256 . S
O1983 C1954 1.244 . S
O1983 Zn1955 2.053 . S
Zn1984 O1985 2.055 . S
Zn1984 O1992 2.046 . S
Zn1984 N2000 2.036 . S
Zn1984 O2012 2.053 . S
Zn1984 O2014 2.066 . S
O1985 Zn1984 2.055 . S
O1985 C1988 1.259 . S
C1986 O2014 1.256 . S
C1986 O2015 1.244 . S
Zn1987 O1989 2.046 . S
Zn1987 O1991 2.055 . S
Zn1987 N1993 2.036 . S
Zn1987 O2011 2.066 . S
Zn1987 O2015 2.053 . S
C1988 O1985 1.259 . S
C1988 O1989 1.254 . S
O1989 Zn1987 2.046 . S
O1989 C1988 1.254 . S
C1990 O2011 1.256 . S
C1990 O2012 1.244 . S
O1991 Zn1987 2.055 . S
O1991 C2013 1.259 . S
O1992 Zn1984 2.046 . S
O1992 C2013 1.254 . S
N1993 Zn1987 2.036 . S
N1993 C1994 1.298 . S
N1993 N1996 1.398 . S
C1994 N1993 1.298 . S
C1994 N1997 1.367 . S
C1994 C2007 1.481 . S
C1995 N1996 1.299 . S
C1995 N1997 1.379 . S
N1996 N1993 1.398 . S
N1996 C1995 1.299 . S
N1997 C1994 1.367 . S
N1997 C1995 1.379 . S
C1998 N2000 1.298 . S
C1998 N2002 1.367 . S
C1998 C2006 1.481 . S
C1999 N2001 1.299 . S
C1999 N2002 1.379 . S
N2000 Zn1984 2.036 . S
N2000 C1998 1.298 . S
N2000 N2001 1.398 . S
N2001 C1999 1.299 . S
N2001 N2000 1.398 . S
N2002 C1998 1.367 . S
N2002 C1999 1.379 . S
H2003 C2006 0.980 . S
H2004 C2006 0.981 . S
H2005 C2006 0.981 . S
C2006 C1998 1.481 . S
C2006 H2003 0.980 . S
C2006 H2004 0.981 . S
C2006 H2005 0.981 . S
C2007 C1994 1.481 . S
C2007 H2008 0.980 . S
C2007 H2009 0.981 . S
C2007 H2010 0.981 . S
H2008 C2007 0.980 . S
H2009 C2007 0.981 . S
H2010 C2007 0.981 . S
O2011 Zn1987 2.066 . S
O2011 C1990 1.256 . S
O2012 Zn1984 2.053 . S
O2012 C1990 1.244 . S
C2013 O1991 1.259 . S
C2013 O1992 1.254 . S
O2014 Zn1984 2.066 . S
O2014 C1986 1.256 . S
O2015 C1986 1.244 . S
O2015 Zn1987 2.053 . S
Zn2016 O2017 2.055 . S
Zn2016 O2024 2.046 . S
Zn2016 N2032 2.036 . S
Zn2016 O2044 2.053 . S
Zn2016 O2046 2.066 . S
O2017 Zn2016 2.055 . S
O2017 C2020 1.259 . S
C2018 O2046 1.256 . S
C2018 O2047 1.244 . S
Zn2019 O2021 2.046 . S
Zn2019 O2023 2.055 . S
Zn2019 N2025 2.036 . S
Zn2019 O2043 2.066 . S
Zn2019 O2047 2.053 . S
C2020 O2017 1.259 . S
C2020 O2021 1.254 . S
O2021 Zn2019 2.046 . S
O2021 C2020 1.254 . S
C2022 O2043 1.256 . S
C2022 O2044 1.244 . S
O2023 Zn2019 2.055 . S
O2023 C2045 1.259 . S
O2024 Zn2016 2.046 . S
O2024 C2045 1.254 . S
N2025 Zn2019 2.036 . S
N2025 C2026 1.298 . S
N2025 N2028 1.398 . S
C2026 N2025 1.298 . S
C2026 N2029 1.367 . S
C2026 C2039 1.481 . S
C2027 N2028 1.299 . S
C2027 N2029 1.379 . S
N2028 N2025 1.398 . S
N2028 C2027 1.299 . S
N2029 C2026 1.367 . S
N2029 C2027 1.379 . S
C2030 N2032 1.298 . S
C2030 N2034 1.367 . S
C2030 C2038 1.481 . S
C2031 N2033 1.299 . S
C2031 N2034 1.379 . S
N2032 Zn2016 2.036 . S
N2032 C2030 1.298 . S
N2032 N2033 1.398 . S
N2033 C2031 1.299 . S
N2033 N2032 1.398 . S
N2034 C2030 1.367 . S
N2034 C2031 1.379 . S
H2035 C2038 0.980 . S
H2036 C2038 0.981 . S
H2037 C2038 0.981 . S
C2038 C2030 1.481 . S
C2038 H2035 0.980 . S
C2038 H2036 0.981 . S
C2038 H2037 0.981 . S
C2039 C2026 1.481 . S
C2039 H2040 0.980 . S
C2039 H2041 0.981 . S
C2039 H2042 0.981 . S
H2040 C2039 0.980 . S
H2041 C2039 0.981 . S
H2042 C2039 0.981 . S
O2043 Zn2019 2.066 . S
O2043 C2022 1.256 . S
O2044 Zn2016 2.053 . S
O2044 C2022 1.244 . S
C2045 O2023 1.259 . S
C2045 O2024 1.254 . S
O2046 Zn2016 2.066 . S
O2046 C2018 1.256 . S
O2047 C2018 1.244 . S
O2047 Zn2019 2.053 . S
Zn2048 O2049 2.055 . S
Zn2048 O2056 2.046 . S
Zn2048 N2064 2.036 . S
Zn2048 O2076 2.053 . S
Zn2048 O2078 2.066 . S
O2049 Zn2048 2.055 . S
O2049 C2052 1.259 . S
C2050 O2078 1.256 . S
C2050 O2079 1.244 . S
Zn2051 O2053 2.046 . S
Zn2051 O2055 2.055 . S
Zn2051 N2057 2.036 . S
Zn2051 O2075 2.066 . S
Zn2051 O2079 2.053 . S
C2052 O2049 1.259 . S
C2052 O2053 1.254 . S
O2053 Zn2051 2.046 . S
O2053 C2052 1.254 . S
C2054 O2075 1.256 . S
C2054 O2076 1.244 . S
O2055 Zn2051 2.055 . S
O2055 C2077 1.259 . S
O2056 Zn2048 2.046 . S
O2056 C2077 1.254 . S
N2057 Zn2051 2.036 . S
N2057 C2058 1.298 . S
N2057 N2060 1.398 . S
C2058 N2057 1.298 . S
C2058 N2061 1.367 . S
C2058 C2071 1.481 . S
C2059 N2060 1.299 . S
C2059 N2061 1.379 . S
N2060 N2057 1.398 . S
N2060 C2059 1.299 . S
N2061 C2058 1.367 . S
N2061 C2059 1.379 . S
C2062 N2064 1.298 . S
C2062 N2066 1.357 1_565 S
C2062 C2070 1.481 . S
C2063 N2065 1.301 1_545 S
C2063 N2066 1.379 . S
N2064 Zn2048 2.036 . S
N2064 C2062 1.298 . S
N2064 N2065 1.398 . S
N2065 C2063 1.301 1_565 S
N2065 N2064 1.398 . S
N2066 C2062 1.357 1_545 S
N2066 C2063 1.379 . S
H2067 C2070 0.980 . S
H2068 C2070 0.981 . S
H2069 C2070 0.981 . S
C2070 C2062 1.481 . S
C2070 H2067 0.980 . S
C2070 H2068 0.981 . S
C2070 H2069 0.981 . S
C2071 C2058 1.481 . S
C2071 H2072 0.980 . S
C2071 H2073 0.981 . S
C2071 H2074 0.981 . S
H2072 C2071 0.980 . S
H2073 C2071 0.981 . S
H2074 C2071 0.981 . S
O2075 Zn2051 2.066 . S
O2075 C2054 1.256 . S
O2076 Zn2048 2.053 . S
O2076 C2054 1.244 . S
C2077 O2055 1.259 . S
C2077 O2056 1.254 . S
O2078 Zn2048 2.066 . S
O2078 C2050 1.256 . S
O2079 C2050 1.244 . S
O2079 Zn2051 2.053 . S
Zn2080 O2081 2.055 . S
Zn2080 O2088 2.046 . S
Zn2080 N2096 2.036 . S
Zn2080 O2108 2.053 . S
Zn2080 O2110 2.066 . S
O2081 Zn2080 2.055 . S
O2081 C2084 1.259 . S
C2082 O2110 1.256 . S
C2082 O2111 1.244 . S
Zn2083 O2085 2.046 . S
Zn2083 O2087 2.055 . S
Zn2083 N2089 2.036 . S
Zn2083 O2107 2.066 . S
Zn2083 O2111 2.053 . S
C2084 O2081 1.259 . S
C2084 O2085 1.254 . S
O2085 Zn2083 2.046 . S
O2085 C2084 1.254 . S
C2086 O2107 1.256 . S
C2086 O2108 1.244 . S
O2087 Zn2083 2.055 . S
O2087 C2109 1.259 . S
O2088 Zn2080 2.046 . S
O2088 C2109 1.254 . S
N2089 Zn2083 2.036 . S
N2089 C2090 1.298 . S
N2089 N2092 1.398 . S
C2090 N2089 1.298 . S
C2090 N2093 1.367 . S
C2090 C2103 1.481 . S
C2091 N2092 1.299 . S
C2091 N2093 1.379 . S
N2092 N2089 1.398 . S
N2092 C2091 1.299 . S
N2093 C2090 1.367 . S
N2093 C2091 1.379 . S
C2094 N2096 1.298 . S
C2094 N2098 1.367 . S
C2094 C2102 1.481 . S
C2095 N2097 1.299 . S
C2095 N2098 1.379 . S
N2096 Zn2080 2.036 . S
N2096 C2094 1.298 . S
N2096 N2097 1.398 . S
N2097 C2095 1.299 . S
N2097 N2096 1.398 . S
N2098 C2094 1.367 . S
N2098 C2095 1.379 . S
H2099 C2102 0.980 . S
H2100 C2102 0.981 . S
H2101 C2102 0.981 . S
C2102 C2094 1.481 . S
C2102 H2099 0.980 . S
C2102 H2100 0.981 . S
C2102 H2101 0.981 . S
C2103 C2090 1.481 . S
C2103 H2104 0.980 . S
C2103 H2105 0.981 . S
C2103 H2106 0.981 . S
H2104 C2103 0.980 . S
H2105 C2103 0.981 . S
H2106 C2103 0.981 . S
O2107 Zn2083 2.066 . S
O2107 C2086 1.256 . S
O2108 Zn2080 2.053 . S
O2108 C2086 1.244 . S
C2109 O2087 1.259 . S
C2109 O2088 1.254 . S
O2110 Zn2080 2.066 . S
O2110 C2082 1.256 . S
O2111 C2082 1.244 . S
O2111 Zn2083 2.053 . S
Zn2112 O2113 2.055 . S
Zn2112 O2120 2.046 . S
Zn2112 N2128 2.036 . S
Zn2112 O2140 2.053 . S
Zn2112 O2142 2.066 . S
O2113 Zn2112 2.055 . S
O2113 C2116 1.259 . S
C2114 O2142 1.256 . S
C2114 O2143 1.244 . S
Zn2115 O2117 2.046 . S
Zn2115 O2119 2.055 . S
Zn2115 N2121 2.036 . S
Zn2115 O2139 2.066 . S
Zn2115 O2143 2.053 . S
C2116 O2113 1.259 . S
C2116 O2117 1.254 . S
O2117 Zn2115 2.046 . S
O2117 C2116 1.254 . S
C2118 O2139 1.256 . S
C2118 O2140 1.244 . S
O2119 Zn2115 2.055 . S
O2119 C2141 1.259 . S
O2120 Zn2112 2.046 . S
O2120 C2141 1.254 . S
N2121 Zn2115 2.036 . S
N2121 C2122 1.298 . S
N2121 N2124 1.398 . S
C2122 N2121 1.298 . S
C2122 N2125 1.367 . S
C2122 C2135 1.481 . S
C2123 N2124 1.299 . S
C2123 N2125 1.379 . S
N2124 N2121 1.398 . S
N2124 C2123 1.299 . S
N2125 C2122 1.367 . S
N2125 C2123 1.379 . S
C2126 N2128 1.298 . S
C2126 N2130 1.367 . S
C2126 C2134 1.481 . S
C2127 N2129 1.299 . S
C2127 N2130 1.379 . S
N2128 Zn2112 2.036 . S
N2128 C2126 1.298 . S
N2128 N2129 1.398 . S
N2129 C2127 1.299 . S
N2129 N2128 1.398 . S
N2130 C2126 1.367 . S
N2130 C2127 1.379 . S
H2131 C2134 0.980 . S
H2132 C2134 0.981 . S
H2133 C2134 0.981 . S
C2134 C2126 1.481 . S
C2134 H2131 0.980 . S
C2134 H2132 0.981 . S
C2134 H2133 0.981 . S
C2135 C2122 1.481 . S
C2135 H2136 0.980 . S
C2135 H2137 0.981 . S
C2135 H2138 0.981 . S
H2136 C2135 0.980 . S
H2137 C2135 0.981 . S
H2138 C2135 0.981 . S
O2139 Zn2115 2.066 . S
O2139 C2118 1.256 . S
O2140 Zn2112 2.053 . S
O2140 C2118 1.244 . S
C2141 O2119 1.259 . S
C2141 O2120 1.254 . S
O2142 Zn2112 2.066 . S
O2142 C2114 1.256 . S
O2143 C2114 1.244 . S
O2143 Zn2115 2.053 . S
Zn2144 O2145 2.055 . S
Zn2144 O2152 2.046 . S
Zn2144 N2160 2.036 . S
Zn2144 O2172 2.053 . S
Zn2144 O2174 2.066 . S
O2145 Zn2144 2.055 . S
O2145 C2148 1.259 . S
C2146 O2174 1.256 . S
C2146 O2175 1.244 . S
Zn2147 O2149 2.046 . S
Zn2147 O2151 2.055 . S
Zn2147 N2153 2.036 . S
Zn2147 O2171 2.066 . S
Zn2147 O2175 2.053 . S
C2148 O2145 1.259 . S
C2148 O2149 1.254 . S
O2149 Zn2147 2.046 . S
O2149 C2148 1.254 . S
C2150 O2171 1.256 . S
C2150 O2172 1.244 . S
O2151 Zn2147 2.055 . S
O2151 C2173 1.259 . S
O2152 Zn2144 2.046 . S
O2152 C2173 1.254 . S
N2153 Zn2147 2.036 . S
N2153 C2154 1.298 . S
N2153 N2156 1.398 . S
C2154 N2153 1.298 . S
C2154 N2157 1.367 . S
C2154 C2167 1.481 1_556 S
C2155 N2156 1.299 . S
C2155 N2157 1.379 . S
N2156 N2153 1.398 . S
N2156 C2155 1.299 . S
N2157 C2154 1.367 . S
N2157 C2155 1.379 . S
C2158 N2160 1.298 . S
C2158 N2162 1.367 . S
C2158 C2166 1.481 . S
C2159 N2161 1.299 . S
C2159 N2162 1.379 . S
N2160 Zn2144 2.036 . S
N2160 C2158 1.298 . S
N2160 N2161 1.398 . S
N2161 C2159 1.299 . S
N2161 N2160 1.398 . S
N2162 C2158 1.367 . S
N2162 C2159 1.379 . S
H2163 C2166 0.980 . S
H2164 C2166 0.981 . S
H2165 C2166 0.981 . S
C2166 C2158 1.481 . S
C2166 H2163 0.980 . S
C2166 H2164 0.981 . S
C2166 H2165 0.981 . S
C2167 C2154 1.481 1_554 S
C2167 H2168 0.980 . S
C2167 H2169 0.981 . S
C2167 H2170 0.981 . S
H2168 C2167 0.980 . S
H2169 C2167 0.981 . S
H2170 C2167 0.981 . S
O2171 Zn2147 2.066 . S
O2171 C2150 1.256 . S
O2172 Zn2144 2.053 . S
O2172 C2150 1.244 . S
C2173 O2151 1.259 . S
C2173 O2152 1.254 . S
O2174 Zn2144 2.066 . S
O2174 C2146 1.256 . S
O2175 C2146 1.244 . S
O2175 Zn2147 2.053 . S
Zn2176 O2177 2.055 . S
Zn2176 O2184 2.046 . S
Zn2176 N2192 2.036 . S
Zn2176 O2204 2.053 . S
Zn2176 O2206 2.066 . S
O2177 Zn2176 2.055 . S
O2177 C2180 1.259 . S
C2178 O2206 1.256 . S
C2178 O2207 1.244 . S
Zn2179 O2181 2.046 . S
Zn2179 O2183 2.055 . S
Zn2179 N2185 2.036 . S
Zn2179 O2203 2.066 . S
Zn2179 O2207 2.053 . S
C2180 O2177 1.259 . S
C2180 O2181 1.254 . S
O2181 Zn2179 2.046 . S
O2181 C2180 1.254 . S
C2182 O2203 1.256 . S
C2182 O2204 1.244 . S
O2183 Zn2179 2.055 . S
O2183 C2205 1.259 . S
O2184 Zn2176 2.046 . S
O2184 C2205 1.254 . S
N2185 Zn2179 2.036 . S
N2185 C2186 1.298 . S
N2185 N2188 1.398 . S
C2186 N2185 1.298 . S
C2186 N2189 1.367 . S
C2186 C2199 1.481 . S
C2187 N2188 1.299 . S
C2187 N2189 1.379 . S
N2188 N2185 1.398 . S
N2188 C2187 1.299 . S
N2189 C2186 1.367 . S
N2189 C2187 1.379 . S
C2190 N2192 1.298 . S
C2190 N2194 1.367 . S
C2190 C2198 1.481 . S
C2191 N2193 1.299 . S
C2191 N2194 1.379 . S
N2192 Zn2176 2.036 . S
N2192 C2190 1.298 . S
N2192 N2193 1.398 . S
N2193 C2191 1.299 . S
N2193 N2192 1.398 . S
N2194 C2190 1.367 . S
N2194 C2191 1.379 . S
H2195 C2198 0.980 . S
H2196 C2198 0.981 . S
H2197 C2198 0.981 . S
C2198 C2190 1.481 . S
C2198 H2195 0.980 . S
C2198 H2196 0.981 . S
C2198 H2197 0.981 . S
C2199 C2186 1.481 . S
C2199 H2200 0.980 . S
C2199 H2201 0.981 . S
C2199 H2202 0.981 . S
H2200 C2199 0.980 . S
H2201 C2199 0.981 . S
H2202 C2199 0.981 . S
O2203 Zn2179 2.066 . S
O2203 C2182 1.256 . S
O2204 Zn2176 2.053 . S
O2204 C2182 1.244 . S
C2205 O2183 1.259 . S
C2205 O2184 1.254 . S
O2206 Zn2176 2.066 . S
O2206 C2178 1.256 . S
O2207 C2178 1.244 . S
O2207 Zn2179 2.053 . S
Zn2208 O2209 2.055 . S
Zn2208 O2216 2.046 . S
Zn2208 N2224 2.036 . S
Zn2208 O2236 2.053 . S
Zn2208 O2238 2.066 . S
O2209 Zn2208 2.055 . S
O2209 C2212 1.259 . S
C2210 O2238 1.256 . S
C2210 O2239 1.244 . S
Zn2211 O2213 2.046 . S
Zn2211 O2215 2.055 . S
Zn2211 N2217 2.036 . S
Zn2211 O2235 2.066 . S
Zn2211 O2239 2.053 . S
C2212 O2209 1.259 . S
C2212 O2213 1.254 . S
O2213 Zn2211 2.046 . S
O2213 C2212 1.254 . S
C2214 O2235 1.256 . S
C2214 O2236 1.244 . S
O2215 Zn2211 2.055 . S
O2215 C2237 1.259 . S
O2216 Zn2208 2.046 . S
O2216 C2237 1.254 . S
N2217 Zn2211 2.036 . S
N2217 C2218 1.298 . S
N2217 N2220 1.398 . S
C2218 N2217 1.298 . S
C2218 N2221 1.367 . S
C2218 C2231 1.481 1_554 S
C2219 N2220 1.299 . S
C2219 N2221 1.379 . S
N2220 N2217 1.398 . S
N2220 C2219 1.299 . S
N2221 C2218 1.367 . S
N2221 C2219 1.379 . S
C2222 N2224 1.298 . S
C2222 N2226 1.357 1_545 S
C2222 C2230 1.481 . S
C2223 N2225 1.301 1_565 S
C2223 N2226 1.379 . S
N2224 Zn2208 2.036 . S
N2224 C2222 1.298 . S
N2224 N2225 1.398 . S
N2225 C2223 1.301 1_545 S
N2225 N2224 1.398 . S
N2226 C2222 1.357 1_565 S
N2226 C2223 1.379 . S
H2227 C2230 0.980 . S
H2228 C2230 0.981 . S
H2229 C2230 0.981 . S
C2230 C2222 1.481 . S
C2230 H2227 0.980 . S
C2230 H2228 0.981 . S
C2230 H2229 0.981 . S
C2231 C2218 1.481 1_556 S
C2231 H2232 0.980 . S
C2231 H2233 0.981 . S
C2231 H2234 0.981 . S
H2232 C2231 0.980 . S
H2233 C2231 0.981 . S
H2234 C2231 0.981 . S
O2235 Zn2211 2.066 . S
O2235 C2214 1.256 . S
O2236 Zn2208 2.053 . S
O2236 C2214 1.244 . S
C2237 O2215 1.259 . S
C2237 O2216 1.254 . S
O2238 Zn2208 2.066 . S
O2238 C2210 1.256 . S
O2239 C2210 1.244 . S
O2239 Zn2211 2.053 . S
Zn2240 O2241 2.055 . S
Zn2240 O2248 2.046 . S
Zn2240 N2256 2.036 . S
Zn2240 O2268 2.053 . S
Zn2240 O2270 2.066 . S
O2241 Zn2240 2.055 . S
O2241 C2244 1.259 . S
C2242 O2270 1.256 . S
C2242 O2271 1.244 . S
Zn2243 O2245 2.046 . S
Zn2243 O2247 2.055 . S
Zn2243 N2249 2.036 . S
Zn2243 O2267 2.066 . S
Zn2243 O2271 2.053 . S
C2244 O2241 1.259 . S
C2244 O2245 1.254 . S
O2245 Zn2243 2.046 . S
O2245 C2244 1.254 . S
C2246 O2267 1.256 . S
C2246 O2268 1.244 . S
O2247 Zn2243 2.055 . S
O2247 C2269 1.259 . S
O2248 Zn2240 2.046 . S
O2248 C2269 1.254 . S
N2249 Zn2243 2.036 . S
N2249 C2250 1.298 . S
N2249 N2252 1.398 . S
C2250 N2249 1.298 . S
C2250 N2253 1.367 . S
C2250 C2263 1.481 . S
C2251 N2252 1.299 . S
C2251 N2253 1.379 . S
N2252 N2249 1.398 . S
N2252 C2251 1.299 . S
N2253 C2250 1.367 . S
N2253 C2251 1.379 . S
C2254 N2256 1.298 . S
C2254 N2258 1.367 . S
C2254 C2262 1.481 . S
C2255 N2257 1.299 . S
C2255 N2258 1.379 . S
N2256 Zn2240 2.036 . S
N2256 C2254 1.298 . S
N2256 N2257 1.398 . S
N2257 C2255 1.299 . S
N2257 N2256 1.398 . S
N2258 C2254 1.367 . S
N2258 C2255 1.379 . S
H2259 C2262 0.980 . S
H2260 C2262 0.981 . S
H2261 C2262 0.981 . S
C2262 C2254 1.481 . S
C2262 H2259 0.980 . S
C2262 H2260 0.981 . S
C2262 H2261 0.981 . S
C2263 C2250 1.481 . S
C2263 H2264 0.980 . S
C2263 H2265 0.981 . S
C2263 H2266 0.981 . S
H2264 C2263 0.980 . S
H2265 C2263 0.981 . S
H2266 C2263 0.981 . S
O2267 Zn2243 2.066 . S
O2267 C2246 1.256 . S
O2268 Zn2240 2.053 . S
O2268 C2246 1.244 . S
C2269 O2247 1.259 . S
C2269 O2248 1.254 . S
O2270 Zn2240 2.066 . S
O2270 C2242 1.256 . S
O2271 C2242 1.244 . S
O2271 Zn2243 2.053 . S
Zn2272 O2273 2.055 . S
Zn2272 O2280 2.046 . S
Zn2272 N2288 2.036 . S
Zn2272 O2300 2.053 . S
Zn2272 O2302 2.066 . S
O2273 Zn2272 2.055 . S
O2273 C2276 1.259 . S
C2274 O2302 1.256 . S
C2274 O2303 1.244 . S
Zn2275 O2277 2.046 . S
Zn2275 O2279 2.055 . S
Zn2275 N2281 2.036 . S
Zn2275 O2299 2.066 . S
Zn2275 O2303 2.053 . S
C2276 O2273 1.259 . S
C2276 O2277 1.254 . S
O2277 Zn2275 2.046 . S
O2277 C2276 1.254 . S
C2278 O2299 1.256 . S
C2278 O2300 1.244 . S
O2279 Zn2275 2.055 . S
O2279 C2301 1.259 . S
O2280 Zn2272 2.046 . S
O2280 C2301 1.254 . S
N2281 Zn2275 2.036 . S
N2281 C2282 1.298 . S
N2281 N2284 1.398 . S
C2282 N2281 1.298 . S
C2282 N2285 1.367 . S
C2282 C2295 1.481 . S
C2283 N2284 1.299 . S
C2283 N2285 1.379 . S
N2284 N2281 1.398 . S
N2284 C2283 1.299 . S
N2285 C2282 1.367 . S
N2285 C2283 1.379 . S
C2286 N2288 1.298 . S
C2286 N2290 1.367 1_655 S
C2286 C2294 1.481 . S
C2287 N2289 1.299 1_455 S
C2287 N2290 1.379 . S
N2288 Zn2272 2.036 . S
N2288 C2286 1.298 . S
N2288 N2289 1.398 . S
N2289 C2287 1.299 1_655 S
N2289 N2288 1.398 . S
N2290 C2286 1.367 1_455 S
N2290 C2287 1.379 . S
H2291 C2294 0.980 . S
H2292 C2294 0.981 . S
H2293 C2294 0.981 . S
C2294 C2286 1.481 . S
C2294 H2291 0.980 . S
C2294 H2292 0.981 . S
C2294 H2293 0.981 . S
C2295 C2282 1.481 . S
C2295 H2296 0.980 . S
C2295 H2297 0.981 . S
C2295 H2298 0.981 . S
H2296 C2295 0.980 . S
H2297 C2295 0.981 . S
H2298 C2295 0.981 . S
O2299 Zn2275 2.066 . S
O2299 C2278 1.256 . S
O2300 Zn2272 2.053 . S
O2300 C2278 1.244 . S
C2301 O2279 1.259 . S
C2301 O2280 1.254 . S
O2302 Zn2272 2.066 . S
O2302 C2274 1.256 . S
O2303 C2274 1.244 . S
O2303 Zn2275 2.053 . S
Zn2304 O2305 2.055 . S
Zn2304 O2312 2.046 . S
Zn2304 N2320 2.036 . S
Zn2304 O2332 2.053 . S
Zn2304 O2334 2.066 . S
O2305 Zn2304 2.055 . S
O2305 C2308 1.259 . S
C2306 O2334 1.256 . S
C2306 O2335 1.244 . S
Zn2307 O2309 2.046 . S
Zn2307 O2311 2.055 . S
Zn2307 N2313 2.036 . S
Zn2307 O2331 2.066 . S
Zn2307 O2335 2.053 . S
C2308 O2305 1.259 . S
C2308 O2309 1.254 . S
O2309 Zn2307 2.046 . S
O2309 C2308 1.254 . S
C2310 O2331 1.256 . S
C2310 O2332 1.244 . S
O2311 Zn2307 2.055 . S
O2311 C2333 1.259 . S
O2312 Zn2304 2.046 . S
O2312 C2333 1.254 . S
N2313 Zn2307 2.036 . S
N2313 C2314 1.298 . S
N2313 N2316 1.398 . S
C2314 N2313 1.298 . S
C2314 N2317 1.357 1_554 S
C2314 C2327 1.481 . S
C2315 N2316 1.301 1_556 S
C2315 N2317 1.379 . S
N2316 N2313 1.398 . S
N2316 C2315 1.301 1_554 S
N2317 C2314 1.357 1_556 S
N2317 C2315 1.379 . S
C2318 N2320 1.298 . S
C2318 N2322 1.367 . S
C2318 C2326 1.481 . S
C2319 N2321 1.299 . S
C2319 N2322 1.379 . S
N2320 Zn2304 2.036 . S
N2320 C2318 1.298 . S
N2320 N2321 1.398 . S
N2321 C2319 1.299 . S
N2321 N2320 1.398 . S
N2322 C2318 1.367 . S
N2322 C2319 1.379 . S
H2323 C2326 0.980 . S
H2324 C2326 0.981 . S
H2325 C2326 0.981 . S
C2326 C2318 1.481 . S
C2326 H2323 0.980 . S
C2326 H2324 0.981 . S
C2326 H2325 0.981 . S
C2327 C2314 1.481 . S
C2327 H2328 0.980 . S
C2327 H2329 0.981 . S
C2327 H2330 0.981 . S
H2328 C2327 0.980 . S
H2329 C2327 0.981 . S
H2330 C2327 0.981 . S
O2331 Zn2307 2.066 . S
O2331 C2310 1.256 . S
O2332 Zn2304 2.053 . S
O2332 C2310 1.244 . S
C2333 O2311 1.259 . S
C2333 O2312 1.254 . S
O2334 Zn2304 2.066 . S
O2334 C2306 1.256 . S
O2335 C2306 1.244 . S
O2335 Zn2307 2.053 . S
Zn2336 O2337 2.055 . S
Zn2336 O2344 2.046 . S
Zn2336 N2352 2.036 . S
Zn2336 O2364 2.053 . S
Zn2336 O2366 2.066 . S
O2337 Zn2336 2.055 . S
O2337 C2340 1.259 . S
C2338 O2366 1.256 . S
C2338 O2367 1.244 . S
Zn2339 O2341 2.046 . S
Zn2339 O2343 2.055 . S
Zn2339 N2345 2.036 . S
Zn2339 O2363 2.066 . S
Zn2339 O2367 2.053 . S
C2340 O2337 1.259 . S
C2340 O2341 1.254 . S
O2341 Zn2339 2.046 . S
O2341 C2340 1.254 . S
C2342 O2363 1.256 . S
C2342 O2364 1.244 . S
O2343 Zn2339 2.055 . S
O2343 C2365 1.259 . S
O2344 Zn2336 2.046 . S
O2344 C2365 1.254 . S
N2345 Zn2339 2.036 . S
N2345 C2346 1.298 . S
N2345 N2348 1.398 . S
C2346 N2345 1.298 . S
C2346 N2349 1.367 1_556 S
C2346 C2359 1.481 . S
C2347 N2348 1.299 1_554 S
C2347 N2349 1.379 . S
N2348 N2345 1.398 . S
N2348 C2347 1.299 1_556 S
N2349 C2346 1.367 1_554 S
N2349 C2347 1.379 . S
C2350 N2352 1.298 . S
C2350 N2354 1.367 . S
C2350 C2358 1.481 . S
C2351 N2353 1.299 . S
C2351 N2354 1.379 . S
N2352 Zn2336 2.036 . S
N2352 C2350 1.298 . S
N2352 N2353 1.398 . S
N2353 C2351 1.299 . S
N2353 N2352 1.398 . S
N2354 C2350 1.367 . S
N2354 C2351 1.379 . S
H2355 C2358 0.980 . S
H2356 C2358 0.981 . S
H2357 C2358 0.981 . S
C2358 C2350 1.481 . S
C2358 H2355 0.980 . S
C2358 H2356 0.981 . S
C2358 H2357 0.981 . S
C2359 C2346 1.481 . S
C2359 H2360 0.980 . S
C2359 H2361 0.981 . S
C2359 H2362 0.981 . S
H2360 C2359 0.980 . S
H2361 C2359 0.981 . S
H2362 C2359 0.981 . S
O2363 Zn2339 2.066 . S
O2363 C2342 1.256 . S
O2364 Zn2336 2.053 . S
O2364 C2342 1.244 . S
C2365 O2343 1.259 . S
C2365 O2344 1.254 . S
O2366 Zn2336 2.066 . S
O2366 C2338 1.256 . S
O2367 C2338 1.244 . S
O2367 Zn2339 2.053 . S
Zn2368 O2369 2.055 . S
Zn2368 O2376 2.046 . S
Zn2368 N2384 2.036 . S
Zn2368 O2396 2.053 . S
Zn2368 O2398 2.066 . S
O2369 Zn2368 2.055 . S
O2369 C2372 1.259 . S
C2370 O2398 1.256 . S
C2370 O2399 1.244 . S
Zn2371 O2373 2.046 . S
Zn2371 O2375 2.055 . S
Zn2371 N2377 2.036 . S
Zn2371 O2395 2.066 . S
Zn2371 O2399 2.053 . S
C2372 O2369 1.259 . S
C2372 O2373 1.254 . S
O2373 Zn2371 2.046 . S
O2373 C2372 1.254 . S
C2374 O2395 1.256 . S
C2374 O2396 1.244 . S
O2375 Zn2371 2.055 . S
O2375 C2397 1.259 . S
O2376 Zn2368 2.046 . S
O2376 C2397 1.254 . S
N2377 Zn2371 2.036 . S
N2377 C2378 1.298 . S
N2377 N2380 1.398 . S
C2378 N2377 1.298 . S
C2378 N2381 1.367 . S
C2378 C2391 1.481 . S
C2379 N2380 1.299 . S
C2379 N2381 1.379 . S
N2380 N2377 1.398 . S
N2380 C2379 1.299 . S
N2381 C2378 1.367 . S
N2381 C2379 1.379 . S
C2382 N2384 1.298 . S
C2382 N2386 1.367 . S
C2382 C2390 1.481 1_455 S
C2383 N2385 1.299 . S
C2383 N2386 1.379 . S
N2384 Zn2368 2.036 . S
N2384 C2382 1.298 . S
N2384 N2385 1.398 . S
N2385 C2383 1.299 . S
N2385 N2384 1.398 . S
N2386 C2382 1.367 . S
N2386 C2383 1.379 . S
H2387 C2390 0.980 . S
H2388 C2390 0.981 . S
H2389 C2390 0.981 . S
C2390 C2382 1.481 1_655 S
C2390 H2387 0.980 . S
C2390 H2388 0.981 . S
C2390 H2389 0.981 . S
C2391 C2378 1.481 . S
C2391 H2392 0.980 . S
C2391 H2393 0.981 . S
C2391 H2394 0.981 . S
H2392 C2391 0.980 . S
H2393 C2391 0.981 . S
H2394 C2391 0.981 . S
O2395 Zn2371 2.066 . S
O2395 C2374 1.256 . S
O2396 Zn2368 2.053 . S
O2396 C2374 1.244 . S
C2397 O2375 1.259 . S
C2397 O2376 1.254 . S
O2398 Zn2368 2.066 . S
O2398 C2370 1.256 . S
O2399 C2370 1.244 . S
O2399 Zn2371 2.053 . S
Zn2400 O2401 2.055 . S
Zn2400 O2408 2.046 . S
Zn2400 N2416 2.036 . S
Zn2400 O2428 2.053 . S
Zn2400 O2430 2.066 . S
O2401 Zn2400 2.055 . S
O2401 C2404 1.259 . S
C2402 O2430 1.256 . S
C2402 O2431 1.244 . S
Zn2403 O2405 2.046 . S
Zn2403 O2407 2.055 . S
Zn2403 N2409 2.036 . S
Zn2403 O2427 2.066 . S
Zn2403 O2431 2.053 . S
C2404 O2401 1.259 . S
C2404 O2405 1.254 . S
O2405 Zn2403 2.046 . S
O2405 C2404 1.254 . S
C2406 O2427 1.256 . S
C2406 O2428 1.244 . S
O2407 Zn2403 2.055 . S
O2407 C2429 1.259 . S
O2408 Zn2400 2.046 . S
O2408 C2429 1.254 . S
N2409 Zn2403 2.036 . S
N2409 C2410 1.298 . S
N2409 N2412 1.398 . S
C2410 N2409 1.298 . S
C2410 N2413 1.367 . S
C2410 C2423 1.481 . S
C2411 N2412 1.299 . S
C2411 N2413 1.379 . S
N2412 N2409 1.398 . S
N2412 C2411 1.299 . S
N2413 C2410 1.367 . S
N2413 C2411 1.379 . S
C2414 N2416 1.298 . S
C2414 N2418 1.367 . S
C2414 C2422 1.481 . S
C2415 N2417 1.299 . S
C2415 N2418 1.379 . S
N2416 Zn2400 2.036 . S
N2416 C2414 1.298 . S
N2416 N2417 1.398 . S
N2417 C2415 1.299 . S
N2417 N2416 1.398 . S
N2418 C2414 1.367 . S
N2418 C2415 1.379 . S
H2419 C2422 0.980 . S
H2420 C2422 0.981 . S
H2421 C2422 0.981 . S
C2422 C2414 1.481 . S
C2422 H2419 0.980 . S
C2422 H2420 0.981 . S
C2422 H2421 0.981 . S
C2423 C2410 1.481 . S
C2423 H2424 0.980 . S
C2423 H2425 0.981 . S
C2423 H2426 0.981 . S
H2424 C2423 0.980 . S
H2425 C2423 0.981 . S
H2426 C2423 0.981 . S
O2427 Zn2403 2.066 . S
O2427 C2406 1.256 . S
O2428 Zn2400 2.053 . S
O2428 C2406 1.244 . S
C2429 O2407 1.259 . S
C2429 O2408 1.254 . S
O2430 Zn2400 2.066 . S
O2430 C2402 1.256 . S
O2431 C2402 1.244 . S
O2431 Zn2403 2.053 . S
Zn2432 O2433 2.055 . S
Zn2432 O2440 2.046 . S
Zn2432 N2448 2.036 . S
Zn2432 O2460 2.053 . S
Zn2432 O2462 2.066 . S
O2433 Zn2432 2.055 . S
O2433 C2436 1.259 . S
C2434 O2462 1.256 . S
C2434 O2463 1.244 . S
Zn2435 O2437 2.046 . S
Zn2435 O2439 2.055 . S
Zn2435 N2441 2.036 . S
Zn2435 O2459 2.066 . S
Zn2435 O2463 2.053 . S
C2436 O2433 1.259 . S
C2436 O2437 1.254 . S
O2437 Zn2435 2.046 . S
O2437 C2436 1.254 . S
C2438 O2459 1.256 . S
C2438 O2460 1.244 . S
O2439 Zn2435 2.055 . S
O2439 C2461 1.259 . S
O2440 Zn2432 2.046 . S
O2440 C2461 1.254 . S
N2441 Zn2435 2.036 . S
N2441 C2442 1.298 . S
N2441 N2444 1.398 . S
C2442 N2441 1.298 . S
C2442 N2445 1.367 . S
C2442 C2455 1.481 . S
C2443 N2444 1.299 . S
C2443 N2445 1.379 . S
N2444 N2441 1.398 . S
N2444 C2443 1.299 . S
N2445 C2442 1.367 . S
N2445 C2443 1.379 . S
C2446 N2448 1.298 . S
C2446 N2450 1.367 . S
C2446 C2454 1.481 . S
C2447 N2449 1.299 . S
C2447 N2450 1.379 . S
N2448 Zn2432 2.036 . S
N2448 C2446 1.298 . S
N2448 N2449 1.398 . S
N2449 C2447 1.299 . S
N2449 N2448 1.398 . S
N2450 C2446 1.367 . S
N2450 C2447 1.379 . S
H2451 C2454 0.980 . S
H2452 C2454 0.981 . S
H2453 C2454 0.981 . S
C2454 C2446 1.481 . S
C2454 H2451 0.980 . S
C2454 H2452 0.981 . S
C2454 H2453 0.981 . S
C2455 C2442 1.481 . S
C2455 H2456 0.980 . S
C2455 H2457 0.981 . S
C2455 H2458 0.981 . S
H2456 C2455 0.980 . S
H2457 C2455 0.981 . S
H2458 C2455 0.981 . S
O2459 Zn2435 2.066 . S
O2459 C2438 1.256 . S
O2460 Zn2432 2.053 . S
O2460 C2438 1.244 . S
C2461 O2439 1.259 . S
C2461 O2440 1.254 . S
O2462 Zn2432 2.066 . S
O2462 C2434 1.256 . S
O2463 C2434 1.244 . S
O2463 Zn2435 2.053 . S
Zn2464 O2465 2.055 . S
Zn2464 O2472 2.046 . S
Zn2464 N2480 2.036 . S
Zn2464 O2492 2.053 . S
Zn2464 O2494 2.066 . S
O2465 Zn2464 2.055 . S
O2465 C2468 1.259 . S
C2466 O2494 1.256 . S
C2466 O2495 1.244 . S
Zn2467 O2469 2.046 . S
Zn2467 O2471 2.055 . S
Zn2467 N2473 2.036 . S
Zn2467 O2491 2.066 . S
Zn2467 O2495 2.053 . S
C2468 O2465 1.259 . S
C2468 O2469 1.254 . S
O2469 Zn2467 2.046 . S
O2469 C2468 1.254 . S
C2470 O2491 1.256 . S
C2470 O2492 1.244 . S
O2471 Zn2467 2.055 . S
O2471 C2493 1.259 . S
O2472 Zn2464 2.046 . S
O2472 C2493 1.254 . S
N2473 Zn2467 2.036 . S
N2473 C2474 1.298 . S
N2473 N2476 1.398 . S
C2474 N2473 1.298 . S
C2474 N2477 1.367 . S
C2474 C2487 1.481 . S
C2475 N2476 1.299 . S
C2475 N2477 1.379 . S
N2476 N2473 1.398 . S
N2476 C2475 1.299 . S
N2477 C2474 1.367 . S
N2477 C2475 1.379 . S
C2478 N2480 1.298 . S
C2478 N2482 1.367 1_554 S
C2478 C2486 1.481 . S
C2479 N2481 1.299 1_556 S
C2479 N2482 1.379 . S
N2480 Zn2464 2.036 . S
N2480 C2478 1.298 . S
N2480 N2481 1.398 . S
N2481 C2479 1.299 1_554 S
N2481 N2480 1.398 . S
N2482 C2478 1.367 1_556 S
N2482 C2479 1.379 . S
H2483 C2486 0.980 . S
H2484 C2486 0.981 . S
H2485 C2486 0.981 . S
C2486 C2478 1.481 . S
C2486 H2483 0.980 . S
C2486 H2484 0.981 . S
C2486 H2485 0.981 . S
C2487 C2474 1.481 . S
C2487 H2488 0.980 . S
C2487 H2489 0.981 . S
C2487 H2490 0.981 . S
H2488 C2487 0.980 . S
H2489 C2487 0.981 . S
H2490 C2487 0.981 . S
O2491 Zn2467 2.066 . S
O2491 C2470 1.256 . S
O2492 Zn2464 2.053 . S
O2492 C2470 1.244 . S
C2493 O2471 1.259 . S
C2493 O2472 1.254 . S
O2494 Zn2464 2.066 . S
O2494 C2466 1.256 . S
O2495 C2466 1.244 . S
O2495 Zn2467 2.053 . S
Zn2496 O2497 2.055 . S
Zn2496 O2504 2.046 . S
Zn2496 N2512 2.036 . S
Zn2496 O2524 2.053 . S
Zn2496 O2526 2.066 . S
O2497 Zn2496 2.055 . S
O2497 C2500 1.259 . S
C2498 O2526 1.256 . S
C2498 O2527 1.244 . S
Zn2499 O2501 2.046 . S
Zn2499 O2503 2.055 . S
Zn2499 N2505 2.036 . S
Zn2499 O2523 2.066 . S
Zn2499 O2527 2.053 . S
C2500 O2497 1.259 . S
C2500 O2501 1.254 . S
O2501 Zn2499 2.046 . S
O2501 C2500 1.254 . S
C2502 O2523 1.256 . S
C2502 O2524 1.244 . S
O2503 Zn2499 2.055 . S
O2503 C2525 1.259 . S
O2504 Zn2496 2.046 . S
O2504 C2525 1.254 . S
N2505 Zn2499 2.036 . S
N2505 C2506 1.298 . S
N2505 N2508 1.398 . S
C2506 N2505 1.298 . S
C2506 N2509 1.367 . S
C2506 C2519 1.481 1_455 S
C2507 N2508 1.299 . S
C2507 N2509 1.379 . S
N2508 N2505 1.398 . S
N2508 C2507 1.299 . S
N2509 C2506 1.367 . S
N2509 C2507 1.379 . S
C2510 N2512 1.298 . S
C2510 N2514 1.357 1_556 S
C2510 C2518 1.481 . S
C2511 N2513 1.301 1_554 S
C2511 N2514 1.379 . S
N2512 Zn2496 2.036 . S
N2512 C2510 1.298 . S
N2512 N2513 1.398 . S
N2513 C2511 1.301 1_556 S
N2513 N2512 1.398 . S
N2514 C2510 1.357 1_554 S
N2514 C2511 1.379 . S
H2515 C2518 0.980 . S
H2516 C2518 0.981 . S
H2517 C2518 0.981 . S
C2518 C2510 1.481 . S
C2518 H2515 0.980 . S
C2518 H2516 0.981 . S
C2518 H2517 0.981 . S
C2519 C2506 1.481 1_655 S
C2519 H2520 0.980 . S
C2519 H2521 0.981 . S
C2519 H2522 0.981 . S
H2520 C2519 0.980 . S
H2521 C2519 0.981 . S
H2522 C2519 0.981 . S
O2523 Zn2499 2.066 . S
O2523 C2502 1.256 . S
O2524 Zn2496 2.053 . S
O2524 C2502 1.244 . S
C2525 O2503 1.259 . S
C2525 O2504 1.254 . S
O2526 Zn2496 2.066 . S
O2526 C2498 1.256 . S
O2527 C2498 1.244 . S
O2527 Zn2499 2.053 . S
Zn2528 O2529 2.055 . S
Zn2528 O2536 2.046 . S
Zn2528 N2544 2.036 . S
Zn2528 O2556 2.053 . S
Zn2528 O2558 2.066 . S
O2529 Zn2528 2.055 . S
O2529 C2532 1.259 . S
C2530 O2558 1.256 . S
C2530 O2559 1.244 . S
Zn2531 O2533 2.046 . S
Zn2531 O2535 2.055 . S
Zn2531 N2537 2.036 . S
Zn2531 O2555 2.066 . S
Zn2531 O2559 2.053 . S
C2532 O2529 1.259 . S
C2532 O2533 1.254 . S
O2533 Zn2531 2.046 . S
O2533 C2532 1.254 . S
C2534 O2555 1.256 . S
C2534 O2556 1.244 . S
O2535 Zn2531 2.055 . S
O2535 C2557 1.259 . S
O2536 Zn2528 2.046 . S
O2536 C2557 1.254 . S
N2537 Zn2531 2.036 . S
N2537 C2538 1.298 . S
N2537 N2540 1.398 . S
C2538 N2537 1.298 . S
C2538 N2541 1.367 . S
C2538 C2551 1.481 . S
C2539 N2540 1.299 . S
C2539 N2541 1.379 . S
N2540 N2537 1.398 . S
N2540 C2539 1.299 . S
N2541 C2538 1.367 . S
N2541 C2539 1.379 . S
C2542 N2544 1.298 . S
C2542 N2546 1.367 . S
C2542 C2550 1.481 . S
C2543 N2545 1.299 . S
C2543 N2546 1.379 . S
N2544 Zn2528 2.036 . S
N2544 C2542 1.298 . S
N2544 N2545 1.398 . S
N2545 C2543 1.299 . S
N2545 N2544 1.398 . S
N2546 C2542 1.367 . S
N2546 C2543 1.379 . S
H2547 C2550 0.980 . S
H2548 C2550 0.981 . S
H2549 C2550 0.981 . S
C2550 C2542 1.481 . S
C2550 H2547 0.980 . S
C2550 H2548 0.981 . S
C2550 H2549 0.981 . S
C2551 C2538 1.481 . S
C2551 H2552 0.980 . S
C2551 H2553 0.981 . S
C2551 H2554 0.981 . S
H2552 C2551 0.980 . S
H2553 C2551 0.981 . S
H2554 C2551 0.981 . S
O2555 Zn2531 2.066 . S
O2555 C2534 1.256 . S
O2556 Zn2528 2.053 . S
O2556 C2534 1.244 . S
C2557 O2535 1.259 . S
C2557 O2536 1.254 . S
O2558 Zn2528 2.066 . S
O2558 C2530 1.256 . S
O2559 C2530 1.244 . S
O2559 Zn2531 2.053 . S
Zn2560 O2561 2.055 . S
Zn2560 O2568 2.046 . S
Zn2560 N2576 2.036 . S
Zn2560 O2588 2.053 . S
Zn2560 O2590 2.066 . S
O2561 Zn2560 2.055 . S
O2561 C2564 1.259 . S
C2562 O2590 1.256 . S
C2562 O2591 1.244 . S
Zn2563 O2565 2.046 . S
Zn2563 O2567 2.055 . S
Zn2563 N2569 2.036 . S
Zn2563 O2587 2.066 . S
Zn2563 O2591 2.053 . S
C2564 O2561 1.259 . S
C2564 O2565 1.254 . S
O2565 Zn2563 2.046 . S
O2565 C2564 1.254 . S
C2566 O2587 1.256 . S
C2566 O2588 1.244 . S
O2567 Zn2563 2.055 . S
O2567 C2589 1.259 . S
O2568 Zn2560 2.046 . S
O2568 C2589 1.254 . S
N2569 Zn2563 2.036 . S
N2569 C2570 1.298 . S
N2569 N2572 1.398 . S
C2570 N2569 1.298 . S
C2570 N2573 1.357 1_455 S
C2570 C2583 1.481 . S
C2571 N2572 1.301 1_655 S
C2571 N2573 1.379 . S
N2572 N2569 1.398 . S
N2572 C2571 1.301 1_455 S
N2573 C2570 1.357 1_655 S
N2573 C2571 1.379 . S
C2574 N2576 1.298 . S
C2574 N2578 1.367 . S
C2574 C2582 1.481 . S
C2575 N2577 1.299 . S
C2575 N2578 1.379 . S
N2576 Zn2560 2.036 . S
N2576 C2574 1.298 . S
N2576 N2577 1.398 . S
N2577 C2575 1.299 . S
N2577 N2576 1.398 . S
N2578 C2574 1.367 . S
N2578 C2575 1.379 . S
H2579 C2582 0.980 . S
H2580 C2582 0.981 . S
H2581 C2582 0.981 . S
C2582 C2574 1.481 . S
C2582 H2579 0.980 . S
C2582 H2580 0.981 . S
C2582 H2581 0.981 . S
C2583 C2570 1.481 . S
C2583 H2584 0.980 . S
C2583 H2585 0.981 . S
C2583 H2586 0.981 . S
H2584 C2583 0.980 . S
H2585 C2583 0.981 . S
H2586 C2583 0.981 . S
O2587 Zn2563 2.066 . S
O2587 C2566 1.256 . S
O2588 Zn2560 2.053 . S
O2588 C2566 1.244 . S
C2589 O2567 1.259 . S
C2589 O2568 1.254 . S
O2590 Zn2560 2.066 . S
O2590 C2562 1.256 . S
O2591 C2562 1.244 . S
O2591 Zn2563 2.053 . S
Zn2592 O2593 2.055 . S
Zn2592 O2600 2.046 . S
Zn2592 N2608 2.036 . S
Zn2592 O2620 2.053 . S
Zn2592 O2622 2.066 . S
O2593 Zn2592 2.055 . S
O2593 C2596 1.259 . S
C2594 O2622 1.256 . S
C2594 O2623 1.244 . S
Zn2595 O2597 2.046 . S
Zn2595 O2599 2.055 . S
Zn2595 N2601 2.036 . S
Zn2595 O2619 2.066 . S
Zn2595 O2623 2.053 . S
C2596 O2593 1.259 . S
C2596 O2597 1.254 . S
O2597 Zn2595 2.046 . S
O2597 C2596 1.254 . S
C2598 O2619 1.256 . S
C2598 O2620 1.244 . S
O2599 Zn2595 2.055 . S
O2599 C2621 1.259 . S
O2600 Zn2592 2.046 . S
O2600 C2621 1.254 . S
N2601 Zn2595 2.036 . S
N2601 C2602 1.298 . S
N2601 N2604 1.398 . S
C2602 N2601 1.298 . S
C2602 N2605 1.367 . S
C2602 C2615 1.481 . S
C2603 N2604 1.299 . S
C2603 N2605 1.379 . S
N2604 N2601 1.398 . S
N2604 C2603 1.299 . S
N2605 C2602 1.367 . S
N2605 C2603 1.379 . S
C2606 N2608 1.298 . S
C2606 N2610 1.367 . S
C2606 C2614 1.481 . S
C2607 N2609 1.299 . S
C2607 N2610 1.379 . S
N2608 Zn2592 2.036 . S
N2608 C2606 1.298 . S
N2608 N2609 1.398 . S
N2609 C2607 1.299 . S
N2609 N2608 1.398 . S
N2610 C2606 1.367 . S
N2610 C2607 1.379 . S
H2611 C2614 0.980 . S
H2612 C2614 0.981 . S
H2613 C2614 0.981 . S
C2614 C2606 1.481 . S
C2614 H2611 0.980 . S
C2614 H2612 0.981 . S
C2614 H2613 0.981 . S
C2615 C2602 1.481 . S
C2615 H2616 0.980 . S
C2615 H2617 0.981 . S
C2615 H2618 0.981 . S
H2616 C2615 0.980 . S
H2617 C2615 0.981 . S
H2618 C2615 0.981 . S
O2619 Zn2595 2.066 . S
O2619 C2598 1.256 . S
O2620 Zn2592 2.053 . S
O2620 C2598 1.244 . S
C2621 O2599 1.259 . S
C2621 O2600 1.254 . S
O2622 Zn2592 2.066 . S
O2622 C2594 1.256 . S
O2623 C2594 1.244 . S
O2623 Zn2595 2.053 . S
Zn2624 O2625 2.055 . S
Zn2624 O2632 2.046 . S
Zn2624 N2640 2.036 . S
Zn2624 O2652 2.053 . S
Zn2624 O2654 2.066 . S
O2625 Zn2624 2.055 . S
O2625 C2628 1.259 . S
C2626 O2654 1.256 . S
C2626 O2655 1.244 . S
Zn2627 O2629 2.046 . S
Zn2627 O2631 2.055 . S
Zn2627 N2633 2.036 . S
Zn2627 O2651 2.066 . S
Zn2627 O2655 2.053 . S
C2628 O2625 1.259 . S
C2628 O2629 1.254 . S
O2629 Zn2627 2.046 . S
O2629 C2628 1.254 . S
C2630 O2651 1.256 . S
C2630 O2652 1.244 . S
O2631 Zn2627 2.055 . S
O2631 C2653 1.259 . S
O2632 Zn2624 2.046 . S
O2632 C2653 1.254 . S
N2633 Zn2627 2.036 . S
N2633 C2634 1.298 . S
N2633 N2636 1.398 . S
C2634 N2633 1.298 . S
C2634 N2637 1.367 . S
C2634 C2647 1.481 . S
C2635 N2636 1.299 . S
C2635 N2637 1.379 . S
N2636 N2633 1.398 . S
N2636 C2635 1.299 . S
N2637 C2634 1.367 . S
N2637 C2635 1.379 . S
C2638 N2640 1.298 . S
C2638 N2642 1.367 . S
C2638 C2646 1.481 . S
C2639 N2641 1.299 . S
C2639 N2642 1.379 . S
N2640 Zn2624 2.036 . S
N2640 C2638 1.298 . S
N2640 N2641 1.398 . S
N2641 C2639 1.299 . S
N2641 N2640 1.398 . S
N2642 C2638 1.367 . S
N2642 C2639 1.379 . S
H2643 C2646 0.980 . S
H2644 C2646 0.981 . S
H2645 C2646 0.981 . S
C2646 C2638 1.481 . S
C2646 H2643 0.980 . S
C2646 H2644 0.981 . S
C2646 H2645 0.981 . S
C2647 C2634 1.481 . S
C2647 H2648 0.980 . S
C2647 H2649 0.981 . S
C2647 H2650 0.981 . S
H2648 C2647 0.980 . S
H2649 C2647 0.981 . S
H2650 C2647 0.981 . S
O2651 Zn2627 2.066 . S
O2651 C2630 1.256 . S
O2652 Zn2624 2.053 . S
O2652 C2630 1.244 . S
C2653 O2631 1.259 . S
C2653 O2632 1.254 . S
O2654 Zn2624 2.066 . S
O2654 C2626 1.256 . S
O2655 C2626 1.244 . S
O2655 Zn2627 2.053 . S
Zn2656 O2657 2.055 . S
Zn2656 O2664 2.046 . S
Zn2656 N2672 2.036 . S
Zn2656 O2684 2.053 . S
Zn2656 O2686 2.066 . S
O2657 Zn2656 2.055 . S
O2657 C2660 1.259 . S
C2658 O2686 1.256 . S
C2658 O2687 1.244 . S
Zn2659 O2661 2.046 . S
Zn2659 O2663 2.055 . S
Zn2659 N2665 2.036 . S
Zn2659 O2683 2.066 . S
Zn2659 O2687 2.053 . S
C2660 O2657 1.259 . S
C2660 O2661 1.254 . S
O2661 Zn2659 2.046 . S
O2661 C2660 1.254 . S
C2662 O2683 1.256 . S
C2662 O2684 1.244 . S
O2663 Zn2659 2.055 . S
O2663 C2685 1.259 . S
O2664 Zn2656 2.046 . S
O2664 C2685 1.254 . S
N2665 Zn2659 2.036 . S
N2665 C2666 1.298 . S
N2665 N2668 1.398 . S
C2666 N2665 1.298 . S
C2666 N2669 1.367 . S
C2666 C2679 1.481 . S
C2667 N2668 1.299 . S
C2667 N2669 1.379 . S
N2668 N2665 1.398 . S
N2668 C2667 1.299 . S
N2669 C2666 1.367 . S
N2669 C2667 1.379 . S
C2670 N2672 1.298 . S
C2670 N2674 1.367 . S
C2670 C2678 1.481 . S
C2671 N2673 1.299 . S
C2671 N2674 1.379 . S
N2672 Zn2656 2.036 . S
N2672 C2670 1.298 . S
N2672 N2673 1.398 . S
N2673 C2671 1.299 . S
N2673 N2672 1.398 . S
N2674 C2670 1.367 . S
N2674 C2671 1.379 . S
H2675 C2678 0.980 . S
H2676 C2678 0.981 . S
H2677 C2678 0.981 . S
C2678 C2670 1.481 . S
C2678 H2675 0.980 . S
C2678 H2676 0.981 . S
C2678 H2677 0.981 . S
C2679 C2666 1.481 . S
C2679 H2680 0.980 . S
C2679 H2681 0.981 . S
C2679 H2682 0.981 . S
H2680 C2679 0.980 . S
H2681 C2679 0.981 . S
H2682 C2679 0.981 . S
O2683 Zn2659 2.066 . S
O2683 C2662 1.256 . S
O2684 Zn2656 2.053 . S
O2684 C2662 1.244 . S
C2685 O2663 1.259 . S
C2685 O2664 1.254 . S
O2686 Zn2656 2.066 . S
O2686 C2658 1.256 . S
O2687 C2658 1.244 . S
O2687 Zn2659 2.053 . S
Zn2688 O2689 2.055 . S
Zn2688 O2696 2.046 . S
Zn2688 N2704 2.036 . S
Zn2688 O2716 2.053 . S
Zn2688 O2718 2.066 . S
O2689 Zn2688 2.055 . S
O2689 C2692 1.259 . S
C2690 O2718 1.256 . S
C2690 O2719 1.244 . S
Zn2691 O2693 2.046 . S
Zn2691 O2695 2.055 . S
Zn2691 N2697 2.036 . S
Zn2691 O2715 2.066 . S
Zn2691 O2719 2.053 . S
C2692 O2689 1.259 . S
C2692 O2693 1.254 . S
O2693 Zn2691 2.046 . S
O2693 C2692 1.254 . S
C2694 O2715 1.256 . S
C2694 O2716 1.244 . S
O2695 Zn2691 2.055 . S
O2695 C2717 1.259 . S
O2696 Zn2688 2.046 . S
O2696 C2717 1.254 . S
N2697 Zn2691 2.036 . S
N2697 C2698 1.298 . S
N2697 N2700 1.398 . S
C2698 N2697 1.298 . S
C2698 N2701 1.367 . S
C2698 C2711 1.481 . S
C2699 N2700 1.299 . S
C2699 N2701 1.379 . S
N2700 N2697 1.398 . S
N2700 C2699 1.299 . S
N2701 C2698 1.367 . S
N2701 C2699 1.379 . S
C2702 N2704 1.298 . S
C2702 N2706 1.357 1_455 S
C2702 C2710 1.481 . S
C2703 N2705 1.301 1_655 S
C2703 N2706 1.379 . S
N2704 Zn2688 2.036 . S
N2704 C2702 1.298 . S
N2704 N2705 1.398 . S
N2705 C2703 1.301 1_455 S
N2705 N2704 1.398 . S
N2706 C2702 1.357 1_655 S
N2706 C2703 1.379 . S
H2707 C2710 0.980 . S
H2708 C2710 0.981 . S
H2709 C2710 0.981 . S
C2710 C2702 1.481 . S
C2710 H2707 0.980 . S
C2710 H2708 0.981 . S
C2710 H2709 0.981 . S
C2711 C2698 1.481 . S
C2711 H2712 0.980 . S
C2711 H2713 0.981 . S
C2711 H2714 0.981 . S
H2712 C2711 0.980 . S
H2713 C2711 0.981 . S
H2714 C2711 0.981 . S
O2715 Zn2691 2.066 . S
O2715 C2694 1.256 . S
O2716 Zn2688 2.053 . S
O2716 C2694 1.244 . S
C2717 O2695 1.259 . S
C2717 O2696 1.254 . S
O2718 Zn2688 2.066 . S
O2718 C2690 1.256 . S
O2719 C2690 1.244 . S
O2719 Zn2691 2.053 . S
Zn2720 O2721 2.055 . S
Zn2720 O2728 2.046 . S
Zn2720 N2736 2.036 . S
Zn2720 O2748 2.053 . S
Zn2720 O2750 2.066 . S
O2721 Zn2720 2.055 . S
O2721 C2724 1.259 . S
C2722 O2750 1.256 . S
C2722 O2751 1.244 . S
Zn2723 O2725 2.046 . S
Zn2723 O2727 2.055 . S
Zn2723 N2729 2.036 . S
Zn2723 O2747 2.066 . S
Zn2723 O2751 2.053 . S
C2724 O2721 1.259 . S
C2724 O2725 1.254 . S
O2725 Zn2723 2.046 . S
O2725 C2724 1.254 . S
C2726 O2747 1.256 . S
C2726 O2748 1.244 . S
O2727 Zn2723 2.055 . S
O2727 C2749 1.259 . S
O2728 Zn2720 2.046 . S
O2728 C2749 1.254 . S
N2729 Zn2723 2.036 . S
N2729 C2730 1.298 . S
N2729 N2732 1.398 . S
C2730 N2729 1.298 . S
C2730 N2733 1.367 . S
C2730 C2743 1.481 . S
C2731 N2732 1.299 . S
C2731 N2733 1.379 . S
N2732 N2729 1.398 . S
N2732 C2731 1.299 . S
N2733 C2730 1.367 . S
N2733 C2731 1.379 . S
C2734 N2736 1.298 . S
C2734 N2738 1.367 . S
C2734 C2742 1.481 . S
C2735 N2737 1.299 . S
C2735 N2738 1.379 . S
N2736 Zn2720 2.036 . S
N2736 C2734 1.298 . S
N2736 N2737 1.398 . S
N2737 C2735 1.299 . S
N2737 N2736 1.398 . S
N2738 C2734 1.367 . S
N2738 C2735 1.379 . S
H2739 C2742 0.980 . S
H2740 C2742 0.981 . S
H2741 C2742 0.981 . S
C2742 C2734 1.481 . S
C2742 H2739 0.980 . S
C2742 H2740 0.981 . S
C2742 H2741 0.981 . S
C2743 C2730 1.481 . S
C2743 H2744 0.980 . S
C2743 H2745 0.981 . S
C2743 H2746 0.981 . S
H2744 C2743 0.980 . S
H2745 C2743 0.981 . S
H2746 C2743 0.981 . S
O2747 Zn2723 2.066 . S
O2747 C2726 1.256 . S
O2748 Zn2720 2.053 . S
O2748 C2726 1.244 . S
C2749 O2727 1.259 . S
C2749 O2728 1.254 . S
O2750 Zn2720 2.066 . S
O2750 C2722 1.256 . S
O2751 C2722 1.244 . S
O2751 Zn2723 2.053 . S
Zn2752 O2753 2.055 . S
Zn2752 O2760 2.046 . S
Zn2752 N2768 2.036 . S
Zn2752 O2780 2.053 . S
Zn2752 O2782 2.066 . S
O2753 Zn2752 2.055 . S
O2753 C2756 1.259 . S
C2754 O2782 1.256 . S
C2754 O2783 1.244 . S
Zn2755 O2757 2.046 . S
Zn2755 O2759 2.055 . S
Zn2755 N2761 2.036 . S
Zn2755 O2779 2.066 . S
Zn2755 O2783 2.053 . S
C2756 O2753 1.259 . S
C2756 O2757 1.254 . S
O2757 Zn2755 2.046 . S
O2757 C2756 1.254 . S
C2758 O2779 1.256 . S
C2758 O2780 1.244 . S
O2759 Zn2755 2.055 . S
O2759 C2781 1.259 . S
O2760 Zn2752 2.046 . S
O2760 C2781 1.254 . S
N2761 Zn2755 2.036 . S
N2761 C2762 1.298 . S
N2761 N2764 1.398 . S
C2762 N2761 1.298 . S
C2762 N2765 1.367 . S
C2762 C2775 1.481 . S
C2763 N2764 1.299 . S
C2763 N2765 1.379 . S
N2764 N2761 1.398 . S
N2764 C2763 1.299 . S
N2765 C2762 1.367 . S
N2765 C2763 1.379 . S
C2766 N2768 1.298 . S
C2766 N2770 1.367 . S
C2766 C2774 1.481 . S
C2767 N2769 1.299 . S
C2767 N2770 1.379 . S
N2768 Zn2752 2.036 . S
N2768 C2766 1.298 . S
N2768 N2769 1.398 . S
N2769 C2767 1.299 . S
N2769 N2768 1.398 . S
N2770 C2766 1.367 . S
N2770 C2767 1.379 . S
H2771 C2774 0.980 . S
H2772 C2774 0.981 . S
H2773 C2774 0.981 . S
C2774 C2766 1.481 . S
C2774 H2771 0.980 . S
C2774 H2772 0.981 . S
C2774 H2773 0.981 . S
C2775 C2762 1.481 . S
C2775 H2776 0.980 . S
C2775 H2777 0.981 . S
C2775 H2778 0.981 . S
H2776 C2775 0.980 . S
H2777 C2775 0.981 . S
H2778 C2775 0.981 . S
O2779 Zn2755 2.066 . S
O2779 C2758 1.256 . S
O2780 Zn2752 2.053 . S
O2780 C2758 1.244 . S
C2781 O2759 1.259 . S
C2781 O2760 1.254 . S
O2782 Zn2752 2.066 . S
O2782 C2754 1.256 . S
O2783 C2754 1.244 . S
O2783 Zn2755 2.053 . S
Zn2784 O2785 2.055 . S
Zn2784 O2792 2.046 . S
Zn2784 N2800 2.036 . S
Zn2784 O2812 2.053 . S
Zn2784 O2814 2.066 . S
O2785 Zn2784 2.055 . S
O2785 C2788 1.259 . S
C2786 O2814 1.256 . S
C2786 O2815 1.244 . S
Zn2787 O2789 2.046 . S
Zn2787 O2791 2.055 . S
Zn2787 N2793 2.036 . S
Zn2787 O2811 2.066 . S
Zn2787 O2815 2.053 . S
C2788 O2785 1.259 . S
C2788 O2789 1.254 . S
O2789 Zn2787 2.046 . S
O2789 C2788 1.254 . S
C2790 O2811 1.256 . S
C2790 O2812 1.244 . S
O2791 Zn2787 2.055 . S
O2791 C2813 1.259 . S
O2792 Zn2784 2.046 . S
O2792 C2813 1.254 . S
N2793 Zn2787 2.036 . S
N2793 C2794 1.298 . S
N2793 N2796 1.398 . S
C2794 N2793 1.298 . S
C2794 N2797 1.367 . S
C2794 C2807 1.481 . S
C2795 N2796 1.299 . S
C2795 N2797 1.379 . S
N2796 N2793 1.398 . S
N2796 C2795 1.299 . S
N2797 C2794 1.367 . S
N2797 C2795 1.379 . S
C2798 N2800 1.298 . S
C2798 N2802 1.367 . S
C2798 C2806 1.481 . S
C2799 N2801 1.299 . S
C2799 N2802 1.379 . S
N2800 Zn2784 2.036 . S
N2800 C2798 1.298 . S
N2800 N2801 1.398 . S
N2801 C2799 1.299 . S
N2801 N2800 1.398 . S
N2802 C2798 1.367 . S
N2802 C2799 1.379 . S
H2803 C2806 0.980 . S
H2804 C2806 0.981 . S
H2805 C2806 0.981 . S
C2806 C2798 1.481 . S
C2806 H2803 0.980 . S
C2806 H2804 0.981 . S
C2806 H2805 0.981 . S
C2807 C2794 1.481 . S
C2807 H2808 0.980 . S
C2807 H2809 0.981 . S
C2807 H2810 0.981 . S
H2808 C2807 0.980 . S
H2809 C2807 0.981 . S
H2810 C2807 0.981 . S
O2811 Zn2787 2.066 . S
O2811 C2790 1.256 . S
O2812 Zn2784 2.053 . S
O2812 C2790 1.244 . S
C2813 O2791 1.259 . S
C2813 O2792 1.254 . S
O2814 Zn2784 2.066 . S
O2814 C2786 1.256 . S
O2815 C2786 1.244 . S
O2815 Zn2787 2.053 . S
Zn2816 O2817 2.055 . S
Zn2816 O2824 2.046 . S
Zn2816 N2832 2.036 . S
Zn2816 O2844 2.053 . S
Zn2816 O2846 2.066 . S
O2817 Zn2816 2.055 . S
O2817 C2820 1.259 . S
C2818 O2846 1.256 . S
C2818 O2847 1.244 . S
Zn2819 O2821 2.046 . S
Zn2819 O2823 2.055 . S
Zn2819 N2825 2.036 . S
Zn2819 O2843 2.066 . S
Zn2819 O2847 2.053 . S
C2820 O2817 1.259 . S
C2820 O2821 1.254 . S
O2821 Zn2819 2.046 . S
O2821 C2820 1.254 . S
C2822 O2843 1.256 . S
C2822 O2844 1.244 . S
O2823 Zn2819 2.055 . S
O2823 C2845 1.259 . S
O2824 Zn2816 2.046 . S
O2824 C2845 1.254 . S
N2825 Zn2819 2.036 . S
N2825 C2826 1.298 . S
N2825 N2828 1.398 . S
C2826 N2825 1.298 . S
C2826 N2829 1.357 1_545 S
C2826 C2839 1.481 . S
C2827 N2828 1.301 1_565 S
C2827 N2829 1.379 . S
N2828 N2825 1.398 . S
N2828 C2827 1.301 1_545 S
N2829 C2826 1.357 1_565 S
N2829 C2827 1.379 . S
C2830 N2832 1.298 . S
C2830 N2834 1.367 . S
C2830 C2838 1.481 . S
C2831 N2833 1.299 . S
C2831 N2834 1.379 . S
N2832 Zn2816 2.036 . S
N2832 C2830 1.298 . S
N2832 N2833 1.398 . S
N2833 C2831 1.299 . S
N2833 N2832 1.398 . S
N2834 C2830 1.367 . S
N2834 C2831 1.379 . S
H2835 C2838 0.980 . S
H2836 C2838 0.981 . S
H2837 C2838 0.981 . S
C2838 C2830 1.481 . S
C2838 H2835 0.980 . S
C2838 H2836 0.981 . S
C2838 H2837 0.981 . S
C2839 C2826 1.481 . S
C2839 H2840 0.980 . S
C2839 H2841 0.981 . S
C2839 H2842 0.981 . S
H2840 C2839 0.980 . S
H2841 C2839 0.981 . S
H2842 C2839 0.981 . S
O2843 Zn2819 2.066 . S
O2843 C2822 1.256 . S
O2844 Zn2816 2.053 . S
O2844 C2822 1.244 . S
C2845 O2823 1.259 . S
C2845 O2824 1.254 . S
O2846 Zn2816 2.066 . S
O2846 C2818 1.256 . S
O2847 C2818 1.244 . S
O2847 Zn2819 2.053 . S
Zn2848 O2849 2.055 . S
Zn2848 O2856 2.046 . S
Zn2848 N2864 2.036 . S
Zn2848 O2876 2.053 . S
Zn2848 O2878 2.066 . S
O2849 Zn2848 2.055 . S
O2849 C2852 1.259 . S
C2850 O2878 1.256 . S
C2850 O2879 1.244 . S
Zn2851 O2853 2.046 . S
Zn2851 O2855 2.055 . S
Zn2851 N2857 2.036 . S
Zn2851 O2875 2.066 . S
Zn2851 O2879 2.053 . S
C2852 O2849 1.259 . S
C2852 O2853 1.254 . S
O2853 Zn2851 2.046 . S
O2853 C2852 1.254 . S
C2854 O2875 1.256 . S
C2854 O2876 1.244 . S
O2855 Zn2851 2.055 . S
O2855 C2877 1.259 . S
O2856 Zn2848 2.046 . S
O2856 C2877 1.254 . S
N2857 Zn2851 2.036 . S
N2857 C2858 1.298 . S
N2857 N2860 1.398 . S
C2858 N2857 1.298 . S
C2858 N2861 1.367 . S
C2858 C2871 1.481 . S
C2859 N2860 1.299 . S
C2859 N2861 1.379 . S
N2860 N2857 1.398 . S
N2860 C2859 1.299 . S
N2861 C2858 1.367 . S
N2861 C2859 1.379 . S
C2862 N2864 1.298 . S
C2862 N2866 1.367 . S
C2862 C2870 1.481 . S
C2863 N2865 1.299 . S
C2863 N2866 1.379 . S
N2864 Zn2848 2.036 . S
N2864 C2862 1.298 . S
N2864 N2865 1.398 . S
N2865 C2863 1.299 . S
N2865 N2864 1.398 . S
N2866 C2862 1.367 . S
N2866 C2863 1.379 . S
H2867 C2870 0.980 . S
H2868 C2870 0.981 . S
H2869 C2870 0.981 . S
C2870 C2862 1.481 . S
C2870 H2867 0.980 . S
C2870 H2868 0.981 . S
C2870 H2869 0.981 . S
C2871 C2858 1.481 . S
C2871 H2872 0.980 . S
C2871 H2873 0.981 . S
C2871 H2874 0.981 . S
H2872 C2871 0.980 . S
H2873 C2871 0.981 . S
H2874 C2871 0.981 . S
O2875 Zn2851 2.066 . S
O2875 C2854 1.256 . S
O2876 Zn2848 2.053 . S
O2876 C2854 1.244 . S
C2877 O2855 1.259 . S
C2877 O2856 1.254 . S
O2878 Zn2848 2.066 . S
O2878 C2850 1.256 . S
O2879 C2850 1.244 . S
O2879 Zn2851 2.053 . S
Zn2880 O2881 2.055 . S
Zn2880 O2888 2.046 . S
Zn2880 N2896 2.036 . S
Zn2880 O2908 2.053 . S
Zn2880 O2910 2.066 . S
O2881 Zn2880 2.055 . S
O2881 C2884 1.259 . S
C2882 O2910 1.256 . S
C2882 O2911 1.244 . S
Zn2883 O2885 2.046 . S
Zn2883 O2887 2.055 . S
Zn2883 N2889 2.036 . S
Zn2883 O2907 2.066 . S
Zn2883 O2911 2.053 . S
C2884 O2881 1.259 . S
C2884 O2885 1.254 . S
O2885 Zn2883 2.046 . S
O2885 C2884 1.254 . S
C2886 O2907 1.256 . S
C2886 O2908 1.244 . S
O2887 Zn2883 2.055 . S
O2887 C2909 1.259 . S
O2888 Zn2880 2.046 . S
O2888 C2909 1.254 . S
N2889 Zn2883 2.036 . S
N2889 C2890 1.298 . S
N2889 N2892 1.398 . S
C2890 N2889 1.298 . S
C2890 N2893 1.367 . S
C2890 C2903 1.481 . S
C2891 N2892 1.299 . S
C2891 N2893 1.379 . S
N2892 N2889 1.398 . S
N2892 C2891 1.299 . S
N2893 C2890 1.367 . S
N2893 C2891 1.379 . S
C2894 N2896 1.298 . S
C2894 N2898 1.367 . S
C2894 C2902 1.481 . S
C2895 N2897 1.299 . S
C2895 N2898 1.379 . S
N2896 Zn2880 2.036 . S
N2896 C2894 1.298 . S
N2896 N2897 1.398 . S
N2897 C2895 1.299 . S
N2897 N2896 1.398 . S
N2898 C2894 1.367 . S
N2898 C2895 1.379 . S
H2899 C2902 0.980 . S
H2900 C2902 0.981 . S
H2901 C2902 0.981 . S
C2902 C2894 1.481 . S
C2902 H2899 0.980 . S
C2902 H2900 0.981 . S
C2902 H2901 0.981 . S
C2903 C2890 1.481 . S
C2903 H2904 0.980 . S
C2903 H2905 0.981 . S
C2903 H2906 0.981 . S
H2904 C2903 0.980 . S
H2905 C2903 0.981 . S
H2906 C2903 0.981 . S
O2907 Zn2883 2.066 . S
O2907 C2886 1.256 . S
O2908 Zn2880 2.053 . S
O2908 C2886 1.244 . S
C2909 O2887 1.259 . S
C2909 O2888 1.254 . S
O2910 Zn2880 2.066 . S
O2910 C2882 1.256 . S
O2911 C2882 1.244 . S
O2911 Zn2883 2.053 . S
Zn2912 O2913 2.055 . S
Zn2912 O2920 2.046 . S
Zn2912 N2928 2.036 . S
Zn2912 O2940 2.053 . S
Zn2912 O2942 2.066 . S
O2913 Zn2912 2.055 . S
O2913 C2916 1.259 . S
C2914 O2942 1.256 . S
C2914 O2943 1.244 . S
Zn2915 O2917 2.046 . S
Zn2915 O2919 2.055 . S
Zn2915 N2921 2.036 . S
Zn2915 O2939 2.066 . S
Zn2915 O2943 2.053 . S
C2916 O2913 1.259 . S
C2916 O2917 1.254 . S
O2917 Zn2915 2.046 . S
O2917 C2916 1.254 . S
C2918 O2939 1.256 . S
C2918 O2940 1.244 . S
O2919 Zn2915 2.055 . S
O2919 C2941 1.259 . S
O2920 Zn2912 2.046 . S
O2920 C2941 1.254 . S
N2921 Zn2915 2.036 . S
N2921 C2922 1.298 . S
N2921 N2924 1.398 . S
C2922 N2921 1.298 . S
C2922 N2925 1.367 . S
C2922 C2935 1.481 1_554 S
C2923 N2924 1.299 . S
C2923 N2925 1.379 . S
N2924 N2921 1.398 . S
N2924 C2923 1.299 . S
N2925 C2922 1.367 . S
N2925 C2923 1.379 . S
C2926 N2928 1.298 . S
C2926 N2930 1.367 . S
C2926 C2934 1.481 . S
C2927 N2929 1.299 . S
C2927 N2930 1.379 . S
N2928 Zn2912 2.036 . S
N2928 C2926 1.298 . S
N2928 N2929 1.398 . S
N2929 C2927 1.299 . S
N2929 N2928 1.398 . S
N2930 C2926 1.367 . S
N2930 C2927 1.379 . S
H2931 C2934 0.980 . S
H2932 C2934 0.981 . S
H2933 C2934 0.981 . S
C2934 C2926 1.481 . S
C2934 H2931 0.980 . S
C2934 H2932 0.981 . S
C2934 H2933 0.981 . S
C2935 C2922 1.481 1_556 S
C2935 H2936 0.980 . S
C2935 H2937 0.981 . S
C2935 H2938 0.981 . S
H2936 C2935 0.980 . S
H2937 C2935 0.981 . S
H2938 C2935 0.981 . S
O2939 Zn2915 2.066 . S
O2939 C2918 1.256 . S
O2940 Zn2912 2.053 . S
O2940 C2918 1.244 . S
C2941 O2919 1.259 . S
C2941 O2920 1.254 . S
O2942 Zn2912 2.066 . S
O2942 C2914 1.256 . S
O2943 C2914 1.244 . S
O2943 Zn2915 2.053 . S
Zn2944 O2945 2.055 . S
Zn2944 O2952 2.046 . S
Zn2944 N2960 2.036 . S
Zn2944 O2972 2.053 . S
Zn2944 O2974 2.066 . S
O2945 Zn2944 2.055 . S
O2945 C2948 1.259 . S
C2946 O2974 1.256 . S
C2946 O2975 1.244 . S
Zn2947 O2949 2.046 . S
Zn2947 O2951 2.055 . S
Zn2947 N2953 2.036 . S
Zn2947 O2971 2.066 . S
Zn2947 O2975 2.053 . S
C2948 O2945 1.259 . S
C2948 O2949 1.254 . S
O2949 Zn2947 2.046 . S
O2949 C2948 1.254 . S
C2950 O2971 1.256 . S
C2950 O2972 1.244 . S
O2951 Zn2947 2.055 . S
O2951 C2973 1.259 . S
O2952 Zn2944 2.046 . S
O2952 C2973 1.254 . S
N2953 Zn2947 2.036 . S
N2953 C2954 1.298 . S
N2953 N2956 1.398 . S
C2954 N2953 1.298 . S
C2954 N2957 1.367 . S
C2954 C2967 1.481 . S
C2955 N2956 1.299 . S
C2955 N2957 1.379 . S
N2956 N2953 1.398 . S
N2956 C2955 1.299 . S
N2957 C2954 1.367 . S
N2957 C2955 1.379 . S
C2958 N2960 1.298 . S
C2958 N2962 1.367 . S
C2958 C2966 1.481 . S
C2959 N2961 1.299 . S
C2959 N2962 1.379 . S
N2960 Zn2944 2.036 . S
N2960 C2958 1.298 . S
N2960 N2961 1.398 . S
N2961 C2959 1.299 . S
N2961 N2960 1.398 . S
N2962 C2958 1.367 . S
N2962 C2959 1.379 . S
H2963 C2966 0.980 . S
H2964 C2966 0.981 . S
H2965 C2966 0.981 . S
C2966 C2958 1.481 . S
C2966 H2963 0.980 . S
C2966 H2964 0.981 . S
C2966 H2965 0.981 . S
C2967 C2954 1.481 . S
C2967 H2968 0.980 . S
C2967 H2969 0.981 . S
C2967 H2970 0.981 . S
H2968 C2967 0.980 . S
H2969 C2967 0.981 . S
H2970 C2967 0.981 . S
O2971 Zn2947 2.066 . S
O2971 C2950 1.256 . S
O2972 Zn2944 2.053 . S
O2972 C2950 1.244 . S
C2973 O2951 1.259 . S
C2973 O2952 1.254 . S
O2974 Zn2944 2.066 . S
O2974 C2946 1.256 . S
O2975 C2946 1.244 . S
O2975 Zn2947 2.053 . S
Zn2976 O2977 2.055 . S
Zn2976 O2984 2.046 . S
Zn2976 N2992 2.036 . S
Zn2976 O3004 2.053 . S
Zn2976 O3006 2.066 . S
O2977 Zn2976 2.055 . S
O2977 C2980 1.259 . S
C2978 O3006 1.256 . S
C2978 O3007 1.244 . S
Zn2979 O2981 2.046 . S
Zn2979 O2983 2.055 . S
Zn2979 N2985 2.036 . S
Zn2979 O3003 2.066 . S
Zn2979 O3007 2.053 . S
C2980 O2977 1.259 . S
C2980 O2981 1.254 . S
O2981 Zn2979 2.046 . S
O2981 C2980 1.254 . S
C2982 O3003 1.256 . S
C2982 O3004 1.244 . S
O2983 Zn2979 2.055 . S
O2983 C3005 1.259 . S
O2984 Zn2976 2.046 . S
O2984 C3005 1.254 . S
N2985 Zn2979 2.036 . S
N2985 C2986 1.298 . S
N2985 N2988 1.398 . S
C2986 N2985 1.298 . S
C2986 N2989 1.357 1_565 S
C2986 C2999 1.481 . S
C2987 N2988 1.301 1_545 S
C2987 N2989 1.379 . S
N2988 N2985 1.398 . S
N2988 C2987 1.301 1_565 S
N2989 C2986 1.357 1_545 S
N2989 C2987 1.379 . S
C2990 N2992 1.298 . S
C2990 N2994 1.367 . S
C2990 C2998 1.481 1_556 S
C2991 N2993 1.299 . S
C2991 N2994 1.379 . S
N2992 Zn2976 2.036 . S
N2992 C2990 1.298 . S
N2992 N2993 1.398 . S
N2993 C2991 1.299 . S
N2993 N2992 1.398 . S
N2994 C2990 1.367 . S
N2994 C2991 1.379 . S
H2995 C2998 0.980 . S
H2996 C2998 0.981 . S
H2997 C2998 0.981 . S
C2998 C2990 1.481 1_554 S
C2998 H2995 0.980 . S
C2998 H2996 0.981 . S
C2998 H2997 0.981 . S
C2999 C2986 1.481 . S
C2999 H3000 0.980 . S
C2999 H3001 0.981 . S
C2999 H3002 0.981 . S
H3000 C2999 0.980 . S
H3001 C2999 0.981 . S
H3002 C2999 0.981 . S
O3003 Zn2979 2.066 . S
O3003 C2982 1.256 . S
O3004 Zn2976 2.053 . S
O3004 C2982 1.244 . S
C3005 O2983 1.259 . S
C3005 O2984 1.254 . S
O3006 Zn2976 2.066 . S
O3006 C2978 1.256 . S
O3007 C2978 1.244 . S
O3007 Zn2979 2.053 . S
Zn3008 O3009 2.055 . S
Zn3008 O3016 2.046 . S
Zn3008 N3024 2.036 . S
Zn3008 O3036 2.053 . S
Zn3008 O3038 2.066 . S
O3009 Zn3008 2.055 . S
O3009 C3012 1.259 . S
C3010 O3038 1.256 . S
C3010 O3039 1.244 . S
Zn3011 O3013 2.046 . S
Zn3011 O3015 2.055 . S
Zn3011 N3017 2.036 . S
Zn3011 O3035 2.066 . S
Zn3011 O3039 2.053 . S
C3012 O3009 1.259 . S
C3012 O3013 1.254 . S
O3013 Zn3011 2.046 . S
O3013 C3012 1.254 . S
C3014 O3035 1.256 . S
C3014 O3036 1.244 . S
O3015 Zn3011 2.055 . S
O3015 C3037 1.259 . S
O3016 Zn3008 2.046 . S
O3016 C3037 1.254 . S
N3017 Zn3011 2.036 . S
N3017 C3018 1.298 . S
N3017 N3020 1.398 . S
C3018 N3017 1.298 . S
C3018 N3021 1.367 . S
C3018 C3031 1.481 . S
C3019 N3020 1.299 . S
C3019 N3021 1.379 . S
N3020 N3017 1.398 . S
N3020 C3019 1.299 . S
N3021 C3018 1.367 . S
N3021 C3019 1.379 . S
C3022 N3024 1.298 . S
C3022 N3026 1.367 . S
C3022 C3030 1.481 . S
C3023 N3025 1.299 . S
C3023 N3026 1.379 . S
N3024 Zn3008 2.036 . S
N3024 C3022 1.298 . S
N3024 N3025 1.398 . S
N3025 C3023 1.299 . S
N3025 N3024 1.398 . S
N3026 C3022 1.367 . S
N3026 C3023 1.379 . S
H3027 C3030 0.980 . S
H3028 C3030 0.981 . S
H3029 C3030 0.981 . S
C3030 C3022 1.481 . S
C3030 H3027 0.980 . S
C3030 H3028 0.981 . S
C3030 H3029 0.981 . S
C3031 C3018 1.481 . S
C3031 H3032 0.980 . S
C3031 H3033 0.981 . S
C3031 H3034 0.981 . S
H3032 C3031 0.980 . S
H3033 C3031 0.981 . S
H3034 C3031 0.981 . S
O3035 Zn3011 2.066 . S
O3035 C3014 1.256 . S
O3036 Zn3008 2.053 . S
O3036 C3014 1.244 . S
C3037 O3015 1.259 . S
C3037 O3016 1.254 . S
O3038 Zn3008 2.066 . S
O3038 C3010 1.256 . S
O3039 C3010 1.244 . S
O3039 Zn3011 2.053 . S
Zn3040 O3041 2.055 . S
Zn3040 O3048 2.046 . S
Zn3040 N3056 2.036 . S
Zn3040 O3068 2.053 . S
Zn3040 O3070 2.066 . S
O3041 Zn3040 2.055 . S
O3041 C3044 1.259 . S
C3042 O3070 1.256 . S
C3042 O3071 1.244 . S
Zn3043 O3045 2.046 . S
Zn3043 O3047 2.055 . S
Zn3043 N3049 2.036 . S
Zn3043 O3067 2.066 . S
Zn3043 O3071 2.053 . S
C3044 O3041 1.259 . S
C3044 O3045 1.254 . S
O3045 Zn3043 2.046 . S
O3045 C3044 1.254 . S
C3046 O3067 1.256 . S
C3046 O3068 1.244 . S
O3047 Zn3043 2.055 . S
O3047 C3069 1.259 . S
O3048 Zn3040 2.046 . S
O3048 C3069 1.254 . S
N3049 Zn3043 2.036 . S
N3049 C3050 1.298 . S
N3049 N3052 1.398 . S
C3050 N3049 1.298 . S
C3050 N3053 1.367 . S
C3050 C3063 1.481 . S
C3051 N3052 1.299 . S
C3051 N3053 1.379 . S
N3052 N3049 1.398 . S
N3052 C3051 1.299 . S
N3053 C3050 1.367 . S
N3053 C3051 1.379 . S
C3054 N3056 1.298 . S
C3054 N3058 1.367 1_455 S
C3054 C3062 1.481 . S
C3055 N3057 1.299 1_655 S
C3055 N3058 1.379 . S
N3056 Zn3040 2.036 . S
N3056 C3054 1.298 . S
N3056 N3057 1.398 . S
N3057 C3055 1.299 1_455 S
N3057 N3056 1.398 . S
N3058 C3054 1.367 1_655 S
N3058 C3055 1.379 . S
H3059 C3062 0.980 . S
H3060 C3062 0.981 . S
H3061 C3062 0.981 . S
C3062 C3054 1.481 . S
C3062 H3059 0.980 . S
C3062 H3060 0.981 . S
C3062 H3061 0.981 . S
C3063 C3050 1.481 . S
C3063 H3064 0.980 . S
C3063 H3065 0.981 . S
C3063 H3066 0.981 . S
H3064 C3063 0.980 . S
H3065 C3063 0.981 . S
H3066 C3063 0.981 . S
O3067 Zn3043 2.066 . S
O3067 C3046 1.256 . S
O3068 Zn3040 2.053 . S
O3068 C3046 1.244 . S
C3069 O3047 1.259 . S
C3069 O3048 1.254 . S
O3070 Zn3040 2.066 . S
O3070 C3042 1.256 . S
O3071 C3042 1.244 . S
O3071 Zn3043 2.053 . S
C2429 C29 2.366 . S
C772 C61 2.366 1_655 S
C93 C2365 2.366 . S
C125 C836 2.366 . S
C157 C2468 2.366 . S
C989 C164 2.366 . S
C196 C2557 2.366 . S
C253 C925 2.366 1_455 S
C285 C2909 2.366 . S
C1405 C317 2.366 . S
C1437 C349 2.366 . S
C1341 C356 2.366 1_554 S
C388 C3012 2.366 . S
C445 C2820 2.366 . S
C3044 C452 2.366 . S
C509 C2980 2.366 1_554 S
C541 C2621 2.366 . S
C1252 C573 2.366 . S
C2717 C605 2.366 . S
C612 C1213 2.366 . S
C644 C1245 2.366 1_545 S
C701 C2660 2.366 . S
C733 C2564 2.366 . S
C2628 C765 2.366 . S
C797 C1661 2.366 . S
C829 C4 2.366 1_655 S
C861 C1597 2.366 . S
C68 C868 2.366 . S
C1725 C900 2.366 . S
C957 C221 2.366 . S
C1789 C964 2.366 . S
C996 C132 2.366 1_655 S
C1028 C2141 2.366 . S
C1060 C637 2.366 . S
C1117 C669 2.366 . S
C548 C1149 2.366 1_556 S
C2244 C1181 2.366 . S
C1188 C2077 2.366 . S
C1220 C2276 2.366 . S
C2237 C1277 2.366 1_554 S
C1309 C1828 2.366 . S
C1316 C484 2.366 . S
C1924 C1348 2.366 . S
C1380 C420 2.366 . S
C1412 C477 2.366 1_565 S
C1892 C1444 2.366 . S
C1796 C1501 2.366 . S
C1885 C1533 2.366 . S
C1565 C893 2.366 . S
C2308 C1572 2.366 . S
C804 C1629 2.366 . S
C2372 C1636 2.366 1_455 S
C1693 C932 2.366 . S
C1700 C2525 2.366 1_655 S
C1021 C1732 2.366 . S
C2461 C1764 2.366 . S
C1373 C1821 2.366 . S
C1853 C2941 2.366 1_556 S
C1860 C2973 2.366 . S
C2877 C1917 2.366 . S
C1476 C1949 2.366 . S
C1284 C1981 2.366 1_556 S
C1508 C1988 2.366 . S
C1469 C2045 2.366 . S
C1085 C2052 2.366 . S
C2788 C2084 2.366 . S
C2116 C1156 2.366 1_565 S
C2749 C2148 2.366 . S
C2781 C2180 2.366 . S
C2212 C1124 2.366 . S
C2269 C1053 2.366 1_545 S
C2301 C1092 2.366 1_565 S
C2333 C100 2.366 . S
C1540 C2340 2.366 . S
C2397 C36 2.366 . S
C2404 C1604 2.366 1_455 S
C2436 C189 2.366 . S
C1757 C2493 2.366 1_655 S
C228 C2500 2.366 . S
C2532 C1668 2.366 . S
C580 C2589 2.366 . S
C2173 C2596 2.366 1_556 S
C2653 C2205 2.366 . S
C2685 C2109 2.366 . S
C2692 C708 2.366 . S
C2724 C516 2.366 1_556 S
C2756 C740 2.366 . S
C676 C2813 2.366 . S
C292 C2845 2.366 . S
C2852 C2020 2.366 . S
C2884 C413 2.366 1_545 S
C2916 C1956 2.366 . S
C2013 C2948 2.366 . S
C381 C3005 2.366 . S
C260 C3037 2.366 1_545 S
C3069 C324 2.366 1_545 S
N18 N653 1.429 . S
N2093 N50 1.429 . S
N82 N2125 1.429 . S
N114 N2157 1.429 . S
N146 N2290 1.429 . S
N173 N690 1.429 . S
N2258 N205 1.429 . S
N530 N242 1.429 . S
N274 N498 1.429 . S
N397 N306 1.429 . S
N338 N434 1.429 . S
N365 N461 1.429 . S
N562 N1581 1.429 . S
N594 N1618 1.429 . S
N621 N1645 1.429 . S
N722 N1741 1.429 . S
N1682 N754 1.429 . S
N786 N1421 1.429 . S
N818 N2861 1.429 . S
N2893 N850 1.429 . S
N2925 N877 1.429 . S
N909 N3058 1.429 . S
N946 N1453 1.429 . S
N3026 N973 1.429 . S
N1005 N1298 1.429 . S
N1266 N1037 1.429 . S
N1170 N1069 1.429 . S
N1197 N1106 1.429 . S
N1138 N1229 1.429 . S
N1325 N2349 1.429 . S
N2386 N1357 1.429 . S
N2413 N1389 1.429 . S
N1490 N2509 1.429 . S
N2445 N1522 1.429 . S
N2189 N1554 1.429 . S
N2221 N1709 1.429 . S
N2061 N1773 1.429 . S
N1810 N2034 1.429 . S
N1842 N1938 1.429 . S
N1970 N1869 1.429 . S
N1997 N1906 1.429 . S
N2322 N2957 1.429 . S
N2994 N2482 1.429 . S
N2541 N2834 1.429 . S
N2578 N2802 1.429 . S
N2701 N2605 1.429 . S
N2733 N2642 1.429 . S
N2674 N2765 1.429 . S
N13 C1382 1.275 . S
C1414 N45 1.275 . S
C1318 N77 1.286 . S
C2886 N109 1.275 . S
N141 C2978 1.286 . S
C3010 N178 1.275 . S
N210 C2818 1.275 . S
C3042 N237 1.275 . S
C834 N269 1.275 . S
C2406 N301 1.275 . S
N333 C770 1.286 . S
C2342 N370 1.275 . S
N402 C966 1.275 . S
N429 C2534 1.275 . S
N466 C902 1.286 . S
N493 C2466 1.275 . S
N525 C2694 1.275 . S
C1030 N557 1.286 . S
C2598 N589 1.275 . S
N626 C1090 1.286 . S
N658 C1122 1.275 . S
N685 C2758 1.275 . S
N717 C2786 1.275 . S
N749 C2726 1.275 . S
C614 N781 1.275 . S
N813 C646 1.275 . S
C546 N845 1.286 . S
N882 C2118 1.275 . S
N914 C2214 1.286 . S
C2242 N941 1.275 . S
C2054 N978 1.275 . S
N1010 C2274 1.275 . S
C66 N1042 1.275 . S
N1074 C1638 1.275 . S
N1101 C2 1.286 . S
C1574 N1133 1.275 . S
C198 N1165 1.275 . S
N1202 C1766 1.275 . S
N1234 C130 1.286 . S
C1702 N1261 1.275 . S
N1293 C1922 1.275 . S
N1330 C258 1.286 . S
C1826 N1362 1.275 . S
N1394 C322 1.286 . S
C358 N1426 1.275 . S
N1458 C1990 1.275 . S
C2018 N1485 1.275 . S
C1954 N1517 1.275 . S
C2918 N1549 1.286 . S
C2950 N1586 1.275 . S
N1613 C2854 1.275 . S
N1650 C1350 1.275 . S
N1677 C1446 1.275 . S
N1714 C1474 1.275 . S
C1282 N1746 1.286 . S
C1506 N1778 1.275 . S
N1805 C2370 1.286 . S
N1837 C870 1.275 . S
N1874 C2306 1.275 . S
N1901 C802 1.275 . S
N1933 C2502 1.286 . S
N1965 C998 1.275 . S
N2002 C2438 1.275 . S
N2029 C930 1.275 . S
C1154 N2066 1.286 . S
C2562 N2098 1.275 . S
C1062 N2130 1.275 . S
C2626 N2162 1.275 . S
N2194 C2658 1.275 . S
N2226 C1222 1.286 . S
N2253 C1250 1.275 . S
N2285 C1190 1.275 . S
C2150 N2317 1.286 . S
C2182 N2354 1.275 . S
N2381 C2086 1.275 . S
N2418 C578 1.275 . S
C674 N2450 1.275 . S
N2477 C706 1.275 . S
C514 N2514 1.286 . S
C738 N2546 1.275 . S
N2573 C1602 1.286 . S
N2610 C98 1.275 . S
N2637 C1538 1.275 . S
N2669 C34 1.275 . S
C1734 N2706 1.286 . S
C226 N2738 1.275 . S
C1666 N2770 1.275 . S
N2797 C166 1.275 . S
C390 N2829 1.286 . S
N2866 C1794 1.275 . S
N2898 C290 1.275 . S
C1862 N2930 1.275 . S
N2962 C1890 1.275 . S
N2989 C454 1.286 . S
C482 N3021 1.275 . S
N3053 C418 1.275 . S
C6 C294 0.884 . S
C326 C38 0.884 . S
C70 C354 0.884 . S
C262 C102 0.884 . S
C486 C134 0.884 . S
C386 C162 0.884 . S
C194 C422 0.884 . S
C230 C450 0.884 . S
C518 C582 0.884 . S
C2246 C550 0.884 . S
C610 C2278 0.884 . S
C2210 C642 0.884 . S
C2178 C678 0.884 . S
C710 C2082 0.884 . S
C742 C2146 0.884 . S
C1058 C774 0.884 . S
C806 C1094 0.884 . S
C838 C1126 0.884 . S
C1026 C866 0.884 . S
C1254 C898 0.884 . S
C1158 C934 0.884 . S
C1186 C962 0.884 . S
C1218 C994 0.884 . S
C1346 C1286 0.884 . S
C1314 C3014 0.884 . S
C1378 C3046 0.884 . S
C1410 C2982 0.884 . S
C2946 C1442 0.884 . S
C2850 C1478 0.884 . S
C2914 C1510 0.884 . S
C1542 C1830 0.884 . S
C1570 C1858 0.884 . S
C1606 C1894 0.884 . S
C1634 C1798 0.884 . S
C2022 C1670 0.884 . S
C1698 C1926 0.884 . S
C1958 C1730 0.884 . S
C1986 C1762 0.884 . S
C2114 C2050 0.884 . S
C2310 C2594 0.884 . S
C2630 C2338 0.884 . S
C2374 C2662 0.884 . S
C2566 C2402 0.884 . S
C2434 C2790 0.884 . S
C2690 C2470 0.884 . S
C2498 C2722 0.884 . S
C2530 C2754 0.884 . S
C2822 C2882 0.884 . S
