# Generated by pormake.
# Topology lvt, (4)-cn, num edge types: 1
# Building blocks:
#     Node 0, Type 0, BuildingBlock: ESEHIV_clean_sbu_0, # of connection points: 4
#     Node 1, Type 0, BuildingBlock: ESEHIV_clean_sbu_0, # of connection points: 4
#     Node 2, Type 0, BuildingBlock: ESEHIV_clean_sbu_0, # of connection points: 4
#     Node 3, Type 0, BuildingBlock: ESEHIV_clean_sbu_0, # of connection points: 4
#     Node 4, Type 0, BuildingBlock: ESEHIV_clean_sbu_0, # of connection points: 4
#     Node 5, Type 0, BuildingBlock: ESEHIV_clean_sbu_0, # of connection points: 4
#     Node 6, Type 0, BuildingBlock: ESEHIV_clean_sbu_0, # of connection points: 4
#     Node 7, Type 0, BuildingBlock: ESEHIV_clean_sbu_0, # of connection points: 4
#     Edge 8, Type (0, 0), BuildingBlock: TEMPAE_clean_linker_10, # of connection points: 2
#     Edge 9, Type (0, 0), BuildingBlock: TEMPAE_clean_linker_10, # of connection points: 2
#     Edge 10, Type (0, 0), BuildingBlock: TEMPAE_clean_linker_10, # of connection points: 2
#     Edge 11, Type (0, 0), BuildingBlock: TEMPAE_clean_linker_10, # of connection points: 2
#     Edge 12, Type (0, 0), BuildingBlock: TEMPAE_clean_linker_10, # of connection points: 2
#     Edge 13, Type (0, 0), BuildingBlock: TEMPAE_clean_linker_10, # of connection points: 2
#     Edge 14, Type (0, 0), BuildingBlock: TEMPAE_clean_linker_10, # of connection points: 2
#     Edge 15, Type (0, 0), BuildingBlock: TEMPAE_clean_linker_10, # of connection points: 2
#     Edge 16, Type (0, 0), BuildingBlock: TEMPAE_clean_linker_10, # of connection points: 2
#     Edge 17, Type (0, 0), BuildingBlock: TEMPAE_clean_linker_10, # of connection points: 2
#     Edge 18, Type (0, 0), BuildingBlock: TEMPAE_clean_linker_10, # of connection points: 2
#     Edge 19, Type (0, 0), BuildingBlock: TEMPAE_clean_linker_10, # of connection points: 2
#     Edge 20, Type (0, 0), BuildingBlock: TEMPAE_clean_linker_10, # of connection points: 2
#     Edge 21, Type (0, 0), BuildingBlock: TEMPAE_clean_linker_10, # of connection points: 2
#     Edge 22, Type (0, 0), BuildingBlock: TEMPAE_clean_linker_10, # of connection points: 2
#     Edge 23, Type (0, 0), BuildingBlock: TEMPAE_clean_linker_10, # of connection points: 2
# Relax obj value: 0.002
# Max RMSD: 0.099
# Mean RMSD: 0.094
data_MOF--net-lvt--node1-ESEHIV_clean_sbu_0--edge1-TEMPAE_clean_linker_10
_symmetry_space_group_name_H-M    P1
_symmetry_Int_Tables_number       1
_symmetry_cell_setting            triclinic
loop_
_symmetry_equiv_pos_as_xyz
'x, y, z'
_cell_length_a     39.044385
_cell_length_b     38.982305
_cell_length_c     32.659548
_cell_angle_alpha  97.007462
_cell_angle_beta   89.419653
_cell_angle_gamma 95.307852
loop_
_atom_site_label
_atom_site_type_symbol
_atom_site_fract_x
_atom_site_fract_y
_atom_site_fract_z
_atom_type_partial_charge
Cu0 Cu 0.07241 0.0444 0.56035 0.0
N1 N 0.09532 0.04534 0.61068 0.0
N2 N 0.11816 0.02336 0.66354 0.0
C3 C 0.10354 1.01647 0.62573 0.0
C4 C 0.11933 0.05827 0.67243 0.0
C5 C 0.10517 0.07173 0.63983 0.0
O6 O 0.04604 0.99898 0.55467 0.0
C7 C 0.1372 0.05693 0.51935 0.0
O8 O 0.15162 0.04931 0.55285 0.0
H9 H 0.0989 0.99083 0.60886 0.0
H10 H 0.10185 0.09872 0.63781 0.0
N11 N 0.04294 0.07969 0.5604 0.0
N12 N 1.009 0.11485 0.53403 0.0
C13 C 0.02999 0.08921 0.52583 0.0
C14 C 0.02992 0.10015 0.59178 0.0
C15 C 1.00901 0.12195 0.57558 0.0
C16 C 1.01339 0.99541 0.55817 0.0
O17 O 0.99583 1.02198 0.55439 0.0
H18 H 0.03596 0.0774 0.49517 0.0
H19 H 0.0349 0.09902 0.62408 0.0
O20 O 0.10459 0.05265 0.5157 0.0
H21 H 0.12902 0.0731 0.70077 0.0
H22 H 0.99433 0.14093 0.5931 0.0
Cu23 Cu 0.26807 0.7655 0.82078 0.0
N24 N 0.2362 0.79843 0.83289 0.0
N25 N 0.20689 0.84325 0.82147 0.0
C26 C 0.22705 0.81871 0.80505 0.0
C27 C 0.20304 0.83786 0.86147 0.0
C28 C 0.2213 0.81031 0.86847 0.0
O29 O 0.25221 0.73697 0.76968 0.0
C30 C 0.32322 0.8063 0.85604 0.0
O31 O 0.30484 0.79964 0.8885 0.0
H32 H 0.23565 0.81564 0.77334 0.0
H33 H 0.22447 0.80051 0.89766 0.0
N34 N 0.27254 0.73497 0.8602 0.0
N35 N 0.2989 0.6986 0.89476 0.0
C36 C 0.30151 0.71948 0.86459 0.0
C37 C 0.25048 0.72335 0.88842 0.0
C38 C 0.26668 0.70079 0.90976 0.0
C39 C 0.22086 0.72435 0.77091 0.0
O40 O 0.20334 0.73129 0.80501 0.0
H41 H 0.32405 0.72332 0.84552 0.0
H42 H 0.22457 0.73072 0.89316 0.0
O43 O 0.31233 0.79338 0.82015 0.0
H44 H 0.18918 0.85348 0.8845 0.0
H45 H 0.25572 0.68746 0.93469 0.0
Cu46 Cu 0.53499 0.05725 1.00172 0.0
N47 N 0.56829 0.05277 0.95979 0.0
N48 N 0.60409 0.02542 0.91559 0.0
C49 C 0.58536 0.02429 0.95051 0.0
C50 C 0.59877 0.05611 0.90259 0.0
C51 C 0.57671 0.07292 0.92991 0.0
O52 O 0.50554 1.01334 0.99455 0.0
C53 C 0.57889 0.09777 0.05617 0.0
O54 O 0.58086 0.11436 0.02341 0.0
H55 H 0.58242 1.00223 0.96784 0.0
H56 H 0.56652 0.09744 0.92729 0.0
N57 N 0.5064 0.09289 0.99759 0.0
N58 N 0.46924 0.13212 0.01809 0.0
C59 C 0.4922 0.11137 0.03 0.0
C60 C 0.49201 0.10234 0.96392 0.0
C61 C 0.46907 0.1265 0.97646 0.0
C62 C 0.49667 1.00258 0.95727 0.0
O63 O 0.50666 1.02159 0.92804 0.0
H64 H 0.49744 0.10839 0.0618 0.0
H65 H 0.49697 0.09162 0.93253 0.0
O66 O 0.55943 0.06942 0.05438 0.0
H67 H 0.60954 0.06551 0.87494 0.0
H68 H 0.45316 0.13862 0.95649 0.0
Cu69 Cu 0.30727 0.30211 0.2975 0.0
N70 N 0.30278 0.27498 0.34118 0.0
N71 N 0.28179 0.23556 0.38157 0.0
C72 C 0.2797 0.24745 0.34455 0.0
C73 C 0.30724 0.25626 0.40208 0.0
C74 C 0.3202 0.2804 0.37708 0.0
O75 O 0.26431 0.32441 0.29578 0.0
C76 C 0.32492 0.28114 0.21247 0.0
O77 O 0.3196 0.31284 0.20603 0.0
H78 H 0.26097 0.23714 0.32095 0.0
H79 H 0.34054 0.30085 0.38488 0.0
N80 N 0.34329 0.33741 0.30886 0.0
N81 N 0.38521 0.37847 0.29756 0.0
C82 C 0.36798 0.34786 0.28273 0.0
C83 C 0.34542 0.36198 0.34171 0.0
C84 C 0.37119 0.38729 0.33487 0.0
C85 C 0.26368 0.35532 0.28686 0.0
O86 O 0.29151 0.37064 0.27165 0.0
H87 H 0.37161 0.33469 0.25216 0.0
H88 H 0.32792 0.36258 0.36763 0.0
O89 O 0.31871 0.27162 0.24798 0.0
H90 H 0.31576 0.25416 0.43304 0.0
H91 H 0.37796 0.41109 0.35498 0.0
Cu92 Cu 0.79009 0.26553 0.29905 0.0
N93 N 0.79173 0.29489 0.25739 0.0
N94 N 0.77386 0.32728 0.21095 0.0
C95 C 0.76486 0.30232 0.23542 0.0
C96 C 0.80787 0.33563 0.21765 0.0
C97 C 0.81877 0.31567 0.24625 0.0
O98 O 0.75241 0.22937 0.28608 0.0
C99 C 0.78715 0.32569 0.35807 0.0
O100 O 0.77291 0.33964 0.32862 0.0
H101 H 0.73889 0.29081 0.23868 0.0
H102 H 0.84438 0.31695 0.25901 0.0
N103 N 0.83049 0.24343 0.30038 0.0
N104 N 0.8728 0.21837 0.32769 0.0
C105 C 0.84189 0.23106 0.33401 0.0
C106 C 0.85498 0.23842 0.27156 0.0
C107 C 0.88116 0.22299 0.28835 0.0
C108 C 0.7205 0.2338 0.28618 0.0
O109 O 0.7105 0.26391 0.30187 0.0
H110 H 0.82812 0.23237 0.363 0.0
H111 H 0.8541 0.24592 0.2408 0.0
O112 O 0.79035 0.29322 0.35307 0.0
H113 H 0.82374 0.35509 0.20335 0.0
H114 H 0.90445 0.21569 0.27274 0.0
Cu115 Cu 0.80332 0.79967 0.78783 0.0
N116 N 0.79821 0.77901 0.83691 0.0
N117 N 0.77478 0.74783 0.88534 0.0
C118 C 0.76956 0.76141 0.8499 0.0
C119 C 0.80821 0.75729 0.89478 0.0
C120 C 0.82254 0.77632 0.86491 0.0
O121 O 0.76939 0.83357 0.78724 0.0
C122 C 0.80381 0.76497 0.70399 0.0
O123 O 0.79436 0.79354 0.6917 0.0
H124 H 0.74552 0.75817 0.83325 0.0
H125 H 0.84914 0.78651 0.86314 0.0
N126 N 0.84612 0.82545 0.78593 0.0
N127 N 0.89121 0.85435 0.75839 0.0
C128 C 0.8633 0.83131 0.75109 0.0
C129 C 0.86374 0.84554 0.81654 0.0
C130 C 0.89163 0.86329 0.7997 0.0
C131 C 0.73672 0.82863 0.78886 0.0
O132 O 0.72187 0.79678 0.78492 0.0
H133 H 0.85435 0.82049 0.72067 0.0
H134 H 0.85606 0.84827 0.84859 0.0
O135 O 0.80444 0.76223 0.74243 0.0
H136 H 0.82187 0.74993 0.92053 0.0
H137 H 0.91013 0.88203 0.81654 0.0
Cu138 Cu 0.56155 0.5284 0.03446 0.0
N139 N 0.5276 0.5308 0.99461 0.0
N140 N 0.48374 0.55119 0.964 0.0
C141 C 0.50791 0.55745 0.99408 0.0
C142 C 0.48858 0.51927 0.94487 0.0
C143 C 0.51546 0.50677 0.96383 0.0
O144 O 0.59503 0.56881 0.03193 0.0
C145 C 0.5123 0.50376 0.08673 0.0
O146 O 0.50229 0.48645 0.05119 0.0
H147 H 0.51113 0.5808 0.01578 0.0
H148 H 0.52441 0.48135 0.95664 0.0
N149 N 0.58473 0.48786 0.02663 0.0
N150 N 0.61733 0.44704 0.04312 0.0
C151 C 0.60153 0.47568 0.05692 0.0
C152 C 0.58998 0.4661 0.99233 0.0
C153 C 0.61004 0.44096 1.00239 0.0
C154 C 0.61688 0.56676 1.0026 0.0
O155 O 0.61625 0.53789 0.97719 0.0
H156 H 0.60291 0.48836 0.08832 0.0
H157 H 0.58085 0.46878 0.96188 0.0
O158 O 0.53846 0.52601 0.08751 0.0
H159 H 0.47299 0.50528 0.91995 0.0
H160 H 0.61867 0.41996 0.98119 0.0
Cu161 Cu 0.02421 0.54965 0.49785 0.0
N162 N 0.99938 0.58866 0.49655 0.0
N163 N 0.96301 0.62847 0.51785 0.0
C164 C 0.97205 0.59616 0.52059 0.0
C165 C 0.98543 0.64172 0.49087 0.0
C166 C 1.00775 0.61717 0.47778 0.0
O167 O 0.05684 0.56194 0.54378 0.0
C168 C 0.9715 0.50247 0.46891 0.0
O169 O 0.97608 0.52234 0.43924 0.0
H170 H 0.96036 0.57905 0.54158 0.0
H171 H 0.02959 0.6206 0.45759 0.0
N172 N 0.04984 0.53894 0.44945 0.0
N173 N 0.08434 0.5104 0.40459 0.0
C174 C 0.07273 0.51483 0.44389 0.0
C175 C 0.04705 0.55029 0.41242 0.0
C176 C 0.06822 0.53276 0.38476 0.0
C177 C 0.08001 0.58632 0.53824 0.0
O178 O 0.08098 0.59864 0.50253 0.0
H179 H 0.07969 0.49989 0.46788 0.0
H180 H 0.02994 0.56911 0.40557 0.0
O181 O 0.99022 0.50976 0.50119 0.0
H182 H 0.98625 0.66768 0.4821 0.0
H183 H 0.0713 0.53607 0.35247 0.0
C184 C 0.19388 0.07762 0.48974 0.0
C185 C 0.15791 0.07717 0.49051 0.0
C186 C 0.21413 0.1008 0.46759 0.0
C187 C 0.19811 0.12473 0.4465 0.0
C188 C 0.16173 0.12332 0.44565 0.0
C189 C 0.14209 0.09933 0.46726 0.0
C190 C 0.25277 0.1008 0.46846 0.0
C191 C 0.14355 0.14866 0.42418 0.0
C192 C 0.25003 0.21125 0.43864 0.0
C193 C 0.26028 0.20794 0.3972 0.0
C194 C 0.22945 0.1846 0.45475 0.0
C195 C 0.21938 0.15339 0.42903 0.0
C196 C 0.22973 0.14982 0.38711 0.0
C197 C 0.24974 0.17732 0.37157 0.0
C198 C 0.21841 0.18992 0.49936 0.0
C199 C 0.22015 0.11677 0.3589 0.0
H200 H 0.2063 0.06047 0.50741 0.0
H201 H 0.11433 0.09939 0.46786 0.0
H202 H 0.26347 0.10106 0.43688 0.0
H203 H 0.26408 0.1246 0.48746 0.0
H204 H 0.26099 0.07787 0.48157 0.0
H205 H 0.11523 0.14221 0.42318 0.0
H206 H 0.14909 0.17519 0.44067 0.0
H207 H 0.15314 0.1492 0.39217 0.0
H208 H 0.25775 0.23506 0.45837 0.0
H209 H 0.25788 0.1746 0.33962 0.0
H210 H 0.22873 0.17025 0.5165 0.0
H211 H 0.18995 0.18637 0.50145 0.0
H212 H 0.22741 0.21614 0.51481 0.0
H213 H 0.23048 0.0946 0.37143 0.0
H214 H 0.2302 0.11807 0.32712 0.0
H215 H 0.19178 0.1113 0.35733 0.0
C216 C 0.11711 0.96324 0.68178 0.0
C217 C 0.12973 0.99845 0.68875 0.0
C218 C 0.12921 0.93846 0.70459 0.0
C219 C 0.15404 0.94902 0.73601 0.0
C220 C 0.16625 0.98457 0.74404 0.0
C221 C 0.15413 1.00876 0.72025 0.0
C222 C 0.11533 0.9009 0.6949 0.0
C223 C 0.1926 0.99699 0.77735 0.0
C224 C 0.16504 0.88684 0.81588 0.0
C225 C 0.194 0.87041 0.80086 0.0
C226 C 0.15205 0.91281 0.79556 0.0
C227 C 0.16825 0.92261 0.75918 0.0
C228 C 0.19761 0.90639 0.74407 0.0
C229 C 0.21017 0.88075 0.7651 0.0
C230 C 0.12071 0.92945 0.81273 0.0
C231 C 0.21545 0.91567 0.70513 0.0
H232 H 0.09764 0.95484 0.65846 0.0
H233 H 0.16434 0.03567 0.72591 0.0
H234 H 0.13643 0.88356 0.69321 0.0
H235 H 0.09763 0.89365 0.71986 0.0
H236 H 0.10105 0.89602 0.66525 0.0
H237 H 0.19816 0.02567 0.7813 0.0
H238 H 0.18345 0.9887 0.80721 0.0
H239 H 0.21694 0.98506 0.76966 0.0
H240 H 0.15209 0.87901 0.84316 0.0
H241 H 0.2329 0.86896 0.75346 0.0
H242 H 0.09921 0.92333 0.79031 0.0
H243 H 0.12615 0.9581 0.81748 0.0
H244 H 0.11221 0.92042 0.8425 0.0
H245 H 0.19725 0.91004 0.67877 0.0
H246 H 0.2383 0.90108 0.69772 0.0
H247 H 0.22378 0.94386 0.70824 0.0
C248 C 0.44595 0.95987 0.9668 0.0
C249 C 0.4758 0.96934 0.94524 0.0
C250 C 0.42302 0.93148 0.95072 0.0
C251 C 0.43069 0.9117 0.91282 0.0
C252 C 0.46188 0.92011 0.89233 0.0
C253 C 0.48374 0.94911 0.90846 0.0
C254 C 0.38981 0.92366 0.97324 0.0
C255 C 0.47169 0.89915 0.85269 0.0
C256 C 0.37966 0.8235 0.88997 0.0
C257 C 0.3544 0.83056 0.86281 0.0
C258 C 0.40562 0.84919 0.905 0.0
C259 C 0.40551 0.88314 0.89378 0.0
C260 C 0.38058 0.89006 0.86527 0.0
C261 C 0.35548 0.86351 0.84976 0.0
C262 C 0.43231 0.84032 0.93415 0.0
C263 C 0.37921 0.92599 0.85296 0.0
H264 H 0.43961 0.97578 0.99494 0.0
H265 H 0.50694 0.9564 0.89182 0.0
H266 H 0.3677 0.92697 0.95345 0.0
H267 H 0.38733 0.8963 0.97981 0.0
H268 H 0.38805 0.94084 1.0028 0.0
H269 H 0.49829 0.90699 0.84283 0.0
H270 H 0.46962 0.8711 0.85637 0.0
H271 H 0.45369 0.90254 0.82775 0.0
H272 H 0.37839 0.79808 0.90052 0.0
H273 H 0.33535 0.86915 0.82964 0.0
H274 H 0.42832 0.85389 0.96547 0.0
H275 H 0.4585 0.84928 0.92408 0.0
H276 H 0.4311 0.81198 0.93617 0.0
H277 H 0.37415 0.94437 0.8806 0.0
H278 H 0.35886 0.9269 0.82968 0.0
H279 H 0.40433 0.93522 0.84015 0.0
C280 C 0.36185 0.27281 0.14926 0.0
C281 C 0.34298 0.25845 0.18088 0.0
C282 C 0.38197 0.25249 0.12167 0.0
C283 C 0.38284 0.2167 0.12517 0.0
C284 C 0.36297 0.20182 0.15621 0.0
C285 C 0.34358 0.22289 0.18388 0.0
C286 C 0.40313 0.2696 0.08955 0.0
C287 C 0.36263 0.16369 0.16064 0.0
C288 C 0.41415 0.15808 0.03264 0.0
C289 C 0.4478 0.15376 0.04449 0.0
C290 C 0.39269 0.17825 0.0586 0.0
C291 C 0.40529 0.19507 0.09716 0.0
C292 C 0.43941 0.19116 0.10903 0.0
C293 C 0.46009 0.17036 0.08276 0.0
C294 C 0.35636 0.1812 0.04498 0.0
C295 C 0.45416 0.20906 0.14947 0.0
H296 H 0.36189 0.30031 0.14689 0.0
H297 H 0.32907 0.21153 0.20814 0.0
H298 H 0.43085 0.26732 0.09465 0.0
H299 H 0.39653 0.25624 0.0583 0.0
H300 H 0.39915 0.29752 0.09028 0.0
H301 H 0.34433 0.15568 0.18473 0.0
H302 H 0.35551 0.14786 0.13086 0.0
H303 H 0.38874 0.1577 0.16883 0.0
H304 H 0.40431 0.14498 1.0034 0.0
H305 H 0.48615 0.16743 0.09191 0.0
H306 H 0.3523 0.20881 0.04355 0.0
H307 H 0.33786 0.17145 0.06784 0.0
H308 H 0.35035 0.16635 0.01427 0.0
H309 H 0.45276 0.2375 0.15104 0.0
H310 H 0.48136 0.20405 0.15378 0.0
H311 H 0.43875 0.20009 0.1755 0.0
C312 C 1.01629 0.94393 0.59699 0.0
C313 C 0.99655 0.96571 0.5777 0.0
C314 C 1.00101 0.92116 0.62359 0.0
C315 C 0.96515 0.92017 0.63115 0.0
C316 C 0.9448 0.94005 0.60921 0.0
C317 C 0.96072 0.96252 0.58278 0.0
C318 C 0.02388 0.90027 0.64575 0.0
C319 C 0.90641 0.93941 0.61578 0.0
C320 C 0.91629 0.85131 0.68816 0.0
C321 C 0.91276 0.86944 0.72768 0.0
C322 C 0.9343 0.86695 0.65673 0.0
C323 C 0.94927 0.90156 0.66496 0.0
C324 C 0.94718 0.91942 0.70524 0.0
C325 C 0.92894 0.90322 0.73602 0.0
C326 C 0.93671 0.84673 0.61451 0.0
C327 C 0.96327 0.95618 0.71551 0.0
H328 H 0.04401 0.94608 0.59335 0.0
H329 H 0.94518 0.97897 0.56775 0.0
H330 H 0.03254 0.91556 0.67533 0.0
H331 H 1.01028 0.87541 0.65277 0.0
H332 H 0.04708 0.89455 0.62712 0.0
H333 H 0.89384 0.95358 0.59343 0.0
H334 H 0.89447 0.91228 0.61291 0.0
H335 H 0.90115 0.9516 0.64745 0.0
H336 H 0.90463 0.82492 0.68159 0.0
H337 H 0.92632 0.91761 0.76621 0.0
H338 H 0.96406 0.8462 0.60507 0.0
H339 H 0.92359 0.8597 0.5915 0.0
H340 H 0.92488 0.81961 0.61352 0.0
H341 H 0.99097 0.9577 0.70728 0.0
H342 H 0.9608 0.9659 0.74872 0.0
H343 H 0.9508 0.97366 0.69706 0.0
C344 C 0.97915 0.11103 0.46691 0.0
C345 C 0.98981 0.1303 0.5045 0.0
C346 C 0.96041 0.12552 0.43786 0.0
C347 C 0.95214 0.16029 0.44635 0.0
C348 C 0.96293 0.17998 0.48414 0.0
C349 C 0.98148 0.16473 0.51279 0.0
C350 C 0.94915 0.10347 0.39819 0.0
C351 C 0.95489 0.21721 0.49429 0.0
C352 C 0.92884 0.2063 0.35518 0.0
C353 C 0.89278 0.20381 0.35728 0.0
C354 C 0.94849 0.19262 0.38416 0.0
C355 C 0.93173 0.17578 0.41593 0.0
C356 C 0.89536 0.17313 0.41817 0.0
C357 C 0.87639 0.18721 0.38896 0.0
C358 C 0.98722 0.19623 0.38081 0.0
C359 C 0.8764 0.15512 0.45125 0.0
H360 H 0.98494 0.08428 0.46044 0.0
H361 H 0.9899 0.17992 0.5415 0.0
H362 H 0.92069 0.10117 0.39575 0.0
H363 H 0.95951 0.116 0.37137 0.0
H364 H 0.95786 0.07697 0.39608 0.0
H365 H 0.96554 0.22919 0.52466 0.0
H366 H 0.96557 0.23281 0.47011 0.0
H367 H 0.92663 0.21859 0.49468 0.0
H368 H 0.94178 0.21945 0.33122 0.0
H369 H 0.84857 0.18473 0.39056 0.0
H370 H 0.99694 0.17017 0.37641 0.0
H371 H 0.99865 0.21014 0.40985 0.0
H372 H 0.99637 0.21052 0.35477 0.0
H373 H 0.88251 0.12771 0.44885 0.0
H374 H 0.84808 0.15554 0.44903 0.0
H375 H 0.88494 0.16776 0.4822 0.0
C376 C 0.66214 0.21488 0.25483 0.0
C377 C 0.69615 0.2078 0.26133 0.0
C378 C 0.64079 0.19356 0.22574 0.0
C379 C 0.65369 0.16445 0.20241 0.0
C380 C 0.68716 0.15584 0.21087 0.0
C381 C 0.70791 0.17752 0.2402 0.0
C382 C 0.60523 0.20363 0.218 0.0
C383 C 0.70204 0.12511 0.18684 0.0
C384 C 0.59332 0.10028 0.13205 0.0
C385 C 0.59837 0.1133 0.094 0.0
C386 C 0.61107 0.11652 0.16778 0.0
C387 C 0.63446 0.14632 0.16531 0.0
C388 C 0.63981 0.15922 0.12686 0.0
C389 C 0.62178 0.14266 0.09193 0.0
C390 C 0.60454 0.10209 0.20823 0.0
C391 C 0.66454 0.19079 0.12253 0.0
H392 H 0.65263 0.23803 0.27105 0.0
H393 H 0.73402 0.17156 0.24506 0.0
H394 H 0.60491 0.21435 0.18807 0.0
H395 H 0.58612 0.18059 0.21596 0.0
H396 H 0.59709 0.22352 0.24256 0.0
H397 H 0.72629 0.11909 0.20078 0.0
H398 H 0.68334 0.10176 0.18499 0.0
H399 H 0.70757 0.13075 0.15482 0.0
H400 H 0.57522 0.07774 0.13404 0.0
H401 H 0.62607 0.15298 0.06277 0.0
H402 H 0.59416 0.12198 0.23102 0.0
H403 H 0.62904 0.0956 0.22098 0.0
H404 H 0.58609 0.07845 0.20499 0.0
H405 H 0.65642 0.21357 0.14279 0.0
H406 H 0.66609 0.19731 0.09034 0.0
H407 H 0.69067 0.18632 0.1325 0.0
C408 C 0.63825 0.97526 0.91805 0.0
C409 C 0.62332 0.99821 0.89512 0.0
C410 C 0.65629 0.94815 0.89867 0.0
C411 C 0.6594 0.94354 0.85511 0.0
C412 C 0.64441 0.96662 0.83173 0.0
C413 C 0.62671 0.9937 0.85198 0.0
C414 C 0.67214 0.92444 0.9249 0.0
C415 C 0.64682 0.9625 0.78526 0.0
C416 C 0.73277 0.89224 0.81099 0.0
C417 C 0.71622 0.85869 0.80128 0.0
C418 C 0.71448 0.9202 0.82746 0.0
C419 C 0.6786 0.91472 0.83428 0.0
C420 C 0.66148 0.88125 0.82305 0.0
C421 C 0.68046 0.85368 0.80681 0.0
C422 C 0.73382 0.95537 0.83897 0.0
C423 C 0.62324 0.8743 0.82943 0.0
H424 H 0.63614 0.97875 0.95136 0.0
H425 H 0.61488 1.01094 0.83391 0.0
H426 H 0.66136 0.89723 0.91608 0.0
H427 H 0.70029 0.9254 0.91947 0.0
H428 H 0.66757 0.93154 0.95836 0.0
H429 H 0.63382 0.98255 0.77152 0.0
H430 H 0.67419 0.96417 0.77562 0.0
H431 H 0.63497 0.9365 0.77241 0.0
H432 H 0.76035 0.89656 0.80691 0.0
H433 H 0.66733 0.82796 0.79943 0.0
H434 H 0.73253 0.96263 0.87284 0.0
H435 H 0.72175 0.97544 0.82423 0.0
H436 H 0.76129 0.95588 0.82968 0.0
H437 H 0.61735 0.87781 0.86291 0.0
H438 H 0.61335 0.84759 0.81645 0.0
H439 H 0.60921 0.89314 0.81487 0.0
C440 C 0.67215 0.58989 0.97341 0.0
C441 C 0.64148 0.59648 0.9944 0.0
C442 C 0.69402 0.61682 0.95984 0.0
C443 C 0.6848 0.65133 0.96672 0.0
C444 C 0.65451 0.65841 0.98935 0.0
C445 C 0.63329 0.63087 1.00325 0.0
C446 C 0.72634 0.60805 0.93659 0.0
C447 C 0.64362 0.69477 0.99706 0.0
C448 C 0.75621 0.72134 0.94835 0.0
C449 C 0.75064 0.72581 0.90692 0.0
C450 C 0.73428 0.69824 0.9688 0.0
C451 C 0.70582 0.67922 0.94755 0.0
C452 C 0.69922 0.68459 0.90635 0.0
C453 C 0.72169 0.70761 0.88655 0.0
C454 C 0.74232 0.69328 1.01269 0.0
C455 C 0.66908 0.66498 0.88253 0.0
H456 H 0.67876 0.56337 0.96676 0.0
H457 H 0.60948 0.63607 0.01917 0.0
H458 H 0.72412 0.61317 0.90409 0.0
H459 H 0.74892 0.62473 0.95026 0.0
H460 H 0.73124 0.58044 0.93674 0.0
H461 H 0.6214 0.69655 0.01849 0.0
H462 H 0.66529 0.71316 1.01003 0.0
H463 H 0.63628 0.70322 0.96738 0.0
H464 H 0.77796 0.73566 0.96484 0.0
H465 H 0.71703 0.71037 0.85459 0.0
H466 H 0.74976 0.6666 1.01366 0.0
H467 H 0.7192 0.69614 0.03239 0.0
H468 H 0.7636 0.71206 0.02608 0.0
H469 H 0.67304 0.63697 0.87717 0.0
H470 H 0.66562 0.67435 0.85218 0.0
H471 H 0.64502 0.66748 0.90058 0.0
C472 C 0.72073 0.32511 0.16936 0.0
C473 C 0.75127 0.34336 0.18563 0.0
C474 C 0.69811 0.34074 0.14562 0.0
C475 C 0.70608 0.37558 0.13791 0.0
C476 C 0.73692 0.39409 0.15404 0.0
C477 C 0.75909 0.37779 0.17759 0.0
C478 C 0.66564 0.31997 0.12884 0.0
C479 C 0.74637 0.4313 0.14677 0.0
C480 C 0.66459 0.40919 0.0472 0.0
C481 C 0.63876 0.42809 0.06664 0.0
C482 C 0.68628 0.39158 0.06987 0.0
C483 C 0.68219 0.39283 0.11316 0.0
C484 C 0.65589 0.41143 0.13292 0.0
C485 C 0.63453 0.42875 0.10949 0.0
C486 C 0.71399 0.3721 0.04754 0.0
C487 C 0.65051 0.41335 0.17897 0.0
H488 H 0.71461 0.2984 0.1749 0.0
H489 H 0.78226 0.39235 0.19044 0.0
H490 H 0.64283 0.33299 0.14076 0.0
H491 H 0.66513 0.31864 0.09472 0.0
H492 H 0.66327 0.2931 0.13731 0.0
H493 H 0.77145 0.44198 0.161 0.0
H494 H 0.74776 0.43325 0.11318 0.0
H495 H 0.72619 0.44773 0.15974 0.0
H496 H 0.66845 0.40876 0.01429 0.0
H497 H 0.61436 0.44272 0.12481 0.0
H498 H 0.71143 0.34471 0.05405 0.0
H499 H 0.73967 0.38375 0.05886 0.0
H500 H 0.71298 0.37247 1.01361 0.0
H501 H 0.64594 0.38681 0.1881 0.0
H502 H 0.62843 0.42818 0.18955 0.0
H503 H 0.67403 0.42593 0.1953 0.0
C504 C 0.836 0.33598 0.40889 0.0
C505 C 0.80839 0.34861 0.38988 0.0
C506 C 0.86168 0.35879 0.43028 0.0
C507 C 0.85955 0.39509 0.43319 0.0
C508 C 0.82991 0.40769 0.41781 0.0
C509 C 0.80484 0.38436 0.39614 0.0
C510 C 0.89268 0.34409 0.4462 0.0
C511 C 0.82612 0.4461 0.42091 0.0
C512 C 0.92442 0.46133 0.49433 0.0
C513 C 0.94572 0.4719 0.46249 0.0
C514 C 0.89667 0.43553 0.48578 0.0
C515 C 0.8906 0.41978 0.44464 0.0
C516 C 0.91337 0.42919 0.41301 0.0
C517 C 0.94031 0.45522 0.42227 0.0
C518 C 0.87295 0.42641 0.52033 0.0
C519 C 0.90853 0.41274 0.36884 0.0
H520 H 0.83906 0.30841 0.40443 0.0
H521 H 0.78345 0.39438 0.38201 0.0
H522 H 0.91453 0.34781 0.4247 0.0
H523 H 0.90067 0.35781 0.47685 0.0
H524 H 0.88769 0.31589 0.44868 0.0
H525 H 0.79949 0.45142 0.41382 0.0
H526 H 0.83314 0.459 0.45225 0.0
H527 H 0.84386 0.45795 0.3987 0.0
H528 H 0.92837 0.47436 0.52541 0.0
H529 H 0.95694 0.46307 0.39762 0.0
H530 H 0.86757 0.39786 0.5191 0.0
H531 H 0.848 0.43727 0.51681 0.0
H532 H 0.8838 0.43697 0.5511 0.0
H533 H 0.90681 0.38404 0.36727 0.0
H534 H 0.92986 0.4212 0.34852 0.0
H535 H 0.88407 0.41973 0.35652 0.0
C536 C 0.84436 0.71863 0.68993 0.0
C537 C 0.82158 0.73999 0.67478 0.0
C538 C 0.86558 0.69888 0.66327 0.0
C539 C 0.86356 0.69972 0.62013 0.0
C540 C 0.83934 0.71977 0.60445 0.0
C541 C 0.81897 0.73998 0.63194 0.0
C542 C 0.89144 0.67851 0.68152 0.0
C543 C 0.83572 0.72076 0.55867 0.0
C544 C 0.94403 0.68177 0.55691 0.0
C545 C 0.9375 0.64645 0.54217 0.0
C546 C 0.92012 0.69939 0.58195 0.0
C547 C 0.88843 0.6815 0.59192 0.0
C548 C 0.88135 0.646 0.5763 0.0
C549 C 0.90613 0.62881 0.55208 0.0
C550 C 0.92914 0.737 0.59856 0.0
C551 C 0.84764 0.62615 0.58535 0.0
H552 H 0.84691 0.7186 0.72294 0.0
H553 H 0.80147 0.75633 0.61989 0.0
H554 H 0.88855 0.65103 0.66746 0.0
H555 H 0.91787 0.68928 0.67456 0.0
H556 H 0.88874 0.67925 0.71551 0.0
H557 H 0.81318 0.73429 0.55118 0.0
H558 H 0.85922 0.73443 0.54675 0.0
H559 H 0.83304 0.69402 0.54218 0.0
H560 H 0.96839 0.69541 0.54981 0.0
H561 H 0.90087 0.60161 0.54044 0.0
H562 H 0.92904 0.73999 0.63279 0.0
H563 H 0.90955 0.75316 0.5887 0.0
H564 H 0.95479 0.74721 0.58795 0.0
H565 H 0.84527 0.62464 0.61897 0.0
H566 H 0.84521 0.59935 0.56893 0.0
H567 H 0.82586 0.63996 0.5762 0.0
C568 C 0.51357 0.49295 0.16096 0.0
C569 C 0.49503 0.49385 0.12463 0.0
C570 C 0.49835 0.47699 0.19403 0.0
C571 C 0.46378 0.46209 0.19065 0.0
C572 C 0.4445 0.46495 0.15495 0.0
C573 C 0.46042 0.48054 0.12236 0.0
C574 C 0.51979 0.47436 0.23148 0.0
C575 C 0.40745 0.44997 0.1502 0.0
C576 C 0.42953 0.38457 0.24376 0.0
C577 C 0.4087 0.39987 0.27472 0.0
C578 C 0.44929 0.40478 0.21778 0.0
C579 C 0.4481 0.44128 0.22267 0.0
C580 C 0.42853 0.45708 0.25523 0.0
C581 C 0.40911 0.43621 0.28088 0.0
C582 C 0.47003 0.38685 0.1837 0.0
C583 C 0.42639 0.49583 0.26143 0.0
H584 H 0.54046 0.50285 0.16261 0.0
H585 H 0.44598 0.48134 0.09435 0.0
H586 H 0.50558 0.48225 0.26016 0.0
H587 H 0.52521 0.44697 0.23202 0.0
H588 H 0.54468 0.49069 0.23159 0.0
H589 H 0.39531 0.45681 0.12204 0.0
H590 H 0.40607 0.42127 0.14841 0.0
H591 H 0.39222 0.45943 0.17743 0.0
H592 H 0.42977 0.35659 0.23924 0.0
H593 H 0.39289 0.44833 0.30442 0.0
H594 H 0.49665 0.39957 0.18362 0.0
H595 H 0.45832 0.38901 0.15341 0.0
H596 H 0.47118 0.3589 0.1867 0.0
H597 H 0.45241 0.50982 0.26064 0.0
H598 H 0.41388 0.50452 0.29111 0.0
H599 H 0.41128 0.5034 0.23592 0.0
C600 C 0.31646 0.64696 0.92375 0.0
C601 C 0.32524 0.67835 0.9076 0.0
C602 C 0.34197 0.62631 0.9344 0.0
C603 C 0.37719 0.63735 0.92902 0.0
C604 C 0.3862 0.6694 0.91363 0.0
C605 C 0.3602 0.68942 0.90311 0.0
C606 C 0.33121 0.5923 0.95063 0.0
C607 C 0.42336 0.68239 0.90776 0.0
C608 C 0.44565 0.59766 0.98612 0.0
C609 C 0.45725 0.57303 0.9553 0.0
C610 C 0.4196 0.61864 0.97811 0.0
C611 C 0.4046 0.61498 0.93831 0.0
C612 C 0.41617 0.59022 0.90708 0.0
C613 C 0.44228 0.56966 0.91591 0.0
C614 C 0.40807 0.6447 1.0123 0.0
C615 C 0.40103 0.58554 0.86418 0.0
H616 H 0.28959 0.63806 0.92706 0.0
H617 H 0.36731 0.71393 0.89145 0.0
H618 H 0.33987 0.57053 0.92911 0.0
H619 H 0.34369 0.59155 0.98083 0.0
H620 H 0.3029 0.58799 0.95446 0.0
H621 H 0.42613 0.70838 0.89677 0.0
H622 H 0.43763 0.68393 0.93723 0.0
H623 H 0.4357 0.66388 0.88501 0.0
H624 H 0.45655 0.60025 0.0168 0.0
H625 H 0.45125 0.55115 0.89168 0.0
H626 H 0.38019 0.63914 0.01817 0.0
H627 H 0.41184 0.6712 1.00293 0.0
H628 H 0.42231 0.64445 0.04152 0.0
H629 H 0.37282 0.57896 0.86561 0.0
H630 H 0.41241 0.56479 0.84352 0.0
H631 H 0.40534 0.61019 0.85033 0.0
C632 C 0.22077 0.6817 0.70609 0.0
C633 C 0.20312 0.70297 0.73519 0.0
C634 C 0.20286 0.65982 0.6741 0.0
C635 C 0.16665 0.65994 0.67059 0.0
C636 C 0.14895 0.68184 0.69962 0.0
C637 C 0.16729 0.70267 0.73167 0.0
C638 C 0.22259 0.63641 0.64422 0.0
C639 C 0.11059 0.68371 0.69654 0.0
C640 C 0.12193 0.63544 0.56693 0.0
C641 C 0.10383 0.60326 0.57163 0.0
C642 C 0.14318 0.65351 0.59832 0.0
C643 C 0.14718 0.63894 0.63539 0.0
C644 C 0.13002 0.60586 0.63987 0.0
C645 C 0.10823 0.58856 0.60812 0.0
C646 C 0.1602 0.68899 0.59241 0.0
C647 C 0.13408 0.58913 0.67861 0.0
H648 H 0.24839 0.68153 0.70893 0.0
H649 H 0.15347 0.71919 0.75391 0.0
H650 H 0.21155 0.60909 0.64377 0.0
H651 H 0.2202 0.64344 0.61254 0.0
H652 H 0.25032 0.63806 0.65225 0.0
H653 H 0.1007 0.70211 0.72157 0.0
H654 H 0.10423 0.69203 0.66643 0.0
H655 H 0.09684 0.65768 0.69793 0.0
H656 H 0.11872 0.64721 0.53898 0.0
H657 H 0.09459 0.56366 0.61194 0.0
H658 H 0.1883 0.69011 0.59777 0.0
H659 H 0.14992 0.70888 0.6153 0.0
H660 H 0.15587 0.69596 0.56101 0.0
H661 H 0.16175 0.58927 0.68616 0.0
H662 H 0.12211 0.56195 0.67565 0.0
H663 H 0.12192 0.60423 0.70492 0.0
C664 C 0.20454 0.36085 0.31759 0.0
C665 C 0.23421 0.37596 0.29973 0.0
C666 C 0.17831 0.38116 0.33369 0.0
C667 C 0.18193 0.41755 0.33238 0.0
C668 C 0.21142 0.43277 0.31353 0.0
C669 C 0.23699 0.41185 0.29728 0.0
C670 C 0.14707 0.36378 0.35293 0.0
C671 C 0.21653 0.47143 0.31161 0.0
C672 C 0.10491 0.47152 0.34554 0.0
C673 C 0.10798 0.48611 0.38699 0.0
C674 C 0.12814 0.44846 0.32771 0.0
C675 C 0.1555 0.44001 0.35167 0.0
C676 C 0.15852 0.45435 0.39367 0.0
C677 C 0.13463 0.47699 0.41085 0.0
C678 C 0.12359 0.43343 0.28306 0.0
C679 C 0.18751 0.44644 0.42024 0.0
H680 H 0.20206 0.3332 0.31969 0.0
H681 H 0.25976 0.42395 0.28373 0.0
H682 H 0.14622 0.37322 0.38634 0.0
H683 H 0.12327 0.37064 0.33885 0.0
H684 H 0.14703 0.33507 0.34922 0.0
H685 H 0.24049 0.47917 0.2951 0.0
H686 H 0.1944 0.48004 0.29582 0.0
H687 H 0.21769 0.48542 0.34333 0.0
H688 H 0.08408 0.47794 0.32706 0.0
H689 H 0.13736 0.48834 0.44274 0.0
H690 H 0.12226 0.40468 0.28023 0.0
H691 H 0.14613 0.44233 0.26488 0.0
H692 H 0.09998 0.44107 0.26926 0.0
H693 H 0.1874 0.418 0.42041 0.0
H694 H 0.18575 0.45886 0.45257 0.0
H695 H 0.21254 0.45573 0.40721 0.0
loop_
_geom_bond_atom_site_label_1
_geom_bond_atom_site_label_2
_geom_bond_distance
_geom_bond_site_symmetry_2
_ccdc_geom_bond_type
Cu0 N1 1.999 1_545 S
Cu0 O6 1.974 1_445 S
Cu0 N11 1.985 1_455 S
Cu0 O20 1.959 . S
N1 Cu0 1.999 1_565 S
N1 C3 1.263 . S
N1 C5 1.389 1_565 S
N2 C3 1.358 . S
N2 C4 1.400 . S
C3 N1 1.263 . S
C3 N2 1.358 . S
C3 H9 0.930 . S
C4 N2 1.400 . S
C4 C5 1.351 1_565 S
C4 H21 0.930 . S
C5 N1 1.389 1_545 S
C5 C4 1.351 1_545 S
C5 H10 0.930 . S
O6 Cu0 1.974 1_665 S
O6 C16 1.282 . S
C7 O8 1.261 . S
C7 O20 1.251 . S
O8 C7 1.261 . S
H9 C3 0.930 . S
H10 C5 0.930 . S
N11 Cu0 1.985 1_655 S
N11 C13 1.335 . S
N11 C14 1.390 . S
N12 C13 1.345 . S
N12 C15 1.336 . S
C13 N11 1.335 . S
C13 N12 1.345 . S
C13 H18 0.930 1_655 S
C14 N11 1.390 . S
C14 C15 1.346 . S
C14 H19 0.930 1_545 S
C15 N12 1.336 . S
C15 C14 1.346 . S
C15 H22 0.929 . S
C16 O6 1.282 . S
C16 O17 1.216 . S
O17 C16 1.216 . S
H18 C13 0.930 1_455 S
H19 C14 0.930 1_565 S
O20 Cu0 1.959 . S
O20 C7 1.251 . S
H21 C4 0.930 . S
H22 C15 0.929 . S
Cu23 N24 1.999 . S
Cu23 O29 1.974 . S
Cu23 N34 1.985 . S
Cu23 O43 1.959 . S
N24 Cu23 1.999 . S
N24 C26 1.263 . S
N24 C28 1.389 . S
N25 C26 1.358 . S
N25 C27 1.400 . S
C26 N24 1.263 . S
C26 N25 1.358 . S
C26 H32 0.930 . S
C27 N25 1.400 . S
C27 C28 1.351 . S
C27 H44 0.930 . S
C28 N24 1.389 . S
C28 C27 1.351 . S
C28 H33 0.930 . S
O29 Cu23 1.974 . S
O29 C39 1.282 . S
C30 O31 1.261 . S
C30 O43 1.251 . S
O31 C30 1.261 . S
H32 C26 0.930 . S
H33 C28 0.930 . S
N34 Cu23 1.985 . S
N34 C36 1.335 . S
N34 C37 1.390 . S
N35 C36 1.345 . S
N35 C38 1.336 . S
C36 N34 1.335 . S
C36 N35 1.345 . S
C36 H41 0.930 . S
C37 N34 1.390 . S
C37 C38 1.346 . S
C37 H42 0.930 . S
C38 N35 1.336 . S
C38 C37 1.346 . S
C38 H45 0.929 . S
C39 O29 1.282 . S
C39 O40 1.216 . S
O40 C39 1.216 . S
H41 C36 0.930 . S
H42 C37 0.930 . S
O43 Cu23 1.959 . S
O43 C30 1.251 . S
H44 C27 0.930 . S
H45 C38 0.929 . S
Cu46 N47 1.999 1_544 S
Cu46 O52 1.974 1_544 S
Cu46 N57 1.985 . S
Cu46 O66 1.959 . S
N47 Cu46 1.999 1_566 S
N47 C49 1.263 . S
N47 C51 1.389 1_556 S
N48 C49 1.358 . S
N48 C50 1.400 . S
C49 N47 1.263 . S
C49 N48 1.358 . S
C49 H55 0.930 . S
C50 N48 1.400 . S
C50 C51 1.351 1_556 S
C50 H67 0.930 . S
C51 N47 1.389 1_554 S
C51 C50 1.351 1_554 S
C51 H56 0.930 1_565 S
O52 Cu46 1.974 1_566 S
O52 C62 1.282 . S
C53 O54 1.261 1_554 S
C53 O66 1.251 . S
O54 C53 1.261 1_556 S
H55 C49 0.930 . S
H56 C51 0.930 1_545 S
N57 Cu46 1.985 . S
N57 C59 1.335 . S
N57 C60 1.390 . S
N58 C59 1.345 . S
N58 C61 1.336 . S
C59 N57 1.335 . S
C59 N58 1.345 . S
C59 H64 0.930 . S
C60 N57 1.390 . S
C60 C61 1.346 . S
C60 H65 0.930 1_554 S
C61 N58 1.336 . S
C61 C60 1.346 . S
C61 H68 0.929 . S
C62 O52 1.282 . S
C62 O63 1.216 1_565 S
O63 C62 1.216 1_545 S
H64 C59 0.930 . S
H65 C60 0.930 1_556 S
O66 Cu46 1.959 . S
O66 C53 1.251 . S
H67 C50 0.930 . S
H68 C61 0.929 . S
Cu69 N70 1.999 . S
Cu69 O75 1.974 . S
Cu69 N80 1.985 . S
Cu69 O89 1.959 . S
N70 Cu69 1.999 . S
N70 C72 1.263 . S
N70 C74 1.389 . S
N71 C72 1.358 . S
N71 C73 1.400 . S
C72 N70 1.263 . S
C72 N71 1.358 . S
C72 H78 0.930 . S
C73 N71 1.400 . S
C73 C74 1.351 . S
C73 H90 0.930 . S
C74 N70 1.389 . S
C74 C73 1.351 . S
C74 H79 0.930 . S
O75 Cu69 1.974 . S
O75 C85 1.282 . S
C76 O77 1.261 . S
C76 O89 1.251 . S
O77 C76 1.261 . S
H78 C72 0.930 . S
H79 C74 0.930 . S
N80 Cu69 1.985 . S
N80 C82 1.335 . S
N80 C83 1.390 . S
N81 C82 1.345 . S
N81 C84 1.336 . S
C82 N80 1.335 . S
C82 N81 1.345 . S
C82 H87 0.930 . S
C83 N80 1.390 . S
C83 C84 1.346 . S
C83 H88 0.930 . S
C84 N81 1.336 . S
C84 C83 1.346 . S
C84 H91 0.929 . S
C85 O75 1.282 . S
C85 O86 1.216 . S
O86 C85 1.216 . S
H87 C82 0.930 . S
H88 C83 0.930 . S
O89 Cu69 1.959 . S
O89 C76 1.251 . S
H90 C73 0.930 . S
H91 C84 0.929 . S
Cu92 N93 1.999 . S
Cu92 O98 1.974 . S
Cu92 N103 1.985 . S
Cu92 O112 1.959 . S
N93 Cu92 1.999 . S
N93 C95 1.263 . S
N93 C97 1.389 . S
N94 C95 1.358 . S
N94 C96 1.400 . S
C95 N93 1.263 . S
C95 N94 1.358 . S
C95 H101 0.930 . S
C96 N94 1.400 . S
C96 C97 1.351 . S
C96 H113 0.930 . S
C97 N93 1.389 . S
C97 C96 1.351 . S
C97 H102 0.930 . S
O98 Cu92 1.974 . S
O98 C108 1.282 . S
C99 O100 1.261 . S
C99 O112 1.251 . S
O100 C99 1.261 . S
H101 C95 0.930 . S
H102 C97 0.930 . S
N103 Cu92 1.985 . S
N103 C105 1.335 . S
N103 C106 1.390 . S
N104 C105 1.345 . S
N104 C107 1.336 . S
C105 N103 1.335 . S
C105 N104 1.345 . S
C105 H110 0.930 . S
C106 N103 1.390 . S
C106 C107 1.346 . S
C106 H111 0.930 . S
C107 N104 1.336 . S
C107 C106 1.346 . S
C107 H114 0.929 . S
C108 O98 1.282 . S
C108 O109 1.216 . S
O109 C108 1.216 . S
H110 C105 0.930 . S
H111 C106 0.930 . S
O112 Cu92 1.959 . S
O112 C99 1.251 . S
H113 C96 0.930 . S
H114 C107 0.929 . S
Cu115 N116 1.999 . S
Cu115 O121 1.974 . S
Cu115 N126 1.985 . S
Cu115 O135 1.959 . S
N116 Cu115 1.999 . S
N116 C118 1.263 . S
N116 C120 1.389 . S
N117 C118 1.358 . S
N117 C119 1.400 . S
C118 N116 1.263 . S
C118 N117 1.358 . S
C118 H124 0.930 . S
C119 N117 1.400 . S
C119 C120 1.351 . S
C119 H136 0.930 . S
C120 N116 1.389 . S
C120 C119 1.351 . S
C120 H125 0.930 . S
O121 Cu115 1.974 . S
O121 C131 1.282 . S
C122 O123 1.261 . S
C122 O135 1.251 . S
O123 C122 1.261 . S
H124 C118 0.930 . S
H125 C120 0.930 . S
N126 Cu115 1.985 . S
N126 C128 1.335 . S
N126 C129 1.390 . S
N127 C128 1.345 . S
N127 C130 1.336 . S
C128 N126 1.335 . S
C128 N127 1.345 . S
C128 H133 0.930 . S
C129 N126 1.390 . S
C129 C130 1.346 . S
C129 H134 0.930 . S
C130 N127 1.336 . S
C130 C129 1.346 . S
C130 H137 0.929 . S
C131 O121 1.282 . S
C131 O132 1.216 . S
O132 C131 1.216 . S
H133 C128 0.930 . S
H134 C129 0.930 . S
O135 Cu115 1.959 . S
O135 C122 1.251 . S
H136 C119 0.930 . S
H137 C130 0.929 . S
Cu138 N139 1.999 . S
Cu138 O144 1.974 . S
Cu138 N149 1.985 . S
Cu138 O158 1.959 . S
N139 Cu138 1.999 . S
N139 C141 1.263 . S
N139 C143 1.389 . S
N140 C141 1.358 . S
N140 C142 1.400 . S
C141 N139 1.263 . S
C141 N140 1.358 . S
C141 H147 0.930 1_554 S
C142 N140 1.400 . S
C142 C143 1.351 . S
C142 H159 0.930 . S
C143 N139 1.389 . S
C143 C142 1.351 . S
C143 H148 0.930 . S
O144 Cu138 1.974 . S
O144 C154 1.282 1_554 S
C145 O146 1.261 . S
C145 O158 1.251 . S
O146 C145 1.261 . S
H147 C141 0.930 1_556 S
H148 C143 0.930 . S
N149 Cu138 1.985 . S
N149 C151 1.335 . S
N149 C152 1.390 . S
N150 C151 1.345 . S
N150 C153 1.336 . S
C151 N149 1.335 . S
C151 N150 1.345 . S
C151 H156 0.930 . S
C152 N149 1.390 . S
C152 C153 1.346 . S
C152 H157 0.930 . S
C153 N150 1.336 . S
C153 C152 1.346 . S
C153 H160 0.929 . S
C154 O144 1.282 1_556 S
C154 O155 1.216 . S
O155 C154 1.216 . S
H156 C151 0.930 . S
H157 C152 0.930 . S
O158 Cu138 1.959 . S
O158 C145 1.251 . S
H159 C142 0.930 . S
H160 C153 0.929 . S
Cu161 N162 1.999 1_455 S
Cu161 O167 1.974 . S
Cu161 N172 1.985 . S
Cu161 O181 1.959 1_455 S
N162 Cu161 1.999 1_655 S
N162 C164 1.263 . S
N162 C166 1.389 . S
N163 C164 1.358 . S
N163 C165 1.400 . S
C164 N162 1.263 . S
C164 N163 1.358 . S
C164 H170 0.930 . S
C165 N163 1.400 . S
C165 C166 1.351 . S
C165 H182 0.930 . S
C166 N162 1.389 . S
C166 C165 1.351 . S
C166 H171 0.930 . S
O167 Cu161 1.974 . S
O167 C177 1.282 . S
C168 O169 1.261 . S
C168 O181 1.251 . S
O169 C168 1.261 . S
H170 C164 0.930 . S
H171 C166 0.930 . S
N172 Cu161 1.985 . S
N172 C174 1.335 . S
N172 C175 1.390 . S
N173 C174 1.345 . S
N173 C176 1.336 . S
C174 N172 1.335 . S
C174 N173 1.345 . S
C174 H179 0.930 . S
C175 N172 1.390 . S
C175 C176 1.346 . S
C175 H180 0.930 . S
C176 N173 1.336 . S
C176 C175 1.346 . S
C176 H183 0.929 . S
C177 O167 1.282 . S
C177 O178 1.216 . S
O178 C177 1.216 . S
H179 C174 0.930 . S
H180 C175 0.930 . S
O181 Cu161 1.959 1_655 S
O181 C168 1.251 . S
H182 C165 0.930 . S
H183 C176 0.929 . S
C184 C185 1.391 . S
C184 C186 1.394 . S
C184 H200 0.931 . S
C185 C184 1.391 . S
C185 C189 1.376 . S
C186 C184 1.394 . S
C186 C187 1.369 . S
C186 C190 1.531 . S
C187 C186 1.369 . S
C187 C188 1.410 . S
C187 C195 1.503 . S
C188 C187 1.410 . S
C188 C189 1.392 . S
C188 C191 1.511 . S
C189 C185 1.376 . S
C189 C188 1.392 . S
C189 H201 0.929 . S
C190 C186 1.531 . S
C190 H202 0.960 . S
C190 H203 0.962 . S
C190 H204 0.960 . S
C191 C188 1.511 . S
C191 H205 0.961 . S
C191 H206 0.961 . S
C191 H207 0.961 . S
C192 C193 1.370 . S
C192 C194 1.363 . S
C192 H208 0.931 . S
C193 C192 1.370 . S
C193 C197 1.408 . S
C194 C192 1.363 . S
C194 C195 1.370 . S
C194 C198 1.524 . S
C195 C187 1.503 . S
C195 C194 1.370 . S
C195 C196 1.403 . S
C196 C195 1.403 . S
C196 C197 1.404 . S
C196 C199 1.539 . S
C197 C193 1.408 . S
C197 C196 1.404 . S
C197 H209 0.930 . S
C198 C194 1.524 . S
C198 H210 0.956 . S
C198 H211 0.961 . S
C198 H212 0.961 . S
C199 C196 1.539 . S
C199 H213 0.958 . S
C199 H214 0.961 . S
C199 H215 0.960 . S
H200 C184 0.931 . S
H201 C189 0.929 . S
H202 C190 0.960 . S
H203 C190 0.962 . S
H204 C190 0.960 . S
H205 C191 0.961 . S
H206 C191 0.961 . S
H207 C191 0.961 . S
H208 C192 0.931 . S
H209 C197 0.930 . S
H210 C198 0.956 . S
H211 C198 0.961 . S
H212 C198 0.961 . S
H213 C199 0.958 . S
H214 C199 0.961 . S
H215 C199 0.960 . S
C216 C217 1.391 . S
C216 C218 1.394 . S
C216 H232 0.931 . S
C217 C216 1.391 . S
C217 C221 1.376 . S
C218 C216 1.394 . S
C218 C219 1.369 . S
C218 C222 1.531 . S
C219 C218 1.369 . S
C219 C220 1.410 . S
C219 C227 1.503 . S
C220 C219 1.410 . S
C220 C221 1.392 . S
C220 C223 1.511 . S
C221 C217 1.376 . S
C221 C220 1.392 . S
C221 H233 0.929 . S
C222 C218 1.531 . S
C222 H234 0.960 . S
C222 H235 0.962 . S
C222 H236 0.960 . S
C223 C220 1.511 . S
C223 H237 0.961 . S
C223 H238 0.961 . S
C223 H239 0.961 . S
C224 C225 1.370 . S
C224 C226 1.363 . S
C224 H240 0.931 . S
C225 C224 1.370 . S
C225 C229 1.408 . S
C226 C224 1.363 . S
C226 C227 1.370 . S
C226 C230 1.524 . S
C227 C219 1.503 . S
C227 C226 1.370 . S
C227 C228 1.403 . S
C228 C227 1.403 . S
C228 C229 1.404 . S
C228 C231 1.539 . S
C229 C225 1.408 . S
C229 C228 1.404 . S
C229 H241 0.930 . S
C230 C226 1.524 . S
C230 H242 0.956 . S
C230 H243 0.961 . S
C230 H244 0.961 . S
C231 C228 1.539 . S
C231 H245 0.958 . S
C231 H246 0.961 . S
C231 H247 0.960 . S
H232 C216 0.931 . S
H233 C221 0.929 . S
H234 C222 0.960 . S
H235 C222 0.962 . S
H236 C222 0.960 . S
H237 C223 0.961 . S
H238 C223 0.961 . S
H239 C223 0.961 . S
H240 C224 0.931 . S
H241 C229 0.930 . S
H242 C230 0.956 . S
H243 C230 0.961 . S
H244 C230 0.961 . S
H245 C231 0.958 . S
H246 C231 0.961 . S
H247 C231 0.960 . S
C248 C249 1.391 . S
C248 C250 1.394 . S
C248 H264 0.931 . S
C249 C248 1.391 . S
C249 C253 1.376 . S
C250 C248 1.394 . S
C250 C251 1.369 . S
C250 C254 1.531 . S
C251 C250 1.369 . S
C251 C252 1.410 . S
C251 C259 1.503 . S
C252 C251 1.410 . S
C252 C253 1.392 . S
C252 C255 1.511 . S
C253 C249 1.376 . S
C253 C252 1.392 . S
C253 H265 0.929 . S
C254 C250 1.531 . S
C254 H266 0.960 . S
C254 H267 0.962 . S
C254 H268 0.960 . S
C255 C252 1.511 . S
C255 H269 0.961 . S
C255 H270 0.961 . S
C255 H271 0.961 . S
C256 C257 1.370 . S
C256 C258 1.363 . S
C256 H272 0.931 . S
C257 C256 1.370 . S
C257 C261 1.408 . S
C258 C256 1.363 . S
C258 C259 1.370 . S
C258 C262 1.524 . S
C259 C251 1.503 . S
C259 C258 1.370 . S
C259 C260 1.403 . S
C260 C259 1.403 . S
C260 C261 1.404 . S
C260 C263 1.539 . S
C261 C257 1.408 . S
C261 C260 1.404 . S
C261 H273 0.930 . S
C262 C258 1.524 . S
C262 H274 0.956 . S
C262 H275 0.961 . S
C262 H276 0.961 . S
C263 C260 1.539 . S
C263 H277 0.958 . S
C263 H278 0.961 . S
C263 H279 0.960 . S
H264 C248 0.931 . S
H265 C253 0.929 . S
H266 C254 0.960 . S
H267 C254 0.962 . S
H268 C254 0.960 . S
H269 C255 0.961 . S
H270 C255 0.961 . S
H271 C255 0.961 . S
H272 C256 0.931 . S
H273 C261 0.930 . S
H274 C262 0.956 . S
H275 C262 0.961 . S
H276 C262 0.961 . S
H277 C263 0.958 . S
H278 C263 0.961 . S
H279 C263 0.960 . S
C280 C281 1.391 . S
C280 C282 1.394 . S
C280 H296 0.931 . S
C281 C280 1.391 . S
C281 C285 1.376 . S
C282 C280 1.394 . S
C282 C283 1.369 . S
C282 C286 1.531 . S
C283 C282 1.369 . S
C283 C284 1.410 . S
C283 C291 1.503 . S
C284 C283 1.410 . S
C284 C285 1.392 . S
C284 C287 1.511 . S
C285 C281 1.376 . S
C285 C284 1.392 . S
C285 H297 0.929 . S
C286 C282 1.531 . S
C286 H298 0.960 . S
C286 H299 0.962 . S
C286 H300 0.960 . S
C287 C284 1.511 . S
C287 H301 0.961 . S
C287 H302 0.961 . S
C287 H303 0.961 . S
C288 C289 1.370 . S
C288 C290 1.363 . S
C288 H304 0.931 . S
C289 C288 1.370 . S
C289 C293 1.408 . S
C290 C288 1.363 . S
C290 C291 1.370 . S
C290 C294 1.524 . S
C291 C283 1.503 . S
C291 C290 1.370 . S
C291 C292 1.403 . S
C292 C291 1.403 . S
C292 C293 1.404 . S
C292 C295 1.539 . S
C293 C289 1.408 . S
C293 C292 1.404 . S
C293 H305 0.930 . S
C294 C290 1.524 . S
C294 H306 0.956 . S
C294 H307 0.961 . S
C294 H308 0.961 . S
C295 C292 1.539 . S
C295 H309 0.958 . S
C295 H310 0.961 . S
C295 H311 0.960 . S
H296 C280 0.931 . S
H297 C285 0.929 . S
H298 C286 0.960 . S
H299 C286 0.962 . S
H300 C286 0.960 . S
H301 C287 0.961 . S
H302 C287 0.961 . S
H303 C287 0.961 . S
H304 C288 0.931 . S
H305 C293 0.930 . S
H306 C294 0.956 . S
H307 C294 0.961 . S
H308 C294 0.961 . S
H309 C295 0.958 . S
H310 C295 0.961 . S
H311 C295 0.960 . S
C312 C313 1.391 . S
C312 C314 1.394 . S
C312 H328 0.931 . S
C313 C312 1.391 . S
C313 C317 1.376 . S
C314 C312 1.394 . S
C314 C315 1.369 . S
C314 C318 1.531 . S
C315 C314 1.369 . S
C315 C316 1.410 . S
C315 C323 1.503 . S
C316 C315 1.410 . S
C316 C317 1.392 . S
C316 C319 1.511 . S
C317 C313 1.376 . S
C317 C316 1.392 . S
C317 H329 0.929 . S
C318 C314 1.531 . S
C318 H330 0.960 . S
C318 H331 0.962 . S
C318 H332 0.960 . S
C319 C316 1.511 . S
C319 H333 0.961 . S
C319 H334 0.961 . S
C319 H335 0.961 . S
C320 C321 1.370 . S
C320 C322 1.363 . S
C320 H336 0.931 . S
C321 C320 1.370 . S
C321 C325 1.408 . S
C322 C320 1.363 . S
C322 C323 1.370 . S
C322 C326 1.524 . S
C323 C315 1.503 . S
C323 C322 1.370 . S
C323 C324 1.403 . S
C324 C323 1.403 . S
C324 C325 1.404 . S
C324 C327 1.539 . S
C325 C321 1.408 . S
C325 C324 1.404 . S
C325 H337 0.930 . S
C326 C322 1.524 . S
C326 H338 0.956 . S
C326 H339 0.961 . S
C326 H340 0.961 . S
C327 C324 1.539 . S
C327 H341 0.958 . S
C327 H342 0.961 . S
C327 H343 0.960 . S
H328 C312 0.931 . S
H329 C317 0.929 . S
H330 C318 0.960 . S
H331 C318 0.962 . S
H332 C318 0.960 . S
H333 C319 0.961 . S
H334 C319 0.961 . S
H335 C319 0.961 . S
H336 C320 0.931 . S
H337 C325 0.930 . S
H338 C326 0.956 . S
H339 C326 0.961 . S
H340 C326 0.961 . S
H341 C327 0.958 . S
H342 C327 0.961 . S
H343 C327 0.960 . S
C344 C345 1.391 . S
C344 C346 1.394 . S
C344 H360 0.931 . S
C345 C344 1.391 . S
C345 C349 1.376 . S
C346 C344 1.394 . S
C346 C347 1.369 . S
C346 C350 1.531 . S
C347 C346 1.369 . S
C347 C348 1.410 . S
C347 C355 1.503 . S
C348 C347 1.410 . S
C348 C349 1.392 . S
C348 C351 1.511 . S
C349 C345 1.376 . S
C349 C348 1.392 . S
C349 H361 0.929 . S
C350 C346 1.531 . S
C350 H362 0.960 . S
C350 H363 0.962 . S
C350 H364 0.960 . S
C351 C348 1.511 . S
C351 H365 0.961 . S
C351 H366 0.961 . S
C351 H367 0.961 . S
C352 C353 1.370 . S
C352 C354 1.363 . S
C352 H368 0.931 . S
C353 C352 1.370 . S
C353 C357 1.408 . S
C354 C352 1.363 . S
C354 C355 1.370 . S
C354 C358 1.524 . S
C355 C347 1.503 . S
C355 C354 1.370 . S
C355 C356 1.403 . S
C356 C355 1.403 . S
C356 C357 1.404 . S
C356 C359 1.539 . S
C357 C353 1.408 . S
C357 C356 1.404 . S
C357 H369 0.930 . S
C358 C354 1.524 . S
C358 H370 0.956 . S
C358 H371 0.961 . S
C358 H372 0.961 . S
C359 C356 1.539 . S
C359 H373 0.958 . S
C359 H374 0.961 . S
C359 H375 0.960 . S
H360 C344 0.931 . S
H361 C349 0.929 . S
H362 C350 0.960 . S
H363 C350 0.962 . S
H364 C350 0.960 . S
H365 C351 0.961 . S
H366 C351 0.961 . S
H367 C351 0.961 . S
H368 C352 0.931 . S
H369 C357 0.930 . S
H370 C358 0.956 . S
H371 C358 0.961 . S
H372 C358 0.961 . S
H373 C359 0.958 . S
H374 C359 0.961 . S
H375 C359 0.960 . S
C376 C377 1.391 . S
C376 C378 1.394 . S
C376 H392 0.931 . S
C377 C376 1.391 . S
C377 C381 1.376 . S
C378 C376 1.394 . S
C378 C379 1.369 . S
C378 C382 1.531 . S
C379 C378 1.369 . S
C379 C380 1.410 . S
C379 C387 1.503 . S
C380 C379 1.410 . S
C380 C381 1.392 . S
C380 C383 1.511 . S
C381 C377 1.376 . S
C381 C380 1.392 . S
C381 H393 0.929 . S
C382 C378 1.531 . S
C382 H394 0.960 . S
C382 H395 0.962 . S
C382 H396 0.960 . S
C383 C380 1.511 . S
C383 H397 0.961 . S
C383 H398 0.961 . S
C383 H399 0.961 . S
C384 C385 1.370 . S
C384 C386 1.363 . S
C384 H400 0.931 . S
C385 C384 1.370 . S
C385 C389 1.408 . S
C386 C384 1.363 . S
C386 C387 1.370 . S
C386 C390 1.524 . S
C387 C379 1.503 . S
C387 C386 1.370 . S
C387 C388 1.403 . S
C388 C387 1.403 . S
C388 C389 1.404 . S
C388 C391 1.539 . S
C389 C385 1.408 . S
C389 C388 1.404 . S
C389 H401 0.930 . S
C390 C386 1.524 . S
C390 H402 0.956 . S
C390 H403 0.961 . S
C390 H404 0.961 . S
C391 C388 1.539 . S
C391 H405 0.958 . S
C391 H406 0.961 . S
C391 H407 0.960 . S
H392 C376 0.931 . S
H393 C381 0.929 . S
H394 C382 0.960 . S
H395 C382 0.962 . S
H396 C382 0.960 . S
H397 C383 0.961 . S
H398 C383 0.961 . S
H399 C383 0.961 . S
H400 C384 0.931 . S
H401 C389 0.930 . S
H402 C390 0.956 . S
H403 C390 0.961 . S
H404 C390 0.961 . S
H405 C391 0.958 . S
H406 C391 0.961 . S
H407 C391 0.960 . S
C408 C409 1.391 . S
C408 C410 1.394 . S
C408 H424 0.931 . S
C409 C408 1.391 . S
C409 C413 1.376 . S
C410 C408 1.394 . S
C410 C411 1.369 . S
C410 C414 1.531 . S
C411 C410 1.369 . S
C411 C412 1.410 . S
C411 C419 1.503 . S
C412 C411 1.410 . S
C412 C413 1.392 . S
C412 C415 1.511 . S
C413 C409 1.376 . S
C413 C412 1.392 . S
C413 H425 0.929 . S
C414 C410 1.531 . S
C414 H426 0.960 . S
C414 H427 0.962 . S
C414 H428 0.960 . S
C415 C412 1.511 . S
C415 H429 0.961 . S
C415 H430 0.961 . S
C415 H431 0.961 . S
C416 C417 1.370 . S
C416 C418 1.363 . S
C416 H432 0.931 . S
C417 C416 1.370 . S
C417 C421 1.408 . S
C418 C416 1.363 . S
C418 C419 1.370 . S
C418 C422 1.524 . S
C419 C411 1.503 . S
C419 C418 1.370 . S
C419 C420 1.403 . S
C420 C419 1.403 . S
C420 C421 1.404 . S
C420 C423 1.539 . S
C421 C417 1.408 . S
C421 C420 1.404 . S
C421 H433 0.930 . S
C422 C418 1.524 . S
C422 H434 0.956 . S
C422 H435 0.961 . S
C422 H436 0.961 . S
C423 C420 1.539 . S
C423 H437 0.958 . S
C423 H438 0.961 . S
C423 H439 0.960 . S
H424 C408 0.931 . S
H425 C413 0.929 . S
H426 C414 0.960 . S
H427 C414 0.962 . S
H428 C414 0.960 . S
H429 C415 0.961 . S
H430 C415 0.961 . S
H431 C415 0.961 . S
H432 C416 0.931 . S
H433 C421 0.930 . S
H434 C422 0.956 . S
H435 C422 0.961 . S
H436 C422 0.961 . S
H437 C423 0.958 . S
H438 C423 0.961 . S
H439 C423 0.960 . S
C440 C441 1.391 . S
C440 C442 1.394 . S
C440 H456 0.931 . S
C441 C440 1.391 . S
C441 C445 1.376 . S
C442 C440 1.394 . S
C442 C443 1.369 . S
C442 C446 1.531 . S
C443 C442 1.369 . S
C443 C444 1.410 . S
C443 C451 1.503 . S
C444 C443 1.410 . S
C444 C445 1.392 . S
C444 C447 1.511 . S
C445 C441 1.376 . S
C445 C444 1.392 . S
C445 H457 0.929 . S
C446 C442 1.531 . S
C446 H458 0.960 . S
C446 H459 0.962 . S
C446 H460 0.960 . S
C447 C444 1.511 . S
C447 H461 0.961 . S
C447 H462 0.961 . S
C447 H463 0.961 . S
C448 C449 1.370 . S
C448 C450 1.363 . S
C448 H464 0.931 . S
C449 C448 1.370 . S
C449 C453 1.408 . S
C450 C448 1.363 . S
C450 C451 1.370 . S
C450 C454 1.524 . S
C451 C443 1.503 . S
C451 C450 1.370 . S
C451 C452 1.403 . S
C452 C451 1.403 . S
C452 C453 1.404 . S
C452 C455 1.539 . S
C453 C449 1.408 . S
C453 C452 1.404 . S
C453 H465 0.930 . S
C454 C450 1.524 . S
C454 H466 0.956 . S
C454 H467 0.961 . S
C454 H468 0.961 . S
C455 C452 1.539 . S
C455 H469 0.958 . S
C455 H470 0.961 . S
C455 H471 0.960 . S
H456 C440 0.931 . S
H457 C445 0.929 . S
H458 C446 0.960 . S
H459 C446 0.962 . S
H460 C446 0.960 . S
H461 C447 0.961 . S
H462 C447 0.961 . S
H463 C447 0.961 . S
H464 C448 0.931 . S
H465 C453 0.930 . S
H466 C454 0.956 . S
H467 C454 0.961 . S
H468 C454 0.961 . S
H469 C455 0.958 . S
H470 C455 0.961 . S
H471 C455 0.960 . S
C472 C473 1.391 . S
C472 C474 1.394 . S
C472 H488 0.931 . S
C473 C472 1.391 . S
C473 C477 1.376 . S
C474 C472 1.394 . S
C474 C475 1.369 . S
C474 C478 1.531 . S
C475 C474 1.369 . S
C475 C476 1.410 . S
C475 C483 1.503 . S
C476 C475 1.410 . S
C476 C477 1.392 . S
C476 C479 1.511 . S
C477 C473 1.376 . S
C477 C476 1.392 . S
C477 H489 0.929 . S
C478 C474 1.531 . S
C478 H490 0.960 . S
C478 H491 0.962 . S
C478 H492 0.960 . S
C479 C476 1.511 . S
C479 H493 0.961 . S
C479 H494 0.961 . S
C479 H495 0.961 . S
C480 C481 1.370 . S
C480 C482 1.363 . S
C480 H496 0.931 . S
C481 C480 1.370 . S
C481 C485 1.408 . S
C482 C480 1.363 . S
C482 C483 1.370 . S
C482 C486 1.524 . S
C483 C475 1.503 . S
C483 C482 1.370 . S
C483 C484 1.403 . S
C484 C483 1.403 . S
C484 C485 1.404 . S
C484 C487 1.539 . S
C485 C481 1.408 . S
C485 C484 1.404 . S
C485 H497 0.930 . S
C486 C482 1.524 . S
C486 H498 0.956 . S
C486 H499 0.961 . S
C486 H500 0.961 . S
C487 C484 1.539 . S
C487 H501 0.958 . S
C487 H502 0.961 . S
C487 H503 0.960 . S
H488 C472 0.931 . S
H489 C477 0.929 . S
H490 C478 0.960 . S
H491 C478 0.962 . S
H492 C478 0.960 . S
H493 C479 0.961 . S
H494 C479 0.961 . S
H495 C479 0.961 . S
H496 C480 0.931 . S
H497 C485 0.930 . S
H498 C486 0.956 . S
H499 C486 0.961 . S
H500 C486 0.961 . S
H501 C487 0.958 . S
H502 C487 0.961 . S
H503 C487 0.960 . S
C504 C505 1.391 . S
C504 C506 1.394 . S
C504 H520 0.931 . S
C505 C504 1.391 . S
C505 C509 1.376 . S
C506 C504 1.394 . S
C506 C507 1.369 . S
C506 C510 1.531 . S
C507 C506 1.369 . S
C507 C508 1.410 . S
C507 C515 1.503 . S
C508 C507 1.410 . S
C508 C509 1.392 . S
C508 C511 1.511 . S
C509 C505 1.376 . S
C509 C508 1.392 . S
C509 H521 0.929 . S
C510 C506 1.531 . S
C510 H522 0.960 . S
C510 H523 0.962 . S
C510 H524 0.960 . S
C511 C508 1.511 . S
C511 H525 0.961 . S
C511 H526 0.961 . S
C511 H527 0.961 . S
C512 C513 1.370 . S
C512 C514 1.363 . S
C512 H528 0.931 . S
C513 C512 1.370 . S
C513 C517 1.408 . S
C514 C512 1.363 . S
C514 C515 1.370 . S
C514 C518 1.524 . S
C515 C507 1.503 . S
C515 C514 1.370 . S
C515 C516 1.403 . S
C516 C515 1.403 . S
C516 C517 1.404 . S
C516 C519 1.539 . S
C517 C513 1.408 . S
C517 C516 1.404 . S
C517 H529 0.930 . S
C518 C514 1.524 . S
C518 H530 0.956 . S
C518 H531 0.961 . S
C518 H532 0.961 . S
C519 C516 1.539 . S
C519 H533 0.958 . S
C519 H534 0.961 . S
C519 H535 0.960 . S
H520 C504 0.931 . S
H521 C509 0.929 . S
H522 C510 0.960 . S
H523 C510 0.962 . S
H524 C510 0.960 . S
H525 C511 0.961 . S
H526 C511 0.961 . S
H527 C511 0.961 . S
H528 C512 0.931 . S
H529 C517 0.930 . S
H530 C518 0.956 . S
H531 C518 0.961 . S
H532 C518 0.961 . S
H533 C519 0.958 . S
H534 C519 0.961 . S
H535 C519 0.960 . S
C536 C537 1.391 . S
C536 C538 1.394 . S
C536 H552 0.931 . S
C537 C536 1.391 . S
C537 C541 1.376 . S
C538 C536 1.394 . S
C538 C539 1.369 . S
C538 C542 1.531 . S
C539 C538 1.369 . S
C539 C540 1.410 . S
C539 C547 1.503 . S
C540 C539 1.410 . S
C540 C541 1.392 . S
C540 C543 1.511 . S
C541 C537 1.376 . S
C541 C540 1.392 . S
C541 H553 0.929 . S
C542 C538 1.531 . S
C542 H554 0.960 . S
C542 H555 0.962 . S
C542 H556 0.960 . S
C543 C540 1.511 . S
C543 H557 0.961 . S
C543 H558 0.961 . S
C543 H559 0.961 . S
C544 C545 1.370 . S
C544 C546 1.363 . S
C544 H560 0.931 . S
C545 C544 1.370 . S
C545 C549 1.408 . S
C546 C544 1.363 . S
C546 C547 1.370 . S
C546 C550 1.524 . S
C547 C539 1.503 . S
C547 C546 1.370 . S
C547 C548 1.403 . S
C548 C547 1.403 . S
C548 C549 1.404 . S
C548 C551 1.539 . S
C549 C545 1.408 . S
C549 C548 1.404 . S
C549 H561 0.930 . S
C550 C546 1.524 . S
C550 H562 0.956 . S
C550 H563 0.961 . S
C550 H564 0.961 . S
C551 C548 1.539 . S
C551 H565 0.958 . S
C551 H566 0.961 . S
C551 H567 0.960 . S
H552 C536 0.931 . S
H553 C541 0.929 . S
H554 C542 0.960 . S
H555 C542 0.962 . S
H556 C542 0.960 . S
H557 C543 0.961 . S
H558 C543 0.961 . S
H559 C543 0.961 . S
H560 C544 0.931 . S
H561 C549 0.930 . S
H562 C550 0.956 . S
H563 C550 0.961 . S
H564 C550 0.961 . S
H565 C551 0.958 . S
H566 C551 0.961 . S
H567 C551 0.960 . S
C568 C569 1.391 . S
C568 C570 1.394 . S
C568 H584 0.931 . S
C569 C568 1.391 . S
C569 C573 1.376 . S
C570 C568 1.394 . S
C570 C571 1.369 . S
C570 C574 1.531 . S
C571 C570 1.369 . S
C571 C572 1.410 . S
C571 C579 1.503 . S
C572 C571 1.410 . S
C572 C573 1.392 . S
C572 C575 1.511 . S
C573 C569 1.376 . S
C573 C572 1.392 . S
C573 H585 0.929 . S
C574 C570 1.531 . S
C574 H586 0.960 . S
C574 H587 0.962 . S
C574 H588 0.960 . S
C575 C572 1.511 . S
C575 H589 0.961 . S
C575 H590 0.961 . S
C575 H591 0.961 . S
C576 C577 1.370 . S
C576 C578 1.363 . S
C576 H592 0.931 . S
C577 C576 1.370 . S
C577 C581 1.408 . S
C578 C576 1.363 . S
C578 C579 1.370 . S
C578 C582 1.524 . S
C579 C571 1.503 . S
C579 C578 1.370 . S
C579 C580 1.403 . S
C580 C579 1.403 . S
C580 C581 1.404 . S
C580 C583 1.539 . S
C581 C577 1.408 . S
C581 C580 1.404 . S
C581 H593 0.930 . S
C582 C578 1.524 . S
C582 H594 0.956 . S
C582 H595 0.961 . S
C582 H596 0.961 . S
C583 C580 1.539 . S
C583 H597 0.958 . S
C583 H598 0.961 . S
C583 H599 0.960 . S
H584 C568 0.931 . S
H585 C573 0.929 . S
H586 C574 0.960 . S
H587 C574 0.962 . S
H588 C574 0.960 . S
H589 C575 0.961 . S
H590 C575 0.961 . S
H591 C575 0.961 . S
H592 C576 0.931 . S
H593 C581 0.930 . S
H594 C582 0.956 . S
H595 C582 0.961 . S
H596 C582 0.961 . S
H597 C583 0.958 . S
H598 C583 0.961 . S
H599 C583 0.960 . S
C600 C601 1.391 . S
C600 C602 1.394 . S
C600 H616 0.931 . S
C601 C600 1.391 . S
C601 C605 1.376 . S
C602 C600 1.394 . S
C602 C603 1.369 . S
C602 C606 1.531 . S
C603 C602 1.369 . S
C603 C604 1.410 . S
C603 C611 1.503 . S
C604 C603 1.410 . S
C604 C605 1.392 . S
C604 C607 1.511 . S
C605 C601 1.376 . S
C605 C604 1.392 . S
C605 H617 0.929 . S
C606 C602 1.531 . S
C606 H618 0.960 . S
C606 H619 0.962 . S
C606 H620 0.960 . S
C607 C604 1.511 . S
C607 H621 0.961 . S
C607 H622 0.961 . S
C607 H623 0.961 . S
C608 C609 1.368 1_554 S
C608 C610 1.359 1_554 S
C608 H624 0.937 . S
C609 C608 1.368 1_556 S
C609 C613 1.408 . S
C610 C608 1.359 1_556 S
C610 C611 1.370 . S
C610 C614 1.524 . S
C611 C603 1.503 . S
C611 C610 1.370 . S
C611 C612 1.403 . S
C612 C611 1.403 . S
C612 C613 1.404 . S
C612 C615 1.539 . S
C613 C609 1.408 . S
C613 C612 1.404 . S
C613 H625 0.930 . S
C614 C610 1.524 . S
C614 H626 0.956 . S
C614 H627 0.961 . S
C614 H628 0.961 1_556 S
C615 C612 1.539 . S
C615 H629 0.958 . S
C615 H630 0.961 . S
C615 H631 0.960 . S
H616 C600 0.931 . S
H617 C605 0.929 . S
H618 C606 0.960 . S
H619 C606 0.962 . S
H620 C606 0.960 . S
H621 C607 0.961 . S
H622 C607 0.961 . S
H623 C607 0.961 . S
H624 C608 0.937 . S
H625 C613 0.930 . S
H626 C614 0.956 . S
H627 C614 0.961 . S
H628 C614 0.961 1_554 S
H629 C615 0.958 . S
H630 C615 0.961 . S
H631 C615 0.960 . S
C632 C633 1.391 . S
C632 C634 1.394 . S
C632 H648 0.931 . S
C633 C632 1.391 . S
C633 C637 1.376 . S
C634 C632 1.394 . S
C634 C635 1.369 . S
C634 C638 1.531 . S
C635 C634 1.369 . S
C635 C636 1.410 . S
C635 C643 1.503 . S
C636 C635 1.410 . S
C636 C637 1.392 . S
C636 C639 1.511 . S
C637 C633 1.376 . S
C637 C636 1.392 . S
C637 H649 0.929 . S
C638 C634 1.531 . S
C638 H650 0.960 . S
C638 H651 0.962 . S
C638 H652 0.960 . S
C639 C636 1.511 . S
C639 H653 0.961 . S
C639 H654 0.961 . S
C639 H655 0.961 . S
C640 C641 1.370 . S
C640 C642 1.363 . S
C640 H656 0.931 . S
C641 C640 1.370 . S
C641 C645 1.408 . S
C642 C640 1.363 . S
C642 C643 1.370 . S
C642 C646 1.524 . S
C643 C635 1.503 . S
C643 C642 1.370 . S
C643 C644 1.403 . S
C644 C643 1.403 . S
C644 C645 1.404 . S
C644 C647 1.539 . S
C645 C641 1.408 . S
C645 C644 1.404 . S
C645 H657 0.930 . S
C646 C642 1.524 . S
C646 H658 0.956 . S
C646 H659 0.961 . S
C646 H660 0.961 . S
C647 C644 1.539 . S
C647 H661 0.958 . S
C647 H662 0.961 . S
C647 H663 0.960 . S
H648 C632 0.931 . S
H649 C637 0.929 . S
H650 C638 0.960 . S
H651 C638 0.962 . S
H652 C638 0.960 . S
H653 C639 0.961 . S
H654 C639 0.961 . S
H655 C639 0.961 . S
H656 C640 0.931 . S
H657 C645 0.930 . S
H658 C646 0.956 . S
H659 C646 0.961 . S
H660 C646 0.961 . S
H661 C647 0.958 . S
H662 C647 0.961 . S
H663 C647 0.960 . S
C664 C665 1.391 . S
C664 C666 1.394 . S
C664 H680 0.931 . S
C665 C664 1.391 . S
C665 C669 1.376 . S
C666 C664 1.394 . S
C666 C667 1.369 . S
C666 C670 1.531 . S
C667 C666 1.369 . S
C667 C668 1.410 . S
C667 C675 1.503 . S
C668 C667 1.410 . S
C668 C669 1.392 . S
C668 C671 1.511 . S
C669 C665 1.376 . S
C669 C668 1.392 . S
C669 H681 0.929 . S
C670 C666 1.531 . S
C670 H682 0.960 . S
C670 H683 0.962 . S
C670 H684 0.960 . S
C671 C668 1.511 . S
C671 H685 0.961 . S
C671 H686 0.961 . S
C671 H687 0.961 . S
C672 C673 1.370 . S
C672 C674 1.363 . S
C672 H688 0.931 . S
C673 C672 1.370 . S
C673 C677 1.408 . S
C674 C672 1.363 . S
C674 C675 1.370 . S
C674 C678 1.524 . S
C675 C667 1.503 . S
C675 C674 1.370 . S
C675 C676 1.403 . S
C676 C675 1.403 . S
C676 C677 1.404 . S
C676 C679 1.539 . S
C677 C673 1.408 . S
C677 C676 1.404 . S
C677 H689 0.930 . S
C678 C674 1.524 . S
C678 H690 0.956 . S
C678 H691 0.961 . S
C678 H692 0.961 . S
C679 C676 1.539 . S
C679 H693 0.958 . S
C679 H694 0.961 . S
C679 H695 0.960 . S
H680 C664 0.931 . S
H681 C669 0.929 . S
H682 C670 0.960 . S
H683 C670 0.962 . S
H684 C670 0.960 . S
H685 C671 0.961 . S
H686 C671 0.961 . S
H687 C671 0.961 . S
H688 C672 0.931 . S
H689 C677 0.930 . S
H690 C678 0.956 . S
H691 C678 0.961 . S
H692 C678 0.961 . S
H693 C679 0.958 . S
H694 C679 0.961 . S
H695 C679 0.960 . S
C185 C7 1.517 . S
C193 N71 1.480 . S
C217 N2 1.413 . S
C225 N25 1.394 . S
C249 C62 1.593 . S
C257 C30 1.597 . S
C281 C76 1.547 . S
C289 N58 1.512 . S
C313 C16 1.440 . S
C321 N127 1.415 . S
C345 N12 1.398 . S
C353 N104 1.389 . S
C377 C108 1.598 . S
C385 C53 1.596 . S
C409 N48 1.557 . S
C417 C131 1.599 . S
C441 C154 1.381 . S
C449 N117 1.370 . S
C473 N94 1.441 . S
C481 N150 1.440 . S
C505 C99 1.565 . S
C513 C168 1.568 . S
C537 C122 1.626 . S
C545 N163 1.598 . S
C569 C145 1.481 . S
C577 N81 1.426 . S
C601 N35 1.464 . S
C609 N140 1.476 1_556 S
C633 C39 1.551 . S
C641 C177 1.558 . S
C665 C85 1.579 . S
C673 N173 1.517 . S
