# Generated by pormake.
# Topology wjw, (5)-cn, num edge types: 1
# Building blocks:
#     Node 0, Type 0, BuildingBlock: XOMCOT_clean_sbu_1, # of connection points: 5
#     Node 1, Type 0, BuildingBlock: XOMCOT_clean_sbu_1, # of connection points: 5
#     Node 2, Type 0, BuildingBlock: XOMCOT_clean_sbu_1, # of connection points: 5
#     Node 3, Type 0, BuildingBlock: XOMCOT_clean_sbu_1, # of connection points: 5
#     Node 4, Type 0, BuildingBlock: XOMCOT_clean_sbu_1, # of connection points: 5
#     Node 5, Type 0, BuildingBlock: XOMCOT_clean_sbu_1, # of connection points: 5
#     Node 6, Type 0, BuildingBlock: XOMCOT_clean_sbu_1, # of connection points: 5
#     Node 7, Type 0, BuildingBlock: XOMCOT_clean_sbu_1, # of connection points: 5
#     Node 8, Type 0, BuildingBlock: XOMCOT_clean_sbu_1, # of connection points: 5
#     Node 9, Type 0, BuildingBlock: XOMCOT_clean_sbu_1, # of connection points: 5
#     Node 10, Type 0, BuildingBlock: XOMCOT_clean_sbu_1, # of connection points: 5
#     Node 11, Type 0, BuildingBlock: XOMCOT_clean_sbu_1, # of connection points: 5
#     Edge 12, Type (0, 0), BuildingBlock: UVAHIK_clean_linker_0, # of connection points: 2
#     Edge 13, Type (0, 0), BuildingBlock: UVAHIK_clean_linker_0, # of connection points: 2
#     Edge 14, Type (0, 0), BuildingBlock: UVAHIK_clean_linker_0, # of connection points: 2
#     Edge 15, Type (0, 0), BuildingBlock: UVAHIK_clean_linker_0, # of connection points: 2
#     Edge 16, Type (0, 0), BuildingBlock: UVAHIK_clean_linker_0, # of connection points: 2
#     Edge 17, Type (0, 0), BuildingBlock: UVAHIK_clean_linker_0, # of connection points: 2
#     Edge 18, Type (0, 0), BuildingBlock: UVAHIK_clean_linker_0, # of connection points: 2
#     Edge 19, Type (0, 0), BuildingBlock: UVAHIK_clean_linker_0, # of connection points: 2
#     Edge 20, Type (0, 0), BuildingBlock: UVAHIK_clean_linker_0, # of connection points: 2
#     Edge 21, Type (0, 0), BuildingBlock: UVAHIK_clean_linker_0, # of connection points: 2
#     Edge 22, Type (0, 0), BuildingBlock: UVAHIK_clean_linker_0, # of connection points: 2
#     Edge 23, Type (0, 0), BuildingBlock: UVAHIK_clean_linker_0, # of connection points: 2
#     Edge 24, Type (0, 0), BuildingBlock: UVAHIK_clean_linker_0, # of connection points: 2
#     Edge 25, Type (0, 0), BuildingBlock: UVAHIK_clean_linker_0, # of connection points: 2
#     Edge 26, Type (0, 0), BuildingBlock: UVAHIK_clean_linker_0, # of connection points: 2
#     Edge 27, Type (0, 0), BuildingBlock: UVAHIK_clean_linker_0, # of connection points: 2
#     Edge 28, Type (0, 0), BuildingBlock: UVAHIK_clean_linker_0, # of connection points: 2
#     Edge 29, Type (0, 0), BuildingBlock: UVAHIK_clean_linker_0, # of connection points: 2
#     Edge 30, Type (0, 0), BuildingBlock: UVAHIK_clean_linker_0, # of connection points: 2
#     Edge 31, Type (0, 0), BuildingBlock: UVAHIK_clean_linker_0, # of connection points: 2
#     Edge 32, Type (0, 0), BuildingBlock: UVAHIK_clean_linker_0, # of connection points: 2
#     Edge 33, Type (0, 0), BuildingBlock: UVAHIK_clean_linker_0, # of connection points: 2
#     Edge 34, Type (0, 0), BuildingBlock: UVAHIK_clean_linker_0, # of connection points: 2
#     Edge 35, Type (0, 0), BuildingBlock: UVAHIK_clean_linker_0, # of connection points: 2
#     Edge 36, Type (0, 0), BuildingBlock: UVAHIK_clean_linker_0, # of connection points: 2
#     Edge 37, Type (0, 0), BuildingBlock: UVAHIK_clean_linker_0, # of connection points: 2
#     Edge 38, Type (0, 0), BuildingBlock: UVAHIK_clean_linker_0, # of connection points: 2
#     Edge 39, Type (0, 0), BuildingBlock: UVAHIK_clean_linker_0, # of connection points: 2
#     Edge 40, Type (0, 0), BuildingBlock: UVAHIK_clean_linker_0, # of connection points: 2
#     Edge 41, Type (0, 0), BuildingBlock: UVAHIK_clean_linker_0, # of connection points: 2
# Relax obj value: 0.184
# Max RMSD: 0.164
# Mean RMSD: 0.161
data_MOF--net-wjw--node1-XOMCOT_clean_sbu_1--edge1-UVAHIK_clean_linker_0
_symmetry_space_group_name_H-M    P1
_symmetry_Int_Tables_number       1
_symmetry_cell_setting            triclinic
loop_
_symmetry_equiv_pos_as_xyz
'x, y, z'
_cell_length_a     50.321424
_cell_length_b     50.334243
_cell_length_c     48.214455
_cell_angle_alpha  90.01463
_cell_angle_beta   90.038823
_cell_angle_gamma 119.98319
loop_
_atom_site_label
_atom_site_type_symbol
_atom_site_fract_x
_atom_site_fract_y
_atom_site_fract_z
_atom_type_partial_charge
C0 C 0.18011 0.38303 0.28316 0.0
C1 C 0.19443 0.36627 0.27814 0.0
N2 N 0.18647 0.3451 0.29837 0.0
N3 N 0.16316 0.37249 0.30639 0.0
C4 C 0.16731 0.34931 0.31503 0.0
H5 H 0.18259 0.40225 0.2711 0.0
Co6 Co 0.14167 0.38923 0.32356 0.0
C7 C 0.11592 0.34853 0.3727 0.0
O8 O 0.08785 0.34213 0.36672 0.0
N9 N 0.12043 0.40639 0.34095 0.0
C10 C 0.10717 0.42965 0.37261 0.0
C11 C 0.125 0.41671 0.36732 0.0
C12 C 0.09983 0.41357 0.33052 0.0
N13 N 0.09123 0.4277 0.34947 0.0
O14 O 0.10433 0.35661 0.30849 0.0
H15 H 0.14099 0.41565 0.38165 0.0
H16 H 0.09156 0.40882 0.30939 0.0
O17 O 0.1381 0.36642 0.35704 0.0
C18 C 0.10276 0.36413 0.28354 0.0
O19 O 0.1234 0.39171 0.27517 0.0
N20 N 0.17873 0.42204 0.33551 0.0
C21 C 0.23698 0.47278 0.34243 0.0
C22 C 0.22874 0.44511 0.35614 0.0
C23 C 0.19943 0.41981 0.35224 0.0
C24 C 0.18604 0.44891 0.32268 0.0
C25 C 0.21496 0.47464 0.32601 0.0
H26 H 0.19402 0.39818 0.36155 0.0
H27 H 0.16957 0.45 0.30899 0.0
H28 H 0.15752 0.33658 0.33388 0.0
H29 H 0.2099 0.36988 0.26115 0.0
H30 H 0.10691 0.44064 0.39181 0.0
H31 H 0.24522 0.4426 0.36867 0.0
H32 H 0.22023 0.49564 0.31532 0.0
C33 C 0.79664 0.19573 0.62404 0.0
C34 C 0.82762 0.21622 0.6255 0.0
N35 N 0.84059 0.20394 0.64161 0.0
N36 N 0.79011 0.17084 0.63945 0.0
C37 C 0.81741 0.17633 0.64958 0.0
H38 H 0.77984 0.19901 0.61291 0.0
Co39 Co 0.75114 0.13769 0.64618 0.0
C40 C 0.75125 0.12365 0.70573 0.0
O41 O 0.72291 0.11831 0.70705 0.0
N42 N 0.71165 0.10336 0.65238 0.0
C43 C 0.67699 0.05509 0.66297 0.0
C44 C 0.70767 0.07578 0.66013 0.0
C45 C 0.68264 0.0984 0.64987 0.0
N46 N 0.66129 0.06935 0.65647 0.0
O47 O 0.76226 0.11114 0.62739 0.0
H48 H 0.7261 0.07104 0.66387 0.0
H49 H 0.67685 0.11547 0.64376 0.0
O50 O 0.76533 0.13094 0.6824 0.0
C51 C 0.76031 0.11418 0.60134 0.0
O52 O 0.75311 0.13456 0.59271 0.0
N53 N 0.74036 0.16528 0.6617 0.0
C54 C 0.73533 0.21744 0.67079 0.0
C55 C 0.75274 0.21016 0.6887 0.0
C56 C 0.7554 0.18429 0.68355 0.0
C57 C 0.72323 0.17199 0.64424 0.0
C58 C 0.71972 0.19741 0.64879 0.0
H59 H 0.77194 0.18155 0.69556 0.0
H60 H 0.71427 0.15898 0.62532 0.0
H61 H 0.82017 0.16081 0.6632 0.0
H62 H 0.83964 0.23847 0.6156 0.0
H63 H 0.66694 0.03128 0.66906 0.0
H64 H 0.76624 0.22559 0.70525 0.0
H65 H 0.70627 0.20221 0.63422 0.0
C66 C 0.60894 0.79632 0.94034 0.0
C67 C 0.62634 0.82747 0.93579 0.0
N68 N 0.64604 0.84001 0.95714 0.0
N69 N 0.6178 0.78935 0.96435 0.0
C70 C 0.64065 0.81639 0.97389 0.0
H71 H 0.59008 0.78002 0.92764 0.0
Co72 Co 0.59878 0.75126 0.98179 0.0
C73 C 0.6385 0.76264 0.03107 0.0
O74 O 0.64192 0.73901 0.02529 0.0
N75 N 0.57919 0.71281 0.99956 0.0
C76 C 0.55372 0.67699 0.03135 0.0
C77 C 0.56835 0.70782 0.02577 0.0
C78 C 0.57068 0.68452 0.98961 0.0
N79 N 0.55517 0.66222 0.00858 0.0
O80 O 0.62905 0.74315 0.96632 0.0
H81 H 0.57033 0.72549 0.03981 0.0
H82 H 0.57553 0.68026 0.9688 0.0
O83 O 0.6226 0.76939 0.01507 0.0
C84 C 0.61864 0.73148 0.94253 0.0
O85 O 0.59136 0.72663 0.93532 0.0
N86 N 0.56814 0.75868 0.99416 0.0
C87 C 0.519 0.76762 0.0054 0.0
C88 C 0.54789 0.78689 0.01724 0.0
C89 C 0.57233 0.78207 0.0113 0.0
C90 C 0.54039 0.74002 0.98224 0.0
C91 C 0.51541 0.7439 0.98776 0.0
H92 H 0.59464 0.79754 0.01991 0.0
H93 H 0.53781 0.72224 0.96804 0.0
H94 H 0.65262 0.81908 0.99321 0.0
H95 H 0.6235 0.84009 0.91898 0.0
H96 H 0.54212 0.66635 0.05051 0.0
H97 H 0.55157 0.80554 0.03087 0.0
H98 H 0.49368 0.72896 0.9777 0.0
C99 C 0.81045 0.60784 0.27873 0.0
C100 C 0.79679 0.62534 0.27452 0.0
N101 N 0.80357 0.64455 0.29626 0.0
N102 N 0.8259 0.616 0.30294 0.0
C103 C 0.82143 0.63852 0.313 0.0
H104 H 0.80825 0.5895 0.2655 0.0
Co105 Co 0.84485 0.59631 0.31959 0.0
C106 C 0.8756 0.63428 0.36902 0.0
O107 O 0.90104 0.63397 0.36363 0.0
N108 N 0.86356 0.57598 0.33645 0.0
C109 C 0.87464 0.55056 0.36778 0.0
C110 C 0.85707 0.56373 0.36217 0.0
C111 C 0.88506 0.56967 0.32677 0.0
N112 N 0.89237 0.55435 0.34553 0.0
O113 O 0.88282 0.62577 0.3031 0.0
H114 H 0.84058 0.56441 0.3761 0.0
H115 H 0.89551 0.5765 0.30653 0.0
O116 O 0.85267 0.62084 0.35277 0.0
C117 C 0.88285 0.61637 0.27855 0.0
O118 O 0.86051 0.589 0.27147 0.0
N119 N 0.80693 0.56666 0.3331 0.0
C120 C 0.74776 0.51992 0.34456 0.0
C121 C 0.75897 0.54903 0.35643 0.0
C122 C 0.78883 0.57222 0.35048 0.0
C123 C 0.79637 0.53854 0.32141 0.0
C124 C 0.76694 0.51467 0.32714 0.0
H125 H 0.79691 0.5948 0.35907 0.0
H126 H 0.81076 0.53488 0.30706 0.0
H127 H 0.82961 0.64911 0.33301 0.0
H128 H 0.78237 0.62342 0.2571 0.0
H129 H 0.87402 0.53875 0.38672 0.0
H130 H 0.74468 0.55386 0.36989 0.0
H131 H 0.75886 0.49263 0.31721 0.0
C132 C 0.19813 0.81568 0.61167 0.0
C133 C 0.16685 0.80095 0.60792 0.0
N134 N 0.15436 0.80817 0.62932 0.0
N135 N 0.20544 0.83224 0.63525 0.0
C136 C 0.17836 0.82736 0.6454 0.0
H137 H 0.21443 0.81367 0.59852 0.0
Co138 Co 0.24448 0.85359 0.65101 0.0
C139 C 0.23412 0.87826 0.70276 0.0
O140 O 0.2578 0.90544 0.69757 0.0
N141 N 0.28376 0.8745 0.66693 0.0
C142 C 0.32185 0.88628 0.69653 0.0
C143 C 0.29099 0.86814 0.69206 0.0
C144 C 0.31079 0.89653 0.65638 0.0
N145 N 0.33448 0.9043 0.67412 0.0
O146 O 0.24825 0.8912 0.63816 0.0
H147 H 0.27487 0.85085 0.70611 0.0
H148 H 0.31303 0.90635 0.63599 0.0
O149 O 0.22675 0.85617 0.68589 0.0
C150 C 0.25508 0.89338 0.6125 0.0
O151 O 0.26027 0.87261 0.60131 0.0
N152 N 0.24125 0.81652 0.66081 0.0
C153 C 0.23746 0.75976 0.66561 0.0
C154 C 0.21926 0.76714 0.68239 0.0
C155 C 0.22127 0.79575 0.67947 0.0
C156 C 0.25938 0.8099 0.64475 0.0
C157 C 0.25799 0.78171 0.6469 0.0
H158 H 0.20621 0.80076 0.69152 0.0
H159 H 0.2746 0.82652 0.62975 0.0
H160 H 0.17611 0.8366 0.66488 0.0
H161 H 0.15436 0.78565 0.59099 0.0
H162 H 0.33405 0.88528 0.7146 0.0
H163 H 0.2029 0.75059 0.69685 0.0
H164 H 0.27266 0.77703 0.6338 0.0
C165 C 0.39798 0.20129 0.95006 0.0
C166 C 0.3802 0.1699 0.94715 0.0
N167 N 0.3568 0.15976 0.96533 0.0
N168 N 0.38577 0.21073 0.96996 0.0
C169 C 0.36047 0.18502 0.97848 0.0
H170 H 0.41921 0.21609 0.93931 0.0
Co171 Co 0.40253 0.24992 0.98505 0.0
C172 C 0.36575 0.23952 0.03611 0.0
O173 O 0.36256 0.26342 0.03106 0.0
N174 N 0.41962 0.2893 1.00053 0.0
C175 C 0.44288 0.32769 0.03052 0.0
C176 C 0.43254 0.2972 0.02595 0.0
C177 C 0.42275 0.31557 0.98988 0.0
N178 N 0.43666 0.33929 0.00788 0.0
O179 O 0.36906 0.25316 0.97002 0.0
H180 H 0.43434 0.28169 0.04034 0.0
H181 H 0.41472 0.31723 0.96949 0.0
O182 O 0.3808 0.23234 0.01946 0.0
C183 C 0.37462 0.25922 0.94428 0.0
O184 O 0.40095 0.26375 0.93451 0.0
N185 N 0.43616 0.2472 0.99719 0.0
C186 C 0.48977 0.24624 0.00883 0.0
C187 C 0.46198 0.22503 0.0214 0.0
C188 C 0.43524 0.22589 0.01527 0.0
C189 C 0.46278 0.26746 0.98438 0.0
C190 C 0.48993 0.26762 0.99014 0.0
H191 H 0.41381 0.20912 0.02458 0.0
H192 H 0.46278 0.28348 0.96943 0.0
H193 H 0.34536 0.18463 0.99459 0.0
H194 H 0.38512 0.15553 0.9339 0.0
H195 H 0.45455 0.34043 0.04899 0.0
H196 H 0.46096 0.208 0.03576 0.0
H197 H 0.51075 0.28387 0.9795 0.0
C198 C 0.63471 0.83584 0.39913 0.0
C199 C 0.65114 0.82079 0.40207 0.0
N200 N 0.65359 0.8106 0.37692 0.0
N201 N 0.6273 0.83553 0.37216 0.0
C202 C 0.6389 0.81971 0.35932 0.0
H203 H 0.62863 0.84623 0.41571 0.0
Co204 Co 0.60576 0.85272 0.3555 0.0
C205 C 0.63963 0.87644 0.30259 0.0
O206 O 0.64254 0.90356 0.30679 0.0
N207 N 0.58368 0.86957 0.3384 0.0
C208 C 0.55595 0.87788 0.30725 0.0
C209 C 0.5701 0.86128 0.31324 0.0
C210 C 0.57706 0.89113 0.34737 0.0
N211 N 0.56034 0.89672 0.32874 0.0
O212 O 0.63769 0.89262 0.36669 0.0
H213 H 0.57054 0.84425 0.29989 0.0
H214 H 0.5846 0.90296 0.36695 0.0
O215 O 0.62605 0.8553 0.32056 0.0
C216 C 0.63054 0.89822 0.39048 0.0
O217 O 0.60376 0.87828 0.40099 0.0
N218 N 0.57385 0.81347 0.34756 0.0
C219 C 0.52437 0.75387 0.34577 0.0
C220 C 0.54693 0.76453 0.325 0.0
C221 C 0.57172 0.79453 0.32632 0.0
C222 C 0.55191 0.80369 0.36753 0.0
C223 C 0.52695 0.774 0.36705 0.0
H224 H 0.58923 0.80215 0.31055 0.0
H225 H 0.55416 0.81905 0.38422 0.0
H226 H 0.63693 0.81512 0.33735 0.0
H227 H 0.6602 0.8173 0.42122 0.0
H228 H 0.54311 0.87592 0.2886 0.0
H229 H 0.54584 0.74962 0.3083 0.0
H230 H 0.5098 0.76691 0.38323 0.0
C231 C 0.79561 0.63117 0.73539 0.0
C232 C 0.82704 0.64935 0.73744 0.0
N233 N 0.83903 0.65253 0.71189 0.0
N234 N 0.78786 0.62331 0.7086 0.0
C235 C 0.81488 0.63653 0.69491 0.0
H236 H 0.77957 0.62406 0.75243 0.0
Co237 Co 0.74868 0.59918 0.69366 0.0
C238 C 0.75358 0.62688 0.63861 0.0
O239 O 0.72748 0.62637 0.64244 0.0
N240 N 0.70915 0.57434 0.67835 0.0
C241 C 0.67234 0.54184 0.64995 0.0
C242 C 0.70331 0.55764 0.65489 0.0
C243 C 0.68109 0.56803 0.68735 0.0
N244 N 0.65826 0.5484 0.67034 0.0
O245 O 0.73956 0.63083 0.70234 0.0
H246 H 0.72055 0.557 0.64199 0.0
H247 H 0.67729 0.57779 0.7058 0.0
O248 O 0.76414 0.61685 0.65737 0.0
C249 C 0.72784 0.62645 0.72647 0.0
O250 O 0.72215 0.60159 0.74016 0.0
N251 N 0.75723 0.56774 0.68784 0.0
C252 C 0.76366 0.51599 0.68572 0.0
C253 C 0.77806 0.53943 0.66591 0.0
C254 C 0.77466 0.56534 0.66739 0.0
C255 C 0.74366 0.5456 0.7075 0.0
C256 C 0.74641 0.51946 0.70677 0.0
H257 H 0.78576 0.58312 0.65198 0.0
H258 H 0.73012 0.54813 0.7236 0.0
H259 H 0.81697 0.6347 0.6728 0.0
H260 H 0.84004 0.659 0.75629 0.0
H261 H 0.66113 0.52638 0.63276 0.0
H262 H 0.79187 0.53781 0.6495 0.0
H263 H 0.73449 0.50182 0.72223 0.0
C264 C 0.17406 0.80353 0.0651 0.0
C265 C 0.18741 0.83487 0.06765 0.0
N266 N 0.17972 0.84554 0.04522 0.0
N267 N 0.1579 0.7945 0.04126 0.0
C268 C 0.16154 0.82058 0.0298 0.0
H269 H 0.17737 0.78852 0.07893 0.0
Co270 Co 0.14019 0.75529 0.02597 0.0
C271 C 0.11456 0.76127 0.97284 0.0
O272 O 0.08856 0.73593 0.97768 0.0
N273 N 0.12295 0.71589 0.01045 0.0
C274 C 0.11497 0.67858 0.98117 0.0
C275 C 0.132 0.70941 0.98627 0.0
C276 C 0.10042 0.68844 0.01977 0.0
N277 N 0.09493 0.66526 1.00216 0.0
O278 O 0.10074 0.74763 0.03782 0.0
H279 H 0.14996 0.72613 0.9731 0.0
H280 H 0.08818 0.68555 0.03897 0.0
O281 O 0.13629 0.77111 0.99048 0.0
C282 C 0.09886 0.7412 0.06356 0.0
O283 O 0.12108 0.73863 0.07519 0.0
N284 N 0.17915 0.76258 0.01724 0.0
C285 C 0.23916 0.77416 0.01487 0.0
C286 C 0.22939 0.78978 0.99722 0.0
C287 C 0.19916 0.78387 0.99893 0.0
C288 C 0.18809 0.7468 0.03406 0.0
C289 C 0.21797 0.75213 0.03315 0.0
H290 H 0.19227 0.79712 0.98629 0.0
H291 H 0.172 0.73052 0.04881 0.0
H292 H 0.15207 0.82156 0.00999 0.0
H293 H 0.2032 0.84887 0.08378 0.0
H294 H 0.11774 0.66689 0.96353 0.0
H295 H 0.24524 0.80717 0.98303 0.0
H296 H 0.22452 0.73934 0.04689 0.0
C297 C 0.36041 0.15888 0.39807 0.0
C298 C 0.34179 0.17165 0.39989 0.0
N299 N 0.33656 0.178 0.37402 0.0
N300 N 0.36648 0.15678 0.37114 0.0
C301 C 0.35169 0.16879 0.3571 0.0
H302 H 0.36939 0.15224 0.41543 0.0
Co303 Co 0.3916 0.14283 0.35606 0.0
C304 C 0.36085 0.11406 0.30314 0.0
O305 O 0.3643 0.09019 0.30747 0.0
N306 N 0.41732 0.12927 0.34041 0.0
C307 C 0.44839 0.12449 0.31051 0.0
C308 C 0.43274 0.13965 0.31626 0.0
C309 C 0.42426 0.10779 0.34898 0.0
N310 N 0.443 0.10433 0.33106 0.0
O311 O 0.36348 0.10248 0.36935 0.0
H312 H 0.43217 0.15677 0.30316 0.0
H313 H 0.41521 0.09425 0.36756 0.0
O314 O 0.37021 0.13544 0.32108 0.0
C315 C 0.37273 0.10164 0.39381 0.0
O316 O 0.39927 0.12472 0.40181 0.0
N317 N 0.41977 0.18291 0.34639 0.0
C318 C 0.4628 0.245 0.34376 0.0
C319 C 0.44057 0.23119 0.32286 0.0
C320 C 0.41889 0.19991 0.32468 0.0
C321 C 0.44172 0.19583 0.36631 0.0
C322 C 0.46347 0.22681 0.36542 0.0
H323 H 0.40126 0.18969 0.309 0.0
H324 H 0.4418 0.18197 0.38341 0.0
H325 H 0.35218 0.1711 0.3348 0.0
H326 H 0.33361 0.17679 0.41877 0.0
H327 H 0.46268 0.12814 0.29254 0.0
H328 H 0.43943 0.24459 0.30581 0.0
H329 H 0.48063 0.2365 0.38165 0.0
C330 C 0.20332 0.39359 0.73201 0.0
C331 C 0.17244 0.381 0.73707 0.0
N332 N 0.15713 0.35665 0.72018 0.0
N333 N 0.20742 0.37739 0.71188 0.0
C334 C 0.17887 0.35477 0.70536 0.0
H335 H 0.22159 0.41416 0.74141 0.0
Co336 Co 0.24488 0.3888 0.69482 0.0
C337 C 0.21508 0.34129 0.64941 0.0
O338 O 0.21823 0.31975 0.66172 0.0
N339 N 0.2824 0.40056 0.67763 0.0
C340 C 0.3186 0.41641 0.64541 0.0
C341 C 0.28823 0.40634 0.65032 0.0
C342 C 0.30974 0.4076 0.68898 0.0
N343 N 0.33225 0.41722 0.66971 0.0
O344 O 0.24466 0.35387 0.71074 0.0
H345 H 0.27173 0.40453 0.63498 0.0
H346 H 0.31311 0.40614 0.71097 0.0
O347 O 0.22415 0.36698 0.66138 0.0
C348 C 0.25206 0.35998 0.73621 0.0
O349 O 0.25936 0.3873 0.74562 0.0
N350 N 0.24587 0.42403 0.6816 0.0
C351 C 0.24558 0.47839 0.672 0.0
C352 C 0.22269 0.45064 0.66063 0.0
C353 C 0.2231 0.4236 0.66587 0.0
C354 C 0.26872 0.45083 0.69225 0.0
C355 C 0.26914 0.47836 0.68755 0.0
H356 H 0.20419 0.4022 0.65854 0.0
H357 H 0.28595 0.45059 0.70549 0.0
H358 H 0.17384 0.33838 0.68888 0.0
H359 H 0.16203 0.38973 0.75134 0.0
H360 H 0.32998 0.42383 0.62556 0.0
H361 H 0.20412 0.44966 0.64847 0.0
H362 H 0.28691 0.49912 0.69719 0.0
C363 C 0.81059 0.19903 0.0522 0.0
C364 C 0.79199 0.16767 0.05107 0.0
N365 N 0.80359 0.15666 0.03203 0.0
N366 N 0.83381 0.20766 0.03398 0.0
C367 C 0.829 0.18133 0.02214 0.0
H368 H 0.80731 0.2146 0.0653 0.0
Co369 Co 0.86521 0.24749 0.02693 0.0
C370 C 0.87471 0.24921 0.96623 0.0
O371 O 0.87808 0.27684 0.96608 0.0
N372 N 0.89782 0.28776 0.02007 0.0
C373 C 0.94439 0.32384 0.00646 0.0
C374 C 0.9251 0.29297 0.00999 0.0
C375 C 0.90159 0.31625 0.02321 0.0
N376 N 0.92958 0.33842 0.0148 0.0
O377 O 0.89437 0.23766 0.04239 0.0
H378 H 0.93049 0.27526 1.00494 0.0
H379 H 0.88432 0.32106 0.03089 0.0
O380 O 0.86999 0.23487 0.98928 0.0
C381 C 0.89223 0.23739 0.06876 0.0
O382 O 0.87134 0.24237 0.07998 0.0
N383 N 0.83537 0.25689 0.0151 0.0
C384 C 0.78171 0.26026 0.0122 0.0
C385 C 0.78809 0.2441 0.99206 0.0
C386 C 0.8148 0.24221 0.99415 0.0
C387 C 0.82945 0.27269 0.03473 0.0
C388 C 0.80325 0.27534 0.03333 0.0
H389 H 0.81727 0.22669 0.98039 0.0
H390 H 0.84409 0.28145 0.05279 0.0
H391 H 0.84402 0.18015 0.00678 0.0
H392 H 0.77121 0.15411 0.0629 0.0
H393 H 0.96759 0.33479 0.99848 0.0
H394 H 0.77156 0.23112 0.97602 0.0
H395 H 0.7992 0.28785 0.04948 0.0
C396 C 0.90393 0.21977 0.11257 0.0
C397 C 0.91442 0.23546 0.08732 0.0
C398 C 0.92448 0.22438 0.13397 0.0
C399 C 0.00772 0.26387 0.15304 0.0
H400 H 0.97767 0.27765 0.22258 0.0
C401 C 0.08618 0.34946 0.23469 0.0
C402 C 0.08074 0.34231 0.26305 0.0
C403 C 0.06609 0.32976 0.21463 0.0
C404 C 0.98627 0.2733 0.20354 0.0
H405 H 0.9546 0.26676 0.06381 0.0
H406 H 0.99072 0.27563 0.10144 0.0
H407 H 0.94253 0.25433 0.1839 0.0
H408 H 0.05001 0.30852 0.29262 0.0
H409 H 0.01404 0.27399 0.2572 0.0
H410 H 0.05191 0.28456 0.1725 0.0
C411 C 0.96668 0.25916 0.10465 0.0
C412 C 0.96611 0.25984 0.18126 0.0
C413 C 0.94605 0.25408 0.083 0.0
C414 C 0.05472 0.31466 0.27093 0.0
C415 C 0.03422 0.29497 0.2507 0.0
C416 C 0.02793 0.27754 0.1753 0.0
C417 C 0.95596 0.24538 0.13082 0.0
C418 C 0.97669 0.25563 0.15547 0.0
C419 C 0.03978 0.30239 0.22232 0.0
C420 C 0.01756 0.28315 0.20054 0.0
H421 H 0.87957 0.2052 0.1163 0.0
H422 H 0.91546 0.21267 0.15349 0.0
H423 H 0.0166 0.2605 0.13372 0.0
H424 H 0.10609 0.37046 0.2278 0.0
H425 H 0.07077 0.33644 0.19304 0.0
C426 C 0.68384 0.93647 0.40672 0.0
C427 C 0.65193 0.9244 0.40786 0.0
C428 C 0.70289 0.95701 0.42725 0.0
C429 C 0.69775 0.9776 0.49984 0.0
H430 H 0.77364 0.05318 0.4858 0.0
C431 C 0.75551 0.06363 0.58804 0.0
C432 C 0.76191 0.09325 0.58076 0.0
C433 C 0.75052 0.04203 0.56732 0.0
C434 C 0.75258 0.03203 0.4901 0.0
H435 H 0.6152 0.92596 0.42989 0.0
H436 H 0.64816 0.96195 0.46496 0.0
H437 H 0.74681 0.018 0.44741 0.0
H438 H 0.77105 0.12441 0.54637 0.0
H439 H 0.76201 0.08707 0.51059 0.0
H440 H 0.70219 0.9921 0.54199 0.0
C441 C 0.65854 0.955 0.44896 0.0
C442 C 0.73735 0.01181 0.46812 0.0
C443 C 0.63968 0.93459 0.42869 0.0
C444 C 0.76582 0.10162 0.55263 0.0
C445 C 0.76091 0.0802 0.53204 0.0
C446 C 0.71285 -0.00227 0.52172 0.0
C447 C 0.6902 0.96564 0.44911 0.0
C448 C 0.70914 0.98495 0.47262 0.0
C449 C 0.75194 0.04976 0.53903 0.0
C450 C 0.7399 0.02575 0.517 0.0
H451 H 0.6938 0.92878 0.39096 0.0
H452 H 0.72726 0.96502 0.42674 0.0
H453 H 0.6764 0.9567 0.5041 0.0
H454 H 0.75244 0.05656 0.60957 0.0
H455 H 0.74415 0.0189 0.57345 0.0
C456 C 0.66802 0.74101 0.92035 0.0
C457 C 0.63589 0.72384 0.92242 0.0
C458 C 0.68296 0.7367 0.89762 0.0
C459 C 0.66588 0.70887 0.82539 0.0
H460 H 0.7368 0.69809 0.82998 0.0
C461 C 0.69083 0.63907 0.74738 0.0
C462 C 0.72119 0.64849 0.74005 0.0
C463 C 0.68447 0.65587 0.76657 0.0
C464 C 0.7174 0.70175 0.82828 0.0
H465 H 0.59448 0.6872 0.90384 0.0
H466 H 0.62031 0.67935 0.86496 0.0
H467 H 0.71853 0.71184 0.87171 0.0
H468 H 0.76879 0.6828 0.74638 0.0
H469 H 0.75771 0.7124 0.78041 0.0
H470 H 0.66382 0.69754 0.78238 0.0
C471 C 0.63402 0.69678 0.88012 0.0
C472 C 0.70692 0.70953 0.85218 0.0
C473 C 0.61924 0.70112 0.90254 0.0
C474 C 0.74514 0.67566 0.7513 0.0
C475 C 0.73883 0.69228 0.77096 0.0
C476 C 0.67625 0.70106 0.80164 0.0
C477 C 0.66587 0.7152 0.87681 0.0
C478 C 0.68035 0.71201 0.85114 0.0
C479 C 0.70845 0.68207 0.77928 0.0
C480 C 0.70146 0.69637 0.803 0.0
H481 H 0.68133 0.75877 0.93537 0.0
H482 H 0.7076 0.75105 0.89567 0.0
H483 H 0.64579 0.71141 0.8238 0.0
H484 H 0.67213 0.61775 0.73939 0.0
H485 H 0.66087 0.64716 0.77282 0.0
C486 C 0.08283 0.7564 0.10611 0.0
C487 C 0.07443 0.73936 0.08144 0.0
C488 C 0.06118 0.75026 0.12678 0.0
C489 C 0.97791 0.7051 0.144 0.0
H490 H 0.00884 0.69997 0.2164 0.0
C491 C 0.90068 0.62552 0.22961 0.0
C492 C 0.90541 0.63576 0.25728 0.0
C493 C 0.92082 0.64339 0.20878 0.0
C494 C -6e-05 0.70184 0.19648 0.0
H495 H 0.03686 0.70364 0.05813 0.0
H496 H -0.00128 0.69211 0.09465 0.0
H497 H 0.04422 0.72223 0.17774 0.0
H498 H 0.93514 0.67295 0.28476 0.0
H499 H 0.97108 0.70428 0.24804 0.0
H500 H 0.93336 0.68334 0.16271 0.0
C501 C 0.02191 0.71076 0.09786 0.0
C502 C 0.02021 0.71465 0.17424 0.0
C503 C 0.04364 0.7173 0.07691 0.0
C504 C 0.93096 0.66443 0.26366 0.0
C505 C 0.95146 0.68231 0.24268 0.0
C506 C 0.95761 0.69214 0.16624 0.0
C507 C 0.03074 0.72642 0.12348 0.0
C508 C 0.00939 0.71591 0.14757 0.0
C509 C 0.94642 0.67196 0.21499 0.0
C510 C 0.96834 0.68974 0.19256 0.0
H511 H 0.10655 0.77361 0.10993 0.0
H512 H 0.06863 0.76333 0.14587 0.0
H513 H 0.96886 0.70616 0.1239 0.0
H514 H 0.88122 0.6036 0.22385 0.0
H515 H 0.91662 0.63448 0.1878 0.0
C516 C 0.36423 0.0817 0.44197 0.0
C517 C 0.35345 0.07818 0.41453 0.0
C518 C 0.34601 0.0618 0.46274 0.0
C519 C 0.28559 0.98475 0.47638 0.0
H520 H 0.28306 0.01893 0.54788 0.0
C521 C 0.23613 0.90616 0.57035 0.0
C522 C 0.25449 0.91633 0.59422 0.0
C523 C 0.24046 0.92652 0.54891 0.0
C524 C 0.28355 0.00899 0.5281 0.0
H525 H 0.31514 0.05042 0.38729 0.0
H526 H 0.28322 0.01457 0.42398 0.0
H527 H 0.30539 0.05275 0.50795 0.0
H528 H 0.29071 0.95564 0.61534 0.0
H529 H 0.29906 0.99147 0.57755 0.0
H530 H 0.26549 0.94128 0.49663 0.0
C531 C 0.30584 0.03328 0.42916 0.0
C532 C 0.29618 0.02833 0.50521 0.0
C533 C 0.32408 0.05366 0.40822 0.0
C534 C 0.27599 0.94752 0.59723 0.0
C535 C 0.28071 0.96793 0.57553 0.0
C536 C 0.27316 0.96541 0.49932 0.0
C537 C 0.31656 0.03756 0.4567 0.0
C538 C 0.29814 0.01649 0.47935 0.0
C539 C 0.26378 0.95738 0.55065 0.0
C540 C 0.27275 0.9774 0.52565 0.0
H541 H 0.38675 0.10024 0.4477 0.0
H542 H 0.35517 0.06524 0.48361 0.0
H543 H 0.28708 0.97508 0.45677 0.0
H544 H 0.21941 0.88206 0.5677 0.0
H545 H 0.22649 0.91773 0.53042 0.0
C546 C 0.26608 0.32047 0.74986 0.0
C547 C 0.25162 0.33744 0.75589 0.0
C548 C 0.2713 0.30453 0.77108 0.0
C549 C 0.28104 0.3092 0.84727 0.0
H550 H 0.28824 0.23666 0.83745 0.0
C551 C 0.32875 0.26528 0.93412 0.0
C552 C 0.35243 0.26039 0.92493 0.0
C553 C 0.3098 0.26878 0.91484 0.0
C554 C 0.28621 0.25689 0.84052 0.0
H555 H 0.22883 0.34903 0.78775 0.0
H556 H 0.23653 0.32023 0.82429 0.0
H557 H 0.26653 0.25291 0.80022 0.0
H558 H 0.3738 0.25368 0.88853 0.0
H559 H 0.34106 0.2597 0.8553 0.0
H560 H 0.30141 0.31365 0.88721 0.0
C561 C 0.24501 0.32004 0.80369 0.0
C562 C 0.2739 0.26627 0.81915 0.0
C563 C 0.24034 0.33631 0.78272 0.0
C564 C 0.35593 0.25772 0.89631 0.0
C565 C 0.33691 0.26083 0.8772 0.0
C566 C 0.29318 0.29974 0.86863 0.0
C567 C 0.26175 0.30508 0.7985 0.0
C568 C 0.27173 0.29291 0.82204 0.0
C569 C 0.31397 0.26693 0.88614 0.0
C570 C 0.29657 0.27391 0.86527 0.0
H571 H 0.27519 0.32128 0.72933 0.0
H572 H 0.2844 0.29339 0.76631 0.0
H573 H 0.28033 0.33016 0.85015 0.0
H574 H 0.32551 0.26737 0.95605 0.0
H575 H 0.29218 0.27334 0.92233 0.0
C576 C 0.10186 0.32874 0.42153 0.0
C577 C 0.12289 0.33873 0.39943 0.0
C578 C 0.11035 0.32361 0.44783 0.0
C579 C 0.18011 0.34989 0.48977 0.0
H580 H 0.1262 0.28761 0.54202 0.0
C581 C 0.18808 0.30811 0.60776 0.0
C582 C 0.20248 0.33698 0.62084 0.0
C583 C 0.17713 0.30493 0.58045 0.0
C584 C 0.14159 0.30494 0.52754 0.0
H585 H 0.16845 0.3488 0.38713 0.0
H586 H 0.18305 0.33963 0.43268 0.0
H587 H 0.10893 0.28659 0.49421 0.0
H588 H 0.2165 0.38506 0.61528 0.0
H589 H 0.19749 0.37945 0.56827 0.0
H590 H 0.21262 0.36844 0.52289 0.0
C591 C 0.16029 0.3365 0.42997 0.0
C592 C 0.13162 0.30453 0.50027 0.0
C593 C 0.15188 0.34171 0.4038 0.0
C594 C 0.20543 0.36242 0.60608 0.0
C595 C 0.19475 0.35929 0.57892 0.0
C596 C 0.18993 0.35039 0.51693 0.0
C597 C 0.14 0.32829 0.45253 0.0
C598 C 0.15072 0.32717 0.48111 0.0
C599 C 0.18073 0.33062 0.56565 0.0
C600 C 0.17069 0.32822 0.53626 0.0
H601 H 0.07934 0.32622 0.41886 0.0
H602 H 0.09419 0.31744 0.46477 0.0
H603 H 0.19531 0.36793 0.47575 0.0
H604 H 0.1854 0.28805 0.61856 0.0
H605 H 0.16648 0.28255 0.57071 0.0
C606 C 0.75257 0.12145 0.75746 0.0
C607 C 0.76823 0.1276 0.73204 0.0
C608 C 0.76859 0.12957 0.78255 0.0
C609 C 0.845 0.18489 0.81044 0.0
H610 H 0.80734 0.14344 0.8793 0.0
C611 C 0.86189 0.20186 0.93827 0.0
C612 C 0.87082 0.23315 0.93938 0.0
C613 C 0.85457 0.18623 0.91282 0.0
C614 C 0.81862 0.15513 0.86033 0.0
H615 H 0.81309 0.14537 0.71327 0.0
H616 H 0.84112 0.15895 0.75718 0.0
H617 H 0.78487 0.11877 0.83534 0.0
H618 H 0.88035 0.27278 0.91435 0.0
H619 H 0.86707 0.24571 0.87055 0.0
H620 H 0.87893 0.2211 0.83541 0.0
C621 C 0.81638 0.14848 0.75765 0.0
C622 C 0.80542 0.14112 0.83501 0.0
C623 C 0.80028 0.14044 0.73243 0.0
C624 C 0.87353 0.24868 0.91438 0.0
C625 C 0.86612 0.23311 0.88907 0.0
C626 C 0.85839 0.19874 0.83575 0.0
C627 C 0.8008 0.1439 0.78304 0.0
C628 C 0.81778 0.15627 0.80971 0.0
C629 C 0.85598 0.20153 0.88791 0.0
C630 C 0.84477 0.18457 0.86108 0.0
H631 H 0.72788 0.1115 0.75804 0.0
H632 H 0.75566 0.12598 0.80147 0.0
H633 H 0.85522 0.19742 0.79151 0.0
H634 H 0.8597 0.1892 0.95708 0.0
H635 H 0.84731 0.16203 0.91275 0.0
C636 C 0.65192 0.88663 0.25182 0.0
C637 C 0.64804 0.86873 0.27548 0.0
C638 C 0.65634 0.87725 0.22569 0.0
C639 C 0.67675 0.85862 0.17323 0.0
H640 H 0.62933 0.77133 0.15824 0.0
C641 C 0.64868 0.80615 0.06283 0.0
C642 C 0.64831 0.77834 0.0583 0.0
C643 C 0.65381 0.81903 0.08936 0.0
C644 C 0.64313 0.79573 0.16218 0.0
H645 H 0.64758 0.82786 0.29036 0.0
H646 H 0.65622 0.81209 0.24526 0.0
H647 H 0.62828 0.79035 0.20431 0.0
H648 H 0.65441 0.74302 0.07794 0.0
H649 H 0.66331 0.76551 0.12434 0.0
H650 H 0.6906 0.86385 0.13058 0.0
C651 C 0.65484 0.83284 0.24659 0.0
C652 C 0.64258 0.8067 0.18868 0.0
C653 C 0.65009 0.84203 0.27258 0.0
C654 C 0.65455 0.76444 0.0807 0.0
C655 C 0.65941 0.7772 0.10733 0.0
C656 C 0.67708 0.84763 0.14661 0.0
C657 C 0.65729 0.8499 0.22264 0.0
C658 C 0.65923 0.83832 0.19459 0.0
C659 C 0.65847 0.80431 0.11206 0.0
C660 C 0.6601 0.81605 0.14073 0.0
H661 H 0.65031 0.90725 0.25329 0.0
H662 H 0.65781 0.89087 0.20777 0.0
H663 H 0.69024 0.88305 0.17705 0.0
H664 H 0.64416 0.81759 0.046 0.0
H665 H 0.65276 0.83982 0.09228 0.0
C666 C 0.75098 0.62516 0.58693 0.0
C667 C 0.76863 0.63491 0.61122 0.0
C668 C 0.76514 0.62997 0.56101 0.0
C669 C 0.84105 0.65067 0.52859 0.0
H670 H 0.7979 0.65079 0.46216 0.0
C671 C 0.85329 0.658 0.39983 0.0
C672 C 0.87048 0.64324 0.39675 0.0
C673 C 0.84455 0.66244 0.4262 0.0
C674 C 0.81084 0.65153 0.48035 0.0
H675 H 0.81483 0.65856 0.6276 0.0
H676 H 0.83975 0.66914 0.58249 0.0
H677 H 0.7765 0.65052 0.50691 0.0
H678 H 0.89211 0.62152 0.41858 0.0
H679 H 0.87543 0.62732 0.46427 0.0
H680 H 0.87647 0.65394 0.50208 0.0
C681 C 0.81495 0.65632 0.58315 0.0
C682 C 0.79803 0.6506 0.50632 0.0
C683 C 0.80072 0.6506 0.60913 0.0
C684 C 0.87934 0.63353 0.42048 0.0
C685 C 0.86977 0.63703 0.44678 0.0
C686 C 0.85433 0.65259 0.50264 0.0
C687 C 0.79741 0.64554 0.55863 0.0
C688 C 0.8125 0.64937 0.53091 0.0
C689 C 0.85176 0.65112 0.45011 0.0
C690 C 0.83912 0.65228 0.478 0.0
H691 H 0.72615 0.61258 0.58804 0.0
H692 H 0.75053 0.62051 0.543 0.0
H693 H 0.85303 0.64942 0.54673 0.0
H694 H 0.84622 0.66575 0.38179 0.0
H695 H 0.83163 0.67429 0.42762 0.0
C696 C 0.11314 0.75686 0.92135 0.0
C697 C 0.12103 0.77536 0.94508 0.0
C698 C 0.1228 0.77006 0.89513 0.0
C699 C 0.17929 0.84463 0.86147 0.0
H700 H 0.13769 0.79937 0.7953 0.0
C701 C 0.23737 0.88067 0.75429 0.0
C702 C 0.21936 0.87153 0.73021 0.0
C703 C 0.22373 0.87107 0.78036 0.0
C704 C 0.14945 0.81288 0.81337 0.0
H705 H 0.14385 0.82209 0.96013 0.0
H706 H 0.15854 0.84539 0.91443 0.0
H707 H 0.11525 0.77963 0.84004 0.0
H708 H 0.17304 0.8465 0.71428 0.0
H709 H 0.14884 0.83183 0.75965 0.0
H710 H 0.21223 0.87905 0.83477 0.0
C711 C 0.14637 0.82063 0.91579 0.0
C712 C 0.1368 0.80104 0.83939 0.0
C713 C 0.13759 0.80733 0.94209 0.0
C714 C 0.1874 0.85371 0.73262 0.0
C715 C 0.17361 0.84498 0.75874 0.0
C716 C 0.1914 0.85699 0.83544 0.0
C717 C 0.13984 0.80222 0.89186 0.0
C718 C 0.15187 0.8163 0.86395 0.0
C719 C 0.19158 0.85283 0.78308 0.0
C720 C 0.17712 0.84099 0.81091 0.0
H721 H 0.10082 0.73209 0.92321 0.0
H722 H 0.11777 0.75481 0.87764 0.0
H723 H 0.19211 0.85718 0.87959 0.0
H724 H 0.26216 0.894 0.75286 0.0
H725 H 0.2387 0.87715 0.7982 0.0
C726 C 0.36475 0.24106 0.08775 0.0
C727 C 0.35668 0.22392 0.06317 0.0
C728 C 0.36004 0.2265 0.11347 0.0
C729 C 0.34435 0.15147 0.14437 0.0
H730 H 0.33975 0.19081 0.21172 0.0
C731 C 0.36392 0.11322 0.25157 0.0
C732 C 0.35228 0.11972 0.27541 0.0
C733 C 0.36012 0.1231 0.22551 0.0
C734 C 0.34032 0.17892 0.19324 0.0
H735 H 0.33594 0.17824 0.04597 0.0
H736 H 0.3254 0.15241 0.09063 0.0
H737 H 0.33877 0.21251 0.1674 0.0
H738 H 0.32613 0.14007 0.29078 0.0
H739 H 0.31729 0.15521 0.24529 0.0
H740 H 0.34375 0.11672 0.1701 0.0
C741 C 0.33688 0.1772 0.09042 0.0
C742 C 0.34049 0.19192 0.16755 0.0
C743 C 0.34253 0.1919 0.0647 0.0
C744 C 0.33543 0.13489 0.27265 0.0
C745 C 0.33077 0.14394 0.2465 0.0
C746 C 0.34324 0.13796 0.17001 0.0
C747 C 0.34631 0.19428 0.11527 0.0
C748 C 0.34325 0.17885 0.14266 0.0
C749 C 0.34383 0.13903 0.22254 0.0
C750 C 0.34196 0.15183 0.19496 0.0
H751 H 0.37617 0.26588 0.08702 0.0
H752 H 0.36833 0.24079 0.13177 0.0
H753 H 0.34692 0.14064 0.12598 0.0
H754 H 0.37749 0.10204 0.25323 0.0
H755 H 0.37119 0.11929 0.20797 0.0
C756 C 0.92778 0.53949 0.36671 0.0
C757 C 0.91453 0.54421 0.3429 0.0
C758 C 0.94837 0.52866 0.36456 0.0
C759 C 0.97289 0.48667 0.31792 0.0
H760 H 0.04033 0.51587 0.37023 0.0
C761 C 0.06446 0.44722 0.31943 0.0
C762 C 0.07073 0.4398 0.3459 0.0
C763 C 0.04607 0.46074 0.3165 0.0
C764 C 0.02154 0.50741 0.35553 0.0
H765 H 0.913 0.54145 0.29799 0.0
H766 H 0.9496 0.52308 0.29418 0.0
H767 H 0.00826 0.53942 0.36936 0.0
H768 H 0.06094 0.43937 0.38982 0.0
H769 H 0.0297 0.46333 0.38469 0.0
H770 H 0.98649 0.4546 0.30417 0.0
C771 C 0.94362 0.52743 0.31459 0.0
C772 C 0.00309 0.52084 0.35507 0.0
C773 C 0.92288 0.53827 0.31676 0.0
C774 C 0.05743 0.44546 0.36918 0.0
C775 C 0.0394 0.45917 0.36627 0.0
C776 C 0.9916 0.47335 0.31824 0.0
C777 C 0.95656 0.52242 0.33851 0.0
C778 C 0.97805 0.51017 0.33674 0.0
C779 C 0.03384 0.46735 0.33998 0.0
C780 C 0.01566 0.48313 0.33752 0.0
H781 H 0.92233 0.54421 0.38717 0.0
H782 H 0.95745 0.52468 0.38348 0.0
H783 H 0.9537 0.47773 0.30365 0.0
H784 H 0.07438 0.4434 0.30104 0.0
H785 H 0.04217 0.46685 0.29597 0.0
C786 C 0.61315 0.06286 0.6363 0.0
C787 C 0.62847 0.05601 0.65699 0.0
C788 C 0.58101 0.04809 0.63598 0.0
C789 C 0.51277 0.97904 0.66533 0.0
H790 H 0.46843 0.01963 0.64128 0.0
C791 C 0.38712 0.93578 0.69266 0.0
C792 C 0.36684 0.92553 0.66989 0.0
C793 C 0.41872 0.95349 0.68871 0.0
C794 C 0.48065 0.00805 0.64779 0.0
H795 H 0.62254 0.02983 0.69432 0.0
H796 H 0.5669 0.00512 0.69463 0.0
H797 H 0.52468 0.04736 0.63978 0.0
H798 H 0.36439 0.92784 0.62503 0.0
H799 H 0.41992 0.95983 0.61837 0.0
H800 H 0.46875 0.94034 0.67455 0.0
C801 C 0.57928 0.02074 0.67785 0.0
C802 C 0.51282 0.02381 0.64687 0.0
C803 C 0.61122 0.03505 0.67785 0.0
C804 C 0.37911 0.93519 0.64309 0.0
C805 C 0.4109 0.95346 0.6392 0.0
C806 C 0.48082 0.96361 0.66669 0.0
C807 C 0.56361 0.02652 0.65661 0.0
C808 C 0.52934 0.00962 0.65603 0.0
C809 C 0.4309 0.96205 0.66198 0.0
C810 C 0.46452 0.97805 0.65821 0.0
H811 H 0.62599 0.07884 0.61989 0.0
H812 H 0.56986 0.053 0.61917 0.0
H813 H 0.52445 0.96692 0.67174 0.0
H814 H 0.37876 0.92978 0.71367 0.0
H815 H 0.43377 0.9602 0.7066 0.0
C816 C 0.44979 0.38424 0.97783 0.0
C817 C 0.44377 0.37062 1.00424 0.0
C818 C 0.45872 0.41532 0.97488 0.0
C819 C 0.46021 0.48048 0.01283 0.0
H820 H 0.52958 0.53137 0.96546 0.0
C821 C 0.53395 0.61025 0.02863 0.0
C822 C 0.54186 0.62943 1.00524 0.0
C823 C 0.51993 0.57849 0.02567 0.0
C824 C 0.50993 0.51738 0.97849 0.0
H825 H 0.44104 0.37863 0.04807 0.0
H826 H 0.45713 0.43249 0.0431 0.0
H827 H 0.50758 0.47567 0.96506 0.0
H828 H 0.5414 0.62971 0.96017 0.0
H829 H 0.51752 0.57417 0.95512 0.0
H830 H 0.46324 0.52221 0.02698 0.0
C831 C 0.45481 0.41934 0.02456 0.0
C832 C 0.49725 0.48547 0.97821 0.0
C833 C 0.44598 0.38847 0.02747 0.0
C834 C 0.53596 0.61588 0.97871 0.0
C835 C 0.52216 0.584 0.97576 0.0
C836 C 0.47299 0.51228 0.01325 0.0
C837 C 0.46157 0.43329 0.99829 0.0
C838 C 0.47268 0.46671 0.99587 0.0
C839 C 0.51368 0.56498 0.99924 0.0
C840 C 0.4984 0.53112 0.99655 0.0
H841 H 0.44843 0.37113 0.95954 0.0
H842 H 0.46352 0.42529 0.95432 0.0
H843 H 0.44084 0.46669 0.02622 0.0
H844 H 0.53871 0.61966 0.04938 0.0
H845 H 0.51424 0.56446 0.04416 0.0
C846 C 0.54397 0.92727 0.35696 0.0
C847 C 0.54971 0.9185 0.33094 0.0
C848 C 0.53319 0.94805 0.35886 0.0
C849 C 0.5287 0.00845 0.31886 0.0
H850 H 0.46214 0.9929 0.36889 0.0
C851 C 0.46222 0.07309 0.30853 0.0
C852 C 0.45437 0.0831 0.33278 0.0
C853 C 0.47425 0.05344 0.30996 0.0
C854 C 0.48101 -0.00221 0.35507 0.0
H855 H 0.54911 0.92525 0.28657 0.0
H856 H 0.53002 0.96097 0.28983 0.0
H857 H 0.48297 0.95819 0.36852 0.0
H858 H 0.45271 0.07982 0.37765 0.0
H859 H 0.47379 0.04536 0.38017 0.0
H860 H 0.52672 0.04784 0.30524 0.0
C861 C 0.53401 0.95199 0.30882 0.0
C862 C 0.49295 0.97791 0.35487 0.0
C863 C 0.54463 0.93118 0.30693 0.0
C864 C 0.4583 0.07239 0.35856 0.0
C865 C 0.47039 0.05266 0.36 0.0
C866 C 0.51682 0.02828 0.31908 0.0
C867 C 0.52814 0.9607 0.33478 0.0
C868 C 0.51665 0.98277 0.33645 0.0
C869 C 0.47882 0.04322 0.3357 0.0
C870 C 0.49252 0.02297 0.33687 0.0
H871 H 0.54738 0.91776 0.37586 0.0
H872 H 0.52908 0.95444 0.37918 0.0
H873 H 0.54739 0.01326 0.30485 0.0
H874 H 0.45884 0.08022 0.2883 0.0
H875 H 0.47977 0.04605 0.29079 0.0
C876 C 0.61231 0.53609 0.6988 0.0
C877 C 0.62569 0.53696 0.67293 0.0
C878 C 0.5806 0.52441 0.70108 0.0
C879 C 0.51214 0.5064 0.65824 0.0
H880 H 0.46592 0.45257 0.719 0.0
C881 C 0.38246 0.42789 0.65149 0.0
C882 C 0.3646 0.42839 0.67369 0.0
C883 C 0.41422 0.44159 0.65395 0.0
C884 C 0.47862 0.46783 0.70209 0.0
H885 H 0.61595 0.52671 0.62913 0.0
H886 H 0.56114 0.50568 0.6332 0.0
H887 H 0.52197 0.47667 0.71837 0.0
H888 H 0.36626 0.44248 0.71648 0.0
H889 H 0.4221 0.46605 0.72093 0.0
H890 H 0.46888 0.49692 0.64155 0.0
C891 C 0.57504 0.51437 0.65174 0.0
C892 C 0.5107 0.48171 0.70174 0.0
C893 C 0.60659 0.52607 0.64946 0.0
C894 C 0.37926 0.44159 0.69899 0.0
C895 C 0.41122 0.45516 0.70154 0.0
C896 C 0.48022 0.49238 0.65848 0.0
C897 C 0.56158 0.51342 0.67753 0.0
C898 C 0.52779 0.50071 0.67949 0.0
C899 C 0.42904 0.45594 0.67877 0.0
C900 C 0.46306 0.4725 0.68011 0.0
H901 H 0.6262 0.54402 0.71738 0.0
H902 H 0.57103 0.52422 0.72124 0.0
H903 H 0.52455 0.52153 0.64117 0.0
H904 H 0.37195 0.41721 0.63196 0.0
H905 H 0.42729 0.4412 0.63626 0.0
C906 C 0.93691 0.38629 0.03623 0.0
C907 C 0.94144 0.37099 0.01398 0.0
C908 C 0.9511 0.41839 0.03632 0.0
C909 C 0.0162 0.48623 1.00251 0.0
H910 H 0.97986 0.53121 0.03488 0.0
C911 C 0.06422 0.61365 0.98154 0.0
C912 C 0.07322 0.63286 1.005 0.0
C913 C 0.04589 0.58196 0.98424 0.0
C914 C 0.99026 0.51883 0.02596 0.0
H915 H 0.96242 0.37671 0.97368 0.0
H916 H 0.98598 0.43226 0.97307 0.0
H917 H 0.95154 0.47495 0.03576 0.0
H918 H 0.06822 0.63353 0.04968 0.0
H919 H 0.03535 0.57781 0.05422 0.0
H920 H 0.05437 0.52999 0.99191 0.0
C921 C 0.97277 0.41996 0.99111 0.0
C922 C 0.97416 0.48665 0.02651 0.0
C923 C 0.95911 0.38809 0.9913 0.0
C924 C 0.06179 0.61955 0.03115 0.0
C925 C 0.04301 0.58766 0.0338 0.0
C926 C 0.03195 0.51817 1.00159 0.0
C927 C 0.9697 0.43569 0.01393 0.0
C928 C 0.98681 0.46992 0.01446 0.0
C929 C 0.03563 0.56861 0.01041 0.0
C930 C 0.01906 0.53478 0.01304 0.0
H931 H 0.92344 0.3735 0.05399 0.0
H932 H 0.94831 0.42962 0.05431 0.0
H933 H 0.02723 0.47435 0.99383 0.0
H934 H 0.07164 0.62297 0.96097 0.0
H935 H 0.04007 0.56777 0.96583 0.0
C936 C 0.18348 0.29977 0.3217 0.0
C937 C 0.19835 0.32461 0.3032 0.0
C938 C 0.19638 0.28161 0.32833 0.0
C939 C 0.25095 0.25823 0.30466 0.0
H940 H 0.25947 0.24596 0.38286 0.0
C941 C 0.32885 0.21229 0.34268 0.0
C942 C 0.31969 0.19291 0.36593 0.0
C943 C 0.31255 0.22674 0.33465 0.0
C944 C 0.25684 0.24865 0.36092 0.0
H945 H 0.2382 0.34888 0.27654 0.0
H946 H 0.26016 0.31672 0.28767 0.0
H947 H 0.2329 0.27309 0.36877 0.0
H948 H 0.28612 0.17315 0.39882 0.0
H949 H 0.25706 0.1978 0.3845 0.0
H950 H 0.2745 0.23354 0.29667 0.0
C951 C 0.23853 0.31151 0.29707 0.0
C952 C 0.24168 0.26429 0.35287 0.0
C953 C 0.22584 0.32992 0.29066 0.0
C954 C 0.29384 0.18824 0.38099 0.0
C955 C 0.27728 0.20243 0.37278 0.0
C956 C 0.26581 0.24227 0.31268 0.0
C957 C 0.2242 0.28752 0.31634 0.0
C958 C 0.23887 0.26951 0.32469 0.0
C959 C 0.28646 0.22193 0.34951 0.0
C960 C 0.26928 0.23758 0.34093 0.0
H961 H 0.16195 0.29435 0.33131 0.0
H962 H 0.18459 0.26294 0.34293 0.0
H963 H 0.24877 0.26162 0.28277 0.0
H964 H 0.34901 0.21675 0.33097 0.0
H965 H 0.32077 0.24212 0.31704 0.0
C966 C 0.88933 0.25009 0.65408 0.0
C967 C 0.87221 0.21823 0.65008 0.0
C968 C 0.9199 0.26405 0.66259 0.0
C969 C 0.97754 0.24739 0.69419 0.0
H970 H 0.03466 0.32817 0.66547 0.0
C971 C 0.11028 0.30861 0.70706 0.0
C972 C 0.12455 0.33947 0.71541 0.0
C973 C 0.07904 0.29264 0.7004 0.0
C974 C 0.0189 0.3057 0.6738 0.0
H975 H 0.87365 0.17599 0.65162 0.0
H976 H 0.92741 0.2004 0.66569 0.0
H977 H 0.9814 0.30243 0.65034 0.0
H978 H 0.11729 0.37773 0.7235 0.0
H979 H 0.06283 0.34994 0.71167 0.0
H980 H 0.01567 0.25063 0.71705 0.0
C981 C 0.91705 0.21459 0.66295 0.0
C982 C 0.98831 0.29095 0.66524 0.0
C983 C 0.88628 0.20058 0.65477 0.0
C984 C 0.10686 0.35389 0.71744 0.0
C985 C 0.07579 0.33809 0.71041 0.0
C986 C 0.00831 0.26202 0.70245 0.0
C987 C 0.93428 0.24655 0.66696 0.0
C988 C 0.96711 0.26172 0.67552 0.0
C989 C 0.06166 0.30743 0.70155 0.0
C990 C 0.02918 0.29144 0.69253 0.0
H991 H 0.87889 0.26417 0.65114 0.0
H992 H 0.93212 0.28858 0.6661 0.0
H993 H 0.96185 0.2251 0.70286 0.0
H994 H 0.12339 0.29695 0.70547 0.0
H995 H 0.06869 0.26904 0.69353 0.0
C996 C 0.79425 0.11819 0.99584 0.0
C997 C 0.79098 0.12526 0.02339 0.0
C998 C 0.78126 0.08767 0.98727 0.0
C999 C 0.75366 0.00969 0.01334 0.0
H1000 H 0.70324 0.98339 0.94704 0.0
C1001 C 0.67029 0.88256 0.9907 0.0
C1002 C 0.66547 0.87213 0.96312 0.0
C1003 C 0.68812 0.91374 0.99669 0.0
C1004 C 0.71769 0.99039 0.96532 0.0
H1005 H 0.77215 0.10603 0.06365 0.0
H1006 H 0.74956 0.05267 0.04875 0.0
H1007 H 0.73013 0.03749 0.96003 0.0
H1008 H 0.67591 0.88614 0.92022 0.0
H1009 H 0.70772 0.94085 0.93064 0.0
H1010 H 0.74147 0.96281 0.0187 0.0
C1011 C 0.76215 0.07074 0.03379 0.0
C1012 C 0.733 0.02139 0.97279 0.0
C1013 C 0.77482 0.10123 0.04227 0.0
C1014 C 0.6791 0.8936 0.94164 0.0
C1015 C 0.69722 0.92489 0.94764 0.0
C1016 C 0.73862 0.97879 0.00575 0.0
C1017 C 0.76509 0.06365 0.00618 0.0
C1018 C 0.75071 0.03123 0.99713 0.0
C1019 C 0.70182 0.93535 0.97527 0.0
C1020 C 0.71997 0.96864 0.98193 0.0
H1021 H 0.80633 0.13625 0.98077 0.0
H1022 H 0.78398 0.08284 0.96589 0.0
H1023 H 0.76758 0.01675 0.03197 0.0
H1024 H 0.65953 0.86671 0.0077 0.0
H1025 H 0.69049 0.92094 0.01815 0.0
C1026 C 0.80559 0.68815 0.32204 0.0
C1027 C 0.79129 0.66444 0.30235 0.0
C1028 C 0.79235 0.70574 0.32967 0.0
C1029 C 0.73695 0.72896 0.3072 0.0
H1030 H 0.72957 0.74046 0.38578 0.0
C1031 C 0.65883 0.77351 0.3473 0.0
C1032 C 0.66915 0.7941 0.36973 0.0
C1033 C 0.67469 0.75861 0.33929 0.0
C1034 C 0.73182 0.73788 0.36375 0.0
H1035 H 0.75198 0.64135 0.27487 0.0
H1036 H 0.7293 0.67235 0.28785 0.0
H1037 H 0.75649 0.71399 0.37062 0.0
H1038 H 0.70411 0.81507 0.40146 0.0
H1039 H 0.73217 0.78933 0.38731 0.0
H1040 H 0.7125 0.75295 0.30022 0.0
C1041 C 0.75083 0.6773 0.29731 0.0
C1042 C 0.74722 0.72268 0.35508 0.0
C1043 C 0.76393 0.65954 0.28982 0.0
C1044 C 0.69544 0.79908 0.38429 0.0
C1045 C 0.71149 0.78431 0.37615 0.0
C1046 C 0.72174 0.74434 0.31585 0.0
C1047 C 0.76467 0.70029 0.3176 0.0
C1048 C 0.74969 0.7178 0.32672 0.0
C1049 C 0.70143 0.76406 0.3534 0.0
C1050 C 0.71868 0.74871 0.34425 0.0
H1051 H 0.82698 0.6931 0.33173 0.0
H1052 H 0.8038 0.72364 0.34504 0.0
H1053 H 0.73887 0.72593 0.28519 0.0
H1054 H 0.63832 0.76876 0.336 0.0
H1055 H 0.66583 0.74262 0.32212 0.0
C1056 C 0.1125 0.80981 0.655 0.0
C1057 C 0.12216 0.79548 0.63559 0.0
C1058 C 0.08167 0.79629 0.66269 0.0
C1059 C 0.00329 0.73996 0.6406 0.0
H1060 H 0.98461 0.7326 0.71921 0.0
C1061 C 0.88136 0.65972 0.68124 0.0
C1062 C 0.87086 0.66938 0.70396 0.0
C1063 C 0.91197 0.67644 0.6729 0.0
C1064 C 0.98937 0.73486 0.69717 0.0
H1065 H 0.10633 0.75575 0.60868 0.0
H1066 H 0.05268 0.73265 0.62173 0.0
H1067 H 0.03793 0.76024 0.70395 0.0
H1068 H 0.8842 0.70419 0.73573 0.0
H1069 H 0.9377 0.73377 0.72097 0.0
H1070 H 0.95485 0.71481 0.6337 0.0
C1071 C 0.06907 0.75441 0.63094 0.0
C1072 C 0.01994 0.75066 0.68844 0.0
C1073 C 0.09993 0.76776 0.62342 0.0
C1074 C 0.89173 0.69602 0.71835 0.0
C1075 C 0.92237 0.71293 0.70987 0.0
C1076 C 0.97273 0.72438 0.6493 0.0
C1077 C 0.05969 0.76831 0.65093 0.0
C1078 C 0.02722 0.75308 0.66008 0.0
C1079 C 0.93284 0.7034 0.68695 0.0
C1080 C 0.96537 0.72129 0.67771 0.0
H1081 H 0.1287 0.83145 0.66444 0.0
H1082 H 0.07501 0.80776 0.67786 0.0
H1083 H 0.00821 0.74183 0.61859 0.0
H1084 H 0.86597 0.63898 0.67006 0.0
H1085 H 0.91932 0.66797 0.65559 0.0
C1086 C 0.32534 0.10494 0.9526 0.0
C1087 C 0.33538 0.1284 0.97252 0.0
C1088 C 0.30567 0.07434 0.96014 0.0
C1089 C 0.28376 0.02367 0.02075 0.0
H1090 H 0.21384 0.96764 0.97613 0.0
C1091 C 0.2019 0.90031 0.0572 0.0
C1092 C 0.19261 0.87715 0.0371 0.0
C1093 C 0.21665 0.93116 0.04936 0.0
C1094 C 0.23344 0.98294 0.9887 0.0
H1095 H 0.33283 0.13804 0.01597 0.0
H1096 H 0.29836 0.08503 0.02897 0.0
H1097 H 0.24517 0.02111 0.96174 0.0
H1098 H 0.19135 0.86824 0.99293 0.0
H1099 H 0.21725 0.92185 0.97931 0.0
H1100 H 0.27266 0.98563 0.04739 0.0
C1101 C 0.30566 0.09019 0.00756 0.0
C1102 C 0.25135 0.01354 0.98044 0.0
C1103 C 0.32511 0.12066 1.00002 0.0
C1104 C 0.19771 0.88546 0.00894 0.0
C1105 C 0.21261 0.91627 1.00111 0.0
C1106 C 0.26601 0.99311 0.02891 0.0
C1107 C 0.29596 0.06667 0.98779 0.0
C1108 C 0.2767 0.0342 0.99639 0.0
C1109 C 0.22265 0.93953 0.02123 0.0
C1110 C 0.24065 0.97233 0.01299 0.0
H1111 H 0.3328 0.11026 0.93126 0.0
H1112 H 0.29871 0.05664 0.9445 0.0
H1113 H 0.30346 0.03894 0.03323 0.0
H1114 H 0.19792 0.89455 0.079 0.0
H1115 H 0.22356 0.94847 0.06537 0.0
C1116 C 0.4822 0.70849 0.32093 0.0
C1117 C 0.49822 0.72195 0.34558 0.0
C1118 C 0.45618 0.67925 0.32132 0.0
C1119 C 0.39556 0.6264 0.36876 0.0
H1120 H 0.37628 0.56762 0.30933 0.0
C1121 C 0.28498 0.50778 0.36906 0.0
C1122 C 0.26879 0.49907 0.34385 0.0
C1123 C 0.31472 0.53304 0.37016 0.0
C1124 C 0.38129 0.58387 0.32601 0.0
H1125 H 0.50061 0.71467 0.38963 0.0
H1126 H 0.4553 0.66368 0.39028 0.0
H1127 H 0.42549 0.61536 0.30931 0.0
H1128 H 0.27152 0.50926 0.29987 0.0
H1129 H 0.32295 0.55355 0.30191 0.0
H1130 H 0.3512 0.59524 0.3852 0.0
C1131 C 0.46241 0.67595 0.37078 0.0
C1132 C 0.40945 0.6112 0.32598 0.0
C1133 C 0.48835 0.70515 0.3704 0.0
C1134 C 0.28318 0.51571 0.31971 0.0
C1135 C 0.31285 0.54084 0.3208 0.0
C1136 C 0.36742 0.59909 0.36879 0.0
C1137 C 0.44573 0.66287 0.34634 0.0
C1138 C 0.41674 0.63294 0.34718 0.0
C1139 C 0.32889 0.54994 0.34605 0.0
C1140 C 0.35979 0.57771 0.34721 0.0
H1141 H 0.48913 0.72098 0.30154 0.0
H1142 H 0.44364 0.66995 0.30217 0.0
H1143 H 0.40028 0.64286 0.38519 0.0
H1144 H 0.27446 0.49542 0.388 0.0
H1145 H 0.32661 0.53935 0.38989 0.0
C1146 C 0.76289 0.47303 0.65853 0.0
C1147 C 0.76547 0.48747 0.68415 0.0
C1148 C 0.7615 0.44461 0.65742 0.0
C1149 C 0.73873 0.3762 0.69972 0.0
H1150 H 0.78239 0.35667 0.6446 0.0
C1151 C 0.73761 0.26068 0.69895 0.0
C1152 C 0.73668 0.24756 0.67296 0.0
C1153 C 0.74146 0.29013 0.70076 0.0
C1154 C 0.76972 0.36162 0.6599 0.0
H1155 H 0.77043 0.48421 0.72855 0.0
H1156 H 0.76765 0.43449 0.72658 0.0
H1157 H 0.78983 0.40836 0.64666 0.0
H1158 H 0.73906 0.25532 0.62848 0.0
H1159 H 0.74441 0.30584 0.63165 0.0
H1160 H 0.71815 0.3294 0.71268 0.0
C1161 C 0.76621 0.44494 0.70743 0.0
C1162 C 0.77409 0.39127 0.66112 0.0
C1163 C 0.76778 0.47339 0.70852 0.0
C1164 C 0.73909 0.26437 0.64886 0.0
C1165 C 0.74274 0.29366 0.65067 0.0
C1166 C 0.73418 0.34649 0.69839 0.0
C1167 C 0.76254 0.43003 0.68192 0.0
C1168 C 0.7586 0.39883 0.68101 0.0
C1169 C 0.74438 0.30709 0.67663 0.0
C1170 C 0.74953 0.3388 0.67839 0.0
H1171 H 0.76071 0.48308 0.63941 0.0
H1172 H 0.75846 0.43353 0.63748 0.0
H1173 H 0.72614 0.38128 0.71502 0.0
H1174 H 0.73564 0.2483 0.71791 0.0
H1175 H 0.74286 0.29987 0.72111 0.0
C1176 C 0.49652 0.80213 0.00903 0.0
C1177 C 0.49278 0.77257 0.01049 0.0
C1178 C 0.47117 0.80631 0.01163 0.0
C1179 C 0.39128 0.76845 0.03686 0.0
H1180 H 0.38107 0.81985 0.98293 0.0
C1181 C 0.28654 0.78451 0.04041 0.0
C1182 C 0.27139 0.78106 0.01505 0.0
C1183 C 0.31585 0.78812 0.04103 0.0
C1184 C 0.38362 0.80541 0.9981 0.0
H1185 H 0.45993 0.7244 0.01682 0.0
H1186 H 0.41574 0.73161 0.0211 0.0
H1187 H 0.42792 0.81657 0.98269 0.0
H1188 H 0.27546 0.78003 0.9704 0.0
H1189 H 0.32675 0.78594 0.97142 0.0
H1190 H 0.34666 0.75633 0.05165 0.0
C1191 C 0.43819 0.75159 0.01808 0.0
C1192 C 0.41056 0.80379 0.99817 0.0
C1193 C 0.46343 0.74742 0.01537 0.0
C1194 C 0.28669 0.78272 0.99021 0.0
C1195 C 0.31605 0.78618 0.99083 0.0
C1196 C 0.36444 0.77009 0.03682 0.0
C1197 C 0.44171 0.78103 0.01593 0.0
C1198 C 0.41444 0.78492 0.0173 0.0
C1199 C 0.33063 0.78822 0.0163 0.0
C1200 C 0.36014 0.78831 0.01725 0.0
H1201 H 0.51886 0.82191 1.00506 0.0
H1202 H 0.47459 0.82929 0.01012 0.0
H1203 H 0.39375 0.75396 0.05204 0.0
H1204 H 0.27551 0.78399 0.05986 0.0
H1205 H 0.32675 0.79032 0.06095 0.0
C1206 C 0.49197 0.2953 0.36803 0.0
C1207 C 0.4855 0.27817 0.34344 0.0
C1208 C 0.51657 0.32522 0.36926 0.0
C1209 C 0.57414 0.3906 0.32793 0.0
H1210 H 0.62728 0.40173 0.39052 0.0
C1211 C 0.69138 0.50102 0.34473 0.0
C1212 C 0.71573 0.49536 0.34898 0.0
C1213 C 0.66103 0.477 0.3461 0.0
C1214 C 0.6126 0.39901 0.37303 0.0
H1215 H 0.49824 0.27945 0.30036 0.0
H1216 H 0.54159 0.33194 0.30251 0.0
H1217 H 0.57702 0.35569 0.38763 0.0
H1218 H 0.7277 0.46069 0.35901 0.0
H1219 H 0.67471 0.41876 0.36169 0.0
H1220 H 0.61044 0.43361 0.31293 0.0
C1221 C 0.52749 0.32224 0.32078 0.0
C1222 C 0.58371 0.37282 0.37148 0.0
C1223 C 0.50275 0.29222 0.31954 0.0
C1224 C 0.70928 0.46557 0.35557 0.0
C1225 C 0.67901 0.44168 0.35726 0.0
C1226 C 0.60304 0.417 0.3296 0.0
C1227 C 0.53524 0.33862 0.34594 0.0
C1228 C 0.5644 0.36806 0.34868 0.0
C1229 C 0.65461 0.44707 0.35212 0.0
C1230 C 0.62275 0.42109 0.3519 0.0
H1231 H 0.47859 0.28517 0.38661 0.0
H1232 H 0.52164 0.33753 0.38876 0.0
H1233 H 0.55964 0.38757 0.31021 0.0
H1234 H 0.69583 0.52379 0.33939 0.0
H1235 H 0.64259 0.48173 0.3422 0.0
C1236 C 0.23437 0.71539 0.69213 0.0
C1237 C 0.23467 0.72909 0.66668 0.0
C1238 C 0.2341 0.68747 0.69273 0.0
C1239 C 0.25438 0.64003 0.64916 0.0
H1240 H 0.20671 0.57628 0.70266 0.0
C1241 C 0.27028 0.53532 0.66539 0.0
C1242 C 0.24369 0.50676 0.66951 0.0
C1243 C 0.26863 0.56219 0.66479 0.0
C1244 C 0.21996 0.59378 0.68744 0.0
H1245 H 0.23308 0.72359 0.62199 0.0
H1246 H 0.23227 0.67486 0.62302 0.0
H1247 H 0.20359 0.62313 0.70222 0.0
H1248 H 0.1945 0.48403 0.67623 0.0
H1249 H 0.19153 0.53082 0.67441 0.0
H1250 H 0.2703 0.61053 0.634 0.0
C1251 C 0.23313 0.68599 0.6425 0.0
C1252 C 0.21844 0.62074 0.68741 0.0
C1253 C 0.23352 0.71385 0.64191 0.0
C1254 C 0.21536 0.50562 0.67262 0.0
C1255 C 0.21371 0.53247 0.672 0.0
C1256 C 0.25588 0.61311 0.64917 0.0
C1257 C 0.23397 0.67274 0.66787 0.0
C1258 C 0.23557 0.64412 0.6682 0.0
C1259 C 0.24035 0.56107 0.66829 0.0
C1260 C 0.23868 0.58966 0.66828 0.0
H1261 H 0.23539 0.72675 0.71151 0.0
H1262 H 0.23495 0.67792 0.71261 0.0
H1263 H 0.2682 0.6578 0.63434 0.0
H1264 H 0.2924 0.53692 0.66274 0.0
H1265 H 0.28961 0.58391 0.66212 0.0
C1266 C 0.54603 0.27326 0.01868 0.0
C1267 C 0.51847 0.2457 0.01413 0.0
C1268 C 0.57373 0.27338 0.02082 0.0
C1269 C 0.61048 0.23023 0.99824 0.0
H1270 H 0.67331 0.2816 0.0513 0.0
C1271 C 0.73694 0.25985 0.98846 0.0
C1272 C 0.75143 0.25865 0.01298 0.0
C1273 C 0.70796 0.25727 0.98943 0.0
C1274 C 0.65593 0.26699 0.03647 0.0
H1275 H 0.49806 0.19656 0.009 0.0
H1276 H 0.54667 0.19673 0.01287 0.0
H1277 H 0.62304 0.27771 0.05327 0.0
H1278 H 0.74633 0.25285 0.05766 0.0
H1279 H 0.69619 0.24886 0.0593 0.0
H1280 H 0.64342 0.21953 0.98143 0.0
C1281 C 0.54678 0.21824 0.0146 0.0
C1282 C 0.62724 0.26494 0.03749 0.0
C1283 C 0.51898 0.21809 0.01267 0.0
C1284 C 0.73625 0.25472 0.03843 0.0
C1285 C 0.70742 0.25228 0.0394 0.0
C1286 C 0.63926 0.23242 0.99712 0.0
C1287 C 0.57448 0.24596 0.0183 0.0
C1288 C 0.60427 0.24667 0.0183 0.0
C1289 C 0.69295 0.2535 0.01493 0.0
C1290 C 0.66231 0.25094 0.01615 0.0
H1291 H 0.54623 0.29484 0.02009 0.0
H1292 H 0.59471 0.29512 0.02348 0.0
H1293 H 0.59332 0.21622 0.983 0.0
H1294 H 0.7481 0.26304 0.96855 0.0
H1295 H 0.69748 0.25863 0.97025 0.0
loop_
_geom_bond_atom_site_label_1
_geom_bond_atom_site_label_2
_geom_bond_distance
_geom_bond_site_symmetry_2
_ccdc_geom_bond_type
C0 C1 1.351 . S
C0 N3 1.368 . S
C0 H5 0.931 . S
C1 C0 1.351 . S
C1 N2 1.373 . S
C1 H29 0.930 . S
N2 C1 1.373 . S
N2 C4 1.340 . S
N3 C0 1.368 . S
N3 C4 1.321 . S
N3 Co6 2.135 . S
C4 N2 1.340 . S
C4 N3 1.321 . S
C4 H28 0.930 . S
H5 C0 0.931 . S
Co6 N3 2.135 . S
Co6 N9 2.121 . S
Co6 O14 2.055 . S
Co6 O17 2.039 . S
Co6 N20 2.140 . S
C7 O8 1.227 . S
C7 O17 1.265 . S
O8 C7 1.227 . S
N9 Co6 2.121 . S
N9 C11 1.375 . S
N9 C12 1.313 . S
C10 C11 1.338 . S
C10 N13 1.377 . S
C10 H30 0.930 . S
C11 N9 1.375 . S
C11 C10 1.338 . S
C11 H15 0.931 . S
C12 N9 1.313 . S
C12 N13 1.344 . S
C12 H16 0.930 . S
N13 C10 1.377 . S
N13 C12 1.344 . S
O14 Co6 2.055 . S
O14 C18 1.253 . S
H15 C11 0.931 . S
H16 C12 0.930 . S
O17 Co6 2.039 . S
O17 C7 1.265 . S
C18 O14 1.253 . S
C18 O19 1.227 . S
O19 C18 1.227 . S
N20 Co6 2.140 . S
N20 C23 1.346 . S
N20 C24 1.345 . S
C21 C22 1.387 . S
C21 C25 1.391 . S
C22 C21 1.387 . S
C22 C23 1.369 . S
C22 H31 0.929 . S
C23 N20 1.346 . S
C23 C22 1.369 . S
C23 H26 0.928 . S
C24 N20 1.345 . S
C24 C25 1.371 . S
C24 H27 0.931 . S
C25 C21 1.391 . S
C25 C24 1.371 . S
C25 H32 0.930 . S
H26 C23 0.928 . S
H27 C24 0.931 . S
H28 C4 0.930 . S
H29 C1 0.930 . S
H30 C10 0.930 . S
H31 C22 0.929 . S
H32 C25 0.930 . S
C33 C34 1.351 . S
C33 N36 1.368 . S
C33 H38 0.931 . S
C34 C33 1.351 . S
C34 N35 1.373 . S
C34 H62 0.930 . S
N35 C34 1.373 . S
N35 C37 1.340 . S
N36 C33 1.368 . S
N36 C37 1.321 . S
N36 Co39 2.135 . S
C37 N35 1.340 . S
C37 N36 1.321 . S
C37 H61 0.930 . S
H38 C33 0.931 . S
Co39 N36 2.135 . S
Co39 N42 2.121 . S
Co39 O47 2.055 . S
Co39 O50 2.039 . S
Co39 N53 2.140 . S
C40 O41 1.227 . S
C40 O50 1.265 . S
O41 C40 1.227 . S
N42 Co39 2.121 . S
N42 C44 1.375 . S
N42 C45 1.313 . S
C43 C44 1.338 . S
C43 N46 1.377 . S
C43 H63 0.930 . S
C44 N42 1.375 . S
C44 C43 1.338 . S
C44 H48 0.931 . S
C45 N42 1.313 . S
C45 N46 1.344 . S
C45 H49 0.930 . S
N46 C43 1.377 . S
N46 C45 1.344 . S
O47 Co39 2.055 . S
O47 C51 1.253 . S
H48 C44 0.931 . S
H49 C45 0.930 . S
O50 Co39 2.039 . S
O50 C40 1.265 . S
C51 O47 1.253 . S
C51 O52 1.227 . S
O52 C51 1.227 . S
N53 Co39 2.140 . S
N53 C56 1.346 . S
N53 C57 1.345 . S
C54 C55 1.387 . S
C54 C58 1.391 . S
C55 C54 1.387 . S
C55 C56 1.369 . S
C55 H64 0.929 . S
C56 N53 1.346 . S
C56 C55 1.369 . S
C56 H59 0.928 . S
C57 N53 1.345 . S
C57 C58 1.371 . S
C57 H60 0.931 . S
C58 C54 1.391 . S
C58 C57 1.371 . S
C58 H65 0.930 . S
H59 C56 0.928 . S
H60 C57 0.931 . S
H61 C37 0.930 . S
H62 C34 0.930 . S
H63 C43 0.930 . S
H64 C55 0.929 . S
H65 C58 0.930 . S
C66 C67 1.351 . S
C66 N69 1.368 . S
C66 H71 0.931 . S
C67 C66 1.351 . S
C67 N68 1.373 . S
C67 H95 0.930 . S
N68 C67 1.373 . S
N68 C70 1.340 1_556 S
N69 C66 1.368 . S
N69 C70 1.321 1_556 S
N69 Co72 2.135 1_556 S
C70 N68 1.340 1_554 S
C70 N69 1.321 1_554 S
C70 H94 0.930 . S
H71 C66 0.931 . S
Co72 N69 2.135 1_554 S
Co72 N75 2.121 . S
Co72 O80 2.055 1_554 S
Co72 O83 2.039 . S
Co72 N86 2.140 1_554 S
C73 O74 1.227 . S
C73 O83 1.265 . S
O74 C73 1.227 . S
N75 Co72 2.121 . S
N75 C77 1.375 . S
N75 C78 1.309 1_554 S
C76 C77 1.338 . S
C76 N79 1.377 . S
C76 H96 0.930 . S
C77 N75 1.375 . S
C77 C76 1.338 . S
C77 H81 0.931 . S
C78 N75 1.309 1_556 S
C78 N79 1.340 1_556 S
C78 H82 0.938 . S
N79 C76 1.377 . S
N79 C78 1.340 1_554 S
O80 Co72 2.055 1_556 S
O80 C84 1.253 . S
H81 C77 0.931 . S
H82 C78 0.938 . S
O83 Co72 2.039 . S
O83 C73 1.265 . S
C84 O80 1.253 . S
C84 O85 1.227 . S
O85 C84 1.227 . S
N86 Co72 2.140 1_556 S
N86 C89 1.346 1_556 S
N86 C90 1.345 . S
C87 C88 1.387 . S
C87 C91 1.391 . S
C88 C87 1.387 . S
C88 C89 1.369 1_556 S
C88 H97 0.929 1_556 S
C89 N86 1.346 1_554 S
C89 C88 1.369 1_554 S
C89 H92 0.928 . S
C90 N86 1.345 . S
C90 C91 1.371 . S
C90 H93 0.931 . S
C91 C87 1.391 . S
C91 C90 1.371 . S
C91 H98 0.930 . S
H92 C89 0.928 . S
H93 C90 0.931 . S
H94 C70 0.930 . S
H95 C67 0.930 . S
H96 C76 0.930 . S
H97 C88 0.929 1_554 S
H98 C91 0.930 . S
C99 C100 1.351 . S
C99 N102 1.368 . S
C99 H104 0.931 . S
C100 C99 1.351 . S
C100 N101 1.373 . S
C100 H128 0.930 . S
N101 C100 1.373 . S
N101 C103 1.340 . S
N102 C99 1.368 . S
N102 C103 1.321 . S
N102 Co105 2.135 . S
C103 N101 1.340 . S
C103 N102 1.321 . S
C103 H127 0.930 . S
H104 C99 0.931 . S
Co105 N102 2.135 . S
Co105 N108 2.121 . S
Co105 O113 2.055 . S
Co105 O116 2.039 . S
Co105 N119 2.140 . S
C106 O107 1.227 . S
C106 O116 1.265 . S
O107 C106 1.227 . S
N108 Co105 2.121 . S
N108 C110 1.375 . S
N108 C111 1.313 . S
C109 C110 1.338 . S
C109 N112 1.377 . S
C109 H129 0.930 . S
C110 N108 1.375 . S
C110 C109 1.338 . S
C110 H114 0.931 . S
C111 N108 1.313 . S
C111 N112 1.344 . S
C111 H115 0.930 . S
N112 C109 1.377 . S
N112 C111 1.344 . S
O113 Co105 2.055 . S
O113 C117 1.253 . S
H114 C110 0.931 . S
H115 C111 0.930 . S
O116 Co105 2.039 . S
O116 C106 1.265 . S
C117 O113 1.253 . S
C117 O118 1.227 . S
O118 C117 1.227 . S
N119 Co105 2.140 . S
N119 C122 1.346 . S
N119 C123 1.345 . S
C120 C121 1.387 . S
C120 C124 1.391 . S
C121 C120 1.387 . S
C121 C122 1.369 . S
C121 H130 0.929 . S
C122 N119 1.346 . S
C122 C121 1.369 . S
C122 H125 0.928 . S
C123 N119 1.345 . S
C123 C124 1.371 . S
C123 H126 0.931 . S
C124 C120 1.391 . S
C124 C123 1.371 . S
C124 H131 0.930 . S
H125 C122 0.928 . S
H126 C123 0.931 . S
H127 C103 0.930 . S
H128 C100 0.930 . S
H129 C109 0.930 . S
H130 C121 0.929 . S
H131 C124 0.930 . S
C132 C133 1.351 . S
C132 N135 1.368 . S
C132 H137 0.931 . S
C133 C132 1.351 . S
C133 N134 1.373 . S
C133 H161 0.930 . S
N134 C133 1.373 . S
N134 C136 1.340 . S
N135 C132 1.368 . S
N135 C136 1.321 . S
N135 Co138 2.135 . S
C136 N134 1.340 . S
C136 N135 1.321 . S
C136 H160 0.930 . S
H137 C132 0.931 . S
Co138 N135 2.135 . S
Co138 N141 2.121 . S
Co138 O146 2.055 . S
Co138 O149 2.039 . S
Co138 N152 2.140 . S
C139 O140 1.227 . S
C139 O149 1.265 . S
O140 C139 1.227 . S
N141 Co138 2.121 . S
N141 C143 1.375 . S
N141 C144 1.313 . S
C142 C143 1.338 . S
C142 N145 1.377 . S
C142 H162 0.930 . S
C143 N141 1.375 . S
C143 C142 1.338 . S
C143 H147 0.931 . S
C144 N141 1.313 . S
C144 N145 1.344 . S
C144 H148 0.930 . S
N145 C142 1.377 . S
N145 C144 1.344 . S
O146 Co138 2.055 . S
O146 C150 1.253 . S
H147 C143 0.931 . S
H148 C144 0.930 . S
O149 Co138 2.039 . S
O149 C139 1.265 . S
C150 O146 1.253 . S
C150 O151 1.227 . S
O151 C150 1.227 . S
N152 Co138 2.140 . S
N152 C155 1.346 . S
N152 C156 1.345 . S
C153 C154 1.387 . S
C153 C157 1.391 . S
C154 C153 1.387 . S
C154 C155 1.369 . S
C154 H163 0.929 . S
C155 N152 1.346 . S
C155 C154 1.369 . S
C155 H158 0.928 . S
C156 N152 1.345 . S
C156 C157 1.371 . S
C156 H159 0.931 . S
C157 C153 1.391 . S
C157 C156 1.371 . S
C157 H164 0.930 . S
H158 C155 0.928 . S
H159 C156 0.931 . S
H160 C136 0.930 . S
H161 C133 0.930 . S
H162 C142 0.930 . S
H163 C154 0.929 . S
H164 C157 0.930 . S
C165 C166 1.351 . S
C165 N168 1.368 . S
C165 H170 0.931 . S
C166 C165 1.351 . S
C166 N167 1.373 . S
C166 H194 0.930 . S
N167 C166 1.373 . S
N167 C169 1.340 1_556 S
N168 C165 1.368 . S
N168 C169 1.321 1_556 S
N168 Co171 2.135 1_556 S
C169 N167 1.340 1_554 S
C169 N168 1.321 1_554 S
C169 H193 0.930 . S
H170 C165 0.931 . S
Co171 N168 2.135 1_554 S
Co171 N174 2.121 . S
Co171 O179 2.055 1_554 S
Co171 O182 2.039 . S
Co171 N185 2.140 1_554 S
C172 O173 1.227 . S
C172 O182 1.265 . S
O173 C172 1.227 . S
N174 Co171 2.121 . S
N174 C176 1.375 . S
N174 C177 1.309 1_554 S
C175 C176 1.338 . S
C175 N178 1.377 . S
C175 H195 0.930 . S
C176 N174 1.375 . S
C176 C175 1.338 . S
C176 H180 0.931 . S
C177 N174 1.309 1_556 S
C177 N178 1.340 1_556 S
C177 H181 0.938 . S
N178 C175 1.377 . S
N178 C177 1.340 1_554 S
O179 Co171 2.055 1_556 S
O179 C183 1.253 . S
H180 C176 0.931 . S
H181 C177 0.938 . S
O182 Co171 2.039 . S
O182 C172 1.265 . S
C183 O179 1.253 . S
C183 O184 1.227 . S
O184 C183 1.227 . S
N185 Co171 2.140 1_556 S
N185 C188 1.346 1_556 S
N185 C189 1.345 . S
C186 C187 1.387 . S
C186 C190 1.391 . S
C187 C186 1.387 . S
C187 C188 1.369 1_556 S
C187 H196 0.929 1_556 S
C188 N185 1.346 1_554 S
C188 C187 1.369 1_554 S
C188 H191 0.928 . S
C189 N185 1.345 . S
C189 C190 1.371 . S
C189 H192 0.931 . S
C190 C186 1.391 . S
C190 C189 1.371 . S
C190 H197 0.930 . S
H191 C188 0.928 . S
H192 C189 0.931 . S
H193 C169 0.930 . S
H194 C166 0.930 . S
H195 C175 0.930 . S
H196 C187 0.929 1_554 S
H197 C190 0.930 . S
C198 C199 1.351 . S
C198 N201 1.368 . S
C198 H203 0.931 . S
C199 C198 1.351 . S
C199 N200 1.373 . S
C199 H227 0.930 . S
N200 C199 1.373 . S
N200 C202 1.340 . S
N201 C198 1.368 . S
N201 C202 1.321 . S
N201 Co204 2.135 . S
C202 N200 1.340 . S
C202 N201 1.321 . S
C202 H226 0.930 . S
H203 C198 0.931 . S
Co204 N201 2.135 . S
Co204 N207 2.121 . S
Co204 O212 2.055 . S
Co204 O215 2.039 . S
Co204 N218 2.140 . S
C205 O206 1.227 . S
C205 O215 1.265 . S
O206 C205 1.227 . S
N207 Co204 2.121 . S
N207 C209 1.375 . S
N207 C210 1.313 . S
C208 C209 1.338 . S
C208 N211 1.377 . S
C208 H228 0.930 . S
C209 N207 1.375 . S
C209 C208 1.338 . S
C209 H213 0.931 . S
C210 N207 1.313 . S
C210 N211 1.344 . S
C210 H214 0.930 . S
N211 C208 1.377 . S
N211 C210 1.344 . S
O212 Co204 2.055 . S
O212 C216 1.253 . S
H213 C209 0.931 . S
H214 C210 0.930 . S
O215 Co204 2.039 . S
O215 C205 1.265 . S
C216 O212 1.253 . S
C216 O217 1.227 . S
O217 C216 1.227 . S
N218 Co204 2.140 . S
N218 C221 1.346 . S
N218 C222 1.345 . S
C219 C220 1.387 . S
C219 C223 1.391 . S
C220 C219 1.387 . S
C220 C221 1.369 . S
C220 H229 0.929 . S
C221 N218 1.346 . S
C221 C220 1.369 . S
C221 H224 0.928 . S
C222 N218 1.345 . S
C222 C223 1.371 . S
C222 H225 0.931 . S
C223 C219 1.391 . S
C223 C222 1.371 . S
C223 H230 0.930 . S
H224 C221 0.928 . S
H225 C222 0.931 . S
H226 C202 0.930 . S
H227 C199 0.930 . S
H228 C208 0.930 . S
H229 C220 0.929 . S
H230 C223 0.930 . S
C231 C232 1.351 . S
C231 N234 1.368 . S
C231 H236 0.931 . S
C232 C231 1.351 . S
C232 N233 1.373 . S
C232 H260 0.930 . S
N233 C232 1.373 . S
N233 C235 1.340 . S
N234 C231 1.368 . S
N234 C235 1.321 . S
N234 Co237 2.135 . S
C235 N233 1.340 . S
C235 N234 1.321 . S
C235 H259 0.930 . S
H236 C231 0.931 . S
Co237 N234 2.135 . S
Co237 N240 2.121 . S
Co237 O245 2.055 . S
Co237 O248 2.039 . S
Co237 N251 2.140 . S
C238 O239 1.227 . S
C238 O248 1.265 . S
O239 C238 1.227 . S
N240 Co237 2.121 . S
N240 C242 1.375 . S
N240 C243 1.313 . S
C241 C242 1.338 . S
C241 N244 1.377 . S
C241 H261 0.930 . S
C242 N240 1.375 . S
C242 C241 1.338 . S
C242 H246 0.931 . S
C243 N240 1.313 . S
C243 N244 1.344 . S
C243 H247 0.930 . S
N244 C241 1.377 . S
N244 C243 1.344 . S
O245 Co237 2.055 . S
O245 C249 1.253 . S
H246 C242 0.931 . S
H247 C243 0.930 . S
O248 Co237 2.039 . S
O248 C238 1.265 . S
C249 O245 1.253 . S
C249 O250 1.227 . S
O250 C249 1.227 . S
N251 Co237 2.140 . S
N251 C254 1.346 . S
N251 C255 1.345 . S
C252 C253 1.387 . S
C252 C256 1.391 . S
C253 C252 1.387 . S
C253 C254 1.369 . S
C253 H262 0.929 . S
C254 N251 1.346 . S
C254 C253 1.369 . S
C254 H257 0.928 . S
C255 N251 1.345 . S
C255 C256 1.371 . S
C255 H258 0.931 . S
C256 C252 1.391 . S
C256 C255 1.371 . S
C256 H263 0.930 . S
H257 C254 0.928 . S
H258 C255 0.931 . S
H259 C235 0.930 . S
H260 C232 0.930 . S
H261 C241 0.930 . S
H262 C253 0.929 . S
H263 C256 0.930 . S
C264 C265 1.351 . S
C264 N267 1.368 . S
C264 H269 0.931 . S
C265 C264 1.351 . S
C265 N266 1.373 . S
C265 H293 0.930 . S
N266 C265 1.373 . S
N266 C268 1.340 1_554 S
N267 C264 1.368 . S
N267 C268 1.321 1_554 S
N267 Co270 2.135 1_554 S
C268 N266 1.340 1_556 S
C268 N267 1.321 1_556 S
C268 H292 0.930 . S
H269 C264 0.931 . S
Co270 N267 2.135 1_556 S
Co270 N273 2.121 . S
Co270 O278 2.055 1_556 S
Co270 O281 2.039 . S
Co270 N284 2.140 1_556 S
C271 O272 1.227 . S
C271 O281 1.265 . S
O272 C271 1.227 . S
N273 Co270 2.121 . S
N273 C275 1.375 . S
N273 C276 1.309 1_556 S
C274 C275 1.338 . S
C274 N277 1.377 . S
C274 H294 0.930 . S
C275 N273 1.375 . S
C275 C274 1.338 . S
C275 H279 0.931 . S
C276 N273 1.309 1_554 S
C276 N277 1.340 1_554 S
C276 H280 0.938 . S
N277 C274 1.377 . S
N277 C276 1.340 1_556 S
O278 Co270 2.055 1_554 S
O278 C282 1.253 . S
H279 C275 0.931 . S
H280 C276 0.938 . S
O281 Co270 2.039 . S
O281 C271 1.265 . S
C282 O278 1.253 . S
C282 O283 1.227 . S
O283 C282 1.227 . S
N284 Co270 2.140 1_554 S
N284 C287 1.346 1_554 S
N284 C288 1.345 . S
C285 C286 1.387 . S
C285 C289 1.391 . S
C286 C285 1.387 . S
C286 C287 1.369 1_554 S
C286 H295 0.929 1_554 S
C287 N284 1.346 1_556 S
C287 C286 1.369 1_556 S
C287 H290 0.928 . S
C288 N284 1.345 . S
C288 C289 1.371 . S
C288 H291 0.931 . S
C289 C285 1.391 . S
C289 C288 1.371 . S
C289 H296 0.930 . S
H290 C287 0.928 . S
H291 C288 0.931 . S
H292 C268 0.930 . S
H293 C265 0.930 . S
H294 C274 0.930 . S
H295 C286 0.929 1_556 S
H296 C289 0.930 . S
C297 C298 1.351 . S
C297 N300 1.368 . S
C297 H302 0.931 . S
C298 C297 1.351 . S
C298 N299 1.373 . S
C298 H326 0.930 . S
N299 C298 1.373 . S
N299 C301 1.340 . S
N300 C297 1.368 . S
N300 C301 1.321 . S
N300 Co303 2.135 . S
C301 N299 1.340 . S
C301 N300 1.321 . S
C301 H325 0.930 . S
H302 C297 0.931 . S
Co303 N300 2.135 . S
Co303 N306 2.121 . S
Co303 O311 2.055 . S
Co303 O314 2.039 . S
Co303 N317 2.140 . S
C304 O305 1.227 . S
C304 O314 1.265 . S
O305 C304 1.227 . S
N306 Co303 2.121 . S
N306 C308 1.375 . S
N306 C309 1.313 . S
C307 C308 1.338 . S
C307 N310 1.377 . S
C307 H327 0.930 . S
C308 N306 1.375 . S
C308 C307 1.338 . S
C308 H312 0.931 . S
C309 N306 1.313 . S
C309 N310 1.344 . S
C309 H313 0.930 . S
N310 C307 1.377 . S
N310 C309 1.344 . S
O311 Co303 2.055 . S
O311 C315 1.253 . S
H312 C308 0.931 . S
H313 C309 0.930 . S
O314 Co303 2.039 . S
O314 C304 1.265 . S
C315 O311 1.253 . S
C315 O316 1.227 . S
O316 C315 1.227 . S
N317 Co303 2.140 . S
N317 C320 1.346 . S
N317 C321 1.345 . S
C318 C319 1.387 . S
C318 C322 1.391 . S
C319 C318 1.387 . S
C319 C320 1.369 . S
C319 H328 0.929 . S
C320 N317 1.346 . S
C320 C319 1.369 . S
C320 H323 0.928 . S
C321 N317 1.345 . S
C321 C322 1.371 . S
C321 H324 0.931 . S
C322 C318 1.391 . S
C322 C321 1.371 . S
C322 H329 0.930 . S
H323 C320 0.928 . S
H324 C321 0.931 . S
H325 C301 0.930 . S
H326 C298 0.930 . S
H327 C307 0.930 . S
H328 C319 0.929 . S
H329 C322 0.930 . S
C330 C331 1.351 . S
C330 N333 1.368 . S
C330 H335 0.931 . S
C331 C330 1.351 . S
C331 N332 1.373 . S
C331 H359 0.930 . S
N332 C331 1.373 . S
N332 C334 1.340 . S
N333 C330 1.368 . S
N333 C334 1.321 . S
N333 Co336 2.135 . S
C334 N332 1.340 . S
C334 N333 1.321 . S
C334 H358 0.930 . S
H335 C330 0.931 . S
Co336 N333 2.135 . S
Co336 N339 2.121 . S
Co336 O344 2.055 . S
Co336 O347 2.039 . S
Co336 N350 2.140 . S
C337 O338 1.227 . S
C337 O347 1.265 . S
O338 C337 1.227 . S
N339 Co336 2.121 . S
N339 C341 1.375 . S
N339 C342 1.313 . S
C340 C341 1.338 . S
C340 N343 1.377 . S
C340 H360 0.930 . S
C341 N339 1.375 . S
C341 C340 1.338 . S
C341 H345 0.931 . S
C342 N339 1.313 . S
C342 N343 1.344 . S
C342 H346 0.930 . S
N343 C340 1.377 . S
N343 C342 1.344 . S
O344 Co336 2.055 . S
O344 C348 1.253 . S
H345 C341 0.931 . S
H346 C342 0.930 . S
O347 Co336 2.039 . S
O347 C337 1.265 . S
C348 O344 1.253 . S
C348 O349 1.227 . S
O349 C348 1.227 . S
N350 Co336 2.140 . S
N350 C353 1.346 . S
N350 C354 1.345 . S
C351 C352 1.387 . S
C351 C355 1.391 . S
C352 C351 1.387 . S
C352 C353 1.369 . S
C352 H361 0.929 . S
C353 N350 1.346 . S
C353 C352 1.369 . S
C353 H356 0.928 . S
C354 N350 1.345 . S
C354 C355 1.371 . S
C354 H357 0.931 . S
C355 C351 1.391 . S
C355 C354 1.371 . S
C355 H362 0.930 . S
H356 C353 0.928 . S
H357 C354 0.931 . S
H358 C334 0.930 . S
H359 C331 0.930 . S
H360 C340 0.930 . S
H361 C352 0.929 . S
H362 C355 0.930 . S
C363 C364 1.351 . S
C363 N366 1.368 . S
C363 H368 0.931 . S
C364 C363 1.351 . S
C364 N365 1.373 . S
C364 H392 0.930 . S
N365 C364 1.373 . S
N365 C367 1.340 1_554 S
N366 C363 1.368 . S
N366 C367 1.321 1_554 S
N366 Co369 2.135 1_554 S
C367 N365 1.340 1_556 S
C367 N366 1.321 1_556 S
C367 H391 0.930 . S
H368 C363 0.931 . S
Co369 N366 2.135 1_556 S
Co369 N372 2.121 . S
Co369 O377 2.055 1_556 S
Co369 O380 2.039 . S
Co369 N383 2.140 1_556 S
C370 O371 1.227 . S
C370 O380 1.265 . S
O371 C370 1.227 . S
N372 Co369 2.121 . S
N372 C374 1.375 . S
N372 C375 1.309 1_556 S
C373 C374 1.338 . S
C373 N376 1.377 . S
C373 H393 0.930 . S
C374 N372 1.375 . S
C374 C373 1.338 . S
C374 H378 0.931 . S
C375 N372 1.309 1_554 S
C375 N376 1.340 1_554 S
C375 H379 0.938 . S
N376 C373 1.377 . S
N376 C375 1.340 1_556 S
O377 Co369 2.055 1_554 S
O377 C381 1.253 . S
H378 C374 0.931 . S
H379 C375 0.938 . S
O380 Co369 2.039 . S
O380 C370 1.265 . S
C381 O377 1.253 . S
C381 O382 1.227 . S
O382 C381 1.227 . S
N383 Co369 2.140 1_554 S
N383 C386 1.346 1_554 S
N383 C387 1.345 . S
C384 C385 1.387 . S
C384 C388 1.391 . S
C385 C384 1.387 . S
C385 C386 1.369 1_554 S
C385 H394 0.929 1_554 S
C386 N383 1.346 1_556 S
C386 C385 1.369 1_556 S
C386 H389 0.928 . S
C387 N383 1.345 . S
C387 C388 1.371 . S
C387 H390 0.931 . S
C388 C384 1.391 . S
C388 C387 1.371 . S
C388 H395 0.930 . S
H389 C386 0.928 . S
H390 C387 0.931 . S
H391 C367 0.930 . S
H392 C364 0.930 . S
H393 C373 0.930 . S
H394 C385 0.929 1_556 S
H395 C388 0.930 . S
C396 C397 1.349 . S
C396 C398 1.327 . S
C396 H421 0.950 . S
C397 C396 1.349 . S
C397 C413 1.349 . S
C398 C396 1.327 . S
C398 C417 1.429 . S
C398 H422 0.950 . S
C399 C416 1.574 1_655 S
C399 C418 1.368 . S
C399 H423 0.949 . S
H400 C404 0.949 . S
C401 C402 1.349 . S
C401 C403 1.327 . S
C401 H424 0.950 . S
C402 C401 1.349 . S
C402 C414 1.349 . S
C403 C401 1.327 . S
C403 C419 1.429 . S
C403 H425 0.950 . S
C404 H400 0.949 . S
C404 C412 1.574 1_455 S
C404 C420 1.368 . S
H405 C413 0.950 . S
H406 C411 0.950 . S
H407 C412 0.949 . S
H408 C414 0.950 . S
H409 C415 0.950 . S
H410 C416 0.949 . S
C411 H406 0.950 . S
C411 C413 1.327 . S
C411 C417 1.429 . S
C412 C404 1.574 1_655 S
C412 H407 0.949 . S
C412 C418 1.368 . S
C413 C397 1.349 . S
C413 H405 0.950 . S
C413 C411 1.327 . S
C414 C402 1.349 . S
C414 H408 0.950 . S
C414 C415 1.327 . S
C415 H409 0.950 . S
C415 C414 1.327 . S
C415 C419 1.429 . S
C416 C399 1.574 1_455 S
C416 H410 0.949 . S
C416 C420 1.368 . S
C417 C398 1.429 . S
C417 C411 1.429 . S
C417 C418 1.523 . S
C418 C399 1.368 . S
C418 C412 1.368 . S
C418 C417 1.523 . S
C419 C403 1.429 . S
C419 C415 1.429 . S
C419 C420 1.523 . S
C420 C404 1.368 . S
C420 C416 1.368 . S
C420 C419 1.523 . S
H421 C396 0.950 . S
H422 C398 0.950 . S
H423 C399 0.949 . S
H424 C401 0.950 . S
H425 C403 0.950 . S
C426 C427 1.349 . S
C426 C428 1.327 . S
C426 H451 0.950 . S
C427 C426 1.349 . S
C427 C443 1.349 . S
C428 C426 1.327 . S
C428 C447 1.429 . S
C428 H452 0.950 . S
C429 C446 1.574 1_565 S
C429 C448 1.368 . S
C429 H453 0.949 . S
H430 C434 0.949 . S
C431 C432 1.349 . S
C431 C433 1.327 . S
C431 H454 0.950 . S
C432 C431 1.349 . S
C432 C444 1.349 . S
C433 C431 1.327 . S
C433 C449 1.429 . S
C433 H455 0.950 . S
C434 H430 0.949 . S
C434 C442 1.574 1_545 S
C434 C450 1.368 . S
H435 C443 0.950 . S
H436 C441 0.950 . S
H437 C442 0.949 . S
H438 C444 0.950 . S
H439 C445 0.950 . S
H440 C446 0.949 . S
C441 H436 0.950 . S
C441 C443 1.327 . S
C441 C447 1.429 . S
C442 C434 1.574 1_565 S
C442 H437 0.949 . S
C442 C448 1.368 . S
C443 C427 1.349 . S
C443 H435 0.950 . S
C443 C441 1.327 . S
C444 C432 1.349 . S
C444 H438 0.950 . S
C444 C445 1.327 . S
C445 H439 0.950 . S
C445 C444 1.327 . S
C445 C449 1.429 . S
C446 C429 1.574 1_545 S
C446 H440 0.949 . S
C446 C450 1.368 . S
C447 C428 1.429 . S
C447 C441 1.429 . S
C447 C448 1.523 . S
C448 C429 1.368 . S
C448 C442 1.368 . S
C448 C447 1.523 . S
C449 C433 1.429 . S
C449 C445 1.429 . S
C449 C450 1.523 . S
C450 C434 1.368 . S
C450 C446 1.368 . S
C450 C449 1.523 . S
H451 C426 0.950 . S
H452 C428 0.950 . S
H453 C429 0.949 . S
H454 C431 0.950 . S
H455 C433 0.950 . S
C456 C457 1.349 . S
C456 C458 1.327 . S
C456 H481 0.950 . S
C457 C456 1.349 . S
C457 C473 1.349 . S
C458 C456 1.327 . S
C458 C477 1.429 . S
C458 H482 0.950 . S
C459 C476 1.574 . S
C459 C478 1.368 . S
C459 H483 0.949 . S
H460 C464 0.949 . S
C461 C462 1.349 . S
C461 C463 1.327 . S
C461 H484 0.950 . S
C462 C461 1.349 . S
C462 C474 1.349 . S
C463 C461 1.327 . S
C463 C479 1.429 . S
C463 H485 0.950 . S
C464 H460 0.949 . S
C464 C472 1.574 . S
C464 C480 1.368 . S
H465 C473 0.950 . S
H466 C471 0.950 . S
H467 C472 0.949 . S
H468 C474 0.950 . S
H469 C475 0.950 . S
H470 C476 0.949 . S
C471 H466 0.950 . S
C471 C473 1.327 . S
C471 C477 1.429 . S
C472 C464 1.574 . S
C472 H467 0.949 . S
C472 C478 1.368 . S
C473 C457 1.349 . S
C473 H465 0.950 . S
C473 C471 1.327 . S
C474 C462 1.349 . S
C474 H468 0.950 . S
C474 C475 1.327 . S
C475 H469 0.950 . S
C475 C474 1.327 . S
C475 C479 1.429 . S
C476 C459 1.574 . S
C476 H470 0.949 . S
C476 C480 1.368 . S
C477 C458 1.429 . S
C477 C471 1.429 . S
C477 C478 1.523 . S
C478 C459 1.368 . S
C478 C472 1.368 . S
C478 C477 1.523 . S
C479 C463 1.429 . S
C479 C475 1.429 . S
C479 C480 1.523 . S
C480 C464 1.368 . S
C480 C476 1.368 . S
C480 C479 1.523 . S
H481 C456 0.950 . S
H482 C458 0.950 . S
H483 C459 0.949 . S
H484 C461 0.950 . S
H485 C463 0.950 . S
C486 C487 1.349 . S
C486 C488 1.327 . S
C486 H511 0.950 . S
C487 C486 1.349 . S
C487 C503 1.349 . S
C488 C486 1.327 . S
C488 C507 1.429 . S
C488 H512 0.950 . S
C489 C506 1.574 . S
C489 C508 1.368 1_655 S
C489 H513 0.949 . S
H490 C494 0.949 . S
C491 C492 1.349 . S
C491 C493 1.327 . S
C491 H514 0.950 . S
C492 C491 1.349 . S
C492 C504 1.349 . S
C493 C491 1.327 . S
C493 C509 1.429 . S
C493 H515 0.950 . S
C494 H490 0.949 . S
C494 C502 1.574 . S
C494 C510 1.368 1_455 S
H495 C503 0.950 . S
H496 C501 0.950 . S
H497 C502 0.949 . S
H498 C504 0.950 . S
H499 C505 0.950 . S
H500 C506 0.949 . S
C501 H496 0.950 . S
C501 C503 1.327 . S
C501 C507 1.429 . S
C502 C494 1.574 . S
C502 H497 0.949 . S
C502 C508 1.368 . S
C503 C487 1.349 . S
C503 H495 0.950 . S
C503 C501 1.327 . S
C504 C492 1.349 . S
C504 H498 0.950 . S
C504 C505 1.327 . S
C505 H499 0.950 . S
C505 C504 1.327 . S
C505 C509 1.429 . S
C506 C489 1.574 . S
C506 H500 0.949 . S
C506 C510 1.368 . S
C507 C488 1.429 . S
C507 C501 1.429 . S
C507 C508 1.523 . S
C508 C489 1.368 1_455 S
C508 C502 1.368 . S
C508 C507 1.523 . S
C509 C493 1.429 . S
C509 C505 1.429 . S
C509 C510 1.523 . S
C510 C494 1.368 1_655 S
C510 C506 1.368 . S
C510 C509 1.523 . S
H511 C486 0.950 . S
H512 C488 0.950 . S
H513 C489 0.949 . S
H514 C491 0.950 . S
H515 C493 0.950 . S
C516 C517 1.349 . S
C516 C518 1.327 . S
C516 H541 0.950 . S
C517 C516 1.349 . S
C517 C533 1.349 . S
C518 C516 1.327 . S
C518 C537 1.429 . S
C518 H542 0.950 . S
C519 C536 1.574 . S
C519 C538 1.368 1_565 S
C519 H543 0.949 . S
H520 C524 0.949 . S
C521 C522 1.349 . S
C521 C523 1.327 . S
C521 H544 0.950 . S
C522 C521 1.349 . S
C522 C534 1.349 . S
C523 C521 1.327 . S
C523 C539 1.429 . S
C523 H545 0.950 . S
C524 H520 0.949 . S
C524 C532 1.574 . S
C524 C540 1.368 1_545 S
H525 C533 0.950 . S
H526 C531 0.950 . S
H527 C532 0.949 . S
H528 C534 0.950 . S
H529 C535 0.950 . S
H530 C536 0.949 . S
C531 H526 0.950 . S
C531 C533 1.327 . S
C531 C537 1.429 . S
C532 C524 1.574 . S
C532 H527 0.949 . S
C532 C538 1.368 . S
C533 C517 1.349 . S
C533 H525 0.950 . S
C533 C531 1.327 . S
C534 C522 1.349 . S
C534 H528 0.950 . S
C534 C535 1.327 . S
C535 H529 0.950 . S
C535 C534 1.327 . S
C535 C539 1.429 . S
C536 C519 1.574 . S
C536 H530 0.949 . S
C536 C540 1.368 . S
C537 C518 1.429 . S
C537 C531 1.429 . S
C537 C538 1.523 . S
C538 C519 1.368 1_545 S
C538 C532 1.368 . S
C538 C537 1.523 . S
C539 C523 1.429 . S
C539 C535 1.429 . S
C539 C540 1.523 . S
C540 C524 1.368 1_565 S
C540 C536 1.368 . S
C540 C539 1.523 . S
H541 C516 0.950 . S
H542 C518 0.950 . S
H543 C519 0.949 . S
H544 C521 0.950 . S
H545 C523 0.950 . S
C546 C547 1.349 . S
C546 C548 1.327 . S
C546 H571 0.950 . S
C547 C546 1.349 . S
C547 C563 1.349 . S
C548 C546 1.327 . S
C548 C567 1.429 . S
C548 H572 0.950 . S
C549 C566 1.574 . S
C549 C568 1.368 . S
C549 H573 0.949 . S
H550 C554 0.949 . S
C551 C552 1.349 . S
C551 C553 1.327 . S
C551 H574 0.950 . S
C552 C551 1.349 . S
C552 C564 1.349 . S
C553 C551 1.327 . S
C553 C569 1.429 . S
C553 H575 0.950 . S
C554 H550 0.949 . S
C554 C562 1.574 . S
C554 C570 1.368 . S
H555 C563 0.950 . S
H556 C561 0.950 . S
H557 C562 0.949 . S
H558 C564 0.950 . S
H559 C565 0.950 . S
H560 C566 0.949 . S
C561 H556 0.950 . S
C561 C563 1.327 . S
C561 C567 1.429 . S
C562 C554 1.574 . S
C562 H557 0.949 . S
C562 C568 1.368 . S
C563 C547 1.349 . S
C563 H555 0.950 . S
C563 C561 1.327 . S
C564 C552 1.349 . S
C564 H558 0.950 . S
C564 C565 1.327 . S
C565 H559 0.950 . S
C565 C564 1.327 . S
C565 C569 1.429 . S
C566 C549 1.574 . S
C566 H560 0.949 . S
C566 C570 1.368 . S
C567 C548 1.429 . S
C567 C561 1.429 . S
C567 C568 1.523 . S
C568 C549 1.368 . S
C568 C562 1.368 . S
C568 C567 1.523 . S
C569 C553 1.429 . S
C569 C565 1.429 . S
C569 C570 1.523 . S
C570 C554 1.368 . S
C570 C566 1.368 . S
C570 C569 1.523 . S
H571 C546 0.950 . S
H572 C548 0.950 . S
H573 C549 0.949 . S
H574 C551 0.950 . S
H575 C553 0.950 . S
C576 C577 1.349 . S
C576 C578 1.327 . S
C576 H601 0.950 . S
C577 C576 1.349 . S
C577 C593 1.349 . S
C578 C576 1.327 . S
C578 C597 1.429 . S
C578 H602 0.950 . S
C579 C596 1.574 . S
C579 C598 1.368 . S
C579 H603 0.949 . S
H580 C584 0.949 . S
C581 C582 1.349 . S
C581 C583 1.327 . S
C581 H604 0.950 . S
C582 C581 1.349 . S
C582 C594 1.349 . S
C583 C581 1.327 . S
C583 C599 1.429 . S
C583 H605 0.950 . S
C584 H580 0.949 . S
C584 C592 1.574 . S
C584 C600 1.368 . S
H585 C593 0.950 . S
H586 C591 0.950 . S
H587 C592 0.949 . S
H588 C594 0.950 . S
H589 C595 0.950 . S
H590 C596 0.949 . S
C591 H586 0.950 . S
C591 C593 1.327 . S
C591 C597 1.429 . S
C592 C584 1.574 . S
C592 H587 0.949 . S
C592 C598 1.368 . S
C593 C577 1.349 . S
C593 H585 0.950 . S
C593 C591 1.327 . S
C594 C582 1.349 . S
C594 H588 0.950 . S
C594 C595 1.327 . S
C595 H589 0.950 . S
C595 C594 1.327 . S
C595 C599 1.429 . S
C596 C579 1.574 . S
C596 H590 0.949 . S
C596 C600 1.368 . S
C597 C578 1.429 . S
C597 C591 1.429 . S
C597 C598 1.523 . S
C598 C579 1.368 . S
C598 C592 1.368 . S
C598 C597 1.523 . S
C599 C583 1.429 . S
C599 C595 1.429 . S
C599 C600 1.523 . S
C600 C584 1.368 . S
C600 C596 1.368 . S
C600 C599 1.523 . S
H601 C576 0.950 . S
H602 C578 0.950 . S
H603 C579 0.949 . S
H604 C581 0.950 . S
H605 C583 0.950 . S
C606 C607 1.349 . S
C606 C608 1.327 . S
C606 H631 0.950 . S
C607 C606 1.349 . S
C607 C623 1.349 . S
C608 C606 1.327 . S
C608 C627 1.429 . S
C608 H632 0.950 . S
C609 C626 1.574 . S
C609 C628 1.368 . S
C609 H633 0.949 . S
H610 C614 0.949 . S
C611 C612 1.349 . S
C611 C613 1.327 . S
C611 H634 0.950 . S
C612 C611 1.349 . S
C612 C624 1.349 . S
C613 C611 1.327 . S
C613 C629 1.429 . S
C613 H635 0.950 . S
C614 H610 0.949 . S
C614 C622 1.574 . S
C614 C630 1.368 . S
H615 C623 0.950 . S
H616 C621 0.950 . S
H617 C622 0.949 . S
H618 C624 0.950 . S
H619 C625 0.950 . S
H620 C626 0.949 . S
C621 H616 0.950 . S
C621 C623 1.327 . S
C621 C627 1.429 . S
C622 C614 1.574 . S
C622 H617 0.949 . S
C622 C628 1.368 . S
C623 C607 1.349 . S
C623 H615 0.950 . S
C623 C621 1.327 . S
C624 C612 1.349 . S
C624 H618 0.950 . S
C624 C625 1.327 . S
C625 H619 0.950 . S
C625 C624 1.327 . S
C625 C629 1.429 . S
C626 C609 1.574 . S
C626 H620 0.949 . S
C626 C630 1.368 . S
C627 C608 1.429 . S
C627 C621 1.429 . S
C627 C628 1.523 . S
C628 C609 1.368 . S
C628 C622 1.368 . S
C628 C627 1.523 . S
C629 C613 1.429 . S
C629 C625 1.429 . S
C629 C630 1.523 . S
C630 C614 1.368 . S
C630 C626 1.368 . S
C630 C629 1.523 . S
H631 C606 0.950 . S
H632 C608 0.950 . S
H633 C609 0.949 . S
H634 C611 0.950 . S
H635 C613 0.950 . S
C636 C637 1.349 . S
C636 C638 1.327 . S
C636 H661 0.950 . S
C637 C636 1.349 . S
C637 C653 1.349 . S
C638 C636 1.327 . S
C638 C657 1.429 . S
C638 H662 0.950 . S
C639 C656 1.574 . S
C639 C658 1.368 . S
C639 H663 0.949 . S
H640 C644 0.949 . S
C641 C642 1.349 . S
C641 C643 1.327 . S
C641 H664 0.950 . S
C642 C641 1.349 . S
C642 C654 1.349 . S
C643 C641 1.327 . S
C643 C659 1.429 . S
C643 H665 0.950 . S
C644 H640 0.949 . S
C644 C652 1.574 . S
C644 C660 1.368 . S
H645 C653 0.950 . S
H646 C651 0.950 . S
H647 C652 0.949 . S
H648 C654 0.950 . S
H649 C655 0.950 . S
H650 C656 0.949 . S
C651 H646 0.950 . S
C651 C653 1.327 . S
C651 C657 1.429 . S
C652 C644 1.574 . S
C652 H647 0.949 . S
C652 C658 1.368 . S
C653 C637 1.349 . S
C653 H645 0.950 . S
C653 C651 1.327 . S
C654 C642 1.349 . S
C654 H648 0.950 . S
C654 C655 1.327 . S
C655 H649 0.950 . S
C655 C654 1.327 . S
C655 C659 1.429 . S
C656 C639 1.574 . S
C656 H650 0.949 . S
C656 C660 1.368 . S
C657 C638 1.429 . S
C657 C651 1.429 . S
C657 C658 1.523 . S
C658 C639 1.368 . S
C658 C652 1.368 . S
C658 C657 1.523 . S
C659 C643 1.429 . S
C659 C655 1.429 . S
C659 C660 1.523 . S
C660 C644 1.368 . S
C660 C656 1.368 . S
C660 C659 1.523 . S
H661 C636 0.950 . S
H662 C638 0.950 . S
H663 C639 0.949 . S
H664 C641 0.950 . S
H665 C643 0.950 . S
C666 C667 1.349 . S
C666 C668 1.327 . S
C666 H691 0.950 . S
C667 C666 1.349 . S
C667 C683 1.349 . S
C668 C666 1.327 . S
C668 C687 1.429 . S
C668 H692 0.950 . S
C669 C686 1.574 . S
C669 C688 1.368 . S
C669 H693 0.949 . S
H670 C674 0.949 . S
C671 C672 1.349 . S
C671 C673 1.327 . S
C671 H694 0.950 . S
C672 C671 1.349 . S
C672 C684 1.349 . S
C673 C671 1.327 . S
C673 C689 1.429 . S
C673 H695 0.950 . S
C674 H670 0.949 . S
C674 C682 1.574 . S
C674 C690 1.368 . S
H675 C683 0.950 . S
H676 C681 0.950 . S
H677 C682 0.949 . S
H678 C684 0.950 . S
H679 C685 0.950 . S
H680 C686 0.949 . S
C681 H676 0.950 . S
C681 C683 1.327 . S
C681 C687 1.429 . S
C682 C674 1.574 . S
C682 H677 0.949 . S
C682 C688 1.368 . S
C683 C667 1.349 . S
C683 H675 0.950 . S
C683 C681 1.327 . S
C684 C672 1.349 . S
C684 H678 0.950 . S
C684 C685 1.327 . S
C685 H679 0.950 . S
C685 C684 1.327 . S
C685 C689 1.429 . S
C686 C669 1.574 . S
C686 H680 0.949 . S
C686 C690 1.368 . S
C687 C668 1.429 . S
C687 C681 1.429 . S
C687 C688 1.523 . S
C688 C669 1.368 . S
C688 C682 1.368 . S
C688 C687 1.523 . S
C689 C673 1.429 . S
C689 C685 1.429 . S
C689 C690 1.523 . S
C690 C674 1.368 . S
C690 C686 1.368 . S
C690 C689 1.523 . S
H691 C666 0.950 . S
H692 C668 0.950 . S
H693 C669 0.949 . S
H694 C671 0.950 . S
H695 C673 0.950 . S
C696 C697 1.349 . S
C696 C698 1.327 . S
C696 H721 0.950 . S
C697 C696 1.349 . S
C697 C713 1.349 . S
C698 C696 1.327 . S
C698 C717 1.429 . S
C698 H722 0.950 . S
C699 C716 1.574 . S
C699 C718 1.368 . S
C699 H723 0.949 . S
H700 C704 0.949 . S
C701 C702 1.349 . S
C701 C703 1.327 . S
C701 H724 0.950 . S
C702 C701 1.349 . S
C702 C714 1.349 . S
C703 C701 1.327 . S
C703 C719 1.429 . S
C703 H725 0.950 . S
C704 H700 0.949 . S
C704 C712 1.574 . S
C704 C720 1.368 . S
H705 C713 0.950 . S
H706 C711 0.950 . S
H707 C712 0.949 . S
H708 C714 0.950 . S
H709 C715 0.950 . S
H710 C716 0.949 . S
C711 H706 0.950 . S
C711 C713 1.327 . S
C711 C717 1.429 . S
C712 C704 1.574 . S
C712 H707 0.949 . S
C712 C718 1.368 . S
C713 C697 1.349 . S
C713 H705 0.950 . S
C713 C711 1.327 . S
C714 C702 1.349 . S
C714 H708 0.950 . S
C714 C715 1.327 . S
C715 H709 0.950 . S
C715 C714 1.327 . S
C715 C719 1.429 . S
C716 C699 1.574 . S
C716 H710 0.949 . S
C716 C720 1.368 . S
C717 C698 1.429 . S
C717 C711 1.429 . S
C717 C718 1.523 . S
C718 C699 1.368 . S
C718 C712 1.368 . S
C718 C717 1.523 . S
C719 C703 1.429 . S
C719 C715 1.429 . S
C719 C720 1.523 . S
C720 C704 1.368 . S
C720 C716 1.368 . S
C720 C719 1.523 . S
H721 C696 0.950 . S
H722 C698 0.950 . S
H723 C699 0.949 . S
H724 C701 0.950 . S
H725 C703 0.950 . S
C726 C727 1.349 . S
C726 C728 1.327 . S
C726 H751 0.950 . S
C727 C726 1.349 . S
C727 C743 1.349 . S
C728 C726 1.327 . S
C728 C747 1.429 . S
C728 H752 0.950 . S
C729 C746 1.574 . S
C729 C748 1.368 . S
C729 H753 0.949 . S
H730 C734 0.949 . S
C731 C732 1.349 . S
C731 C733 1.327 . S
C731 H754 0.950 . S
C732 C731 1.349 . S
C732 C744 1.349 . S
C733 C731 1.327 . S
C733 C749 1.429 . S
C733 H755 0.950 . S
C734 H730 0.949 . S
C734 C742 1.574 . S
C734 C750 1.368 . S
H735 C743 0.950 . S
H736 C741 0.950 . S
H737 C742 0.949 . S
H738 C744 0.950 . S
H739 C745 0.950 . S
H740 C746 0.949 . S
C741 H736 0.950 . S
C741 C743 1.327 . S
C741 C747 1.429 . S
C742 C734 1.574 . S
C742 H737 0.949 . S
C742 C748 1.368 . S
C743 C727 1.349 . S
C743 H735 0.950 . S
C743 C741 1.327 . S
C744 C732 1.349 . S
C744 H738 0.950 . S
C744 C745 1.327 . S
C745 H739 0.950 . S
C745 C744 1.327 . S
C745 C749 1.429 . S
C746 C729 1.574 . S
C746 H740 0.949 . S
C746 C750 1.368 . S
C747 C728 1.429 . S
C747 C741 1.429 . S
C747 C748 1.523 . S
C748 C729 1.368 . S
C748 C742 1.368 . S
C748 C747 1.523 . S
C749 C733 1.429 . S
C749 C745 1.429 . S
C749 C750 1.523 . S
C750 C734 1.368 . S
C750 C746 1.368 . S
C750 C749 1.523 . S
H751 C726 0.950 . S
H752 C728 0.950 . S
H753 C729 0.949 . S
H754 C731 0.950 . S
H755 C733 0.950 . S
C756 C757 1.349 . S
C756 C758 1.327 . S
C756 H781 0.950 . S
C757 C756 1.349 . S
C757 C773 1.349 . S
C758 C756 1.327 . S
C758 C777 1.429 . S
C758 H782 0.950 . S
C759 C776 1.574 . S
C759 C778 1.368 1_455 S
C759 H783 0.949 . S
H760 C764 0.949 . S
C761 C762 1.349 . S
C761 C763 1.327 . S
C761 H784 0.950 . S
C762 C761 1.349 . S
C762 C774 1.349 . S
C763 C761 1.327 . S
C763 C779 1.429 . S
C763 H785 0.950 . S
C764 H760 0.949 . S
C764 C772 1.574 . S
C764 C780 1.368 1_655 S
H765 C773 0.950 . S
H766 C771 0.950 . S
H767 C772 0.949 . S
H768 C774 0.950 . S
H769 C775 0.950 . S
H770 C776 0.949 . S
C771 H766 0.950 . S
C771 C773 1.327 . S
C771 C777 1.429 . S
C772 C764 1.574 . S
C772 H767 0.949 . S
C772 C778 1.368 . S
C773 C757 1.349 . S
C773 H765 0.950 . S
C773 C771 1.327 . S
C774 C762 1.349 . S
C774 H768 0.950 . S
C774 C775 1.327 . S
C775 H769 0.950 . S
C775 C774 1.327 . S
C775 C779 1.429 . S
C776 C759 1.574 . S
C776 H770 0.949 . S
C776 C780 1.368 . S
C777 C758 1.429 . S
C777 C771 1.429 . S
C777 C778 1.523 . S
C778 C759 1.368 1_655 S
C778 C772 1.368 . S
C778 C777 1.523 . S
C779 C763 1.429 . S
C779 C775 1.429 . S
C779 C780 1.523 . S
C780 C764 1.368 1_455 S
C780 C776 1.368 . S
C780 C779 1.523 . S
H781 C756 0.950 . S
H782 C758 0.950 . S
H783 C759 0.949 . S
H784 C761 0.950 . S
H785 C763 0.950 . S
C786 C787 1.349 . S
C786 C788 1.327 . S
C786 H811 0.950 . S
C787 C786 1.349 . S
C787 C803 1.349 . S
C788 C786 1.327 . S
C788 C807 1.429 . S
C788 H812 0.950 . S
C789 C806 1.574 . S
C789 C808 1.368 . S
C789 H813 0.949 . S
H790 C794 0.949 . S
C791 C792 1.349 . S
C791 C793 1.327 . S
C791 H814 0.950 . S
C792 C791 1.349 . S
C792 C804 1.349 . S
C793 C791 1.327 . S
C793 C809 1.429 . S
C793 H815 0.950 . S
C794 H790 0.949 . S
C794 C802 1.574 . S
C794 C810 1.368 . S
H795 C803 0.950 . S
H796 C801 0.950 . S
H797 C802 0.949 . S
H798 C804 0.950 . S
H799 C805 0.950 . S
H800 C806 0.949 . S
C801 H796 0.950 . S
C801 C803 1.327 . S
C801 C807 1.429 . S
C802 C794 1.574 . S
C802 H797 0.949 . S
C802 C808 1.368 1_565 S
C803 C787 1.349 . S
C803 H795 0.950 . S
C803 C801 1.327 . S
C804 C792 1.349 . S
C804 H798 0.950 . S
C804 C805 1.327 . S
C805 H799 0.950 . S
C805 C804 1.327 . S
C805 C809 1.429 . S
C806 C789 1.574 . S
C806 H800 0.949 . S
C806 C810 1.368 1_545 S
C807 C788 1.429 . S
C807 C801 1.429 . S
C807 C808 1.523 . S
C808 C789 1.368 . S
C808 C802 1.368 1_545 S
C808 C807 1.523 . S
C809 C793 1.429 . S
C809 C805 1.429 . S
C809 C810 1.523 . S
C810 C794 1.368 . S
C810 C806 1.368 1_565 S
C810 C809 1.523 . S
H811 C786 0.950 . S
H812 C788 0.950 . S
H813 C789 0.949 . S
H814 C791 0.950 . S
H815 C793 0.950 . S
C816 C817 1.349 1_556 S
C816 C818 1.327 . S
C816 H841 0.950 . S
C817 C816 1.349 1_554 S
C817 C833 1.349 . S
C818 C816 1.327 . S
C818 C837 1.429 1_556 S
C818 H842 0.950 . S
C819 C836 1.574 . S
C819 C838 1.368 . S
C819 H843 0.949 . S
H820 C824 0.949 . S
C821 C822 1.349 . S
C821 C823 1.327 . S
C821 H844 0.950 . S
C822 C821 1.349 . S
C822 C834 1.349 1_554 S
C823 C821 1.327 . S
C823 C839 1.429 . S
C823 H845 0.950 . S
C824 H820 0.949 . S
C824 C832 1.574 . S
C824 C840 1.368 1_556 S
H825 C833 0.950 . S
H826 C831 0.950 . S
H827 C832 0.949 . S
H828 C834 0.950 . S
H829 C835 0.950 . S
H830 C836 0.949 . S
C831 H826 0.950 . S
C831 C833 1.327 . S
C831 C837 1.429 . S
C832 C824 1.574 . S
C832 H827 0.949 . S
C832 C838 1.368 1_556 S
C833 C817 1.349 . S
C833 H825 0.950 . S
C833 C831 1.327 . S
C834 C822 1.349 1_556 S
C834 H828 0.950 . S
C834 C835 1.327 . S
C835 H829 0.950 . S
C835 C834 1.327 . S
C835 C839 1.429 1_556 S
C836 C819 1.574 . S
C836 H830 0.949 . S
C836 C840 1.368 . S
C837 C818 1.429 1_554 S
C837 C831 1.429 . S
C837 C838 1.523 . S
C838 C819 1.368 . S
C838 C832 1.368 1_554 S
C838 C837 1.523 . S
C839 C823 1.429 . S
C839 C835 1.429 1_554 S
C839 C840 1.523 . S
C840 C824 1.368 1_554 S
C840 C836 1.368 . S
C840 C839 1.523 . S
H841 C816 0.950 . S
H842 C818 0.950 . S
H843 C819 0.949 . S
H844 C821 0.950 . S
H845 C823 0.950 . S
C846 C847 1.349 . S
C846 C848 1.327 . S
C846 H871 0.950 . S
C847 C846 1.349 . S
C847 C863 1.349 . S
C848 C846 1.327 . S
C848 C867 1.429 . S
C848 H872 0.950 . S
C849 C866 1.574 . S
C849 C868 1.368 . S
C849 H873 0.949 . S
H850 C854 0.949 . S
C851 C852 1.349 . S
C851 C853 1.327 . S
C851 H874 0.950 . S
C852 C851 1.349 . S
C852 C864 1.349 . S
C853 C851 1.327 . S
C853 C869 1.429 . S
C853 H875 0.950 . S
C854 H850 0.949 . S
C854 C862 1.574 . S
C854 C870 1.368 . S
H855 C863 0.950 . S
H856 C861 0.950 . S
H857 C862 0.949 . S
H858 C864 0.950 . S
H859 C865 0.950 . S
H860 C866 0.949 . S
C861 H856 0.950 . S
C861 C863 1.327 . S
C861 C867 1.429 . S
C862 C854 1.574 . S
C862 H857 0.949 . S
C862 C868 1.368 1_545 S
C863 C847 1.349 . S
C863 H855 0.950 . S
C863 C861 1.327 . S
C864 C852 1.349 . S
C864 H858 0.950 . S
C864 C865 1.327 . S
C865 H859 0.950 . S
C865 C864 1.327 . S
C865 C869 1.429 . S
C866 C849 1.574 . S
C866 H860 0.949 . S
C866 C870 1.368 1_565 S
C867 C848 1.429 . S
C867 C861 1.429 . S
C867 C868 1.523 . S
C868 C849 1.368 . S
C868 C862 1.368 1_565 S
C868 C867 1.523 . S
C869 C853 1.429 . S
C869 C865 1.429 . S
C869 C870 1.523 . S
C870 C854 1.368 . S
C870 C866 1.368 1_545 S
C870 C869 1.523 . S
H871 C846 0.950 . S
H872 C848 0.950 . S
H873 C849 0.949 . S
H874 C851 0.950 . S
H875 C853 0.950 . S
C876 C877 1.349 . S
C876 C878 1.327 . S
C876 H901 0.950 . S
C877 C876 1.349 . S
C877 C893 1.349 . S
C878 C876 1.327 . S
C878 C897 1.429 . S
C878 H902 0.950 . S
C879 C896 1.574 . S
C879 C898 1.368 . S
C879 H903 0.949 . S
H880 C884 0.949 . S
C881 C882 1.349 . S
C881 C883 1.327 . S
C881 H904 0.950 . S
C882 C881 1.349 . S
C882 C894 1.349 . S
C883 C881 1.327 . S
C883 C899 1.429 . S
C883 H905 0.950 . S
C884 H880 0.949 . S
C884 C892 1.574 . S
C884 C900 1.368 . S
H885 C893 0.950 . S
H886 C891 0.950 . S
H887 C892 0.949 . S
H888 C894 0.950 . S
H889 C895 0.950 . S
H890 C896 0.949 . S
C891 H886 0.950 . S
C891 C893 1.327 . S
C891 C897 1.429 . S
C892 C884 1.574 . S
C892 H887 0.949 . S
C892 C898 1.368 . S
C893 C877 1.349 . S
C893 H885 0.950 . S
C893 C891 1.327 . S
C894 C882 1.349 . S
C894 H888 0.950 . S
C894 C895 1.327 . S
C895 H889 0.950 . S
C895 C894 1.327 . S
C895 C899 1.429 . S
C896 C879 1.574 . S
C896 H890 0.949 . S
C896 C900 1.368 . S
C897 C878 1.429 . S
C897 C891 1.429 . S
C897 C898 1.523 . S
C898 C879 1.368 . S
C898 C892 1.368 . S
C898 C897 1.523 . S
C899 C883 1.429 . S
C899 C895 1.429 . S
C899 C900 1.523 . S
C900 C884 1.368 . S
C900 C896 1.368 . S
C900 C899 1.523 . S
H901 C876 0.950 . S
H902 C878 0.950 . S
H903 C879 0.949 . S
H904 C881 0.950 . S
H905 C883 0.950 . S
C906 C907 1.349 1_554 S
C906 C908 1.327 . S
C906 H931 0.950 . S
C907 C906 1.349 1_556 S
C907 C923 1.349 . S
C908 C906 1.327 . S
C908 C927 1.429 1_554 S
C908 H932 0.950 . S
C909 C926 1.574 . S
C909 C928 1.368 . S
C909 H933 0.949 . S
H910 C914 0.949 . S
C911 C912 1.349 . S
C911 C913 1.327 . S
C911 H934 0.950 . S
C912 C911 1.349 . S
C912 C924 1.349 1_556 S
C913 C911 1.327 . S
C913 C929 1.429 . S
C913 H935 0.950 . S
C914 H910 0.949 . S
C914 C922 1.574 . S
C914 C930 1.368 1_554 S
H915 C923 0.950 . S
H916 C921 0.950 . S
H917 C922 0.949 . S
H918 C924 0.950 . S
H919 C925 0.950 . S
H920 C926 0.949 . S
C921 H916 0.950 . S
C921 C923 1.327 . S
C921 C927 1.429 . S
C922 C914 1.574 . S
C922 H917 0.949 . S
C922 C928 1.368 1_454 S
C923 C907 1.349 . S
C923 H915 0.950 . S
C923 C921 1.327 . S
C924 C912 1.349 1_554 S
C924 H918 0.950 . S
C924 C925 1.327 . S
C925 H919 0.950 . S
C925 C924 1.327 . S
C925 C929 1.429 1_554 S
C926 C909 1.574 . S
C926 H920 0.949 . S
C926 C930 1.368 1_655 S
C927 C908 1.429 1_556 S
C927 C921 1.429 . S
C927 C928 1.523 . S
C928 C909 1.368 . S
C928 C922 1.368 1_656 S
C928 C927 1.523 . S
C929 C913 1.429 . S
C929 C925 1.429 1_556 S
C929 C930 1.523 . S
C930 C914 1.368 1_556 S
C930 C926 1.368 1_455 S
C930 C929 1.523 . S
H931 C906 0.950 . S
H932 C908 0.950 . S
H933 C909 0.949 . S
H934 C911 0.950 . S
H935 C913 0.950 . S
C936 C937 1.349 . S
C936 C938 1.327 . S
C936 H961 0.950 . S
C937 C936 1.349 . S
C937 C953 1.349 . S
C938 C936 1.327 . S
C938 C957 1.429 . S
C938 H962 0.950 . S
C939 C956 1.574 . S
C939 C958 1.368 . S
C939 H963 0.949 . S
H940 C944 0.949 . S
C941 C942 1.349 . S
C941 C943 1.327 . S
C941 H964 0.950 . S
C942 C941 1.349 . S
C942 C954 1.349 . S
C943 C941 1.327 . S
C943 C959 1.429 . S
C943 H965 0.950 . S
C944 H940 0.949 . S
C944 C952 1.574 . S
C944 C960 1.368 . S
H945 C953 0.950 . S
H946 C951 0.950 . S
H947 C952 0.949 . S
H948 C954 0.950 . S
H949 C955 0.950 . S
H950 C956 0.949 . S
C951 H946 0.950 . S
C951 C953 1.327 . S
C951 C957 1.429 . S
C952 C944 1.574 . S
C952 H947 0.949 . S
C952 C958 1.368 . S
C953 C937 1.349 . S
C953 H945 0.950 . S
C953 C951 1.327 . S
C954 C942 1.349 . S
C954 H948 0.950 . S
C954 C955 1.327 . S
C955 H949 0.950 . S
C955 C954 1.327 . S
C955 C959 1.429 . S
C956 C939 1.574 . S
C956 H950 0.949 . S
C956 C960 1.368 . S
C957 C938 1.429 . S
C957 C951 1.429 . S
C957 C958 1.523 . S
C958 C939 1.368 . S
C958 C952 1.368 . S
C958 C957 1.523 . S
C959 C943 1.429 . S
C959 C955 1.429 . S
C959 C960 1.523 . S
C960 C944 1.368 . S
C960 C956 1.368 . S
C960 C959 1.523 . S
H961 C936 0.950 . S
H962 C938 0.950 . S
H963 C939 0.949 . S
H964 C941 0.950 . S
H965 C943 0.950 . S
C966 C967 1.349 . S
C966 C968 1.327 . S
C966 H991 0.950 . S
C967 C966 1.349 . S
C967 C983 1.349 . S
C968 C966 1.327 . S
C968 C987 1.429 . S
C968 H992 0.950 . S
C969 C986 1.574 1_655 S
C969 C988 1.368 . S
C969 H993 0.949 . S
H970 C974 0.949 . S
C971 C972 1.349 . S
C971 C973 1.327 . S
C971 H994 0.950 . S
C972 C971 1.349 . S
C972 C984 1.349 . S
C973 C971 1.327 . S
C973 C989 1.429 . S
C973 H995 0.950 . S
C974 H970 0.949 . S
C974 C982 1.574 1_455 S
C974 C990 1.368 . S
H975 C983 0.950 . S
H976 C981 0.950 . S
H977 C982 0.949 . S
H978 C984 0.950 . S
H979 C985 0.950 . S
H980 C986 0.949 . S
C981 H976 0.950 . S
C981 C983 1.327 . S
C981 C987 1.429 . S
C982 C974 1.574 1_655 S
C982 H977 0.949 . S
C982 C988 1.368 . S
C983 C967 1.349 . S
C983 H975 0.950 . S
C983 C981 1.327 . S
C984 C972 1.349 . S
C984 H978 0.950 . S
C984 C985 1.327 . S
C985 H979 0.950 . S
C985 C984 1.327 . S
C985 C989 1.429 . S
C986 C969 1.574 1_455 S
C986 H980 0.949 . S
C986 C990 1.368 . S
C987 C968 1.429 . S
C987 C981 1.429 . S
C987 C988 1.523 . S
C988 C969 1.368 . S
C988 C982 1.368 . S
C988 C987 1.523 . S
C989 C973 1.429 . S
C989 C985 1.429 . S
C989 C990 1.523 . S
C990 C974 1.368 . S
C990 C986 1.368 . S
C990 C989 1.523 . S
H991 C966 0.950 . S
H992 C968 0.950 . S
H993 C969 0.949 . S
H994 C971 0.950 . S
H995 C973 0.950 . S
C996 C997 1.349 1_556 S
C996 C998 1.327 . S
C996 H1021 0.950 . S
C997 C996 1.349 1_554 S
C997 C1013 1.349 . S
C998 C996 1.327 . S
C998 C1017 1.429 1_556 S
C998 H1022 0.950 . S
C999 C1016 1.574 1_545 S
C999 C1018 1.368 . S
C999 H1023 0.949 . S
H1000 C1004 0.949 . S
C1001 C1002 1.349 1_554 S
C1001 C1003 1.327 . S
C1001 H1024 0.950 . S
C1002 C1001 1.349 1_556 S
C1002 C1014 1.349 . S
C1003 C1001 1.327 . S
C1003 C1019 1.429 1_554 S
C1003 H1025 0.950 . S
C1004 H1000 0.949 . S
C1004 C1012 1.574 1_565 S
C1004 C1020 1.368 . S
H1005 C1013 0.950 . S
H1006 C1011 0.950 . S
H1007 C1012 0.949 . S
H1008 C1014 0.950 . S
H1009 C1015 0.950 . S
H1010 C1016 0.949 . S
C1011 H1006 0.950 . S
C1011 C1013 1.327 . S
C1011 C1017 1.429 . S
C1012 C1004 1.574 1_545 S
C1012 H1007 0.949 . S
C1012 C1018 1.368 1_556 S
C1013 C997 1.349 . S
C1013 H1005 0.950 . S
C1013 C1011 1.327 . S
C1014 C1002 1.349 . S
C1014 H1008 0.950 . S
C1014 C1015 1.327 . S
C1015 H1009 0.950 . S
C1015 C1014 1.327 . S
C1015 C1019 1.429 . S
C1016 C999 1.574 1_565 S
C1016 H1010 0.949 . S
C1016 C1020 1.368 1_554 S
C1017 C998 1.429 1_554 S
C1017 C1011 1.429 . S
C1017 C1018 1.523 . S
C1018 C999 1.368 . S
C1018 C1012 1.368 1_554 S
C1018 C1017 1.523 . S
C1019 C1003 1.429 1_556 S
C1019 C1015 1.429 . S
C1019 C1020 1.523 . S
C1020 C1004 1.368 . S
C1020 C1016 1.368 1_556 S
C1020 C1019 1.523 . S
H1021 C996 0.950 . S
H1022 C998 0.950 . S
H1023 C999 0.949 . S
H1024 C1001 0.950 . S
H1025 C1003 0.950 . S
C1026 C1027 1.349 . S
C1026 C1028 1.327 . S
C1026 H1051 0.950 . S
C1027 C1026 1.349 . S
C1027 C1043 1.349 . S
C1028 C1026 1.327 . S
C1028 C1047 1.429 . S
C1028 H1052 0.950 . S
C1029 C1046 1.574 . S
C1029 C1048 1.368 . S
C1029 H1053 0.949 . S
H1030 C1034 0.949 . S
C1031 C1032 1.349 . S
C1031 C1033 1.327 . S
C1031 H1054 0.950 . S
C1032 C1031 1.349 . S
C1032 C1044 1.349 . S
C1033 C1031 1.327 . S
C1033 C1049 1.429 . S
C1033 H1055 0.950 . S
C1034 H1030 0.949 . S
C1034 C1042 1.574 . S
C1034 C1050 1.368 . S
H1035 C1043 0.950 . S
H1036 C1041 0.950 . S
H1037 C1042 0.949 . S
H1038 C1044 0.950 . S
H1039 C1045 0.950 . S
H1040 C1046 0.949 . S
C1041 H1036 0.950 . S
C1041 C1043 1.327 . S
C1041 C1047 1.429 . S
C1042 C1034 1.574 . S
C1042 H1037 0.949 . S
C1042 C1048 1.368 . S
C1043 C1027 1.349 . S
C1043 H1035 0.950 . S
C1043 C1041 1.327 . S
C1044 C1032 1.349 . S
C1044 H1038 0.950 . S
C1044 C1045 1.327 . S
C1045 H1039 0.950 . S
C1045 C1044 1.327 . S
C1045 C1049 1.429 . S
C1046 C1029 1.574 . S
C1046 H1040 0.949 . S
C1046 C1050 1.368 . S
C1047 C1028 1.429 . S
C1047 C1041 1.429 . S
C1047 C1048 1.523 . S
C1048 C1029 1.368 . S
C1048 C1042 1.368 . S
C1048 C1047 1.523 . S
C1049 C1033 1.429 . S
C1049 C1045 1.429 . S
C1049 C1050 1.523 . S
C1050 C1034 1.368 . S
C1050 C1046 1.368 . S
C1050 C1049 1.523 . S
H1051 C1026 0.950 . S
H1052 C1028 0.950 . S
H1053 C1029 0.949 . S
H1054 C1031 0.950 . S
H1055 C1033 0.950 . S
C1056 C1057 1.349 . S
C1056 C1058 1.327 . S
C1056 H1081 0.950 . S
C1057 C1056 1.349 . S
C1057 C1073 1.349 . S
C1058 C1056 1.327 . S
C1058 C1077 1.429 . S
C1058 H1082 0.950 . S
C1059 C1076 1.574 1_455 S
C1059 C1078 1.368 . S
C1059 H1083 0.949 . S
H1060 C1064 0.949 . S
C1061 C1062 1.349 . S
C1061 C1063 1.327 . S
C1061 H1084 0.950 . S
C1062 C1061 1.349 . S
C1062 C1074 1.349 . S
C1063 C1061 1.327 . S
C1063 C1079 1.429 . S
C1063 H1085 0.950 . S
C1064 H1060 0.949 . S
C1064 C1072 1.574 1_655 S
C1064 C1080 1.368 . S
H1065 C1073 0.950 . S
H1066 C1071 0.950 . S
H1067 C1072 0.949 . S
H1068 C1074 0.950 . S
H1069 C1075 0.950 . S
H1070 C1076 0.949 . S
C1071 H1066 0.950 . S
C1071 C1073 1.327 . S
C1071 C1077 1.429 . S
C1072 C1064 1.574 1_455 S
C1072 H1067 0.949 . S
C1072 C1078 1.368 . S
C1073 C1057 1.349 . S
C1073 H1065 0.950 . S
C1073 C1071 1.327 . S
C1074 C1062 1.349 . S
C1074 H1068 0.950 . S
C1074 C1075 1.327 . S
C1075 H1069 0.950 . S
C1075 C1074 1.327 . S
C1075 C1079 1.429 . S
C1076 C1059 1.574 1_655 S
C1076 H1070 0.949 . S
C1076 C1080 1.368 . S
C1077 C1058 1.429 . S
C1077 C1071 1.429 . S
C1077 C1078 1.523 . S
C1078 C1059 1.368 . S
C1078 C1072 1.368 . S
C1078 C1077 1.523 . S
C1079 C1063 1.429 . S
C1079 C1075 1.429 . S
C1079 C1080 1.523 . S
C1080 C1064 1.368 . S
C1080 C1076 1.368 . S
C1080 C1079 1.523 . S
H1081 C1056 0.950 . S
H1082 C1058 0.950 . S
H1083 C1059 0.949 . S
H1084 C1061 0.950 . S
H1085 C1063 0.950 . S
C1086 C1087 1.349 . S
C1086 C1088 1.327 . S
C1086 H1111 0.950 . S
C1087 C1086 1.349 . S
C1087 C1103 1.349 1_556 S
C1088 C1086 1.327 . S
C1088 C1107 1.429 . S
C1088 H1112 0.950 . S
C1089 C1106 1.574 1_545 S
C1089 C1108 1.368 1_554 S
C1089 H1113 0.949 . S
H1090 C1094 0.949 . S
C1091 C1092 1.349 . S
C1091 C1093 1.327 . S
C1091 H1114 0.950 . S
C1092 C1091 1.349 . S
C1092 C1104 1.349 1_554 S
C1093 C1091 1.327 . S
C1093 C1109 1.429 . S
C1093 H1115 0.950 . S
C1094 H1090 0.949 . S
C1094 C1102 1.574 1_565 S
C1094 C1110 1.368 1_556 S
H1095 C1103 0.950 . S
H1096 C1101 0.950 . S
H1097 C1102 0.949 . S
H1098 C1104 0.950 . S
H1099 C1105 0.950 . S
H1100 C1106 0.949 . S
C1101 H1096 0.950 . S
C1101 C1103 1.327 . S
C1101 C1107 1.429 1_554 S
C1102 C1094 1.574 1_545 S
C1102 H1097 0.949 . S
C1102 C1108 1.368 . S
C1103 C1087 1.349 1_554 S
C1103 H1095 0.950 . S
C1103 C1101 1.327 . S
C1104 C1092 1.349 1_556 S
C1104 H1098 0.950 . S
C1104 C1105 1.327 . S
C1105 H1099 0.950 . S
C1105 C1104 1.327 . S
C1105 C1109 1.429 1_556 S
C1106 C1089 1.574 1_565 S
C1106 H1100 0.949 . S
C1106 C1110 1.368 . S
C1107 C1088 1.429 . S
C1107 C1101 1.429 1_556 S
C1107 C1108 1.523 . S
C1108 C1089 1.368 1_556 S
C1108 C1102 1.368 . S
C1108 C1107 1.523 . S
C1109 C1093 1.429 . S
C1109 C1105 1.429 1_554 S
C1109 C1110 1.523 . S
C1110 C1094 1.368 1_554 S
C1110 C1106 1.368 . S
C1110 C1109 1.523 . S
H1111 C1086 0.950 . S
H1112 C1088 0.950 . S
H1113 C1089 0.949 . S
H1114 C1091 0.950 . S
H1115 C1093 0.950 . S
C1116 C1117 1.349 . S
C1116 C1118 1.327 . S
C1116 H1141 0.950 . S
C1117 C1116 1.349 . S
C1117 C1133 1.349 . S
C1118 C1116 1.327 . S
C1118 C1137 1.429 . S
C1118 H1142 0.950 . S
C1119 C1136 1.574 . S
C1119 C1138 1.368 . S
C1119 H1143 0.949 . S
H1120 C1124 0.949 . S
C1121 C1122 1.349 . S
C1121 C1123 1.327 . S
C1121 H1144 0.950 . S
C1122 C1121 1.349 . S
C1122 C1134 1.349 . S
C1123 C1121 1.327 . S
C1123 C1139 1.429 . S
C1123 H1145 0.950 . S
C1124 H1120 0.949 . S
C1124 C1132 1.574 . S
C1124 C1140 1.368 . S
H1125 C1133 0.950 . S
H1126 C1131 0.950 . S
H1127 C1132 0.949 . S
H1128 C1134 0.950 . S
H1129 C1135 0.950 . S
H1130 C1136 0.949 . S
C1131 H1126 0.950 . S
C1131 C1133 1.327 . S
C1131 C1137 1.429 . S
C1132 C1124 1.574 . S
C1132 H1127 0.949 . S
C1132 C1138 1.368 . S
C1133 C1117 1.349 . S
C1133 H1125 0.950 . S
C1133 C1131 1.327 . S
C1134 C1122 1.349 . S
C1134 H1128 0.950 . S
C1134 C1135 1.327 . S
C1135 H1129 0.950 . S
C1135 C1134 1.327 . S
C1135 C1139 1.429 . S
C1136 C1119 1.574 . S
C1136 H1130 0.949 . S
C1136 C1140 1.368 . S
C1137 C1118 1.429 . S
C1137 C1131 1.429 . S
C1137 C1138 1.523 . S
C1138 C1119 1.368 . S
C1138 C1132 1.368 . S
C1138 C1137 1.523 . S
C1139 C1123 1.429 . S
C1139 C1135 1.429 . S
C1139 C1140 1.523 . S
C1140 C1124 1.368 . S
C1140 C1136 1.368 . S
C1140 C1139 1.523 . S
H1141 C1116 0.950 . S
H1142 C1118 0.950 . S
H1143 C1119 0.949 . S
H1144 C1121 0.950 . S
H1145 C1123 0.950 . S
C1146 C1147 1.349 . S
C1146 C1148 1.327 . S
C1146 H1171 0.950 . S
C1147 C1146 1.349 . S
C1147 C1163 1.349 . S
C1148 C1146 1.327 . S
C1148 C1167 1.429 . S
C1148 H1172 0.950 . S
C1149 C1166 1.574 . S
C1149 C1168 1.368 . S
C1149 H1173 0.949 . S
H1150 C1154 0.949 . S
C1151 C1152 1.349 . S
C1151 C1153 1.327 . S
C1151 H1174 0.950 . S
C1152 C1151 1.349 . S
C1152 C1164 1.349 . S
C1153 C1151 1.327 . S
C1153 C1169 1.429 . S
C1153 H1175 0.950 . S
C1154 H1150 0.949 . S
C1154 C1162 1.574 . S
C1154 C1170 1.368 . S
H1155 C1163 0.950 . S
H1156 C1161 0.950 . S
H1157 C1162 0.949 . S
H1158 C1164 0.950 . S
H1159 C1165 0.950 . S
H1160 C1166 0.949 . S
C1161 H1156 0.950 . S
C1161 C1163 1.327 . S
C1161 C1167 1.429 . S
C1162 C1154 1.574 . S
C1162 H1157 0.949 . S
C1162 C1168 1.368 . S
C1163 C1147 1.349 . S
C1163 H1155 0.950 . S
C1163 C1161 1.327 . S
C1164 C1152 1.349 . S
C1164 H1158 0.950 . S
C1164 C1165 1.327 . S
C1165 H1159 0.950 . S
C1165 C1164 1.327 . S
C1165 C1169 1.429 . S
C1166 C1149 1.574 . S
C1166 H1160 0.949 . S
C1166 C1170 1.368 . S
C1167 C1148 1.429 . S
C1167 C1161 1.429 . S
C1167 C1168 1.523 . S
C1168 C1149 1.368 . S
C1168 C1162 1.368 . S
C1168 C1167 1.523 . S
C1169 C1153 1.429 . S
C1169 C1165 1.429 . S
C1169 C1170 1.523 . S
C1170 C1154 1.368 . S
C1170 C1166 1.368 . S
C1170 C1169 1.523 . S
H1171 C1146 0.950 . S
H1172 C1148 0.950 . S
H1173 C1149 0.949 . S
H1174 C1151 0.950 . S
H1175 C1153 0.950 . S
C1176 C1177 1.349 . S
C1176 C1178 1.327 . S
C1176 H1201 0.950 . S
C1177 C1176 1.349 . S
C1177 C1193 1.357 . S
C1178 C1176 1.327 . S
C1178 C1197 1.429 . S
C1178 H1202 0.950 . S
C1179 C1196 1.574 . S
C1179 C1198 1.368 1_554 S
C1179 H1203 0.949 . S
H1180 C1184 0.949 . S
C1181 C1182 1.349 . S
C1181 C1183 1.327 . S
C1181 H1204 0.950 . S
C1182 C1181 1.349 . S
C1182 C1194 1.352 . S
C1183 C1181 1.327 . S
C1183 C1199 1.429 . S
C1183 H1205 0.950 . S
C1184 H1180 0.949 . S
C1184 C1192 1.574 . S
C1184 C1200 1.368 1_556 S
H1185 C1193 0.944 1_554 S
H1186 C1191 0.950 . S
H1187 C1192 0.949 . S
H1188 C1194 0.948 1_556 S
H1189 C1195 0.950 . S
H1190 C1196 0.949 . S
C1191 H1186 0.950 . S
C1191 C1193 1.325 1_554 S
C1191 C1197 1.429 1_554 S
C1192 C1184 1.574 . S
C1192 H1187 0.949 . S
C1192 C1198 1.368 . S
C1193 C1177 1.357 . S
C1193 H1185 0.944 1_556 S
C1193 C1191 1.325 1_556 S
C1194 C1182 1.352 . S
C1194 H1188 0.948 1_554 S
C1194 C1195 1.326 1_554 S
C1195 H1189 0.950 . S
C1195 C1194 1.326 1_556 S
C1195 C1199 1.429 1_556 S
C1196 C1179 1.574 . S
C1196 H1190 0.949 . S
C1196 C1200 1.368 . S
C1197 C1178 1.429 . S
C1197 C1191 1.429 1_556 S
C1197 C1198 1.523 . S
C1198 C1179 1.368 1_556 S
C1198 C1192 1.368 . S
C1198 C1197 1.523 . S
C1199 C1183 1.429 . S
C1199 C1195 1.429 1_554 S
C1199 C1200 1.523 . S
C1200 C1184 1.368 1_554 S
C1200 C1196 1.368 . S
C1200 C1199 1.523 . S
H1201 C1176 0.950 . S
H1202 C1178 0.950 . S
H1203 C1179 0.949 . S
H1204 C1181 0.950 . S
H1205 C1183 0.950 . S
C1206 C1207 1.349 . S
C1206 C1208 1.327 . S
C1206 H1231 0.950 . S
C1207 C1206 1.349 . S
C1207 C1223 1.349 . S
C1208 C1206 1.327 . S
C1208 C1227 1.429 . S
C1208 H1232 0.950 . S
C1209 C1226 1.574 . S
C1209 C1228 1.368 . S
C1209 H1233 0.949 . S
H1210 C1214 0.949 . S
C1211 C1212 1.349 . S
C1211 C1213 1.327 . S
C1211 H1234 0.950 . S
C1212 C1211 1.349 . S
C1212 C1224 1.349 . S
C1213 C1211 1.327 . S
C1213 C1229 1.429 . S
C1213 H1235 0.950 . S
C1214 H1210 0.949 . S
C1214 C1222 1.574 . S
C1214 C1230 1.368 . S
H1215 C1223 0.950 . S
H1216 C1221 0.950 . S
H1217 C1222 0.949 . S
H1218 C1224 0.950 . S
H1219 C1225 0.950 . S
H1220 C1226 0.949 . S
C1221 H1216 0.950 . S
C1221 C1223 1.327 . S
C1221 C1227 1.429 . S
C1222 C1214 1.574 . S
C1222 H1217 0.949 . S
C1222 C1228 1.368 . S
C1223 C1207 1.349 . S
C1223 H1215 0.950 . S
C1223 C1221 1.327 . S
C1224 C1212 1.349 . S
C1224 H1218 0.950 . S
C1224 C1225 1.327 . S
C1225 H1219 0.950 . S
C1225 C1224 1.327 . S
C1225 C1229 1.429 . S
C1226 C1209 1.574 . S
C1226 H1220 0.949 . S
C1226 C1230 1.368 . S
C1227 C1208 1.429 . S
C1227 C1221 1.429 . S
C1227 C1228 1.523 . S
C1228 C1209 1.368 . S
C1228 C1222 1.368 . S
C1228 C1227 1.523 . S
C1229 C1213 1.429 . S
C1229 C1225 1.429 . S
C1229 C1230 1.523 . S
C1230 C1214 1.368 . S
C1230 C1226 1.368 . S
C1230 C1229 1.523 . S
H1231 C1206 0.950 . S
H1232 C1208 0.950 . S
H1233 C1209 0.949 . S
H1234 C1211 0.950 . S
H1235 C1213 0.950 . S
C1236 C1237 1.349 . S
C1236 C1238 1.327 . S
C1236 H1261 0.950 . S
C1237 C1236 1.349 . S
C1237 C1253 1.349 . S
C1238 C1236 1.327 . S
C1238 C1257 1.429 . S
C1238 H1262 0.950 . S
C1239 C1256 1.574 . S
C1239 C1258 1.368 . S
C1239 H1263 0.949 . S
H1240 C1244 0.949 . S
C1241 C1242 1.349 . S
C1241 C1243 1.327 . S
C1241 H1264 0.950 . S
C1242 C1241 1.349 . S
C1242 C1254 1.349 . S
C1243 C1241 1.327 . S
C1243 C1259 1.429 . S
C1243 H1265 0.950 . S
C1244 H1240 0.949 . S
C1244 C1252 1.574 . S
C1244 C1260 1.368 . S
H1245 C1253 0.950 . S
H1246 C1251 0.950 . S
H1247 C1252 0.949 . S
H1248 C1254 0.950 . S
H1249 C1255 0.950 . S
H1250 C1256 0.949 . S
C1251 H1246 0.950 . S
C1251 C1253 1.327 . S
C1251 C1257 1.429 . S
C1252 C1244 1.574 . S
C1252 H1247 0.949 . S
C1252 C1258 1.368 . S
C1253 C1237 1.349 . S
C1253 H1245 0.950 . S
C1253 C1251 1.327 . S
C1254 C1242 1.349 . S
C1254 H1248 0.950 . S
C1254 C1255 1.327 . S
C1255 H1249 0.950 . S
C1255 C1254 1.327 . S
C1255 C1259 1.429 . S
C1256 C1239 1.574 . S
C1256 H1250 0.949 . S
C1256 C1260 1.368 . S
C1257 C1238 1.429 . S
C1257 C1251 1.429 . S
C1257 C1258 1.523 . S
C1258 C1239 1.368 . S
C1258 C1252 1.368 . S
C1258 C1257 1.523 . S
C1259 C1243 1.429 . S
C1259 C1255 1.429 . S
C1259 C1260 1.523 . S
C1260 C1244 1.368 . S
C1260 C1256 1.368 . S
C1260 C1259 1.523 . S
H1261 C1236 0.950 . S
H1262 C1238 0.950 . S
H1263 C1239 0.949 . S
H1264 C1241 0.950 . S
H1265 C1243 0.950 . S
C1266 C1267 1.356 . S
C1266 C1268 1.325 1_556 S
C1266 H1291 0.944 1_556 S
C1267 C1266 1.356 . S
C1267 C1283 1.349 . S
C1268 C1266 1.325 1_554 S
C1268 C1287 1.429 1_554 S
C1268 H1292 0.950 . S
C1269 C1286 1.574 . S
C1269 C1288 1.368 . S
C1269 H1293 0.949 . S
H1270 C1274 0.949 . S
C1271 C1272 1.351 . S
C1271 C1273 1.327 1_554 S
C1271 H1294 0.948 1_554 S
C1272 C1271 1.351 . S
C1272 C1284 1.349 . S
C1273 C1271 1.327 1_556 S
C1273 C1289 1.429 1_556 S
C1273 H1295 0.950 . S
C1274 H1270 0.949 . S
C1274 C1282 1.574 . S
C1274 C1290 1.368 . S
H1275 C1283 0.950 . S
H1276 C1281 0.950 . S
H1277 C1282 0.949 . S
H1278 C1284 0.950 . S
H1279 C1285 0.950 . S
H1280 C1286 0.949 . S
C1281 H1276 0.950 . S
C1281 C1283 1.327 . S
C1281 C1287 1.429 . S
C1282 C1274 1.574 . S
C1282 H1277 0.949 . S
C1282 C1288 1.368 1_554 S
C1283 C1267 1.349 . S
C1283 H1275 0.950 . S
C1283 C1281 1.327 . S
C1284 C1272 1.349 . S
C1284 H1278 0.950 . S
C1284 C1285 1.327 . S
C1285 H1279 0.950 . S
C1285 C1284 1.327 . S
C1285 C1289 1.429 . S
C1286 C1269 1.574 . S
C1286 H1280 0.949 . S
C1286 C1290 1.368 1_556 S
C1287 C1268 1.429 1_556 S
C1287 C1281 1.429 . S
C1287 C1288 1.523 . S
C1288 C1269 1.368 . S
C1288 C1282 1.368 1_556 S
C1288 C1287 1.523 . S
C1289 C1273 1.429 1_554 S
C1289 C1285 1.429 . S
C1289 C1290 1.523 . S
C1290 C1274 1.368 . S
C1290 C1286 1.368 1_554 S
C1290 C1289 1.523 . S
H1291 C1266 0.944 1_554 S
H1292 C1268 0.950 . S
H1293 C1269 0.949 . S
H1294 C1271 0.948 1_556 S
H1295 C1273 0.950 . S
C397 C381 1.944 . S
C402 C18 1.940 . S
C427 C216 2.037 . S
C432 C51 2.037 . S
C457 C84 1.944 . S
C462 C249 1.940 . S
C487 C282 1.944 . S
C492 C117 1.940 . S
C517 C315 2.037 . S
C522 C150 2.037 . S
C547 C348 1.944 . S
C552 C183 1.940 . S
C577 C7 0.486 . S
C582 C337 0.486 . S
C607 C40 0.457 . S
C612 C370 0.462 . S
C637 C205 0.457 . S
C642 C73 0.462 . S
C667 C238 0.486 . S
C672 C106 0.486 . S
C697 C271 0.460 . S
C702 C139 0.459 . S
C727 C172 0.460 . S
C732 C304 0.459 . S
C757 N112 1.254 . S
C762 N13 1.254 . S
C787 N46 1.262 . S
C792 N145 1.262 . S
C817 N178 1.264 . S
C822 N79 1.264 . S
C847 N211 1.263 . S
C852 N310 1.263 . S
C877 N244 1.254 . S
C882 N343 1.254 . S
C907 N376 1.264 . S
C912 N277 1.264 . S
C937 N2 0.826 . S
C942 N299 0.826 . S
C967 N35 0.825 . S
C972 N332 0.826 . S
C997 N365 0.805 . S
C1002 N68 0.808 . S
C1027 N101 0.826 . S
C1032 N200 0.826 . S
C1057 N134 0.825 . S
C1062 N233 0.826 . S
C1087 N167 0.805 . S
C1092 N266 0.808 . S
C1117 C219 1.669 . S
C1122 C21 1.669 . S
C1147 C252 1.669 . S
C1152 C54 1.669 . S
C1177 C87 1.652 . S
C1182 C285 1.652 . S
C1207 C318 1.669 . S
C1212 C120 1.669 . S
C1237 C153 1.669 . S
C1242 C351 1.669 . S
C1267 C186 1.652 . S
C1272 C384 1.652 . S
