# Generated by pormake.
# Topology sth, (5)-cn, num edge types: 1
# Building blocks:
#     Node 0, Type 0, BuildingBlock: XOMCOT_clean_sbu_1, # of connection points: 5
#     Node 1, Type 0, BuildingBlock: XOMCOT_clean_sbu_1, # of connection points: 5
#     Node 2, Type 0, BuildingBlock: XOMCOT_clean_sbu_1, # of connection points: 5
#     Node 3, Type 0, BuildingBlock: XOMCOT_clean_sbu_1, # of connection points: 5
#     Node 4, Type 0, BuildingBlock: XOMCOT_clean_sbu_1, # of connection points: 5
#     Node 5, Type 0, BuildingBlock: XOMCOT_clean_sbu_1, # of connection points: 5
#     Node 6, Type 0, BuildingBlock: XOMCOT_clean_sbu_1, # of connection points: 5
#     Node 7, Type 0, BuildingBlock: XOMCOT_clean_sbu_1, # of connection points: 5
#     Node 8, Type 0, BuildingBlock: XOMCOT_clean_sbu_1, # of connection points: 5
#     Node 9, Type 0, BuildingBlock: XOMCOT_clean_sbu_1, # of connection points: 5
#     Node 10, Type 0, BuildingBlock: XOMCOT_clean_sbu_1, # of connection points: 5
#     Node 11, Type 0, BuildingBlock: XOMCOT_clean_sbu_1, # of connection points: 5
#     Node 12, Type 0, BuildingBlock: XOMCOT_clean_sbu_1, # of connection points: 5
#     Node 13, Type 0, BuildingBlock: XOMCOT_clean_sbu_1, # of connection points: 5
#     Node 14, Type 0, BuildingBlock: XOMCOT_clean_sbu_1, # of connection points: 5
#     Node 15, Type 0, BuildingBlock: XOMCOT_clean_sbu_1, # of connection points: 5
#     Node 16, Type 0, BuildingBlock: XOMCOT_clean_sbu_1, # of connection points: 5
#     Node 17, Type 0, BuildingBlock: XOMCOT_clean_sbu_1, # of connection points: 5
#     Edge 18, Type (0, 0), BuildingBlock: UVAHIK_clean_linker_0, # of connection points: 2
#     Edge 19, Type (0, 0), BuildingBlock: UVAHIK_clean_linker_0, # of connection points: 2
#     Edge 20, Type (0, 0), BuildingBlock: UVAHIK_clean_linker_0, # of connection points: 2
#     Edge 21, Type (0, 0), BuildingBlock: UVAHIK_clean_linker_0, # of connection points: 2
#     Edge 22, Type (0, 0), BuildingBlock: UVAHIK_clean_linker_0, # of connection points: 2
#     Edge 23, Type (0, 0), BuildingBlock: UVAHIK_clean_linker_0, # of connection points: 2
#     Edge 24, Type (0, 0), BuildingBlock: UVAHIK_clean_linker_0, # of connection points: 2
#     Edge 25, Type (0, 0), BuildingBlock: UVAHIK_clean_linker_0, # of connection points: 2
#     Edge 26, Type (0, 0), BuildingBlock: UVAHIK_clean_linker_0, # of connection points: 2
#     Edge 27, Type (0, 0), BuildingBlock: UVAHIK_clean_linker_0, # of connection points: 2
#     Edge 28, Type (0, 0), BuildingBlock: UVAHIK_clean_linker_0, # of connection points: 2
#     Edge 29, Type (0, 0), BuildingBlock: UVAHIK_clean_linker_0, # of connection points: 2
#     Edge 30, Type (0, 0), BuildingBlock: UVAHIK_clean_linker_0, # of connection points: 2
#     Edge 31, Type (0, 0), BuildingBlock: UVAHIK_clean_linker_0, # of connection points: 2
#     Edge 32, Type (0, 0), BuildingBlock: UVAHIK_clean_linker_0, # of connection points: 2
#     Edge 33, Type (0, 0), BuildingBlock: UVAHIK_clean_linker_0, # of connection points: 2
#     Edge 34, Type (0, 0), BuildingBlock: UVAHIK_clean_linker_0, # of connection points: 2
#     Edge 35, Type (0, 0), BuildingBlock: UVAHIK_clean_linker_0, # of connection points: 2
#     Edge 36, Type (0, 0), BuildingBlock: UVAHIK_clean_linker_0, # of connection points: 2
#     Edge 37, Type (0, 0), BuildingBlock: UVAHIK_clean_linker_0, # of connection points: 2
#     Edge 38, Type (0, 0), BuildingBlock: UVAHIK_clean_linker_0, # of connection points: 2
#     Edge 39, Type (0, 0), BuildingBlock: UVAHIK_clean_linker_0, # of connection points: 2
#     Edge 40, Type (0, 0), BuildingBlock: UVAHIK_clean_linker_0, # of connection points: 2
#     Edge 41, Type (0, 0), BuildingBlock: UVAHIK_clean_linker_0, # of connection points: 2
#     Edge 42, Type (0, 0), BuildingBlock: UVAHIK_clean_linker_0, # of connection points: 2
#     Edge 43, Type (0, 0), BuildingBlock: UVAHIK_clean_linker_0, # of connection points: 2
#     Edge 44, Type (0, 0), BuildingBlock: UVAHIK_clean_linker_0, # of connection points: 2
#     Edge 45, Type (0, 0), BuildingBlock: UVAHIK_clean_linker_0, # of connection points: 2
#     Edge 46, Type (0, 0), BuildingBlock: UVAHIK_clean_linker_0, # of connection points: 2
#     Edge 47, Type (0, 0), BuildingBlock: UVAHIK_clean_linker_0, # of connection points: 2
#     Edge 48, Type (0, 0), BuildingBlock: UVAHIK_clean_linker_0, # of connection points: 2
#     Edge 49, Type (0, 0), BuildingBlock: UVAHIK_clean_linker_0, # of connection points: 2
#     Edge 50, Type (0, 0), BuildingBlock: UVAHIK_clean_linker_0, # of connection points: 2
#     Edge 51, Type (0, 0), BuildingBlock: UVAHIK_clean_linker_0, # of connection points: 2
#     Edge 52, Type (0, 0), BuildingBlock: UVAHIK_clean_linker_0, # of connection points: 2
#     Edge 53, Type (0, 0), BuildingBlock: UVAHIK_clean_linker_0, # of connection points: 2
#     Edge 54, Type (0, 0), BuildingBlock: UVAHIK_clean_linker_0, # of connection points: 2
#     Edge 55, Type (0, 0), BuildingBlock: UVAHIK_clean_linker_0, # of connection points: 2
#     Edge 56, Type (0, 0), BuildingBlock: UVAHIK_clean_linker_0, # of connection points: 2
#     Edge 57, Type (0, 0), BuildingBlock: UVAHIK_clean_linker_0, # of connection points: 2
#     Edge 58, Type (0, 0), BuildingBlock: UVAHIK_clean_linker_0, # of connection points: 2
#     Edge 59, Type (0, 0), BuildingBlock: UVAHIK_clean_linker_0, # of connection points: 2
#     Edge 60, Type (0, 0), BuildingBlock: UVAHIK_clean_linker_0, # of connection points: 2
#     Edge 61, Type (0, 0), BuildingBlock: UVAHIK_clean_linker_0, # of connection points: 2
#     Edge 62, Type (0, 0), BuildingBlock: UVAHIK_clean_linker_0, # of connection points: 2
# Relax obj value: 0.158
# Max RMSD: 0.184
# Mean RMSD: 0.184
data_MOF--net-sth--node1-XOMCOT_clean_sbu_1--edge1-UVAHIK_clean_linker_0
_symmetry_space_group_name_H-M    P1
_symmetry_Int_Tables_number       1
_symmetry_cell_setting            triclinic
loop_
_symmetry_equiv_pos_as_xyz
'x, y, z'
_cell_length_a     52.172899
_cell_length_b     52.177187
_cell_length_c     95.967052
_cell_angle_alpha  90.026243
_cell_angle_beta   89.979882
_cell_angle_gamma 119.98534
loop_
_atom_site_label
_atom_site_type_symbol
_atom_site_fract_x
_atom_site_fract_y
_atom_site_fract_z
_atom_type_partial_charge
C0 C 0.18664 0.30072 0.22919 0.0
C1 C 0.21394 0.31986 0.22373 0.0
N2 N 0.21106 0.32177 0.20989 0.0
N3 N 0.16616 0.29078 0.21894 0.0
C4 C 0.18185 0.30385 0.20723 0.0
H5 H 0.1824 0.29361 0.23992 0.0
Co6 Co 0.12608 0.26107 0.22106 0.0
C7 C 0.09189 0.28994 0.213 0.0
O8 O 0.07599 0.2784 0.22426 0.0
N9 N 0.08536 0.23006 0.22306 0.0
C10 C 0.03927 0.20001 0.23069 0.0
C11 C 0.06629 0.22392 0.23384 0.0
C12 C 0.06879 0.20893 0.21349 0.0
N13 N 0.04086 0.19053 0.2179 0.0
O14 O 0.12921 0.24203 0.20454 0.0
H15 H 0.07071 0.23652 0.24332 0.0
H16 H 0.0766 0.2073 0.20329 0.0
O17 O 0.11325 0.28521 0.21024 0.0
C18 C 0.14228 0.22797 0.20823 0.0
O19 O 0.15125 0.23025 0.22119 0.0
N20 N 0.12529 0.27807 0.23828 0.0
C21 C 0.13163 0.2985 0.26574 0.0
C22 C 0.13309 0.31648 0.25448 0.0
C23 C 0.13037 0.30603 0.24077 0.0
C24 C 0.1253 0.26103 0.24903 0.0
C25 C 0.12753 0.27036 0.26278 0.0
H26 H 0.13352 0.32079 0.23222 0.0
H27 H 0.12327 0.23974 0.24686 0.0
H28 H 0.1722 0.29957 0.19691 0.0
H29 H 0.23463 0.33028 0.22941 0.0
H30 H 0.01989 0.19029 0.23732 0.0
H31 H 0.13734 0.33878 0.2562 0.0
H32 H 0.12611 0.2555 0.271 0.0
C33 C 0.70835 0.87526 0.22919 0.0
C34 C 0.68843 0.8823 0.22366 0.0
N35 N 0.69389 0.88735 0.20996 0.0
N36 N 0.7264 0.87532 0.21904 0.0
C37 C 0.71694 0.88293 0.20739 0.0
H38 H 0.70993 0.87154 0.24012 0.0
Co39 Co 0.76003 0.87032 0.22136 0.0
C40 C 0.74354 0.81162 0.20927 0.0
O41 O 0.76036 0.80893 0.21863 0.0
N42 N 0.79454 0.86634 0.22355 0.0
C43 C 0.82972 0.85769 0.23159 0.0
C44 C 0.8047 0.85871 0.23492 0.0
C45 C 0.81448 0.87013 0.21346 0.0
N46 N 0.8359 0.86491 0.21811 0.0
O47 O 0.77917 0.89613 0.20584 0.0
H48 H 0.79449 0.85298 0.24504 0.0
H49 H 0.81278 0.87545 0.20274 0.0
O50 O 0.74097 0.83482 0.20917 0.0
C51 C 0.78947 0.92284 0.2098 0.0
O52 O 0.78285 0.92768 0.22238 0.0
N53 N 0.74286 0.84814 0.23767 0.0
C54 C 0.7213 0.82596 0.26418 0.0
C55 C 0.70786 0.80871 0.2523 0.0
C56 C 0.71899 0.82028 0.23903 0.0
C57 C 0.75487 0.8656 0.24913 0.0
C58 C 0.74498 0.85472 0.26248 0.0
H59 H 0.7077 0.80728 0.22997 0.0
H60 H 0.77265 0.88817 0.24783 0.0
H61 H 0.72721 0.88592 0.19727 0.0
H62 H 0.67215 0.88503 0.22946 0.0
H63 H 0.84237 0.8519 0.23854 0.0
H64 H 0.68887 0.78669 0.25327 0.0
H65 H 0.7553 0.86895 0.2714 0.0
C66 C 0.12633 0.83428 0.22814 0.0
C67 C 0.11664 0.80618 0.22328 0.0
N68 N 0.12254 0.8077 0.20955 0.0
N69 N 0.13888 0.85384 0.21762 0.0
C70 C 0.13593 0.8369 0.20634 0.0
H71 H 0.12347 0.83994 0.23863 0.0
Co72 Co 0.15251 0.89473 0.21924 0.0
C73 C 0.21503 0.92291 0.20996 0.0
O74 O 0.22232 0.93799 0.22162 0.0
N75 N 0.16566 0.93647 0.22079 0.0
C76 C 0.18778 0.98402 0.22728 0.0
C77 C 0.18367 0.95658 0.23037 0.0
C78 C 0.15897 0.95285 0.21206 0.0
N79 N 0.17216 0.98163 0.21579 0.0
O80 O 0.1288 0.89207 0.2033 0.0
H81 H 0.19436 0.95236 0.23897 0.0
H82 H 0.1453 0.9443 0.2029 0.0
O83 O 0.18773 0.9043 0.20738 0.0
C84 C 0.10248 0.88135 0.208 0.0
O85 O 0.09772 0.87435 0.22127 0.0
N86 N 0.17161 0.89511 0.23602 0.0
C87 C 0.18958 0.89093 0.26291 0.0
C88 C 0.20122 0.88386 0.25128 0.0
C89 C 0.19162 0.88572 0.23786 0.0
C90 C 0.1585 0.8997 0.2473 0.0
C91 C 0.16775 0.89864 0.26078 0.0
H92 H 0.19967 0.87896 0.22903 0.0
H93 H 0.14083 0.90457 0.24575 0.0
H94 H 0.14283 0.84574 0.19595 0.0
H95 H 0.10483 0.786 0.22928 0.0
H96 H 0.20113 1.00421 0.23309 0.0
H97 H 0.21741 0.87684 0.25257 0.0
H98 H 0.15733 0.90305 0.2695 0.0
C99 C 0.29361 0.18358 0.77935 0.0
C100 C 0.31193 0.21195 0.78382 0.0
N101 N 0.3217 0.21108 0.79673 0.0
N102 N 0.29166 0.16437 0.78924 0.0
C103 C 0.30888 0.18177 0.7998 0.0
H104 H 0.28147 0.17736 0.76964 0.0
Co105 Co 0.26529 0.12335 0.78758 0.0
C106 C 0.3014 0.09599 0.79511 0.0
O107 O 0.29306 0.08174 0.78324 0.0
N108 N 0.2373 0.08141 0.78591 0.0
C109 C 0.21182 0.03425 0.77883 0.0
C110 C 0.23486 0.06196 0.77588 0.0
C111 C 0.21472 0.06437 0.79477 0.0
N112 N 0.19908 0.0358 0.79069 0.0
O113 O 0.24541 0.12486 0.8042 0.0
H114 H 0.24919 0.0669 0.76697 0.0
H115 H 0.20989 0.07234 0.80422 0.0
O116 O 0.29253 0.11417 0.79841 0.0
C117 C 0.22818 0.13407 0.8 0.0
O118 O 0.22817 0.13994 0.78669 0.0
N119 N 0.2828 0.12424 0.77023 0.0
C120 C 0.3032 0.13192 0.74271 0.0
C121 C 0.32269 0.138 0.75397 0.0
C122 C 0.31215 0.13462 0.7677 0.0
C123 C 0.26405 0.11984 0.75944 0.0
C124 C 0.2735 0.1227 0.74567 0.0
H125 H 0.32767 0.14114 0.77624 0.0
H126 H 0.24138 0.11387 0.76159 0.0
H127 H 0.31127 0.17307 0.80964 0.0
H128 H 0.31645 0.2317 0.77817 0.0
H129 H 0.20471 0.0145 0.77263 0.0
H130 H 0.34604 0.14628 0.75223 0.0
H131 H 0.25752 0.11775 0.73744 0.0
C132 C 0.83976 0.13408 0.77936 0.0
C133 C 0.8128 0.12691 0.78495 0.0
N134 N 0.8146 0.12576 0.79888 0.0
N135 N 0.8591 0.13816 0.78969 0.0
C136 C 0.84284 0.13262 0.80152 0.0
H137 H 0.84429 0.13494 0.76835 0.0
Co138 Co 0.89831 0.14505 0.78737 0.0
C139 C 0.93775 0.20618 0.7971 0.0
O140 O 0.95483 0.20913 0.78646 0.0
N141 N 0.93773 0.15106 0.78522 0.0
C142 C 0.98253 0.16202 0.77748 0.0
C143 C 0.95622 0.16032 0.77406 0.0
C144 C 0.95388 0.14721 0.79528 0.0
N145 N 0.98102 0.15367 0.79081 0.0
O146 O 0.893 0.1204 0.80324 0.0
H147 H 0.9521 0.16694 0.76409 0.0
H148 H 0.94643 0.14073 0.80587 0.0
O149 O 0.91389 0.18136 0.79903 0.0
C150 C 0.87729 0.09347 0.79943 0.0
O151 O 0.86615 0.08795 0.78678 0.0
N152 N 0.90156 0.16577 0.77072 0.0
C153 C 0.8996 0.18583 0.74403 0.0
C154 C 0.9001 0.20204 0.7558 0.0
C155 C 0.90086 0.19147 0.76914 0.0
C156 C 0.89883 0.14885 0.75936 0.0
C157 C 0.89878 0.15887 0.74593 0.0
H158 H 0.89963 0.20331 0.77811 0.0
H159 H 0.8971 0.12747 0.76081 0.0
H160 H 0.85128 0.13274 0.81184 0.0
H161 H 0.79288 0.12133 0.77915 0.0
H162 H 1.00143 0.16894 0.77068 0.0
H163 H 0.89958 0.22243 0.75467 0.0
H164 H 0.89726 0.14524 0.73709 0.0
C165 C 0.8986 0.72018 0.7792 0.0
C166 C 0.90789 0.70132 0.78381 0.0
N167 N 0.89994 0.69468 0.79727 0.0
N168 N 0.88438 0.72543 0.78956 0.0
C169 C 0.88574 0.70975 0.80053 0.0
H170 H 0.90328 0.73055 0.76906 0.0
Co171 Co 0.8723 0.75389 0.7882 0.0
C172 C 0.80943 0.72288 0.79677 0.0
O173 O 0.80443 0.73342 0.78534 0.0
N174 N 0.86109 0.78404 0.78686 0.0
C175 C 0.84326 0.81307 0.77995 0.0
C176 C 0.84637 0.78926 0.77659 0.0
C177 C 0.86675 0.80569 0.79632 0.0
N178 N 0.85616 0.8235 0.79235 0.0
O179 O 0.89521 0.77302 0.80456 0.0
H180 H 0.83715 0.77616 0.76732 0.0
H181 H 0.87793 0.80826 0.80613 0.0
O182 O 0.83588 0.72847 0.79942 0.0
C183 C 0.92166 0.78896 0.80011 0.0
O184 O 0.92687 0.78833 0.78676 0.0
N185 N 0.85401 0.73687 0.77104 0.0
C186 C 0.83922 0.71652 0.74357 0.0
C187 C 0.82452 0.69774 0.75492 0.0
C188 C 0.83259 0.70822 0.76861 0.0
C189 C 0.86946 0.75476 0.76017 0.0
C190 C 0.86187 0.74546 0.74644 0.0
H191 H 0.82243 0.69305 0.77721 0.0
H192 H 0.88782 0.7767 0.76223 0.0
H193 H 0.87738 0.71024 0.81079 0.0
H194 H 0.92104 0.69445 0.77786 0.0
H195 H 0.8325 0.8222 0.77368 0.0
H196 H 0.80768 0.67488 0.75328 0.0
H197 H 0.87389 0.761 0.73819 0.0
C198 C 0.85308 0.63957 0.56372 0.0
C199 C 0.88092 0.65734 0.55852 0.0
N200 N 0.88002 0.65422 0.5446 0.0
N201 N 0.83397 0.62529 0.55318 0.0
C202 C 0.85121 0.63496 0.54157 0.0
H203 H 0.84789 0.63626 0.57468 0.0
Co204 Co 0.79437 0.59338 0.55549 0.0
C205 C 0.75544 0.61568 0.54586 0.0
O206 O 0.73864 0.60191 0.55663 0.0
N207 N 0.75473 0.56019 0.55773 0.0
C208 C 0.71169 0.52464 0.56635 0.0
C209 C 0.7368 0.551 0.56908 0.0
C210 C 0.73895 0.53889 0.54809 0.0
N211 N 0.7131 0.51688 0.55317 0.0
O212 O 0.79938 0.57359 0.53967 0.0
H213 H 0.7407 0.56251 0.57884 0.0
H214 H 0.74639 0.539 0.53758 0.0
O215 O 0.77905 0.61433 0.54375 0.0
C216 C 0.8142 0.56158 0.54378 0.0
O217 O 0.8247 0.56693 0.55655 0.0
N218 N 0.7914 0.61115 0.57216 0.0
C219 C 0.79284 0.63286 0.5989 0.0
C220 C 0.79279 0.64882 0.58714 0.0
C221 C 0.79233 0.63767 0.57376 0.0
C222 C 0.79393 0.59685 0.58352 0.0
C223 C 0.79371 0.60676 0.59697 0.0
H224 H 0.79377 0.65084 0.56481 0.0
H225 H 0.79556 0.57715 0.58207 0.0
H226 H 0.84326 0.62642 0.53122 0.0
H227 H 0.90062 0.67067 0.56465 0.0
H228 H 0.69363 0.51214 0.57352 0.0
H229 H 0.79325 0.6697 0.58828 0.0
H230 H 0.79487 0.59445 0.6058 0.0
C231 C 0.39641 0.23231 0.5629 0.0
C232 C 0.37772 0.24211 0.55868 0.0
N233 N 0.36935 0.23331 0.54544 0.0
N234 N 0.39993 0.21701 0.55248 0.0
C235 C 0.38331 0.21815 0.54188 0.0
H236 H 0.40773 0.23711 0.57281 0.0
Co237 Co 0.42708 0.20324 0.55361 0.0
C238 C 0.39254 0.14048 0.54495 0.0
O239 O 0.4017 0.13404 0.55644 0.0
N240 N 0.45582 0.19015 0.55476 0.0
C241 C 0.48308 0.17001 0.56128 0.0
C242 C 0.45936 0.1734 0.56455 0.0
C243 C 0.47823 0.19655 0.54565 0.0
N244 N 0.49505 0.1847 0.5494 0.0
O245 O 0.44698 0.22626 0.5373 0.0
H246 H 0.44536 0.1633 0.57349 0.0
H247 H 0.48209 0.20923 0.53624 0.0
O248 O 0.40059 0.16757 0.54219 0.0
C249 C 0.46289 0.25292 0.54152 0.0
O250 O 0.46177 0.25863 0.55478 0.0
N251 N 0.40939 0.18478 0.57068 0.0
C252 C 0.38805 0.16817 0.59781 0.0
C253 C 0.36899 0.1561 0.58633 0.0
C254 C 0.38003 0.16503 0.5728 0.0
C255 C 0.42752 0.19823 0.58179 0.0
C256 C 0.4176 0.18965 0.59538 0.0
H257 H 0.36489 0.15674 0.56409 0.0
H258 H 0.45004 0.21575 0.58002 0.0
H259 H 0.38217 0.20875 0.53169 0.0
H260 H 0.37201 0.256 0.56477 0.0
H261 H 0.49115 0.15797 0.56732 0.0
H262 H 0.34576 0.14014 0.58781 0.0
H263 H 0.43273 0.20041 0.60396 0.0
C264 C 0.79368 0.16386 0.56347 0.0
C265 C 0.78515 0.13623 0.55833 0.0
N266 N 0.79002 0.13841 0.5445 0.0
N267 N 0.80456 0.1839 0.55304 0.0
C268 C 0.80171 0.16757 0.54152 0.0
H269 H 0.79085 0.16866 0.57413 0.0
Co270 Co 0.81558 0.2243 0.55495 0.0
C271 C 0.87871 0.25729 0.54699 0.0
O272 O 0.88311 0.2729 0.55836 0.0
N273 N 0.82592 0.26533 0.55677 0.0
C274 C 0.8426 0.3117 0.56419 0.0
C275 C 0.83953 0.28471 0.56738 0.0
C276 C 0.82097 0.28173 0.54726 0.0
N277 N 0.83083 0.30981 0.55155 0.0
O278 O 0.79303 0.2211 0.53851 0.0
H279 H 0.84818 0.28051 0.57676 0.0
H280 H 0.81105 0.27372 0.53717 0.0
O281 O 0.85245 0.2365 0.54399 0.0
C282 C 0.76603 0.20826 0.54244 0.0
O283 O 0.75986 0.19936 0.55544 0.0
N284 N 0.83357 0.22516 0.57215 0.0
C285 C 0.84798 0.21906 0.59959 0.0
C286 C 0.86355 0.21624 0.58826 0.0
C287 C 0.85568 0.21889 0.57458 0.0
C288 C 0.81732 0.22637 0.58298 0.0
C289 C 0.82469 0.2244 0.59671 0.0
H290 H 0.86651 0.21472 0.56599 0.0
H291 H 0.79851 0.22921 0.58089 0.0
H292 H 0.80722 0.17675 0.53112 0.0
H293 H 0.77459 0.11581 0.56422 0.0
H294 H 0.85267 0.33124 0.57071 0.0
H295 H 0.88091 0.21094 0.58991 0.0
H296 H 0.81199 0.22695 0.60496 0.0
C297 C 0.9681 0.51329 0.10828 0.0
C298 C 0.98484 0.54207 0.11258 0.0
N299 N 0.98826 0.54241 0.12651 0.0
N300 N 0.96125 0.49504 0.11933 0.0
C301 C 0.97388 0.51349 0.13034 0.0
H302 H 0.96036 0.50629 0.09777 0.0
Co303 Co 0.93393 0.45395 0.11866 0.0
C304 C 0.96824 0.42648 0.12865 0.0
O305 O 0.95979 0.41015 0.11737 0.0
N306 N 0.90504 0.41209 0.11807 0.0
C307 C 0.87809 0.3642 0.11233 0.0
C308 C 0.90208 0.39097 0.10889 0.0
C309 C 0.88194 0.39694 0.12696 0.0
N310 N 0.86532 0.36795 0.12368 0.0
O311 O 0.91397 0.45845 0.13445 0.0
H312 H 0.9166 0.39414 0.10025 0.0
H313 H 0.87735 0.40663 0.13587 0.0
O314 O 0.95995 0.44556 0.13075 0.0
C315 C 0.89766 0.46784 0.12926 0.0
O316 O 0.89831 0.47192 0.11573 0.0
N317 N 0.95186 0.4517 0.10195 0.0
C318 C 0.9737 0.4552 0.07501 0.0
C319 C 0.99252 0.46258 0.0866 0.0
C320 C 0.98123 0.46108 0.10003 0.0
C321 C 0.93385 0.44623 0.09071 0.0
C322 C 0.94405 0.44706 0.07721 0.0
H323 H 0.99624 0.46845 0.10879 0.0
H324 H 0.91131 0.44131 0.09227 0.0
H325 H 0.97099 0.50592 0.14103 0.0
H326 H 0.99317 0.56131 0.10591 0.0
H327 H 0.87036 0.3436 0.10673 0.0
H328 H 0.01578 0.46983 0.0853 0.0
H329 H 0.92907 0.44238 0.06854 0.0
C330 C 0.50891 0.45625 0.11076 0.0
C331 C 0.47933 0.44316 0.11399 0.0
N332 N 0.47669 0.44719 0.12769 0.0
N333 N 0.52505 0.4688 0.1223 0.0
C334 C 0.50485 0.46291 0.13246 0.0
H335 H 0.51811 0.4561 0.10067 0.0
Co336 Co 0.56623 0.48641 0.12373 0.0
C337 C 0.57525 0.52274 0.14884 0.0
O338 O 0.5793 0.50388 0.15622 0.0
N339 N 0.60746 0.50403 0.12534 0.0
C340 C 0.65486 0.53814 0.1275 0.0
C341 C 0.62677 0.53338 0.12554 0.0
C342 C 0.62444 0.49138 0.12704 0.0
N343 N 0.6535 0.5117 0.12845 0.0
O344 O 0.56108 0.45983 0.13873 0.0
H345 H 0.62076 0.55034 0.12448 0.0
H346 H 0.61565 0.46774 0.12715 0.0
O347 O 0.56808 0.51732 0.136 0.0
C348 C 0.5551 0.43514 0.1333 0.0
O349 O 0.55377 0.43263 0.11966 0.0
N350 N 0.57082 0.50953 0.10797 0.0
C351 C 0.571 0.53204 0.08157 0.0
C352 C 0.55824 0.53845 0.09299 0.0
C353 C 0.55853 0.52708 0.10621 0.0
C354 C 0.58379 0.50363 0.09706 0.0
C355 C 0.5845 0.51498 0.08384 0.0
H356 H 0.54743 0.53089 0.11479 0.0
H357 H 0.59248 0.48884 0.0985 0.0
H358 H 0.51075 0.46899 0.14325 0.0
H359 H 0.4612 0.43139 0.10678 0.0
H360 H 0.67463 0.55958 0.12844 0.0
H361 H 0.54743 0.5514 0.09163 0.0
H362 H 0.59402 0.50897 0.07529 0.0
C363 C 0.5624 0.04926 0.11105 0.0
C364 C 0.5703 0.02979 0.11631 0.0
N365 N 0.56609 0.02801 0.13017 0.0
N366 N 0.55252 0.05954 0.12146 0.0
C367 C 0.55544 0.04639 0.13309 0.0
H368 H 0.56488 0.05622 0.10031 0.0
Co369 Co 0.54211 0.08935 0.11931 0.0
C370 C 0.47923 0.06108 0.12766 0.0
O371 O 0.47512 0.07278 0.11639 0.0
N372 N 0.53239 0.12037 0.11723 0.0
C373 C 0.516 0.15012 0.10957 0.0
C374 C 0.51977 0.12663 0.10635 0.0
C375 C 0.53621 0.14109 0.1269 0.0
N376 N 0.52644 0.15925 0.12246 0.0
O377 O 0.56493 0.10907 0.13561 0.0
H378 H 0.51199 0.11426 0.0968 0.0
H379 H 0.54506 0.14243 0.13722 0.0
O380 O 0.50523 0.06548 0.1304 0.0
C381 C 0.59198 0.12267 0.13175 0.0
O382 O 0.59822 0.11912 0.11887 0.0
N383 N 0.52377 0.07187 0.10224 0.0
C384 C 0.50874 0.05092 0.07491 0.0
C385 C 0.49242 0.03327 0.08629 0.0
C386 C 0.50063 0.04397 0.09993 0.0
C387 C 0.54068 0.08852 0.09136 0.0
C388 C 0.53312 0.07894 0.07768 0.0
H389 H 0.48913 0.02946 0.10857 0.0
H390 H 0.56016 0.10972 0.09339 0.0
H391 H 0.55055 0.05075 0.14349 0.0
H392 H 0.57984 0.01886 0.11045 0.0
H393 H 0.50615 0.1597 0.10297 0.0
H394 H 0.47413 0.01104 0.08471 0.0
H395 H 0.54643 0.09356 0.06936 0.0
C396 C 0.5183 0.96323 0.89633 0.0
C397 C 0.54641 0.98224 0.89167 0.0
N398 N 0.5453 0.98556 0.87783 0.0
N399 N 0.49911 0.95487 0.88557 0.0
C400 C 0.51637 0.96859 0.87433 0.0
H401 H 0.51246 0.95533 0.9069 0.0
Co402 Co 0.45834 0.9267 0.88692 0.0
C403 C 0.42795 0.95851 0.87741 0.0
O404 O 0.41157 0.94822 0.88862 0.0
N405 N 0.41682 0.89713 0.88818 0.0
C406 C 0.36937 0.86951 0.89455 0.0
C407 C 0.39653 0.89267 0.89816 0.0
C408 C 0.40082 0.87564 0.87866 0.0
N409 N 0.37212 0.85875 0.88232 0.0
O410 O 0.46217 0.90608 0.87111 0.0
H411 H 0.40024 0.90605 0.90732 0.0
H412 H 0.40957 0.87268 0.86898 0.0
O413 O 0.44818 0.95188 0.87498 0.0
C414 C 0.47332 0.89098 0.87596 0.0
O415 O 0.48031 0.89364 0.88924 0.0
N416 N 0.4568 0.94509 0.9036 0.0
C417 C 0.46002 0.96742 0.93036 0.0
C418 C 0.46596 0.98567 0.91865 0.0
C419 C 0.46456 0.97413 0.9053 0.0
C420 C 0.45337 0.92798 0.91497 0.0
C421 C 0.45391 0.93834 0.9284 0.0
H422 H 0.47059 0.98871 0.89641 0.0
H423 H 0.44982 0.90587 0.91354 0.0
H424 H 0.508 0.96572 0.86379 0.0
H425 H 0.56638 0.99187 0.8979 0.0
H426 H 0.34907 0.86116 0.90048 0.0
H427 H 0.47185 1.00862 0.91984 0.0
H428 H 0.4504 0.92398 0.93722 0.0
C429 C 0.07154 0.56972 0.89463 0.0
C430 C 0.05352 0.58069 0.8909 0.0
N431 N 0.04142 0.56945 0.87836 0.0
N432 N 0.07089 0.55131 0.88462 0.0
C433 C 0.05251 0.55171 0.87475 0.0
H434 H 0.0851 0.57556 0.9039 0.0
Co435 Co 0.09557 0.53472 0.88522 0.0
C436 C 0.05485 0.47192 0.87735 0.0
O437 O 0.06065 0.46385 0.88932 0.0
N438 N 0.12193 0.5187 0.88577 0.0
C439 C 0.1455 0.4943 0.89159 0.0
C440 C 0.12221 0.49858 0.89462 0.0
C441 C 0.14578 0.52617 0.87745 0.0
N442 N 0.16045 0.51177 0.8808 0.0
O443 O 0.11436 0.55603 0.8685 0.0
H444 H 0.10685 0.48765 0.90305 0.0
H445 H 0.15247 0.54182 0.86899 0.0
O446 O 0.06661 0.49949 0.8743 0.0
C447 C 0.1339 0.58172 0.87268 0.0
O448 O 0.13734 0.58696 0.88613 0.0
N449 N 0.07895 0.51799 0.90268 0.0
C450 C 0.05992 0.50509 0.93038 0.0
C451 C 0.03944 0.49434 0.91934 0.0
C452 C 0.04937 0.5016 0.90556 0.0
C453 C 0.09887 0.52979 0.9133 0.0
C454 C 0.09001 0.52301 0.92714 0.0
H455 H 0.03331 0.49478 0.89724 0.0
H456 H 0.12196 0.54476 0.91097 0.0
H457 H 0.04794 0.53977 0.86501 0.0
H458 H 0.05069 0.59682 0.89676 0.0
H459 H 0.15149 0.4801 0.89722 0.0
H460 H 0.01591 0.48138 0.92135 0.0
H461 H 0.1067 0.532 0.93522 0.0
C462 C 0.46367 0.49988 0.89995 0.0
C463 C 0.45482 0.47196 0.89517 0.0
N464 N 0.46115 0.47345 0.88148 0.0
N465 N 0.47603 0.51952 0.88946 0.0
C466 C 0.47401 0.50268 0.87826 0.0
H467 H 0.45969 0.50515 0.91032 0.0
Co468 Co 0.48626 0.55974 0.89096 0.0
C469 C 0.54892 0.59448 0.88223 0.0
O470 O 0.55311 0.61084 0.8933 0.0
N471 N 0.49552 0.60052 0.89242 0.0
C472 C 0.51057 0.64671 0.89963 0.0
C473 C 0.50833 0.62015 0.90302 0.0
C474 C 0.49014 0.61631 0.88273 0.0
N475 N 0.49902 0.64428 0.8869 0.0
O476 O 0.46328 0.55531 0.87452 0.0
H477 H 0.51693 0.61642 0.91253 0.0
H478 H 0.48054 0.60791 0.87262 0.0
O479 O 0.52307 0.57227 0.87987 0.0
C480 C 0.43626 0.54212 0.87842 0.0
O481 O 0.43016 0.53375 0.89149 0.0
N482 N 0.50478 0.56182 0.90818 0.0
C483 C 0.51966 0.55698 0.93572 0.0
C484 C 0.53618 0.55542 0.92448 0.0
C485 C 0.52803 0.55734 0.91073 0.0
C486 C 0.48791 0.56215 0.91895 0.0
C487 C 0.49534 0.56059 0.93272 0.0
H488 H 0.53965 0.55411 0.90221 0.0
H489 H 0.46841 0.56376 0.91676 0.0
H490 H 0.48074 0.5116 0.86787 0.0
H491 H 0.4429 0.4519 0.90123 0.0
H492 H 0.51987 0.66632 0.90611 0.0
H493 H 0.55451 0.55163 0.92626 0.0
H494 H 0.48189 0.56205 0.94093 0.0
C495 C 0.63128 0.84414 0.44356 0.0
C496 C 0.64779 0.87282 0.448 0.0
N497 N 0.65207 0.87282 0.46184 0.0
N498 N 0.62543 0.82559 0.45441 0.0
C499 C 0.63842 0.84379 0.46548 0.0
H500 H 0.62294 0.83741 0.4331 0.0
Co501 Co 0.59844 0.78445 0.4534 0.0
C502 C 0.63361 0.75688 0.46219 0.0
O503 O 0.6254 0.74161 0.45058 0.0
N504 N 0.5698 0.74257 0.45242 0.0
C505 C 0.54123 0.69587 0.44516 0.0
C506 C 0.56659 0.72224 0.4427 0.0
C507 C 0.546 0.72711 0.46089 0.0
N508 N 0.52821 0.69899 0.45658 0.0
O509 O 0.57896 0.78784 0.46971 0.0
H510 H 0.58141 0.72588 0.43413 0.0
H511 H 0.54095 0.73629 0.46984 0.0
O512 O 0.62503 0.77557 0.46481 0.0
C513 C 0.56146 0.79642 0.46519 0.0
O514 O 0.5608 0.8008 0.45175 0.0
N515 N 0.61569 0.78332 0.43623 0.0
C516 C 0.63572 0.78901 0.40868 0.0
C517 C 0.65527 0.79547 0.41996 0.0
C518 C 0.64491 0.79294 0.43369 0.0
C519 C 0.59685 0.77827 0.4254 0.0
C520 C 0.60606 0.78 0.41166 0.0
H521 H 0.66052 0.79985 0.44221 0.0
H522 H 0.57431 0.77283 0.4275 0.0
H523 H 0.63628 0.83596 0.47609 0.0
H524 H 0.65534 0.89224 0.44151 0.0
H525 H 0.53279 0.67599 0.43892 0.0
H526 H 0.67858 0.80355 0.41823 0.0
H527 H 0.58993 0.77457 0.40345 0.0
C528 C 0.17285 0.78831 0.44369 0.0
C529 C 0.14457 0.7785 0.44829 0.0
N530 N 0.14566 0.78543 0.46188 0.0
N531 N 0.19215 0.802 0.4542 0.0
C532 C 0.17483 0.79957 0.46525 0.0
H533 H 0.1788 0.7846 0.43341 0.0
Co534 Co 0.23309 0.8156 0.45292 0.0
C535 C 0.26161 0.87903 0.46077 0.0
O536 O 0.2767 0.88493 0.44915 0.0
N537 N 0.27487 0.82846 0.4517 0.0
C538 C 0.3223 0.84931 0.44511 0.0
C539 C 0.29499 0.8454 0.44187 0.0
C540 C 0.29111 0.82213 0.46071 0.0
N541 N 0.31981 0.83457 0.45692 0.0
O542 O 0.23019 0.79386 0.46955 0.0
H543 H 0.2908 0.85527 0.43292 0.0
H544 H 0.28245 0.80909 0.47006 0.0
O545 O 0.24263 0.85206 0.46379 0.0
C546 C 0.22121 0.7675 0.46532 0.0
O547 O 0.21629 0.76174 0.45195 0.0
N548 N 0.23367 0.83281 0.43554 0.0
C549 C 0.22747 0.84595 0.40789 0.0
C550 C 0.22179 0.85998 0.41902 0.0
C551 C 0.22446 0.85266 0.43281 0.0
C552 C 0.23789 0.81807 0.42486 0.0
C553 C 0.23574 0.82483 0.41104 0.0
H554 H 0.21813 0.8621 0.44124 0.0
H555 H 0.24303 0.80083 0.42714 0.0
H556 H 0.18337 0.80726 0.47562 0.0
H557 H 0.12457 0.76582 0.44226 0.0
H558 H 0.34244 0.86175 0.43912 0.0
H559 H 0.21428 0.87561 0.41712 0.0
H560 H 0.24039 0.81336 0.4029 0.0
C561 C 0.2346 0.39215 0.44574 0.0
C562 C 0.24494 0.37397 0.45008 0.0
N563 N 0.23573 0.36528 0.46326 0.0
N564 N 0.2186 0.39503 0.45601 0.0
C565 C 0.21981 0.37854 0.46663 0.0
H566 H 0.23943 0.40353 0.43584 0.0
Co567 Co 0.20373 0.42124 0.4547 0.0
C568 C 0.141 0.38485 0.46339 0.0
O569 O 0.13381 0.39244 0.45164 0.0
N570 N 0.18942 0.44898 0.45339 0.0
C571 C 0.16676 0.47395 0.44697 0.0
C572 C 0.1711 0.45074 0.44388 0.0
C573 C 0.19595 0.47205 0.46209 0.0
N574 N 0.18252 0.48742 0.4584 0.0
O575 O 0.22636 0.44167 0.47099 0.0
H576 H 0.16065 0.4359 0.43523 0.0
H577 H 0.20979 0.47738 0.47119 0.0
O578 O 0.16838 0.3943 0.46618 0.0
C579 C 0.25297 0.45817 0.46684 0.0
O580 O 0.25901 0.45756 0.45359 0.0
N581 N 0.18564 0.40304 0.43768 0.0
C582 C 0.1687 0.38142 0.41065 0.0
C583 C 0.15781 0.36222 0.42213 0.0
C584 C 0.1669 0.37345 0.43562 0.0
C585 C 0.19818 0.42136 0.42654 0.0
C586 C 0.18935 0.41126 0.41299 0.0
H587 H 0.15941 0.35834 0.44435 0.0
H588 H 0.21502 0.44418 0.42824 0.0
H589 H 0.20985 0.37696 0.47672 0.0
H590 H 0.25938 0.36878 0.44413 0.0
H591 H 0.15338 0.4807 0.44112 0.0
H592 H 0.14256 0.33881 0.42068 0.0
H593 H 0.19922 0.42652 0.40437 0.0
C594 C 0.42328 0.41089 0.1308 0.0
C595 C 0.44947 0.43567 0.1356 0.0
C596 C 0.39691 0.39968 0.13838 0.0
C597 C 0.36816 0.39889 0.17377 0.0
H598 H 0.29328 0.37044 0.15462 0.0
C599 C 0.26082 0.36327 0.20441 0.0
C600 C 0.23528 0.33718 0.20023 0.0
C601 C 0.28599 0.37639 0.19596 0.0
C602 C 0.31395 0.37802 0.16013 0.0
H603 H 0.46804 0.46817 0.15216 0.0
H604 H 0.42207 0.44863 0.16538 0.0
H605 H 0.33916 0.39117 0.14121 0.0
H606 H 0.21584 0.305 0.18362 0.0
H607 H 0.25997 0.32788 0.16878 0.0
H608 H 0.34308 0.38561 0.19266 0.0
C609 C 0.42207 0.43763 0.15581 0.0
C610 C 0.3403 0.38993 0.15243 0.0
C611 C 0.44849 0.44888 0.14822 0.0
C612 C 0.23507 0.32523 0.18707 0.0
C613 C 0.26041 0.33834 0.17859 0.0
C614 C 0.34187 0.387 0.18145 0.0
C615 C 0.3959 0.41286 0.15099 0.0
C616 C 0.36778 0.40054 0.15916 0.0
C617 C 0.28645 0.36374 0.18309 0.0
C618 C 0.31438 0.37645 0.17475 0.0
H619 H 0.42317 0.39971 0.12129 0.0
H620 H 0.3774 0.38027 0.13446 0.0
H621 H 0.38877 0.40627 0.17931 0.0
H622 H 0.26149 0.37329 0.21438 0.0
H623 H 0.30529 0.39634 0.19962 0.0
C624 C 0.6498 0.88986 0.20271 0.0
C625 C 0.67976 0.89848 0.20077 0.0
C626 C 0.63659 0.90291 0.19501 0.0
C627 C 0.65429 0.97093 0.17572 0.0
H628 H 0.57413 0.92395 0.16181 0.0
C629 C 0.58892 0.02418 0.1522 0.0
C630 C 0.57443 0.01178 0.13955 0.0
C631 C 0.60071 0.00996 0.1602 0.0
C632 C 0.59655 0.93742 0.1656 0.0
H633 H 0.71922 0.9273 0.18898 0.0
H634 H 0.69607 0.95015 0.17537 0.0
H635 H 0.59763 0.89967 0.17362 0.0
H636 H 0.55974 0.97425 0.12571 0.0
H637 H 0.57985 0.94937 0.13964 0.0
H638 H 0.65323 1.00867 0.16755 0.0
C639 C 0.68286 0.93332 0.18297 0.0
C640 C 0.60997 0.92351 0.17246 0.0
C641 C 0.69604 0.91999 0.19062 0.0
C642 C 0.57088 0.98436 0.13539 0.0
C643 C 0.5823 0.97004 0.14342 0.0
C644 C 0.64075 0.9849 0.16894 0.0
C645 C 0.65302 0.92514 0.18519 0.0
C646 C 0.63906 0.94003 0.17758 0.0
C647 C 0.59785 0.98286 0.15581 0.0
C648 C 0.61174 0.9683 0.16373 0.0
H649 H 0.63665 0.87325 0.2104 0.0
H650 H 0.61367 0.89618 0.19708 0.0
H651 H 0.67658 0.98439 0.17967 0.0
H652 H 0.59222 0.04542 0.15558 0.0
H653 H 0.61231 0.02031 0.16976 0.0
C654 C 1.01353 0.5683 0.14845 0.0
C655 C 1.00188 0.56855 0.13527 0.0
C656 C 0.02743 0.59413 0.15661 0.0
C657 C 0.03387 0.66845 0.16038 0.0
H658 H 0.10505 0.68797 0.18112 0.0
C659 C 0.10407 0.7829 0.18669 0.0
C660 C 0.11338 0.78259 0.20039 0.0
C661 C 0.09191 0.75719 0.17848 0.0
C662 C 0.08508 0.68277 0.17546 0.0
H663 H 0.99497 0.59632 0.12065 0.0
H664 H 0.01958 0.64089 0.13451 0.0
H665 H 0.07998 0.64174 0.16797 0.0
H666 H 0.11865 0.75545 0.21593 0.0
H667 H 0.09753 0.71081 0.20171 0.0
H668 H 0.039 0.70947 0.1678 0.0
C669 C 0.01791 0.62084 0.13869 0.0
C670 C 0.0706 0.65615 0.16796 0.0
C671 C 1.00409 0.59518 0.1306 0.0
C672 C 0.1114 0.75635 0.20547 0.0
C673 C 0.09949 0.73079 0.19726 0.0
C674 C 0.04839 0.69507 0.16782 0.0
C675 C 0.02984 0.6208 0.15181 0.0
C676 C 0.04482 0.64864 0.16026 0.0
C677 C 0.08907 0.73066 0.18374 0.0
C678 C 0.07422 0.70264 0.17545 0.0
H679 H 1.01231 0.54828 0.15238 0.0
H680 H 0.03607 0.59313 0.16673 0.0
H681 H 0.01378 0.66326 0.15483 0.0
H682 H 0.10512 0.80266 0.1825 0.0
H683 H 0.08445 0.758 0.16804 0.0
C684 C 0.44827 0.44978 0.85795 0.0
C685 C 0.45236 0.44817 0.87237 0.0
C686 C 0.43681 0.42427 0.84958 0.0
C687 C 0.38904 0.34365 0.85183 0.0
H688 H 0.42337 0.34066 0.81651 0.0
C689 C 0.34003 0.23444 0.82003 0.0
C690 C 0.3399 0.23664 0.80542 0.0
C691 C 0.35583 0.25987 0.82832 0.0
C692 C 0.41311 0.34108 0.82624 0.0
H693 H 0.44937 0.41838 0.88893 0.0
H694 H 0.42873 0.3743 0.8745 0.0
H695 H 0.44638 0.38627 0.83011 0.0
H696 H 0.35801 0.26767 0.78819 0.0
H697 H 0.38382 0.31139 0.80241 0.0
H698 H 0.35518 0.29904 0.84788 0.0
C699 C 0.43399 0.39517 0.86971 0.0
C700 C 0.42647 0.36733 0.83406 0.0
C701 C 0.44577 0.42058 0.878 0.0
C702 C 0.35683 0.26487 0.79938 0.0
C703 C 0.37224 0.29018 0.80761 0.0
C704 C 0.37538 0.31758 0.84392 0.0
C705 C 0.42891 0.39655 0.85545 0.0
C706 C 0.41463 0.3689 0.84695 0.0
C707 C 0.3718 0.28825 0.82224 0.0
C708 C 0.38714 0.31581 0.83097 0.0
H709 H 0.45293 0.47047 0.8532 0.0
H710 H 0.43315 0.42602 0.8386 0.0
H711 H 0.3792 0.34425 0.86168 0.0
H712 H 0.32737 0.21323 0.82513 0.0
H713 H 0.35534 0.2572 0.83952 0.0
C714 C 0.76808 0.12338 0.80605 0.0
C715 C 0.7899 0.11556 0.80834 0.0
C716 C 0.7421 0.11074 0.81397 0.0
C717 C 0.69278 0.0438 0.83376 0.0
H718 H 0.65919 0.09043 0.84772 0.0
C719 C 0.57312 0.99058 0.85605 0.0
C720 C 0.5707 1.00202 0.86893 0.0
C721 C 0.59956 1.00499 0.84838 0.0
C722 C 0.66827 0.07709 0.84389 0.0
H723 H 0.80181 0.08867 0.82089 0.0
H724 H 0.75611 0.06626 0.83479 0.0
H725 H 0.70708 0.11496 0.83588 0.0
H726 H 0.59348 0.03805 0.88356 0.0
H727 H 0.63925 0.06344 0.87012 0.0
H728 H 0.65385 1.0059 0.84175 0.0
C729 C 0.75923 0.08229 0.82683 0.0
C730 C 0.69566 0.09113 0.83706 0.0
C731 C 0.78551 0.09534 0.81902 0.0
C732 C 0.59478 0.0287 0.87369 0.0
C733 C 0.62094 0.04329 0.86596 0.0
C734 C 0.66517 0.02969 0.84044 0.0
C735 C 0.73705 0.08961 0.82428 0.0
C736 C 0.70832 0.07469 0.83195 0.0
C737 C 0.6239 0.03139 0.85332 0.0
C738 C 0.65262 0.04618 0.84564 0.0
H739 H 0.77092 0.13892 0.79789 0.0
H740 H 0.72547 0.11676 0.81166 0.0
H741 H 0.70175 0.03045 0.82981 0.0
H742 H 0.55502 0.96992 0.85221 0.0
H743 H 0.60106 0.99539 0.83862 0.0
C744 C 0.02062 0.57447 0.85579 0.0
C745 C 0.02262 0.57719 0.87041 0.0
C746 C 1.0043 0.58444 0.84816 0.0
C747 C 0.97827 0.6382 0.85032 0.0
H748 H 0.92533 0.59322 0.82022 0.0
C749 C 0.91128 0.68234 0.82073 0.0
C750 C 0.90824 0.67766 0.80624 0.0
C751 C 0.92234 0.66788 0.82905 0.0
C752 C 0.9403 0.60634 0.82847 0.0
H753 H 1.00718 0.59095 0.88839 0.0
H754 H 0.9796 0.60877 0.87515 0.0
H755 H 0.95094 0.57249 0.8332 0.0
H756 H 0.91289 0.65252 0.78938 0.0
H757 H 0.93309 0.62861 0.80359 0.0
H758 H 0.96862 0.67246 0.84541 0.0
C759 C 0.99102 0.59938 0.86956 0.0
C760 C 0.95493 0.59433 0.83594 0.0
C761 C 1.00699 0.58918 0.87716 0.0
C762 C 0.91544 0.65726 0.80043 0.0
C763 C 0.92669 0.64308 0.80868 0.0
C764 C 0.96398 0.65038 0.84275 0.0
C765 C 0.98979 0.59756 0.85496 0.0
C766 C 0.97411 0.61013 0.84695 0.0
C767 C 0.93076 0.64844 0.8231 0.0
C768 C 0.94482 0.63471 0.83166 0.0
H769 H 0.03239 0.56553 0.85018 0.0
H770 H 1.00384 0.5828 0.83691 0.0
H771 H 0.99318 0.65111 0.85865 0.0
H772 H 0.90603 0.69785 0.8256 0.0
H773 H 0.92454 0.67222 0.84014 0.0
C774 C 0.75565 0.69999 0.80229 0.0
C775 C 0.78363 0.70418 0.80594 0.0
C776 C 0.73081 0.68301 0.81054 0.0
C777 C 0.70785 0.65474 0.84631 0.0
H778 H 0.63069 0.61186 0.82871 0.0
C779 C 0.60188 0.6281 0.8759 0.0
C780 C 0.57502 0.60192 0.87321 0.0
C781 C 0.6271 0.63585 0.86795 0.0
C782 C 0.65199 0.62328 0.83386 0.0
H783 H 0.80713 0.69328 0.82128 0.0
H784 H 0.76331 0.66316 0.83583 0.0
H785 H 0.67524 0.63268 0.81446 0.0
H786 H 0.55386 0.56333 0.85987 0.0
H787 H 0.59832 0.57684 0.84587 0.0
H788 H 0.68461 0.6451 0.86572 0.0
C789 C 0.76084 0.6734 0.8265 0.0
C790 C 0.67766 0.63563 0.82565 0.0
C791 C 0.78597 0.6906 0.81816 0.0
C792 C 0.57412 0.58367 0.86221 0.0
C793 C 0.59963 0.59148 0.85419 0.0
C794 C 0.68218 0.64223 0.85453 0.0
C795 C 0.73286 0.66937 0.82277 0.0
C796 C 0.70595 0.65239 0.83171 0.0
C797 C 0.62655 0.61769 0.85701 0.0
C798 C 0.65383 0.62714 0.84839 0.0
H799 H 0.75275 0.71015 0.79304 0.0
H800 H 0.71002 0.68123 0.80745 0.0
H801 H 0.7291 0.66742 0.8514 0.0
H802 H 0.60356 0.64297 0.88418 0.0
H803 H 0.64699 0.65657 0.87026 0.0
C804 C 0.41373 0.99723 0.87539 0.0
C805 C 0.42382 0.97983 0.8688 0.0
C806 C 0.40525 0.01438 0.86766 0.0
C807 C 0.40725 0.04583 0.83265 0.0
H808 H 0.33507 0.0422 0.84566 0.0
C809 C 0.33682 0.07749 0.79813 0.0
C810 C 0.32128 0.09036 0.80412 0.0
C811 C 0.35291 0.06845 0.80635 0.0
C812 C 0.35554 0.04399 0.842 0.0
H813 H 0.4343 0.96796 0.84887 0.0
H814 H 0.41896 0.99787 0.83514 0.0
H815 H 0.35636 0.01755 0.8588 0.0
H816 H 0.31158 0.10492 0.82353 0.0
H817 H 0.34001 0.08911 0.83806 0.0
H818 H 0.40601 0.07188 0.81567 0.0
C819 C 0.41787 0.99834 0.8464 0.0
C820 C 0.36778 0.02973 0.84953 0.0
C821 C 0.4267 0.98121 0.85423 0.0
C822 C 0.32329 0.0951 0.81859 0.0
C823 C 0.33938 0.0858 0.8269 0.0
C824 C 0.39497 0.06012 0.82509 0.0
C825 C 0.40624 0.01451 0.85304 0.0
C826 C 0.39374 0.0303 0.84495 0.0
C827 C 0.35401 0.07189 0.82088 0.0
C828 C 0.36876 0.05917 0.8296 0.0
H829 H 0.41173 0.9971 0.88664 0.0
H830 H 0.39734 0.02718 0.8732 0.0
H831 H 0.42743 0.04712 0.82888 0.0
H832 H 0.33599 0.07365 0.787 0.0
H833 H 0.36349 0.05758 0.8013 0.0
C834 C 0.04243 0.44836 0.85359 0.0
C835 C 0.03509 0.44807 0.86768 0.0
C836 C 0.0274 0.42252 0.8455 0.0
C837 C 0.98358 0.34069 0.85044 0.0
H838 H 0.97303 0.33982 0.81047 0.0
C839 C 0.92947 0.23177 0.81767 0.0
C840 C 0.94502 0.233 0.80548 0.0
C841 C 0.93703 0.25773 0.82522 0.0
C842 C 0.97586 0.3397 0.82164 0.0
H843 H 1.00496 0.42151 0.88407 0.0
H844 H 0.97794 0.37723 0.86991 0.0
H845 H 0.9918 0.38624 0.82326 0.0
H846 H 0.98053 0.26274 0.79165 0.0
H847 H 0.99335 0.30732 0.80466 0.0
H848 H 0.96778 0.29416 0.84877 0.0
C849 C 0.99594 0.39674 0.86515 0.0
C850 C 0.98675 0.36638 0.82898 0.0
C851 C 1.01119 0.42228 0.87323 0.0
C852 C 0.968 0.26075 0.80099 0.0
C853 C 0.97527 0.28652 0.8084 0.0
C854 C 0.97248 0.314 0.84311 0.0
C855 C 1.00455 0.39604 0.85133 0.0
C856 C 0.99114 0.36737 0.84348 0.0
C857 C 0.95998 0.28545 0.82061 0.0
C858 C 0.96891 0.31323 0.82859 0.0
H859 H 0.06104 0.46784 0.84912 0.0
H860 H 0.03484 0.42293 0.83493 0.0
H861 H 0.98715 0.34047 0.86154 0.0
H862 H 0.91162 0.21082 0.8214 0.0
H863 H 0.92476 0.25618 0.83459 0.0
C864 C 0.69659 0.77829 0.19598 0.0
C865 C 0.72533 0.78577 0.20017 0.0
C866 C 0.67805 0.75093 0.18948 0.0
C867 C 0.6698 0.67608 0.18697 0.0
H868 H 0.61236 0.66206 0.15808 0.0
C869 C 0.58948 0.55753 0.1691 0.0
C870 C 0.58478 0.55257 0.1547 0.0
C871 C 0.60297 0.58625 0.17453 0.0
C872 C 0.62838 0.66561 0.1661 0.0
H873 H 0.75791 0.7716 0.19989 0.0
H874 H 0.72635 0.7249 0.18822 0.0
H875 H 0.6444 0.71239 0.16681 0.0
H876 H 0.58928 0.574 0.13477 0.0
H877 H 0.61347 0.62419 0.14419 0.0
H878 H 0.65484 0.62988 0.18606 0.0
C879 C 0.71748 0.73934 0.19037 0.0
C880 C 0.64658 0.69446 0.1712 0.0
C881 C 0.73573 0.76631 0.19696 0.0
C882 C 0.5925 0.57699 0.14593 0.0
C883 C 0.60635 0.60584 0.15136 0.0
C884 C 0.6518 0.64744 0.18187 0.0
C885 C 0.68803 0.73072 0.18697 0.0
C886 C 0.66777 0.70012 0.18162 0.0
C887 C 0.61257 0.61094 0.1657 0.0
C888 C 0.63083 0.64168 0.17135 0.0
H889 H 0.68792 0.79279 0.19841 0.0
H890 H 0.65552 0.74508 0.18702 0.0
H891 H 0.68537 0.67931 0.19518 0.0
H892 H 0.58353 0.53924 0.17618 0.0
H893 H 0.60654 0.58911 0.18567 0.0
C894 C 0.26627 0.93246 0.20677 0.0
C895 C 0.23954 0.92708 0.20067 0.0
C896 C 0.29174 0.94194 0.19873 0.0
C897 C 0.32079 0.95262 0.16237 0.0
H898 H 0.39225 0.01464 0.17965 0.0
C899 C 0.42441 0.03211 0.13079 0.0
C900 C 0.4528 0.04142 0.13624 0.0
C901 C 0.39899 0.01478 0.13864 0.0
C902 C 0.37268 0.99701 0.17473 0.0
H903 H 0.21816 0.92615 0.18123 0.0
H904 H 0.26303 0.94336 0.16704 0.0
H905 H 0.34637 0.99048 0.19288 0.0
H906 H 0.47649 0.03913 0.15428 0.0
H907 H 0.43171 1.00876 0.1682 0.0
H908 H 0.34715 0.95989 0.14407 0.0
C909 C 0.26418 0.93981 0.17808 0.0
C910 C 0.34622 0.98307 0.18232 0.0
C911 C 0.23841 0.92988 0.18617 0.0
C912 C 0.45501 0.0324 0.14977 0.0
C913 C 0.42936 0.01513 0.15775 0.0
C914 C 0.34727 0.96668 0.15475 0.0
C915 C 0.29143 0.94682 0.18435 0.0
C916 C 0.3198 0.96078 0.17624 0.0
C917 C 0.401 1.00622 0.15227 0.0
C918 C 0.37351 0.9893 0.16078 0.0
H919 H 0.26773 0.93018 0.21792 0.0
H920 H 0.31192 0.94614 0.20391 0.0
H921 H 0.30111 0.93531 0.15738 0.0
H922 H 0.42166 0.03843 0.12038 0.0
H923 H 0.37769 1.0088 0.13413 0.0
C924 C 0.09709 0.31851 0.19082 0.0
C925 C 0.08547 0.30967 0.2043 0.0
C926 C 0.08915 0.33588 0.18268 0.0
C927 C 0.05621 0.38493 0.18496 0.0
H928 H 0.03183 0.36005 0.1469 0.0
C929 C 0.9849 0.42106 0.15259 0.0
C930 C 0.9888 0.42312 0.13808 0.0
C931 C 1.00077 0.41157 0.16092 0.0
C932 C 0.03904 0.36778 0.15742 0.0
H933 H 0.05716 0.31308 0.21993 0.0
H934 H 0.04355 0.34297 0.20588 0.0
H935 H 0.05293 0.3359 0.16057 0.0
H936 H 0.01387 0.41927 0.12103 0.0
H937 H 0.04223 0.40412 0.13545 0.0
H938 H 0.04196 0.41661 0.18186 0.0
C939 C 0.05882 0.33673 0.20154 0.0
C940 C 0.05118 0.35384 0.16527 0.0
C941 C 0.06648 0.31927 0.20956 0.0
C942 C 1.0102 0.41756 0.13219 0.0
C943 C 0.02625 0.40855 0.14046 0.0
C944 C 0.04417 0.39901 0.17708 0.0
C945 C 0.06976 0.34506 0.18794 0.0
C946 C 0.05958 0.36194 0.1792 0.0
C947 C 0.021 0.40428 0.15487 0.0
C948 C 0.03516 0.39046 0.16322 0.0
H949 H 0.1118 0.31155 0.18647 0.0
H950 H 0.09814 0.34208 0.17226 0.0
H951 H 0.06276 0.39198 0.19562 0.0
H952 H 0.96833 0.42494 0.15737 0.0
H953 H 0.99603 0.40848 0.17197 0.0
C954 C 0.12043 0.76823 0.48476 0.0
C955 C 0.1202 0.77629 0.47081 0.0
C956 C 0.09443 0.75593 0.49278 0.0
C957 C 0.01833 0.74591 0.4942 0.0
H958 H 1.00164 0.67847 0.51734 0.0
C959 C 0.9043 0.67392 0.52166 0.0
C960 C 0.9056 0.66602 0.53553 0.0
C961 C 0.92995 0.68708 0.51333 0.0
C962 C 1.00601 0.69744 0.51103 0.0
H963 H 0.09283 0.77922 0.45462 0.0
H964 H 0.04772 0.75772 0.46847 0.0
H965 H 0.04801 0.70376 0.50447 0.0
H966 H 0.93467 0.66449 0.55126 0.0
H967 H 0.97889 0.68748 0.537 0.0
H968 H 0.97622 0.7395 0.5008 0.0
C969 C 0.06784 0.76082 0.47329 0.0
C970 C 0.03274 0.71205 0.50368 0.0
C971 C 0.0937 0.77293 0.46529 0.0
C972 C 0.93287 0.67076 0.54072 0.0
C973 C 0.95828 0.68366 0.53245 0.0
C974 C 0.99155 0.73127 0.50157 0.0
C975 C 0.06764 0.75162 0.48707 0.0
C976 C 0.03937 0.73657 0.49519 0.0
C977 C 0.95734 0.69224 0.51867 0.0
C978 C 0.98508 0.70692 0.51016 0.0
H979 H 0.14039 0.77035 0.48931 0.0
H980 H 0.09526 0.74951 0.50343 0.0
H981 H 0.02274 0.76487 0.48788 0.0
H982 H 0.88366 0.67057 0.51737 0.0
H983 H 0.92833 0.69313 0.50272 0.0
C984 C 0.24385 0.34932 0.48655 0.0
C985 C 0.24388 0.34767 0.47191 0.0
C986 C 0.25433 0.33415 0.49472 0.0
C987 C 0.2762 0.27545 0.49281 0.0
H988 H 0.32059 0.31431 0.52614 0.0
C989 C 0.3536 0.24232 0.52227 0.0
C990 C 0.35147 0.24131 0.53691 0.0
C991 C 0.33826 0.25291 0.51428 0.0
C992 C 0.30807 0.30306 0.5169 0.0
H993 H 0.25355 0.32711 0.45456 0.0
H994 H 0.27283 0.30214 0.46857 0.0
H995 H 0.29759 0.33703 0.51272 0.0
H996 H 0.32966 0.24888 0.55442 0.0
H997 H 0.30387 0.26789 0.5406 0.0
H998 H 0.28776 0.24199 0.49687 0.0
C999 C 0.26441 0.31473 0.47387 0.0
C1000 C 0.29465 0.31599 0.50923 0.0
C1001 C 0.2537 0.32959 0.46575 0.0
C1002 C 0.33268 0.25008 0.54324 0.0
C1003 C 0.31773 0.26094 0.53531 0.0
C1004 C 0.29001 0.26274 0.5004 0.0
C1005 C 0.26527 0.31701 0.48848 0.0
C1006 C 0.27851 0.30245 0.49703 0.0
C1007 C 0.32067 0.26296 0.52076 0.0
C1008 C 0.30609 0.27638 0.51254 0.0
H1009 H 0.23651 0.36295 0.49171 0.0
H1010 H 0.25401 0.33606 0.50594 0.0
H1011 H 0.26354 0.26391 0.48367 0.0
H1012 H 0.36786 0.23591 0.51699 0.0
H1013 H 0.34098 0.25423 0.50307 0.0
C1014 C 0.67931 0.89895 0.48338 0.0
C1015 C 0.6657 0.89878 0.47071 0.0
C1016 C 0.69359 0.92483 0.49151 0.0
C1017 C 0.69814 0.99808 0.49653 0.0
H1018 H 0.77306 0.02025 0.51431 0.0
C1019 C 0.76924 0.1134 0.52189 0.0
C1020 C 0.78089 0.11364 0.53512 0.0
C1021 C 0.7567 0.08765 0.51369 0.0
C1022 C 0.75205 0.01431 0.50949 0.0
H1023 H 0.65551 0.92564 0.45703 0.0
H1024 H 0.68068 0.97029 0.47082 0.0
H1025 H 0.74706 0.97367 0.50148 0.0
H1026 H 0.78999 0.08759 0.54975 0.0
H1027 H 0.76824 0.0429 0.53556 0.0
H1028 H 0.70313 0.03869 0.50448 0.0
C1029 C 0.68034 0.95058 0.47462 0.0
C1030 C 0.73705 0.98748 0.50217 0.0
C1031 C 0.66619 0.9249 0.46656 0.0
C1032 C 0.78095 0.08803 0.53966 0.0
C1033 C 0.76865 0.06244 0.53146 0.0
C1034 C 0.71317 0.0249 0.50379 0.0
C1035 C 0.69437 0.95106 0.48719 0.0
C1036 C 0.70991 0.97902 0.49553 0.0
C1037 C 0.75579 0.06165 0.51848 0.0
C1038 C 0.74037 0.03345 0.51035 0.0
H1039 H 0.67941 0.87928 0.48689 0.0
H1040 H 0.70387 0.92423 0.50121 0.0
H1041 H 0.67704 0.99215 0.49181 0.0
H1042 H 0.76868 0.13267 0.51814 0.0
H1043 H 0.74736 0.08798 0.50366 0.0
C1044 C 0.37206 0.11713 0.52144 0.0
C1045 C 0.3717 0.11537 0.53605 0.0
C1046 C 0.3555 0.09141 0.51339 0.0
C1047 C 0.32215 0.00965 0.51645 0.0
H1048 H 0.28594 1.00777 0.48097 0.0
C1049 C 0.2599 0.90125 0.48405 0.0
C1050 C 0.26705 0.90447 0.4698 0.0
C1051 C 0.26849 0.92636 0.49248 0.0
C1052 C 0.29602 1.00791 0.49085 0.0
H1053 H 0.35199 0.08586 0.55365 0.0
H1054 H 0.32275 0.04176 0.53979 0.0
H1055 H 0.30922 0.05342 0.49461 0.0
H1056 H 0.28754 0.93662 0.45315 0.0
H1057 H 0.30236 0.97969 0.46765 0.0
H1058 H 0.30944 0.96438 0.51263 0.0
C1059 C 0.3365 0.06247 0.53444 0.0
C1060 C 0.30947 0.03418 0.49865 0.0
C1061 C 0.35314 0.0879 0.5424 0.0
C1062 C 0.28178 0.93318 0.4641 0.0
C1063 C 0.29011 0.95805 0.47242 0.0
C1064 C 0.30869 0.98343 0.50867 0.0
C1065 C 0.33812 0.06357 0.51982 0.0
C1066 C 0.32293 0.03549 0.51153 0.0
C1067 C 0.28407 0.95514 0.48677 0.0
C1068 C 0.29572 0.98224 0.49569 0.0
H1069 H 0.38626 0.13796 0.51626 0.0
H1070 H 0.35737 0.09316 0.50215 0.0
H1071 H 0.33273 0.00983 0.52619 0.0
H1072 H 0.24859 0.87948 0.48877 0.0
H1073 H 0.2632 0.92327 0.50348 0.0
C1074 C 0.11994 0.36535 0.48735 0.0
C1075 C 0.11648 0.36496 0.47282 0.0
C1076 C 0.0951 0.34949 0.49601 0.0
C1077 C 0.01504 0.29061 0.49573 0.0
H1078 H 1.00917 0.3343 0.52701 0.0
C1079 C 0.90361 0.25748 0.52425 0.0
C1080 C 0.90511 0.26327 0.53862 0.0
C1081 C 0.92972 0.26671 0.5165 0.0
C1082 C 1.01049 0.32147 0.51845 0.0
H1083 H 0.08459 0.34618 0.45598 0.0
H1084 H 0.0419 0.31886 0.47089 0.0
H1085 H 0.05484 0.35509 0.51368 0.0
H1086 H 0.93497 0.28133 0.55625 0.0
H1087 H 0.97975 0.29642 0.54298 0.0
H1088 H 0.97044 0.25713 0.50043 0.0
C1089 C 0.06349 0.33123 0.47572 0.0
C1090 C 0.03684 0.33344 0.51081 0.0
C1091 C 0.08807 0.34717 0.46715 0.0
C1092 C 0.93298 0.27702 0.54514 0.0
C1093 C 0.95881 0.28588 0.5375 0.0
C1094 C 0.98864 0.27856 0.50341 0.0
C1095 C 0.06646 0.33266 0.49028 0.0
C1096 C 0.03942 0.31836 0.49925 0.0
C1097 C 0.95774 0.28163 0.52301 0.0
C1098 C 0.98592 0.29391 0.51484 0.0
H1099 H 0.14152 0.37888 0.49203 0.0
H1100 H 0.09824 0.35083 0.50719 0.0
H1101 H 0.0163 0.2782 0.48696 0.0
H1102 H 0.88248 0.24696 0.51893 0.0
H1103 H 0.92799 0.26309 0.50535 0.0
C1104 C 0.73016 0.64532 0.54362 0.0
C1105 C 0.74815 0.63531 0.53758 0.0
C1106 C 0.7214 0.66248 0.53606 0.0
C1107 C 0.73586 0.70739 0.50365 0.0
H1108 H 0.65612 0.69201 0.51056 0.0
C1109 C 0.67167 0.74221 0.46622 0.0
C1110 C 0.65281 0.75164 0.4718 0.0
C1111 C 0.68664 0.73252 0.47488 0.0
C1112 C 0.67861 0.69699 0.50865 0.0
H1113 H 0.7717 0.63627 0.51885 0.0
H1114 H 0.75556 0.66565 0.50532 0.0
H1115 H 0.67513 0.66534 0.52374 0.0
H1116 H 0.63578 0.75938 0.49093 0.0
H1117 H 0.66184 0.74203 0.50622 0.0
H1118 H 0.73867 0.73832 0.48813 0.0
C1119 C 0.74863 0.66057 0.51608 0.0
C1120 C 0.68962 0.68164 0.51623 0.0
C1121 C 0.75782 0.64361 0.52379 0.0
C1122 C 0.65027 0.7524 0.48634 0.0
C1123 C 0.66498 0.74221 0.49506 0.0
C1124 C 0.72469 0.72256 0.49596 0.0
C1125 C 0.72988 0.66989 0.52208 0.0
C1126 C 0.71842 0.68655 0.51386 0.0
C1127 C 0.6829 0.7316 0.4894 0.0
C1128 C 0.69587 0.71748 0.49834 0.0
H1129 H 0.72273 0.63991 0.55432 0.0
H1130 H 0.70784 0.6699 0.54126 0.0
H1131 H 0.75824 0.71219 0.50163 0.0
H1132 H 0.67419 0.74144 0.45504 0.0
H1133 H 0.7 0.72434 0.47013 0.0
C1134 C 0.14954 0.30035 0.29025 0.0
C1135 C 0.13508 0.30889 0.28048 0.0
C1136 C 0.15098 0.30801 0.30428 0.0
C1137 C 0.15021 0.36144 0.32825 0.0
H1138 H 0.12582 0.29886 0.35565 0.0
C1139 C 0.15108 0.38561 0.38697 0.0
C1140 C 0.15992 0.37058 0.39619 0.0
C1141 C 0.14525 0.37716 0.37299 0.0
C1142 C 0.13311 0.31672 0.34819 0.0
H1143 H 0.11174 0.33327 0.27789 0.0
H1144 H 0.1153 0.34758 0.30243 0.0
H1145 H 0.12226 0.28703 0.3309 0.0
H1146 H 0.16937 0.33481 0.39808 0.0
H1147 H 0.1602 0.32054 0.3736 0.0
H1148 H 0.16231 0.3914 0.34541 0.0
C1149 C 0.12508 0.33452 0.29912 0.0
C1150 C 0.13088 0.30986 0.334 0.0
C1151 C 0.1232 0.32644 0.28506 0.0
C1152 C 0.16224 0.34653 0.39122 0.0
C1153 C 0.15688 0.33835 0.37717 0.0
C1154 C 0.1529 0.36841 0.34246 0.0
C1155 C 0.13854 0.32491 0.30889 0.0
C1156 C 0.13959 0.33217 0.3239 0.0
C1157 C 0.14862 0.35376 0.3678 0.0
C1158 C 0.14456 0.34616 0.35265 0.0
H1159 H 0.15981 0.28765 0.2871 0.0
H1160 H 0.16203 0.30084 0.31154 0.0
H1161 H 0.15732 0.37909 0.32067 0.0
H1162 H 0.14887 0.40409 0.39059 0.0
H1163 H 0.13825 0.38913 0.36624 0.0
C1164 C 0.68207 0.81009 0.28243 0.0
C1165 C 0.71011 0.81524 0.27839 0.0
C1166 C 0.67354 0.80501 0.29645 0.0
C1167 C 0.68653 0.78135 0.33026 0.0
H1168 H 0.66537 0.83688 0.34577 0.0
C1169 C 0.66798 0.78616 0.3897 0.0
C1170 C 0.64598 0.79265 0.39388 0.0
C1171 C 0.67652 0.78863 0.37568 0.0
C1172 C 0.67065 0.82076 0.34165 0.0
H1173 H 0.75071 0.81795 0.28556 0.0
H1174 H 0.73533 0.80792 0.31005 0.0
H1175 H 0.67632 0.83866 0.32105 0.0
H1176 H 0.61671 0.80808 0.38642 0.0
H1177 H 0.63002 0.81049 0.3622 0.0
H1178 H 0.67998 0.76272 0.35071 0.0
C1179 C 0.72011 0.80807 0.30242 0.0
C1180 C 0.67705 0.82193 0.32745 0.0
C1181 C 0.72889 0.81379 0.28845 0.0
C1182 C 0.63317 0.80212 0.38367 0.0
C1183 C 0.64131 0.8041 0.36969 0.0
C1184 C 0.67952 0.77975 0.34446 0.0
C1185 C 0.69269 0.80443 0.3066 0.0
C1186 C 0.68504 0.80226 0.32161 0.0
C1187 C 0.6631 0.7974 0.36543 0.0
C1188 C 0.67141 0.79942 0.35037 0.0
H1189 H 0.66741 0.81147 0.27486 0.0
H1190 H 0.65224 0.80216 0.29942 0.0
H1191 H 0.69265 0.76593 0.32599 0.0
H1192 H 0.67829 0.77867 0.39721 0.0
H1193 H 0.69373 0.78373 0.37291 0.0
C1194 C 0.20603 0.91233 0.28675 0.0
C1195 C 0.19878 0.8891 0.27733 0.0
C1196 C 0.21183 0.90964 0.30073 0.0
C1197 C 0.22726 0.86334 0.32526 0.0
H1198 H 0.19743 0.89635 0.35281 0.0
C1199 C 0.21288 0.82947 0.38309 0.0
C1200 C 0.22399 0.85233 0.39307 0.0
C1201 C 0.21122 0.83543 0.36905 0.0
C1202 C 0.20614 0.88728 0.34524 0.0
H1203 H 0.19235 0.845 0.27504 0.0
H1204 H 0.20164 0.8398 0.29951 0.0
H1205 H 0.19261 0.90388 0.3281 0.0
H1206 H 0.24131 0.89939 0.39599 0.0
H1207 H 0.23759 0.90963 0.3714 0.0
H1208 H 0.23979 0.84588 0.3425 0.0
C1209 C 0.20361 0.86048 0.2961 0.0
C1210 C 0.20352 0.89167 0.33105 0.0
C1211 C 0.19821 0.86338 0.28206 0.0
C1212 C 0.23244 0.88121 0.38864 0.0
C1213 C 0.23044 0.88711 0.37456 0.0
C1214 C 0.22952 0.85865 0.33944 0.0
C1215 C 0.21009 0.88343 0.30569 0.0
C1216 C 0.21392 0.87965 0.32084 0.0
C1217 C 0.2202 0.86432 0.3646 0.0
C1218 C 0.21884 0.87042 0.34958 0.0
H1219 H 0.2069 0.93254 0.28332 0.0
H1220 H 0.21746 0.92808 0.30766 0.0
H1221 H 0.23608 0.85422 0.31777 0.0
H1222 H 0.20532 0.8068 0.38611 0.0
H1223 H 0.20263 0.81731 0.36165 0.0
C1224 C 0.39357 0.15341 0.62196 0.0
C1225 C 0.3773 0.15985 0.61234 0.0
C1226 C 0.38509 0.14813 0.63596 0.0
C1227 C 0.32278 0.13229 0.6602 0.0
H1228 H 0.3852 0.16364 0.68796 0.0
C1229 C 0.30146 0.14631 0.71785 0.0
C1230 C 0.31353 0.13578 0.72795 0.0
C1231 C 0.30947 0.14816 0.70385 0.0
C1232 C 0.36754 0.15452 0.68033 0.0
H1233 H 0.33921 0.16551 0.60976 0.0
H1234 H 0.32473 0.15711 0.63424 0.0
H1235 H 0.39796 0.16822 0.66329 0.0
H1236 H 0.34429 0.11977 0.73112 0.0
H1237 H 0.35889 0.12382 0.70662 0.0
H1238 H 0.29247 0.11951 0.67733 0.0
C1239 C 0.34366 0.15536 0.63098 0.0
C1240 C 0.37479 0.15701 0.66616 0.0
C1241 C 0.35195 0.16025 0.61693 0.0
C1242 C 0.33469 0.12817 0.72369 0.0
C1243 C 0.34298 0.13037 0.70965 0.0
C1244 C 0.31557 0.13015 0.67435 0.0
C1245 C 0.36033 0.14958 0.64074 0.0
C1246 C 0.35252 0.14603 0.65588 0.0
C1247 C 0.33009 0.13997 0.69956 0.0
C1248 C 0.33787 0.14137 0.68457 0.0
H1249 H 0.41304 0.15265 0.61867 0.0
H1250 H 0.39809 0.14306 0.64304 0.0
H1251 H 0.30496 0.12303 0.65266 0.0
H1252 H 0.28576 0.15321 0.72074 0.0
H1253 H 0.29964 0.15625 0.69636 0.0
C1254 C 0.91944 0.19933 0.71982 0.0
C1255 C 0.89803 0.19554 0.72975 0.0
C1256 C 0.91598 0.20458 0.70584 0.0
C1257 C 0.8589 0.18528 0.6804 0.0
H1258 H 0.9171 0.25004 0.65795 0.0
C1259 C 0.83228 0.20281 0.62433 0.0
C1260 C 0.855 0.21558 0.61433 0.0
C1261 C 0.83864 0.20106 0.63829 0.0
C1262 C 0.9008 0.23149 0.66396 0.0
H1263 H 0.85657 0.19465 0.73304 0.0
H1264 H 0.85003 0.20304 0.70844 0.0
H1265 H 0.92674 0.24729 0.68267 0.0
H1266 H 0.9024 0.23567 0.61132 0.0
H1267 H 0.91335 0.23099 0.63556 0.0
H1268 H 0.83347 0.16844 0.66183 0.0
C1269 C 0.86968 0.20241 0.71154 0.0
C1270 C 0.90627 0.23013 0.67816 0.0
C1271 C 0.87348 0.19782 0.72557 0.0
C1272 C 0.88426 0.22558 0.61867 0.0
C1273 C 0.8906 0.22332 0.63266 0.0
C1274 C 0.85369 0.18624 0.66619 0.0
C1275 C 0.89069 0.2054 0.70153 0.0
C1276 C 0.88518 0.2072 0.68652 0.0
C1277 C 0.86787 0.21128 0.64272 0.0
C1278 C 0.87436 0.20956 0.65776 0.0
H1279 H 0.93846 0.19748 0.72283 0.0
H1280 H 0.93236 0.20664 0.6983 0.0
H1281 H 0.84255 0.16704 0.68659 0.0
H1282 H 0.80935 0.19412 0.62143 0.0
H1283 H 0.82047 0.19206 0.64564 0.0
C1284 C 0.80262 0.6861 0.72469 0.0
C1285 C 0.83188 0.70619 0.7288 0.0
C1286 C 0.79589 0.67781 0.71067 0.0
C1287 C 0.82084 0.7045 0.67544 0.0
H1288 H 0.78114 0.62226 0.66409 0.0
C1289 C 0.81701 0.67058 0.61778 0.0
C1290 C 0.7933 0.64356 0.61323 0.0
C1291 C 0.81943 0.6787 0.63184 0.0
C1292 C 0.79166 0.64535 0.66702 0.0
H1293 H 0.87715 0.73186 0.72127 0.0
H1294 H 0.86506 0.71841 0.69693 0.0
H1295 H 0.78889 0.63477 0.68879 0.0
H1296 H 0.75284 0.60445 0.61949 0.0
H1297 H 0.75597 0.61919 0.64383 0.0
H1298 H 0.82312 0.71536 0.65384 0.0
C1299 C 0.84738 0.70934 0.70456 0.0
C1300 C 0.79623 0.65245 0.68121 0.0
C1301 C 0.85421 0.71716 0.71855 0.0
C1302 C 0.77139 0.62538 0.62281 0.0
C1303 C 0.77344 0.63373 0.63679 0.0
C1304 C 0.81577 0.69744 0.66127 0.0
C1305 C 0.81817 0.68978 0.70046 0.0
C1306 C 0.81127 0.68209 0.68553 0.0
C1307 C 0.79788 0.66018 0.64162 0.0
C1308 C 0.80152 0.66776 0.65681 0.0
H1309 H 0.78478 0.67732 0.73221 0.0
H1310 H 0.77316 0.66264 0.70775 0.0
H1311 H 0.83224 0.72756 0.67853 0.0
H1312 H 0.83437 0.68476 0.61059 0.0
H1313 H 0.83884 0.69898 0.63508 0.0
C1314 C 1.0108 0.48297 0.05617 0.0
C1315 C 0.98486 0.45757 0.06055 0.0
C1316 C 0.01944 0.48651 0.04216 0.0
C1317 C 0.98841 0.45959 0.00685 0.0
H1318 H 0.07098 0.50029 0.99592 0.0
C1319 C 0.02711 0.47063 0.94926 0.0
C1320 C 0.0502 0.49865 0.9452 0.0
C1321 C 0.01893 0.46449 0.9633 0.0
C1322 C 0.04782 0.48904 0.99882 0.0
H1323 H 0.94845 0.41531 0.05387 0.0
H1324 H 0.96386 0.42105 0.02955 0.0
H1325 H 0.05795 0.49102 0.02054 0.0
H1326 H 0.08185 0.54254 0.95277 0.0
H1327 H 0.06792 0.53163 0.97715 0.0
H1328 H 0.97837 0.45749 0.98508 0.0
C1329 C 0.97712 0.4387 0.0368 0.0
C1330 C 0.04033 0.48378 0.01294 0.0
C1331 C 0.96837 0.4353 0.05075 0.0
C1332 C 0.0645 0.52048 0.95551 0.0
C1333 C 0.05649 0.51427 0.96951 0.0
C1334 C 0.9959 0.46466 0.99273 0.0
C1335 C 1.00246 0.4646 0.03224 0.0
C1336 C 1.01052 0.46918 0.01717 0.0
C1337 C 0.03377 0.48617 0.9736 0.0
C1338 C 0.0257 0.47968 0.98856 0.0
H1339 H 0.02375 0.50066 0.06345 0.0
H1340 H 0.03888 0.50692 0.03905 0.0
H1341 H 0.96523 0.44877 0.00969 0.0
H1342 H 0.01579 0.45322 0.94164 0.0
H1343 H 1.00143 0.44256 0.96614 0.0
C1344 C 0.59202 0.55156 0.05781 0.0
C1345 C 0.56793 0.54032 0.06709 0.0
C1346 C 0.58813 0.55536 0.04368 0.0
C1347 C 0.53138 0.52427 0.01665 0.0
H1348 H 0.58408 0.59371 0.99505 0.0
C1349 C 0.50374 0.53882 0.96021 0.0
C1350 C 0.52671 0.55393 0.95051 0.0
C1351 C 0.50989 0.53746 0.97426 0.0
C1352 C 0.56941 0.57393 1.00085 0.0
H1353 H 0.52106 0.52498 0.06888 0.0
H1354 H 0.51423 0.53149 0.04418 0.0
H1355 H 0.59275 0.59234 0.02 0.0
H1356 H 0.5744 0.5787 0.94807 0.0
H1357 H 0.58521 0.57531 0.97256 0.0
H1358 H 0.50847 0.50536 0.99762 0.0
C1359 C 0.53612 0.53737 0.04786 0.0
C1360 C 0.5743 0.57326 0.01518 0.0
C1361 C 0.54009 0.53395 0.06202 0.0
C1362 C 0.55613 0.5668 0.95521 0.0
C1363 C 0.56231 0.5652 0.96932 0.0
C1364 C 0.52672 0.52475 1.00233 0.0
C1365 C 0.55998 0.54759 0.03848 0.0
C1366 C 0.55512 0.54854 0.02326 0.0
C1367 C 0.53924 0.55073 0.97907 0.0
C1368 C 0.54543 0.54972 0.99423 0.0
H1369 H 0.61374 0.55671 0.06143 0.0
H1370 H 0.6069 0.5632 0.03671 0.0
H1371 H 0.51659 0.50464 0.02254 0.0
H1372 H 0.48079 0.52804 0.95699 0.0
H1373 H 0.49144 0.52644 0.98139 0.0
C1374 C 0.52375 0.04859 0.05023 0.0
C1375 C 0.50117 0.04036 0.06022 0.0
C1376 C 0.51695 0.04094 0.03624 0.0
C1377 C 0.46226 0.9878 0.01258 0.0
H1378 H 0.49845 0.05069 0.9852 0.0
C1379 C 0.43809 0.96307 0.95399 0.0
C1380 C 0.46165 0.97864 0.94469 0.0
C1381 C 0.44065 0.97166 0.96795 0.0
C1382 C 0.48844 0.03275 0.99265 0.0
H1383 H 0.45355 0.01646 0.06321 0.0
H1384 H 0.44178 1.00207 0.03872 0.0
H1385 H 0.50748 0.0624 0.00994 0.0
H1386 H 0.50619 0.01552 0.94254 0.0
H1387 H 0.5113 0.03001 0.967 0.0
H1388 H 0.44437 0.95786 0.99543 0.0
C1389 C 0.46475 0.01494 0.04185 0.0
C1390 C 0.49348 0.03954 0.00683 0.0
C1391 C 0.47154 0.02305 0.05587 0.0
C1392 C 0.48759 1.0034 0.9495 0.0
C1393 C 0.4904 0.0117 0.96353 0.0
C1394 C 0.45762 0.98089 0.99838 0.0
C1395 C 0.48743 0.02432 0.03188 0.0
C1396 C 0.48062 0.01712 0.01692 0.0
C1397 C 0.46709 0.9957 0.97302 0.0
C1398 C 0.47082 1.00326 0.98818 0.0
H1399 H 0.54685 0.06106 0.05319 0.0
H1400 H 0.53486 0.04791 0.02881 0.0
H1401 H 0.4523 0.97009 0.02016 0.0
H1402 H 0.41777 0.94398 0.95047 0.0
H1403 H 0.42193 0.95921 0.97478 0.0
C1404 C 0.1427 1.00151 0.20491 0.0
C1405 C 0.17012 1.00532 0.2092 0.0
C1406 C 0.14035 0.0259 0.20048 0.0
C1407 C 0.18054 0.10737 0.20494 0.0
H1408 H 0.12299 0.10507 0.17866 0.0
C1409 C 0.17366 0.211 0.19706 0.0
C1410 C 0.14528 0.20691 0.19917 0.0
C1411 C 0.17738 0.18698 0.19378 0.0
C1412 C 0.13923 0.10603 0.18599 0.0
H1413 H 0.21685 0.03674 0.2111 0.0
H1414 H 0.21322 0.07892 0.20284 0.0
H1415 H 0.12835 0.0613 0.18172 0.0
H1416 H 0.09848 0.17518 0.19856 0.0
H1417 H 0.10479 0.13294 0.19291 0.0
H1418 H 0.19114 0.1516 0.20946 0.0
C1419 C 0.1932 0.05756 0.20344 0.0
C1420 C 0.14222 0.08093 0.1878 0.0
C1421 C 0.19539 0.0334 0.20809 0.0
C1422 C 0.12054 0.17897 0.19665 0.0
C1423 C 0.12423 0.15475 0.19351 0.0
C1424 C 0.17773 0.13234 0.20306 0.0
C1425 C 0.1655 0.05445 0.20008 0.0
C1426 C 0.16287 0.08125 0.19738 0.0
C1427 C 0.15276 0.15824 0.19286 0.0
C1428 C 0.15699 0.13205 0.19363 0.0
H1429 H 0.12289 0.98003 0.20572 0.0
H1430 H 0.11863 0.02258 0.19805 0.0
H1431 H 0.19603 0.10838 0.21273 0.0
H1432 H 0.19307 0.2323 0.19914 0.0
H1433 H 0.19965 0.19054 0.19305 0.0
C1434 C 0.83483 0.94698 0.19472 0.0
C1435 C 0.81197 0.94836 0.20179 0.0
C1436 C 0.86037 0.97312 0.19066 0.0
C1437 C 0.89301 0.05523 0.18777 0.0
H1438 H 0.96359 0.05831 0.20263 0.0
C1439 C 0.98794 0.15927 0.21234 0.0
C1440 C 0.01729 0.1656 0.21074 0.0
C1441 C 0.96455 0.13352 0.2067 0.0
C1442 C 0.9443 0.05779 0.19813 0.0
H1443 H 0.79656 0.97762 0.20903 0.0
H1444 H 0.84044 0.02282 0.20182 0.0
H1445 H 0.91842 0.01067 0.2 0.0
H1446 H 0.04524 0.15035 0.20165 0.0
H1447 H 1.00416 0.10488 0.19183 0.0
H1448 H 0.9185 0.10252 0.18667 0.0
C1449 C 0.83906 1.00189 0.19939 0.0
C1450 C 0.91836 0.03042 0.19658 0.0
C1451 C 0.81387 0.97595 0.20359 0.0
C1452 C 0.02285 0.1461 0.20294 0.0
C1453 C 0.99934 0.12001 0.19743 0.0
C1454 C 0.91888 0.08256 0.18937 0.0
C1455 C 0.86319 1.00094 0.19341 0.0
C1456 C 0.89207 0.02891 0.19191 0.0
C1457 C 0.96988 0.11326 0.19942 0.0
C1458 C 0.94449 0.08424 0.19507 0.0
H1459 H 0.83402 0.92601 0.19329 0.0
H1460 H 0.87844 0.97161 0.18595 0.0
H1461 H 0.87332 0.05482 0.18388 0.0
H1462 H 0.98306 0.17404 0.21822 0.0
H1463 H 0.94216 0.12887 0.20859 0.0
C1464 C 0.86742 0.8436 0.21266 0.0
C1465 C 0.86012 0.86578 0.2105 0.0
C1466 C 0.89286 0.8458 0.2067 0.0
C1467 C 0.96732 0.9006 0.19645 0.0
H1468 H 0.96982 0.83188 0.18287 0.0
C1469 C 0.07834 0.90202 0.19255 0.0
C1470 C 0.07725 0.87792 0.1996 0.0
C1471 C 0.05201 0.90127 0.18863 0.0
C1472 C 0.96958 0.85136 0.18658 0.0
H1473 H 0.87319 0.90734 0.20015 0.0
H1474 H 0.91847 0.91166 0.18986 0.0
H1475 H 0.9222 0.8293 0.18614 0.0
H1476 H 0.04831 0.83347 0.2071 0.0
H1477 H 1.00283 0.83179 0.20013 0.0
H1478 H 0.01456 0.9221 0.19776 0.0
C1479 C 0.90421 0.89239 0.19608 0.0
C1480 C 0.94227 0.84987 0.18843 0.0
C1481 C 0.8783 0.88987 0.20187 0.0
C1482 C 0.04975 0.85224 0.20155 0.0
C1483 C 0.02362 0.85132 0.19752 0.0
C1484 C 0.99469 0.90204 0.19469 0.0
C1485 C 0.91193 0.8705 0.19858 0.0
C1486 C 0.94077 0.8741 0.19388 0.0
C1487 C 0.02426 0.87626 0.19157 0.0
C1488 C 0.9961 0.87703 0.19027 0.0
H1489 H 0.85368 0.82479 0.21924 0.0
H1490 H 0.89829 0.82873 0.20898 0.0
H1491 H 0.96692 0.9196 0.20074 0.0
H1492 H 0.09921 0.92223 0.19105 0.0
H1493 H 0.05332 0.92075 0.18393 0.0
C1494 C 0.99779 0.12764 0.80672 0.0
C1495 C 1.00409 0.15226 0.7984 0.0
C1496 C 0.02088 0.12466 0.81252 0.0
C1497 C 0.10106 0.1662 0.8209 0.0
H1498 H 0.10092 0.09436 0.81048 0.0
C1499 C 0.20617 0.16368 0.80793 0.0
C1500 C 0.20728 0.13746 0.80908 0.0
C1501 C 0.18111 0.16469 0.81217 0.0
C1502 C 0.10116 0.11428 0.81386 0.0
H1503 H 0.03906 0.19371 0.79024 0.0
H1504 H 0.07924 0.18895 0.80053 0.0
H1505 H 0.0562 0.09751 0.80744 0.0
H1506 H 0.18389 0.09222 0.81643 0.0
H1507 H 0.13989 0.09392 0.82403 0.0
H1508 H 0.14626 0.1834 0.82689 0.0
C1509 C 0.05663 0.17182 0.80255 0.0
C1510 C 0.07546 0.11609 0.81207 0.0
C1511 C 0.03368 0.17449 0.79657 0.0
C1512 C 0.1838 0.11286 0.81562 0.0
C1513 C 0.15844 0.11375 0.81978 0.0
C1514 C 0.12665 0.16431 0.82282 0.0
C1515 C 0.05059 0.14661 0.81034 0.0
C1516 C 0.07552 0.1425 0.81502 0.0
C1517 C 0.15629 0.13933 0.81753 0.0
C1518 C 0.12746 0.13879 0.81875 0.0
H1519 H 0.97514 0.11011 0.80817 0.0
H1520 H 0.01556 0.105 0.81848 0.0
H1521 H 0.10162 0.18668 0.82349 0.0
H1522 H 0.22383 0.1828 0.80273 0.0
H1523 H 0.18036 0.1847 0.81009 0.0
C1524 C 0.84835 0.04094 0.80649 0.0
C1525 C 0.87442 0.06839 0.80775 0.0
C1526 C 0.84752 0.01498 0.81074 0.0
C1527 C 0.89758 0.9855 0.81244 0.0
H1528 H 0.82622 0.91446 0.82399 0.0
C1529 C 0.88464 0.86904 0.8064 0.0
C1530 C 0.85853 0.84898 0.79942 0.0
C1531 C 0.88804 0.89558 0.81177 0.0
C1532 C 0.84639 0.93411 0.82081 0.0
H1533 H 0.91949 0.09055 0.81537 0.0
H1534 H 0.91821 0.04493 0.8228 0.0
H1535 H 0.82964 0.9626 0.82666 0.0
H1536 H 0.81495 0.84015 0.79327 0.0
H1537 H 0.8207 0.88615 0.8026 0.0
H1538 H 0.91379 0.95687 0.80601 0.0
C1539 C 0.89837 0.04354 0.81848 0.0
C1540 C 0.84837 0.96171 0.82236 0.0
C1541 C 0.89904 0.06969 0.81437 0.0
C1542 C 0.8354 0.85531 0.7985 0.0
C1543 C 0.83862 0.88156 0.80398 0.0
C1544 C 0.89562 0.95787 0.81092 0.0
C1545 C 0.8729 0.01578 0.81622 0.0
C1546 C 0.87351 0.98763 0.81767 0.0
C1547 C 0.86519 0.90233 0.81043 0.0
C1548 C 0.86954 0.93177 0.81459 0.0
H1549 H 0.82909 0.03934 0.80136 0.0
H1550 H 0.8276 0.99411 0.8087 0.0
H1551 H 0.91716 1.00492 0.80859 0.0
H1552 H 0.90289 0.86484 0.80714 0.0
H1553 H 0.90873 0.91106 0.81673 0.0
C1554 C 0.17024 0.98332 0.79736 0.0
C1555 C 0.17345 0.01166 0.79716 0.0
C1556 C 0.14395 0.95894 0.80194 0.0
C1557 C 0.07092 0.93517 0.8192 0.0
H1558 H 0.04695 0.8656 0.79632 0.0
C1559 C 0.95019 0.83758 0.81191 0.0
C1560 C 0.94658 0.80965 0.80888 0.0
C1561 C 0.97844 0.86171 0.8146 0.0
C1562 C 0.05343 0.88455 0.80304 0.0
H1563 H 0.15221 0.03704 0.80215 0.0
H1564 H 0.10557 0.99419 0.80974 0.0
H1565 H 0.09492 0.90886 0.7927 0.0
H1566 H 0.96891 0.78427 0.80744 0.0
H1567 H 0.01791 0.82586 0.81271 0.0
H1568 H 0.02833 0.91071 0.82907 0.0
C1569 C 0.12361 0.9908 0.80664 0.0
C1570 C 0.08113 0.90954 0.80096 0.0
C1571 C 0.15028 0.01538 0.80226 0.0
C1572 C 0.97107 0.80552 0.80998 0.0
C1573 C 0.99919 0.82946 0.81277 0.0
C1574 C 0.0429 0.91006 0.82121 0.0
C1575 C 0.11982 0.96209 0.80617 0.0
C1576 C 0.0904 0.93526 0.80899 0.0
C1577 C 1.00349 0.85819 0.81425 0.0
C1578 C 0.03386 0.88442 0.81314 0.0
H1579 H 0.18799 0.97998 0.7937 0.0
H1580 H 0.14235 0.93743 0.80184 0.0
H1581 H 0.0773 0.95446 0.82566 0.0
H1582 H 0.93178 0.84144 0.81078 0.0
H1583 H 0.98092 0.8835 0.81566 0.0
C1584 C 0.84263 0.53707 0.53729 0.0
C1585 C 0.81695 0.53905 0.53563 0.0
C1586 C 0.84318 0.5117 0.53319 0.0
C1587 C 0.79229 0.43229 0.53094 0.0
H1588 H 0.86372 0.43173 0.52033 0.0
C1589 C 0.80357 0.32758 0.53702 0.0
C1590 C 0.82909 0.33325 0.54446 0.0
C1591 C 0.8007 0.35105 0.53164 0.0
C1592 C 0.84352 0.43146 0.52324 0.0
H1593 H 0.7723 0.51682 0.52746 0.0
H1594 H 0.7731 0.4721 0.5203 0.0
H1595 H 0.86121 0.47693 0.51761 0.0
H1596 H 0.87218 0.36758 0.5514 0.0
H1597 H 0.86741 0.40834 0.54201 0.0
H1598 H 0.7751 0.38714 0.53712 0.0
C1599 C 0.79285 0.49027 0.52482 0.0
C1600 C 0.84207 0.45735 0.52167 0.0
C1601 C 0.79247 0.51601 0.52878 0.0
C1602 C 0.85219 0.36262 0.54582 0.0
C1603 C 0.84953 0.38593 0.54031 0.0
C1604 C 0.79371 0.40632 0.53246 0.0
C1605 C 0.81789 0.48743 0.52745 0.0
C1606 C 0.81689 0.45846 0.52603 0.0
C1607 C 0.82354 0.38055 0.53339 0.0
C1608 C 0.81979 0.40596 0.52915 0.0
H1609 H 0.86177 0.55447 0.5426 0.0
H1610 H 0.86277 0.51032 0.53552 0.0
H1611 H 0.77264 0.43236 0.53452 0.0
H1612 H 0.78536 0.30516 0.53592 0.0
H1613 H 0.78045 0.34617 0.52633 0.0
C1614 C 0.67826 0.4633 0.55438 0.0
C1615 C 0.69202 0.48954 0.54656 0.0
C1616 C 0.65621 0.437 0.54852 0.0
C1617 C 0.59763 0.4095 0.52268 0.0
H1618 H 0.58999 0.33398 0.5327 0.0
C1619 C 0.50676 0.27487 0.52551 0.0
C1620 C 0.48466 0.27732 0.53272 0.0
C1621 C 0.53308 0.30044 0.52162 0.0
C1622 C 0.59192 0.35477 0.52948 0.0
H1623 H 0.69405 0.5087 0.52632 0.0
H1624 H 0.65468 0.46243 0.516 0.0
H1625 H 0.63649 0.37951 0.53695 0.0
H1626 H 0.47121 0.30796 0.54018 0.0
H1627 H 0.5163 0.35221 0.53311 0.0
H1628 H 0.55252 0.38478 0.51583 0.0
C1629 C 0.66125 0.46235 0.52669 0.0
C1630 C 0.61852 0.38092 0.53207 0.0
C1631 C 0.68381 0.48873 0.53255 0.0
C1632 C 0.48788 0.30547 0.53457 0.0
C1633 C 0.5138 0.33088 0.5305 0.0
C1634 C 0.57091 0.38331 0.52016 0.0
C1635 C 0.64705 0.43623 0.53468 0.0
C1636 C 0.62131 0.40864 0.52921 0.0
C1637 C 0.53739 0.32877 0.52466 0.0
C1638 C 0.56736 0.35569 0.52404 0.0
H1639 H 0.68438 0.46321 0.56515 0.0
H1640 H 0.64553 0.41744 0.55502 0.0
H1641 H 0.59904 0.43049 0.52037 0.0
H1642 H 0.50497 0.25351 0.52398 0.0
H1643 H 0.55071 0.29805 0.51699 0.0
C1644 C 0.71424 0.17903 0.53453 0.0
C1645 C 0.74156 0.20533 0.53362 0.0
C1646 C 0.68822 0.17815 0.53034 0.0
C1647 C 0.65827 0.22797 0.52974 0.0
H1648 H 0.58737 0.15704 0.51768 0.0
C1649 C 0.54143 0.21435 0.53603 0.0
C1650 C 0.52112 0.18776 0.54261 0.0
C1651 C 0.56821 0.21817 0.53076 0.0
C1652 C 0.60698 0.17709 0.52102 0.0
H1653 H 0.76344 0.25086 0.52666 0.0
H1654 H 0.71776 0.2495 0.51932 0.0
H1655 H 0.6356 0.1608 0.5147 0.0
H1656 H 0.51225 0.14385 0.54816 0.0
H1657 H 0.55868 0.15037 0.53903 0.0
H1658 H 0.62951 0.24371 0.53661 0.0
C1659 C 0.7165 0.22949 0.52331 0.0
C1660 C 0.63463 0.17926 0.51929 0.0
C1661 C 0.74272 0.23021 0.52735 0.0
C1662 C 0.52757 0.16468 0.54327 0.0
C1663 C 0.55408 0.16834 0.53789 0.0
C1664 C 0.63059 0.22582 0.53144 0.0
C1665 C 0.68881 0.20375 0.52531 0.0
C1666 C 0.66053 0.20424 0.52413 0.0
C1667 C 0.575 0.19529 0.53179 0.0
C1668 C 0.60452 0.19987 0.52759 0.0
H1669 H 0.71275 0.15963 0.53945 0.0
H1670 H 0.66742 0.15801 0.53217 0.0
H1671 H 0.67766 0.24741 0.53373 0.0
H1672 H 0.53715 0.2326 0.53546 0.0
H1673 H 0.5838 0.23915 0.52607 0.0
C1674 C 0.88146 0.50242 0.1369 0.0
C1675 C 0.87755 0.47385 0.13752 0.0
C1676 C 0.85768 0.50701 0.13933 0.0
C1677 C 0.77932 0.4737 0.15038 0.0
H1678 H 0.77526 0.51732 0.11855 0.0
C1679 C 0.67365 0.4795 0.13589 0.0
C1680 C 0.67809 0.50668 0.13071 0.0
C1681 C 0.69773 0.47509 0.13818 0.0
C1682 C 0.77613 0.50551 0.12765 0.0
H1683 H 0.84653 0.428 0.14219 0.0
H1684 H 0.80471 0.43592 0.1465 0.0
H1685 H 0.81834 0.51187 0.12172 0.0
H1686 H 0.71172 0.55038 0.1238 0.0
H1687 H 0.75321 0.54311 0.12821 0.0
H1688 H 0.73685 0.46743 0.15627 0.0
C1689 C 0.82623 0.45486 0.14429 0.0
C1690 C 0.80094 0.50239 0.12947 0.0
C1691 C 0.85021 0.45032 0.14193 0.0
C1692 C 0.70722 0.52926 0.12794 0.0
C1693 C 0.73116 0.52494 0.13031 0.0
C1694 C 0.75444 0.47706 0.14862 0.0
C1695 C 0.82939 0.483 0.14222 0.0
C1696 C 0.803 0.48667 0.1409 0.0
C1697 C 0.72681 0.49775 0.13534 0.0
C1698 C 0.75266 0.49321 0.13725 0.0
H1699 H 0.90225 0.52081 0.13332 0.0
H1700 H 0.86094 0.52905 0.13792 0.0
H1701 H 0.78023 0.46132 0.15924 0.0
H1702 H 0.65166 0.46167 0.1383 0.0
H1703 H 0.6935 0.45377 0.14196 0.0
C1704 C 0.55288 0.20645 0.13537 0.0
C1705 C 0.52664 0.18353 0.12965 0.0
C1706 C 0.55414 0.23257 0.14003 0.0
C1707 C 0.51497 0.27444 0.13374 0.0
H1708 H 0.56729 0.327 0.16235 0.0
C1709 C 0.5213 0.38502 0.14222 0.0
C1710 C 0.55008 0.4093 0.1415 0.0
C1711 C 0.51669 0.35671 0.14498 0.0
C1712 C 0.55251 0.31247 0.15436 0.0
H1713 H 0.48067 0.16858 0.12534 0.0
H1714 H 0.48218 0.21317 0.13408 0.0
H1715 H 0.56228 0.27807 0.15916 0.0
H1716 H 0.59654 0.42364 0.14386 0.0
H1717 H 0.58863 0.37415 0.14871 0.0
H1718 H 0.5055 0.30867 0.12874 0.0
C1719 C 0.50224 0.21188 0.13446 0.0
C1720 C 0.54972 0.28448 0.15248 0.0
C1721 C 0.50121 0.18619 0.12957 0.0
C1722 C 0.5741 0.4053 0.14469 0.0
C1723 C 0.56953 0.3769 0.1474 0.0
C1724 C 0.51754 0.30211 0.1357 0.0
C1725 C 0.529 0.23598 0.13921 0.0
C1726 C 0.53103 0.26514 0.14205 0.0
C1727 C 0.54085 0.35209 0.14683 0.0
C1728 C 0.53646 0.32162 0.14595 0.0
H1729 H 0.5728 0.20486 0.13543 0.0
H1730 H 0.57518 0.25061 0.14354 0.0
H1731 H 0.50104 0.26076 0.12532 0.0
H1732 H 0.50251 0.38754 0.13952 0.0
H1733 H 0.49429 0.33815 0.14471 0.0
C1734 C 0.61556 0.16931 0.14581 0.0
C1735 C 0.6164 0.14473 0.14041 0.0
C1736 C 0.64191 0.19493 0.14959 0.0
C1737 C 0.7235 0.22583 0.15442 0.0
H1738 H 0.73008 0.29412 0.13511 0.0
C1739 C 0.83227 0.31596 0.13056 0.0
C1740 C 0.83877 0.34554 0.1304 0.0
C1741 C 0.8054 0.29362 0.13588 0.0
C1742 C 0.7286 0.27554 0.14083 0.0
H1743 H 0.64473 0.12657 0.1358 0.0
H1744 H 0.6903 0.17056 0.14264 0.0
H1745 H 0.6816 0.25032 0.13823 0.0
H1746 H 0.82238 0.37493 0.13603 0.0
H1747 H 0.7752 0.3358 0.14538 0.0
H1748 H 0.7707 0.25058 0.15639 0.0
C1749 C 0.66964 0.17045 0.14401 0.0
C1750 C 0.70071 0.25037 0.14266 0.0
C1751 C 0.64348 0.14514 0.14009 0.0
C1752 C 0.8181 0.3524 0.13612 0.0
C1753 C 0.791 0.32995 0.14135 0.0
C1754 C 0.75136 0.25095 0.15255 0.0
C1755 C 0.66941 0.19618 0.14818 0.0
C1756 C 0.69792 0.2248 0.14904 0.0
C1757 C 0.78417 0.30021 0.14113 0.0
C1758 C 0.75436 0.27572 0.1453 0.0
H1759 H 0.59504 0.16975 0.14596 0.0
H1760 H 0.64092 0.21426 0.15291 0.0
H1761 H 0.72212 0.20673 0.15959 0.0
H1762 H 0.84785 0.31002 0.12635 0.0
H1763 H 0.8008 0.27097 0.13537 0.0
C1764 C 0.45253 0.84482 0.86154 0.0
C1765 C 0.47695 0.86907 0.86777 0.0
C1766 C 0.45383 0.81932 0.85805 0.0
C1767 C 0.50543 0.78883 0.85564 0.0
H1768 H 0.43991 0.71841 0.87177 0.0
C1769 C 0.51892 0.6968 0.88092 0.0
C1770 C 0.49647 0.66712 0.87964 0.0
C1771 C 0.51544 0.71953 0.87525 0.0
C1772 C 0.45815 0.73765 0.86694 0.0
H1773 H 0.52235 0.8867 0.87433 0.0
H1774 H 0.52497 0.843 0.86805 0.0
H1775 H 0.4358 0.76256 0.86849 0.0
H1776 H 0.45301 0.63788 0.87111 0.0
H1777 H 0.44664 0.67783 0.86126 0.0
H1778 H 0.52835 0.76437 0.85482 0.0
C1779 C 0.50479 0.84326 0.86575 0.0
C1780 C 0.45577 0.76302 0.86502 0.0
C1781 C 0.50335 0.86842 0.86935 0.0
C1782 C 0.47075 0.66056 0.87215 0.0
C1783 C 0.46704 0.68342 0.86662 0.0
C1784 C 0.50785 0.76356 0.85763 0.0
C1785 C 0.47968 0.81785 0.86062 0.0
C1786 C 0.4798 0.7893 0.85981 0.0
C1787 C 0.48924 0.71323 0.86826 0.0
C1788 C 0.48463 0.73799 0.86376 0.0
H1789 H 0.43174 0.84453 0.86042 0.0
H1790 H 0.43417 0.80027 0.85399 0.0
H1791 H 0.52416 0.80845 0.85134 0.0
H1792 H 0.53904 0.70247 0.88656 0.0
H1793 H 0.53285 0.74219 0.87686 0.0
C1794 C 0.32069 0.83106 0.87408 0.0
C1795 C 0.34882 0.83393 0.87505 0.0
C1796 C 0.29677 0.80518 0.86884 0.0
C1797 C 0.27483 0.73231 0.85168 0.0
H1798 H 0.20306 0.70767 0.87295 0.0
C1799 C 0.18217 0.61134 0.86096 0.0
C1800 C 0.15332 0.60588 0.86327 0.0
C1801 C 0.20493 0.63981 0.85757 0.0
C1802 C 0.22263 0.71436 0.86664 0.0
H1803 H 0.37448 0.81269 0.87081 0.0
H1804 H 0.33242 0.76667 0.86217 0.0
H1805 H 0.24527 0.7563 0.87671 0.0
H1806 H 0.12499 0.62508 0.86291 0.0
H1807 H 0.16445 0.67469 0.85659 0.0
H1808 H 0.25216 0.68918 0.84225 0.0
C1809 C 0.32882 0.78467 0.86509 0.0
C1810 C 0.24702 0.74245 0.8688 0.0
C1811 C 0.35296 0.81096 0.87007 0.0
C1812 C 0.14696 0.62862 0.86086 0.0
C1813 C 0.16966 0.6571 0.85747 0.0
C1814 C 0.25036 0.70393 0.84962 0.0
C1815 C 0.30018 0.78111 0.86478 0.0
C1816 C 0.27363 0.75182 0.86147 0.0
C1817 C 0.19919 0.66338 0.8566 0.0
C1818 C 0.22406 0.69454 0.85719 0.0
H1819 H 0.31713 0.84871 0.87768 0.0
H1820 H 0.27537 0.80378 0.86836 0.0
H1821 H 0.29475 0.73879 0.84571 0.0
H1822 H 0.18773 0.59436 0.86314 0.0
H1823 H 0.22739 0.64385 0.85707 0.0
C1824 C 0.38471 0.51158 0.87036 0.0
C1825 C 0.41164 0.5383 0.86946 0.0
C1826 C 0.35839 0.50984 0.86597 0.0
C1827 C 0.3265 0.55775 0.86507 0.0
H1828 H 0.25727 0.48665 0.85182 0.0
C1829 C 0.20913 0.54292 0.86942 0.0
C1830 C 0.18757 0.5155 0.87486 0.0
C1831 C 0.2365 0.54714 0.86485 0.0
C1832 C 0.27637 0.50669 0.85555 0.0
H1833 H 0.43258 0.58369 0.86236 0.0
H1834 H 0.38637 0.58084 0.85471 0.0
H1835 H 0.3061 0.49146 0.84962 0.0
H1836 H 0.17743 0.47064 0.87917 0.0
H1837 H 0.22507 0.478 0.87147 0.0
H1838 H 0.29672 0.57242 0.87161 0.0
C1839 C 0.38566 0.56115 0.85881 0.0
C1840 C 0.30438 0.5095 0.85423 0.0
C1841 C 0.41218 0.56273 0.86303 0.0
C1842 C 0.19364 0.49212 0.87517 0.0
C1843 C 0.22089 0.49627 0.87058 0.0
C1844 C 0.29847 0.55493 0.86641 0.0
C1845 C 0.35832 0.53499 0.86077 0.0
C1846 C 0.32968 0.53464 0.85939 0.0
C1847 C 0.24289 0.52397 0.86556 0.0
C1848 C 0.27294 0.52894 0.86209 0.0
H1849 H 0.38371 0.49252 0.87542 0.0
H1850 H 0.33784 0.48941 0.86777 0.0
H1851 H 0.34542 0.57726 0.86933 0.0
H1852 H 0.20532 0.56146 0.86917 0.0
H1853 H 0.25282 0.56869 0.86095 0.0
C1854 C 0.51188 0.77625 0.47592 0.0
C1855 C 0.54066 0.8002 0.47408 0.0
C1856 C 0.48845 0.7812 0.47901 0.0
C1857 C 0.46945 0.83753 0.47038 0.0
H1858 H 0.39724 0.78849 0.49101 0.0
C1859 C 0.37154 0.8572 0.46468 0.0
C1860 C 0.34326 0.8322 0.46358 0.0
C1861 C 0.39547 0.85461 0.46938 0.0
C1862 C 0.41718 0.80229 0.48511 0.0
H1863 H 0.56799 0.84781 0.47488 0.0
H1864 H 0.52737 0.85654 0.48069 0.0
H1865 H 0.43998 0.78153 0.4941 0.0
H1866 H 0.31747 0.785 0.46695 0.0
H1867 H 0.35948 0.78001 0.47473 0.0
H1868 H 0.44672 0.85728 0.4608 0.0
C1869 C 0.52274 0.83394 0.47967 0.0
C1870 C 0.44172 0.79838 0.48696 0.0
C1871 C 0.54609 0.82897 0.47656 0.0
C1872 C 0.33906 0.80462 0.46784 0.0
C1873 C 0.36318 0.80186 0.47232 0.0
C1874 C 0.44498 0.84122 0.46844 0.0
C1875 C 0.49341 0.81022 0.48015 0.0
C1876 C 0.46811 0.81589 0.47954 0.0
C1877 C 0.39191 0.82675 0.47279 0.0
C1878 C 0.41838 0.82359 0.4757 0.0
H1879 H 0.50694 0.75392 0.47363 0.0
H1880 H 0.46616 0.76244 0.47922 0.0
H1881 H 0.48907 0.85087 0.46419 0.0
H1882 H 0.37519 0.87875 0.46162 0.0
H1883 H 0.41695 0.87445 0.47 0.0
C1884 C 0.21265 0.53693 0.46904 0.0
C1885 C 0.18504 0.51358 0.46477 0.0
C1886 C 0.21553 0.56396 0.47335 0.0
C1887 C 0.17662 0.60674 0.46905 0.0
H1888 H 0.23586 0.66139 0.49491 0.0
C1889 C 0.18858 0.71993 0.47687 0.0
C1890 C 0.21738 0.74328 0.47448 0.0
C1891 C 0.18363 0.69167 0.48009 0.0
C1892 C 0.21914 0.64629 0.48771 0.0
H1893 H 0.13853 0.4992 0.4627 0.0
H1894 H 0.14309 0.54556 0.47078 0.0
H1895 H 0.22885 0.61164 0.49193 0.0
H1896 H 0.26368 0.75605 0.47438 0.0
H1897 H 0.25523 0.70681 0.48012 0.0
H1898 H 0.16715 0.64123 0.46463 0.0
C1899 C 0.16286 0.54376 0.47026 0.0
C1900 C 0.21521 0.61782 0.48592 0.0
C1901 C 0.16013 0.51707 0.46572 0.0
C1902 C 0.24134 0.73859 0.47658 0.0
C1903 C 0.23642 0.71027 0.47976 0.0
C1904 C 0.18034 0.63492 0.47092 0.0
C1905 C 0.19075 0.56799 0.47367 0.0
C1906 C 0.19405 0.59772 0.47645 0.0
C1907 C 0.2074 0.68615 0.48076 0.0
C1908 C 0.20179 0.6552 0.48017 0.0
H1909 H 0.23221 0.53481 0.46831 0.0
H1910 H 0.23741 0.58206 0.47579 0.0
H1911 H 0.1607 0.59243 0.46136 0.0
H1912 H 0.16974 0.72289 0.47501 0.0
H1913 H 0.16103 0.67368 0.48103 0.0
C1914 C 0.4765 0.6601 0.4527 0.0
C1915 C 0.49955 0.67767 0.46195 0.0
C1916 C 0.44874 0.63898 0.45771 0.0
C1917 C 0.41205 0.58841 0.48597 0.0
H1918 H 0.34113 0.58212 0.46962 0.0
C1919 C 0.30407 0.47997 0.47563 0.0
C1920 C 0.27705 0.47974 0.4758 0.0
C1921 C 0.33038 0.5055 0.47925 0.0
C1922 C 0.36059 0.58379 0.47455 0.0
H1923 H 0.51165 0.68704 0.48369 0.0
H1924 H 0.46291 0.64907 0.49255 0.0
H1925 H 0.38913 0.62565 0.46492 0.0
H1926 H 0.25604 0.50531 0.48092 0.0
H1927 H 0.30208 0.55014 0.48713 0.0
H1928 H 0.3836 0.54561 0.49489 0.0
C1929 C 0.46645 0.65209 0.48141 0.0
C1930 C 0.3881 0.60863 0.47174 0.0
C1931 C 0.49419 0.67379 0.47636 0.0
C1932 C 0.27643 0.50466 0.48087 0.0
C1933 C 0.30287 0.53046 0.48428 0.0
C1934 C 0.38449 0.56328 0.48862 0.0
C1935 C 0.44345 0.63455 0.47209 0.0
C1936 C 0.41418 0.61081 0.47709 0.0
C1937 C 0.33027 0.53155 0.48286 0.0
C1938 C 0.35853 0.56035 0.48263 0.0
H1939 H 0.47993 0.66286 0.44155 0.0
H1940 H 0.43152 0.62561 0.45029 0.0
H1941 H 0.43183 0.5895 0.49017 0.0
H1942 H 0.30516 0.46117 0.47154 0.0
H1943 H 0.35105 0.50559 0.47793 0.0
loop_
_geom_bond_atom_site_label_1
_geom_bond_atom_site_label_2
_geom_bond_distance
_geom_bond_site_symmetry_2
_ccdc_geom_bond_type
C0 C1 1.351 . S
C0 N3 1.368 . S
C0 H5 0.931 . S
C1 C0 1.351 . S
C1 N2 1.373 . S
C1 H29 0.930 . S
N2 C1 1.373 . S
N2 C4 1.340 . S
N3 C0 1.368 . S
N3 C4 1.321 . S
N3 Co6 2.135 . S
C4 N2 1.340 . S
C4 N3 1.321 . S
C4 H28 0.930 . S
H5 C0 0.931 . S
Co6 N3 2.135 . S
Co6 N9 2.121 . S
Co6 O14 2.055 . S
Co6 O17 2.039 . S
Co6 N20 2.140 . S
C7 O8 1.227 . S
C7 O17 1.265 . S
O8 C7 1.227 . S
N9 Co6 2.121 . S
N9 C11 1.375 . S
N9 C12 1.313 . S
C10 C11 1.338 . S
C10 N13 1.377 . S
C10 H30 0.930 . S
C11 N9 1.375 . S
C11 C10 1.338 . S
C11 H15 0.931 . S
C12 N9 1.313 . S
C12 N13 1.344 . S
C12 H16 0.930 . S
N13 C10 1.377 . S
N13 C12 1.344 . S
O14 Co6 2.055 . S
O14 C18 1.253 . S
H15 C11 0.931 . S
H16 C12 0.930 . S
O17 Co6 2.039 . S
O17 C7 1.265 . S
C18 O14 1.253 . S
C18 O19 1.227 . S
O19 C18 1.227 . S
N20 Co6 2.140 . S
N20 C23 1.346 . S
N20 C24 1.345 . S
C21 C22 1.387 . S
C21 C25 1.391 . S
C22 C21 1.387 . S
C22 C23 1.369 . S
C22 H31 0.929 . S
C23 N20 1.346 . S
C23 C22 1.369 . S
C23 H26 0.928 . S
C24 N20 1.345 . S
C24 C25 1.371 . S
C24 H27 0.931 . S
C25 C21 1.391 . S
C25 C24 1.371 . S
C25 H32 0.930 . S
H26 C23 0.928 . S
H27 C24 0.931 . S
H28 C4 0.930 . S
H29 C1 0.930 . S
H30 C10 0.930 . S
H31 C22 0.929 . S
H32 C25 0.930 . S
C33 C34 1.351 . S
C33 N36 1.368 . S
C33 H38 0.931 . S
C34 C33 1.351 . S
C34 N35 1.373 . S
C34 H62 0.930 . S
N35 C34 1.373 . S
N35 C37 1.340 . S
N36 C33 1.368 . S
N36 C37 1.321 . S
N36 Co39 2.135 . S
C37 N35 1.340 . S
C37 N36 1.321 . S
C37 H61 0.930 . S
H38 C33 0.931 . S
Co39 N36 2.135 . S
Co39 N42 2.121 . S
Co39 O47 2.055 . S
Co39 O50 2.039 . S
Co39 N53 2.140 . S
C40 O41 1.227 . S
C40 O50 1.265 . S
O41 C40 1.227 . S
N42 Co39 2.121 . S
N42 C44 1.375 . S
N42 C45 1.313 . S
C43 C44 1.338 . S
C43 N46 1.377 . S
C43 H63 0.930 . S
C44 N42 1.375 . S
C44 C43 1.338 . S
C44 H48 0.931 . S
C45 N42 1.313 . S
C45 N46 1.344 . S
C45 H49 0.930 . S
N46 C43 1.377 . S
N46 C45 1.344 . S
O47 Co39 2.055 . S
O47 C51 1.253 . S
H48 C44 0.931 . S
H49 C45 0.930 . S
O50 Co39 2.039 . S
O50 C40 1.265 . S
C51 O47 1.253 . S
C51 O52 1.227 . S
O52 C51 1.227 . S
N53 Co39 2.140 . S
N53 C56 1.346 . S
N53 C57 1.345 . S
C54 C55 1.387 . S
C54 C58 1.391 . S
C55 C54 1.387 . S
C55 C56 1.369 . S
C55 H64 0.929 . S
C56 N53 1.346 . S
C56 C55 1.369 . S
C56 H59 0.928 . S
C57 N53 1.345 . S
C57 C58 1.371 . S
C57 H60 0.931 . S
C58 C54 1.391 . S
C58 C57 1.371 . S
C58 H65 0.930 . S
H59 C56 0.928 . S
H60 C57 0.931 . S
H61 C37 0.930 . S
H62 C34 0.930 . S
H63 C43 0.930 . S
H64 C55 0.929 . S
H65 C58 0.930 . S
C66 C67 1.351 . S
C66 N69 1.368 . S
C66 H71 0.931 . S
C67 C66 1.351 . S
C67 N68 1.373 . S
C67 H95 0.930 . S
N68 C67 1.373 . S
N68 C70 1.340 . S
N69 C66 1.368 . S
N69 C70 1.321 . S
N69 Co72 2.135 . S
C70 N68 1.340 . S
C70 N69 1.321 . S
C70 H94 0.930 . S
H71 C66 0.931 . S
Co72 N69 2.135 . S
Co72 N75 2.121 . S
Co72 O80 2.055 . S
Co72 O83 2.039 . S
Co72 N86 2.140 . S
C73 O74 1.227 . S
C73 O83 1.265 . S
O74 C73 1.227 . S
N75 Co72 2.121 . S
N75 C77 1.375 . S
N75 C78 1.313 . S
C76 C77 1.338 . S
C76 N79 1.377 . S
C76 H96 0.930 . S
C77 N75 1.375 . S
C77 C76 1.338 . S
C77 H81 0.931 . S
C78 N75 1.313 . S
C78 N79 1.344 . S
C78 H82 0.930 . S
N79 C76 1.377 . S
N79 C78 1.344 . S
O80 Co72 2.055 . S
O80 C84 1.253 . S
H81 C77 0.931 . S
H82 C78 0.930 . S
O83 Co72 2.039 . S
O83 C73 1.265 . S
C84 O80 1.253 . S
C84 O85 1.227 . S
O85 C84 1.227 . S
N86 Co72 2.140 . S
N86 C89 1.346 . S
N86 C90 1.345 . S
C87 C88 1.387 . S
C87 C91 1.391 . S
C88 C87 1.387 . S
C88 C89 1.369 . S
C88 H97 0.929 . S
C89 N86 1.346 . S
C89 C88 1.369 . S
C89 H92 0.928 . S
C90 N86 1.345 . S
C90 C91 1.371 . S
C90 H93 0.931 . S
C91 C87 1.391 . S
C91 C90 1.371 . S
C91 H98 0.930 . S
H92 C89 0.928 . S
H93 C90 0.931 . S
H94 C70 0.930 . S
H95 C67 0.930 . S
H96 C76 0.930 . S
H97 C88 0.929 . S
H98 C91 0.930 . S
C99 C100 1.351 . S
C99 N102 1.368 . S
C99 H104 0.931 . S
C100 C99 1.351 . S
C100 N101 1.373 . S
C100 H128 0.930 . S
N101 C100 1.373 . S
N101 C103 1.340 . S
N102 C99 1.368 . S
N102 C103 1.321 . S
N102 Co105 2.135 . S
C103 N101 1.340 . S
C103 N102 1.321 . S
C103 H127 0.930 . S
H104 C99 0.931 . S
Co105 N102 2.135 . S
Co105 N108 2.121 . S
Co105 O113 2.055 . S
Co105 O116 2.039 . S
Co105 N119 2.140 . S
C106 O107 1.227 . S
C106 O116 1.265 . S
O107 C106 1.227 . S
N108 Co105 2.121 . S
N108 C110 1.375 . S
N108 C111 1.313 . S
C109 C110 1.338 . S
C109 N112 1.377 . S
C109 H129 0.930 . S
C110 N108 1.375 . S
C110 C109 1.338 . S
C110 H114 0.931 . S
C111 N108 1.313 . S
C111 N112 1.344 . S
C111 H115 0.930 . S
N112 C109 1.377 . S
N112 C111 1.344 . S
O113 Co105 2.055 . S
O113 C117 1.253 . S
H114 C110 0.931 . S
H115 C111 0.930 . S
O116 Co105 2.039 . S
O116 C106 1.265 . S
C117 O113 1.253 . S
C117 O118 1.227 . S
O118 C117 1.227 . S
N119 Co105 2.140 . S
N119 C122 1.346 . S
N119 C123 1.345 . S
C120 C121 1.387 . S
C120 C124 1.391 . S
C121 C120 1.387 . S
C121 C122 1.369 . S
C121 H130 0.929 . S
C122 N119 1.346 . S
C122 C121 1.369 . S
C122 H125 0.928 . S
C123 N119 1.345 . S
C123 C124 1.371 . S
C123 H126 0.931 . S
C124 C120 1.391 . S
C124 C123 1.371 . S
C124 H131 0.930 . S
H125 C122 0.928 . S
H126 C123 0.931 . S
H127 C103 0.930 . S
H128 C100 0.930 . S
H129 C109 0.930 . S
H130 C121 0.929 . S
H131 C124 0.930 . S
C132 C133 1.351 . S
C132 N135 1.368 . S
C132 H137 0.931 . S
C133 C132 1.351 . S
C133 N134 1.373 . S
C133 H161 0.930 . S
N134 C133 1.373 . S
N134 C136 1.340 . S
N135 C132 1.368 . S
N135 C136 1.321 . S
N135 Co138 2.135 . S
C136 N134 1.340 . S
C136 N135 1.321 . S
C136 H160 0.930 . S
H137 C132 0.931 . S
Co138 N135 2.135 . S
Co138 N141 2.121 . S
Co138 O146 2.055 . S
Co138 O149 2.039 . S
Co138 N152 2.140 . S
C139 O140 1.227 . S
C139 O149 1.265 . S
O140 C139 1.227 . S
N141 Co138 2.121 . S
N141 C143 1.375 . S
N141 C144 1.313 . S
C142 C143 1.338 . S
C142 N145 1.377 . S
C142 H162 0.930 . S
C143 N141 1.375 . S
C143 C142 1.338 . S
C143 H147 0.931 . S
C144 N141 1.313 . S
C144 N145 1.344 . S
C144 H148 0.930 . S
N145 C142 1.377 . S
N145 C144 1.344 . S
O146 Co138 2.055 . S
O146 C150 1.253 . S
H147 C143 0.931 . S
H148 C144 0.930 . S
O149 Co138 2.039 . S
O149 C139 1.265 . S
C150 O146 1.253 . S
C150 O151 1.227 . S
O151 C150 1.227 . S
N152 Co138 2.140 . S
N152 C155 1.346 . S
N152 C156 1.345 . S
C153 C154 1.387 . S
C153 C157 1.391 . S
C154 C153 1.387 . S
C154 C155 1.369 . S
C154 H163 0.929 . S
C155 N152 1.346 . S
C155 C154 1.369 . S
C155 H158 0.928 . S
C156 N152 1.345 . S
C156 C157 1.371 . S
C156 H159 0.931 . S
C157 C153 1.391 . S
C157 C156 1.371 . S
C157 H164 0.930 . S
H158 C155 0.928 . S
H159 C156 0.931 . S
H160 C136 0.930 . S
H161 C133 0.930 . S
H162 C142 0.930 . S
H163 C154 0.929 . S
H164 C157 0.930 . S
C165 C166 1.351 . S
C165 N168 1.368 . S
C165 H170 0.931 . S
C166 C165 1.351 . S
C166 N167 1.373 . S
C166 H194 0.930 . S
N167 C166 1.373 . S
N167 C169 1.340 . S
N168 C165 1.368 . S
N168 C169 1.321 . S
N168 Co171 2.135 . S
C169 N167 1.340 . S
C169 N168 1.321 . S
C169 H193 0.930 . S
H170 C165 0.931 . S
Co171 N168 2.135 . S
Co171 N174 2.121 . S
Co171 O179 2.055 . S
Co171 O182 2.039 . S
Co171 N185 2.140 . S
C172 O173 1.227 . S
C172 O182 1.265 . S
O173 C172 1.227 . S
N174 Co171 2.121 . S
N174 C176 1.375 . S
N174 C177 1.313 . S
C175 C176 1.338 . S
C175 N178 1.377 . S
C175 H195 0.930 . S
C176 N174 1.375 . S
C176 C175 1.338 . S
C176 H180 0.931 . S
C177 N174 1.313 . S
C177 N178 1.344 . S
C177 H181 0.930 . S
N178 C175 1.377 . S
N178 C177 1.344 . S
O179 Co171 2.055 . S
O179 C183 1.253 . S
H180 C176 0.931 . S
H181 C177 0.930 . S
O182 Co171 2.039 . S
O182 C172 1.265 . S
C183 O179 1.253 . S
C183 O184 1.227 . S
O184 C183 1.227 . S
N185 Co171 2.140 . S
N185 C188 1.346 . S
N185 C189 1.345 . S
C186 C187 1.387 . S
C186 C190 1.391 . S
C187 C186 1.387 . S
C187 C188 1.369 . S
C187 H196 0.929 . S
C188 N185 1.346 . S
C188 C187 1.369 . S
C188 H191 0.928 . S
C189 N185 1.345 . S
C189 C190 1.371 . S
C189 H192 0.931 . S
C190 C186 1.391 . S
C190 C189 1.371 . S
C190 H197 0.930 . S
H191 C188 0.928 . S
H192 C189 0.931 . S
H193 C169 0.930 . S
H194 C166 0.930 . S
H195 C175 0.930 . S
H196 C187 0.929 . S
H197 C190 0.930 . S
C198 C199 1.351 . S
C198 N201 1.368 . S
C198 H203 0.931 . S
C199 C198 1.351 . S
C199 N200 1.373 . S
C199 H227 0.930 . S
N200 C199 1.373 . S
N200 C202 1.340 . S
N201 C198 1.368 . S
N201 C202 1.321 . S
N201 Co204 2.135 . S
C202 N200 1.340 . S
C202 N201 1.321 . S
C202 H226 0.930 . S
H203 C198 0.931 . S
Co204 N201 2.135 . S
Co204 N207 2.121 . S
Co204 O212 2.055 . S
Co204 O215 2.039 . S
Co204 N218 2.140 . S
C205 O206 1.227 . S
C205 O215 1.265 . S
O206 C205 1.227 . S
N207 Co204 2.121 . S
N207 C209 1.375 . S
N207 C210 1.313 . S
C208 C209 1.338 . S
C208 N211 1.377 . S
C208 H228 0.930 . S
C209 N207 1.375 . S
C209 C208 1.338 . S
C209 H213 0.931 . S
C210 N207 1.313 . S
C210 N211 1.344 . S
C210 H214 0.930 . S
N211 C208 1.377 . S
N211 C210 1.344 . S
O212 Co204 2.055 . S
O212 C216 1.253 . S
H213 C209 0.931 . S
H214 C210 0.930 . S
O215 Co204 2.039 . S
O215 C205 1.265 . S
C216 O212 1.253 . S
C216 O217 1.227 . S
O217 C216 1.227 . S
N218 Co204 2.140 . S
N218 C221 1.346 . S
N218 C222 1.345 . S
C219 C220 1.387 . S
C219 C223 1.391 . S
C220 C219 1.387 . S
C220 C221 1.369 . S
C220 H229 0.929 . S
C221 N218 1.346 . S
C221 C220 1.369 . S
C221 H224 0.928 . S
C222 N218 1.345 . S
C222 C223 1.371 . S
C222 H225 0.931 . S
C223 C219 1.391 . S
C223 C222 1.371 . S
C223 H230 0.930 . S
H224 C221 0.928 . S
H225 C222 0.931 . S
H226 C202 0.930 . S
H227 C199 0.930 . S
H228 C208 0.930 . S
H229 C220 0.929 . S
H230 C223 0.930 . S
C231 C232 1.351 . S
C231 N234 1.368 . S
C231 H236 0.931 . S
C232 C231 1.351 . S
C232 N233 1.373 . S
C232 H260 0.930 . S
N233 C232 1.373 . S
N233 C235 1.340 . S
N234 C231 1.368 . S
N234 C235 1.321 . S
N234 Co237 2.135 . S
C235 N233 1.340 . S
C235 N234 1.321 . S
C235 H259 0.930 . S
H236 C231 0.931 . S
Co237 N234 2.135 . S
Co237 N240 2.121 . S
Co237 O245 2.055 . S
Co237 O248 2.039 . S
Co237 N251 2.140 . S
C238 O239 1.227 . S
C238 O248 1.265 . S
O239 C238 1.227 . S
N240 Co237 2.121 . S
N240 C242 1.375 . S
N240 C243 1.313 . S
C241 C242 1.338 . S
C241 N244 1.377 . S
C241 H261 0.930 . S
C242 N240 1.375 . S
C242 C241 1.338 . S
C242 H246 0.931 . S
C243 N240 1.313 . S
C243 N244 1.344 . S
C243 H247 0.930 . S
N244 C241 1.377 . S
N244 C243 1.344 . S
O245 Co237 2.055 . S
O245 C249 1.253 . S
H246 C242 0.931 . S
H247 C243 0.930 . S
O248 Co237 2.039 . S
O248 C238 1.265 . S
C249 O245 1.253 . S
C249 O250 1.227 . S
O250 C249 1.227 . S
N251 Co237 2.140 . S
N251 C254 1.346 . S
N251 C255 1.345 . S
C252 C253 1.387 . S
C252 C256 1.391 . S
C253 C252 1.387 . S
C253 C254 1.369 . S
C253 H262 0.929 . S
C254 N251 1.346 . S
C254 C253 1.369 . S
C254 H257 0.928 . S
C255 N251 1.345 . S
C255 C256 1.371 . S
C255 H258 0.931 . S
C256 C252 1.391 . S
C256 C255 1.371 . S
C256 H263 0.930 . S
H257 C254 0.928 . S
H258 C255 0.931 . S
H259 C235 0.930 . S
H260 C232 0.930 . S
H261 C241 0.930 . S
H262 C253 0.929 . S
H263 C256 0.930 . S
C264 C265 1.351 . S
C264 N267 1.368 . S
C264 H269 0.931 . S
C265 C264 1.351 . S
C265 N266 1.373 . S
C265 H293 0.930 . S
N266 C265 1.373 . S
N266 C268 1.340 . S
N267 C264 1.368 . S
N267 C268 1.321 . S
N267 Co270 2.135 . S
C268 N266 1.340 . S
C268 N267 1.321 . S
C268 H292 0.930 . S
H269 C264 0.931 . S
Co270 N267 2.135 . S
Co270 N273 2.121 . S
Co270 O278 2.055 . S
Co270 O281 2.039 . S
Co270 N284 2.140 . S
C271 O272 1.227 . S
C271 O281 1.265 . S
O272 C271 1.227 . S
N273 Co270 2.121 . S
N273 C275 1.375 . S
N273 C276 1.313 . S
C274 C275 1.338 . S
C274 N277 1.377 . S
C274 H294 0.930 . S
C275 N273 1.375 . S
C275 C274 1.338 . S
C275 H279 0.931 . S
C276 N273 1.313 . S
C276 N277 1.344 . S
C276 H280 0.930 . S
N277 C274 1.377 . S
N277 C276 1.344 . S
O278 Co270 2.055 . S
O278 C282 1.253 . S
H279 C275 0.931 . S
H280 C276 0.930 . S
O281 Co270 2.039 . S
O281 C271 1.265 . S
C282 O278 1.253 . S
C282 O283 1.227 . S
O283 C282 1.227 . S
N284 Co270 2.140 . S
N284 C287 1.346 . S
N284 C288 1.345 . S
C285 C286 1.387 . S
C285 C289 1.391 . S
C286 C285 1.387 . S
C286 C287 1.369 . S
C286 H295 0.929 . S
C287 N284 1.346 . S
C287 C286 1.369 . S
C287 H290 0.928 . S
C288 N284 1.345 . S
C288 C289 1.371 . S
C288 H291 0.931 . S
C289 C285 1.391 . S
C289 C288 1.371 . S
C289 H296 0.930 . S
H290 C287 0.928 . S
H291 C288 0.931 . S
H292 C268 0.930 . S
H293 C265 0.930 . S
H294 C274 0.930 . S
H295 C286 0.929 . S
H296 C289 0.930 . S
C297 C298 1.351 . S
C297 N300 1.368 . S
C297 H302 0.931 . S
C298 C297 1.351 . S
C298 N299 1.373 . S
C298 H326 0.930 . S
N299 C298 1.373 . S
N299 C301 1.340 . S
N300 C297 1.368 . S
N300 C301 1.321 . S
N300 Co303 2.135 . S
C301 N299 1.340 . S
C301 N300 1.321 . S
C301 H325 0.930 . S
H302 C297 0.931 . S
Co303 N300 2.135 . S
Co303 N306 2.121 . S
Co303 O311 2.055 . S
Co303 O314 2.039 . S
Co303 N317 2.140 . S
C304 O305 1.227 . S
C304 O314 1.265 . S
O305 C304 1.227 . S
N306 Co303 2.121 . S
N306 C308 1.375 . S
N306 C309 1.313 . S
C307 C308 1.338 . S
C307 N310 1.377 . S
C307 H327 0.930 . S
C308 N306 1.375 . S
C308 C307 1.338 . S
C308 H312 0.931 . S
C309 N306 1.313 . S
C309 N310 1.344 . S
C309 H313 0.930 . S
N310 C307 1.377 . S
N310 C309 1.344 . S
O311 Co303 2.055 . S
O311 C315 1.253 . S
H312 C308 0.931 . S
H313 C309 0.930 . S
O314 Co303 2.039 . S
O314 C304 1.265 . S
C315 O311 1.253 . S
C315 O316 1.227 . S
O316 C315 1.227 . S
N317 Co303 2.140 . S
N317 C320 1.346 . S
N317 C321 1.345 . S
C318 C319 1.387 . S
C318 C322 1.391 . S
C319 C318 1.387 . S
C319 C320 1.369 . S
C319 H328 0.893 1_655 S
C320 N317 1.346 . S
C320 C319 1.369 . S
C320 H323 0.928 . S
C321 N317 1.345 . S
C321 C322 1.371 . S
C321 H324 0.931 . S
C322 C318 1.391 . S
C322 C321 1.371 . S
C322 H329 0.930 . S
H323 C320 0.928 . S
H324 C321 0.931 . S
H325 C301 0.930 . S
H326 C298 0.930 . S
H327 C307 0.930 . S
H328 C319 0.893 1_455 S
H329 C322 0.930 . S
C330 C331 1.351 . S
C330 N333 1.368 . S
C330 H335 0.931 . S
C331 C330 1.351 . S
C331 N332 1.373 . S
C331 H359 0.930 . S
N332 C331 1.373 . S
N332 C334 1.340 . S
N333 C330 1.368 . S
N333 C334 1.321 . S
N333 Co336 2.135 . S
C334 N332 1.340 . S
C334 N333 1.321 . S
C334 H358 0.930 . S
H335 C330 0.931 . S
Co336 N333 2.135 . S
Co336 N339 2.121 . S
Co336 O344 2.055 . S
Co336 O347 2.039 . S
Co336 N350 2.140 . S
C337 O338 1.227 . S
C337 O347 1.265 . S
O338 C337 1.227 . S
N339 Co336 2.121 . S
N339 C341 1.375 . S
N339 C342 1.313 . S
C340 C341 1.338 . S
C340 N343 1.377 . S
C340 H360 0.930 . S
C341 N339 1.375 . S
C341 C340 1.338 . S
C341 H345 0.931 . S
C342 N339 1.313 . S
C342 N343 1.344 . S
C342 H346 0.930 . S
N343 C340 1.377 . S
N343 C342 1.344 . S
O344 Co336 2.055 . S
O344 C348 1.253 . S
H345 C341 0.931 . S
H346 C342 0.930 . S
O347 Co336 2.039 . S
O347 C337 1.265 . S
C348 O344 1.253 . S
C348 O349 1.227 . S
O349 C348 1.227 . S
N350 Co336 2.140 . S
N350 C353 1.346 . S
N350 C354 1.345 . S
C351 C352 1.387 . S
C351 C355 1.391 . S
C352 C351 1.387 . S
C352 C353 1.369 . S
C352 H361 0.929 . S
C353 N350 1.346 . S
C353 C352 1.369 . S
C353 H356 0.928 . S
C354 N350 1.345 . S
C354 C355 1.371 . S
C354 H357 0.931 . S
C355 C351 1.391 . S
C355 C354 1.371 . S
C355 H362 0.930 . S
H356 C353 0.928 . S
H357 C354 0.931 . S
H358 C334 0.930 . S
H359 C331 0.930 . S
H360 C340 0.930 . S
H361 C352 0.929 . S
H362 C355 0.930 . S
C363 C364 1.351 . S
C363 N366 1.368 . S
C363 H368 0.931 . S
C364 C363 1.351 . S
C364 N365 1.373 . S
C364 H392 0.930 . S
N365 C364 1.373 . S
N365 C367 1.340 . S
N366 C363 1.368 . S
N366 C367 1.321 . S
N366 Co369 2.135 . S
C367 N365 1.340 . S
C367 N366 1.321 . S
C367 H391 0.930 . S
H368 C363 0.931 . S
Co369 N366 2.135 . S
Co369 N372 2.121 . S
Co369 O377 2.055 . S
Co369 O380 2.039 . S
Co369 N383 2.140 . S
C370 O371 1.227 . S
C370 O380 1.265 . S
O371 C370 1.227 . S
N372 Co369 2.121 . S
N372 C374 1.375 . S
N372 C375 1.313 . S
C373 C374 1.338 . S
C373 N376 1.377 . S
C373 H393 0.930 . S
C374 N372 1.375 . S
C374 C373 1.338 . S
C374 H378 0.931 . S
C375 N372 1.313 . S
C375 N376 1.344 . S
C375 H379 0.930 . S
N376 C373 1.377 . S
N376 C375 1.344 . S
O377 Co369 2.055 . S
O377 C381 1.253 . S
H378 C374 0.931 . S
H379 C375 0.930 . S
O380 Co369 2.039 . S
O380 C370 1.265 . S
C381 O377 1.253 . S
C381 O382 1.227 . S
O382 C381 1.227 . S
N383 Co369 2.140 . S
N383 C386 1.346 . S
N383 C387 1.345 . S
C384 C385 1.387 . S
C384 C388 1.391 . S
C385 C384 1.387 . S
C385 C386 1.369 . S
C385 H394 0.929 1_545 S
C386 N383 1.346 . S
C386 C385 1.369 . S
C386 H389 0.928 . S
C387 N383 1.345 . S
C387 C388 1.371 . S
C387 H390 0.931 . S
C388 C384 1.391 . S
C388 C387 1.371 . S
C388 H395 0.930 . S
H389 C386 0.928 . S
H390 C387 0.931 . S
H391 C367 0.930 . S
H392 C364 0.930 . S
H393 C373 0.930 . S
H394 C385 0.929 1_565 S
H395 C388 0.930 . S
C396 C397 1.351 . S
C396 N399 1.368 . S
C396 H401 0.931 . S
C397 C396 1.351 . S
C397 N398 1.373 . S
C397 H425 0.930 . S
N398 C397 1.373 . S
N398 C400 1.340 . S
N399 C396 1.368 . S
N399 C400 1.321 . S
N399 Co402 2.135 . S
C400 N398 1.340 . S
C400 N399 1.321 . S
C400 H424 0.930 . S
H401 C396 0.931 . S
Co402 N399 2.135 . S
Co402 N405 2.121 . S
Co402 O410 2.055 . S
Co402 O413 2.039 . S
Co402 N416 2.140 . S
C403 O404 1.227 . S
C403 O413 1.265 . S
O404 C403 1.227 . S
N405 Co402 2.121 . S
N405 C407 1.375 . S
N405 C408 1.313 . S
C406 C407 1.338 . S
C406 N409 1.377 . S
C406 H426 0.930 . S
C407 N405 1.375 . S
C407 C406 1.338 . S
C407 H411 0.931 . S
C408 N405 1.313 . S
C408 N409 1.344 . S
C408 H412 0.930 . S
N409 C406 1.377 . S
N409 C408 1.344 . S
O410 Co402 2.055 . S
O410 C414 1.253 . S
H411 C407 0.931 . S
H412 C408 0.930 . S
O413 Co402 2.039 . S
O413 C403 1.265 . S
C414 O410 1.253 . S
C414 O415 1.227 . S
O415 C414 1.227 . S
N416 Co402 2.140 . S
N416 C419 1.346 . S
N416 C420 1.345 . S
C417 C418 1.387 . S
C417 C421 1.391 . S
C418 C417 1.387 . S
C418 C419 1.369 . S
C418 H427 0.893 1_565 S
C419 N416 1.346 . S
C419 C418 1.369 . S
C419 H422 0.928 . S
C420 N416 1.345 . S
C420 C421 1.371 . S
C420 H423 0.931 . S
C421 C417 1.391 . S
C421 C420 1.371 . S
C421 H428 0.930 . S
H422 C419 0.928 . S
H423 C420 0.931 . S
H424 C400 0.930 . S
H425 C397 0.930 . S
H426 C406 0.930 . S
H427 C418 0.893 1_545 S
H428 C421 0.930 . S
C429 C430 1.351 . S
C429 N432 1.368 . S
C429 H434 0.931 . S
C430 C429 1.351 . S
C430 N431 1.373 . S
C430 H458 0.930 . S
N431 C430 1.373 . S
N431 C433 1.340 . S
N432 C429 1.368 . S
N432 C433 1.321 . S
N432 Co435 2.135 . S
C433 N431 1.340 . S
C433 N432 1.321 . S
C433 H457 0.930 . S
H434 C429 0.931 . S
Co435 N432 2.135 . S
Co435 N438 2.121 . S
Co435 O443 2.055 . S
Co435 O446 2.039 . S
Co435 N449 2.140 . S
C436 O437 1.227 . S
C436 O446 1.265 . S
O437 C436 1.227 . S
N438 Co435 2.121 . S
N438 C440 1.375 . S
N438 C441 1.313 . S
C439 C440 1.338 . S
C439 N442 1.377 . S
C439 H459 0.930 . S
C440 N438 1.375 . S
C440 C439 1.338 . S
C440 H444 0.931 . S
C441 N438 1.313 . S
C441 N442 1.344 . S
C441 H445 0.930 . S
N442 C439 1.377 . S
N442 C441 1.344 . S
O443 Co435 2.055 . S
O443 C447 1.253 . S
H444 C440 0.931 . S
H445 C441 0.930 . S
O446 Co435 2.039 . S
O446 C436 1.265 . S
C447 O443 1.253 . S
C447 O448 1.227 . S
O448 C447 1.227 . S
N449 Co435 2.140 . S
N449 C452 1.346 . S
N449 C453 1.345 . S
C450 C451 1.387 . S
C450 C454 1.391 . S
C451 C450 1.387 . S
C451 C452 1.369 . S
C451 H460 0.929 1_455 S
C452 N449 1.346 . S
C452 C451 1.369 . S
C452 H455 0.928 . S
C453 N449 1.345 . S
C453 C454 1.371 . S
C453 H456 0.931 . S
C454 C450 1.391 . S
C454 C453 1.371 . S
C454 H461 0.930 . S
H455 C452 0.928 . S
H456 C453 0.931 . S
H457 C433 0.930 . S
H458 C430 0.930 . S
H459 C439 0.930 . S
H460 C451 0.929 1_655 S
H461 C454 0.930 . S
C462 C463 1.351 . S
C462 N465 1.368 . S
C462 H467 0.931 . S
C463 C462 1.351 . S
C463 N464 1.373 . S
C463 H491 0.930 . S
N464 C463 1.373 . S
N464 C466 1.340 . S
N465 C462 1.368 . S
N465 C466 1.321 . S
N465 Co468 2.135 . S
C466 N464 1.340 . S
C466 N465 1.321 . S
C466 H490 0.930 . S
H467 C462 0.931 . S
Co468 N465 2.135 . S
Co468 N471 2.121 . S
Co468 O476 2.055 . S
Co468 O479 2.039 . S
Co468 N482 2.140 . S
C469 O470 1.227 . S
C469 O479 1.265 . S
O470 C469 1.227 . S
N471 Co468 2.121 . S
N471 C473 1.375 . S
N471 C474 1.313 . S
C472 C473 1.338 . S
C472 N475 1.377 . S
C472 H492 0.930 . S
C473 N471 1.375 . S
C473 C472 1.338 . S
C473 H477 0.931 . S
C474 N471 1.313 . S
C474 N475 1.344 . S
C474 H478 0.930 . S
N475 C472 1.377 . S
N475 C474 1.344 . S
O476 Co468 2.055 . S
O476 C480 1.253 . S
H477 C473 0.931 . S
H478 C474 0.930 . S
O479 Co468 2.039 . S
O479 C469 1.265 . S
C480 O476 1.253 . S
C480 O481 1.227 . S
O481 C480 1.227 . S
N482 Co468 2.140 . S
N482 C485 1.346 . S
N482 C486 1.345 . S
C483 C484 1.387 . S
C483 C487 1.391 . S
C484 C483 1.387 . S
C484 C485 1.369 . S
C484 H493 0.929 . S
C485 N482 1.346 . S
C485 C484 1.369 . S
C485 H488 0.928 . S
C486 N482 1.345 . S
C486 C487 1.371 . S
C486 H489 0.931 . S
C487 C483 1.391 . S
C487 C486 1.371 . S
C487 H494 0.930 . S
H488 C485 0.928 . S
H489 C486 0.931 . S
H490 C466 0.930 . S
H491 C463 0.930 . S
H492 C472 0.930 . S
H493 C484 0.929 . S
H494 C487 0.930 . S
C495 C496 1.351 . S
C495 N498 1.368 . S
C495 H500 0.931 . S
C496 C495 1.351 . S
C496 N497 1.373 . S
C496 H524 0.930 . S
N497 C496 1.373 . S
N497 C499 1.340 . S
N498 C495 1.368 . S
N498 C499 1.321 . S
N498 Co501 2.135 . S
C499 N497 1.340 . S
C499 N498 1.321 . S
C499 H523 0.930 . S
H500 C495 0.931 . S
Co501 N498 2.135 . S
Co501 N504 2.121 . S
Co501 O509 2.055 . S
Co501 O512 2.039 . S
Co501 N515 2.140 . S
C502 O503 1.227 . S
C502 O512 1.265 . S
O503 C502 1.227 . S
N504 Co501 2.121 . S
N504 C506 1.375 . S
N504 C507 1.313 . S
C505 C506 1.338 . S
C505 N508 1.377 . S
C505 H525 0.930 . S
C506 N504 1.375 . S
C506 C505 1.338 . S
C506 H510 0.931 . S
C507 N504 1.313 . S
C507 N508 1.344 . S
C507 H511 0.930 . S
N508 C505 1.377 . S
N508 C507 1.344 . S
O509 Co501 2.055 . S
O509 C513 1.253 . S
H510 C506 0.931 . S
H511 C507 0.930 . S
O512 Co501 2.039 . S
O512 C502 1.265 . S
C513 O509 1.253 . S
C513 O514 1.227 . S
O514 C513 1.227 . S
N515 Co501 2.140 . S
N515 C518 1.346 . S
N515 C519 1.345 . S
C516 C517 1.387 . S
C516 C520 1.391 . S
C517 C516 1.387 . S
C517 C518 1.369 . S
C517 H526 0.929 . S
C518 N515 1.346 . S
C518 C517 1.369 . S
C518 H521 0.928 . S
C519 N515 1.345 . S
C519 C520 1.371 . S
C519 H522 0.931 . S
C520 C516 1.391 . S
C520 C519 1.371 . S
C520 H527 0.930 . S
H521 C518 0.928 . S
H522 C519 0.931 . S
H523 C499 0.930 . S
H524 C496 0.930 . S
H525 C505 0.930 . S
H526 C517 0.929 . S
H527 C520 0.930 . S
C528 C529 1.351 . S
C528 N531 1.368 . S
C528 H533 0.931 . S
C529 C528 1.351 . S
C529 N530 1.373 . S
C529 H557 0.930 . S
N530 C529 1.373 . S
N530 C532 1.340 . S
N531 C528 1.368 . S
N531 C532 1.321 . S
N531 Co534 2.135 . S
C532 N530 1.340 . S
C532 N531 1.321 . S
C532 H556 0.930 . S
H533 C528 0.931 . S
Co534 N531 2.135 . S
Co534 N537 2.121 . S
Co534 O542 2.055 . S
Co534 O545 2.039 . S
Co534 N548 2.140 . S
C535 O536 1.227 . S
C535 O545 1.265 . S
O536 C535 1.227 . S
N537 Co534 2.121 . S
N537 C539 1.375 . S
N537 C540 1.313 . S
C538 C539 1.338 . S
C538 N541 1.377 . S
C538 H558 0.930 . S
C539 N537 1.375 . S
C539 C538 1.338 . S
C539 H543 0.931 . S
C540 N537 1.313 . S
C540 N541 1.344 . S
C540 H544 0.930 . S
N541 C538 1.377 . S
N541 C540 1.344 . S
O542 Co534 2.055 . S
O542 C546 1.253 . S
H543 C539 0.931 . S
H544 C540 0.930 . S
O545 Co534 2.039 . S
O545 C535 1.265 . S
C546 O542 1.253 . S
C546 O547 1.227 . S
O547 C546 1.227 . S
N548 Co534 2.140 . S
N548 C551 1.346 . S
N548 C552 1.345 . S
C549 C550 1.387 . S
C549 C553 1.391 . S
C550 C549 1.387 . S
C550 C551 1.369 . S
C550 H559 0.929 . S
C551 N548 1.346 . S
C551 C550 1.369 . S
C551 H554 0.928 . S
C552 N548 1.345 . S
C552 C553 1.371 . S
C552 H555 0.931 . S
C553 C549 1.391 . S
C553 C552 1.371 . S
C553 H560 0.930 . S
H554 C551 0.928 . S
H555 C552 0.931 . S
H556 C532 0.930 . S
H557 C529 0.930 . S
H558 C538 0.930 . S
H559 C550 0.929 . S
H560 C553 0.930 . S
C561 C562 1.351 . S
C561 N564 1.368 . S
C561 H566 0.931 . S
C562 C561 1.351 . S
C562 N563 1.373 . S
C562 H590 0.930 . S
N563 C562 1.373 . S
N563 C565 1.340 . S
N564 C561 1.368 . S
N564 C565 1.321 . S
N564 Co567 2.135 . S
C565 N563 1.340 . S
C565 N564 1.321 . S
C565 H589 0.930 . S
H566 C561 0.931 . S
Co567 N564 2.135 . S
Co567 N570 2.121 . S
Co567 O575 2.055 . S
Co567 O578 2.039 . S
Co567 N581 2.140 . S
C568 O569 1.227 . S
C568 O578 1.265 . S
O569 C568 1.227 . S
N570 Co567 2.121 . S
N570 C572 1.375 . S
N570 C573 1.313 . S
C571 C572 1.338 . S
C571 N574 1.377 . S
C571 H591 0.930 . S
C572 N570 1.375 . S
C572 C571 1.338 . S
C572 H576 0.931 . S
C573 N570 1.313 . S
C573 N574 1.344 . S
C573 H577 0.930 . S
N574 C571 1.377 . S
N574 C573 1.344 . S
O575 Co567 2.055 . S
O575 C579 1.253 . S
H576 C572 0.931 . S
H577 C573 0.930 . S
O578 Co567 2.039 . S
O578 C568 1.265 . S
C579 O575 1.253 . S
C579 O580 1.227 . S
O580 C579 1.227 . S
N581 Co567 2.140 . S
N581 C584 1.346 . S
N581 C585 1.345 . S
C582 C583 1.387 . S
C582 C586 1.391 . S
C583 C582 1.387 . S
C583 C584 1.369 . S
C583 H592 0.929 . S
C584 N581 1.346 . S
C584 C583 1.369 . S
C584 H587 0.928 . S
C585 N581 1.345 . S
C585 C586 1.371 . S
C585 H588 0.931 . S
C586 C582 1.391 . S
C586 C585 1.371 . S
C586 H593 0.930 . S
H587 C584 0.928 . S
H588 C585 0.931 . S
H589 C565 0.930 . S
H590 C562 0.930 . S
H591 C571 0.930 . S
H592 C583 0.929 . S
H593 C586 0.930 . S
C594 C595 1.349 . S
C594 C596 1.327 . S
C594 H619 0.950 . S
C595 C594 1.349 . S
C595 C611 1.349 . S
C596 C594 1.327 . S
C596 C615 1.429 . S
C596 H620 0.950 . S
C597 C614 1.574 . S
C597 C616 1.368 . S
C597 H621 0.949 . S
H598 C602 0.949 . S
C599 C600 1.349 . S
C599 C601 1.327 . S
C599 H622 0.950 . S
C600 C599 1.349 . S
C600 C612 1.349 . S
C601 C599 1.327 . S
C601 C617 1.429 . S
C601 H623 0.950 . S
C602 H598 0.949 . S
C602 C610 1.574 . S
C602 C618 1.368 . S
H603 C611 0.950 . S
H604 C609 0.950 . S
H605 C610 0.949 . S
H606 C612 0.950 . S
H607 C613 0.950 . S
H608 C614 0.949 . S
C609 H604 0.950 . S
C609 C611 1.327 . S
C609 C615 1.429 . S
C610 C602 1.574 . S
C610 H605 0.949 . S
C610 C616 1.368 . S
C611 C595 1.349 . S
C611 H603 0.950 . S
C611 C609 1.327 . S
C612 C600 1.349 . S
C612 H606 0.950 . S
C612 C613 1.327 . S
C613 H607 0.950 . S
C613 C612 1.327 . S
C613 C617 1.429 . S
C614 C597 1.574 . S
C614 H608 0.949 . S
C614 C618 1.368 . S
C615 C596 1.429 . S
C615 C609 1.429 . S
C615 C616 1.523 . S
C616 C597 1.368 . S
C616 C610 1.368 . S
C616 C615 1.523 . S
C617 C601 1.429 . S
C617 C613 1.429 . S
C617 C618 1.523 . S
C618 C602 1.368 . S
C618 C614 1.368 . S
C618 C617 1.523 . S
H619 C594 0.950 . S
H620 C596 0.950 . S
H621 C597 0.949 . S
H622 C599 0.950 . S
H623 C601 0.950 . S
C624 C625 1.349 . S
C624 C626 1.327 . S
C624 H649 0.950 . S
C625 C624 1.349 . S
C625 C641 1.349 . S
C626 C624 1.327 . S
C626 C645 1.429 . S
C626 H650 0.950 . S
C627 C644 1.574 . S
C627 C646 1.368 . S
C627 H651 0.949 . S
H628 C632 0.949 . S
C629 C630 1.349 1_545 S
C629 C631 1.327 1_545 S
C629 H652 0.950 . S
C630 C629 1.349 1_565 S
C630 C642 1.349 . S
C631 C629 1.327 1_565 S
C631 C647 1.429 . S
C631 H653 0.950 1_565 S
C632 H628 0.949 . S
C632 C640 1.574 . S
C632 C648 1.368 . S
H633 C641 0.950 . S
H634 C639 0.950 . S
H635 C640 0.949 . S
H636 C642 0.950 . S
H637 C643 0.950 . S
H638 C644 0.949 . S
C639 H634 0.950 . S
C639 C641 1.327 . S
C639 C645 1.429 . S
C640 C632 1.574 . S
C640 H635 0.949 . S
C640 C646 1.368 . S
C641 C625 1.349 . S
C641 H633 0.950 . S
C641 C639 1.327 . S
C642 C630 1.349 . S
C642 H636 0.950 . S
C642 C643 1.327 . S
C643 H637 0.950 . S
C643 C642 1.327 . S
C643 C647 1.429 . S
C644 C627 1.574 . S
C644 H638 0.949 . S
C644 C648 1.368 . S
C645 C626 1.429 . S
C645 C639 1.429 . S
C645 C646 1.523 . S
C646 C627 1.368 . S
C646 C640 1.368 . S
C646 C645 1.523 . S
C647 C631 1.429 . S
C647 C643 1.429 . S
C647 C648 1.523 . S
C648 C632 1.368 . S
C648 C644 1.368 . S
C648 C647 1.523 . S
H649 C624 0.950 . S
H650 C626 0.950 . S
H651 C627 0.949 . S
H652 C629 0.950 . S
H653 C631 0.950 1_545 S
C654 C655 1.349 . S
C654 C656 1.327 . S
C654 H679 0.950 . S
C655 C654 1.349 . S
C655 C671 1.378 . S
C656 C654 1.327 . S
C656 C675 1.429 . S
C656 H680 0.950 . S
C657 C674 1.574 . S
C657 C676 1.368 . S
C657 H681 0.949 . S
H658 C662 0.949 . S
C659 C660 1.349 . S
C659 C661 1.327 . S
C659 H682 0.950 . S
C660 C659 1.349 . S
C660 C672 1.349 . S
C661 C659 1.327 . S
C661 C677 1.429 . S
C661 H683 0.950 . S
C662 H658 0.949 . S
C662 C670 1.574 . S
C662 C678 1.368 . S
H663 C671 0.921 1_655 S
H664 C669 0.950 . S
H665 C670 0.949 . S
H666 C672 0.950 . S
H667 C673 0.950 . S
H668 C674 0.949 . S
C669 H664 0.950 . S
C669 C671 1.327 . S
C669 C675 1.429 . S
C670 C662 1.574 . S
C670 H665 0.949 . S
C670 C676 1.368 . S
C671 C655 1.378 . S
C671 H663 0.921 1_455 S
C671 C669 1.327 . S
C672 C660 1.349 . S
C672 H666 0.950 . S
C672 C673 1.327 . S
C673 H667 0.950 . S
C673 C672 1.327 . S
C673 C677 1.429 . S
C674 C657 1.574 . S
C674 H668 0.949 . S
C674 C678 1.368 . S
C675 C656 1.429 . S
C675 C669 1.429 . S
C675 C676 1.523 . S
C676 C657 1.368 . S
C676 C670 1.368 . S
C676 C675 1.523 . S
C677 C661 1.429 . S
C677 C673 1.429 . S
C677 C678 1.523 . S
C678 C662 1.368 . S
C678 C674 1.368 . S
C678 C677 1.523 . S
H679 C654 0.950 . S
H680 C656 0.950 . S
H681 C657 0.949 . S
H682 C659 0.950 . S
H683 C661 0.950 . S
C684 C685 1.349 . S
C684 C686 1.327 . S
C684 H709 0.950 . S
C685 C684 1.349 . S
C685 C701 1.349 . S
C686 C684 1.327 . S
C686 C705 1.429 . S
C686 H710 0.950 . S
C687 C704 1.574 . S
C687 C706 1.368 . S
C687 H711 0.949 . S
H688 C692 0.949 . S
C689 C690 1.349 . S
C689 C691 1.327 . S
C689 H712 0.950 . S
C690 C689 1.349 . S
C690 C702 1.349 . S
C691 C689 1.327 . S
C691 C707 1.429 . S
C691 H713 0.950 . S
C692 H688 0.949 . S
C692 C700 1.574 . S
C692 C708 1.368 . S
H693 C701 0.950 . S
H694 C699 0.950 . S
H695 C700 0.949 . S
H696 C702 0.950 . S
H697 C703 0.950 . S
H698 C704 0.949 . S
C699 H694 0.950 . S
C699 C701 1.327 . S
C699 C705 1.429 . S
C700 C692 1.574 . S
C700 H695 0.949 . S
C700 C706 1.368 . S
C701 C685 1.349 . S
C701 H693 0.950 . S
C701 C699 1.327 . S
C702 C690 1.349 . S
C702 H696 0.950 . S
C702 C703 1.327 . S
C703 H697 0.950 . S
C703 C702 1.327 . S
C703 C707 1.429 . S
C704 C687 1.574 . S
C704 H698 0.949 . S
C704 C708 1.368 . S
C705 C686 1.429 . S
C705 C699 1.429 . S
C705 C706 1.523 . S
C706 C687 1.368 . S
C706 C700 1.368 . S
C706 C705 1.523 . S
C707 C691 1.429 . S
C707 C703 1.429 . S
C707 C708 1.523 . S
C708 C692 1.368 . S
C708 C704 1.368 . S
C708 C707 1.523 . S
H709 C684 0.950 . S
H710 C686 0.950 . S
H711 C687 0.949 . S
H712 C689 0.950 . S
H713 C691 0.950 . S
C714 C715 1.349 . S
C714 C716 1.327 . S
C714 H739 0.950 . S
C715 C714 1.349 . S
C715 C731 1.349 . S
C716 C714 1.327 . S
C716 C735 1.429 . S
C716 H740 0.950 . S
C717 C734 1.574 . S
C717 C736 1.368 . S
C717 H741 0.949 . S
H718 C722 0.949 . S
C719 C720 1.349 1_565 S
C719 C721 1.327 1_565 S
C719 H742 0.950 . S
C720 C719 1.349 1_545 S
C720 C732 1.349 . S
C721 C719 1.327 1_545 S
C721 C737 1.429 . S
C721 H743 0.950 1_545 S
C722 H718 0.949 . S
C722 C730 1.574 . S
C722 C738 1.368 . S
H723 C731 0.950 . S
H724 C729 0.950 . S
H725 C730 0.949 . S
H726 C732 0.950 . S
H727 C733 0.950 . S
H728 C734 0.949 . S
C729 H724 0.950 . S
C729 C731 1.327 . S
C729 C735 1.429 . S
C730 C722 1.574 . S
C730 H725 0.949 . S
C730 C736 1.368 . S
C731 C715 1.349 . S
C731 H723 0.950 . S
C731 C729 1.327 . S
C732 C720 1.349 . S
C732 H726 0.950 . S
C732 C733 1.327 . S
C733 H727 0.950 . S
C733 C732 1.327 . S
C733 C737 1.429 . S
C734 C717 1.574 . S
C734 H728 0.949 . S
C734 C738 1.368 . S
C735 C716 1.429 . S
C735 C729 1.429 . S
C735 C736 1.523 . S
C736 C717 1.368 . S
C736 C730 1.368 . S
C736 C735 1.523 . S
C737 C721 1.429 . S
C737 C733 1.429 . S
C737 C738 1.523 . S
C738 C722 1.368 . S
C738 C734 1.368 . S
C738 C737 1.523 . S
H739 C714 0.950 . S
H740 C716 0.950 . S
H741 C717 0.949 . S
H742 C719 0.950 . S
H743 C721 0.950 1_565 S
C744 C745 1.349 . S
C744 C746 1.327 . S
C744 H769 0.950 . S
C745 C744 1.349 . S
C745 C761 1.349 . S
C746 C744 1.327 . S
C746 C765 1.429 . S
C746 H770 0.950 . S
C747 C764 1.574 . S
C747 C766 1.368 . S
C747 H771 0.949 . S
H748 C752 0.949 . S
C749 C750 1.349 . S
C749 C751 1.327 . S
C749 H772 0.950 . S
C750 C749 1.349 . S
C750 C762 1.349 . S
C751 C749 1.327 . S
C751 C767 1.429 . S
C751 H773 0.950 . S
C752 H748 0.949 . S
C752 C760 1.574 . S
C752 C768 1.368 . S
H753 C761 0.950 . S
H754 C759 0.950 . S
H755 C760 0.949 . S
H756 C762 0.950 . S
H757 C763 0.950 . S
H758 C764 0.949 . S
C759 H754 0.950 . S
C759 C761 1.327 . S
C759 C765 1.429 . S
C760 C752 1.574 . S
C760 H755 0.949 . S
C760 C766 1.368 . S
C761 C745 1.349 . S
C761 H753 0.950 . S
C761 C759 1.327 . S
C762 C750 1.349 . S
C762 H756 0.950 . S
C762 C763 1.327 . S
C763 H757 0.950 . S
C763 C762 1.327 . S
C763 C767 1.429 . S
C764 C747 1.574 . S
C764 H758 0.949 . S
C764 C768 1.368 . S
C765 C746 1.429 . S
C765 C759 1.429 . S
C765 C766 1.523 . S
C766 C747 1.368 . S
C766 C760 1.368 . S
C766 C765 1.523 . S
C767 C751 1.429 . S
C767 C763 1.429 . S
C767 C768 1.523 . S
C768 C752 1.368 . S
C768 C764 1.368 . S
C768 C767 1.523 . S
H769 C744 0.950 . S
H770 C746 0.950 . S
H771 C747 0.949 . S
H772 C749 0.950 . S
H773 C751 0.950 . S
C774 C775 1.349 . S
C774 C776 1.327 . S
C774 H799 0.950 . S
C775 C774 1.349 . S
C775 C791 1.349 . S
C776 C774 1.327 . S
C776 C795 1.429 . S
C776 H800 0.950 . S
C777 C794 1.574 . S
C777 C796 1.368 . S
C777 H801 0.949 . S
H778 C782 0.949 . S
C779 C780 1.349 . S
C779 C781 1.327 . S
C779 H802 0.950 . S
C780 C779 1.349 . S
C780 C792 1.349 . S
C781 C779 1.327 . S
C781 C797 1.429 . S
C781 H803 0.950 . S
C782 H778 0.949 . S
C782 C790 1.574 . S
C782 C798 1.368 . S
H783 C791 0.950 . S
H784 C789 0.950 . S
H785 C790 0.949 . S
H786 C792 0.950 . S
H787 C793 0.950 . S
H788 C794 0.949 . S
C789 H784 0.950 . S
C789 C791 1.327 . S
C789 C795 1.429 . S
C790 C782 1.574 . S
C790 H785 0.949 . S
C790 C796 1.368 . S
C791 C775 1.349 . S
C791 H783 0.950 . S
C791 C789 1.327 . S
C792 C780 1.349 . S
C792 H786 0.950 . S
C792 C793 1.327 . S
C793 H787 0.950 . S
C793 C792 1.327 . S
C793 C797 1.429 . S
C794 C777 1.574 . S
C794 H788 0.949 . S
C794 C798 1.368 . S
C795 C776 1.429 . S
C795 C789 1.429 . S
C795 C796 1.523 . S
C796 C777 1.368 . S
C796 C790 1.368 . S
C796 C795 1.523 . S
C797 C781 1.429 . S
C797 C793 1.429 . S
C797 C798 1.523 . S
C798 C782 1.368 . S
C798 C794 1.368 . S
C798 C797 1.523 . S
H799 C774 0.950 . S
H800 C776 0.950 . S
H801 C777 0.949 . S
H802 C779 0.950 . S
H803 C781 0.950 . S
C804 C805 1.349 . S
C804 C806 1.327 1_565 S
C804 H829 0.950 1_565 S
C805 C804 1.349 . S
C805 C821 1.349 . S
C806 C804 1.327 1_545 S
C806 C825 1.429 1_545 S
C806 H830 0.950 . S
C807 C824 1.574 1_565 S
C807 C826 1.368 1_565 S
C807 H831 0.949 . S
H808 C812 0.949 . S
C809 C810 1.349 . S
C809 C811 1.327 . S
C809 H832 0.950 . S
C810 C809 1.349 . S
C810 C822 1.349 . S
C811 C809 1.327 . S
C811 C827 1.429 . S
C811 H833 0.950 . S
C812 H808 0.949 . S
C812 C820 1.574 . S
C812 C828 1.368 . S
H813 C821 0.950 . S
H814 C819 0.950 . S
H815 C820 0.949 . S
H816 C822 0.950 . S
H817 C823 0.950 . S
H818 C824 0.949 . S
C819 H814 0.950 . S
C819 C821 1.327 . S
C819 C825 1.429 . S
C820 C812 1.574 . S
C820 H815 0.949 . S
C820 C826 1.368 . S
C821 C805 1.349 . S
C821 H813 0.950 . S
C821 C819 1.327 . S
C822 C810 1.349 . S
C822 H816 0.950 . S
C822 C823 1.327 . S
C823 H817 0.950 . S
C823 C822 1.327 . S
C823 C827 1.429 . S
C824 C807 1.574 1_545 S
C824 H818 0.949 . S
C824 C828 1.368 . S
C825 C806 1.429 1_565 S
C825 C819 1.429 . S
C825 C826 1.523 1_565 S
C826 C807 1.368 1_545 S
C826 C820 1.368 . S
C826 C825 1.523 1_545 S
C827 C811 1.429 . S
C827 C823 1.429 . S
C827 C828 1.523 . S
C828 C812 1.368 . S
C828 C824 1.368 . S
C828 C827 1.523 . S
H829 C804 0.950 1_545 S
H830 C806 0.950 . S
H831 C807 0.949 . S
H832 C809 0.950 . S
H833 C811 0.950 . S
C834 C835 1.349 . S
C834 C836 1.327 . S
C834 H859 0.950 . S
C835 C834 1.349 . S
C835 C851 1.333 1_455 S
C836 C834 1.327 . S
C836 C855 1.437 . S
C836 H860 0.950 . S
C837 C854 1.574 . S
C837 C856 1.368 . S
C837 H861 0.949 . S
H838 C842 0.949 . S
C839 C840 1.349 . S
C839 C841 1.327 . S
C839 H862 0.950 . S
C840 C839 1.349 . S
C840 C852 1.349 . S
C841 C839 1.327 . S
C841 C857 1.429 . S
C841 H863 0.950 . S
C842 H838 0.949 . S
C842 C850 1.574 1_655 S
C842 C858 1.368 . S
H843 C851 0.965 . S
H844 C849 0.950 . S
H845 C850 0.949 . S
H846 C852 0.950 . S
H847 C853 0.950 . S
H848 C854 0.949 . S
C849 H844 0.950 . S
C849 C851 1.328 . S
C849 C855 1.420 1_655 S
C850 C842 1.574 1_455 S
C850 H845 0.949 . S
C850 C856 1.368 1_455 S
C851 C835 1.333 1_655 S
C851 H843 0.965 . S
C851 C849 1.328 . S
C852 C840 1.349 . S
C852 H846 0.950 . S
C852 C853 1.327 . S
C853 H847 0.950 . S
C853 C852 1.327 . S
C853 C857 1.429 . S
C854 C837 1.574 . S
C854 H848 0.949 . S
C854 C858 1.368 . S
C855 C836 1.437 . S
C855 C849 1.420 1_455 S
C855 C856 1.523 1_455 S
C856 C837 1.368 . S
C856 C850 1.368 1_655 S
C856 C855 1.523 1_655 S
C857 C841 1.429 . S
C857 C853 1.429 . S
C857 C858 1.523 . S
C858 C842 1.368 . S
C858 C854 1.368 . S
C858 C857 1.523 . S
H859 C834 0.950 . S
H860 C836 0.950 . S
H861 C837 0.949 . S
H862 C839 0.950 . S
H863 C841 0.950 . S
C864 C865 1.349 . S
C864 C866 1.327 . S
C864 H889 0.950 . S
C865 C864 1.349 . S
C865 C881 1.349 . S
C866 C864 1.327 . S
C866 C885 1.429 . S
C866 H890 0.950 . S
C867 C884 1.574 . S
C867 C886 1.368 . S
C867 H891 0.949 . S
H868 C872 0.949 . S
C869 C870 1.349 . S
C869 C871 1.327 . S
C869 H892 0.950 . S
C870 C869 1.349 . S
C870 C882 1.349 . S
C871 C869 1.327 . S
C871 C887 1.429 . S
C871 H893 0.950 . S
C872 H868 0.949 . S
C872 C880 1.574 . S
C872 C888 1.368 . S
H873 C881 0.950 . S
H874 C879 0.950 . S
H875 C880 0.949 . S
H876 C882 0.950 . S
H877 C883 0.950 . S
H878 C884 0.949 . S
C879 H874 0.950 . S
C879 C881 1.327 . S
C879 C885 1.429 . S
C880 C872 1.574 . S
C880 H875 0.949 . S
C880 C886 1.368 . S
C881 C865 1.349 . S
C881 H873 0.950 . S
C881 C879 1.327 . S
C882 C870 1.349 . S
C882 H876 0.950 . S
C882 C883 1.327 . S
C883 H877 0.950 . S
C883 C882 1.327 . S
C883 C887 1.429 . S
C884 C867 1.574 . S
C884 H878 0.949 . S
C884 C888 1.368 . S
C885 C866 1.429 . S
C885 C879 1.429 . S
C885 C886 1.523 . S
C886 C867 1.368 . S
C886 C880 1.368 . S
C886 C885 1.523 . S
C887 C871 1.429 . S
C887 C883 1.429 . S
C887 C888 1.523 . S
C888 C872 1.368 . S
C888 C884 1.368 . S
C888 C887 1.523 . S
H889 C864 0.950 . S
H890 C866 0.950 . S
H891 C867 0.949 . S
H892 C869 0.950 . S
H893 C871 0.950 . S
C894 C895 1.349 . S
C894 C896 1.327 . S
C894 H919 0.950 . S
C895 C894 1.349 . S
C895 C911 1.349 . S
C896 C894 1.327 . S
C896 C915 1.429 . S
C896 H920 0.950 . S
C897 C914 1.574 . S
C897 C916 1.368 . S
C897 H921 0.949 . S
H898 C902 0.949 . S
C899 C900 1.349 . S
C899 C901 1.327 . S
C899 H922 0.950 . S
C900 C899 1.349 . S
C900 C912 1.349 . S
C901 C899 1.327 . S
C901 C917 1.436 . S
C901 H923 0.950 . S
C902 H898 0.949 . S
C902 C910 1.574 . S
C902 C918 1.368 . S
H903 C911 0.950 . S
H904 C909 0.950 . S
H905 C910 0.949 . S
H906 C912 0.950 . S
H907 C913 0.950 . S
H908 C914 0.949 1_545 S
C909 H904 0.950 . S
C909 C911 1.327 . S
C909 C915 1.429 . S
C910 C902 1.574 . S
C910 H905 0.949 . S
C910 C916 1.368 . S
C911 C895 1.349 . S
C911 H903 0.950 . S
C911 C909 1.327 . S
C912 C900 1.349 . S
C912 H906 0.950 . S
C912 C913 1.327 1_545 S
C913 H907 0.950 . S
C913 C912 1.327 1_565 S
C913 C917 1.421 1_565 S
C914 C897 1.574 . S
C914 H908 0.949 1_565 S
C914 C918 1.368 . S
C915 C896 1.429 . S
C915 C909 1.429 . S
C915 C916 1.523 . S
C916 C897 1.368 . S
C916 C910 1.368 . S
C916 C915 1.523 . S
C917 C901 1.436 . S
C917 C913 1.421 1_545 S
C917 C918 1.523 1_545 S
C918 C902 1.368 . S
C918 C914 1.368 . S
C918 C917 1.523 1_565 S
H919 C894 0.950 . S
H920 C896 0.950 . S
H921 C897 0.949 . S
H922 C899 0.950 . S
H923 C901 0.950 . S
C924 C925 1.349 . S
C924 C926 1.327 . S
C924 H949 0.950 . S
C925 C924 1.349 . S
C925 C941 1.349 . S
C926 C924 1.327 . S
C926 C945 1.429 . S
C926 H950 0.950 . S
C927 C944 1.574 1_455 S
C927 C946 1.368 . S
C927 H951 0.949 1_455 S
H928 C932 0.949 . S
C929 C930 1.349 . S
C929 C931 1.327 . S
C929 H952 0.950 . S
C930 C929 1.349 . S
C930 C942 1.365 . S
C931 C929 1.327 . S
C931 C947 1.429 . S
C931 H953 0.950 . S
C932 H928 0.949 . S
C932 C940 1.574 . S
C932 C948 1.368 . S
H933 C941 0.950 . S
H934 C939 0.950 . S
H935 C940 0.949 . S
H936 C942 0.948 1_455 S
H937 C943 0.950 . S
H938 C944 0.949 . S
C939 H934 0.950 . S
C939 C941 1.327 . S
C939 C945 1.429 . S
C940 C932 1.574 . S
C940 H935 0.949 . S
C940 C946 1.368 . S
C941 C925 1.349 . S
C941 H933 0.950 . S
C941 C939 1.327 . S
C942 C930 1.365 . S
C942 H936 0.948 1_655 S
C942 C943 1.314 1_655 S
C943 H937 0.950 . S
C943 C942 1.314 1_455 S
C943 C947 1.429 1_455 S
C944 C927 1.574 1_655 S
C944 H938 0.949 . S
C944 C948 1.368 1_655 S
C945 C926 1.429 . S
C945 C939 1.429 . S
C945 C946 1.523 . S
C946 C927 1.368 . S
C946 C940 1.368 . S
C946 C945 1.523 . S
C947 C931 1.429 . S
C947 C943 1.429 1_655 S
C947 C948 1.523 1_655 S
C948 C932 1.368 . S
C948 C944 1.368 1_455 S
C948 C947 1.523 1_455 S
H949 C924 0.950 . S
H950 C926 0.950 . S
H951 C927 0.949 1_655 S
H952 C929 0.950 . S
H953 C931 0.950 . S
C954 C955 1.349 . S
C954 C956 1.327 . S
C954 H979 0.950 . S
C955 C954 1.349 . S
C955 C971 1.349 . S
C956 C954 1.327 . S
C956 C975 1.429 . S
C956 H980 0.950 . S
C957 C974 1.574 1_455 S
C957 C976 1.368 . S
C957 H981 0.949 . S
H958 C962 0.949 . S
C959 C960 1.349 . S
C959 C961 1.327 . S
C959 H982 0.950 . S
C960 C959 1.349 . S
C960 C972 1.349 . S
C961 C959 1.327 . S
C961 C977 1.429 . S
C961 H983 0.950 . S
C962 H958 0.949 . S
C962 C970 1.574 1_655 S
C962 C978 1.368 . S
H963 C971 0.950 . S
H964 C969 0.950 . S
H965 C970 0.949 . S
H966 C972 0.950 . S
H967 C973 0.950 . S
H968 C974 0.949 . S
C969 H964 0.950 . S
C969 C971 1.327 . S
C969 C975 1.429 . S
C970 C962 1.574 1_455 S
C970 H965 0.949 . S
C970 C976 1.368 . S
C971 C955 1.349 . S
C971 H963 0.950 . S
C971 C969 1.327 . S
C972 C960 1.349 . S
C972 H966 0.950 . S
C972 C973 1.327 . S
C973 H967 0.950 . S
C973 C972 1.327 . S
C973 C977 1.429 . S
C974 C957 1.574 1_655 S
C974 H968 0.949 . S
C974 C978 1.368 . S
C975 C956 1.429 . S
C975 C969 1.429 . S
C975 C976 1.523 . S
C976 C957 1.368 . S
C976 C970 1.368 . S
C976 C975 1.523 . S
C977 C961 1.429 . S
C977 C973 1.429 . S
C977 C978 1.523 . S
C978 C962 1.368 . S
C978 C974 1.368 . S
C978 C977 1.523 . S
H979 C954 0.950 . S
H980 C956 0.950 . S
H981 C957 0.949 . S
H982 C959 0.950 . S
H983 C961 0.950 . S
C984 C985 1.349 . S
C984 C986 1.327 . S
C984 H1009 0.950 . S
C985 C984 1.349 . S
C985 C1001 1.349 . S
C986 C984 1.327 . S
C986 C1005 1.429 . S
C986 H1010 0.950 . S
C987 C1004 1.574 . S
C987 C1006 1.368 . S
C987 H1011 0.949 . S
H988 C992 0.949 . S
C989 C990 1.349 . S
C989 C991 1.327 . S
C989 H1012 0.950 . S
C990 C989 1.349 . S
C990 C1002 1.349 . S
C991 C989 1.327 . S
C991 C1007 1.429 . S
C991 H1013 0.950 . S
C992 H988 0.949 . S
C992 C1000 1.574 . S
C992 C1008 1.368 . S
H993 C1001 0.950 . S
H994 C999 0.950 . S
H995 C1000 0.949 . S
H996 C1002 0.950 . S
H997 C1003 0.950 . S
H998 C1004 0.949 . S
C999 H994 0.950 . S
C999 C1001 1.327 . S
C999 C1005 1.429 . S
C1000 C992 1.574 . S
C1000 H995 0.949 . S
C1000 C1006 1.368 . S
C1001 C985 1.349 . S
C1001 H993 0.950 . S
C1001 C999 1.327 . S
C1002 C990 1.349 . S
C1002 H996 0.950 . S
C1002 C1003 1.327 . S
C1003 H997 0.950 . S
C1003 C1002 1.327 . S
C1003 C1007 1.429 . S
C1004 C987 1.574 . S
C1004 H998 0.949 . S
C1004 C1008 1.368 . S
C1005 C986 1.429 . S
C1005 C999 1.429 . S
C1005 C1006 1.523 . S
C1006 C987 1.368 . S
C1006 C1000 1.368 . S
C1006 C1005 1.523 . S
C1007 C991 1.429 . S
C1007 C1003 1.429 . S
C1007 C1008 1.523 . S
C1008 C992 1.368 . S
C1008 C1004 1.368 . S
C1008 C1007 1.523 . S
H1009 C984 0.950 . S
H1010 C986 0.950 . S
H1011 C987 0.949 . S
H1012 C989 0.950 . S
H1013 C991 0.950 . S
C1014 C1015 1.349 . S
C1014 C1016 1.327 . S
C1014 H1039 0.950 . S
C1015 C1014 1.349 . S
C1015 C1031 1.349 . S
C1016 C1014 1.327 . S
C1016 C1035 1.429 . S
C1016 H1040 0.950 . S
C1017 C1034 1.574 1_565 S
C1017 C1036 1.368 . S
C1017 H1041 0.949 . S
H1018 C1022 0.949 . S
C1019 C1020 1.349 . S
C1019 C1021 1.327 . S
C1019 H1042 0.950 . S
C1020 C1019 1.349 . S
C1020 C1032 1.349 . S
C1021 C1019 1.327 . S
C1021 C1037 1.429 . S
C1021 H1043 0.950 . S
C1022 H1018 0.949 . S
C1022 C1030 1.574 1_545 S
C1022 C1038 1.368 . S
H1023 C1031 0.950 . S
H1024 C1029 0.950 . S
H1025 C1030 0.949 . S
H1026 C1032 0.950 . S
H1027 C1033 0.950 . S
H1028 C1034 0.949 . S
C1029 H1024 0.950 . S
C1029 C1031 1.327 . S
C1029 C1035 1.429 . S
C1030 C1022 1.574 1_565 S
C1030 H1025 0.949 . S
C1030 C1036 1.368 . S
C1031 C1015 1.349 . S
C1031 H1023 0.950 . S
C1031 C1029 1.327 . S
C1032 C1020 1.349 . S
C1032 H1026 0.950 . S
C1032 C1033 1.327 . S
C1033 H1027 0.950 . S
C1033 C1032 1.327 . S
C1033 C1037 1.429 . S
C1034 C1017 1.574 1_545 S
C1034 H1028 0.949 . S
C1034 C1038 1.368 . S
C1035 C1016 1.429 . S
C1035 C1029 1.429 . S
C1035 C1036 1.523 . S
C1036 C1017 1.368 . S
C1036 C1030 1.368 . S
C1036 C1035 1.523 . S
C1037 C1021 1.429 . S
C1037 C1033 1.429 . S
C1037 C1038 1.523 . S
C1038 C1022 1.368 . S
C1038 C1034 1.368 . S
C1038 C1037 1.523 . S
H1039 C1014 0.950 . S
H1040 C1016 0.950 . S
H1041 C1017 0.949 . S
H1042 C1019 0.950 . S
H1043 C1021 0.950 . S
C1044 C1045 1.349 . S
C1044 C1046 1.327 . S
C1044 H1069 0.950 . S
C1045 C1044 1.349 . S
C1045 C1061 1.349 . S
C1046 C1044 1.327 . S
C1046 C1065 1.429 . S
C1046 H1070 0.950 . S
C1047 C1064 1.574 1_545 S
C1047 C1066 1.368 . S
C1047 H1071 0.949 . S
H1048 C1052 0.949 . S
C1049 C1050 1.349 . S
C1049 C1051 1.327 . S
C1049 H1072 0.950 . S
C1050 C1049 1.349 . S
C1050 C1062 1.349 . S
C1051 C1049 1.327 . S
C1051 C1067 1.429 . S
C1051 H1073 0.950 . S
C1052 H1048 0.949 . S
C1052 C1060 1.574 1_565 S
C1052 C1068 1.368 . S
H1053 C1061 0.950 . S
H1054 C1059 0.950 . S
H1055 C1060 0.949 . S
H1056 C1062 0.950 . S
H1057 C1063 0.950 . S
H1058 C1064 0.949 . S
C1059 H1054 0.950 . S
C1059 C1061 1.327 . S
C1059 C1065 1.429 . S
C1060 C1052 1.574 1_545 S
C1060 H1055 0.949 . S
C1060 C1066 1.368 . S
C1061 C1045 1.349 . S
C1061 H1053 0.950 . S
C1061 C1059 1.327 . S
C1062 C1050 1.349 . S
C1062 H1056 0.950 . S
C1062 C1063 1.327 . S
C1063 H1057 0.950 . S
C1063 C1062 1.327 . S
C1063 C1067 1.429 . S
C1064 C1047 1.574 1_565 S
C1064 H1058 0.949 . S
C1064 C1068 1.368 . S
C1065 C1046 1.429 . S
C1065 C1059 1.429 . S
C1065 C1066 1.523 . S
C1066 C1047 1.368 . S
C1066 C1060 1.368 . S
C1066 C1065 1.523 . S
C1067 C1051 1.429 . S
C1067 C1063 1.429 . S
C1067 C1068 1.523 . S
C1068 C1052 1.368 . S
C1068 C1064 1.368 . S
C1068 C1067 1.523 . S
H1069 C1044 0.950 . S
H1070 C1046 0.950 . S
H1071 C1047 0.949 . S
H1072 C1049 0.950 . S
H1073 C1051 0.950 . S
C1074 C1075 1.349 . S
C1074 C1076 1.327 . S
C1074 H1099 0.950 . S
C1075 C1074 1.349 . S
C1075 C1091 1.349 . S
C1076 C1074 1.327 . S
C1076 C1095 1.429 . S
C1076 H1100 0.950 . S
C1077 C1094 1.574 1_455 S
C1077 C1096 1.368 . S
C1077 H1101 0.949 . S
H1078 C1082 0.949 . S
C1079 C1080 1.349 . S
C1079 C1081 1.327 . S
C1079 H1102 0.950 . S
C1080 C1079 1.349 . S
C1080 C1092 1.349 . S
C1081 C1079 1.327 . S
C1081 C1097 1.429 . S
C1081 H1103 0.950 . S
C1082 H1078 0.949 . S
C1082 C1090 1.574 1_655 S
C1082 C1098 1.368 . S
H1083 C1091 0.950 . S
H1084 C1089 0.950 . S
H1085 C1090 0.949 . S
H1086 C1092 0.950 . S
H1087 C1093 0.950 . S
H1088 C1094 0.949 . S
C1089 H1084 0.950 . S
C1089 C1091 1.327 . S
C1089 C1095 1.429 . S
C1090 C1082 1.574 1_455 S
C1090 H1085 0.949 . S
C1090 C1096 1.368 . S
C1091 C1075 1.349 . S
C1091 H1083 0.950 . S
C1091 C1089 1.327 . S
C1092 C1080 1.349 . S
C1092 H1086 0.950 . S
C1092 C1093 1.327 . S
C1093 H1087 0.950 . S
C1093 C1092 1.327 . S
C1093 C1097 1.429 . S
C1094 C1077 1.574 1_655 S
C1094 H1088 0.949 . S
C1094 C1098 1.368 . S
C1095 C1076 1.429 . S
C1095 C1089 1.429 . S
C1095 C1096 1.523 . S
C1096 C1077 1.368 . S
C1096 C1090 1.368 . S
C1096 C1095 1.523 . S
C1097 C1081 1.429 . S
C1097 C1093 1.429 . S
C1097 C1098 1.523 . S
C1098 C1082 1.368 . S
C1098 C1094 1.368 . S
C1098 C1097 1.523 . S
H1099 C1074 0.950 . S
H1100 C1076 0.950 . S
H1101 C1077 0.949 . S
H1102 C1079 0.950 . S
H1103 C1081 0.950 . S
C1104 C1105 1.349 . S
C1104 C1106 1.327 . S
C1104 H1129 0.950 . S
C1105 C1104 1.349 . S
C1105 C1121 1.349 . S
C1106 C1104 1.327 . S
C1106 C1125 1.429 . S
C1106 H1130 0.950 . S
C1107 C1124 1.574 . S
C1107 C1126 1.368 . S
C1107 H1131 0.949 . S
H1108 C1112 0.949 . S
C1109 C1110 1.349 . S
C1109 C1111 1.327 . S
C1109 H1132 0.950 . S
C1110 C1109 1.349 . S
C1110 C1122 1.349 . S
C1111 C1109 1.327 . S
C1111 C1127 1.429 . S
C1111 H1133 0.950 . S
C1112 H1108 0.949 . S
C1112 C1120 1.574 . S
C1112 C1128 1.368 . S
H1113 C1121 0.950 . S
H1114 C1119 0.950 . S
H1115 C1120 0.949 . S
H1116 C1122 0.950 . S
H1117 C1123 0.950 . S
H1118 C1124 0.949 . S
C1119 H1114 0.950 . S
C1119 C1121 1.327 . S
C1119 C1125 1.429 . S
C1120 C1112 1.574 . S
C1120 H1115 0.949 . S
C1120 C1126 1.368 . S
C1121 C1105 1.349 . S
C1121 H1113 0.950 . S
C1121 C1119 1.327 . S
C1122 C1110 1.349 . S
C1122 H1116 0.950 . S
C1122 C1123 1.327 . S
C1123 H1117 0.950 . S
C1123 C1122 1.327 . S
C1123 C1127 1.429 . S
C1124 C1107 1.574 . S
C1124 H1118 0.949 . S
C1124 C1128 1.368 . S
C1125 C1106 1.429 . S
C1125 C1119 1.429 . S
C1125 C1126 1.523 . S
C1126 C1107 1.368 . S
C1126 C1120 1.368 . S
C1126 C1125 1.523 . S
C1127 C1111 1.429 . S
C1127 C1123 1.429 . S
C1127 C1128 1.523 . S
C1128 C1112 1.368 . S
C1128 C1124 1.368 . S
C1128 C1127 1.523 . S
H1129 C1104 0.950 . S
H1130 C1106 0.950 . S
H1131 C1107 0.949 . S
H1132 C1109 0.950 . S
H1133 C1111 0.950 . S
C1134 C1135 1.349 . S
C1134 C1136 1.327 . S
C1134 H1159 0.950 . S
C1135 C1134 1.349 . S
C1135 C1151 1.349 . S
C1136 C1134 1.327 . S
C1136 C1155 1.429 . S
C1136 H1160 0.950 . S
C1137 C1154 1.574 . S
C1137 C1156 1.368 . S
C1137 H1161 0.949 . S
H1138 C1142 0.949 . S
C1139 C1140 1.349 . S
C1139 C1141 1.327 . S
C1139 H1162 0.950 . S
C1140 C1139 1.349 . S
C1140 C1152 1.349 . S
C1141 C1139 1.327 . S
C1141 C1157 1.429 . S
C1141 H1163 0.950 . S
C1142 H1138 0.949 . S
C1142 C1150 1.574 . S
C1142 C1158 1.368 . S
H1143 C1151 0.950 . S
H1144 C1149 0.950 . S
H1145 C1150 0.949 . S
H1146 C1152 0.950 . S
H1147 C1153 0.950 . S
H1148 C1154 0.949 . S
C1149 H1144 0.950 . S
C1149 C1151 1.327 . S
C1149 C1155 1.429 . S
C1150 C1142 1.574 . S
C1150 H1145 0.949 . S
C1150 C1156 1.368 . S
C1151 C1135 1.349 . S
C1151 H1143 0.950 . S
C1151 C1149 1.327 . S
C1152 C1140 1.349 . S
C1152 H1146 0.950 . S
C1152 C1153 1.327 . S
C1153 H1147 0.950 . S
C1153 C1152 1.327 . S
C1153 C1157 1.429 . S
C1154 C1137 1.574 . S
C1154 H1148 0.949 . S
C1154 C1158 1.368 . S
C1155 C1136 1.429 . S
C1155 C1149 1.429 . S
C1155 C1156 1.523 . S
C1156 C1137 1.368 . S
C1156 C1150 1.368 . S
C1156 C1155 1.523 . S
C1157 C1141 1.429 . S
C1157 C1153 1.429 . S
C1157 C1158 1.523 . S
C1158 C1142 1.368 . S
C1158 C1154 1.368 . S
C1158 C1157 1.523 . S
H1159 C1134 0.950 . S
H1160 C1136 0.950 . S
H1161 C1137 0.949 . S
H1162 C1139 0.950 . S
H1163 C1141 0.950 . S
C1164 C1165 1.349 . S
C1164 C1166 1.327 . S
C1164 H1189 0.950 . S
C1165 C1164 1.349 . S
C1165 C1181 1.349 . S
C1166 C1164 1.327 . S
C1166 C1185 1.429 . S
C1166 H1190 0.950 . S
C1167 C1184 1.574 . S
C1167 C1186 1.368 . S
C1167 H1191 0.949 . S
H1168 C1172 0.949 . S
C1169 C1170 1.349 . S
C1169 C1171 1.327 . S
C1169 H1192 0.950 . S
C1170 C1169 1.349 . S
C1170 C1182 1.349 . S
C1171 C1169 1.327 . S
C1171 C1187 1.429 . S
C1171 H1193 0.950 . S
C1172 H1168 0.949 . S
C1172 C1180 1.574 . S
C1172 C1188 1.368 . S
H1173 C1181 0.950 . S
H1174 C1179 0.950 . S
H1175 C1180 0.949 . S
H1176 C1182 0.950 . S
H1177 C1183 0.950 . S
H1178 C1184 0.949 . S
C1179 H1174 0.950 . S
C1179 C1181 1.327 . S
C1179 C1185 1.429 . S
C1180 C1172 1.574 . S
C1180 H1175 0.949 . S
C1180 C1186 1.368 . S
C1181 C1165 1.349 . S
C1181 H1173 0.950 . S
C1181 C1179 1.327 . S
C1182 C1170 1.349 . S
C1182 H1176 0.950 . S
C1182 C1183 1.327 . S
C1183 H1177 0.950 . S
C1183 C1182 1.327 . S
C1183 C1187 1.429 . S
C1184 C1167 1.574 . S
C1184 H1178 0.949 . S
C1184 C1188 1.368 . S
C1185 C1166 1.429 . S
C1185 C1179 1.429 . S
C1185 C1186 1.523 . S
C1186 C1167 1.368 . S
C1186 C1180 1.368 . S
C1186 C1185 1.523 . S
C1187 C1171 1.429 . S
C1187 C1183 1.429 . S
C1187 C1188 1.523 . S
C1188 C1172 1.368 . S
C1188 C1184 1.368 . S
C1188 C1187 1.523 . S
H1189 C1164 0.950 . S
H1190 C1166 0.950 . S
H1191 C1167 0.949 . S
H1192 C1169 0.950 . S
H1193 C1171 0.950 . S
C1194 C1195 1.349 . S
C1194 C1196 1.327 . S
C1194 H1219 0.950 . S
C1195 C1194 1.349 . S
C1195 C1211 1.349 . S
C1196 C1194 1.327 . S
C1196 C1215 1.429 . S
C1196 H1220 0.950 . S
C1197 C1214 1.574 . S
C1197 C1216 1.368 . S
C1197 H1221 0.949 . S
H1198 C1202 0.949 . S
C1199 C1200 1.349 . S
C1199 C1201 1.327 . S
C1199 H1222 0.950 . S
C1200 C1199 1.349 . S
C1200 C1212 1.349 . S
C1201 C1199 1.327 . S
C1201 C1217 1.429 . S
C1201 H1223 0.950 . S
C1202 H1198 0.949 . S
C1202 C1210 1.574 . S
C1202 C1218 1.368 . S
H1203 C1211 0.950 . S
H1204 C1209 0.950 . S
H1205 C1210 0.949 . S
H1206 C1212 0.950 . S
H1207 C1213 0.950 . S
H1208 C1214 0.949 . S
C1209 H1204 0.950 . S
C1209 C1211 1.327 . S
C1209 C1215 1.429 . S
C1210 C1202 1.574 . S
C1210 H1205 0.949 . S
C1210 C1216 1.368 . S
C1211 C1195 1.349 . S
C1211 H1203 0.950 . S
C1211 C1209 1.327 . S
C1212 C1200 1.349 . S
C1212 H1206 0.950 . S
C1212 C1213 1.327 . S
C1213 H1207 0.950 . S
C1213 C1212 1.327 . S
C1213 C1217 1.429 . S
C1214 C1197 1.574 . S
C1214 H1208 0.949 . S
C1214 C1218 1.368 . S
C1215 C1196 1.429 . S
C1215 C1209 1.429 . S
C1215 C1216 1.523 . S
C1216 C1197 1.368 . S
C1216 C1210 1.368 . S
C1216 C1215 1.523 . S
C1217 C1201 1.429 . S
C1217 C1213 1.429 . S
C1217 C1218 1.523 . S
C1218 C1202 1.368 . S
C1218 C1214 1.368 . S
C1218 C1217 1.523 . S
H1219 C1194 0.950 . S
H1220 C1196 0.950 . S
H1221 C1197 0.949 . S
H1222 C1199 0.950 . S
H1223 C1201 0.950 . S
C1224 C1225 1.349 . S
C1224 C1226 1.327 . S
C1224 H1249 0.950 . S
C1225 C1224 1.349 . S
C1225 C1241 1.349 . S
C1226 C1224 1.327 . S
C1226 C1245 1.429 . S
C1226 H1250 0.950 . S
C1227 C1244 1.574 . S
C1227 C1246 1.368 . S
C1227 H1251 0.949 . S
H1228 C1232 0.949 . S
C1229 C1230 1.349 . S
C1229 C1231 1.327 . S
C1229 H1252 0.950 . S
C1230 C1229 1.349 . S
C1230 C1242 1.349 . S
C1231 C1229 1.327 . S
C1231 C1247 1.429 . S
C1231 H1253 0.950 . S
C1232 H1228 0.949 . S
C1232 C1240 1.574 . S
C1232 C1248 1.368 . S
H1233 C1241 0.950 . S
H1234 C1239 0.950 . S
H1235 C1240 0.949 . S
H1236 C1242 0.950 . S
H1237 C1243 0.950 . S
H1238 C1244 0.949 . S
C1239 H1234 0.950 . S
C1239 C1241 1.327 . S
C1239 C1245 1.429 . S
C1240 C1232 1.574 . S
C1240 H1235 0.949 . S
C1240 C1246 1.368 . S
C1241 C1225 1.349 . S
C1241 H1233 0.950 . S
C1241 C1239 1.327 . S
C1242 C1230 1.349 . S
C1242 H1236 0.950 . S
C1242 C1243 1.327 . S
C1243 H1237 0.950 . S
C1243 C1242 1.327 . S
C1243 C1247 1.429 . S
C1244 C1227 1.574 . S
C1244 H1238 0.949 . S
C1244 C1248 1.368 . S
C1245 C1226 1.429 . S
C1245 C1239 1.429 . S
C1245 C1246 1.523 . S
C1246 C1227 1.368 . S
C1246 C1240 1.368 . S
C1246 C1245 1.523 . S
C1247 C1231 1.429 . S
C1247 C1243 1.429 . S
C1247 C1248 1.523 . S
C1248 C1232 1.368 . S
C1248 C1244 1.368 . S
C1248 C1247 1.523 . S
H1249 C1224 0.950 . S
H1250 C1226 0.950 . S
H1251 C1227 0.949 . S
H1252 C1229 0.950 . S
H1253 C1231 0.950 . S
C1254 C1255 1.349 . S
C1254 C1256 1.327 . S
C1254 H1279 0.950 . S
C1255 C1254 1.349 . S
C1255 C1271 1.349 . S
C1256 C1254 1.327 . S
C1256 C1275 1.429 . S
C1256 H1280 0.950 . S
C1257 C1274 1.574 . S
C1257 C1276 1.368 . S
C1257 H1281 0.949 . S
H1258 C1262 0.949 . S
C1259 C1260 1.349 . S
C1259 C1261 1.327 . S
C1259 H1282 0.950 . S
C1260 C1259 1.349 . S
C1260 C1272 1.349 . S
C1261 C1259 1.327 . S
C1261 C1277 1.429 . S
C1261 H1283 0.950 . S
C1262 H1258 0.949 . S
C1262 C1270 1.574 . S
C1262 C1278 1.368 . S
H1263 C1271 0.950 . S
H1264 C1269 0.950 . S
H1265 C1270 0.949 . S
H1266 C1272 0.950 . S
H1267 C1273 0.950 . S
H1268 C1274 0.949 . S
C1269 H1264 0.950 . S
C1269 C1271 1.327 . S
C1269 C1275 1.429 . S
C1270 C1262 1.574 . S
C1270 H1265 0.949 . S
C1270 C1276 1.368 . S
C1271 C1255 1.349 . S
C1271 H1263 0.950 . S
C1271 C1269 1.327 . S
C1272 C1260 1.349 . S
C1272 H1266 0.950 . S
C1272 C1273 1.327 . S
C1273 H1267 0.950 . S
C1273 C1272 1.327 . S
C1273 C1277 1.429 . S
C1274 C1257 1.574 . S
C1274 H1268 0.949 . S
C1274 C1278 1.368 . S
C1275 C1256 1.429 . S
C1275 C1269 1.429 . S
C1275 C1276 1.523 . S
C1276 C1257 1.368 . S
C1276 C1270 1.368 . S
C1276 C1275 1.523 . S
C1277 C1261 1.429 . S
C1277 C1273 1.429 . S
C1277 C1278 1.523 . S
C1278 C1262 1.368 . S
C1278 C1274 1.368 . S
C1278 C1277 1.523 . S
H1279 C1254 0.950 . S
H1280 C1256 0.950 . S
H1281 C1257 0.949 . S
H1282 C1259 0.950 . S
H1283 C1261 0.950 . S
C1284 C1285 1.349 . S
C1284 C1286 1.327 . S
C1284 H1309 0.950 . S
C1285 C1284 1.349 . S
C1285 C1301 1.349 . S
C1286 C1284 1.327 . S
C1286 C1305 1.429 . S
C1286 H1310 0.950 . S
C1287 C1304 1.574 . S
C1287 C1306 1.368 . S
C1287 H1311 0.949 . S
H1288 C1292 0.949 . S
C1289 C1290 1.349 . S
C1289 C1291 1.327 . S
C1289 H1312 0.950 . S
C1290 C1289 1.349 . S
C1290 C1302 1.349 . S
C1291 C1289 1.327 . S
C1291 C1307 1.429 . S
C1291 H1313 0.950 . S
C1292 H1288 0.949 . S
C1292 C1300 1.574 . S
C1292 C1308 1.368 . S
H1293 C1301 0.950 . S
H1294 C1299 0.950 . S
H1295 C1300 0.949 . S
H1296 C1302 0.950 . S
H1297 C1303 0.950 . S
H1298 C1304 0.949 . S
C1299 H1294 0.950 . S
C1299 C1301 1.327 . S
C1299 C1305 1.429 . S
C1300 C1292 1.574 . S
C1300 H1295 0.949 . S
C1300 C1306 1.368 . S
C1301 C1285 1.349 . S
C1301 H1293 0.950 . S
C1301 C1299 1.327 . S
C1302 C1290 1.349 . S
C1302 H1296 0.950 . S
C1302 C1303 1.327 . S
C1303 H1297 0.950 . S
C1303 C1302 1.327 . S
C1303 C1307 1.429 . S
C1304 C1287 1.574 . S
C1304 H1298 0.949 . S
C1304 C1308 1.368 . S
C1305 C1286 1.429 . S
C1305 C1299 1.429 . S
C1305 C1306 1.523 . S
C1306 C1287 1.368 . S
C1306 C1300 1.368 . S
C1306 C1305 1.523 . S
C1307 C1291 1.429 . S
C1307 C1303 1.429 . S
C1307 C1308 1.523 . S
C1308 C1292 1.368 . S
C1308 C1304 1.368 . S
C1308 C1307 1.523 . S
H1309 C1284 0.950 . S
H1310 C1286 0.950 . S
H1311 C1287 0.949 . S
H1312 C1289 0.950 . S
H1313 C1291 0.950 . S
C1314 C1315 1.349 . S
C1314 C1316 1.327 1_655 S
C1314 H1339 0.950 1_655 S
C1315 C1314 1.349 . S
C1315 C1331 1.349 . S
C1316 C1314 1.327 1_455 S
C1316 C1335 1.429 1_455 S
C1316 H1340 0.950 . S
C1317 C1334 1.574 1_554 S
C1317 C1336 1.368 . S
C1317 H1341 0.949 . S
H1318 C1322 0.949 . S
C1319 C1320 1.349 1_655 S
C1319 C1321 1.327 . S
C1319 H1342 0.950 . S
C1320 C1319 1.349 1_455 S
C1320 C1332 1.349 . S
C1321 C1319 1.327 . S
C1321 C1337 1.429 1_655 S
C1321 H1343 0.950 . S
C1322 H1318 0.949 . S
C1322 C1330 1.574 1_556 S
C1322 C1338 1.368 . S
H1323 C1331 0.950 . S
H1324 C1329 0.950 . S
H1325 C1330 0.949 . S
H1326 C1332 0.950 . S
H1327 C1333 0.950 . S
H1328 C1334 0.949 . S
C1329 H1324 0.950 . S
C1329 C1331 1.327 . S
C1329 C1335 1.429 . S
C1330 C1322 1.574 1_554 S
C1330 H1325 0.949 . S
C1330 C1336 1.368 1_455 S
C1331 C1315 1.349 . S
C1331 H1323 0.950 . S
C1331 C1329 1.327 . S
C1332 C1320 1.349 . S
C1332 H1326 0.950 . S
C1332 C1333 1.327 . S
C1333 H1327 0.950 . S
C1333 C1332 1.327 . S
C1333 C1337 1.429 . S
C1334 C1317 1.574 1_556 S
C1334 H1328 0.949 . S
C1334 C1338 1.368 1_655 S
C1335 C1316 1.429 1_655 S
C1335 C1329 1.429 . S
C1335 C1336 1.523 . S
C1336 C1317 1.368 . S
C1336 C1330 1.368 1_655 S
C1336 C1335 1.523 . S
C1337 C1321 1.429 1_455 S
C1337 C1333 1.429 . S
C1337 C1338 1.523 . S
C1338 C1322 1.368 . S
C1338 C1334 1.368 1_455 S
C1338 C1337 1.523 . S
H1339 C1314 0.950 1_455 S
H1340 C1316 0.950 . S
H1341 C1317 0.949 . S
H1342 C1319 0.950 . S
H1343 C1321 0.950 . S
C1344 C1345 1.349 . S
C1344 C1346 1.327 . S
C1344 H1369 0.950 . S
C1345 C1344 1.349 . S
C1345 C1361 1.349 . S
C1346 C1344 1.327 . S
C1346 C1365 1.429 . S
C1346 H1370 0.950 . S
C1347 C1364 1.574 1_554 S
C1347 C1366 1.368 . S
C1347 H1371 0.949 . S
H1348 C1352 0.949 . S
C1349 C1350 1.349 . S
C1349 C1351 1.327 . S
C1349 H1372 0.950 . S
C1350 C1349 1.349 . S
C1350 C1362 1.349 . S
C1351 C1349 1.327 . S
C1351 C1367 1.429 . S
C1351 H1373 0.950 . S
C1352 H1348 0.949 . S
C1352 C1360 1.574 1_556 S
C1352 C1368 1.368 . S
H1353 C1361 0.950 . S
H1354 C1359 0.950 . S
H1355 C1360 0.949 . S
H1356 C1362 0.950 . S
H1357 C1363 0.950 . S
H1358 C1364 0.949 . S
C1359 H1354 0.950 . S
C1359 C1361 1.327 . S
C1359 C1365 1.429 . S
C1360 C1352 1.574 1_554 S
C1360 H1355 0.949 . S
C1360 C1366 1.368 . S
C1361 C1345 1.349 . S
C1361 H1353 0.950 . S
C1361 C1359 1.327 . S
C1362 C1350 1.349 . S
C1362 H1356 0.950 . S
C1362 C1363 1.327 . S
C1363 H1357 0.950 . S
C1363 C1362 1.327 . S
C1363 C1367 1.429 . S
C1364 C1347 1.574 1_556 S
C1364 H1358 0.949 . S
C1364 C1368 1.368 . S
C1365 C1346 1.429 . S
C1365 C1359 1.429 . S
C1365 C1366 1.523 . S
C1366 C1347 1.368 . S
C1366 C1360 1.368 . S
C1366 C1365 1.523 . S
C1367 C1351 1.429 . S
C1367 C1363 1.429 . S
C1367 C1368 1.523 . S
C1368 C1352 1.368 . S
C1368 C1364 1.368 . S
C1368 C1367 1.523 . S
H1369 C1344 0.950 . S
H1370 C1346 0.950 . S
H1371 C1347 0.949 . S
H1372 C1349 0.950 . S
H1373 C1351 0.950 . S
C1374 C1375 1.349 . S
C1374 C1376 1.327 . S
C1374 H1399 0.950 . S
C1375 C1374 1.349 . S
C1375 C1391 1.368 . S
C1376 C1374 1.327 . S
C1376 C1395 1.429 . S
C1376 H1400 0.950 . S
C1377 C1394 1.574 1_554 S
C1377 C1396 1.368 1_565 S
C1377 H1401 0.949 . S
H1378 C1382 0.949 . S
C1379 C1380 1.349 . S
C1379 C1381 1.327 . S
C1379 H1402 0.950 . S
C1380 C1379 1.349 . S
C1380 C1392 1.349 . S
C1381 C1379 1.327 . S
C1381 C1397 1.429 . S
C1381 H1403 0.950 . S
C1382 H1378 0.949 . S
C1382 C1390 1.574 1_556 S
C1382 C1398 1.368 1_545 S
H1383 C1391 0.940 1_565 S
H1384 C1389 0.950 . S
H1385 C1390 0.949 . S
H1386 C1392 0.950 1_545 S
H1387 C1393 0.950 . S
H1388 C1394 0.949 . S
C1389 H1384 0.950 . S
C1389 C1391 1.320 1_565 S
C1389 C1395 1.429 1_565 S
C1390 C1382 1.574 1_554 S
C1390 H1385 0.949 . S
C1390 C1396 1.368 . S
C1391 C1375 1.368 . S
C1391 H1383 0.940 1_545 S
C1391 C1389 1.320 1_545 S
C1392 C1380 1.349 . S
C1392 H1386 0.950 1_565 S
C1392 C1393 1.327 1_565 S
C1393 H1387 0.950 . S
C1393 C1392 1.327 1_545 S
C1393 C1397 1.429 1_545 S
C1394 C1377 1.574 1_556 S
C1394 H1388 0.949 . S
C1394 C1398 1.368 . S
C1395 C1376 1.429 . S
C1395 C1389 1.429 1_545 S
C1395 C1396 1.523 . S
C1396 C1377 1.368 1_545 S
C1396 C1390 1.368 . S
C1396 C1395 1.523 . S
C1397 C1381 1.429 . S
C1397 C1393 1.429 1_565 S
C1397 C1398 1.523 . S
C1398 C1382 1.368 1_565 S
C1398 C1394 1.368 . S
C1398 C1397 1.523 . S
H1399 C1374 0.950 . S
H1400 C1376 0.950 . S
H1401 C1377 0.949 . S
H1402 C1379 0.950 . S
H1403 C1381 0.950 . S
C1404 C1405 1.349 . S
C1404 C1406 1.327 1_565 S
C1404 H1429 0.950 . S
C1405 C1404 1.349 . S
C1405 C1421 1.349 1_565 S
C1406 C1404 1.327 1_545 S
C1406 C1425 1.429 . S
C1406 H1430 0.950 . S
C1407 C1424 1.574 . S
C1407 C1426 1.368 . S
C1407 H1431 0.949 . S
H1408 C1412 0.949 . S
C1409 C1410 1.349 . S
C1409 C1411 1.327 . S
C1409 H1432 0.950 . S
C1410 C1409 1.349 . S
C1410 C1422 1.349 . S
C1411 C1409 1.327 . S
C1411 C1427 1.429 . S
C1411 H1433 0.950 . S
C1412 H1408 0.949 . S
C1412 C1420 1.574 . S
C1412 C1428 1.368 . S
H1413 C1421 0.950 . S
H1414 C1419 0.950 . S
H1415 C1420 0.949 . S
H1416 C1422 0.950 . S
H1417 C1423 0.950 . S
H1418 C1424 0.949 . S
C1419 H1414 0.950 . S
C1419 C1421 1.327 . S
C1419 C1425 1.429 . S
C1420 C1412 1.574 . S
C1420 H1415 0.949 . S
C1420 C1426 1.368 . S
C1421 C1405 1.349 1_545 S
C1421 H1413 0.950 . S
C1421 C1419 1.327 . S
C1422 C1410 1.349 . S
C1422 H1416 0.950 . S
C1422 C1423 1.327 . S
C1423 H1417 0.950 . S
C1423 C1422 1.327 . S
C1423 C1427 1.429 . S
C1424 C1407 1.574 . S
C1424 H1418 0.949 . S
C1424 C1428 1.368 . S
C1425 C1406 1.429 . S
C1425 C1419 1.429 . S
C1425 C1426 1.523 . S
C1426 C1407 1.368 . S
C1426 C1420 1.368 . S
C1426 C1425 1.523 . S
C1427 C1411 1.429 . S
C1427 C1423 1.429 . S
C1427 C1428 1.523 . S
C1428 C1412 1.368 . S
C1428 C1424 1.368 . S
C1428 C1427 1.523 . S
H1429 C1404 0.950 . S
H1430 C1406 0.950 . S
H1431 C1407 0.949 . S
H1432 C1409 0.950 . S
H1433 C1411 0.950 . S
C1434 C1435 1.349 . S
C1434 C1436 1.327 . S
C1434 H1459 0.950 . S
C1435 C1434 1.349 . S
C1435 C1451 1.349 . S
C1436 C1434 1.327 . S
C1436 C1455 1.429 . S
C1436 H1460 0.950 . S
C1437 C1454 1.574 . S
C1437 C1456 1.368 . S
C1437 H1461 0.949 . S
H1438 C1442 0.949 . S
C1439 C1440 1.349 1_655 S
C1439 C1441 1.327 . S
C1439 H1462 0.950 . S
C1440 C1439 1.349 1_455 S
C1440 C1452 1.361 1_455 S
C1441 C1439 1.327 . S
C1441 C1457 1.429 . S
C1441 H1463 0.950 . S
C1442 H1438 0.949 . S
C1442 C1450 1.574 . S
C1442 C1458 1.368 . S
H1443 C1451 0.950 . S
H1444 C1449 0.953 1_545 S
H1445 C1450 0.949 . S
H1446 C1452 0.925 1_455 S
H1447 C1453 0.950 . S
H1448 C1454 0.949 . S
C1449 H1444 0.953 1_565 S
C1449 C1451 1.327 . S
C1449 C1455 1.429 . S
C1450 C1442 1.574 . S
C1450 H1445 0.949 . S
C1450 C1456 1.368 . S
C1451 C1435 1.349 . S
C1451 H1443 0.950 . S
C1451 C1449 1.327 . S
C1452 C1440 1.361 1_655 S
C1452 H1446 0.925 1_655 S
C1452 C1453 1.341 . S
C1453 H1447 0.950 . S
C1453 C1452 1.341 . S
C1453 C1457 1.429 . S
C1454 C1437 1.574 . S
C1454 H1448 0.949 . S
C1454 C1458 1.368 . S
C1455 C1436 1.429 . S
C1455 C1449 1.429 . S
C1455 C1456 1.523 1_565 S
C1456 C1437 1.368 . S
C1456 C1450 1.368 . S
C1456 C1455 1.523 1_545 S
C1457 C1441 1.429 . S
C1457 C1453 1.429 . S
C1457 C1458 1.523 . S
C1458 C1442 1.368 . S
C1458 C1454 1.368 . S
C1458 C1457 1.523 . S
H1459 C1434 0.950 . S
H1460 C1436 0.950 . S
H1461 C1437 0.949 . S
H1462 C1439 0.950 . S
H1463 C1441 0.950 . S
C1464 C1465 1.349 . S
C1464 C1466 1.327 . S
C1464 H1489 0.950 . S
C1465 C1464 1.349 . S
C1465 C1481 1.349 . S
C1466 C1464 1.327 . S
C1466 C1485 1.429 . S
C1466 H1490 0.950 . S
C1467 C1484 1.574 . S
C1467 C1486 1.368 . S
C1467 H1491 0.949 . S
H1468 C1472 0.949 . S
C1469 C1470 1.349 . S
C1469 C1471 1.327 . S
C1469 H1492 0.950 . S
C1470 C1469 1.349 . S
C1470 C1482 1.349 . S
C1471 C1469 1.327 . S
C1471 C1487 1.429 . S
C1471 H1493 0.950 . S
C1472 H1468 0.949 . S
C1472 C1480 1.574 . S
C1472 C1488 1.368 . S
H1473 C1481 0.950 . S
H1474 C1479 0.950 . S
H1475 C1480 0.949 . S
H1476 C1482 0.950 . S
H1477 C1483 0.950 1_655 S
H1478 C1484 0.949 . S
C1479 H1474 0.950 . S
C1479 C1481 1.327 . S
C1479 C1485 1.429 . S
C1480 C1472 1.574 . S
C1480 H1475 0.949 . S
C1480 C1486 1.368 . S
C1481 C1465 1.349 . S
C1481 H1473 0.950 . S
C1481 C1479 1.327 . S
C1482 C1470 1.349 . S
C1482 H1476 0.950 . S
C1482 C1483 1.327 . S
C1483 H1477 0.950 1_455 S
C1483 C1482 1.327 . S
C1483 C1487 1.429 . S
C1484 C1467 1.574 . S
C1484 H1478 0.949 . S
C1484 C1488 1.368 . S
C1485 C1466 1.429 . S
C1485 C1479 1.429 . S
C1485 C1486 1.523 . S
C1486 C1467 1.368 . S
C1486 C1480 1.368 . S
C1486 C1485 1.523 . S
C1487 C1471 1.429 . S
C1487 C1483 1.429 . S
C1487 C1488 1.523 1_455 S
C1488 C1472 1.368 . S
C1488 C1484 1.368 . S
C1488 C1487 1.523 1_655 S
H1489 C1464 0.950 . S
H1490 C1466 0.950 . S
H1491 C1467 0.949 . S
H1492 C1469 0.950 . S
H1493 C1471 0.950 . S
C1494 C1495 1.349 . S
C1494 C1496 1.327 1_655 S
C1494 H1519 0.950 . S
C1495 C1494 1.349 . S
C1495 C1511 1.349 1_655 S
C1496 C1494 1.327 1_455 S
C1496 C1515 1.429 . S
C1496 H1520 0.950 . S
C1497 C1514 1.574 . S
C1497 C1516 1.368 . S
C1497 H1521 0.949 . S
H1498 C1502 0.949 . S
C1499 C1500 1.349 . S
C1499 C1501 1.327 . S
C1499 H1522 0.950 . S
C1500 C1499 1.349 . S
C1500 C1512 1.349 . S
C1501 C1499 1.327 . S
C1501 C1517 1.429 . S
C1501 H1523 0.950 . S
C1502 H1498 0.949 . S
C1502 C1510 1.574 . S
C1502 C1518 1.368 . S
H1503 C1511 0.950 . S
H1504 C1509 0.950 . S
H1505 C1510 0.949 . S
H1506 C1512 0.950 . S
H1507 C1513 0.950 . S
H1508 C1514 0.949 . S
C1509 H1504 0.950 . S
C1509 C1511 1.327 . S
C1509 C1515 1.429 . S
C1510 C1502 1.574 . S
C1510 H1505 0.949 . S
C1510 C1516 1.368 . S
C1511 C1495 1.349 1_455 S
C1511 H1503 0.950 . S
C1511 C1509 1.327 . S
C1512 C1500 1.349 . S
C1512 H1506 0.950 . S
C1512 C1513 1.327 . S
C1513 H1507 0.950 . S
C1513 C1512 1.327 . S
C1513 C1517 1.429 . S
C1514 C1497 1.574 . S
C1514 H1508 0.949 . S
C1514 C1518 1.368 . S
C1515 C1496 1.429 . S
C1515 C1509 1.429 . S
C1515 C1516 1.523 . S
C1516 C1497 1.368 . S
C1516 C1510 1.368 . S
C1516 C1515 1.523 . S
C1517 C1501 1.429 . S
C1517 C1513 1.429 . S
C1517 C1518 1.523 . S
C1518 C1502 1.368 . S
C1518 C1514 1.368 . S
C1518 C1517 1.523 . S
H1519 C1494 0.950 . S
H1520 C1496 0.950 . S
H1521 C1497 0.949 . S
H1522 C1499 0.950 . S
H1523 C1501 0.950 . S
C1524 C1525 1.349 . S
C1524 C1526 1.327 . S
C1524 H1549 0.950 . S
C1525 C1524 1.349 . S
C1525 C1541 1.349 . S
C1526 C1524 1.327 . S
C1526 C1545 1.429 . S
C1526 H1550 0.950 1_545 S
C1527 C1544 1.574 . S
C1527 C1546 1.368 . S
C1527 H1551 0.949 . S
H1528 C1532 0.949 . S
C1529 C1530 1.349 . S
C1529 C1531 1.327 . S
C1529 H1552 0.950 . S
C1530 C1529 1.349 . S
C1530 C1542 1.349 . S
C1531 C1529 1.327 . S
C1531 C1547 1.429 . S
C1531 H1553 0.950 . S
C1532 H1528 0.949 . S
C1532 C1540 1.574 . S
C1532 C1548 1.368 . S
H1533 C1541 0.950 . S
H1534 C1539 0.950 . S
H1535 C1540 0.949 . S
H1536 C1542 0.950 . S
H1537 C1543 0.950 . S
H1538 C1544 0.949 . S
C1539 H1534 0.950 . S
C1539 C1541 1.327 . S
C1539 C1545 1.429 . S
C1540 C1532 1.574 . S
C1540 H1535 0.949 . S
C1540 C1546 1.368 . S
C1541 C1525 1.349 . S
C1541 H1533 0.950 . S
C1541 C1539 1.327 . S
C1542 C1530 1.349 . S
C1542 H1536 0.950 . S
C1542 C1543 1.327 . S
C1543 H1537 0.950 . S
C1543 C1542 1.327 . S
C1543 C1547 1.429 . S
C1544 C1527 1.574 . S
C1544 H1538 0.949 . S
C1544 C1548 1.368 . S
C1545 C1526 1.429 . S
C1545 C1539 1.429 . S
C1545 C1546 1.523 1_545 S
C1546 C1527 1.368 . S
C1546 C1540 1.368 . S
C1546 C1545 1.523 1_565 S
C1547 C1531 1.429 . S
C1547 C1543 1.429 . S
C1547 C1548 1.523 . S
C1548 C1532 1.368 . S
C1548 C1544 1.368 . S
C1548 C1547 1.523 . S
H1549 C1524 0.950 . S
H1550 C1526 0.950 1_565 S
H1551 C1527 0.949 . S
H1552 C1529 0.950 . S
H1553 C1531 0.950 . S
C1554 C1555 1.349 1_565 S
C1554 C1556 1.327 . S
C1554 H1579 0.950 . S
C1555 C1554 1.349 1_545 S
C1555 C1571 1.349 . S
C1556 C1554 1.327 . S
C1556 C1575 1.429 . S
C1556 H1580 0.950 . S
C1557 C1574 1.574 . S
C1557 C1576 1.368 . S
C1557 H1581 0.949 . S
H1558 C1562 0.949 . S
C1559 C1560 1.349 . S
C1559 C1561 1.327 . S
C1559 H1582 0.950 . S
C1560 C1559 1.349 . S
C1560 C1572 1.349 . S
C1561 C1559 1.327 . S
C1561 C1577 1.429 . S
C1561 H1583 0.950 . S
C1562 H1558 0.949 . S
C1562 C1570 1.574 . S
C1562 C1578 1.368 . S
H1563 C1571 0.950 . S
H1564 C1569 0.950 . S
H1565 C1570 0.949 . S
H1566 C1572 0.950 . S
H1567 C1573 0.950 . S
H1568 C1574 0.949 . S
C1569 H1564 0.950 . S
C1569 C1571 1.327 1_565 S
C1569 C1575 1.429 . S
C1570 C1562 1.574 . S
C1570 H1565 0.949 . S
C1570 C1576 1.368 . S
C1571 C1555 1.349 . S
C1571 H1563 0.950 . S
C1571 C1569 1.327 1_545 S
C1572 C1560 1.349 . S
C1572 H1566 0.950 . S
C1572 C1573 1.327 . S
C1573 H1567 0.950 . S
C1573 C1572 1.327 . S
C1573 C1577 1.429 . S
C1574 C1557 1.574 . S
C1574 H1568 0.949 . S
C1574 C1578 1.368 . S
C1575 C1556 1.429 . S
C1575 C1569 1.429 . S
C1575 C1576 1.523 . S
C1576 C1557 1.368 . S
C1576 C1570 1.368 . S
C1576 C1575 1.523 . S
C1577 C1561 1.429 . S
C1577 C1573 1.429 . S
C1577 C1578 1.523 1_655 S
C1578 C1562 1.368 . S
C1578 C1574 1.368 . S
C1578 C1577 1.523 1_455 S
H1579 C1554 0.950 . S
H1580 C1556 0.950 . S
H1581 C1557 0.949 . S
H1582 C1559 0.950 . S
H1583 C1561 0.950 . S
C1584 C1585 1.349 . S
C1584 C1586 1.327 . S
C1584 H1609 0.950 . S
C1585 C1584 1.349 . S
C1585 C1601 1.349 . S
C1586 C1584 1.327 . S
C1586 C1605 1.429 . S
C1586 H1610 0.950 . S
C1587 C1604 1.574 . S
C1587 C1606 1.368 . S
C1587 H1611 0.949 . S
H1588 C1592 0.949 . S
C1589 C1590 1.349 . S
C1589 C1591 1.327 . S
C1589 H1612 0.950 . S
C1590 C1589 1.349 . S
C1590 C1602 1.349 . S
C1591 C1589 1.327 . S
C1591 C1607 1.429 . S
C1591 H1613 0.950 . S
C1592 H1588 0.949 . S
C1592 C1600 1.574 . S
C1592 C1608 1.368 . S
H1593 C1601 0.950 . S
H1594 C1599 0.950 . S
H1595 C1600 0.949 . S
H1596 C1602 0.950 . S
H1597 C1603 0.950 . S
H1598 C1604 0.949 . S
C1599 H1594 0.950 . S
C1599 C1601 1.327 . S
C1599 C1605 1.429 . S
C1600 C1592 1.574 . S
C1600 H1595 0.949 . S
C1600 C1606 1.368 . S
C1601 C1585 1.349 . S
C1601 H1593 0.950 . S
C1601 C1599 1.327 . S
C1602 C1590 1.349 . S
C1602 H1596 0.950 . S
C1602 C1603 1.327 . S
C1603 H1597 0.950 . S
C1603 C1602 1.327 . S
C1603 C1607 1.429 . S
C1604 C1587 1.574 . S
C1604 H1598 0.949 . S
C1604 C1608 1.368 . S
C1605 C1586 1.429 . S
C1605 C1599 1.429 . S
C1605 C1606 1.523 . S
C1606 C1587 1.368 . S
C1606 C1600 1.368 . S
C1606 C1605 1.523 . S
C1607 C1591 1.429 . S
C1607 C1603 1.429 . S
C1607 C1608 1.523 . S
C1608 C1592 1.368 . S
C1608 C1604 1.368 . S
C1608 C1607 1.523 . S
H1609 C1584 0.950 . S
H1610 C1586 0.950 . S
H1611 C1587 0.949 . S
H1612 C1589 0.950 . S
H1613 C1591 0.950 . S
C1614 C1615 1.349 . S
C1614 C1616 1.327 . S
C1614 H1639 0.950 . S
C1615 C1614 1.349 . S
C1615 C1631 1.349 . S
C1616 C1614 1.327 . S
C1616 C1635 1.429 . S
C1616 H1640 0.950 . S
C1617 C1634 1.574 . S
C1617 C1636 1.368 . S
C1617 H1641 0.949 . S
H1618 C1622 0.949 . S
C1619 C1620 1.349 . S
C1619 C1621 1.327 . S
C1619 H1642 0.950 . S
C1620 C1619 1.349 . S
C1620 C1632 1.349 . S
C1621 C1619 1.327 . S
C1621 C1637 1.429 . S
C1621 H1643 0.950 . S
C1622 H1618 0.949 . S
C1622 C1630 1.574 . S
C1622 C1638 1.368 . S
H1623 C1631 0.950 . S
H1624 C1629 0.950 . S
H1625 C1630 0.949 . S
H1626 C1632 0.950 . S
H1627 C1633 0.950 . S
H1628 C1634 0.949 . S
C1629 H1624 0.950 . S
C1629 C1631 1.327 . S
C1629 C1635 1.429 . S
C1630 C1622 1.574 . S
C1630 H1625 0.949 . S
C1630 C1636 1.368 . S
C1631 C1615 1.349 . S
C1631 H1623 0.950 . S
C1631 C1629 1.327 . S
C1632 C1620 1.349 . S
C1632 H1626 0.950 . S
C1632 C1633 1.327 . S
C1633 H1627 0.950 . S
C1633 C1632 1.327 . S
C1633 C1637 1.429 . S
C1634 C1617 1.574 . S
C1634 H1628 0.949 . S
C1634 C1638 1.368 . S
C1635 C1616 1.429 . S
C1635 C1629 1.429 . S
C1635 C1636 1.523 . S
C1636 C1617 1.368 . S
C1636 C1630 1.368 . S
C1636 C1635 1.523 . S
C1637 C1621 1.429 . S
C1637 C1633 1.429 . S
C1637 C1638 1.523 . S
C1638 C1622 1.368 . S
C1638 C1634 1.368 . S
C1638 C1637 1.523 . S
H1639 C1614 0.950 . S
H1640 C1616 0.950 . S
H1641 C1617 0.949 . S
H1642 C1619 0.950 . S
H1643 C1621 0.950 . S
C1644 C1645 1.349 . S
C1644 C1646 1.327 . S
C1644 H1669 0.950 . S
C1645 C1644 1.349 . S
C1645 C1661 1.349 . S
C1646 C1644 1.327 . S
C1646 C1665 1.429 . S
C1646 H1670 0.950 . S
C1647 C1664 1.574 . S
C1647 C1666 1.368 . S
C1647 H1671 0.949 . S
H1648 C1652 0.949 . S
C1649 C1650 1.349 . S
C1649 C1651 1.327 . S
C1649 H1672 0.950 . S
C1650 C1649 1.349 . S
C1650 C1662 1.349 . S
C1651 C1649 1.327 . S
C1651 C1667 1.429 . S
C1651 H1673 0.950 . S
C1652 H1648 0.949 . S
C1652 C1660 1.574 . S
C1652 C1668 1.368 . S
H1653 C1661 0.950 . S
H1654 C1659 0.950 . S
H1655 C1660 0.949 . S
H1656 C1662 0.950 . S
H1657 C1663 0.950 . S
H1658 C1664 0.949 . S
C1659 H1654 0.950 . S
C1659 C1661 1.327 . S
C1659 C1665 1.429 . S
C1660 C1652 1.574 . S
C1660 H1655 0.949 . S
C1660 C1666 1.368 . S
C1661 C1645 1.349 . S
C1661 H1653 0.950 . S
C1661 C1659 1.327 . S
C1662 C1650 1.349 . S
C1662 H1656 0.950 . S
C1662 C1663 1.327 . S
C1663 H1657 0.950 . S
C1663 C1662 1.327 . S
C1663 C1667 1.429 . S
C1664 C1647 1.574 . S
C1664 H1658 0.949 . S
C1664 C1668 1.368 . S
C1665 C1646 1.429 . S
C1665 C1659 1.429 . S
C1665 C1666 1.523 . S
C1666 C1647 1.368 . S
C1666 C1660 1.368 . S
C1666 C1665 1.523 . S
C1667 C1651 1.429 . S
C1667 C1663 1.429 . S
C1667 C1668 1.523 . S
C1668 C1652 1.368 . S
C1668 C1664 1.368 . S
C1668 C1667 1.523 . S
H1669 C1644 0.950 . S
H1670 C1646 0.950 . S
H1671 C1647 0.949 . S
H1672 C1649 0.950 . S
H1673 C1651 0.950 . S
C1674 C1675 1.349 . S
C1674 C1676 1.327 . S
C1674 H1699 0.950 . S
C1675 C1674 1.349 . S
C1675 C1691 1.349 . S
C1676 C1674 1.327 . S
C1676 C1695 1.429 . S
C1676 H1700 0.950 . S
C1677 C1694 1.574 . S
C1677 C1696 1.368 . S
C1677 H1701 0.949 . S
H1678 C1682 0.949 . S
C1679 C1680 1.349 . S
C1679 C1681 1.327 . S
C1679 H1702 0.950 . S
C1680 C1679 1.349 . S
C1680 C1692 1.349 . S
C1681 C1679 1.327 . S
C1681 C1697 1.429 . S
C1681 H1703 0.950 . S
C1682 H1678 0.949 . S
C1682 C1690 1.574 . S
C1682 C1698 1.368 . S
H1683 C1691 0.950 . S
H1684 C1689 0.950 . S
H1685 C1690 0.949 . S
H1686 C1692 0.950 . S
H1687 C1693 0.950 . S
H1688 C1694 0.949 . S
C1689 H1684 0.950 . S
C1689 C1691 1.327 . S
C1689 C1695 1.429 . S
C1690 C1682 1.574 . S
C1690 H1685 0.949 . S
C1690 C1696 1.368 . S
C1691 C1675 1.349 . S
C1691 H1683 0.950 . S
C1691 C1689 1.327 . S
C1692 C1680 1.349 . S
C1692 H1686 0.950 . S
C1692 C1693 1.327 . S
C1693 H1687 0.950 . S
C1693 C1692 1.327 . S
C1693 C1697 1.429 . S
C1694 C1677 1.574 . S
C1694 H1688 0.949 . S
C1694 C1698 1.368 . S
C1695 C1676 1.429 . S
C1695 C1689 1.429 . S
C1695 C1696 1.523 . S
C1696 C1677 1.368 . S
C1696 C1690 1.368 . S
C1696 C1695 1.523 . S
C1697 C1681 1.429 . S
C1697 C1693 1.429 . S
C1697 C1698 1.523 . S
C1698 C1682 1.368 . S
C1698 C1694 1.368 . S
C1698 C1697 1.523 . S
H1699 C1674 0.950 . S
H1700 C1676 0.950 . S
H1701 C1677 0.949 . S
H1702 C1679 0.950 . S
H1703 C1681 0.950 . S
C1704 C1705 1.349 . S
C1704 C1706 1.327 . S
C1704 H1729 0.950 . S
C1705 C1704 1.349 . S
C1705 C1721 1.349 . S
C1706 C1704 1.327 . S
C1706 C1725 1.429 . S
C1706 H1730 0.950 . S
C1707 C1724 1.574 . S
C1707 C1726 1.368 . S
C1707 H1731 0.949 . S
H1708 C1712 0.949 . S
C1709 C1710 1.349 . S
C1709 C1711 1.327 . S
C1709 H1732 0.950 . S
C1710 C1709 1.349 . S
C1710 C1722 1.349 . S
C1711 C1709 1.327 . S
C1711 C1727 1.429 . S
C1711 H1733 0.950 . S
C1712 H1708 0.949 . S
C1712 C1720 1.574 . S
C1712 C1728 1.368 . S
H1713 C1721 0.950 . S
H1714 C1719 0.950 . S
H1715 C1720 0.949 . S
H1716 C1722 0.950 . S
H1717 C1723 0.950 . S
H1718 C1724 0.949 . S
C1719 H1714 0.950 . S
C1719 C1721 1.327 . S
C1719 C1725 1.429 . S
C1720 C1712 1.574 . S
C1720 H1715 0.949 . S
C1720 C1726 1.368 . S
C1721 C1705 1.349 . S
C1721 H1713 0.950 . S
C1721 C1719 1.327 . S
C1722 C1710 1.349 . S
C1722 H1716 0.950 . S
C1722 C1723 1.327 . S
C1723 H1717 0.950 . S
C1723 C1722 1.327 . S
C1723 C1727 1.429 . S
C1724 C1707 1.574 . S
C1724 H1718 0.949 . S
C1724 C1728 1.368 . S
C1725 C1706 1.429 . S
C1725 C1719 1.429 . S
C1725 C1726 1.523 . S
C1726 C1707 1.368 . S
C1726 C1720 1.368 . S
C1726 C1725 1.523 . S
C1727 C1711 1.429 . S
C1727 C1723 1.429 . S
C1727 C1728 1.523 . S
C1728 C1712 1.368 . S
C1728 C1724 1.368 . S
C1728 C1727 1.523 . S
H1729 C1704 0.950 . S
H1730 C1706 0.950 . S
H1731 C1707 0.949 . S
H1732 C1709 0.950 . S
H1733 C1711 0.950 . S
C1734 C1735 1.349 . S
C1734 C1736 1.327 . S
C1734 H1759 0.950 . S
C1735 C1734 1.349 . S
C1735 C1751 1.349 . S
C1736 C1734 1.327 . S
C1736 C1755 1.429 . S
C1736 H1760 0.950 . S
C1737 C1754 1.574 . S
C1737 C1756 1.368 . S
C1737 H1761 0.949 . S
H1738 C1742 0.949 . S
C1739 C1740 1.349 . S
C1739 C1741 1.327 . S
C1739 H1762 0.950 . S
C1740 C1739 1.349 . S
C1740 C1752 1.349 . S
C1741 C1739 1.327 . S
C1741 C1757 1.429 . S
C1741 H1763 0.950 . S
C1742 H1738 0.949 . S
C1742 C1750 1.574 . S
C1742 C1758 1.368 . S
H1743 C1751 0.950 . S
H1744 C1749 0.950 . S
H1745 C1750 0.949 . S
H1746 C1752 0.950 . S
H1747 C1753 0.950 . S
H1748 C1754 0.949 . S
C1749 H1744 0.950 . S
C1749 C1751 1.327 . S
C1749 C1755 1.429 . S
C1750 C1742 1.574 . S
C1750 H1745 0.949 . S
C1750 C1756 1.368 . S
C1751 C1735 1.349 . S
C1751 H1743 0.950 . S
C1751 C1749 1.327 . S
C1752 C1740 1.349 . S
C1752 H1746 0.950 . S
C1752 C1753 1.327 . S
C1753 H1747 0.950 . S
C1753 C1752 1.327 . S
C1753 C1757 1.429 . S
C1754 C1737 1.574 . S
C1754 H1748 0.949 . S
C1754 C1758 1.368 . S
C1755 C1736 1.429 . S
C1755 C1749 1.429 . S
C1755 C1756 1.523 . S
C1756 C1737 1.368 . S
C1756 C1750 1.368 . S
C1756 C1755 1.523 . S
C1757 C1741 1.429 . S
C1757 C1753 1.429 . S
C1757 C1758 1.523 . S
C1758 C1742 1.368 . S
C1758 C1754 1.368 . S
C1758 C1757 1.523 . S
H1759 C1734 0.950 . S
H1760 C1736 0.950 . S
H1761 C1737 0.949 . S
H1762 C1739 0.950 . S
H1763 C1741 0.950 . S
C1764 C1765 1.349 . S
C1764 C1766 1.327 . S
C1764 H1789 0.950 . S
C1765 C1764 1.349 . S
C1765 C1781 1.349 . S
C1766 C1764 1.327 . S
C1766 C1785 1.429 . S
C1766 H1790 0.950 . S
C1767 C1784 1.574 . S
C1767 C1786 1.368 . S
C1767 H1791 0.949 . S
H1768 C1772 0.949 . S
C1769 C1770 1.349 . S
C1769 C1771 1.327 . S
C1769 H1792 0.950 . S
C1770 C1769 1.349 . S
C1770 C1782 1.349 . S
C1771 C1769 1.327 . S
C1771 C1787 1.429 . S
C1771 H1793 0.950 . S
C1772 H1768 0.949 . S
C1772 C1780 1.574 . S
C1772 C1788 1.368 . S
H1773 C1781 0.950 . S
H1774 C1779 0.950 . S
H1775 C1780 0.949 . S
H1776 C1782 0.950 . S
H1777 C1783 0.950 . S
H1778 C1784 0.949 . S
C1779 H1774 0.950 . S
C1779 C1781 1.327 . S
C1779 C1785 1.429 . S
C1780 C1772 1.574 . S
C1780 H1775 0.949 . S
C1780 C1786 1.368 . S
C1781 C1765 1.349 . S
C1781 H1773 0.950 . S
C1781 C1779 1.327 . S
C1782 C1770 1.349 . S
C1782 H1776 0.950 . S
C1782 C1783 1.327 . S
C1783 H1777 0.950 . S
C1783 C1782 1.327 . S
C1783 C1787 1.429 . S
C1784 C1767 1.574 . S
C1784 H1778 0.949 . S
C1784 C1788 1.368 . S
C1785 C1766 1.429 . S
C1785 C1779 1.429 . S
C1785 C1786 1.523 . S
C1786 C1767 1.368 . S
C1786 C1780 1.368 . S
C1786 C1785 1.523 . S
C1787 C1771 1.429 . S
C1787 C1783 1.429 . S
C1787 C1788 1.523 . S
C1788 C1772 1.368 . S
C1788 C1784 1.368 . S
C1788 C1787 1.523 . S
H1789 C1764 0.950 . S
H1790 C1766 0.950 . S
H1791 C1767 0.949 . S
H1792 C1769 0.950 . S
H1793 C1771 0.950 . S
C1794 C1795 1.349 . S
C1794 C1796 1.327 . S
C1794 H1819 0.950 . S
C1795 C1794 1.349 . S
C1795 C1811 1.349 . S
C1796 C1794 1.327 . S
C1796 C1815 1.429 . S
C1796 H1820 0.950 . S
C1797 C1814 1.574 . S
C1797 C1816 1.368 . S
C1797 H1821 0.949 . S
H1798 C1802 0.949 . S
C1799 C1800 1.349 . S
C1799 C1801 1.327 . S
C1799 H1822 0.950 . S
C1800 C1799 1.349 . S
C1800 C1812 1.349 . S
C1801 C1799 1.327 . S
C1801 C1817 1.429 . S
C1801 H1823 0.950 . S
C1802 H1798 0.949 . S
C1802 C1810 1.574 . S
C1802 C1818 1.368 . S
H1803 C1811 0.950 . S
H1804 C1809 0.950 . S
H1805 C1810 0.949 . S
H1806 C1812 0.950 . S
H1807 C1813 0.950 . S
H1808 C1814 0.949 . S
C1809 H1804 0.950 . S
C1809 C1811 1.327 . S
C1809 C1815 1.429 . S
C1810 C1802 1.574 . S
C1810 H1805 0.949 . S
C1810 C1816 1.368 . S
C1811 C1795 1.349 . S
C1811 H1803 0.950 . S
C1811 C1809 1.327 . S
C1812 C1800 1.349 . S
C1812 H1806 0.950 . S
C1812 C1813 1.327 . S
C1813 H1807 0.950 . S
C1813 C1812 1.327 . S
C1813 C1817 1.429 . S
C1814 C1797 1.574 . S
C1814 H1808 0.949 . S
C1814 C1818 1.368 . S
C1815 C1796 1.429 . S
C1815 C1809 1.429 . S
C1815 C1816 1.523 . S
C1816 C1797 1.368 . S
C1816 C1810 1.368 . S
C1816 C1815 1.523 . S
C1817 C1801 1.429 . S
C1817 C1813 1.429 . S
C1817 C1818 1.523 . S
C1818 C1802 1.368 . S
C1818 C1814 1.368 . S
C1818 C1817 1.523 . S
H1819 C1794 0.950 . S
H1820 C1796 0.950 . S
H1821 C1797 0.949 . S
H1822 C1799 0.950 . S
H1823 C1801 0.950 . S
C1824 C1825 1.349 . S
C1824 C1826 1.327 . S
C1824 H1849 0.950 . S
C1825 C1824 1.349 . S
C1825 C1841 1.349 . S
C1826 C1824 1.327 . S
C1826 C1845 1.429 . S
C1826 H1850 0.950 . S
C1827 C1844 1.574 . S
C1827 C1846 1.368 . S
C1827 H1851 0.949 . S
H1828 C1832 0.949 . S
C1829 C1830 1.349 . S
C1829 C1831 1.327 . S
C1829 H1852 0.950 . S
C1830 C1829 1.349 . S
C1830 C1842 1.349 . S
C1831 C1829 1.327 . S
C1831 C1847 1.429 . S
C1831 H1853 0.950 . S
C1832 H1828 0.949 . S
C1832 C1840 1.574 . S
C1832 C1848 1.368 . S
H1833 C1841 0.950 . S
H1834 C1839 0.950 . S
H1835 C1840 0.949 . S
H1836 C1842 0.950 . S
H1837 C1843 0.950 . S
H1838 C1844 0.949 . S
C1839 H1834 0.950 . S
C1839 C1841 1.327 . S
C1839 C1845 1.429 . S
C1840 C1832 1.574 . S
C1840 H1835 0.949 . S
C1840 C1846 1.368 . S
C1841 C1825 1.349 . S
C1841 H1833 0.950 . S
C1841 C1839 1.327 . S
C1842 C1830 1.349 . S
C1842 H1836 0.950 . S
C1842 C1843 1.327 . S
C1843 H1837 0.950 . S
C1843 C1842 1.327 . S
C1843 C1847 1.429 . S
C1844 C1827 1.574 . S
C1844 H1838 0.949 . S
C1844 C1848 1.368 . S
C1845 C1826 1.429 . S
C1845 C1839 1.429 . S
C1845 C1846 1.523 . S
C1846 C1827 1.368 . S
C1846 C1840 1.368 . S
C1846 C1845 1.523 . S
C1847 C1831 1.429 . S
C1847 C1843 1.429 . S
C1847 C1848 1.523 . S
C1848 C1832 1.368 . S
C1848 C1844 1.368 . S
C1848 C1847 1.523 . S
H1849 C1824 0.950 . S
H1850 C1826 0.950 . S
H1851 C1827 0.949 . S
H1852 C1829 0.950 . S
H1853 C1831 0.950 . S
C1854 C1855 1.349 . S
C1854 C1856 1.327 . S
C1854 H1879 0.950 . S
C1855 C1854 1.349 . S
C1855 C1871 1.349 . S
C1856 C1854 1.327 . S
C1856 C1875 1.429 . S
C1856 H1880 0.950 . S
C1857 C1874 1.574 . S
C1857 C1876 1.368 . S
C1857 H1881 0.949 . S
H1858 C1862 0.949 . S
C1859 C1860 1.349 . S
C1859 C1861 1.327 . S
C1859 H1882 0.950 . S
C1860 C1859 1.349 . S
C1860 C1872 1.349 . S
C1861 C1859 1.327 . S
C1861 C1877 1.429 . S
C1861 H1883 0.950 . S
C1862 H1858 0.949 . S
C1862 C1870 1.574 . S
C1862 C1878 1.368 . S
H1863 C1871 0.950 . S
H1864 C1869 0.950 . S
H1865 C1870 0.949 . S
H1866 C1872 0.950 . S
H1867 C1873 0.950 . S
H1868 C1874 0.949 . S
C1869 H1864 0.950 . S
C1869 C1871 1.327 . S
C1869 C1875 1.429 . S
C1870 C1862 1.574 . S
C1870 H1865 0.949 . S
C1870 C1876 1.368 . S
C1871 C1855 1.349 . S
C1871 H1863 0.950 . S
C1871 C1869 1.327 . S
C1872 C1860 1.349 . S
C1872 H1866 0.950 . S
C1872 C1873 1.327 . S
C1873 H1867 0.950 . S
C1873 C1872 1.327 . S
C1873 C1877 1.429 . S
C1874 C1857 1.574 . S
C1874 H1868 0.949 . S
C1874 C1878 1.368 . S
C1875 C1856 1.429 . S
C1875 C1869 1.429 . S
C1875 C1876 1.523 . S
C1876 C1857 1.368 . S
C1876 C1870 1.368 . S
C1876 C1875 1.523 . S
C1877 C1861 1.429 . S
C1877 C1873 1.429 . S
C1877 C1878 1.523 . S
C1878 C1862 1.368 . S
C1878 C1874 1.368 . S
C1878 C1877 1.523 . S
H1879 C1854 0.950 . S
H1880 C1856 0.950 . S
H1881 C1857 0.949 . S
H1882 C1859 0.950 . S
H1883 C1861 0.950 . S
C1884 C1885 1.349 . S
C1884 C1886 1.327 . S
C1884 H1909 0.950 . S
C1885 C1884 1.349 . S
C1885 C1901 1.349 . S
C1886 C1884 1.327 . S
C1886 C1905 1.429 . S
C1886 H1910 0.950 . S
C1887 C1904 1.574 . S
C1887 C1906 1.368 . S
C1887 H1911 0.949 . S
H1888 C1892 0.949 . S
C1889 C1890 1.349 . S
C1889 C1891 1.327 . S
C1889 H1912 0.950 . S
C1890 C1889 1.349 . S
C1890 C1902 1.349 . S
C1891 C1889 1.327 . S
C1891 C1907 1.429 . S
C1891 H1913 0.950 . S
C1892 H1888 0.949 . S
C1892 C1900 1.574 . S
C1892 C1908 1.368 . S
H1893 C1901 0.950 . S
H1894 C1899 0.950 . S
H1895 C1900 0.949 . S
H1896 C1902 0.950 . S
H1897 C1903 0.950 . S
H1898 C1904 0.949 . S
C1899 H1894 0.950 . S
C1899 C1901 1.327 . S
C1899 C1905 1.429 . S
C1900 C1892 1.574 . S
C1900 H1895 0.949 . S
C1900 C1906 1.368 . S
C1901 C1885 1.349 . S
C1901 H1893 0.950 . S
C1901 C1899 1.327 . S
C1902 C1890 1.349 . S
C1902 H1896 0.950 . S
C1902 C1903 1.327 . S
C1903 H1897 0.950 . S
C1903 C1902 1.327 . S
C1903 C1907 1.429 . S
C1904 C1887 1.574 . S
C1904 H1898 0.949 . S
C1904 C1908 1.368 . S
C1905 C1886 1.429 . S
C1905 C1899 1.429 . S
C1905 C1906 1.523 . S
C1906 C1887 1.368 . S
C1906 C1900 1.368 . S
C1906 C1905 1.523 . S
C1907 C1891 1.429 . S
C1907 C1903 1.429 . S
C1907 C1908 1.523 . S
C1908 C1892 1.368 . S
C1908 C1904 1.368 . S
C1908 C1907 1.523 . S
H1909 C1884 0.950 . S
H1910 C1886 0.950 . S
H1911 C1887 0.949 . S
H1912 C1889 0.950 . S
H1913 C1891 0.950 . S
C1914 C1915 1.349 . S
C1914 C1916 1.327 . S
C1914 H1939 0.950 . S
C1915 C1914 1.349 . S
C1915 C1931 1.349 . S
C1916 C1914 1.327 . S
C1916 C1935 1.429 . S
C1916 H1940 0.950 . S
C1917 C1934 1.574 . S
C1917 C1936 1.368 . S
C1917 H1941 0.949 . S
H1918 C1922 0.949 . S
C1919 C1920 1.349 . S
C1919 C1921 1.327 . S
C1919 H1942 0.950 . S
C1920 C1919 1.349 . S
C1920 C1932 1.349 . S
C1921 C1919 1.327 . S
C1921 C1937 1.429 . S
C1921 H1943 0.950 . S
C1922 H1918 0.949 . S
C1922 C1930 1.574 . S
C1922 C1938 1.368 . S
H1923 C1931 0.950 . S
H1924 C1929 0.950 . S
H1925 C1930 0.949 . S
H1926 C1932 0.950 . S
H1927 C1933 0.950 . S
H1928 C1934 0.949 . S
C1929 H1924 0.950 . S
C1929 C1931 1.327 . S
C1929 C1935 1.429 . S
C1930 C1922 1.574 . S
C1930 H1925 0.949 . S
C1930 C1936 1.368 . S
C1931 C1915 1.349 . S
C1931 H1923 0.950 . S
C1931 C1929 1.327 . S
C1932 C1920 1.349 . S
C1932 H1926 0.950 . S
C1932 C1933 1.327 . S
C1933 H1927 0.950 . S
C1933 C1932 1.327 . S
C1933 C1937 1.429 . S
C1934 C1917 1.574 . S
C1934 H1928 0.949 . S
C1934 C1938 1.368 . S
C1935 C1916 1.429 . S
C1935 C1929 1.429 . S
C1935 C1936 1.523 . S
C1936 C1917 1.368 . S
C1936 C1930 1.368 . S
C1936 C1935 1.523 . S
C1937 C1921 1.429 . S
C1937 C1933 1.429 . S
C1937 C1938 1.523 . S
C1938 C1922 1.368 . S
C1938 C1934 1.368 . S
C1938 C1937 1.523 . S
H1939 C1914 0.950 . S
H1940 C1916 0.950 . S
H1941 C1917 0.949 . S
H1942 C1919 0.950 . S
H1943 C1921 0.950 . S
C595 N332 1.797 . S
C600 N2 1.797 . S
C625 N35 1.797 . S
C630 N365 1.797 1_565 S
C655 N299 1.797 1_455 S
C660 N68 1.797 . S
C685 N464 1.797 . S
C690 N101 1.797 . S
C715 N134 1.797 . S
C720 N398 1.797 1_545 S
C745 N431 1.797 1_655 S
C750 N167 1.797 . S
C775 C172 1.754 . S
C780 C469 1.754 . S
C805 C403 1.754 . S
C810 C106 1.754 . S
C835 C436 1.754 . S
C840 C139 1.754 . S
C865 C40 1.754 . S
C870 C337 1.754 . S
C895 C73 1.754 . S
C900 C370 1.754 . S
C925 C7 1.754 . S
C930 C304 1.754 . S
C955 N530 1.797 . S
C960 N200 1.797 . S
C985 N563 1.797 . S
C990 N233 1.797 . S
C1015 N497 1.797 . S
C1020 N266 1.797 . S
C1045 C238 1.754 . S
C1050 C535 1.754 . S
C1075 C568 1.754 . S
C1080 C271 1.754 . S
C1105 C205 1.754 . S
C1110 C502 1.754 . S
C1135 C21 1.256 . S
C1140 C582 1.256 . S
C1165 C54 1.256 . S
C1170 C516 1.256 . S
C1195 C87 1.256 . S
C1200 C549 1.256 . S
C1225 C252 1.256 . S
C1230 C120 1.256 . S
C1255 C153 1.256 . S
C1260 C285 1.256 . S
C1285 C186 1.256 . S
C1290 C219 1.256 . S
C1315 C318 1.256 . S
C1320 C450 1.256 . S
C1345 C351 1.256 . S
C1350 C483 1.256 . S
C1375 C384 1.256 . S
C1380 C417 1.256 . S
C1405 N79 1.313 . S
C1410 C18 1.325 . S
C1435 C51 1.326 . S
C1440 N13 1.313 . S
C1465 N46 1.313 . S
C1470 C84 1.325 . S
C1495 N145 1.313 . S
C1500 C117 1.325 . S
C1525 C150 1.325 . S
C1530 N178 1.313 . S
C1555 N112 1.313 . S
C1560 C183 1.326 . S
C1585 C216 1.325 . S
C1590 N277 1.313 . S
C1615 N211 1.313 . S
C1620 C249 1.326 . S
C1645 C282 1.325 . S
C1650 N244 1.313 . S
C1675 C315 1.325 . S
C1680 N343 1.313 . S
C1705 N376 1.313 . S
C1710 C348 1.325 . S
C1735 C381 1.326 . S
C1740 N310 1.313 . S
C1765 C414 1.325 . S
C1770 N475 1.313 . S
C1795 N409 1.313 . S
C1800 C447 1.326 . S
C1825 C480 1.325 . S
C1830 N442 1.313 . S
C1855 C513 1.325 . S
C1860 N541 1.313 . S
C1885 N574 1.313 . S
C1890 C546 1.325 . S
C1915 N508 1.313 . S
C1920 C579 1.326 . S
