# Generated by pormake.
# Topology umg, (4)-cn, num edge types: 1
# Building blocks:
#     Node 0, Type 0, BuildingBlock: QUQFOY_clean_sbu_1, # of connection points: 4
#     Node 1, Type 0, BuildingBlock: QUQFOY_clean_sbu_1, # of connection points: 4
#     Node 2, Type 0, BuildingBlock: QUQFOY_clean_sbu_1, # of connection points: 4
#     Node 3, Type 0, BuildingBlock: QUQFOY_clean_sbu_1, # of connection points: 4
#     Node 4, Type 0, BuildingBlock: QUQFOY_clean_sbu_1, # of connection points: 4
#     Node 5, Type 0, BuildingBlock: QUQFOY_clean_sbu_1, # of connection points: 4
#     Node 6, Type 0, BuildingBlock: QUQFOY_clean_sbu_1, # of connection points: 4
#     Node 7, Type 0, BuildingBlock: QUQFOY_clean_sbu_1, # of connection points: 4
#     Node 8, Type 0, BuildingBlock: QUQFOY_clean_sbu_1, # of connection points: 4
#     Node 9, Type 0, BuildingBlock: QUQFOY_clean_sbu_1, # of connection points: 4
#     Node 10, Type 0, BuildingBlock: QUQFOY_clean_sbu_1, # of connection points: 4
#     Node 11, Type 0, BuildingBlock: QUQFOY_clean_sbu_1, # of connection points: 4
#     Edge 12, Type (0, 0), BuildingBlock: EZIPEK_clean_linker_0, # of connection points: 2
#     Edge 13, Type (0, 0), BuildingBlock: EZIPEK_clean_linker_0, # of connection points: 2
#     Edge 14, Type (0, 0), BuildingBlock: EZIPEK_clean_linker_0, # of connection points: 2
#     Edge 15, Type (0, 0), BuildingBlock: EZIPEK_clean_linker_0, # of connection points: 2
#     Edge 16, Type (0, 0), BuildingBlock: EZIPEK_clean_linker_0, # of connection points: 2
#     Edge 17, Type (0, 0), BuildingBlock: EZIPEK_clean_linker_0, # of connection points: 2
#     Edge 18, Type (0, 0), BuildingBlock: EZIPEK_clean_linker_0, # of connection points: 2
#     Edge 19, Type (0, 0), BuildingBlock: EZIPEK_clean_linker_0, # of connection points: 2
#     Edge 20, Type (0, 0), BuildingBlock: EZIPEK_clean_linker_0, # of connection points: 2
#     Edge 21, Type (0, 0), BuildingBlock: EZIPEK_clean_linker_0, # of connection points: 2
#     Edge 22, Type (0, 0), BuildingBlock: EZIPEK_clean_linker_0, # of connection points: 2
#     Edge 23, Type (0, 0), BuildingBlock: EZIPEK_clean_linker_0, # of connection points: 2
#     Edge 24, Type (0, 0), BuildingBlock: EZIPEK_clean_linker_0, # of connection points: 2
#     Edge 25, Type (0, 0), BuildingBlock: EZIPEK_clean_linker_0, # of connection points: 2
#     Edge 26, Type (0, 0), BuildingBlock: EZIPEK_clean_linker_0, # of connection points: 2
#     Edge 27, Type (0, 0), BuildingBlock: EZIPEK_clean_linker_0, # of connection points: 2
#     Edge 28, Type (0, 0), BuildingBlock: EZIPEK_clean_linker_0, # of connection points: 2
#     Edge 29, Type (0, 0), BuildingBlock: EZIPEK_clean_linker_0, # of connection points: 2
#     Edge 30, Type (0, 0), BuildingBlock: EZIPEK_clean_linker_0, # of connection points: 2
#     Edge 31, Type (0, 0), BuildingBlock: EZIPEK_clean_linker_0, # of connection points: 2
#     Edge 32, Type (0, 0), BuildingBlock: EZIPEK_clean_linker_0, # of connection points: 2
#     Edge 33, Type (0, 0), BuildingBlock: EZIPEK_clean_linker_0, # of connection points: 2
#     Edge 34, Type (0, 0), BuildingBlock: EZIPEK_clean_linker_0, # of connection points: 2
#     Edge 35, Type (0, 0), BuildingBlock: EZIPEK_clean_linker_0, # of connection points: 2
# Relax obj value: 0.087
# Max RMSD: 0.314
# Mean RMSD: 0.204
data_MOF--net-umg--node1-QUQFOY_clean_sbu_1--edge1-EZIPEK_clean_linker_0
_symmetry_space_group_name_H-M    P1
_symmetry_Int_Tables_number       1
_symmetry_cell_setting            triclinic
loop_
_symmetry_equiv_pos_as_xyz
'x, y, z'
_cell_length_a     21.122859
_cell_length_b     21.102673
_cell_length_c     63.168283
_cell_angle_alpha  89.873824
_cell_angle_beta   93.852604
_cell_angle_gamma 119.96889
loop_
_atom_site_label
_atom_site_type_symbol
_atom_site_fract_x
_atom_site_fract_y
_atom_site_fract_z
_atom_type_partial_charge
O0 O 0.36461 0.65849 0.05891 0.0
Cd1 Cd 0.33945 0.58501 0.08252 0.0
Cd2 Cd 0.35072 0.69567 0.10453 0.0
O3 O 0.41085 0.75771 0.07981 0.0
O4 O 0.36723 0.51245 0.07251 0.0
O5 O 0.42823 0.59291 0.09906 0.0
C6 C 0.42329 0.54294 0.08621 0.0
C7 C 0.3866 0.69853 0.1403 0.0
C8 C 0.39943 0.72766 0.06142 0.0
C9 C 0.19998 0.57151 0.09469 0.0
O10 O 0.2383 0.64005 0.09874 0.0
O11 O 0.23071 0.53457 0.09046 0.0
O12 O 0.37681 0.75016 0.13264 0.0
O13 O 0.38326 0.6498 0.12726 0.0
O14 O 0.71161 0.34484 0.38404 0.0
Cd15 Cd 0.75631 0.32414 0.41104 0.0
Cd16 Cd 0.64842 0.33449 0.42634 0.0
O17 O 0.64909 0.38913 0.39875 0.0
O18 O 0.85865 0.35256 0.4041 0.0
O19 O 0.83472 0.41355 0.42769 0.0
C20 C 0.88191 0.40884 0.41684 0.0
C21 C 0.67453 0.37334 0.46183 0.0
C22 C 0.67407 0.37662 0.38244 0.0
C23 C 0.62761 0.18533 0.42271 0.0
O24 O 0.59535 0.22248 0.42272 0.0
O25 O 0.69668 0.21663 0.42111 0.0
O26 O 0.61293 0.35937 0.452 0.0
O27 O 0.72357 0.37222 0.45097 0.0
O28 O 0.4073 0.72688 0.72619 0.0
Cd29 Cd 0.485 0.77321 0.75106 0.0
Cd30 Cd 0.37259 0.66697 0.7704 0.0
O31 O 0.30774 0.66149 0.74328 0.0
O32 O 0.55506 0.87323 0.74077 0.0
O33 O 0.48591 0.85556 0.76738 0.0
C34 C 0.53072 0.89979 0.75438 0.0
C35 C 0.37308 0.70385 0.80524 0.0
C36 C 0.33828 0.68678 0.72611 0.0
C37 C 0.49946 0.6447 0.76355 0.0
O38 O 0.43183 0.61461 0.76678 0.0
O39 O 0.5359 0.71266 0.75957 0.0
O40 O 0.32457 0.63885 0.79807 0.0
O41 O 0.41684 0.74907 0.79219 0.0
O42 O 0.71255 0.36804 0.05103 0.0
Cd43 Cd 0.74056 0.43305 0.07806 0.0
Cd44 Cd 0.73713 0.31337 0.09425 0.0
O45 O 0.67976 0.26141 0.06554 0.0
O46 O 0.71307 0.51036 0.07131 0.0
O47 O 0.65475 0.42178 0.09334 0.0
C48 C 0.65938 0.47686 0.08327 0.0
C49 C 0.69954 0.30205 0.1285 0.0
C50 C 0.68535 0.29915 0.04925 0.0
C51 C 0.88452 0.44452 0.0918 0.0
O52 O 0.84854 0.37519 0.09265 0.0
O53 O 0.85158 0.48105 0.08879 0.0
O54 O 0.71415 0.25453 0.12073 0.0
O55 O 0.70118 0.35179 0.11632 0.0
O56 O 0.35635 0.68786 0.39282 0.0
Cd57 Cd 0.31217 0.72364 0.41464 0.0
Cd58 Cd 0.42709 0.72534 0.4386 0.0
O59 O 0.43198 0.66552 0.41325 0.0
O60 O 0.2084 0.68987 0.40232 0.0
O61 O 0.23361 0.6462 0.4314 0.0
C62 C 0.18556 0.64335 0.41723 0.0
C63 C 0.38853 0.69009 0.47245 0.0
C64 C 0.40108 0.66422 0.39508 0.0
C65 C 0.44204 0.87081 0.42804 0.0
O66 O 0.47441 0.83598 0.43404 0.0
O67 O 0.37379 0.8367 0.42185 0.0
O68 O 0.45472 0.70841 0.46848 0.0
O69 O 0.34386 0.68584 0.45689 0.0
O70 O 0.69971 0.3667 0.7185 0.0
Cd71 Cd 0.63589 0.32614 0.7437 0.0
Cd72 Cd 0.75541 0.44033 0.76259 0.0
O73 O 0.8072 0.43612 0.73618 0.0
O74 O 0.56161 0.22055 0.73551 0.0
O75 O 0.65088 0.25329 0.76076 0.0
C76 C 0.59696 0.202 0.74927 0.0
C77 C 0.76663 0.41471 0.7979 0.0
C78 C 0.7689 0.40675 0.71883 0.0
C79 C 0.62535 0.45701 0.75658 0.0
O80 O 0.69493 0.49116 0.75822 0.0
O81 O 0.58882 0.38752 0.75348 0.0
O82 O 0.81571 0.4756 0.7905 0.0
O83 O 0.71625 0.36647 0.7848 0.0
O84 O 0.39957 0.72431 0.64073 0.0
Cd85 Cd 0.45923 0.74649 0.6147 0.0
Cd86 Cd 0.33835 0.73231 0.59556 0.0
O87 O 0.29153 0.67543 0.62261 0.0
O88 O 0.53923 0.72155 0.62117 0.0
O89 O 0.44152 0.6548 0.59929 0.0
C90 C 0.50086 0.66342 0.6091 0.0
C91 C 0.32972 0.69358 0.56051 0.0
C92 C 0.33007 0.68914 0.64019 0.0
C93 C 0.45953 0.88265 0.6001 0.0
O94 O 0.39002 0.844 0.59878 0.0
O95 O 0.49905 0.85289 0.60353 0.0
O96 O 0.27523 0.69541 0.5681 0.0
O97 O 0.38514 0.70675 0.57338 0.0
O98 O 0.74128 0.3866 0.96631 0.0
Cd99 Cd 0.78837 0.46803 0.94494 0.0
Cd100 Cd 0.67328 0.359 0.92032 0.0
O101 O 0.66321 0.29132 0.94541 0.0
O102 O 0.89242 0.53459 0.95746 0.0
O103 O 0.86556 0.46796 0.92787 0.0
C104 C 0.91421 0.51128 0.94222 0.0
C105 C 0.70936 0.35962 0.88633 0.0
C106 C 0.69419 0.31894 0.96372 0.0
C107 C 0.66326 0.49211 0.93134 0.0
O108 O 0.62972 0.42564 0.92471 0.0
O109 O 0.7308 0.52375 0.93818 0.0
O110 O 0.64242 0.31513 0.89052 0.0
O111 O 0.75607 0.39784 0.90179 0.0
O112 O 0.37549 0.69338 0.30778 0.0
Cd113 Cd 0.34651 0.73088 0.28094 0.0
Cd114 Cd 0.34978 0.61495 0.26439 0.0
O115 O 0.40784 0.61987 0.29294 0.0
O116 O 0.37374 0.83547 0.28784 0.0
O117 O 0.43183 0.8061 0.26557 0.0
C118 C 0.42716 0.85617 0.27576 0.0
C119 C 0.38703 0.64301 0.23014 0.0
C120 C 0.40281 0.65173 0.30934 0.0
C121 C 0.20239 0.59828 0.26724 0.0
O122 O 0.23841 0.56507 0.26616 0.0
O123 O 0.23529 0.66768 0.27039 0.0
O124 O 0.3728 0.58058 0.23769 0.0
O125 O 0.38511 0.69031 0.24253 0.0
O126 O 0.6822 0.36971 0.63266 0.0
Cd127 Cd 0.6066 0.34183 0.60725 0.0
Cd128 Cd 0.71575 0.34381 0.58855 0.0
O129 O 0.78132 0.40326 0.61547 0.0
O130 O 0.53672 0.37265 0.61677 0.0
O131 O 0.61146 0.42731 0.59148 0.0
C132 C 0.56451 0.42565 0.60384 0.0
C133 C 0.72005 0.37788 0.55342 0.0
C134 C 0.75117 0.39796 0.63269 0.0
C135 C 0.58677 0.19707 0.59496 0.0
O136 O 0.6549 0.23272 0.59235 0.0
O137 O 0.5519 0.23046 0.59847 0.0
O138 O 0.76677 0.36057 0.56171 0.0
O139 O 0.67471 0.38103 0.56549 0.0
O140 O 0.38603 0.68223 0.97513 0.0
Cd141 Cd 0.34235 0.61901 0.94786 0.0
Cd142 Cd 0.44437 0.7391 0.9325 0.0
O143 O 0.43852 0.78952 0.96017 0.0
O144 O 0.23986 0.54315 0.95414 0.0
O145 O 0.26435 0.6316 0.93163 0.0
C146 C 0.21689 0.57792 0.94195 0.0
C147 C 0.41779 0.75021 0.8968 0.0
C148 C 0.41812 0.75149 0.97664 0.0
C149 C 0.47454 0.61722 0.93577 0.0
O150 O 0.50389 0.6865 0.93623 0.0
O151 O 0.40558 0.57648 0.93705 0.0
O152 O 0.47581 0.80197 0.90707 0.0
O153 O 0.37149 0.69656 0.90738 0.0
O154 O 0.72148 0.33308 0.29991 0.0
Cd155 Cd 0.74649 0.28467 0.27633 0.0
Cd156 Cd 0.73659 0.38534 0.25438 0.0
O157 O 0.67771 0.38889 0.27915 0.0
O158 O 0.7184 0.18427 0.28645 0.0
O159 O 0.65783 0.20392 0.25975 0.0
C160 C 0.66252 0.15878 0.27268 0.0
C161 C 0.70036 0.35379 0.21859 0.0
C162 C 0.6881 0.36891 0.29748 0.0
C163 C 0.88682 0.41015 0.26428 0.0
O164 O 0.84901 0.44087 0.2601 0.0
O165 O 0.85554 0.34246 0.26858 0.0
O166 O 0.71139 0.41542 0.22638 0.0
O167 O 0.70252 0.30735 0.23151 0.0
C168 C 0.49274 0.78394 1.01085 0.0
C169 C 0.43533 0.78511 0.99829 0.0
C170 C 0.37864 0.78952 0.03039 0.0
C171 C 0.426 0.77095 0.04226 0.0
N172 N 0.53391 0.75982 0.04525 0.0
N173 N 0.33022 0.80063 0.99532 0.0
C174 C 0.48626 0.77314 0.03301 0.0
C175 C 0.38136 0.79365 1.00792 0.0
N176 N 0.55149 0.79018 1.00121 0.0
N177 N 0.32964 0.80013 0.04066 0.0
H178 H 0.3339 0.80669 0.97897 0.0
H179 H 0.28437 0.79956 1.00081 0.0
H180 H 0.32742 0.79694 0.05711 0.0
H181 H 0.29534 0.81712 0.03332 0.0
H182 H 0.59758 0.79339 1.00933 0.0
H183 H 0.55608 0.7979 0.98493 0.0
H184 H 0.57455 0.75234 0.03929 0.0
H185 H 0.53128 0.75463 0.06166 0.0
C186 C 0.59834 0.33374 0.3482 0.0
C187 C 0.6559 0.39229 0.36077 0.0
C188 C 0.71578 0.4522 0.3289 0.0
C189 C 0.66457 0.38837 0.31677 0.0
N190 N 0.54704 0.27915 0.31279 0.0
N191 N 0.75639 0.51541 0.36367 0.0
C192 C 0.60167 0.33312 0.32578 0.0
C193 C 0.70974 0.45499 0.35117 0.0
N194 N 0.54387 0.27668 0.35803 0.0
N195 N 0.7725 0.5074 0.31923 0.0
H196 H 0.75162 0.51716 0.37998 0.0
H197 H 0.79594 0.56472 0.35796 0.0
H198 H 0.77599 0.50683 0.30283 0.0
H199 H 0.81605 0.553 0.3272 0.0
H200 H 0.50377 0.22829 0.3503 0.0
H201 H 0.53967 0.27791 0.37438 0.0
H202 H 0.49772 0.23814 0.3179 0.0
H203 H 0.54954 0.27881 0.29633 0.0
C204 C 0.29347 0.60668 0.69349 0.0
C205 C 0.29684 0.66587 0.70508 0.0
C206 C 0.28796 0.72266 0.67206 0.0
C207 C 0.29606 0.66955 0.6607 0.0
N208 N 0.28542 0.55113 0.65888 0.0
N209 N 0.27617 0.76735 0.70633 0.0
C210 C 0.2907 0.60752 0.67091 0.0
C211 C 0.28574 0.71905 0.69454 0.0
N212 N 0.29848 0.55301 0.70431 0.0
N213 N 0.28725 0.77873 0.66138 0.0
H214 H 0.27455 0.76433 0.72282 0.0
H215 H 0.26494 0.80649 0.69997 0.0
H216 H 0.28635 0.78063 0.64486 0.0
H217 H 0.28836 0.82345 0.66866 0.0
H218 H 0.30401 0.51178 0.69722 0.0
H219 H 0.29794 0.55064 0.72081 0.0
H220 H 0.278 0.50223 0.66495 0.0
H221 H 0.28333 0.5517 0.64232 0.0
C222 C 0.60741 0.26182 0.01533 0.0
C223 C 0.66843 0.26647 0.02744 0.0
C224 C 0.72347 0.26357 0.99478 0.0
C225 C 0.67148 0.27616 0.98315 0.0
N226 N 0.55843 0.27828 0.98113 0.0
N227 N 0.78058 0.26264 0.02942 0.0
C228 C 0.61032 0.27017 0.99297 0.0
C229 C 0.72423 0.26221 0.01733 0.0
N230 N 0.5482 0.25177 0.0255 0.0
N231 N 0.77319 0.25544 0.98408 0.0
H232 H 0.78085 0.25917 0.0459 0.0
H233 H 0.82761 0.26823 0.02335 0.0
H234 H 0.77258 0.2566 0.96753 0.0
H235 H 0.8105 0.24187 0.99119 0.0
H236 H 0.49948 0.24355 0.01776 0.0
H237 H 0.54623 0.24578 0.0419 0.0
H238 H 0.5168 0.28309 0.9875 0.0
H239 H 0.5582 0.28189 0.96466 0.0
C240 C 0.36483 0.57647 0.34145 0.0
C241 C 0.42066 0.63569 0.33104 0.0
C242 C 0.48232 0.69681 0.36527 0.0
C243 C 0.42126 0.64282 0.37542 0.0
N244 N 0.31731 0.52186 0.37499 0.0
N245 N 0.54202 0.73933 0.3323 0.0
C246 C 0.36726 0.57882 0.36403 0.0
C247 C 0.48323 0.69116 0.34284 0.0
N248 N 0.30706 0.5212 0.32962 0.0
N249 N 0.53618 0.75598 0.37691 0.0
H250 H 0.54252 0.73511 0.31585 0.0
H251 H 0.59165 0.77914 0.33976 0.0
H252 H 0.53773 0.75977 0.39342 0.0
H253 H 0.5782 0.80172 0.37037 0.0
H254 H 0.26013 0.48039 0.33593 0.0
H255 H 0.3056 0.5173 0.31311 0.0
H256 H 0.27834 0.47138 0.36805 0.0
H257 H 0.31917 0.52381 0.39156 0.0
C258 C 0.80404 0.48324 0.68697 0.0
C259 C 0.80161 0.42377 0.69813 0.0
C260 C 0.80133 0.36457 0.66484 0.0
C261 C 0.79336 0.41875 0.65361 0.0
N262 N 0.80858 0.53901 0.65285 0.0
N263 N 0.81969 0.3204 0.69911 0.0
C264 C 0.80306 0.48194 0.66441 0.0
C265 C 0.8086 0.36903 0.68744 0.0
N266 N 0.80178 0.53777 0.69792 0.0
N267 N 0.79636 0.30642 0.65381 0.0
H268 H 0.82496 0.32374 0.71569 0.0
H269 H 0.82917 0.2809 0.69262 0.0
H270 H 0.79355 0.30374 0.63725 0.0
H271 H 0.79353 0.26055 0.66084 0.0
H272 H 0.79521 0.57883 0.6908 0.0
H273 H 0.80504 0.54085 0.71448 0.0
H274 H 0.81943 0.58887 0.65945 0.0
H275 H 0.80774 0.53785 0.6363 0.0
C276 C 0.32401 0.64573 0.1958 0.0
C277 C 0.38845 0.65439 0.20698 0.0
C278 C 0.45252 0.69022 0.1742 0.0
C279 C 0.38998 0.68829 0.16356 0.0
N280 N 0.269 0.67342 0.16509 0.0
N281 N 0.51609 0.69063 0.20788 0.0
C282 C 0.32678 0.6692 0.17466 0.0
C283 C 0.45337 0.67804 0.19646 0.0
N284 N 0.25893 0.61173 0.20513 0.0
N285 N 0.51081 0.70345 0.16299 0.0
H286 H 0.5175 0.68026 0.22402 0.0
H287 H 0.56733 0.7152 0.20179 0.0
H288 H 0.5138 0.71689 0.14705 0.0
H289 H 0.55451 0.69758 0.16913 0.0
H290 H 0.20839 0.59547 0.19696 0.0
H291 H 0.25421 0.59295 0.22056 0.0
H292 H 0.22623 0.66975 0.17332 0.0
H293 H 0.26542 0.68554 0.14924 0.0
C294 C 0.73505 0.44348 0.49651 0.0
C295 C 0.6839 0.37699 0.48539 0.0
C296 C 0.66013 0.31157 0.51878 0.0
C297 C 0.70836 0.37875 0.53003 0.0
N298 N 0.78541 0.50964 0.53058 0.0
N299 N 0.59289 0.24853 0.4857 0.0
C300 C 0.74408 0.44511 0.51916 0.0
C301 C 0.64477 0.31136 0.49649 0.0
N302 N 0.77566 0.50463 0.48536 0.0
N303 N 0.6309 0.24744 0.52937 0.0
H304 H 0.58362 0.24384 0.46922 0.0
H305 H 0.5558 0.20153 0.49303 0.0
H306 H 0.63874 0.2452 0.54577 0.0
H307 H 0.60273 0.19572 0.52193 0.0
H308 H 0.81945 0.55286 0.49213 0.0
H309 H 0.76796 0.50595 0.46891 0.0
H310 H 0.80725 0.56092 0.52398 0.0
H311 H 0.79421 0.51208 0.54709 0.0
C312 C 0.45043 0.72779 0.83933 0.0
C313 C 0.3866 0.72218 0.82843 0.0
C314 C 0.34499 0.73982 0.86225 0.0
C315 C 0.40923 0.74619 0.87315 0.0
N316 N 0.52545 0.75002 0.87222 0.0
N317 N 0.27819 0.73219 0.82846 0.0
C318 C 0.46293 0.74205 0.86169 0.0
C319 C 0.33511 0.7306 0.83963 0.0
N320 N 0.497 0.71487 0.82843 0.0
N321 N 0.29325 0.74207 0.87363 0.0
H322 H 0.26986 0.72562 0.81196 0.0
H323 H 0.24193 0.74468 0.83517 0.0
H324 H 0.30122 0.75441 0.88992 0.0
H325 H 0.2414 0.72935 0.86726 0.0
H326 H 0.53865 0.70758 0.83554 0.0
H327 H 0.4919 0.70701 0.812 0.0
H328 H 0.57172 0.75958 0.86477 0.0
H329 H 0.53304 0.74961 0.88866 0.0
C330 C 0.63303 0.26984 0.16216 0.0
C331 C 0.69821 0.31083 0.15171 0.0
C332 C 0.76066 0.38495 0.1843 0.0
C333 C 0.69707 0.34106 0.19529 0.0
N334 N 0.57523 0.2368 0.19556 0.0
N335 N 0.82814 0.39609 0.1537 0.0
C336 C 0.63398 0.28174 0.18448 0.0
C337 C 0.76308 0.36526 0.16303 0.0
N338 N 0.57001 0.2211 0.15061 0.0
N339 N 0.81911 0.44583 0.19406 0.0
H340 H 0.83258 0.38295 0.13816 0.0
H341 H 0.87885 0.42924 0.16192 0.0
H342 H 0.82292 0.46062 0.21 0.0
H343 H 0.86232 0.48497 0.18596 0.0
H344 H 0.51869 0.19482 0.15666 0.0
H345 H 0.5685 0.21009 0.13442 0.0
H346 H 0.53094 0.188 0.18927 0.0
H347 H 0.5724 0.2465 0.21156 0.0
C348 C 0.33071 0.73655 0.52333 0.0
C349 C 0.33372 0.68504 0.53733 0.0
C350 C 0.36398 0.63045 0.50793 0.0
C351 C 0.36724 0.68591 0.49458 0.0
N352 N 0.36122 0.79644 0.48981 0.0
N353 N 0.3538 0.58334 0.54346 0.0
C354 C 0.35143 0.73943 0.50224 0.0
C355 C 0.35046 0.63199 0.52973 0.0
N356 N 0.30958 0.78421 0.53018 0.0
N357 N 0.37129 0.57499 0.49952 0.0
H358 H 0.33754 0.5782 0.5589 0.0
H359 H 0.3747 0.54955 0.53991 0.0
H360 H 0.38109 0.57256 0.48365 0.0
H361 H 0.36273 0.5288 0.50766 0.0
H362 H 0.29468 0.81416 0.51999 0.0
H363 H 0.30305 0.79201 0.54595 0.0
H364 H 0.3616 0.84303 0.49536 0.0
H365 H 0.37469 0.8006 0.47412 0.0
C366 C 0.73338 0.32229 0.85115 0.0
C367 C 0.72991 0.37512 0.86411 0.0
C368 C 0.75145 0.45404 0.83371 0.0
C369 C 0.7606 0.40403 0.82107 0.0
N370 N 0.77165 0.29618 0.81839 0.0
N371 N 0.7501 0.49788 0.86883 0.0
C372 C 0.75474 0.3396 0.82999 0.0
C373 C 0.74419 0.44326 0.85578 0.0
N374 N 0.71586 0.25558 0.85902 0.0
N375 N 0.74358 0.50869 0.82445 0.0
H376 H 0.74124 0.49195 0.88491 0.0
H377 H 0.76953 0.55135 0.86403 0.0
H378 H 0.74525 0.51757 0.80822 0.0
H379 H 0.7275 0.54068 0.83253 0.0
H380 H 0.70929 0.21169 0.84974 0.0
H381 H 0.70357 0.24264 0.87473 0.0
H382 H 0.77507 0.25208 0.82453 0.0
H383 H 0.78866 0.30817 0.80304 0.0
C384 C 0.99848 0.47578 0.07387 0.0
C385 C 0.96563 0.48117 0.09218 0.0
C386 C 0.08482 0.53569 0.11271 0.0
C387 C 0.11875 0.53601 0.09401 0.0
N388 N 0.11008 0.51755 0.05601 0.0
N389 N 0.97835 0.52673 0.12803 0.0
C390 C 0.07615 0.50879 0.07437 0.0
C391 C 1.00917 0.51456 0.1113 0.0
N392 N 0.95531 0.43847 0.05601 0.0
N393 N 0.12431 0.55241 0.13193 0.0
H394 H 0.9232 0.51204 0.12742 0.0
H395 H 1.00848 0.55697 0.14173 0.0
H396 H 0.17883 0.56486 0.13351 0.0
H397 H 0.10143 0.54681 0.1464 0.0
H398 H 0.97484 0.42457 0.04314 0.0
H399 H 0.89874 0.41737 0.05451 0.0
H400 H 0.08287 0.50666 0.04095 0.0
H401 H 0.16672 0.54132 0.05565 0.0
C402 C 0.53973 0.06221 0.40557 0.0
C403 C 0.58274 0.10461 0.42389 0.0
C404 C 0.52635 0.99546 0.44539 0.0
C405 C 0.48699 0.95194 0.42679 0.0
N406 N 0.46723 0.94164 0.38853 0.0
N407 N 0.62402 0.11196 0.46073 0.0
C408 C 0.49629 0.98475 0.40669 0.0
C409 C 0.57824 0.07122 0.44365 0.0
N410 N 0.53989 0.09614 0.38707 0.0
N411 N 0.51209 0.96481 0.46482 0.0
H412 H 0.66091 0.16797 0.46018 0.0
H413 H 0.62941 0.08977 0.475 0.0
H414 H 0.47485 0.90972 0.46668 0.0
H415 H 0.53245 0.9946 0.47918 0.0
H416 H 0.50302 0.06972 0.37396 0.0
H417 H 0.57393 0.15214 0.38522 0.0
H418 H 0.47928 0.96159 0.37336 0.0
H419 H 0.43597 0.88471 0.38852 0.0
C420 C 0.58203 0.53798 0.74012 0.0
C421 C 0.58774 0.50011 0.75808 0.0
C422 C 0.5385 0.55922 0.78001 0.0
C423 C 0.53297 0.59743 0.76201 0.0
N424 N 0.53464 0.61195 0.72408 0.0
N425 N 0.57847 0.47787 0.79542 0.0
C426 C 0.55122 0.58416 0.74185 0.0
C427 C 0.56721 0.5111 0.77809 0.0
N428 N 0.60826 0.53138 0.72151 0.0
N429 N 0.51476 0.56799 0.79881 0.0
H430 H 0.59698 0.44055 0.79441 0.0
H431 H 0.57288 0.48903 0.81099 0.0
H432 H 0.49682 0.60513 0.80105 0.0
H433 H 0.50956 0.53676 0.81203 0.0
H434 H 0.61509 0.5646 0.70866 0.0
H435 H 0.62754 0.49517 0.71925 0.0
H436 H 0.53812 0.59735 0.70866 0.0
H437 H 0.51145 0.64542 0.72449 0.0
C438 C 0.50826 0.06987 0.57878 0.0
C439 C 0.55093 0.11634 0.59649 0.0
C440 C 0.53169 1.00942 0.61682 0.0
C441 C 0.49396 0.96338 0.59857 0.0
N442 N 0.45427 0.94951 0.56136 0.0
N443 N 0.6109 0.13261 0.63158 0.0
C444 C 0.48412 0.99354 0.57932 0.0
C445 C 0.56497 0.0867 0.61526 0.0
N446 N 0.49052 0.09877 0.56154 0.0
N447 N 0.53261 0.97911 0.63593 0.0
H448 H 0.63281 0.18922 0.6317 0.0
H449 H 0.63099 0.11524 0.64446 0.0
H450 H 0.50894 0.92285 0.63779 0.0
H451 H 0.55155 1.00903 0.65029 0.0
H452 H 0.45365 0.06731 0.54895 0.0
H453 H 0.50876 0.15456 0.56051 0.0
H454 H 0.45186 0.96882 0.54632 0.0
H455 H 0.43712 0.89378 0.56114 0.0
C456 C 0.56051 0.5804 0.95349 0.0
C457 C 0.52249 0.58483 0.93465 0.0
C458 C 0.58687 0.5406 0.91346 0.0
C459 C 0.62014 0.53012 0.93244 0.0
N460 N 0.62976 0.5289 0.97074 0.0
N461 N 0.49358 0.56402 0.89689 0.0
C462 C 0.60503 0.54753 0.95254 0.0
C463 C 0.53397 0.56338 0.91467 0.0
N464 N 0.5547 0.60842 0.9723 0.0
N465 N 0.60776 0.53092 0.89427 0.0
H466 H 0.4561 0.58249 0.89714 0.0
H467 H 0.49328 0.54185 0.88216 0.0
H468 H 0.64659 0.51479 0.89289 0.0
H469 H 0.59155 0.54449 0.87986 0.0
H470 H 0.58772 0.61499 0.98606 0.0
H471 H 0.52015 0.62993 0.97386 0.0
H472 H 0.61324 0.53192 0.98569 0.0
H473 H 0.66244 0.50475 0.97084 0.0
C474 C 0.0777 0.54423 0.24779 0.0
C475 C 0.12127 0.55373 0.26687 0.0
C476 C 1.01074 0.47011 0.28462 0.0
C477 C 0.96812 0.45538 0.26498 0.0
N478 N 0.96278 0.46721 0.22708 0.0
N479 N 0.13159 0.51987 0.30292 0.0
C480 C 1.00212 0.48956 0.24633 0.0
C481 C 0.08842 0.51473 0.28512 0.0
N482 N 0.10837 0.58802 0.23116 0.0
N483 N 0.97682 0.4444 0.30296 0.0
H484 H 0.18818 0.55526 0.30443 0.0
H485 H 0.11204 0.48593 0.31572 0.0
H486 H 0.92018 0.41161 0.30332 0.0
H487 H 1.00408 0.46024 0.31802 0.0
H488 H 0.07814 0.58852 0.21751 0.0
H489 H 0.16341 0.62878 0.23183 0.0
H490 H 0.98577 0.485 0.21264 0.0
H491 H 0.90836 0.42491 0.22545 0.0
C492 C 0.57709 0.50411 0.10411 0.0
C493 C 0.60119 0.497 0.08423 0.0
C494 C 0.51553 0.52986 0.06625 0.0
C495 C 0.48423 0.52663 0.08573 0.0
N496 N 0.47825 0.49898 0.12288 0.0
N497 N 0.57921 0.48558 0.04593 0.0
C498 C 0.51317 0.51064 0.10462 0.0
C499 C 0.56662 0.5051 0.06515 0.0
N500 N 0.61665 0.50737 0.12252 0.0
N501 N 0.49937 0.55972 0.04895 0.0
H502 H 0.61285 0.46319 0.04424 0.0
H503 H 0.54962 0.48387 0.03184 0.0
H504 H 0.46533 0.58226 0.04922 0.0
H505 H 0.52652 0.5698 0.03507 0.0
H506 H 0.60569 0.51963 0.13732 0.0
H507 H 0.66508 0.50544 0.12279 0.0
H508 H 0.49265 0.47992 0.13655 0.0
H509 H 0.43039 0.50141 0.12377 0.0
C510 C 0.97598 0.54236 0.41381 0.0
C511 C 0.95963 0.46938 0.41767 0.0
C512 C 0.09067 0.50978 0.41841 0.0
C513 C 0.10755 0.58393 0.41724 0.0
N514 N 0.06601 0.67156 0.41785 0.0
N515 N 1.00304 0.38666 0.42781 0.0
C516 C 0.05011 0.6005 0.41609 0.0
C517 C 1.01749 0.45396 0.42118 0.0
N518 N 0.92139 0.55601 0.40684 0.0
N519 N 0.1436 0.49184 0.41574 0.0
H520 H 0.9504 0.34487 0.4305 0.0
H521 H 1.04403 0.37487 0.43271 0.0
H522 H 0.19708 0.53015 0.41258 0.0
H523 H 0.13243 0.43797 0.41432 0.0
H524 H 0.93145 0.60694 0.40169 0.0
H525 H 0.86676 0.5151 0.40403 0.0
H526 H 1.02612 0.68621 0.41936 0.0
H527 H 0.11947 0.71556 0.41991 0.0
C528 C 0.63662 0.10736 0.74986 0.0
C529 C 0.57978 0.12462 0.75095 0.0
C530 C 0.49015 0.99371 0.75209 0.0
C531 C 0.54804 0.97741 0.75376 0.0
N532 N 0.67781 1.02122 0.75844 0.0
N533 N 0.45429 0.08462 0.75753 0.0
C534 C 0.62176 0.035 0.75387 0.0
C535 C 0.50702 0.0679 0.75335 0.0
N536 N 0.70386 0.15882 0.74387 0.0
N537 N 0.41912 0.93886 0.7481 0.0
H538 H 0.46477 0.13825 0.75912 0.0
H539 H 0.40222 0.0455 0.76157 0.0
H540 H 0.40404 0.88401 0.74593 0.0
H541 H 0.37593 0.94869 0.74461 0.0
H542 H 0.74468 0.14684 0.74078 0.0
H543 H 0.71637 0.2114 0.73966 0.0
H544 H 0.73242 0.0625 0.76086 0.0
H545 H 0.66915 0.96928 0.76194 0.0
C546 C 0.53563 0.57602 0.62634 0.0
C547 C 0.5209 0.60516 0.60757 0.0
C548 C 0.52705 0.51114 0.58625 0.0
C549 C 0.54925 0.48731 0.60489 0.0
N550 N 0.59435 0.51199 0.6419 0.0
N551 N 0.51714 0.60944 0.56933 0.0
C552 C 0.55927 0.52405 0.62472 0.0
C553 C 0.52073 0.57524 0.5874 0.0
N554 N 0.5234 0.59461 0.64575 0.0
N555 N 0.50929 0.47115 0.56762 0.0
H556 H 0.51489 0.65769 0.56954 0.0
H557 H 0.52383 0.5942 0.55434 0.0
H558 H 0.51183 0.42325 0.56625 0.0
H559 H 0.48547 0.48159 0.55408 0.0
H560 H 0.52623 0.56892 0.65961 0.0
H561 H 0.50257 0.62955 0.6478 0.0
H562 H 0.60938 0.54293 0.65608 0.0
H563 H 0.61591 0.47713 0.6413 0.0
C564 C 0.1236 0.61772 0.94586 0.0
C565 C 0.13932 0.56114 0.94133 0.0
C566 C 1.00793 0.47134 0.94003 0.0
C567 C 0.99185 0.52896 0.9419 0.0
N568 N 1.03479 0.65853 0.94237 0.0
N569 N 0.09496 0.43597 0.92998 0.0
C570 C 0.04982 0.60266 0.9436 0.0
C571 C 0.08101 0.48843 0.93721 0.0
N572 N 0.17842 0.68492 0.95345 0.0
N573 N 0.95433 0.40026 0.94206 0.0
H574 H 0.14754 0.44673 0.92726 0.0
H575 H 0.05372 0.38389 0.92465 0.0
H576 H 0.90085 0.38514 0.94521 0.0
H577 H 0.96485 0.35703 0.94296 0.0
H578 H 0.16867 0.72541 0.95907 0.0
H579 H 0.23277 0.69777 0.95632 0.0
H580 H 0.07523 0.71313 0.94129 0.0
H581 H 0.98161 0.64985 0.94027 0.0
C582 C 0.5197 0.97721 0.29382 0.0
C583 C 0.48503 0.93467 0.27477 0.0
C584 C 0.57259 0.03671 0.25431 0.0
C585 C 0.60158 0.08149 0.27318 0.0
N586 N 0.58656 0.09895 0.30998 0.0
N587 N 0.46909 0.93002 0.23648 0.0
C588 C 0.57049 0.05314 0.29268 0.0
C589 C 0.50881 0.96616 0.25486 0.0
N590 N 0.50752 0.94493 0.31306 0.0
N591 N 0.60735 0.06015 0.23602 0.0
H592 H 0.42071 0.87963 0.23625 0.0
H593 H 0.47984 0.95343 0.22167 0.0
H594 H 0.65516 0.11048 0.2351 0.0
H595 H 0.5929 1.02679 0.22237 0.0
H596 H 0.53723 0.97275 0.32712 0.0
H597 H 0.47417 0.88884 0.31477 0.0
H598 H 0.55958 0.08159 0.32387 0.0
H599 H 0.62026 0.15557 0.30967 0.0
loop_
_geom_bond_atom_site_label_1
_geom_bond_atom_site_label_2
_geom_bond_distance
_geom_bond_site_symmetry_2
_ccdc_geom_bond_type
O0 Cd1 2.223 . S
O0 C8 1.315 . S
Cd1 O0 2.223 . S
Cd1 O4 2.297 . S
Cd1 O5 2.439 . S
Cd1 O11 2.240 . S
Cd2 O3 2.240 . S
Cd2 O10 2.223 . S
Cd2 O12 2.297 . S
Cd2 O13 2.439 . S
O3 Cd2 2.240 . S
O3 C8 1.279 . S
O4 Cd1 2.297 . S
O4 C6 1.247 . S
O5 Cd1 2.439 . S
O5 C6 1.208 . S
C6 O4 1.247 . S
C6 O5 1.208 . S
C7 O12 1.247 . S
C7 O13 1.208 . S
C8 O0 1.315 . S
C8 O3 1.279 . S
C9 O10 1.315 . S
C9 O11 1.279 . S
O10 Cd2 2.223 . S
O10 C9 1.315 . S
O11 Cd1 2.240 . S
O11 C9 1.279 . S
O12 Cd2 2.297 . S
O12 C7 1.247 . S
O13 Cd2 2.439 . S
O13 C7 1.208 . S
O14 Cd15 2.223 . S
O14 C22 1.315 . S
Cd15 O14 2.223 . S
Cd15 O18 2.297 . S
Cd15 O19 2.439 . S
Cd15 O25 2.240 . S
Cd16 O17 2.240 . S
Cd16 O24 2.223 . S
Cd16 O26 2.297 . S
Cd16 O27 2.439 . S
O17 Cd16 2.240 . S
O17 C22 1.279 . S
O18 Cd15 2.297 . S
O18 C20 1.247 . S
O19 Cd15 2.439 . S
O19 C20 1.208 . S
C20 O18 1.247 . S
C20 O19 1.208 . S
C21 O26 1.247 . S
C21 O27 1.208 . S
C22 O14 1.315 . S
C22 O17 1.279 . S
C23 O24 1.315 . S
C23 O25 1.279 . S
O24 Cd16 2.223 . S
O24 C23 1.315 . S
O25 Cd15 2.240 . S
O25 C23 1.279 . S
O26 Cd16 2.297 . S
O26 C21 1.247 . S
O27 Cd16 2.439 . S
O27 C21 1.208 . S
O28 Cd29 2.223 . S
O28 C36 1.315 . S
Cd29 O28 2.223 . S
Cd29 O32 2.297 . S
Cd29 O33 2.439 . S
Cd29 O39 2.240 . S
Cd30 O31 2.240 . S
Cd30 O38 2.223 . S
Cd30 O40 2.297 . S
Cd30 O41 2.439 . S
O31 Cd30 2.240 . S
O31 C36 1.279 . S
O32 Cd29 2.297 . S
O32 C34 1.247 . S
O33 Cd29 2.439 . S
O33 C34 1.208 . S
C34 O32 1.247 . S
C34 O33 1.208 . S
C35 O40 1.247 . S
C35 O41 1.208 . S
C36 O28 1.315 . S
C36 O31 1.279 . S
C37 O38 1.315 . S
C37 O39 1.279 . S
O38 Cd30 2.223 . S
O38 C37 1.315 . S
O39 Cd29 2.240 . S
O39 C37 1.279 . S
O40 Cd30 2.297 . S
O40 C35 1.247 . S
O41 Cd30 2.439 . S
O41 C35 1.208 . S
O42 Cd43 2.223 . S
O42 C50 1.315 . S
Cd43 O42 2.223 . S
Cd43 O46 2.297 . S
Cd43 O47 2.439 . S
Cd43 O53 2.240 . S
Cd44 O45 2.240 . S
Cd44 O52 2.223 . S
Cd44 O54 2.297 . S
Cd44 O55 2.439 . S
O45 Cd44 2.240 . S
O45 C50 1.279 . S
O46 Cd43 2.297 . S
O46 C48 1.247 . S
O47 Cd43 2.439 . S
O47 C48 1.208 . S
C48 O46 1.247 . S
C48 O47 1.208 . S
C49 O54 1.247 . S
C49 O55 1.208 . S
C50 O42 1.315 . S
C50 O45 1.279 . S
C51 O52 1.315 . S
C51 O53 1.279 . S
O52 Cd44 2.223 . S
O52 C51 1.315 . S
O53 Cd43 2.240 . S
O53 C51 1.279 . S
O54 Cd44 2.297 . S
O54 C49 1.247 . S
O55 Cd44 2.439 . S
O55 C49 1.208 . S
O56 Cd57 2.223 . S
O56 C64 1.315 . S
Cd57 O56 2.223 . S
Cd57 O60 2.297 . S
Cd57 O61 2.439 . S
Cd57 O67 2.240 . S
Cd58 O59 2.240 . S
Cd58 O66 2.223 . S
Cd58 O68 2.297 . S
Cd58 O69 2.439 . S
O59 Cd58 2.240 . S
O59 C64 1.279 . S
O60 Cd57 2.297 . S
O60 C62 1.247 . S
O61 Cd57 2.439 . S
O61 C62 1.208 . S
C62 O60 1.247 . S
C62 O61 1.208 . S
C63 O68 1.247 . S
C63 O69 1.208 . S
C64 O56 1.315 . S
C64 O59 1.279 . S
C65 O66 1.315 . S
C65 O67 1.279 . S
O66 Cd58 2.223 . S
O66 C65 1.315 . S
O67 Cd57 2.240 . S
O67 C65 1.279 . S
O68 Cd58 2.297 . S
O68 C63 1.247 . S
O69 Cd58 2.439 . S
O69 C63 1.208 . S
O70 Cd71 2.223 . S
O70 C78 1.315 . S
Cd71 O70 2.223 . S
Cd71 O74 2.297 . S
Cd71 O75 2.439 . S
Cd71 O81 2.240 . S
Cd72 O73 2.240 . S
Cd72 O80 2.223 . S
Cd72 O82 2.297 . S
Cd72 O83 2.439 . S
O73 Cd72 2.240 . S
O73 C78 1.279 . S
O74 Cd71 2.297 . S
O74 C76 1.247 . S
O75 Cd71 2.439 . S
O75 C76 1.208 . S
C76 O74 1.247 . S
C76 O75 1.208 . S
C77 O82 1.247 . S
C77 O83 1.208 . S
C78 O70 1.315 . S
C78 O73 1.279 . S
C79 O80 1.315 . S
C79 O81 1.279 . S
O80 Cd72 2.223 . S
O80 C79 1.315 . S
O81 Cd71 2.240 . S
O81 C79 1.279 . S
O82 Cd72 2.297 . S
O82 C77 1.247 . S
O83 Cd72 2.439 . S
O83 C77 1.208 . S
O84 Cd85 2.223 . S
O84 C92 1.315 . S
Cd85 O84 2.223 . S
Cd85 O88 2.297 . S
Cd85 O89 2.439 . S
Cd85 O95 2.240 . S
Cd86 O87 2.240 . S
Cd86 O94 2.223 . S
Cd86 O96 2.297 . S
Cd86 O97 2.439 . S
O87 Cd86 2.240 . S
O87 C92 1.279 . S
O88 Cd85 2.297 . S
O88 C90 1.247 . S
O89 Cd85 2.439 . S
O89 C90 1.208 . S
C90 O88 1.247 . S
C90 O89 1.208 . S
C91 O96 1.247 . S
C91 O97 1.208 . S
C92 O84 1.315 . S
C92 O87 1.279 . S
C93 O94 1.315 . S
C93 O95 1.279 . S
O94 Cd86 2.223 . S
O94 C93 1.315 . S
O95 Cd85 2.240 . S
O95 C93 1.279 . S
O96 Cd86 2.297 . S
O96 C91 1.247 . S
O97 Cd86 2.439 . S
O97 C91 1.208 . S
O98 Cd99 2.223 . S
O98 C106 1.315 . S
Cd99 O98 2.223 . S
Cd99 O102 2.297 . S
Cd99 O103 2.439 . S
Cd99 O109 2.240 . S
Cd100 O101 2.240 . S
Cd100 O108 2.223 . S
Cd100 O110 2.297 . S
Cd100 O111 2.439 . S
O101 Cd100 2.240 . S
O101 C106 1.279 . S
O102 Cd99 2.297 . S
O102 C104 1.247 . S
O103 Cd99 2.439 . S
O103 C104 1.208 . S
C104 O102 1.247 . S
C104 O103 1.208 . S
C105 O110 1.247 . S
C105 O111 1.208 . S
C106 O98 1.315 . S
C106 O101 1.279 . S
C107 O108 1.315 . S
C107 O109 1.279 . S
O108 Cd100 2.223 . S
O108 C107 1.315 . S
O109 Cd99 2.240 . S
O109 C107 1.279 . S
O110 Cd100 2.297 . S
O110 C105 1.247 . S
O111 Cd100 2.439 . S
O111 C105 1.208 . S
O112 Cd113 2.223 . S
O112 C120 1.315 . S
Cd113 O112 2.223 . S
Cd113 O116 2.297 . S
Cd113 O117 2.439 . S
Cd113 O123 2.240 . S
Cd114 O115 2.240 . S
Cd114 O122 2.223 . S
Cd114 O124 2.297 . S
Cd114 O125 2.439 . S
O115 Cd114 2.240 . S
O115 C120 1.279 . S
O116 Cd113 2.297 . S
O116 C118 1.247 . S
O117 Cd113 2.439 . S
O117 C118 1.208 . S
C118 O116 1.247 . S
C118 O117 1.208 . S
C119 O124 1.247 . S
C119 O125 1.208 . S
C120 O112 1.315 . S
C120 O115 1.279 . S
C121 O122 1.315 . S
C121 O123 1.279 . S
O122 Cd114 2.223 . S
O122 C121 1.315 . S
O123 Cd113 2.240 . S
O123 C121 1.279 . S
O124 Cd114 2.297 . S
O124 C119 1.247 . S
O125 Cd114 2.439 . S
O125 C119 1.208 . S
O126 Cd127 2.223 . S
O126 C134 1.315 . S
Cd127 O126 2.223 . S
Cd127 O130 2.297 . S
Cd127 O131 2.439 . S
Cd127 O137 2.240 . S
Cd128 O129 2.240 . S
Cd128 O136 2.223 . S
Cd128 O138 2.297 . S
Cd128 O139 2.439 . S
O129 Cd128 2.240 . S
O129 C134 1.279 . S
O130 Cd127 2.297 . S
O130 C132 1.247 . S
O131 Cd127 2.439 . S
O131 C132 1.208 . S
C132 O130 1.247 . S
C132 O131 1.208 . S
C133 O138 1.247 . S
C133 O139 1.208 . S
C134 O126 1.315 . S
C134 O129 1.279 . S
C135 O136 1.315 . S
C135 O137 1.279 . S
O136 Cd128 2.223 . S
O136 C135 1.315 . S
O137 Cd127 2.240 . S
O137 C135 1.279 . S
O138 Cd128 2.297 . S
O138 C133 1.247 . S
O139 Cd128 2.439 . S
O139 C133 1.208 . S
O140 Cd141 2.223 . S
O140 C148 1.315 . S
Cd141 O140 2.223 . S
Cd141 O144 2.297 . S
Cd141 O145 2.439 . S
Cd141 O151 2.240 . S
Cd142 O143 2.240 . S
Cd142 O150 2.223 . S
Cd142 O152 2.297 . S
Cd142 O153 2.439 . S
O143 Cd142 2.240 . S
O143 C148 1.279 . S
O144 Cd141 2.297 . S
O144 C146 1.247 . S
O145 Cd141 2.439 . S
O145 C146 1.208 . S
C146 O144 1.247 . S
C146 O145 1.208 . S
C147 O152 1.247 . S
C147 O153 1.208 . S
C148 O140 1.315 . S
C148 O143 1.279 . S
C149 O150 1.315 . S
C149 O151 1.279 . S
O150 Cd142 2.223 . S
O150 C149 1.315 . S
O151 Cd141 2.240 . S
O151 C149 1.279 . S
O152 Cd142 2.297 . S
O152 C147 1.247 . S
O153 Cd142 2.439 . S
O153 C147 1.208 . S
O154 Cd155 2.223 . S
O154 C162 1.315 . S
Cd155 O154 2.223 . S
Cd155 O158 2.297 . S
Cd155 O159 2.439 . S
Cd155 O165 2.240 . S
Cd156 O157 2.240 . S
Cd156 O164 2.223 . S
Cd156 O166 2.297 . S
Cd156 O167 2.439 . S
O157 Cd156 2.240 . S
O157 C162 1.279 . S
O158 Cd155 2.297 . S
O158 C160 1.247 . S
O159 Cd155 2.439 . S
O159 C160 1.208 . S
C160 O158 1.247 . S
C160 O159 1.208 . S
C161 O166 1.247 . S
C161 O167 1.208 . S
C162 O154 1.315 . S
C162 O157 1.279 . S
C163 O164 1.315 . S
C163 O165 1.279 . S
O164 Cd156 2.223 . S
O164 C163 1.315 . S
O165 Cd155 2.240 . S
O165 C163 1.279 . S
O166 Cd156 2.297 . S
O166 C161 1.247 . S
O167 Cd156 2.439 . S
O167 C161 1.208 . S
C168 C169 1.363 . S
C168 C174 1.379 1_556 S
C168 N176 1.356 . S
C169 C168 1.363 . S
C169 C175 1.346 1_556 S
C170 C171 1.363 . S
C170 C175 1.401 . S
C170 N177 1.356 . S
C171 C170 1.363 . S
C171 C174 1.363 . S
N172 C174 1.356 . S
N172 H184 0.984 . S
N172 H185 0.985 . S
N173 C175 1.344 1_556 S
N173 H178 0.984 . S
N173 H179 0.985 . S
C174 C168 1.379 1_554 S
C174 C171 1.363 . S
C174 N172 1.356 . S
C175 C169 1.346 1_554 S
C175 C170 1.401 . S
C175 N173 1.344 1_554 S
N176 C168 1.356 . S
N176 H182 0.984 . S
N176 H183 0.984 . S
N177 C170 1.356 . S
N177 H180 0.984 . S
N177 H181 0.985 . S
H178 N173 0.984 . S
H179 N173 0.985 . S
H180 N177 0.984 . S
H181 N177 0.985 . S
H182 N176 0.984 . S
H183 N176 0.984 . S
H184 N172 0.984 . S
H185 N172 0.985 . S
C186 C187 1.363 . S
C186 C192 1.379 . S
C186 N194 1.356 . S
C187 C186 1.363 . S
C187 C193 1.363 . S
C188 C189 1.363 . S
C188 C193 1.379 . S
C188 N195 1.356 . S
C189 C188 1.363 . S
C189 C192 1.363 . S
N190 C192 1.356 . S
N190 H202 0.984 . S
N190 H203 0.985 . S
N191 C193 1.356 . S
N191 H196 0.984 . S
N191 H197 0.985 . S
C192 C186 1.379 . S
C192 C189 1.363 . S
C192 N190 1.356 . S
C193 C187 1.363 . S
C193 C188 1.379 . S
C193 N191 1.356 . S
N194 C186 1.356 . S
N194 H200 0.984 . S
N194 H201 0.984 . S
N195 C188 1.356 . S
N195 H198 0.984 . S
N195 H199 0.985 . S
H196 N191 0.984 . S
H197 N191 0.985 . S
H198 N195 0.984 . S
H199 N195 0.985 . S
H200 N194 0.984 . S
H201 N194 0.984 . S
H202 N190 0.984 . S
H203 N190 0.985 . S
C204 C205 1.363 . S
C204 C210 1.379 . S
C204 N212 1.356 . S
C205 C204 1.363 . S
C205 C211 1.363 . S
C206 C207 1.363 . S
C206 C211 1.379 . S
C206 N213 1.356 . S
C207 C206 1.363 . S
C207 C210 1.363 . S
N208 C210 1.356 . S
N208 H220 0.984 . S
N208 H221 0.985 . S
N209 C211 1.356 . S
N209 H214 0.984 . S
N209 H215 0.985 . S
C210 C204 1.379 . S
C210 C207 1.363 . S
C210 N208 1.356 . S
C211 C205 1.363 . S
C211 C206 1.379 . S
C211 N209 1.356 . S
N212 C204 1.356 . S
N212 H218 0.984 . S
N212 H219 0.984 . S
N213 C206 1.356 . S
N213 H216 0.984 . S
N213 H217 0.985 . S
H214 N209 0.984 . S
H215 N209 0.985 . S
H216 N213 0.984 . S
H217 N213 0.985 . S
H218 N212 0.984 . S
H219 N212 0.984 . S
H220 N208 0.984 . S
H221 N208 0.985 . S
C222 C223 1.363 . S
C222 C228 1.405 . S
C222 N230 1.356 . S
C223 C222 1.363 . S
C223 C229 1.363 1_554 S
C224 C225 1.363 . S
C224 C229 1.379 . S
C224 N231 1.356 . S
C225 C224 1.363 . S
C225 C228 1.327 1_556 S
N226 C228 1.355 1_556 S
N226 H238 0.979 1_556 S
N226 H239 0.990 . S
N227 C229 1.356 . S
N227 H232 0.984 1_556 S
N227 H233 0.985 . S
C228 C222 1.405 . S
C228 C225 1.327 1_554 S
C228 N226 1.355 1_554 S
C229 C223 1.363 1_556 S
C229 C224 1.379 . S
C229 N227 1.356 . S
N230 C222 1.356 . S
N230 H236 0.984 . S
N230 H237 0.984 . S
N231 C224 1.356 . S
N231 H234 0.984 . S
N231 H235 0.985 . S
H232 N227 0.984 1_554 S
H233 N227 0.985 . S
H234 N231 0.984 . S
H235 N231 0.985 . S
H236 N230 0.984 . S
H237 N230 0.984 . S
H238 N226 0.979 1_554 S
H239 N226 0.990 . S
C240 C241 1.363 . S
C240 C246 1.379 . S
C240 N248 1.356 . S
C241 C240 1.363 . S
C241 C247 1.363 . S
C242 C243 1.363 . S
C242 C247 1.379 . S
C242 N249 1.356 . S
C243 C242 1.363 . S
C243 C246 1.363 . S
N244 C246 1.356 . S
N244 H256 0.984 . S
N244 H257 0.985 . S
N245 C247 1.356 . S
N245 H250 0.984 . S
N245 H251 0.985 . S
C246 C240 1.379 . S
C246 C243 1.363 . S
C246 N244 1.356 . S
C247 C241 1.363 . S
C247 C242 1.379 . S
C247 N245 1.356 . S
N248 C240 1.356 . S
N248 H254 0.984 . S
N248 H255 0.984 . S
N249 C242 1.356 . S
N249 H252 0.984 . S
N249 H253 0.985 . S
H250 N245 0.984 . S
H251 N245 0.985 . S
H252 N249 0.984 . S
H253 N249 0.985 . S
H254 N248 0.984 . S
H255 N248 0.984 . S
H256 N244 0.984 . S
H257 N244 0.985 . S
C258 C259 1.363 . S
C258 C264 1.379 . S
C258 N266 1.356 . S
C259 C258 1.363 . S
C259 C265 1.363 . S
C260 C261 1.363 . S
C260 C265 1.379 . S
C260 N267 1.356 . S
C261 C260 1.363 . S
C261 C264 1.363 . S
N262 C264 1.356 . S
N262 H274 0.984 . S
N262 H275 0.985 . S
N263 C265 1.356 . S
N263 H268 0.984 . S
N263 H269 0.985 . S
C264 C258 1.379 . S
C264 C261 1.363 . S
C264 N262 1.356 . S
C265 C259 1.363 . S
C265 C260 1.379 . S
C265 N263 1.356 . S
N266 C258 1.356 . S
N266 H272 0.984 . S
N266 H273 0.984 . S
N267 C260 1.356 . S
N267 H270 0.984 . S
N267 H271 0.985 . S
H268 N263 0.984 . S
H269 N263 0.985 . S
H270 N267 0.984 . S
H271 N267 0.985 . S
H272 N266 0.984 . S
H273 N266 0.984 . S
H274 N262 0.984 . S
H275 N262 0.985 . S
C276 C277 1.363 . S
C276 C282 1.379 . S
C276 N284 1.356 . S
C277 C276 1.363 . S
C277 C283 1.363 . S
C278 C279 1.363 . S
C278 C283 1.379 . S
C278 N285 1.356 . S
C279 C278 1.363 . S
C279 C282 1.363 . S
N280 C282 1.356 . S
N280 H292 0.984 . S
N280 H293 0.985 . S
N281 C283 1.356 . S
N281 H286 0.984 . S
N281 H287 0.985 . S
C282 C276 1.379 . S
C282 C279 1.363 . S
C282 N280 1.356 . S
C283 C277 1.363 . S
C283 C278 1.379 . S
C283 N281 1.356 . S
N284 C276 1.356 . S
N284 H290 0.984 . S
N284 H291 0.984 . S
N285 C278 1.356 . S
N285 H288 0.984 . S
N285 H289 0.985 . S
H286 N281 0.984 . S
H287 N281 0.985 . S
H288 N285 0.984 . S
H289 N285 0.985 . S
H290 N284 0.984 . S
H291 N284 0.984 . S
H292 N280 0.984 . S
H293 N280 0.985 . S
C294 C295 1.363 . S
C294 C300 1.379 . S
C294 N302 1.356 . S
C295 C294 1.363 . S
C295 C301 1.363 . S
C296 C297 1.363 . S
C296 C301 1.379 . S
C296 N303 1.356 . S
C297 C296 1.363 . S
C297 C300 1.363 . S
N298 C300 1.356 . S
N298 H310 0.984 . S
N298 H311 0.985 . S
N299 C301 1.356 . S
N299 H304 0.984 . S
N299 H305 0.985 . S
C300 C294 1.379 . S
C300 C297 1.363 . S
C300 N298 1.356 . S
C301 C295 1.363 . S
C301 C296 1.379 . S
C301 N299 1.356 . S
N302 C294 1.356 . S
N302 H308 0.984 . S
N302 H309 0.984 . S
N303 C296 1.356 . S
N303 H306 0.984 . S
N303 H307 0.985 . S
H304 N299 0.984 . S
H305 N299 0.985 . S
H306 N303 0.984 . S
H307 N303 0.985 . S
H308 N302 0.984 . S
H309 N302 0.984 . S
H310 N298 0.984 . S
H311 N298 0.985 . S
C312 C313 1.363 . S
C312 C318 1.379 . S
C312 N320 1.356 . S
C313 C312 1.363 . S
C313 C319 1.363 . S
C314 C315 1.363 . S
C314 C319 1.379 . S
C314 N321 1.356 . S
C315 C314 1.363 . S
C315 C318 1.363 . S
N316 C318 1.356 . S
N316 H328 0.984 . S
N316 H329 0.985 . S
N317 C319 1.356 . S
N317 H322 0.984 . S
N317 H323 0.985 . S
C318 C312 1.379 . S
C318 C315 1.363 . S
C318 N316 1.356 . S
C319 C313 1.363 . S
C319 C314 1.379 . S
C319 N317 1.356 . S
N320 C312 1.356 . S
N320 H326 0.984 . S
N320 H327 0.984 . S
N321 C314 1.356 . S
N321 H324 0.984 . S
N321 H325 0.985 . S
H322 N317 0.984 . S
H323 N317 0.985 . S
H324 N321 0.984 . S
H325 N321 0.985 . S
H326 N320 0.984 . S
H327 N320 0.984 . S
H328 N316 0.984 . S
H329 N316 0.985 . S
C330 C331 1.363 . S
C330 C336 1.379 . S
C330 N338 1.356 . S
C331 C330 1.363 . S
C331 C337 1.363 . S
C332 C333 1.363 . S
C332 C337 1.379 . S
C332 N339 1.356 . S
C333 C332 1.363 . S
C333 C336 1.363 . S
N334 C336 1.356 . S
N334 H346 0.984 . S
N334 H347 0.985 . S
N335 C337 1.356 . S
N335 H340 0.984 . S
N335 H341 0.985 . S
C336 C330 1.379 . S
C336 C333 1.363 . S
C336 N334 1.356 . S
C337 C331 1.363 . S
C337 C332 1.379 . S
C337 N335 1.356 . S
N338 C330 1.356 . S
N338 H344 0.984 . S
N338 H345 0.984 . S
N339 C332 1.356 . S
N339 H342 0.984 . S
N339 H343 0.985 . S
H340 N335 0.984 . S
H341 N335 0.985 . S
H342 N339 0.984 . S
H343 N339 0.985 . S
H344 N338 0.984 . S
H345 N338 0.984 . S
H346 N334 0.984 . S
H347 N334 0.985 . S
C348 C349 1.363 . S
C348 C354 1.379 . S
C348 N356 1.356 . S
C349 C348 1.363 . S
C349 C355 1.363 . S
C350 C351 1.363 . S
C350 C355 1.379 . S
C350 N357 1.356 . S
C351 C350 1.363 . S
C351 C354 1.363 . S
N352 C354 1.356 . S
N352 H364 0.984 . S
N352 H365 0.985 . S
N353 C355 1.356 . S
N353 H358 0.984 . S
N353 H359 0.985 . S
C354 C348 1.379 . S
C354 C351 1.363 . S
C354 N352 1.356 . S
C355 C349 1.363 . S
C355 C350 1.379 . S
C355 N353 1.356 . S
N356 C348 1.356 . S
N356 H362 0.984 . S
N356 H363 0.984 . S
N357 C350 1.356 . S
N357 H360 0.984 . S
N357 H361 0.985 . S
H358 N353 0.984 . S
H359 N353 0.985 . S
H360 N357 0.984 . S
H361 N357 0.985 . S
H362 N356 0.984 . S
H363 N356 0.984 . S
H364 N352 0.984 . S
H365 N352 0.985 . S
C366 C367 1.363 . S
C366 C372 1.379 . S
C366 N374 1.356 . S
C367 C366 1.363 . S
C367 C373 1.363 . S
C368 C369 1.363 . S
C368 C373 1.379 . S
C368 N375 1.356 . S
C369 C368 1.363 . S
C369 C372 1.363 . S
N370 C372 1.356 . S
N370 H382 0.984 . S
N370 H383 0.985 . S
N371 C373 1.356 . S
N371 H376 0.984 . S
N371 H377 0.985 . S
C372 C366 1.379 . S
C372 C369 1.363 . S
C372 N370 1.356 . S
C373 C367 1.363 . S
C373 C368 1.379 . S
C373 N371 1.356 . S
N374 C366 1.356 . S
N374 H380 0.984 . S
N374 H381 0.984 . S
N375 C368 1.356 . S
N375 H378 0.984 . S
N375 H379 0.985 . S
H376 N371 0.984 . S
H377 N371 0.985 . S
H378 N375 0.984 . S
H379 N375 0.985 . S
H380 N374 0.984 . S
H381 N374 0.984 . S
H382 N370 0.984 . S
H383 N370 0.985 . S
C384 C385 1.363 . S
C384 C390 1.379 . S
C384 N392 1.356 . S
C385 C384 1.363 . S
C385 C391 1.363 . S
C386 C387 1.363 . S
C386 C391 1.379 1_455 S
C386 N393 1.356 . S
C387 C386 1.363 . S
C387 C390 1.363 1_455 S
N388 C390 1.356 1_455 S
N388 H400 0.984 1_455 S
N388 H401 0.985 . S
N389 C391 1.356 . S
N389 H394 0.984 . S
N389 H395 0.985 . S
C390 C384 1.379 . S
C390 C387 1.363 1_655 S
C390 N388 1.356 1_655 S
C391 C385 1.363 . S
C391 C386 1.379 1_655 S
C391 N389 1.356 . S
N392 C384 1.356 . S
N392 H398 0.984 . S
N392 H399 0.984 . S
N393 C386 1.356 . S
N393 H396 0.984 . S
N393 H397 0.985 . S
H394 N389 0.984 . S
H395 N389 0.985 . S
H396 N393 0.984 . S
H397 N393 0.985 . S
H398 N392 0.984 . S
H399 N392 0.984 . S
H400 N388 0.984 1_655 S
H401 N388 0.985 . S
C402 C403 1.363 . S
C402 C408 1.379 . S
C402 N410 1.356 . S
C403 C402 1.363 . S
C403 C409 1.363 . S
C404 C405 1.363 . S
C404 C409 1.377 1_565 S
C404 N411 1.359 . S
C405 C404 1.363 . S
C405 C408 1.363 1_565 S
N406 C408 1.356 1_565 S
N406 H418 0.984 1_565 S
N406 H419 0.985 . S
N407 C409 1.356 . S
N407 H412 0.984 . S
N407 H413 0.985 . S
C408 C402 1.379 . S
C408 C405 1.363 1_545 S
C408 N406 1.356 1_545 S
C409 C403 1.363 . S
C409 C404 1.377 1_545 S
C409 N407 1.356 . S
N410 C402 1.356 . S
N410 H416 0.984 . S
N410 H417 0.984 . S
N411 C404 1.359 . S
N411 H414 0.984 . S
N411 H415 0.985 . S
H412 N407 0.984 . S
H413 N407 0.985 . S
H414 N411 0.984 . S
H415 N411 0.985 . S
H416 N410 0.984 . S
H417 N410 0.984 . S
H418 N406 0.984 1_545 S
H419 N406 0.985 . S
C420 C421 1.363 . S
C420 C426 1.379 . S
C420 N428 1.356 . S
C421 C420 1.363 . S
C421 C427 1.363 . S
C422 C423 1.363 . S
C422 C427 1.379 . S
C422 N429 1.356 . S
C423 C422 1.363 . S
C423 C426 1.363 . S
N424 C426 1.356 . S
N424 H436 0.984 . S
N424 H437 0.985 . S
N425 C427 1.356 . S
N425 H430 0.984 . S
N425 H431 0.985 . S
C426 C420 1.379 . S
C426 C423 1.363 . S
C426 N424 1.356 . S
C427 C421 1.363 . S
C427 C422 1.379 . S
C427 N425 1.356 . S
N428 C420 1.356 . S
N428 H434 0.984 . S
N428 H435 0.984 . S
N429 C422 1.356 . S
N429 H432 0.984 . S
N429 H433 0.985 . S
H430 N425 0.984 . S
H431 N425 0.985 . S
H432 N429 0.984 . S
H433 N429 0.985 . S
H434 N428 0.984 . S
H435 N428 0.984 . S
H436 N424 0.984 . S
H437 N424 0.985 . S
C438 C439 1.363 . S
C438 C444 1.379 . S
C438 N446 1.356 . S
C439 C438 1.363 . S
C439 C445 1.363 . S
C440 C441 1.363 . S
C440 C445 1.379 . S
C440 N447 1.356 . S
C441 C440 1.363 . S
C441 C444 1.363 . S
N442 C444 1.356 1_565 S
N442 H454 0.984 . S
N442 H455 0.985 . S
N443 C445 1.356 . S
N443 H448 0.984 . S
N443 H449 0.985 . S
C444 C438 1.379 . S
C444 C441 1.363 . S
C444 N442 1.356 1_545 S
C445 C439 1.363 . S
C445 C440 1.379 . S
C445 N443 1.356 . S
N446 C438 1.356 . S
N446 H452 0.984 . S
N446 H453 0.984 . S
N447 C440 1.356 . S
N447 H450 0.984 1_545 S
N447 H451 0.985 . S
H448 N443 0.984 . S
H449 N443 0.985 . S
H450 N447 0.984 1_565 S
H451 N447 0.985 . S
H452 N446 0.984 . S
H453 N446 0.984 . S
H454 N442 0.984 . S
H455 N442 0.985 . S
C456 C457 1.363 . S
C456 C462 1.379 . S
C456 N464 1.356 . S
C457 C456 1.363 . S
C457 C463 1.363 . S
C458 C459 1.363 . S
C458 C463 1.379 . S
C458 N465 1.356 . S
C459 C458 1.363 . S
C459 C462 1.363 . S
N460 C462 1.356 . S
N460 H472 0.984 . S
N460 H473 0.985 . S
N461 C463 1.356 . S
N461 H466 0.984 . S
N461 H467 0.985 . S
C462 C456 1.379 . S
C462 C459 1.363 . S
C462 N460 1.356 . S
C463 C457 1.363 . S
C463 C458 1.379 . S
C463 N461 1.356 . S
N464 C456 1.356 . S
N464 H470 0.984 . S
N464 H471 0.984 . S
N465 C458 1.356 . S
N465 H468 0.984 . S
N465 H469 0.985 . S
H466 N461 0.984 . S
H467 N461 0.985 . S
H468 N465 0.984 . S
H469 N465 0.985 . S
H470 N464 0.984 . S
H471 N464 0.984 . S
H472 N460 0.984 . S
H473 N460 0.985 . S
C474 C475 1.363 . S
C474 C480 1.379 1_455 S
C474 N482 1.356 . S
C475 C474 1.363 . S
C475 C481 1.363 . S
C476 C477 1.363 1_455 S
C476 C481 1.379 . S
C476 N483 1.356 1_455 S
C477 C476 1.363 1_655 S
C477 C480 1.363 . S
N478 C480 1.356 . S
N478 H490 0.984 . S
N478 H491 0.985 . S
N479 C481 1.356 . S
N479 H484 0.984 . S
N479 H485 0.985 . S
C480 C474 1.379 1_655 S
C480 C477 1.363 . S
C480 N478 1.356 . S
C481 C475 1.363 . S
C481 C476 1.379 . S
C481 N479 1.356 . S
N482 C474 1.356 . S
N482 H488 0.984 . S
N482 H489 0.984 . S
N483 C476 1.356 1_655 S
N483 H486 0.984 . S
N483 H487 0.985 1_655 S
H484 N479 0.984 . S
H485 N479 0.985 . S
H486 N483 0.984 . S
H487 N483 0.985 1_455 S
H488 N482 0.984 . S
H489 N482 0.984 . S
H490 N478 0.984 . S
H491 N478 0.985 . S
C492 C493 1.363 . S
C492 C498 1.379 . S
C492 N500 1.356 . S
C493 C492 1.363 . S
C493 C499 1.363 . S
C494 C495 1.363 . S
C494 C499 1.379 . S
C494 N501 1.356 . S
C495 C494 1.363 . S
C495 C498 1.363 . S
N496 C498 1.356 . S
N496 H508 0.984 . S
N496 H509 0.985 . S
N497 C499 1.356 . S
N497 H502 0.984 . S
N497 H503 0.985 . S
C498 C492 1.379 . S
C498 C495 1.363 . S
C498 N496 1.356 . S
C499 C493 1.363 . S
C499 C494 1.379 . S
C499 N497 1.356 . S
N500 C492 1.356 . S
N500 H506 0.984 . S
N500 H507 0.984 . S
N501 C494 1.356 . S
N501 H504 0.984 . S
N501 H505 0.985 . S
H502 N497 0.984 . S
H503 N497 0.985 . S
H504 N501 0.984 . S
H505 N501 0.985 . S
H506 N500 0.984 . S
H507 N500 0.984 . S
H508 N496 0.984 . S
H509 N496 0.985 . S
C510 C511 1.363 . S
C510 C516 1.379 . S
C510 N518 1.356 . S
C511 C510 1.363 . S
C511 C517 1.363 . S
C512 C513 1.363 . S
C512 C517 1.379 1_455 S
C512 N519 1.356 . S
C513 C512 1.363 . S
C513 C516 1.363 1_455 S
N514 C516 1.356 . S
N514 H526 0.984 . S
N514 H527 0.985 1_655 S
N515 C517 1.356 . S
N515 H520 0.984 . S
N515 H521 0.985 . S
C516 C510 1.379 . S
C516 C513 1.363 1_655 S
C516 N514 1.356 . S
C517 C511 1.363 . S
C517 C512 1.379 1_655 S
C517 N515 1.356 . S
N518 C510 1.356 . S
N518 H524 0.984 . S
N518 H525 0.984 . S
N519 C512 1.356 . S
N519 H522 0.984 . S
N519 H523 0.985 . S
H520 N515 0.984 . S
H521 N515 0.985 . S
H522 N519 0.984 . S
H523 N519 0.985 . S
H524 N518 0.984 . S
H525 N518 0.984 . S
H526 N514 0.984 . S
H527 N514 0.985 1_455 S
C528 C529 1.363 . S
C528 C534 1.379 . S
C528 N536 1.356 . S
C529 C528 1.363 . S
C529 C535 1.363 . S
C530 C531 1.363 . S
C530 C535 1.379 1_565 S
C530 N537 1.356 . S
C531 C530 1.363 . S
C531 C534 1.363 1_565 S
N532 C534 1.356 1_565 S
N532 H544 0.984 1_565 S
N532 H545 0.985 . S
N533 C535 1.356 . S
N533 H538 0.984 . S
N533 H539 0.985 . S
C534 C528 1.379 . S
C534 C531 1.363 1_545 S
C534 N532 1.356 1_545 S
C535 C529 1.363 . S
C535 C530 1.379 1_545 S
C535 N533 1.356 . S
N536 C528 1.356 . S
N536 H542 0.984 . S
N536 H543 0.984 . S
N537 C530 1.356 . S
N537 H540 0.984 . S
N537 H541 0.985 . S
H538 N533 0.984 . S
H539 N533 0.985 . S
H540 N537 0.984 . S
H541 N537 0.985 . S
H542 N536 0.984 . S
H543 N536 0.984 . S
H544 N532 0.984 1_545 S
H545 N532 0.985 . S
C546 C547 1.363 . S
C546 C552 1.379 . S
C546 N554 1.356 . S
C547 C546 1.363 . S
C547 C553 1.363 . S
C548 C549 1.363 . S
C548 C553 1.379 . S
C548 N555 1.356 . S
C549 C548 1.363 . S
C549 C552 1.363 . S
N550 C552 1.356 . S
N550 H562 0.984 . S
N550 H563 0.985 . S
N551 C553 1.356 . S
N551 H556 0.984 . S
N551 H557 0.985 . S
C552 C546 1.379 . S
C552 C549 1.363 . S
C552 N550 1.356 . S
C553 C547 1.363 . S
C553 C548 1.379 . S
C553 N551 1.356 . S
N554 C546 1.356 . S
N554 H560 0.984 . S
N554 H561 0.984 . S
N555 C548 1.356 . S
N555 H558 0.984 . S
N555 H559 0.985 . S
H556 N551 0.984 . S
H557 N551 0.985 . S
H558 N555 0.984 . S
H559 N555 0.985 . S
H560 N554 0.984 . S
H561 N554 0.984 . S
H562 N550 0.984 . S
H563 N550 0.985 . S
C564 C565 1.363 . S
C564 C570 1.379 . S
C564 N572 1.356 . S
C565 C564 1.363 . S
C565 C571 1.363 . S
C566 C567 1.363 . S
C566 C571 1.379 1_655 S
C566 N573 1.356 . S
C567 C566 1.363 . S
C567 C570 1.363 1_655 S
N568 C570 1.356 . S
N568 H580 0.984 . S
N568 H581 0.985 1_455 S
N569 C571 1.356 . S
N569 H574 0.984 . S
N569 H575 0.985 . S
C570 C564 1.379 . S
C570 C567 1.363 1_455 S
C570 N568 1.356 . S
C571 C565 1.363 . S
C571 C566 1.379 1_455 S
C571 N569 1.356 . S
N572 C564 1.356 . S
N572 H578 0.984 . S
N572 H579 0.984 . S
N573 C566 1.356 . S
N573 H576 0.984 . S
N573 H577 0.985 . S
H574 N569 0.984 . S
H575 N569 0.985 . S
H576 N573 0.984 . S
H577 N573 0.985 . S
H578 N572 0.984 . S
H579 N572 0.984 . S
H580 N568 0.984 . S
H581 N568 0.985 1_655 S
C582 C583 1.363 . S
C582 C588 1.379 . S
C582 N590 1.356 . S
C583 C582 1.363 . S
C583 C589 1.363 . S
C584 C585 1.363 . S
C584 C589 1.379 . S
C584 N591 1.356 . S
C585 C584 1.363 . S
C585 C588 1.363 . S
N586 C588 1.356 1_545 S
N586 H598 0.984 . S
N586 H599 0.985 . S
N587 C589 1.356 . S
N587 H592 0.984 . S
N587 H593 0.985 . S
C588 C582 1.379 . S
C588 C585 1.363 . S
C588 N586 1.356 1_565 S
C589 C583 1.363 . S
C589 C584 1.379 . S
C589 N587 1.356 . S
N590 C582 1.356 . S
N590 H596 0.984 . S
N590 H597 0.984 . S
N591 C584 1.356 . S
N591 H594 0.984 . S
N591 H595 0.985 . S
H592 N587 0.984 . S
H593 N587 0.985 . S
H594 N591 0.984 . S
H595 N591 0.985 . S
H596 N590 0.984 . S
H597 N590 0.984 . S
H598 N586 0.984 . S
H599 N586 0.985 . S
C169 C148 1.402 . S
C171 C8 1.698 . S
C187 C22 1.401 . S
C189 C162 1.697 . S
C205 C36 1.326 . S
C207 C92 1.585 . S
C223 C50 1.349 . S
C225 C106 1.645 . S
C241 C120 1.349 . S
C243 C64 1.645 . S
C259 C78 1.585 . S
C261 C134 1.326 . S
C277 C119 1.798 . S
C279 C7 1.868 . S
C295 C21 2.238 . S
C297 C133 2.252 . S
C313 C35 2.252 . S
C315 C147 2.239 . S
C331 C49 1.797 . S
C333 C161 1.868 . S
C349 C91 1.434 . S
C351 C63 1.432 . S
C367 C105 1.432 . S
C369 C77 1.434 . S
C385 C51 1.565 . S
C387 C9 1.565 . S
C403 C23 1.561 . S
C405 C65 1.552 . S
C421 C79 1.552 . S
C423 C37 1.565 . S
C439 C135 1.565 . S
C441 C93 1.552 1_545 S
C457 C149 1.561 . S
C459 C107 1.552 . S
C475 C121 1.565 . S
C477 C163 1.565 . S
C493 C48 1.342 . S
C495 C6 1.344 . S
C511 C20 1.340 . S
C513 C62 1.342 . S
C529 C76 1.344 . S
C531 C34 1.339 . S
C547 C90 1.344 . S
C549 C132 1.339 . S
C565 C146 1.341 . S
C567 C104 1.342 . S
C583 C118 1.342 . S
C585 C160 1.344 1_565 S
