# Generated by pormake.
# Topology wgu, (5)-cn, num edge types: 1
# Building blocks:
#     Node 0, Type 0, BuildingBlock: BEQFEK_clean_sbu_0, # of connection points: 5
#     Node 1, Type 0, BuildingBlock: BEQFEK_clean_sbu_0, # of connection points: 5
#     Node 2, Type 0, BuildingBlock: BEQFEK_clean_sbu_0, # of connection points: 5
#     Node 3, Type 0, BuildingBlock: BEQFEK_clean_sbu_0, # of connection points: 5
#     Node 4, Type 0, BuildingBlock: BEQFEK_clean_sbu_0, # of connection points: 5
#     Node 5, Type 0, BuildingBlock: BEQFEK_clean_sbu_0, # of connection points: 5
#     Node 6, Type 0, BuildingBlock: BEQFEK_clean_sbu_0, # of connection points: 5
#     Node 7, Type 0, BuildingBlock: BEQFEK_clean_sbu_0, # of connection points: 5
#     Edge 8, Type (0, 0), BuildingBlock: OJICUG_clean_linker_0, # of connection points: 2
#     Edge 9, Type (0, 0), BuildingBlock: OJICUG_clean_linker_0, # of connection points: 2
#     Edge 10, Type (0, 0), BuildingBlock: OJICUG_clean_linker_0, # of connection points: 2
#     Edge 11, Type (0, 0), BuildingBlock: OJICUG_clean_linker_0, # of connection points: 2
#     Edge 12, Type (0, 0), BuildingBlock: OJICUG_clean_linker_0, # of connection points: 2
#     Edge 13, Type (0, 0), BuildingBlock: OJICUG_clean_linker_0, # of connection points: 2
#     Edge 14, Type (0, 0), BuildingBlock: OJICUG_clean_linker_0, # of connection points: 2
#     Edge 15, Type (0, 0), BuildingBlock: OJICUG_clean_linker_0, # of connection points: 2
#     Edge 16, Type (0, 0), BuildingBlock: OJICUG_clean_linker_0, # of connection points: 2
#     Edge 17, Type (0, 0), BuildingBlock: OJICUG_clean_linker_0, # of connection points: 2
#     Edge 18, Type (0, 0), BuildingBlock: OJICUG_clean_linker_0, # of connection points: 2
#     Edge 19, Type (0, 0), BuildingBlock: OJICUG_clean_linker_0, # of connection points: 2
#     Edge 20, Type (0, 0), BuildingBlock: OJICUG_clean_linker_0, # of connection points: 2
#     Edge 21, Type (0, 0), BuildingBlock: OJICUG_clean_linker_0, # of connection points: 2
#     Edge 22, Type (0, 0), BuildingBlock: OJICUG_clean_linker_0, # of connection points: 2
#     Edge 23, Type (0, 0), BuildingBlock: OJICUG_clean_linker_0, # of connection points: 2
#     Edge 24, Type (0, 0), BuildingBlock: OJICUG_clean_linker_0, # of connection points: 2
#     Edge 25, Type (0, 0), BuildingBlock: OJICUG_clean_linker_0, # of connection points: 2
#     Edge 26, Type (0, 0), BuildingBlock: OJICUG_clean_linker_0, # of connection points: 2
#     Edge 27, Type (0, 0), BuildingBlock: OJICUG_clean_linker_0, # of connection points: 2
# Relax obj value: 0.554
# Max RMSD: 0.236
# Mean RMSD: 0.236
data_MOF--net-wgu--node1-BEQFEK_clean_sbu_0--edge1-OJICUG_clean_linker_0
_symmetry_space_group_name_H-M    P1
_symmetry_Int_Tables_number       1
_symmetry_cell_setting            triclinic
loop_
_symmetry_equiv_pos_as_xyz
'x, y, z'
_cell_length_a     24.994542
_cell_length_b     25.042292
_cell_length_c     20.241794
_cell_angle_alpha  90.080882
_cell_angle_beta   90.127329
_cell_angle_gamma 90.026854
loop_
_atom_site_label
_atom_site_type_symbol
_atom_site_fract_x
_atom_site_fract_y
_atom_site_fract_z
_atom_type_partial_charge
Co0 Co 0.30692 0.43061 1.04013 0.0
Co1 Co 0.38493 0.3346 0.05018 0.0
C2 C 0.30297 0.34277 0.94017 0.0
O3 O 0.28493 0.38672 0.96245 0.0
O4 O 0.34239 0.31985 0.96819 0.0
C5 C 0.20471 0.48384 1.03555 0.0
O6 O 0.1843 0.43601 1.02709 0.0
C7 C 0.40079 0.22147 0.0635 0.0
C8 C 0.48258 0.21306 0.10345 0.0
C9 C 0.43718 0.18437 0.0865 0.0
N10 N 0.42326 0.27003 0.06636 0.0
N11 N 0.47266 0.26482 0.08908 0.0
C12 C 0.34375 0.21153 1.04396 0.0
H13 H 0.3185 0.24646 0.05668 0.0
H14 H 0.32746 0.17524 0.068 0.0
H15 H 0.34187 0.20546 0.98974 0.0
C16 C 0.27156 0.38807 0.17263 0.0
N17 N 0.30373 0.3883 0.11885 0.0
N18 N 0.33783 0.34836 0.12341 0.0
C19 C 0.32861 0.32203 0.18048 0.0
C20 C 0.28574 0.34538 0.21289 0.0
C21 C 0.22589 0.42568 0.18315 0.0
H22 H 0.23763 0.46661 0.16831 0.0
H23 H 0.19153 0.41266 0.15243 0.0
H24 H 0.21275 0.4262 0.23537 0.0
O25 O 0.38044 0.46375 1.03008 0.0
O26 O 0.4363 0.39521 1.03812 0.0
H27 H 0.35744 0.27222 0.25984 0.0
H28 H 0.34508 0.23873 0.18291 0.0
C29 C 0.36075 0.2759 0.20536 0.0
H30 H 0.40341 0.28093 0.19224 0.0
H31 H 0.49857 0.29675 0.09787 0.0
O32 O 0.25485 0.48981 1.04346 0.0
C33 C 0.42808 0.44519 1.03099 0.0
Co34 Co 0.60842 0.31 0.54239 0.0
Co35 Co 0.7086 0.3839 0.54664 0.0
C36 C 0.69718 0.30334 0.43958 0.0
O37 O 0.65336 0.28663 0.4644 0.0
O38 O 0.72166 0.34316 0.46466 0.0
C39 C 0.55678 0.20726 0.55468 0.0
O40 O 0.6051 0.18813 0.56408 0.0
C41 C 0.8215 0.4187 0.54852 0.0
C42 C 0.82333 0.46638 0.64001 0.0
C43 C 0.8562 0.44342 0.59277 0.0
N44 N 0.77092 0.42542 0.56968 0.0
N45 N 0.77227 0.45596 0.62294 0.0
C46 C 0.83652 0.3828 0.4924 0.0
H47 H 0.82165 0.3418 0.50155 0.0
H48 H 0.8803 0.38126 0.48431 0.0
H49 H 0.817 0.39793 0.44689 0.0
C50 C 0.65 0.28027 0.67776 0.0
N51 N 0.65107 0.30843 0.62076 0.0
N52 N 0.69722 0.33302 0.61607 0.0
C53 C 0.72926 0.31652 0.66546 0.0
C54 C 0.70019 0.28402 0.70876 0.0
C55 C 0.60064 0.25365 0.70337 0.0
H56 H 0.56457 0.26965 0.67827 0.0
H57 H 0.60297 0.21007 0.69408 0.0
H58 H 0.59688 0.26031 0.75737 0.0
O59 O 0.57565 0.38233 0.53113 0.0
O60 O 0.6464 0.43545 0.53788 0.0
H61 H 0.79984 0.36057 0.68845 0.0
H62 H 0.80967 0.2889 0.68624 0.0
C63 C 0.78869 0.32307 0.66294 0.0
H64 H 0.80205 0.32512 0.61111 0.0
H65 H 0.73871 0.46527 0.65129 0.0
O66 O 0.54984 0.25715 0.54675 0.0
C67 C 0.59589 0.4291 0.53191 0.0
Co68 Co 0.73126 0.6036 1.03916 0.0
Co69 Co 0.65595 0.70292 1.04022 0.0
C70 C 0.73641 0.68992 0.93359 0.0
O71 O 0.75507 0.64764 0.96026 0.0
O72 O 0.69569 0.71332 0.95768 0.0
C73 C 0.83391 0.55114 0.0579 0.0
O74 O 0.8533 0.59901 0.06937 0.0
C75 C 0.62362 0.81634 1.03798 0.0
C76 C 0.57202 0.82032 0.12593 0.0
C77 C 0.59755 0.852 0.07956 0.0
N78 N 0.61491 0.76626 0.05965 0.0
N79 N 0.5822 0.76892 0.11074 0.0
C80 C 0.66249 0.8302 0.98442 0.0
H81 H 0.70116 0.80968 0.99263 0.0
H82 H 0.6698 0.87373 0.98088 0.0
H83 H 0.64576 0.81609 0.93675 0.0
C84 C 0.75764 0.64647 0.17521 0.0
N85 N 0.7314 0.64722 0.11667 0.0
N86 N 0.7068 0.69317 0.11035 0.0
C87 C 0.72167 0.72545 0.16029 0.0
C88 C 0.75277 0.69671 0.20556 0.0
C89 C 0.78281 0.59717 0.20306 0.0
H90 H 0.76753 0.56113 0.17725 0.0
H91 H 0.82682 0.59911 0.19675 0.0
H92 H 0.77386 0.59379 0.25657 0.0
O93 O 0.65886 0.57049 1.02729 0.0
O94 O 0.60471 0.64047 1.03352 0.0
H95 H 0.6765 0.79583 0.18013 0.0
H96 H 0.74831 0.80593 0.1821 0.0
C97 C 0.715 0.78474 0.157 0.0
H98 H 0.71491 0.79788 0.10502 0.0
H99 H 0.571 0.73601 0.1391 0.0
O100 O 0.78426 0.54499 1.04617 0.0
C101 C 0.61174 0.59011 1.02795 0.0
Co102 Co 0.43684 0.73489 0.54372 0.0
Co103 Co 0.34126 0.65629 0.55072 0.0
C104 C 0.35094 0.73773 0.44082 0.0
O105 O 0.39384 0.75715 0.46483 0.0
O106 O 0.32871 0.6977 0.46786 0.0
C107 C 0.48759 0.83815 0.54603 0.0
O108 O 0.43874 0.85709 0.5417 0.0
C109 C 0.22802 0.64248 0.55541 0.0
C110 C 0.21526 0.56149 0.59541 0.0
C111 C 0.18859 0.60713 0.57486 0.0
N112 N 0.27575 0.61901 0.56332 0.0
N113 N 0.26809 0.57016 0.58619 0.0
C114 C 0.22113 0.70056 0.53926 0.0
H115 H 0.25803 0.72329 0.5509 0.0
H116 H 0.1875 0.71819 0.56754 0.0
H117 H 0.21221 0.70476 0.48582 0.0
C118 C 0.39269 0.76807 0.67667 0.0
N119 N 0.3931 0.73737 0.62156 0.0
N120 N 0.35314 0.70313 0.62475 0.0
C121 C 0.32667 0.71063 0.68227 0.0
C122 C 0.35034 0.75256 0.71657 0.0
C123 C 0.43321 0.81005 0.69297 0.0
H124 H 0.4732 0.798 0.67477 0.0
H125 H 0.42138 0.84811 0.66919 0.0
H126 H 0.43532 0.8169 0.74712 0.0
O127 O 0.47062 0.66125 0.53374 0.0
O128 O 0.402 0.60519 0.54078 0.0
H129 H 0.28383 0.63677 0.6915 0.0
H130 H 0.27018 0.68373 0.75661 0.0
C131 C 0.27831 0.67961 0.70313 0.0
H132 H 0.24278 0.69473 0.67631 0.0
H133 H 0.29887 0.54375 0.59828 0.0
O134 O 0.49546 0.78802 0.54896 0.0
C135 C 0.45212 0.61357 0.53443 0.0
Co136 Co 0.80991 0.10293 0.12178 0.0
Co137 Co 0.88502 0.20242 0.11987 0.0
C138 C 0.80529 0.18959 0.22729 0.0
O139 O 0.78661 0.14714 0.20086 0.0
O140 O 0.84576 0.21309 0.20277 0.0
C141 C 0.70698 0.05101 0.10491 0.0
O142 O 0.68783 0.09914 0.09489 0.0
C143 C 0.91744 0.31583 0.12238 0.0
C144 C 0.96784 0.32014 1.03343 0.0
C145 C 0.94294 0.35165 0.08059 0.0
N146 N 0.92584 0.26582 0.10009 0.0
N147 N 0.95787 0.26869 1.04837 0.0
C148 C 0.87933 0.32945 0.17688 0.0
H149 H 0.84013 0.30994 0.16842 0.0
H150 H 0.87307 0.37305 0.18198 0.0
H151 H 0.89607 0.314 0.22383 0.0
C152 C 0.78136 0.14589 0.98662 0.0
N153 N 0.80886 0.14646 1.0443 0.0
N154 N 0.83361 0.19241 0.05023 0.0
C155 C 0.81776 0.22479 1.00094 0.0
C156 C 0.78561 0.19618 0.95652 0.0
C157 C 0.75543 0.09676 0.95914 0.0
H158 H 0.77122 0.06057 0.98398 0.0
H159 H 0.7116 0.09874 0.96699 0.0
H160 H 0.76308 0.09366 0.90528 0.0
O161 O 0.88253 0.06996 0.13311 0.0
O162 O 0.93646 0.14011 0.12657 0.0
H163 H 0.86294 0.29501 0.98017 0.0
H164 H 0.79117 0.30535 0.97991 0.0
C165 C 0.82475 0.28406 1.0042 0.0
H166 H 0.82573 0.29723 0.05619 0.0
H167 H 0.96869 0.23588 1.0195 0.0
O168 O 0.75676 0.04437 0.11529 0.0
C169 C 0.9296 0.08974 0.13232 0.0
Co170 Co 0.93147 0.80974 0.6162 0.0
Co171 Co 0.83268 0.88598 0.61652 0.0
C172 C 0.84482 0.80353 0.72163 0.0
O173 O 0.88793 0.78619 0.69549 0.0
O174 O 0.82069 0.844 0.69777 0.0
C175 C 0.99278 0.71161 0.63215 0.0
O176 O 0.96133 0.70082 0.68225 0.0
C177 C 0.72043 0.92237 0.6179 0.0
C178 C 0.71839 0.97195 0.52815 0.0
C179 C 0.68561 0.94818 0.57483 0.0
N180 N 0.77091 0.92917 0.59645 0.0
N181 N 0.76947 0.96084 0.54433 0.0
C182 C 0.70561 0.88507 0.67259 0.0
H183 H 0.72109 0.8445 0.66209 0.0
H184 H 0.66186 0.88267 0.68042 0.0
H185 H 0.72476 0.89954 0.71872 0.0
C186 C 0.88695 0.78208 0.48351 0.0
N187 N 0.88694 0.81075 0.54007 0.0
N188 N 0.84134 0.83607 0.54557 0.0
C189 C 0.80855 0.8199 0.49655 0.0
C190 C 0.83659 0.78628 0.45333 0.0
C191 C 0.93562 0.75415 0.45803 0.0
H192 H 0.97225 0.77319 0.47816 0.0
H193 H 0.9348 0.71175 0.47387 0.0
H194 H 0.9373 0.75607 0.40333 0.0
O195 O 0.96651 0.88101 0.62836 0.0
O196 O 0.89664 0.93554 0.62475 0.0
H197 H 0.73969 0.86619 0.47304 0.0
H198 H 0.72726 0.79487 0.47579 0.0
C199 C 0.74941 0.82847 0.49885 0.0
H200 H 0.73603 0.83129 0.55059 0.0
H201 H 0.8029 0.97041 0.51589 0.0
O202 O 0.98734 0.75527 0.60079 0.0
C203 C 0.94714 0.92816 0.62924 0.0
Co204 Co 0.23543 0.93172 0.12388 0.0
Co205 Co 0.15801 0.83518 0.11413 0.0
C206 C 0.24013 0.8441 0.22401 0.0
O207 O 0.25774 0.88817 0.20166 0.0
O208 O 0.2008 0.8208 0.19614 0.0
C209 C 0.33757 0.98462 0.12861 0.0
O210 O 0.35751 0.93665 0.13732 0.0
C211 C 0.14283 0.7219 0.10047 0.0
C212 C 0.06083 0.71284 0.06136 0.0
C213 C 0.10656 0.6845 0.07767 0.0
N214 N 0.12002 0.77029 0.09799 0.0
N215 N 0.07051 0.76468 0.07576 0.0
C216 C 0.19993 0.7124 0.12002 0.0
H217 H 0.22504 0.74728 0.10669 0.0
H218 H 0.21631 0.67587 0.09659 0.0
H219 H 0.20192 0.70712 0.17435 0.0
C220 C 0.27087 0.8891 0.99132 0.0
N221 N 0.23884 0.88919 1.04523 0.0
N222 N 0.20499 0.84899 1.04076 0.0
C223 C 0.21422 0.82267 0.9836 0.0
C224 C 0.25687 0.84626 0.95105 0.0
C225 C 0.31622 0.92708 0.98058 0.0
H226 H 0.30422 0.96794 0.9955 0.0
H227 H 0.35078 0.91442 1.01115 0.0
H228 H 0.32918 0.92759 0.9283 0.0
O229 O 0.16168 0.96461 0.13351 0.0
O230 O 0.10624 0.89563 0.12583 0.0
H231 H 0.18544 0.77265 0.90423 0.0
H232 H 0.19841 0.73931 0.98097 0.0
C233 C 0.18231 0.7763 0.95875 0.0
H234 H 0.13968 0.78095 0.97216 0.0
H235 H 0.0443 0.7964 0.06739 0.0
O236 O 0.28752 0.99097 0.12045 0.0
C237 C 0.11413 0.94573 0.13253 0.0
Co238 Co 0.10775 0.23216 0.62016 0.0
Co239 Co 0.2043 0.1542 0.61218 0.0
C240 C 0.19427 0.23541 0.72237 0.0
O241 O 0.15102 0.25424 0.69872 0.0
O242 O 0.21707 0.19579 0.69497 0.0
C243 C 0.05549 0.33491 0.61859 0.0
O244 O 0.10402 0.35485 0.62145 0.0
C245 C 0.3182 0.13898 0.60576 0.0
C246 C 0.32882 0.05891 0.56218 0.0
C247 C 0.35659 0.10362 0.58363 0.0
N248 N 0.26982 0.11657 0.59828 0.0
N249 N 0.27633 0.06811 0.57345 0.0
C250 C 0.32702 0.1954 0.62823 0.0
H251 H 0.29306 0.22106 0.61284 0.0
H252 H 0.36488 0.2121 0.6086 0.0
H253 H 0.32954 0.19598 0.6829 0.0
C254 C 0.15065 0.26564 0.4871 0.0
N255 N 0.15101 0.23498 0.54212 0.0
N256 N 0.19158 0.20148 0.53871 0.0
C257 C 0.21782 0.20967 0.48122 0.0
C258 C 0.19322 0.25103 0.44709 0.0
C259 C 0.10926 0.30675 0.471 0.0
H260 H 0.06967 0.29419 0.48996 0.0
H261 H 0.12072 0.34525 0.49413 0.0
H262 H 0.10651 0.31304 0.41682 0.0
O263 O 0.07461 0.15861 0.62976 0.0
O264 O 0.14333 0.10276 0.62218 0.0
H265 H 0.26293 0.13741 0.47047 0.0
H266 H 0.27698 0.18655 0.40804 0.0
C267 C 0.26746 0.18068 0.46091 0.0
H268 H 0.30153 0.19627 0.49008 0.0
H269 H 0.24493 0.0425 0.56104 0.0
O270 O 0.04855 0.28461 0.61608 0.0
C271 C 0.09318 0.11101 0.62869 0.0
C272 C 0.36572 0.07285 0.17076 0.0
C273 C 0.3727 0.03127 0.12532 0.0
H274 H 0.38411 0.1538 0.19562 0.0
C275 C 0.40839 0.0376 0.07247 0.0
H276 H 0.33827 0.06851 0.21178 0.0
C277 C 0.43351 0.0869 0.06221 0.0
C278 C 0.42394 0.12945 0.1057 0.0
H279 H 0.41383 1.00584 1.0367 0.0
H280 H 0.45759 0.09275 1.01838 0.0
C281 C 0.39189 0.12139 0.16158 0.0
C282 C 1.00131 0.40711 0.56608 0.0
C283 C 1.00872 0.37019 0.61742 0.0
H284 H 0.94585 0.45987 0.51754 0.0
C285 C 0.96876 0.36359 0.66503 0.0
H286 H 0.03186 0.4125 0.52879 0.0
C287 C 0.92088 0.39173 0.6599 0.0
C288 C 0.91141 0.42541 0.60573 0.0
H289 H 0.97402 0.33549 0.7052 0.0
H290 H 0.89007 0.38458 0.69627 0.0
C291 C 0.95249 0.4342 0.5598 0.0
C292 C 0.67677 0.96493 0.15201 0.0
C293 C 0.67156 1.00418 0.10319 0.0
H294 H 0.65443 0.887 0.18439 0.0
C295 C 0.63553 0.99617 0.05073 0.0
H296 H 0.70397 0.9706 0.19319 0.0
C297 C 0.6082 0.94749 1.04462 0.0
C298 C 0.6156 0.9072 0.09195 0.0
H299 H 0.63109 0.02609 1.0125 0.0
H300 H 0.58342 0.9403 1.00154 0.0
C301 C 0.64829 0.91726 0.14705 0.0
C302 C 0.0604 0.64163 0.66143 0.0
C303 C 0.03666 0.67517 0.61409 0.0
H304 H 0.12827 0.59278 0.68555 0.0
C305 C 0.05802 0.67698 0.55007 0.0
H306 H 0.04437 0.63918 0.71101 0.0
C307 C 0.1049 0.64952 0.53522 0.0
C308 C 0.13187 0.62083 0.58453 0.0
H309 H 0.03987 0.70152 0.51217 0.0
H310 H 0.12218 0.65391 0.48649 0.0
C311 C 0.10803 0.61473 0.64677 0.0
C312 C 0.86294 0.46472 1.0103 0.0
C313 C 0.86896 0.50402 0.05909 0.0
H314 H 0.8845 0.38669 0.97731 0.0
C315 C 0.90562 0.4959 0.11083 0.0
H316 H 0.83529 0.47045 0.96962 0.0
C317 C 0.93283 0.44713 0.11626 0.0
C318 C 0.92467 0.40685 0.06896 0.0
H319 H 0.91072 0.52584 0.14902 0.0
H320 H 0.95819 0.43991 0.15878 0.0
C321 C 0.89126 0.41695 1.0146 0.0
C322 C 0.54125 0.90921 0.6018 0.0
C323 C 0.53358 0.8744 0.54819 0.0
H324 H 0.59668 0.96074 0.65261 0.0
C325 C 0.57275 0.87064 0.49915 0.0
H326 H 0.51126 0.91245 0.64016 0.0
C327 C 0.62031 0.89928 0.50511 0.0
C328 C 0.63028 0.93056 0.56147 0.0
H329 H 0.56724 0.84421 0.45724 0.0
H330 H 0.65061 0.89419 0.46757 0.0
C331 C 0.58973 0.93685 0.60877 0.0
C332 C 0.17871 0.5728 0.99421 0.0
C333 C 0.1701 0.53088 1.03858 0.0
H334 H 0.16194 0.65413 0.97011 0.0
C335 C 0.13328 0.53717 0.09027 0.0
H336 H 0.20698 0.56849 0.95403 0.0
C337 C 0.10864 0.58672 0.10059 0.0
C338 C 0.11988 0.62959 0.05832 0.0
H339 H 0.12656 0.50513 0.12521 0.0
H340 H 0.08357 0.59246 0.1436 0.0
C341 C 0.15304 0.62158 1.0034 0.0
C342 C 0.42128 0.15171 0.51373 0.0
C343 C 0.41202 0.11815 0.56789 0.0
H344 H 0.47471 0.20725 0.46807 0.0
C345 C 0.45336 0.10846 0.61328 0.0
H346 H 0.38976 0.15971 0.47835 0.0
C347 C 0.50258 0.1347 0.6065 0.0
C348 C 0.50994 0.17189 0.55543 0.0
H349 H 0.44653 0.08325 0.65588 0.0
H350 H 0.53331 0.12887 0.64362 0.0
C351 C 0.46959 0.17902 0.50809 0.0
C352 C 0.57162 0.49749 1.02439 0.0
C353 C 0.56447 0.5533 1.02501 0.0
H354 H 0.535 0.42008 1.02568 0.0
C355 C 0.51174 0.57318 1.02512 0.0
H356 H 0.61143 0.48043 1.0243 0.0
C357 C 0.46761 0.53832 1.02569 0.0
C358 C 0.47485 0.4825 1.02644 0.0
H359 H 0.50444 0.61581 1.02557 0.0
H360 H 0.42776 0.55525 1.02664 0.0
C361 C 0.52757 0.46269 1.02523 0.0
C362 C 0.57995 0.52921 0.52998 0.0
C363 C 0.55958 0.47672 0.52883 0.0
H364 H 0.56263 0.61324 0.53226 0.0
C365 C 0.50362 0.47007 0.52717 0.0
H366 H 0.62272 0.53613 0.53129 0.0
C367 C 0.46915 0.51429 0.52795 0.0
C368 C 0.4894 0.56677 0.53017 0.0
H369 H 0.48615 0.43048 0.52627 0.0
H370 H 0.42641 0.50714 0.52751 0.0
C371 C 0.54538 0.57358 0.5305 0.0
C372 C 0.07403 0.03869 0.13643 0.0
C373 C 0.0671 0.98282 0.13622 0.0
H374 H 0.03682 0.11597 0.13533 0.0
C375 C 1.01444 0.96274 0.13697 0.0
H376 H 0.1138 0.05585 0.13578 0.0
C377 C 0.9702 0.9973 0.1369 0.0
C378 C 0.97706 0.05316 0.1358 0.0
H379 H 1.00722 0.92009 0.13687 0.0
H380 H 0.93047 0.98003 0.13672 0.0
C381 C 0.02971 0.07331 0.13609 0.0
C382 C 0.96462 0.02786 0.63354 0.0
C383 C 0.9843 0.97514 0.63274 0.0
H384 H 0.98292 0.11163 0.63328 0.0
C385 C 0.0402 0.96779 0.63295 0.0
H386 H 0.92195 0.03534 0.6334 0.0
C387 C 0.07526 1.01164 0.6327 0.0
C388 C 0.05563 0.06437 0.63244 0.0
H389 H 0.05711 0.92799 0.63233 0.0
H390 H 0.11791 1.00406 0.63196 0.0
C391 C 0.99974 0.07178 0.63351 0.0
C392 C 0.24004 0.27 0.27075 0.0
C393 C 0.25722 0.32346 0.27126 0.0
H394 H 0.20536 0.2055 0.32575 0.0
C395 C 0.24984 0.35404 0.32875 0.0
H396 H 0.24491 0.24566 0.22689 0.0
C397 C 0.22702 0.33102 0.38527 0.0
C398 C 0.21176 0.27698 0.38532 0.0
H399 H 0.2634 0.39509 0.33074 0.0
H400 H 0.22317 0.35484 0.42972 0.0
C401 C 0.21743 0.24705 0.32713 0.0
C402 C 0.78697 0.2599 0.86046 0.0
C403 C 0.76283 0.21626 0.89215 0.0
H404 H 0.781 0.32083 0.78906 0.0
C405 C 0.71696 0.19408 0.86198 0.0
H406 H 0.82412 0.27674 0.87785 0.0
C407 C 0.69708 0.21454 0.80192 0.0
C408 C 0.71987 0.26039 0.77286 0.0
H409 H 0.69591 0.16111 0.88417 0.0
H410 H 0.66404 0.19396 0.77891 0.0
C411 C 0.76366 0.28378 0.80554 0.0
C412 C 0.77296 0.78506 0.35663 0.0
C413 C 0.81618 0.76159 0.39019 0.0
H414 H 0.7134 0.77791 0.28316 0.0
C415 C 0.83819 0.7147 0.36272 0.0
H416 H 0.75592 0.82249 0.37238 0.0
C417 C 0.81906 0.69399 0.30243 0.0
C418 C 0.77427 0.71672 0.27069 0.0
H419 H 0.87017 0.69354 0.38713 0.0
H420 H 0.83995 0.66045 0.28131 0.0
C421 C 0.75008 0.76084 0.30152 0.0
C422 C 0.29216 0.85496 0.83493 0.0
C423 C 0.28536 0.82448 0.89251 0.0
H424 H 0.31858 0.85583 0.73387 0.0
C425 C 0.30324 0.77127 0.89301 0.0
H426 H 0.2781 0.89582 0.83296 0.0
C427 C 0.32609 0.74847 0.8366 0.0
C428 C 0.33119 0.77828 0.77832 0.0
H429 H 0.29883 0.74702 0.93695 0.0
H430 H 0.33892 0.70717 0.8381 0.0
C431 C 0.31513 0.83208 0.77835 0.0
C432 C 0.74112 0.76088 0.84727 0.0
C433 C 0.76435 0.71589 0.87708 0.0
H434 H 0.74855 0.82422 0.77856 0.0
C435 C 0.81534 0.69951 0.85544 0.0
H436 H 0.70179 0.77449 0.86147 0.0
C437 C 0.84228 0.72802 0.80555 0.0
C438 C 0.819 0.7738 0.77694 0.0
H439 H 0.83468 0.66517 0.87749 0.0
H440 H 0.88125 0.7143 0.7896 0.0
C441 C 0.76816 0.78962 0.79893 0.0
C442 C 0.27664 0.74262 0.35674 0.0
C443 C 0.32388 0.76427 0.38381 0.0
H444 H 0.21299 0.75084 0.28655 0.0
C445 C 0.34294 0.81293 0.35827 0.0
H446 H 0.26057 0.7053 0.37501 0.0
C447 C 0.31541 0.83924 0.3073 0.0
C448 C 0.26807 0.81761 0.28042 0.0
H449 H 0.37892 0.83107 0.37805 0.0
H450 H 0.33149 0.87647 0.28874 0.0
C451 C 0.24915 0.7689 0.30591 0.0
C452 C 0.20166 0.31107 0.80444 0.0
C453 C 0.22081 0.26216 0.77961 0.0
H454 H 0.21255 0.37505 0.87369 0.0
C455 C 0.26752 0.24045 0.80776 0.0
H456 H 0.16602 0.32923 0.78383 0.0
C457 C 0.29454 0.26701 0.85883 0.0
C458 C 0.27555 0.31598 0.88357 0.0
H459 H 0.28347 0.20283 0.79026 0.0
H460 H 0.33036 0.24893 0.87899 0.0
C461 C 0.22866 0.33762 0.85572 0.0
C462 C 0.80119 0.26021 0.3144 0.0
C463 C 0.77757 0.21558 0.284 0.0
H464 H 0.79414 0.32334 0.38382 0.0
C465 C 0.72635 0.19958 0.30519 0.0
H466 H 0.84073 0.27346 0.30054 0.0
C467 C 0.6995 0.22816 0.35512 0.0
C468 C 0.72313 0.27361 0.38432 0.0
H469 H 0.70673 0.16553 0.28268 0.0
H470 H 0.66031 0.21474 0.37068 0.0
C471 C 0.77426 0.289 0.36291 0.0
loop_
_geom_bond_atom_site_label_1
_geom_bond_atom_site_label_2
_geom_bond_distance
_geom_bond_site_symmetry_2
_ccdc_geom_bond_type
Co0 O3 1.970 1_554 S
Co0 N17 1.989 . S
Co0 O25 1.967 1_554 S
Co0 O32 1.920 . S
Co1 O4 1.966 1_554 S
Co1 N10 2.022 . S
Co1 N18 1.993 . S
Co1 O26 1.941 1_554 S
C2 O3 1.258 . S
C2 O4 1.263 . S
O3 Co0 1.970 1_556 S
O3 C2 1.258 . S
O4 Co1 1.966 1_556 S
O4 C2 1.263 . S
C5 O6 1.235 . S
C5 O32 1.289 . S
O6 C5 1.235 . S
C7 C9 1.400 1_556 S
C7 N10 1.351 1_556 S
C7 C12 1.501 . S
C8 C9 1.387 . S
C8 N11 1.341 . S
C9 C7 1.400 1_554 S
C9 C8 1.387 . S
N10 Co1 2.022 . S
N10 C7 1.351 1_554 S
N10 N11 1.365 . S
N11 C8 1.341 . S
N11 N10 1.365 . S
N11 H31 0.862 . S
C12 C7 1.501 . S
C12 H13 0.961 . S
C12 H14 0.961 . S
C12 H15 0.960 . S
H13 C12 0.961 . S
H14 C12 0.961 . S
H15 C12 0.960 . S
C16 N17 1.342 . S
C16 C20 1.401 . S
C16 C21 1.499 . S
N17 Co0 1.989 . S
N17 C16 1.342 . S
N17 N18 1.388 . S
N18 Co1 1.993 . S
N18 N17 1.388 . S
N18 C19 1.346 . S
C19 N18 1.346 . S
C19 C20 1.396 . S
C19 C29 1.510 . S
C20 C16 1.401 . S
C20 C19 1.396 . S
C21 C16 1.499 . S
C21 H22 0.959 . S
C21 H23 0.960 . S
C21 H24 0.961 . S
H22 C21 0.959 . S
H23 C21 0.960 . S
H24 C21 0.961 . S
O25 Co0 1.967 1_556 S
O25 C33 1.258 . S
O26 Co1 1.941 1_556 S
O26 C33 1.266 . S
H27 C29 0.959 . S
H28 C29 0.961 . S
C29 C19 1.510 . S
C29 H27 0.959 . S
C29 H28 0.961 . S
C29 H30 0.960 . S
H30 C29 0.960 . S
H31 N11 0.862 . S
O32 Co0 1.920 . S
O32 C5 1.289 . S
C33 O25 1.258 . S
C33 O26 1.266 . S
Co34 O37 1.970 . S
Co34 N51 1.989 . S
Co34 O59 1.967 . S
Co34 O66 1.920 . S
Co35 O38 1.966 . S
Co35 N44 2.022 . S
Co35 N52 1.993 . S
Co35 O60 1.941 . S
C36 O37 1.258 . S
C36 O38 1.263 . S
O37 Co34 1.970 . S
O37 C36 1.258 . S
O38 Co35 1.966 . S
O38 C36 1.263 . S
C39 O40 1.235 . S
C39 O66 1.289 . S
O40 C39 1.235 . S
C41 C43 1.400 . S
C41 N44 1.351 . S
C41 C46 1.501 . S
C42 C43 1.387 . S
C42 N45 1.341 . S
C43 C41 1.400 . S
C43 C42 1.387 . S
N44 Co35 2.022 . S
N44 C41 1.351 . S
N44 N45 1.365 . S
N45 C42 1.341 . S
N45 N44 1.365 . S
N45 H65 0.862 . S
C46 C41 1.501 . S
C46 H47 0.961 . S
C46 H48 0.961 . S
C46 H49 0.960 . S
H47 C46 0.961 . S
H48 C46 0.961 . S
H49 C46 0.960 . S
C50 N51 1.342 . S
C50 C54 1.401 . S
C50 C55 1.499 . S
N51 Co34 1.989 . S
N51 C50 1.342 . S
N51 N52 1.388 . S
N52 Co35 1.993 . S
N52 N51 1.388 . S
N52 C53 1.346 . S
C53 N52 1.346 . S
C53 C54 1.396 . S
C53 C63 1.510 . S
C54 C50 1.401 . S
C54 C53 1.396 . S
C55 C50 1.499 . S
C55 H56 0.959 . S
C55 H57 0.960 . S
C55 H58 0.961 . S
H56 C55 0.959 . S
H57 C55 0.960 . S
H58 C55 0.961 . S
O59 Co34 1.967 . S
O59 C67 1.258 . S
O60 Co35 1.941 . S
O60 C67 1.266 . S
H61 C63 0.959 . S
H62 C63 0.961 . S
C63 C53 1.510 . S
C63 H61 0.959 . S
C63 H62 0.961 . S
C63 H64 0.960 . S
H64 C63 0.960 . S
H65 N45 0.862 . S
O66 Co34 1.920 . S
O66 C39 1.289 . S
C67 O59 1.258 . S
C67 O60 1.266 . S
Co68 O71 1.970 1_554 S
Co68 N85 1.989 . S
Co68 O93 1.967 1_554 S
Co68 O100 1.920 . S
Co69 O72 1.966 1_554 S
Co69 N78 2.022 . S
Co69 N86 1.993 . S
Co69 O94 1.941 1_554 S
C70 O71 1.258 . S
C70 O72 1.263 . S
O71 Co68 1.970 1_556 S
O71 C70 1.258 . S
O72 Co69 1.966 1_556 S
O72 C70 1.263 . S
C73 O74 1.235 . S
C73 O100 1.289 . S
O74 C73 1.235 . S
C75 C77 1.400 1_556 S
C75 N78 1.351 1_556 S
C75 C80 1.501 . S
C76 C77 1.387 . S
C76 N79 1.341 . S
C77 C75 1.400 1_554 S
C77 C76 1.387 . S
N78 Co69 2.022 . S
N78 C75 1.351 1_554 S
N78 N79 1.365 . S
N79 C76 1.341 . S
N79 N78 1.365 . S
N79 H99 0.862 . S
C80 C75 1.501 . S
C80 H81 0.961 . S
C80 H82 0.961 . S
C80 H83 0.960 . S
H81 C80 0.961 . S
H82 C80 0.961 . S
H83 C80 0.960 . S
C84 N85 1.342 . S
C84 C88 1.401 . S
C84 C89 1.499 . S
N85 Co68 1.989 . S
N85 C84 1.342 . S
N85 N86 1.388 . S
N86 Co69 1.993 . S
N86 N85 1.388 . S
N86 C87 1.346 . S
C87 N86 1.346 . S
C87 C88 1.396 . S
C87 C97 1.510 . S
C88 C84 1.401 . S
C88 C87 1.396 . S
C89 C84 1.499 . S
C89 H90 0.959 . S
C89 H91 0.960 . S
C89 H92 0.961 . S
H90 C89 0.959 . S
H91 C89 0.960 . S
H92 C89 0.961 . S
O93 Co68 1.967 1_556 S
O93 C101 1.258 . S
O94 Co69 1.941 1_556 S
O94 C101 1.266 . S
H95 C97 0.959 . S
H96 C97 0.961 . S
C97 C87 1.510 . S
C97 H95 0.959 . S
C97 H96 0.961 . S
C97 H98 0.960 . S
H98 C97 0.960 . S
H99 N79 0.862 . S
O100 Co68 1.920 . S
O100 C73 1.289 . S
C101 O93 1.258 . S
C101 O94 1.266 . S
Co102 O105 1.970 . S
Co102 N119 1.989 . S
Co102 O127 1.967 . S
Co102 O134 1.920 . S
Co103 O106 1.966 . S
Co103 N112 2.022 . S
Co103 N120 1.993 . S
Co103 O128 1.941 . S
C104 O105 1.258 . S
C104 O106 1.263 . S
O105 Co102 1.970 . S
O105 C104 1.258 . S
O106 Co103 1.966 . S
O106 C104 1.263 . S
C107 O108 1.235 . S
C107 O134 1.289 . S
O108 C107 1.235 . S
C109 C111 1.400 . S
C109 N112 1.351 . S
C109 C114 1.501 . S
C110 C111 1.387 . S
C110 N113 1.341 . S
C111 C109 1.400 . S
C111 C110 1.387 . S
N112 Co103 2.022 . S
N112 C109 1.351 . S
N112 N113 1.365 . S
N113 C110 1.341 . S
N113 N112 1.365 . S
N113 H133 0.862 . S
C114 C109 1.501 . S
C114 H115 0.961 . S
C114 H116 0.961 . S
C114 H117 0.960 . S
H115 C114 0.961 . S
H116 C114 0.961 . S
H117 C114 0.960 . S
C118 N119 1.342 . S
C118 C122 1.401 . S
C118 C123 1.499 . S
N119 Co102 1.989 . S
N119 C118 1.342 . S
N119 N120 1.388 . S
N120 Co103 1.993 . S
N120 N119 1.388 . S
N120 C121 1.346 . S
C121 N120 1.346 . S
C121 C122 1.396 . S
C121 C131 1.510 . S
C122 C118 1.401 . S
C122 C121 1.396 . S
C123 C118 1.499 . S
C123 H124 0.959 . S
C123 H125 0.960 . S
C123 H126 0.961 . S
H124 C123 0.959 . S
H125 C123 0.960 . S
H126 C123 0.961 . S
O127 Co102 1.967 . S
O127 C135 1.258 . S
O128 Co103 1.941 . S
O128 C135 1.266 . S
H129 C131 0.959 . S
H130 C131 0.961 . S
C131 C121 1.510 . S
C131 H129 0.959 . S
C131 H130 0.961 . S
C131 H132 0.960 . S
H132 C131 0.960 . S
H133 N113 0.862 . S
O134 Co102 1.920 . S
O134 C107 1.289 . S
C135 O127 1.258 . S
C135 O128 1.266 . S
Co136 O139 1.970 . S
Co136 N153 1.989 1_554 S
Co136 O161 1.967 . S
Co136 O168 1.920 1_545 S
Co137 O140 1.966 . S
Co137 N146 2.022 . S
Co137 N154 1.993 1_554 S
Co137 O162 1.941 . S
C138 O139 1.258 . S
C138 O140 1.263 . S
O139 Co136 1.970 . S
O139 C138 1.258 . S
O140 Co137 1.966 . S
O140 C138 1.263 . S
C141 O142 1.235 . S
C141 O168 1.289 . S
O142 C141 1.235 . S
C143 C145 1.400 . S
C143 N146 1.351 . S
C143 C148 1.501 . S
C144 C145 1.390 . S
C144 N147 1.341 . S
C145 C143 1.400 . S
C145 C144 1.390 . S
N146 Co137 2.022 . S
N146 C143 1.351 . S
N146 N147 1.365 . S
N147 C144 1.341 . S
N147 N146 1.365 . S
N147 H167 0.862 1_554 S
C148 C143 1.501 . S
C148 H149 0.961 . S
C148 H150 0.961 . S
C148 H151 0.960 . S
H149 C148 0.961 . S
H150 C148 0.961 . S
H151 C148 0.960 . S
C152 N153 1.342 . S
C152 C156 1.401 . S
C152 C157 1.499 . S
N153 Co136 1.989 1_556 S
N153 C152 1.342 . S
N153 N154 1.388 . S
N154 Co137 1.993 1_556 S
N154 N153 1.388 . S
N154 C155 1.346 . S
C155 N154 1.346 . S
C155 C156 1.396 . S
C155 C165 1.510 . S
C156 C152 1.401 . S
C156 C155 1.396 . S
C157 C152 1.499 . S
C157 H158 0.959 1_545 S
C157 H159 0.960 . S
C157 H160 0.961 . S
H158 C157 0.959 1_565 S
H159 C157 0.960 . S
H160 C157 0.961 . S
O161 Co136 1.967 . S
O161 C169 1.258 . S
O162 Co137 1.941 . S
O162 C169 1.266 . S
H163 C165 0.959 . S
H164 C165 0.961 . S
C165 C155 1.510 . S
C165 H163 0.959 . S
C165 H164 0.961 . S
C165 H166 0.960 . S
H166 C165 0.960 . S
H167 N147 0.862 1_556 S
O168 Co136 1.920 1_565 S
O168 C141 1.289 . S
C169 O161 1.258 . S
C169 O162 1.266 . S
Co170 O173 1.970 . S
Co170 N187 1.989 . S
Co170 O195 1.967 . S
Co170 O202 1.920 1_655 S
Co171 O174 1.966 . S
Co171 N180 2.022 . S
Co171 N188 1.993 . S
Co171 O196 1.941 . S
C172 O173 1.258 . S
C172 O174 1.263 . S
O173 Co170 1.970 . S
O173 C172 1.258 . S
O174 Co171 1.966 . S
O174 C172 1.263 . S
C175 O176 1.235 . S
C175 O202 1.289 . S
O176 C175 1.235 . S
C177 C179 1.400 . S
C177 N180 1.351 . S
C177 C182 1.501 . S
C178 C179 1.387 . S
C178 N181 1.341 . S
C179 C177 1.400 . S
C179 C178 1.387 . S
N180 Co171 2.022 . S
N180 C177 1.351 . S
N180 N181 1.365 . S
N181 C178 1.341 . S
N181 N180 1.365 . S
N181 H201 0.862 . S
C182 C177 1.501 . S
C182 H183 0.961 . S
C182 H184 0.961 . S
C182 H185 0.960 . S
H183 C182 0.961 . S
H184 C182 0.961 . S
H185 C182 0.960 . S
C186 N187 1.342 . S
C186 C190 1.401 . S
C186 C191 1.499 . S
N187 Co170 1.989 . S
N187 C186 1.342 . S
N187 N188 1.388 . S
N188 Co171 1.993 . S
N188 N187 1.388 . S
N188 C189 1.346 . S
C189 N188 1.346 . S
C189 C190 1.396 . S
C189 C199 1.510 . S
C190 C186 1.401 . S
C190 C189 1.396 . S
C191 C186 1.499 . S
C191 H192 0.959 1_655 S
C191 H193 0.960 . S
C191 H194 0.961 . S
H192 C191 0.959 1_455 S
H193 C191 0.960 . S
H194 C191 0.961 . S
O195 Co170 1.967 . S
O195 C203 1.258 . S
O196 Co171 1.941 . S
O196 C203 1.266 . S
H197 C199 0.959 . S
H198 C199 0.961 . S
C199 C189 1.510 . S
C199 H197 0.959 . S
C199 H198 0.961 . S
C199 H200 0.960 . S
H200 C199 0.960 . S
H201 N181 0.862 . S
O202 Co170 1.920 1_455 S
O202 C175 1.289 . S
C203 O195 1.258 . S
C203 O196 1.266 . S
Co204 O207 1.970 . S
Co204 N221 1.989 1_554 S
Co204 O229 1.967 . S
Co204 O236 1.920 1_565 S
Co205 O208 1.966 . S
Co205 N214 2.022 . S
Co205 N222 1.993 1_554 S
Co205 O230 1.941 . S
C206 O207 1.258 . S
C206 O208 1.263 . S
O207 Co204 1.970 . S
O207 C206 1.258 . S
O208 Co205 1.966 . S
O208 C206 1.263 . S
C209 O210 1.235 . S
C209 O236 1.289 . S
O210 C209 1.235 . S
C211 C213 1.400 . S
C211 N214 1.351 . S
C211 C216 1.501 . S
C212 C213 1.390 . S
C212 N215 1.341 . S
C213 C211 1.400 . S
C213 C212 1.390 . S
N214 Co205 2.022 . S
N214 C211 1.351 . S
N214 N215 1.365 . S
N215 C212 1.341 . S
N215 N214 1.365 . S
N215 H235 0.862 1_554 S
C216 C211 1.501 . S
C216 H217 0.961 . S
C216 H218 0.961 . S
C216 H219 0.960 . S
H217 C216 0.961 . S
H218 C216 0.961 . S
H219 C216 0.960 . S
C220 N221 1.342 . S
C220 C224 1.401 . S
C220 C225 1.499 . S
N221 Co204 1.989 1_556 S
N221 C220 1.342 . S
N221 N222 1.388 . S
N222 Co205 1.993 1_556 S
N222 N221 1.388 . S
N222 C223 1.346 . S
C223 N222 1.346 . S
C223 C224 1.396 . S
C223 C233 1.510 . S
C224 C220 1.401 . S
C224 C223 1.396 . S
C225 C220 1.499 . S
C225 H226 0.959 1_565 S
C225 H227 0.960 . S
C225 H228 0.961 . S
H226 C225 0.959 1_545 S
H227 C225 0.960 . S
H228 C225 0.961 . S
O229 Co204 1.967 . S
O229 C237 1.258 . S
O230 Co205 1.941 . S
O230 C237 1.266 . S
H231 C233 0.959 . S
H232 C233 0.961 . S
C233 C223 1.510 . S
C233 H231 0.959 . S
C233 H232 0.961 . S
C233 H234 0.960 . S
H234 C233 0.960 . S
H235 N215 0.862 1_556 S
O236 Co204 1.920 1_545 S
O236 C209 1.289 . S
C237 O229 1.258 . S
C237 O230 1.266 . S
Co238 O241 1.970 . S
Co238 N255 1.989 . S
Co238 O263 1.967 . S
Co238 O270 1.920 1_455 S
Co239 O242 1.966 . S
Co239 N248 2.022 . S
Co239 N256 1.993 . S
Co239 O264 1.941 . S
C240 O241 1.258 . S
C240 O242 1.263 . S
O241 Co238 1.970 . S
O241 C240 1.258 . S
O242 Co239 1.966 . S
O242 C240 1.263 . S
C243 O244 1.235 . S
C243 O270 1.289 . S
O244 C243 1.235 . S
C245 C247 1.400 . S
C245 N248 1.351 . S
C245 C250 1.501 . S
C246 C247 1.387 . S
C246 N249 1.341 . S
C247 C245 1.400 . S
C247 C246 1.387 . S
N248 Co239 2.022 . S
N248 C245 1.351 . S
N248 N249 1.365 . S
N249 C246 1.341 . S
N249 N248 1.365 . S
N249 H269 0.862 . S
C250 C245 1.501 . S
C250 H251 0.961 . S
C250 H252 0.961 . S
C250 H253 0.960 . S
H251 C250 0.961 . S
H252 C250 0.961 . S
H253 C250 0.960 . S
C254 N255 1.342 . S
C254 C258 1.401 . S
C254 C259 1.499 . S
N255 Co238 1.989 . S
N255 C254 1.342 . S
N255 N256 1.388 . S
N256 Co239 1.993 . S
N256 N255 1.388 . S
N256 C257 1.346 . S
C257 N256 1.346 . S
C257 C258 1.396 . S
C257 C267 1.510 . S
C258 C254 1.401 . S
C258 C257 1.396 . S
C259 C254 1.499 . S
C259 H260 0.959 1_455 S
C259 H261 0.960 . S
C259 H262 0.961 . S
H260 C259 0.959 1_655 S
H261 C259 0.960 . S
H262 C259 0.961 . S
O263 Co238 1.967 . S
O263 C271 1.258 . S
O264 Co239 1.941 . S
O264 C271 1.266 . S
H265 C267 0.959 . S
H266 C267 0.961 . S
C267 C257 1.510 . S
C267 H265 0.959 . S
C267 H266 0.961 . S
C267 H268 0.960 . S
H268 C267 0.960 . S
H269 N249 0.862 . S
O270 Co238 1.920 1_655 S
O270 C243 1.289 . S
C271 O263 1.258 . S
C271 O264 1.266 . S
C272 C273 1.387 . S
C272 H276 0.950 . S
C272 C281 1.390 . S
C273 C272 1.387 . S
C273 C275 1.387 1_554 S
H274 C281 0.950 . S
C275 C273 1.387 1_556 S
C275 C277 1.390 . S
C275 H279 0.950 . S
H276 C272 0.950 . S
C277 C275 1.390 . S
C277 C278 1.387 1_556 S
C277 H280 0.950 . S
C278 C277 1.387 1_554 S
C278 C281 1.387 . S
H279 C275 0.950 . S
H280 C277 0.950 . S
C281 C272 1.390 . S
C281 H274 0.950 . S
C281 C278 1.387 . S
C282 C283 1.387 . S
C282 H286 0.950 . S
C282 C291 1.390 . S
C283 C282 1.387 . S
C283 C285 1.387 . S
H284 C291 0.950 . S
C285 C283 1.387 . S
C285 C287 1.390 . S
C285 H289 0.950 . S
H286 C282 0.950 . S
C287 C285 1.390 . S
C287 C288 1.387 . S
C287 H290 0.950 . S
C288 C287 1.387 . S
C288 C291 1.387 . S
H289 C285 0.950 . S
H290 C287 0.950 . S
C291 C282 1.390 . S
C291 H284 0.950 . S
C291 C288 1.387 . S
C292 C293 1.387 . S
C292 H296 0.950 . S
C292 C301 1.390 . S
C293 C292 1.387 . S
C293 C295 1.387 1_554 S
H294 C301 0.950 . S
C295 C293 1.387 1_556 S
C295 C297 1.390 . S
C295 H299 0.950 . S
H296 C292 0.950 . S
C297 C295 1.390 . S
C297 C298 1.387 1_556 S
C297 H300 0.950 . S
C298 C297 1.387 1_554 S
C298 C301 1.387 . S
H299 C295 0.950 . S
H300 C297 0.950 . S
C301 C292 1.390 . S
C301 H294 0.950 . S
C301 C298 1.387 . S
C302 C303 1.387 . S
C302 H306 0.950 . S
C302 C311 1.390 . S
C303 C302 1.387 . S
C303 C305 1.387 . S
H304 C311 0.950 . S
C305 C303 1.387 . S
C305 C307 1.390 . S
C305 H309 0.950 . S
H306 C302 0.950 . S
C307 C305 1.390 . S
C307 C308 1.387 . S
C307 H310 0.950 . S
C308 C307 1.387 . S
C308 C311 1.387 . S
H309 C305 0.950 . S
H310 C307 0.950 . S
C311 C302 1.390 . S
C311 H304 0.950 . S
C311 C308 1.387 . S
C312 C313 1.387 1_556 S
C312 H316 0.950 . S
C312 C321 1.390 . S
C313 C312 1.387 1_554 S
C313 C315 1.387 . S
H314 C321 0.950 . S
C315 C313 1.387 . S
C315 C317 1.390 . S
C315 H319 0.950 . S
H316 C312 0.950 . S
C317 C315 1.390 . S
C317 C318 1.387 . S
C317 H320 0.950 . S
C318 C317 1.387 . S
C318 C321 1.387 1_554 S
H319 C315 0.950 . S
H320 C317 0.950 . S
C321 C312 1.390 . S
C321 H314 0.950 . S
C321 C318 1.387 1_556 S
C322 C323 1.387 . S
C322 H326 0.950 . S
C322 C331 1.390 . S
C323 C322 1.387 . S
C323 C325 1.387 . S
H324 C331 0.950 . S
C325 C323 1.387 . S
C325 C327 1.390 . S
C325 H329 0.950 . S
H326 C322 0.950 . S
C327 C325 1.390 . S
C327 C328 1.387 . S
C327 H330 0.950 . S
C328 C327 1.387 . S
C328 C331 1.387 . S
H329 C325 0.950 . S
H330 C327 0.950 . S
C331 C322 1.390 . S
C331 H324 0.950 . S
C331 C328 1.387 . S
C332 C333 1.387 1_556 S
C332 H336 0.950 . S
C332 C341 1.390 . S
C333 C332 1.387 1_554 S
C333 C335 1.387 . S
H334 C341 0.950 . S
C335 C333 1.387 . S
C335 C337 1.390 . S
C335 H339 0.950 . S
H336 C332 0.950 . S
C337 C335 1.390 . S
C337 C338 1.387 . S
C337 H340 0.950 . S
C338 C337 1.387 . S
C338 C341 1.387 1_554 S
H339 C335 0.950 . S
H340 C337 0.950 . S
C341 C332 1.390 . S
C341 H334 0.950 . S
C341 C338 1.387 1_556 S
C342 C343 1.387 . S
C342 H346 0.950 . S
C342 C351 1.390 . S
C343 C342 1.387 . S
C343 C345 1.387 . S
H344 C351 0.950 . S
C345 C343 1.387 . S
C345 C347 1.390 . S
C345 H349 0.950 . S
H346 C342 0.950 . S
C347 C345 1.390 . S
C347 C348 1.387 . S
C347 H350 0.950 . S
C348 C347 1.387 . S
C348 C351 1.387 . S
H349 C345 0.950 . S
H350 C347 0.950 . S
C351 C342 1.390 . S
C351 H344 0.950 . S
C351 C348 1.387 . S
C352 C353 1.387 1_554 S
C352 H356 0.950 . S
C352 C361 1.390 . S
C353 C352 1.387 1_556 S
C353 C355 1.387 . S
H354 C361 0.950 . S
C355 C353 1.387 . S
C355 C357 1.390 . S
C355 H359 0.950 . S
H356 C352 0.950 . S
C357 C355 1.390 . S
C357 C358 1.387 . S
C357 H360 0.950 . S
C358 C357 1.387 . S
C358 C361 1.387 1_556 S
H359 C355 0.950 . S
H360 C357 0.950 . S
C361 C352 1.390 . S
C361 H354 0.950 . S
C361 C358 1.387 1_554 S
C362 C363 1.387 . S
C362 H366 0.950 . S
C362 C371 1.390 . S
C363 C362 1.387 . S
C363 C365 1.387 . S
H364 C371 0.950 . S
C365 C363 1.387 . S
C365 C367 1.390 . S
C365 H369 0.950 . S
H366 C362 0.950 . S
C367 C365 1.390 . S
C367 C368 1.387 . S
C367 H370 0.950 . S
C368 C367 1.387 . S
C368 C371 1.387 . S
H369 C365 0.950 . S
H370 C367 0.950 . S
C371 C362 1.390 . S
C371 H364 0.950 . S
C371 C368 1.387 . S
C372 C373 1.387 . S
C372 H376 0.950 . S
C372 C381 1.390 1_465 S
C373 C372 1.387 . S
C373 C375 1.387 . S
H374 C381 0.950 . S
C375 C373 1.387 . S
C375 C377 1.390 1_465 S
C375 H379 0.950 1_554 S
H376 C372 0.950 . S
C377 C375 1.390 1_645 S
C377 C378 1.387 . S
C377 H380 0.950 1_554 S
C378 C377 1.387 . S
C378 C381 1.387 . S
H379 C375 0.950 1_556 S
H380 C377 0.950 1_556 S
C381 C372 1.390 1_645 S
C381 H374 0.950 . S
C381 C378 1.387 . S
C382 C383 1.387 . S
C382 H386 0.950 . S
C382 C391 1.390 1_665 S
C383 C382 1.387 . S
C383 C385 1.387 . S
H384 C391 0.950 . S
C385 C383 1.387 . S
C385 C387 1.390 1_665 S
C385 H389 0.950 . S
H386 C382 0.950 . S
C387 C385 1.390 1_445 S
C387 C388 1.387 . S
C387 H390 0.950 . S
C388 C387 1.387 . S
C388 C391 1.387 . S
H389 C385 0.950 . S
H390 C387 0.950 . S
C391 C382 1.390 1_445 S
C391 H384 0.950 . S
C391 C388 1.387 . S
C392 C393 1.387 . S
C392 H396 0.950 . S
C392 C401 1.390 . S
C393 C392 1.387 . S
C393 C395 1.387 . S
H394 C401 0.950 . S
C395 C393 1.387 . S
C395 C397 1.390 . S
C395 H399 0.950 . S
H396 C392 0.950 . S
C397 C395 1.390 . S
C397 C398 1.387 . S
C397 H400 0.950 . S
C398 C397 1.387 . S
C398 C401 1.387 . S
H399 C395 0.950 . S
H400 C397 0.950 . S
C401 C392 1.390 . S
C401 H394 0.950 . S
C401 C398 1.387 . S
C402 C403 1.387 . S
C402 H406 0.950 . S
C402 C411 1.390 . S
C403 C402 1.387 . S
C403 C405 1.387 . S
H404 C411 0.950 . S
C405 C403 1.387 . S
C405 C407 1.390 . S
C405 H409 0.950 . S
H406 C402 0.950 . S
C407 C405 1.390 . S
C407 C408 1.387 . S
C407 H410 0.950 . S
C408 C407 1.387 . S
C408 C411 1.387 . S
H409 C405 0.950 . S
H410 C407 0.950 . S
C411 C402 1.390 . S
C411 H404 0.950 . S
C411 C408 1.387 . S
C412 C413 1.387 . S
C412 H416 0.950 . S
C412 C421 1.390 . S
C413 C412 1.387 . S
C413 C415 1.387 . S
H414 C421 0.950 . S
C415 C413 1.387 . S
C415 C417 1.390 . S
C415 H419 0.950 . S
H416 C412 0.950 . S
C417 C415 1.390 . S
C417 C418 1.387 . S
C417 H420 0.950 . S
C418 C417 1.387 . S
C418 C421 1.387 . S
H419 C415 0.950 . S
H420 C417 0.950 . S
C421 C412 1.390 . S
C421 H414 0.950 . S
C421 C418 1.387 . S
C422 C423 1.387 . S
C422 H426 0.950 . S
C422 C431 1.390 . S
C423 C422 1.387 . S
C423 C425 1.387 . S
H424 C431 0.950 . S
C425 C423 1.387 . S
C425 C427 1.390 . S
C425 H429 0.950 . S
H426 C422 0.950 . S
C427 C425 1.390 . S
C427 C428 1.387 . S
C427 H430 0.950 . S
C428 C427 1.387 . S
C428 C431 1.387 . S
H429 C425 0.950 . S
H430 C427 0.950 . S
C431 C422 1.390 . S
C431 H424 0.950 . S
C431 C428 1.387 . S
C432 C433 1.387 . S
C432 H436 0.950 . S
C432 C441 1.390 . S
C433 C432 1.387 . S
C433 C435 1.387 . S
H434 C441 0.950 . S
C435 C433 1.387 . S
C435 C437 1.390 . S
C435 H439 0.950 . S
H436 C432 0.950 . S
C437 C435 1.390 . S
C437 C438 1.387 . S
C437 H440 0.950 . S
C438 C437 1.387 . S
C438 C441 1.387 . S
H439 C435 0.950 . S
H440 C437 0.950 . S
C441 C432 1.390 . S
C441 H434 0.950 . S
C441 C438 1.387 . S
C442 C443 1.387 . S
C442 H446 0.950 . S
C442 C451 1.390 . S
C443 C442 1.387 . S
C443 C445 1.387 . S
H444 C451 0.950 . S
C445 C443 1.387 . S
C445 C447 1.390 . S
C445 H449 0.950 . S
H446 C442 0.950 . S
C447 C445 1.390 . S
C447 C448 1.387 . S
C447 H450 0.950 . S
C448 C447 1.387 . S
C448 C451 1.387 . S
H449 C445 0.950 . S
H450 C447 0.950 . S
C451 C442 1.390 . S
C451 H444 0.950 . S
C451 C448 1.387 . S
C452 C453 1.387 . S
C452 H456 0.950 . S
C452 C461 1.390 . S
C453 C452 1.387 . S
C453 C455 1.387 . S
H454 C461 0.950 . S
C455 C453 1.387 . S
C455 C457 1.390 . S
C455 H459 0.950 . S
H456 C452 0.950 . S
C457 C455 1.390 . S
C457 C458 1.387 . S
C457 H460 0.950 . S
C458 C457 1.387 . S
C458 C461 1.387 . S
H459 C455 0.950 . S
H460 C457 0.950 . S
C461 C452 1.390 . S
C461 H454 0.950 . S
C461 C458 1.387 . S
C462 C463 1.387 . S
C462 H466 0.950 . S
C462 C471 1.390 . S
C463 C462 1.387 . S
C463 C465 1.387 . S
H464 C471 0.950 . S
C465 C463 1.387 . S
C465 C467 1.390 . S
C465 H469 0.950 . S
H466 C462 0.950 . S
C467 C465 1.390 . S
C467 C468 1.387 . S
C467 H470 0.950 . S
C468 C467 1.387 . S
C468 C471 1.387 . S
H469 C465 0.950 . S
H470 C467 0.950 . S
C471 C462 1.390 . S
C471 H464 0.950 . S
C471 C468 1.387 . S
C273 C209 0.560 . S
C278 C9 0.663 . S
C283 C243 0.567 . S
C288 C43 0.674 . S
C293 C141 0.560 . S
C298 C77 0.664 . S
C303 C175 0.562 . S
C308 C111 0.666 . S
C313 C73 0.561 . S
C318 C145 0.664 . S
C323 C107 0.568 . S
C328 C179 0.674 . S
C333 C5 0.561 . S
C338 C213 0.665 . S
C343 C247 0.663 . S
C348 C39 0.560 . S
C353 C101 2.769 . S
C358 C33 2.769 . S
C363 C67 2.770 . S
C368 C135 2.770 . S
C373 C237 2.770 . S
C378 C169 2.770 . S
C383 C203 2.770 . S
C388 C271 2.770 . S
C393 C20 1.763 . S
C398 C258 1.762 . S
C403 C156 1.763 . S
C408 C54 1.762 . S
C413 C190 1.763 . S
C418 C88 1.762 . S
C423 C224 1.764 . S
C428 C122 1.764 . S
C433 C70 2.189 . S
C438 C172 2.190 . S
C443 C104 2.188 . S
C448 C206 2.189 . S
C453 C240 2.188 . S
C458 C2 2.188 . S
C463 C138 2.189 . S
C468 C36 2.189 . S
