# Generated by pormake.
# Topology sth, (5)-cn, num edge types: 1
# Building blocks:
#     Node 0, Type 0, BuildingBlock: XOMCOT_clean_sbu_1, # of connection points: 5
#     Node 1, Type 0, BuildingBlock: XOMCOT_clean_sbu_1, # of connection points: 5
#     Node 2, Type 0, BuildingBlock: XOMCOT_clean_sbu_1, # of connection points: 5
#     Node 3, Type 0, BuildingBlock: XOMCOT_clean_sbu_1, # of connection points: 5
#     Node 4, Type 0, BuildingBlock: XOMCOT_clean_sbu_1, # of connection points: 5
#     Node 5, Type 0, BuildingBlock: XOMCOT_clean_sbu_1, # of connection points: 5
#     Node 6, Type 0, BuildingBlock: XOMCOT_clean_sbu_1, # of connection points: 5
#     Node 7, Type 0, BuildingBlock: XOMCOT_clean_sbu_1, # of connection points: 5
#     Node 8, Type 0, BuildingBlock: XOMCOT_clean_sbu_1, # of connection points: 5
#     Node 9, Type 0, BuildingBlock: XOMCOT_clean_sbu_1, # of connection points: 5
#     Node 10, Type 0, BuildingBlock: XOMCOT_clean_sbu_1, # of connection points: 5
#     Node 11, Type 0, BuildingBlock: XOMCOT_clean_sbu_1, # of connection points: 5
#     Node 12, Type 0, BuildingBlock: XOMCOT_clean_sbu_1, # of connection points: 5
#     Node 13, Type 0, BuildingBlock: XOMCOT_clean_sbu_1, # of connection points: 5
#     Node 14, Type 0, BuildingBlock: XOMCOT_clean_sbu_1, # of connection points: 5
#     Node 15, Type 0, BuildingBlock: XOMCOT_clean_sbu_1, # of connection points: 5
#     Node 16, Type 0, BuildingBlock: XOMCOT_clean_sbu_1, # of connection points: 5
#     Node 17, Type 0, BuildingBlock: XOMCOT_clean_sbu_1, # of connection points: 5
#     Edge 18, Type (0, 0), BuildingBlock: TEMPAE_clean_linker_10, # of connection points: 2
#     Edge 19, Type (0, 0), BuildingBlock: TEMPAE_clean_linker_10, # of connection points: 2
#     Edge 20, Type (0, 0), BuildingBlock: TEMPAE_clean_linker_10, # of connection points: 2
#     Edge 21, Type (0, 0), BuildingBlock: TEMPAE_clean_linker_10, # of connection points: 2
#     Edge 22, Type (0, 0), BuildingBlock: TEMPAE_clean_linker_10, # of connection points: 2
#     Edge 23, Type (0, 0), BuildingBlock: TEMPAE_clean_linker_10, # of connection points: 2
#     Edge 24, Type (0, 0), BuildingBlock: TEMPAE_clean_linker_10, # of connection points: 2
#     Edge 25, Type (0, 0), BuildingBlock: TEMPAE_clean_linker_10, # of connection points: 2
#     Edge 26, Type (0, 0), BuildingBlock: TEMPAE_clean_linker_10, # of connection points: 2
#     Edge 27, Type (0, 0), BuildingBlock: TEMPAE_clean_linker_10, # of connection points: 2
#     Edge 28, Type (0, 0), BuildingBlock: TEMPAE_clean_linker_10, # of connection points: 2
#     Edge 29, Type (0, 0), BuildingBlock: TEMPAE_clean_linker_10, # of connection points: 2
#     Edge 30, Type (0, 0), BuildingBlock: TEMPAE_clean_linker_10, # of connection points: 2
#     Edge 31, Type (0, 0), BuildingBlock: TEMPAE_clean_linker_10, # of connection points: 2
#     Edge 32, Type (0, 0), BuildingBlock: TEMPAE_clean_linker_10, # of connection points: 2
#     Edge 33, Type (0, 0), BuildingBlock: TEMPAE_clean_linker_10, # of connection points: 2
#     Edge 34, Type (0, 0), BuildingBlock: TEMPAE_clean_linker_10, # of connection points: 2
#     Edge 35, Type (0, 0), BuildingBlock: TEMPAE_clean_linker_10, # of connection points: 2
#     Edge 36, Type (0, 0), BuildingBlock: TEMPAE_clean_linker_10, # of connection points: 2
#     Edge 37, Type (0, 0), BuildingBlock: TEMPAE_clean_linker_10, # of connection points: 2
#     Edge 38, Type (0, 0), BuildingBlock: TEMPAE_clean_linker_10, # of connection points: 2
#     Edge 39, Type (0, 0), BuildingBlock: TEMPAE_clean_linker_10, # of connection points: 2
#     Edge 40, Type (0, 0), BuildingBlock: TEMPAE_clean_linker_10, # of connection points: 2
#     Edge 41, Type (0, 0), BuildingBlock: TEMPAE_clean_linker_10, # of connection points: 2
#     Edge 42, Type (0, 0), BuildingBlock: TEMPAE_clean_linker_10, # of connection points: 2
#     Edge 43, Type (0, 0), BuildingBlock: TEMPAE_clean_linker_10, # of connection points: 2
#     Edge 44, Type (0, 0), BuildingBlock: TEMPAE_clean_linker_10, # of connection points: 2
#     Edge 45, Type (0, 0), BuildingBlock: TEMPAE_clean_linker_10, # of connection points: 2
#     Edge 46, Type (0, 0), BuildingBlock: TEMPAE_clean_linker_10, # of connection points: 2
#     Edge 47, Type (0, 0), BuildingBlock: TEMPAE_clean_linker_10, # of connection points: 2
#     Edge 48, Type (0, 0), BuildingBlock: TEMPAE_clean_linker_10, # of connection points: 2
#     Edge 49, Type (0, 0), BuildingBlock: TEMPAE_clean_linker_10, # of connection points: 2
#     Edge 50, Type (0, 0), BuildingBlock: TEMPAE_clean_linker_10, # of connection points: 2
#     Edge 51, Type (0, 0), BuildingBlock: TEMPAE_clean_linker_10, # of connection points: 2
#     Edge 52, Type (0, 0), BuildingBlock: TEMPAE_clean_linker_10, # of connection points: 2
#     Edge 53, Type (0, 0), BuildingBlock: TEMPAE_clean_linker_10, # of connection points: 2
#     Edge 54, Type (0, 0), BuildingBlock: TEMPAE_clean_linker_10, # of connection points: 2
#     Edge 55, Type (0, 0), BuildingBlock: TEMPAE_clean_linker_10, # of connection points: 2
#     Edge 56, Type (0, 0), BuildingBlock: TEMPAE_clean_linker_10, # of connection points: 2
#     Edge 57, Type (0, 0), BuildingBlock: TEMPAE_clean_linker_10, # of connection points: 2
#     Edge 58, Type (0, 0), BuildingBlock: TEMPAE_clean_linker_10, # of connection points: 2
#     Edge 59, Type (0, 0), BuildingBlock: TEMPAE_clean_linker_10, # of connection points: 2
#     Edge 60, Type (0, 0), BuildingBlock: TEMPAE_clean_linker_10, # of connection points: 2
#     Edge 61, Type (0, 0), BuildingBlock: TEMPAE_clean_linker_10, # of connection points: 2
#     Edge 62, Type (0, 0), BuildingBlock: TEMPAE_clean_linker_10, # of connection points: 2
# Relax obj value: 0.162
# Max RMSD: 0.183
# Mean RMSD: 0.183
data_MOF--net-sth--node1-XOMCOT_clean_sbu_1--edge1-TEMPAE_clean_linker_10
_symmetry_space_group_name_H-M    P1
_symmetry_Int_Tables_number       1
_symmetry_cell_setting            triclinic
loop_
_symmetry_equiv_pos_as_xyz
'x, y, z'
_cell_length_a     42.034255
_cell_length_b     42.010522
_cell_length_c     77.329155
_cell_angle_alpha  90.059471
_cell_angle_beta   90.032718
_cell_angle_gamma 120.05387
loop_
_atom_site_label
_atom_site_type_symbol
_atom_site_fract_x
_atom_site_fract_y
_atom_site_fract_z
_atom_type_partial_charge
C0 C 0.17572 0.34068 0.21057 0.0
C1 C 0.21038 0.36496 0.20448 0.0
N2 N 0.22843 0.34647 0.2017 0.0
N3 N 0.17156 0.30675 0.21177 0.0
C4 C 0.20426 0.31126 0.20622 0.0
H5 H 0.15477 0.34744 0.21377 0.0
Co6 Co 0.1289 0.26359 0.21953 0.0
C7 C 0.0656 0.27524 0.21032 0.0
O8 O 0.04738 0.25634 0.22398 0.0
N9 N 0.08676 0.21949 0.22699 0.0
C10 C 0.05111 0.16761 0.24128 0.0
C11 C 0.08198 0.20184 0.24217 0.0
C12 C 0.05845 0.19482 0.21701 0.0
N13 N 0.03609 0.16293 0.2254 0.0
O14 O 0.1298 0.23683 0.19952 0.0
H15 H 0.10068 0.21185 0.25298 0.0
H16 H 0.05507 0.19993 0.20362 0.0
O17 O 0.09772 0.27999 0.20731 0.0
C18 C 0.14743 0.22084 0.20422 0.0
O19 O 0.16299 0.22857 0.21956 0.0
N20 N 0.13053 0.28791 0.24061 0.0
C21 C 0.13507 0.31103 0.27499 0.0
C22 C 0.11783 0.32124 0.26236 0.0
C23 C 0.11592 0.30945 0.24514 0.0
C24 C 0.15036 0.28102 0.25245 0.0
C25 C 0.15222 0.29145 0.26973 0.0
H26 H 0.10272 0.31778 0.23569 0.0
H27 H 0.1633 0.26545 0.2486 0.0
H28 H 0.21053 0.2893 0.20558 0.0
H29 H 0.2211 0.39388 0.2019 0.0
H30 H 0.04175 0.14711 0.25139 0.0
H31 H 0.10512 0.33728 0.26586 0.0
H32 H 0.16666 0.28387 0.27897 0.0
C33 C 0.69479 0.87498 0.22623 0.0
C34 C 0.67191 0.88482 0.21819 0.0
N35 N 0.68356 0.89484 0.20189 0.0
N36 N 0.72108 0.87803 0.21511 0.0
C37 C 0.71336 0.89048 0.2003 0.0
H38 H 0.69259 0.86754 0.23969 0.0
Co39 Co 0.76229 0.87114 0.22042 0.0
C40 C 0.73918 0.79433 0.2095 0.0
O41 O 0.75698 0.79265 0.2231 0.0
N42 N 0.80422 0.86542 0.22539 0.0
C43 C 0.84869 0.86007 0.23847 0.0
C44 C 0.81567 0.85866 0.24062 0.0
C45 C 0.831 0.86982 0.21409 0.0
N46 N 0.85879 0.86762 0.22181 0.0
O47 O 0.78966 0.90198 0.20106 0.0
H48 H 0.80133 0.85246 0.25276 0.0
H49 H 0.83053 0.87517 0.20046 0.0
O50 O 0.73888 0.82432 0.20648 0.0
C51 C 0.8026 0.93516 0.20633 0.0
O52 O 0.79003 0.94051 0.22095 0.0
N53 N 0.73907 0.84701 0.24127 0.0
C54 C 0.71403 0.82847 0.27557 0.0
C55 C 0.69685 0.80323 0.26185 0.0
C56 C 0.70976 0.81302 0.24475 0.0
C57 C 0.75441 0.87235 0.25418 0.0
C58 C 0.74351 0.86336 0.2713 0.0
H59 H 0.69532 0.79384 0.23442 0.0
H60 H 0.77669 0.89963 0.25116 0.0
H61 H 0.72965 0.89695 0.18864 0.0
H62 H 0.64938 0.8862 0.22421 0.0
H63 H 0.864 0.8556 0.24849 0.0
H64 H 0.67311 0.77642 0.26412 0.0
H65 H 0.75884 0.88395 0.28101 0.0
C66 C 0.12125 0.82744 0.2337 0.0
C67 C 0.1076 0.79195 0.22808 0.0
N68 N 0.11486 0.79251 0.21109 0.0
N69 N 0.13788 0.85092 0.22047 0.0
C70 C 0.13313 0.82871 0.20674 0.0
H71 H 0.11788 0.83552 0.24654 0.0
Co72 Co 0.15548 0.90225 0.22184 0.0
C73 C 0.23447 0.93376 0.2114 0.0
O74 O 0.24406 0.94994 0.22652 0.0
N75 N 0.17229 0.95436 0.22299 0.0
C76 C 0.19883 0.01353 0.23082 0.0
C77 C 0.19765 0.98069 0.23353 0.0
C78 C 0.15912 0.97287 0.21378 0.0
N79 N 0.17439 1.00856 0.21842 0.0
O80 O 0.12595 0.89785 0.20167 0.0
H81 H 0.21386 0.97664 0.24316 0.0
H82 H 0.13795 0.9605 0.20414 0.0
O83 O 0.20016 0.91342 0.2076 0.0
C84 C 0.09386 0.88558 0.2082 0.0
O85 O 0.08994 0.87957 0.22495 0.0
N86 N 0.17804 0.90375 0.24343 0.0
C87 C 0.19431 0.8978 0.27822 0.0
C88 C 0.20829 0.88591 0.26461 0.0
C89 C 0.19959 0.88885 0.24731 0.0
C90 C 0.16296 0.91369 0.25648 0.0
C91 C 0.17189 0.91248 0.27372 0.0
H92 H 0.20886 0.87781 0.23711 0.0
H93 H 0.14356 0.92267 0.25347 0.0
H94 H 0.14194 0.83884 0.19375 0.0
H95 H 0.09187 0.76744 0.23579 0.0
H96 H 0.21611 0.03904 0.23762 0.0
H97 H 0.22458 0.87308 0.26723 0.0
H98 H 0.1606 0.92265 0.28338 0.0
C99 C 0.34065 0.17617 0.79862 0.0
C100 C 0.36421 0.21147 0.80416 0.0
N101 N 0.3444 0.22772 0.80797 0.0
N102 N 0.3058 0.16971 0.7988 0.0
C103 C 0.30902 0.20174 0.80464 0.0
H104 H 0.34853 0.15637 0.79472 0.0
Co105 Co 0.26394 0.1247 0.792 0.0
C106 C 0.27532 0.06494 0.80866 0.0
O107 O 0.24751 0.03833 0.80033 0.0
N108 N 0.22146 0.08007 0.78529 0.0
C109 C 0.17579 0.03612 0.76991 0.0
C110 C 0.20987 0.0673 0.76915 0.0
C111 C 0.19339 0.05631 0.79559 0.0
N112 N 0.16514 0.02918 0.7866 0.0
O113 O 0.23552 0.1283 0.8107 0.0
H114 H 0.22465 0.08015 0.75741 0.0
H115 H 0.19346 0.05943 0.80947 0.0
O116 O 0.28327 0.09842 0.80638 0.0
C117 C 0.21826 0.14286 0.80369 0.0
O118 O 0.22724 0.15545 0.78784 0.0
N119 N 0.28927 0.12337 0.7721 0.0
C120 C 0.31332 0.12312 0.7383 0.0
C121 C 0.31291 0.09868 0.75087 0.0
C122 C 0.3007 0.09917 0.76773 0.0
C123 C 0.29087 0.14815 0.76028 0.0
C124 C 0.30261 0.14846 0.74339 0.0
H125 H 0.29928 0.07922 0.77687 0.0
H126 H 0.28117 0.16675 0.76381 0.0
H127 H 0.286 0.20617 0.8063 0.0
H128 H 0.39367 0.22391 0.80563 0.0
H129 H 0.16017 0.02003 0.75888 0.0
H130 H 0.32136 0.07892 0.74765 0.0
H131 H 0.30168 0.16744 0.73423 0.0
C132 C 0.82311 0.12632 0.77591 0.0
C133 C 0.78746 0.11022 0.78175 0.0
N134 N 0.78785 0.10972 0.79914 0.0
N135 N 0.84635 0.13631 0.78951 0.0
C136 C 0.82384 0.12557 0.80355 0.0
H137 H 0.83127 0.12896 0.7625 0.0
Co138 Co 0.89766 0.15279 0.78819 0.0
C139 C 0.89649 0.21498 0.8086 0.0
O140 O 0.86246 0.20454 0.8042 0.0
N141 N 0.94837 0.16879 0.78718 0.0
C142 C 1.00904 0.20574 0.78579 0.0
C143 C 0.97543 0.20346 0.7838 0.0
C144 C 0.96638 0.15057 0.79122 0.0
N145 N 1.00329 0.1725 0.79061 0.0
O146 O 0.89251 0.11991 0.8071 0.0
H147 H 0.97104 0.22604 0.78062 0.0
H148 H 0.95291 0.12188 0.79467 0.0
O149 O 0.9111 0.19613 0.80348 0.0
C150 C 0.87839 0.08844 0.79958 0.0
O151 O 0.86985 0.08662 0.78312 0.0
N152 N 0.90194 0.17934 0.76767 0.0
C153 C 0.90324 0.20202 0.73339 0.0
C154 C 0.89775 0.22045 0.7473 0.0
C155 C 0.89731 0.20874 0.76442 0.0
C156 C 0.90755 0.1615 0.75432 0.0
C157 C 0.90847 0.17237 0.73723 0.0
H158 H 0.89241 0.22283 0.77478 0.0
H159 H 0.91039 0.13777 0.75698 0.0
H160 H 0.83356 0.12791 0.81671 0.0
H161 H 0.76301 0.09904 0.77377 0.0
H162 H 0.03567 0.23031 0.78447 0.0
H163 H 0.89361 0.24353 0.74496 0.0
H164 H 0.91198 0.15668 0.72704 0.0
C165 C 0.84223 0.67968 0.80113 0.0
C166 C 0.85181 0.65555 0.80817 0.0
N167 N 0.88789 0.67416 0.81213 0.0
N168 N 0.87198 0.71375 0.80056 0.0
C169 C 0.89947 0.70936 0.80729 0.0
H170 H 0.81501 0.67279 0.79686 0.0
Co171 Co 0.87141 0.75658 0.79274 0.0
C172 C 0.79926 0.74751 0.80661 0.0
O173 O 0.80058 0.77257 0.79604 0.0
N174 N 0.87187 0.79995 0.78526 0.0
C175 C 0.87793 0.84688 0.76942 0.0
C176 C 0.87413 0.81235 0.76897 0.0
C177 C 0.87495 0.82789 0.79535 0.0
N178 N 0.87862 0.85689 0.78607 0.0
O179 O 0.90288 0.78509 0.81163 0.0
H180 H 0.87384 0.79772 0.75742 0.0
H181 H 0.87484 0.82699 0.80932 0.0
O182 O 0.82529 0.73989 0.80643 0.0
C183 C 0.93502 0.79926 0.80499 0.0
O184 O 0.93819 0.78774 0.78962 0.0
N185 N 0.84551 0.73088 0.77251 0.0
C186 C 0.82318 0.70498 0.7386 0.0
C187 C 0.7984 0.70578 0.75058 0.0
C188 C 0.81004 0.71873 0.76751 0.0
C189 C 0.8694 0.72888 0.76125 0.0
C190 C 0.85896 0.71621 0.74434 0.0
H191 H 0.79055 0.71952 0.77621 0.0
H192 H 0.89747 0.73874 0.76524 0.0
H193 H 0.9273 0.73161 0.80911 0.0
H194 H 0.83345 0.62643 0.81017 0.0
H195 H 0.87994 0.86319 0.75823 0.0
H196 H 0.77029 0.6968 0.74689 0.0
H197 H 0.87936 0.71665 0.73565 0.0
C198 C 0.86328 0.64863 0.57154 0.0
C199 C 0.89948 0.67013 0.56676 0.0
N200 N 0.90211 0.66731 0.54953 0.0
N201 N 0.84245 0.63246 0.55741 0.0
C202 C 0.86716 0.64403 0.54421 0.0
H203 H 0.85322 0.64411 0.58468 0.0
Co204 Co 0.79122 0.59601 0.55715 0.0
C205 C 0.79359 0.65922 0.53604 0.0
O206 O 0.82755 0.68303 0.54045 0.0
N207 N 0.74086 0.55957 0.55655 0.0
C208 C 0.68052 0.53407 0.55244 0.0
C209 C 0.71263 0.56627 0.55588 0.0
C210 C 0.7249 0.52271 0.55405 0.0
N211 N 0.6883 0.50676 0.55126 0.0
O212 O 0.79992 0.57065 0.53845 0.0
H213 H 0.71539 0.59318 0.55713 0.0
H214 H 0.73988 0.50804 0.55348 0.0
O215 O 0.77884 0.62595 0.54144 0.0
C216 C 0.81435 0.55384 0.54605 0.0
O217 O 0.82131 0.55956 0.5627 0.0
N218 N 0.78294 0.61649 0.57731 0.0
C219 C 0.77974 0.63858 0.61124 0.0
C220 C 0.78684 0.66252 0.59718 0.0
C221 C 0.78814 0.65088 0.58025 0.0
C222 C 0.77514 0.59276 0.59077 0.0
C223 C 0.77315 0.60306 0.60771 0.0
H224 H 0.79502 0.67015 0.56982 0.0
H225 H 0.77198 0.56595 0.58839 0.0
H226 H 0.85959 0.63535 0.53093 0.0
H227 H 0.92234 0.68551 0.57548 0.0
H228 H 0.65357 0.53098 0.55063 0.0
H229 H 0.79205 0.69022 0.59929 0.0
H230 H 0.76826 0.58379 0.61806 0.0
C231 C 0.36221 0.20294 0.56634 0.0
C232 C 0.33946 0.21371 0.55903 0.0
N233 N 0.34763 0.22052 0.54213 0.0
N234 N 0.38513 0.20234 0.55425 0.0
C235 C 0.37551 0.21339 0.53955 0.0
H236 H 0.36272 0.19779 0.57995 0.0
Co237 Co 0.42643 0.1956 0.55875 0.0
C238 C 0.40614 0.12139 0.54525 0.0
O239 O 0.42366 0.1187 0.55874 0.0
N240 N 0.46889 0.19071 0.56295 0.0
C241 C 0.51574 0.18793 0.5749 0.0
C242 C 0.48357 0.18766 0.57802 0.0
C243 C 0.49342 0.19287 0.55083 0.0
N244 N 0.52217 0.19119 0.55778 0.0
O245 O 0.45405 0.22986 0.54054 0.0
H246 H 0.47272 0.18587 0.59078 0.0
H247 H 0.49024 0.19569 0.53713 0.0
O248 O 0.40477 0.1511 0.54315 0.0
C249 C 0.46705 0.26099 0.54819 0.0
O250 O 0.45482 0.26147 0.56377 0.0
N251 N 0.40224 0.16733 0.57868 0.0
C252 C 0.37461 0.14046 0.61166 0.0
C253 C 0.35833 0.11861 0.59693 0.0
C254 C 0.37246 0.13273 0.5804 0.0
C255 C 0.41597 0.18953 0.59284 0.0
C256 C 0.40337 0.17645 0.6094 0.0
H257 H 0.35889 0.11623 0.56915 0.0
H258 H 0.43773 0.21771 0.59126 0.0
H259 H 0.38954 0.21731 0.52734 0.0
H260 H 0.31976 0.2182 0.56603 0.0
H261 H 0.53365 0.18702 0.5847 0.0
H262 H 0.33508 0.09104 0.59819 0.0
H263 H 0.41577 0.19459 0.62038 0.0
C264 C 0.84803 0.18155 0.54112 0.0
C265 C 0.83701 0.1467 0.53512 0.0
N266 N 0.80029 0.12872 0.53279 0.0
N267 N 0.81855 0.18604 0.54263 0.0
C268 C 0.78981 0.15329 0.53744 0.0
H269 H 0.87595 0.20238 0.54417 0.0
Co270 Co 0.81995 0.22936 0.55071 0.0
C271 C 0.89401 0.29228 0.53913 0.0
O272 O 0.89369 0.31329 0.55164 0.0
N273 N 0.82042 0.27233 0.5586 0.0
C274 C 0.81467 0.31316 0.57463 0.0
C275 C 0.81689 0.28158 0.5749 0.0
C276 C 0.82002 0.29877 0.54867 0.0
N277 N 0.81634 0.32396 0.55806 0.0
O278 O 0.7903 0.22848 0.53138 0.0
H279 H 0.81516 0.26612 0.58635 0.0
H280 H 0.82126 0.29879 0.5347 0.0
O281 O 0.86686 0.25931 0.53755 0.0
C282 C 0.75705 0.21204 0.53674 0.0
O283 O 0.75017 0.19672 0.5521 0.0
N284 N 0.84414 0.22756 0.57115 0.0
C285 C 0.86386 0.22258 0.60534 0.0
C286 C 0.89057 0.24507 0.59317 0.0
C287 C 0.88024 0.24687 0.57605 0.0
C288 C 0.81832 0.20398 0.58252 0.0
C289 C 0.82744 0.20119 0.59961 0.0
H290 H 0.90139 0.26407 0.56707 0.0
H291 H 0.78988 0.18852 0.5785 0.0
H292 H 0.76164 0.14731 0.53723 0.0
H293 H 0.85494 0.13576 0.53237 0.0
H294 H 0.81187 0.32688 0.58587 0.0
H295 H 0.91922 0.26129 0.59685 0.0
H296 H 0.80573 0.18351 0.60843 0.0
C297 C 1.00611 0.49875 0.13956 0.0
C298 C 0.02976 0.53365 0.14556 0.0
N299 N 1.01098 0.55168 0.14742 0.0
N300 N 0.9722 0.49425 0.13754 0.0
C301 C 0.97613 0.52712 0.14245 0.0
H302 H 1.01332 0.47785 0.13701 0.0
Co303 Co 0.93006 0.4505 0.12974 0.0
C304 C 0.94521 0.38953 0.13845 0.0
O305 O 0.92666 0.37124 0.1247 0.0
N306 N 0.88705 0.40655 0.1222 0.0
C307 C 0.84071 0.36348 0.10672 0.0
C308 C 0.8744 0.39497 0.10601 0.0
C309 C 0.86022 0.38092 0.13249 0.0
N310 N 0.83134 0.3547 0.12342 0.0
O311 O 0.90287 0.45046 0.14983 0.0
H312 H 0.88812 0.40821 0.09418 0.0
H313 H 0.86153 0.38197 0.14646 0.0
O314 O 0.94844 0.42094 0.14179 0.0
C315 C 0.88633 0.46746 0.14495 0.0
O316 O 0.89354 0.48232 0.12948 0.0
N317 N 0.9547 0.4537 0.10872 0.0
C318 C 0.97855 0.46167 0.07407 0.0
C319 C 0.99115 0.44631 0.08677 0.0
C320 C 0.97877 0.44239 0.104 0.0
C321 C 0.94505 0.47166 0.09709 0.0
C322 C 0.9553 0.47466 0.07978 0.0
H323 H 0.98884 0.43054 0.11335 0.0
H324 H 0.9268 0.48146 0.10104 0.0
H325 H 0.95399 0.53315 0.14235 0.0
H326 H 0.05844 0.5445 0.14874 0.0
H327 H 0.82449 0.34826 0.09564 0.0
H328 H 1.01046 0.43732 0.08362 0.0
H329 H 0.94359 0.48608 0.07104 0.0
C330 C 0.49992 0.46335 0.11264 0.0
C331 C 0.46539 0.45193 0.11894 0.0
N332 N 0.46715 0.45473 0.13631 0.0
N333 N 0.52423 0.47418 0.12582 0.0
C334 C 0.50325 0.46819 0.14018 0.0
H335 H 0.50636 0.46182 0.09925 0.0
Co336 Co 0.5739 0.48524 0.12328 0.0
C337 C 0.61913 0.56271 0.13512 0.0
O338 O 0.63612 0.56808 0.12029 0.0
N339 N 0.62411 0.49493 0.12097 0.0
C340 C 0.68066 0.51159 0.11154 0.0
C341 C 0.6496 0.51362 0.10858 0.0
C342 C 0.64147 0.48234 0.13147 0.0
N343 N 0.67552 0.4916 0.12588 0.0
O344 O 0.56655 0.45195 0.14215 0.0
H345 H 0.64683 0.52882 0.09802 0.0
H346 H 0.6294 0.46611 0.14293 0.0
O347 O 0.59209 0.53037 0.13858 0.0
C348 C 0.55194 0.42148 0.13374 0.0
O349 O 0.54544 0.42227 0.11716 0.0
N350 N 0.57743 0.51105 0.1026 0.0
C351 C 0.57022 0.53025 0.06856 0.0
C352 C 0.56637 0.54892 0.08291 0.0
C353 C 0.56986 0.53873 0.09987 0.0
C354 C 0.57973 0.49193 0.08887 0.0
C355 C 0.57799 0.50203 0.07195 0.0
H356 H 0.56465 0.55171 0.11073 0.0
H357 H 0.5832 0.46844 0.09109 0.0
H358 H 0.51403 0.47228 0.15321 0.0
H359 H 0.44047 0.44031 0.11129 0.0
H360 H 0.70538 0.52434 0.10377 0.0
H361 H 0.5592 0.57011 0.08116 0.0
H362 H 0.58219 0.48707 0.06167 0.0
C363 C 0.56921 0.04765 0.10729 0.0
C364 C 0.58392 0.02627 0.1122 0.0
N365 N 0.57694 0.01824 0.12913 0.0
N366 N 0.55205 0.05266 0.12088 0.0
C367 C 0.55768 0.03474 0.13411 0.0
H368 H 0.57219 0.06013 0.09472 0.0
Co369 Co 0.53366 0.08592 0.12128 0.0
C370 C 0.45699 0.02859 0.13419 0.0
O371 O 0.44342 0.02273 0.11851 0.0
N372 N 0.51656 0.12029 0.12246 0.0
C373 C 0.48096 0.14496 0.12684 0.0
C374 C 0.48149 0.11341 0.12263 0.0
C375 C 0.53686 0.15686 0.12598 0.0
N376 N 0.51579 0.1722 0.12901 0.0
O377 O 0.56571 0.1109 0.14076 0.0
H378 H 0.45746 0.08715 0.1202 0.0
H379 H 0.56645 0.17184 0.12697 0.0
O380 O 0.49128 0.05191 0.13686 0.0
C381 C 0.59745 0.13021 0.13384 0.0
O382 O 0.60025 0.12818 0.117 0.0
N383 N 0.50742 0.06534 0.09993 0.0
C384 C 0.48771 0.0446 0.06509 0.0
C385 C 0.48212 0.01833 0.07775 0.0
C386 C 0.4928 0.02932 0.09497 0.0
C387 C 0.51289 0.09105 0.08767 0.0
C388 C 0.50281 0.08128 0.0704 0.0
H389 H 0.49042 1.00893 0.10422 0.0
H390 H 0.5272 0.11993 0.09093 0.0
H391 H 0.549 0.03497 0.14726 0.0
H392 H 0.60027 0.01888 0.10413 0.0
H393 H 0.45681 0.14766 0.12833 0.0
H394 H 0.47137 0.98978 0.07425 0.0
H395 H 0.50792 0.10266 0.06114 0.0
C396 C 0.52436 0.97022 0.89647 0.0
C397 C 0.56037 0.99037 0.89117 0.0
N398 N 0.56088 0.99631 0.87403 0.0
N399 N 0.5019 0.96333 0.88278 0.0
C400 C 0.52504 0.97986 0.86927 0.0
H401 H 0.51524 0.95935 0.90932 0.0
Co402 Co 0.45081 0.92889 0.88259 0.0
C403 C 0.4304 0.96182 0.85363 0.0
O404 O 0.42815 0.93608 0.84319 0.0
N405 N 0.39999 0.89429 0.88202 0.0
C406 C 0.33976 0.8703 0.87824 0.0
C407 C 0.3724 0.90196 0.88169 0.0
C408 C 0.38314 0.85745 0.87937 0.0
N409 N 0.34659 0.84238 0.87672 0.0
O410 O 0.45756 0.90546 0.86255 0.0
H411 H 0.37591 0.92913 0.8832 0.0
H412 H 0.39749 0.84217 0.87871 0.0
O413 O 0.44109 0.96306 0.86923 0.0
C414 C 0.47139 0.88659 0.86839 0.0
O415 O 0.47833 0.88805 0.88503 0.0
N416 N 0.44501 0.94808 0.90363 0.0
C417 C 0.44795 0.97073 0.938 0.0
C418 C 0.45536 0.99538 0.92421 0.0
C419 C 0.454 0.98354 0.90703 0.0
C420 C 0.43619 0.92353 0.91679 0.0
C421 C 0.43732 0.93417 0.93398 0.0
H422 H 0.46208 1.00325 0.89662 0.0
H423 H 0.42994 0.89577 0.91395 0.0
H424 H 0.51586 0.97747 0.856 0.0
H425 H 0.58441 0.99879 0.8992 0.0
H426 H 0.31307 0.868 0.87675 0.0
H427 H 0.46397 0.02394 0.9267 0.0
H428 H 0.43087 0.91403 0.94409 0.0
C429 C 0.04635 0.55921 0.90198 0.0
C430 C 0.02607 0.57453 0.89633 0.0
N431 N 0.02283 0.5713 0.87898 0.0
N432 N 0.05554 0.54523 0.88843 0.0
C433 C 0.04079 0.55309 0.87452 0.0
H434 H 0.05536 0.55993 0.91515 0.0
Co435 Co 0.09048 0.52885 0.88956 0.0
C436 C 0.04605 0.45039 0.87823 0.0
O437 O 0.05474 0.44207 0.89314 0.0
N438 N 0.12725 0.51357 0.89029 0.0
C439 C 0.16158 0.48867 0.89768 0.0
C440 C 0.12962 0.48893 0.90077 0.0
C441 C 0.15867 0.52742 0.88075 0.0
N442 N 0.18004 0.51305 0.88513 0.0
O443 O 0.11611 0.56077 0.87023 0.0
H444 H 0.11008 0.47243 0.91059 0.0
H445 H 0.16675 0.54861 0.8711 0.0
O446 O 0.05797 0.48447 0.87456 0.0
C447 C 0.13521 0.59098 0.8786 0.0
O448 O 0.13165 0.59032 0.89552 0.0
N449 N 0.06923 0.50454 0.91085 0.0
C450 C 0.04712 0.48785 0.94577 0.0
C451 C 0.02126 0.47372 0.93208 0.0
C452 C 0.03286 0.4823 0.91473 0.0
C453 C 0.09418 0.51963 0.92394 0.0
C454 C 0.08424 0.51016 0.94113 0.0
H455 H 1.01251 0.4728 0.90453 0.0
H456 H 0.12249 0.53946 0.92102 0.0
H457 H 0.04524 0.5477 0.86132 0.0
H458 H 0.01538 0.58795 0.90449 0.0
H459 H 0.17075 0.47206 0.90435 0.0
H460 H 0.99211 0.45741 0.93456 0.0
H461 H 0.10613 0.52124 0.95056 0.0
C462 C 0.46244 0.4989 0.89683 0.0
C463 C 0.45073 0.46447 0.89029 0.0
N464 N 0.45387 0.46677 0.87296 0.0
N465 N 0.47389 0.52369 0.88384 0.0
C466 C 0.46786 0.50303 0.86934 0.0
H467 H 0.4607 0.50485 0.91027 0.0
Co468 Co 0.48623 0.57375 0.88668 0.0
C469 C 0.56498 0.61829 0.87735 0.0
O470 O 0.56871 0.63583 0.89192 0.0
N471 N 0.49722 0.6242 0.88934 0.0
C472 C 0.51186 0.67956 0.8998 0.0
C473 C 0.5122 0.64766 0.9029 0.0
C474 C 0.48915 0.64385 0.87793 0.0
N475 N 0.49695 0.67707 0.88416 0.0
O476 O 0.45775 0.56951 0.86637 0.0
H477 H 0.5238 0.64301 0.91439 0.0
H478 H 0.47711 0.63396 0.86533 0.0
O479 O 0.53306 0.59149 0.87317 0.0
C480 C 0.42464 0.55404 0.8719 0.0
O481 O 0.41825 0.543 0.88806 0.0
N482 N 0.50839 0.57502 0.90825 0.0
C483 C 0.52555 0.56893 0.94282 0.0
C484 C 0.54585 0.56591 0.92899 0.0
C485 C 0.53665 0.56875 0.91177 0.0
C486 C 0.48709 0.57555 0.9214 0.0
C487 C 0.49602 0.57423 0.93861 0.0
H488 H 0.5513 0.56459 0.90134 0.0
H489 H 0.46321 0.57794 0.91844 0.0
H490 H 0.47237 0.51414 0.85637 0.0
H491 H 0.43872 0.43926 0.89771 0.0
H492 H 0.52204 0.70298 0.90843 0.0
H493 H 0.5679 0.56022 0.93133 0.0
H494 H 0.47952 0.57738 0.94844 0.0
C495 C 0.63599 0.85167 0.44753 0.0
C496 C 0.65795 0.8871 0.45317 0.0
N497 N 0.66443 0.88648 0.47018 0.0
N498 N 0.62885 0.82809 0.46076 0.0
C499 C 0.64624 0.85026 0.47453 0.0
H500 H 0.62464 0.84376 0.43466 0.0
Co501 Co 0.59478 0.7768 0.45915 0.0
C502 C 0.63968 0.74247 0.46879 0.0
O503 O 0.6294 0.725 0.45399 0.0
N504 N 0.5588 0.72467 0.45768 0.0
C505 C 0.52368 0.66656 0.44865 0.0
C506 C 0.55549 0.69918 0.44591 0.0
C507 C 0.52834 0.70566 0.46768 0.0
N508 N 0.50627 0.67069 0.46226 0.0
O509 O 0.57023 0.78072 0.47958 0.0
H510 H 0.5744 0.70354 0.43553 0.0
H511 H 0.52169 0.71723 0.47853 0.0
O512 O 0.62849 0.76496 0.47292 0.0
C513 C 0.54989 0.7927 0.47341 0.0
O514 O 0.55148 0.79926 0.45673 0.0
N515 N 0.61545 0.77582 0.4374 0.0
C516 C 0.63753 0.78248 0.40252 0.0
C517 C 0.66324 0.79264 0.41617 0.0
C518 C 0.65167 0.7892 0.43351 0.0
C519 C 0.59072 0.76792 0.42438 0.0
C520 C 0.60063 0.76924 0.40711 0.0
H521 H 0.67196 0.79877 0.44374 0.0
H522 H 0.56263 0.76006 0.42747 0.0
H523 H 0.64467 0.84011 0.48754 0.0
H524 H 0.66694 0.91164 0.44546 0.0
H525 H 0.51393 0.64178 0.44101 0.0
H526 H 0.69228 0.80445 0.41363 0.0
H527 H 0.57905 0.76013 0.39754 0.0
C528 C 0.16263 0.79929 0.45202 0.0
C529 C 0.12933 0.78876 0.45958 0.0
N530 N 0.13227 0.78526 0.47669 0.0
N531 N 0.1875 0.80333 0.46421 0.0
C532 C 0.16782 0.79417 0.4792 0.0
H533 H 0.16736 0.80192 0.43826 0.0
Co534 Co 0.23645 0.81239 0.45977 0.0
C535 C 0.28665 0.8898 0.47071 0.0
O536 O 0.30467 0.89291 0.45638 0.0
N537 N 0.28537 0.82025 0.45557 0.0
C538 C 0.33817 0.83118 0.44345 0.0
C539 C 0.30647 0.83236 0.44115 0.0
C540 C 0.30615 0.8129 0.46661 0.0
N541 N 0.33792 0.8185 0.45941 0.0
O542 O 0.23217 0.78095 0.47901 0.0
H543 H 0.30052 0.84273 0.4296 0.0
H544 H 0.29815 0.80327 0.47969 0.0
O545 O 0.25788 0.85872 0.4742 0.0
C546 C 0.21335 0.74846 0.47269 0.0
O547 O 0.19889 0.7449 0.45724 0.0
N548 N 0.2376 0.83676 0.43895 0.0
C549 C 0.22966 0.85496 0.40483 0.0
C550 C 0.23332 0.87823 0.41883 0.0
C551 C 0.23697 0.86849 0.43587 0.0
C552 C 0.23226 0.81326 0.42566 0.0
C553 C 0.22969 0.82232 0.40863 0.0
H554 H 0.2378 0.8856 0.44649 0.0
H555 H 0.23092 0.78735 0.42833 0.0
H556 H 0.17902 0.79297 0.49162 0.0
H557 H 0.10422 0.78215 0.45279 0.0
H558 H 0.36003 0.83956 0.43407 0.0
H559 H 0.23222 0.90314 0.41677 0.0
H560 H 0.2278 0.80351 0.39859 0.0
C561 C 0.17772 0.34005 0.46663 0.0
C562 C 0.18902 0.31625 0.47234 0.0
N563 N 0.22509 0.33585 0.47617 0.0
N564 N 0.2065 0.37476 0.46665 0.0
C565 C 0.23499 0.37122 0.47264 0.0
H566 H 0.15008 0.33239 0.46275 0.0
Co567 Co 0.2054 0.41737 0.45932 0.0
C568 C 0.1299 0.40378 0.46841 0.0
O569 O 0.13126 0.42395 0.45514 0.0
N570 N 0.20544 0.4609 0.45222 0.0
C571 C 0.21126 0.50868 0.43721 0.0
C572 C 0.20866 0.47481 0.43619 0.0
C573 C 0.20614 0.4872 0.46274 0.0
N574 N 0.21011 0.51696 0.45399 0.0
O575 O 0.23253 0.44374 0.47962 0.0
H576 H 0.20975 0.46188 0.42434 0.0
H577 H 0.20453 0.4847 0.47666 0.0
O578 O 0.15725 0.39894 0.47139 0.0
C579 C 0.26617 0.46087 0.4749 0.0
O580 O 0.2743 0.4546 0.45934 0.0
N581 N 0.18368 0.39348 0.43804 0.0
C582 C 0.1671 0.36935 0.40349 0.0
C583 C 0.13901 0.35985 0.4158 0.0
C584 C 0.14785 0.37199 0.43304 0.0
C585 C 0.21113 0.40078 0.42659 0.0
C586 C 0.2036 0.38978 0.40932 0.0
H587 H 0.12576 0.36367 0.44217 0.0
H588 H 0.23941 0.41709 0.43073 0.0
H589 H 0.26267 0.39394 0.47425 0.0
H590 H 0.1718 0.28681 0.4739 0.0
H591 H 0.21398 0.52573 0.42622 0.0
H592 H 0.11039 0.343 0.41222 0.0
H593 H 0.22653 0.39842 0.40056 0.0
C594 C 0.40373 0.44156 0.14192 0.0
C595 C 0.43564 0.44198 0.14773 0.0
C596 C 0.37133 0.42588 0.15181 0.0
C597 C 0.37048 0.41036 0.16817 0.0
C598 C 0.40291 0.41172 0.17444 0.0
C599 C 0.43505 0.42745 0.16416 0.0
C600 C 0.3377 0.42535 0.14454 0.0
C601 C 0.40341 0.39586 0.19186 0.0
C602 C 0.2919 0.3984 0.19738 0.0
C603 C 0.26517 0.36137 0.19461 0.0
C604 C 0.32681 0.41418 0.18955 0.0
C605 C 0.33541 0.39265 0.17847 0.0
C606 C 0.30899 0.35493 0.17607 0.0
C607 C 0.27438 0.33974 0.18422 0.0
C608 C 0.35409 0.4543 0.19272 0.0
C609 C 0.3167 0.33092 0.16429 0.0
H610 H 0.40394 0.4533 0.12943 0.0
H611 H 0.45932 0.42732 0.16876 0.0
H612 H 0.31484 0.39654 0.14334 0.0
H613 H 0.32844 0.43976 0.15347 0.0
H614 H 0.34283 0.43863 0.13164 0.0
H615 H 0.43116 0.40073 0.19532 0.0
H616 H 0.3942 0.40807 0.20204 0.0
H617 H 0.38388 0.36579 0.19184 0.0
H618 H 0.28539 0.41522 0.20561 0.0
H619 H 0.25397 0.31124 0.18188 0.0
H620 H 0.35848 0.47003 0.18058 0.0
H621 H 0.38106 0.45782 0.19664 0.0
H622 H 0.34465 0.46638 0.20288 0.0
H623 H 0.31919 0.34068 0.15076 0.0
H624 H 0.29465 0.3016 0.16483 0.0
H625 H 0.3432 0.33287 0.16781 0.0
C626 C 0.63045 0.89723 0.18966 0.0
C627 C 0.66842 0.91019 0.18981 0.0
C628 C 0.61521 0.91415 0.17957 0.0
C629 C 0.63843 0.94527 0.16939 0.0
C630 C 0.67678 0.95808 0.16917 0.0
C631 C 0.69128 0.94026 0.17928 0.0
C632 C 0.57418 0.89897 0.18003 0.0
C633 C 0.70265 0.99124 0.15862 0.0
C634 C 0.59535 0.97098 0.13227 0.0
C635 C 0.59076 0.99907 0.13958 0.0
C636 C 0.61077 0.95339 0.14176 0.0
C637 C 0.62243 0.96425 0.15904 0.0
C638 C 0.61773 0.9925 0.16654 0.0
C639 C 0.60177 1.00936 0.15679 0.0
C640 C 0.61449 0.92304 0.13327 0.0
C641 C 0.62994 1.0052 0.18486 0.0
H642 H 0.61258 0.87383 0.19765 0.0
H643 H 0.72065 0.95074 0.17949 0.0
H644 H 0.5682 0.92002 0.18525 0.0
H645 H 0.56273 0.89224 0.16674 0.0
H646 H 0.55974 0.87384 0.18812 0.0
H647 H 0.73158 0.99746 0.15957 0.0
H648 H 0.69424 0.98674 0.14483 0.0
H649 H 0.70124 0.01562 0.16309 0.0
H650 H 0.5866 0.96256 0.11905 0.0
H651 H 0.59884 0.03131 0.16249 0.0
H652 H 0.59904 0.89723 0.14078 0.0
H653 H 0.64374 0.93024 0.1332 0.0
H654 H 0.60412 0.91776 0.11975 0.0
H655 H 0.61496 0.98193 0.19393 0.0
H656 H 0.62514 0.02792 0.18873 0.0
H657 H 0.65966 0.01472 0.18625 0.0
C658 C 1.00259 0.5989 0.16296 0.0
C659 C 0.02537 0.58871 0.15416 0.0
C660 C 0.0171 0.63375 0.17087 0.0
C661 C 0.05538 0.65927 0.16999 0.0
C662 C 0.07822 0.64969 0.16053 0.0
C663 C 0.06301 0.61473 0.15277 0.0
C664 C 0.99164 0.6427 0.18078 0.0
C665 C 0.11907 0.6759 0.15912 0.0
C666 C 0.09185 0.76002 0.18293 0.0
C667 C 0.10247 0.76029 0.20018 0.0
C668 C 0.07658 0.72751 0.17289 0.0
C669 C 0.07201 0.69448 0.18021 0.0
C670 C 0.08357 0.69496 0.19747 0.0
C671 C 0.09855 0.72766 0.20716 0.0
C672 C 0.06467 0.7283 0.15457 0.0
C673 C 0.07975 0.66072 0.20581 0.0
H674 H 0.97357 0.57914 0.16424 0.0
H675 H 0.08083 0.60762 0.14571 0.0
H676 H 0.99824 0.64478 0.19478 0.0
H677 H 0.99558 0.66972 0.17665 0.0
H678 H 0.96229 0.62148 0.17897 0.0
H679 H 0.13261 0.66559 0.1502 0.0
H680 H 0.12449 0.70315 0.15449 0.0
H681 H 0.13195 0.68007 0.17207 0.0
H682 H 0.09439 0.78492 0.17746 0.0
H683 H 0.10717 0.72767 0.22037 0.0
H684 H 0.03462 0.70935 0.1533 0.0
H685 H 0.07841 0.71849 0.14552 0.0
H686 H 0.07107 0.75628 0.15057 0.0
H687 H 0.05042 0.63879 0.20596 0.0
H688 H 0.09031 0.66569 0.2193 0.0
H689 H 0.09494 0.65025 0.19818 0.0
C690 C 0.42414 0.43446 0.84549 0.0
C691 C 0.44087 0.43551 0.86137 0.0
C692 C 0.40767 0.40219 0.83526 0.0
C693 C 0.40798 0.37024 0.841 0.0
C694 C 0.42581 0.37167 0.85677 0.0
C695 C 0.44199 0.40411 0.86666 0.0
C696 C 0.38916 0.40199 0.81851 0.0
C697 C 0.42725 0.3386 0.86341 0.0
C698 C 0.33772 0.27294 0.82612 0.0
C699 C 0.35866 0.26461 0.8148 0.0
C700 C 0.35285 0.30773 0.83415 0.0
C701 C 0.38979 0.3351 0.83074 0.0
C702 C 0.41043 0.32738 0.8187 0.0
C703 C 0.39471 0.29238 0.81095 0.0
C704 C 0.3298 0.3146 0.84691 0.0
C705 C 0.44971 0.35564 0.8145 0.0
H706 H 0.42279 0.45839 0.84137 0.0
H707 H 0.45529 0.4048 0.87877 0.0
H708 H 0.40034 0.39315 0.80771 0.0
H709 H 0.35932 0.38186 0.81934 0.0
H710 H 0.39281 0.42944 0.8154 0.0
H711 H 0.44245 0.34427 0.87583 0.0
H712 H 0.39894 0.31528 0.86535 0.0
H713 H 0.44073 0.32971 0.85374 0.0
H714 H 0.30997 0.25176 0.82927 0.0
H715 H 0.41093 0.28658 0.80197 0.0
H716 H 0.33056 0.34078 0.84386 0.0
H717 H 0.34127 0.31734 0.86011 0.0
H718 H 0.3007 0.29199 0.84698 0.0
H719 H 0.45177 0.38221 0.81099 0.0
H720 H 0.46088 0.34673 0.80369 0.0
H721 H 0.46724 0.36063 0.82606 0.0
C722 C 0.72435 0.06043 0.80546 0.0
C723 C 0.75593 0.09328 0.81032 0.0
C724 C 0.69249 0.04452 0.81578 0.0
C725 C 0.69163 0.06224 0.83124 0.0
C726 C 0.72347 0.09554 0.8362 0.0
C727 C 0.75535 0.11038 0.82581 0.0
C728 C 0.65978 1.00853 0.81017 0.0
C729 C 0.72367 0.11575 0.85238 0.0
C730 C 0.59662 0.03584 0.84938 0.0
C731 C 0.59312 0.01242 0.86305 0.0
C732 C 0.62874 0.05281 0.83914 0.0
C733 C 0.65771 0.04543 0.84233 0.0
C734 C 0.65386 0.02117 0.85594 0.0
C735 C 0.62192 1.00537 0.8662 0.0
C736 C 0.63184 0.07893 0.825 0.0
C737 C 0.68334 0.01155 0.85956 0.0
H738 H 0.72478 0.04687 0.79361 0.0
H739 H 0.77953 0.13592 0.82952 0.0
H740 H 0.65246 0.98761 0.82047 0.0
H741 H 0.6356 0.01205 0.80817 0.0
H742 H 0.66508 0.99783 0.79802 0.0
H743 H 0.75012 0.14179 0.8542 0.0
H744 H 0.70109 0.12216 0.8518 0.0
H745 H 0.71867 0.09806 0.86386 0.0
H746 H 0.57456 0.04155 0.84698 0.0
H747 H 0.61916 0.98687 0.87659 0.0
H748 H 0.63469 0.06843 0.81227 0.0
H749 H 0.65688 0.10611 0.82702 0.0
H750 H 0.60757 0.0828 0.82452 0.0
H751 H 0.68823 0.99932 0.84785 0.0
H752 H 0.67595 0.99179 0.87042 0.0
H753 H 0.7096 0.03678 0.86275 0.0
C754 C 0.99288 0.57298 0.85134 0.0
C755 C 1.00637 0.58719 0.86789 0.0
C756 C 0.97515 0.5873 0.84102 0.0
C757 C 0.97058 0.61652 0.84735 0.0
C758 C 0.98501 0.63156 0.86383 0.0
C759 C 1.00277 0.61698 0.87376 0.0
C760 C 0.96053 0.5706 0.82348 0.0
C761 C 0.98094 0.66264 0.87122 0.0
C762 C 0.94679 0.67522 0.8179 0.0
C763 C 0.90875 0.65944 0.82053 0.0
C764 C 0.96707 0.66093 0.82606 0.0
C765 C 0.94913 0.63028 0.83733 0.0
C766 C 0.91074 0.61415 0.83993 0.0
C767 C 0.89115 0.62877 0.83152 0.0
C768 C 1.00783 0.67888 0.82276 0.0
C769 C 0.89037 0.58188 0.85199 0.0
H770 H 0.99538 0.55007 0.8466 0.0
H771 H 0.01386 0.62914 0.88624 0.0
H772 H 0.9301 0.55698 0.82345 0.0
H773 H 0.97081 0.59241 0.81346 0.0
H774 H 0.96854 0.54999 0.81983 0.0
H775 H 0.99457 0.67203 0.88401 0.0
H776 H 0.99286 0.68638 0.86223 0.0
H777 H 0.95137 0.65364 0.87272 0.0
H778 H 0.96068 0.69858 0.80931 0.0
H779 H 0.86197 0.61658 0.83392 0.0
H780 H 0.01485 0.65804 0.81829 0.0
H781 H 0.02317 0.69079 0.83496 0.0
H782 H 0.0174 0.70107 0.81294 0.0
H783 H 0.89504 0.55909 0.84815 0.0
H784 H 0.86031 0.57145 0.85209 0.0
H785 H 0.90105 0.5901 0.86534 0.0
C786 C 0.73879 0.73654 0.81814 0.0
C787 C 0.76496 0.72514 0.8169 0.0
C788 C 0.70549 0.71563 0.82709 0.0
C789 C 0.69762 0.68209 0.83503 0.0
C790 C 0.72368 0.6701 0.83367 0.0
C791 C 0.75706 0.6918 0.82472 0.0
C792 C 0.67902 0.72997 0.82834 0.0
C793 C 0.71645 0.6345 0.84185 0.0
C794 C 0.63313 0.65568 0.87361 0.0
C795 C 0.59863 0.6307 0.86648 0.0
C796 C 0.66543 0.67127 0.86371 0.0
C797 C 0.66378 0.66177 0.84605 0.0
C798 C 0.62937 0.63536 0.83885 0.0
C799 C 0.59718 0.62013 0.84913 0.0
C800 C 0.70119 0.69924 0.87204 0.0
C801 C 0.62639 0.62418 0.82012 0.0
H802 H 0.7444 0.76217 0.81218 0.0
H803 H 0.77679 0.68244 0.82372 0.0
H804 H 0.65146 0.70892 0.82362 0.0
H805 H 0.67595 0.73571 0.84207 0.0
H806 H 0.6883 0.75559 0.82078 0.0
H807 H 0.73802 0.62758 0.83859 0.0
H808 H 0.7153 0.63651 0.85612 0.0
H809 H 0.68939 0.61163 0.83757 0.0
H810 H 0.63497 0.66388 0.88703 0.0
H811 H 0.57084 0.60085 0.84346 0.0
H812 H 0.71114 0.72653 0.86596 0.0
H813 H 0.72259 0.69155 0.86996 0.0
H814 H 0.69832 0.70195 0.88617 0.0
H815 H 0.63173 0.64778 0.81175 0.0
H816 H 0.59878 0.60068 0.81691 0.0
H817 H 0.64744 0.61651 0.81698 0.0
C818 C 0.40369 1.00258 0.86025 0.0
C819 C 0.41446 0.98497 0.84806 0.0
C820 C 0.38372 0.01988 0.85525 0.0
C821 C 0.37456 0.02003 0.8376 0.0
C822 C 0.38715 1.00406 0.82516 0.0
C823 C 0.40665 0.98661 0.83053 0.0
C824 C 0.37074 0.03627 0.869 0.0
C825 C 0.37857 1.00389 0.80619 0.0
C826 C 0.28705 0.01959 0.8242 0.0
C827 C 0.30038 0.05571 0.81833 0.0
C828 C 0.31066 1.00826 0.8312 0.0
C829 C 0.34892 0.03345 0.83223 0.0
C830 C 0.36246 0.07042 0.82698 0.0
C831 C 0.33802 0.08117 0.8202 0.0
C832 C 0.29471 0.96877 0.83687 0.0
C833 C 0.40299 0.09817 0.82773 0.0
H834 H 0.40939 1.00143 0.87384 0.0
H835 H 0.41499 0.97336 0.82096 0.0
H836 H 0.37717 0.06436 0.86526 0.0
H837 H 0.34045 0.01929 0.8703 0.0
H838 H 0.38342 0.03764 0.88179 0.0
H839 H 0.39328 0.99368 0.79799 0.0
H840 H 0.34859 0.98601 0.80404 0.0
H841 H 0.38614 0.032 0.80188 0.0
H842 H 0.258 0.99974 0.82294 0.0
H843 H 0.34869 0.10906 0.81562 0.0
H844 H 0.30394 0.96759 0.85017 0.0
H845 H 0.30474 0.95457 0.82822 0.0
H846 H 0.26418 0.95345 0.83658 0.0
H847 H 0.41423 0.09809 0.8407 0.0
H848 H 0.40878 0.12647 0.82481 0.0
H849 H 0.41782 0.09058 0.81822 0.0
C850 C 1.00147 0.38357 0.87381 0.0
C851 C 0.02212 0.41885 0.8665 0.0
C852 C 0.98156 0.35193 0.8636 0.0
C853 C 0.98186 0.35502 0.84538 0.0
C854 C 1.00178 0.39061 0.83781 0.0
C855 C 0.02161 0.42214 0.84845 0.0
C856 C 0.9606 0.31496 0.8724 0.0
C857 C 1.00277 0.39525 0.81845 0.0
C858 C 0.95653 0.26554 0.82113 0.0
C859 C 0.91891 0.2511 0.81775 0.0
C860 C 0.97767 0.29994 0.82943 0.0
C861 C 0.96101 0.32069 0.83456 0.0
C862 C 0.92323 0.30652 0.83089 0.0
C863 C 0.90278 0.27213 0.82261 0.0
C864 C 0.01776 0.3137 0.83309 0.0
C865 C 0.90405 0.32729 0.83613 0.0
H866 H 1.00116 0.38045 0.88773 0.0
H867 H 0.03755 0.44907 0.84262 0.0
H868 H 0.93112 0.30129 0.86876 0.0
H869 H 0.97124 0.29687 0.86806 0.0
H870 H 0.96272 0.31723 0.88672 0.0
H871 H 0.01823 0.42462 0.81455 0.0
H872 H 0.01584 0.38069 0.8124 0.0
H873 H 0.97439 0.38265 0.81326 0.0
H874 H 0.96953 0.24991 0.81734 0.0
H875 H 0.87386 0.26163 0.82003 0.0
H876 H 0.02227 0.31463 0.84726 0.0
H877 H 0.03484 0.34213 0.82813 0.0
H878 H 0.0274 0.29595 0.82714 0.0
H879 H 0.90334 0.32876 0.85044 0.0
H880 H 0.8754 0.31411 0.83119 0.0
H881 H 0.91943 0.35594 0.83126 0.0
C882 C 0.72128 0.72909 0.20242 0.0
C883 C 0.71775 0.76005 0.19888 0.0
C884 C 0.70174 0.69611 0.19301 0.0
C885 C 0.67762 0.69338 0.17956 0.0
C886 C 0.67321 0.7242 0.17609 0.0
C887 C 0.69335 0.75714 0.18572 0.0
C888 C 0.70797 0.6645 0.19713 0.0
C889 C 0.64777 0.72261 0.16194 0.0
C890 C 0.66629 0.6271 0.14319 0.0
C891 C 0.63261 0.59526 0.14702 0.0
C892 C 0.68046 0.65903 0.15339 0.0
C893 C 0.66069 0.65989 0.16801 0.0
C894 C 0.62649 0.62803 0.172 0.0
C895 C 0.61291 0.59604 0.16152 0.0
C896 C 0.71721 0.69175 0.14864 0.0
C897 C 0.60438 0.62773 0.1874 0.0
H898 H 0.73986 0.73062 0.21253 0.0
H899 H 0.69003 0.78058 0.18292 0.0
H900 H 0.68134 0.63898 0.19932 0.0
H901 H 0.72142 0.65937 0.18598 0.0
H902 H 0.72555 0.66994 0.20874 0.0
H903 H 0.64458 0.74731 0.16186 0.0
H904 H 0.65866 0.72046 0.14919 0.0
H905 H 0.62028 0.69776 0.16346 0.0
H906 H 0.68216 0.62717 0.13214 0.0
H907 H 0.58684 0.57188 0.1646 0.0
H908 H 0.73724 0.6977 0.15924 0.0
H909 H 0.71453 0.71652 0.14696 0.0
H910 H 0.72862 0.6872 0.13654 0.0
H911 H 0.6201 0.63112 0.19946 0.0
H912 H 0.57752 0.60181 0.18829 0.0
H913 H 0.59939 0.65125 0.18666 0.0
C914 C 0.26567 0.9511 0.18224 0.0
C915 C 0.2648 0.94004 0.19941 0.0
C916 C 0.29799 0.96441 0.17218 0.0
C917 C 0.32996 0.96601 0.17933 0.0
C918 C 0.32839 0.95307 0.19638 0.0
C919 C 0.29616 0.94078 0.20622 0.0
C920 C 0.29843 0.97825 0.15414 0.0
C921 C 0.36113 0.95314 0.20446 0.0
C922 C 0.40348 0.97432 0.14754 0.0
C923 C 0.42977 0.0119 0.14841 0.0
C924 C 0.37169 0.95885 0.15792 0.0
C925 C 0.36518 0.98167 0.16914 0.0
C926 C 0.39223 0.01954 0.17044 0.0
C927 C 0.42432 0.03413 0.16016 0.0
C928 C 0.3444 0.91825 0.15639 0.0
C929 C 0.3864 0.04508 0.18203 0.0
H930 H 0.24184 0.95131 0.17701 0.0
H931 H 0.29574 0.93242 0.21953 0.0
H932 H 0.31925 1.00794 0.15336 0.0
H933 H 0.30648 0.96368 0.14469 0.0
H934 H 0.27129 0.9745 0.15029 0.0
H935 H 0.35467 0.93973 0.21736 0.0
H936 H 0.37104 0.93867 0.19592 0.0
H937 H 0.38402 0.98184 0.20596 0.0
H938 H 0.40722 0.95717 0.13821 0.0
H939 H 0.44391 0.06339 0.16049 0.0
H940 H 0.31846 0.91418 0.15061 0.0
H941 H 0.33765 0.90534 0.16938 0.0
H942 H 0.3549 0.90373 0.14822 0.0
H943 H 0.36167 0.04597 0.17773 0.0
H944 H 0.41031 0.07351 0.18197 0.0
H945 H 0.38136 0.03469 0.19551 0.0
C946 C 0.0695 0.31716 0.18584 0.0
C947 C 0.04969 0.2934 0.19949 0.0
C948 C 0.05442 0.33465 0.1759 0.0
C949 C 0.01864 0.32831 0.17964 0.0
C950 C 0.99867 0.30449 0.19344 0.0
C951 C 0.01434 0.28743 0.20312 0.0
C952 C 0.0767 0.35973 0.16131 0.0
C953 C 0.96046 0.2967 0.19791 0.0
C954 C 0.98629 0.39377 0.16341 0.0
C955 C 0.96454 0.37457 0.14907 0.0
C956 C 1.00459 0.37947 0.17328 0.0
C957 C 1.00123 0.34515 0.16875 0.0
C958 C 0.97963 0.32592 0.15419 0.0
C959 C 0.96163 0.34074 0.14461 0.0
C960 C 0.02722 0.40091 0.1887 0.0
C961 C 0.97513 0.2893 0.14882 0.0
H962 H 0.09685 0.32219 0.18292 0.0
H963 H 0.99863 0.26923 0.21361 0.0
H964 H 0.0621 0.34874 0.14886 0.0
H965 H 0.07981 0.38734 0.16315 0.0
H966 H 0.10446 0.36277 0.16035 0.0
H967 H 0.94892 0.27838 0.20932 0.0
H968 H 0.96082 0.32281 0.20064 0.0
H969 H 0.94178 0.28351 0.18675 0.0
H970 H 0.98896 0.41996 0.16697 0.0
H971 H 0.94509 0.32557 0.13356 0.0
H972 H 0.05567 0.40596 0.18748 0.0
H973 H 0.01542 0.38465 0.20067 0.0
H974 H 0.02834 0.42777 0.19017 0.0
H975 H 1.00245 0.29196 0.14667 0.0
H976 H 0.95857 0.27842 0.13682 0.0
H977 H 0.96147 0.2689 0.15931 0.0
C978 C 0.0987 0.74734 0.50228 0.0
C979 C 0.10185 0.7711 0.4888 0.0
C980 C 0.0668 0.73009 0.5127 0.0
C981 C 0.03739 0.73691 0.50968 0.0
C982 C 0.04106 0.76178 0.49643 0.0
C983 C 0.07303 0.77841 0.48622 0.0
C984 C 0.06416 0.70382 0.52666 0.0
C985 C 1.01086 0.7704 0.4928 0.0
C986 C 0.93914 0.66823 0.52419 0.0
C987 C 0.93574 0.68461 0.53939 0.0
C988 C 0.97218 0.68448 0.51461 0.0
C989 C 1.0027 0.71816 0.52024 0.0
C990 C 0.99937 0.73482 0.53555 0.0
C991 C 0.96615 0.71792 0.54489 0.0
C992 C 0.9744 0.66564 0.49841 0.0
C993 C 0.03084 0.77085 0.54197 0.0
H994 H 0.12057 0.74118 0.50427 0.0
H995 H 0.07537 0.79705 0.47598 0.0
H996 H 0.05862 0.71249 0.53933 0.0
H997 H 0.04079 0.67592 0.52388 0.0
H998 H 0.08966 0.7022 0.52775 0.0
H999 H 0.0183 0.79104 0.48234 0.0
H1000 H 0.98538 0.74492 0.48898 0.0
H1001 H 1.00452 0.78102 0.50467 0.0
H1002 H 0.91615 0.64235 0.51991 0.0
H1003 H 0.96383 0.73118 0.55644 0.0
H1004 H 0.99782 0.66055 0.49934 0.0
H1005 H 0.97953 0.68374 0.48707 0.0
H1006 H 0.94883 0.63903 0.49606 0.0
H1007 H 0.05573 0.76845 0.54381 0.0
H1008 H 0.02437 0.77969 0.55439 0.0
H1009 H 0.03766 0.79265 0.5322 0.0
C1010 C 0.24118 0.28674 0.4782 0.0
C1011 C 0.24742 0.32156 0.48321 0.0
C1012 C 0.26031 0.2709 0.48595 0.0
C1013 C 0.28589 0.28988 0.49939 0.0
C1014 C 0.29321 0.3256 0.50411 0.0
C1015 C 0.27419 0.34113 0.49586 0.0
C1016 C 0.2521 0.2332 0.48018 0.0
C1017 C 0.31971 0.34669 0.51853 0.0
C1018 C 0.29675 0.23127 0.53395 0.0
C1019 C 0.33155 0.23567 0.53037 0.0
C1020 C 0.28193 0.24878 0.52405 0.0
C1021 C 0.30173 0.27076 0.50974 0.0
C1022 C 0.33621 0.27422 0.50553 0.0
C1023 C 0.35082 0.25687 0.51593 0.0
C1024 C 0.24518 0.24422 0.52917 0.0
C1025 C 0.35791 0.2967 0.49017 0.0
H1026 H 0.22096 0.27169 0.46825 0.0
H1027 H 0.27902 0.3679 0.49988 0.0
H1028 H 0.27802 0.23302 0.47775 0.0
H1029 H 0.23715 0.21293 0.49056 0.0
H1030 H 0.23505 0.22404 0.46825 0.0
H1031 H 0.32471 0.3752 0.51971 0.0
H1032 H 0.30849 0.33224 0.53097 0.0
H1033 H 0.34637 0.34789 0.51639 0.0
H1034 H 0.28095 0.21425 0.54471 0.0
H1035 H 0.37769 0.2607 0.51298 0.0
H1036 H 0.22523 0.2315 0.51841 0.0
H1037 H 0.24808 0.27154 0.53176 0.0
H1038 H 0.23358 0.22685 0.54087 0.0
H1039 H 0.34062 0.28729 0.47834 0.0
H1040 H 0.38305 0.29488 0.48793 0.0
H1041 H 0.36614 0.32597 0.49222 0.0
C1042 C 0.71349 0.9511 0.47412 0.0
C1043 C 0.68427 0.91875 0.48106 0.0
C1044 C 0.73106 0.98401 0.48366 0.0
C1045 C 0.71931 0.98502 0.50072 0.0
C1046 C 0.69038 0.95225 0.50801 0.0
C1047 C 0.67329 0.91949 0.49813 0.0
C1048 C 0.76198 0.01794 0.47534 0.0
C1049 C 0.67696 0.952 0.52612 0.0
C1050 C 0.78926 0.06549 0.52813 0.0
C1051 C 0.77785 0.09156 0.52616 0.0
C1052 C 0.76965 0.0303 0.52057 0.0
C1053 C 0.73762 0.02052 0.51072 0.0
C1054 C 0.72508 0.04613 0.50923 0.0
C1055 C 0.74525 0.08121 0.51696 0.0
C1056 C 0.78405 1.00402 0.52264 0.0
C1057 C 0.69112 0.037 0.49888 0.0
H1058 H 0.72254 0.9507 0.46105 0.0
H1059 H 0.65054 0.89481 0.50355 0.0
H1060 H 0.75474 0.03994 0.47471 0.0
H1061 H 0.78729 0.02855 0.48328 0.0
H1062 H 0.76814 0.01254 0.46205 0.0
H1063 H 0.65521 0.92413 0.53018 0.0
H1064 H 0.70016 0.96213 0.53541 0.0
H1065 H 0.66581 0.97095 0.52691 0.0
H1066 H 0.81388 0.07272 0.53549 0.0
H1067 H 0.73617 0.101 0.51525 0.0
H1068 H 0.79325 0.99942 0.5099 0.0
H1069 H 0.76192 0.97694 0.52729 0.0
H1070 H 0.80752 0.01451 0.53181 0.0
H1071 H 0.69615 0.03439 0.485 0.0
H1072 H 0.6831 0.05839 0.50019 0.0
H1073 H 0.66775 0.01019 0.50305 0.0
C1074 C 0.39205 0.05842 0.53595 0.0
C1075 C 0.38584 0.08815 0.53387 0.0
C1076 C 0.3729 0.02592 0.52618 0.0
C1077 C 0.34642 0.02241 0.51384 0.0
C1078 C 0.33966 0.05214 0.5117 0.0
C1079 C 0.35947 0.08465 0.52167 0.0
C1080 C 0.38165 0.9955 0.52886 0.0
C1081 C 0.31168 0.04968 0.49875 0.0
C1082 C 0.33177 0.95619 0.47684 0.0
C1083 C 0.29999 0.92348 0.48185 0.0
C1084 C 0.34613 0.98855 0.48677 0.0
C1085 C 0.32853 0.9889 0.50231 0.0
C1086 C 0.29596 0.9563 0.50734 0.0
C1087 C 0.2821 0.92401 0.4971 0.0
C1088 C 0.38099 0.0222 0.48083 0.0
C1089 C 0.27616 0.95537 0.52375 0.0
H1090 H 0.41229 0.0605 0.54526 0.0
H1091 H 0.3541 0.10714 0.52002 0.0
H1092 H 0.35619 0.96933 0.53186 0.0
H1093 H 0.39322 0.99109 0.5168 0.0
H1094 H 0.40171 1.0017 0.5395 0.0
H1095 H 0.30784 0.07397 0.49932 0.0
H1096 H 0.3205 0.04752 0.48549 0.0
H1097 H 0.28481 0.02449 0.50109 0.0
H1098 H 0.34603 0.9566 0.46511 0.0
H1099 H 0.2575 0.89918 0.5011 0.0
H1100 H 0.40331 0.02896 0.49032 0.0
H1101 H 0.37685 0.04624 0.48013 0.0
H1102 H 0.39022 0.01822 0.46796 0.0
H1103 H 0.29382 0.95878 0.53508 0.0
H1104 H 0.24973 0.92917 0.52521 0.0
H1105 H 0.27062 0.97857 0.52396 0.0
C1106 C 0.06439 0.38717 0.47367 0.0
C1107 C 0.09515 0.38452 0.47872 0.0
C1108 C 0.03128 0.36978 0.48304 0.0
C1109 C 0.02846 0.3492 0.49803 0.0
C1110 C 0.05917 0.34592 0.50312 0.0
C1111 C 0.09206 0.36348 0.4934 0.0
C1112 C 0.99944 0.3741 0.47704 0.0
C1113 C 0.05754 0.32445 0.51905 0.0
C1114 C 0.95807 0.34148 0.53142 0.0
C1115 C 0.92806 0.30606 0.5284 0.0
C1116 C 0.99092 0.3553 0.52195 0.0
C1117 C 0.99424 0.33343 0.50892 0.0
C1118 C 0.96417 0.29756 0.5058 0.0
C1119 C 0.93152 0.28428 0.51557 0.0
C1120 C 0.02203 0.39365 0.52579 0.0
C1121 C 0.96636 0.27335 0.49198 0.0
H1122 H 0.06612 0.40307 0.46233 0.0
H1123 H 0.11546 0.36106 0.49741 0.0
H1124 H 0.97446 0.34672 0.47545 0.0
H1125 H 0.99316 0.38929 0.48694 0.0
H1126 H 1.00523 0.38918 0.4646 0.0
H1127 H 0.08287 0.32273 0.52078 0.0
H1128 H 0.05372 0.3377 0.53067 0.0
H1129 H 0.03358 0.29617 0.5183 0.0
H1130 H 0.95603 0.3587 0.54129 0.0
H1131 H 0.90872 0.25685 0.51315 0.0
H1132 H 0.02782 0.41133 0.51423 0.0
H1133 H 0.04746 0.39292 0.52883 0.0
H1134 H 0.01577 0.40659 0.53682 0.0
H1135 H 0.97011 0.28656 0.47915 0.0
H1136 H 0.9413 0.2457 0.49155 0.0
H1137 H 0.99058 0.27001 0.49426 0.0
C1138 C 0.73352 0.64902 0.52339 0.0
C1139 C 0.77108 0.67257 0.52679 0.0
C1140 C 0.71204 0.66199 0.51529 0.0
C1141 C 0.72835 0.69944 0.51028 0.0
C1142 C 0.76617 0.72336 0.51379 0.0
C1143 C 0.78693 0.70973 0.52196 0.0
C1144 C 0.67191 0.63537 0.51181 0.0
C1145 C 0.78498 0.76333 0.50858 0.0
C1146 C 0.6851 0.72107 0.472 0.0
C1147 C 0.66467 0.73532 0.47986 0.0
C1148 C 0.70606 0.70991 0.48171 0.0
C1149 C 0.70687 0.71275 0.49995 0.0
C1150 C 0.68712 0.72801 0.50806 0.0
C1151 C 0.66638 0.73928 0.49792 0.0
C1152 C 0.72688 0.69441 0.47236 0.0
C1153 C 0.6872 0.73156 0.52746 0.0
H1154 H 0.72078 0.62034 0.52704 0.0
H1155 H 0.81581 0.72839 0.52452 0.0
H1156 H 0.65479 0.64635 0.5171 0.0
H1157 H 0.66699 0.63201 0.49766 0.0
H1158 H 0.66265 0.60788 0.51757 0.0
H1159 H 0.81394 0.77891 0.51311 0.0
H1160 H 0.78472 0.76549 0.49429 0.0
H1161 H 0.76991 0.77655 0.5139 0.0
H1162 H 0.68442 0.71815 0.45805 0.0
H1163 H 0.65059 0.74999 0.50416 0.0
H1164 H 0.71654 0.66556 0.47645 0.0
H1165 H 0.75648 0.71031 0.47579 0.0
H1166 H 0.72423 0.69491 0.45808 0.0
H1167 H 0.67472 0.70389 0.53344 0.0
H1168 H 0.6717 0.74514 0.5318 0.0
H1169 H 0.71584 0.74763 0.53232 0.0
C1170 C 0.15164 0.35614 0.29951 0.0
C1171 C 0.13486 0.31968 0.29366 0.0
C1172 C 0.15493 0.36429 0.31735 0.0
C1173 C 0.14032 0.33527 0.32962 0.0
C1174 C 0.12189 0.29839 0.32366 0.0
C1175 C 0.11983 0.29109 0.30581 0.0
C1176 C 0.17543 0.40397 0.32308 0.0
C1177 C 0.1051 0.26656 0.33617 0.0
C1178 C 0.18288 0.35204 0.3747 0.0
C1179 C 0.15894 0.35882 0.38471 0.0
C1180 C 0.17738 0.34493 0.35684 0.0
C1181 C 0.14648 0.34333 0.34864 0.0
C1182 C 0.12149 0.34895 0.35867 0.0
C1183 C 0.12818 0.35698 0.37648 0.0
C1184 C 0.20496 0.33942 0.3467 0.0
C1185 C 0.08773 0.34667 0.35057 0.0
H1186 H 0.16351 0.37827 0.29014 0.0
H1187 H 0.10668 0.26286 0.3013 0.0
H1188 H 0.15826 0.40964 0.33203 0.0
H1189 H 0.20056 0.4095 0.33027 0.0
H1190 H 0.18361 0.42332 0.31201 0.0
H1191 H 0.08874 0.23972 0.32947 0.0
H1192 H 0.12711 0.26579 0.34374 0.0
H1193 H 0.08704 0.27011 0.34549 0.0
H1194 H 0.20618 0.35225 0.38079 0.0
H1195 H 0.10959 0.36252 0.38385 0.0
H1196 H 0.21597 0.35931 0.33584 0.0
H1197 H 0.19138 0.31142 0.34099 0.0
H1198 H 0.22834 0.34299 0.35482 0.0
H1199 H 0.09596 0.36826 0.34055 0.0
H1200 H 0.07012 0.3501 0.36023 0.0
H1201 H 0.0712 0.31971 0.34402 0.0
C1202 C 0.6839 0.78293 0.30029 0.0
C1203 C 0.70166 0.81936 0.29414 0.0
C1204 C 0.67295 0.77468 0.31774 0.0
C1205 C 0.68132 0.80356 0.32962 0.0
C1206 C 0.69965 0.84028 0.32364 0.0
C1207 C 0.7084 0.84755 0.30603 0.0
C1208 C 0.65189 0.735 0.32339 0.0
C1209 C 0.71004 0.87214 0.33584 0.0
C1210 C 0.62718 0.79113 0.37092 0.0
C1211 C 0.64872 0.78689 0.38371 0.0
C1212 C 0.63636 0.79429 0.3533 0.0
C1213 C 0.66928 0.79568 0.34812 0.0
C1214 C 0.69173 0.79225 0.36081 0.0
C1215 C 0.68082 0.78707 0.37831 0.0
C1216 C 0.61091 0.79674 0.34024 0.0
C1217 C 0.72785 0.79512 0.35596 0.0
H1218 H 0.67862 0.76065 0.29157 0.0
H1219 H 0.72044 0.87571 0.3017 0.0
H1220 H 0.66748 0.72987 0.33351 0.0
H1221 H 0.62527 0.7289 0.32918 0.0
H1222 H 0.64637 0.71564 0.3125 0.0
H1223 H 0.72815 0.89913 0.32961 0.0
H1224 H 0.68493 0.87184 0.34047 0.0
H1225 H 0.7244 0.86965 0.34737 0.0
H1226 H 0.60314 0.79267 0.37452 0.0
H1227 H 0.69772 0.78331 0.38772 0.0
H1228 H 0.60598 0.77785 0.32922 0.0
H1229 H 0.62373 0.82503 0.33497 0.0
H1230 H 0.58398 0.7898 0.34598 0.0
H1231 H 0.72332 0.77373 0.3463 0.0
H1232 H 0.7423 0.79205 0.36731 0.0
H1233 H 0.74603 0.82223 0.34987 0.0
C1234 C 0.23377 0.89453 0.30233 0.0
C1235 C 0.2013 0.89357 0.29697 0.0
C1236 C 0.23994 0.88999 0.31986 0.0
C1237 C 0.21365 0.88553 0.33253 0.0
C1238 C 0.18134 0.88542 0.32732 0.0
C1239 C 0.1752 0.88852 0.3097 0.0
C1240 C 0.27424 0.88909 0.32478 0.0
C1241 C 0.15281 0.88145 0.34035 0.0
C1242 C 0.2048 0.83476 0.37457 0.0
C1243 C 0.22496 0.8635 0.38641 0.0
C1244 C 0.20215 0.84162 0.35702 0.0
C1245 C 0.2184 0.87827 0.35105 0.0
C1246 C 0.23764 0.90758 0.36292 0.0
C1247 C 0.24116 0.89988 0.38035 0.0
C1248 C 0.18187 0.80942 0.34485 0.0
C1249 C 0.25424 0.94708 0.35722 0.0
H1250 H 0.25452 0.89884 0.29287 0.0
H1251 H 0.14935 0.88633 0.30599 0.0
H1252 H 0.29021 0.9107 0.33452 0.0
H1253 H 0.26657 0.86221 0.33079 0.0
H1254 H 0.29219 0.89325 0.31347 0.0
H1255 H 0.13136 0.88615 0.3345 0.0
H1256 H 0.13917 0.85341 0.34596 0.0
H1257 H 0.16603 0.90122 0.35115 0.0
H1258 H 0.19075 0.80651 0.37896 0.0
H1259 H 0.257 0.92248 0.38915 0.0
H1260 H 0.19941 0.81238 0.33355 0.0
H1261 H 0.15683 0.80878 0.33985 0.0
H1262 H 0.17353 0.78267 0.3512 0.0
H1263 H 0.27507 0.95325 0.34702 0.0
H1264 H 0.26749 0.96674 0.36807 0.0
H1265 H 0.23261 0.95165 0.35151 0.0
C1266 C 0.32709 0.12019 0.63501 0.0
C1267 C 0.36179 0.12735 0.62951 0.0
C1268 C 0.31779 0.1155 0.6527 0.0
C1269 C 0.34369 0.11757 0.66509 0.0
C1270 C 0.37785 0.1224 0.65939 0.0
C1271 C 0.38661 0.12762 0.6417 0.0
C1272 C 0.28124 0.11078 0.6582 0.0
C1273 C 0.40604 0.12414 0.67205 0.0
C1274 C 0.34187 0.15388 0.71002 0.0
C1275 C 0.32311 0.12149 0.71981 0.0
C1276 C 0.3485 0.15284 0.69227 0.0
C1277 C 0.33676 0.11861 0.68402 0.0
C1278 C 0.3188 0.08584 0.69387 0.0
C1279 C 0.312 0.08764 0.71159 0.0
C1280 C 0.36775 0.18851 0.68231 0.0
C1281 C 0.30635 0.04885 0.68564 0.0
H1282 H 0.3081 0.1205 0.6256 0.0
H1283 H 0.41354 0.13333 0.63743 0.0
H1284 H 0.26719 0.08733 0.66726 0.0
H1285 H 0.28578 0.13583 0.66516 0.0
H1286 H 0.26282 0.10611 0.647 0.0
H1287 H 0.4291 0.12334 0.66545 0.0
H1288 H 0.41747 0.14998 0.67965 0.0
H1289 H 0.39312 0.10094 0.68132 0.0
H1290 H 0.35132 0.18026 0.71621 0.0
H1291 H 0.29711 0.06237 0.71889 0.0
H1292 H 0.3501 0.18778 0.67146 0.0
H1293 H 0.39358 0.19216 0.67661 0.0
H1294 H 0.37452 0.21278 0.69055 0.0
H1295 H 0.28554 0.04345 0.67551 0.0
H1296 H 0.29423 0.02608 0.6952 0.0
H1297 H 0.32989 0.04875 0.67921 0.0
C1298 C 0.87436 0.21892 0.70906 0.0
C1299 C 0.90185 0.21183 0.71489 0.0
C1300 C 0.86997 0.22339 0.6913 0.0
C1301 C 0.89363 0.22077 0.67902 0.0
C1302 C 0.92241 0.21525 0.68491 0.0
C1303 C 0.92619 0.21093 0.7027 0.0
C1304 C 0.83902 0.22939 0.68563 0.0
C1305 C 0.94845 0.2125 0.67237 0.0
C1306 C 0.85683 0.18894 0.63333 0.0
C1307 C 0.87324 0.22206 0.624 0.0
C1308 C 0.86335 0.18821 0.65114 0.0
C1309 C 0.88689 0.22141 0.66 0.0
C1310 C 0.90401 0.2549 0.65063 0.0
C1311 C 0.89705 0.25482 0.63278 0.0
C1312 C 0.84479 0.15181 0.66051 0.0
C1313 C 0.92925 0.29092 0.65953 0.0
H1314 H 0.85522 0.21939 0.7183 0.0
H1315 H 0.94791 0.20609 0.70707 0.0
H1316 H 0.84956 0.25357 0.67693 0.0
H1317 H 0.81851 0.20513 0.67819 0.0
H1318 H 0.82491 0.23373 0.69675 0.0
H1319 H 0.97086 0.21063 0.67905 0.0
H1320 H 0.93305 0.18775 0.66411 0.0
H1321 H 0.96088 0.23673 0.66367 0.0
H1322 H 0.8388 0.1634 0.62667 0.0
H1323 H 0.90952 0.28062 0.62579 0.0
H1324 H 0.82729 0.15253 0.67106 0.0
H1325 H 0.86576 0.14669 0.66655 0.0
H1326 H 0.82739 0.12843 0.65177 0.0
H1327 H 0.91397 0.29621 0.66976 0.0
H1328 H 0.94102 0.31447 0.6504 0.0
H1329 H 0.95213 0.28953 0.66595 0.0
C1330 C 0.79092 0.70501 0.71097 0.0
C1331 C 0.81268 0.69393 0.72009 0.0
C1332 C 0.78312 0.69695 0.69324 0.0
C1333 C 0.79746 0.67742 0.6843 0.0
C1334 C 0.81886 0.6656 0.69349 0.0
C1335 C 0.82605 0.67384 0.7112 0.0
C1336 C 0.76004 0.70991 0.68399 0.0
C1337 C 0.8346 0.64456 0.68456 0.0
C1338 C 0.75613 0.62694 0.64186 0.0
C1339 C 0.7816 0.65073 0.6296 0.0
C1340 C 0.76014 0.63589 0.65958 0.0
C1341 C 0.79049 0.66943 0.66532 0.0
C1342 C 0.81548 0.69424 0.65294 0.0
C1343 C 0.81069 0.68466 0.63527 0.0
C1344 C 0.73258 0.60878 0.67224 0.0
C1345 C 0.84827 0.73024 0.65844 0.0
H1346 H 0.78077 0.72091 0.71758 0.0
H1347 H 0.84234 0.66454 0.7181 0.0
H1348 H 0.77653 0.72971 0.6737 0.0
H1349 H 0.73624 0.68635 0.67761 0.0
H1350 H 0.74966 0.72344 0.69289 0.0
H1351 H 0.85053 0.63716 0.69353 0.0
H1352 H 0.81214 0.61895 0.67877 0.0
H1353 H 0.85292 0.66128 0.67386 0.0
H1354 H 0.7333 0.60087 0.63762 0.0
H1355 H 0.83074 0.70308 0.62597 0.0
H1356 H 0.72194 0.62265 0.68072 0.0
H1357 H 0.74617 0.59778 0.68068 0.0
H1358 H 0.70899 0.58532 0.66564 0.0
H1359 H 0.8394 0.74587 0.66678 0.0
H1360 H 0.86362 0.74767 0.64721 0.0
H1361 H 0.86725 0.7248 0.6662 0.0
C1362 C 1.00091 0.44088 0.04798 0.0
C1363 C 0.98872 0.46382 0.05512 0.0
C1364 C 1.01009 0.4427 0.0303 0.0
C1365 C 1.00511 0.46651 0.01909 0.0
C1366 C 0.99195 0.48893 0.02597 0.0
C1367 C 0.98531 0.48833 0.04382 0.0
C1368 C 0.02593 0.41971 0.02372 0.0
C1369 C 0.98503 0.51397 0.0145 0.0
C1370 C 0.05972 0.5052 0.97762 0.0
C1371 C 0.03607 0.48128 0.96467 0.0
C1372 C 0.05084 0.49924 0.99526 0.0
C1373 C 0.01611 0.4702 1.00042 0.0
C1374 C 0.99143 0.44648 0.98762 0.0
C1375 C 1.00202 0.45165 0.97005 0.0
C1376 C 0.07872 0.52461 0.0084 0.0
C1377 C 0.95337 0.41624 0.99244 0.0
H1378 H 1.00335 0.42125 0.05607 0.0
H1379 H 0.97767 0.50765 0.04872 0.0
H1380 H 1.00777 0.40034 0.01364 0.0
H1381 H 0.05305 0.43775 0.01762 0.0
H1382 H 0.0295 0.40366 0.03418 0.0
H1383 H 0.9693 0.52503 0.02126 0.0
H1384 H 1.01157 0.5375 0.01021 0.0
H1385 H 0.96956 0.49903 1.00275 0.0
H1386 H 0.08534 0.52935 0.97421 0.0
H1387 H 0.98324 0.43238 0.96061 0.0
H1388 H 0.08107 0.50853 0.01921 0.0
H1389 H 0.06976 0.54317 0.01396 0.0
H1390 H 0.10638 0.54182 1.00261 0.0
H1391 H 0.95511 0.39664 1.00143 0.0
H1392 H 0.93696 0.40078 0.98097 0.0
H1393 H 0.93853 0.42814 0.9993 0.0
C1394 C 0.55137 0.51029 0.03762 0.0
C1395 C 0.56466 0.53836 0.05021 0.0
C1396 C 0.54777 0.51724 0.02021 0.0
C1397 C 0.55557 0.55275 0.01513 0.0
C1398 C 0.5678 0.58106 0.02772 0.0
C1399 C 0.57279 0.57373 0.04501 0.0
C1400 C 0.53533 0.4863 0.00723 0.0
C1401 C 0.57504 0.61895 0.02296 0.0
C1402 C 0.56968 0.57564 0.96692 0.0
C1403 C 0.53389 0.56547 0.96145 0.0
C1404 C 0.57731 0.57205 0.98434 0.0
C1405 C 0.54885 0.55927 0.99682 0.0
C1406 C 0.51299 0.5499 0.99152 0.0
C1407 C 0.50579 0.55214 0.97397 0.0
C1408 C 0.61566 0.58105 0.98933 0.0
C1409 C 0.48188 0.53688 1.00439 0.0
H1410 H 0.54331 0.48242 0.0413 0.0
H1411 H 0.58325 0.59585 0.05439 0.0
H1412 H 0.50761 0.47856 1.00229 0.0
H1413 H 0.55426 0.49533 0.99599 0.0
H1414 H 0.53415 0.46144 0.0129 0.0
H1415 H 0.58389 0.63784 0.03426 0.0
H1416 H 0.59664 0.63108 0.01289 0.0
H1417 H 0.54978 0.61704 0.01742 0.0
H1418 H 0.59192 0.58645 0.95764 0.0
H1419 H 0.4777 0.54277 0.97016 0.0
H1420 H 0.6149 0.55619 0.99471 0.0
H1421 H 0.62666 0.60238 0.99958 0.0
H1422 H 0.63487 0.59101 0.97817 0.0
H1423 H 0.47459 0.50923 0.00925 0.0
H1424 H 0.45688 0.53522 0.99861 0.0
H1425 H 0.49044 0.5557 0.01569 0.0
C1426 C 0.44852 1.00245 0.04095 0.0
C1427 C 0.48038 0.03452 0.04632 0.0
C1428 C 0.44186 0.99269 0.02331 0.0
C1429 C 0.46785 0.01525 0.01066 0.0
C1430 C 0.49996 0.0477 0.01602 0.0
C1431 C 0.50576 0.05694 0.03369 0.0
C1432 C 0.40715 0.958 0.0182 0.0
C1433 C 0.5287 0.07233 1.00309 0.0
C1434 C 0.47113 0.97113 0.96803 0.0
C1435 C 0.45331 0.98297 0.95651 0.0
C1436 C 0.47594 0.98138 0.98557 0.0
C1437 C 0.46249 1.00402 0.99196 0.0
C1438 C 0.44462 0.01628 0.98041 0.0
C1439 C 0.44045 1.00582 0.96282 0.0
C1440 C 0.49565 0.96807 0.99727 0.0
C1441 C 0.42968 0.04026 0.98667 0.0
H1442 H 0.42859 0.98509 0.05055 0.0
H1443 H 0.53078 0.08144 0.03767 0.0
H1444 H 0.3918 0.96434 0.00843 0.0
H1445 H 0.4142 0.93836 0.01217 0.0
H1446 H 0.38886 0.94436 0.02943 0.0
H1447 H 0.55152 0.09726 0.00923 0.0
H1448 H 0.54036 0.05694 0.99656 0.0
H1449 H 0.51605 0.0811 0.99295 0.0
H1450 H 0.48179 0.95404 0.96325 0.0
H1451 H 0.42649 0.01496 0.95408 0.0
H1452 H 0.47745 0.9519 0.0081 0.0
H1453 H 0.52026 0.99192 1.003 0.0
H1454 H 0.50451 0.95067 0.99031 0.0
H1455 H 0.40946 0.02608 0.99718 0.0
H1456 H 0.41613 0.04717 0.97617 0.0
H1457 H 0.45224 0.06619 0.99217 0.0
C1458 C 0.16639 0.0619 0.22392 0.0
C1459 C 0.16482 0.0353 0.21246 0.0
C1460 C 0.15891 0.08925 0.21838 0.0
C1461 C 0.14993 0.09047 0.20081 0.0
C1462 C 0.14709 0.06297 0.18923 0.0
C1463 C 0.15441 0.03556 0.19522 0.0
C1464 C 0.16154 0.11745 0.23133 0.0
C1465 C 0.13771 0.06325 0.17043 0.0
C1466 C 0.11193 0.15487 0.1966 0.0
C1467 C 0.14471 0.18862 0.19529 0.0
C1468 C 0.1123 0.12155 0.19646 0.0
C1469 C 0.14625 0.12226 0.19474 0.0
C1470 C 0.17846 0.15601 0.19094 0.0
C1471 C 0.17737 0.18886 0.1915 0.0
C1472 C 0.07715 0.08634 0.20042 0.0
C1473 C 0.21509 0.15812 0.18853 0.0
H1474 H 0.17351 0.06131 0.23733 0.0
H1475 H 0.15315 0.01506 0.1863 0.0
H1476 H 0.18436 0.14508 0.22772 0.0
H1477 H 0.13581 0.11875 0.23126 0.0
H1478 H 0.16651 0.11126 0.24469 0.0
H1479 H 0.11428 0.06821 0.16904 0.0
H1480 H 0.16161 0.08602 0.16374 0.0
H1481 H 0.13072 0.03703 0.16384 0.0
H1482 H 0.0867 0.15459 0.19978 0.0
H1483 H 0.20281 0.215 0.19069 0.0
H1484 H 0.07639 0.08021 0.21442 0.0
H1485 H 0.07557 0.06281 0.19315 0.0
H1486 H 0.05256 0.08865 0.19731 0.0
H1487 H 0.2259 0.15606 0.20133 0.0
H1488 H 0.23557 0.18446 0.18244 0.0
H1489 H 0.21215 0.13499 0.18043 0.0
C1490 C 0.86876 0.96545 0.19754 0.0
C1491 C 0.83637 0.96703 0.19931 0.0
C1492 C 0.90352 0.99774 0.19824 0.0
C1493 C 0.90581 0.03237 0.20051 0.0
C1494 C 0.87308 0.03423 0.20013 0.0
C1495 C 0.83886 1.00158 0.19967 0.0
C1496 C 0.93752 0.99421 0.19848 0.0
C1497 C 0.87391 0.07037 0.2022 0.0
C1498 C 0.97896 0.10344 0.23038 0.0
C1499 C 1.00408 0.12996 0.21885 0.0
C1500 C 0.94787 0.07124 0.22449 0.0
C1501 C 0.94088 0.0652 0.20652 0.0
C1502 C 0.96609 0.09153 0.19472 0.0
C1503 C 0.99739 0.12348 0.20099 0.0
C1504 C 0.922 0.04394 0.23763 0.0
C1505 C 0.95968 0.08627 0.17547 0.0
H1506 H 0.86727 0.93901 0.19739 0.0
H1507 H 0.81391 1.00298 0.20111 0.0
H1508 H 0.96018 0.01681 0.1911 0.0
H1509 H 0.947 0.99607 0.21203 0.0
H1510 H 0.93208 0.96743 0.19305 0.0
H1511 H 0.84718 0.06804 0.19869 0.0
H1512 H 0.88007 0.07948 0.21588 0.0
H1513 H 0.89582 0.09199 0.1941 0.0
H1514 H 0.9831 0.10798 0.24417 0.0
H1515 H 0.01658 0.14323 0.19185 0.0
H1516 H 0.91772 0.01615 0.23485 0.0
H1517 H 0.8948 0.04216 0.2368 0.0
H1518 H 0.93241 0.05158 0.25108 0.0
H1519 H 0.95507 0.05887 0.17155 0.0
H1520 H 0.98311 0.10774 0.16795 0.0
H1521 H 0.93452 0.08717 0.17202 0.0
C1522 C 0.89599 0.86571 0.19714 0.0
C1523 C 0.8932 0.87382 0.21451 0.0
C1524 C 0.92882 0.86872 0.19064 0.0
C1525 C 0.95942 0.87984 0.2018 0.0
C1526 C 0.95722 0.88991 0.21906 0.0
C1527 C 0.92442 0.887 0.22511 0.0
C1528 C 0.93011 0.8585 0.17206 0.0
C1529 C 0.98905 0.90229 0.23149 0.0
C1530 C 0.02815 0.8472 0.20147 0.0
C1531 C 0.06104 0.88022 0.1986 0.0
C1532 C 0.99396 0.84544 0.2004 0.0
C1533 C 0.99257 0.87765 0.19646 0.0
C1534 C 0.02527 0.90968 0.1912 0.0
C1535 C 0.05923 0.91056 0.19228 0.0
C1536 C 0.95997 0.8104 0.2058 0.0
C1537 C 0.02509 0.94438 0.18639 0.0
H1538 H 0.87217 0.85575 0.18879 0.0
H1539 H 0.92308 0.89459 0.23835 0.0
H1540 H 0.95723 0.8774 0.16618 0.0
H1541 H 0.92604 0.83031 0.17152 0.0
H1542 H 0.90824 0.85897 0.16418 0.0
H1543 H 0.98343 0.91059 0.24426 0.0
H1544 H 0.99501 0.87965 0.23356 0.0
H1545 H 0.01415 0.92592 0.22602 0.0
H1546 H 0.02941 0.82368 0.20639 0.0
H1547 H 0.08435 0.93616 0.18988 0.0
H1548 H 0.93649 0.80436 0.1972 0.0
H1549 H 0.95228 0.8137 0.21914 0.0
H1550 H 0.96446 0.78649 0.20564 0.0
H1551 H 1.00017 0.938 0.1788 0.0
H1552 H 0.04989 0.96335 0.17881 0.0
H1553 H 0.02482 0.95887 0.19835 0.0
C1554 C 0.06421 0.17893 0.78607 0.0
C1555 C 0.03112 0.16349 0.79527 0.0
C1556 C 0.09226 0.17165 0.79067 0.0
C1557 C 0.08761 0.14903 0.80516 0.0
C1558 C 0.0543 0.13357 0.81463 0.0
C1559 C 0.02621 0.14053 0.8094 0.0
C1560 C 0.12681 0.18797 0.77986 0.0
C1561 C 0.04819 0.10967 0.83024 0.0
C1562 C 0.15075 0.10948 0.80194 0.0
C1563 C 0.18262 0.13686 0.81007 0.0
C1564 C 0.11818 0.11103 0.8017 0.0
C1565 C 0.11747 0.14097 0.80971 0.0
C1566 C 0.14842 0.16666 0.81945 0.0
C1567 C 0.18089 0.1646 0.81932 0.0
C1568 C 0.08617 0.08298 0.79109 0.0
C1569 C 0.1484 0.19829 0.82868 0.0
H1570 H 0.0679 0.19639 0.77506 0.0
H1571 H 1.00078 0.12883 0.81665 0.0
H1572 H 0.15099 0.20617 0.78795 0.0
H1573 H 0.13116 0.16574 0.77475 0.0
H1574 H 0.12573 0.20421 0.76877 0.0
H1575 H 0.02473 0.10637 0.8382 0.0
H1576 H 0.04214 0.08198 0.82596 0.0
H1577 H 0.07319 0.12135 0.83847 0.0
H1578 H 0.15223 0.08882 0.7942 0.0
H1579 H 0.2057 0.18633 0.82524 0.0
H1580 H 0.08508 0.09568 0.77869 0.0
H1581 H 0.0598 0.07387 0.79789 0.0
H1582 H 0.08869 0.05844 0.78814 0.0
H1583 H 0.1516 0.21933 0.8191 0.0
H1584 H 0.17123 0.21149 0.83819 0.0
H1585 H 0.12191 0.18882 0.83549 0.0
C1586 C 0.84525 0.02095 0.8024 0.0
C1587 C 0.87563 0.05473 0.80723 0.0
C1588 C 0.84668 0.98828 0.80261 0.0
C1589 C 0.87944 0.98916 0.80781 0.0
C1590 C 0.90878 0.02245 0.81459 0.0
C1591 C 0.90646 0.0549 0.8143 0.0
C1592 C 0.81446 0.95368 0.79542 0.0
C1593 C 0.94401 0.02482 0.82066 0.0
C1594 C 0.87082 0.89405 0.80915 0.0
C1595 C 0.88239 0.89126 0.79242 0.0
C1596 C 0.87189 0.92655 0.81484 0.0
C1597 C 0.88438 0.95699 0.80351 0.0
C1598 C 0.89777 0.95496 0.78696 0.0
C1599 C 0.89682 0.92243 0.7817 0.0
C1600 C 0.85833 0.92778 0.83274 0.0
C1601 C 0.91168 0.98672 0.77444 0.0
H1602 H 0.82132 0.02064 0.79693 0.0
H1603 H 0.93004 0.0808 0.81814 0.0
H1604 H 0.82185 0.94757 0.78255 0.0
H1605 H 0.80756 0.92987 0.80393 0.0
H1606 H 0.78962 0.95635 0.79391 0.0
H1607 H 0.95885 0.04785 0.82994 0.0
H1608 H 0.93878 0.99883 0.82685 0.0
H1609 H 0.96225 0.02994 0.80937 0.0
H1610 H 0.85973 0.87048 0.81766 0.0
H1611 H 0.90699 0.92136 0.769 0.0
H1612 H 0.83141 0.92657 0.83182 0.0
H1613 H 0.87771 0.95398 0.83928 0.0
H1614 H 0.85489 0.90447 0.84087 0.0
H1615 H 0.8889 0.99158 0.77082 0.0
H1616 H 0.92301 0.98165 0.76244 0.0
H1617 H 0.93343 0.01223 0.78062 0.0
C1618 C 0.12669 0.98927 0.8108 0.0
C1619 C 0.13067 0.99947 0.79325 0.0
C1620 C 0.09403 0.959 0.81706 0.0
C1621 C 0.06478 0.93784 0.80549 0.0
C1622 C 0.068 0.94888 0.78797 0.0
C1623 C 0.10056 0.97959 0.78215 0.0
C1624 C 0.09139 0.94888 0.83593 0.0
C1625 C 0.03758 0.92723 0.7751 0.0
C1626 C 1.00207 0.83502 0.80921 0.0
C1627 C 0.9678 0.83225 0.81187 0.0
C1628 C 0.03447 0.8693 0.80866 0.0
C1629 C 0.03265 0.90182 0.81089 0.0
C1630 C 0.99863 0.89897 0.81555 0.0
C1631 C 0.96647 0.86408 0.81599 0.0
C1632 C 0.0699 0.87069 0.80371 0.0
C1633 C 0.99543 0.93277 0.81843 0.0
H1634 H 0.1494 1.00415 0.81964 0.0
H1635 H 0.10245 0.98756 0.76874 0.0
H1636 H 0.06431 0.94247 0.84126 0.0
H1637 H 0.09373 0.92386 0.83735 0.0
H1638 H 0.11345 0.97126 0.84374 0.0
H1639 H 0.04365 0.94027 0.76212 0.0
H1640 H 0.03342 0.89908 0.77375 0.0
H1641 H 1.01135 0.92443 0.77976 0.0
H1642 H 1.00312 0.81043 0.80597 0.0
H1643 H 0.94008 0.86221 0.81794 0.0
H1644 H 0.09274 0.88999 0.8122 0.0
H1645 H 0.07723 0.88089 0.79024 0.0
H1646 H 0.06764 0.84322 0.80449 0.0
H1647 H 0.01991 0.95446 0.8253 0.0
H1648 H 0.97038 0.92628 0.82595 0.0
H1649 H 0.9936 0.94407 0.80574 0.0
C1650 C 0.84936 0.52157 0.54309 0.0
C1651 C 0.81864 0.52414 0.53814 0.0
C1652 C 0.84889 0.48797 0.54249 0.0
C1653 C 0.81683 0.45595 0.53674 0.0
C1654 C 0.78735 0.4593 0.52978 0.0
C1655 C 0.78859 0.4935 0.53056 0.0
C1656 C 0.88111 0.48609 0.54996 0.0
C1657 C 0.75299 0.42617 0.5231 0.0
C1658 C 0.82655 0.37027 0.53539 0.0
C1659 C 0.81351 0.35507 0.55185 0.0
C1660 C 0.82575 0.40181 0.52976 0.0
C1661 C 0.81219 0.41904 0.54092 0.0
C1662 C 0.7976 0.40295 0.55722 0.0
C1663 C 0.79816 0.37118 0.56238 0.0
C1664 C 0.84067 0.41741 0.51211 0.0
C1665 C 0.78275 0.42019 0.5696 0.0
H1666 H 0.87261 0.54525 0.54899 0.0
H1667 H 0.76466 0.49524 0.52681 0.0
H1668 H 0.87331 0.47222 0.56273 0.0
H1669 H 0.88882 0.46974 0.54149 0.0
H1670 H 0.90557 0.51384 0.55177 0.0
H1671 H 0.73715 0.43429 0.51445 0.0
H1672 H 0.7597 0.40734 0.51598 0.0
H1673 H 0.73514 0.41074 0.53417 0.0
H1674 H 0.83841 0.35827 0.52705 0.0
H1675 H 0.78687 0.35927 0.57485 0.0
H1676 H 0.86779 0.44278 0.51351 0.0
H1677 H 0.82213 0.42505 0.50538 0.0
H1678 H 0.84419 0.39767 0.50391 0.0
H1679 H 0.80511 0.44793 0.57346 0.0
H1680 H 0.77102 0.4035 0.58148 0.0
H1681 H 0.76107 0.42369 0.56321 0.0
C1682 C 0.65623 0.4404 0.55782 0.0
C1683 C 0.66269 0.46916 0.54663 0.0
C1684 C 0.62665 0.40454 0.55494 0.0
C1685 C 0.60364 0.39715 0.54026 0.0
C1686 C 0.61241 0.42558 0.5281 0.0
C1687 C 0.64133 0.46137 0.53161 0.0
C1688 C 0.61827 0.37531 0.56835 0.0
C1689 C 0.58984 0.41874 0.51191 0.0
C1690 C 0.52886 0.29631 0.53351 0.0
C1691 C 0.49899 0.29569 0.54192 0.0
C1692 C 0.56289 0.32944 0.53203 0.0
C1693 C 0.56708 0.36239 0.53938 0.0
C1694 C 0.53619 0.36198 0.54693 0.0
C1695 C 0.50267 0.32889 0.54792 0.0
C1696 C 0.59468 0.32857 0.52349 0.0
C1697 C 0.53902 0.39608 0.55504 0.0
H1698 H 0.67281 0.44656 0.56941 0.0
H1699 H 0.64673 0.48364 0.52285 0.0
H1700 H 0.59233 0.36854 0.5751 0.0
H1701 H 0.61416 0.34976 0.5621 0.0
H1702 H 0.64052 0.38432 0.57813 0.0
H1703 H 0.60399 0.44132 0.50237 0.0
H1704 H 0.58389 0.39242 0.50577 0.0
H1705 H 0.56313 0.4165 0.51526 0.0
H1706 H 0.52642 0.2707 0.52906 0.0
H1707 H 0.47965 0.32859 0.55441 0.0
H1708 H 0.61229 0.32637 0.53356 0.0
H1709 H 0.61189 0.35412 0.51604 0.0
H1710 H 0.58506 0.30452 0.5147 0.0
H1711 H 0.5594 0.40583 0.56573 0.0
H1712 H 0.51234 0.39115 0.56029 0.0
H1713 H 0.54878 0.41852 0.54538 0.0
C1714 C 0.69793 0.18854 0.52102 0.0
C1715 C 0.72821 0.21795 0.52912 0.0
C1716 C 0.6635 0.18668 0.52063 0.0
C1717 C 0.65902 0.21399 0.52926 0.0
C1718 C 0.69051 0.24568 0.53572 0.0
C1719 C 0.72472 0.2473 0.53547 0.0
C1720 C 0.63113 0.1535 0.51265 0.0
C1721 C 0.68742 0.27563 0.54501 0.0
C1722 C 0.56759 0.21296 0.53365 0.0
C1723 C 0.55431 0.19404 0.54935 0.0
C1724 C 0.60082 0.21845 0.5264 0.0
C1725 C 0.62167 0.20544 0.53526 0.0
C1726 C 0.60772 0.18544 0.55083 0.0
C1727 C 0.57418 0.17955 0.55745 0.0
C1728 C 0.61396 0.23929 0.50962 0.0
C1729 C 0.62887 0.17124 0.56093 0.0
H1730 H 0.7003 0.16549 0.51632 0.0
H1731 H 0.74768 0.26966 0.54212 0.0
H1732 H 0.61507 0.13344 0.52294 0.0
H1733 H 0.61265 0.16143 0.50607 0.0
H1734 H 0.6401 0.13968 0.50318 0.0
H1735 H 0.71472 0.30054 0.54713 0.0
H1736 H 0.66986 0.28355 0.53762 0.0
H1737 H 0.67428 0.26526 0.5578 0.0
H1738 H 0.55267 0.22442 0.52725 0.0
H1739 H 0.5638 0.16397 0.56928 0.0
H1740 H 0.62992 0.22987 0.50187 0.0
H1741 H 0.632 0.26897 0.51246 0.0
H1742 H 0.59052 0.2363 0.50173 0.0
H1743 H 0.63279 0.15155 0.55295 0.0
H1744 H 0.61468 0.15716 0.57307 0.0
H1745 H 0.65653 0.19435 0.56432 0.0
C1746 C 0.85466 0.49878 0.15628 0.0
C1747 C 0.85476 0.46576 0.15408 0.0
C1748 C 0.82161 0.49945 0.15639 0.0
C1749 C 0.7879 0.46625 0.15398 0.0
C1750 C 0.78765 0.43236 0.15422 0.0
C1751 C 0.82124 0.43253 0.15432 0.0
C1752 C 0.82335 0.53621 0.15659 0.0
C1753 C 0.7524 0.3962 0.15207 0.0
C1754 C 0.7023 0.47598 0.15095 0.0
C1755 C 0.70107 0.48159 0.1331 0.0
C1756 C 0.72927 0.46912 0.15802 0.0
C1757 C 0.75565 0.46805 0.14699 0.0
C1758 C 0.75329 0.47193 0.1289 0.0
C1759 C 0.7261 0.4785 0.12224 0.0
C1760 C 0.73037 0.46461 0.17731 0.0
C1761 C 0.78041 0.47053 0.11653 0.0
H1762 H 0.88059 0.52453 0.15598 0.0
H1763 H 0.82109 0.4069 0.15249 0.0
H1764 H 0.81985 0.54353 0.14321 0.0
H1765 H 0.8009 0.53504 0.16459 0.0
H1766 H 0.8501 0.55837 0.16166 0.0
H1767 H 0.75544 0.37278 0.15663 0.0
H1768 H 0.72952 0.39623 0.1592 0.0
H1769 H 0.74481 0.39174 0.13817 0.0
H1770 H 0.68305 0.4782 0.15945 0.0
H1771 H 0.7247 0.48164 0.10842 0.0
H1772 H 0.75226 0.49069 0.18301 0.0
H1773 H 0.73694 0.44278 0.18047 0.0
H1774 H 0.70385 0.45778 0.1835 0.0
H1775 H 0.80848 0.49364 0.11927 0.0
H1776 H 0.77374 0.47236 0.1028 0.0
H1777 H 0.78092 0.44459 0.11829 0.0
C1778 C 0.51081 0.21549 0.1488 0.0
C1779 C 0.52727 0.20926 0.13442 0.0
C1780 C 0.51811 0.25111 0.15305 0.0
C1781 C 0.54125 0.28105 0.14222 0.0
C1782 C 0.55956 0.27509 0.12823 0.0
C1783 C 0.55275 0.23929 0.12467 0.0
C1784 C 0.49942 0.25633 0.16855 0.0
C1785 C 0.58413 0.30597 0.1162 0.0
C1786 C 0.51524 0.35391 0.13356 0.0
C1787 C 0.54476 0.38564 0.14076 0.0
C1788 C 0.51317 0.31965 0.1346 0.0
C1789 C 0.54093 0.31651 0.14348 0.0
C1790 C 0.56901 0.34774 0.15225 0.0
C1791 C 0.5708 0.38217 0.15068 0.0
C1792 C 0.48274 0.28747 0.12493 0.0
C1793 C 0.59849 0.3455 0.16238 0.0
H1794 H 0.49156 0.19224 0.15651 0.0
H1795 H 0.56548 0.23437 0.11359 0.0
H1796 H 0.51886 0.28145 0.17583 0.0
H1797 H 0.47627 0.25994 0.1642 0.0
H1798 H 0.48834 0.23234 0.17742 0.0
H1799 H 0.59866 0.29759 0.10686 0.0
H1800 H 0.56736 0.31499 0.10884 0.0
H1801 H 0.60484 0.32998 0.12368 0.0
H1802 H 0.49495 0.35644 0.12592 0.0
H1803 H 0.59383 0.40653 0.1562 0.0
H1804 H 0.46738 0.26387 0.13378 0.0
H1805 H 0.49471 0.27839 0.11458 0.0
H1806 H 0.46294 0.29437 0.11893 0.0
H1807 H 0.58707 0.31892 0.16934 0.0
H1808 H 0.61192 0.36836 0.17187 0.0
H1809 H 0.61991 0.34745 0.15336 0.0
C1810 C 0.66381 0.15959 0.13931 0.0
C1811 C 0.63055 0.15829 0.14301 0.0
C1812 C 0.6975 0.1926 0.1405 0.0
C1813 C 0.69801 0.22529 0.14552 0.0
C1814 C 0.66496 0.22309 0.1514 0.0
C1815 C 0.63146 0.18949 0.15005 0.0
C1816 C 0.73179 0.19321 0.13419 0.0
C1817 C 0.66423 0.25692 0.15733 0.0
C1818 C 0.79408 0.31055 0.1467 0.0
C1819 C 0.79702 0.32441 0.12986 0.0
C1820 C 0.76131 0.2796 0.15248 0.0
C1821 C 0.7309 0.26164 0.14109 0.0
C1822 C 0.73321 0.27652 0.1244 0.0
C1823 C 0.76588 0.30772 0.11911 0.0
C1824 C 0.75975 0.26539 0.17054 0.0
C1825 C 0.70159 0.25858 0.11174 0.0
H1826 H 0.66312 0.13553 0.13375 0.0
H1827 H 0.60582 0.18875 0.15283 0.0
H1828 H 0.73912 0.20615 0.1212 0.0
H1829 H 0.75529 0.20982 0.14294 0.0
H1830 H 0.72794 0.16511 0.13319 0.0
H1831 H 0.63976 0.24961 0.16549 0.0
H1832 H 0.68943 0.27562 0.16473 0.0
H1833 H 0.663 0.27217 0.14589 0.0
H1834 H 0.81765 0.32313 0.15524 0.0
H1835 H 0.76702 0.3187 0.10634 0.0
H1836 H 0.76251 0.24051 0.16998 0.0
H1837 H 0.73293 0.2574 0.17669 0.0
H1838 H 0.78216 0.28614 0.17883 0.0
H1839 H 0.69576 0.23034 0.10869 0.0
H1840 H 0.70734 0.27418 0.09945 0.0
H1841 H 0.67636 0.25619 0.11754 0.0
C1842 C 0.5094 0.86077 0.85888 0.0
C1843 C 0.47537 0.85921 0.85818 0.0
C1844 C 0.5117 0.82864 0.85782 0.0
C1845 C 0.47903 0.79412 0.85633 0.0
C1846 C 0.44532 0.79309 0.85304 0.0
C1847 C 0.44392 0.82587 0.85391 0.0
C1848 C 0.54844 0.83136 0.86091 0.0
C1849 C 0.40991 0.75706 0.85097 0.0
C1850 C 0.49115 0.70984 0.85867 0.0
C1851 C 0.48894 0.70371 0.87658 0.0
C1852 C 0.4863 0.73809 0.85159 0.0
C1853 C 0.47908 0.76058 0.86272 0.0
C1854 C 0.47494 0.75307 0.8807 0.0
C1855 C 0.47988 0.72485 0.88734 0.0
C1856 C 0.49053 0.7448 0.83236 0.0
C1857 C 0.46667 0.7758 0.89313 0.0
H1858 H 0.53373 0.88657 0.86225 0.0
H1859 H 0.41753 0.82456 0.85334 0.0
H1860 H 0.55002 0.82406 0.87455 0.0
H1861 H 0.55182 0.81187 0.8525 0.0
H1862 H 0.5716 0.85963 0.85851 0.0
H1863 H 0.38858 0.76089 0.84435 0.0
H1864 H 0.41433 0.73698 0.84355 0.0
H1865 H 0.39932 0.74515 0.86393 0.0
H1866 H 0.498 0.69349 0.85027 0.0
H1867 H 0.47707 0.71955 0.90112 0.0
H1868 H 0.51831 0.76833 0.82962 0.0
H1869 H 0.47014 0.75194 0.82735 0.0
H1870 H 0.48738 0.72042 0.82522 0.0
H1871 H 0.48973 0.80465 0.89314 0.0
H1872 H 0.46251 0.76519 0.90658 0.0
H1873 H 0.44158 0.77615 0.88898 0.0
C1874 C 0.31767 0.77561 0.88199 0.0
C1875 C 0.32017 0.80485 0.87226 0.0
C1876 C 0.28847 0.73944 0.87939 0.0
C1877 C 0.26176 0.73222 0.8664 0.0
C1878 C 0.26623 0.76133 0.85555 0.0
C1879 C 0.29493 0.79736 0.85883 0.0
C1880 C 0.2847 0.70948 0.89142 0.0
C1881 C 0.23955 0.75478 0.84107 0.0
C1882 C 0.19038 0.63026 0.85986 0.0
C1883 C 0.16232 0.62669 0.87089 0.0
C1884 C 0.22231 0.66492 0.85734 0.0
C1885 C 0.22627 0.6963 0.86628 0.0
C1886 C 0.19666 0.69294 0.87639 0.0
C1887 C 0.16511 0.65841 0.87837 0.0
C1888 C 0.25261 0.66738 0.84598 0.0
C1889 C 0.19933 0.72525 0.88628 0.0
H1890 H 0.33726 0.78144 0.89233 0.0
H1891 H 0.2973 0.81993 0.85108 0.0
H1892 H 0.26015 0.70052 0.89973 0.0
H1893 H 0.28055 0.68518 0.88392 0.0
H1894 H 0.30918 0.71876 0.89987 0.0
H1895 H 0.25047 0.77831 0.83193 0.0
H1896 H 0.23316 0.72947 0.8338 0.0
H1897 H 0.21339 0.75079 0.84652 0.0
H1898 H 0.18863 0.60584 0.85418 0.0
H1899 H 0.14342 0.65573 0.88691 0.0
H1900 H 0.274 0.66684 0.85418 0.0
H1901 H 0.26586 0.69346 0.83855 0.0
H1902 H 0.24217 0.64389 0.83681 0.0
H1903 H 0.22199 0.73513 0.89587 0.0
H1904 H 0.17351 0.71815 0.89325 0.0
H1905 H 0.20579 0.74837 0.87738 0.0
C1906 C 0.39005 0.58483 0.86348 0.0
C1907 C 0.3941 0.55373 0.8624 0.0
C1908 C 0.35505 0.5815 0.86287 0.0
C1909 C 0.32345 0.54617 0.86115 0.0
C1910 C 0.32798 0.51552 0.8577 0.0
C1911 C 0.36326 0.51962 0.85857 0.0
C1912 C 0.35182 0.61509 0.86644 0.0
C1913 C 0.29526 0.47749 0.85536 0.0
C1914 C 0.24228 0.52339 0.89041 0.0
C1915 C 0.21643 0.52345 0.87897 0.0
C1916 C 0.27726 0.53161 0.88476 0.0
C1917 C 0.28687 0.53988 0.8671 0.0
C1918 C 0.26125 0.5409 0.85549 0.0
C1919 C 0.22635 0.53285 0.8616 0.0
C1920 C 0.30379 0.5309 0.89775 0.0
C1921 C 0.27023 0.54934 0.83658 0.0
H1922 H 0.41353 0.61113 0.86688 0.0
H1923 H 0.36621 0.49542 0.85804 0.0
H1924 H 0.32943 0.6147 0.85868 0.0
H1925 H 0.34514 0.61539 0.8803 0.0
H1926 H 0.37794 0.64088 0.86362 0.0
H1927 H 0.30321 0.45843 0.84936 0.0
H1928 H 0.28283 0.46625 0.86817 0.0
H1929 H 0.27397 0.47832 0.84721 0.0
H1930 H 0.23511 0.51697 0.90391 0.0
H1931 H 0.20643 0.53284 0.8527 0.0
H1932 H 0.32995 0.55758 0.89769 0.0
H1933 H 0.31031 0.50921 0.89418 0.0
H1934 H 0.29259 0.52546 0.91111 0.0
H1935 H 0.2979 0.57387 0.83493 0.0
H1936 H 0.24973 0.5542 0.82981 0.0
H1937 H 0.2707 0.52585 0.83027 0.0
C1938 C 0.48866 0.76598 0.48762 0.0
C1939 C 0.52235 0.79709 0.48339 0.0
C1940 C 0.4562 0.76795 0.48857 0.0
C1941 C 0.45764 0.80184 0.48523 0.0
C1942 C 0.49237 0.83414 0.48348 0.0
C1943 C 0.52424 0.83131 0.48249 0.0
C1944 C 0.41997 0.73288 0.49093 0.0
C1945 C 0.49556 0.87104 0.48022 0.0
C1946 C 0.38583 0.80169 0.45541 0.0
C1947 C 0.36548 0.81115 0.46652 0.0
C1948 C 0.41482 0.79736 0.46153 0.0
C1949 C 0.4239 0.8023 0.47936 0.0
C1950 C 0.40234 0.81002 0.49087 0.0
C1951 C 0.37337 0.81441 0.48431 0.0
C1952 C 0.43655 0.78865 0.44871 0.0
C1953 C 0.41065 0.81502 0.50997 0.0
H1954 H 0.48669 0.73936 0.4883 0.0
H1955 H 0.55017 0.8554 0.47907 0.0
H1956 H 0.40067 0.73781 0.49871 0.0
H1957 H 0.40717 0.72239 0.47809 0.0
H1958 H 0.42365 0.71124 0.4973 0.0
H1959 H 0.52406 0.89402 0.48232 0.0
H1960 H 0.48769 0.8722 0.46663 0.0
H1961 H 0.4767 0.87512 0.48875 0.0
H1962 H 0.37926 0.79797 0.44176 0.0
H1963 H 0.35777 0.8216 0.49301 0.0
H1964 H 0.43687 0.76346 0.4527 0.0
H1965 H 0.46547 0.81151 0.44839 0.0
H1966 H 0.42514 0.7844 0.4354 0.0
H1967 H 0.41715 0.79411 0.51488 0.0
H1968 H 0.38733 0.81321 0.51752 0.0
H1969 H 0.4351 0.84248 0.51228 0.0
C1970 C 0.22366 0.58134 0.45004 0.0
C1971 C 0.21362 0.55089 0.4609 0.0
C1972 C 0.22521 0.61362 0.45611 0.0
C1973 C 0.21724 0.61637 0.47365 0.0
C1974 C 0.20896 0.58672 0.48497 0.0
C1975 C 0.20692 0.55431 0.47847 0.0
C1976 C 0.23418 0.64443 0.44347 0.0
C1977 C 0.20114 0.58874 0.50386 0.0
C1978 C 0.24461 0.71538 0.48436 0.0
C1979 C 0.21215 0.71527 0.48003 0.0
C1980 C 0.24604 0.68249 0.48409 0.0
C1981 C 0.21427 0.64892 0.47937 0.0
C1982 C 0.18053 0.64829 0.47707 0.0
C1983 C 0.17994 0.6814 0.47745 0.0
C1984 C 0.28242 0.68443 0.48712 0.0
C1985 C 0.14584 0.61339 0.47212 0.0
H1986 H 0.23 0.58014 0.43661 0.0
H1987 H 0.19938 0.53154 0.48719 0.0
H1988 H 0.21041 0.64896 0.44234 0.0
H1989 H 0.25789 0.67042 0.44823 0.0
H1990 H 0.24087 0.63857 0.43038 0.0
H1991 H 0.20154 0.56657 0.5115 0.0
H1992 H 0.22156 0.61575 0.50941 0.0
H1993 H 0.17364 0.58604 0.50524 0.0
H1994 H 0.26968 0.74129 0.48632 0.0
H1995 H 0.15476 0.68117 0.47408 0.0
H1996 H 0.29519 0.685 0.47449 0.0
H1997 H 0.27867 0.65992 0.4943 0.0
H1998 H 0.30175 0.70961 0.49442 0.0
H1999 H 0.14811 0.60617 0.45853 0.0
H2000 H 0.1211 0.61637 0.47318 0.0
H2001 H 0.14189 0.59015 0.48039 0.0
C2002 C 0.44385 0.61892 0.45684 0.0
C2003 C 0.47001 0.64415 0.46843 0.0
C2004 C 0.40905 0.59166 0.46246 0.0
C2005 C 0.39984 0.58925 0.48022 0.0
C2006 C 0.42553 0.6155 0.49196 0.0
C2007 C 0.46035 0.64272 0.48592 0.0
C2008 C 0.38245 0.56478 0.44933 0.0
C2009 C 0.41684 0.6141 0.51096 0.0
C2010 C 0.29729 0.52596 0.48426 0.0
C2011 C 0.29568 0.49182 0.48456 0.0
C2012 C 0.33132 0.55893 0.48499 0.0
C2013 C 0.36423 0.55745 0.48619 0.0
C2014 C 0.36203 0.52309 0.48905 0.0
C2015 C 0.32776 0.49065 0.488 0.0
C2016 C 0.33211 0.59486 0.48216 0.0
C2017 C 0.39618 0.52009 0.49083 0.0
H2018 H 0.45061 0.62046 0.44324 0.0
H2019 H 0.48036 0.66216 0.49496 0.0
H2020 H 0.37679 0.5366 0.45236 0.0
H2021 H 0.35592 0.56445 0.4499 0.0
H2022 H 0.39317 0.57157 0.43591 0.0
H2023 H 0.43635 0.64003 0.5177 0.0
H2024 H 0.38846 0.60882 0.51291 0.0
H2025 H 0.41859 0.59115 0.51707 0.0
H2026 H 0.27264 0.52706 0.4814 0.0
H2027 H 0.32659 0.46425 0.48804 0.0
H2028 H 0.33775 0.6026 0.46832 0.0
H2029 H 0.35423 0.61729 0.4899 0.0
H2030 H 0.30538 0.59265 0.48554 0.0
H2031 H 0.40882 0.5231 0.47789 0.0
H2032 H 0.38988 0.49308 0.49626 0.0
H2033 H 0.41673 0.54228 0.49924 0.0
loop_
_geom_bond_atom_site_label_1
_geom_bond_atom_site_label_2
_geom_bond_distance
_geom_bond_site_symmetry_2
_ccdc_geom_bond_type
C0 C1 1.351 . S
C0 N3 1.368 . S
C0 H5 0.931 . S
C1 C0 1.351 . S
C1 N2 1.373 . S
C1 H29 0.930 . S
N2 C1 1.373 . S
N2 C4 1.340 . S
N3 C0 1.368 . S
N3 C4 1.321 . S
N3 Co6 2.135 . S
C4 N2 1.340 . S
C4 N3 1.321 . S
C4 H28 0.930 . S
H5 C0 0.931 . S
Co6 N3 2.135 . S
Co6 N9 2.121 . S
Co6 O14 2.055 . S
Co6 O17 2.039 . S
Co6 N20 2.140 . S
C7 O8 1.227 . S
C7 O17 1.265 . S
O8 C7 1.227 . S
N9 Co6 2.121 . S
N9 C11 1.375 . S
N9 C12 1.313 . S
C10 C11 1.338 1_655 S
C10 N13 1.393 . S
C10 H30 0.930 . S
C11 N9 1.375 . S
C11 C10 1.338 1_455 S
C11 H15 0.931 . S
C12 N9 1.313 . S
C12 N13 1.320 1_455 S
C12 H16 0.930 . S
N13 C10 1.393 . S
N13 C12 1.320 1_655 S
O14 Co6 2.055 . S
O14 C18 1.253 . S
H15 C11 0.931 . S
H16 C12 0.930 . S
O17 Co6 2.039 . S
O17 C7 1.265 . S
C18 O14 1.253 . S
C18 O19 1.227 . S
O19 C18 1.227 . S
N20 Co6 2.140 . S
N20 C23 1.346 . S
N20 C24 1.345 . S
C21 C22 1.387 . S
C21 C25 1.391 . S
C22 C21 1.387 . S
C22 C23 1.369 . S
C22 H31 0.929 . S
C23 N20 1.346 . S
C23 C22 1.369 . S
C23 H26 0.928 . S
C24 N20 1.345 . S
C24 C25 1.371 . S
C24 H27 0.931 . S
C25 C21 1.391 . S
C25 C24 1.371 . S
C25 H32 0.930 . S
H26 C23 0.928 . S
H27 C24 0.931 . S
H28 C4 0.930 . S
H29 C1 0.930 . S
H30 C10 0.930 . S
H31 C22 0.929 . S
H32 C25 0.930 . S
C33 C34 1.351 . S
C33 N36 1.368 . S
C33 H38 0.931 . S
C34 C33 1.351 . S
C34 N35 1.373 . S
C34 H62 0.930 . S
N35 C34 1.373 . S
N35 C37 1.340 . S
N36 C33 1.368 . S
N36 C37 1.321 . S
N36 Co39 2.135 . S
C37 N35 1.340 . S
C37 N36 1.321 . S
C37 H61 0.930 . S
H38 C33 0.931 . S
Co39 N36 2.135 . S
Co39 N42 2.121 . S
Co39 O47 2.055 . S
Co39 O50 2.039 . S
Co39 N53 2.140 . S
C40 O41 1.227 . S
C40 O50 1.265 . S
O41 C40 1.227 . S
N42 Co39 2.121 . S
N42 C44 1.375 . S
N42 C45 1.313 . S
C43 C44 1.338 . S
C43 N46 1.377 . S
C43 H63 0.930 . S
C44 N42 1.375 . S
C44 C43 1.338 . S
C44 H48 0.931 . S
C45 N42 1.313 . S
C45 N46 1.344 . S
C45 H49 0.930 . S
N46 C43 1.377 . S
N46 C45 1.344 . S
O47 Co39 2.055 . S
O47 C51 1.253 . S
H48 C44 0.931 . S
H49 C45 0.930 . S
O50 Co39 2.039 . S
O50 C40 1.265 . S
C51 O47 1.253 . S
C51 O52 1.227 . S
O52 C51 1.227 . S
N53 Co39 2.140 . S
N53 C56 1.346 . S
N53 C57 1.345 . S
C54 C55 1.387 . S
C54 C58 1.391 . S
C55 C54 1.387 . S
C55 C56 1.369 . S
C55 H64 0.929 . S
C56 N53 1.346 . S
C56 C55 1.369 . S
C56 H59 0.928 . S
C57 N53 1.345 . S
C57 C58 1.371 . S
C57 H60 0.931 . S
C58 C54 1.391 . S
C58 C57 1.371 . S
C58 H65 0.930 . S
H59 C56 0.928 . S
H60 C57 0.931 . S
H61 C37 0.930 . S
H62 C34 0.930 . S
H63 C43 0.930 . S
H64 C55 0.929 . S
H65 C58 0.930 . S
C66 C67 1.351 . S
C66 N69 1.368 . S
C66 H71 0.931 . S
C67 C66 1.351 . S
C67 N68 1.373 . S
C67 H95 0.930 . S
N68 C67 1.373 . S
N68 C70 1.340 . S
N69 C66 1.368 . S
N69 C70 1.321 . S
N69 Co72 2.135 . S
C70 N68 1.340 . S
C70 N69 1.321 . S
C70 H94 0.930 . S
H71 C66 0.931 . S
Co72 N69 2.135 . S
Co72 N75 2.121 . S
Co72 O80 2.055 . S
Co72 O83 2.039 . S
Co72 N86 2.140 . S
C73 O74 1.227 . S
C73 O83 1.265 . S
O74 C73 1.227 . S
N75 Co72 2.121 . S
N75 C77 1.375 . S
N75 C78 1.313 . S
C76 C77 1.338 1_545 S
C76 N79 1.377 1_545 S
C76 H96 0.930 . S
C77 N75 1.375 . S
C77 C76 1.338 1_565 S
C77 H81 0.931 . S
C78 N75 1.313 . S
C78 N79 1.344 . S
C78 H82 0.930 . S
N79 C76 1.377 1_565 S
N79 C78 1.344 . S
O80 Co72 2.055 . S
O80 C84 1.253 . S
H81 C77 0.931 . S
H82 C78 0.930 . S
O83 Co72 2.039 . S
O83 C73 1.265 . S
C84 O80 1.253 . S
C84 O85 1.227 . S
O85 C84 1.227 . S
N86 Co72 2.140 . S
N86 C89 1.346 . S
N86 C90 1.345 . S
C87 C88 1.387 . S
C87 C91 1.391 . S
C88 C87 1.387 . S
C88 C89 1.369 . S
C88 H97 0.929 . S
C89 N86 1.346 . S
C89 C88 1.369 . S
C89 H92 0.928 . S
C90 N86 1.345 . S
C90 C91 1.371 . S
C90 H93 0.931 . S
C91 C87 1.391 . S
C91 C90 1.371 . S
C91 H98 0.930 . S
H92 C89 0.928 . S
H93 C90 0.931 . S
H94 C70 0.930 . S
H95 C67 0.930 . S
H96 C76 0.930 . S
H97 C88 0.929 . S
H98 C91 0.930 . S
C99 C100 1.351 . S
C99 N102 1.368 . S
C99 H104 0.931 . S
C100 C99 1.351 . S
C100 N101 1.373 . S
C100 H128 0.930 . S
N101 C100 1.373 . S
N101 C103 1.340 . S
N102 C99 1.368 . S
N102 C103 1.321 . S
N102 Co105 2.135 . S
C103 N101 1.340 . S
C103 N102 1.321 . S
C103 H127 0.930 . S
H104 C99 0.931 . S
Co105 N102 2.135 . S
Co105 N108 2.121 . S
Co105 O113 2.055 . S
Co105 O116 2.039 . S
Co105 N119 2.140 . S
C106 O107 1.227 . S
C106 O116 1.265 . S
O107 C106 1.227 . S
N108 Co105 2.121 . S
N108 C110 1.375 . S
N108 C111 1.313 . S
C109 C110 1.338 1_565 S
C109 N112 1.393 . S
C109 H129 0.930 . S
C110 N108 1.375 . S
C110 C109 1.338 1_545 S
C110 H114 0.931 . S
C111 N108 1.313 . S
C111 N112 1.320 1_545 S
C111 H115 0.930 . S
N112 C109 1.393 . S
N112 C111 1.320 1_565 S
O113 Co105 2.055 . S
O113 C117 1.253 . S
H114 C110 0.931 . S
H115 C111 0.930 . S
O116 Co105 2.039 . S
O116 C106 1.265 . S
C117 O113 1.253 . S
C117 O118 1.227 . S
O118 C117 1.227 . S
N119 Co105 2.140 . S
N119 C122 1.346 . S
N119 C123 1.345 . S
C120 C121 1.387 . S
C120 C124 1.391 . S
C121 C120 1.387 . S
C121 C122 1.369 . S
C121 H130 0.929 . S
C122 N119 1.346 . S
C122 C121 1.369 . S
C122 H125 0.928 . S
C123 N119 1.345 . S
C123 C124 1.371 . S
C123 H126 0.931 . S
C124 C120 1.391 . S
C124 C123 1.371 . S
C124 H131 0.930 . S
H125 C122 0.928 . S
H126 C123 0.931 . S
H127 C103 0.930 . S
H128 C100 0.930 . S
H129 C109 0.930 . S
H130 C121 0.929 . S
H131 C124 0.930 . S
C132 C133 1.351 . S
C132 N135 1.368 . S
C132 H137 0.931 . S
C133 C132 1.351 . S
C133 N134 1.373 . S
C133 H161 0.930 . S
N134 C133 1.373 . S
N134 C136 1.340 . S
N135 C132 1.368 . S
N135 C136 1.321 . S
N135 Co138 2.135 . S
C136 N134 1.340 . S
C136 N135 1.321 . S
C136 H160 0.930 . S
H137 C132 0.931 . S
Co138 N135 2.135 . S
Co138 N141 2.121 . S
Co138 O146 2.055 . S
Co138 O149 2.039 . S
Co138 N152 2.140 . S
C139 O140 1.227 . S
C139 O149 1.265 . S
O140 C139 1.227 . S
N141 Co138 2.121 . S
N141 C143 1.375 . S
N141 C144 1.313 . S
C142 C143 1.338 1_455 S
C142 N145 1.377 1_455 S
C142 H162 0.930 . S
C143 N141 1.375 . S
C143 C142 1.338 1_655 S
C143 H147 0.931 . S
C144 N141 1.313 . S
C144 N145 1.344 . S
C144 H148 0.930 . S
N145 C142 1.377 1_655 S
N145 C144 1.344 . S
O146 Co138 2.055 . S
O146 C150 1.253 . S
H147 C143 0.931 . S
H148 C144 0.930 . S
O149 Co138 2.039 . S
O149 C139 1.265 . S
C150 O146 1.253 . S
C150 O151 1.227 . S
O151 C150 1.227 . S
N152 Co138 2.140 . S
N152 C155 1.346 . S
N152 C156 1.345 . S
C153 C154 1.387 . S
C153 C157 1.391 . S
C154 C153 1.387 . S
C154 C155 1.369 . S
C154 H163 0.929 . S
C155 N152 1.346 . S
C155 C154 1.369 . S
C155 H158 0.928 . S
C156 N152 1.345 . S
C156 C157 1.371 . S
C156 H159 0.931 . S
C157 C153 1.391 . S
C157 C156 1.371 . S
C157 H164 0.930 . S
H158 C155 0.928 . S
H159 C156 0.931 . S
H160 C136 0.930 . S
H161 C133 0.930 . S
H162 C142 0.930 . S
H163 C154 0.929 . S
H164 C157 0.930 . S
C165 C166 1.351 . S
C165 N168 1.368 . S
C165 H170 0.931 . S
C166 C165 1.351 . S
C166 N167 1.373 . S
C166 H194 0.930 . S
N167 C166 1.373 . S
N167 C169 1.340 . S
N168 C165 1.368 . S
N168 C169 1.321 . S
N168 Co171 2.135 . S
C169 N167 1.340 . S
C169 N168 1.321 . S
C169 H193 0.930 . S
H170 C165 0.931 . S
Co171 N168 2.135 . S
Co171 N174 2.121 . S
Co171 O179 2.055 . S
Co171 O182 2.039 . S
Co171 N185 2.140 . S
C172 O173 1.227 . S
C172 O182 1.265 . S
O173 C172 1.227 . S
N174 Co171 2.121 . S
N174 C176 1.375 . S
N174 C177 1.313 . S
C175 C176 1.338 . S
C175 N178 1.377 . S
C175 H195 0.930 . S
C176 N174 1.375 . S
C176 C175 1.338 . S
C176 H180 0.931 . S
C177 N174 1.313 . S
C177 N178 1.344 . S
C177 H181 0.930 . S
N178 C175 1.377 . S
N178 C177 1.344 . S
O179 Co171 2.055 . S
O179 C183 1.253 . S
H180 C176 0.931 . S
H181 C177 0.930 . S
O182 Co171 2.039 . S
O182 C172 1.265 . S
C183 O179 1.253 . S
C183 O184 1.227 . S
O184 C183 1.227 . S
N185 Co171 2.140 . S
N185 C188 1.346 . S
N185 C189 1.345 . S
C186 C187 1.387 . S
C186 C190 1.391 . S
C187 C186 1.387 . S
C187 C188 1.369 . S
C187 H196 0.929 . S
C188 N185 1.346 . S
C188 C187 1.369 . S
C188 H191 0.928 . S
C189 N185 1.345 . S
C189 C190 1.371 . S
C189 H192 0.931 . S
C190 C186 1.391 . S
C190 C189 1.371 . S
C190 H197 0.930 . S
H191 C188 0.928 . S
H192 C189 0.931 . S
H193 C169 0.930 . S
H194 C166 0.930 . S
H195 C175 0.930 . S
H196 C187 0.929 . S
H197 C190 0.930 . S
C198 C199 1.351 . S
C198 N201 1.368 . S
C198 H203 0.931 . S
C199 C198 1.351 . S
C199 N200 1.373 . S
C199 H227 0.930 . S
N200 C199 1.373 . S
N200 C202 1.340 . S
N201 C198 1.368 . S
N201 C202 1.321 . S
N201 Co204 2.135 . S
C202 N200 1.340 . S
C202 N201 1.321 . S
C202 H226 0.930 . S
H203 C198 0.931 . S
Co204 N201 2.135 . S
Co204 N207 2.121 . S
Co204 O212 2.055 . S
Co204 O215 2.039 . S
Co204 N218 2.140 . S
C205 O206 1.227 . S
C205 O215 1.265 . S
O206 C205 1.227 . S
N207 Co204 2.121 . S
N207 C209 1.375 . S
N207 C210 1.313 . S
C208 C209 1.338 . S
C208 N211 1.377 . S
C208 H228 0.930 . S
C209 N207 1.375 . S
C209 C208 1.338 . S
C209 H213 0.931 . S
C210 N207 1.313 . S
C210 N211 1.344 . S
C210 H214 0.930 . S
N211 C208 1.377 . S
N211 C210 1.344 . S
O212 Co204 2.055 . S
O212 C216 1.253 . S
H213 C209 0.931 . S
H214 C210 0.930 . S
O215 Co204 2.039 . S
O215 C205 1.265 . S
C216 O212 1.253 . S
C216 O217 1.227 . S
O217 C216 1.227 . S
N218 Co204 2.140 . S
N218 C221 1.346 . S
N218 C222 1.345 . S
C219 C220 1.387 . S
C219 C223 1.391 . S
C220 C219 1.387 . S
C220 C221 1.369 . S
C220 H229 0.929 . S
C221 N218 1.346 . S
C221 C220 1.369 . S
C221 H224 0.928 . S
C222 N218 1.345 . S
C222 C223 1.371 . S
C222 H225 0.931 . S
C223 C219 1.391 . S
C223 C222 1.371 . S
C223 H230 0.930 . S
H224 C221 0.928 . S
H225 C222 0.931 . S
H226 C202 0.930 . S
H227 C199 0.930 . S
H228 C208 0.930 . S
H229 C220 0.929 . S
H230 C223 0.930 . S
C231 C232 1.351 . S
C231 N234 1.368 . S
C231 H236 0.931 . S
C232 C231 1.351 . S
C232 N233 1.373 . S
C232 H260 0.930 . S
N233 C232 1.373 . S
N233 C235 1.340 . S
N234 C231 1.368 . S
N234 C235 1.321 . S
N234 Co237 2.135 . S
C235 N233 1.340 . S
C235 N234 1.321 . S
C235 H259 0.930 . S
H236 C231 0.931 . S
Co237 N234 2.135 . S
Co237 N240 2.121 . S
Co237 O245 2.055 . S
Co237 O248 2.039 . S
Co237 N251 2.140 . S
C238 O239 1.227 . S
C238 O248 1.265 . S
O239 C238 1.227 . S
N240 Co237 2.121 . S
N240 C242 1.375 . S
N240 C243 1.313 . S
C241 C242 1.338 . S
C241 N244 1.377 . S
C241 H261 0.930 . S
C242 N240 1.375 . S
C242 C241 1.338 . S
C242 H246 0.931 . S
C243 N240 1.313 . S
C243 N244 1.344 . S
C243 H247 0.930 . S
N244 C241 1.377 . S
N244 C243 1.344 . S
O245 Co237 2.055 . S
O245 C249 1.253 . S
H246 C242 0.931 . S
H247 C243 0.930 . S
O248 Co237 2.039 . S
O248 C238 1.265 . S
C249 O245 1.253 . S
C249 O250 1.227 . S
O250 C249 1.227 . S
N251 Co237 2.140 . S
N251 C254 1.346 . S
N251 C255 1.345 . S
C252 C253 1.387 . S
C252 C256 1.391 . S
C253 C252 1.387 . S
C253 C254 1.369 . S
C253 H262 0.929 . S
C254 N251 1.346 . S
C254 C253 1.369 . S
C254 H257 0.928 . S
C255 N251 1.345 . S
C255 C256 1.371 . S
C255 H258 0.931 . S
C256 C252 1.391 . S
C256 C255 1.371 . S
C256 H263 0.930 . S
H257 C254 0.928 . S
H258 C255 0.931 . S
H259 C235 0.930 . S
H260 C232 0.930 . S
H261 C241 0.930 . S
H262 C253 0.929 . S
H263 C256 0.930 . S
C264 C265 1.351 . S
C264 N267 1.368 . S
C264 H269 0.931 . S
C265 C264 1.351 . S
C265 N266 1.373 . S
C265 H293 0.930 . S
N266 C265 1.373 . S
N266 C268 1.340 . S
N267 C264 1.368 . S
N267 C268 1.321 . S
N267 Co270 2.135 . S
C268 N266 1.340 . S
C268 N267 1.321 . S
C268 H292 0.930 . S
H269 C264 0.931 . S
Co270 N267 2.135 . S
Co270 N273 2.121 . S
Co270 O278 2.055 . S
Co270 O281 2.039 . S
Co270 N284 2.140 . S
C271 O272 1.227 . S
C271 O281 1.265 . S
O272 C271 1.227 . S
N273 Co270 2.121 . S
N273 C275 1.375 . S
N273 C276 1.313 . S
C274 C275 1.338 . S
C274 N277 1.377 . S
C274 H294 0.930 . S
C275 N273 1.375 . S
C275 C274 1.338 . S
C275 H279 0.931 . S
C276 N273 1.313 . S
C276 N277 1.344 . S
C276 H280 0.930 . S
N277 C274 1.377 . S
N277 C276 1.344 . S
O278 Co270 2.055 . S
O278 C282 1.253 . S
H279 C275 0.931 . S
H280 C276 0.930 . S
O281 Co270 2.039 . S
O281 C271 1.265 . S
C282 O278 1.253 . S
C282 O283 1.227 . S
O283 C282 1.227 . S
N284 Co270 2.140 . S
N284 C287 1.346 . S
N284 C288 1.345 . S
C285 C286 1.387 . S
C285 C289 1.391 . S
C286 C285 1.387 . S
C286 C287 1.369 . S
C286 H295 0.929 . S
C287 N284 1.346 . S
C287 C286 1.369 . S
C287 H290 0.928 . S
C288 N284 1.345 . S
C288 C289 1.371 . S
C288 H291 0.931 . S
C289 C285 1.391 . S
C289 C288 1.371 . S
C289 H296 0.930 . S
H290 C287 0.928 . S
H291 C288 0.931 . S
H292 C268 0.930 . S
H293 C265 0.930 . S
H294 C274 0.930 . S
H295 C286 0.929 . S
H296 C289 0.930 . S
C297 C298 1.351 . S
C297 N300 1.368 . S
C297 H302 0.931 . S
C298 C297 1.351 . S
C298 N299 1.373 . S
C298 H326 0.930 . S
N299 C298 1.373 . S
N299 C301 1.340 . S
N300 C297 1.368 . S
N300 C301 1.321 . S
N300 Co303 2.135 . S
C301 N299 1.340 . S
C301 N300 1.321 . S
C301 H325 0.930 . S
H302 C297 0.931 . S
Co303 N300 2.135 . S
Co303 N306 2.121 . S
Co303 O311 2.055 . S
Co303 O314 2.039 . S
Co303 N317 2.140 . S
C304 O305 1.227 . S
C304 O314 1.265 . S
O305 C304 1.227 . S
N306 Co303 2.121 . S
N306 C308 1.375 . S
N306 C309 1.313 . S
C307 C308 1.338 . S
C307 N310 1.377 . S
C307 H327 0.930 . S
C308 N306 1.375 . S
C308 C307 1.338 . S
C308 H312 0.931 . S
C309 N306 1.313 . S
C309 N310 1.344 . S
C309 H313 0.930 . S
N310 C307 1.377 . S
N310 C309 1.344 . S
O311 Co303 2.055 . S
O311 C315 1.253 . S
H312 C308 0.931 . S
H313 C309 0.930 . S
O314 Co303 2.039 . S
O314 C304 1.265 . S
C315 O311 1.253 . S
C315 O316 1.227 . S
O316 C315 1.227 . S
N317 Co303 2.140 . S
N317 C320 1.346 . S
N317 C321 1.345 . S
C318 C319 1.387 . S
C318 C322 1.391 . S
C319 C318 1.387 . S
C319 C320 1.369 . S
C319 H328 0.929 1_655 S
C320 N317 1.346 . S
C320 C319 1.369 . S
C320 H323 0.928 . S
C321 N317 1.345 . S
C321 C322 1.371 . S
C321 H324 0.931 . S
C322 C318 1.391 . S
C322 C321 1.371 . S
C322 H329 0.930 . S
H323 C320 0.928 . S
H324 C321 0.931 . S
H325 C301 0.930 . S
H326 C298 0.930 . S
H327 C307 0.930 . S
H328 C319 0.929 1_455 S
H329 C322 0.930 . S
C330 C331 1.351 . S
C330 N333 1.368 . S
C330 H335 0.931 . S
C331 C330 1.351 . S
C331 N332 1.373 . S
C331 H359 0.930 . S
N332 C331 1.373 . S
N332 C334 1.340 . S
N333 C330 1.368 . S
N333 C334 1.321 . S
N333 Co336 2.135 . S
C334 N332 1.340 . S
C334 N333 1.321 . S
C334 H358 0.930 . S
H335 C330 0.931 . S
Co336 N333 2.135 . S
Co336 N339 2.121 . S
Co336 O344 2.055 . S
Co336 O347 2.039 . S
Co336 N350 2.140 . S
C337 O338 1.227 . S
C337 O347 1.265 . S
O338 C337 1.227 . S
N339 Co336 2.121 . S
N339 C341 1.375 . S
N339 C342 1.313 . S
C340 C341 1.338 . S
C340 N343 1.377 . S
C340 H360 0.930 . S
C341 N339 1.375 . S
C341 C340 1.338 . S
C341 H345 0.931 . S
C342 N339 1.313 . S
C342 N343 1.344 . S
C342 H346 0.930 . S
N343 C340 1.377 . S
N343 C342 1.344 . S
O344 Co336 2.055 . S
O344 C348 1.253 . S
H345 C341 0.931 . S
H346 C342 0.930 . S
O347 Co336 2.039 . S
O347 C337 1.265 . S
C348 O344 1.253 . S
C348 O349 1.227 . S
O349 C348 1.227 . S
N350 Co336 2.140 . S
N350 C353 1.346 . S
N350 C354 1.345 . S
C351 C352 1.387 . S
C351 C355 1.391 . S
C352 C351 1.387 . S
C352 C353 1.369 . S
C352 H361 0.929 . S
C353 N350 1.346 . S
C353 C352 1.369 . S
C353 H356 0.928 . S
C354 N350 1.345 . S
C354 C355 1.371 . S
C354 H357 0.931 . S
C355 C351 1.391 . S
C355 C354 1.371 . S
C355 H362 0.930 . S
H356 C353 0.928 . S
H357 C354 0.931 . S
H358 C334 0.930 . S
H359 C331 0.930 . S
H360 C340 0.930 . S
H361 C352 0.929 . S
H362 C355 0.930 . S
C363 C364 1.351 . S
C363 N366 1.368 . S
C363 H368 0.931 . S
C364 C363 1.351 . S
C364 N365 1.371 1_545 S
C364 H392 0.930 . S
N365 C364 1.371 1_565 S
N365 C367 1.332 1_565 S
N366 C363 1.368 . S
N366 C367 1.321 . S
N366 Co369 2.135 . S
C367 N365 1.332 1_545 S
C367 N366 1.321 . S
C367 H391 0.930 . S
H368 C363 0.931 . S
Co369 N366 2.135 . S
Co369 N372 2.121 . S
Co369 O377 2.055 . S
Co369 O380 2.039 . S
Co369 N383 2.140 . S
C370 O371 1.227 . S
C370 O380 1.265 . S
O371 C370 1.227 . S
N372 Co369 2.121 . S
N372 C374 1.375 . S
N372 C375 1.313 . S
C373 C374 1.338 . S
C373 N376 1.377 . S
C373 H393 0.930 . S
C374 N372 1.375 . S
C374 C373 1.338 . S
C374 H378 0.931 . S
C375 N372 1.313 . S
C375 N376 1.344 . S
C375 H379 0.930 . S
N376 C373 1.377 . S
N376 C375 1.344 . S
O377 Co369 2.055 . S
O377 C381 1.253 . S
H378 C374 0.931 . S
H379 C375 0.930 . S
O380 Co369 2.039 . S
O380 C370 1.265 . S
C381 O377 1.253 . S
C381 O382 1.227 . S
O382 C381 1.227 . S
N383 Co369 2.140 . S
N383 C386 1.346 . S
N383 C387 1.345 . S
C384 C385 1.387 . S
C384 C388 1.391 . S
C385 C384 1.387 . S
C385 C386 1.369 . S
C385 H394 0.929 1_545 S
C386 N383 1.346 . S
C386 C385 1.369 . S
C386 H389 0.928 . S
C387 N383 1.345 . S
C387 C388 1.371 . S
C387 H390 0.931 . S
C388 C384 1.391 . S
C388 C387 1.371 . S
C388 H395 0.930 . S
H389 C386 0.928 . S
H390 C387 0.931 . S
H391 C367 0.930 . S
H392 C364 0.930 . S
H393 C373 0.930 . S
H394 C385 0.929 1_565 S
H395 C388 0.930 . S
C396 C397 1.351 . S
C396 N399 1.368 . S
C396 H401 0.931 . S
C397 C396 1.351 . S
C397 N398 1.373 . S
C397 H425 0.930 . S
N398 C397 1.373 . S
N398 C400 1.340 . S
N399 C396 1.368 . S
N399 C400 1.321 . S
N399 Co402 2.135 . S
C400 N398 1.340 . S
C400 N399 1.321 . S
C400 H424 0.930 . S
H401 C396 0.931 . S
Co402 N399 2.135 . S
Co402 N405 2.121 . S
Co402 O410 2.055 . S
Co402 O413 2.039 . S
Co402 N416 2.140 . S
C403 O404 1.227 . S
C403 O413 1.265 . S
O404 C403 1.227 . S
N405 Co402 2.121 . S
N405 C407 1.375 . S
N405 C408 1.313 . S
C406 C407 1.338 . S
C406 N409 1.377 . S
C406 H426 0.930 . S
C407 N405 1.375 . S
C407 C406 1.338 . S
C407 H411 0.931 . S
C408 N405 1.313 . S
C408 N409 1.344 . S
C408 H412 0.930 . S
N409 C406 1.377 . S
N409 C408 1.344 . S
O410 Co402 2.055 . S
O410 C414 1.253 . S
H411 C407 0.931 . S
H412 C408 0.930 . S
O413 Co402 2.039 . S
O413 C403 1.265 . S
C414 O410 1.253 . S
C414 O415 1.227 . S
O415 C414 1.227 . S
N416 Co402 2.140 . S
N416 C419 1.346 . S
N416 C420 1.345 . S
C417 C418 1.387 . S
C417 C421 1.391 . S
C418 C417 1.387 . S
C418 C419 1.369 . S
C418 H427 0.929 1_565 S
C419 N416 1.346 . S
C419 C418 1.369 . S
C419 H422 0.928 . S
C420 N416 1.345 . S
C420 C421 1.371 . S
C420 H423 0.931 . S
C421 C417 1.391 . S
C421 C420 1.371 . S
C421 H428 0.930 . S
H422 C419 0.928 . S
H423 C420 0.931 . S
H424 C400 0.930 . S
H425 C397 0.930 . S
H426 C406 0.930 . S
H427 C418 0.929 1_545 S
H428 C421 0.930 . S
C429 C430 1.351 . S
C429 N432 1.368 . S
C429 H434 0.931 . S
C430 C429 1.351 . S
C430 N431 1.371 1_455 S
C430 H458 0.930 . S
N431 C430 1.371 1_655 S
N431 C433 1.332 1_655 S
N432 C429 1.368 . S
N432 C433 1.321 . S
N432 Co435 2.135 . S
C433 N431 1.332 1_455 S
C433 N432 1.321 . S
C433 H457 0.930 . S
H434 C429 0.931 . S
Co435 N432 2.135 . S
Co435 N438 2.121 . S
Co435 O443 2.055 . S
Co435 O446 2.039 . S
Co435 N449 2.140 . S
C436 O437 1.227 . S
C436 O446 1.265 . S
O437 C436 1.227 . S
N438 Co435 2.121 . S
N438 C440 1.375 . S
N438 C441 1.313 . S
C439 C440 1.338 . S
C439 N442 1.377 . S
C439 H459 0.930 . S
C440 N438 1.375 . S
C440 C439 1.338 . S
C440 H444 0.931 . S
C441 N438 1.313 . S
C441 N442 1.344 . S
C441 H445 0.930 . S
N442 C439 1.377 . S
N442 C441 1.344 . S
O443 Co435 2.055 . S
O443 C447 1.253 . S
H444 C440 0.931 . S
H445 C441 0.930 . S
O446 Co435 2.039 . S
O446 C436 1.265 . S
C447 O443 1.253 . S
C447 O448 1.227 . S
O448 C447 1.227 . S
N449 Co435 2.140 . S
N449 C452 1.346 . S
N449 C453 1.345 . S
C450 C451 1.387 . S
C450 C454 1.391 . S
C451 C450 1.387 . S
C451 C452 1.369 . S
C451 H460 0.929 1_455 S
C452 N449 1.346 . S
C452 C451 1.369 . S
C452 H455 0.928 . S
C453 N449 1.345 . S
C453 C454 1.371 . S
C453 H456 0.931 . S
C454 C450 1.391 . S
C454 C453 1.371 . S
C454 H461 0.930 . S
H455 C452 0.928 . S
H456 C453 0.931 . S
H457 C433 0.930 . S
H458 C430 0.930 . S
H459 C439 0.930 . S
H460 C451 0.929 1_655 S
H461 C454 0.930 . S
C462 C463 1.351 . S
C462 N465 1.368 . S
C462 H467 0.931 . S
C463 C462 1.351 . S
C463 N464 1.373 . S
C463 H491 0.930 . S
N464 C463 1.373 . S
N464 C466 1.340 . S
N465 C462 1.368 . S
N465 C466 1.321 . S
N465 Co468 2.135 . S
C466 N464 1.340 . S
C466 N465 1.321 . S
C466 H490 0.930 . S
H467 C462 0.931 . S
Co468 N465 2.135 . S
Co468 N471 2.121 . S
Co468 O476 2.055 . S
Co468 O479 2.039 . S
Co468 N482 2.140 . S
C469 O470 1.227 . S
C469 O479 1.265 . S
O470 C469 1.227 . S
N471 Co468 2.121 . S
N471 C473 1.375 . S
N471 C474 1.313 . S
C472 C473 1.338 . S
C472 N475 1.377 . S
C472 H492 0.930 . S
C473 N471 1.375 . S
C473 C472 1.338 . S
C473 H477 0.931 . S
C474 N471 1.313 . S
C474 N475 1.344 . S
C474 H478 0.930 . S
N475 C472 1.377 . S
N475 C474 1.344 . S
O476 Co468 2.055 . S
O476 C480 1.253 . S
H477 C473 0.931 . S
H478 C474 0.930 . S
O479 Co468 2.039 . S
O479 C469 1.265 . S
C480 O476 1.253 . S
C480 O481 1.227 . S
O481 C480 1.227 . S
N482 Co468 2.140 . S
N482 C485 1.346 . S
N482 C486 1.345 . S
C483 C484 1.387 . S
C483 C487 1.391 . S
C484 C483 1.387 . S
C484 C485 1.369 . S
C484 H493 0.929 . S
C485 N482 1.346 . S
C485 C484 1.369 . S
C485 H488 0.928 . S
C486 N482 1.345 . S
C486 C487 1.371 . S
C486 H489 0.931 . S
C487 C483 1.391 . S
C487 C486 1.371 . S
C487 H494 0.930 . S
H488 C485 0.928 . S
H489 C486 0.931 . S
H490 C466 0.930 . S
H491 C463 0.930 . S
H492 C472 0.930 . S
H493 C484 0.929 . S
H494 C487 0.930 . S
C495 C496 1.351 . S
C495 N498 1.368 . S
C495 H500 0.931 . S
C496 C495 1.351 . S
C496 N497 1.373 . S
C496 H524 0.930 . S
N497 C496 1.373 . S
N497 C499 1.340 . S
N498 C495 1.368 . S
N498 C499 1.321 . S
N498 Co501 2.135 . S
C499 N497 1.340 . S
C499 N498 1.321 . S
C499 H523 0.930 . S
H500 C495 0.931 . S
Co501 N498 2.135 . S
Co501 N504 2.121 . S
Co501 O509 2.055 . S
Co501 O512 2.039 . S
Co501 N515 2.140 . S
C502 O503 1.227 . S
C502 O512 1.265 . S
O503 C502 1.227 . S
N504 Co501 2.121 . S
N504 C506 1.375 . S
N504 C507 1.313 . S
C505 C506 1.338 . S
C505 N508 1.377 . S
C505 H525 0.930 . S
C506 N504 1.375 . S
C506 C505 1.338 . S
C506 H510 0.931 . S
C507 N504 1.313 . S
C507 N508 1.344 . S
C507 H511 0.930 . S
N508 C505 1.377 . S
N508 C507 1.344 . S
O509 Co501 2.055 . S
O509 C513 1.253 . S
H510 C506 0.931 . S
H511 C507 0.930 . S
O512 Co501 2.039 . S
O512 C502 1.265 . S
C513 O509 1.253 . S
C513 O514 1.227 . S
O514 C513 1.227 . S
N515 Co501 2.140 . S
N515 C518 1.346 . S
N515 C519 1.345 . S
C516 C517 1.387 . S
C516 C520 1.391 . S
C517 C516 1.387 . S
C517 C518 1.369 . S
C517 H526 0.929 . S
C518 N515 1.346 . S
C518 C517 1.369 . S
C518 H521 0.928 . S
C519 N515 1.345 . S
C519 C520 1.371 . S
C519 H522 0.931 . S
C520 C516 1.391 . S
C520 C519 1.371 . S
C520 H527 0.930 . S
H521 C518 0.928 . S
H522 C519 0.931 . S
H523 C499 0.930 . S
H524 C496 0.930 . S
H525 C505 0.930 . S
H526 C517 0.929 . S
H527 C520 0.930 . S
C528 C529 1.351 . S
C528 N531 1.368 . S
C528 H533 0.931 . S
C529 C528 1.351 . S
C529 N530 1.373 . S
C529 H557 0.930 . S
N530 C529 1.373 . S
N530 C532 1.340 . S
N531 C528 1.368 . S
N531 C532 1.321 . S
N531 Co534 2.135 . S
C532 N530 1.340 . S
C532 N531 1.321 . S
C532 H556 0.930 . S
H533 C528 0.931 . S
Co534 N531 2.135 . S
Co534 N537 2.121 . S
Co534 O542 2.055 . S
Co534 O545 2.039 . S
Co534 N548 2.140 . S
C535 O536 1.227 . S
C535 O545 1.265 . S
O536 C535 1.227 . S
N537 Co534 2.121 . S
N537 C539 1.375 . S
N537 C540 1.313 . S
C538 C539 1.338 . S
C538 N541 1.377 . S
C538 H558 0.930 . S
C539 N537 1.375 . S
C539 C538 1.338 . S
C539 H543 0.931 . S
C540 N537 1.313 . S
C540 N541 1.344 . S
C540 H544 0.930 . S
N541 C538 1.377 . S
N541 C540 1.344 . S
O542 Co534 2.055 . S
O542 C546 1.253 . S
H543 C539 0.931 . S
H544 C540 0.930 . S
O545 Co534 2.039 . S
O545 C535 1.265 . S
C546 O542 1.253 . S
C546 O547 1.227 . S
O547 C546 1.227 . S
N548 Co534 2.140 . S
N548 C551 1.346 . S
N548 C552 1.345 . S
C549 C550 1.387 . S
C549 C553 1.391 . S
C550 C549 1.387 . S
C550 C551 1.369 . S
C550 H559 0.929 . S
C551 N548 1.346 . S
C551 C550 1.369 . S
C551 H554 0.928 . S
C552 N548 1.345 . S
C552 C553 1.371 . S
C552 H555 0.931 . S
C553 C549 1.391 . S
C553 C552 1.371 . S
C553 H560 0.930 . S
H554 C551 0.928 . S
H555 C552 0.931 . S
H556 C532 0.930 . S
H557 C529 0.930 . S
H558 C538 0.930 . S
H559 C550 0.929 . S
H560 C553 0.930 . S
C561 C562 1.351 . S
C561 N564 1.368 . S
C561 H566 0.931 . S
C562 C561 1.351 . S
C562 N563 1.373 . S
C562 H590 0.930 . S
N563 C562 1.373 . S
N563 C565 1.340 . S
N564 C561 1.368 . S
N564 C565 1.321 . S
N564 Co567 2.135 . S
C565 N563 1.340 . S
C565 N564 1.321 . S
C565 H589 0.930 . S
H566 C561 0.931 . S
Co567 N564 2.135 . S
Co567 N570 2.121 . S
Co567 O575 2.055 . S
Co567 O578 2.039 . S
Co567 N581 2.140 . S
C568 O569 1.227 . S
C568 O578 1.265 . S
O569 C568 1.227 . S
N570 Co567 2.121 . S
N570 C572 1.375 . S
N570 C573 1.313 . S
C571 C572 1.338 . S
C571 N574 1.377 . S
C571 H591 0.930 . S
C572 N570 1.375 . S
C572 C571 1.338 . S
C572 H576 0.931 . S
C573 N570 1.313 . S
C573 N574 1.344 . S
C573 H577 0.930 . S
N574 C571 1.377 . S
N574 C573 1.344 . S
O575 Co567 2.055 . S
O575 C579 1.253 . S
H576 C572 0.931 . S
H577 C573 0.930 . S
O578 Co567 2.039 . S
O578 C568 1.265 . S
C579 O575 1.253 . S
C579 O580 1.227 . S
O580 C579 1.227 . S
N581 Co567 2.140 . S
N581 C584 1.346 . S
N581 C585 1.345 . S
C582 C583 1.387 . S
C582 C586 1.391 . S
C583 C582 1.387 . S
C583 C584 1.369 . S
C583 H592 0.929 . S
C584 N581 1.346 . S
C584 C583 1.369 . S
C584 H587 0.928 . S
C585 N581 1.345 . S
C585 C586 1.371 . S
C585 H588 0.931 . S
C586 C582 1.391 . S
C586 C585 1.371 . S
C586 H593 0.930 . S
H587 C584 0.928 . S
H588 C585 0.931 . S
H589 C565 0.930 . S
H590 C562 0.930 . S
H591 C571 0.930 . S
H592 C583 0.929 . S
H593 C586 0.930 . S
C594 C595 1.391 . S
C594 C596 1.394 . S
C594 H610 0.931 . S
C595 C594 1.391 . S
C595 C599 1.376 . S
C596 C594 1.394 . S
C596 C597 1.369 . S
C596 C600 1.531 . S
C597 C596 1.369 . S
C597 C598 1.410 . S
C597 C605 1.503 . S
C598 C597 1.410 . S
C598 C599 1.392 . S
C598 C601 1.511 . S
C599 C595 1.376 . S
C599 C598 1.392 . S
C599 H611 0.929 . S
C600 C596 1.531 . S
C600 H612 0.960 . S
C600 H613 0.962 . S
C600 H614 0.960 . S
C601 C598 1.511 . S
C601 H615 0.961 . S
C601 H616 0.961 . S
C601 H617 0.961 . S
C602 C603 1.370 . S
C602 C604 1.363 . S
C602 H618 0.931 . S
C603 C602 1.370 . S
C603 C607 1.408 . S
C604 C602 1.363 . S
C604 C605 1.370 . S
C604 C608 1.524 . S
C605 C597 1.503 . S
C605 C604 1.370 . S
C605 C606 1.403 . S
C606 C605 1.403 . S
C606 C607 1.404 . S
C606 C609 1.539 . S
C607 C603 1.408 . S
C607 C606 1.404 . S
C607 H619 0.930 . S
C608 C604 1.524 . S
C608 H620 0.956 . S
C608 H621 0.961 . S
C608 H622 0.961 . S
C609 C606 1.539 . S
C609 H623 0.958 . S
C609 H624 0.961 . S
C609 H625 0.960 . S
H610 C594 0.931 . S
H611 C599 0.929 . S
H612 C600 0.960 . S
H613 C600 0.962 . S
H614 C600 0.960 . S
H615 C601 0.961 . S
H616 C601 0.961 . S
H617 C601 0.961 . S
H618 C602 0.931 . S
H619 C607 0.930 . S
H620 C608 0.956 . S
H621 C608 0.961 . S
H622 C608 0.961 . S
H623 C609 0.958 . S
H624 C609 0.961 . S
H625 C609 0.960 . S
C626 C627 1.391 . S
C626 C628 1.394 . S
C626 H642 0.931 . S
C627 C626 1.391 . S
C627 C631 1.376 . S
C628 C626 1.394 . S
C628 C629 1.369 . S
C628 C632 1.531 . S
C629 C628 1.369 . S
C629 C630 1.410 . S
C629 C637 1.503 . S
C630 C629 1.410 . S
C630 C631 1.392 . S
C630 C633 1.511 . S
C631 C627 1.376 . S
C631 C630 1.392 . S
C631 H643 0.929 . S
C632 C628 1.531 . S
C632 H644 0.960 . S
C632 H645 0.962 . S
C632 H646 0.960 . S
C633 C630 1.511 . S
C633 H647 0.961 . S
C633 H648 0.961 . S
C633 H649 0.961 . S
C634 C635 1.370 . S
C634 C636 1.363 . S
C634 H650 0.931 . S
C635 C634 1.370 . S
C635 C639 1.408 . S
C636 C634 1.363 . S
C636 C637 1.370 . S
C636 C640 1.524 . S
C637 C629 1.503 . S
C637 C636 1.370 . S
C637 C638 1.403 . S
C638 C637 1.403 . S
C638 C639 1.404 . S
C638 C641 1.539 . S
C639 C635 1.408 . S
C639 C638 1.404 . S
C639 H651 0.930 . S
C640 C636 1.524 . S
C640 H652 0.956 . S
C640 H653 0.961 . S
C640 H654 0.961 . S
C641 C638 1.539 . S
C641 H655 0.958 . S
C641 H656 0.961 . S
C641 H657 0.960 . S
H642 C626 0.931 . S
H643 C631 0.929 . S
H644 C632 0.960 . S
H645 C632 0.962 . S
H646 C632 0.960 . S
H647 C633 0.961 . S
H648 C633 0.961 . S
H649 C633 0.961 . S
H650 C634 0.931 . S
H651 C639 0.930 . S
H652 C640 0.956 . S
H653 C640 0.961 . S
H654 C640 0.961 . S
H655 C641 0.958 . S
H656 C641 0.961 . S
H657 C641 0.960 . S
C658 C659 1.391 . S
C658 C660 1.394 . S
C658 H674 0.931 1_455 S
C659 C658 1.391 . S
C659 C663 1.376 . S
C660 C658 1.394 . S
C660 C661 1.369 . S
C660 C664 1.531 . S
C661 C660 1.369 . S
C661 C662 1.410 . S
C661 C669 1.503 . S
C662 C661 1.410 . S
C662 C663 1.392 . S
C662 C665 1.511 . S
C663 C659 1.376 . S
C663 C662 1.392 . S
C663 H675 0.929 . S
C664 C660 1.531 . S
C664 H676 0.960 . S
C664 H677 0.962 1_455 S
C664 H678 0.960 1_455 S
C665 C662 1.511 . S
C665 H679 0.961 . S
C665 H680 0.961 . S
C665 H681 0.961 . S
C666 C667 1.370 . S
C666 C668 1.363 . S
C666 H682 0.931 . S
C667 C666 1.370 . S
C667 C671 1.408 . S
C668 C666 1.363 . S
C668 C669 1.370 . S
C668 C672 1.524 . S
C669 C661 1.503 . S
C669 C668 1.370 . S
C669 C670 1.403 . S
C670 C669 1.403 . S
C670 C671 1.404 . S
C670 C673 1.539 . S
C671 C667 1.408 . S
C671 C670 1.404 . S
C671 H683 0.930 . S
C672 C668 1.524 . S
C672 H684 0.956 . S
C672 H685 0.961 . S
C672 H686 0.961 . S
C673 C670 1.539 . S
C673 H687 0.958 . S
C673 H688 0.961 . S
C673 H689 0.960 . S
H674 C658 0.931 1_655 S
H675 C663 0.929 . S
H676 C664 0.960 . S
H677 C664 0.962 1_655 S
H678 C664 0.960 1_655 S
H679 C665 0.961 . S
H680 C665 0.961 . S
H681 C665 0.961 . S
H682 C666 0.931 . S
H683 C671 0.930 . S
H684 C672 0.956 . S
H685 C672 0.961 . S
H686 C672 0.961 . S
H687 C673 0.958 . S
H688 C673 0.961 . S
H689 C673 0.960 . S
C690 C691 1.391 . S
C690 C692 1.394 . S
C690 H706 0.931 . S
C691 C690 1.391 . S
C691 C695 1.376 . S
C692 C690 1.394 . S
C692 C693 1.369 . S
C692 C696 1.531 . S
C693 C692 1.369 . S
C693 C694 1.410 . S
C693 C701 1.503 . S
C694 C693 1.410 . S
C694 C695 1.392 . S
C694 C697 1.511 . S
C695 C691 1.376 . S
C695 C694 1.392 . S
C695 H707 0.929 . S
C696 C692 1.531 . S
C696 H708 0.960 . S
C696 H709 0.962 . S
C696 H710 0.960 . S
C697 C694 1.511 . S
C697 H711 0.961 . S
C697 H712 0.961 . S
C697 H713 0.961 . S
C698 C699 1.370 . S
C698 C700 1.363 . S
C698 H714 0.931 . S
C699 C698 1.370 . S
C699 C703 1.408 . S
C700 C698 1.363 . S
C700 C701 1.370 . S
C700 C704 1.524 . S
C701 C693 1.503 . S
C701 C700 1.370 . S
C701 C702 1.403 . S
C702 C701 1.403 . S
C702 C703 1.404 . S
C702 C705 1.539 . S
C703 C699 1.408 . S
C703 C702 1.404 . S
C703 H715 0.930 . S
C704 C700 1.524 . S
C704 H716 0.956 . S
C704 H717 0.961 . S
C704 H718 0.961 . S
C705 C702 1.539 . S
C705 H719 0.958 . S
C705 H720 0.961 . S
C705 H721 0.960 . S
H706 C690 0.931 . S
H707 C695 0.929 . S
H708 C696 0.960 . S
H709 C696 0.962 . S
H710 C696 0.960 . S
H711 C697 0.961 . S
H712 C697 0.961 . S
H713 C697 0.961 . S
H714 C698 0.931 . S
H715 C703 0.930 . S
H716 C704 0.956 . S
H717 C704 0.961 . S
H718 C704 0.961 . S
H719 C705 0.958 . S
H720 C705 0.961 . S
H721 C705 0.960 . S
C722 C723 1.391 . S
C722 C724 1.394 . S
C722 H738 0.931 . S
C723 C722 1.391 . S
C723 C727 1.376 . S
C724 C722 1.394 . S
C724 C725 1.369 . S
C724 C728 1.531 . S
C725 C724 1.369 . S
C725 C726 1.410 . S
C725 C733 1.503 . S
C726 C725 1.410 . S
C726 C727 1.392 . S
C726 C729 1.511 . S
C727 C723 1.376 . S
C727 C726 1.392 . S
C727 H739 0.929 . S
C728 C724 1.531 . S
C728 H740 0.960 . S
C728 H741 0.962 . S
C728 H742 0.960 . S
C729 C726 1.511 . S
C729 H743 0.961 . S
C729 H744 0.961 . S
C729 H745 0.961 . S
C730 C731 1.370 . S
C730 C732 1.363 . S
C730 H746 0.931 . S
C731 C730 1.370 . S
C731 C735 1.408 . S
C732 C730 1.363 . S
C732 C733 1.370 . S
C732 C736 1.524 . S
C733 C725 1.503 . S
C733 C732 1.370 . S
C733 C734 1.403 . S
C734 C733 1.403 . S
C734 C735 1.404 . S
C734 C737 1.539 . S
C735 C731 1.408 . S
C735 C734 1.404 . S
C735 H747 0.930 1_545 S
C736 C732 1.524 . S
C736 H748 0.956 . S
C736 H749 0.961 . S
C736 H750 0.961 . S
C737 C734 1.539 . S
C737 H751 0.958 1_545 S
C737 H752 0.961 . S
C737 H753 0.960 . S
H738 C722 0.931 . S
H739 C727 0.929 . S
H740 C728 0.960 . S
H741 C728 0.962 . S
H742 C728 0.960 . S
H743 C729 0.961 . S
H744 C729 0.961 . S
H745 C729 0.961 . S
H746 C730 0.931 . S
H747 C735 0.930 1_565 S
H748 C736 0.956 . S
H749 C736 0.961 . S
H750 C736 0.961 . S
H751 C737 0.958 1_565 S
H752 C737 0.961 . S
H753 C737 0.960 . S
C754 C755 1.391 . S
C754 C756 1.394 . S
C754 H770 0.931 . S
C755 C754 1.391 . S
C755 C759 1.376 . S
C756 C754 1.394 . S
C756 C757 1.369 . S
C756 C760 1.531 . S
C757 C756 1.369 . S
C757 C758 1.410 . S
C757 C765 1.503 . S
C758 C757 1.410 . S
C758 C759 1.392 . S
C758 C761 1.511 . S
C759 C755 1.376 . S
C759 C758 1.392 . S
C759 H771 0.942 . S
C760 C756 1.531 . S
C760 H772 0.960 . S
C760 H773 0.962 . S
C760 H774 0.960 . S
C761 C758 1.511 . S
C761 H775 0.961 1_655 S
C761 H776 0.961 . S
C761 H777 0.961 . S
C762 C763 1.370 . S
C762 C764 1.363 . S
C762 H778 0.931 . S
C763 C762 1.370 . S
C763 C767 1.408 . S
C764 C762 1.363 . S
C764 C765 1.370 . S
C764 C768 1.524 . S
C765 C757 1.503 . S
C765 C764 1.370 . S
C765 C766 1.403 . S
C766 C765 1.403 . S
C766 C767 1.404 . S
C766 C769 1.539 . S
C767 C763 1.408 . S
C767 C766 1.404 . S
C767 H779 0.930 . S
C768 C764 1.524 . S
C768 H780 0.956 . S
C768 H781 0.961 . S
C768 H782 0.961 . S
C769 C766 1.539 . S
C769 H783 0.958 . S
C769 H784 0.961 . S
C769 H785 0.960 . S
H770 C754 0.931 . S
H771 C759 0.942 . S
H772 C760 0.960 . S
H773 C760 0.962 . S
H774 C760 0.960 . S
H775 C761 0.961 1_455 S
H776 C761 0.961 . S
H777 C761 0.961 . S
H778 C762 0.931 . S
H779 C767 0.930 . S
H780 C768 0.956 . S
H781 C768 0.961 . S
H782 C768 0.961 . S
H783 C769 0.958 . S
H784 C769 0.961 . S
H785 C769 0.960 . S
C786 C787 1.391 . S
C786 C788 1.394 . S
C786 H802 0.931 . S
C787 C786 1.391 . S
C787 C791 1.376 . S
C788 C786 1.394 . S
C788 C789 1.369 . S
C788 C792 1.531 . S
C789 C788 1.369 . S
C789 C790 1.410 . S
C789 C797 1.503 . S
C790 C789 1.410 . S
C790 C791 1.392 . S
C790 C793 1.511 . S
C791 C787 1.376 . S
C791 C790 1.392 . S
C791 H803 0.929 . S
C792 C788 1.531 . S
C792 H804 0.960 . S
C792 H805 0.962 . S
C792 H806 0.960 . S
C793 C790 1.511 . S
C793 H807 0.961 . S
C793 H808 0.961 . S
C793 H809 0.961 . S
C794 C795 1.370 . S
C794 C796 1.363 . S
C794 H810 0.931 . S
C795 C794 1.370 . S
C795 C799 1.408 . S
C796 C794 1.363 . S
C796 C797 1.370 . S
C796 C800 1.524 . S
C797 C789 1.503 . S
C797 C796 1.370 . S
C797 C798 1.403 . S
C798 C797 1.403 . S
C798 C799 1.404 . S
C798 C801 1.539 . S
C799 C795 1.408 . S
C799 C798 1.404 . S
C799 H811 0.930 . S
C800 C796 1.524 . S
C800 H812 0.956 . S
C800 H813 0.961 . S
C800 H814 0.961 . S
C801 C798 1.539 . S
C801 H815 0.958 . S
C801 H816 0.961 . S
C801 H817 0.960 . S
H802 C786 0.931 . S
H803 C791 0.929 . S
H804 C792 0.960 . S
H805 C792 0.962 . S
H806 C792 0.960 . S
H807 C793 0.961 . S
H808 C793 0.961 . S
H809 C793 0.961 . S
H810 C794 0.931 . S
H811 C799 0.930 . S
H812 C800 0.956 . S
H813 C800 0.961 . S
H814 C800 0.961 . S
H815 C801 0.958 . S
H816 C801 0.961 . S
H817 C801 0.960 . S
C818 C819 1.413 . S
C818 C820 1.369 1_565 S
C818 H834 0.934 . S
C819 C818 1.413 . S
C819 C823 1.376 . S
C820 C818 1.369 1_545 S
C820 C821 1.369 . S
C820 C824 1.531 . S
C821 C820 1.369 . S
C821 C822 1.410 . S
C821 C829 1.503 . S
C822 C821 1.410 . S
C822 C823 1.392 1_545 S
C822 C825 1.511 . S
C823 C819 1.376 . S
C823 C822 1.392 1_565 S
C823 H835 0.929 . S
C824 C820 1.531 . S
C824 H836 0.960 . S
C824 H837 0.962 . S
C824 H838 0.960 . S
C825 C822 1.511 . S
C825 H839 0.961 1_545 S
C825 H840 0.961 . S
C825 H841 0.961 . S
C826 C827 1.370 . S
C826 C828 1.363 . S
C826 H842 0.931 . S
C827 C826 1.370 . S
C827 C831 1.408 . S
C828 C826 1.363 . S
C828 C829 1.370 . S
C828 C832 1.524 1_545 S
C829 C821 1.503 . S
C829 C828 1.370 . S
C829 C830 1.403 . S
C830 C829 1.403 . S
C830 C831 1.404 . S
C830 C833 1.539 . S
C831 C827 1.408 . S
C831 C830 1.404 . S
C831 H843 0.930 . S
C832 C828 1.524 1_565 S
C832 H844 0.956 . S
C832 H845 0.961 . S
C832 H846 0.961 . S
C833 C830 1.539 . S
C833 H847 0.958 . S
C833 H848 0.961 . S
C833 H849 0.960 . S
H834 C818 0.934 . S
H835 C823 0.929 . S
H836 C824 0.960 . S
H837 C824 0.962 . S
H838 C824 0.960 . S
H839 C825 0.961 1_565 S
H840 C825 0.961 . S
H841 C825 0.961 . S
H842 C826 0.931 . S
H843 C831 0.930 . S
H844 C832 0.956 . S
H845 C832 0.961 . S
H846 C832 0.961 . S
H847 C833 0.958 . S
H848 C833 0.961 . S
H849 C833 0.960 . S
C850 C851 1.391 1_655 S
C850 C852 1.394 . S
C850 H866 0.931 . S
C851 C850 1.391 1_455 S
C851 C855 1.376 . S
C852 C850 1.394 . S
C852 C853 1.369 . S
C852 C856 1.531 . S
C853 C852 1.369 . S
C853 C854 1.410 1_655 S
C853 C861 1.503 . S
C854 C853 1.410 1_455 S
C854 C855 1.392 . S
C854 C857 1.511 . S
C855 C851 1.376 . S
C855 C854 1.392 . S
C855 H867 0.929 . S
C856 C852 1.531 . S
C856 H868 0.960 . S
C856 H869 0.962 . S
C856 H870 0.960 . S
C857 C854 1.511 . S
C857 H871 0.961 . S
C857 H872 0.961 . S
C857 H873 0.961 . S
C858 C859 1.370 . S
C858 C860 1.363 . S
C858 H874 0.931 . S
C859 C858 1.370 . S
C859 C863 1.408 . S
C860 C858 1.363 . S
C860 C861 1.370 . S
C860 C864 1.524 . S
C861 C853 1.503 . S
C861 C860 1.370 . S
C861 C862 1.403 . S
C862 C861 1.403 . S
C862 C863 1.404 . S
C862 C865 1.539 . S
C863 C859 1.408 . S
C863 C862 1.404 . S
C863 H875 0.930 . S
C864 C860 1.524 . S
C864 H876 0.956 . S
C864 H877 0.961 . S
C864 H878 0.961 . S
C865 C862 1.539 . S
C865 H879 0.958 . S
C865 H880 0.961 . S
C865 H881 0.960 . S
H866 C850 0.931 . S
H867 C855 0.929 . S
H868 C856 0.960 . S
H869 C856 0.962 . S
H870 C856 0.960 . S
H871 C857 0.961 . S
H872 C857 0.961 . S
H873 C857 0.961 . S
H874 C858 0.931 . S
H875 C863 0.930 . S
H876 C864 0.956 . S
H877 C864 0.961 . S
H878 C864 0.961 . S
H879 C865 0.958 . S
H880 C865 0.961 . S
H881 C865 0.960 . S
C882 C883 1.391 . S
C882 C884 1.394 . S
C882 H898 0.931 . S
C883 C882 1.391 . S
C883 C887 1.376 . S
C884 C882 1.394 . S
C884 C885 1.369 . S
C884 C888 1.531 . S
C885 C884 1.369 . S
C885 C886 1.410 . S
C885 C893 1.503 . S
C886 C885 1.410 . S
C886 C887 1.392 . S
C886 C889 1.511 . S
C887 C883 1.376 . S
C887 C886 1.392 . S
C887 H899 0.929 . S
C888 C884 1.531 . S
C888 H900 0.960 . S
C888 H901 0.962 . S
C888 H902 0.960 . S
C889 C886 1.511 . S
C889 H903 0.961 . S
C889 H904 0.961 . S
C889 H905 0.961 . S
C890 C891 1.370 . S
C890 C892 1.363 . S
C890 H906 0.931 . S
C891 C890 1.370 . S
C891 C895 1.408 . S
C892 C890 1.363 . S
C892 C893 1.370 . S
C892 C896 1.524 . S
C893 C885 1.503 . S
C893 C892 1.370 . S
C893 C894 1.403 . S
C894 C893 1.403 . S
C894 C895 1.404 . S
C894 C897 1.539 . S
C895 C891 1.408 . S
C895 C894 1.404 . S
C895 H907 0.930 . S
C896 C892 1.524 . S
C896 H908 0.956 . S
C896 H909 0.961 . S
C896 H910 0.961 . S
C897 C894 1.539 . S
C897 H911 0.958 . S
C897 H912 0.961 . S
C897 H913 0.960 . S
H898 C882 0.931 . S
H899 C887 0.929 . S
H900 C888 0.960 . S
H901 C888 0.962 . S
H902 C888 0.960 . S
H903 C889 0.961 . S
H904 C889 0.961 . S
H905 C889 0.961 . S
H906 C890 0.931 . S
H907 C895 0.930 . S
H908 C896 0.956 . S
H909 C896 0.961 . S
H910 C896 0.961 . S
H911 C897 0.958 . S
H912 C897 0.961 . S
H913 C897 0.960 . S
C914 C915 1.391 . S
C914 C916 1.394 . S
C914 H930 0.931 . S
C915 C914 1.391 . S
C915 C919 1.376 . S
C916 C914 1.394 . S
C916 C917 1.369 . S
C916 C920 1.531 1_565 S
C917 C916 1.369 . S
C917 C918 1.410 . S
C917 C925 1.503 . S
C918 C917 1.410 . S
C918 C919 1.392 . S
C918 C921 1.511 . S
C919 C915 1.376 . S
C919 C918 1.392 . S
C919 H931 0.929 . S
C920 C916 1.531 1_545 S
C920 H932 0.960 . S
C920 H933 0.962 . S
C920 H934 0.960 . S
C921 C918 1.511 . S
C921 H935 0.961 . S
C921 H936 0.961 . S
C921 H937 0.961 . S
C922 C923 1.370 1_565 S
C922 C924 1.363 . S
C922 H938 0.931 . S
C923 C922 1.370 1_545 S
C923 C927 1.408 . S
C924 C922 1.363 . S
C924 C925 1.370 . S
C924 C928 1.524 . S
C925 C917 1.503 . S
C925 C924 1.370 . S
C925 C926 1.403 1_565 S
C926 C925 1.403 1_545 S
C926 C927 1.404 . S
C926 C929 1.539 . S
C927 C923 1.408 . S
C927 C926 1.404 . S
C927 H939 0.930 . S
C928 C924 1.524 . S
C928 H940 0.956 . S
C928 H941 0.961 . S
C928 H942 0.961 . S
C929 C926 1.539 . S
C929 H943 0.958 . S
C929 H944 0.961 . S
C929 H945 0.960 . S
H930 C914 0.931 . S
H931 C919 0.929 . S
H932 C920 0.960 . S
H933 C920 0.962 . S
H934 C920 0.960 . S
H935 C921 0.961 . S
H936 C921 0.961 . S
H937 C921 0.961 . S
H938 C922 0.931 . S
H939 C927 0.930 . S
H940 C928 0.956 . S
H941 C928 0.961 . S
H942 C928 0.961 . S
H943 C929 0.958 . S
H944 C929 0.961 . S
H945 C929 0.960 . S
C946 C947 1.391 . S
C946 C948 1.394 . S
C946 H962 0.931 . S
C947 C946 1.391 . S
C947 C951 1.376 . S
C948 C946 1.394 . S
C948 C949 1.369 . S
C948 C952 1.531 . S
C949 C948 1.369 . S
C949 C950 1.410 . S
C949 C957 1.503 . S
C950 C949 1.410 . S
C950 C951 1.392 . S
C950 C953 1.511 . S
C951 C947 1.376 . S
C951 C950 1.392 . S
C951 H963 0.929 . S
C952 C948 1.531 . S
C952 H964 0.960 . S
C952 H965 0.962 . S
C952 H966 0.960 . S
C953 C950 1.511 . S
C953 H967 0.961 1_455 S
C953 H968 0.961 1_455 S
C953 H969 0.961 . S
C954 C955 1.370 . S
C954 C956 1.363 . S
C954 H970 0.931 . S
C955 C954 1.370 . S
C955 C959 1.408 1_655 S
C956 C954 1.363 . S
C956 C957 1.370 1_655 S
C956 C960 1.524 . S
C957 C949 1.503 . S
C957 C956 1.370 1_455 S
C957 C958 1.403 . S
C958 C957 1.403 . S
C958 C959 1.404 . S
C958 C961 1.539 . S
C959 C955 1.408 1_455 S
C959 C958 1.404 . S
C959 H971 0.930 . S
C960 C956 1.524 . S
C960 H972 0.956 . S
C960 H973 0.961 . S
C960 H974 0.961 . S
C961 C958 1.539 . S
C961 H975 0.958 . S
C961 H976 0.961 . S
C961 H977 0.960 . S
H962 C946 0.931 . S
H963 C951 0.929 . S
H964 C952 0.960 . S
H965 C952 0.962 . S
H966 C952 0.960 . S
H967 C953 0.961 1_655 S
H968 C953 0.961 1_655 S
H969 C953 0.961 . S
H970 C954 0.931 . S
H971 C959 0.930 . S
H972 C960 0.956 . S
H973 C960 0.961 . S
H974 C960 0.961 . S
H975 C961 0.958 . S
H976 C961 0.961 . S
H977 C961 0.960 . S
C978 C979 1.391 . S
C978 C980 1.394 . S
C978 H994 0.931 . S
C979 C978 1.391 . S
C979 C983 1.376 . S
C980 C978 1.394 . S
C980 C981 1.369 . S
C980 C984 1.531 . S
C981 C980 1.369 . S
C981 C982 1.410 . S
C981 C989 1.503 1_455 S
C982 C981 1.410 . S
C982 C983 1.392 . S
C982 C985 1.481 1_455 S
C983 C979 1.376 . S
C983 C982 1.392 . S
C983 H995 0.929 . S
C984 C980 1.531 . S
C984 H996 0.960 . S
C984 H997 0.962 . S
C984 H998 0.960 . S
C985 C982 1.481 1_655 S
C985 H999 0.966 . S
C985 H1000 0.982 . S
C985 H1001 0.966 1_655 S
C986 C987 1.370 . S
C986 C988 1.363 . S
C986 H1002 0.931 . S
C987 C986 1.370 . S
C987 C991 1.408 . S
C988 C986 1.363 . S
C988 C989 1.370 . S
C988 C992 1.524 . S
C989 C981 1.503 1_655 S
C989 C988 1.370 . S
C989 C990 1.403 . S
C990 C989 1.403 . S
C990 C991 1.404 . S
C990 C993 1.539 1_655 S
C991 C987 1.408 . S
C991 C990 1.404 . S
C991 H1003 0.930 . S
C992 C988 1.524 . S
C992 H1004 0.956 . S
C992 H1005 0.961 . S
C992 H1006 0.961 . S
C993 C990 1.539 1_455 S
C993 H1007 0.958 . S
C993 H1008 0.961 . S
C993 H1009 0.960 . S
H994 C978 0.931 . S
H995 C983 0.929 . S
H996 C984 0.960 . S
H997 C984 0.962 . S
H998 C984 0.960 . S
H999 C985 0.966 . S
H1000 C985 0.982 . S
H1001 C985 0.966 1_455 S
H1002 C986 0.931 . S
H1003 C991 0.930 . S
H1004 C992 0.956 . S
H1005 C992 0.961 . S
H1006 C992 0.961 . S
H1007 C993 0.958 . S
H1008 C993 0.961 . S
H1009 C993 0.960 . S
C1010 C1011 1.391 . S
C1010 C1012 1.394 . S
C1010 H1026 0.931 . S
C1011 C1010 1.391 . S
C1011 C1015 1.376 . S
C1012 C1010 1.394 . S
C1012 C1013 1.369 . S
C1012 C1016 1.531 . S
C1013 C1012 1.369 . S
C1013 C1014 1.410 . S
C1013 C1021 1.503 . S
C1014 C1013 1.410 . S
C1014 C1015 1.392 . S
C1014 C1017 1.511 . S
C1015 C1011 1.376 . S
C1015 C1014 1.392 . S
C1015 H1027 0.929 . S
C1016 C1012 1.531 . S
C1016 H1028 0.960 . S
C1016 H1029 0.962 . S
C1016 H1030 0.960 . S
C1017 C1014 1.511 . S
C1017 H1031 0.961 . S
C1017 H1032 0.961 . S
C1017 H1033 0.961 . S
C1018 C1019 1.370 . S
C1018 C1020 1.363 . S
C1018 H1034 0.931 . S
C1019 C1018 1.370 . S
C1019 C1023 1.408 . S
C1020 C1018 1.363 . S
C1020 C1021 1.370 . S
C1020 C1024 1.524 . S
C1021 C1013 1.503 . S
C1021 C1020 1.370 . S
C1021 C1022 1.403 . S
C1022 C1021 1.403 . S
C1022 C1023 1.404 . S
C1022 C1025 1.539 . S
C1023 C1019 1.408 . S
C1023 C1022 1.404 . S
C1023 H1035 0.930 . S
C1024 C1020 1.524 . S
C1024 H1036 0.956 . S
C1024 H1037 0.961 . S
C1024 H1038 0.961 . S
C1025 C1022 1.539 . S
C1025 H1039 0.958 . S
C1025 H1040 0.961 . S
C1025 H1041 0.960 . S
H1026 C1010 0.931 . S
H1027 C1015 0.929 . S
H1028 C1016 0.960 . S
H1029 C1016 0.962 . S
H1030 C1016 0.960 . S
H1031 C1017 0.961 . S
H1032 C1017 0.961 . S
H1033 C1017 0.961 . S
H1034 C1018 0.931 . S
H1035 C1023 0.930 . S
H1036 C1024 0.956 . S
H1037 C1024 0.961 . S
H1038 C1024 0.961 . S
H1039 C1025 0.958 . S
H1040 C1025 0.961 . S
H1041 C1025 0.960 . S
C1042 C1043 1.391 . S
C1042 C1044 1.394 . S
C1042 H1058 0.931 . S
C1043 C1042 1.391 . S
C1043 C1047 1.376 . S
C1044 C1042 1.394 . S
C1044 C1045 1.369 . S
C1044 C1048 1.531 1_565 S
C1045 C1044 1.369 . S
C1045 C1046 1.410 . S
C1045 C1053 1.503 1_565 S
C1046 C1045 1.410 . S
C1046 C1047 1.392 . S
C1046 C1049 1.511 . S
C1047 C1043 1.376 . S
C1047 C1046 1.392 . S
C1047 H1059 0.929 . S
C1048 C1044 1.531 1_545 S
C1048 H1060 0.960 . S
C1048 H1061 0.962 . S
C1048 H1062 0.960 . S
C1049 C1046 1.511 . S
C1049 H1063 0.961 . S
C1049 H1064 0.961 . S
C1049 H1065 0.961 . S
C1050 C1051 1.370 . S
C1050 C1052 1.363 . S
C1050 H1066 0.931 . S
C1051 C1050 1.370 . S
C1051 C1055 1.408 . S
C1052 C1050 1.363 . S
C1052 C1053 1.370 . S
C1052 C1056 1.524 1_545 S
C1053 C1045 1.503 1_545 S
C1053 C1052 1.370 . S
C1053 C1054 1.403 . S
C1054 C1053 1.403 . S
C1054 C1055 1.404 . S
C1054 C1057 1.539 . S
C1055 C1051 1.408 . S
C1055 C1054 1.404 . S
C1055 H1067 0.930 . S
C1056 C1052 1.524 1_565 S
C1056 H1068 0.956 . S
C1056 H1069 0.961 . S
C1056 H1070 0.961 . S
C1057 C1054 1.539 . S
C1057 H1071 0.958 . S
C1057 H1072 0.961 . S
C1057 H1073 0.960 . S
H1058 C1042 0.931 . S
H1059 C1047 0.929 . S
H1060 C1048 0.960 . S
H1061 C1048 0.962 . S
H1062 C1048 0.960 . S
H1063 C1049 0.961 . S
H1064 C1049 0.961 . S
H1065 C1049 0.961 . S
H1066 C1050 0.931 . S
H1067 C1055 0.930 . S
H1068 C1056 0.956 . S
H1069 C1056 0.961 . S
H1070 C1056 0.961 . S
H1071 C1057 0.958 . S
H1072 C1057 0.961 . S
H1073 C1057 0.960 . S
C1074 C1075 1.391 . S
C1074 C1076 1.394 . S
C1074 H1090 0.931 . S
C1075 C1074 1.391 . S
C1075 C1079 1.376 . S
C1076 C1074 1.394 . S
C1076 C1077 1.369 . S
C1076 C1080 1.531 1_545 S
C1077 C1076 1.369 . S
C1077 C1078 1.410 . S
C1077 C1085 1.503 1_545 S
C1078 C1077 1.410 . S
C1078 C1079 1.392 . S
C1078 C1081 1.511 . S
C1079 C1075 1.376 . S
C1079 C1078 1.392 . S
C1079 H1091 0.929 . S
C1080 C1076 1.531 1_565 S
C1080 H1092 0.960 . S
C1080 H1093 0.963 1_565 S
C1080 H1094 0.960 1_565 S
C1081 C1078 1.511 . S
C1081 H1095 0.961 . S
C1081 H1096 0.961 . S
C1081 H1097 0.961 . S
C1082 C1083 1.370 . S
C1082 C1084 1.363 . S
C1082 H1098 0.931 . S
C1083 C1082 1.370 . S
C1083 C1087 1.408 . S
C1084 C1082 1.363 . S
C1084 C1085 1.370 . S
C1084 C1088 1.524 1_565 S
C1085 C1077 1.503 1_565 S
C1085 C1084 1.370 . S
C1085 C1086 1.403 . S
C1086 C1085 1.403 . S
C1086 C1087 1.404 . S
C1086 C1089 1.539 . S
C1087 C1083 1.408 . S
C1087 C1086 1.404 . S
C1087 H1099 0.930 . S
C1088 C1084 1.524 1_545 S
C1088 H1100 0.956 . S
C1088 H1101 0.961 . S
C1088 H1102 0.961 . S
C1089 C1086 1.539 . S
C1089 H1103 0.958 . S
C1089 H1104 0.961 . S
C1089 H1105 0.960 . S
H1090 C1074 0.931 . S
H1091 C1079 0.929 . S
H1092 C1080 0.960 . S
H1093 C1080 0.963 1_545 S
H1094 C1080 0.960 1_545 S
H1095 C1081 0.961 . S
H1096 C1081 0.961 . S
H1097 C1081 0.961 . S
H1098 C1082 0.931 . S
H1099 C1087 0.930 . S
H1100 C1088 0.956 . S
H1101 C1088 0.961 . S
H1102 C1088 0.961 . S
H1103 C1089 0.958 . S
H1104 C1089 0.961 . S
H1105 C1089 0.960 . S
C1106 C1107 1.391 . S
C1106 C1108 1.394 . S
C1106 H1122 0.931 . S
C1107 C1106 1.391 . S
C1107 C1111 1.376 . S
C1108 C1106 1.394 . S
C1108 C1109 1.369 . S
C1108 C1112 1.531 1_455 S
C1109 C1108 1.369 . S
C1109 C1110 1.410 . S
C1109 C1117 1.503 1_455 S
C1110 C1109 1.410 . S
C1110 C1111 1.392 . S
C1110 C1113 1.511 . S
C1111 C1107 1.376 . S
C1111 C1110 1.392 . S
C1111 H1123 0.929 . S
C1112 C1108 1.531 1_655 S
C1112 H1124 0.960 . S
C1112 H1125 0.962 . S
C1112 H1126 0.960 . S
C1113 C1110 1.511 . S
C1113 H1127 0.961 . S
C1113 H1128 0.961 . S
C1113 H1129 0.961 . S
C1114 C1115 1.370 . S
C1114 C1116 1.363 . S
C1114 H1130 0.931 . S
C1115 C1114 1.370 . S
C1115 C1119 1.408 . S
C1116 C1114 1.363 . S
C1116 C1117 1.370 . S
C1116 C1120 1.524 1_655 S
C1117 C1109 1.503 1_655 S
C1117 C1116 1.370 . S
C1117 C1118 1.403 . S
C1118 C1117 1.403 . S
C1118 C1119 1.404 . S
C1118 C1121 1.539 . S
C1119 C1115 1.408 . S
C1119 C1118 1.404 . S
C1119 H1131 0.930 . S
C1120 C1116 1.524 1_455 S
C1120 H1132 0.956 . S
C1120 H1133 0.961 . S
C1120 H1134 0.961 1_455 S
C1121 C1118 1.539 . S
C1121 H1135 0.958 . S
C1121 H1136 0.961 . S
C1121 H1137 0.960 . S
H1122 C1106 0.931 . S
H1123 C1111 0.929 . S
H1124 C1112 0.960 . S
H1125 C1112 0.962 . S
H1126 C1112 0.960 . S
H1127 C1113 0.961 . S
H1128 C1113 0.961 . S
H1129 C1113 0.961 . S
H1130 C1114 0.931 . S
H1131 C1119 0.930 . S
H1132 C1120 0.956 . S
H1133 C1120 0.961 . S
H1134 C1120 0.961 1_655 S
H1135 C1121 0.958 . S
H1136 C1121 0.961 . S
H1137 C1121 0.960 . S
C1138 C1139 1.391 . S
C1138 C1140 1.394 . S
C1138 H1154 0.931 . S
C1139 C1138 1.391 . S
C1139 C1143 1.376 . S
C1140 C1138 1.394 . S
C1140 C1141 1.369 . S
C1140 C1144 1.531 . S
C1141 C1140 1.369 . S
C1141 C1142 1.410 . S
C1141 C1149 1.503 . S
C1142 C1141 1.410 . S
C1142 C1143 1.392 . S
C1142 C1145 1.511 . S
C1143 C1139 1.376 . S
C1143 C1142 1.392 . S
C1143 H1155 0.929 . S
C1144 C1140 1.531 . S
C1144 H1156 0.960 . S
C1144 H1157 0.962 . S
C1144 H1158 0.960 . S
C1145 C1142 1.511 . S
C1145 H1159 0.961 . S
C1145 H1160 0.961 . S
C1145 H1161 0.961 . S
C1146 C1147 1.370 . S
C1146 C1148 1.363 . S
C1146 H1162 0.931 . S
C1147 C1146 1.370 . S
C1147 C1151 1.408 . S
C1148 C1146 1.363 . S
C1148 C1149 1.370 . S
C1148 C1152 1.524 . S
C1149 C1141 1.503 . S
C1149 C1148 1.370 . S
C1149 C1150 1.403 . S
C1150 C1149 1.403 . S
C1150 C1151 1.404 . S
C1150 C1153 1.539 . S
C1151 C1147 1.408 . S
C1151 C1150 1.404 . S
C1151 H1163 0.930 . S
C1152 C1148 1.524 . S
C1152 H1164 0.956 . S
C1152 H1165 0.961 . S
C1152 H1166 0.961 . S
C1153 C1150 1.539 . S
C1153 H1167 0.958 . S
C1153 H1168 0.961 . S
C1153 H1169 0.960 . S
H1154 C1138 0.931 . S
H1155 C1143 0.929 . S
H1156 C1144 0.960 . S
H1157 C1144 0.962 . S
H1158 C1144 0.960 . S
H1159 C1145 0.961 . S
H1160 C1145 0.961 . S
H1161 C1145 0.961 . S
H1162 C1146 0.931 . S
H1163 C1151 0.930 . S
H1164 C1152 0.956 . S
H1165 C1152 0.961 . S
H1166 C1152 0.961 . S
H1167 C1153 0.958 . S
H1168 C1153 0.961 . S
H1169 C1153 0.960 . S
C1170 C1171 1.391 . S
C1170 C1172 1.394 . S
C1170 H1186 0.931 . S
C1171 C1170 1.391 . S
C1171 C1175 1.376 . S
C1172 C1170 1.394 . S
C1172 C1173 1.369 . S
C1172 C1176 1.531 . S
C1173 C1172 1.369 . S
C1173 C1174 1.410 . S
C1173 C1181 1.503 . S
C1174 C1173 1.410 . S
C1174 C1175 1.392 . S
C1174 C1177 1.511 . S
C1175 C1171 1.376 . S
C1175 C1174 1.392 . S
C1175 H1187 0.929 . S
C1176 C1172 1.531 . S
C1176 H1188 0.960 . S
C1176 H1189 0.962 . S
C1176 H1190 0.960 . S
C1177 C1174 1.511 . S
C1177 H1191 0.961 . S
C1177 H1192 0.961 . S
C1177 H1193 0.961 . S
C1178 C1179 1.370 . S
C1178 C1180 1.363 . S
C1178 H1194 0.931 . S
C1179 C1178 1.370 . S
C1179 C1183 1.408 . S
C1180 C1178 1.363 . S
C1180 C1181 1.370 . S
C1180 C1184 1.524 . S
C1181 C1173 1.503 . S
C1181 C1180 1.370 . S
C1181 C1182 1.403 . S
C1182 C1181 1.403 . S
C1182 C1183 1.404 . S
C1182 C1185 1.539 . S
C1183 C1179 1.408 . S
C1183 C1182 1.404 . S
C1183 H1195 0.930 . S
C1184 C1180 1.524 . S
C1184 H1196 0.956 . S
C1184 H1197 0.961 . S
C1184 H1198 0.961 . S
C1185 C1182 1.539 . S
C1185 H1199 0.958 . S
C1185 H1200 0.961 . S
C1185 H1201 0.960 . S
H1186 C1170 0.931 . S
H1187 C1175 0.929 . S
H1188 C1176 0.960 . S
H1189 C1176 0.962 . S
H1190 C1176 0.960 . S
H1191 C1177 0.961 . S
H1192 C1177 0.961 . S
H1193 C1177 0.961 . S
H1194 C1178 0.931 . S
H1195 C1183 0.930 . S
H1196 C1184 0.956 . S
H1197 C1184 0.961 . S
H1198 C1184 0.961 . S
H1199 C1185 0.958 . S
H1200 C1185 0.961 . S
H1201 C1185 0.960 . S
C1202 C1203 1.391 . S
C1202 C1204 1.394 . S
C1202 H1218 0.931 . S
C1203 C1202 1.391 . S
C1203 C1207 1.376 . S
C1204 C1202 1.394 . S
C1204 C1205 1.369 . S
C1204 C1208 1.531 . S
C1205 C1204 1.369 . S
C1205 C1206 1.410 . S
C1205 C1213 1.503 . S
C1206 C1205 1.410 . S
C1206 C1207 1.392 . S
C1206 C1209 1.511 . S
C1207 C1203 1.376 . S
C1207 C1206 1.392 . S
C1207 H1219 0.929 . S
C1208 C1204 1.531 . S
C1208 H1220 0.960 . S
C1208 H1221 0.962 . S
C1208 H1222 0.960 . S
C1209 C1206 1.511 . S
C1209 H1223 0.961 . S
C1209 H1224 0.961 . S
C1209 H1225 0.961 . S
C1210 C1211 1.370 . S
C1210 C1212 1.363 . S
C1210 H1226 0.931 . S
C1211 C1210 1.370 . S
C1211 C1215 1.408 . S
C1212 C1210 1.363 . S
C1212 C1213 1.370 . S
C1212 C1216 1.524 . S
C1213 C1205 1.503 . S
C1213 C1212 1.370 . S
C1213 C1214 1.403 . S
C1214 C1213 1.403 . S
C1214 C1215 1.404 . S
C1214 C1217 1.539 . S
C1215 C1211 1.408 . S
C1215 C1214 1.404 . S
C1215 H1227 0.930 . S
C1216 C1212 1.524 . S
C1216 H1228 0.956 . S
C1216 H1229 0.961 . S
C1216 H1230 0.961 . S
C1217 C1214 1.539 . S
C1217 H1231 0.958 . S
C1217 H1232 0.961 . S
C1217 H1233 0.960 . S
H1218 C1202 0.931 . S
H1219 C1207 0.929 . S
H1220 C1208 0.960 . S
H1221 C1208 0.962 . S
H1222 C1208 0.960 . S
H1223 C1209 0.961 . S
H1224 C1209 0.961 . S
H1225 C1209 0.961 . S
H1226 C1210 0.931 . S
H1227 C1215 0.930 . S
H1228 C1216 0.956 . S
H1229 C1216 0.961 . S
H1230 C1216 0.961 . S
H1231 C1217 0.958 . S
H1232 C1217 0.961 . S
H1233 C1217 0.960 . S
C1234 C1235 1.391 . S
C1234 C1236 1.394 . S
C1234 H1250 0.931 . S
C1235 C1234 1.391 . S
C1235 C1239 1.376 . S
C1236 C1234 1.394 . S
C1236 C1237 1.369 . S
C1236 C1240 1.531 . S
C1237 C1236 1.369 . S
C1237 C1238 1.410 . S
C1237 C1245 1.503 . S
C1238 C1237 1.410 . S
C1238 C1239 1.392 . S
C1238 C1241 1.511 . S
C1239 C1235 1.376 . S
C1239 C1238 1.392 . S
C1239 H1251 0.929 . S
C1240 C1236 1.531 . S
C1240 H1252 0.960 . S
C1240 H1253 0.962 . S
C1240 H1254 0.960 . S
C1241 C1238 1.511 . S
C1241 H1255 0.961 . S
C1241 H1256 0.961 . S
C1241 H1257 0.961 . S
C1242 C1243 1.370 . S
C1242 C1244 1.363 . S
C1242 H1258 0.931 . S
C1243 C1242 1.370 . S
C1243 C1247 1.408 . S
C1244 C1242 1.363 . S
C1244 C1245 1.370 . S
C1244 C1248 1.524 . S
C1245 C1237 1.503 . S
C1245 C1244 1.370 . S
C1245 C1246 1.403 . S
C1246 C1245 1.403 . S
C1246 C1247 1.404 . S
C1246 C1249 1.539 . S
C1247 C1243 1.408 . S
C1247 C1246 1.404 . S
C1247 H1259 0.930 . S
C1248 C1244 1.524 . S
C1248 H1260 0.956 . S
C1248 H1261 0.961 . S
C1248 H1262 0.961 . S
C1249 C1246 1.539 . S
C1249 H1263 0.958 . S
C1249 H1264 0.961 . S
C1249 H1265 0.960 . S
H1250 C1234 0.931 . S
H1251 C1239 0.929 . S
H1252 C1240 0.960 . S
H1253 C1240 0.962 . S
H1254 C1240 0.960 . S
H1255 C1241 0.961 . S
H1256 C1241 0.961 . S
H1257 C1241 0.961 . S
H1258 C1242 0.931 . S
H1259 C1247 0.930 . S
H1260 C1248 0.956 . S
H1261 C1248 0.961 . S
H1262 C1248 0.961 . S
H1263 C1249 0.958 . S
H1264 C1249 0.961 . S
H1265 C1249 0.960 . S
C1266 C1267 1.391 . S
C1266 C1268 1.394 . S
C1266 H1282 0.931 . S
C1267 C1266 1.391 . S
C1267 C1271 1.376 . S
C1268 C1266 1.394 . S
C1268 C1269 1.369 . S
C1268 C1272 1.531 . S
C1269 C1268 1.369 . S
C1269 C1270 1.410 . S
C1269 C1277 1.503 . S
C1270 C1269 1.410 . S
C1270 C1271 1.392 . S
C1270 C1273 1.511 . S
C1271 C1267 1.376 . S
C1271 C1270 1.392 . S
C1271 H1283 0.929 . S
C1272 C1268 1.531 . S
C1272 H1284 0.960 . S
C1272 H1285 0.962 . S
C1272 H1286 0.960 . S
C1273 C1270 1.511 . S
C1273 H1287 0.961 . S
C1273 H1288 0.961 . S
C1273 H1289 0.961 . S
C1274 C1275 1.370 . S
C1274 C1276 1.363 . S
C1274 H1290 0.931 . S
C1275 C1274 1.370 . S
C1275 C1279 1.408 . S
C1276 C1274 1.363 . S
C1276 C1277 1.370 . S
C1276 C1280 1.524 . S
C1277 C1269 1.503 . S
C1277 C1276 1.370 . S
C1277 C1278 1.403 . S
C1278 C1277 1.403 . S
C1278 C1279 1.404 . S
C1278 C1281 1.539 . S
C1279 C1275 1.408 . S
C1279 C1278 1.404 . S
C1279 H1291 0.930 . S
C1280 C1276 1.524 . S
C1280 H1292 0.956 . S
C1280 H1293 0.961 . S
C1280 H1294 0.961 . S
C1281 C1278 1.539 . S
C1281 H1295 0.958 . S
C1281 H1296 0.961 . S
C1281 H1297 0.960 . S
H1282 C1266 0.931 . S
H1283 C1271 0.929 . S
H1284 C1272 0.960 . S
H1285 C1272 0.962 . S
H1286 C1272 0.960 . S
H1287 C1273 0.961 . S
H1288 C1273 0.961 . S
H1289 C1273 0.961 . S
H1290 C1274 0.931 . S
H1291 C1279 0.930 . S
H1292 C1280 0.956 . S
H1293 C1280 0.961 . S
H1294 C1280 0.961 . S
H1295 C1281 0.958 . S
H1296 C1281 0.961 . S
H1297 C1281 0.960 . S
C1298 C1299 1.391 . S
C1298 C1300 1.394 . S
C1298 H1314 0.931 . S
C1299 C1298 1.391 . S
C1299 C1303 1.376 . S
C1300 C1298 1.394 . S
C1300 C1301 1.369 . S
C1300 C1304 1.531 . S
C1301 C1300 1.369 . S
C1301 C1302 1.410 . S
C1301 C1309 1.503 . S
C1302 C1301 1.410 . S
C1302 C1303 1.392 . S
C1302 C1305 1.511 . S
C1303 C1299 1.376 . S
C1303 C1302 1.392 . S
C1303 H1315 0.929 . S
C1304 C1300 1.531 . S
C1304 H1316 0.960 . S
C1304 H1317 0.962 . S
C1304 H1318 0.960 . S
C1305 C1302 1.511 . S
C1305 H1319 0.961 . S
C1305 H1320 0.961 . S
C1305 H1321 0.961 . S
C1306 C1307 1.370 . S
C1306 C1308 1.363 . S
C1306 H1322 0.931 . S
C1307 C1306 1.370 . S
C1307 C1311 1.408 . S
C1308 C1306 1.363 . S
C1308 C1309 1.370 . S
C1308 C1312 1.524 . S
C1309 C1301 1.503 . S
C1309 C1308 1.370 . S
C1309 C1310 1.403 . S
C1310 C1309 1.403 . S
C1310 C1311 1.404 . S
C1310 C1313 1.539 . S
C1311 C1307 1.408 . S
C1311 C1310 1.404 . S
C1311 H1323 0.930 . S
C1312 C1308 1.524 . S
C1312 H1324 0.956 . S
C1312 H1325 0.961 . S
C1312 H1326 0.961 . S
C1313 C1310 1.539 . S
C1313 H1327 0.958 . S
C1313 H1328 0.961 . S
C1313 H1329 0.960 . S
H1314 C1298 0.931 . S
H1315 C1303 0.929 . S
H1316 C1304 0.960 . S
H1317 C1304 0.962 . S
H1318 C1304 0.960 . S
H1319 C1305 0.961 . S
H1320 C1305 0.961 . S
H1321 C1305 0.961 . S
H1322 C1306 0.931 . S
H1323 C1311 0.930 . S
H1324 C1312 0.956 . S
H1325 C1312 0.961 . S
H1326 C1312 0.961 . S
H1327 C1313 0.958 . S
H1328 C1313 0.961 . S
H1329 C1313 0.960 . S
C1330 C1331 1.391 . S
C1330 C1332 1.394 . S
C1330 H1346 0.931 . S
C1331 C1330 1.391 . S
C1331 C1335 1.376 . S
C1332 C1330 1.394 . S
C1332 C1333 1.369 . S
C1332 C1336 1.531 . S
C1333 C1332 1.369 . S
C1333 C1334 1.410 . S
C1333 C1341 1.503 . S
C1334 C1333 1.410 . S
C1334 C1335 1.392 . S
C1334 C1337 1.511 . S
C1335 C1331 1.376 . S
C1335 C1334 1.392 . S
C1335 H1347 0.929 . S
C1336 C1332 1.531 . S
C1336 H1348 0.960 . S
C1336 H1349 0.962 . S
C1336 H1350 0.960 . S
C1337 C1334 1.511 . S
C1337 H1351 0.961 . S
C1337 H1352 0.961 . S
C1337 H1353 0.961 . S
C1338 C1339 1.370 . S
C1338 C1340 1.363 . S
C1338 H1354 0.931 . S
C1339 C1338 1.370 . S
C1339 C1343 1.408 . S
C1340 C1338 1.363 . S
C1340 C1341 1.370 . S
C1340 C1344 1.524 . S
C1341 C1333 1.503 . S
C1341 C1340 1.370 . S
C1341 C1342 1.403 . S
C1342 C1341 1.403 . S
C1342 C1343 1.404 . S
C1342 C1345 1.539 . S
C1343 C1339 1.408 . S
C1343 C1342 1.404 . S
C1343 H1355 0.930 . S
C1344 C1340 1.524 . S
C1344 H1356 0.956 . S
C1344 H1357 0.961 . S
C1344 H1358 0.961 . S
C1345 C1342 1.539 . S
C1345 H1359 0.958 . S
C1345 H1360 0.961 . S
C1345 H1361 0.960 . S
H1346 C1330 0.931 . S
H1347 C1335 0.929 . S
H1348 C1336 0.960 . S
H1349 C1336 0.962 . S
H1350 C1336 0.960 . S
H1351 C1337 0.961 . S
H1352 C1337 0.961 . S
H1353 C1337 0.961 . S
H1354 C1338 0.931 . S
H1355 C1343 0.930 . S
H1356 C1344 0.956 . S
H1357 C1344 0.961 . S
H1358 C1344 0.961 . S
H1359 C1345 0.958 . S
H1360 C1345 0.961 . S
H1361 C1345 0.960 . S
C1362 C1363 1.391 . S
C1362 C1364 1.394 . S
C1362 H1378 0.931 . S
C1363 C1362 1.391 . S
C1363 C1367 1.376 . S
C1364 C1362 1.394 . S
C1364 C1365 1.369 . S
C1364 C1368 1.516 1_655 S
C1365 C1364 1.369 . S
C1365 C1366 1.410 . S
C1365 C1373 1.503 1_554 S
C1366 C1365 1.410 . S
C1366 C1367 1.392 . S
C1366 C1369 1.511 . S
C1367 C1363 1.376 . S
C1367 C1366 1.392 . S
C1367 H1379 0.929 . S
C1368 C1364 1.516 1_455 S
C1368 H1380 0.952 1_454 S
C1368 H1381 0.983 . S
C1368 H1382 0.962 1_455 S
C1369 C1366 1.511 . S
C1369 H1383 0.961 . S
C1369 H1384 0.961 1_554 S
C1369 H1385 0.961 . S
C1370 C1371 1.370 . S
C1370 C1372 1.363 . S
C1370 H1386 0.931 . S
C1371 C1370 1.370 . S
C1371 C1375 1.408 1_455 S
C1372 C1370 1.363 . S
C1372 C1373 1.370 1_455 S
C1372 C1376 1.524 . S
C1373 C1365 1.503 1_556 S
C1373 C1372 1.370 1_655 S
C1373 C1374 1.403 . S
C1374 C1373 1.403 . S
C1374 C1375 1.404 . S
C1374 C1377 1.539 . S
C1375 C1371 1.408 1_655 S
C1375 C1374 1.404 . S
C1375 H1387 0.930 . S
C1376 C1372 1.524 . S
C1376 H1388 0.956 1_556 S
C1376 H1389 0.961 1_556 S
C1376 H1390 0.961 . S
C1377 C1374 1.539 . S
C1377 H1391 0.958 . S
C1377 H1392 0.961 . S
C1377 H1393 0.960 . S
H1378 C1362 0.931 . S
H1379 C1367 0.929 . S
H1380 C1368 0.952 1_656 S
H1381 C1368 0.983 . S
H1382 C1368 0.962 1_655 S
H1383 C1369 0.961 . S
H1384 C1369 0.961 1_556 S
H1385 C1369 0.961 . S
H1386 C1370 0.931 . S
H1387 C1375 0.930 . S
H1388 C1376 0.956 1_554 S
H1389 C1376 0.961 1_554 S
H1390 C1376 0.961 . S
H1391 C1377 0.958 . S
H1392 C1377 0.961 . S
H1393 C1377 0.960 . S
C1394 C1395 1.391 . S
C1394 C1396 1.394 . S
C1394 H1410 0.931 . S
C1395 C1394 1.391 . S
C1395 C1399 1.376 . S
C1396 C1394 1.394 . S
C1396 C1397 1.369 . S
C1396 C1400 1.531 . S
C1397 C1396 1.369 . S
C1397 C1398 1.410 . S
C1397 C1405 1.503 1_554 S
C1398 C1397 1.410 . S
C1398 C1399 1.392 . S
C1398 C1401 1.511 . S
C1399 C1395 1.376 . S
C1399 C1398 1.392 . S
C1399 H1411 0.929 . S
C1400 C1396 1.531 . S
C1400 H1412 0.960 1_554 S
C1400 H1413 0.962 . S
C1400 H1414 0.960 . S
C1401 C1398 1.511 . S
C1401 H1415 0.961 . S
C1401 H1416 1.001 . S
C1401 H1417 0.961 . S
C1402 C1403 1.370 . S
C1402 C1404 1.363 . S
C1402 H1418 0.931 . S
C1403 C1402 1.370 . S
C1403 C1407 1.408 . S
C1404 C1402 1.363 . S
C1404 C1405 1.370 . S
C1404 C1408 1.524 . S
C1405 C1397 1.503 1_556 S
C1405 C1404 1.370 . S
C1405 C1406 1.403 . S
C1406 C1405 1.403 . S
C1406 C1407 1.404 . S
C1406 C1409 1.539 . S
C1407 C1403 1.408 . S
C1407 C1406 1.404 . S
C1407 H1419 0.930 . S
C1408 C1404 1.524 . S
C1408 H1420 0.956 . S
C1408 H1421 0.961 . S
C1408 H1422 0.961 . S
C1409 C1406 1.539 . S
C1409 H1423 0.958 . S
C1409 H1424 0.961 . S
C1409 H1425 0.960 1_556 S
H1410 C1394 0.931 . S
H1411 C1399 0.929 . S
H1412 C1400 0.960 1_556 S
H1413 C1400 0.962 . S
H1414 C1400 0.960 . S
H1415 C1401 0.961 . S
H1416 C1401 1.001 . S
H1417 C1401 0.961 . S
H1418 C1402 0.931 . S
H1419 C1407 0.930 . S
H1420 C1408 0.956 . S
H1421 C1408 0.961 . S
H1422 C1408 0.961 . S
H1423 C1409 0.958 . S
H1424 C1409 0.961 . S
H1425 C1409 0.960 1_554 S
C1426 C1427 1.391 1_565 S
C1426 C1428 1.394 . S
C1426 H1442 0.931 . S
C1427 C1426 1.391 1_545 S
C1427 C1431 1.376 . S
C1428 C1426 1.394 . S
C1428 C1429 1.369 1_565 S
C1428 C1432 1.531 . S
C1429 C1428 1.369 1_545 S
C1429 C1430 1.410 . S
C1429 C1437 1.503 1_544 S
C1430 C1429 1.410 . S
C1430 C1431 1.392 . S
C1430 C1433 1.511 . S
C1431 C1427 1.376 . S
C1431 C1430 1.392 . S
C1431 H1443 0.929 . S
C1432 C1428 1.531 . S
C1432 H1444 0.960 . S
C1432 H1445 0.962 . S
C1432 H1446 0.960 . S
C1433 C1430 1.511 . S
C1433 H1447 0.961 . S
C1433 H1448 0.961 1_554 S
C1433 H1449 0.961 . S
C1434 C1435 1.370 . S
C1434 C1436 1.363 . S
C1434 H1450 0.931 . S
C1435 C1434 1.370 . S
C1435 C1439 1.408 . S
C1436 C1434 1.363 . S
C1436 C1437 1.370 . S
C1436 C1440 1.524 . S
C1437 C1429 1.503 1_566 S
C1437 C1436 1.370 . S
C1437 C1438 1.403 . S
C1438 C1437 1.403 . S
C1438 C1439 1.404 . S
C1438 C1441 1.539 . S
C1439 C1435 1.408 . S
C1439 C1438 1.404 . S
C1439 H1451 0.930 . S
C1440 C1436 1.524 . S
C1440 H1452 0.918 1_556 S
C1440 H1453 0.980 1_565 S
C1440 H1454 0.961 . S
C1441 C1438 1.539 . S
C1441 H1455 0.958 . S
C1441 H1456 0.961 1_565 S
C1441 H1457 0.960 1_565 S
H1442 C1426 0.931 . S
H1443 C1431 0.929 . S
H1444 C1432 0.960 . S
H1445 C1432 0.962 . S
H1446 C1432 0.960 . S
H1447 C1433 0.961 . S
H1448 C1433 0.961 1_556 S
H1449 C1433 0.961 . S
H1450 C1434 0.931 . S
H1451 C1439 0.930 . S
H1452 C1440 0.918 1_554 S
H1453 C1440 0.980 1_545 S
H1454 C1440 0.961 . S
H1455 C1441 0.958 . S
H1456 C1441 0.961 1_545 S
H1457 C1441 0.960 1_545 S
C1458 C1459 1.391 . S
C1458 C1460 1.394 . S
C1458 H1474 0.931 . S
C1459 C1458 1.391 . S
C1459 C1463 1.376 . S
C1460 C1458 1.394 . S
C1460 C1461 1.369 . S
C1460 C1464 1.531 . S
C1461 C1460 1.369 . S
C1461 C1462 1.410 . S
C1461 C1469 1.503 . S
C1462 C1461 1.410 . S
C1462 C1463 1.392 . S
C1462 C1465 1.511 . S
C1463 C1459 1.376 . S
C1463 C1462 1.392 . S
C1463 H1475 0.929 1_545 S
C1464 C1460 1.531 . S
C1464 H1476 0.960 . S
C1464 H1477 0.962 . S
C1464 H1478 0.960 . S
C1465 C1462 1.511 . S
C1465 H1479 0.961 . S
C1465 H1480 0.961 . S
C1465 H1481 0.961 . S
C1466 C1467 1.370 . S
C1466 C1468 1.363 . S
C1466 H1482 0.931 . S
C1467 C1466 1.370 . S
C1467 C1471 1.408 . S
C1468 C1466 1.363 . S
C1468 C1469 1.370 . S
C1468 C1472 1.524 . S
C1469 C1461 1.503 . S
C1469 C1468 1.370 . S
C1469 C1470 1.403 . S
C1470 C1469 1.403 . S
C1470 C1471 1.404 . S
C1470 C1473 1.539 . S
C1471 C1467 1.408 . S
C1471 C1470 1.404 . S
C1471 H1483 0.930 . S
C1472 C1468 1.524 . S
C1472 H1484 0.956 . S
C1472 H1485 0.961 . S
C1472 H1486 0.961 . S
C1473 C1470 1.539 . S
C1473 H1487 0.958 . S
C1473 H1488 0.961 . S
C1473 H1489 0.960 . S
H1474 C1458 0.931 . S
H1475 C1463 0.929 1_565 S
H1476 C1464 0.960 . S
H1477 C1464 0.962 . S
H1478 C1464 0.960 . S
H1479 C1465 0.961 . S
H1480 C1465 0.961 . S
H1481 C1465 0.961 . S
H1482 C1466 0.931 . S
H1483 C1471 0.930 . S
H1484 C1472 0.956 . S
H1485 C1472 0.961 . S
H1486 C1472 0.961 . S
H1487 C1473 0.958 . S
H1488 C1473 0.961 . S
H1489 C1473 0.960 . S
C1490 C1491 1.391 . S
C1490 C1492 1.394 1_565 S
C1490 H1506 0.931 . S
C1491 C1490 1.391 . S
C1491 C1495 1.376 . S
C1492 C1490 1.394 1_545 S
C1492 C1493 1.369 . S
C1492 C1496 1.531 . S
C1493 C1492 1.369 . S
C1493 C1494 1.410 . S
C1493 C1501 1.503 . S
C1494 C1493 1.410 . S
C1494 C1495 1.392 1_545 S
C1494 C1497 1.511 . S
C1495 C1491 1.376 . S
C1495 C1494 1.392 1_565 S
C1495 H1507 0.929 . S
C1496 C1492 1.531 . S
C1496 H1508 0.960 . S
C1496 H1509 0.962 . S
C1496 H1510 0.960 . S
C1497 C1494 1.511 . S
C1497 H1511 0.961 . S
C1497 H1512 0.961 . S
C1497 H1513 0.961 . S
C1498 C1499 1.370 . S
C1498 C1500 1.363 . S
C1498 H1514 0.931 . S
C1499 C1498 1.370 . S
C1499 C1503 1.408 . S
C1500 C1498 1.363 . S
C1500 C1501 1.370 . S
C1500 C1504 1.524 . S
C1501 C1493 1.503 . S
C1501 C1500 1.370 . S
C1501 C1502 1.403 . S
C1502 C1501 1.403 . S
C1502 C1503 1.404 . S
C1502 C1505 1.539 . S
C1503 C1499 1.408 . S
C1503 C1502 1.404 . S
C1503 H1515 0.930 . S
C1504 C1500 1.524 . S
C1504 H1516 0.956 . S
C1504 H1517 0.961 . S
C1504 H1518 0.961 . S
C1505 C1502 1.539 . S
C1505 H1519 0.958 . S
C1505 H1520 0.961 . S
C1505 H1521 0.960 . S
H1506 C1490 0.931 . S
H1507 C1495 0.929 . S
H1508 C1496 0.960 . S
H1509 C1496 0.962 . S
H1510 C1496 0.960 . S
H1511 C1497 0.961 . S
H1512 C1497 0.961 . S
H1513 C1497 0.961 . S
H1514 C1498 0.931 . S
H1515 C1503 0.930 . S
H1516 C1504 0.956 . S
H1517 C1504 0.961 . S
H1518 C1504 0.961 . S
H1519 C1505 0.958 . S
H1520 C1505 0.961 . S
H1521 C1505 0.960 . S
C1522 C1523 1.391 . S
C1522 C1524 1.394 . S
C1522 H1538 0.931 . S
C1523 C1522 1.391 . S
C1523 C1527 1.376 . S
C1524 C1522 1.394 . S
C1524 C1525 1.369 . S
C1524 C1528 1.531 . S
C1525 C1524 1.369 . S
C1525 C1526 1.410 . S
C1525 C1533 1.503 . S
C1526 C1525 1.410 . S
C1526 C1527 1.392 . S
C1526 C1529 1.511 . S
C1527 C1523 1.376 . S
C1527 C1526 1.392 . S
C1527 H1539 0.929 . S
C1528 C1524 1.531 . S
C1528 H1540 0.960 . S
C1528 H1541 0.962 . S
C1528 H1542 0.960 . S
C1529 C1526 1.511 . S
C1529 H1543 0.961 . S
C1529 H1544 0.961 . S
C1529 H1545 0.961 . S
C1530 C1531 1.370 . S
C1530 C1532 1.363 1_455 S
C1530 H1546 0.931 . S
C1531 C1530 1.370 . S
C1531 C1535 1.408 . S
C1532 C1530 1.363 1_655 S
C1532 C1533 1.370 . S
C1532 C1536 1.524 . S
C1533 C1525 1.503 . S
C1533 C1532 1.370 . S
C1533 C1534 1.403 1_655 S
C1534 C1533 1.403 1_455 S
C1534 C1535 1.404 . S
C1534 C1537 1.539 1_455 S
C1535 C1531 1.408 . S
C1535 C1534 1.404 . S
C1535 H1547 0.930 . S
C1536 C1532 1.524 . S
C1536 H1548 0.956 . S
C1536 H1549 0.961 . S
C1536 H1550 0.961 . S
C1537 C1534 1.539 1_655 S
C1537 H1551 0.958 . S
C1537 H1552 0.961 1_655 S
C1537 H1553 0.960 . S
H1538 C1522 0.931 . S
H1539 C1527 0.929 . S
H1540 C1528 0.960 . S
H1541 C1528 0.962 . S
H1542 C1528 0.960 . S
H1543 C1529 0.961 . S
H1544 C1529 0.961 . S
H1545 C1529 0.961 . S
H1546 C1530 0.931 . S
H1547 C1535 0.930 . S
H1548 C1536 0.956 . S
H1549 C1536 0.961 . S
H1550 C1536 0.961 . S
H1551 C1537 0.958 . S
H1552 C1537 0.961 1_455 S
H1553 C1537 0.960 . S
C1554 C1555 1.391 . S
C1554 C1556 1.394 . S
C1554 H1570 0.931 . S
C1555 C1554 1.391 . S
C1555 C1559 1.376 . S
C1556 C1554 1.394 . S
C1556 C1557 1.369 . S
C1556 C1560 1.531 . S
C1557 C1556 1.369 . S
C1557 C1558 1.410 . S
C1557 C1565 1.503 . S
C1558 C1557 1.410 . S
C1558 C1559 1.392 . S
C1558 C1561 1.511 . S
C1559 C1555 1.376 . S
C1559 C1558 1.392 . S
C1559 H1571 0.929 1_455 S
C1560 C1556 1.531 . S
C1560 H1572 0.960 . S
C1560 H1573 0.962 . S
C1560 H1574 0.960 . S
C1561 C1558 1.511 . S
C1561 H1575 0.961 . S
C1561 H1576 0.961 . S
C1561 H1577 0.961 . S
C1562 C1563 1.370 . S
C1562 C1564 1.363 . S
C1562 H1578 0.931 . S
C1563 C1562 1.370 . S
C1563 C1567 1.408 . S
C1564 C1562 1.363 . S
C1564 C1565 1.370 . S
C1564 C1568 1.524 . S
C1565 C1557 1.503 . S
C1565 C1564 1.370 . S
C1565 C1566 1.403 . S
C1566 C1565 1.403 . S
C1566 C1567 1.404 . S
C1566 C1569 1.539 . S
C1567 C1563 1.408 . S
C1567 C1566 1.404 . S
C1567 H1579 0.930 . S
C1568 C1564 1.524 . S
C1568 H1580 0.956 . S
C1568 H1581 0.961 . S
C1568 H1582 0.961 . S
C1569 C1566 1.539 . S
C1569 H1583 0.958 . S
C1569 H1584 0.961 . S
C1569 H1585 0.960 . S
H1570 C1554 0.931 . S
H1571 C1559 0.929 1_655 S
H1572 C1560 0.960 . S
H1573 C1560 0.962 . S
H1574 C1560 0.960 . S
H1575 C1561 0.961 . S
H1576 C1561 0.961 . S
H1577 C1561 0.961 . S
H1578 C1562 0.931 . S
H1579 C1567 0.930 . S
H1580 C1568 0.956 . S
H1581 C1568 0.961 . S
H1582 C1568 0.961 . S
H1583 C1569 0.958 . S
H1584 C1569 0.961 . S
H1585 C1569 0.960 . S
C1586 C1587 1.391 . S
C1586 C1588 1.394 1_545 S
C1586 H1602 0.931 . S
C1587 C1586 1.391 . S
C1587 C1591 1.376 . S
C1588 C1586 1.394 1_565 S
C1588 C1589 1.369 . S
C1588 C1592 1.531 . S
C1589 C1588 1.369 . S
C1589 C1590 1.410 . S
C1589 C1597 1.503 . S
C1590 C1589 1.410 . S
C1590 C1591 1.392 1_565 S
C1590 C1593 1.511 . S
C1591 C1587 1.376 . S
C1591 C1590 1.392 1_545 S
C1591 H1603 0.929 . S
C1592 C1588 1.531 . S
C1592 H1604 0.960 . S
C1592 H1605 0.962 . S
C1592 H1606 0.960 . S
C1593 C1590 1.511 . S
C1593 H1607 0.961 . S
C1593 H1608 0.961 . S
C1593 H1609 0.961 . S
C1594 C1595 1.370 . S
C1594 C1596 1.363 . S
C1594 H1610 0.931 . S
C1595 C1594 1.370 . S
C1595 C1599 1.408 . S
C1596 C1594 1.363 . S
C1596 C1597 1.370 . S
C1596 C1600 1.524 . S
C1597 C1589 1.503 . S
C1597 C1596 1.370 . S
C1597 C1598 1.403 . S
C1598 C1597 1.403 . S
C1598 C1599 1.404 . S
C1598 C1601 1.539 . S
C1599 C1595 1.408 . S
C1599 C1598 1.404 . S
C1599 H1611 0.930 . S
C1600 C1596 1.524 . S
C1600 H1612 0.956 . S
C1600 H1613 0.961 . S
C1600 H1614 0.961 . S
C1601 C1598 1.539 . S
C1601 H1615 0.958 . S
C1601 H1616 0.961 . S
C1601 H1617 0.960 . S
H1602 C1586 0.931 . S
H1603 C1591 0.929 . S
H1604 C1592 0.960 . S
H1605 C1592 0.962 . S
H1606 C1592 0.960 . S
H1607 C1593 0.961 . S
H1608 C1593 0.961 . S
H1609 C1593 0.961 . S
H1610 C1594 0.931 . S
H1611 C1599 0.930 . S
H1612 C1600 0.956 . S
H1613 C1600 0.961 . S
H1614 C1600 0.961 . S
H1615 C1601 0.958 . S
H1616 C1601 0.961 . S
H1617 C1601 0.960 . S
C1618 C1619 1.391 . S
C1618 C1620 1.394 . S
C1618 H1634 0.931 . S
C1619 C1618 1.391 . S
C1619 C1623 1.376 . S
C1620 C1618 1.394 . S
C1620 C1621 1.369 . S
C1620 C1624 1.531 . S
C1621 C1620 1.369 . S
C1621 C1622 1.410 . S
C1621 C1629 1.503 . S
C1622 C1621 1.410 . S
C1622 C1623 1.392 . S
C1622 C1625 1.511 . S
C1623 C1619 1.376 . S
C1623 C1622 1.392 . S
C1623 H1635 0.931 1_565 S
C1624 C1620 1.531 . S
C1624 H1636 0.960 . S
C1624 H1637 0.962 . S
C1624 H1638 0.960 . S
C1625 C1622 1.511 . S
C1625 H1639 0.961 . S
C1625 H1640 0.961 . S
C1625 H1641 0.961 . S
C1626 C1627 1.370 . S
C1626 C1628 1.363 1_655 S
C1626 H1642 0.931 . S
C1627 C1626 1.370 . S
C1627 C1631 1.408 . S
C1628 C1626 1.363 1_455 S
C1628 C1629 1.370 . S
C1628 C1632 1.524 . S
C1629 C1621 1.503 . S
C1629 C1628 1.370 . S
C1629 C1630 1.403 . S
C1630 C1629 1.403 . S
C1630 C1631 1.404 1_455 S
C1630 C1633 1.539 . S
C1631 C1627 1.408 . S
C1631 C1630 1.404 1_655 S
C1631 H1643 0.930 . S
C1632 C1628 1.524 . S
C1632 H1644 0.956 . S
C1632 H1645 0.961 . S
C1632 H1646 0.961 . S
C1633 C1630 1.539 . S
C1633 H1647 0.958 . S
C1633 H1648 0.961 . S
C1633 H1649 0.960 . S
H1634 C1618 0.931 . S
H1635 C1623 0.931 1_545 S
H1636 C1624 0.960 . S
H1637 C1624 0.962 . S
H1638 C1624 0.960 . S
H1639 C1625 0.961 . S
H1640 C1625 0.961 . S
H1641 C1625 0.961 . S
H1642 C1626 0.931 . S
H1643 C1631 0.930 . S
H1644 C1632 0.956 . S
H1645 C1632 0.961 . S
H1646 C1632 0.961 . S
H1647 C1633 0.958 . S
H1648 C1633 0.961 . S
H1649 C1633 0.960 . S
C1650 C1651 1.391 . S
C1650 C1652 1.394 . S
C1650 H1666 0.931 . S
C1651 C1650 1.391 . S
C1651 C1655 1.376 . S
C1652 C1650 1.394 . S
C1652 C1653 1.369 . S
C1652 C1656 1.531 . S
C1653 C1652 1.369 . S
C1653 C1654 1.410 . S
C1653 C1661 1.503 . S
C1654 C1653 1.410 . S
C1654 C1655 1.392 . S
C1654 C1657 1.511 . S
C1655 C1651 1.376 . S
C1655 C1654 1.392 . S
C1655 H1667 0.929 . S
C1656 C1652 1.531 . S
C1656 H1668 0.960 . S
C1656 H1669 0.962 . S
C1656 H1670 0.960 . S
C1657 C1654 1.511 . S
C1657 H1671 0.961 . S
C1657 H1672 0.961 . S
C1657 H1673 0.961 . S
C1658 C1659 1.370 . S
C1658 C1660 1.363 . S
C1658 H1674 0.931 . S
C1659 C1658 1.370 . S
C1659 C1663 1.408 . S
C1660 C1658 1.363 . S
C1660 C1661 1.370 . S
C1660 C1664 1.524 . S
C1661 C1653 1.503 . S
C1661 C1660 1.370 . S
C1661 C1662 1.403 . S
C1662 C1661 1.403 . S
C1662 C1663 1.404 . S
C1662 C1665 1.539 . S
C1663 C1659 1.408 . S
C1663 C1662 1.404 . S
C1663 H1675 0.930 . S
C1664 C1660 1.524 . S
C1664 H1676 0.956 . S
C1664 H1677 0.961 . S
C1664 H1678 0.961 . S
C1665 C1662 1.539 . S
C1665 H1679 0.958 . S
C1665 H1680 0.961 . S
C1665 H1681 0.960 . S
H1666 C1650 0.931 . S
H1667 C1655 0.929 . S
H1668 C1656 0.960 . S
H1669 C1656 0.962 . S
H1670 C1656 0.960 . S
H1671 C1657 0.961 . S
H1672 C1657 0.961 . S
H1673 C1657 0.961 . S
H1674 C1658 0.931 . S
H1675 C1663 0.930 . S
H1676 C1664 0.956 . S
H1677 C1664 0.961 . S
H1678 C1664 0.961 . S
H1679 C1665 0.958 . S
H1680 C1665 0.961 . S
H1681 C1665 0.960 . S
C1682 C1683 1.391 . S
C1682 C1684 1.394 . S
C1682 H1698 0.931 . S
C1683 C1682 1.391 . S
C1683 C1687 1.376 . S
C1684 C1682 1.394 . S
C1684 C1685 1.369 . S
C1684 C1688 1.531 . S
C1685 C1684 1.369 . S
C1685 C1686 1.410 . S
C1685 C1693 1.503 . S
C1686 C1685 1.410 . S
C1686 C1687 1.392 . S
C1686 C1689 1.511 . S
C1687 C1683 1.376 . S
C1687 C1686 1.392 . S
C1687 H1699 0.929 . S
C1688 C1684 1.531 . S
C1688 H1700 0.960 . S
C1688 H1701 0.962 . S
C1688 H1702 0.960 . S
C1689 C1686 1.511 . S
C1689 H1703 0.961 . S
C1689 H1704 0.961 . S
C1689 H1705 0.961 . S
C1690 C1691 1.370 . S
C1690 C1692 1.363 . S
C1690 H1706 0.931 . S
C1691 C1690 1.370 . S
C1691 C1695 1.408 . S
C1692 C1690 1.363 . S
C1692 C1693 1.370 . S
C1692 C1696 1.524 . S
C1693 C1685 1.503 . S
C1693 C1692 1.370 . S
C1693 C1694 1.403 . S
C1694 C1693 1.403 . S
C1694 C1695 1.404 . S
C1694 C1697 1.539 . S
C1695 C1691 1.408 . S
C1695 C1694 1.404 . S
C1695 H1707 0.930 . S
C1696 C1692 1.524 . S
C1696 H1708 0.956 . S
C1696 H1709 0.961 . S
C1696 H1710 0.961 . S
C1697 C1694 1.539 . S
C1697 H1711 0.958 . S
C1697 H1712 0.961 . S
C1697 H1713 0.960 . S
H1698 C1682 0.931 . S
H1699 C1687 0.929 . S
H1700 C1688 0.960 . S
H1701 C1688 0.962 . S
H1702 C1688 0.960 . S
H1703 C1689 0.961 . S
H1704 C1689 0.961 . S
H1705 C1689 0.961 . S
H1706 C1690 0.931 . S
H1707 C1695 0.930 . S
H1708 C1696 0.956 . S
H1709 C1696 0.961 . S
H1710 C1696 0.961 . S
H1711 C1697 0.958 . S
H1712 C1697 0.961 . S
H1713 C1697 0.960 . S
C1714 C1715 1.391 . S
C1714 C1716 1.394 . S
C1714 H1730 0.931 . S
C1715 C1714 1.391 . S
C1715 C1719 1.376 . S
C1716 C1714 1.394 . S
C1716 C1717 1.369 . S
C1716 C1720 1.531 . S
C1717 C1716 1.369 . S
C1717 C1718 1.410 . S
C1717 C1725 1.503 . S
C1718 C1717 1.410 . S
C1718 C1719 1.392 . S
C1718 C1721 1.511 . S
C1719 C1715 1.376 . S
C1719 C1718 1.392 . S
C1719 H1731 0.929 . S
C1720 C1716 1.531 . S
C1720 H1732 0.960 . S
C1720 H1733 0.962 . S
C1720 H1734 0.960 . S
C1721 C1718 1.511 . S
C1721 H1735 0.961 . S
C1721 H1736 0.961 . S
C1721 H1737 0.961 . S
C1722 C1723 1.370 . S
C1722 C1724 1.363 . S
C1722 H1738 0.931 . S
C1723 C1722 1.370 . S
C1723 C1727 1.408 . S
C1724 C1722 1.363 . S
C1724 C1725 1.370 . S
C1724 C1728 1.524 . S
C1725 C1717 1.503 . S
C1725 C1724 1.370 . S
C1725 C1726 1.403 . S
C1726 C1725 1.403 . S
C1726 C1727 1.404 . S
C1726 C1729 1.539 . S
C1727 C1723 1.408 . S
C1727 C1726 1.404 . S
C1727 H1739 0.930 . S
C1728 C1724 1.524 . S
C1728 H1740 0.956 . S
C1728 H1741 0.961 . S
C1728 H1742 0.961 . S
C1729 C1726 1.539 . S
C1729 H1743 0.958 . S
C1729 H1744 0.961 . S
C1729 H1745 0.960 . S
H1730 C1714 0.931 . S
H1731 C1719 0.929 . S
H1732 C1720 0.960 . S
H1733 C1720 0.962 . S
H1734 C1720 0.960 . S
H1735 C1721 0.961 . S
H1736 C1721 0.961 . S
H1737 C1721 0.961 . S
H1738 C1722 0.931 . S
H1739 C1727 0.930 . S
H1740 C1728 0.956 . S
H1741 C1728 0.961 . S
H1742 C1728 0.961 . S
H1743 C1729 0.958 . S
H1744 C1729 0.961 . S
H1745 C1729 0.960 . S
C1746 C1747 1.391 . S
C1746 C1748 1.394 . S
C1746 H1762 0.931 . S
C1747 C1746 1.391 . S
C1747 C1751 1.376 . S
C1748 C1746 1.394 . S
C1748 C1749 1.369 . S
C1748 C1752 1.531 . S
C1749 C1748 1.369 . S
C1749 C1750 1.410 . S
C1749 C1757 1.503 . S
C1750 C1749 1.410 . S
C1750 C1751 1.392 . S
C1750 C1753 1.511 . S
C1751 C1747 1.376 . S
C1751 C1750 1.392 . S
C1751 H1763 0.929 . S
C1752 C1748 1.531 . S
C1752 H1764 0.960 . S
C1752 H1765 0.962 . S
C1752 H1766 0.960 . S
C1753 C1750 1.511 . S
C1753 H1767 0.961 . S
C1753 H1768 0.961 . S
C1753 H1769 0.961 . S
C1754 C1755 1.370 . S
C1754 C1756 1.363 . S
C1754 H1770 0.931 . S
C1755 C1754 1.370 . S
C1755 C1759 1.408 . S
C1756 C1754 1.363 . S
C1756 C1757 1.370 . S
C1756 C1760 1.524 . S
C1757 C1749 1.503 . S
C1757 C1756 1.370 . S
C1757 C1758 1.403 . S
C1758 C1757 1.403 . S
C1758 C1759 1.404 . S
C1758 C1761 1.539 . S
C1759 C1755 1.408 . S
C1759 C1758 1.404 . S
C1759 H1771 0.930 . S
C1760 C1756 1.524 . S
C1760 H1772 0.956 . S
C1760 H1773 0.961 . S
C1760 H1774 0.961 . S
C1761 C1758 1.539 . S
C1761 H1775 0.958 . S
C1761 H1776 0.961 . S
C1761 H1777 0.960 . S
H1762 C1746 0.931 . S
H1763 C1751 0.929 . S
H1764 C1752 0.960 . S
H1765 C1752 0.962 . S
H1766 C1752 0.960 . S
H1767 C1753 0.961 . S
H1768 C1753 0.961 . S
H1769 C1753 0.961 . S
H1770 C1754 0.931 . S
H1771 C1759 0.930 . S
H1772 C1760 0.956 . S
H1773 C1760 0.961 . S
H1774 C1760 0.961 . S
H1775 C1761 0.958 . S
H1776 C1761 0.961 . S
H1777 C1761 0.960 . S
C1778 C1779 1.391 . S
C1778 C1780 1.394 . S
C1778 H1794 0.931 . S
C1779 C1778 1.391 . S
C1779 C1783 1.376 . S
C1780 C1778 1.394 . S
C1780 C1781 1.369 . S
C1780 C1784 1.531 . S
C1781 C1780 1.369 . S
C1781 C1782 1.410 . S
C1781 C1789 1.503 . S
C1782 C1781 1.410 . S
C1782 C1783 1.392 . S
C1782 C1785 1.511 . S
C1783 C1779 1.376 . S
C1783 C1782 1.392 . S
C1783 H1795 0.929 . S
C1784 C1780 1.531 . S
C1784 H1796 0.960 . S
C1784 H1797 0.962 . S
C1784 H1798 0.960 . S
C1785 C1782 1.511 . S
C1785 H1799 0.961 . S
C1785 H1800 0.961 . S
C1785 H1801 0.961 . S
C1786 C1787 1.370 . S
C1786 C1788 1.363 . S
C1786 H1802 0.931 . S
C1787 C1786 1.370 . S
C1787 C1791 1.408 . S
C1788 C1786 1.363 . S
C1788 C1789 1.370 . S
C1788 C1792 1.524 . S
C1789 C1781 1.503 . S
C1789 C1788 1.370 . S
C1789 C1790 1.403 . S
C1790 C1789 1.403 . S
C1790 C1791 1.404 . S
C1790 C1793 1.539 . S
C1791 C1787 1.408 . S
C1791 C1790 1.404 . S
C1791 H1803 0.930 . S
C1792 C1788 1.524 . S
C1792 H1804 0.956 . S
C1792 H1805 0.961 . S
C1792 H1806 0.961 . S
C1793 C1790 1.539 . S
C1793 H1807 0.958 . S
C1793 H1808 0.961 . S
C1793 H1809 0.960 . S
H1794 C1778 0.931 . S
H1795 C1783 0.929 . S
H1796 C1784 0.960 . S
H1797 C1784 0.962 . S
H1798 C1784 0.960 . S
H1799 C1785 0.961 . S
H1800 C1785 0.961 . S
H1801 C1785 0.961 . S
H1802 C1786 0.931 . S
H1803 C1791 0.930 . S
H1804 C1792 0.956 . S
H1805 C1792 0.961 . S
H1806 C1792 0.961 . S
H1807 C1793 0.958 . S
H1808 C1793 0.961 . S
H1809 C1793 0.960 . S
C1810 C1811 1.391 . S
C1810 C1812 1.394 . S
C1810 H1826 0.931 . S
C1811 C1810 1.391 . S
C1811 C1815 1.376 . S
C1812 C1810 1.394 . S
C1812 C1813 1.369 . S
C1812 C1816 1.531 . S
C1813 C1812 1.369 . S
C1813 C1814 1.410 . S
C1813 C1821 1.503 . S
C1814 C1813 1.410 . S
C1814 C1815 1.392 . S
C1814 C1817 1.511 . S
C1815 C1811 1.376 . S
C1815 C1814 1.392 . S
C1815 H1827 0.929 . S
C1816 C1812 1.531 . S
C1816 H1828 0.960 . S
C1816 H1829 0.962 . S
C1816 H1830 0.960 . S
C1817 C1814 1.511 . S
C1817 H1831 0.961 . S
C1817 H1832 0.961 . S
C1817 H1833 0.961 . S
C1818 C1819 1.370 . S
C1818 C1820 1.363 . S
C1818 H1834 0.931 . S
C1819 C1818 1.370 . S
C1819 C1823 1.408 . S
C1820 C1818 1.363 . S
C1820 C1821 1.370 . S
C1820 C1824 1.524 . S
C1821 C1813 1.503 . S
C1821 C1820 1.370 . S
C1821 C1822 1.403 . S
C1822 C1821 1.403 . S
C1822 C1823 1.404 . S
C1822 C1825 1.539 . S
C1823 C1819 1.408 . S
C1823 C1822 1.404 . S
C1823 H1835 0.930 . S
C1824 C1820 1.524 . S
C1824 H1836 0.956 . S
C1824 H1837 0.961 . S
C1824 H1838 0.961 . S
C1825 C1822 1.539 . S
C1825 H1839 0.958 . S
C1825 H1840 0.961 . S
C1825 H1841 0.960 . S
H1826 C1810 0.931 . S
H1827 C1815 0.929 . S
H1828 C1816 0.960 . S
H1829 C1816 0.962 . S
H1830 C1816 0.960 . S
H1831 C1817 0.961 . S
H1832 C1817 0.961 . S
H1833 C1817 0.961 . S
H1834 C1818 0.931 . S
H1835 C1823 0.930 . S
H1836 C1824 0.956 . S
H1837 C1824 0.961 . S
H1838 C1824 0.961 . S
H1839 C1825 0.958 . S
H1840 C1825 0.961 . S
H1841 C1825 0.960 . S
C1842 C1843 1.391 . S
C1842 C1844 1.394 . S
C1842 H1858 0.931 . S
C1843 C1842 1.391 . S
C1843 C1847 1.376 . S
C1844 C1842 1.394 . S
C1844 C1845 1.369 . S
C1844 C1848 1.531 . S
C1845 C1844 1.369 . S
C1845 C1846 1.410 . S
C1845 C1853 1.503 . S
C1846 C1845 1.410 . S
C1846 C1847 1.392 . S
C1846 C1849 1.511 . S
C1847 C1843 1.376 . S
C1847 C1846 1.392 . S
C1847 H1859 0.929 . S
C1848 C1844 1.531 . S
C1848 H1860 0.960 . S
C1848 H1861 0.962 . S
C1848 H1862 0.960 . S
C1849 C1846 1.511 . S
C1849 H1863 0.961 . S
C1849 H1864 0.961 . S
C1849 H1865 0.961 . S
C1850 C1851 1.370 . S
C1850 C1852 1.363 . S
C1850 H1866 0.931 . S
C1851 C1850 1.370 . S
C1851 C1855 1.408 . S
C1852 C1850 1.363 . S
C1852 C1853 1.370 . S
C1852 C1856 1.524 . S
C1853 C1845 1.503 . S
C1853 C1852 1.370 . S
C1853 C1854 1.403 . S
C1854 C1853 1.403 . S
C1854 C1855 1.404 . S
C1854 C1857 1.539 . S
C1855 C1851 1.408 . S
C1855 C1854 1.404 . S
C1855 H1867 0.930 . S
C1856 C1852 1.524 . S
C1856 H1868 0.956 . S
C1856 H1869 0.961 . S
C1856 H1870 0.961 . S
C1857 C1854 1.539 . S
C1857 H1871 0.958 . S
C1857 H1872 0.961 . S
C1857 H1873 0.960 . S
H1858 C1842 0.931 . S
H1859 C1847 0.929 . S
H1860 C1848 0.960 . S
H1861 C1848 0.962 . S
H1862 C1848 0.960 . S
H1863 C1849 0.961 . S
H1864 C1849 0.961 . S
H1865 C1849 0.961 . S
H1866 C1850 0.931 . S
H1867 C1855 0.930 . S
H1868 C1856 0.956 . S
H1869 C1856 0.961 . S
H1870 C1856 0.961 . S
H1871 C1857 0.958 . S
H1872 C1857 0.961 . S
H1873 C1857 0.960 . S
C1874 C1875 1.391 . S
C1874 C1876 1.394 . S
C1874 H1890 0.931 . S
C1875 C1874 1.391 . S
C1875 C1879 1.376 . S
C1876 C1874 1.394 . S
C1876 C1877 1.369 . S
C1876 C1880 1.531 . S
C1877 C1876 1.369 . S
C1877 C1878 1.410 . S
C1877 C1885 1.503 . S
C1878 C1877 1.410 . S
C1878 C1879 1.392 . S
C1878 C1881 1.511 . S
C1879 C1875 1.376 . S
C1879 C1878 1.392 . S
C1879 H1891 0.929 . S
C1880 C1876 1.531 . S
C1880 H1892 0.960 . S
C1880 H1893 0.962 . S
C1880 H1894 0.960 . S
C1881 C1878 1.511 . S
C1881 H1895 0.961 . S
C1881 H1896 0.961 . S
C1881 H1897 0.961 . S
C1882 C1883 1.370 . S
C1882 C1884 1.363 . S
C1882 H1898 0.931 . S
C1883 C1882 1.370 . S
C1883 C1887 1.408 . S
C1884 C1882 1.363 . S
C1884 C1885 1.370 . S
C1884 C1888 1.524 . S
C1885 C1877 1.503 . S
C1885 C1884 1.370 . S
C1885 C1886 1.403 . S
C1886 C1885 1.403 . S
C1886 C1887 1.404 . S
C1886 C1889 1.539 . S
C1887 C1883 1.408 . S
C1887 C1886 1.404 . S
C1887 H1899 0.930 . S
C1888 C1884 1.524 . S
C1888 H1900 0.956 . S
C1888 H1901 0.961 . S
C1888 H1902 0.961 . S
C1889 C1886 1.539 . S
C1889 H1903 0.958 . S
C1889 H1904 0.961 . S
C1889 H1905 0.960 . S
H1890 C1874 0.931 . S
H1891 C1879 0.929 . S
H1892 C1880 0.960 . S
H1893 C1880 0.962 . S
H1894 C1880 0.960 . S
H1895 C1881 0.961 . S
H1896 C1881 0.961 . S
H1897 C1881 0.961 . S
H1898 C1882 0.931 . S
H1899 C1887 0.930 . S
H1900 C1888 0.956 . S
H1901 C1888 0.961 . S
H1902 C1888 0.961 . S
H1903 C1889 0.958 . S
H1904 C1889 0.961 . S
H1905 C1889 0.960 . S
C1906 C1907 1.391 . S
C1906 C1908 1.394 . S
C1906 H1922 0.931 . S
C1907 C1906 1.391 . S
C1907 C1911 1.376 . S
C1908 C1906 1.394 . S
C1908 C1909 1.369 . S
C1908 C1912 1.531 . S
C1909 C1908 1.369 . S
C1909 C1910 1.410 . S
C1909 C1917 1.503 . S
C1910 C1909 1.410 . S
C1910 C1911 1.392 . S
C1910 C1913 1.511 . S
C1911 C1907 1.376 . S
C1911 C1910 1.392 . S
C1911 H1923 0.929 . S
C1912 C1908 1.531 . S
C1912 H1924 0.960 . S
C1912 H1925 0.962 . S
C1912 H1926 0.960 . S
C1913 C1910 1.511 . S
C1913 H1927 0.961 . S
C1913 H1928 0.961 . S
C1913 H1929 0.961 . S
C1914 C1915 1.370 . S
C1914 C1916 1.363 . S
C1914 H1930 0.931 . S
C1915 C1914 1.370 . S
C1915 C1919 1.408 . S
C1916 C1914 1.363 . S
C1916 C1917 1.370 . S
C1916 C1920 1.524 . S
C1917 C1909 1.503 . S
C1917 C1916 1.370 . S
C1917 C1918 1.403 . S
C1918 C1917 1.403 . S
C1918 C1919 1.404 . S
C1918 C1921 1.539 . S
C1919 C1915 1.408 . S
C1919 C1918 1.404 . S
C1919 H1931 0.930 . S
C1920 C1916 1.524 . S
C1920 H1932 0.956 . S
C1920 H1933 0.961 . S
C1920 H1934 0.961 . S
C1921 C1918 1.539 . S
C1921 H1935 0.958 . S
C1921 H1936 0.961 . S
C1921 H1937 0.960 . S
H1922 C1906 0.931 . S
H1923 C1911 0.929 . S
H1924 C1912 0.960 . S
H1925 C1912 0.962 . S
H1926 C1912 0.960 . S
H1927 C1913 0.961 . S
H1928 C1913 0.961 . S
H1929 C1913 0.961 . S
H1930 C1914 0.931 . S
H1931 C1919 0.930 . S
H1932 C1920 0.956 . S
H1933 C1920 0.961 . S
H1934 C1920 0.961 . S
H1935 C1921 0.958 . S
H1936 C1921 0.961 . S
H1937 C1921 0.960 . S
C1938 C1939 1.391 . S
C1938 C1940 1.394 . S
C1938 H1954 0.931 . S
C1939 C1938 1.391 . S
C1939 C1943 1.376 . S
C1940 C1938 1.394 . S
C1940 C1941 1.369 . S
C1940 C1944 1.531 . S
C1941 C1940 1.369 . S
C1941 C1942 1.410 . S
C1941 C1949 1.503 . S
C1942 C1941 1.410 . S
C1942 C1943 1.392 . S
C1942 C1945 1.511 . S
C1943 C1939 1.376 . S
C1943 C1942 1.392 . S
C1943 H1955 0.929 . S
C1944 C1940 1.531 . S
C1944 H1956 0.960 . S
C1944 H1957 0.962 . S
C1944 H1958 0.960 . S
C1945 C1942 1.511 . S
C1945 H1959 0.961 . S
C1945 H1960 0.961 . S
C1945 H1961 0.961 . S
C1946 C1947 1.370 . S
C1946 C1948 1.363 . S
C1946 H1962 0.931 . S
C1947 C1946 1.370 . S
C1947 C1951 1.408 . S
C1948 C1946 1.363 . S
C1948 C1949 1.370 . S
C1948 C1952 1.524 . S
C1949 C1941 1.503 . S
C1949 C1948 1.370 . S
C1949 C1950 1.403 . S
C1950 C1949 1.403 . S
C1950 C1951 1.404 . S
C1950 C1953 1.539 . S
C1951 C1947 1.408 . S
C1951 C1950 1.404 . S
C1951 H1963 0.930 . S
C1952 C1948 1.524 . S
C1952 H1964 0.956 . S
C1952 H1965 0.961 . S
C1952 H1966 0.961 . S
C1953 C1950 1.539 . S
C1953 H1967 0.958 . S
C1953 H1968 0.961 . S
C1953 H1969 0.960 . S
H1954 C1938 0.931 . S
H1955 C1943 0.929 . S
H1956 C1944 0.960 . S
H1957 C1944 0.962 . S
H1958 C1944 0.960 . S
H1959 C1945 0.961 . S
H1960 C1945 0.961 . S
H1961 C1945 0.961 . S
H1962 C1946 0.931 . S
H1963 C1951 0.930 . S
H1964 C1952 0.956 . S
H1965 C1952 0.961 . S
H1966 C1952 0.961 . S
H1967 C1953 0.958 . S
H1968 C1953 0.961 . S
H1969 C1953 0.960 . S
C1970 C1971 1.391 . S
C1970 C1972 1.394 . S
C1970 H1986 0.931 . S
C1971 C1970 1.391 . S
C1971 C1975 1.376 . S
C1972 C1970 1.394 . S
C1972 C1973 1.369 . S
C1972 C1976 1.531 . S
C1973 C1972 1.369 . S
C1973 C1974 1.410 . S
C1973 C1981 1.503 . S
C1974 C1973 1.410 . S
C1974 C1975 1.392 . S
C1974 C1977 1.511 . S
C1975 C1971 1.376 . S
C1975 C1974 1.392 . S
C1975 H1987 0.929 . S
C1976 C1972 1.531 . S
C1976 H1988 0.960 . S
C1976 H1989 0.962 . S
C1976 H1990 0.960 . S
C1977 C1974 1.511 . S
C1977 H1991 0.961 . S
C1977 H1992 0.961 . S
C1977 H1993 0.961 . S
C1978 C1979 1.370 . S
C1978 C1980 1.363 . S
C1978 H1994 0.931 . S
C1979 C1978 1.370 . S
C1979 C1983 1.408 . S
C1980 C1978 1.363 . S
C1980 C1981 1.370 . S
C1980 C1984 1.524 . S
C1981 C1973 1.503 . S
C1981 C1980 1.370 . S
C1981 C1982 1.403 . S
C1982 C1981 1.403 . S
C1982 C1983 1.404 . S
C1982 C1985 1.539 . S
C1983 C1979 1.408 . S
C1983 C1982 1.404 . S
C1983 H1995 0.930 . S
C1984 C1980 1.524 . S
C1984 H1996 0.956 . S
C1984 H1997 0.961 . S
C1984 H1998 0.961 . S
C1985 C1982 1.539 . S
C1985 H1999 0.958 . S
C1985 H2000 0.961 . S
C1985 H2001 0.960 . S
H1986 C1970 0.931 . S
H1987 C1975 0.929 . S
H1988 C1976 0.960 . S
H1989 C1976 0.962 . S
H1990 C1976 0.960 . S
H1991 C1977 0.961 . S
H1992 C1977 0.961 . S
H1993 C1977 0.961 . S
H1994 C1978 0.931 . S
H1995 C1983 0.930 . S
H1996 C1984 0.956 . S
H1997 C1984 0.961 . S
H1998 C1984 0.961 . S
H1999 C1985 0.958 . S
H2000 C1985 0.961 . S
H2001 C1985 0.960 . S
C2002 C2003 1.391 . S
C2002 C2004 1.394 . S
C2002 H2018 0.931 . S
C2003 C2002 1.391 . S
C2003 C2007 1.376 . S
C2004 C2002 1.394 . S
C2004 C2005 1.369 . S
C2004 C2008 1.531 . S
C2005 C2004 1.369 . S
C2005 C2006 1.410 . S
C2005 C2013 1.503 . S
C2006 C2005 1.410 . S
C2006 C2007 1.392 . S
C2006 C2009 1.511 . S
C2007 C2003 1.376 . S
C2007 C2006 1.392 . S
C2007 H2019 0.929 . S
C2008 C2004 1.531 . S
C2008 H2020 0.960 . S
C2008 H2021 0.962 . S
C2008 H2022 0.960 . S
C2009 C2006 1.511 . S
C2009 H2023 0.961 . S
C2009 H2024 0.961 . S
C2009 H2025 0.961 . S
C2010 C2011 1.370 . S
C2010 C2012 1.363 . S
C2010 H2026 0.931 . S
C2011 C2010 1.370 . S
C2011 C2015 1.408 . S
C2012 C2010 1.363 . S
C2012 C2013 1.370 . S
C2012 C2016 1.524 . S
C2013 C2005 1.503 . S
C2013 C2012 1.370 . S
C2013 C2014 1.403 . S
C2014 C2013 1.403 . S
C2014 C2015 1.404 . S
C2014 C2017 1.539 . S
C2015 C2011 1.408 . S
C2015 C2014 1.404 . S
C2015 H2027 0.930 . S
C2016 C2012 1.524 . S
C2016 H2028 0.956 . S
C2016 H2029 0.961 . S
C2016 H2030 0.961 . S
C2017 C2014 1.539 . S
C2017 H2031 0.958 . S
C2017 H2032 0.961 . S
C2017 H2033 0.960 . S
H2018 C2002 0.931 . S
H2019 C2007 0.929 . S
H2020 C2008 0.960 . S
H2021 C2008 0.962 . S
H2022 C2008 0.960 . S
H2023 C2009 0.961 . S
H2024 C2009 0.961 . S
H2025 C2009 0.961 . S
H2026 C2010 0.931 . S
H2027 C2015 0.930 . S
H2028 C2016 0.956 . S
H2029 C2016 0.961 . S
H2030 C2016 0.961 . S
H2031 C2017 0.958 . S
H2032 C2017 0.961 . S
H2033 C2017 0.960 . S
C595 N332 1.690 . S
C603 N2 1.713 . S
C627 N35 1.735 . S
C635 N365 1.733 . S
C659 N299 1.747 1_455 S
C667 N68 1.742 . S
C691 N464 1.747 . S
C699 N101 1.742 . S
C723 N134 1.691 . S
C731 N398 1.719 1_545 S
C755 N431 1.753 . S
C763 N167 1.729 . S
C787 C172 1.737 . S
C795 C469 1.761 . S
C819 C403 1.747 . S
C827 C106 1.755 . S
C851 C436 1.769 . S
C859 C139 1.751 . S
C883 C40 1.737 . S
C891 C337 1.761 . S
C915 C73 1.743 . S
C923 C370 1.765 . S
C947 C7 1.762 . S
C955 C304 1.751 . S
C979 N530 1.738 . S
C987 N200 1.740 . S
C1011 N563 1.719 . S
C1019 N233 1.719 . S
C1043 N497 1.700 . S
C1051 N266 1.714 . S
C1075 C238 1.736 . S
C1083 C535 1.762 . S
C1107 C568 1.739 . S
C1115 C271 1.759 . S
C1139 C205 1.750 . S
C1147 C502 1.763 . S
C1171 C21 1.344 . S
C1179 C582 1.326 . S
C1203 C54 1.327 . S
C1211 C516 1.335 . S
C1235 C87 1.311 . S
C1243 C549 1.338 . S
C1267 C252 1.332 . S
C1275 C120 1.333 . S
C1299 C153 1.334 . S
C1307 C285 1.331 . S
C1331 C186 1.311 . S
C1339 C219 1.338 . S
C1363 C318 1.312 . S
C1371 C450 1.339 . S
C1395 C351 1.342 . S
C1403 C483 1.324 . S
C1427 C384 1.330 . S
C1435 C417 1.333 . S
C1459 N79 1.381 1_545 S
C1467 C18 1.437 . S
C1491 C51 1.441 . S
C1499 N13 1.413 . S
C1523 N46 1.419 . S
C1531 C84 1.425 . S
C1555 N145 1.381 1_455 S
C1563 C117 1.437 . S
C1587 C150 1.404 . S
C1595 N178 1.424 . S
C1619 N112 1.391 . S
C1627 C183 1.437 . S
C1651 C216 1.401 . S
C1659 N277 1.425 . S
C1683 N211 1.436 . S
C1691 C249 1.418 . S
C1715 C282 1.429 . S
C1723 N244 1.410 . S
C1747 C315 1.404 . S
C1755 N343 1.423 . S
C1779 N376 1.383 . S
C1787 C348 1.436 . S
C1811 C381 1.410 . S
C1819 N310 1.422 . S
C1843 C414 1.412 . S
C1851 N475 1.420 . S
C1875 N409 1.435 . S
C1883 C447 1.418 . S
C1907 C480 1.445 . S
C1915 N442 1.402 . S
C1939 C513 1.440 . S
C1947 N541 1.405 . S
C1971 N574 1.417 . S
C1979 C546 1.424 . S
C2003 N508 1.384 . S
C2011 C579 1.437 . S
