# Generated by pormake.
# Topology fcr, (5)-cn, num edge types: 1
# Building blocks:
#     Node 0, Type 0, BuildingBlock: XOMCOT_clean_sbu_1, # of connection points: 5
#     Node 1, Type 0, BuildingBlock: XOMCOT_clean_sbu_1, # of connection points: 5
#     Node 2, Type 0, BuildingBlock: XOMCOT_clean_sbu_1, # of connection points: 5
#     Node 3, Type 0, BuildingBlock: XOMCOT_clean_sbu_1, # of connection points: 5
#     Node 4, Type 0, BuildingBlock: XOMCOT_clean_sbu_1, # of connection points: 5
#     Node 5, Type 0, BuildingBlock: XOMCOT_clean_sbu_1, # of connection points: 5
#     Node 6, Type 0, BuildingBlock: XOMCOT_clean_sbu_1, # of connection points: 5
#     Node 7, Type 0, BuildingBlock: XOMCOT_clean_sbu_1, # of connection points: 5
#     Node 8, Type 0, BuildingBlock: XOMCOT_clean_sbu_1, # of connection points: 5
#     Node 9, Type 0, BuildingBlock: XOMCOT_clean_sbu_1, # of connection points: 5
#     Node 10, Type 0, BuildingBlock: XOMCOT_clean_sbu_1, # of connection points: 5
#     Node 11, Type 0, BuildingBlock: XOMCOT_clean_sbu_1, # of connection points: 5
#     Node 12, Type 0, BuildingBlock: XOMCOT_clean_sbu_1, # of connection points: 5
#     Node 13, Type 0, BuildingBlock: XOMCOT_clean_sbu_1, # of connection points: 5
#     Node 14, Type 0, BuildingBlock: XOMCOT_clean_sbu_1, # of connection points: 5
#     Node 15, Type 0, BuildingBlock: XOMCOT_clean_sbu_1, # of connection points: 5
#     Node 16, Type 0, BuildingBlock: XOMCOT_clean_sbu_1, # of connection points: 5
#     Node 17, Type 0, BuildingBlock: XOMCOT_clean_sbu_1, # of connection points: 5
#     Node 18, Type 0, BuildingBlock: XOMCOT_clean_sbu_1, # of connection points: 5
#     Node 19, Type 0, BuildingBlock: XOMCOT_clean_sbu_1, # of connection points: 5
#     Node 20, Type 0, BuildingBlock: XOMCOT_clean_sbu_1, # of connection points: 5
#     Node 21, Type 0, BuildingBlock: XOMCOT_clean_sbu_1, # of connection points: 5
#     Node 22, Type 0, BuildingBlock: XOMCOT_clean_sbu_1, # of connection points: 5
#     Node 23, Type 0, BuildingBlock: XOMCOT_clean_sbu_1, # of connection points: 5
#     Node 24, Type 0, BuildingBlock: XOMCOT_clean_sbu_1, # of connection points: 5
#     Node 25, Type 0, BuildingBlock: XOMCOT_clean_sbu_1, # of connection points: 5
#     Node 26, Type 0, BuildingBlock: XOMCOT_clean_sbu_1, # of connection points: 5
#     Node 27, Type 0, BuildingBlock: XOMCOT_clean_sbu_1, # of connection points: 5
#     Node 28, Type 0, BuildingBlock: XOMCOT_clean_sbu_1, # of connection points: 5
#     Node 29, Type 0, BuildingBlock: XOMCOT_clean_sbu_1, # of connection points: 5
#     Node 30, Type 0, BuildingBlock: XOMCOT_clean_sbu_1, # of connection points: 5
#     Node 31, Type 0, BuildingBlock: XOMCOT_clean_sbu_1, # of connection points: 5
#     Node 32, Type 0, BuildingBlock: XOMCOT_clean_sbu_1, # of connection points: 5
#     Node 33, Type 0, BuildingBlock: XOMCOT_clean_sbu_1, # of connection points: 5
#     Node 34, Type 0, BuildingBlock: XOMCOT_clean_sbu_1, # of connection points: 5
#     Node 35, Type 0, BuildingBlock: XOMCOT_clean_sbu_1, # of connection points: 5
#     Node 36, Type 0, BuildingBlock: XOMCOT_clean_sbu_1, # of connection points: 5
#     Node 37, Type 0, BuildingBlock: XOMCOT_clean_sbu_1, # of connection points: 5
#     Node 38, Type 0, BuildingBlock: XOMCOT_clean_sbu_1, # of connection points: 5
#     Node 39, Type 0, BuildingBlock: XOMCOT_clean_sbu_1, # of connection points: 5
#     Node 40, Type 0, BuildingBlock: XOMCOT_clean_sbu_1, # of connection points: 5
#     Node 41, Type 0, BuildingBlock: XOMCOT_clean_sbu_1, # of connection points: 5
#     Node 42, Type 0, BuildingBlock: XOMCOT_clean_sbu_1, # of connection points: 5
#     Node 43, Type 0, BuildingBlock: XOMCOT_clean_sbu_1, # of connection points: 5
#     Node 44, Type 0, BuildingBlock: XOMCOT_clean_sbu_1, # of connection points: 5
#     Node 45, Type 0, BuildingBlock: XOMCOT_clean_sbu_1, # of connection points: 5
#     Node 46, Type 0, BuildingBlock: XOMCOT_clean_sbu_1, # of connection points: 5
#     Node 47, Type 0, BuildingBlock: XOMCOT_clean_sbu_1, # of connection points: 5
#     Edge 48, Type (0, 0), BuildingBlock: EZIPEK_clean_linker_0, # of connection points: 2
#     Edge 49, Type (0, 0), BuildingBlock: EZIPEK_clean_linker_0, # of connection points: 2
#     Edge 50, Type (0, 0), BuildingBlock: EZIPEK_clean_linker_0, # of connection points: 2
#     Edge 51, Type (0, 0), BuildingBlock: EZIPEK_clean_linker_0, # of connection points: 2
#     Edge 52, Type (0, 0), BuildingBlock: EZIPEK_clean_linker_0, # of connection points: 2
#     Edge 53, Type (0, 0), BuildingBlock: EZIPEK_clean_linker_0, # of connection points: 2
#     Edge 54, Type (0, 0), BuildingBlock: EZIPEK_clean_linker_0, # of connection points: 2
#     Edge 55, Type (0, 0), BuildingBlock: EZIPEK_clean_linker_0, # of connection points: 2
#     Edge 56, Type (0, 0), BuildingBlock: EZIPEK_clean_linker_0, # of connection points: 2
#     Edge 57, Type (0, 0), BuildingBlock: EZIPEK_clean_linker_0, # of connection points: 2
#     Edge 58, Type (0, 0), BuildingBlock: EZIPEK_clean_linker_0, # of connection points: 2
#     Edge 59, Type (0, 0), BuildingBlock: EZIPEK_clean_linker_0, # of connection points: 2
#     Edge 60, Type (0, 0), BuildingBlock: EZIPEK_clean_linker_0, # of connection points: 2
#     Edge 61, Type (0, 0), BuildingBlock: EZIPEK_clean_linker_0, # of connection points: 2
#     Edge 62, Type (0, 0), BuildingBlock: EZIPEK_clean_linker_0, # of connection points: 2
#     Edge 63, Type (0, 0), BuildingBlock: EZIPEK_clean_linker_0, # of connection points: 2
#     Edge 64, Type (0, 0), BuildingBlock: EZIPEK_clean_linker_0, # of connection points: 2
#     Edge 65, Type (0, 0), BuildingBlock: EZIPEK_clean_linker_0, # of connection points: 2
#     Edge 66, Type (0, 0), BuildingBlock: EZIPEK_clean_linker_0, # of connection points: 2
#     Edge 67, Type (0, 0), BuildingBlock: EZIPEK_clean_linker_0, # of connection points: 2
#     Edge 68, Type (0, 0), BuildingBlock: EZIPEK_clean_linker_0, # of connection points: 2
#     Edge 69, Type (0, 0), BuildingBlock: EZIPEK_clean_linker_0, # of connection points: 2
#     Edge 70, Type (0, 0), BuildingBlock: EZIPEK_clean_linker_0, # of connection points: 2
#     Edge 71, Type (0, 0), BuildingBlock: EZIPEK_clean_linker_0, # of connection points: 2
#     Edge 72, Type (0, 0), BuildingBlock: EZIPEK_clean_linker_0, # of connection points: 2
#     Edge 73, Type (0, 0), BuildingBlock: EZIPEK_clean_linker_0, # of connection points: 2
#     Edge 74, Type (0, 0), BuildingBlock: EZIPEK_clean_linker_0, # of connection points: 2
#     Edge 75, Type (0, 0), BuildingBlock: EZIPEK_clean_linker_0, # of connection points: 2
#     Edge 76, Type (0, 0), BuildingBlock: EZIPEK_clean_linker_0, # of connection points: 2
#     Edge 77, Type (0, 0), BuildingBlock: EZIPEK_clean_linker_0, # of connection points: 2
#     Edge 78, Type (0, 0), BuildingBlock: EZIPEK_clean_linker_0, # of connection points: 2
#     Edge 79, Type (0, 0), BuildingBlock: EZIPEK_clean_linker_0, # of connection points: 2
#     Edge 80, Type (0, 0), BuildingBlock: EZIPEK_clean_linker_0, # of connection points: 2
#     Edge 81, Type (0, 0), BuildingBlock: EZIPEK_clean_linker_0, # of connection points: 2
#     Edge 82, Type (0, 0), BuildingBlock: EZIPEK_clean_linker_0, # of connection points: 2
#     Edge 83, Type (0, 0), BuildingBlock: EZIPEK_clean_linker_0, # of connection points: 2
#     Edge 84, Type (0, 0), BuildingBlock: EZIPEK_clean_linker_0, # of connection points: 2
#     Edge 85, Type (0, 0), BuildingBlock: EZIPEK_clean_linker_0, # of connection points: 2
#     Edge 86, Type (0, 0), BuildingBlock: EZIPEK_clean_linker_0, # of connection points: 2
#     Edge 87, Type (0, 0), BuildingBlock: EZIPEK_clean_linker_0, # of connection points: 2
#     Edge 88, Type (0, 0), BuildingBlock: EZIPEK_clean_linker_0, # of connection points: 2
#     Edge 89, Type (0, 0), BuildingBlock: EZIPEK_clean_linker_0, # of connection points: 2
#     Edge 90, Type (0, 0), BuildingBlock: EZIPEK_clean_linker_0, # of connection points: 2
#     Edge 91, Type (0, 0), BuildingBlock: EZIPEK_clean_linker_0, # of connection points: 2
#     Edge 92, Type (0, 0), BuildingBlock: EZIPEK_clean_linker_0, # of connection points: 2
#     Edge 93, Type (0, 0), BuildingBlock: EZIPEK_clean_linker_0, # of connection points: 2
#     Edge 94, Type (0, 0), BuildingBlock: EZIPEK_clean_linker_0, # of connection points: 2
#     Edge 95, Type (0, 0), BuildingBlock: EZIPEK_clean_linker_0, # of connection points: 2
#     Edge 96, Type (0, 0), BuildingBlock: EZIPEK_clean_linker_0, # of connection points: 2
#     Edge 97, Type (0, 0), BuildingBlock: EZIPEK_clean_linker_0, # of connection points: 2
#     Edge 98, Type (0, 0), BuildingBlock: EZIPEK_clean_linker_0, # of connection points: 2
#     Edge 99, Type (0, 0), BuildingBlock: EZIPEK_clean_linker_0, # of connection points: 2
#     Edge 100, Type (0, 0), BuildingBlock: EZIPEK_clean_linker_0, # of connection points: 2
#     Edge 101, Type (0, 0), BuildingBlock: EZIPEK_clean_linker_0, # of connection points: 2
#     Edge 102, Type (0, 0), BuildingBlock: EZIPEK_clean_linker_0, # of connection points: 2
#     Edge 103, Type (0, 0), BuildingBlock: EZIPEK_clean_linker_0, # of connection points: 2
#     Edge 104, Type (0, 0), BuildingBlock: EZIPEK_clean_linker_0, # of connection points: 2
#     Edge 105, Type (0, 0), BuildingBlock: EZIPEK_clean_linker_0, # of connection points: 2
#     Edge 106, Type (0, 0), BuildingBlock: EZIPEK_clean_linker_0, # of connection points: 2
#     Edge 107, Type (0, 0), BuildingBlock: EZIPEK_clean_linker_0, # of connection points: 2
#     Edge 108, Type (0, 0), BuildingBlock: EZIPEK_clean_linker_0, # of connection points: 2
#     Edge 109, Type (0, 0), BuildingBlock: EZIPEK_clean_linker_0, # of connection points: 2
#     Edge 110, Type (0, 0), BuildingBlock: EZIPEK_clean_linker_0, # of connection points: 2
#     Edge 111, Type (0, 0), BuildingBlock: EZIPEK_clean_linker_0, # of connection points: 2
#     Edge 112, Type (0, 0), BuildingBlock: EZIPEK_clean_linker_0, # of connection points: 2
#     Edge 113, Type (0, 0), BuildingBlock: EZIPEK_clean_linker_0, # of connection points: 2
#     Edge 114, Type (0, 0), BuildingBlock: EZIPEK_clean_linker_0, # of connection points: 2
#     Edge 115, Type (0, 0), BuildingBlock: EZIPEK_clean_linker_0, # of connection points: 2
#     Edge 116, Type (0, 0), BuildingBlock: EZIPEK_clean_linker_0, # of connection points: 2
#     Edge 117, Type (0, 0), BuildingBlock: EZIPEK_clean_linker_0, # of connection points: 2
#     Edge 118, Type (0, 0), BuildingBlock: EZIPEK_clean_linker_0, # of connection points: 2
#     Edge 119, Type (0, 0), BuildingBlock: EZIPEK_clean_linker_0, # of connection points: 2
#     Edge 120, Type (0, 0), BuildingBlock: EZIPEK_clean_linker_0, # of connection points: 2
#     Edge 121, Type (0, 0), BuildingBlock: EZIPEK_clean_linker_0, # of connection points: 2
#     Edge 122, Type (0, 0), BuildingBlock: EZIPEK_clean_linker_0, # of connection points: 2
#     Edge 123, Type (0, 0), BuildingBlock: EZIPEK_clean_linker_0, # of connection points: 2
#     Edge 124, Type (0, 0), BuildingBlock: EZIPEK_clean_linker_0, # of connection points: 2
#     Edge 125, Type (0, 0), BuildingBlock: EZIPEK_clean_linker_0, # of connection points: 2
#     Edge 126, Type (0, 0), BuildingBlock: EZIPEK_clean_linker_0, # of connection points: 2
#     Edge 127, Type (0, 0), BuildingBlock: EZIPEK_clean_linker_0, # of connection points: 2
#     Edge 128, Type (0, 0), BuildingBlock: EZIPEK_clean_linker_0, # of connection points: 2
#     Edge 129, Type (0, 0), BuildingBlock: EZIPEK_clean_linker_0, # of connection points: 2
#     Edge 130, Type (0, 0), BuildingBlock: EZIPEK_clean_linker_0, # of connection points: 2
#     Edge 131, Type (0, 0), BuildingBlock: EZIPEK_clean_linker_0, # of connection points: 2
#     Edge 132, Type (0, 0), BuildingBlock: EZIPEK_clean_linker_0, # of connection points: 2
#     Edge 133, Type (0, 0), BuildingBlock: EZIPEK_clean_linker_0, # of connection points: 2
#     Edge 134, Type (0, 0), BuildingBlock: EZIPEK_clean_linker_0, # of connection points: 2
#     Edge 135, Type (0, 0), BuildingBlock: EZIPEK_clean_linker_0, # of connection points: 2
#     Edge 136, Type (0, 0), BuildingBlock: EZIPEK_clean_linker_0, # of connection points: 2
#     Edge 137, Type (0, 0), BuildingBlock: EZIPEK_clean_linker_0, # of connection points: 2
#     Edge 138, Type (0, 0), BuildingBlock: EZIPEK_clean_linker_0, # of connection points: 2
#     Edge 139, Type (0, 0), BuildingBlock: EZIPEK_clean_linker_0, # of connection points: 2
#     Edge 140, Type (0, 0), BuildingBlock: EZIPEK_clean_linker_0, # of connection points: 2
#     Edge 141, Type (0, 0), BuildingBlock: EZIPEK_clean_linker_0, # of connection points: 2
#     Edge 142, Type (0, 0), BuildingBlock: EZIPEK_clean_linker_0, # of connection points: 2
#     Edge 143, Type (0, 0), BuildingBlock: EZIPEK_clean_linker_0, # of connection points: 2
#     Edge 144, Type (0, 0), BuildingBlock: EZIPEK_clean_linker_0, # of connection points: 2
#     Edge 145, Type (0, 0), BuildingBlock: EZIPEK_clean_linker_0, # of connection points: 2
#     Edge 146, Type (0, 0), BuildingBlock: EZIPEK_clean_linker_0, # of connection points: 2
#     Edge 147, Type (0, 0), BuildingBlock: EZIPEK_clean_linker_0, # of connection points: 2
#     Edge 148, Type (0, 0), BuildingBlock: EZIPEK_clean_linker_0, # of connection points: 2
#     Edge 149, Type (0, 0), BuildingBlock: EZIPEK_clean_linker_0, # of connection points: 2
#     Edge 150, Type (0, 0), BuildingBlock: EZIPEK_clean_linker_0, # of connection points: 2
#     Edge 151, Type (0, 0), BuildingBlock: EZIPEK_clean_linker_0, # of connection points: 2
#     Edge 152, Type (0, 0), BuildingBlock: EZIPEK_clean_linker_0, # of connection points: 2
#     Edge 153, Type (0, 0), BuildingBlock: EZIPEK_clean_linker_0, # of connection points: 2
#     Edge 154, Type (0, 0), BuildingBlock: EZIPEK_clean_linker_0, # of connection points: 2
#     Edge 155, Type (0, 0), BuildingBlock: EZIPEK_clean_linker_0, # of connection points: 2
#     Edge 156, Type (0, 0), BuildingBlock: EZIPEK_clean_linker_0, # of connection points: 2
#     Edge 157, Type (0, 0), BuildingBlock: EZIPEK_clean_linker_0, # of connection points: 2
#     Edge 158, Type (0, 0), BuildingBlock: EZIPEK_clean_linker_0, # of connection points: 2
#     Edge 159, Type (0, 0), BuildingBlock: EZIPEK_clean_linker_0, # of connection points: 2
#     Edge 160, Type (0, 0), BuildingBlock: EZIPEK_clean_linker_0, # of connection points: 2
#     Edge 161, Type (0, 0), BuildingBlock: EZIPEK_clean_linker_0, # of connection points: 2
#     Edge 162, Type (0, 0), BuildingBlock: EZIPEK_clean_linker_0, # of connection points: 2
#     Edge 163, Type (0, 0), BuildingBlock: EZIPEK_clean_linker_0, # of connection points: 2
#     Edge 164, Type (0, 0), BuildingBlock: EZIPEK_clean_linker_0, # of connection points: 2
#     Edge 165, Type (0, 0), BuildingBlock: EZIPEK_clean_linker_0, # of connection points: 2
#     Edge 166, Type (0, 0), BuildingBlock: EZIPEK_clean_linker_0, # of connection points: 2
#     Edge 167, Type (0, 0), BuildingBlock: EZIPEK_clean_linker_0, # of connection points: 2
# Relax obj value: 0.105
# Max RMSD: 0.137
# Mean RMSD: 0.137
data_MOF--net-fcr--node1-XOMCOT_clean_sbu_1--edge1-EZIPEK_clean_linker_0
_symmetry_space_group_name_H-M    P1
_symmetry_Int_Tables_number       1
_symmetry_cell_setting            triclinic
loop_
_symmetry_equiv_pos_as_xyz
'x, y, z'
_cell_length_a     50.255525
_cell_length_b     50.375061
_cell_length_c     50.52573
_cell_angle_alpha  89.964858
_cell_angle_beta   90.021502
_cell_angle_gamma 89.990073
loop_
_atom_site_label
_atom_site_type_symbol
_atom_site_fract_x
_atom_site_fract_y
_atom_site_fract_z
_atom_type_partial_charge
C0 C 0.11301 0.3562 0.21228 0.0
C1 C 0.11185 0.37667 0.19454 0.0
N2 N 0.12198 0.39841 0.206 0.0
N3 N 0.12353 0.36453 0.23557 0.0
C4 C 0.1289 0.39071 0.23091 0.0
H5 H 0.10748 0.33606 0.20756 0.0
Co6 Co 0.13348 0.3405 0.26404 0.0
C7 C 0.13916 0.37939 0.29777 0.0
O8 O 0.1146 0.37055 0.29932 0.0
N9 N 0.14443 0.31599 0.29105 0.0
C10 C 0.14555 0.29148 0.32796 0.0
C11 C 0.13403 0.31312 0.31552 0.0
C12 C 0.16218 0.29567 0.28922 0.0
N13 N 0.16348 0.28056 0.31142 0.0
O14 O 0.16431 0.33009 0.24161 0.0
H15 H 0.11822 0.32523 0.32353 0.0
H16 H 0.17267 0.29061 0.27131 0.0
O17 O 0.15455 0.36843 0.28069 0.0
C18 C 0.16854 0.31682 0.22041 0.0
O19 O 0.14854 0.30484 0.20876 0.0
N20 N 0.10828 0.31485 0.25205 0.0
C21 C 0.06196 0.28394 0.2469 0.0
C22 C 0.06042 0.31101 0.25252 0.0
C23 C 0.08365 0.32579 0.25568 0.0
C24 C 0.1104 0.28828 0.24689 0.0
C25 C 0.08736 0.27245 0.244 0.0
H26 H 0.08196 0.34632 0.26168 0.0
H27 H 0.12971 0.27901 0.24594 0.0
H28 H 0.13891 0.40356 0.24487 0.0
H29 H 0.10512 0.37544 0.17421 0.0
H30 H 0.14045 0.28379 0.34732 0.0
H31 H 0.04131 0.32047 0.2556 0.0
H32 H 0.08935 0.25136 0.24038 0.0
C33 C 0.60308 0.65847 0.0546 0.0
C34 C 0.62225 0.65926 0.07402 0.0
N35 N 0.64051 0.64042 0.06893 0.0
N36 N 0.60896 0.63925 0.03691 0.0
C37 C 0.632 0.62852 0.0463 0.0
H38 H 0.58522 0.67041 0.05428 0.0
Co39 Co 0.58516 0.62756 0.00962 0.0
C40 C 0.63669 0.63784 0.9786 0.0
O41 O 0.64711 0.65355 0.99654 0.0
N42 N 0.56146 0.61575 0.98264 0.0
C43 C 0.5349 0.61624 0.9472 0.0
C44 C 0.55539 0.62893 0.96008 0.0
C45 C 0.54509 0.59437 0.98221 0.0
N46 N 0.52828 0.59457 0.96125 0.0
O47 O 0.59215 0.59093 0.01906 0.0
H48 H 0.56419 0.6475 0.954 0.0
H49 H 0.5445 0.57948 0.99748 0.0
O50 O 0.61364 0.62758 0.98227 0.0
C51 C 0.5806 0.58481 0.04086 0.0
O52 O 0.57001 0.60388 0.05511 0.0
N53 N 0.5743 0.6631 1.00301 0.0
C54 C 0.54717 0.71148 0.9979 0.0
C55 C 0.57366 0.70891 0.98922 0.0
C56 C 0.58704 0.68445 0.99212 0.0
C57 C 0.54881 0.66568 0.012 0.0
C58 C 0.53489 0.68951 0.00953 0.0
H59 H 0.60739 0.68292 0.9857 0.0
H60 H 0.5391 0.64881 0.02109 0.0
H61 H 0.64176 0.61162 0.03736 0.0
H62 H 0.62229 0.67208 0.09121 0.0
H63 H 0.5247 0.62311 0.92961 0.0
H64 H 0.5839 0.72567 0.98048 0.0
H65 H 0.51463 0.6908 0.01673 0.0
C66 C 0.9084 0.15782 0.20922 0.0
C67 C 0.90891 0.13797 0.19067 0.0
N68 N 0.89773 0.1163 0.20129 0.0
N69 N 0.89725 0.14894 0.23203 0.0
C70 C 0.8906 0.12336 0.22621 0.0
H71 H 0.9148 0.17793 0.20546 0.0
Co72 Co 0.88854 0.17089 0.26227 0.0
C73 C 0.88296 0.12889 0.29224 0.0
O74 O 0.90833 0.13525 0.29236 0.0
N75 N 0.87869 0.19301 0.29125 0.0
C76 C 0.87138 0.20922 0.3318 0.0
C77 C 0.88363 0.18938 0.31731 0.0
C78 C 0.86377 0.2155 0.29053 0.0
N79 N 0.85874 0.22544 0.31481 0.0
O80 O 0.85717 0.18324 0.24225 0.0
H81 H 0.8952 0.17325 0.32545 0.0
H82 H 0.85669 0.2247 0.27256 0.0
O83 O 0.86743 0.14241 0.27731 0.0
C84 C 0.85149 0.19707 0.2218 0.0
O85 O 0.87067 0.20856 0.20839 0.0
N86 N 0.91352 0.19721 0.25123 0.0
C87 C 0.96012 0.22779 0.24653 0.0
C88 C 0.96142 0.20057 0.25146 0.0
C89 C 0.93807 0.18594 0.25437 0.0
C90 C 0.91163 0.22392 0.24655 0.0
C91 C 0.93483 0.23959 0.24396 0.0
H92 H 0.93958 0.16519 0.25966 0.0
H93 H 0.89248 0.23355 0.24579 0.0
H94 H 0.8796 0.11045 0.23934 0.0
H95 H 0.91585 0.13964 0.17045 0.0
H96 H 0.87172 0.21157 0.35309 0.0
H97 H 0.98046 0.19084 0.25416 0.0
H98 H 0.93305 0.26077 0.24079 0.0
C99 C 0.43289 0.86599 0.0536 0.0
C100 C 0.41377 0.86189 0.07275 0.0
N101 N 0.38986 0.86889 0.06287 0.0
N102 N 0.42133 0.8757 0.03156 0.0
C103 C 0.395 0.87693 0.03768 0.0
H104 H 0.45412 0.86354 0.05612 0.0
Co105 Co 0.44056 0.89064 1.00287 0.0
C106 C 0.40462 0.87306 0.95799 0.0
O107 O 0.42398 0.85898 0.94757 0.0
N108 N 0.46031 0.9073 0.97452 0.0
C109 C 0.47402 0.92574 0.93651 0.0
C110 C 0.45414 0.9116 0.94872 0.0
C111 C 0.48379 0.92044 0.97748 0.0
N112 N 0.49257 0.93151 0.95466 0.0
O113 O 0.42845 0.92525 0.01333 0.0
H114 H 0.436 0.90628 0.93893 0.0
H115 H 0.49439 0.92189 0.99605 0.0
O116 O 0.40885 0.8857 0.97962 0.0
C117 C 0.44447 0.93415 0.03086 0.0
O118 O 0.46404 0.91883 0.03888 0.0
N119 N 0.45549 0.85661 0.99496 0.0
C120 C 0.48339 0.80829 0.99281 0.0
C121 C 0.45542 0.8087 0.99272 0.0
C122 C 0.44179 0.83312 0.99421 0.0
C123 C 0.48267 0.8562 0.9956 0.0
C124 C 0.49693 0.83246 0.9941 0.0
H125 H 0.42032 0.83312 0.9956 0.0
H126 H 0.49366 0.87424 0.99882 0.0
H127 H 0.38011 0.88524 0.0246 0.0
H128 H 0.41733 0.8554 0.09287 0.0
H129 H 0.47449 0.93202 0.91602 0.0
H130 H 0.44427 0.7903 0.99246 0.0
H131 H 0.51846 0.83291 0.99505 0.0
C132 C 0.11456 0.67414 0.30758 0.0
C133 C 0.11418 0.65406 0.32596 0.0
N134 N 0.12824 0.63349 0.31651 0.0
N135 N 0.12887 0.66675 0.28608 0.0
C136 C 0.13677 0.64152 0.29224 0.0
H137 H 0.10574 0.69342 0.31072 0.0
Co138 Co 0.13916 0.6894 0.25656 0.0
C139 C 0.14155 0.64785 0.22584 0.0
O140 O 0.11705 0.65696 0.22524 0.0
N141 N 0.15016 0.712 0.22809 0.0
C142 C 0.16014 0.72893 0.18834 0.0
C143 C 0.1485 0.70793 0.20167 0.0
C144 C 0.16242 0.73596 0.23006 0.0
N145 N 0.16898 0.74643 0.20637 0.0
O146 O 0.17134 0.69968 0.27657 0.0
H147 H 0.13971 0.69072 0.19243 0.0
H148 H 0.16678 0.74576 0.24847 0.0
O149 O 0.15823 0.65993 0.24073 0.0
C150 C 0.17606 0.70925 0.29955 0.0
O151 O 0.1561 0.71543 0.31512 0.0
N152 N 0.11639 0.71704 0.26841 0.0
C153 C 0.0734 0.75246 0.26976 0.0
C154 C 0.06991 0.72627 0.26153 0.0
C155 C 0.0916 0.70913 0.26069 0.0
C156 C 0.12025 0.74243 0.2773 0.0
C157 C 0.09886 0.76056 0.27806 0.0
H158 H 0.08875 0.68931 0.25307 0.0
H159 H 0.1398 0.74934 0.28273 0.0
H160 H 0.14935 0.62948 0.27972 0.0
H161 H 0.10481 0.65475 0.34524 0.0
H162 H 0.16227 0.73103 0.16713 0.0
H163 H 0.05064 0.71937 0.2548 0.0
H164 H 0.10228 0.78083 0.28431 0.0
C165 C 0.9139 0.64462 0.96437 0.0
C166 C 0.89382 0.64534 0.94619 0.0
N167 N 0.87056 0.64444 0.95915 0.0
N168 N 0.90382 0.64346 0.98919 0.0
C169 C 0.87698 0.64346 0.98532 0.0
H170 H 0.93486 0.64405 0.95956 0.0
Co171 Co 0.92784 0.63883 0.01826 0.0
C172 C 0.88938 0.63045 0.05247 0.0
O173 O 0.89336 0.65621 0.05156 0.0
N174 N 0.9527 0.63326 0.04626 0.0
C175 C 0.98476 0.64131 0.07578 0.0
C176 C 0.96435 0.65232 0.06105 0.0
C177 C 0.96572 0.6107 0.05329 0.0
N178 N 0.98583 0.61511 0.07061 0.0
O179 O 0.94204 0.60831 0.99757 0.0
H180 H 0.95967 0.67323 0.05969 0.0
H181 H 0.96188 0.59153 0.04455 0.0
O182 O 0.90275 0.61576 0.03655 0.0
C183 C 0.96252 0.59458 0.99121 0.0
O184 O 0.98599 0.60048 1.00069 0.0
N185 N 0.95057 0.66556 1.0035 0.0
C186 C 0.97792 0.71358 0.99521 0.0
C187 C 0.95055 0.71337 1.00009 0.0
C188 C 0.93746 0.68932 1.00458 0.0
C189 C 0.97712 0.66519 0.99763 0.0
C190 C 0.99121 0.68906 0.9935 0.0
H191 H 0.91672 0.68976 0.01028 0.0
H192 H 0.98797 0.64692 0.99755 0.0
H193 H 0.86252 0.64195 1.00108 0.0
H194 H 0.89605 0.64568 0.92487 0.0
H195 H 0.99929 0.65213 0.08734 0.0
H196 H 0.93963 0.73183 1.00188 0.0
H197 H 0.01246 0.68844 0.99001 0.0
C198 C 0.9099 0.83964 0.31028 0.0
C199 C 0.912 0.85874 0.32964 0.0
N200 N 0.8966 0.87947 0.32279 0.0
N201 N 0.89338 0.84824 0.29101 0.0
C202 C 0.88553 0.87269 0.29924 0.0
H203 H 0.91908 0.82022 0.31068 0.0
Co204 Co 0.88136 0.82705 0.26227 0.0
C205 C 0.89299 0.8621 0.21606 0.0
O206 O 0.90603 0.84206 0.20559 0.0
N207 N 0.86751 0.8051 0.23395 0.0
C208 C 0.84261 0.79252 0.19925 0.0
C209 C 0.85504 0.8134 0.2116 0.0
C210 C 0.86091 0.77887 0.2351 0.0
N211 N 0.84625 0.77072 0.21399 0.0
O212 O 0.8451 0.83336 0.27269 0.0
H213 H 0.8525 0.83369 0.20552 0.0
H214 H 0.86498 0.76638 0.25205 0.0
O215 O 0.88192 0.85912 0.2388 0.0
C216 C 0.83895 0.82099 0.29394 0.0
O217 O 0.85775 0.80843 0.30698 0.0
N218 N 0.91762 0.81853 0.25412 0.0
C219 C 0.97136 0.80337 0.2562 0.0
C220 C 0.96423 0.83025 0.25535 0.0
C221 C 0.93726 0.83743 0.25433 0.0
C222 C 0.92444 0.7923 0.25462 0.0
C223 C 0.95112 0.78431 0.25525 0.0
H224 H 0.93212 0.85821 0.25565 0.0
H225 H 0.90932 0.7773 0.25646 0.0
H226 H 0.87103 0.88472 0.28889 0.0
H227 H 0.92311 0.85711 0.34793 0.0
H228 H 0.83 0.79367 0.18191 0.0
H229 H 0.97933 0.84554 0.25658 0.0
H230 H 0.95587 0.76337 0.25648 0.0
C231 C 0.10594 0.86259 0.9541 0.0
C232 C 0.12539 0.86135 0.93511 0.0
N233 N 0.14732 0.87304 0.9447 0.0
N234 N 0.11531 0.87479 0.97615 0.0
C235 C 0.14079 0.88123 0.96943 0.0
H236 H 0.08572 0.85601 0.95108 0.0
Co237 Co 0.09428 0.88478 1.00667 0.0
C238 C 0.13796 0.88959 0.03549 0.0
O239 O 0.13045 0.86465 0.03707 0.0
N240 N 0.07306 0.89571 0.03598 0.0
C241 C 0.05711 0.90297 0.07665 0.0
C242 C 0.07711 0.89109 0.06203 0.0
C243 C 0.05025 0.91019 0.03541 0.0
N244 N 0.04038 0.91509 0.05976 0.0
O245 O 0.0822 0.91629 0.98637 0.0
H246 H 0.09345 0.87971 0.07006 0.0
H247 H 0.04066 0.91689 0.01749 0.0
O248 O 0.12416 0.90506 0.0207 0.0
C249 C 0.06842 0.92166 0.96573 0.0
O250 O 0.05708 0.90227 0.95256 0.0
N251 N 0.06674 0.86059 0.99669 0.0
C252 C 0.03444 0.81511 0.99306 0.0
C253 C 0.06157 0.813 0.9986 0.0
C254 C 0.07707 0.83584 1.00088 0.0
C255 C 0.04011 0.86328 0.99155 0.0
C256 C 0.02361 0.84065 0.98947 0.0
H257 H 0.09775 0.83379 1.00641 0.0
H258 H 0.03117 0.88266 0.98992 0.0
H259 H 0.15401 0.8928 0.98174 0.0
H260 H 0.12324 0.85362 0.91524 0.0
H261 H 0.05487 0.90254 0.09795 0.0
H262 H 0.07056 0.79376 1.0021 0.0
H263 H 1.00252 0.84309 0.98583 0.0
C264 C 0.20438 0.10743 0.34167 0.0
C265 C 0.18508 0.10424 0.36072 0.0
N266 N 0.19172 0.11907 0.38189 0.0
N267 N 0.22322 0.12429 0.35059 0.0
C268 C 0.21461 0.13145 0.37498 0.0
H269 H 0.20438 0.09849 0.32221 0.0
Co270 Co 0.25185 0.1369 0.32993 0.0
C271 C 0.27954 0.12739 0.38489 0.0
O272 O 0.26169 0.11094 0.39434 0.0
N273 N 0.28003 0.15 0.30874 0.0
C274 C 0.3203 0.15917 0.29265 0.0
C275 C 0.30641 0.14639 0.31245 0.0
C276 C 0.27841 0.16491 0.28642 0.0
N277 N 0.30266 0.17073 0.27626 0.0
O278 O 0.24038 0.1738 0.33631 0.0
H279 H 0.31511 0.1349 0.32833 0.0
H280 H 0.25985 0.17105 0.27755 0.0
O281 O 0.27687 0.13742 0.36154 0.0
C282 C 0.21866 0.1797 0.32423 0.0
O283 O 0.2059 0.16038 0.31222 0.0
N284 N 0.26076 0.10099 0.32012 0.0
C285 C 0.2616 0.04906 0.29922 0.0
C286 C 0.26342 0.05346 0.3266 0.0
C287 C 0.26293 0.07955 0.33664 0.0
C288 C 0.25926 0.09685 0.2934 0.0
C289 C 0.25996 0.07123 0.28258 0.0
H290 H 0.26243 0.08207 0.35765 0.0
H291 H 0.25603 0.11346 0.28025 0.0
H292 H 0.22472 0.14582 0.38733 0.0
H293 H 0.16741 0.09205 0.35914 0.0
H294 H 0.34169 0.15957 0.29016 0.0
H295 H 0.26425 0.03683 0.34016 0.0
H296 H 0.25808 0.0687 0.26137 0.0
C297 C 0.35438 0.56148 0.91762 0.0
C298 C 0.35371 0.579 0.89664 0.0
N299 N 0.37263 0.57184 0.87927 0.0
N300 N 0.37359 0.54316 0.9135 0.0
C301 C 0.38457 0.55028 0.88997 0.0
H302 H 0.34183 0.56242 0.93495 0.0
Co303 Co 0.38409 0.51527 0.93681 0.0
C304 C 0.36903 0.48591 0.88605 0.0
O305 O 0.3522 0.50415 0.87801 0.0
N306 N 0.39461 0.48722 0.95932 0.0
C307 C 0.39316 0.44974 0.98277 0.0
C308 C 0.38074 0.46461 0.96358 0.0
C309 C 0.41607 0.48494 0.97534 0.0
N310 N 0.41537 0.46258 0.99019 0.0
O311 O 0.42119 0.5225 0.92911 0.0
H312 H 0.36225 0.45951 0.95391 0.0
H313 H 0.43152 0.49971 0.97694 0.0
O314 O 0.38151 0.48873 0.908 0.0
C315 C 0.42768 0.54362 0.94174 0.0
O316 O 0.40861 0.55734 0.95313 0.0
N317 N 0.34864 0.51106 0.94894 0.0
C318 C 0.30182 0.50898 0.97902 0.0
C319 C 0.3027 0.49815 0.95337 0.0
C320 C 0.32645 0.49941 0.93856 0.0
C321 C 0.34777 0.52197 0.97365 0.0
C322 C 0.32472 0.52108 0.98901 0.0
H323 H 0.32694 0.49076 0.91924 0.0
H324 H 0.36545 0.53121 0.98167 0.0
H325 H 0.40108 0.53997 0.88087 0.0
H326 H 0.34055 0.59587 0.8944 0.0
H327 H 0.38602 0.43134 0.99127 0.0
H328 H 0.28527 0.48874 0.94497 0.0
H329 H 0.3248 0.52976 0.00862 0.0
C330 C 0.81845 0.39746 0.34567 0.0
C331 C 0.83732 0.40092 0.36521 0.0
N332 N 0.8312 0.38477 0.3855 0.0
N333 N 0.80033 0.37934 0.3537 0.0
C334 C 0.80908 0.37161 0.37791 0.0
H335 H 0.81823 0.40758 0.32684 0.0
Co336 Co 0.77053 0.36571 0.33526 0.0
C337 C 0.7465 0.38462 0.38811 0.0
O338 O 0.76476 0.40292 0.39163 0.0
N339 N 0.74107 0.35186 0.31719 0.0
C340 C 0.69943 0.34417 0.30405 0.0
C341 C 0.7151 0.3561 0.32291 0.0
C342 C 0.74064 0.33739 0.29467 0.0
N343 N 0.71558 0.33239 0.28647 0.0
O344 O 0.7818 0.32998 0.34502 0.0
H345 H 0.70781 0.36801 0.33914 0.0
H346 H 0.75824 0.33152 0.28385 0.0
O347 O 0.74757 0.36956 0.36759 0.0
C348 C 0.7985 0.32203 0.3275 0.0
O349 O 0.80379 0.33793 0.30756 0.0
N350 N 0.76188 0.39972 0.32155 0.0
C351 C 0.75447 0.44574 0.291 0.0
C352 C 0.74113 0.44244 0.31528 0.0
C353 C 0.74478 0.41898 0.33013 0.0
C354 C 0.7741 0.40237 0.29758 0.0
C355 C 0.77081 0.42512 0.28212 0.0
H356 H 0.73346 0.4162 0.34794 0.0
H357 H 0.78677 0.38658 0.29045 0.0
H358 H 0.79917 0.35687 0.39 0.0
H359 H 0.85408 0.41441 0.36472 0.0
H360 H 0.67794 0.34489 0.30273 0.0
H361 H 0.72792 0.45776 0.32257 0.0
H362 H 0.7812 0.42671 0.2634 0.0
C363 C 0.66534 0.96632 0.91842 0.0
C364 C 0.66542 0.94656 0.89952 0.0
N365 N 0.64796 0.95315 0.88041 0.0
N366 N 0.64806 0.98553 0.91118 0.0
C367 C 0.6379 0.9769 0.8878 0.0
H368 H 0.67627 0.9659 0.93682 0.0
Co369 Co 0.6351 0.01435 0.93131 0.0
C370 C 0.65237 0.04116 0.87927 0.0
O371 O 0.67217 0.02473 0.87482 0.0
N372 N 0.62087 0.04291 0.95092 0.0
C373 C 0.59425 0.07707 0.96023 0.0
C374 C 0.60799 0.06413 0.9406 0.0
C375 C 0.61486 0.0437 0.97702 0.0
N376 N 0.59846 0.06415 0.98311 0.0
O377 O 0.59927 1.00377 0.92203 0.0
H378 H 0.60644 0.06873 0.91978 0.0
H379 H 0.6201 0.02815 0.99085 0.0
O380 O 0.63798 0.03835 0.90003 0.0
C381 C 0.59088 0.98863 0.94065 0.0
O382 O 0.60651 0.9845 0.96107 0.0
N383 N 0.66985 0.02195 0.94471 0.0
C384 C 0.71765 0.02319 0.97392 0.0
C385 C 0.71542 0.03656 0.9495 0.0
C386 C 0.6912 0.03587 0.93521 0.0
C387 C 0.67179 0.00944 0.96862 0.0
C388 C 0.69523 0.00986 0.98347 0.0
H389 H 0.69003 0.04625 0.91664 0.0
H390 H 0.65503 0.99825 0.97599 0.0
H391 H 0.62241 0.9872 0.87701 0.0
H392 H 0.67668 0.92825 0.90022 0.0
H393 H 0.58057 0.09347 0.95759 0.0
H394 H 0.73233 0.04715 0.94143 0.0
H395 H 0.69602 0.99924 1.00211 0.0
C396 C 0.21646 0.90392 0.16334 0.0
C397 C 0.19906 0.90733 0.14278 0.0
N398 N 0.21177 0.90197 0.12004 0.0
N399 N 0.24057 0.89615 0.15421 0.0
C400 C 0.23702 0.89544 0.12743 0.0
H401 H 0.21119 0.90632 0.18388 0.0
Co402 Co 0.26916 0.88446 0.17718 0.0
C403 C 0.30356 0.8816 0.13712 0.0
O404 O 0.30573 0.90558 0.1471 0.0
N405 N 0.29661 0.87224 0.20052 0.0
C406 C 0.33363 0.8715 0.22507 0.0
C407 C 0.32086 0.88329 0.20385 0.0
C408 C 0.29524 0.85378 0.22014 0.0
N409 N 0.31752 0.85275 0.23529 0.0
O410 O 0.2471 0.85205 0.18498 0.0
H411 H 0.32833 0.89992 0.19257 0.0
H412 H 0.27747 0.84277 0.22483 0.0
O413 O 0.2862 0.86603 0.1475 0.0
C414 C 0.22561 0.84603 0.19738 0.0
O415 O 0.21297 0.86451 0.21065 0.0
N416 N 0.25661 0.90691 0.20498 0.0
C417 C 0.2543 0.94917 0.24139 0.0
C418 C 0.25906 0.9538 0.21455 0.0
C419 C 0.26057 0.93252 0.19693 0.0
C420 C 0.25151 0.90183 0.23109 0.0
C421 C 0.25016 0.92278 0.24967 0.0
H422 H 0.26621 0.93645 0.17664 0.0
H423 H 0.2498 0.88166 0.23797 0.0
H424 H 0.25217 0.88909 0.11364 0.0
H425 H 0.17826 0.9127 0.14445 0.0
H426 H 0.35279 0.87709 0.23312 0.0
H427 H 0.26281 0.97374 0.20743 0.0
H428 H 0.24689 0.91835 0.27038 0.0
C429 C 0.14957 0.56927 0.0951 0.0
C430 C 0.15515 0.5872 0.11484 0.0
N431 N 0.14756 0.57671 0.13818 0.0
N432 N 0.13791 0.54761 0.10566 0.0
C433 C 0.13747 0.55247 0.13206 0.0
H434 H 0.15296 0.57221 0.07416 0.0
Co435 Co 0.12359 0.51952 0.08537 0.0
C436 C 0.13746 0.4747 0.12444 0.0
O437 O 0.15533 0.46419 0.10873 0.0
N438 N 0.10896 0.49111 0.06456 0.0
C439 C 0.10706 0.45558 0.03817 0.0
C440 C 0.12101 0.468 0.05796 0.0
C441 C 0.08713 0.4917 0.04868 0.0
N442 N 0.08587 0.47058 0.03205 0.0
O443 O 0.08738 0.53114 0.09436 0.0
H444 H 0.14039 0.4618 0.06452 0.0
H445 H 0.07359 0.50829 0.04763 0.0
O446 O 0.125 0.4958 0.1173 0.0
C447 C 0.08162 0.55211 0.08109 0.0
O448 O 0.10051 0.56248 0.0664 0.0
N449 N 0.1584 0.51155 0.07288 0.0
C450 C 0.20696 0.50869 0.04567 0.0
C451 C 0.20619 0.50705 0.07348 0.0
C452 C 0.1816 0.50902 0.08682 0.0
C453 C 0.15926 0.51432 0.04598 0.0
C454 C 0.18309 0.51239 0.03203 0.0
H455 H 0.18128 0.50936 0.10821 0.0
H456 H 0.14122 0.51867 0.03516 0.0
H457 H 0.12896 0.53902 0.14646 0.0
H458 H 0.16362 0.60679 0.11221 0.0
H459 H 0.11324 0.43798 0.02752 0.0
H460 H 0.22443 0.5051 0.08472 0.0
H461 H 0.18297 0.51458 0.01069 0.0
C462 C 0.80689 0.59664 0.18075 0.0
C463 C 0.82581 0.59257 0.16146 0.0
N464 N 0.81997 0.60816 0.14062 0.0
N465 N 0.78892 0.61463 0.17218 0.0
C466 C 0.79753 0.62138 0.14759 0.0
H467 H 0.80667 0.58755 0.20015 0.0
Co468 Co 0.76003 0.62798 0.19231 0.0
C469 C 0.71488 0.61795 0.15287 0.0
O470 O 0.70299 0.60186 0.16944 0.0
N471 N 0.73056 0.64178 0.21273 0.0
C472 C 0.69368 0.64377 0.23751 0.0
C473 C 0.70802 0.62883 0.2199 0.0
C474 C 0.72903 0.66486 0.22657 0.0
N475 N 0.70711 0.66629 0.24209 0.0
O476 O 0.77268 0.66419 0.18579 0.0
H477 H 0.70337 0.60847 0.21535 0.0
H478 H 0.74421 0.67987 0.2264 0.0
O479 O 0.73734 0.62836 0.15934 0.0
C480 C 0.79255 0.66978 0.20086 0.0
O481 O 0.80195 0.65112 0.21644 0.0
N482 N 0.75124 0.59269 0.20271 0.0
C483 C 0.74892 0.5429 0.2277 0.0
C484 C 0.74622 0.54512 0.20001 0.0
C485 C 0.74772 0.57032 0.18778 0.0
C486 C 0.75456 0.59051 0.22947 0.0
C487 C 0.75287 0.56609 0.24233 0.0
H488 H 0.74727 0.57172 0.16643 0.0
H489 H 0.75923 0.60799 0.24099 0.0
H490 H 0.78817 0.63643 0.13545 0.0
H491 H 0.84325 0.58005 0.16305 0.0
H492 H 0.67629 0.6373 0.24839 0.0
H493 H 0.74393 0.5275 0.18796 0.0
H494 H 0.75571 0.56521 0.26357 0.0
C495 C 0.86654 0.95114 0.09361 0.0
C496 C 0.86479 0.93197 0.11305 0.0
N497 N 0.8818 0.93827 0.13267 0.0
N498 N 0.8844 0.96971 0.10098 0.0
C499 C 0.89356 0.9611 0.12477 0.0
H500 H 0.85581 0.95124 0.07505 0.0
Co501 Co 0.8967 0.99867 0.08067 0.0
C502 C 0.88209 0.0252 0.13384 0.0
O503 O 0.86531 1.00673 0.14137 0.0
N504 N 0.90935 0.02764 0.06061 0.0
C505 C 0.90929 0.06672 0.04 0.0
C506 C 0.89785 0.05187 0.05979 0.0
C507 C 0.92838 0.02862 0.0417 0.0
N508 N 0.92851 0.05209 0.02859 0.0
O509 O 0.93313 0.9886 0.08968 0.0
H510 H 0.88101 0.05781 0.07169 0.0
H511 H 0.94067 0.01189 0.03622 0.0
O512 O 0.89421 0.0234 0.11154 0.0
C513 C 0.94111 0.97099 0.07312 0.0
O514 O 0.92482 0.96406 0.05397 0.0
N515 N 0.86146 1.00592 0.06791 0.0
C516 C 0.81409 0.01326 0.03887 0.0
C517 C 0.81479 0.01745 0.06643 0.0
C518 C 0.8387 0.01357 0.08065 0.0
C519 C 0.86071 1.00111 0.0413 0.0
C520 C 0.83754 1.00497 0.02645 0.0
H521 H 0.83857 0.01637 0.10172 0.0
H522 H 0.87849 0.99424 0.03138 0.0
H523 H 0.90887 0.97116 0.13595 0.0
H524 H 0.85214 0.91458 0.11275 0.0
H525 H 0.90311 0.08629 0.03359 0.0
H526 H 0.79696 0.02341 0.07687 0.0
H527 H 0.83785 1.00116 1.00535 0.0
C528 C 0.34697 0.21127 0.10296 0.0
C529 C 0.36884 0.19537 0.09953 0.0
N530 N 0.3883 0.20282 0.11649 0.0
N531 N 0.35183 0.22879 0.12242 0.0
C532 C 0.37636 0.222 0.13141 0.0
H533 H 0.3285 0.2099 0.09206 0.0
Co534 Co 0.32751 0.25515 0.1338 0.0
C535 C 0.37976 0.28766 0.12669 0.0
O536 O 0.3915 0.27063 0.11093 0.0
N537 N 0.30278 0.28093 0.14535 0.0
C538 C 0.28156 0.31942 0.15076 0.0
C539 C 0.30317 0.30708 0.13937 0.0
C540 C 0.28051 0.27782 0.16021 0.0
N541 N 0.26741 0.301 0.16389 0.0
O542 O 0.3341 0.24503 0.1705 0.0
H543 H 0.31801 0.3166 0.12715 0.0
H544 H 0.27383 0.25896 0.16799 0.0
O545 O 0.35621 0.28311 0.13559 0.0
C546 C 0.32019 0.2249 0.17744 0.0
O547 O 0.30497 0.21354 0.15959 0.0
N548 N 0.31819 0.26282 0.0978 0.0
C549 C 0.2985 0.2635 0.04561 0.0
C550 C 0.3247 0.27146 0.0512 0.0
C551 C 0.33418 0.27099 0.07745 0.0
C552 C 0.29258 0.25534 0.09257 0.0
C553 C 0.28233 0.25569 0.06679 0.0
H554 H 0.35456 0.27619 0.08092 0.0
H555 H 0.28019 0.24808 0.1085 0.0
H556 H 0.38463 0.23109 0.14882 0.0
H557 H 0.36994 0.17902 0.08569 0.0
H558 H 0.27647 0.34026 0.1494 0.0
H559 H 0.33789 0.27742 0.03533 0.0
H560 H 0.26207 0.24922 0.06333 0.0
C561 C 0.35203 0.81389 0.40675 0.0
C562 C 0.37099 0.83348 0.40821 0.0
N563 N 0.39147 0.82656 0.39253 0.0
N564 N 0.36054 0.79453 0.39036 0.0
C565 C 0.38478 0.80276 0.38203 0.0
H566 H 0.33265 0.81432 0.41606 0.0
Co567 Co 0.33907 0.76649 0.37862 0.0
C568 C 0.37512 0.71965 0.38927 0.0
O569 O 0.35613 0.70907 0.40373 0.0
N570 N 0.31654 0.73916 0.36563 0.0
C571 C 0.29961 0.70383 0.34483 0.0
C572 C 0.32214 0.71479 0.35571 0.0
C573 C 0.29061 0.74288 0.35915 0.0
N574 N 0.27985 0.72155 0.34708 0.0
O575 O 0.345 0.77722 0.34178 0.0
H576 H 0.34157 0.70598 0.3542 0.0
H577 H 0.28013 0.76143 0.36192 0.0
O578 O 0.37105 0.74235 0.3783 0.0
C579 C 0.33214 0.79831 0.33561 0.0
O580 O 0.31954 0.81086 0.35465 0.0
N581 N 0.33054 0.75822 0.41489 0.0
C582 C 0.31386 0.75769 0.4681 0.0
C583 C 0.34102 0.75644 0.46162 0.0
C584 C 0.34897 0.75683 0.43487 0.0
C585 C 0.30414 0.75978 0.4212 0.0
C586 C 0.29541 0.75903 0.44745 0.0
H587 H 0.36996 0.75748 0.43027 0.0
H588 H 0.28955 0.76341 0.40609 0.0
H589 H 0.39651 0.79242 0.36731 0.0
H590 H 0.36938 0.85201 0.41893 0.0
H591 H 0.29823 0.68506 0.33449 0.0
H592 H 0.35593 0.75605 0.47709 0.0
H593 H 0.27435 0.76081 0.45165 0.0
C594 C 0.05681 0.43024 0.86514 0.0
C595 C 0.07425 0.40969 0.86092 0.0
N596 N 0.06264 0.38686 0.86862 0.0
N597 N 0.03417 0.42089 0.87601 0.0
C598 C 0.03811 0.39419 0.87747 0.0
H599 H 0.06072 0.45099 0.86123 0.0
Co600 Co 1.00681 0.44423 0.88754 0.0
C601 C 0.95626 0.4107 0.88141 0.0
O602 O 0.9427 0.43093 0.87228 0.0
N603 N 0.97985 0.46906 0.89932 0.0
C604 C 0.95037 0.50248 0.8984 0.0
C605 C 0.96093 0.48147 0.88462 0.0
C606 C 0.97986 0.48318 0.92227 0.0
N607 N 0.96246 0.50364 0.922 0.0
O608 O 0.01623 0.43747 0.92429 0.0
H609 H 0.95648 0.47728 0.86412 0.0
H610 H 0.99359 0.47997 0.93833 0.0
O611 O 0.98095 0.4137 0.88736 0.0
C612 C 0.0371 0.45051 0.93094 0.0
O613 O 0.05044 0.46274 0.91222 0.0
N614 N 1.00058 0.4539 0.85215 0.0
C615 C 0.99569 0.47819 0.80264 0.0
C616 C 0.98806 0.45151 0.80626 0.0
C617 C 0.99086 0.43957 0.83137 0.0
C618 C 1.00945 0.4792 0.84839 0.0
C619 C 1.00665 0.49188 0.82409 0.0
H620 H 0.98566 0.41895 0.83401 0.0
H621 H 0.0182 0.48989 0.8648 0.0
H622 H 0.02366 0.38049 0.88558 0.0
H623 H 0.09425 0.41141 0.85315 0.0
H624 H 0.93656 0.51714 0.89082 0.0
H625 H 0.98025 0.44009 0.78986 0.0
H626 H 0.01328 0.51224 0.82197 0.0
C627 C 0.6752 0.7072 0.40798 0.0
C628 C 0.65681 0.68693 0.40959 0.0
N629 N 0.63491 0.69409 0.39597 0.0
N630 N 0.66498 0.72726 0.3935 0.0
C631 C 0.64026 0.71877 0.38668 0.0
H632 H 0.69541 0.70647 0.41528 0.0
Co633 Co 0.68408 0.75581 0.37866 0.0
C634 C 0.65019 0.80381 0.38894 0.0
O635 O 0.67186 0.81663 0.39591 0.0
N636 N 0.70307 0.78405 0.36209 0.0
C637 C 0.71169 0.8134 0.33001 0.0
C638 C 0.69212 0.80018 0.34361 0.0
C639 C 0.72962 0.78782 0.35899 0.0
N640 N 0.73528 0.80551 0.33963 0.0
O641 O 0.67333 0.74386 0.34389 0.0
H642 H 0.67131 0.80046 0.33839 0.0
H643 H 0.74473 0.77586 0.36838 0.0
O644 O 0.65194 0.77916 0.38263 0.0
C645 C 0.69277 0.72977 0.33548 0.0
O646 O 0.71387 0.72739 0.35066 0.0
N647 N 0.69827 0.76451 0.41261 0.0
C648 C 0.72672 0.76919 0.46032 0.0
C649 C 0.6998 0.77683 0.45877 0.0
C650 C 0.68572 0.77382 0.43475 0.0
C651 C 0.72393 0.75581 0.41445 0.0
C652 C 0.73859 0.75837 0.43779 0.0
H653 H 0.66469 0.77799 0.43429 0.0
H654 H 0.73287 0.74566 0.39789 0.0
H655 H 0.62728 0.72952 0.37334 0.0
H656 H 0.65988 0.66772 0.41873 0.0
H657 H 0.70895 0.82597 0.31284 0.0
H658 H 0.68962 0.7843 0.47612 0.0
H659 H 0.75892 0.75125 0.43844 0.0
C660 C 0.46152 0.5979 0.35327 0.0
C661 C 0.44374 0.61866 0.35269 0.0
N662 N 0.45217 0.63753 0.36956 0.0
N663 N 0.48139 0.60343 0.37039 0.0
C664 C 0.47519 0.62792 0.37995 0.0
H665 H 0.4594 0.57937 0.3427 0.0
Co666 Co 0.50796 0.57866 0.38101 0.0
C667 C 0.55825 0.61208 0.3728 0.0
O668 O 0.56949 0.59421 0.35765 0.0
N669 N 0.53446 0.55333 0.39203 0.0
C670 C 0.56568 0.52163 0.39085 0.0
C671 C 0.55436 0.5425 0.37744 0.0
C672 C 0.53452 0.5385 0.41449 0.0
N673 N 0.5531 0.51911 0.41408 0.0
O674 O 0.499 0.58469 0.41768 0.0
H675 H 0.55896 0.54746 0.35718 0.0
H676 H 0.52022 0.54052 0.43027 0.0
O677 O 0.5347 0.60814 0.38184 0.0
C678 C 0.47715 0.5728 0.42312 0.0
O679 O 0.46312 0.56307 0.40343 0.0
N680 N 0.51352 0.56892 0.34529 0.0
C681 C 0.51715 0.54242 0.29671 0.0
C682 C 0.52504 0.56919 0.29902 0.0
C683 C 0.52275 0.5823 0.32364 0.0
C684 C 0.50431 0.54356 0.34269 0.0
C685 C 0.50639 0.52985 0.31889 0.0
H686 H 0.52812 0.60297 0.32525 0.0
H687 H 0.49578 0.53361 0.35968 0.0
H688 H 0.48661 0.63794 0.39512 0.0
H689 H 0.42545 0.6195 0.34139 0.0
H690 H 0.58054 0.50805 0.38329 0.0
H691 H 0.53268 0.5798 0.282 0.0
H692 H 0.4995 0.5095 0.31778 0.0
C693 C 0.17342 0.80051 0.60246 0.0
C694 C 0.15424 0.81986 0.60317 0.0
N695 N 0.13435 0.81164 0.61887 0.0
N696 N 0.16607 0.77954 0.61762 0.0
C697 C 0.14188 0.78713 0.62731 0.0
H698 H 0.19232 0.80291 0.59265 0.0
Co699 Co 0.18817 0.74969 0.62808 0.0
C700 C 0.14461 0.71904 0.63123 0.0
O701 O 0.15061 0.71847 0.60595 0.0
N702 N 0.21011 0.72112 0.63904 0.0
C703 C 0.23238 0.68276 0.63957 0.0
C704 C 0.21184 0.69685 0.62788 0.0
C705 C 0.22991 0.72129 0.65728 0.0
N706 N 0.24364 0.69821 0.65823 0.0
O707 O 0.19722 0.76995 0.66026 0.0
H708 H 0.1996 0.69017 0.61158 0.0
H709 H 0.23585 0.7387 0.66818 0.0
O710 O 0.15847 0.73371 0.64664 0.0
C711 C 0.20689 0.79296 0.66478 0.0
O712 O 0.21542 0.80727 0.64477 0.0
N713 N 0.21677 0.76153 0.60656 0.0
C714 C 0.25548 0.7638 0.56654 0.0
C715 C 0.22917 0.75702 0.56071 0.0
C716 C 0.21039 0.75547 0.58099 0.0
C717 C 0.24245 0.76795 0.61288 0.0
C718 C 0.26214 0.76943 0.59301 0.0
H719 H 0.19048 0.74874 0.57639 0.0
H720 H 0.24823 0.77058 0.63329 0.0
H721 H 0.13057 0.77565 0.64146 0.0
H722 H 0.15528 0.83909 0.59364 0.0
H723 H 0.23922 0.66316 0.63406 0.0
H724 H 0.22337 0.75197 0.54068 0.0
H725 H 0.28249 0.77401 0.59835 0.0
C726 C 0.04381 0.60501 0.66867 0.0
C727 C 0.06292 0.62401 0.67319 0.0
N728 N 0.06596 0.63838 0.65098 0.0
N729 N 0.03415 0.60749 0.64376 0.0
C730 C 0.04836 0.62804 0.63346 0.0
H731 H 0.0377 0.59028 0.68295 0.0
Co732 Co 1.00682 0.58675 0.62728 0.0
C733 C 0.97865 0.63878 0.64206 0.0
O734 O 0.99684 0.64616 0.65918 0.0
N735 N 0.9801 0.56653 0.61114 0.0
C736 C 0.94054 0.55 0.6 0.0
C737 C 0.95349 0.57016 0.61306 0.0
C738 C 0.98282 0.54394 0.59701 0.0
N739 N 0.95907 0.53371 0.58989 0.0
O740 O 0.01901 0.59781 0.59267 0.0
H741 H 0.94388 0.5858 0.62413 0.0
H742 H 1.00173 0.53459 0.59282 0.0
O743 O 0.98127 0.61684 0.62948 0.0
C744 C 0.03745 0.58182 0.58547 0.0
O745 O 0.0457 0.56389 0.60249 0.0
N746 N 0.99687 0.57181 0.65995 0.0
C747 C 0.9915 0.541 0.70573 0.0
C748 C 0.97942 0.56617 0.70393 0.0
C749 C 0.98203 0.5812 0.68054 0.0
C750 C 1.00791 0.54712 0.66124 0.0
C751 C 1.00524 0.53132 0.6837 0.0
H752 H 0.97276 0.60034 0.67929 0.0
H753 H 0.01943 0.53982 0.6447 0.0
H754 H 0.04588 0.63546 0.61351 0.0
H755 H 0.07421 0.62672 0.69124 0.0
H756 H 0.91925 0.54694 0.59881 0.0
H757 H 0.96852 0.57424 0.72056 0.0
H758 H 0.01473 0.51201 0.68425 0.0
C759 C 0.96631 0.92004 0.65945 0.0
C760 C 0.9467 0.90103 0.6606 0.0
N761 N 0.95387 0.88049 0.64512 0.0
N762 N 0.98595 0.91172 0.64325 0.0
C763 C 0.97794 0.88734 0.63502 0.0
H764 H 0.96555 0.93941 0.66864 0.0
Co765 Co 0.01397 0.93353 0.63086 0.0
C766 C 0.05959 0.89445 0.64321 0.0
O767 O 0.06977 0.9093 0.66194 0.0
N768 N 0.04189 0.95576 0.61797 0.0
C769 C 0.07699 0.98294 0.61671 0.0
C770 C 0.06564 0.96154 0.62926 0.0
C771 C 0.03956 0.97402 0.59839 0.0
N772 N 0.06041 0.99087 0.59746 0.0
O773 O 1.00365 0.92627 0.59456 0.0
H774 H 0.07299 0.95328 0.64744 0.0
H775 H 0.02216 0.97625 0.58622 0.0
O776 O 0.03837 0.902 0.63117 0.0
C777 C 0.98192 0.93839 0.58899 0.0
O778 O 0.96894 0.9499 0.60841 0.0
N779 N 0.02109 0.9448 0.66597 0.0
C780 C 0.02314 0.97215 0.7142 0.0
C781 C 0.02632 0.94436 0.71341 0.0
C782 C 0.02482 0.93089 0.68893 0.0
C783 C 0.0168 0.97156 0.66695 0.0
C784 C 0.01837 0.98561 0.69055 0.0
H785 H 0.02574 0.90946 0.68852 0.0
H786 H 0.01142 0.98216 0.64913 0.0
H787 H 0.9887 0.87556 0.62066 0.0
H788 H 0.92802 0.9026 0.67115 0.0
H789 H 0.09474 0.99345 0.62285 0.0
H790 H 0.0291 0.93321 0.73152 0.0
H791 H 0.01494 1.00685 0.69045 0.0
C792 C 0.61224 0.84436 0.70844 0.0
C793 C 0.60982 0.86358 0.68913 0.0
N794 N 0.62064 0.88629 0.6982 0.0
N795 N 0.62447 0.8548 0.72978 0.0
C796 C 0.62911 0.8805 0.72303 0.0
H797 H 0.607 0.82365 0.70633 0.0
Co798 Co 0.63886 0.83538 0.75832 0.0
C799 C 0.62834 0.87026 0.80559 0.0
O800 O 0.62023 0.84961 0.81931 0.0
N801 N 0.65483 0.81585 0.78666 0.0
C802 C 0.68456 0.80614 0.81821 0.0
C803 C 0.67174 0.82614 0.80484 0.0
C804 C 0.65828 0.78924 0.78927 0.0
N805 N 0.67612 0.78293 0.80834 0.0
O806 O 0.67371 0.84645 0.74767 0.0
H807 H 0.67658 0.84688 0.80673 0.0
H808 H 0.65019 0.77468 0.77585 0.0
O809 O 0.63479 0.86721 0.78126 0.0
C810 C 0.68258 0.8283 0.73239 0.0
O811 O 0.66732 0.80776 0.72729 0.0
N812 N 0.60474 0.82113 0.76609 0.0
C813 C 0.55736 0.79167 0.76891 0.0
C814 C 0.55825 0.8182 0.77771 0.0
C815 C 0.5822 0.83278 0.77581 0.0
C816 C 0.60356 0.79589 0.75641 0.0
C817 C 0.58046 0.78069 0.75814 0.0
H818 H 0.58229 0.85349 0.78117 0.0
H819 H 0.62053 0.78773 0.74619 0.0
H820 H 0.64022 0.8942 0.7353 0.0
H821 H 0.60194 0.86075 0.66939 0.0
H822 H 0.7005 0.80844 0.83245 0.0
H823 H 0.54048 0.8277 0.78527 0.0
H824 H 0.58039 0.7607 0.75024 0.0
C825 C 0.09841 0.14718 0.55978 0.0
C826 C 0.11883 0.14902 0.57759 0.0
N827 N 0.14185 0.14568 0.56461 0.0
N828 N 0.10806 0.14308 0.53509 0.0
C829 C 0.13494 0.14221 0.53878 0.0
H830 H 0.07758 0.14733 0.56503 0.0
Co831 Co 0.08493 0.13314 0.50631 0.0
C832 C 0.12103 0.13033 0.47044 0.0
O833 O 0.1078 0.15265 0.46743 0.0
N834 N 0.06127 0.12149 0.47887 0.0
C835 C 0.02765 0.12296 0.45004 0.0
C836 C 0.04794 0.13726 0.46178 0.0
C837 C 0.04942 0.0974 0.47605 0.0
N838 N 0.02836 0.09788 0.45931 0.0
O839 O 0.07709 0.10124 0.52749 0.0
H840 H 0.05114 0.15841 0.45984 0.0
H841 H 0.05419 0.08034 0.48791 0.0
O842 O 0.11389 0.1149 0.48928 0.0
C843 C 0.06082 0.09226 0.54468 0.0
O844 O 0.04094 0.10715 0.55254 0.0
N845 N 0.05737 0.15588 0.51956 0.0
C846 C 0.02189 0.19889 0.52198 0.0
C847 C 0.04932 0.20304 0.52225 0.0
C848 C 0.06658 0.18144 0.52045 0.0
C849 C 0.03048 0.15151 0.51957 0.0
C850 C 0.01237 0.17274 0.52109 0.0
H851 H 0.08754 0.18543 0.51787 0.0
H852 H 0.02273 0.13207 0.51583 0.0
H853 H 0.14903 0.13749 0.52329 0.0
H854 H 0.11689 0.15124 0.59882 0.0
H855 H 0.01243 0.13084 0.43705 0.0
H856 H 0.05735 0.223 0.52212 0.0
H857 H 0.99121 0.16889 0.5199 0.0
C858 C 0.41785 0.66109 0.70807 0.0
C859 C 0.42044 0.64077 0.69001 0.0
N860 N 0.40099 0.62304 0.69451 0.0
N861 N 0.39689 0.65619 0.72412 0.0
C862 C 0.38688 0.63282 0.71512 0.0
H863 H 0.42997 0.6788 0.70874 0.0
Co864 Co 0.38258 0.67959 0.75 0.0
C865 C 0.39456 0.62933 0.78254 0.0
O866 O 0.41194 0.6195 0.76583 0.0
N867 N 0.36834 0.70225 0.77595 0.0
C868 C 0.365 0.72488 0.81363 0.0
C869 C 0.37786 0.70455 0.80087 0.0
C870 C 0.34915 0.72099 0.77429 0.0
N871 N 0.34699 0.73525 0.7969 0.0
O872 O 0.34646 0.67084 0.73854 0.0
H873 H 0.39417 0.69312 0.80883 0.0
H874 H 0.33807 0.72521 0.75646 0.0
O875 O 0.38289 0.6514 0.7776 0.0
C876 C 0.34207 0.68175 0.71596 0.0
O877 O 0.36244 0.69238 0.70354 0.0
N878 N 0.41715 0.69266 0.7583 0.0
C879 C 0.46366 0.72294 0.76454 0.0
C880 C 0.46307 0.69594 0.77183 0.0
C881 C 0.43951 0.68102 0.76844 0.0
C882 C 0.41787 0.71863 0.75057 0.0
C883 C 0.4406 0.73414 0.75386 0.0
H884 H 0.43963 0.66025 0.77339 0.0
H885 H 0.40042 0.72747 0.74163 0.0
H886 H 0.36918 0.62352 0.72302 0.0
H887 H 0.43501 0.63943 0.67428 0.0
H888 H 0.3694 0.73239 0.83323 0.0
H889 H 0.48073 0.68644 0.77965 0.0
H890 H 0.44032 0.75471 0.7476 0.0
C891 C 0.92258 0.36335 0.56469 0.0
C892 C 0.90259 0.36384 0.58339 0.0
N893 N 0.88302 0.37981 0.57458 0.0
N894 N 0.9157 0.37876 0.54392 0.0
C895 C 0.89161 0.38889 0.55083 0.0
H896 H 0.94134 0.35297 0.56646 0.0
Co897 Co 0.93858 0.38799 0.51543 0.0
C898 C 0.88573 0.37768 0.4856 0.0
O899 O 0.87302 0.36512 0.5045 0.0
N900 N 0.96174 0.39828 0.48722 0.0
C901 C 0.97962 0.40228 0.44694 0.0
C902 C 0.9603 0.38988 0.46185 0.0
C903 C 0.98242 0.4157 0.48718 0.0
N904 N 0.99348 0.41853 0.4629 0.0
O905 O 0.93135 0.42447 0.5226 0.0
H906 H 0.94613 0.37552 0.45454 0.0
H907 H 0.98943 0.42609 0.50454 0.0
O908 O 0.90945 0.38628 0.48907 0.0
C909 C 0.94744 0.43213 0.54058 0.0
O910 O 0.96515 0.41513 0.54954 0.0
N911 N 0.94803 0.35175 0.51049 0.0
C912 C 0.96712 0.29953 0.51213 0.0
C913 C 0.9398 0.30461 0.50994 0.0
C914 C 0.93063 0.33092 0.50926 0.0
C915 C 0.97469 0.34696 0.51275 0.0
C916 C 0.98467 0.32105 0.51327 0.0
H917 H 0.90955 0.3343 0.5091 0.0
H918 H 0.98836 0.36335 0.51513 0.0
H919 H 0.88087 0.4033 0.53904 0.0
H920 H 0.90249 0.35346 0.60216 0.0
H921 H 0.98344 0.3994 0.42605 0.0
H922 H 0.92567 0.28839 0.50948 0.0
H923 H 1.00588 0.31783 0.51541 0.0
C924 C 0.60111 0.15769 0.79022 0.0
C925 C 0.6029 0.13745 0.80839 0.0
N926 N 0.62758 0.12743 0.80744 0.0
N927 N 0.6247 0.16094 0.77762 0.0
C928 C 0.64043 0.14181 0.78865 0.0
H929 H 0.5833 0.16904 0.78688 0.0
Co930 Co 0.63386 0.18623 0.75015 0.0
C931 C 0.63664 0.14556 0.71797 0.0
O932 O 0.6113 0.15149 0.72036 0.0
N933 N 0.64313 0.21091 0.72335 0.0
C934 C 0.63792 0.241 0.69136 0.0
C935 C 0.62635 0.21997 0.70453 0.0
C936 C 0.66497 0.22664 0.72096 0.0
N937 N 0.66218 0.24527 0.70179 0.0
O938 O 0.66572 0.19714 0.77047 0.0
H939 H 0.60635 0.21266 0.70153 0.0
H940 H 0.68188 0.2259 0.73418 0.0
O941 O 0.65349 0.15878 0.73169 0.0
C942 C 0.6704 0.20045 0.79516 0.0
O943 O 0.65102 0.19743 0.81234 0.0
N944 N 0.61119 0.21251 0.76459 0.0
C945 C 0.57104 0.25082 0.7703 0.0
C946 C 0.56572 0.22633 0.75853 0.0
C947 C 0.58608 0.20786 0.7554 0.0
C948 C 0.61719 0.23662 0.77545 0.0
C949 C 0.59719 0.25602 0.77891 0.0
H950 H 0.582 0.18974 0.74467 0.0
H951 H 0.63754 0.24165 0.77972 0.0
H952 H 0.66095 0.13854 0.78315 0.0
H953 H 0.58723 0.13057 0.8214 0.0
H954 H 0.62861 0.25326 0.67638 0.0
H955 H 0.54606 0.22187 0.75092 0.0
H956 H 0.60227 0.2752 0.78714 0.0
C957 C 0.41507 0.14802 0.4562 0.0
C958 C 0.39473 0.14872 0.4382 0.0
N959 N 0.37178 0.14492 0.45114 0.0
N960 N 0.40545 0.14427 0.48099 0.0
C961 C 0.37866 0.14205 0.47709 0.0
H962 H 0.43595 0.14885 0.45115 0.0
Co963 Co 0.42961 0.13692 0.50998 0.0
C964 C 0.39296 0.13048 0.54524 0.0
O965 O 0.4037 0.15413 0.54794 0.0
N966 N 0.45463 0.12743 0.53757 0.0
C967 C 0.48549 0.13143 0.56924 0.0
C968 C 0.46444 0.1437 0.55644 0.0
C969 C 0.46968 0.10502 0.54006 0.0
N970 N 0.48896 0.10707 0.55879 0.0
O971 O 0.44132 0.10652 0.48803 0.0
H972 H 0.45798 0.16396 0.55942 0.0
H973 H 0.46809 0.08807 0.52722 0.0
O974 O 0.40246 0.11537 0.52709 0.0
C975 C 0.46142 0.09843 0.4748 0.0
O976 O 0.48306 0.11282 0.47386 0.0
N977 N 0.45433 0.1634 0.49674 0.0
C978 C 0.48391 0.2104 0.48926 0.0
C979 C 0.45617 0.21069 0.48817 0.0
C980 C 0.4419 0.18733 0.49275 0.0
C981 C 0.48152 0.16312 0.4985 0.0
C982 C 0.49668 0.18622 0.49437 0.0
H983 H 0.42054 0.1889 0.49453 0.0
H984 H 0.49171 0.1459 0.50552 0.0
H985 H 0.3647 0.13675 0.49251 0.0
H986 H 0.39673 0.15034 0.41692 0.0
H987 H 0.49825 0.14031 0.58405 0.0
H988 H 0.44555 0.22921 0.48543 0.0
H989 H 0.51809 0.1855 0.49668 0.0
C990 C 0.40049 0.34904 0.81946 0.0
C991 C 0.40038 0.36973 0.83724 0.0
N992 N 0.38995 0.39116 0.82517 0.0
N993 N 0.39012 0.35733 0.79627 0.0
C994 C 0.38407 0.38323 0.80024 0.0
H995 H 0.40658 0.32885 0.82352 0.0
Co996 Co 0.38193 0.33437 0.76841 0.0
C997 C 0.3951 0.36845 0.72043 0.0
O998 O 0.41223 0.3508 0.71199 0.0
N999 N 0.37305 0.31003 0.74026 0.0
C1000 C 0.37617 0.28087 0.70694 0.0
C1001 C 0.38909 0.30026 0.72098 0.0
C1002 C 0.35042 0.29551 0.73744 0.0
N1003 N 0.35187 0.27779 0.71736 0.0
O1004 O 0.34411 0.34115 0.7753 0.0
H1005 H 0.40993 0.30469 0.71859 0.0
H1006 H 0.33407 0.29591 0.75123 0.0
O1007 O 0.38304 0.3647 0.74255 0.0
C1008 C 0.33485 0.32691 0.79423 0.0
O1009 O 0.35052 0.30881 0.80466 0.0
N1010 N 0.41878 0.32614 0.76513 0.0
C1011 C 0.47181 0.30886 0.76802 0.0
C1012 C 0.46579 0.33573 0.76344 0.0
C1013 C 0.43906 0.34407 0.76244 0.0
C1014 C 0.42447 0.30027 0.77093 0.0
C1015 C 0.45072 0.29114 0.77198 0.0
H1016 H 0.43465 0.36494 0.76014 0.0
H1017 H 0.40839 0.28655 0.77489 0.0
H1018 H 0.37412 0.39559 0.78577 0.0
H1019 H 0.40658 0.36892 0.85774 0.0
H1020 H 0.3848 0.26828 0.69184 0.0
H1021 H 0.4816 0.35013 0.76103 0.0
H1022 H 0.45455 0.2704 0.77617 0.0
C1023 C 0.60884 0.37825 0.45571 0.0
C1024 C 0.63007 0.3766 0.43878 0.0
N1025 N 0.65247 0.37643 0.45322 0.0
N1026 N 0.61742 0.37918 0.48108 0.0
C1027 C 0.64441 0.37792 0.47888 0.0
H1028 H 0.58822 0.3796 0.4497 0.0
Co1029 Co 0.59266 0.38431 0.50945 0.0
C1030 C 0.62974 0.39312 0.54466 0.0
O1031 O 0.62473 0.36753 0.54509 0.0
N1032 N 0.56742 0.38989 0.53717 0.0
C1033 C 0.5355 0.38106 0.56659 0.0
C1034 C 0.55598 0.37051 0.55171 0.0
C1035 C 0.55433 0.41225 0.5447 0.0
N1036 N 0.53417 0.40732 0.56182 0.0
O1037 O 0.57855 0.41463 0.48841 0.0
H1038 H 0.56091 0.34967 0.55014 0.0
H1039 H 0.55823 0.43168 0.53652 0.0
O1040 O 0.61733 0.40749 0.52776 0.0
C1041 C 0.55782 0.42839 0.48291 0.0
O1042 O 0.53478 0.42291 0.49365 0.0
N1043 N 0.57014 0.35797 0.4944 0.0
C1044 C 0.54144 0.31092 0.48673 0.0
C1045 C 0.56838 0.31018 0.49347 0.0
C1046 C 0.58224 0.33387 0.49741 0.0
C1047 C 0.54416 0.35912 0.48647 0.0
C1048 C 0.52938 0.33572 0.4826 0.0
H1049 H 0.60255 0.33301 0.50444 0.0
H1050 H 0.53415 0.37772 0.48439 0.0
H1051 H 0.65791 0.37893 0.4955 0.0
H1052 H 0.62924 0.37655 0.41736 0.0
H1053 H 0.52109 0.3699 0.57798 0.0
H1054 H 0.57827 0.29141 0.49709 0.0
H1055 H 0.50847 0.33698 0.47755 0.0
C1056 C 0.71009 0.60877 0.84282 0.0
C1057 C 0.69119 0.60566 0.86243 0.0
N1058 N 0.69834 0.62069 0.88327 0.0
N1059 N 0.72915 0.62562 0.85132 0.0
C1060 C 0.72132 0.63259 0.87606 0.0
H1061 H 0.7096 0.59991 0.82333 0.0
Co1062 Co 0.7582 0.63964 0.83202 0.0
C1063 C 0.79766 0.62772 0.8767 0.0
O1064 O 0.80762 0.60685 0.86476 0.0
N1065 N 0.78746 0.65492 0.81322 0.0
C1066 C 0.82778 0.66545 0.79774 0.0
C1067 C 0.81395 0.65134 0.81662 0.0
C1068 C 0.78591 0.67143 0.79207 0.0
N1069 N 0.81006 0.67808 0.78236 0.0
O1070 O 0.74452 0.67509 0.83786 0.0
H1071 H 0.82299 0.6386 0.83113 0.0
H1072 H 0.7675 0.67752 0.78316 0.0
O1073 O 0.77902 0.64116 0.86566 0.0
C1074 C 0.72379 0.67987 0.82384 0.0
O1075 O 0.71287 0.6603 0.81056 0.0
N1076 N 0.76927 0.60443 0.82207 0.0
C1077 C 0.77475 0.55442 0.79771 0.0
C1078 C 0.77016 0.55647 0.8251 0.0
C1079 C 0.76721 0.58171 0.83689 0.0
C1080 C 0.77338 0.60233 0.79537 0.0
C1081 C 0.77679 0.57781 0.78304 0.0
H1082 H 0.76204 0.58292 0.85764 0.0
H1083 H 0.77234 0.61963 0.78286 0.0
H1084 H 0.73172 0.64689 0.88824 0.0
H1085 H 0.67319 0.59392 0.86122 0.0
H1086 H 0.84912 0.6656 0.79483 0.0
H1087 H 0.76769 0.53876 0.83699 0.0
H1088 H 0.77945 0.57708 0.76177 0.0
C1089 C 0.87458 0.0585 0.42604 0.0
C1090 C 0.87069 0.07574 0.40531 0.0
N1091 N 0.87309 0.06221 0.38245 0.0
N1092 N 0.87993 0.03407 0.41659 0.0
C1093 C 0.87832 0.0368 0.38988 0.0
H1094 H 0.87423 0.06366 0.44681 0.0
Co1095 Co 0.89032 1.00558 0.43862 0.0
C1096 C 0.87962 0.95686 0.40465 0.0
O1097 O 0.86721 0.94501 0.42416 0.0
N1098 N 0.90099 0.97674 0.4616 0.0
C1099 C 0.8992 0.94526 0.49288 0.0
C1100 C 0.88497 0.95922 0.47439 0.0
C1101 C 0.92523 0.97214 0.47261 0.0
N1102 N 0.92447 0.95368 0.4921 0.0
O1103 O 0.92768 0.0139 0.43113 0.0
H1104 H 0.86366 0.9577 0.47208 0.0
H1105 H 0.94291 0.98325 0.46788 0.0
O1106 O 0.88836 0.98063 0.40776 0.0
C1107 C 0.93518 0.03255 0.44679 0.0
O1108 O 0.91777 0.04155 0.46398 0.0
N1109 N 0.85455 1.00143 0.44925 0.0
C1110 C 0.80586 0.99987 0.47613 0.0
C1111 C 0.80771 0.99141 0.4496 0.0
C1112 C 0.83237 0.99274 0.43626 0.0
C1113 C 0.85251 0.01111 0.47439 0.0
C1114 C 0.82859 0.01016 0.48827 0.0
H1115 H 0.8336 0.987 0.41574 0.0
H1116 H 0.87002 0.019 0.48406 0.0
H1117 H 0.88187 0.02078 0.37606 0.0
H1118 H 0.86686 0.09684 0.40686 0.0
H1119 H 0.89107 0.93193 0.50763 0.0
H1120 H 0.79029 0.98406 0.43934 0.0
H1121 H 0.82785 0.01738 0.50846 0.0
C1122 C 0.31057 0.91 0.84147 0.0
C1123 C 0.32972 0.91074 0.86093 0.0
N1124 N 0.32481 0.8911 0.87834 0.0
N1125 N 0.29337 0.89003 0.84647 0.0
C1126 C 0.3027 0.87881 0.86912 0.0
H1127 H 0.30995 0.92266 0.82421 0.0
Co1128 Co 0.26619 0.87777 0.82327 0.0
C1129 C 0.23699 0.88927 0.87516 0.0
O1130 O 0.25481 0.90657 0.88306 0.0
N1131 N 0.23963 0.86535 0.80014 0.0
C1132 C 0.20095 0.85871 0.77964 0.0
C1133 C 0.21323 0.87031 0.8011 0.0
C1134 C 0.24291 0.8508 0.77788 0.0
N1135 N 0.21973 0.84653 0.7651 0.0
O1136 O 0.27631 0.84153 0.82993 0.0
H1137 H 0.2035 0.88209 0.8161 0.0
H1138 H 0.26189 0.84383 0.77087 0.0
O1139 O 0.23951 0.87755 0.85273 0.0
C1140 C 0.29839 0.83655 0.81828 0.0
O1141 O 0.3123 0.85665 0.80913 0.0
N1142 N 0.25858 0.91262 0.81223 0.0
C1143 C 0.25267 0.95956 0.78339 0.0
C1144 C 0.24335 0.95781 0.80957 0.0
C1145 C 0.24663 0.93401 0.82384 0.0
C1146 C 0.26818 0.9145 0.78704 0.0
C1147 C 0.26528 0.93759 0.77224 0.0
H1148 H 0.23991 0.93314 0.84399 0.0
H1149 H 0.27826 0.89767 0.77831 0.0
H1150 H 0.29396 0.86146 0.87824 0.0
H1151 H 0.34637 0.92434 0.86198 0.0
H1152 H 0.17998 0.85948 0.77479 0.0
H1153 H 0.23394 0.97473 0.81891 0.0
H1154 H 0.27305 0.93838 0.75225 0.0
C1155 C 0.15423 0.45988 0.42854 0.0
C1156 C 0.15869 0.44089 0.40939 0.0
N1157 N 0.15183 0.45099 0.38562 0.0
N1158 N 0.14432 0.48197 0.41713 0.0
C1159 C 0.14347 0.47609 0.3909 0.0
H1160 H 0.15668 0.45726 0.44964 0.0
Co1161 Co 0.12959 0.511 0.43598 0.0
C1162 C 0.14559 0.55371 0.39577 0.0
O1163 O 0.16314 0.56372 0.41224 0.0
N1164 N 0.11343 0.53993 0.45519 0.0
C1165 C 0.09787 0.57938 0.46857 0.0
C1166 C 0.1117 0.56613 0.44922 0.0
C1167 C 0.09972 0.53797 0.47835 0.0
N1168 N 0.09032 0.56167 0.48684 0.0
O1169 O 0.09419 0.49847 0.42663 0.0
H1170 H 0.11945 0.57571 0.43194 0.0
H1171 H 0.09708 0.51958 0.4891 0.0
O1172 O 0.13183 0.5334 0.40293 0.0
C1173 C 0.08714 0.48078 0.44349 0.0
O1174 O 0.10392 0.47445 0.46241 0.0
N1175 N 0.1644 0.52032 0.44879 0.0
C1176 C 0.21389 0.52149 0.47505 0.0
C1177 C 0.21255 0.51962 0.4473 0.0
C1178 C 0.18756 0.5187 0.43455 0.0
C1179 C 0.16574 0.52202 0.47579 0.0
C1180 C 0.19007 0.52306 0.48916 0.0
H1181 H 0.18683 0.51553 0.4134 0.0
H1182 H 0.14794 0.52071 0.48754 0.0
H1183 H 0.13533 0.48931 0.37607 0.0
H1184 H 0.16537 0.42075 0.41279 0.0
H1185 H 0.09369 0.60045 0.46926 0.0
H1186 H 0.23058 0.51771 0.43574 0.0
H1187 H 0.19024 0.52374 0.51059 0.0
C1188 C 0.72058 0.42593 0.66731 0.0
C1189 C 0.70293 0.43226 0.64744 0.0
N1190 N 0.70184 0.41176 0.63054 0.0
N1191 N 0.73067 0.40131 0.66321 0.0
C1192 C 0.71871 0.39329 0.64041 0.0
H1193 H 0.72528 0.43874 0.68375 0.0
Co1194 Co 0.75532 0.38146 0.68462 0.0
C1195 C 0.78779 0.39939 0.63661 0.0
O1196 O 0.7722 0.41973 0.63172 0.0
N1197 N 0.77954 0.36145 0.70479 0.0
C1198 C 0.81047 0.33111 0.71411 0.0
C1199 C 0.79745 0.34443 0.69423 0.0
C1200 C 0.78193 0.3579 0.73125 0.0
N1201 N 0.80079 0.33966 0.73735 0.0
O1202 O 0.74099 0.34806 0.67147 0.0
H1203 H 0.80014 0.34094 0.6733 0.0
H1204 H 0.76937 0.36754 0.74574 0.0
O1205 O 0.7827 0.38388 0.65613 0.0
C1206 C 0.71869 0.34337 0.68292 0.0
O1207 O 0.70694 0.36309 0.69531 0.0
N1208 N 0.7668 0.41272 0.70192 0.0
C1209 C 0.7739 0.45736 0.7343 0.0
C1210 C 0.79133 0.45224 0.71308 0.0
C1211 C 0.7877 0.42941 0.69731 0.0
C1212 C 0.75072 0.41676 0.7233 0.0
C1213 C 0.75382 0.43889 0.73961 0.0
H1214 H 0.80164 0.42518 0.68174 0.0
H1215 H 0.73475 0.40292 0.72724 0.0
H1216 H 0.72189 0.37409 0.63138 0.0
H1217 H 0.69124 0.45024 0.64586 0.0
H1218 H 0.82514 0.31555 0.71174 0.0
H1219 H 0.80742 0.46585 0.70866 0.0
H1220 H 0.74014 0.44195 0.75589 0.0
C1221 C 0.66101 0.05695 0.59312 0.0
C1222 C 0.66653 0.07547 0.6123 0.0
N1223 N 0.65083 0.0706 0.63328 0.0
N1224 N 0.64202 0.04015 0.60193 0.0
C1225 C 0.63601 0.04917 0.62652 0.0
H1226 H 0.66972 0.05636 0.57357 0.0
Co1227 Co 0.62712 0.01241 0.58156 0.0
C1228 C 0.63857 0.96647 0.61965 0.0
O1229 O 0.65617 0.95598 0.60367 0.0
N1230 N 0.61214 0.98424 0.56096 0.0
C1231 C 0.60996 0.94922 0.53397 0.0
C1232 C 0.62436 0.96147 0.55344 0.0
C1233 C 0.58968 0.98466 0.5461 0.0
N1234 N 0.58838 0.96402 0.52899 0.0
O1235 O 0.59097 0.02535 0.5897 0.0
H1236 H 0.6442 0.95556 0.55883 0.0
H1237 H 0.57571 1.00089 0.54596 0.0
O1238 O 0.62715 0.9885 0.61352 0.0
C1239 C 0.58588 0.04702 0.57719 0.0
O1240 O 0.60545 0.05847 0.56427 0.0
N1241 N 0.66193 1.00328 0.56938 0.0
C1242 C 0.7102 0.99951 0.54167 0.0
C1243 C 0.7095 0.99663 0.5694 0.0
C1244 C 0.68508 0.99905 0.58302 0.0
C1245 C 0.6628 1.00716 0.54261 0.0
C1246 C 0.68643 1.00481 0.5284 0.0
H1247 H 0.68492 0.99854 0.60441 0.0
H1248 H 0.64489 0.01274 0.53214 0.0
H1249 H 0.6203 0.041 0.6387 0.0
H1250 H 0.67997 0.09216 0.61047 0.0
H1251 H 0.61627 0.93226 0.52239 0.0
H1252 H 0.72771 0.99343 0.58041 0.0
H1253 H 0.68627 1.00796 0.50719 0.0
C1254 C 0.31111 0.11203 0.67488 0.0
C1255 C 0.32949 0.10759 0.65516 0.0
N1256 N 0.32039 0.11844 0.6325 0.0
N1257 N 0.29052 0.12615 0.6651 0.0
C1258 C 0.29652 0.12932 0.63906 0.0
H1259 H 0.3131 0.10621 0.6954 0.0
Co1260 Co 0.26224 0.14033 0.68588 0.0
C1261 C 0.21965 0.12903 0.64398 0.0
O1262 O 0.21003 0.10886 0.65735 0.0
N1263 N 0.23409 0.15526 0.70673 0.0
C1264 C 0.19517 0.16532 0.72571 0.0
C1265 C 0.20733 0.1528 0.7047 0.0
C1266 C 0.23744 0.16973 0.72913 0.0
N1267 N 0.21421 0.17586 0.74106 0.0
O1268 O 0.27555 0.17612 0.68037 0.0
H1269 H 0.19689 0.14202 0.68961 0.0
H1270 H 0.25652 0.17464 0.73727 0.0
O1271 O 0.23946 0.14223 0.65323 0.0
C1272 C 0.29645 0.1803 0.69435 0.0
O1273 O 0.30788 0.1598 0.70567 0.0
N1274 N 0.2519 0.10529 0.6957 0.0
C1275 C 0.248 0.0552 0.71949 0.0
C1276 C 0.2503 0.05755 0.69187 0.0
C1277 C 0.25265 0.08292 0.68032 0.0
C1278 C 0.25027 0.1028 0.72261 0.0
C1279 C 0.24767 0.07819 0.73475 0.0
H1280 H 0.2562 0.08452 0.65927 0.0
H1281 H 0.25282 0.1198 0.73526 0.0
H1282 H 0.28422 0.1404 0.62537 0.0
H1283 H 0.3485 0.09774 0.65743 0.0
H1284 H 0.17404 0.16598 0.72985 0.0
H1285 H 0.25152 0.04001 0.67956 0.0
H1286 H 0.24696 0.07705 0.75616 0.0
C1287 C 0.36212 0.45447 0.59659 0.0
C1288 C 0.36024 0.43632 0.61689 0.0
N1289 N 0.37822 0.44268 0.6356 0.0
N1290 N 0.38123 0.47242 0.60228 0.0
C1291 C 0.3908 0.46454 0.62617 0.0
H1292 H 0.35086 0.45394 0.57837 0.0
Co1293 Co 0.3941 0.49898 0.5788 0.0
C1294 C 0.38209 0.5304 0.62956 0.0
O1295 O 0.36461 0.51321 0.63842 0.0
N1296 N 0.40701 0.52544 0.55553 0.0
C1297 C 0.40796 0.56219 0.53097 0.0
C1298 C 0.3953 0.54921 0.55128 0.0
C1299 C 0.4274 0.52486 0.538 0.0
N1300 N 0.42812 0.54684 0.52252 0.0
O1301 O 0.43088 0.48846 0.58682 0.0
H1302 H 0.37772 0.55621 0.56133 0.0
H1303 H 0.44072 0.50822 0.53567 0.0
O1304 O 0.39388 0.5265 0.60735 0.0
C1305 C 0.43612 0.4659 0.57618 0.0
O1306 O 0.41634 0.45279 0.56528 0.0
N1307 N 0.35874 0.50639 0.56688 0.0
C1308 C 0.31107 0.51266 0.53838 0.0
C1309 C 0.31334 0.52188 0.56456 0.0
C1310 C 0.33738 0.51841 0.5786 0.0
C1311 C 0.35647 0.49694 0.54163 0.0
C1312 C 0.33301 0.49994 0.52706 0.0
H1313 H 0.33852 0.52542 0.59864 0.0
H1314 H 0.3733 0.48707 0.53261 0.0
H1315 H 0.40724 0.47415 0.63611 0.0
H1316 H 0.34702 0.41937 0.61766 0.0
H1317 H 0.40217 0.58098 0.52229 0.0
H1318 H 0.29665 0.53155 0.57408 0.0
H1319 H 0.332 0.49233 0.50704 0.0
C1320 C 0.84066 0.7099 0.61671 0.0
C1321 C 0.86037 0.69085 0.61512 0.0
N1322 N 0.88316 0.7013 0.62454 0.0
N1323 N 0.85091 0.73228 0.62721 0.0
C1324 C 0.87694 0.7265 0.63148 0.0
H1325 H 0.81984 0.70708 0.6121 0.0
Co1326 Co 0.83145 0.76144 0.64023 0.0
C1327 C 0.87215 0.80338 0.6233 0.0
O1328 O 0.85673 0.81241 0.60433 0.0
N1329 N 0.81202 0.79071 0.65471 0.0
C1330 C 0.79706 0.83072 0.66689 0.0
C1331 C 0.81641 0.81724 0.65324 0.0
C1332 C 0.78978 0.78882 0.66982 0.0
N1333 N 0.78044 0.81279 0.67731 0.0
O1334 O 0.84082 0.75065 0.67585 0.0
H1335 H 0.83237 0.82692 0.64307 0.0
H1336 H 0.78012 0.77027 0.67469 0.0
O1337 O 0.86419 0.78385 0.63756 0.0
C1338 C 0.82425 0.73298 0.68365 0.0
O1339 O 0.80539 0.72547 0.66726 0.0
N1340 N 0.81859 0.7693 0.60527 0.0
C1341 C 0.79166 0.77176 0.55641 0.0
C1342 C 0.81955 0.76933 0.55738 0.0
C1343 C 0.83263 0.76768 0.58209 0.0
C1344 C 0.79143 0.77096 0.60426 0.0
C1345 C 0.77773 0.77267 0.58027 0.0
H1346 H 0.85389 0.76434 0.58258 0.0
H1347 H 0.77982 0.76949 0.62212 0.0
H1348 H 0.89064 0.73974 0.64142 0.0
H1349 H 0.85792 0.6705 0.60868 0.0
H1350 H 0.79509 0.85203 0.66877 0.0
H1351 H 0.83095 0.76779 0.53927 0.0
H1352 H 0.7562 0.77366 0.58036 0.0
C1353 C 0.84544 0.30933 0.91367 0.0
C1354 C 0.86463 0.32869 0.9157 0.0
N1355 N 0.88364 0.32379 0.89764 0.0
N1356 N 0.85219 0.29187 0.89452 0.0
C1357 C 0.87575 0.30126 0.88509 0.0
H1358 H 0.827 0.30887 0.92467 0.0
Co1359 Co 0.82926 0.26449 0.88172 0.0
C1360 C 0.86483 0.21576 0.89001 0.0
O1361 O 0.84678 0.20398 0.90454 0.0
N1362 N 0.80546 0.23728 0.86848 0.0
C1363 C 0.77478 0.20503 0.86786 0.0
C1364 C 0.79542 0.21612 0.88178 0.0
C1365 C 0.79034 0.23811 0.84614 0.0
N1366 N 0.77137 0.21904 0.84557 0.0
O1367 O 0.83605 0.27566 0.84587 0.0
H1368 H 0.80025 0.21067 0.90184 0.0
H1369 H 0.79195 0.25329 0.83124 0.0
O1370 O 0.86036 0.2392 0.8809 0.0
C1371 C 0.82374 0.29735 0.84076 0.0
O1372 O 0.81219 0.31017 0.86026 0.0
N1373 N 0.81896 0.2566 0.9167 0.0
C1374 C 0.79356 0.25133 0.96557 0.0
C1375 C 0.82097 0.24605 0.9631 0.0
C1376 C 0.83349 0.24917 0.93832 0.0
C1377 C 0.79274 0.26315 0.91939 0.0
C1378 C 0.77957 0.26009 0.94336 0.0
H1379 H 0.8547 0.24634 0.93663 0.0
H1380 H 0.78188 0.27071 0.9025 0.0
H1381 H 0.88616 0.29265 0.86844 0.0
H1382 H 0.86403 0.34588 0.92854 0.0
H1383 H 0.7616 0.18951 0.87478 0.0
H1384 H 0.83256 0.24014 0.98018 0.0
H1385 H 0.75863 0.26504 0.94468 0.0
C1386 C 0.56285 0.92338 0.35541 0.0
C1387 C 0.58039 0.90242 0.3553 0.0
N1388 N 0.57178 0.88416 0.3727 0.0
N1389 N 0.54295 0.91844 0.37268 0.0
C1390 C 0.54896 0.89422 0.38296 0.0
H1391 H 0.56511 0.94155 0.34425 0.0
Co1392 Co 0.51594 0.94307 0.38207 0.0
C1393 C 0.46598 0.90998 0.37222 0.0
O1394 O 0.45391 0.9287 0.35882 0.0
N1395 N 0.489 0.96844 0.39173 0.0
C1396 C 0.45797 1.00019 0.38877 0.0
C1397 C 0.4699 0.97929 0.3761 0.0
C1398 C 0.48811 0.98363 0.41393 0.0
N1399 N 0.46962 1.00306 0.41245 0.0
O1400 O 0.52239 0.93631 0.41886 0.0
H1401 H 0.4664 0.97441 0.3556 0.0
H1402 H 0.5018 0.98179 0.43025 0.0
O1403 O 0.48964 0.91368 0.38095 0.0
C1404 C 0.54407 0.94729 0.42622 0.0
O1405 O 0.55964 0.9576 0.40802 0.0
N1406 N 0.51211 0.95274 0.34649 0.0
C1407 C 0.50734 0.97892 0.29827 0.0
C1408 C 0.49933 0.95227 0.30074 0.0
C1409 C 0.50232 0.93925 0.32521 0.0
C1410 C 0.52175 0.97788 0.34364 0.0
C1411 C 0.51926 0.99145 0.31983 0.0
H1412 H 0.49667 0.9187 0.32713 0.0
H1413 H 0.5305 0.98785 0.3605 0.0
H1414 H 0.53751 0.88466 0.39839 0.0
H1415 H 0.59865 0.90106 0.34402 0.0
H1416 H 0.44363 0.01381 0.38029 0.0
H1417 H 0.49076 0.94182 0.28407 0.0
H1418 H 0.52617 0.01178 0.31839 0.0
C1419 C 0.16384 0.22128 0.90901 0.0
C1420 C 0.14508 0.20145 0.90943 0.0
N1421 N 0.12605 0.20729 0.89173 0.0
N1422 N 0.15695 0.24019 0.89117 0.0
C1423 C 0.13353 0.23092 0.88103 0.0
H1424 H 0.18204 0.22073 0.92031 0.0
Co1425 Co 0.17826 0.26999 0.87914 0.0
C1426 C 0.13481 0.29959 0.87675 0.0
O1427 O 0.14407 0.30123 0.90102 0.0
N1428 N 0.19952 0.29857 0.86633 0.0
C1429 C 0.21556 0.33849 0.85532 0.0
C1430 C 0.19499 0.32501 0.8676 0.0
C1431 C 0.22319 0.29669 0.8535 0.0
N1432 N 0.23313 0.3205 0.84634 0.0
O1433 O 0.18817 0.24868 0.8475 0.0
H1434 H 0.17792 0.33411 0.87688 0.0
H1435 H 0.23323 0.27822 0.84944 0.0
O1436 O 0.14734 0.28447 0.86056 0.0
C1437 C 0.19879 0.2259 0.84359 0.0
O1438 O 0.20671 0.21202 0.86413 0.0
N1439 N 0.20726 0.26 0.90163 0.0
C1440 C 0.24319 0.25877 0.9444 0.0
C1441 C 0.21748 0.26875 0.94748 0.0
C1442 C 0.20014 0.26951 0.92594 0.0
C1443 C 0.2326 0.25066 0.89787 0.0
C1444 C 0.25082 0.24961 0.91918 0.0
H1445 H 0.18056 0.27791 0.92866 0.0
H1446 H 0.23939 0.24486 0.87849 0.0
H1447 H 0.12268 0.24057 0.86523 0.0
H1448 H 0.14583 0.18351 0.92121 0.0
H1449 H 0.21756 0.35978 0.85327 0.0
H1450 H 0.21092 0.27635 0.96645 0.0
H1451 H 0.27081 0.24231 0.91588 0.0
C1452 C 0.95939 0.09918 0.85551 0.0
C1453 C 0.94035 0.11876 0.85359 0.0
N1454 N 0.94703 0.13874 0.86996 0.0
N1455 N 0.97826 0.10659 0.87304 0.0
C1456 C 0.97027 0.13101 0.88133 0.0
H1457 H 0.95855 0.08008 0.84583 0.0
Co1458 Co 1.00555 0.08451 0.88717 0.0
C1459 C 0.05502 0.11894 0.87765 0.0
O1460 O 0.06888 0.09845 0.86934 0.0
N1461 N 0.03228 0.06224 0.90241 0.0
C1462 C 0.06428 0.04869 0.93008 0.0
C1463 C 0.05228 0.0703 0.91845 0.0
C1464 C 0.0322 0.03538 0.90544 0.0
N1465 N 0.05154 0.02676 0.92193 0.0
O1466 O 0.99545 0.09397 0.92258 0.0
H1467 H 0.05677 0.09068 0.92316 0.0
H1468 H 0.01719 0.02235 0.89746 0.0
O1469 O 0.03061 0.11557 0.88447 0.0
C1470 C 0.97489 0.08019 0.92837 0.0
O1471 O 0.96228 0.06816 0.90899 0.0
N1472 N 0.01304 0.07111 0.853 0.0
C1473 C 0.01847 0.04095 0.80675 0.0
C1474 C 0.02829 0.06711 0.80798 0.0
C1475 C 0.02497 0.0821 0.83134 0.0
C1476 C 1.00189 0.04651 0.85118 0.0
C1477 C 1.00484 0.03092 0.82864 0.0
H1478 H 0.03123 0.1025 0.83175 0.0
H1479 H 0.98999 0.03909 0.86736 0.0
H1480 H 0.98034 0.14214 0.89667 0.0
H1481 H 0.92225 0.11786 0.84199 0.0
H1482 H 0.07998 0.04913 0.94475 0.0
H1483 H 0.03797 0.07592 0.79097 0.0
H1484 H 0.99604 0.01129 0.82811 0.0
C1485 C 0.67361 0.30384 0.11153 0.0
C1486 C 0.65356 0.32226 0.10861 0.0
N1487 N 0.63313 0.3152 0.12429 0.0
N1488 N 0.66593 0.28492 0.12886 0.0
C1489 C 0.64103 0.29242 0.13629 0.0
H1490 H 0.69305 0.30498 0.10248 0.0
Co1491 Co 0.68792 0.25795 0.14323 0.0
C1492 C 0.65669 0.20766 0.13266 0.0
O1493 O 0.67869 0.19573 0.12515 0.0
N1494 N 0.71039 0.23147 0.159 0.0
C1495 C 0.72399 0.19961 0.18676 0.0
C1496 C 0.70233 0.21151 0.17507 0.0
C1497 C 0.73729 0.23169 0.16218 0.0
N1498 N 0.74594 0.21237 0.17861 0.0
O1499 O 0.67687 0.26807 0.17804 0.0
H1500 H 0.68189 0.207 0.17976 0.0
H1501 H 0.75034 0.24683 0.15453 0.0
O1502 O 0.65768 0.23217 0.13965 0.0
C1503 C 0.69505 0.28351 0.18673 0.0
O1504 O 0.71521 0.28912 0.17114 0.0
N1505 N 0.70183 0.25066 0.10924 0.0
C1506 C 0.72992 0.24759 0.06156 0.0
C1507 C 0.70354 0.23837 0.06322 0.0
C1508 C 0.6896 0.24049 0.08732 0.0
C1509 C 0.72676 0.26111 0.10718 0.0
C1510 C 0.74138 0.25916 0.08391 0.0
H1511 H 0.66888 0.23504 0.08802 0.0
H1512 H 0.73495 0.2723 0.12342 0.0
H1513 H 0.62953 0.28226 0.15131 0.0
H1514 H 0.65437 0.34019 0.09681 0.0
H1515 H 0.72358 0.18396 0.20145 0.0
H1516 H 0.69366 0.23037 0.04592 0.0
H1517 H 0.76119 0.26761 0.08305 0.0
C1518 C 0.55647 0.0918 0.15353 0.0
C1519 C 0.57674 0.10985 0.15717 0.0
N1520 N 0.5716 0.13136 0.14225 0.0
N1521 N 0.53834 0.1019 0.13655 0.0
C1522 C 0.54822 0.12612 0.12993 0.0
H1523 H 0.55556 0.07206 0.16192 0.0
Co1524 Co 0.50887 0.0832 0.12202 0.0
C1525 C 0.4678 0.12581 0.13621 0.0
O1526 O 0.45851 0.11249 0.15652 0.0
N1527 N 0.47937 0.06468 0.10662 0.0
C1528 C 0.43912 0.04811 0.09741 0.0
C1529 C 0.45294 0.067 0.11141 0.0
C1530 C 0.48084 0.044 0.08953 0.0
N1531 N 0.45676 0.03362 0.08375 0.0
O1532 O 0.5219 0.09074 0.08683 0.0
H1533 H 0.44385 0.08048 0.12508 0.0
H1534 H 0.49922 0.03571 0.0826 0.0
O1535 O 0.48727 0.11652 0.12255 0.0
C1536 C 0.54254 0.07659 0.08191 0.0
O1537 O 0.55278 0.06226 0.10111 0.0
N1538 N 0.49876 0.07161 0.15637 0.0
C1539 C 0.4967 0.04476 0.20478 0.0
C1540 C 0.49897 0.07254 0.20409 0.0
C1541 C 0.50034 0.08565 0.17952 0.0
C1542 C 0.49669 0.04456 0.15718 0.0
C1543 C 0.49507 0.03089 0.18101 0.0
H1544 H 0.50421 0.10677 0.1791 0.0
H1545 H 0.49825 0.033 0.13931 0.0
H1546 H 0.53914 0.13911 0.11545 0.0
H1547 H 0.59455 0.10693 0.16888 0.0
H1548 H 0.41793 0.04432 0.0983 0.0
H1549 H 0.50111 0.08375 0.22224 0.0
H1550 H 0.49419 0.00939 0.18087 0.0
C1551 C 0.46137 0.41815 0.15936 0.0
C1552 C 0.44196 0.39912 0.16305 0.0
N1553 N 0.44666 0.37896 0.14624 0.0
N1554 N 0.47836 0.41009 0.14025 0.0
C1555 C 0.46884 0.38599 0.13274 0.0
H1556 H 0.46213 0.43727 0.16904 0.0
Co1557 Co 0.50548 0.43032 0.12318 0.0
C1558 C 0.55459 0.39744 0.13267 0.0
O1559 O 0.56735 0.41935 0.13885 0.0
N1560 N 0.53257 0.44986 0.10465 0.0
C1561 C 0.56266 0.45715 0.07272 0.0
C1562 C 0.54832 0.4383 0.08619 0.0
C1563 C 0.53743 0.47623 0.10124 0.0
N1564 N 0.55586 0.48103 0.08224 0.0
O1565 O 0.49219 0.41969 0.08906 0.0
H1566 H 0.54813 0.41746 0.08138 0.0
H1567 H 0.52646 0.49192 0.11081 0.0
O1568 O 0.5298 0.39882 0.12654 0.0
C1569 C 0.47125 0.43367 0.08509 0.0
O1570 O 0.46056 0.44592 0.10543 0.0
N1571 N 0.51548 0.44518 0.15611 0.0
C1572 C 0.51977 0.47525 0.20264 0.0
C1573 C 0.52711 0.44825 0.20231 0.0
C1574 C 0.52438 0.43337 0.17878 0.0
C1575 C 0.50703 0.47089 0.15678 0.0
C1576 C 0.50967 0.48643 0.17942 0.0
H1577 H 0.52787 0.41227 0.17917 0.0
H1578 H 0.49669 0.47905 0.1399 0.0
H1579 H 0.47712 0.37448 0.11664 0.0
H1580 H 0.42507 0.40044 0.17627 0.0
H1581 H 0.5757 0.45377 0.05601 0.0
H1582 H 0.53387 0.4386 0.22025 0.0
H1583 H 0.50267 0.50677 0.17914 0.0
C1584 C 0.19527 0.21428 0.29672 0.0
C1585 C 0.20793 0.20758 0.32107 0.0
C1586 C 0.19483 0.25183 0.33775 0.0
C1587 C 0.17835 0.25593 0.31517 0.0
N1588 N 0.15718 0.23594 0.27742 0.0
N1589 N 0.21587 0.21959 0.36677 0.0
C1590 C 0.17702 0.23572 0.29581 0.0
C1591 C 0.20681 0.22631 0.3422 0.0
N1592 N 0.20107 0.20069 0.27407 0.0
N1593 N 0.19976 0.27246 0.35452 0.0
H1594 H 0.22411 0.20114 0.37115 0.0
H1595 H 0.21295 0.23154 0.38335 0.0
H1596 H 0.19223 0.29146 0.35125 0.0
H1597 H 0.21346 0.27131 0.36997 0.0
H1598 H 0.19365 0.20633 0.25562 0.0
H1599 H 0.21578 0.18615 0.27318 0.0
H1600 H 0.1543 0.22054 0.26394 0.0
H1601 H 0.14154 0.24947 0.27834 0.0
C1602 C 0.46222 0.56102 0.97305 0.0
C1603 C 0.45584 0.55181 0.94714 0.0
C1604 C 0.50071 0.5651 0.9328 0.0
C1605 C 0.50471 0.5785 0.9572 0.0
N1606 N 0.4858 0.59416 0.9982 0.0
N1607 N 0.46876 0.54775 0.90123 0.0
C1608 C 0.48465 0.57762 0.97682 0.0
C1609 C 0.47514 0.55424 0.92669 0.0
N1610 N 0.44699 0.55386 0.9943 0.0
N1611 N 0.5215 0.56255 0.91564 0.0
H1612 H 0.45032 0.5401 0.89578 0.0
H1613 H 0.48108 0.55192 0.88519 0.0
H1614 H 0.54042 0.56993 0.91994 0.0
H1615 H 0.52064 0.551 0.89857 0.0
H1616 H 0.45256 0.5579 0.01377 0.0
H1617 H 0.43046 0.5415 0.99284 0.0
H1618 H 0.47028 0.59598 0.01176 0.0
H1619 H 0.50062 0.60838 1.00073 0.0
C1620 C 0.81596 0.24768 0.32562 0.0
C1621 C 0.84375 0.24922 0.32099 0.0
C1622 C 0.84211 0.29758 0.32707 0.0
C1623 C 0.81382 0.2965 0.32922 0.0
N1624 N 0.77344 0.27069 0.32786 0.0
N1625 N 0.88329 0.27509 0.3152 0.0
C1626 C 0.80062 0.27152 0.32817 0.0
C1627 C 0.85682 0.27405 0.32133 0.0
N1628 N 0.80434 0.22326 0.32747 0.0
N1629 N 0.85496 0.32119 0.33087 0.0
H1630 H 0.89462 0.25809 0.31172 0.0
H1631 H 0.89371 0.29263 0.3119 0.0
H1632 H 0.84498 0.33887 0.33493 0.0
H1633 H 0.87553 0.32306 0.33229 0.0
H1634 H 0.78472 0.22025 0.33334 0.0
H1635 H 0.81504 0.20571 0.32475 0.0
H1636 H 0.76251 0.25358 0.32403 0.0
H1637 H 0.7616 0.28757 0.32982 0.0
C1638 C 0.54155 0.93204 0.94982 0.0
C1639 C 0.51705 0.94592 0.94993 0.0
C1640 C 0.54044 0.98774 0.93947 0.0
C1641 C 0.56509 0.97387 0.93975 0.0
N1642 N 0.58916 0.93243 0.94141 0.0
N1643 N 0.49211 0.98592 0.94248 0.0
C1644 C 0.5656 0.94587 0.9439 0.0
C1645 C 0.51623 0.97346 0.94385 0.0
N1646 N 0.54162 0.90547 0.9554 0.0
N1647 N 0.54033 0.01473 0.93651 0.0
H1648 H 0.47436 0.97655 0.9476 0.0
H1649 H 0.48932 1.00509 0.93537 0.0
H1650 H 0.55744 0.02574 0.93269 0.0
H1651 H 0.52364 0.02664 0.93912 0.0
H1652 H 0.55867 0.89429 0.95881 0.0
H1653 H 0.52422 0.89442 0.95754 0.0
H1654 H 0.59102 0.91189 0.94197 0.0
H1655 H 0.60707 0.94171 0.93662 0.0
C1656 C 0.1699 0.79458 0.19644 0.0
C1657 C 0.1837 0.77071 0.20162 0.0
C1658 C 0.22641 0.79484 0.19966 0.0
C1659 C 0.21246 0.8191 0.19483 0.0
N1660 N 0.17185 0.83953 0.17951 0.0
N1661 N 0.2247 0.7466 0.2037 0.0
C1662 C 0.18442 0.81818 0.19058 0.0
C1663 C 0.21189 0.77045 0.20189 0.0
N1664 N 0.14276 0.79476 0.19779 0.0
N1665 N 0.25337 0.79501 0.20268 0.0
H1666 H 0.2145 0.72869 0.20591 0.0
H1667 H 0.24513 0.74419 0.20136 0.0
H1668 H 0.26516 0.81101 0.19727 0.0
H1669 H 0.26418 0.77925 0.21054 0.0
H1670 H 0.13143 0.81206 0.19721 0.0
H1671 H 0.13169 0.77763 0.20153 0.0
H1672 H 0.15195 0.83937 0.17376 0.0
H1673 H 0.1821 0.85636 0.17313 0.0
C1674 C 0.03722 0.56866 0.10125 0.0
C1675 C 0.05424 0.56428 0.07903 0.0
C1676 C 0.0277 0.59609 0.05344 0.0
C1677 C 1.00902 0.59827 0.07414 0.0
N1678 N 0.99388 0.5841 0.11684 0.0
N1679 N 0.05826 0.56703 0.03125 0.0
C1680 C 0.01306 0.5836 0.09777 0.0
C1681 C 0.0471 0.57583 0.05429 0.0
N1682 N 0.04455 0.55998 0.12578 0.0
N1683 N 0.0279 0.61428 0.03346 0.0
H1684 H 0.07122 0.55092 0.03046 0.0
H1685 H 0.05197 0.57367 0.01271 0.0
H1686 H 0.01485 0.63033 0.03294 0.0
H1687 H 0.04277 0.61482 0.01907 0.0
H1688 H 0.03435 0.56509 0.14298 0.0
H1689 H 0.06186 0.54922 0.12928 0.0
H1690 H 0.99427 0.57196 0.13353 0.0
H1691 H 0.9766 0.59543 0.11479 0.0
C1692 C 0.8008 0.71243 0.22608 0.0
C1693 C 0.80459 0.69695 0.20278 0.0
C1694 C 0.83839 0.72931 0.18814 0.0
C1695 C 0.8324 0.74573 0.21017 0.0
N1696 N 0.80102 0.75679 0.24418 0.0
N1697 N 0.82493 0.69261 0.15981 0.0
C1698 C 0.81155 0.73844 0.22738 0.0
C1699 C 0.82264 0.70613 0.18311 0.0
N1700 N 0.78809 0.70211 0.24764 0.0
N1701 N 0.8597 0.7355 0.17257 0.0
H1702 H 0.8141 0.67544 0.15581 0.0
H1703 H 0.83597 0.69945 0.14376 0.0
H1704 H 0.87154 0.75214 0.17609 0.0
H1705 H 0.86688 0.72317 0.15767 0.0
H1706 H 0.78684 0.7122 0.26562 0.0
H1707 H 0.78159 0.68253 0.24867 0.0
H1708 H 0.78371 0.75326 0.25498 0.0
H1709 H 0.8078 0.77635 0.24488 0.0
C1710 C 0.01639 0.95694 0.07014 0.0
C1711 C 0.016 0.9291 0.06608 0.0
C1712 C 0.96769 0.9287 0.07356 0.0
C1713 C 0.96746 0.95699 0.07481 0.0
N1714 N 0.99158 0.99833 0.07226 0.0
N1715 N 0.99169 0.88844 0.06177 0.0
C1716 C 0.99189 0.97122 0.07295 0.0
C1717 C 0.99174 0.91497 0.06739 0.0
N1718 N 0.04037 0.96962 0.07126 0.0
N1719 N 0.94485 0.91488 0.07877 0.0
H1720 H 1.0091 0.87785 0.0579 0.0
H1721 H 0.97446 0.87728 0.05919 0.0
H1722 H 0.92686 0.92409 0.0834 0.0
H1723 H 0.94413 0.89434 0.08092 0.0
H1724 H 0.04265 0.98941 0.07674 0.0
H1725 H 0.05836 0.95967 0.06839 0.0
H1726 H 1.00813 0.00987 0.06769 0.0
H1727 H 0.97433 0.00949 0.0748 0.0
C1728 C 0.30521 0.21303 0.25099 0.0
C1729 C 0.30877 0.18513 0.25215 0.0
C1730 C 0.3276 0.18585 0.20723 0.0
C1731 C 0.32078 0.21309 0.20467 0.0
N1732 N 0.30244 0.25281 0.22393 0.0
N1733 N 0.3206 0.14431 0.23062 0.0
C1734 C 0.30967 0.22684 0.22663 0.0
C1735 C 0.31945 0.1714 0.2301 0.0
N1736 N 0.29819 0.22633 0.27348 0.0
N1737 N 0.34238 0.17397 0.18786 0.0
H1738 H 0.31416 0.13319 0.24681 0.0
H1739 H 0.32567 0.13279 0.21428 0.0
H1740 H 0.34908 0.18424 0.17119 0.0
H1741 H 0.35023 0.15491 0.18953 0.0
H1742 H 0.29767 0.24692 0.27496 0.0
H1743 H 0.29479 0.21663 0.29142 0.0
H1744 H 0.29107 0.26302 0.23779 0.0
H1745 H 0.30702 0.26393 0.20717 0.0
C1746 C 0.44422 0.43029 0.01399 0.0
C1747 C 0.43215 0.45575 0.01243 0.0
C1748 C 0.45351 0.46788 0.05404 0.0
C1749 C 0.46133 0.44103 0.05822 0.0
N1750 N 0.46123 0.39565 0.04279 0.0
N1751 N 0.42018 0.49634 0.03484 0.0
C1752 C 0.45617 0.42189 0.03825 0.0
C1753 C 0.4355 0.47399 0.03343 0.0
N1754 N 0.44463 0.41438 0.99216 0.0
N1755 N 0.46347 0.48775 0.06956 0.0
H1756 H 0.40493 0.50049 0.02149 0.0
H1757 H 0.42036 0.50901 0.05115 0.0
H1758 H 0.47805 0.48451 0.08391 0.0
H1759 H 0.45983 0.50778 0.06583 0.0
H1760 H 0.4551 0.39654 0.99137 0.0
H1761 H 0.43672 0.42042 0.97403 0.0
H1762 H 0.4552 0.38065 0.02993 0.0
H1763 H 0.46949 0.38864 0.06037 0.0
C1764 C 0.70036 0.2932 0.26144 0.0
C1765 C 0.70756 0.32034 0.26194 0.0
C1766 C 0.69839 0.32419 0.21452 0.0
C1767 C 0.69432 0.29626 0.21324 0.0
N1768 N 0.69174 0.25376 0.23525 0.0
N1769 N 0.71417 0.362 0.23991 0.0
C1770 C 0.69488 0.28066 0.23673 0.0
C1771 C 0.70655 0.33598 0.23874 0.0
N1772 N 0.69888 0.27956 0.28477 0.0
N1773 N 0.69404 0.33943 0.19252 0.0
H1774 H 0.7192 0.37139 0.25761 0.0
H1775 H 0.71699 0.37397 0.22335 0.0
H1776 H 0.68829 0.33144 0.17437 0.0
H1777 H 0.69397 0.36008 0.19259 0.0
H1778 H 0.69123 0.26045 0.28652 0.0
H1779 H 0.70391 0.28813 0.30288 0.0
H1780 H 0.69522 0.24085 0.25095 0.0
H1781 H 0.68679 0.24395 0.21783 0.0
C1782 C 0.58402 0.0925 0.02069 0.0
C1783 C 0.58336 0.06786 1.00717 0.0
C1784 C 0.55615 0.04902 0.04252 0.0
C1785 C 0.55455 0.07435 0.05503 0.0
N1786 N 0.56342 0.12146 0.05309 0.0
N1787 N 0.56139 0.02584 1.00108 0.0
C1788 C 0.56716 0.09658 0.04304 0.0
C1789 C 0.56719 0.04707 0.01684 0.0
N1790 N 0.60175 0.11151 0.01296 0.0
N1791 N 0.54794 0.02647 0.05516 0.0
H1792 H 0.56799 0.02444 0.98162 0.0
H1793 H 0.54748 0.01138 1.00621 0.0
H1794 H 0.54021 0.02615 0.07419 0.0
H1795 H 0.55143 1.00751 0.04765 0.0
H1796 H 0.60519 0.12887 0.02361 0.0
H1797 H 0.61488 0.10871 0.99722 0.0
H1798 H 0.57007 0.13861 0.04365 0.0
H1799 H 0.55195 0.12519 0.06983 0.0
C1800 C 0.34991 0.81048 0.28918 0.0
C1801 C 0.3286 0.8083 0.30767 0.0
C1802 C 0.30189 0.83774 0.27958 0.0
C1803 C 0.3216 0.83764 0.25963 0.0
N1804 N 0.36229 0.81836 0.2433 0.0
N1805 N 0.28102 0.81211 0.314 0.0
C1806 C 0.34505 0.82231 0.26377 0.0
C1807 C 0.30353 0.81939 0.30074 0.0
N1808 N 0.37496 0.80255 0.29601 0.0
N1809 N 0.28262 0.85675 0.27961 0.0
H1810 H 0.28095 0.79714 0.32827 0.0
H1811 H 0.26213 0.81854 0.30829 0.0
H1812 H 0.28338 0.87285 0.26672 0.0
H1813 H 0.26869 0.85861 0.29479 0.0
H1814 H 0.39156 0.80636 0.28427 0.0
H1815 H 0.37956 0.79427 0.31433 0.0
H1816 H 0.37849 0.8055 0.2445 0.0
H1817 H 0.35873 0.82578 0.22436 0.0
C1818 C 0.05313 0.4824 0.96568 0.0
C1819 C 0.04457 0.45623 0.95914 0.0
C1820 C 0.05624 0.44246 1.00442 0.0
C1821 C 0.06956 0.46698 0.00861 0.0
N1822 N 0.08556 0.50806 0.9897 0.0
N1823 N 0.04045 0.41028 0.97235 0.0
C1824 C 0.06913 0.48651 0.98843 0.0
C1825 C 0.04643 0.43595 0.97865 0.0
N1826 N 0.04587 0.50358 0.95037 0.0
N1827 N 0.05291 0.42549 0.0252 0.0
H1828 H 0.03375 0.40449 0.95372 0.0
H1829 H 0.04424 0.39438 0.985 0.0
H1830 H 0.05949 0.43012 0.04425 0.0
H1831 H 0.04141 0.40832 0.0241 0.0
H1832 H 0.04959 0.52317 0.95592 0.0
H1833 H 0.03358 0.50191 0.93386 0.0
H1834 H 0.08763 0.52149 0.97412 0.0
H1835 H 0.09948 0.51088 1.00467 0.0
C1836 C 0.70703 0.67194 0.29056 0.0
C1837 C 0.70326 0.68296 0.26507 0.0
C1838 C 0.69006 0.72537 0.28538 0.0
C1839 C 0.69186 0.71347 0.31087 0.0
N1840 N 0.69572 0.67356 0.33702 0.0
N1841 N 0.68795 0.7187 0.23766 0.0
C1842 C 0.69834 0.68614 0.31317 0.0
C1843 C 0.69376 0.7093 0.26232 0.0
N1844 N 0.72006 0.64828 0.29322 0.0
N1845 N 0.68606 0.75209 0.28321 0.0
H1846 H 0.69107 0.7074 0.22063 0.0
H1847 H 0.67848 0.73677 0.23425 0.0
H1848 H 0.68277 0.76425 0.29955 0.0
H1849 H 0.68757 0.76241 0.26541 0.0
H1850 H 0.72576 0.64046 0.31145 0.0
H1851 H 0.72775 0.63787 0.27711 0.0
H1852 H 0.69759 0.65309 0.3393 0.0
H1853 H 0.68888 0.68317 0.35398 0.0
C1854 C 0.9431 0.04086 0.98303 0.0
C1855 C 0.94276 0.05878 1.00458 0.0
C1856 C 0.96507 0.0921 0.97662 0.0
C1857 C 0.96747 0.07301 0.95608 0.0
N1858 N 0.96801 0.02619 0.94518 0.0
N1859 N 0.95991 0.09905 0.02387 0.0
C1860 C 0.95954 0.0464 0.96108 0.0
C1861 C 0.9558 0.08372 1.00201 0.0
N1862 N 0.92636 0.01954 0.98238 0.0
N1863 N 0.97034 0.11824 0.9718 0.0
H1864 H 0.95451 0.09282 0.04281 0.0
H1865 H 0.97119 0.1164 0.02351 0.0
H1866 H 0.9767 0.12526 0.95347 0.0
H1867 H 0.96621 0.13319 0.98544 0.0
H1868 H 0.92479 1.00716 0.96591 0.0
H1869 H 0.91159 0.01636 0.99648 0.0
H1870 H 0.96419 1.0063 0.94947 0.0
H1871 H 0.98158 0.02909 0.92987 0.0
C1872 C 0.21894 0.30906 0.1647 0.0
C1873 C 0.24311 0.30561 0.17849 0.0
C1874 C 0.21984 0.3129 0.22076 0.0
C1875 C 0.19533 0.31659 0.20681 0.0
N1876 N 0.17493 0.32844 0.16512 0.0
N1877 N 0.26818 0.31078 0.21846 0.0
C1878 C 0.19586 0.3176 0.17861 0.0
C1879 C 0.24399 0.30937 0.20622 0.0
N1880 N 0.218 0.30389 0.1382 0.0
N1881 N 0.22037 0.31229 0.24774 0.0
H1882 H 0.28604 0.30844 0.2082 0.0
H1883 H 0.27069 0.31641 0.23813 0.0
H1884 H 0.20475 0.31855 0.25955 0.0
H1885 H 0.23653 0.30518 0.25856 0.0
H1886 H 0.20032 0.3034 0.12743 0.0
H1887 H 0.23471 0.29784 0.12752 0.0
H1888 H 0.17514 0.33175 0.14477 0.0
H1889 H 0.15882 0.33733 0.17466 0.0
C1890 C 0.20893 0.7005 0.33624 0.0
C1891 C 0.20393 0.71067 0.31037 0.0
C1892 C 0.2502 0.72719 0.30861 0.0
C1893 C 0.2539 0.71932 0.33518 0.0
N1894 N 0.2368 0.70132 0.37558 0.0
N1895 N 0.22051 0.73368 0.27165 0.0
C1896 C 0.2332 0.70684 0.34935 0.0
C1897 C 0.22484 0.72385 0.29639 0.0
N1898 N 0.19118 0.68339 0.34765 0.0
N1899 N 0.27139 0.73713 0.29482 0.0
H1900 H 0.20439 0.72813 0.26027 0.0
H1901 H 0.23287 0.74739 0.26236 0.0
H1902 H 0.2898 0.74083 0.30361 0.0
H1903 H 0.27137 0.74038 0.27448 0.0
H1904 H 0.19482 0.67329 0.36526 0.0
H1905 H 0.17396 0.67691 0.33812 0.0
H1906 H 0.22162 0.69483 0.38802 0.0
H1907 H 0.25464 0.70534 0.38538 0.0
C1908 C 0.94468 0.52684 0.96141 0.0
C1909 C 0.96221 0.5263 0.93952 0.0
C1910 C 0.97594 0.57209 0.94904 0.0
C1911 C 0.96038 0.57179 0.9725 0.0
N1912 N 0.93196 0.54787 1.00276 0.0
N1913 N 0.99689 0.54675 0.91391 0.0
C1914 C 0.94508 0.54895 0.9791 0.0
C1915 C 0.97854 0.54849 0.93377 0.0
N1916 N 0.92742 0.50622 0.96496 0.0
N1917 N 0.98733 0.59531 0.94075 0.0
H1918 H 0.99883 0.52999 0.90196 0.0
H1919 H 0.01153 0.56098 0.91057 0.0
H1920 H 0.98518 0.61317 0.95097 0.0
H1921 H 0.99671 0.59754 0.92252 0.0
H1922 H 0.91207 0.50634 0.97879 0.0
H1923 H 0.92744 0.48956 0.95268 0.0
H1924 H 0.92287 0.5308 0.01003 0.0
H1925 H 0.93163 0.5636 0.01614 0.0
C1926 C 0.80039 0.79154 0.30569 0.0
C1927 C 0.81091 0.81765 0.30281 0.0
C1928 C 0.77166 0.83559 0.32558 0.0
C1929 C 0.76064 0.80974 0.32691 0.0
N1930 N 0.76085 0.76468 0.31126 0.0
N1931 N 0.80421 0.86504 0.30568 0.0
C1932 C 0.774 0.78812 0.31502 0.0
C1933 C 0.7957 0.83989 0.31121 0.0
N1934 N 0.81552 0.76984 0.2996 0.0
N1935 N 0.75969 0.85577 0.33914 0.0
H1936 H 0.82201 0.86903 0.29591 0.0
H1937 H 0.79271 0.8819 0.30904 0.0
H1938 H 0.74235 0.85298 0.35014 0.0
H1939 H 0.76808 0.87453 0.34137 0.0
H1940 H 0.81021 0.75057 0.30494 0.0
H1941 H 0.83376 0.77098 0.2899 0.0
H1942 H 0.76879 0.74871 0.30083 0.0
H1943 H 0.74082 0.76219 0.31597 0.0
C1944 C 0.53928 0.47356 0.4257 0.0
C1945 C 0.55474 0.49637 0.43133 0.0
C1946 C 0.57376 0.47425 0.47032 0.0
C1947 C 0.55913 0.45094 0.46398 0.0
N1948 N 0.53224 0.42648 0.43294 0.0
N1949 N 0.58924 0.51779 0.45611 0.0
C1950 C 0.54305 0.45008 0.44088 0.0
C1951 C 0.57282 0.49645 0.45279 0.0
N1952 N 0.52064 0.47462 0.40603 0.0
N1953 N 0.58751 0.47563 0.49363 0.0
H1954 H 0.58818 0.53454 0.44398 0.0
H1955 H 0.60489 0.51825 0.46959 0.0
H1956 H 0.5889 0.45977 0.50681 0.0
H1957 H 0.59616 0.49297 0.50079 0.0
H1958 H 0.50655 0.45983 0.40279 0.0
H1959 H 0.51799 0.49126 0.39403 0.0
H1960 H 0.52245 0.42386 0.41497 0.0
H1961 H 0.53522 0.40875 0.4432 0.0
C1962 C 0.27029 0.67078 0.69016 0.0
C1963 C 0.26788 0.69315 0.67314 0.0
C1964 C 0.30993 0.71013 0.6905 0.0
C1965 C 0.31486 0.68586 0.70416 0.0
N1966 N 0.30038 0.64097 0.71326 0.0
N1967 N 0.29007 0.72952 0.65161 0.0
C1968 C 0.29515 0.66554 0.70312 0.0
C1969 C 0.28906 0.71151 0.67176 0.0
N1970 N 0.2487 0.65499 0.69459 0.0
N1971 N 0.32459 0.73232 0.69588 0.0
H1972 H 0.27652 0.72919 0.636 0.0
H1973 H 0.30624 0.74214 0.64865 0.0
H1974 H 0.33887 0.73305 0.71082 0.0
H1975 H 0.32013 0.75083 0.68774 0.0
H1976 H 0.24856 0.63985 0.70865 0.0
H1977 H 0.2302 0.65875 0.68602 0.0
H1978 H 0.28772 0.62482 0.71058 0.0
H1979 H 0.31834 0.63608 0.7223 0.0
C1980 C 0.95094 0.5074 0.54959 0.0
C1981 C 0.95423 0.5086 0.57735 0.0
C1982 C 0.94622 0.46085 0.58081 0.0
C1983 C 0.9463 0.45897 0.5527 0.0
N1984 N 0.95091 0.48024 0.51004 0.0
N1985 N 0.9569 0.48711 0.61965 0.0
C1986 C 0.94888 0.48224 0.53693 0.0
C1987 C 0.95231 0.48548 0.59304 0.0
N1988 N 0.94967 0.5305 0.53548 0.0
N1989 N 0.93952 0.43923 0.59578 0.0
H1990 H 0.96052 0.50508 0.62925 0.0
H1991 H 0.95893 0.47063 0.63192 0.0
H1992 H 0.93431 0.42097 0.58757 0.0
H1993 H 0.93649 0.43996 0.61614 0.0
H1994 H 0.94462 0.53142 0.51552 0.0
H1995 H 0.9518 0.54907 0.54438 0.0
H1996 H 0.95598 0.49608 0.4978 0.0
H1997 H 0.94921 0.46235 0.49991 0.0
C1998 C 0.07144 0.01741 0.55781 0.0
C1999 C 0.06153 0.01606 0.58393 0.0
C2000 C 0.05968 0.06455 0.58589 0.0
C2001 C 0.06545 0.06611 0.55839 0.0
N2002 N 0.08016 0.04351 0.51856 0.0
N2003 N 0.04329 0.03776 0.62216 0.0
C2004 C 0.07252 0.04242 0.54444 0.0
C2005 C 0.05483 0.03949 0.59776 0.0
N2006 N 0.08072 0.99471 0.54624 0.0
N2007 N 0.0606 0.08697 0.60111 0.0
H2008 H 0.0396 0.01967 0.6315 0.0
H2009 H 0.03529 0.05405 0.63205 0.0
H2010 H 0.06654 0.10533 0.59361 0.0
H2011 H 0.05889 0.08674 0.62165 0.0
H2012 H 0.09096 0.99423 0.52835 0.0
H2013 H 0.07955 0.97624 0.55554 0.0
H2014 H 0.08065 0.02704 0.50614 0.0
H2015 H 0.08673 0.06075 0.50944 0.0
C2016 C 0.70052 0.72044 0.84219 0.0
C2017 C 0.7127 0.70714 0.82051 0.0
C2018 C 0.70357 0.7457 0.79213 0.0
C2019 C 0.68869 0.75751 0.81269 0.0
N2020 N 0.67021 0.75534 0.85641 0.0
N2021 N 0.71994 0.7052 0.77297 0.0
C2022 C 0.68655 0.74473 0.8376 0.0
C2023 C 0.7125 0.71916 0.79493 0.0
N2024 N 0.70185 0.70967 0.86698 0.0
N2025 N 0.7101 0.76022 0.77024 0.0
H2026 H 0.72601 0.6855 0.77336 0.0
H2027 H 0.71738 0.71237 0.75378 0.0
H2028 H 0.70459 0.78001 0.76789 0.0
H2029 H 0.72341 0.75358 0.75587 0.0
H2030 H 0.69573 0.7196 0.88399 0.0
H2031 H 0.71058 0.69131 0.87085 0.0
H2032 H 0.6655 0.74586 0.8741 0.0
H2033 H 0.65962 0.77289 0.85331 0.0
C2034 C 0.97612 0.05478 0.42607 0.0
C2035 C 0.96302 0.04348 0.44835 0.0
C2036 C 0.99414 0.06684 0.47789 0.0
C2037 C 1.00781 0.07773 0.45576 0.0
N2038 N 0.01594 0.07628 0.40893 0.0
N2039 N 0.96566 0.03228 0.49475 0.0
C2040 C 1.00006 0.06981 0.42986 0.0
C2041 C 0.9742 0.0473 0.47392 0.0
N2042 N 0.96511 0.05246 0.40149 0.0
N2043 N 0.99843 0.07649 0.50275 0.0
H2044 H 0.95068 0.01821 0.49299 0.0
H2045 H 0.97526 0.03191 0.51304 0.0
H2046 H 0.01174 0.09155 0.50689 0.0
H2047 H 0.98665 0.07151 0.51898 0.0
H2048 H 0.97189 0.06297 0.38507 0.0
H2049 H 0.94818 0.04117 0.39783 0.0
H2050 H 0.01281 0.06921 0.38982 0.0
H2051 H 0.0338 0.08657 0.41132 0.0
C2052 C 0.30611 0.788 0.83076 0.0
C2053 C 0.30771 0.80906 0.81204 0.0
C2054 C 0.33646 0.78145 0.7841 0.0
C2055 C 0.33246 0.7596 0.80115 0.0
N2056 N 0.30863 0.74037 0.83767 0.0
N2057 N 0.31761 0.82151 0.76652 0.0
C2058 C 0.31566 0.76234 0.82353 0.0
C2059 C 0.32069 0.80444 0.78734 0.0
N2060 N 0.29715 0.79259 0.85586 0.0
N2061 N 0.3565 0.78113 0.76584 0.0
H2062 H 0.30543 0.83817 0.76707 0.0
H2063 H 0.32481 0.81731 0.74763 0.0
H2064 H 0.37007 0.76559 0.76421 0.0
H2065 H 0.36165 0.79775 0.75464 0.0
H2066 H 0.29814 0.77839 0.87083 0.0
H2067 H 0.29127 0.81121 0.86257 0.0
H2068 H 0.29457 0.74078 0.85282 0.0
H2069 H 0.31489 0.72134 0.83238 0.0
C2070 C 0.04088 0.4221 0.44986 0.0
C2071 C 0.01627 0.43454 0.45549 0.0
C2072 C 0.03693 0.47835 0.44839 0.0
C2073 C 0.06148 0.46579 0.44227 0.0
N2074 N 0.08487 0.42587 0.43041 0.0
N2075 N 0.98907 0.47364 0.45421 0.0
C2076 C 0.06275 0.43766 0.44083 0.0
C2077 C 0.01377 0.46247 0.45294 0.0
N2078 N 0.04364 0.3955 0.45429 0.0
N2079 N 0.03597 0.50531 0.45104 0.0
H2080 H 0.97195 0.46228 0.45703 0.0
H2081 H 0.98533 0.49358 0.45021 0.0
H2082 H 0.05222 0.5175 0.44693 0.0
H2083 H 0.01957 0.51542 0.45857 0.0
H2084 H 0.06178 0.38557 0.45322 0.0
H2085 H 0.02809 0.38371 0.46127 0.0
H2086 H 0.08627 0.40561 0.42658 0.0
H2087 H 0.10082 0.43685 0.42303 0.0
C2088 C 0.70318 0.29778 0.6665 0.0
C2089 C 0.70809 0.31588 0.68754 0.0
C2090 C 0.68205 0.28747 0.71755 0.0
C2091 C 0.67868 0.26847 0.69722 0.0
N2092 N 0.68991 0.25307 0.65369 0.0
N2093 N 0.70885 0.32319 0.73488 0.0
C2094 C 0.69052 0.27289 0.67208 0.0
C2095 C 0.69963 0.30916 0.71362 0.0
N2096 N 0.70931 0.30479 0.64112 0.0
N2097 N 0.66719 0.28579 0.74011 0.0
H2098 H 0.7229 0.33832 0.73318 0.0
H2099 H 0.70509 0.31767 0.7544 0.0
H2100 H 0.65283 0.27118 0.74302 0.0
H2101 H 0.6669 0.30059 0.75451 0.0
H2102 H 0.7036 0.29371 0.62468 0.0
H2103 H 0.71848 0.3227 0.63632 0.0
H2104 H 0.70021 0.2539 0.63583 0.0
H2105 H 0.6809 0.23479 0.65744 0.0
C2106 C 0.54148 0.06553 0.59442 0.0
C2107 C 0.55825 0.05797 0.573 0.0
C2108 C 0.52928 0.08292 0.54247 0.0
C2109 C 0.51155 0.08931 0.56339 0.0
N2110 N 0.49806 0.08194 0.60839 0.0
N2111 N 0.5633 0.05373 0.52556 0.0
C2112 C 0.51685 0.07909 0.58913 0.0
C2113 C 0.55046 0.06471 0.54675 0.0
N2114 N 0.54959 0.06106 0.61982 0.0
N2115 N 0.52738 0.09586 0.51887 0.0
H2116 H 0.57941 0.0409 0.52739 0.0
H2117 H 0.55632 0.05538 0.5062 0.0
H2118 H 0.51355 0.11069 0.51555 0.0
H2119 H 0.54148 0.09424 0.50384 0.0
H2120 H 0.53977 0.06872 0.63628 0.0
H2121 H 0.56725 0.05122 0.6244 0.0
H2122 H 0.49944 0.07296 0.62691 0.0
H2123 H 0.47988 0.0913 0.60487 0.0
C2124 C 0.3338 0.23448 0.73141 0.0
C2125 C 0.33492 0.25515 0.71261 0.0
C2126 C 0.31008 0.22745 0.68096 0.0
C2127 C 0.30706 0.20745 0.70071 0.0
N2128 N 0.31008 0.1965 0.74762 0.0
N2129 N 0.32044 0.27369 0.67137 0.0
C2130 C 0.31698 0.21241 0.7268 0.0
C2131 C 0.32172 0.25237 0.68799 0.0
N2132 N 0.35011 0.23498 0.75306 0.0
N2133 N 0.30364 0.22224 0.65521 0.0
H2134 H 0.32902 0.29193 0.67617 0.0
H2135 H 0.309 0.27395 0.65417 0.0
H2136 H 0.29599 0.20414 0.64885 0.0
H2137 H 0.30812 0.23507 0.63967 0.0
H2138 H 0.35234 0.21886 0.76581 0.0
H2139 H 0.36361 0.25023 0.75676 0.0
H2140 H 0.3143 0.20138 0.76722 0.0
H2141 H 0.29796 0.17993 0.746 0.0
C2142 C 0.49092 0.42442 0.54573 0.0
C2143 C 0.5107 0.42371 0.5656 0.0
C2144 C 0.48245 0.45243 0.59356 0.0
C2145 C 0.46377 0.45494 0.57243 0.0
N2146 N 0.45576 0.44969 0.52542 0.0
N2147 N 0.52732 0.43963 0.6071 0.0
C2148 C 0.46979 0.44294 0.54761 0.0
C2149 C 0.50713 0.4387 0.58909 0.0
N2150 N 0.49146 0.40643 0.52556 0.0
N2151 N 0.47617 0.46174 0.61814 0.0
H2152 H 0.54506 0.42919 0.60436 0.0
H2153 H 0.52723 0.45208 0.62355 0.0
H2154 H 0.45846 0.47165 0.62223 0.0
H2155 H 0.48765 0.45797 0.63488 0.0
H2156 H 0.47594 0.4043 0.51203 0.0
H2157 H 0.50615 0.39194 0.52386 0.0
H2158 H 0.46114 0.44334 0.50653 0.0
H2159 H 0.44076 0.46396 0.52537 0.0
C2160 C 0.81956 0.67771 0.73441 0.0
C2161 C 0.81573 0.69217 0.75808 0.0
C2162 C 0.82122 0.73418 0.73377 0.0
C2163 C 0.82565 0.71964 0.71003 0.0
N2164 N 0.83421 0.67769 0.68869 0.0
N2165 N 0.81681 0.73331 0.7818 0.0
C2166 C 0.82643 0.69141 0.71071 0.0
C2167 C 0.81785 0.7202 0.75818 0.0
N2168 N 0.81563 0.65087 0.73448 0.0
N2169 N 0.81876 0.76118 0.73278 0.0
H2170 H 0.81367 0.72345 0.7997 0.0
H2171 H 0.8208 0.75347 0.78393 0.0
H2172 H 0.8218 0.77212 0.71555 0.0
H2173 H 0.81236 0.77268 0.74865 0.0
H2174 H 0.81507 0.63931 0.71743 0.0
H2175 H 0.81095 0.64031 0.75162 0.0
H2176 H 0.83793 0.65737 0.68852 0.0
H2177 H 0.83929 0.68701 0.67099 0.0
C2178 C 0.96999 0.9221 0.54241 0.0
C2179 C 0.97213 0.94298 0.56134 0.0
C2180 C 0.94365 0.97111 0.53351 0.0
C2181 C 0.94272 0.95106 0.514 0.0
N2182 N 0.95826 0.90939 0.49733 0.0
N2183 N 0.96784 0.99029 0.56977 0.0
C2184 C 0.95716 0.9272 0.51762 0.0
C2185 C 0.96124 0.96841 0.55518 0.0
N2186 N 0.97855 0.89711 0.54856 0.0
N2187 N 0.92638 0.99204 0.53241 0.0
H2188 H 0.98071 0.98983 0.58587 0.0
H2189 H 0.96264 0.00951 0.5641 0.0
H2190 H 0.91254 0.9946 0.51727 0.0
H2191 H 0.92413 1.00557 0.54785 0.0
H2192 H 0.97475 0.8806 0.53677 0.0
H2193 H 0.98775 0.89232 0.56639 0.0
H2194 H 0.97036 0.89261 0.49751 0.0
H2195 H 0.94858 0.91275 0.47934 0.0
C2196 C 0.21326 0.79073 0.7155 0.0
C2197 C 0.20649 0.80524 0.69205 0.0
C2198 C 0.20915 0.84692 0.71741 0.0
C2199 C 0.21574 0.83256 0.74049 0.0
N2200 N 0.21923 0.79105 0.76334 0.0
N2201 N 0.18807 0.84598 0.67447 0.0
C2202 C 0.21655 0.80452 0.73999 0.0
C2203 C 0.20157 0.83304 0.69412 0.0
N2204 N 0.21676 0.76391 0.71469 0.0
N2205 N 0.2108 0.87397 0.71759 0.0
H2206 H 0.18004 0.8362 0.65814 0.0
H2207 H 0.18181 0.86563 0.67602 0.0
H2208 H 0.21652 0.88464 0.73435 0.0
H2209 H 0.20894 0.88553 0.70058 0.0
H2210 H 0.22681 0.75329 0.7293 0.0
H2211 H 0.20906 0.75198 0.69988 0.0
H2212 H 0.217 0.77059 0.76518 0.0
H2213 H 0.22172 0.80067 0.78145 0.0
C2214 C 0.04851 0.56973 0.51152 0.0
C2215 C 0.07663 0.56784 0.51122 0.0
C2216 C 0.07823 0.58336 0.55724 0.0
C2217 C 0.05001 0.58203 0.55868 0.0
N2218 N 1.00798 0.57284 0.53746 0.0
N2219 N 0.1186 0.57153 0.53349 0.0
C2220 C 0.03499 0.57526 0.53577 0.0
C2221 C 0.09158 0.57439 0.53403 0.0
N2222 N 0.03484 0.56651 0.48838 0.0
N2223 N 0.09215 0.59391 0.57798 0.0
H2224 H 0.12885 0.56568 0.51651 0.0
H2225 H 0.1307 0.57319 0.55013 0.0
H2226 H 0.08284 0.60125 0.59492 0.0
H2227 H 0.1125 0.59769 0.57753 0.0
H2228 H 0.01458 0.57026 0.4863 0.0
H2229 H 0.04428 0.56171 0.47063 0.0
H2230 H 0.99624 0.5647 0.52257 0.0
H2231 H 0.99724 0.57794 0.55432 0.0
C2232 C 0.83297 0.33037 0.77346 0.0
C2233 C 0.80689 0.32845 0.76294 0.0
C2234 C 0.79183 0.30668 0.80346 0.0
C2235 C 0.81847 0.30634 0.81321 0.0
N2236 N 0.86521 0.31384 0.80523 0.0
N2237 N 0.7642 0.30716 0.7643 0.0
C2238 C 0.83937 0.31678 0.7974 0.0
C2239 C 0.78706 0.31443 0.77692 0.0
N2240 N 0.85125 0.34609 0.76107 0.0
N2241 N 0.77088 0.30002 0.8194 0.0
H2242 H 0.76112 0.31091 0.74424 0.0
H2243 H 0.75003 0.29466 0.77277 0.0
H2244 H 0.77293 0.29364 0.83889 0.0
H2245 H 0.75112 0.30278 0.81376 0.0
H2246 H 0.86985 0.35048 0.76905 0.0
H2247 H 0.84683 0.3567 0.74389 0.0
H2248 H 0.88137 0.31892 0.79337 0.0
H2249 H 0.87055 0.30435 0.82278 0.0
C2250 C 0.55839 0.93808 0.50021 0.0
C2251 C 0.57275 0.96178 0.50513 0.0
C2252 C 0.56006 0.97818 0.46145 0.0
C2253 C 0.55032 0.9526 0.45454 0.0
N2254 N 0.54252 0.90695 0.46723 0.0
N2255 N 0.59243 1.00181 0.48739 0.0
C2256 C 0.54968 0.93221 0.47399 0.0
C2257 C 0.57476 0.98134 0.48509 0.0
N2258 N 0.55337 0.92115 0.5207 0.0
N2259 N 0.55529 0.99963 0.44555 0.0
H2260 H 0.60547 1.00385 0.50324 0.0
H2261 H 0.59634 0.01504 0.472 0.0
H2262 H 0.54421 0.99857 0.42816 0.0
H2263 H 0.55987 0.019 0.45124 0.0
H2264 H 0.54107 0.9046 0.51902 0.0
H2265 H 0.55958 0.92525 0.54 0.0
H2266 H 0.54449 0.89083 0.48 0.0
H2267 H 0.53666 0.90159 0.4482 0.0
C2268 C 0.19721 0.18588 0.81303 0.0
C2269 C 0.20102 0.21386 0.81616 0.0
C2270 C 0.21097 0.2166 0.76817 0.0
C2271 C 0.21044 0.18866 0.76638 0.0
N2272 N 0.20724 0.14624 0.78758 0.0
N2273 N 0.21433 0.25553 0.79563 0.0
C2274 C 0.20484 0.17321 0.789 0.0
C2275 C 0.20847 0.22919 0.79339 0.0
N2276 N 0.18476 0.17144 0.83233 0.0
N2277 N 0.2132 0.23117 0.74547 0.0
H2278 H 0.21133 0.26643 0.81265 0.0
H2279 H 0.22368 0.26644 0.78079 0.0
H2280 H 0.21569 0.22239 0.72693 0.0
H2281 H 0.21046 0.25165 0.74469 0.0
H2282 H 0.17917 0.15169 0.8299 0.0
H2283 H 0.17693 0.17979 0.84948 0.0
H2284 H 0.20637 0.13389 0.8041 0.0
H2285 H 0.21254 0.13647 0.77016 0.0
C2286 C 0.44387 0.53378 0.47778 0.0
C2287 C 0.44408 0.55188 0.4992 0.0
C2288 C 0.46809 0.58422 0.4715 0.0
C2289 C 0.46925 0.56533 0.45067 0.0
N2290 N 0.46631 0.51891 0.43835 0.0
N2291 N 0.46223 0.59146 0.51867 0.0
C2292 C 0.45981 0.53906 0.45526 0.0
C2293 C 0.45814 0.57621 0.49674 0.0
N2294 N 0.427 0.51253 0.47786 0.0
N2295 N 0.47499 0.61005 0.46698 0.0
H2296 H 0.45577 0.58561 0.53742 0.0
H2297 H 0.47426 0.6083 0.51869 0.0
H2298 H 0.48197 0.61687 0.4488 0.0
H2299 H 0.47171 0.62515 0.48068 0.0
H2300 H 0.4244 0.50025 0.46146 0.0
H2301 H 0.41331 0.50895 0.49289 0.0
H2302 H 0.46193 0.49908 0.44237 0.0
H2303 H 0.47864 0.52147 0.42197 0.0
C2304 C 0.73275 0.82738 0.73301 0.0
C2305 C 0.7086 0.83 0.71862 0.0
C2306 C 0.73225 0.82145 0.67698 0.0
C2307 C 0.75623 0.81863 0.69133 0.0
N2308 N 0.78098 0.82297 0.73166 0.0
N2309 N 0.68601 0.83537 0.67691 0.0
C2310 C 0.75696 0.82296 0.71899 0.0
C2311 C 0.70861 0.82884 0.69054 0.0
N2312 N 0.73233 0.82786 0.76004 0.0
N2313 N 0.73212 0.81641 0.6504 0.0
H2314 H 0.66848 0.84113 0.68634 0.0
H2315 H 0.68514 0.83737 0.65643 0.0
H2316 H 0.74937 0.81178 0.63989 0.0
H2317 H 0.71491 0.81521 0.63902 0.0
H2318 H 0.7485 0.82281 0.77189 0.0
H2319 H 0.71524 0.83223 0.77081 0.0
H2320 H 0.78356 0.82845 0.75134 0.0
H2321 H 0.79878 0.81893 0.72184 0.0
C2322 C 0.72507 0.23316 0.83656 0.0
C2323 C 0.74765 0.21797 0.8294 0.0
C2324 C 0.72043 0.19235 0.79804 0.0
C2325 C 0.69768 0.20788 0.80487 0.0
N2326 N 0.68031 0.2473 0.82598 0.0
N2327 N 0.76862 0.18712 0.80019 0.0
C2328 C 0.70063 0.22958 0.82272 0.0
C2329 C 0.74583 0.19896 0.80895 0.0
N2330 N 0.7267 0.25019 0.85753 0.0
N2331 N 0.71763 0.17025 0.78261 0.0
H2332 H 0.7872 0.19151 0.80834 0.0
H2333 H 0.76947 0.17492 0.78358 0.0
H2334 H 0.69961 0.16432 0.7744 0.0
H2335 H 0.73278 0.15652 0.77949 0.0
H2336 H 0.71023 0.25932 0.86608 0.0
H2337 H 0.74441 0.25385 0.86762 0.0
H2338 H 0.68229 0.26508 0.83628 0.0
H2339 H 0.6621 0.24555 0.81637 0.0
C2340 C 0.47796 0.0507 0.41935 0.0
C2341 C 0.46767 0.0264 0.42883 0.0
C2342 C 0.45126 0.04891 0.46877 0.0
C2343 C 0.46029 0.07371 0.45837 0.0
N2344 N 0.47411 0.09845 0.41976 0.0
N2345 N 0.44106 1.00245 0.46004 0.0
C2346 C 0.47131 0.07465 0.43248 0.0
C2347 C 0.45332 0.02554 0.45287 0.0
N2348 N 0.49463 0.05079 0.39802 0.0
N2349 N 0.44153 0.04729 0.49395 0.0
H2350 H 0.44285 0.98506 0.44896 0.0
H2351 H 0.42772 1.00097 0.47574 0.0
H2352 H 0.43773 0.0637 0.50575 0.0
H2353 H 0.43821 0.02937 0.50369 0.0
H2354 H 0.50488 0.06765 0.39176 0.0
H2355 H 0.50031 0.03345 0.38826 0.0
H2356 H 0.47982 0.10005 0.4 0.0
H2357 H 0.46759 0.11634 0.42785 0.0
C2358 C 0.28399 0.32856 0.79147 0.0
C2359 C 0.30786 0.33099 0.80651 0.0
C2360 C 0.28171 0.32819 0.8478 0.0
C2361 C 0.25809 0.32546 0.83288 0.0
N2362 N 0.23543 0.32687 0.7912 0.0
N2363 N 0.32837 0.3403 0.84868 0.0
C2364 C 0.25888 0.32695 0.80486 0.0
C2365 C 0.30632 0.33298 0.83462 0.0
N2366 N 0.28534 0.32665 0.76454 0.0
N2367 N 0.28062 0.32534 0.87467 0.0
H2368 H 0.34649 0.34469 0.83967 0.0
H2369 H 0.32813 0.34468 0.8688 0.0
H2370 H 0.26277 0.32262 0.88484 0.0
H2371 H 0.29739 0.32388 0.88668 0.0
H2372 H 0.26934 0.32137 0.75258 0.0
H2373 H 0.30283 0.32968 0.75397 0.0
H2374 H 0.23389 0.33035 0.77096 0.0
H2375 H 0.21705 0.32484 0.80059 0.0
C2376 C 0.0678 0.98055 0.91694 0.0
C2377 C 0.05522 1.00026 0.93241 0.0
C2378 C 0.05697 0.97087 0.97114 0.0
C2379 C 0.0665 0.94961 0.95504 0.0
N2380 N 0.08119 0.93458 0.91192 0.0
N2381 N 0.03285 0.0126 0.97246 0.0
C2382 C 0.07182 0.95456 0.92766 0.0
C2383 C 0.04831 0.99488 0.95898 0.0
N2384 N 0.07683 0.98712 0.89229 0.0
N2385 N 0.05716 0.96892 0.99807 0.0
H2386 H 0.02602 0.0302 0.96392 0.0
H2387 H 0.02458 1.00859 0.99094 0.0
H2388 H 0.06578 0.9532 0.00812 0.0
H2389 H 0.05228 0.98461 0.01057 0.0
H2390 H 0.08882 0.97484 0.8808 0.0
H2391 H 0.0738 1.00586 0.88401 0.0
H2392 H 0.08202 0.93576 0.89137 0.0
H2393 H 0.08762 0.91636 0.91928 0.0
C2394 C 0.77802 0.21618 0.21543 0.0
C2395 C 0.7725 0.20882 0.18903 0.0
C2396 C 0.81831 0.19235 0.18421 0.0
C2397 C 0.82344 0.19841 0.21137 0.0
N2398 N 0.80438 0.20808 0.25443 0.0
N2399 N 0.78546 0.18667 0.14915 0.0
C2400 C 0.80221 0.20793 0.22751 0.0
C2401 C 0.79219 0.19608 0.1736 0.0
N2402 N 0.76025 0.2317 0.22878 0.0
N2403 N 0.83824 0.1825 0.16865 0.0
H2404 H 0.76659 0.18949 0.14098 0.0
H2405 H 0.79774 0.17467 0.13769 0.0
H2406 H 0.8565 0.17622 0.17617 0.0
H2407 H 0.83697 0.18099 0.14815 0.0
H2408 H 0.76425 0.24015 0.24718 0.0
H2409 H 0.74265 0.23842 0.22014 0.0
H2410 H 0.78872 0.21305 0.267 0.0
H2411 H 0.82022 0.19958 0.26444 0.0
C2412 C 0.447 0.98417 0.02847 0.0
C2413 C 0.44177 0.96075 0.04328 0.0
C2414 C 0.44655 0.98571 0.08472 0.0
C2415 C 0.45131 1.00914 0.07001 0.0
N2416 N 0.45175 0.0323 0.02857 0.0
N2417 N 0.43045 0.94032 0.08487 0.0
C2418 C 0.45012 1.00884 0.04202 0.0
C2419 C 0.43957 0.96195 0.07125 0.0
N2420 N 0.45034 0.98263 1.00168 0.0
N2421 N 0.44993 0.98598 0.11155 0.0
H2422 H 0.42499 0.92271 0.07547 0.0
H2423 H 0.42592 0.94059 0.10497 0.0
H2424 H 0.45529 1.00305 0.12194 0.0
H2425 H 0.44959 0.96898 0.12327 0.0
H2426 H 0.45727 0.99828 0.99014 0.0
H2427 H 0.44733 0.96518 0.99103 0.0
H2428 H 0.4485 0.0341 0.0083 0.0
H2429 H 0.45457 0.05042 0.03819 0.0
C2430 C 0.54803 0.54785 0.0501 0.0
C2431 C 0.57493 0.55679 0.04863 0.0
C2432 C 0.58924 0.51564 0.07067 0.0
C2433 C 0.56264 0.50627 0.07033 0.0
N2434 N 0.51922 0.50946 0.05092 0.0
N2435 N 0.62165 0.54656 0.05269 0.0
C2436 C 0.54275 0.52122 0.05746 0.0
C2437 C 0.59576 0.53975 0.05723 0.0
N2438 N 0.5273 0.56468 0.04504 0.0
N2439 N 0.608 0.502 0.0847 0.0
H2440 H 0.62706 0.56408 0.04312 0.0
H2441 H 0.63759 0.5339 0.05646 0.0
H2442 H 0.60358 0.48456 0.09494 0.0
H2443 H 0.62719 0.50907 0.08799 0.0
H2444 H 0.50753 0.55953 0.04864 0.0
H2445 H 0.52964 0.58436 0.03923 0.0
H2446 H 0.50484 0.51868 0.0392 0.0
H2447 H 0.51569 0.48935 0.05435 0.0
C2448 C 0.02408 0.26182 0.22213 0.0
C2449 C 0.03672 0.26792 0.24657 0.0
C2450 C 0.99858 0.24891 0.27087 0.0
C2451 C 0.98551 0.2436 0.24644 0.0
N2452 N 0.9844 0.2464 0.19893 0.0
N2453 N 0.03602 0.26866 0.29423 0.0
C2454 C 0.99791 0.25048 0.22208 0.0
C2455 C 0.02395 0.26174 0.27094 0.0
N2456 N 0.03735 0.26663 0.19899 0.0
N2457 N 0.98678 0.24121 0.29405 0.0
H2458 H 0.05533 0.27618 0.2952 0.0
H2459 H 0.02681 0.26797 0.31265 0.0
H2460 H 0.96746 0.23372 0.29499 0.0
H2461 H 0.99622 0.24125 0.31237 0.0
H2462 H 0.03072 0.26074 0.18042 0.0
H2463 H 0.05613 0.27542 0.19838 0.0
H2464 H 0.99084 0.25291 0.18049 0.0
H2465 H 0.96565 0.23756 0.19821 0.0
C2466 C 0.52831 0.75279 0.0189 0.0
C2467 C 0.53208 0.7371 0.99586 0.0
C2468 C 0.50441 0.76845 0.97035 0.0
C2469 C 0.49891 0.78287 0.99389 0.0
N2470 N 0.50224 0.78655 0.04133 0.0
N2471 N 0.52107 0.7278 0.95039 0.0
C2472 C 0.50995 0.77439 0.01838 0.0
C2473 C 0.51943 0.74437 0.97174 0.0
N2474 N 0.54287 0.74742 0.04114 0.0
N2475 N 0.49588 0.77818 0.94656 0.0
H2476 H 0.53233 0.7104 0.95048 0.0
H2477 H 0.50988 0.73028 0.93321 0.0
H2478 H 0.48433 0.79531 0.94488 0.0
H2479 H 0.50172 0.77039 0.92838 0.0
H2480 H 0.54327 0.75971 0.05769 0.0
H2481 H 0.55646 0.73179 0.04224 0.0
H2482 H 0.50721 0.77958 0.06009 0.0
H2483 H 0.48887 0.80239 0.04176 0.0
C2484 C 1.00777 0.78649 0.28627 0.0
C2485 C 0.9996 0.79489 0.26061 0.0
C2486 C 0.04277 0.7809 0.2423 0.0
C2487 C 0.05029 0.7711 0.26764 0.0
N2488 N 0.04279 0.76863 0.31454 0.0
N2489 N 1.01047 0.80469 0.21525 0.0
C2490 C 0.03367 0.77535 0.28992 0.0
C2491 C 0.01759 0.79368 0.23897 0.0
N2492 N 0.99034 0.78859 0.30697 0.0
N2493 N 0.05947 0.77703 0.22127 0.0
H2494 H 0.9919 0.8133 0.21193 0.0
H2495 H 0.02326 0.8068 0.19922 0.0
H2496 H 0.07861 0.76928 0.22338 0.0
H2497 H 0.05438 0.78068 0.20166 0.0
H2498 H 0.99345 0.78035 0.32558 0.0
H2499 H 0.97197 0.79811 0.30537 0.0
H2500 H 0.03291 0.77292 0.33209 0.0
H2501 H 0.06144 0.76012 0.31766 0.0
C2502 C 0.99982 0.75122 0.9698 0.0
C2503 C 0.99258 0.73962 0.99444 0.0
C2504 C 0.01087 0.77854 0.01797 0.0
C2505 C 0.01769 0.79036 0.99331 0.0
N2506 N 0.01661 0.78973 0.94573 0.0
N2507 N 0.98938 0.74255 0.04196 0.0
C2508 C 0.01151 0.77718 0.9692 0.0
C2509 C 0.9976 0.75343 0.01851 0.0
N2510 N 0.99583 0.73714 0.947 0.0
N2511 N 0.01774 0.79118 0.04096 0.0
H2512 H 0.98154 0.72344 0.04347 0.0
H2513 H 0.98924 0.75259 0.05992 0.0
H2514 H 0.02567 0.81031 0.04139 0.0
H2515 H 0.01659 0.78261 0.05965 0.0
H2516 H 1.00279 0.7429 0.9285 0.0
H2517 H 0.98655 0.71863 0.94669 0.0
H2518 H 0.01063 0.78271 0.92733 0.0
H2519 H 0.02565 0.80834 0.94466 0.0
C2520 C 0.28114 0.98218 0.26817 0.0
C2521 C 0.25583 0.97214 0.2604 0.0
C2522 C 0.23413 0.01118 0.28056 0.0
C2523 C 0.25949 0.02149 0.28785 0.0
N2524 N 0.30669 0.01511 0.29269 0.0
N2525 N 0.20812 0.97438 0.26288 0.0
C2526 C 0.28285 1.00635 0.28299 0.0
C2527 C 0.23228 0.98582 0.26787 0.0
N2528 N 0.30362 0.96892 0.26057 0.0
N2529 N 0.21185 0.02606 0.28521 0.0
H2530 H 0.20615 0.95621 0.25319 0.0
H2531 H 0.19009 0.98174 0.26983 0.0
H2532 H 0.21226 0.04387 0.29573 0.0
H2533 H 0.19308 0.02156 0.2778 0.0
H2534 H 0.32279 0.97646 0.26248 0.0
H2535 H 0.3031 0.95047 0.2512 0.0
H2536 H 0.32414 1.00401 0.29239 0.0
H2537 H 0.30878 0.03305 0.30276 0.0
C2538 C 0.26284 0.53226 1.00022 0.0
C2539 C 0.2771 0.50835 0.99564 0.0
C2540 C 0.2455 0.4843 0.02426 0.0
C2541 C 0.23252 0.5086 0.03036 0.0
N2542 N 0.2317 0.55635 0.02798 0.0
N2543 N 0.28472 0.46238 1.00657 0.0
C2544 C 0.24208 0.53278 0.01944 0.0
C2545 C 0.26916 0.48455 0.00857 0.0
N2546 N 0.26857 0.55432 0.98551 0.0
N2547 N 0.23473 0.46089 0.03275 0.0
H2548 H 0.30195 0.4617 0.99509 0.0
H2549 H 0.28173 0.44532 0.01783 0.0
H2550 H 0.21787 0.45998 0.04475 0.0
H2551 H 0.24136 0.44236 0.02646 0.0
H2552 H 0.25711 0.57153 0.98583 0.0
H2553 H 0.28345 0.55465 0.97112 0.0
H2554 H 0.23962 0.57478 0.02295 0.0
H2555 H 0.21661 0.5575 0.04212 0.0
C2556 C 0.77472 0.50844 0.2532 0.0
C2557 C 0.75021 0.51663 0.24178 0.0
C2558 C 0.72851 0.47716 0.26105 0.0
C2559 C 0.75234 0.47079 0.27489 0.0
N2560 N 0.79683 0.48331 0.28772 0.0
N2561 N 0.70283 0.51066 0.23762 0.0
C2562 C 0.7751 0.48727 0.27191 0.0
C2563 C 0.72682 0.50144 0.24641 0.0
N2564 N 0.79785 0.52052 0.2456 0.0
N2565 N 0.70779 0.45961 0.26113 0.0
H2566 H 0.70088 0.52803 0.22655 0.0
H2567 H 0.6847 0.50216 0.24291 0.0
H2568 H 0.70827 0.44174 0.27156 0.0
H2569 H 0.69104 0.4617 0.24917 0.0
H2570 H 0.81662 0.51371 0.25111 0.0
H2571 H 0.79844 0.53576 0.23162 0.0
H2572 H 0.81289 0.49635 0.28846 0.0
H2573 H 0.79773 0.4684 0.30203 0.0
C2574 C 0.77776 0.04175 0.01787 0.0
C2575 C 0.78892 0.01625 0.02283 0.0
C2576 C 0.7563 0.99663 0.99205 0.0
C2577 C 0.74336 0.02158 0.98928 0.0
N2578 N 0.73954 0.06727 1.00288 0.0
N2579 N 0.78538 0.96873 0.01843 0.0
C2580 C 0.75352 0.04401 1.00308 0.0
C2581 C 0.7772 0.99351 0.01094 0.0
N2582 N 0.79077 0.06394 0.02648 0.0
N2583 N 0.74913 0.97599 0.97601 0.0
H2584 H 0.80016 0.96556 0.03258 0.0
H2585 H 0.77575 0.95138 0.01261 0.0
H2586 H 0.73432 0.97761 0.96162 0.0
H2587 H 0.7596 0.95817 0.97512 0.0
H2588 H 0.7853 0.08312 0.02104 0.0
H2589 H 0.80842 0.06313 0.03732 0.0
H2590 H 0.74423 0.0834 0.0149 0.0
H2591 H 0.72194 0.06975 0.99223 0.0
C2592 C 0.27117 0.28402 0.97738 0.0
C2593 C 0.26177 0.25923 0.96774 0.0
C2594 C 0.28234 0.23706 1.00613 0.0
C2595 C 0.28799 0.26217 0.01772 0.0
N2596 N 0.28559 0.30991 0.01528 0.0
N2597 N 0.25658 0.21209 0.97397 0.0
C2598 C 0.28208 0.28577 1.00345 0.0
C2599 C 0.26711 0.23567 0.98227 0.0
N2600 N 0.26989 0.30588 0.9614 0.0
N2601 N 0.29203 0.2145 0.0177 0.0
H2602 H 0.24578 0.21016 0.95645 0.0
H2603 H 0.25696 0.19483 0.98531 0.0
H2604 H 0.30346 0.21481 0.03494 0.0
H2605 H 0.29093 0.19583 0.00894 0.0
H2606 H 0.27868 0.32399 0.96611 0.0
H2607 H 0.26221 0.30517 0.94221 0.0
H2608 H 0.27881 0.32768 1.00716 0.0
H2609 H 0.29346 0.31208 0.03425 0.0
C2610 C 0.30043 0.73662 0.5116 0.0
C2611 C 0.30421 0.75989 0.49617 0.0
C2612 C 0.28257 0.78663 0.53103 0.0
C2613 C 0.27576 0.76297 0.54472 0.0
N2614 N 0.27888 0.71552 0.54933 0.0
N2615 N 0.30029 0.80726 0.49114 0.0
C2616 C 0.28526 0.738 0.53552 0.0
C2617 C 0.29598 0.78502 0.5061 0.0
N2618 N 0.31134 0.71321 0.50324 0.0
N2619 N 0.27609 0.81061 0.54194 0.0
H2620 H 0.31143 0.80701 0.47372 0.0
H2621 H 0.29228 0.82582 0.49529 0.0
H2622 H 0.26582 0.81234 0.55978 0.0
H2623 H 0.28226 0.82883 0.53447 0.0
H2624 H 0.31155 0.69585 0.51437 0.0
H2625 H 0.32191 0.71148 0.48557 0.0
H2626 H 0.28224 0.69633 0.54254 0.0
H2627 H 0.26928 0.71602 0.56764 0.0
C2628 C 0.01772 0.50075 0.7641 0.0
C2629 C 0.99391 0.49205 0.77644 0.0
C2630 C 0.968 0.5138 0.74115 0.0
C2631 C 0.99173 0.52519 0.73088 0.0
N2632 N 0.03865 0.5339 0.73642 0.0
N2633 N 0.94599 0.49375 0.77896 0.0
C2634 C 0.01646 0.51988 0.74346 0.0
C2635 C 0.96888 0.49945 0.76555 0.0
N2636 N 0.04161 0.49026 0.77172 0.0
N2637 N 0.94479 0.5159 0.72723 0.0
H2638 H 0.94577 0.48332 0.79679 0.0
H2639 H 0.92744 0.5012 0.77351 0.0
H2640 H 0.94339 0.52608 0.70931 0.0
H2641 H 0.92752 0.50565 0.73229 0.0
H2642 H 0.05935 0.49393 0.7617 0.0
H2643 H 0.04326 0.47569 0.78633 0.0
H2644 H 0.05658 0.53271 0.74672 0.0
H2645 H 0.03842 0.54881 0.72209 0.0
C2646 C 0.75555 0.79434 0.49308 0.0
C2647 C 0.74238 0.7705 0.48564 0.0
C2648 C 0.76471 0.74695 0.52224 0.0
C2649 C 0.77633 0.77117 0.53087 0.0
N2650 N 0.7804 0.8186 0.52659 0.0
N2651 N 0.73131 0.72499 0.49519 0.0
C2652 C 0.77108 0.79507 0.51682 0.0
C2653 C 0.74613 0.74704 0.50083 0.0
N2654 N 0.7538 0.81611 0.477 0.0
N2655 N 0.77196 0.72368 0.53421 0.0
H2656 H 0.71765 0.72429 0.47966 0.0
H2657 H 0.73084 0.70814 0.50711 0.0
H2658 H 0.78528 0.72286 0.55003 0.0
H2659 H 0.76658 0.70502 0.52719 0.0
H2660 H 0.76526 0.83314 0.4795 0.0
H2661 H 0.74206 0.81653 0.45997 0.0
H2662 H 0.77482 0.83707 0.51921 0.0
H2663 H 0.79252 0.81975 0.54332 0.0
C2664 C 0.4951 0.49964 0.23858 0.0
C2665 C 0.51979 0.4916 0.22747 0.0
C2666 C 0.54336 0.51729 0.26176 0.0
C2667 C 0.51863 0.52719 0.27124 0.0
N2668 N 0.47131 0.53188 0.26519 0.0
N2669 N 0.56751 0.49603 0.22589 0.0
C2670 C 0.49461 0.51956 0.25855 0.0
C2671 C 0.54398 0.50133 0.23836 0.0
N2672 N 0.47209 0.48753 0.23066 0.0
N2673 N 0.56615 0.52227 0.27565 0.0
H2674 H 0.56878 0.48418 0.20902 0.0
H2675 H 0.58546 0.50495 0.23108 0.0
H2676 H 0.56656 0.53409 0.29258 0.0
H2677 H 0.58427 0.51314 0.27153 0.0
H2678 H 0.45382 0.49055 0.23991 0.0
H2679 H 0.47167 0.47242 0.21654 0.0
H2680 H 0.45359 0.52916 0.25484 0.0
H2681 H 0.47027 0.54685 0.27942 0.0
C2682 C 0.99706 0.01835 0.76778 0.0
C2683 C 0.02051 0.02415 0.78237 0.0
C2684 C 0.04617 0.99505 0.75261 0.0
C2685 C 0.02229 0.98764 0.73948 0.0
N2686 N 0.97438 0.98825 0.73789 0.0
N2687 N 0.06668 0.01484 0.79143 0.0
C2688 C 0.99754 0.99812 0.74812 0.0
C2689 C 0.04491 0.01162 0.77553 0.0
N2690 N 0.97447 0.03284 0.77215 0.0
N2691 N 0.07012 0.98697 0.74266 0.0
H2692 H 0.06664 0.02706 0.80809 0.0
H2693 H 0.08415 1.00395 0.78925 0.0
H2694 H 0.07176 0.97436 0.72637 0.0
H2695 H 0.08833 0.99416 0.7494 0.0
H2696 H 0.95755 0.03149 0.76033 0.0
H2697 H 0.97348 0.04811 0.78605 0.0
H2698 H 0.95564 0.99307 0.74524 0.0
H2699 H 0.97397 0.97321 0.7237 0.0
C2700 C 0.50074 0.74855 0.74266 0.0
C2701 C 0.48842 0.73958 0.76634 0.0
C2702 C 0.52153 0.7647 0.7923 0.0
C2703 C 0.53218 0.77555 0.76856 0.0
N2704 N 0.52818 0.78193 0.72145 0.0
N2705 N 0.48443 0.7425 0.81379 0.0
C2706 C 0.52064 0.76866 0.74383 0.0
C2707 C 0.49811 0.74858 0.79122 0.0
N2708 N 0.49403 0.7372 0.71901 0.0
N2709 N 0.5343 0.76901 0.81578 0.0
H2710 H 0.46741 0.73065 0.81383 0.0
H2711 H 0.48871 0.75085 0.83215 0.0
H2712 H 0.55121 0.78091 0.8174 0.0
H2713 H 0.52935 0.75925 0.83327 0.0
H2714 H 0.50422 0.74091 0.70145 0.0
H2715 H 0.47999 0.72203 0.71738 0.0
H2716 H 0.5186 0.77975 0.7033 0.0
H2717 H 0.54229 0.79713 0.72158 0.0
C2718 C 0.98373 0.25709 0.49157 0.0
C2719 C 0.97755 0.27186 0.51467 0.0
C2720 C 0.99468 0.23548 0.54248 0.0
C2721 C 1.00376 0.22226 0.51942 0.0
N2722 N 1.00794 0.22027 0.47194 0.0
N2723 N 0.97723 0.27593 0.56218 0.0
C2724 C 0.99827 0.23287 0.4939 0.0
C2725 C 0.98284 0.26114 0.54018 0.0
N2726 N 0.97553 0.26621 0.4674 0.0
N2727 N 0.99723 0.22329 0.56653 0.0
H2728 H 0.96745 0.29418 0.56132 0.0
H2729 H 0.98332 0.27089 0.58121 0.0
H2730 H 1.00607 0.20468 0.56877 0.0
H2731 H 0.98891 0.23047 0.58396 0.0
H2732 H 0.97683 0.25525 0.45001 0.0
H2733 H 0.96553 0.28419 0.46494 0.0
H2734 H 1.00766 0.22843 0.45302 0.0
H2735 H 0.0176 0.20195 0.47275 0.0
C2736 C 0.51507 0.29533 0.74595 0.0
C2737 C 0.49993 0.29886 0.76945 0.0
C2738 C 0.5341 0.27462 0.79483 0.0
C2739 C 0.54915 0.27104 0.77132 0.0
N2740 N 0.55756 0.28357 0.72615 0.0
N2741 N 0.49803 0.2978 0.81705 0.0
C2742 C 0.54078 0.28335 0.74743 0.0
C2743 C 0.5105 0.29041 0.79417 0.0
N2744 N 0.50429 0.30204 0.72202 0.0
N2745 N 0.54168 0.26187 0.81749 0.0
H2746 H 0.48087 0.30946 0.81718 0.0
H2747 H 0.50593 0.2945 0.83581 0.0
H2748 H 0.5592 0.25086 0.81888 0.0
H2749 H 0.52993 0.26092 0.83443 0.0
H2750 H 0.5129 0.29708 0.70395 0.0
H2751 H 0.48568 0.31099 0.72008 0.0
H2752 H 0.55386 0.2943 0.70892 0.0
H2753 H 0.57646 0.27499 0.72672 0.0
C2754 C 0.52207 0.27101 0.46323 0.0
C2755 C 0.52558 0.28576 0.48693 0.0
C2756 C 0.5012 0.25151 0.51191 0.0
C2757 C 0.49903 0.236 0.4885 0.0
N2758 N 0.50923 0.22932 0.44245 0.0
N2759 N 0.52074 0.28951 0.53425 0.0
C2760 C 0.50998 0.24532 0.46429 0.0
C2761 C 0.51568 0.27586 0.51138 0.0
N2762 N 0.52994 0.28184 0.43968 0.0
N2763 N 0.48893 0.24313 0.5346 0.0
H2764 H 0.52993 0.30807 0.53459 0.0
H2765 H 0.51723 0.28197 0.5531 0.0
H2766 H 0.47948 0.22478 0.53629 0.0
H2767 H 0.48672 0.25483 0.55142 0.0
H2768 H 0.52572 0.27359 0.42129 0.0
H2769 H 0.53933 0.30026 0.43836 0.0
H2770 H 0.51911 0.23346 0.42484 0.0
H2771 H 0.49994 0.2108 0.44241 0.0
C2772 C 0.7965 0.51091 0.78393 0.0
C2773 C 0.77427 0.52836 0.78327 0.0
C2774 C 0.75415 0.50122 0.74807 0.0
C2775 C 0.77517 0.48248 0.75028 0.0
N2776 N 0.81433 0.46732 0.77332 0.0
N2777 N 0.72941 0.53695 0.7687 0.0
C2778 C 0.79584 0.48674 0.76905 0.0
C2779 C 0.75235 0.52252 0.7665 0.0
N2780 N 0.81859 0.51782 0.79812 0.0
N2781 N 0.73633 0.49921 0.7277 0.0
H2782 H 0.72714 0.5524 0.78226 0.0
H2783 H 0.71181 0.53193 0.75903 0.0
H2784 H 0.73726 0.48426 0.71346 0.0
H2785 H 0.72228 0.51378 0.72339 0.0
H2786 H 0.83653 0.50755 0.79706 0.0
H2787 H 0.81955 0.53502 0.80957 0.0
H2788 H 0.82815 0.46791 0.78867 0.0
H2789 H 0.81457 0.44954 0.76275 0.0
C2790 C 0.74774 0.9748 0.51884 0.0
C2791 C 0.73566 0.99923 0.52616 0.0
C2792 C 0.76684 0.02319 0.49711 0.0
C2793 C 0.78035 0.99907 0.49154 0.0
N2794 N 0.78612 0.95233 0.50001 0.0
N2795 N 0.7364 0.04705 0.52583 0.0
C2796 C 0.77144 0.97495 0.50318 0.0
C2797 C 0.74602 0.02353 0.51628 0.0
N2798 N 0.7361 0.95141 0.5262 0.0
N2799 N 0.77349 0.04569 0.4835 0.0
H2800 H 0.72133 0.04808 0.53999 0.0
H2801 H 0.74491 0.06541 0.5216 0.0
H2802 H 0.78848 0.04612 0.46922 0.0
H2803 H 0.76265 0.06328 0.48454 0.0
H2804 H 0.74206 0.93298 0.51902 0.0
H2805 H 0.71919 0.95054 0.53814 0.0
H2806 H 0.78249 0.93485 0.51039 0.0
H2807 H 0.8032 0.95153 0.48831 0.0
C2808 C 0.22679 0.99099 0.75409 0.0
C2809 C 0.25075 0.9845 0.76757 0.0
C2810 C 0.27368 0.02109 0.74495 0.0
C2811 C 0.2492 0.02913 0.73344 0.0
N2812 N 0.20181 0.02377 0.72898 0.0
N2813 N 0.296 0.99541 0.779 0.0
C2814 C 0.22555 0.01458 0.73848 0.0
C2815 C 0.27394 1.00013 0.76384 0.0
N2816 N 0.20548 0.97419 0.75561 0.0
N2817 N 0.2968 0.03328 0.73744 0.0
H2818 H 0.29688 0.9803 0.79311 0.0
H2819 H 0.31257 1.0078 0.77932 0.0
H2820 H 0.29735 0.04873 0.72369 0.0
H2821 H 0.31561 0.02661 0.74293 0.0
H2822 H 0.1885 0.97615 0.74397 0.0
H2823 H 0.20548 0.9571 0.76728 0.0
H2824 H 0.18344 0.01596 0.73446 0.0
H2825 H 0.20036 0.04038 0.71671 0.0
C2826 C 0.2797 0.53973 0.5096 0.0
C2827 C 0.28579 0.51546 0.52269 0.0
C2828 C 0.24703 0.49447 0.5013 0.0
C2829 C 0.2397 0.51925 0.48995 0.0
N2830 N 0.24713 0.56626 0.48568 0.0
N2831 N 0.27326 0.47076 0.53411 0.0
C2832 C 0.25556 0.54211 0.49474 0.0
C2833 C 0.26887 0.49311 0.51936 0.0
N2834 N 0.29744 0.56027 0.51073 0.0
N2835 N 0.23341 0.47204 0.4943 0.0
H2836 H 0.28904 0.469 0.54742 0.0
H2837 H 0.26011 0.45481 0.53489 0.0
H2838 H 0.21726 0.47226 0.48133 0.0
H2839 H 0.2394 0.45295 0.4995 0.0
H2840 H 0.29581 0.57739 0.4993 0.0
H2841 H 0.31495 0.55945 0.5218 0.0
H2842 H 0.25597 0.58417 0.49099 0.0
H2843 H 0.23009 0.56858 0.47412 0.0
C2844 C 0.75087 0.27243 0.02387 0.0
C2845 C 0.7452 0.24773 0.0362 0.0
C2846 C 0.77161 0.2248 1.00215 0.0
C2847 C 0.77919 0.24975 0.9914 0.0
N2848 N 0.78039 0.29742 0.99529 0.0
N2849 N 0.7534 0.2007 0.03965 0.0
C2850 C 0.7701 0.2736 1.00329 0.0
C2851 C 0.75646 0.22395 0.02604 0.0
N2852 N 0.73721 0.29469 0.03129 0.0
N2853 N 0.77806 0.20196 0.98907 0.0
H2854 H 0.74218 0.19925 0.05696 0.0
H2855 H 0.76356 0.18332 0.03491 0.0
H2856 H 0.78944 0.20178 0.97181 0.0
H2857 H 0.77055 0.1834 0.99422 0.0
H2858 H 0.73848 0.31269 0.02123 0.0
H2859 H 0.72255 0.29452 0.04592 0.0
H2860 H 0.77658 0.31526 1.00498 0.0
H2861 H 0.79485 0.29901 0.98056 0.0
C2862 C 0.47912 1.00716 0.26815 0.0
C2863 C 0.50374 0.99429 0.27335 0.0
C2864 C 0.52439 0.01804 0.23626 0.0
C2865 C 0.49932 0.02933 0.22978 0.0
N2866 N 0.45208 0.03237 0.23717 0.0
N2867 N 0.5487 0.98414 0.2604 0.0
C2868 C 0.47645 0.02326 0.24509 0.0
C2869 C 0.52607 0.99879 0.2568 0.0
N2870 N 0.45859 1.00467 0.28572 0.0
N2871 N 0.54671 0.02621 0.22308 0.0
H2872 H 0.55056 0.96987 0.27527 0.0
H2873 H 0.56475 0.98439 0.24738 0.0
H2874 H 0.54624 0.04018 0.20783 0.0
H2875 H 0.56594 0.02093 0.22863 0.0
H2876 H 0.44124 0.01592 0.28477 0.0
H2877 H 0.45955 0.99249 0.30241 0.0
H2878 H 0.43422 0.02618 0.24558 0.0
H2879 H 0.44957 0.04497 0.22097 0.0
C2880 C 0.15484 0.45244 0.16557 0.0
C2881 C 0.13251 0.46121 0.15057 0.0
C2882 C 0.10356 0.43634 0.18112 0.0
C2883 C 0.12604 0.42325 0.19196 0.0
N2884 N 0.17358 0.41748 0.19276 0.0
N2885 N 0.08486 0.45998 0.14369 0.0
C2886 C 0.15188 0.43125 0.18409 0.0
C2887 C 0.10654 0.45325 0.15858 0.0
N2888 N 0.17891 0.46456 0.16221 0.0
N2889 N 0.07923 0.43198 0.19226 0.0
H2890 H 0.08589 0.47184 0.12686 0.0
H2891 H 0.06596 0.45215 0.14691 0.0
H2892 H 0.07687 0.41962 0.2087 0.0
H2893 H 0.06218 0.44249 0.18699 0.0
H2894 H 0.19538 0.46056 0.17408 0.0
H2895 H 0.18146 0.48071 0.14952 0.0
H2896 H 0.19264 0.4204 0.18521 0.0
H2897 H 0.17226 0.40174 0.20607 0.0
C2898 C 0.68678 0.60233 0.11469 0.0
C2899 C 0.70097 0.62349 0.12694 0.0
C2900 C 0.68095 0.65375 0.09409 0.0
C2901 C 0.66276 0.63368 0.08617 0.0
N2902 N 0.64556 0.58964 0.09358 0.0
N2903 N 0.7088 0.67094 0.12922 0.0
C2904 C 0.66508 0.60804 0.09747 0.0
C2905 C 0.69767 0.64966 0.11667 0.0
N2906 N 0.69412 0.57665 0.11935 0.0
N2907 N 0.68227 0.67674 0.07987 0.0
H2908 H 0.72056 0.66938 0.14609 0.0
H2909 H 0.70444 0.69051 0.12413 0.0
H2910 H 0.67073 0.67985 0.06296 0.0
H2911 H 0.69668 0.69124 0.08315 0.0
H2912 H 0.68568 0.56062 0.10935 0.0
H2913 H 0.71076 0.57177 0.13072 0.0
H2914 H 0.6452 0.57143 0.1034 0.0
H2915 H 0.62823 0.59375 0.08305 0.0
C2916 C 0.9086 0.06974 0.18957 0.0
C2917 C 0.89188 0.09219 0.18684 0.0
C2918 C 0.87046 0.0718 0.14809 0.0
C2919 C 0.8863 0.04867 0.15149 0.0
N2920 N 0.91787 0.02392 0.17765 0.0
N2921 N 0.8537 0.1128 0.16729 0.0
C2922 C 0.90458 0.04712 0.17297 0.0
C2923 C 0.87183 0.09261 0.16717 0.0
N2924 N 0.92899 0.07058 0.20742 0.0
N2925 N 0.85456 0.07419 0.12629 0.0
H2926 H 0.85408 0.12777 0.18155 0.0
H2927 H 0.83702 0.11344 0.15509 0.0
H2928 H 0.85298 0.05938 0.11202 0.0
H2929 H 0.84461 0.09157 0.12118 0.0
H2930 H 0.94387 0.05625 0.20863 0.0
H2931 H 0.93185 0.08664 0.22014 0.0
H2932 H 0.92925 0.02045 0.19452 0.0
H2933 H 0.91624 1.00741 0.16535 0.0
C2934 C 0.35641 0.84783 0.09279 0.0
C2935 C 0.3651 0.87023 0.07795 0.0
C2936 C 0.3265 0.89484 0.09494 0.0
C2937 C 0.32129 0.87465 0.11399 0.0
N2938 N 0.33387 0.83204 0.13222 0.0
N2939 N 0.36035 0.9172 0.06942 0.0
C2940 C 0.33669 0.85094 0.11305 0.0
C2941 C 0.3505 0.89427 0.07996 0.0
N2942 N 0.36678 0.82344 0.08722 0.0
N2943 N 0.30841 0.91469 0.09101 0.0
H2944 H 0.37871 0.91839 0.06001 0.0
H2945 H 0.35166 0.93569 0.07274 0.0
H2946 H 0.29019 0.9153 0.10087 0.0
H2947 H 0.31019 0.92861 0.07583 0.0
H2948 H 0.35969 0.80596 0.0957 0.0
H2949 H 0.38045 0.82051 0.07196 0.0
H2950 H 0.34675 0.81593 0.13409 0.0
H2951 H 0.32005 0.83339 0.14748 0.0
C2952 C 0.11094 0.59437 0.34071 0.0
C2953 C 0.13302 0.6089 0.33096 0.0
C2954 C 0.16247 0.57923 0.35629 0.0
C2955 C 0.1403 0.56881 0.37045 0.0
N2956 N 0.0924 0.56872 0.37671 0.0
N2957 N 0.18042 0.61624 0.33141 0.0
C2958 C 0.11416 0.57657 0.36254 0.0
C2959 C 0.15903 0.60138 0.33895 0.0
N2960 N 0.08673 0.59773 0.32893 0.0
N2961 N 0.18689 0.56767 0.35919 0.0
H2962 H 0.17889 0.63259 0.31892 0.0
H2963 H 0.19941 0.61358 0.33925 0.0
H2964 H 0.18987 0.55086 0.37091 0.0
H2965 H 0.20333 0.57286 0.34773 0.0
H2966 H 0.0702 0.58605 0.33334 0.0
H2967 H 0.08413 0.61029 0.3127 0.0
H2968 H 0.07347 0.57659 0.37365 0.0
H2969 H 0.0932 0.556 0.39287 0.0
C2970 C 0.81211 0.61567 0.92268 0.0
C2971 C 0.80937 0.63551 0.90285 0.0
C2972 C 0.83778 0.66493 0.92949 0.0
C2973 C 0.84516 0.64319 0.94565 0.0
N2974 N 0.83949 0.59744 0.95786 0.0
N2975 N 0.81985 0.67977 0.88746 0.0
C2976 C 0.83188 0.61857 0.94274 0.0
C2977 C 0.82169 0.66067 0.90659 0.0
N2978 N 0.79569 0.59407 0.92226 0.0
N2979 N 0.84708 0.68955 0.93587 0.0
H2980 H 0.80834 0.6777 0.87046 0.0
H2981 H 0.83102 0.69717 0.88762 0.0
H2982 H 0.85907 0.69265 0.95248 0.0
H2983 H 0.84097 0.7069 0.92643 0.0
H2984 H 0.79511 0.57995 0.93731 0.0
H2985 H 0.78069 0.59183 0.90812 0.0
H2986 H 0.83295 0.57811 0.95451 0.0
H2987 H 0.85354 0.59904 0.97293 0.0
C2988 C 0.86137 0.92663 0.36938 0.0
C2989 C 0.88326 0.94156 0.37933 0.0
C2990 C 0.91181 0.92019 0.34583 0.0
C2991 C 0.89107 0.90221 0.33953 0.0
N2992 N 0.84719 0.88561 0.3488 0.0
N2993 N 0.93065 0.95023 0.37826 0.0
C2994 C 0.86602 0.90487 0.35203 0.0
C2995 C 0.90883 0.93808 0.36761 0.0
N2996 N 0.83601 0.93344 0.37629 0.0
N2997 N 0.93443 0.91998 0.33091 0.0
H2998 H 0.92978 0.96296 0.39445 0.0
H2999 H 0.95004 0.94599 0.37238 0.0
H3000 H 0.93691 0.90703 0.31498 0.0
H3001 H 0.94942 0.93415 0.33271 0.0
H3002 H 0.81923 0.92473 0.36784 0.0
H3003 H 0.83179 0.94981 0.38816 0.0
H3004 H 0.82952 0.88508 0.35956 0.0
H3005 H 0.85042 0.86874 0.33733 0.0
C3006 C 0.1695 0.8978 0.9088 0.0
C3007 C 0.17094 0.87873 0.92932 0.0
C3008 C 0.21615 0.86678 0.91488 0.0
C3009 C 0.21357 0.88404 0.8927 0.0
N3010 N 0.18594 0.91295 0.86635 0.0
N3011 N 0.1941 0.84316 0.95081 0.0
C3012 C 0.18967 0.89868 0.88903 0.0
C3013 C 0.19395 0.86276 0.93214 0.0
N3014 N 0.149 0.91557 0.90881 0.0
N3015 N 0.23989 0.85443 0.91959 0.0
H3016 H 0.17834 0.84035 0.96396 0.0
H3017 H 0.20893 0.82881 0.95228 0.0
H3018 H 0.25605 0.85588 0.90674 0.0
H3019 H 0.24409 0.84396 0.93686 0.0
H3020 H 0.14772 0.93163 0.89589 0.0
H3021 H 0.13465 0.91574 0.92371 0.0
H3022 H 0.16799 0.92196 0.86132 0.0
H3023 H 0.20001 0.91366 0.85129 0.0
C3024 C 0.1711 0.14618 0.41769 0.0
C3025 C 0.17701 0.12109 0.40653 0.0
C3026 C 0.14808 0.09994 0.43978 0.0
C3027 C 0.14369 0.12505 0.45189 0.0
N3028 N 0.16047 0.16959 0.45797 0.0
N3029 N 0.17828 0.07368 0.41308 0.0
C3030 C 0.15842 0.14733 0.44271 0.0
C3031 C 0.16775 0.09779 0.41952 0.0
N3032 N 0.17573 0.16896 0.40381 0.0
N3033 N 0.13284 0.07848 0.44626 0.0
H3034 H 0.1939 0.07168 0.39964 0.0
H3035 H 0.17376 0.05634 0.4234 0.0
H3036 H 0.1179 0.07892 0.46049 0.0
H3037 H 0.13364 0.06068 0.43578 0.0
H3038 H 0.16974 0.18758 0.41058 0.0
H3039 H 0.18237 0.16901 0.38429 0.0
H3040 H 0.17254 0.18562 0.45279 0.0
H3041 H 0.15281 0.17052 0.47715 0.0
C3042 C 0.4019 0.62165 0.83153 0.0
C3043 C 0.38876 0.61453 0.80759 0.0
C3044 C 0.36492 0.57897 0.83131 0.0
C3045 C 0.379 0.58532 0.85477 0.0
N3046 N 0.41293 0.6101 0.87707 0.0
N3047 N 0.36008 0.5846 0.78372 0.0
C3048 C 0.39811 0.60594 0.85478 0.0
C3049 C 0.37094 0.5926 0.80721 0.0
N3050 N 0.41766 0.64374 0.83215 0.0
N3051 N 0.34529 0.56026 0.8324 0.0
H3052 H 0.36321 0.59469 0.76595 0.0
H3053 H 0.34922 0.56718 0.78139 0.0
H3054 H 0.34109 0.54961 0.8496 0.0
H3055 H 0.33216 0.55635 0.81696 0.0
H3056 H 0.42555 0.65182 0.84939 0.0
H3057 H 0.42157 0.65514 0.81543 0.0
H3058 H 0.42919 0.62285 0.87798 0.0
H3059 H 0.41003 0.59926 0.89444 0.0
C3060 C 0.87839 0.36184 0.439 0.0
C3061 C 0.87263 0.38043 0.45935 0.0
C3062 C 0.8402 0.40258 0.4303 0.0
C3063 C 0.84483 0.38305 0.41064 0.0
N3064 N 0.86548 0.34244 0.39693 0.0
N3065 N 0.84669 0.41711 0.47576 0.0
C3066 C 0.86317 0.36222 0.41522 0.0
C3067 C 0.85314 0.40046 0.45536 0.0
N3068 N 0.89863 0.34402 0.44232 0.0
N3069 N 0.82356 0.42329 0.42472 0.0
H3070 H 0.85657 0.41684 0.49393 0.0
H3071 H 0.83076 0.43028 0.47533 0.0
H3072 H 0.81298 0.42463 0.40702 0.0
H3073 H 0.8212 0.43981 0.43684 0.0
H3074 H 0.90585 0.33184 0.42733 0.0
H3075 H 0.90964 0.34261 0.45972 0.0
H3076 H 0.87628 0.32506 0.39988 0.0
H3077 H 0.85483 0.34264 0.3793 0.0
C3078 C 0.65983 0.93196 0.83792 0.0
C3079 C 0.64075 0.93679 0.8579 0.0
C3080 C 0.61049 0.90501 0.83652 0.0
C3081 C 0.63142 0.89641 0.81965 0.0
N3082 N 0.67645 0.90291 0.80355 0.0
N3083 N 0.59751 0.92836 0.8764 0.0
C3084 C 0.65607 0.91056 0.81973 0.0
C3085 C 0.61578 0.92373 0.857 0.0
N3086 N 0.6814 0.94835 0.83622 0.0
N3087 N 0.58527 0.89576 0.83241 0.0
H3088 H 0.60009 0.94293 0.89072 0.0
H3089 H 0.58046 0.91694 0.87913 0.0
H3090 H 0.58059 0.88281 0.81702 0.0
H3091 H 0.5686 0.90297 0.84229 0.0
H3092 H 0.69497 0.94796 0.82066 0.0
H3093 H 0.68427 0.96416 0.84927 0.0
H3094 H 0.69589 0.90972 0.80562 0.0
H3095 H 0.67449 0.88903 0.7885 0.0
C3096 C 0.19841 0.87896 0.07802 0.0
C3097 C 0.19888 0.90197 0.0942 0.0
C3098 C 0.1621 0.9209 0.06779 0.0
C3099 C 0.16187 0.89786 0.0515 0.0
N3100 N 0.18741 0.86089 0.03499 0.0
N3101 N 0.18763 0.94813 0.0983 0.0
C3102 C 0.18273 0.87899 0.05454 0.0
C3103 C 0.18289 0.92408 0.08685 0.0
N3104 N 0.21095 0.85627 0.08589 0.0
N3105 N 0.14183 0.93891 0.06659 0.0
H3106 H 0.2032 0.95096 0.1117 0.0
H3107 H 0.17816 0.96554 0.09235 0.0
H3108 H 0.12622 0.93774 0.05315 0.0
H3109 H 0.13961 0.95418 0.08032 0.0
H3110 H 0.20883 0.83829 0.0759 0.0
H3111 H 0.22113 0.85453 0.10373 0.0
H3112 H 0.20362 0.84797 0.03529 0.0
H3113 H 0.1769 0.86107 0.01716 0.0
C3114 C 0.17198 0.60388 0.17141 0.0
C3115 C 0.14846 0.59026 0.16358 0.0
C3116 C 0.12737 0.60565 0.20443 0.0
C3117 C 0.14794 0.62459 0.20839 0.0
N3118 N 0.19024 0.64235 0.19359 0.0
N3119 N 0.1015 0.58301 0.17127 0.0
C3120 C 0.17066 0.62369 0.1916 0.0
C3121 C 0.12558 0.59205 0.17991 0.0
N3122 N 0.19563 0.59759 0.15976 0.0
N3123 N 0.10923 0.60098 0.22399 0.0
H3124 H 0.0984 0.57567 0.15229 0.0
H3125 H 0.08393 0.586 0.18183 0.0
H3126 H 0.11068 0.60993 0.24258 0.0
H3127 H 0.09493 0.58604 0.22269 0.0
H3128 H 0.21378 0.60533 0.16609 0.0
H3129 H 0.19729 0.58234 0.14589 0.0
H3130 H 0.20542 0.64419 0.17967 0.0
H3131 H 0.19052 0.65711 0.20795 0.0
C3132 C 0.84817 0.60726 0.07076 0.0
C3133 C 0.87311 0.61989 0.07503 0.0
C3134 C 0.86155 0.62646 0.12193 0.0
C3135 C 0.83721 0.6129 0.11808 0.0
N3136 N 0.80871 0.58689 0.09022 0.0
N3137 N 0.90615 0.63509 0.10607 0.0
C3138 C 0.83092 0.60225 0.09283 0.0
C3139 C 0.88053 0.62752 0.10109 0.0
N3140 N 0.84062 0.60093 0.04559 0.0
N3141 N 0.86608 0.63922 0.14535 0.0
H3142 H 0.92077 0.63508 0.09146 0.0
H3143 H 0.91355 0.6385 0.12502 0.0
H3144 H 0.85237 0.63915 0.16084 0.0
H3145 H 0.88213 0.65191 0.14848 0.0
H3146 H 0.82159 0.59449 0.04059 0.0
H3147 H 0.85324 0.60324 0.02938 0.0
H3148 H 0.80405 0.57632 0.07315 0.0
H3149 H 0.79575 0.58339 0.10598 0.0
C3150 C 0.91082 0.91214 0.16321 0.0
C3151 C 0.88576 0.92352 0.15706 0.0
C3152 C 0.86542 0.89888 0.19406 0.0
C3153 C 0.89052 0.88702 0.19987 0.0
N3154 N 0.93821 0.88991 0.19587 0.0
N3155 N 0.84164 0.93436 0.1715 0.0
C3156 C 0.91356 0.89616 0.1863 0.0
C3157 C 0.86383 0.91895 0.17411 0.0
N3158 N 0.93174 0.91532 0.1463 0.0
N3159 N 0.84283 0.89025 0.20636 0.0
H3160 H 0.84038 0.9496 0.15755 0.0
H3161 H 0.82581 0.93397 0.1848 0.0
H3162 H 0.84275 0.87677 0.22193 0.0
H3163 H 0.82378 0.89555 0.20018 0.0
H3164 H 0.94948 0.90475 0.14797 0.0
H3165 H 0.93073 0.92708 0.12944 0.0
H3166 H 0.95575 0.89794 0.18836 0.0
H3167 H 0.9409 0.87906 0.21324 0.0
C3168 C 0.44858 0.17072 0.14737 0.0
C3169 C 0.45332 0.1505 0.1282 0.0
C3170 C 0.42445 0.17465 0.09722 0.0
C3171 C 0.41475 0.19044 0.11835 0.0
N3172 N 0.43273 0.21548 0.15458 0.0
N3173 N 0.44539 0.13371 0.08388 0.0
C3174 C 0.43086 0.19204 0.14131 0.0
C3175 C 0.44169 0.15291 0.1026 0.0
N3176 N 0.46109 0.16966 0.17135 0.0
N3177 N 0.41905 0.18203 0.0718 0.0
H3178 H 0.45789 0.11747 0.08638 0.0
H3179 H 0.43448 0.13303 0.06635 0.0
H3180 H 0.40907 0.1997 0.06751 0.0
H3181 H 0.42748 0.17282 0.05535 0.0
H3182 H 0.45581 0.18174 0.18724 0.0
H3183 H 0.47611 0.156 0.17561 0.0
H3184 H 0.4451 0.21847 0.17084 0.0
H3185 H 0.42622 0.2331 0.14592 0.0
C3186 C 0.41606 0.85489 0.36063 0.0
C3187 C 0.41375 0.84353 0.38615 0.0
C3188 C 0.44823 0.87385 0.40276 0.0
C3189 C 0.45132 0.88455 0.37684 0.0
N3190 N 0.44391 0.87903 0.32993 0.0
N3191 N 0.43183 0.83728 0.42961 0.0
C3192 C 0.4371 0.87299 0.35539 0.0
C3193 C 0.43139 0.85138 0.40654 0.0
N3194 N 0.39718 0.84988 0.34184 0.0
N3195 N 0.45963 0.88609 0.42407 0.0
H3196 H 0.41968 0.82074 0.43263 0.0
H3197 H 0.44589 0.84033 0.44445 0.0
H3198 H 0.47139 0.90302 0.42264 0.0
H3199 H 0.45553 0.88076 0.44357 0.0
H3200 H 0.39636 0.85985 0.32379 0.0
H3201 H 0.38081 0.83766 0.34522 0.0
H3202 H 0.4358 0.86937 0.31357 0.0
H3203 H 0.45977 0.89149 0.3253 0.0
C3204 C 0.09183 0.32067 0.89026 0.0
C3205 C 0.11101 0.31655 0.86996 0.0
C3206 C 0.08952 0.35273 0.8451 0.0
C3207 C 0.07558 0.36093 0.8682 0.0
N3208 N 0.06726 0.35365 0.91479 0.0
N3209 N 0.12846 0.33062 0.8275 0.0
C3210 C 0.07734 0.34494 0.89127 0.0
C3211 C 0.10973 0.3328 0.84693 0.0
N3212 N 0.08764 0.30139 0.9088 0.0
N3213 N 0.08323 0.36392 0.82132 0.0
H3214 H 0.14344 0.31639 0.82755 0.0
H3215 H 0.13011 0.34423 0.81205 0.0
H3216 H 0.06782 0.37768 0.81937 0.0
H3217 H 0.09112 0.35734 0.80341 0.0
H3218 H 0.07254 0.30256 0.92289 0.0
H3219 H 0.09721 0.283 0.90794 0.0
H3220 H 0.07036 0.34362 0.93258 0.0
H3221 H 0.05851 0.3722 0.91721 0.0
C3222 C 0.60787 0.66836 0.36337 0.0
C3223 C 0.61259 0.6768 0.38976 0.0
C3224 C 0.57935 0.64443 0.4056 0.0
C3225 C 0.57382 0.63681 0.37902 0.0
N3226 N 0.5775 0.64738 0.33261 0.0
N3227 N 0.59848 0.67747 0.4351 0.0
C3228 C 0.58641 0.65069 0.35794 0.0
C3229 C 0.59683 0.66628 0.41056 0.0
N3230 N 0.62482 0.67585 0.34362 0.0
N3231 N 0.56939 0.62989 0.42617 0.0
H3232 H 0.61089 0.69361 0.43904 0.0
H3233 H 0.58581 0.67254 0.45064 0.0
H3234 H 0.55693 0.61357 0.42362 0.0
H3235 H 0.5752 0.6327 0.44576 0.0
H3236 H 0.62417 0.66782 0.32463 0.0
H3237 H 0.6411 0.68819 0.34672 0.0
H3238 H 0.58418 0.6588 0.31676 0.0
H3239 H 0.5613 0.63533 0.328 0.0
C3240 C 0.41036 0.69871 0.35871 0.0
C3241 C 0.39987 0.70329 0.38457 0.0
C3242 C 0.42671 0.6658 0.40138 0.0
C3243 C 0.43758 0.66169 0.37582 0.0
N3244 N 0.44555 0.6788 0.33228 0.0
N3245 N 0.40558 0.69667 0.43153 0.0
C3246 C 0.43129 0.67977 0.35524 0.0
C3247 C 0.41057 0.6886 0.40621 0.0
N3248 N 0.39941 0.71087 0.33711 0.0
N3249 N 0.43026 0.64714 0.42066 0.0
H3250 H 0.39481 0.71385 0.43579 0.0
H3251 H 0.41466 0.68813 0.44802 0.0
H3252 H 0.44101 0.62973 0.41766 0.0
H3253 H 0.42043 0.64776 0.4388 0.0
H3254 H 0.40415 0.70561 0.31775 0.0
H3255 H 0.38418 0.72477 0.33812 0.0
H3256 H 0.44384 0.69294 0.31732 0.0
H3257 H 0.46111 0.66534 0.32953 0.0
C3258 C 0.09591 0.83902 0.60483 0.0
C3259 C 0.11117 0.82763 0.62558 0.0
C3260 C 0.08462 0.8534 0.65733 0.0
C3261 C 0.07382 0.86901 0.6364 0.0
N3262 N 0.07214 0.87773 0.58923 0.0
N3263 N 0.12181 0.82678 0.67218 0.0
C3264 C 0.07986 0.86188 0.60979 0.0
C3265 C 0.1058 0.83529 0.65208 0.0
N3266 N 0.09689 0.82786 0.58025 0.0
N3267 N 0.07433 0.85554 0.68225 0.0
H3268 H 0.13789 0.8141 0.66936 0.0
H3269 H 0.12053 0.83426 0.69137 0.0
H3270 H 0.05799 0.86758 0.68653 0.0
H3271 H 0.07993 0.84309 0.69776 0.0
H3272 H 0.08454 0.83373 0.56475 0.0
H3273 H 0.10802 0.81079 0.57639 0.0
H3274 H 0.0786 0.87479 0.56986 0.0
H3275 H 0.06139 0.89522 0.59159 0.0
C3276 C 0.11273 0.65419 0.65119 0.0
C3277 C 0.08531 0.65937 0.64689 0.0
C3278 C 0.09645 0.70525 0.63442 0.0
C3279 C 0.12356 0.70057 0.64094 0.0
N3280 N 0.1562 0.67223 0.66152 0.0
N3281 N 0.05052 0.69144 0.63993 0.0
C3282 C 0.13123 0.67559 0.65141 0.0
C3283 C 0.07699 0.68541 0.64006 0.0
N3284 N 0.12134 0.62858 0.65348 0.0
N3285 N 0.08931 0.72845 0.62233 0.0
H3286 H 0.03591 0.67757 0.64463 0.0
H3287 H 0.04325 0.71067 0.63763 0.0
H3288 H 0.10277 0.74379 0.61882 0.0
H3289 H 0.07049 0.73176 0.61435 0.0
H3290 H 0.14138 0.62336 0.65415 0.0
H3291 H 0.10857 0.61237 0.65165 0.0
H3292 H 0.1622 0.65507 0.67137 0.0
H3293 H 0.16989 0.6877 0.66267 0.0
C3294 C 0.91189 0.82988 0.60838 0.0
C3295 C 0.89704 0.81878 0.62968 0.0
C3296 C 0.92676 0.84242 0.66046 0.0
C3297 C 0.93726 0.85762 0.6393 0.0
N3298 N 0.93561 0.86859 0.59284 0.0
N3299 N 0.88872 0.81849 0.67714 0.0
C3300 C 0.92895 0.85194 0.61309 0.0
C3301 C 0.90421 0.82577 0.65614 0.0
N3302 N 0.90993 0.8192 0.58363 0.0
N3303 N 0.93841 0.84398 0.68481 0.0
H3304 H 0.87125 0.8076 0.67553 0.0
H3305 H 0.89183 0.82569 0.69623 0.0
H3306 H 0.95526 0.85559 0.68826 0.0
H3307 H 0.93318 0.83163 0.70053 0.0
H3308 H 0.9219 0.82529 0.5679 0.0
H3309 H 0.8987 0.80222 0.5797 0.0
H3310 H 0.92794 0.86658 0.57377 0.0
H3311 H 0.94632 0.88604 0.59568 0.0
C3312 C 0.60634 0.94189 0.65006 0.0
C3313 C 0.63241 0.95144 0.64458 0.0
C3314 C 0.65076 0.9195 0.67673 0.0
C3315 C 0.62472 0.9103 0.68267 0.0
N3316 N 0.5776 0.91767 0.68035 0.0
N3317 N 0.67794 0.95505 0.6589 0.0
C3318 C 0.60248 0.92322 0.67106 0.0
C3319 C 0.65408 0.94212 0.66008 0.0
N3320 N 0.58551 0.94918 0.63428 0.0
N3321 N 0.67246 0.90564 0.68531 0.0
H3322 H 0.68073 0.97205 0.64741 0.0
H3323 H 0.69383 0.95071 0.67143 0.0
H3324 H 0.67111 0.88849 0.6967 0.0
H3325 H 0.69177 0.90976 0.67905 0.0
H3326 H 0.56679 0.94038 0.63539 0.0
H3327 H 0.58729 0.96271 0.61879 0.0
H3328 H 0.56065 0.92804 0.6745 0.0
H3329 H 0.57442 0.90446 0.69596 0.0
C3330 C 0.1944 0.16158 0.61441 0.0
C3331 C 0.2061 0.13616 0.61843 0.0
C3332 C 0.17945 0.11824 0.58158 0.0
C3333 C 0.16736 0.14341 0.57793 0.0
N3334 N 0.16838 0.19027 0.58546 0.0
N3335 N 0.21626 0.09321 0.6002 0.0
C3336 C 0.17684 0.16551 0.59248 0.0
C3337 C 0.20078 0.1155 0.60002 0.0
N3338 N 0.19833 0.18139 0.63244 0.0
N3339 N 0.16933 0.09653 0.56894 0.0
H3340 H 0.23237 0.091 0.61306 0.0
H3341 H 0.21492 0.07839 0.58589 0.0
H3342 H 0.15374 0.09769 0.55542 0.0
H3343 H 0.17519 0.07717 0.57325 0.0
H3344 H 0.18778 0.19918 0.63225 0.0
H3345 H 0.21091 0.17956 0.6487 0.0
H3346 H 0.17602 0.20767 0.59358 0.0
H3347 H 0.15545 0.19327 0.56954 0.0
C3348 C 0.40759 0.57519 0.68554 0.0
C3349 C 0.39551 0.59966 0.67883 0.0
C3350 C 0.37678 0.57961 0.63852 0.0
C3351 C 0.3878 0.55461 0.64584 0.0
N3352 N 0.41146 0.52777 0.67764 0.0
N3353 N 0.36637 0.62512 0.65118 0.0
C3354 C 0.40255 0.55218 0.66979 0.0
C3355 C 0.37949 0.60182 0.65588 0.0
N3356 N 0.42449 0.5743 0.70671 0.0
N3357 N 0.36386 0.58214 0.61487 0.0
H3358 H 0.36843 0.64169 0.66339 0.0
H3359 H 0.35215 0.62765 0.63643 0.0
H3360 H 0.36038 0.56615 0.60235 0.0
H3361 H 0.35786 0.6002 0.60684 0.0
H3362 H 0.43635 0.55804 0.71139 0.0
H3363 H 0.4278 0.59071 0.71888 0.0
H3364 H 0.41966 0.52393 0.69616 0.0
H3365 H 0.40942 0.51079 0.66606 0.0
C3366 C 0.85357 0.41098 0.59921 0.0
C3367 C 0.85816 0.38551 0.58816 0.0
C3368 C 0.81514 0.37013 0.60619 0.0
C3369 C 0.81183 0.3948 0.6195 0.0
N3370 N 0.82914 0.43825 0.63036 0.0
N3371 N 0.8439 0.3406 0.58101 0.0
C3372 C 0.83125 0.4152 0.61622 0.0
C3373 C 0.83907 0.36503 0.59172 0.0
N3374 N 0.87057 0.43129 0.5933 0.0
N3375 N 0.79475 0.35214 0.60616 0.0
H3376 H 0.85978 0.33701 0.56822 0.0
H3377 H 0.83291 0.32369 0.5855 0.0
H3378 H 0.77671 0.35542 0.61582 0.0
H3379 H 0.79461 0.33491 0.59483 0.0
H3380 H 0.86684 0.4511 0.59781 0.0
H3381 H 0.88768 0.42869 0.58204 0.0
H3382 H 0.84428 0.45226 0.63179 0.0
H3383 H 0.81293 0.44285 0.64228 0.0
C3384 C 0.64076 0.05802 0.83326 0.0
C3385 C 0.64722 0.06359 0.86021 0.0
C3386 C 0.64567 0.11163 0.85021 0.0
C3387 C 0.63731 0.106 0.82405 0.0
N3388 N 0.62534 0.07466 0.79054 0.0
N3389 N 0.65477 0.09586 0.89476 0.0
C3390 C 0.63473 0.07936 0.81549 0.0
C3391 C 0.64939 0.09048 0.86878 0.0
N3392 N 0.64002 0.03226 0.82474 0.0
N3393 N 0.65049 0.13743 0.85697 0.0
H3394 H 0.6593 0.08126 0.90863 0.0
H3395 H 0.65353 0.11469 0.90311 0.0
H3396 H 0.64767 0.15306 0.84371 0.0
H3397 H 0.65903 0.14337 0.87476 0.0
H3398 H 0.63855 0.02675 0.80496 0.0
H3399 H 0.6419 0.01603 0.8374 0.0
H3400 H 0.62007 0.05602 0.78343 0.0
H3401 H 0.62161 0.08994 0.77708 0.0
C3402 C 0.33084 0.16219 0.42968 0.0
C3403 C 0.34662 0.14029 0.4378 0.0
C3404 C 0.32067 0.11103 0.40851 0.0
C3405 C 0.30376 0.13262 0.40153 0.0
N3406 N 0.29047 0.17808 0.40826 0.0
N3407 N 0.35483 0.09343 0.43784 0.0
C3408 C 0.30826 0.15808 0.41285 0.0
C3409 C 0.34081 0.11455 0.42816 0.0
N3410 N 0.33805 0.18706 0.43762 0.0
N3411 N 0.31834 0.08747 0.3953 0.0
H3412 H 0.37008 0.09561 0.45168 0.0
H3413 H 0.35008 0.07372 0.43389 0.0
H3414 H 0.30452 0.08444 0.38021 0.0
H3415 H 0.33156 0.07171 0.39743 0.0
H3416 H 0.32954 0.20439 0.43022 0.0
H3417 H 0.35373 0.19031 0.45079 0.0
H3418 H 0.29094 0.19625 0.41804 0.0
H3419 H 0.27404 0.17591 0.39582 0.0
C3420 C 0.35777 0.42269 0.84507 0.0
C3421 C 0.38425 0.41628 0.83783 0.0
C3422 C 0.40026 0.45708 0.85942 0.0
C3423 C 0.37412 0.46217 0.86897 0.0
N3424 N 0.32815 0.44861 0.87264 0.0
N3425 N 0.43093 0.42614 0.83857 0.0
C3426 C 0.35285 0.44481 0.86199 0.0
C3427 C 0.40554 0.43319 0.84517 0.0
N3428 N 0.33727 0.40751 0.83577 0.0
N3429 N 0.41977 0.47569 0.86289 0.0
H3430 H 0.43513 0.40991 0.82645 0.0
H3431 H 0.44782 0.43549 0.84597 0.0
H3432 H 0.41662 0.4936 0.87274 0.0
H3433 H 0.4385 0.47455 0.85421 0.0
H3434 H 0.31731 0.41272 0.83746 0.0
H3435 H 0.34015 0.3904 0.82461 0.0
H3436 H 0.31273 0.43488 0.87134 0.0
H3437 H 0.32332 0.46476 0.88444 0.0
C3438 C 0.68896 0.40359 0.435 0.0
C3439 C 0.67889 0.37833 0.44188 0.0
C3440 C 0.71586 0.35734 0.41763 0.0
C3441 C 0.72372 0.38255 0.40744 0.0
N3442 N 0.71475 0.4298 0.40424 0.0
N3443 N 0.68112 0.33098 0.43852 0.0
C3444 C 0.70972 0.40579 0.41584 0.0
C3445 C 0.692 0.35515 0.43292 0.0
N3446 N 0.67826 0.4256 0.44662 0.0
N3447 N 0.73172 0.33567 0.41369 0.0
H3448 H 0.6644 0.32895 0.45061 0.0
H3449 H 0.68768 0.3133 0.43006 0.0
H3450 H 0.74982 0.33661 0.40364 0.0
H3451 H 0.72833 0.31734 0.4226 0.0
H3452 H 0.68643 0.44452 0.44486 0.0
H3453 H 0.66257 0.42451 0.46009 0.0
H3454 H 0.70303 0.44657 0.40727 0.0
H3455 H 0.72899 0.43276 0.38965 0.0
C3456 C 0.66065 0.64203 0.90658 0.0
C3457 C 0.68309 0.62506 0.9072 0.0
C3458 C 0.67556 0.61674 0.95466 0.0
C3459 C 0.652 0.63245 0.95369 0.0
N3460 N 0.62039 0.65768 0.92798 0.0
N3461 N 0.71078 0.59408 0.93035 0.0
C3462 C 0.644 0.64432 0.92937 0.0
C3463 C 0.69027 0.61188 0.93091 0.0
N3464 N 0.65596 0.65681 0.88437 0.0
N3465 N 0.68392 0.6066 0.97835 0.0
H3466 H 0.72196 0.59056 0.9133 0.0
H3467 H 0.71574 0.58164 0.94603 0.0
H3468 H 0.67292 0.60834 0.99576 0.0
H3469 H 0.70232 0.59755 0.98118 0.0
H3470 H 0.64177 0.67181 0.88326 0.0
H3471 H 0.66789 0.65552 0.86752 0.0
H3472 H 0.61189 0.66419 0.91035 0.0
H3473 H 0.60828 0.66078 0.94436 0.0
C3474 C 0.85029 0.09123 0.34979 0.0
C3475 C 0.87175 0.07398 0.35615 0.0
C3476 C 0.89174 0.08498 0.31324 0.0
C3477 C 0.87423 0.10692 0.31034 0.0
N3478 N 0.83654 0.13148 0.32744 0.0
N3479 N 0.91533 0.05734 0.34435 0.0
C3480 C 0.85303 0.10999 0.32875 0.0
C3481 C 0.89295 0.07118 0.33778 0.0
N3482 N 0.82721 0.08951 0.36389 0.0
N3483 N 0.9076 0.0776 0.29258 0.0
H3484 H 0.9181 0.04841 0.36267 0.0
H3485 H 0.93235 0.05715 0.33258 0.0
H3486 H 0.90668 0.08701 0.27418 0.0
H3487 H 0.91923 0.06046 0.29286 0.0
H3488 H 0.81005 0.10001 0.35891 0.0
H3489 H 0.82449 0.07531 0.3787 0.0
H3490 H 0.82303 0.13621 0.34236 0.0
H3491 H 0.83733 0.14557 0.31241 0.0
C3492 C 0.35319 0.85988 0.90452 0.0
C3493 C 0.34079 0.88498 0.90149 0.0
C3494 C 0.36806 0.90262 0.93788 0.0
C3495 C 0.37976 0.87706 0.9418 0.0
N3496 N 0.37593 0.82986 0.93438 0.0
N3497 N 0.33012 0.92711 0.92089 0.0
C3498 C 0.36981 0.8552 0.92692 0.0
C3499 C 0.34616 0.90526 0.92013 0.0
N3500 N 0.3506 0.84102 0.88531 0.0
N3501 N 0.37868 0.92483 0.94926 0.0
H3502 H 0.31358 0.92912 0.90856 0.0
H3503 H 0.33148 0.94154 0.93561 0.0
H3504 H 0.39524 0.92486 0.96153 0.0
H3505 H 0.37245 0.94395 0.94436 0.0
H3506 H 0.36139 0.82335 0.88538 0.0
H3507 H 0.33975 0.84407 0.86801 0.0
H3508 H 0.36746 0.81319 0.92553 0.0
H3509 H 0.38695 0.82564 0.95139 0.0
C3510 C 0.17314 0.42118 0.35223 0.0
C3511 C 0.15079 0.4363 0.36075 0.0
C3512 C 0.12705 0.42157 0.32095 0.0
C3513 C 0.14676 0.40197 0.31582 0.0
N3514 N 0.18852 0.382 0.32891 0.0
N3515 N 0.10395 0.44571 0.35513 0.0
C3516 C 0.17004 0.40163 0.33186 0.0
C3517 C 0.12711 0.4354 0.34548 0.0
N3518 N 0.19745 0.42585 0.36329 0.0
N3519 N 0.10808 0.42694 0.30235 0.0
H3520 H 0.1022 0.45358 0.37409 0.0
H3521 H 0.08572 0.44336 0.34556 0.0
H3522 H 0.10808 0.41794 0.28375 0.0
H3523 H 0.09447 0.44245 0.30432 0.0
H3524 H 0.21491 0.41707 0.35643 0.0
H3525 H 0.20046 0.44073 0.37734 0.0
H3526 H 0.20419 0.37919 0.34212 0.0
H3527 H 0.18722 0.36735 0.31445 0.0
C3528 C 0.67267 0.41365 0.56135 0.0
C3529 C 0.64657 0.40413 0.56645 0.0
C3530 C 0.65729 0.39981 0.61378 0.0
C3531 C 0.68338 0.40903 0.60875 0.0
N3532 N 0.71519 0.42861 0.5793 0.0
N3533 N 0.61194 0.395 0.59802 0.0
C3534 C 0.69081 0.41722 0.58293 0.0
C3535 C 0.63829 0.39933 0.5929 0.0
N3536 N 0.68029 0.41844 0.53585 0.0
N3537 N 0.65098 0.39079 0.6385 0.0
H3538 H 0.59754 0.3955 0.58319 0.0
H3539 H 0.60399 0.39365 0.61699 0.0
H3540 H 0.6644 0.39132 0.65425 0.0
H3541 H 0.63328 0.38106 0.643 0.0
H3542 H 0.69977 0.42243 0.53015 0.0
H3543 H 0.6669 0.41786 0.5201 0.0
H3544 H 0.72137 0.43724 0.56163 0.0
H3545 H 0.72886 0.43068 0.59471 0.0
C3546 C 0.63572 0.1334 0.6701 0.0
C3547 C 0.64433 0.12708 0.69615 0.0
C3548 C 0.65836 0.08299 0.68034 0.0
C3549 C 0.64704 0.08858 0.65523 0.0
N3550 N 0.6207 0.11703 0.62756 0.0
N3551 N 0.66167 0.09489 0.72692 0.0
C3552 C 0.63449 0.11323 0.65056 0.0
C3553 C 0.65525 0.10161 0.70153 0.0
N3554 N 0.62952 0.15903 0.66382 0.0
N3555 N 0.67248 0.06009 0.68365 0.0
H3556 H 0.66029 0.10829 0.74258 0.0
H3557 H 0.66694 0.07576 0.7327 0.0
H3558 H 0.67443 0.04607 0.66857 0.0
H3559 H 0.68352 0.05579 0.70056 0.0
H3560 H 0.6255 0.16541 0.64462 0.0
H3561 H 0.63133 0.17445 0.67738 0.0
H3562 H 0.60879 0.13358 0.62401 0.0
H3563 H 0.61906 0.10237 0.61307 0.0
C3564 C 0.34747 0.09683 0.59701 0.0
C3565 C 0.33499 0.1199 0.60758 0.0
C3566 C 0.35222 0.14499 0.56973 0.0
C3567 C 0.36973 0.12387 0.56293 0.0
N3568 N 0.38492 0.07926 0.5723 0.0
N3569 N 0.33104 0.16771 0.606 0.0
C3570 C 0.36743 0.09946 0.57692 0.0
C3571 C 0.33856 0.14446 0.59433 0.0
N3572 N 0.33986 0.07238 0.60577 0.0
N3573 N 0.34865 0.16571 0.55266 0.0
H3574 H 0.32375 0.16874 0.62524 0.0
H3575 H 0.33535 0.18623 0.59783 0.0
H3576 H 0.35736 0.16613 0.53391 0.0
H3577 H 0.33464 0.18062 0.55593 0.0
H3578 H 0.34666 0.05477 0.59733 0.0
H3579 H 0.32446 0.06986 0.61938 0.0
H3580 H 0.38584 0.06232 0.58411 0.0
H3581 H 0.39975 0.08016 0.55796 0.0
C3582 C 0.40878 0.4179 0.66582 0.0
C3583 C 0.38313 0.42795 0.65986 0.0
C3584 C 0.36452 0.40143 0.69645 0.0
C3585 C 0.39051 0.39239 0.70322 0.0
N3586 N 0.43777 0.40033 0.69981 0.0
N3587 N 0.33841 0.43572 0.67485 0.0
C3588 C 0.41276 0.40346 0.68971 0.0
C3589 C 0.36159 0.4218 0.67699 0.0
N3590 N 0.429 0.42035 0.64796 0.0
N3591 N 0.34248 0.38963 0.70702 0.0
H3592 H 0.33614 0.45135 0.66146 0.0
H3593 H 0.32275 0.43375 0.68823 0.0
H3594 H 0.34324 0.37423 0.72072 0.0
H3595 H 0.32326 0.39365 0.70037 0.0
H3596 H 0.44744 0.41119 0.65045 0.0
H3597 H 0.42649 0.4289 0.62936 0.0
H3598 H 0.45441 0.40975 0.69182 0.0
H3599 H 0.44128 0.39099 0.71791 0.0
C3600 C 0.93805 0.66328 0.6595 0.0
C3601 C 0.95453 0.65591 0.63773 0.0
C3602 C 0.92373 0.67901 0.60737 0.0
C3603 C 0.90789 0.68709 0.62916 0.0
N3604 N 0.90158 0.69003 0.67628 0.0
N3605 N 0.96577 0.66112 0.59162 0.0
C3606 C 0.91564 0.68024 0.6553 0.0
C3607 C 0.94802 0.66486 0.6118 0.0
N3608 N 0.9429 0.65303 0.68409 0.0
N3609 N 0.91544 0.685 0.58232 0.0
H3610 H 0.98406 0.65168 0.59419 0.0
H3611 H 0.96361 0.66935 0.57286 0.0
H3612 H 0.89897 0.69704 0.57857 0.0
H3613 H 0.92395 0.67705 0.5653 0.0
H3614 H 0.92966 0.65442 0.69986 0.0
H3615 H 0.95939 0.64145 0.68861 0.0
H3616 H 0.90803 0.68892 0.69583 0.0
H3617 H 0.88415 0.70093 0.67416 0.0
C3618 C 0.90435 0.35738 0.86796 0.0
C3619 C 0.90526 0.34184 0.89129 0.0
C3620 C 0.94225 0.3695 0.90784 0.0
C3621 C 0.94203 0.38444 0.88386 0.0
N3622 N 0.92806 0.38654 0.83814 0.0
N3623 N 0.92858 0.32913 0.93067 0.0
C3624 C 0.92476 0.37636 0.86297 0.0
C3625 C 0.92552 0.3466 0.91024 0.0
N3626 N 0.88301 0.35538 0.85137 0.0
N3627 N 0.95685 0.37802 0.929 0.0
H3628 H 0.91648 0.3124 0.9327 0.0
H3629 H 0.94444 0.32982 0.94392 0.0
H3630 H 0.9689 0.39482 0.92855 0.0
H3631 H 0.9554 0.36963 0.94778 0.0
H3632 H 0.87983 0.36821 0.83549 0.0
H3633 H 0.86714 0.34257 0.85495 0.0
H3634 H 0.91765 0.37959 0.8217 0.0
H3635 H 0.94327 0.39978 0.83344 0.0
C3636 C 0.60838 0.8196 0.36421 0.0
C3637 C 0.62451 0.81929 0.38751 0.0
C3638 C 0.60159 0.85963 0.40335 0.0
C3639 C 0.58622 0.86033 0.3799 0.0
N3640 N 0.56978 0.83809 0.34146 0.0
N3641 N 0.62969 0.83386 0.43267 0.0
C3642 C 0.58794 0.83921 0.36153 0.0
C3643 C 0.61885 0.83768 0.40818 0.0
N3644 N 0.6134 0.80241 0.34392 0.0
N3645 N 0.60083 0.88071 0.42032 0.0
H3646 H 0.64163 0.81755 0.43711 0.0
H3647 H 0.62454 0.84509 0.4492 0.0
H3648 H 0.5883 0.89695 0.41746 0.0
H3649 H 0.61389 0.88296 0.43617 0.0
H3650 H 0.60498 0.80427 0.32519 0.0
H3651 H 0.62679 0.78676 0.34516 0.0
H3652 H 0.56791 0.82203 0.32864 0.0
H3653 H 0.55489 0.85238 0.33925 0.0
C3654 C 0.10299 0.17578 0.86122 0.0
C3655 C 0.10374 0.18998 0.88542 0.0
C3656 C 0.06892 0.16053 0.90355 0.0
C3657 C 0.06864 0.14566 0.87949 0.0
N3658 N 0.07993 0.14435 0.83309 0.0
N3659 N 0.08272 0.20082 0.92645 0.0
C3660 C 0.08402 0.15495 0.85763 0.0
C3661 C 0.08504 0.18389 0.90549 0.0
N3662 N 0.12124 0.18136 0.84202 0.0
N3663 N 0.05522 0.15163 0.92516 0.0
H3664 H 0.09423 0.21802 0.92797 0.0
H3665 H 0.06786 0.19936 0.94072 0.0
H3666 H 0.04272 0.13521 0.92488 0.0
H3667 H 0.05747 0.15961 0.94402 0.0
H3668 H 0.12441 0.16941 0.82552 0.0
H3669 H 0.1343 0.19733 0.84324 0.0
H3670 H 0.08832 0.15197 0.81585 0.0
H3671 H 0.06597 0.12956 0.8295 0.0
C3672 C 0.90237 0.18711 0.90659 0.0
C3673 C 0.89038 0.20088 0.88505 0.0
C3674 C 0.92226 0.17881 0.85518 0.0
C3675 C 0.93031 0.16155 0.87592 0.0
N3676 N 0.92429 0.14684 0.92096 0.0
N3677 N 0.88784 0.20764 0.8377 0.0
C3678 C 0.91962 0.16522 0.90163 0.0
C3679 C 0.90029 0.19649 0.85901 0.0
N3680 N 0.8975 0.19515 0.93193 0.0
N3681 N 0.93583 0.17831 0.8318 0.0
H3682 H 0.87157 0.22033 0.83931 0.0
H3683 H 0.89236 0.20264 0.81821 0.0
H3684 H 0.95215 0.16586 0.82878 0.0
H3685 H 0.93265 0.19197 0.81664 0.0
H3686 H 0.90748 0.18736 0.94827 0.0
H3687 H 0.88585 0.2117 0.93625 0.0
H3688 H 0.91475 0.14716 0.93926 0.0
H3689 H 0.93549 0.12973 0.91786 0.0
C3690 C 0.58713 0.36626 0.15467 0.0
C3691 C 0.56995 0.37165 0.13285 0.0
C3692 C 0.58988 0.33344 0.10934 0.0
C3693 C 0.60968 0.33131 0.12916 0.0
N3694 N 0.62786 0.34592 0.17057 0.0
N3695 N 0.55461 0.35933 0.0891 0.0
C3696 C 0.60824 0.34753 0.15197 0.0
C3697 C 0.57084 0.3546 0.11027 0.0
N3698 N 0.5828 0.37858 0.17835 0.0
N3699 N 0.58936 0.31486 0.08968 0.0
H3700 H 0.53927 0.37315 0.08927 0.0
H3701 H 0.55688 0.35016 0.07078 0.0
H3702 H 0.60322 0.29943 0.08878 0.0
H3703 H 0.57416 0.31327 0.07578 0.0
H3704 H 0.59276 0.37365 0.19574 0.0
H3705 H 0.56727 0.39189 0.18131 0.0
H3706 H 0.63028 0.35957 0.18585 0.0
H3707 H 0.64274 0.33159 0.16983 0.0
C3708 C 0.62567 0.17396 0.11214 0.0
C3709 C 0.63128 0.19169 0.13344 0.0
C3710 C 0.59232 0.17341 0.15714 0.0
C3711 C 0.58981 0.15323 0.13784 0.0
N3712 N 0.60624 0.13202 0.09861 0.0
N3713 N 0.62047 0.20642 0.17788 0.0
C3714 C 0.60695 0.15302 0.11568 0.0
C3715 C 0.61448 0.19125 0.15627 0.0
N3716 N 0.63769 0.17755 0.08816 0.0
N3717 N 0.57337 0.17536 0.17639 0.0
H3718 H 0.63622 0.21976 0.17858 0.0
H3719 H 0.61092 0.20441 0.19604 0.0
H3720 H 0.55733 0.16223 0.17749 0.0
H3721 H 0.57222 0.19116 0.18962 0.0
H3722 H 0.63251 0.16687 0.07128 0.0
H3723 H 0.6507 0.19317 0.08437 0.0
H3724 H 0.62018 0.12914 0.08364 0.0
H3725 H 0.59294 0.11629 0.10084 0.0
C3726 C 0.41022 0.35707 0.12118 0.0
C3727 C 0.42944 0.35628 0.14174 0.0
C3728 C 0.41418 0.3115 0.15429 0.0
C3729 C 0.39465 0.31239 0.13391 0.0
N3730 N 0.37139 0.33708 0.10033 0.0
N3731 N 0.44827 0.33472 0.17965 0.0
C3732 C 0.39189 0.33556 0.11806 0.0
C3733 C 0.43092 0.33401 0.15884 0.0
N3734 N 0.40991 0.37836 0.10441 0.0
N3735 N 0.41701 0.28882 0.1689 0.0
H3736 H 0.46143 0.35046 0.18262 0.0
H3737 H 0.44892 0.32056 0.19463 0.0
H3738 H 0.40398 0.27279 0.16727 0.0
H3739 H 0.43261 0.28535 0.18198 0.0
H3740 H 0.39851 0.37939 0.08726 0.0
H3741 H 0.42233 0.39475 0.10694 0.0
H3742 H 0.36657 0.35406 0.08964 0.0
H3743 H 0.35777 0.32172 0.09763 0.0
loop_
_geom_bond_atom_site_label_1
_geom_bond_atom_site_label_2
_geom_bond_distance
_geom_bond_site_symmetry_2
_ccdc_geom_bond_type
C0 C1 1.351 . S
C0 N3 1.368 . S
C0 H5 0.931 . S
C1 C0 1.351 . S
C1 N2 1.373 . S
C1 H29 0.930 . S
N2 C1 1.373 . S
N2 C4 1.340 . S
N3 C0 1.368 . S
N3 C4 1.321 . S
N3 Co6 2.135 . S
C4 N2 1.340 . S
C4 N3 1.321 . S
C4 H28 0.930 . S
H5 C0 0.931 . S
Co6 N3 2.135 . S
Co6 N9 2.121 . S
Co6 O14 2.055 . S
Co6 O17 2.039 . S
Co6 N20 2.140 . S
C7 O8 1.227 . S
C7 O17 1.265 . S
O8 C7 1.227 . S
N9 Co6 2.121 . S
N9 C11 1.375 . S
N9 C12 1.313 . S
C10 C11 1.338 . S
C10 N13 1.377 . S
C10 H30 0.930 . S
C11 N9 1.375 . S
C11 C10 1.338 . S
C11 H15 0.931 . S
C12 N9 1.313 . S
C12 N13 1.344 . S
C12 H16 0.930 . S
N13 C10 1.377 . S
N13 C12 1.344 . S
O14 Co6 2.055 . S
O14 C18 1.253 . S
H15 C11 0.931 . S
H16 C12 0.930 . S
O17 Co6 2.039 . S
O17 C7 1.265 . S
C18 O14 1.253 . S
C18 O19 1.227 . S
O19 C18 1.227 . S
N20 Co6 2.140 . S
N20 C23 1.346 . S
N20 C24 1.345 . S
C21 C22 1.387 . S
C21 C25 1.391 . S
C22 C21 1.387 . S
C22 C23 1.369 . S
C22 H31 0.929 . S
C23 N20 1.346 . S
C23 C22 1.369 . S
C23 H26 0.928 . S
C24 N20 1.345 . S
C24 C25 1.371 . S
C24 H27 0.931 . S
C25 C21 1.391 . S
C25 C24 1.371 . S
C25 H32 0.930 . S
H26 C23 0.928 . S
H27 C24 0.931 . S
H28 C4 0.930 . S
H29 C1 0.930 . S
H30 C10 0.930 . S
H31 C22 0.929 . S
H32 C25 0.930 . S
C33 C34 1.351 . S
C33 N36 1.368 . S
C33 H38 0.931 . S
C34 C33 1.351 . S
C34 N35 1.373 . S
C34 H62 0.930 . S
N35 C34 1.373 . S
N35 C37 1.340 . S
N36 C33 1.368 . S
N36 C37 1.321 . S
N36 Co39 2.135 . S
C37 N35 1.340 . S
C37 N36 1.321 . S
C37 H61 0.930 . S
H38 C33 0.931 . S
Co39 N36 2.135 . S
Co39 N42 2.121 1_554 S
Co39 O47 2.055 . S
Co39 O50 2.039 1_554 S
Co39 N53 2.140 . S
C40 O41 1.227 . S
C40 O50 1.265 . S
O41 C40 1.227 . S
N42 Co39 2.121 1_556 S
N42 C44 1.375 . S
N42 C45 1.313 . S
C43 C44 1.338 . S
C43 N46 1.377 . S
C43 H63 0.930 . S
C44 N42 1.375 . S
C44 C43 1.338 . S
C44 H48 0.931 . S
C45 N42 1.313 . S
C45 N46 1.344 . S
C45 H49 0.930 1_556 S
N46 C43 1.377 . S
N46 C45 1.344 . S
O47 Co39 2.055 . S
O47 C51 1.253 . S
H48 C44 0.931 . S
H49 C45 0.930 1_554 S
O50 Co39 2.039 1_556 S
O50 C40 1.265 . S
C51 O47 1.253 . S
C51 O52 1.227 . S
O52 C51 1.227 . S
N53 Co39 2.140 . S
N53 C56 1.346 . S
N53 C57 1.345 . S
C54 C55 1.387 . S
C54 C58 1.391 . S
C55 C54 1.387 . S
C55 C56 1.369 . S
C55 H64 0.929 . S
C56 N53 1.346 . S
C56 C55 1.369 . S
C56 H59 0.928 . S
C57 N53 1.345 . S
C57 C58 1.371 . S
C57 H60 0.931 . S
C58 C54 1.391 . S
C58 C57 1.371 . S
C58 H65 0.930 . S
H59 C56 0.928 . S
H60 C57 0.931 . S
H61 C37 0.930 . S
H62 C34 0.930 . S
H63 C43 0.930 . S
H64 C55 0.929 . S
H65 C58 0.930 . S
C66 C67 1.351 . S
C66 N69 1.368 . S
C66 H71 0.931 . S
C67 C66 1.351 . S
C67 N68 1.373 . S
C67 H95 0.930 . S
N68 C67 1.373 . S
N68 C70 1.340 . S
N69 C66 1.368 . S
N69 C70 1.321 . S
N69 Co72 2.135 . S
C70 N68 1.340 . S
C70 N69 1.321 . S
C70 H94 0.930 . S
H71 C66 0.931 . S
Co72 N69 2.135 . S
Co72 N75 2.121 . S
Co72 O80 2.055 . S
Co72 O83 2.039 . S
Co72 N86 2.140 . S
C73 O74 1.227 . S
C73 O83 1.265 . S
O74 C73 1.227 . S
N75 Co72 2.121 . S
N75 C77 1.375 . S
N75 C78 1.313 . S
C76 C77 1.338 . S
C76 N79 1.377 . S
C76 H96 0.930 . S
C77 N75 1.375 . S
C77 C76 1.338 . S
C77 H81 0.931 . S
C78 N75 1.313 . S
C78 N79 1.344 . S
C78 H82 0.930 . S
N79 C76 1.377 . S
N79 C78 1.344 . S
O80 Co72 2.055 . S
O80 C84 1.253 . S
H81 C77 0.931 . S
H82 C78 0.930 . S
O83 Co72 2.039 . S
O83 C73 1.265 . S
C84 O80 1.253 . S
C84 O85 1.227 . S
O85 C84 1.227 . S
N86 Co72 2.140 . S
N86 C89 1.346 . S
N86 C90 1.345 . S
C87 C88 1.387 . S
C87 C91 1.391 . S
C88 C87 1.387 . S
C88 C89 1.369 . S
C88 H97 0.929 . S
C89 N86 1.346 . S
C89 C88 1.369 . S
C89 H92 0.928 . S
C90 N86 1.345 . S
C90 C91 1.371 . S
C90 H93 0.931 . S
C91 C87 1.391 . S
C91 C90 1.371 . S
C91 H98 0.930 . S
H92 C89 0.928 . S
H93 C90 0.931 . S
H94 C70 0.930 . S
H95 C67 0.930 . S
H96 C76 0.930 . S
H97 C88 0.929 . S
H98 C91 0.930 . S
C99 C100 1.351 . S
C99 N102 1.368 . S
C99 H104 0.931 . S
C100 C99 1.351 . S
C100 N101 1.373 . S
C100 H128 0.930 . S
N101 C100 1.373 . S
N101 C103 1.340 . S
N102 C99 1.368 . S
N102 C103 1.321 . S
N102 Co105 2.135 . S
C103 N101 1.340 . S
C103 N102 1.321 . S
C103 H127 0.930 . S
H104 C99 0.931 . S
Co105 N102 2.135 . S
Co105 N108 2.121 1_554 S
Co105 O113 2.055 . S
Co105 O116 2.039 1_554 S
Co105 N119 2.140 . S
C106 O107 1.227 . S
C106 O116 1.265 . S
O107 C106 1.227 . S
N108 Co105 2.121 1_556 S
N108 C110 1.375 . S
N108 C111 1.313 . S
C109 C110 1.338 . S
C109 N112 1.377 . S
C109 H129 0.930 . S
C110 N108 1.375 . S
C110 C109 1.338 . S
C110 H114 0.931 . S
C111 N108 1.313 . S
C111 N112 1.344 . S
C111 H115 0.930 1_556 S
N112 C109 1.377 . S
N112 C111 1.344 . S
O113 Co105 2.055 . S
O113 C117 1.253 . S
H114 C110 0.931 . S
H115 C111 0.930 1_554 S
O116 Co105 2.039 1_556 S
O116 C106 1.265 . S
C117 O113 1.253 . S
C117 O118 1.227 . S
O118 C117 1.227 . S
N119 Co105 2.140 . S
N119 C122 1.346 . S
N119 C123 1.345 . S
C120 C121 1.387 . S
C120 C124 1.391 . S
C121 C120 1.387 . S
C121 C122 1.369 . S
C121 H130 0.929 . S
C122 N119 1.346 . S
C122 C121 1.369 . S
C122 H125 0.928 . S
C123 N119 1.345 . S
C123 C124 1.371 . S
C123 H126 0.931 . S
C124 C120 1.391 . S
C124 C123 1.371 . S
C124 H131 0.930 . S
H125 C122 0.928 . S
H126 C123 0.931 . S
H127 C103 0.930 . S
H128 C100 0.930 . S
H129 C109 0.930 . S
H130 C121 0.929 . S
H131 C124 0.930 . S
C132 C133 1.351 . S
C132 N135 1.368 . S
C132 H137 0.931 . S
C133 C132 1.351 . S
C133 N134 1.373 . S
C133 H161 0.930 . S
N134 C133 1.373 . S
N134 C136 1.340 . S
N135 C132 1.368 . S
N135 C136 1.321 . S
N135 Co138 2.135 . S
C136 N134 1.340 . S
C136 N135 1.321 . S
C136 H160 0.930 . S
H137 C132 0.931 . S
Co138 N135 2.135 . S
Co138 N141 2.121 . S
Co138 O146 2.055 . S
Co138 O149 2.039 . S
Co138 N152 2.140 . S
C139 O140 1.227 . S
C139 O149 1.265 . S
O140 C139 1.227 . S
N141 Co138 2.121 . S
N141 C143 1.375 . S
N141 C144 1.313 . S
C142 C143 1.338 . S
C142 N145 1.377 . S
C142 H162 0.930 . S
C143 N141 1.375 . S
C143 C142 1.338 . S
C143 H147 0.931 . S
C144 N141 1.313 . S
C144 N145 1.344 . S
C144 H148 0.930 . S
N145 C142 1.377 . S
N145 C144 1.344 . S
O146 Co138 2.055 . S
O146 C150 1.253 . S
H147 C143 0.931 . S
H148 C144 0.930 . S
O149 Co138 2.039 . S
O149 C139 1.265 . S
C150 O146 1.253 . S
C150 O151 1.227 . S
O151 C150 1.227 . S
N152 Co138 2.140 . S
N152 C155 1.346 . S
N152 C156 1.345 . S
C153 C154 1.387 . S
C153 C157 1.391 . S
C154 C153 1.387 . S
C154 C155 1.369 . S
C154 H163 0.929 . S
C155 N152 1.346 . S
C155 C154 1.369 . S
C155 H158 0.928 . S
C156 N152 1.345 . S
C156 C157 1.371 . S
C156 H159 0.931 . S
C157 C153 1.391 . S
C157 C156 1.371 . S
C157 H164 0.930 . S
H158 C155 0.928 . S
H159 C156 0.931 . S
H160 C136 0.930 . S
H161 C133 0.930 . S
H162 C142 0.930 . S
H163 C154 0.929 . S
H164 C157 0.930 . S
C165 C166 1.351 . S
C165 N168 1.368 . S
C165 H170 0.931 . S
C166 C165 1.351 . S
C166 N167 1.373 . S
C166 H194 0.930 . S
N167 C166 1.373 . S
N167 C169 1.340 . S
N168 C165 1.368 . S
N168 C169 1.321 . S
N168 Co171 2.135 . S
C169 N167 1.340 . S
C169 N168 1.321 . S
C169 H193 0.930 . S
H170 C165 0.931 . S
Co171 N168 2.135 . S
Co171 N174 2.121 1_556 S
Co171 O179 2.055 . S
Co171 O182 2.039 1_556 S
Co171 N185 2.140 . S
C172 O173 1.227 . S
C172 O182 1.265 . S
O173 C172 1.227 . S
N174 Co171 2.121 1_554 S
N174 C176 1.375 . S
N174 C177 1.313 . S
C175 C176 1.338 . S
C175 N178 1.377 . S
C175 H195 0.930 . S
C176 N174 1.375 . S
C176 C175 1.338 . S
C176 H180 0.931 . S
C177 N174 1.313 . S
C177 N178 1.344 . S
C177 H181 0.930 1_554 S
N178 C175 1.377 . S
N178 C177 1.344 . S
O179 Co171 2.055 . S
O179 C183 1.253 . S
H180 C176 0.931 . S
H181 C177 0.930 1_556 S
O182 Co171 2.039 1_554 S
O182 C172 1.265 . S
C183 O179 1.253 . S
C183 O184 1.227 . S
O184 C183 1.227 . S
N185 Co171 2.140 . S
N185 C188 1.346 . S
N185 C189 1.345 . S
C186 C187 1.387 . S
C186 C190 1.391 . S
C187 C186 1.387 . S
C187 C188 1.369 . S
C187 H196 0.929 . S
C188 N185 1.346 . S
C188 C187 1.369 . S
C188 H191 0.928 . S
C189 N185 1.345 . S
C189 C190 1.371 . S
C189 H192 0.931 . S
C190 C186 1.391 . S
C190 C189 1.371 . S
C190 H197 0.930 . S
H191 C188 0.928 . S
H192 C189 0.931 . S
H193 C169 0.930 . S
H194 C166 0.930 . S
H195 C175 0.930 . S
H196 C187 0.929 . S
H197 C190 0.930 . S
C198 C199 1.351 . S
C198 N201 1.368 . S
C198 H203 0.931 . S
C199 C198 1.351 . S
C199 N200 1.373 . S
C199 H227 0.930 . S
N200 C199 1.373 . S
N200 C202 1.340 . S
N201 C198 1.368 . S
N201 C202 1.321 . S
N201 Co204 2.135 . S
C202 N200 1.340 . S
C202 N201 1.321 . S
C202 H226 0.930 . S
H203 C198 0.931 . S
Co204 N201 2.135 . S
Co204 N207 2.121 . S
Co204 O212 2.055 . S
Co204 O215 2.039 . S
Co204 N218 2.140 . S
C205 O206 1.227 . S
C205 O215 1.265 . S
O206 C205 1.227 . S
N207 Co204 2.121 . S
N207 C209 1.375 . S
N207 C210 1.313 . S
C208 C209 1.338 . S
C208 N211 1.377 . S
C208 H228 0.930 . S
C209 N207 1.375 . S
C209 C208 1.338 . S
C209 H213 0.931 . S
C210 N207 1.313 . S
C210 N211 1.344 . S
C210 H214 0.930 . S
N211 C208 1.377 . S
N211 C210 1.344 . S
O212 Co204 2.055 . S
O212 C216 1.253 . S
H213 C209 0.931 . S
H214 C210 0.930 . S
O215 Co204 2.039 . S
O215 C205 1.265 . S
C216 O212 1.253 . S
C216 O217 1.227 . S
O217 C216 1.227 . S
N218 Co204 2.140 . S
N218 C221 1.346 . S
N218 C222 1.345 . S
C219 C220 1.387 . S
C219 C223 1.391 . S
C220 C219 1.387 . S
C220 C221 1.369 . S
C220 H229 0.929 . S
C221 N218 1.346 . S
C221 C220 1.369 . S
C221 H224 0.928 . S
C222 N218 1.345 . S
C222 C223 1.371 . S
C222 H225 0.931 . S
C223 C219 1.391 . S
C223 C222 1.371 . S
C223 H230 0.930 . S
H224 C221 0.928 . S
H225 C222 0.931 . S
H226 C202 0.930 . S
H227 C199 0.930 . S
H228 C208 0.930 . S
H229 C220 0.929 . S
H230 C223 0.930 . S
C231 C232 1.351 . S
C231 N234 1.368 . S
C231 H236 0.931 . S
C232 C231 1.351 . S
C232 N233 1.373 . S
C232 H260 0.930 . S
N233 C232 1.373 . S
N233 C235 1.340 . S
N234 C231 1.368 . S
N234 C235 1.321 . S
N234 Co237 2.135 . S
C235 N233 1.340 . S
C235 N234 1.321 . S
C235 H259 0.930 . S
H236 C231 0.931 . S
Co237 N234 2.135 . S
Co237 N240 2.121 1_556 S
Co237 O245 2.055 . S
Co237 O248 2.039 1_556 S
Co237 N251 2.140 . S
C238 O239 1.227 . S
C238 O248 1.265 . S
O239 C238 1.227 . S
N240 Co237 2.121 1_554 S
N240 C242 1.375 . S
N240 C243 1.313 . S
C241 C242 1.338 . S
C241 N244 1.377 . S
C241 H261 0.930 . S
C242 N240 1.375 . S
C242 C241 1.338 . S
C242 H246 0.931 . S
C243 N240 1.313 . S
C243 N244 1.344 . S
C243 H247 0.930 1_554 S
N244 C241 1.377 . S
N244 C243 1.344 . S
O245 Co237 2.055 . S
O245 C249 1.253 . S
H246 C242 0.931 . S
H247 C243 0.930 1_556 S
O248 Co237 2.039 1_554 S
O248 C238 1.265 . S
C249 O245 1.253 . S
C249 O250 1.227 . S
O250 C249 1.227 . S
N251 Co237 2.140 . S
N251 C254 1.346 . S
N251 C255 1.345 . S
C252 C253 1.387 . S
C252 C256 1.391 . S
C253 C252 1.387 . S
C253 C254 1.369 . S
C253 H262 0.929 . S
C254 N251 1.346 . S
C254 C253 1.369 . S
C254 H257 0.928 . S
C255 N251 1.345 . S
C255 C256 1.371 . S
C255 H258 0.931 . S
C256 C252 1.391 . S
C256 C255 1.371 . S
C256 H263 0.930 . S
H257 C254 0.928 . S
H258 C255 0.931 . S
H259 C235 0.930 . S
H260 C232 0.930 . S
H261 C241 0.930 . S
H262 C253 0.929 . S
H263 C256 0.930 . S
C264 C265 1.351 . S
C264 N267 1.368 . S
C264 H269 0.931 . S
C265 C264 1.351 . S
C265 N266 1.373 . S
C265 H293 0.930 . S
N266 C265 1.373 . S
N266 C268 1.340 . S
N267 C264 1.368 . S
N267 C268 1.321 . S
N267 Co270 2.135 . S
C268 N266 1.340 . S
C268 N267 1.321 . S
C268 H292 0.930 . S
H269 C264 0.931 . S
Co270 N267 2.135 . S
Co270 N273 2.121 . S
Co270 O278 2.055 . S
Co270 O281 2.039 . S
Co270 N284 2.140 . S
C271 O272 1.227 . S
C271 O281 1.265 . S
O272 C271 1.227 . S
N273 Co270 2.121 . S
N273 C275 1.375 . S
N273 C276 1.313 . S
C274 C275 1.338 . S
C274 N277 1.377 . S
C274 H294 0.930 . S
C275 N273 1.375 . S
C275 C274 1.338 . S
C275 H279 0.931 . S
C276 N273 1.313 . S
C276 N277 1.344 . S
C276 H280 0.930 . S
N277 C274 1.377 . S
N277 C276 1.344 . S
O278 Co270 2.055 . S
O278 C282 1.253 . S
H279 C275 0.931 . S
H280 C276 0.930 . S
O281 Co270 2.039 . S
O281 C271 1.265 . S
C282 O278 1.253 . S
C282 O283 1.227 . S
O283 C282 1.227 . S
N284 Co270 2.140 . S
N284 C287 1.346 . S
N284 C288 1.345 . S
C285 C286 1.387 . S
C285 C289 1.391 . S
C286 C285 1.387 . S
C286 C287 1.369 . S
C286 H295 0.929 . S
C287 N284 1.346 . S
C287 C286 1.369 . S
C287 H290 0.928 . S
C288 N284 1.345 . S
C288 C289 1.371 . S
C288 H291 0.931 . S
C289 C285 1.391 . S
C289 C288 1.371 . S
C289 H296 0.930 . S
H290 C287 0.928 . S
H291 C288 0.931 . S
H292 C268 0.930 . S
H293 C265 0.930 . S
H294 C274 0.930 . S
H295 C286 0.929 . S
H296 C289 0.930 . S
C297 C298 1.351 . S
C297 N300 1.368 . S
C297 H302 0.931 . S
C298 C297 1.351 . S
C298 N299 1.373 . S
C298 H326 0.930 . S
N299 C298 1.373 . S
N299 C301 1.340 . S
N300 C297 1.368 . S
N300 C301 1.321 . S
N300 Co303 2.135 . S
C301 N299 1.340 . S
C301 N300 1.321 . S
C301 H325 0.930 . S
H302 C297 0.931 . S
Co303 N300 2.135 . S
Co303 N306 2.121 . S
Co303 O311 2.055 . S
Co303 O314 2.039 . S
Co303 N317 2.140 . S
C304 O305 1.227 . S
C304 O314 1.265 . S
O305 C304 1.227 . S
N306 Co303 2.121 . S
N306 C308 1.375 . S
N306 C309 1.313 . S
C307 C308 1.338 . S
C307 N310 1.377 . S
C307 H327 0.930 . S
C308 N306 1.375 . S
C308 C307 1.338 . S
C308 H312 0.931 . S
C309 N306 1.313 . S
C309 N310 1.344 . S
C309 H313 0.930 . S
N310 C307 1.377 . S
N310 C309 1.344 . S
O311 Co303 2.055 . S
O311 C315 1.253 . S
H312 C308 0.931 . S
H313 C309 0.930 . S
O314 Co303 2.039 . S
O314 C304 1.265 . S
C315 O311 1.253 . S
C315 O316 1.227 . S
O316 C315 1.227 . S
N317 Co303 2.140 . S
N317 C320 1.346 . S
N317 C321 1.345 . S
C318 C319 1.387 . S
C318 C322 1.391 . S
C319 C318 1.387 . S
C319 C320 1.369 . S
C319 H328 0.929 . S
C320 N317 1.346 . S
C320 C319 1.369 . S
C320 H323 0.928 . S
C321 N317 1.345 . S
C321 C322 1.371 . S
C321 H324 0.931 . S
C322 C318 1.391 . S
C322 C321 1.371 . S
C322 H329 0.930 . S
H323 C320 0.928 . S
H324 C321 0.931 . S
H325 C301 0.930 . S
H326 C298 0.930 . S
H327 C307 0.930 . S
H328 C319 0.929 . S
H329 C322 0.930 . S
C330 C331 1.351 . S
C330 N333 1.368 . S
C330 H335 0.931 . S
C331 C330 1.351 . S
C331 N332 1.373 . S
C331 H359 0.930 . S
N332 C331 1.373 . S
N332 C334 1.340 . S
N333 C330 1.368 . S
N333 C334 1.321 . S
N333 Co336 2.135 . S
C334 N332 1.340 . S
C334 N333 1.321 . S
C334 H358 0.930 . S
H335 C330 0.931 . S
Co336 N333 2.135 . S
Co336 N339 2.121 . S
Co336 O344 2.055 . S
Co336 O347 2.039 . S
Co336 N350 2.140 . S
C337 O338 1.227 . S
C337 O347 1.265 . S
O338 C337 1.227 . S
N339 Co336 2.121 . S
N339 C341 1.375 . S
N339 C342 1.313 . S
C340 C341 1.338 . S
C340 N343 1.377 . S
C340 H360 0.930 . S
C341 N339 1.375 . S
C341 C340 1.338 . S
C341 H345 0.931 . S
C342 N339 1.313 . S
C342 N343 1.344 . S
C342 H346 0.930 . S
N343 C340 1.377 . S
N343 C342 1.344 . S
O344 Co336 2.055 . S
O344 C348 1.253 . S
H345 C341 0.931 . S
H346 C342 0.930 . S
O347 Co336 2.039 . S
O347 C337 1.265 . S
C348 O344 1.253 . S
C348 O349 1.227 . S
O349 C348 1.227 . S
N350 Co336 2.140 . S
N350 C353 1.346 . S
N350 C354 1.345 . S
C351 C352 1.387 . S
C351 C355 1.391 . S
C352 C351 1.387 . S
C352 C353 1.369 . S
C352 H361 0.929 . S
C353 N350 1.346 . S
C353 C352 1.369 . S
C353 H356 0.928 . S
C354 N350 1.345 . S
C354 C355 1.371 . S
C354 H357 0.931 . S
C355 C351 1.391 . S
C355 C354 1.371 . S
C355 H362 0.930 . S
H356 C353 0.928 . S
H357 C354 0.931 . S
H358 C334 0.930 . S
H359 C331 0.930 . S
H360 C340 0.930 . S
H361 C352 0.929 . S
H362 C355 0.930 . S
C363 C364 1.351 . S
C363 N366 1.368 . S
C363 H368 0.931 . S
C364 C363 1.351 . S
C364 N365 1.373 . S
C364 H392 0.930 . S
N365 C364 1.373 . S
N365 C367 1.340 . S
N366 C363 1.368 . S
N366 C367 1.321 . S
N366 Co369 2.135 . S
C367 N365 1.340 . S
C367 N366 1.321 . S
C367 H391 0.930 . S
H368 C363 0.931 . S
Co369 N366 2.135 . S
Co369 N372 2.121 1_565 S
Co369 O377 2.055 . S
Co369 O380 2.039 1_565 S
Co369 N383 2.140 . S
C370 O371 1.227 . S
C370 O380 1.265 . S
O371 C370 1.227 . S
N372 Co369 2.121 1_545 S
N372 C374 1.375 . S
N372 C375 1.313 . S
C373 C374 1.338 . S
C373 N376 1.377 . S
C373 H393 0.930 . S
C374 N372 1.375 . S
C374 C373 1.338 . S
C374 H378 0.931 . S
C375 N372 1.313 . S
C375 N376 1.344 . S
C375 H379 0.930 1_545 S
N376 C373 1.377 . S
N376 C375 1.344 . S
O377 Co369 2.055 . S
O377 C381 1.253 . S
H378 C374 0.931 . S
H379 C375 0.930 1_565 S
O380 Co369 2.039 1_545 S
O380 C370 1.265 . S
C381 O377 1.253 . S
C381 O382 1.227 . S
O382 C381 1.227 . S
N383 Co369 2.140 . S
N383 C386 1.346 . S
N383 C387 1.345 . S
C384 C385 1.387 . S
C384 C388 1.391 . S
C385 C384 1.387 . S
C385 C386 1.369 . S
C385 H394 0.929 . S
C386 N383 1.346 . S
C386 C385 1.369 . S
C386 H389 0.928 . S
C387 N383 1.345 . S
C387 C388 1.371 . S
C387 H390 0.931 . S
C388 C384 1.391 . S
C388 C387 1.371 . S
C388 H395 0.930 . S
H389 C386 0.928 . S
H390 C387 0.931 . S
H391 C367 0.930 . S
H392 C364 0.930 . S
H393 C373 0.930 . S
H394 C385 0.929 . S
H395 C388 0.930 . S
C396 C397 1.351 . S
C396 N399 1.368 . S
C396 H401 0.931 . S
C397 C396 1.351 . S
C397 N398 1.373 . S
C397 H425 0.930 . S
N398 C397 1.373 . S
N398 C400 1.340 . S
N399 C396 1.368 . S
N399 C400 1.321 . S
N399 Co402 2.135 . S
C400 N398 1.340 . S
C400 N399 1.321 . S
C400 H424 0.930 . S
H401 C396 0.931 . S
Co402 N399 2.135 . S
Co402 N405 2.121 . S
Co402 O410 2.055 . S
Co402 O413 2.039 . S
Co402 N416 2.140 . S
C403 O404 1.227 . S
C403 O413 1.265 . S
O404 C403 1.227 . S
N405 Co402 2.121 . S
N405 C407 1.375 . S
N405 C408 1.313 . S
C406 C407 1.338 . S
C406 N409 1.377 . S
C406 H426 0.930 . S
C407 N405 1.375 . S
C407 C406 1.338 . S
C407 H411 0.931 . S
C408 N405 1.313 . S
C408 N409 1.344 . S
C408 H412 0.930 . S
N409 C406 1.377 . S
N409 C408 1.344 . S
O410 Co402 2.055 . S
O410 C414 1.253 . S
H411 C407 0.931 . S
H412 C408 0.930 . S
O413 Co402 2.039 . S
O413 C403 1.265 . S
C414 O410 1.253 . S
C414 O415 1.227 . S
O415 C414 1.227 . S
N416 Co402 2.140 . S
N416 C419 1.346 . S
N416 C420 1.345 . S
C417 C418 1.387 . S
C417 C421 1.391 . S
C418 C417 1.387 . S
C418 C419 1.369 . S
C418 H427 0.929 . S
C419 N416 1.346 . S
C419 C418 1.369 . S
C419 H422 0.928 . S
C420 N416 1.345 . S
C420 C421 1.371 . S
C420 H423 0.931 . S
C421 C417 1.391 . S
C421 C420 1.371 . S
C421 H428 0.930 . S
H422 C419 0.928 . S
H423 C420 0.931 . S
H424 C400 0.930 . S
H425 C397 0.930 . S
H426 C406 0.930 . S
H427 C418 0.929 . S
H428 C421 0.930 . S
C429 C430 1.351 . S
C429 N432 1.368 . S
C429 H434 0.931 . S
C430 C429 1.351 . S
C430 N431 1.373 . S
C430 H458 0.930 . S
N431 C430 1.373 . S
N431 C433 1.340 . S
N432 C429 1.368 . S
N432 C433 1.321 . S
N432 Co435 2.135 . S
C433 N431 1.340 . S
C433 N432 1.321 . S
C433 H457 0.930 . S
H434 C429 0.931 . S
Co435 N432 2.135 . S
Co435 N438 2.121 . S
Co435 O443 2.055 . S
Co435 O446 2.039 . S
Co435 N449 2.140 . S
C436 O437 1.227 . S
C436 O446 1.265 . S
O437 C436 1.227 . S
N438 Co435 2.121 . S
N438 C440 1.375 . S
N438 C441 1.313 . S
C439 C440 1.338 . S
C439 N442 1.377 . S
C439 H459 0.930 . S
C440 N438 1.375 . S
C440 C439 1.338 . S
C440 H444 0.931 . S
C441 N438 1.313 . S
C441 N442 1.344 . S
C441 H445 0.930 . S
N442 C439 1.377 . S
N442 C441 1.344 . S
O443 Co435 2.055 . S
O443 C447 1.253 . S
H444 C440 0.931 . S
H445 C441 0.930 . S
O446 Co435 2.039 . S
O446 C436 1.265 . S
C447 O443 1.253 . S
C447 O448 1.227 . S
O448 C447 1.227 . S
N449 Co435 2.140 . S
N449 C452 1.346 . S
N449 C453 1.345 . S
C450 C451 1.387 . S
C450 C454 1.391 . S
C451 C450 1.387 . S
C451 C452 1.369 . S
C451 H460 0.929 . S
C452 N449 1.346 . S
C452 C451 1.369 . S
C452 H455 0.928 . S
C453 N449 1.345 . S
C453 C454 1.371 . S
C453 H456 0.931 . S
C454 C450 1.391 . S
C454 C453 1.371 . S
C454 H461 0.930 . S
H455 C452 0.928 . S
H456 C453 0.931 . S
H457 C433 0.930 . S
H458 C430 0.930 . S
H459 C439 0.930 . S
H460 C451 0.929 . S
H461 C454 0.930 . S
C462 C463 1.351 . S
C462 N465 1.368 . S
C462 H467 0.931 . S
C463 C462 1.351 . S
C463 N464 1.373 . S
C463 H491 0.930 . S
N464 C463 1.373 . S
N464 C466 1.340 . S
N465 C462 1.368 . S
N465 C466 1.321 . S
N465 Co468 2.135 . S
C466 N464 1.340 . S
C466 N465 1.321 . S
C466 H490 0.930 . S
H467 C462 0.931 . S
Co468 N465 2.135 . S
Co468 N471 2.121 . S
Co468 O476 2.055 . S
Co468 O479 2.039 . S
Co468 N482 2.140 . S
C469 O470 1.227 . S
C469 O479 1.265 . S
O470 C469 1.227 . S
N471 Co468 2.121 . S
N471 C473 1.375 . S
N471 C474 1.313 . S
C472 C473 1.338 . S
C472 N475 1.377 . S
C472 H492 0.930 . S
C473 N471 1.375 . S
C473 C472 1.338 . S
C473 H477 0.931 . S
C474 N471 1.313 . S
C474 N475 1.344 . S
C474 H478 0.930 . S
N475 C472 1.377 . S
N475 C474 1.344 . S
O476 Co468 2.055 . S
O476 C480 1.253 . S
H477 C473 0.931 . S
H478 C474 0.930 . S
O479 Co468 2.039 . S
O479 C469 1.265 . S
C480 O476 1.253 . S
C480 O481 1.227 . S
O481 C480 1.227 . S
N482 Co468 2.140 . S
N482 C485 1.346 . S
N482 C486 1.345 . S
C483 C484 1.387 . S
C483 C487 1.391 . S
C484 C483 1.387 . S
C484 C485 1.369 . S
C484 H493 0.929 . S
C485 N482 1.346 . S
C485 C484 1.369 . S
C485 H488 0.928 . S
C486 N482 1.345 . S
C486 C487 1.371 . S
C486 H489 0.931 . S
C487 C483 1.391 . S
C487 C486 1.371 . S
C487 H494 0.930 . S
H488 C485 0.928 . S
H489 C486 0.931 . S
H490 C466 0.930 . S
H491 C463 0.930 . S
H492 C472 0.930 . S
H493 C484 0.929 . S
H494 C487 0.930 . S
C495 C496 1.351 . S
C495 N498 1.368 . S
C495 H500 0.931 . S
C496 C495 1.351 . S
C496 N497 1.373 . S
C496 H524 0.930 . S
N497 C496 1.373 . S
N497 C499 1.340 . S
N498 C495 1.368 . S
N498 C499 1.321 . S
N498 Co501 2.135 . S
C499 N497 1.340 . S
C499 N498 1.321 . S
C499 H523 0.930 . S
H500 C495 0.931 . S
Co501 N498 2.135 . S
Co501 N504 2.121 1_565 S
Co501 O509 2.055 . S
Co501 O512 2.039 1_565 S
Co501 N515 2.140 . S
C502 O503 1.227 . S
C502 O512 1.265 . S
O503 C502 1.227 . S
N504 Co501 2.121 1_545 S
N504 C506 1.375 . S
N504 C507 1.313 . S
C505 C506 1.338 . S
C505 N508 1.377 . S
C505 H525 0.930 . S
C506 N504 1.375 . S
C506 C505 1.338 . S
C506 H510 0.931 . S
C507 N504 1.313 . S
C507 N508 1.344 . S
C507 H511 0.930 1_545 S
N508 C505 1.377 . S
N508 C507 1.344 . S
O509 Co501 2.055 . S
O509 C513 1.253 . S
H510 C506 0.931 . S
H511 C507 0.930 1_565 S
O512 Co501 2.039 1_545 S
O512 C502 1.265 . S
C513 O509 1.253 . S
C513 O514 1.227 . S
O514 C513 1.227 . S
N515 Co501 2.140 . S
N515 C518 1.346 . S
N515 C519 1.345 . S
C516 C517 1.387 . S
C516 C520 1.391 . S
C517 C516 1.387 . S
C517 C518 1.369 . S
C517 H526 0.929 . S
C518 N515 1.346 . S
C518 C517 1.369 . S
C518 H521 0.928 . S
C519 N515 1.345 . S
C519 C520 1.371 . S
C519 H522 0.931 . S
C520 C516 1.391 . S
C520 C519 1.371 . S
C520 H527 0.930 . S
H521 C518 0.928 . S
H522 C519 0.931 . S
H523 C499 0.930 . S
H524 C496 0.930 . S
H525 C505 0.930 . S
H526 C517 0.929 . S
H527 C520 0.930 . S
C528 C529 1.351 . S
C528 N531 1.368 . S
C528 H533 0.931 . S
C529 C528 1.351 . S
C529 N530 1.373 . S
C529 H557 0.930 . S
N530 C529 1.373 . S
N530 C532 1.340 . S
N531 C528 1.368 . S
N531 C532 1.321 . S
N531 Co534 2.135 . S
C532 N530 1.340 . S
C532 N531 1.321 . S
C532 H556 0.930 . S
H533 C528 0.931 . S
Co534 N531 2.135 . S
Co534 N537 2.121 . S
Co534 O542 2.055 . S
Co534 O545 2.039 . S
Co534 N548 2.140 . S
C535 O536 1.227 . S
C535 O545 1.265 . S
O536 C535 1.227 . S
N537 Co534 2.121 . S
N537 C539 1.375 . S
N537 C540 1.313 . S
C538 C539 1.338 . S
C538 N541 1.377 . S
C538 H558 0.930 . S
C539 N537 1.375 . S
C539 C538 1.338 . S
C539 H543 0.931 . S
C540 N537 1.313 . S
C540 N541 1.344 . S
C540 H544 0.930 . S
N541 C538 1.377 . S
N541 C540 1.344 . S
O542 Co534 2.055 . S
O542 C546 1.253 . S
H543 C539 0.931 . S
H544 C540 0.930 . S
O545 Co534 2.039 . S
O545 C535 1.265 . S
C546 O542 1.253 . S
C546 O547 1.227 . S
O547 C546 1.227 . S
N548 Co534 2.140 . S
N548 C551 1.346 . S
N548 C552 1.345 . S
C549 C550 1.387 . S
C549 C553 1.391 . S
C550 C549 1.387 . S
C550 C551 1.369 . S
C550 H559 0.929 . S
C551 N548 1.346 . S
C551 C550 1.369 . S
C551 H554 0.928 . S
C552 N548 1.345 . S
C552 C553 1.371 . S
C552 H555 0.931 . S
C553 C549 1.391 . S
C553 C552 1.371 . S
C553 H560 0.930 . S
H554 C551 0.928 . S
H555 C552 0.931 . S
H556 C532 0.930 . S
H557 C529 0.930 . S
H558 C538 0.930 . S
H559 C550 0.929 . S
H560 C553 0.930 . S
C561 C562 1.351 . S
C561 N564 1.368 . S
C561 H566 0.931 . S
C562 C561 1.351 . S
C562 N563 1.373 . S
C562 H590 0.930 . S
N563 C562 1.373 . S
N563 C565 1.340 . S
N564 C561 1.368 . S
N564 C565 1.321 . S
N564 Co567 2.135 . S
C565 N563 1.340 . S
C565 N564 1.321 . S
C565 H589 0.930 . S
H566 C561 0.931 . S
Co567 N564 2.135 . S
Co567 N570 2.121 . S
Co567 O575 2.055 . S
Co567 O578 2.039 . S
Co567 N581 2.140 . S
C568 O569 1.227 . S
C568 O578 1.265 . S
O569 C568 1.227 . S
N570 Co567 2.121 . S
N570 C572 1.375 . S
N570 C573 1.313 . S
C571 C572 1.338 . S
C571 N574 1.377 . S
C571 H591 0.930 . S
C572 N570 1.375 . S
C572 C571 1.338 . S
C572 H576 0.931 . S
C573 N570 1.313 . S
C573 N574 1.344 . S
C573 H577 0.930 . S
N574 C571 1.377 . S
N574 C573 1.344 . S
O575 Co567 2.055 . S
O575 C579 1.253 . S
H576 C572 0.931 . S
H577 C573 0.930 . S
O578 Co567 2.039 . S
O578 C568 1.265 . S
C579 O575 1.253 . S
C579 O580 1.227 . S
O580 C579 1.227 . S
N581 Co567 2.140 . S
N581 C584 1.346 . S
N581 C585 1.345 . S
C582 C583 1.387 . S
C582 C586 1.391 . S
C583 C582 1.387 . S
C583 C584 1.369 . S
C583 H592 0.929 . S
C584 N581 1.346 . S
C584 C583 1.369 . S
C584 H587 0.928 . S
C585 N581 1.345 . S
C585 C586 1.371 . S
C585 H588 0.931 . S
C586 C582 1.391 . S
C586 C585 1.371 . S
C586 H593 0.930 . S
H587 C584 0.928 . S
H588 C585 0.931 . S
H589 C565 0.930 . S
H590 C562 0.930 . S
H591 C571 0.930 . S
H592 C583 0.929 . S
H593 C586 0.930 . S
C594 C595 1.351 . S
C594 N597 1.368 . S
C594 H599 0.931 . S
C595 C594 1.351 . S
C595 N596 1.373 . S
C595 H623 0.930 . S
N596 C595 1.373 . S
N596 C598 1.340 . S
N597 C594 1.368 . S
N597 C598 1.321 . S
N597 Co600 2.135 . S
C598 N596 1.340 . S
C598 N597 1.321 . S
C598 H622 0.930 . S
H599 C594 0.931 . S
Co600 N597 2.135 . S
Co600 N603 2.121 1_455 S
Co600 O608 2.055 . S
Co600 O611 2.039 1_455 S
Co600 N614 2.140 . S
C601 O602 1.227 . S
C601 O611 1.265 . S
O602 C601 1.227 . S
N603 Co600 2.121 1_655 S
N603 C605 1.375 . S
N603 C606 1.313 . S
C604 C605 1.338 . S
C604 N607 1.377 . S
C604 H624 0.930 . S
C605 N603 1.375 . S
C605 C604 1.338 . S
C605 H609 0.931 . S
C606 N603 1.313 . S
C606 N607 1.344 . S
C606 H610 0.930 1_655 S
N607 C604 1.377 . S
N607 C606 1.344 . S
O608 Co600 2.055 . S
O608 C612 1.253 . S
H609 C605 0.931 . S
H610 C606 0.930 1_455 S
O611 Co600 2.039 1_655 S
O611 C601 1.265 . S
C612 O608 1.253 . S
C612 O613 1.227 . S
O613 C612 1.227 . S
N614 Co600 2.140 . S
N614 C617 1.346 . S
N614 C618 1.345 . S
C615 C616 1.387 . S
C615 C619 1.391 . S
C616 C615 1.387 . S
C616 C617 1.369 . S
C616 H625 0.929 . S
C617 N614 1.346 . S
C617 C616 1.369 . S
C617 H620 0.928 . S
C618 N614 1.345 . S
C618 C619 1.371 . S
C618 H621 0.931 . S
C619 C615 1.391 . S
C619 C618 1.371 . S
C619 H626 0.930 . S
H620 C617 0.928 . S
H621 C618 0.931 . S
H622 C598 0.930 . S
H623 C595 0.930 . S
H624 C604 0.930 . S
H625 C616 0.929 . S
H626 C619 0.930 . S
C627 C628 1.351 . S
C627 N630 1.368 . S
C627 H632 0.931 . S
C628 C627 1.351 . S
C628 N629 1.373 . S
C628 H656 0.930 . S
N629 C628 1.373 . S
N629 C631 1.340 . S
N630 C627 1.368 . S
N630 C631 1.321 . S
N630 Co633 2.135 . S
C631 N629 1.340 . S
C631 N630 1.321 . S
C631 H655 0.930 . S
H632 C627 0.931 . S
Co633 N630 2.135 . S
Co633 N636 2.121 . S
Co633 O641 2.055 . S
Co633 O644 2.039 . S
Co633 N647 2.140 . S
C634 O635 1.227 . S
C634 O644 1.265 . S
O635 C634 1.227 . S
N636 Co633 2.121 . S
N636 C638 1.375 . S
N636 C639 1.313 . S
C637 C638 1.338 . S
C637 N640 1.377 . S
C637 H657 0.930 . S
C638 N636 1.375 . S
C638 C637 1.338 . S
C638 H642 0.931 . S
C639 N636 1.313 . S
C639 N640 1.344 . S
C639 H643 0.930 . S
N640 C637 1.377 . S
N640 C639 1.344 . S
O641 Co633 2.055 . S
O641 C645 1.253 . S
H642 C638 0.931 . S
H643 C639 0.930 . S
O644 Co633 2.039 . S
O644 C634 1.265 . S
C645 O641 1.253 . S
C645 O646 1.227 . S
O646 C645 1.227 . S
N647 Co633 2.140 . S
N647 C650 1.346 . S
N647 C651 1.345 . S
C648 C649 1.387 . S
C648 C652 1.391 . S
C649 C648 1.387 . S
C649 C650 1.369 . S
C649 H658 0.929 . S
C650 N647 1.346 . S
C650 C649 1.369 . S
C650 H653 0.928 . S
C651 N647 1.345 . S
C651 C652 1.371 . S
C651 H654 0.931 . S
C652 C648 1.391 . S
C652 C651 1.371 . S
C652 H659 0.930 . S
H653 C650 0.928 . S
H654 C651 0.931 . S
H655 C631 0.930 . S
H656 C628 0.930 . S
H657 C637 0.930 . S
H658 C649 0.929 . S
H659 C652 0.930 . S
C660 C661 1.351 . S
C660 N663 1.368 . S
C660 H665 0.931 . S
C661 C660 1.351 . S
C661 N662 1.373 . S
C661 H689 0.930 . S
N662 C661 1.373 . S
N662 C664 1.340 . S
N663 C660 1.368 . S
N663 C664 1.321 . S
N663 Co666 2.135 . S
C664 N662 1.340 . S
C664 N663 1.321 . S
C664 H688 0.930 . S
H665 C660 0.931 . S
Co666 N663 2.135 . S
Co666 N669 2.121 . S
Co666 O674 2.055 . S
Co666 O677 2.039 . S
Co666 N680 2.140 . S
C667 O668 1.227 . S
C667 O677 1.265 . S
O668 C667 1.227 . S
N669 Co666 2.121 . S
N669 C671 1.375 . S
N669 C672 1.313 . S
C670 C671 1.338 . S
C670 N673 1.377 . S
C670 H690 0.930 . S
C671 N669 1.375 . S
C671 C670 1.338 . S
C671 H675 0.931 . S
C672 N669 1.313 . S
C672 N673 1.344 . S
C672 H676 0.930 . S
N673 C670 1.377 . S
N673 C672 1.344 . S
O674 Co666 2.055 . S
O674 C678 1.253 . S
H675 C671 0.931 . S
H676 C672 0.930 . S
O677 Co666 2.039 . S
O677 C667 1.265 . S
C678 O674 1.253 . S
C678 O679 1.227 . S
O679 C678 1.227 . S
N680 Co666 2.140 . S
N680 C683 1.346 . S
N680 C684 1.345 . S
C681 C682 1.387 . S
C681 C685 1.391 . S
C682 C681 1.387 . S
C682 C683 1.369 . S
C682 H691 0.929 . S
C683 N680 1.346 . S
C683 C682 1.369 . S
C683 H686 0.928 . S
C684 N680 1.345 . S
C684 C685 1.371 . S
C684 H687 0.931 . S
C685 C681 1.391 . S
C685 C684 1.371 . S
C685 H692 0.930 . S
H686 C683 0.928 . S
H687 C684 0.931 . S
H688 C664 0.930 . S
H689 C661 0.930 . S
H690 C670 0.930 . S
H691 C682 0.929 . S
H692 C685 0.930 . S
C693 C694 1.351 . S
C693 N696 1.368 . S
C693 H698 0.931 . S
C694 C693 1.351 . S
C694 N695 1.373 . S
C694 H722 0.930 . S
N695 C694 1.373 . S
N695 C697 1.340 . S
N696 C693 1.368 . S
N696 C697 1.321 . S
N696 Co699 2.135 . S
C697 N695 1.340 . S
C697 N696 1.321 . S
C697 H721 0.930 . S
H698 C693 0.931 . S
Co699 N696 2.135 . S
Co699 N702 2.121 . S
Co699 O707 2.055 . S
Co699 O710 2.039 . S
Co699 N713 2.140 . S
C700 O701 1.227 . S
C700 O710 1.265 . S
O701 C700 1.227 . S
N702 Co699 2.121 . S
N702 C704 1.375 . S
N702 C705 1.313 . S
C703 C704 1.338 . S
C703 N706 1.377 . S
C703 H723 0.930 . S
C704 N702 1.375 . S
C704 C703 1.338 . S
C704 H708 0.931 . S
C705 N702 1.313 . S
C705 N706 1.344 . S
C705 H709 0.930 . S
N706 C703 1.377 . S
N706 C705 1.344 . S
O707 Co699 2.055 . S
O707 C711 1.253 . S
H708 C704 0.931 . S
H709 C705 0.930 . S
O710 Co699 2.039 . S
O710 C700 1.265 . S
C711 O707 1.253 . S
C711 O712 1.227 . S
O712 C711 1.227 . S
N713 Co699 2.140 . S
N713 C716 1.346 . S
N713 C717 1.345 . S
C714 C715 1.387 . S
C714 C718 1.391 . S
C715 C714 1.387 . S
C715 C716 1.369 . S
C715 H724 0.929 . S
C716 N713 1.346 . S
C716 C715 1.369 . S
C716 H719 0.928 . S
C717 N713 1.345 . S
C717 C718 1.371 . S
C717 H720 0.931 . S
C718 C714 1.391 . S
C718 C717 1.371 . S
C718 H725 0.930 . S
H719 C716 0.928 . S
H720 C717 0.931 . S
H721 C697 0.930 . S
H722 C694 0.930 . S
H723 C703 0.930 . S
H724 C715 0.929 . S
H725 C718 0.930 . S
C726 C727 1.351 . S
C726 N729 1.368 . S
C726 H731 0.931 . S
C727 C726 1.351 . S
C727 N728 1.373 . S
C727 H755 0.930 . S
N728 C727 1.373 . S
N728 C730 1.340 . S
N729 C726 1.368 . S
N729 C730 1.321 . S
N729 Co732 2.135 . S
C730 N728 1.340 . S
C730 N729 1.321 . S
C730 H754 0.930 . S
H731 C726 0.931 . S
Co732 N729 2.135 . S
Co732 N735 2.121 1_455 S
Co732 O740 2.055 . S
Co732 O743 2.039 1_455 S
Co732 N746 2.140 . S
C733 O734 1.227 . S
C733 O743 1.265 . S
O734 C733 1.227 . S
N735 Co732 2.121 1_655 S
N735 C737 1.375 . S
N735 C738 1.313 . S
C736 C737 1.338 . S
C736 N739 1.377 . S
C736 H756 0.930 . S
C737 N735 1.375 . S
C737 C736 1.338 . S
C737 H741 0.931 . S
C738 N735 1.313 . S
C738 N739 1.344 . S
C738 H742 0.930 1_655 S
N739 C736 1.377 . S
N739 C738 1.344 . S
O740 Co732 2.055 . S
O740 C744 1.253 . S
H741 C737 0.931 . S
H742 C738 0.930 1_455 S
O743 Co732 2.039 1_655 S
O743 C733 1.265 . S
C744 O740 1.253 . S
C744 O745 1.227 . S
O745 C744 1.227 . S
N746 Co732 2.140 . S
N746 C749 1.346 . S
N746 C750 1.345 . S
C747 C748 1.387 . S
C747 C751 1.391 . S
C748 C747 1.387 . S
C748 C749 1.369 . S
C748 H757 0.929 . S
C749 N746 1.346 . S
C749 C748 1.369 . S
C749 H752 0.928 . S
C750 N746 1.345 . S
C750 C751 1.371 . S
C750 H753 0.931 . S
C751 C747 1.391 . S
C751 C750 1.371 . S
C751 H758 0.930 . S
H752 C749 0.928 . S
H753 C750 0.931 . S
H754 C730 0.930 . S
H755 C727 0.930 . S
H756 C736 0.930 . S
H757 C748 0.929 . S
H758 C751 0.930 . S
C759 C760 1.351 . S
C759 N762 1.368 . S
C759 H764 0.931 . S
C760 C759 1.351 . S
C760 N761 1.373 . S
C760 H788 0.930 . S
N761 C760 1.373 . S
N761 C763 1.340 . S
N762 C759 1.368 . S
N762 C763 1.321 . S
N762 Co765 2.135 . S
C763 N761 1.340 . S
C763 N762 1.321 . S
C763 H787 0.930 . S
H764 C759 0.931 . S
Co765 N762 2.135 . S
Co765 N768 2.121 1_655 S
Co765 O773 2.055 . S
Co765 O776 2.039 1_655 S
Co765 N779 2.140 . S
C766 O767 1.227 . S
C766 O776 1.265 . S
O767 C766 1.227 . S
N768 Co765 2.121 1_455 S
N768 C770 1.375 . S
N768 C771 1.313 . S
C769 C770 1.338 . S
C769 N772 1.377 . S
C769 H789 0.930 . S
C770 N768 1.375 . S
C770 C769 1.338 . S
C770 H774 0.931 . S
C771 N768 1.313 . S
C771 N772 1.344 . S
C771 H775 0.930 1_455 S
N772 C769 1.377 . S
N772 C771 1.344 . S
O773 Co765 2.055 . S
O773 C777 1.253 . S
H774 C770 0.931 . S
H775 C771 0.930 1_655 S
O776 Co765 2.039 1_455 S
O776 C766 1.265 . S
C777 O773 1.253 . S
C777 O778 1.227 . S
O778 C777 1.227 . S
N779 Co765 2.140 . S
N779 C782 1.346 . S
N779 C783 1.345 . S
C780 C781 1.387 . S
C780 C784 1.391 . S
C781 C780 1.387 . S
C781 C782 1.369 . S
C781 H790 0.929 . S
C782 N779 1.346 . S
C782 C781 1.369 . S
C782 H785 0.928 . S
C783 N779 1.345 . S
C783 C784 1.371 . S
C783 H786 0.931 . S
C784 C780 1.391 . S
C784 C783 1.371 . S
C784 H791 0.930 . S
H785 C782 0.928 . S
H786 C783 0.931 . S
H787 C763 0.930 . S
H788 C760 0.930 . S
H789 C769 0.930 . S
H790 C781 0.929 . S
H791 C784 0.930 . S
C792 C793 1.351 . S
C792 N795 1.368 . S
C792 H797 0.931 . S
C793 C792 1.351 . S
C793 N794 1.373 . S
C793 H821 0.930 . S
N794 C793 1.373 . S
N794 C796 1.340 . S
N795 C792 1.368 . S
N795 C796 1.321 . S
N795 Co798 2.135 . S
C796 N794 1.340 . S
C796 N795 1.321 . S
C796 H820 0.930 . S
H797 C792 0.931 . S
Co798 N795 2.135 . S
Co798 N801 2.121 . S
Co798 O806 2.055 . S
Co798 O809 2.039 . S
Co798 N812 2.140 . S
C799 O800 1.227 . S
C799 O809 1.265 . S
O800 C799 1.227 . S
N801 Co798 2.121 . S
N801 C803 1.375 . S
N801 C804 1.313 . S
C802 C803 1.338 . S
C802 N805 1.377 . S
C802 H822 0.930 . S
C803 N801 1.375 . S
C803 C802 1.338 . S
C803 H807 0.931 . S
C804 N801 1.313 . S
C804 N805 1.344 . S
C804 H808 0.930 . S
N805 C802 1.377 . S
N805 C804 1.344 . S
O806 Co798 2.055 . S
O806 C810 1.253 . S
H807 C803 0.931 . S
H808 C804 0.930 . S
O809 Co798 2.039 . S
O809 C799 1.265 . S
C810 O806 1.253 . S
C810 O811 1.227 . S
O811 C810 1.227 . S
N812 Co798 2.140 . S
N812 C815 1.346 . S
N812 C816 1.345 . S
C813 C814 1.387 . S
C813 C817 1.391 . S
C814 C813 1.387 . S
C814 C815 1.369 . S
C814 H823 0.929 . S
C815 N812 1.346 . S
C815 C814 1.369 . S
C815 H818 0.928 . S
C816 N812 1.345 . S
C816 C817 1.371 . S
C816 H819 0.931 . S
C817 C813 1.391 . S
C817 C816 1.371 . S
C817 H824 0.930 . S
H818 C815 0.928 . S
H819 C816 0.931 . S
H820 C796 0.930 . S
H821 C793 0.930 . S
H822 C802 0.930 . S
H823 C814 0.929 . S
H824 C817 0.930 . S
C825 C826 1.351 . S
C825 N828 1.368 . S
C825 H830 0.931 . S
C826 C825 1.351 . S
C826 N827 1.373 . S
C826 H854 0.930 . S
N827 C826 1.373 . S
N827 C829 1.340 . S
N828 C825 1.368 . S
N828 C829 1.321 . S
N828 Co831 2.135 . S
C829 N827 1.340 . S
C829 N828 1.321 . S
C829 H853 0.930 . S
H830 C825 0.931 . S
Co831 N828 2.135 . S
Co831 N834 2.121 . S
Co831 O839 2.055 . S
Co831 O842 2.039 . S
Co831 N845 2.140 . S
C832 O833 1.227 . S
C832 O842 1.265 . S
O833 C832 1.227 . S
N834 Co831 2.121 . S
N834 C836 1.375 . S
N834 C837 1.313 . S
C835 C836 1.338 . S
C835 N838 1.377 . S
C835 H855 0.930 . S
C836 N834 1.375 . S
C836 C835 1.338 . S
C836 H840 0.931 . S
C837 N834 1.313 . S
C837 N838 1.344 . S
C837 H841 0.930 . S
N838 C835 1.377 . S
N838 C837 1.344 . S
O839 Co831 2.055 . S
O839 C843 1.253 . S
H840 C836 0.931 . S
H841 C837 0.930 . S
O842 Co831 2.039 . S
O842 C832 1.265 . S
C843 O839 1.253 . S
C843 O844 1.227 . S
O844 C843 1.227 . S
N845 Co831 2.140 . S
N845 C848 1.346 . S
N845 C849 1.345 . S
C846 C847 1.387 . S
C846 C850 1.391 . S
C847 C846 1.387 . S
C847 C848 1.369 . S
C847 H856 0.929 . S
C848 N845 1.346 . S
C848 C847 1.369 . S
C848 H851 0.928 . S
C849 N845 1.345 . S
C849 C850 1.371 . S
C849 H852 0.931 . S
C850 C846 1.391 . S
C850 C849 1.371 . S
C850 H857 0.930 . S
H851 C848 0.928 . S
H852 C849 0.931 . S
H853 C829 0.930 . S
H854 C826 0.930 . S
H855 C835 0.930 . S
H856 C847 0.929 . S
H857 C850 0.930 . S
C858 C859 1.351 . S
C858 N861 1.368 . S
C858 H863 0.931 . S
C859 C858 1.351 . S
C859 N860 1.373 . S
C859 H887 0.930 . S
N860 C859 1.373 . S
N860 C862 1.340 . S
N861 C858 1.368 . S
N861 C862 1.321 . S
N861 Co864 2.135 . S
C862 N860 1.340 . S
C862 N861 1.321 . S
C862 H886 0.930 . S
H863 C858 0.931 . S
Co864 N861 2.135 . S
Co864 N867 2.121 . S
Co864 O872 2.055 . S
Co864 O875 2.039 . S
Co864 N878 2.140 . S
C865 O866 1.227 . S
C865 O875 1.265 . S
O866 C865 1.227 . S
N867 Co864 2.121 . S
N867 C869 1.375 . S
N867 C870 1.313 . S
C868 C869 1.338 . S
C868 N871 1.377 . S
C868 H888 0.930 . S
C869 N867 1.375 . S
C869 C868 1.338 . S
C869 H873 0.931 . S
C870 N867 1.313 . S
C870 N871 1.344 . S
C870 H874 0.930 . S
N871 C868 1.377 . S
N871 C870 1.344 . S
O872 Co864 2.055 . S
O872 C876 1.253 . S
H873 C869 0.931 . S
H874 C870 0.930 . S
O875 Co864 2.039 . S
O875 C865 1.265 . S
C876 O872 1.253 . S
C876 O877 1.227 . S
O877 C876 1.227 . S
N878 Co864 2.140 . S
N878 C881 1.346 . S
N878 C882 1.345 . S
C879 C880 1.387 . S
C879 C883 1.391 . S
C880 C879 1.387 . S
C880 C881 1.369 . S
C880 H889 0.929 . S
C881 N878 1.346 . S
C881 C880 1.369 . S
C881 H884 0.928 . S
C882 N878 1.345 . S
C882 C883 1.371 . S
C882 H885 0.931 . S
C883 C879 1.391 . S
C883 C882 1.371 . S
C883 H890 0.930 . S
H884 C881 0.928 . S
H885 C882 0.931 . S
H886 C862 0.930 . S
H887 C859 0.930 . S
H888 C868 0.930 . S
H889 C880 0.929 . S
H890 C883 0.930 . S
C891 C892 1.351 . S
C891 N894 1.368 . S
C891 H896 0.931 . S
C892 C891 1.351 . S
C892 N893 1.373 . S
C892 H920 0.930 . S
N893 C892 1.373 . S
N893 C895 1.340 . S
N894 C891 1.368 . S
N894 C895 1.321 . S
N894 Co897 2.135 . S
C895 N893 1.340 . S
C895 N894 1.321 . S
C895 H919 0.930 . S
H896 C891 0.931 . S
Co897 N894 2.135 . S
Co897 N900 2.121 . S
Co897 O905 2.055 . S
Co897 O908 2.039 . S
Co897 N911 2.140 . S
C898 O899 1.227 . S
C898 O908 1.265 . S
O899 C898 1.227 . S
N900 Co897 2.121 . S
N900 C902 1.375 . S
N900 C903 1.313 . S
C901 C902 1.338 . S
C901 N904 1.377 . S
C901 H921 0.930 . S
C902 N900 1.375 . S
C902 C901 1.338 . S
C902 H906 0.931 . S
C903 N900 1.313 . S
C903 N904 1.344 . S
C903 H907 0.930 . S
N904 C901 1.377 . S
N904 C903 1.344 . S
O905 Co897 2.055 . S
O905 C909 1.253 . S
H906 C902 0.931 . S
H907 C903 0.930 . S
O908 Co897 2.039 . S
O908 C898 1.265 . S
C909 O905 1.253 . S
C909 O910 1.227 . S
O910 C909 1.227 . S
N911 Co897 2.140 . S
N911 C914 1.346 . S
N911 C915 1.345 . S
C912 C913 1.387 . S
C912 C916 1.391 . S
C913 C912 1.387 . S
C913 C914 1.369 . S
C913 H922 0.929 . S
C914 N911 1.346 . S
C914 C913 1.369 . S
C914 H917 0.928 . S
C915 N911 1.345 . S
C915 C916 1.371 . S
C915 H918 0.931 . S
C916 C912 1.391 . S
C916 C915 1.371 . S
C916 H923 0.930 . S
H917 C914 0.928 . S
H918 C915 0.931 . S
H919 C895 0.930 . S
H920 C892 0.930 . S
H921 C901 0.930 . S
H922 C913 0.929 . S
H923 C916 0.930 . S
C924 C925 1.351 . S
C924 N927 1.368 . S
C924 H929 0.931 . S
C925 C924 1.351 . S
C925 N926 1.373 . S
C925 H953 0.930 . S
N926 C925 1.373 . S
N926 C928 1.340 . S
N927 C924 1.368 . S
N927 C928 1.321 . S
N927 Co930 2.135 . S
C928 N926 1.340 . S
C928 N927 1.321 . S
C928 H952 0.930 . S
H929 C924 0.931 . S
Co930 N927 2.135 . S
Co930 N933 2.121 . S
Co930 O938 2.055 . S
Co930 O941 2.039 . S
Co930 N944 2.140 . S
C931 O932 1.227 . S
C931 O941 1.265 . S
O932 C931 1.227 . S
N933 Co930 2.121 . S
N933 C935 1.375 . S
N933 C936 1.313 . S
C934 C935 1.338 . S
C934 N937 1.377 . S
C934 H954 0.930 . S
C935 N933 1.375 . S
C935 C934 1.338 . S
C935 H939 0.931 . S
C936 N933 1.313 . S
C936 N937 1.344 . S
C936 H940 0.930 . S
N937 C934 1.377 . S
N937 C936 1.344 . S
O938 Co930 2.055 . S
O938 C942 1.253 . S
H939 C935 0.931 . S
H940 C936 0.930 . S
O941 Co930 2.039 . S
O941 C931 1.265 . S
C942 O938 1.253 . S
C942 O943 1.227 . S
O943 C942 1.227 . S
N944 Co930 2.140 . S
N944 C947 1.346 . S
N944 C948 1.345 . S
C945 C946 1.387 . S
C945 C949 1.391 . S
C946 C945 1.387 . S
C946 C947 1.369 . S
C946 H955 0.929 . S
C947 N944 1.346 . S
C947 C946 1.369 . S
C947 H950 0.928 . S
C948 N944 1.345 . S
C948 C949 1.371 . S
C948 H951 0.931 . S
C949 C945 1.391 . S
C949 C948 1.371 . S
C949 H956 0.930 . S
H950 C947 0.928 . S
H951 C948 0.931 . S
H952 C928 0.930 . S
H953 C925 0.930 . S
H954 C934 0.930 . S
H955 C946 0.929 . S
H956 C949 0.930 . S
C957 C958 1.351 . S
C957 N960 1.368 . S
C957 H962 0.931 . S
C958 C957 1.351 . S
C958 N959 1.373 . S
C958 H986 0.930 . S
N959 C958 1.373 . S
N959 C961 1.340 . S
N960 C957 1.368 . S
N960 C961 1.321 . S
N960 Co963 2.135 . S
C961 N959 1.340 . S
C961 N960 1.321 . S
C961 H985 0.930 . S
H962 C957 0.931 . S
Co963 N960 2.135 . S
Co963 N966 2.121 . S
Co963 O971 2.055 . S
Co963 O974 2.039 . S
Co963 N977 2.140 . S
C964 O965 1.227 . S
C964 O974 1.265 . S
O965 C964 1.227 . S
N966 Co963 2.121 . S
N966 C968 1.375 . S
N966 C969 1.313 . S
C967 C968 1.338 . S
C967 N970 1.377 . S
C967 H987 0.930 . S
C968 N966 1.375 . S
C968 C967 1.338 . S
C968 H972 0.931 . S
C969 N966 1.313 . S
C969 N970 1.344 . S
C969 H973 0.930 . S
N970 C967 1.377 . S
N970 C969 1.344 . S
O971 Co963 2.055 . S
O971 C975 1.253 . S
H972 C968 0.931 . S
H973 C969 0.930 . S
O974 Co963 2.039 . S
O974 C964 1.265 . S
C975 O971 1.253 . S
C975 O976 1.227 . S
O976 C975 1.227 . S
N977 Co963 2.140 . S
N977 C980 1.346 . S
N977 C981 1.345 . S
C978 C979 1.387 . S
C978 C982 1.391 . S
C979 C978 1.387 . S
C979 C980 1.369 . S
C979 H988 0.929 . S
C980 N977 1.346 . S
C980 C979 1.369 . S
C980 H983 0.928 . S
C981 N977 1.345 . S
C981 C982 1.371 . S
C981 H984 0.931 . S
C982 C978 1.391 . S
C982 C981 1.371 . S
C982 H989 0.930 . S
H983 C980 0.928 . S
H984 C981 0.931 . S
H985 C961 0.930 . S
H986 C958 0.930 . S
H987 C967 0.930 . S
H988 C979 0.929 . S
H989 C982 0.930 . S
C990 C991 1.351 . S
C990 N993 1.368 . S
C990 H995 0.931 . S
C991 C990 1.351 . S
C991 N992 1.373 . S
C991 H1019 0.930 . S
N992 C991 1.373 . S
N992 C994 1.340 . S
N993 C990 1.368 . S
N993 C994 1.321 . S
N993 Co996 2.135 . S
C994 N992 1.340 . S
C994 N993 1.321 . S
C994 H1018 0.930 . S
H995 C990 0.931 . S
Co996 N993 2.135 . S
Co996 N999 2.121 . S
Co996 O1004 2.055 . S
Co996 O1007 2.039 . S
Co996 N1010 2.140 . S
C997 O998 1.227 . S
C997 O1007 1.265 . S
O998 C997 1.227 . S
N999 Co996 2.121 . S
N999 C1001 1.375 . S
N999 C1002 1.313 . S
C1000 C1001 1.338 . S
C1000 N1003 1.377 . S
C1000 H1020 0.930 . S
C1001 N999 1.375 . S
C1001 C1000 1.338 . S
C1001 H1005 0.931 . S
C1002 N999 1.313 . S
C1002 N1003 1.344 . S
C1002 H1006 0.930 . S
N1003 C1000 1.377 . S
N1003 C1002 1.344 . S
O1004 Co996 2.055 . S
O1004 C1008 1.253 . S
H1005 C1001 0.931 . S
H1006 C1002 0.930 . S
O1007 Co996 2.039 . S
O1007 C997 1.265 . S
C1008 O1004 1.253 . S
C1008 O1009 1.227 . S
O1009 C1008 1.227 . S
N1010 Co996 2.140 . S
N1010 C1013 1.346 . S
N1010 C1014 1.345 . S
C1011 C1012 1.387 . S
C1011 C1015 1.391 . S
C1012 C1011 1.387 . S
C1012 C1013 1.369 . S
C1012 H1021 0.929 . S
C1013 N1010 1.346 . S
C1013 C1012 1.369 . S
C1013 H1016 0.928 . S
C1014 N1010 1.345 . S
C1014 C1015 1.371 . S
C1014 H1017 0.931 . S
C1015 C1011 1.391 . S
C1015 C1014 1.371 . S
C1015 H1022 0.930 . S
H1016 C1013 0.928 . S
H1017 C1014 0.931 . S
H1018 C994 0.930 . S
H1019 C991 0.930 . S
H1020 C1000 0.930 . S
H1021 C1012 0.929 . S
H1022 C1015 0.930 . S
C1023 C1024 1.351 . S
C1023 N1026 1.368 . S
C1023 H1028 0.931 . S
C1024 C1023 1.351 . S
C1024 N1025 1.373 . S
C1024 H1052 0.930 . S
N1025 C1024 1.373 . S
N1025 C1027 1.340 . S
N1026 C1023 1.368 . S
N1026 C1027 1.321 . S
N1026 Co1029 2.135 . S
C1027 N1025 1.340 . S
C1027 N1026 1.321 . S
C1027 H1051 0.930 . S
H1028 C1023 0.931 . S
Co1029 N1026 2.135 . S
Co1029 N1032 2.121 . S
Co1029 O1037 2.055 . S
Co1029 O1040 2.039 . S
Co1029 N1043 2.140 . S
C1030 O1031 1.227 . S
C1030 O1040 1.265 . S
O1031 C1030 1.227 . S
N1032 Co1029 2.121 . S
N1032 C1034 1.375 . S
N1032 C1035 1.313 . S
C1033 C1034 1.338 . S
C1033 N1036 1.377 . S
C1033 H1053 0.930 . S
C1034 N1032 1.375 . S
C1034 C1033 1.338 . S
C1034 H1038 0.931 . S
C1035 N1032 1.313 . S
C1035 N1036 1.344 . S
C1035 H1039 0.930 . S
N1036 C1033 1.377 . S
N1036 C1035 1.344 . S
O1037 Co1029 2.055 . S
O1037 C1041 1.253 . S
H1038 C1034 0.931 . S
H1039 C1035 0.930 . S
O1040 Co1029 2.039 . S
O1040 C1030 1.265 . S
C1041 O1037 1.253 . S
C1041 O1042 1.227 . S
O1042 C1041 1.227 . S
N1043 Co1029 2.140 . S
N1043 C1046 1.346 . S
N1043 C1047 1.345 . S
C1044 C1045 1.387 . S
C1044 C1048 1.391 . S
C1045 C1044 1.387 . S
C1045 C1046 1.369 . S
C1045 H1054 0.929 . S
C1046 N1043 1.346 . S
C1046 C1045 1.369 . S
C1046 H1049 0.928 . S
C1047 N1043 1.345 . S
C1047 C1048 1.371 . S
C1047 H1050 0.931 . S
C1048 C1044 1.391 . S
C1048 C1047 1.371 . S
C1048 H1055 0.930 . S
H1049 C1046 0.928 . S
H1050 C1047 0.931 . S
H1051 C1027 0.930 . S
H1052 C1024 0.930 . S
H1053 C1033 0.930 . S
H1054 C1045 0.929 . S
H1055 C1048 0.930 . S
C1056 C1057 1.351 . S
C1056 N1059 1.368 . S
C1056 H1061 0.931 . S
C1057 C1056 1.351 . S
C1057 N1058 1.373 . S
C1057 H1085 0.930 . S
N1058 C1057 1.373 . S
N1058 C1060 1.340 . S
N1059 C1056 1.368 . S
N1059 C1060 1.321 . S
N1059 Co1062 2.135 . S
C1060 N1058 1.340 . S
C1060 N1059 1.321 . S
C1060 H1084 0.930 . S
H1061 C1056 0.931 . S
Co1062 N1059 2.135 . S
Co1062 N1065 2.121 . S
Co1062 O1070 2.055 . S
Co1062 O1073 2.039 . S
Co1062 N1076 2.140 . S
C1063 O1064 1.227 . S
C1063 O1073 1.265 . S
O1064 C1063 1.227 . S
N1065 Co1062 2.121 . S
N1065 C1067 1.375 . S
N1065 C1068 1.313 . S
C1066 C1067 1.338 . S
C1066 N1069 1.377 . S
C1066 H1086 0.930 . S
C1067 N1065 1.375 . S
C1067 C1066 1.338 . S
C1067 H1071 0.931 . S
C1068 N1065 1.313 . S
C1068 N1069 1.344 . S
C1068 H1072 0.930 . S
N1069 C1066 1.377 . S
N1069 C1068 1.344 . S
O1070 Co1062 2.055 . S
O1070 C1074 1.253 . S
H1071 C1067 0.931 . S
H1072 C1068 0.930 . S
O1073 Co1062 2.039 . S
O1073 C1063 1.265 . S
C1074 O1070 1.253 . S
C1074 O1075 1.227 . S
O1075 C1074 1.227 . S
N1076 Co1062 2.140 . S
N1076 C1079 1.346 . S
N1076 C1080 1.345 . S
C1077 C1078 1.387 . S
C1077 C1081 1.391 . S
C1078 C1077 1.387 . S
C1078 C1079 1.369 . S
C1078 H1087 0.929 . S
C1079 N1076 1.346 . S
C1079 C1078 1.369 . S
C1079 H1082 0.928 . S
C1080 N1076 1.345 . S
C1080 C1081 1.371 . S
C1080 H1083 0.931 . S
C1081 C1077 1.391 . S
C1081 C1080 1.371 . S
C1081 H1088 0.930 . S
H1082 C1079 0.928 . S
H1083 C1080 0.931 . S
H1084 C1060 0.930 . S
H1085 C1057 0.930 . S
H1086 C1066 0.930 . S
H1087 C1078 0.929 . S
H1088 C1081 0.930 . S
C1089 C1090 1.351 . S
C1089 N1092 1.368 . S
C1089 H1094 0.931 . S
C1090 C1089 1.351 . S
C1090 N1091 1.373 . S
C1090 H1118 0.930 . S
N1091 C1090 1.373 . S
N1091 C1093 1.340 . S
N1092 C1089 1.368 . S
N1092 C1093 1.321 . S
N1092 Co1095 2.135 . S
C1093 N1091 1.340 . S
C1093 N1092 1.321 . S
C1093 H1117 0.930 . S
H1094 C1089 0.931 . S
Co1095 N1092 2.135 . S
Co1095 N1098 2.121 1_545 S
Co1095 O1103 2.055 . S
Co1095 O1106 2.039 1_545 S
Co1095 N1109 2.140 . S
C1096 O1097 1.227 . S
C1096 O1106 1.265 . S
O1097 C1096 1.227 . S
N1098 Co1095 2.121 1_565 S
N1098 C1100 1.375 . S
N1098 C1101 1.313 . S
C1099 C1100 1.338 . S
C1099 N1102 1.377 . S
C1099 H1119 0.930 . S
C1100 N1098 1.375 . S
C1100 C1099 1.338 . S
C1100 H1104 0.931 . S
C1101 N1098 1.313 . S
C1101 N1102 1.344 . S
C1101 H1105 0.930 1_565 S
N1102 C1099 1.377 . S
N1102 C1101 1.344 . S
O1103 Co1095 2.055 . S
O1103 C1107 1.253 . S
H1104 C1100 0.931 . S
H1105 C1101 0.930 1_545 S
O1106 Co1095 2.039 1_565 S
O1106 C1096 1.265 . S
C1107 O1103 1.253 . S
C1107 O1108 1.227 . S
O1108 C1107 1.227 . S
N1109 Co1095 2.140 . S
N1109 C1112 1.346 . S
N1109 C1113 1.345 . S
C1110 C1111 1.387 . S
C1110 C1114 1.391 . S
C1111 C1110 1.387 . S
C1111 C1112 1.369 . S
C1111 H1120 0.929 . S
C1112 N1109 1.346 . S
C1112 C1111 1.369 . S
C1112 H1115 0.928 . S
C1113 N1109 1.345 . S
C1113 C1114 1.371 . S
C1113 H1116 0.931 . S
C1114 C1110 1.391 . S
C1114 C1113 1.371 . S
C1114 H1121 0.930 . S
H1115 C1112 0.928 . S
H1116 C1113 0.931 . S
H1117 C1093 0.930 . S
H1118 C1090 0.930 . S
H1119 C1099 0.930 . S
H1120 C1111 0.929 . S
H1121 C1114 0.930 . S
C1122 C1123 1.351 . S
C1122 N1125 1.368 . S
C1122 H1127 0.931 . S
C1123 C1122 1.351 . S
C1123 N1124 1.373 . S
C1123 H1151 0.930 . S
N1124 C1123 1.373 . S
N1124 C1126 1.340 . S
N1125 C1122 1.368 . S
N1125 C1126 1.321 . S
N1125 Co1128 2.135 . S
C1126 N1124 1.340 . S
C1126 N1125 1.321 . S
C1126 H1150 0.930 . S
H1127 C1122 0.931 . S
Co1128 N1125 2.135 . S
Co1128 N1131 2.121 . S
Co1128 O1136 2.055 . S
Co1128 O1139 2.039 . S
Co1128 N1142 2.140 . S
C1129 O1130 1.227 . S
C1129 O1139 1.265 . S
O1130 C1129 1.227 . S
N1131 Co1128 2.121 . S
N1131 C1133 1.375 . S
N1131 C1134 1.313 . S
C1132 C1133 1.338 . S
C1132 N1135 1.377 . S
C1132 H1152 0.930 . S
C1133 N1131 1.375 . S
C1133 C1132 1.338 . S
C1133 H1137 0.931 . S
C1134 N1131 1.313 . S
C1134 N1135 1.344 . S
C1134 H1138 0.930 . S
N1135 C1132 1.377 . S
N1135 C1134 1.344 . S
O1136 Co1128 2.055 . S
O1136 C1140 1.253 . S
H1137 C1133 0.931 . S
H1138 C1134 0.930 . S
O1139 Co1128 2.039 . S
O1139 C1129 1.265 . S
C1140 O1136 1.253 . S
C1140 O1141 1.227 . S
O1141 C1140 1.227 . S
N1142 Co1128 2.140 . S
N1142 C1145 1.346 . S
N1142 C1146 1.345 . S
C1143 C1144 1.387 . S
C1143 C1147 1.391 . S
C1144 C1143 1.387 . S
C1144 C1145 1.369 . S
C1144 H1153 0.929 . S
C1145 N1142 1.346 . S
C1145 C1144 1.369 . S
C1145 H1148 0.928 . S
C1146 N1142 1.345 . S
C1146 C1147 1.371 . S
C1146 H1149 0.931 . S
C1147 C1143 1.391 . S
C1147 C1146 1.371 . S
C1147 H1154 0.930 . S
H1148 C1145 0.928 . S
H1149 C1146 0.931 . S
H1150 C1126 0.930 . S
H1151 C1123 0.930 . S
H1152 C1132 0.930 . S
H1153 C1144 0.929 . S
H1154 C1147 0.930 . S
C1155 C1156 1.351 . S
C1155 N1158 1.368 . S
C1155 H1160 0.931 . S
C1156 C1155 1.351 . S
C1156 N1157 1.373 . S
C1156 H1184 0.930 . S
N1157 C1156 1.373 . S
N1157 C1159 1.340 . S
N1158 C1155 1.368 . S
N1158 C1159 1.321 . S
N1158 Co1161 2.135 . S
C1159 N1157 1.340 . S
C1159 N1158 1.321 . S
C1159 H1183 0.930 . S
H1160 C1155 0.931 . S
Co1161 N1158 2.135 . S
Co1161 N1164 2.121 . S
Co1161 O1169 2.055 . S
Co1161 O1172 2.039 . S
Co1161 N1175 2.140 . S
C1162 O1163 1.227 . S
C1162 O1172 1.265 . S
O1163 C1162 1.227 . S
N1164 Co1161 2.121 . S
N1164 C1166 1.375 . S
N1164 C1167 1.313 . S
C1165 C1166 1.338 . S
C1165 N1168 1.377 . S
C1165 H1185 0.930 . S
C1166 N1164 1.375 . S
C1166 C1165 1.338 . S
C1166 H1170 0.931 . S
C1167 N1164 1.313 . S
C1167 N1168 1.344 . S
C1167 H1171 0.930 . S
N1168 C1165 1.377 . S
N1168 C1167 1.344 . S
O1169 Co1161 2.055 . S
O1169 C1173 1.253 . S
H1170 C1166 0.931 . S
H1171 C1167 0.930 . S
O1172 Co1161 2.039 . S
O1172 C1162 1.265 . S
C1173 O1169 1.253 . S
C1173 O1174 1.227 . S
O1174 C1173 1.227 . S
N1175 Co1161 2.140 . S
N1175 C1178 1.346 . S
N1175 C1179 1.345 . S
C1176 C1177 1.387 . S
C1176 C1180 1.391 . S
C1177 C1176 1.387 . S
C1177 C1178 1.369 . S
C1177 H1186 0.929 . S
C1178 N1175 1.346 . S
C1178 C1177 1.369 . S
C1178 H1181 0.928 . S
C1179 N1175 1.345 . S
C1179 C1180 1.371 . S
C1179 H1182 0.931 . S
C1180 C1176 1.391 . S
C1180 C1179 1.371 . S
C1180 H1187 0.930 . S
H1181 C1178 0.928 . S
H1182 C1179 0.931 . S
H1183 C1159 0.930 . S
H1184 C1156 0.930 . S
H1185 C1165 0.930 . S
H1186 C1177 0.929 . S
H1187 C1180 0.930 . S
C1188 C1189 1.351 . S
C1188 N1191 1.368 . S
C1188 H1193 0.931 . S
C1189 C1188 1.351 . S
C1189 N1190 1.373 . S
C1189 H1217 0.930 . S
N1190 C1189 1.373 . S
N1190 C1192 1.340 . S
N1191 C1188 1.368 . S
N1191 C1192 1.321 . S
N1191 Co1194 2.135 . S
C1192 N1190 1.340 . S
C1192 N1191 1.321 . S
C1192 H1216 0.930 . S
H1193 C1188 0.931 . S
Co1194 N1191 2.135 . S
Co1194 N1197 2.121 . S
Co1194 O1202 2.055 . S
Co1194 O1205 2.039 . S
Co1194 N1208 2.140 . S
C1195 O1196 1.227 . S
C1195 O1205 1.265 . S
O1196 C1195 1.227 . S
N1197 Co1194 2.121 . S
N1197 C1199 1.375 . S
N1197 C1200 1.313 . S
C1198 C1199 1.338 . S
C1198 N1201 1.377 . S
C1198 H1218 0.930 . S
C1199 N1197 1.375 . S
C1199 C1198 1.338 . S
C1199 H1203 0.931 . S
C1200 N1197 1.313 . S
C1200 N1201 1.344 . S
C1200 H1204 0.930 . S
N1201 C1198 1.377 . S
N1201 C1200 1.344 . S
O1202 Co1194 2.055 . S
O1202 C1206 1.253 . S
H1203 C1199 0.931 . S
H1204 C1200 0.930 . S
O1205 Co1194 2.039 . S
O1205 C1195 1.265 . S
C1206 O1202 1.253 . S
C1206 O1207 1.227 . S
O1207 C1206 1.227 . S
N1208 Co1194 2.140 . S
N1208 C1211 1.346 . S
N1208 C1212 1.345 . S
C1209 C1210 1.387 . S
C1209 C1213 1.391 . S
C1210 C1209 1.387 . S
C1210 C1211 1.369 . S
C1210 H1219 0.929 . S
C1211 N1208 1.346 . S
C1211 C1210 1.369 . S
C1211 H1214 0.928 . S
C1212 N1208 1.345 . S
C1212 C1213 1.371 . S
C1212 H1215 0.931 . S
C1213 C1209 1.391 . S
C1213 C1212 1.371 . S
C1213 H1220 0.930 . S
H1214 C1211 0.928 . S
H1215 C1212 0.931 . S
H1216 C1192 0.930 . S
H1217 C1189 0.930 . S
H1218 C1198 0.930 . S
H1219 C1210 0.929 . S
H1220 C1213 0.930 . S
C1221 C1222 1.351 . S
C1221 N1224 1.368 . S
C1221 H1226 0.931 . S
C1222 C1221 1.351 . S
C1222 N1223 1.373 . S
C1222 H1250 0.930 . S
N1223 C1222 1.373 . S
N1223 C1225 1.340 . S
N1224 C1221 1.368 . S
N1224 C1225 1.321 . S
N1224 Co1227 2.135 . S
C1225 N1223 1.340 . S
C1225 N1224 1.321 . S
C1225 H1249 0.930 . S
H1226 C1221 0.931 . S
Co1227 N1224 2.135 . S
Co1227 N1230 2.121 1_545 S
Co1227 O1235 2.055 . S
Co1227 O1238 2.039 1_545 S
Co1227 N1241 2.140 . S
C1228 O1229 1.227 . S
C1228 O1238 1.265 . S
O1229 C1228 1.227 . S
N1230 Co1227 2.121 1_565 S
N1230 C1232 1.375 . S
N1230 C1233 1.313 . S
C1231 C1232 1.338 . S
C1231 N1234 1.377 . S
C1231 H1251 0.930 . S
C1232 N1230 1.375 . S
C1232 C1231 1.338 . S
C1232 H1236 0.931 . S
C1233 N1230 1.313 . S
C1233 N1234 1.344 . S
C1233 H1237 0.930 1_565 S
N1234 C1231 1.377 . S
N1234 C1233 1.344 . S
O1235 Co1227 2.055 . S
O1235 C1239 1.253 . S
H1236 C1232 0.931 . S
H1237 C1233 0.930 1_545 S
O1238 Co1227 2.039 1_565 S
O1238 C1228 1.265 . S
C1239 O1235 1.253 . S
C1239 O1240 1.227 . S
O1240 C1239 1.227 . S
N1241 Co1227 2.140 . S
N1241 C1244 1.346 . S
N1241 C1245 1.345 . S
C1242 C1243 1.387 . S
C1242 C1246 1.391 . S
C1243 C1242 1.387 . S
C1243 C1244 1.369 . S
C1243 H1252 0.929 . S
C1244 N1241 1.346 . S
C1244 C1243 1.369 . S
C1244 H1247 0.928 . S
C1245 N1241 1.345 . S
C1245 C1246 1.371 . S
C1245 H1248 0.931 . S
C1246 C1242 1.391 . S
C1246 C1245 1.371 . S
C1246 H1253 0.930 . S
H1247 C1244 0.928 . S
H1248 C1245 0.931 . S
H1249 C1225 0.930 . S
H1250 C1222 0.930 . S
H1251 C1231 0.930 . S
H1252 C1243 0.929 . S
H1253 C1246 0.930 . S
C1254 C1255 1.351 . S
C1254 N1257 1.368 . S
C1254 H1259 0.931 . S
C1255 C1254 1.351 . S
C1255 N1256 1.373 . S
C1255 H1283 0.930 . S
N1256 C1255 1.373 . S
N1256 C1258 1.340 . S
N1257 C1254 1.368 . S
N1257 C1258 1.321 . S
N1257 Co1260 2.135 . S
C1258 N1256 1.340 . S
C1258 N1257 1.321 . S
C1258 H1282 0.930 . S
H1259 C1254 0.931 . S
Co1260 N1257 2.135 . S
Co1260 N1263 2.121 . S
Co1260 O1268 2.055 . S
Co1260 O1271 2.039 . S
Co1260 N1274 2.140 . S
C1261 O1262 1.227 . S
C1261 O1271 1.265 . S
O1262 C1261 1.227 . S
N1263 Co1260 2.121 . S
N1263 C1265 1.375 . S
N1263 C1266 1.313 . S
C1264 C1265 1.338 . S
C1264 N1267 1.377 . S
C1264 H1284 0.930 . S
C1265 N1263 1.375 . S
C1265 C1264 1.338 . S
C1265 H1269 0.931 . S
C1266 N1263 1.313 . S
C1266 N1267 1.344 . S
C1266 H1270 0.930 . S
N1267 C1264 1.377 . S
N1267 C1266 1.344 . S
O1268 Co1260 2.055 . S
O1268 C1272 1.253 . S
H1269 C1265 0.931 . S
H1270 C1266 0.930 . S
O1271 Co1260 2.039 . S
O1271 C1261 1.265 . S
C1272 O1268 1.253 . S
C1272 O1273 1.227 . S
O1273 C1272 1.227 . S
N1274 Co1260 2.140 . S
N1274 C1277 1.346 . S
N1274 C1278 1.345 . S
C1275 C1276 1.387 . S
C1275 C1279 1.391 . S
C1276 C1275 1.387 . S
C1276 C1277 1.369 . S
C1276 H1285 0.929 . S
C1277 N1274 1.346 . S
C1277 C1276 1.369 . S
C1277 H1280 0.928 . S
C1278 N1274 1.345 . S
C1278 C1279 1.371 . S
C1278 H1281 0.931 . S
C1279 C1275 1.391 . S
C1279 C1278 1.371 . S
C1279 H1286 0.930 . S
H1280 C1277 0.928 . S
H1281 C1278 0.931 . S
H1282 C1258 0.930 . S
H1283 C1255 0.930 . S
H1284 C1264 0.930 . S
H1285 C1276 0.929 . S
H1286 C1279 0.930 . S
C1287 C1288 1.351 . S
C1287 N1290 1.368 . S
C1287 H1292 0.931 . S
C1288 C1287 1.351 . S
C1288 N1289 1.373 . S
C1288 H1316 0.930 . S
N1289 C1288 1.373 . S
N1289 C1291 1.340 . S
N1290 C1287 1.368 . S
N1290 C1291 1.321 . S
N1290 Co1293 2.135 . S
C1291 N1289 1.340 . S
C1291 N1290 1.321 . S
C1291 H1315 0.930 . S
H1292 C1287 0.931 . S
Co1293 N1290 2.135 . S
Co1293 N1296 2.121 . S
Co1293 O1301 2.055 . S
Co1293 O1304 2.039 . S
Co1293 N1307 2.140 . S
C1294 O1295 1.227 . S
C1294 O1304 1.265 . S
O1295 C1294 1.227 . S
N1296 Co1293 2.121 . S
N1296 C1298 1.375 . S
N1296 C1299 1.313 . S
C1297 C1298 1.338 . S
C1297 N1300 1.377 . S
C1297 H1317 0.930 . S
C1298 N1296 1.375 . S
C1298 C1297 1.338 . S
C1298 H1302 0.931 . S
C1299 N1296 1.313 . S
C1299 N1300 1.344 . S
C1299 H1303 0.930 . S
N1300 C1297 1.377 . S
N1300 C1299 1.344 . S
O1301 Co1293 2.055 . S
O1301 C1305 1.253 . S
H1302 C1298 0.931 . S
H1303 C1299 0.930 . S
O1304 Co1293 2.039 . S
O1304 C1294 1.265 . S
C1305 O1301 1.253 . S
C1305 O1306 1.227 . S
O1306 C1305 1.227 . S
N1307 Co1293 2.140 . S
N1307 C1310 1.346 . S
N1307 C1311 1.345 . S
C1308 C1309 1.387 . S
C1308 C1312 1.391 . S
C1309 C1308 1.387 . S
C1309 C1310 1.369 . S
C1309 H1318 0.929 . S
C1310 N1307 1.346 . S
C1310 C1309 1.369 . S
C1310 H1313 0.928 . S
C1311 N1307 1.345 . S
C1311 C1312 1.371 . S
C1311 H1314 0.931 . S
C1312 C1308 1.391 . S
C1312 C1311 1.371 . S
C1312 H1319 0.930 . S
H1313 C1310 0.928 . S
H1314 C1311 0.931 . S
H1315 C1291 0.930 . S
H1316 C1288 0.930 . S
H1317 C1297 0.930 . S
H1318 C1309 0.929 . S
H1319 C1312 0.930 . S
C1320 C1321 1.351 . S
C1320 N1323 1.368 . S
C1320 H1325 0.931 . S
C1321 C1320 1.351 . S
C1321 N1322 1.373 . S
C1321 H1349 0.930 . S
N1322 C1321 1.373 . S
N1322 C1324 1.340 . S
N1323 C1320 1.368 . S
N1323 C1324 1.321 . S
N1323 Co1326 2.135 . S
C1324 N1322 1.340 . S
C1324 N1323 1.321 . S
C1324 H1348 0.930 . S
H1325 C1320 0.931 . S
Co1326 N1323 2.135 . S
Co1326 N1329 2.121 . S
Co1326 O1334 2.055 . S
Co1326 O1337 2.039 . S
Co1326 N1340 2.140 . S
C1327 O1328 1.227 . S
C1327 O1337 1.265 . S
O1328 C1327 1.227 . S
N1329 Co1326 2.121 . S
N1329 C1331 1.375 . S
N1329 C1332 1.313 . S
C1330 C1331 1.338 . S
C1330 N1333 1.377 . S
C1330 H1350 0.930 . S
C1331 N1329 1.375 . S
C1331 C1330 1.338 . S
C1331 H1335 0.931 . S
C1332 N1329 1.313 . S
C1332 N1333 1.344 . S
C1332 H1336 0.930 . S
N1333 C1330 1.377 . S
N1333 C1332 1.344 . S
O1334 Co1326 2.055 . S
O1334 C1338 1.253 . S
H1335 C1331 0.931 . S
H1336 C1332 0.930 . S
O1337 Co1326 2.039 . S
O1337 C1327 1.265 . S
C1338 O1334 1.253 . S
C1338 O1339 1.227 . S
O1339 C1338 1.227 . S
N1340 Co1326 2.140 . S
N1340 C1343 1.346 . S
N1340 C1344 1.345 . S
C1341 C1342 1.387 . S
C1341 C1345 1.391 . S
C1342 C1341 1.387 . S
C1342 C1343 1.369 . S
C1342 H1351 0.929 . S
C1343 N1340 1.346 . S
C1343 C1342 1.369 . S
C1343 H1346 0.928 . S
C1344 N1340 1.345 . S
C1344 C1345 1.371 . S
C1344 H1347 0.931 . S
C1345 C1341 1.391 . S
C1345 C1344 1.371 . S
C1345 H1352 0.930 . S
H1346 C1343 0.928 . S
H1347 C1344 0.931 . S
H1348 C1324 0.930 . S
H1349 C1321 0.930 . S
H1350 C1330 0.930 . S
H1351 C1342 0.929 . S
H1352 C1345 0.930 . S
C1353 C1354 1.351 . S
C1353 N1356 1.368 . S
C1353 H1358 0.931 . S
C1354 C1353 1.351 . S
C1354 N1355 1.373 . S
C1354 H1382 0.930 . S
N1355 C1354 1.373 . S
N1355 C1357 1.340 . S
N1356 C1353 1.368 . S
N1356 C1357 1.321 . S
N1356 Co1359 2.135 . S
C1357 N1355 1.340 . S
C1357 N1356 1.321 . S
C1357 H1381 0.930 . S
H1358 C1353 0.931 . S
Co1359 N1356 2.135 . S
Co1359 N1362 2.121 . S
Co1359 O1367 2.055 . S
Co1359 O1370 2.039 . S
Co1359 N1373 2.140 . S
C1360 O1361 1.227 . S
C1360 O1370 1.265 . S
O1361 C1360 1.227 . S
N1362 Co1359 2.121 . S
N1362 C1364 1.375 . S
N1362 C1365 1.313 . S
C1363 C1364 1.338 . S
C1363 N1366 1.377 . S
C1363 H1383 0.930 . S
C1364 N1362 1.375 . S
C1364 C1363 1.338 . S
C1364 H1368 0.931 . S
C1365 N1362 1.313 . S
C1365 N1366 1.344 . S
C1365 H1369 0.930 . S
N1366 C1363 1.377 . S
N1366 C1365 1.344 . S
O1367 Co1359 2.055 . S
O1367 C1371 1.253 . S
H1368 C1364 0.931 . S
H1369 C1365 0.930 . S
O1370 Co1359 2.039 . S
O1370 C1360 1.265 . S
C1371 O1367 1.253 . S
C1371 O1372 1.227 . S
O1372 C1371 1.227 . S
N1373 Co1359 2.140 . S
N1373 C1376 1.346 . S
N1373 C1377 1.345 . S
C1374 C1375 1.387 . S
C1374 C1378 1.391 . S
C1375 C1374 1.387 . S
C1375 C1376 1.369 . S
C1375 H1384 0.929 . S
C1376 N1373 1.346 . S
C1376 C1375 1.369 . S
C1376 H1379 0.928 . S
C1377 N1373 1.345 . S
C1377 C1378 1.371 . S
C1377 H1380 0.931 . S
C1378 C1374 1.391 . S
C1378 C1377 1.371 . S
C1378 H1385 0.930 . S
H1379 C1376 0.928 . S
H1380 C1377 0.931 . S
H1381 C1357 0.930 . S
H1382 C1354 0.930 . S
H1383 C1363 0.930 . S
H1384 C1375 0.929 . S
H1385 C1378 0.930 . S
C1386 C1387 1.351 . S
C1386 N1389 1.368 . S
C1386 H1391 0.931 . S
C1387 C1386 1.351 . S
C1387 N1388 1.373 . S
C1387 H1415 0.930 . S
N1388 C1387 1.373 . S
N1388 C1390 1.340 . S
N1389 C1386 1.368 . S
N1389 C1390 1.321 . S
N1389 Co1392 2.135 . S
C1390 N1388 1.340 . S
C1390 N1389 1.321 . S
C1390 H1414 0.930 . S
H1391 C1386 0.931 . S
Co1392 N1389 2.135 . S
Co1392 N1395 2.121 . S
Co1392 O1400 2.055 . S
Co1392 O1403 2.039 . S
Co1392 N1406 2.140 . S
C1393 O1394 1.227 . S
C1393 O1403 1.265 . S
O1394 C1393 1.227 . S
N1395 Co1392 2.121 . S
N1395 C1397 1.375 . S
N1395 C1398 1.313 . S
C1396 C1397 1.338 . S
C1396 N1399 1.377 . S
C1396 H1416 0.930 . S
C1397 N1395 1.375 . S
C1397 C1396 1.338 . S
C1397 H1401 0.931 . S
C1398 N1395 1.313 . S
C1398 N1399 1.344 . S
C1398 H1402 0.930 . S
N1399 C1396 1.377 . S
N1399 C1398 1.344 . S
O1400 Co1392 2.055 . S
O1400 C1404 1.253 . S
H1401 C1397 0.931 . S
H1402 C1398 0.930 . S
O1403 Co1392 2.039 . S
O1403 C1393 1.265 . S
C1404 O1400 1.253 . S
C1404 O1405 1.227 . S
O1405 C1404 1.227 . S
N1406 Co1392 2.140 . S
N1406 C1409 1.346 . S
N1406 C1410 1.345 . S
C1407 C1408 1.387 . S
C1407 C1411 1.391 . S
C1408 C1407 1.387 . S
C1408 C1409 1.369 . S
C1408 H1417 0.929 . S
C1409 N1406 1.346 . S
C1409 C1408 1.369 . S
C1409 H1412 0.928 . S
C1410 N1406 1.345 . S
C1410 C1411 1.371 . S
C1410 H1413 0.931 . S
C1411 C1407 1.391 . S
C1411 C1410 1.371 . S
C1411 H1418 0.930 . S
H1412 C1409 0.928 . S
H1413 C1410 0.931 . S
H1414 C1390 0.930 . S
H1415 C1387 0.930 . S
H1416 C1396 0.930 . S
H1417 C1408 0.929 . S
H1418 C1411 0.930 . S
C1419 C1420 1.351 . S
C1419 N1422 1.368 . S
C1419 H1424 0.931 . S
C1420 C1419 1.351 . S
C1420 N1421 1.373 . S
C1420 H1448 0.930 . S
N1421 C1420 1.373 . S
N1421 C1423 1.340 . S
N1422 C1419 1.368 . S
N1422 C1423 1.321 . S
N1422 Co1425 2.135 . S
C1423 N1421 1.340 . S
C1423 N1422 1.321 . S
C1423 H1447 0.930 . S
H1424 C1419 0.931 . S
Co1425 N1422 2.135 . S
Co1425 N1428 2.121 . S
Co1425 O1433 2.055 . S
Co1425 O1436 2.039 . S
Co1425 N1439 2.140 . S
C1426 O1427 1.227 . S
C1426 O1436 1.265 . S
O1427 C1426 1.227 . S
N1428 Co1425 2.121 . S
N1428 C1430 1.375 . S
N1428 C1431 1.313 . S
C1429 C1430 1.338 . S
C1429 N1432 1.377 . S
C1429 H1449 0.930 . S
C1430 N1428 1.375 . S
C1430 C1429 1.338 . S
C1430 H1434 0.931 . S
C1431 N1428 1.313 . S
C1431 N1432 1.344 . S
C1431 H1435 0.930 . S
N1432 C1429 1.377 . S
N1432 C1431 1.344 . S
O1433 Co1425 2.055 . S
O1433 C1437 1.253 . S
H1434 C1430 0.931 . S
H1435 C1431 0.930 . S
O1436 Co1425 2.039 . S
O1436 C1426 1.265 . S
C1437 O1433 1.253 . S
C1437 O1438 1.227 . S
O1438 C1437 1.227 . S
N1439 Co1425 2.140 . S
N1439 C1442 1.346 . S
N1439 C1443 1.345 . S
C1440 C1441 1.387 . S
C1440 C1444 1.391 . S
C1441 C1440 1.387 . S
C1441 C1442 1.369 . S
C1441 H1450 0.929 . S
C1442 N1439 1.346 . S
C1442 C1441 1.369 . S
C1442 H1445 0.928 . S
C1443 N1439 1.345 . S
C1443 C1444 1.371 . S
C1443 H1446 0.931 . S
C1444 C1440 1.391 . S
C1444 C1443 1.371 . S
C1444 H1451 0.930 . S
H1445 C1442 0.928 . S
H1446 C1443 0.931 . S
H1447 C1423 0.930 . S
H1448 C1420 0.930 . S
H1449 C1429 0.930 . S
H1450 C1441 0.929 . S
H1451 C1444 0.930 . S
C1452 C1453 1.351 . S
C1452 N1455 1.368 . S
C1452 H1457 0.931 . S
C1453 C1452 1.351 . S
C1453 N1454 1.373 . S
C1453 H1481 0.930 . S
N1454 C1453 1.373 . S
N1454 C1456 1.340 . S
N1455 C1452 1.368 . S
N1455 C1456 1.321 . S
N1455 Co1458 2.135 . S
C1456 N1454 1.340 . S
C1456 N1455 1.321 . S
C1456 H1480 0.930 . S
H1457 C1452 0.931 . S
Co1458 N1455 2.135 . S
Co1458 N1461 2.121 1_655 S
Co1458 O1466 2.055 . S
Co1458 O1469 2.039 1_655 S
Co1458 N1472 2.140 . S
C1459 O1460 1.227 . S
C1459 O1469 1.265 . S
O1460 C1459 1.227 . S
N1461 Co1458 2.121 1_455 S
N1461 C1463 1.375 . S
N1461 C1464 1.313 . S
C1462 C1463 1.338 . S
C1462 N1465 1.377 . S
C1462 H1482 0.930 . S
C1463 N1461 1.375 . S
C1463 C1462 1.338 . S
C1463 H1467 0.931 . S
C1464 N1461 1.313 . S
C1464 N1465 1.344 . S
C1464 H1468 0.930 1_455 S
N1465 C1462 1.377 . S
N1465 C1464 1.344 . S
O1466 Co1458 2.055 . S
O1466 C1470 1.253 . S
H1467 C1463 0.931 . S
H1468 C1464 0.930 1_655 S
O1469 Co1458 2.039 1_455 S
O1469 C1459 1.265 . S
C1470 O1466 1.253 . S
C1470 O1471 1.227 . S
O1471 C1470 1.227 . S
N1472 Co1458 2.140 . S
N1472 C1475 1.346 . S
N1472 C1476 1.345 . S
C1473 C1474 1.387 . S
C1473 C1477 1.391 . S
C1474 C1473 1.387 . S
C1474 C1475 1.369 . S
C1474 H1483 0.929 . S
C1475 N1472 1.346 . S
C1475 C1474 1.369 . S
C1475 H1478 0.928 . S
C1476 N1472 1.345 . S
C1476 C1477 1.371 . S
C1476 H1479 0.931 . S
C1477 C1473 1.391 . S
C1477 C1476 1.371 . S
C1477 H1484 0.930 . S
H1478 C1475 0.928 . S
H1479 C1476 0.931 . S
H1480 C1456 0.930 . S
H1481 C1453 0.930 . S
H1482 C1462 0.930 . S
H1483 C1474 0.929 . S
H1484 C1477 0.930 . S
C1485 C1486 1.351 . S
C1485 N1488 1.368 . S
C1485 H1490 0.931 . S
C1486 C1485 1.351 . S
C1486 N1487 1.373 . S
C1486 H1514 0.930 . S
N1487 C1486 1.373 . S
N1487 C1489 1.340 . S
N1488 C1485 1.368 . S
N1488 C1489 1.321 . S
N1488 Co1491 2.135 . S
C1489 N1487 1.340 . S
C1489 N1488 1.321 . S
C1489 H1513 0.930 . S
H1490 C1485 0.931 . S
Co1491 N1488 2.135 . S
Co1491 N1494 2.121 . S
Co1491 O1499 2.055 . S
Co1491 O1502 2.039 . S
Co1491 N1505 2.140 . S
C1492 O1493 1.227 . S
C1492 O1502 1.265 . S
O1493 C1492 1.227 . S
N1494 Co1491 2.121 . S
N1494 C1496 1.375 . S
N1494 C1497 1.313 . S
C1495 C1496 1.338 . S
C1495 N1498 1.377 . S
C1495 H1515 0.930 . S
C1496 N1494 1.375 . S
C1496 C1495 1.338 . S
C1496 H1500 0.931 . S
C1497 N1494 1.313 . S
C1497 N1498 1.344 . S
C1497 H1501 0.930 . S
N1498 C1495 1.377 . S
N1498 C1497 1.344 . S
O1499 Co1491 2.055 . S
O1499 C1503 1.253 . S
H1500 C1496 0.931 . S
H1501 C1497 0.930 . S
O1502 Co1491 2.039 . S
O1502 C1492 1.265 . S
C1503 O1499 1.253 . S
C1503 O1504 1.227 . S
O1504 C1503 1.227 . S
N1505 Co1491 2.140 . S
N1505 C1508 1.346 . S
N1505 C1509 1.345 . S
C1506 C1507 1.387 . S
C1506 C1510 1.391 . S
C1507 C1506 1.387 . S
C1507 C1508 1.369 . S
C1507 H1516 0.929 . S
C1508 N1505 1.346 . S
C1508 C1507 1.369 . S
C1508 H1511 0.928 . S
C1509 N1505 1.345 . S
C1509 C1510 1.371 . S
C1509 H1512 0.931 . S
C1510 C1506 1.391 . S
C1510 C1509 1.371 . S
C1510 H1517 0.930 . S
H1511 C1508 0.928 . S
H1512 C1509 0.931 . S
H1513 C1489 0.930 . S
H1514 C1486 0.930 . S
H1515 C1495 0.930 . S
H1516 C1507 0.929 . S
H1517 C1510 0.930 . S
C1518 C1519 1.351 . S
C1518 N1521 1.368 . S
C1518 H1523 0.931 . S
C1519 C1518 1.351 . S
C1519 N1520 1.373 . S
C1519 H1547 0.930 . S
N1520 C1519 1.373 . S
N1520 C1522 1.340 . S
N1521 C1518 1.368 . S
N1521 C1522 1.321 . S
N1521 Co1524 2.135 . S
C1522 N1520 1.340 . S
C1522 N1521 1.321 . S
C1522 H1546 0.930 . S
H1523 C1518 0.931 . S
Co1524 N1521 2.135 . S
Co1524 N1527 2.121 . S
Co1524 O1532 2.055 . S
Co1524 O1535 2.039 . S
Co1524 N1538 2.140 . S
C1525 O1526 1.227 . S
C1525 O1535 1.265 . S
O1526 C1525 1.227 . S
N1527 Co1524 2.121 . S
N1527 C1529 1.375 . S
N1527 C1530 1.313 . S
C1528 C1529 1.338 . S
C1528 N1531 1.377 . S
C1528 H1548 0.930 . S
C1529 N1527 1.375 . S
C1529 C1528 1.338 . S
C1529 H1533 0.931 . S
C1530 N1527 1.313 . S
C1530 N1531 1.344 . S
C1530 H1534 0.930 . S
N1531 C1528 1.377 . S
N1531 C1530 1.344 . S
O1532 Co1524 2.055 . S
O1532 C1536 1.253 . S
H1533 C1529 0.931 . S
H1534 C1530 0.930 . S
O1535 Co1524 2.039 . S
O1535 C1525 1.265 . S
C1536 O1532 1.253 . S
C1536 O1537 1.227 . S
O1537 C1536 1.227 . S
N1538 Co1524 2.140 . S
N1538 C1541 1.346 . S
N1538 C1542 1.345 . S
C1539 C1540 1.387 . S
C1539 C1543 1.391 . S
C1540 C1539 1.387 . S
C1540 C1541 1.369 . S
C1540 H1549 0.929 . S
C1541 N1538 1.346 . S
C1541 C1540 1.369 . S
C1541 H1544 0.928 . S
C1542 N1538 1.345 . S
C1542 C1543 1.371 . S
C1542 H1545 0.931 . S
C1543 C1539 1.391 . S
C1543 C1542 1.371 . S
C1543 H1550 0.930 . S
H1544 C1541 0.928 . S
H1545 C1542 0.931 . S
H1546 C1522 0.930 . S
H1547 C1519 0.930 . S
H1548 C1528 0.930 . S
H1549 C1540 0.929 . S
H1550 C1543 0.930 . S
C1551 C1552 1.351 . S
C1551 N1554 1.368 . S
C1551 H1556 0.931 . S
C1552 C1551 1.351 . S
C1552 N1553 1.373 . S
C1552 H1580 0.930 . S
N1553 C1552 1.373 . S
N1553 C1555 1.340 . S
N1554 C1551 1.368 . S
N1554 C1555 1.321 . S
N1554 Co1557 2.135 . S
C1555 N1553 1.340 . S
C1555 N1554 1.321 . S
C1555 H1579 0.930 . S
H1556 C1551 0.931 . S
Co1557 N1554 2.135 . S
Co1557 N1560 2.121 . S
Co1557 O1565 2.055 . S
Co1557 O1568 2.039 . S
Co1557 N1571 2.140 . S
C1558 O1559 1.227 . S
C1558 O1568 1.265 . S
O1559 C1558 1.227 . S
N1560 Co1557 2.121 . S
N1560 C1562 1.375 . S
N1560 C1563 1.313 . S
C1561 C1562 1.338 . S
C1561 N1564 1.377 . S
C1561 H1581 0.930 . S
C1562 N1560 1.375 . S
C1562 C1561 1.338 . S
C1562 H1566 0.931 . S
C1563 N1560 1.313 . S
C1563 N1564 1.344 . S
C1563 H1567 0.930 . S
N1564 C1561 1.377 . S
N1564 C1563 1.344 . S
O1565 Co1557 2.055 . S
O1565 C1569 1.253 . S
H1566 C1562 0.931 . S
H1567 C1563 0.930 . S
O1568 Co1557 2.039 . S
O1568 C1558 1.265 . S
C1569 O1565 1.253 . S
C1569 O1570 1.227 . S
O1570 C1569 1.227 . S
N1571 Co1557 2.140 . S
N1571 C1574 1.346 . S
N1571 C1575 1.345 . S
C1572 C1573 1.387 . S
C1572 C1576 1.391 . S
C1573 C1572 1.387 . S
C1573 C1574 1.369 . S
C1573 H1582 0.929 . S
C1574 N1571 1.346 . S
C1574 C1573 1.369 . S
C1574 H1577 0.928 . S
C1575 N1571 1.345 . S
C1575 C1576 1.371 . S
C1575 H1578 0.931 . S
C1576 C1572 1.391 . S
C1576 C1575 1.371 . S
C1576 H1583 0.930 . S
H1577 C1574 0.928 . S
H1578 C1575 0.931 . S
H1579 C1555 0.930 . S
H1580 C1552 0.930 . S
H1581 C1561 0.930 . S
H1582 C1573 0.929 . S
H1583 C1576 0.930 . S
C1584 C1585 1.363 . S
C1584 C1590 1.379 . S
C1584 N1592 1.356 . S
C1585 C1584 1.363 . S
C1585 C1591 1.363 . S
C1586 C1587 1.363 . S
C1586 C1591 1.379 . S
C1586 N1593 1.356 . S
C1587 C1586 1.363 . S
C1587 C1590 1.363 . S
N1588 C1590 1.356 . S
N1588 H1600 0.984 . S
N1588 H1601 0.985 . S
N1589 C1591 1.356 . S
N1589 H1594 0.984 . S
N1589 H1595 0.985 . S
C1590 C1584 1.379 . S
C1590 C1587 1.363 . S
C1590 N1588 1.356 . S
C1591 C1585 1.363 . S
C1591 C1586 1.379 . S
C1591 N1589 1.356 . S
N1592 C1584 1.356 . S
N1592 H1598 0.984 . S
N1592 H1599 0.984 . S
N1593 C1586 1.356 . S
N1593 H1596 0.984 . S
N1593 H1597 0.985 . S
H1594 N1589 0.984 . S
H1595 N1589 0.985 . S
H1596 N1593 0.984 . S
H1597 N1593 0.985 . S
H1598 N1592 0.984 . S
H1599 N1592 0.984 . S
H1600 N1588 0.984 . S
H1601 N1588 0.985 . S
C1602 C1603 1.363 . S
C1602 C1608 1.379 . S
C1602 N1610 1.356 . S
C1603 C1602 1.363 . S
C1603 C1609 1.363 . S
C1604 C1605 1.363 . S
C1604 C1609 1.379 . S
C1604 N1611 1.356 . S
C1605 C1604 1.363 . S
C1605 C1608 1.363 . S
N1606 C1608 1.356 1_554 S
N1606 H1618 0.984 . S
N1606 H1619 0.985 . S
N1607 C1609 1.356 . S
N1607 H1612 0.984 . S
N1607 H1613 0.985 . S
C1608 C1602 1.379 . S
C1608 C1605 1.363 . S
C1608 N1606 1.356 1_556 S
C1609 C1603 1.363 . S
C1609 C1604 1.379 . S
C1609 N1607 1.356 . S
N1610 C1602 1.356 . S
N1610 H1616 0.984 1_556 S
N1610 H1617 0.984 . S
N1611 C1604 1.356 . S
N1611 H1614 0.984 . S
N1611 H1615 0.985 . S
H1612 N1607 0.984 . S
H1613 N1607 0.985 . S
H1614 N1611 0.984 . S
H1615 N1611 0.985 . S
H1616 N1610 0.984 1_554 S
H1617 N1610 0.984 . S
H1618 N1606 0.984 . S
H1619 N1606 0.985 . S
C1620 C1621 1.363 . S
C1620 C1626 1.379 . S
C1620 N1628 1.356 . S
C1621 C1620 1.363 . S
C1621 C1627 1.363 . S
C1622 C1623 1.363 . S
C1622 C1627 1.379 . S
C1622 N1629 1.356 . S
C1623 C1622 1.363 . S
C1623 C1626 1.363 . S
N1624 C1626 1.356 . S
N1624 H1636 0.984 . S
N1624 H1637 0.985 . S
N1625 C1627 1.356 . S
N1625 H1630 0.984 . S
N1625 H1631 0.985 . S
C1626 C1620 1.379 . S
C1626 C1623 1.363 . S
C1626 N1624 1.356 . S
C1627 C1621 1.363 . S
C1627 C1622 1.379 . S
C1627 N1625 1.356 . S
N1628 C1620 1.356 . S
N1628 H1634 0.984 . S
N1628 H1635 0.984 . S
N1629 C1622 1.356 . S
N1629 H1632 0.984 . S
N1629 H1633 0.985 . S
H1630 N1625 0.984 . S
H1631 N1625 0.985 . S
H1632 N1629 0.984 . S
H1633 N1629 0.985 . S
H1634 N1628 0.984 . S
H1635 N1628 0.984 . S
H1636 N1624 0.984 . S
H1637 N1624 0.985 . S
C1638 C1639 1.363 . S
C1638 C1644 1.379 . S
C1638 N1646 1.356 . S
C1639 C1638 1.363 . S
C1639 C1645 1.363 . S
C1640 C1641 1.363 . S
C1640 C1645 1.379 . S
C1640 N1647 1.356 . S
C1641 C1640 1.363 . S
C1641 C1644 1.363 . S
N1642 C1644 1.356 . S
N1642 H1654 0.984 . S
N1642 H1655 0.985 . S
N1643 C1645 1.356 . S
N1643 H1648 0.984 . S
N1643 H1649 0.985 . S
C1644 C1638 1.379 . S
C1644 C1641 1.363 . S
C1644 N1642 1.356 . S
C1645 C1639 1.363 . S
C1645 C1640 1.379 . S
C1645 N1643 1.356 . S
N1646 C1638 1.356 . S
N1646 H1652 0.984 . S
N1646 H1653 0.984 . S
N1647 C1640 1.356 . S
N1647 H1650 0.984 . S
N1647 H1651 0.985 . S
H1648 N1643 0.984 . S
H1649 N1643 0.985 . S
H1650 N1647 0.984 . S
H1651 N1647 0.985 . S
H1652 N1646 0.984 . S
H1653 N1646 0.984 . S
H1654 N1642 0.984 . S
H1655 N1642 0.985 . S
C1656 C1657 1.363 . S
C1656 C1662 1.379 . S
C1656 N1664 1.356 . S
C1657 C1656 1.363 . S
C1657 C1663 1.363 . S
C1658 C1659 1.363 . S
C1658 C1663 1.379 . S
C1658 N1665 1.356 . S
C1659 C1658 1.363 . S
C1659 C1662 1.363 . S
N1660 C1662 1.356 . S
N1660 H1672 0.984 . S
N1660 H1673 0.985 . S
N1661 C1663 1.356 . S
N1661 H1666 0.984 . S
N1661 H1667 0.985 . S
C1662 C1656 1.379 . S
C1662 C1659 1.363 . S
C1662 N1660 1.356 . S
C1663 C1657 1.363 . S
C1663 C1658 1.379 . S
C1663 N1661 1.356 . S
N1664 C1656 1.356 . S
N1664 H1670 0.984 . S
N1664 H1671 0.984 . S
N1665 C1658 1.356 . S
N1665 H1668 0.984 . S
N1665 H1669 0.985 . S
H1666 N1661 0.984 . S
H1667 N1661 0.985 . S
H1668 N1665 0.984 . S
H1669 N1665 0.985 . S
H1670 N1664 0.984 . S
H1671 N1664 0.984 . S
H1672 N1660 0.984 . S
H1673 N1660 0.985 . S
C1674 C1675 1.363 . S
C1674 C1680 1.379 . S
C1674 N1682 1.356 . S
C1675 C1674 1.363 . S
C1675 C1681 1.363 . S
C1676 C1677 1.363 . S
C1676 C1681 1.379 . S
C1676 N1683 1.356 1_554 S
C1677 C1676 1.363 . S
C1677 C1680 1.363 . S
N1678 C1680 1.356 1_655 S
N1678 H1690 0.984 . S
N1678 H1691 0.985 . S
N1679 C1681 1.356 . S
N1679 H1684 0.984 . S
N1679 H1685 0.985 1_554 S
C1680 C1674 1.379 . S
C1680 C1677 1.363 . S
C1680 N1678 1.356 1_455 S
C1681 C1675 1.363 . S
C1681 C1676 1.379 . S
C1681 N1679 1.356 . S
N1682 C1674 1.356 . S
N1682 H1688 0.984 . S
N1682 H1689 0.984 . S
N1683 C1676 1.356 1_556 S
N1683 H1686 1.020 . S
N1683 H1687 0.985 . S
H1684 N1679 0.984 . S
H1685 N1679 0.985 1_556 S
H1686 N1683 1.020 . S
H1687 N1683 0.985 . S
H1688 N1682 0.984 . S
H1689 N1682 0.984 . S
H1690 N1678 0.984 . S
H1691 N1678 0.985 . S
C1692 C1693 1.363 . S
C1692 C1698 1.379 . S
C1692 N1700 1.356 . S
C1693 C1692 1.363 . S
C1693 C1699 1.363 . S
C1694 C1695 1.363 . S
C1694 C1699 1.379 . S
C1694 N1701 1.356 . S
C1695 C1694 1.363 . S
C1695 C1698 1.363 . S
N1696 C1698 1.356 . S
N1696 H1708 0.984 . S
N1696 H1709 0.985 . S
N1697 C1699 1.356 . S
N1697 H1702 0.984 . S
N1697 H1703 0.985 . S
C1698 C1692 1.379 . S
C1698 C1695 1.363 . S
C1698 N1696 1.356 . S
C1699 C1693 1.363 . S
C1699 C1694 1.379 . S
C1699 N1697 1.356 . S
N1700 C1692 1.356 . S
N1700 H1706 0.984 . S
N1700 H1707 0.984 . S
N1701 C1694 1.356 . S
N1701 H1704 0.984 . S
N1701 H1705 0.985 . S
H1702 N1697 0.984 . S
H1703 N1697 0.985 . S
H1704 N1701 0.984 . S
H1705 N1701 0.985 . S
H1706 N1700 0.984 . S
H1707 N1700 0.984 . S
H1708 N1696 0.984 . S
H1709 N1696 0.985 . S
C1710 C1711 1.363 . S
C1710 C1716 1.379 . S
C1710 N1718 1.356 1_655 S
C1711 C1710 1.363 . S
C1711 C1717 1.363 . S
C1712 C1713 1.363 . S
C1712 C1717 1.379 . S
C1712 N1719 1.356 . S
C1713 C1712 1.363 . S
C1713 C1716 1.363 . S
N1714 C1716 1.356 . S
N1714 H1726 0.984 . S
N1714 H1727 0.985 . S
N1715 C1717 1.356 . S
N1715 H1720 0.984 . S
N1715 H1721 0.985 . S
C1716 C1710 1.379 . S
C1716 C1713 1.363 . S
C1716 N1714 1.356 . S
C1717 C1711 1.363 . S
C1717 C1712 1.379 . S
C1717 N1715 1.356 . S
N1718 C1710 1.356 1_455 S
N1718 H1724 0.984 . S
N1718 H1725 0.984 . S
N1719 C1712 1.356 . S
N1719 H1722 0.984 . S
N1719 H1723 0.985 . S
H1720 N1715 0.984 . S
H1721 N1715 0.985 . S
H1722 N1719 0.984 . S
H1723 N1719 0.985 . S
H1724 N1718 0.984 . S
H1725 N1718 0.984 . S
H1726 N1714 0.984 . S
H1727 N1714 0.985 . S
C1728 C1729 1.363 . S
C1728 C1734 1.379 . S
C1728 N1736 1.356 . S
C1729 C1728 1.363 . S
C1729 C1735 1.363 . S
C1730 C1731 1.363 . S
C1730 C1735 1.379 . S
C1730 N1737 1.356 . S
C1731 C1730 1.363 . S
C1731 C1734 1.363 . S
N1732 C1734 1.356 . S
N1732 H1744 0.984 . S
N1732 H1745 0.985 . S
N1733 C1735 1.356 . S
N1733 H1738 0.984 . S
N1733 H1739 0.985 . S
C1734 C1728 1.379 . S
C1734 C1731 1.363 . S
C1734 N1732 1.356 . S
C1735 C1729 1.363 . S
C1735 C1730 1.379 . S
C1735 N1733 1.356 . S
N1736 C1728 1.356 . S
N1736 H1742 0.984 . S
N1736 H1743 0.984 . S
N1737 C1730 1.356 . S
N1737 H1740 0.984 . S
N1737 H1741 0.985 . S
H1738 N1733 0.984 . S
H1739 N1733 0.985 . S
H1740 N1737 0.984 . S
H1741 N1737 0.985 . S
H1742 N1736 0.984 . S
H1743 N1736 0.984 . S
H1744 N1732 0.984 . S
H1745 N1732 0.985 . S
C1746 C1747 1.363 . S
C1746 C1752 1.379 . S
C1746 N1754 1.356 1_554 S
C1747 C1746 1.363 . S
C1747 C1753 1.363 . S
C1748 C1749 1.363 . S
C1748 C1753 1.379 . S
C1748 N1755 1.356 . S
C1749 C1748 1.363 . S
C1749 C1752 1.363 . S
N1750 C1752 1.356 . S
N1750 H1762 0.984 . S
N1750 H1763 0.985 . S
N1751 C1753 1.356 . S
N1751 H1756 0.984 1_554 S
N1751 H1757 0.985 . S
C1752 C1746 1.379 . S
C1752 C1749 1.363 . S
C1752 N1750 1.356 . S
C1753 C1747 1.363 . S
C1753 C1748 1.379 . S
C1753 N1751 1.356 . S
N1754 C1746 1.356 1_556 S
N1754 H1760 0.984 . S
N1754 H1761 0.984 . S
N1755 C1748 1.356 . S
N1755 H1758 0.984 . S
N1755 H1759 0.985 . S
H1756 N1751 0.984 1_556 S
H1757 N1751 0.985 . S
H1758 N1755 0.984 . S
H1759 N1755 0.985 . S
H1760 N1754 0.984 . S
H1761 N1754 0.984 . S
H1762 N1750 0.984 . S
H1763 N1750 0.985 . S
C1764 C1765 1.363 . S
C1764 C1770 1.379 . S
C1764 N1772 1.356 . S
C1765 C1764 1.363 . S
C1765 C1771 1.363 . S
C1766 C1767 1.363 . S
C1766 C1771 1.379 . S
C1766 N1773 1.356 . S
C1767 C1766 1.363 . S
C1767 C1770 1.363 . S
N1768 C1770 1.356 . S
N1768 H1780 0.984 . S
N1768 H1781 0.985 . S
N1769 C1771 1.356 . S
N1769 H1774 0.984 . S
N1769 H1775 0.985 . S
C1770 C1764 1.379 . S
C1770 C1767 1.363 . S
C1770 N1768 1.356 . S
C1771 C1765 1.363 . S
C1771 C1766 1.379 . S
C1771 N1769 1.356 . S
N1772 C1764 1.356 . S
N1772 H1778 0.984 . S
N1772 H1779 0.984 . S
N1773 C1766 1.356 . S
N1773 H1776 0.984 . S
N1773 H1777 0.985 . S
H1774 N1769 0.984 . S
H1775 N1769 0.985 . S
H1776 N1773 0.984 . S
H1777 N1773 0.985 . S
H1778 N1772 0.984 . S
H1779 N1772 0.984 . S
H1780 N1768 0.984 . S
H1781 N1768 0.985 . S
C1782 C1783 1.363 . S
C1782 C1788 1.379 . S
C1782 N1790 1.356 . S
C1783 C1782 1.363 . S
C1783 C1789 1.363 . S
C1784 C1785 1.363 . S
C1784 C1789 1.379 . S
C1784 N1791 1.356 . S
C1785 C1784 1.363 . S
C1785 C1788 1.363 . S
N1786 C1788 1.356 . S
N1786 H1798 0.984 . S
N1786 H1799 0.985 . S
N1787 C1789 1.356 1_565 S
N1787 H1792 0.984 1_554 S
N1787 H1793 0.985 . S
C1788 C1782 1.379 . S
C1788 C1785 1.363 . S
C1788 N1786 1.356 . S
C1789 C1783 1.363 . S
C1789 C1784 1.379 . S
C1789 N1787 1.356 1_545 S
N1790 C1782 1.356 . S
N1790 H1796 0.984 . S
N1790 H1797 0.984 1_554 S
N1791 C1784 1.356 . S
N1791 H1794 0.984 . S
N1791 H1795 0.985 1_545 S
H1792 N1787 0.984 1_556 S
H1793 N1787 0.985 . S
H1794 N1791 0.984 . S
H1795 N1791 0.985 1_565 S
H1796 N1790 0.984 . S
H1797 N1790 0.984 1_556 S
H1798 N1786 0.984 . S
H1799 N1786 0.985 . S
C1800 C1801 1.363 . S
C1800 C1806 1.379 . S
C1800 N1808 1.356 . S
C1801 C1800 1.363 . S
C1801 C1807 1.363 . S
C1802 C1803 1.363 . S
C1802 C1807 1.379 . S
C1802 N1809 1.356 . S
C1803 C1802 1.363 . S
C1803 C1806 1.363 . S
N1804 C1806 1.356 . S
N1804 H1816 0.984 . S
N1804 H1817 0.985 . S
N1805 C1807 1.356 . S
N1805 H1810 0.984 . S
N1805 H1811 0.985 . S
C1806 C1800 1.379 . S
C1806 C1803 1.363 . S
C1806 N1804 1.356 . S
C1807 C1801 1.363 . S
C1807 C1802 1.379 . S
C1807 N1805 1.356 . S
N1808 C1800 1.356 . S
N1808 H1814 0.984 . S
N1808 H1815 0.984 . S
N1809 C1802 1.356 . S
N1809 H1812 0.984 . S
N1809 H1813 0.985 . S
H1810 N1805 0.984 . S
H1811 N1805 0.985 . S
H1812 N1809 0.984 . S
H1813 N1809 0.985 . S
H1814 N1808 0.984 . S
H1815 N1808 0.984 . S
H1816 N1804 0.984 . S
H1817 N1804 0.985 . S
C1818 C1819 1.363 . S
C1818 C1824 1.379 . S
C1818 N1826 1.356 . S
C1819 C1818 1.363 . S
C1819 C1825 1.363 . S
C1820 C1821 1.363 . S
C1820 C1825 1.379 . S
C1820 N1827 1.356 1_556 S
C1821 C1820 1.363 . S
C1821 C1824 1.363 . S
N1822 C1824 1.356 . S
N1822 H1834 0.984 . S
N1822 H1835 0.985 1_556 S
N1823 C1825 1.356 . S
N1823 H1828 0.984 . S
N1823 H1829 0.985 . S
C1824 C1818 1.379 . S
C1824 C1821 1.363 . S
C1824 N1822 1.356 . S
C1825 C1819 1.363 . S
C1825 C1820 1.379 . S
C1825 N1823 1.356 . S
N1826 C1818 1.356 . S
N1826 H1832 0.984 . S
N1826 H1833 0.984 . S
N1827 C1820 1.356 1_554 S
N1827 H1830 0.984 . S
N1827 H1831 0.985 . S
H1828 N1823 0.984 . S
H1829 N1823 0.985 . S
H1830 N1827 0.984 . S
H1831 N1827 0.985 . S
H1832 N1826 0.984 . S
H1833 N1826 0.984 . S
H1834 N1822 0.984 . S
H1835 N1822 0.985 1_554 S
C1836 C1837 1.363 . S
C1836 C1842 1.379 . S
C1836 N1844 1.356 . S
C1837 C1836 1.363 . S
C1837 C1843 1.363 . S
C1838 C1839 1.363 . S
C1838 C1843 1.379 . S
C1838 N1845 1.356 . S
C1839 C1838 1.363 . S
C1839 C1842 1.363 . S
N1840 C1842 1.356 . S
N1840 H1852 0.984 . S
N1840 H1853 0.985 . S
N1841 C1843 1.356 . S
N1841 H1846 0.984 . S
N1841 H1847 0.985 . S
C1842 C1836 1.379 . S
C1842 C1839 1.363 . S
C1842 N1840 1.356 . S
C1843 C1837 1.363 . S
C1843 C1838 1.379 . S
C1843 N1841 1.356 . S
N1844 C1836 1.356 . S
N1844 H1850 0.984 . S
N1844 H1851 0.984 . S
N1845 C1838 1.356 . S
N1845 H1848 0.984 . S
N1845 H1849 0.985 . S
H1846 N1841 0.984 . S
H1847 N1841 0.985 . S
H1848 N1845 0.984 . S
H1849 N1845 0.985 . S
H1850 N1844 0.984 . S
H1851 N1844 0.984 . S
H1852 N1840 0.984 . S
H1853 N1840 0.985 . S
C1854 C1855 1.363 . S
C1854 C1860 1.379 . S
C1854 N1862 1.356 1_545 S
C1855 C1854 1.363 . S
C1855 C1861 1.363 . S
C1856 C1857 1.363 . S
C1856 C1861 1.379 . S
C1856 N1863 1.356 . S
C1857 C1856 1.363 . S
C1857 C1860 1.363 . S
N1858 C1860 1.356 . S
N1858 H1870 0.984 1_545 S
N1858 H1871 0.985 . S
N1859 C1861 1.356 . S
N1859 H1864 0.984 1_556 S
N1859 H1865 0.985 . S
C1860 C1854 1.379 . S
C1860 C1857 1.363 . S
C1860 N1858 1.356 . S
C1861 C1855 1.363 . S
C1861 C1856 1.379 . S
C1861 N1859 1.356 . S
N1862 C1854 1.356 1_565 S
N1862 H1868 0.984 . S
N1862 H1869 0.984 1_556 S
N1863 C1856 1.356 . S
N1863 H1866 0.984 . S
N1863 H1867 0.985 . S
H1864 N1859 0.984 1_554 S
H1865 N1859 0.985 . S
H1866 N1863 0.984 . S
H1867 N1863 0.985 . S
H1868 N1862 0.984 . S
H1869 N1862 0.984 1_554 S
H1870 N1858 0.984 1_565 S
H1871 N1858 0.985 . S
C1872 C1873 1.363 . S
C1872 C1878 1.379 . S
C1872 N1880 1.356 . S
C1873 C1872 1.363 . S
C1873 C1879 1.363 . S
C1874 C1875 1.363 . S
C1874 C1879 1.379 . S
C1874 N1881 1.356 . S
C1875 C1874 1.363 . S
C1875 C1878 1.363 . S
N1876 C1878 1.356 . S
N1876 H1888 0.984 . S
N1876 H1889 0.985 . S
N1877 C1879 1.356 . S
N1877 H1882 0.984 . S
N1877 H1883 0.985 . S
C1878 C1872 1.379 . S
C1878 C1875 1.363 . S
C1878 N1876 1.356 . S
C1879 C1873 1.363 . S
C1879 C1874 1.379 . S
C1879 N1877 1.356 . S
N1880 C1872 1.356 . S
N1880 H1886 0.984 . S
N1880 H1887 0.984 . S
N1881 C1874 1.356 . S
N1881 H1884 0.984 . S
N1881 H1885 0.985 . S
H1882 N1877 0.984 . S
H1883 N1877 0.985 . S
H1884 N1881 0.984 . S
H1885 N1881 0.985 . S
H1886 N1880 0.984 . S
H1887 N1880 0.984 . S
H1888 N1876 0.984 . S
H1889 N1876 0.985 . S
C1890 C1891 1.363 . S
C1890 C1896 1.379 . S
C1890 N1898 1.356 . S
C1891 C1890 1.363 . S
C1891 C1897 1.363 . S
C1892 C1893 1.363 . S
C1892 C1897 1.379 . S
C1892 N1899 1.356 . S
C1893 C1892 1.363 . S
C1893 C1896 1.363 . S
N1894 C1896 1.356 . S
N1894 H1906 0.984 . S
N1894 H1907 0.985 . S
N1895 C1897 1.356 . S
N1895 H1900 0.984 . S
N1895 H1901 0.985 . S
C1896 C1890 1.379 . S
C1896 C1893 1.363 . S
C1896 N1894 1.356 . S
C1897 C1891 1.363 . S
C1897 C1892 1.379 . S
C1897 N1895 1.356 . S
N1898 C1890 1.356 . S
N1898 H1904 0.984 . S
N1898 H1905 0.984 . S
N1899 C1892 1.356 . S
N1899 H1902 0.984 . S
N1899 H1903 0.985 . S
H1900 N1895 0.984 . S
H1901 N1895 0.985 . S
H1902 N1899 0.984 . S
H1903 N1899 0.985 . S
H1904 N1898 0.984 . S
H1905 N1898 0.984 . S
H1906 N1894 0.984 . S
H1907 N1894 0.985 . S
C1908 C1909 1.363 . S
C1908 C1914 1.379 . S
C1908 N1916 1.356 . S
C1909 C1908 1.363 . S
C1909 C1915 1.363 . S
C1910 C1911 1.363 . S
C1910 C1915 1.379 . S
C1910 N1917 1.356 . S
C1911 C1910 1.363 . S
C1911 C1914 1.363 . S
N1912 C1914 1.356 . S
N1912 H1924 0.984 . S
N1912 H1925 0.985 . S
N1913 C1915 1.356 . S
N1913 H1918 0.984 . S
N1913 H1919 0.985 1_655 S
C1914 C1908 1.379 . S
C1914 C1911 1.363 . S
C1914 N1912 1.356 . S
C1915 C1909 1.363 . S
C1915 C1910 1.379 . S
C1915 N1913 1.356 . S
N1916 C1908 1.356 . S
N1916 H1922 0.984 . S
N1916 H1923 0.984 . S
N1917 C1910 1.356 . S
N1917 H1920 0.984 . S
N1917 H1921 0.985 . S
H1918 N1913 0.984 . S
H1919 N1913 0.985 1_455 S
H1920 N1917 0.984 . S
H1921 N1917 0.985 . S
H1922 N1916 0.984 . S
H1923 N1916 0.984 . S
H1924 N1912 0.984 . S
H1925 N1912 0.985 . S
C1926 C1927 1.363 . S
C1926 C1932 1.379 . S
C1926 N1934 1.356 . S
C1927 C1926 1.363 . S
C1927 C1933 1.363 . S
C1928 C1929 1.363 . S
C1928 C1933 1.379 . S
C1928 N1935 1.356 . S
C1929 C1928 1.363 . S
C1929 C1932 1.363 . S
N1930 C1932 1.356 . S
N1930 H1942 0.984 . S
N1930 H1943 0.985 . S
N1931 C1933 1.356 . S
N1931 H1936 0.984 . S
N1931 H1937 0.985 . S
C1932 C1926 1.379 . S
C1932 C1929 1.363 . S
C1932 N1930 1.356 . S
C1933 C1927 1.363 . S
C1933 C1928 1.379 . S
C1933 N1931 1.356 . S
N1934 C1926 1.356 . S
N1934 H1940 0.984 . S
N1934 H1941 0.984 . S
N1935 C1928 1.356 . S
N1935 H1938 0.984 . S
N1935 H1939 0.985 . S
H1936 N1931 0.984 . S
H1937 N1931 0.985 . S
H1938 N1935 0.984 . S
H1939 N1935 0.985 . S
H1940 N1934 0.984 . S
H1941 N1934 0.984 . S
H1942 N1930 0.984 . S
H1943 N1930 0.985 . S
C1944 C1945 1.363 . S
C1944 C1950 1.379 . S
C1944 N1952 1.356 . S
C1945 C1944 1.363 . S
C1945 C1951 1.363 . S
C1946 C1947 1.363 . S
C1946 C1951 1.379 . S
C1946 N1953 1.356 . S
C1947 C1946 1.363 . S
C1947 C1950 1.363 . S
N1948 C1950 1.356 . S
N1948 H1960 0.984 . S
N1948 H1961 0.985 . S
N1949 C1951 1.356 . S
N1949 H1954 0.984 . S
N1949 H1955 0.985 . S
C1950 C1944 1.379 . S
C1950 C1947 1.363 . S
C1950 N1948 1.356 . S
C1951 C1945 1.363 . S
C1951 C1946 1.379 . S
C1951 N1949 1.356 . S
N1952 C1944 1.356 . S
N1952 H1958 0.984 . S
N1952 H1959 0.984 . S
N1953 C1946 1.356 . S
N1953 H1956 0.984 . S
N1953 H1957 0.985 . S
H1954 N1949 0.984 . S
H1955 N1949 0.985 . S
H1956 N1953 0.984 . S
H1957 N1953 0.985 . S
H1958 N1952 0.984 . S
H1959 N1952 0.984 . S
H1960 N1948 0.984 . S
H1961 N1948 0.985 . S
C1962 C1963 1.363 . S
C1962 C1968 1.379 . S
C1962 N1970 1.356 . S
C1963 C1962 1.363 . S
C1963 C1969 1.363 . S
C1964 C1965 1.363 . S
C1964 C1969 1.379 . S
C1964 N1971 1.356 . S
C1965 C1964 1.363 . S
C1965 C1968 1.363 . S
N1966 C1968 1.356 . S
N1966 H1978 0.984 . S
N1966 H1979 0.985 . S
N1967 C1969 1.356 . S
N1967 H1972 0.984 . S
N1967 H1973 0.985 . S
C1968 C1962 1.379 . S
C1968 C1965 1.363 . S
C1968 N1966 1.356 . S
C1969 C1963 1.363 . S
C1969 C1964 1.379 . S
C1969 N1967 1.356 . S
N1970 C1962 1.356 . S
N1970 H1976 0.984 . S
N1970 H1977 0.984 . S
N1971 C1964 1.356 . S
N1971 H1974 0.984 . S
N1971 H1975 0.985 . S
H1972 N1967 0.984 . S
H1973 N1967 0.985 . S
H1974 N1971 0.984 . S
H1975 N1971 0.985 . S
H1976 N1970 0.984 . S
H1977 N1970 0.984 . S
H1978 N1966 0.984 . S
H1979 N1966 0.985 . S
C1980 C1981 1.363 . S
C1980 C1986 1.379 . S
C1980 N1988 1.356 . S
C1981 C1980 1.363 . S
C1981 C1987 1.363 . S
C1982 C1983 1.363 . S
C1982 C1987 1.379 . S
C1982 N1989 1.356 . S
C1983 C1982 1.363 . S
C1983 C1986 1.363 . S
N1984 C1986 1.356 . S
N1984 H1996 0.984 . S
N1984 H1997 0.985 . S
N1985 C1987 1.356 . S
N1985 H1990 0.984 . S
N1985 H1991 0.985 . S
C1986 C1980 1.379 . S
C1986 C1983 1.363 . S
C1986 N1984 1.356 . S
C1987 C1981 1.363 . S
C1987 C1982 1.379 . S
C1987 N1985 1.356 . S
N1988 C1980 1.356 . S
N1988 H1994 0.984 . S
N1988 H1995 0.984 . S
N1989 C1982 1.356 . S
N1989 H1992 0.984 . S
N1989 H1993 0.985 . S
H1990 N1985 0.984 . S
H1991 N1985 0.985 . S
H1992 N1989 0.984 . S
H1993 N1989 0.985 . S
H1994 N1988 0.984 . S
H1995 N1988 0.984 . S
H1996 N1984 0.984 . S
H1997 N1984 0.985 . S
C1998 C1999 1.363 . S
C1998 C2004 1.379 . S
C1998 N2006 1.356 1_545 S
C1999 C1998 1.363 . S
C1999 C2005 1.363 . S
C2000 C2001 1.363 . S
C2000 C2005 1.379 . S
C2000 N2007 1.356 . S
C2001 C2000 1.363 . S
C2001 C2004 1.363 . S
N2002 C2004 1.356 . S
N2002 H2014 0.984 . S
N2002 H2015 0.985 . S
N2003 C2005 1.356 . S
N2003 H2008 0.984 . S
N2003 H2009 0.985 1_455 S
C2004 C1998 1.379 . S
C2004 C2001 1.363 . S
C2004 N2002 1.356 . S
C2005 C1999 1.363 . S
C2005 C2000 1.379 . S
C2005 N2003 1.356 . S
N2006 C1998 1.356 1_565 S
N2006 H2012 0.984 . S
N2006 H2013 0.984 . S
N2007 C2000 1.356 . S
N2007 H2010 0.984 . S
N2007 H2011 0.985 . S
H2008 N2003 0.984 . S
H2009 N2003 0.985 1_655 S
H2010 N2007 0.984 . S
H2011 N2007 0.985 . S
H2012 N2006 0.984 . S
H2013 N2006 0.984 . S
H2014 N2002 0.984 . S
H2015 N2002 0.985 . S
C2016 C2017 1.363 . S
C2016 C2022 1.379 . S
C2016 N2024 1.356 . S
C2017 C2016 1.363 . S
C2017 C2023 1.363 . S
C2018 C2019 1.363 . S
C2018 C2023 1.379 . S
C2018 N2025 1.356 . S
C2019 C2018 1.363 . S
C2019 C2022 1.363 . S
N2020 C2022 1.356 . S
N2020 H2032 0.984 . S
N2020 H2033 0.985 . S
N2021 C2023 1.356 . S
N2021 H2026 0.984 . S
N2021 H2027 0.985 . S
C2022 C2016 1.379 . S
C2022 C2019 1.363 . S
C2022 N2020 1.356 . S
C2023 C2017 1.363 . S
C2023 C2018 1.379 . S
C2023 N2021 1.356 . S
N2024 C2016 1.356 . S
N2024 H2030 0.984 . S
N2024 H2031 0.984 . S
N2025 C2018 1.356 . S
N2025 H2028 0.984 . S
N2025 H2029 0.985 . S
H2026 N2021 0.984 . S
H2027 N2021 0.985 . S
H2028 N2025 0.984 . S
H2029 N2025 0.985 . S
H2030 N2024 0.984 . S
H2031 N2024 0.984 . S
H2032 N2020 0.984 . S
H2033 N2020 0.985 . S
C2034 C2035 1.363 . S
C2034 C2040 1.379 . S
C2034 N2042 1.356 . S
C2035 C2034 1.363 . S
C2035 C2041 1.363 . S
C2036 C2037 1.363 . S
C2036 C2041 1.379 . S
C2036 N2043 1.356 . S
C2037 C2036 1.363 . S
C2037 C2040 1.363 . S
N2038 C2040 1.322 1_455 S
N2038 H2050 0.984 . S
N2038 H2051 1.020 . S
N2039 C2041 1.356 . S
N2039 H2044 0.984 . S
N2039 H2045 0.985 . S
C2040 C2034 1.379 . S
C2040 C2037 1.363 . S
C2040 N2038 1.322 1_655 S
C2041 C2035 1.363 . S
C2041 C2036 1.379 . S
C2041 N2039 1.356 . S
N2042 C2034 1.356 . S
N2042 H2048 0.984 . S
N2042 H2049 0.984 . S
N2043 C2036 1.356 . S
N2043 H2046 0.984 1_655 S
N2043 H2047 0.985 . S
H2044 N2039 0.984 . S
H2045 N2039 0.985 . S
H2046 N2043 0.984 1_455 S
H2047 N2043 0.985 . S
H2048 N2042 0.984 . S
H2049 N2042 0.984 . S
H2050 N2038 0.984 . S
H2051 N2038 1.020 . S
C2052 C2053 1.363 . S
C2052 C2058 1.379 . S
C2052 N2060 1.356 . S
C2053 C2052 1.363 . S
C2053 C2059 1.363 . S
C2054 C2055 1.363 . S
C2054 C2059 1.379 . S
C2054 N2061 1.356 . S
C2055 C2054 1.363 . S
C2055 C2058 1.363 . S
N2056 C2058 1.356 . S
N2056 H2068 0.984 . S
N2056 H2069 0.985 . S
N2057 C2059 1.356 . S
N2057 H2062 0.984 . S
N2057 H2063 0.985 . S
C2058 C2052 1.379 . S
C2058 C2055 1.363 . S
C2058 N2056 1.356 . S
C2059 C2053 1.363 . S
C2059 C2054 1.379 . S
C2059 N2057 1.356 . S
N2060 C2052 1.356 . S
N2060 H2066 0.984 . S
N2060 H2067 0.984 . S
N2061 C2054 1.356 . S
N2061 H2064 0.984 . S
N2061 H2065 0.985 . S
H2062 N2057 0.984 . S
H2063 N2057 0.985 . S
H2064 N2061 0.984 . S
H2065 N2061 0.985 . S
H2066 N2060 0.984 . S
H2067 N2060 0.984 . S
H2068 N2056 0.984 . S
H2069 N2056 0.985 . S
C2070 C2071 1.363 . S
C2070 C2076 1.379 . S
C2070 N2078 1.356 . S
C2071 C2070 1.363 . S
C2071 C2077 1.363 . S
C2072 C2073 1.363 . S
C2072 C2077 1.379 . S
C2072 N2079 1.356 . S
C2073 C2072 1.363 . S
C2073 C2076 1.363 . S
N2074 C2076 1.356 . S
N2074 H2086 0.984 . S
N2074 H2087 0.985 . S
N2075 C2077 1.356 1_655 S
N2075 H2080 0.984 . S
N2075 H2081 0.985 . S
C2076 C2070 1.379 . S
C2076 C2073 1.363 . S
C2076 N2074 1.356 . S
C2077 C2071 1.363 . S
C2077 C2072 1.379 . S
C2077 N2075 1.356 1_455 S
N2078 C2070 1.356 . S
N2078 H2084 0.984 . S
N2078 H2085 0.984 1_455 S
N2079 C2072 1.356 . S
N2079 H2082 0.984 . S
N2079 H2083 0.985 . S
H2080 N2075 0.984 . S
H2081 N2075 0.985 . S
H2082 N2079 0.984 . S
H2083 N2079 0.985 . S
H2084 N2078 0.984 . S
H2085 N2078 0.984 1_655 S
H2086 N2074 0.984 . S
H2087 N2074 0.985 . S
C2088 C2089 1.363 . S
C2088 C2094 1.379 . S
C2088 N2096 1.356 . S
C2089 C2088 1.363 . S
C2089 C2095 1.363 . S
C2090 C2091 1.363 . S
C2090 C2095 1.379 . S
C2090 N2097 1.356 . S
C2091 C2090 1.363 . S
C2091 C2094 1.363 . S
N2092 C2094 1.356 . S
N2092 H2104 0.984 . S
N2092 H2105 0.985 . S
N2093 C2095 1.356 . S
N2093 H2098 0.984 . S
N2093 H2099 0.985 . S
C2094 C2088 1.379 . S
C2094 C2091 1.363 . S
C2094 N2092 1.356 . S
C2095 C2089 1.363 . S
C2095 C2090 1.379 . S
C2095 N2093 1.356 . S
N2096 C2088 1.356 . S
N2096 H2102 0.984 . S
N2096 H2103 0.984 . S
N2097 C2090 1.356 . S
N2097 H2100 0.984 . S
N2097 H2101 0.985 . S
H2098 N2093 0.984 . S
H2099 N2093 0.985 . S
H2100 N2097 0.984 . S
H2101 N2097 0.985 . S
H2102 N2096 0.984 . S
H2103 N2096 0.984 . S
H2104 N2092 0.984 . S
H2105 N2092 0.985 . S
C2106 C2107 1.363 . S
C2106 C2112 1.379 . S
C2106 N2114 1.356 . S
C2107 C2106 1.363 . S
C2107 C2113 1.363 . S
C2108 C2109 1.363 . S
C2108 C2113 1.379 . S
C2108 N2115 1.356 . S
C2109 C2108 1.363 . S
C2109 C2112 1.363 . S
N2110 C2112 1.356 . S
N2110 H2122 0.984 . S
N2110 H2123 0.985 . S
N2111 C2113 1.356 . S
N2111 H2116 0.984 . S
N2111 H2117 0.985 . S
C2112 C2106 1.379 . S
C2112 C2109 1.363 . S
C2112 N2110 1.356 . S
C2113 C2107 1.363 . S
C2113 C2108 1.379 . S
C2113 N2111 1.356 . S
N2114 C2106 1.356 . S
N2114 H2120 0.984 . S
N2114 H2121 0.984 . S
N2115 C2108 1.356 . S
N2115 H2118 0.984 . S
N2115 H2119 0.985 . S
H2116 N2111 0.984 . S
H2117 N2111 0.985 . S
H2118 N2115 0.984 . S
H2119 N2115 0.985 . S
H2120 N2114 0.984 . S
H2121 N2114 0.984 . S
H2122 N2110 0.984 . S
H2123 N2110 0.985 . S
C2124 C2125 1.363 . S
C2124 C2130 1.379 . S
C2124 N2132 1.356 . S
C2125 C2124 1.363 . S
C2125 C2131 1.363 . S
C2126 C2127 1.363 . S
C2126 C2131 1.379 . S
C2126 N2133 1.356 . S
C2127 C2126 1.363 . S
C2127 C2130 1.363 . S
N2128 C2130 1.356 . S
N2128 H2140 0.984 . S
N2128 H2141 0.985 . S
N2129 C2131 1.356 . S
N2129 H2134 0.984 . S
N2129 H2135 0.985 . S
C2130 C2124 1.379 . S
C2130 C2127 1.363 . S
C2130 N2128 1.356 . S
C2131 C2125 1.363 . S
C2131 C2126 1.379 . S
C2131 N2129 1.356 . S
N2132 C2124 1.356 . S
N2132 H2138 0.984 . S
N2132 H2139 0.984 . S
N2133 C2126 1.356 . S
N2133 H2136 0.984 . S
N2133 H2137 0.985 . S
H2134 N2129 0.984 . S
H2135 N2129 0.985 . S
H2136 N2133 0.984 . S
H2137 N2133 0.985 . S
H2138 N2132 0.984 . S
H2139 N2132 0.984 . S
H2140 N2128 0.984 . S
H2141 N2128 0.985 . S
C2142 C2143 1.363 . S
C2142 C2148 1.379 . S
C2142 N2150 1.356 . S
C2143 C2142 1.363 . S
C2143 C2149 1.363 . S
C2144 C2145 1.363 . S
C2144 C2149 1.379 . S
C2144 N2151 1.356 . S
C2145 C2144 1.363 . S
C2145 C2148 1.363 . S
N2146 C2148 1.356 . S
N2146 H2158 0.984 . S
N2146 H2159 0.985 . S
N2147 C2149 1.356 . S
N2147 H2152 0.984 . S
N2147 H2153 0.985 . S
C2148 C2142 1.379 . S
C2148 C2145 1.363 . S
C2148 N2146 1.356 . S
C2149 C2143 1.363 . S
C2149 C2144 1.379 . S
C2149 N2147 1.356 . S
N2150 C2142 1.356 . S
N2150 H2156 0.984 . S
N2150 H2157 0.984 . S
N2151 C2144 1.356 . S
N2151 H2154 0.984 . S
N2151 H2155 0.985 . S
H2152 N2147 0.984 . S
H2153 N2147 0.985 . S
H2154 N2151 0.984 . S
H2155 N2151 0.985 . S
H2156 N2150 0.984 . S
H2157 N2150 0.984 . S
H2158 N2146 0.984 . S
H2159 N2146 0.985 . S
C2160 C2161 1.363 . S
C2160 C2166 1.379 . S
C2160 N2168 1.356 . S
C2161 C2160 1.363 . S
C2161 C2167 1.363 . S
C2162 C2163 1.363 . S
C2162 C2167 1.379 . S
C2162 N2169 1.356 . S
C2163 C2162 1.363 . S
C2163 C2166 1.363 . S
N2164 C2166 1.356 . S
N2164 H2176 0.984 . S
N2164 H2177 0.985 . S
N2165 C2167 1.356 . S
N2165 H2170 0.984 . S
N2165 H2171 0.985 . S
C2166 C2160 1.379 . S
C2166 C2163 1.363 . S
C2166 N2164 1.356 . S
C2167 C2161 1.363 . S
C2167 C2162 1.379 . S
C2167 N2165 1.356 . S
N2168 C2160 1.356 . S
N2168 H2174 0.984 . S
N2168 H2175 0.984 . S
N2169 C2162 1.356 . S
N2169 H2172 0.984 . S
N2169 H2173 0.985 . S
H2170 N2165 0.984 . S
H2171 N2165 0.985 . S
H2172 N2169 0.984 . S
H2173 N2169 0.985 . S
H2174 N2168 0.984 . S
H2175 N2168 0.984 . S
H2176 N2164 0.984 . S
H2177 N2164 0.985 . S
C2178 C2179 1.363 . S
C2178 C2184 1.379 . S
C2178 N2186 1.356 . S
C2179 C2178 1.363 . S
C2179 C2185 1.363 . S
C2180 C2181 1.363 . S
C2180 C2185 1.379 . S
C2180 N2187 1.356 1_565 S
C2181 C2180 1.363 . S
C2181 C2184 1.363 . S
N2182 C2184 1.356 . S
N2182 H2194 0.984 . S
N2182 H2195 0.985 . S
N2183 C2185 1.356 . S
N2183 H2188 0.984 . S
N2183 H2189 0.985 1_565 S
C2184 C2178 1.379 . S
C2184 C2181 1.363 . S
C2184 N2182 1.356 . S
C2185 C2179 1.363 . S
C2185 C2180 1.379 . S
C2185 N2183 1.356 . S
N2186 C2178 1.356 . S
N2186 H2192 0.984 . S
N2186 H2193 0.984 . S
N2187 C2180 1.356 1_545 S
N2187 H2190 0.984 . S
N2187 H2191 0.985 . S
H2188 N2183 0.984 . S
H2189 N2183 0.985 1_545 S
H2190 N2187 0.984 . S
H2191 N2187 0.985 . S
H2192 N2186 0.984 . S
H2193 N2186 0.984 . S
H2194 N2182 0.984 . S
H2195 N2182 0.985 . S
C2196 C2197 1.363 . S
C2196 C2202 1.379 . S
C2196 N2204 1.356 . S
C2197 C2196 1.363 . S
C2197 C2203 1.363 . S
C2198 C2199 1.363 . S
C2198 C2203 1.379 . S
C2198 N2205 1.356 . S
C2199 C2198 1.363 . S
C2199 C2202 1.363 . S
N2200 C2202 1.356 . S
N2200 H2212 0.984 . S
N2200 H2213 0.985 . S
N2201 C2203 1.356 . S
N2201 H2206 0.984 . S
N2201 H2207 0.985 . S
C2202 C2196 1.379 . S
C2202 C2199 1.363 . S
C2202 N2200 1.356 . S
C2203 C2197 1.363 . S
C2203 C2198 1.379 . S
C2203 N2201 1.356 . S
N2204 C2196 1.356 . S
N2204 H2210 0.984 . S
N2204 H2211 0.984 . S
N2205 C2198 1.356 . S
N2205 H2208 0.984 . S
N2205 H2209 0.985 . S
H2206 N2201 0.984 . S
H2207 N2201 0.985 . S
H2208 N2205 0.984 . S
H2209 N2205 0.985 . S
H2210 N2204 0.984 . S
H2211 N2204 0.984 . S
H2212 N2200 0.984 . S
H2213 N2200 0.985 . S
C2214 C2215 1.363 . S
C2214 C2220 1.379 . S
C2214 N2222 1.356 . S
C2215 C2214 1.363 . S
C2215 C2221 1.363 . S
C2216 C2217 1.363 . S
C2216 C2221 1.379 . S
C2216 N2223 1.356 . S
C2217 C2216 1.363 . S
C2217 C2220 1.363 . S
N2218 C2220 1.356 . S
N2218 H2230 0.984 . S
N2218 H2231 0.985 . S
N2219 C2221 1.356 . S
N2219 H2224 0.984 . S
N2219 H2225 0.985 . S
C2220 C2214 1.379 . S
C2220 C2217 1.363 . S
C2220 N2218 1.356 . S
C2221 C2215 1.363 . S
C2221 C2216 1.379 . S
C2221 N2219 1.356 . S
N2222 C2214 1.356 . S
N2222 H2228 0.984 . S
N2222 H2229 0.984 . S
N2223 C2216 1.356 . S
N2223 H2226 0.984 . S
N2223 H2227 0.985 . S
H2224 N2219 0.984 . S
H2225 N2219 0.985 . S
H2226 N2223 0.984 . S
H2227 N2223 0.985 . S
H2228 N2222 0.984 . S
H2229 N2222 0.984 . S
H2230 N2218 0.984 . S
H2231 N2218 0.985 . S
C2232 C2233 1.363 . S
C2232 C2238 1.379 . S
C2232 N2240 1.356 . S
C2233 C2232 1.363 . S
C2233 C2239 1.363 . S
C2234 C2235 1.363 . S
C2234 C2239 1.379 . S
C2234 N2241 1.356 . S
C2235 C2234 1.363 . S
C2235 C2238 1.363 . S
N2236 C2238 1.356 . S
N2236 H2248 0.984 . S
N2236 H2249 0.985 . S
N2237 C2239 1.356 . S
N2237 H2242 0.984 . S
N2237 H2243 0.985 . S
C2238 C2232 1.379 . S
C2238 C2235 1.363 . S
C2238 N2236 1.356 . S
C2239 C2233 1.363 . S
C2239 C2234 1.379 . S
C2239 N2237 1.356 . S
N2240 C2232 1.356 . S
N2240 H2246 0.984 . S
N2240 H2247 0.984 . S
N2241 C2234 1.356 . S
N2241 H2244 0.984 . S
N2241 H2245 0.985 . S
H2242 N2237 0.984 . S
H2243 N2237 0.985 . S
H2244 N2241 0.984 . S
H2245 N2241 0.985 . S
H2246 N2240 0.984 . S
H2247 N2240 0.984 . S
H2248 N2236 0.984 . S
H2249 N2236 0.985 . S
C2250 C2251 1.363 . S
C2250 C2256 1.379 . S
C2250 N2258 1.356 . S
C2251 C2250 1.363 . S
C2251 C2257 1.363 . S
C2252 C2253 1.363 . S
C2252 C2257 1.379 . S
C2252 N2259 1.356 . S
C2253 C2252 1.363 . S
C2253 C2256 1.363 . S
N2254 C2256 1.356 . S
N2254 H2266 0.984 . S
N2254 H2267 0.985 . S
N2255 C2257 1.356 1_545 S
N2255 H2260 0.984 . S
N2255 H2261 0.985 . S
C2256 C2250 1.379 . S
C2256 C2253 1.363 . S
C2256 N2254 1.356 . S
C2257 C2251 1.363 . S
C2257 C2252 1.379 . S
C2257 N2255 1.356 1_565 S
N2258 C2250 1.356 . S
N2258 H2264 0.984 . S
N2258 H2265 0.984 . S
N2259 C2252 1.356 . S
N2259 H2262 0.984 . S
N2259 H2263 0.985 1_565 S
H2260 N2255 0.984 . S
H2261 N2255 0.985 . S
H2262 N2259 0.984 . S
H2263 N2259 0.985 1_545 S
H2264 N2258 0.984 . S
H2265 N2258 0.984 . S
H2266 N2254 0.984 . S
H2267 N2254 0.985 . S
C2268 C2269 1.363 . S
C2268 C2274 1.379 . S
C2268 N2276 1.356 . S
C2269 C2268 1.363 . S
C2269 C2275 1.363 . S
C2270 C2271 1.363 . S
C2270 C2275 1.379 . S
C2270 N2277 1.356 . S
C2271 C2270 1.363 . S
C2271 C2274 1.363 . S
N2272 C2274 1.356 . S
N2272 H2284 0.984 . S
N2272 H2285 0.985 . S
N2273 C2275 1.356 . S
N2273 H2278 0.984 . S
N2273 H2279 0.985 . S
C2274 C2268 1.379 . S
C2274 C2271 1.363 . S
C2274 N2272 1.356 . S
C2275 C2269 1.363 . S
C2275 C2270 1.379 . S
C2275 N2273 1.356 . S
N2276 C2268 1.356 . S
N2276 H2282 0.984 . S
N2276 H2283 0.984 . S
N2277 C2270 1.356 . S
N2277 H2280 0.984 . S
N2277 H2281 0.985 . S
H2278 N2273 0.984 . S
H2279 N2273 0.985 . S
H2280 N2277 0.984 . S
H2281 N2277 0.985 . S
H2282 N2276 0.984 . S
H2283 N2276 0.984 . S
H2284 N2272 0.984 . S
H2285 N2272 0.985 . S
C2286 C2287 1.363 . S
C2286 C2292 1.379 . S
C2286 N2294 1.356 . S
C2287 C2286 1.363 . S
C2287 C2293 1.363 . S
C2288 C2289 1.363 . S
C2288 C2293 1.379 . S
C2288 N2295 1.356 . S
C2289 C2288 1.363 . S
C2289 C2292 1.363 . S
N2290 C2292 1.356 . S
N2290 H2302 0.984 . S
N2290 H2303 0.985 . S
N2291 C2293 1.356 . S
N2291 H2296 0.984 . S
N2291 H2297 0.985 . S
C2292 C2286 1.379 . S
C2292 C2289 1.363 . S
C2292 N2290 1.356 . S
C2293 C2287 1.363 . S
C2293 C2288 1.379 . S
C2293 N2291 1.356 . S
N2294 C2286 1.356 . S
N2294 H2300 0.984 . S
N2294 H2301 0.984 . S
N2295 C2288 1.356 . S
N2295 H2298 0.984 . S
N2295 H2299 0.985 . S
H2296 N2291 0.984 . S
H2297 N2291 0.985 . S
H2298 N2295 0.984 . S
H2299 N2295 0.985 . S
H2300 N2294 0.984 . S
H2301 N2294 0.984 . S
H2302 N2290 0.984 . S
H2303 N2290 0.985 . S
C2304 C2305 1.363 . S
C2304 C2310 1.379 . S
C2304 N2312 1.356 . S
C2305 C2304 1.363 . S
C2305 C2311 1.363 . S
C2306 C2307 1.363 . S
C2306 C2311 1.379 . S
C2306 N2313 1.356 . S
C2307 C2306 1.363 . S
C2307 C2310 1.363 . S
N2308 C2310 1.356 . S
N2308 H2320 0.984 . S
N2308 H2321 0.985 . S
N2309 C2311 1.356 . S
N2309 H2314 0.984 . S
N2309 H2315 0.985 . S
C2310 C2304 1.379 . S
C2310 C2307 1.363 . S
C2310 N2308 1.356 . S
C2311 C2305 1.363 . S
C2311 C2306 1.379 . S
C2311 N2309 1.356 . S
N2312 C2304 1.356 . S
N2312 H2318 0.984 . S
N2312 H2319 0.984 . S
N2313 C2306 1.356 . S
N2313 H2316 0.984 . S
N2313 H2317 0.985 . S
H2314 N2309 0.984 . S
H2315 N2309 0.985 . S
H2316 N2313 0.984 . S
H2317 N2313 0.985 . S
H2318 N2312 0.984 . S
H2319 N2312 0.984 . S
H2320 N2308 0.984 . S
H2321 N2308 0.985 . S
C2322 C2323 1.363 . S
C2322 C2328 1.379 . S
C2322 N2330 1.356 . S
C2323 C2322 1.363 . S
C2323 C2329 1.363 . S
C2324 C2325 1.363 . S
C2324 C2329 1.379 . S
C2324 N2331 1.356 . S
C2325 C2324 1.363 . S
C2325 C2328 1.363 . S
N2326 C2328 1.356 . S
N2326 H2338 0.984 . S
N2326 H2339 0.985 . S
N2327 C2329 1.356 . S
N2327 H2332 0.984 . S
N2327 H2333 0.985 . S
C2328 C2322 1.379 . S
C2328 C2325 1.363 . S
C2328 N2326 1.356 . S
C2329 C2323 1.363 . S
C2329 C2324 1.379 . S
C2329 N2327 1.356 . S
N2330 C2322 1.356 . S
N2330 H2336 0.984 . S
N2330 H2337 0.984 . S
N2331 C2324 1.356 . S
N2331 H2334 0.984 . S
N2331 H2335 0.985 . S
H2332 N2327 0.984 . S
H2333 N2327 0.985 . S
H2334 N2331 0.984 . S
H2335 N2331 0.985 . S
H2336 N2330 0.984 . S
H2337 N2330 0.984 . S
H2338 N2326 0.984 . S
H2339 N2326 0.985 . S
C2340 C2341 1.363 . S
C2340 C2346 1.379 . S
C2340 N2348 1.356 . S
C2341 C2340 1.363 . S
C2341 C2347 1.363 . S
C2342 C2343 1.363 . S
C2342 C2347 1.379 . S
C2342 N2349 1.356 . S
C2343 C2342 1.363 . S
C2343 C2346 1.363 . S
N2344 C2346 1.356 . S
N2344 H2356 0.984 . S
N2344 H2357 0.985 . S
N2345 C2347 1.356 1_565 S
N2345 H2350 0.984 . S
N2345 H2351 0.985 . S
C2346 C2340 1.379 . S
C2346 C2343 1.363 . S
C2346 N2344 1.356 . S
C2347 C2341 1.363 . S
C2347 C2342 1.379 . S
C2347 N2345 1.356 1_545 S
N2348 C2340 1.356 . S
N2348 H2354 0.984 . S
N2348 H2355 0.984 . S
N2349 C2342 1.356 . S
N2349 H2352 0.984 . S
N2349 H2353 0.985 . S
H2350 N2345 0.984 . S
H2351 N2345 0.985 . S
H2352 N2349 0.984 . S
H2353 N2349 0.985 . S
H2354 N2348 0.984 . S
H2355 N2348 0.984 . S
H2356 N2344 0.984 . S
H2357 N2344 0.985 . S
C2358 C2359 1.363 . S
C2358 C2364 1.379 . S
C2358 N2366 1.356 . S
C2359 C2358 1.363 . S
C2359 C2365 1.363 . S
C2360 C2361 1.363 . S
C2360 C2365 1.379 . S
C2360 N2367 1.356 . S
C2361 C2360 1.363 . S
C2361 C2364 1.363 . S
N2362 C2364 1.356 . S
N2362 H2374 0.984 . S
N2362 H2375 0.985 . S
N2363 C2365 1.356 . S
N2363 H2368 0.984 . S
N2363 H2369 0.985 . S
C2364 C2358 1.379 . S
C2364 C2361 1.363 . S
C2364 N2362 1.356 . S
C2365 C2359 1.363 . S
C2365 C2360 1.379 . S
C2365 N2363 1.356 . S
N2366 C2358 1.356 . S
N2366 H2372 0.984 . S
N2366 H2373 0.984 . S
N2367 C2360 1.356 . S
N2367 H2370 0.984 . S
N2367 H2371 0.985 . S
H2368 N2363 0.984 . S
H2369 N2363 0.985 . S
H2370 N2367 0.984 . S
H2371 N2367 0.985 . S
H2372 N2366 0.984 . S
H2373 N2366 0.984 . S
H2374 N2362 0.984 . S
H2375 N2362 0.985 . S
C2376 C2377 1.363 . S
C2376 C2382 1.379 . S
C2376 N2384 1.356 . S
C2377 C2376 1.363 . S
C2377 C2383 1.363 . S
C2378 C2379 1.363 . S
C2378 C2383 1.379 . S
C2378 N2385 1.356 . S
C2379 C2378 1.363 . S
C2379 C2382 1.363 . S
N2380 C2382 1.356 . S
N2380 H2392 0.984 . S
N2380 H2393 0.985 . S
N2381 C2383 1.356 1_545 S
N2381 H2386 0.984 . S
N2381 H2387 0.985 . S
C2382 C2376 1.379 . S
C2382 C2379 1.363 . S
C2382 N2380 1.356 . S
C2383 C2377 1.363 . S
C2383 C2378 1.379 . S
C2383 N2381 1.356 1_565 S
N2384 C2376 1.356 . S
N2384 H2390 0.984 . S
N2384 H2391 0.984 . S
N2385 C2378 1.356 . S
N2385 H2388 0.984 . S
N2385 H2389 0.985 . S
H2386 N2381 0.984 . S
H2387 N2381 0.985 . S
H2388 N2385 0.984 . S
H2389 N2385 0.985 . S
H2390 N2384 0.984 . S
H2391 N2384 0.984 . S
H2392 N2380 0.984 . S
H2393 N2380 0.985 . S
C2394 C2395 1.363 . S
C2394 C2400 1.379 . S
C2394 N2402 1.356 . S
C2395 C2394 1.363 . S
C2395 C2401 1.363 . S
C2396 C2397 1.363 . S
C2396 C2401 1.379 . S
C2396 N2403 1.356 . S
C2397 C2396 1.363 . S
C2397 C2400 1.363 . S
N2398 C2400 1.356 . S
N2398 H2410 0.984 . S
N2398 H2411 0.985 . S
N2399 C2401 1.356 . S
N2399 H2404 0.984 . S
N2399 H2405 0.985 . S
C2400 C2394 1.379 . S
C2400 C2397 1.363 . S
C2400 N2398 1.356 . S
C2401 C2395 1.363 . S
C2401 C2396 1.379 . S
C2401 N2399 1.356 . S
N2402 C2394 1.356 . S
N2402 H2408 0.984 . S
N2402 H2409 0.984 . S
N2403 C2396 1.356 . S
N2403 H2406 0.984 . S
N2403 H2407 0.985 . S
H2404 N2399 0.984 . S
H2405 N2399 0.985 . S
H2406 N2403 0.984 . S
H2407 N2403 0.985 . S
H2408 N2402 0.984 . S
H2409 N2402 0.984 . S
H2410 N2398 0.984 . S
H2411 N2398 0.985 . S
C2412 C2413 1.363 . S
C2412 C2418 1.379 . S
C2412 N2420 1.356 . S
C2413 C2412 1.363 . S
C2413 C2419 1.363 . S
C2414 C2415 1.363 . S
C2414 C2419 1.379 . S
C2414 N2421 1.356 . S
C2415 C2414 1.363 . S
C2415 C2418 1.363 . S
N2416 C2418 1.356 1_545 S
N2416 H2428 0.984 . S
N2416 H2429 0.985 . S
N2417 C2419 1.356 . S
N2417 H2422 0.984 . S
N2417 H2423 0.985 . S
C2418 C2412 1.379 . S
C2418 C2415 1.363 . S
C2418 N2416 1.356 1_565 S
C2419 C2413 1.363 . S
C2419 C2414 1.379 . S
C2419 N2417 1.356 . S
N2420 C2412 1.356 . S
N2420 H2426 0.984 . S
N2420 H2427 0.984 . S
N2421 C2414 1.356 . S
N2421 H2424 0.984 1_565 S
N2421 H2425 0.985 . S
H2422 N2417 0.984 . S
H2423 N2417 0.985 . S
H2424 N2421 0.984 1_545 S
H2425 N2421 0.985 . S
H2426 N2420 0.984 . S
H2427 N2420 0.984 . S
H2428 N2416 0.984 . S
H2429 N2416 0.985 . S
C2430 C2431 1.363 . S
C2430 C2436 1.379 . S
C2430 N2438 1.356 . S
C2431 C2430 1.363 . S
C2431 C2437 1.363 . S
C2432 C2433 1.363 . S
C2432 C2437 1.379 . S
C2432 N2439 1.356 . S
C2433 C2432 1.363 . S
C2433 C2436 1.363 . S
N2434 C2436 1.356 . S
N2434 H2446 0.984 . S
N2434 H2447 0.985 . S
N2435 C2437 1.356 . S
N2435 H2440 0.984 . S
N2435 H2441 0.985 . S
C2436 C2430 1.379 . S
C2436 C2433 1.363 . S
C2436 N2434 1.356 . S
C2437 C2431 1.363 . S
C2437 C2432 1.379 . S
C2437 N2435 1.356 . S
N2438 C2430 1.356 . S
N2438 H2444 0.984 . S
N2438 H2445 0.984 . S
N2439 C2432 1.356 . S
N2439 H2442 0.984 . S
N2439 H2443 0.985 . S
H2440 N2435 0.984 . S
H2441 N2435 0.985 . S
H2442 N2439 0.984 . S
H2443 N2439 0.985 . S
H2444 N2438 0.984 . S
H2445 N2438 0.984 . S
H2446 N2434 0.984 . S
H2447 N2434 0.985 . S
C2448 C2449 1.363 . S
C2448 C2454 1.379 1_455 S
C2448 N2456 1.356 . S
C2449 C2448 1.363 . S
C2449 C2455 1.363 . S
C2450 C2451 1.363 . S
C2450 C2455 1.379 1_655 S
C2450 N2457 1.356 . S
C2451 C2450 1.363 . S
C2451 C2454 1.363 . S
N2452 C2454 1.356 . S
N2452 H2464 0.984 . S
N2452 H2465 0.985 . S
N2453 C2455 1.356 . S
N2453 H2458 0.984 . S
N2453 H2459 0.985 . S
C2454 C2448 1.379 1_655 S
C2454 C2451 1.363 . S
C2454 N2452 1.356 . S
C2455 C2449 1.363 . S
C2455 C2450 1.379 1_455 S
C2455 N2453 1.356 . S
N2456 C2448 1.356 . S
N2456 H2462 0.984 1_455 S
N2456 H2463 0.984 . S
N2457 C2450 1.356 . S
N2457 H2460 0.984 . S
N2457 H2461 0.985 1_655 S
H2458 N2453 0.984 . S
H2459 N2453 0.985 . S
H2460 N2457 0.984 . S
H2461 N2457 0.985 1_455 S
H2462 N2456 0.984 1_655 S
H2463 N2456 0.984 . S
H2464 N2452 0.984 . S
H2465 N2452 0.985 . S
C2466 C2467 1.363 . S
C2466 C2472 1.379 . S
C2466 N2474 1.356 . S
C2467 C2466 1.363 . S
C2467 C2473 1.363 . S
C2468 C2469 1.363 . S
C2468 C2473 1.379 . S
C2468 N2475 1.356 . S
C2469 C2468 1.363 . S
C2469 C2472 1.363 . S
N2470 C2472 1.356 . S
N2470 H2482 0.984 . S
N2470 H2483 0.985 . S
N2471 C2473 1.356 . S
N2471 H2476 0.984 . S
N2471 H2477 0.985 1_554 S
C2472 C2466 1.379 . S
C2472 C2469 1.363 . S
C2472 N2470 1.356 . S
C2473 C2467 1.363 . S
C2473 C2468 1.379 . S
C2473 N2471 1.356 . S
N2474 C2466 1.356 . S
N2474 H2480 0.984 . S
N2474 H2481 0.984 . S
N2475 C2468 1.356 . S
N2475 H2478 0.984 . S
N2475 H2479 0.985 1_554 S
H2476 N2471 0.984 . S
H2477 N2471 0.985 1_556 S
H2478 N2475 0.984 . S
H2479 N2475 0.985 1_556 S
H2480 N2474 0.984 . S
H2481 N2474 0.984 . S
H2482 N2470 0.984 . S
H2483 N2470 0.985 . S
C2484 C2485 1.363 . S
C2484 C2490 1.379 1_655 S
C2484 N2492 1.356 . S
C2485 C2484 1.363 . S
C2485 C2491 1.363 . S
C2486 C2487 1.363 . S
C2486 C2491 1.379 1_455 S
C2486 N2493 1.356 . S
C2487 C2486 1.363 . S
C2487 C2490 1.363 . S
N2488 C2490 1.356 . S
N2488 H2500 0.984 . S
N2488 H2501 0.985 . S
N2489 C2491 1.356 . S
N2489 H2494 0.984 . S
N2489 H2495 0.985 . S
C2490 C2484 1.379 1_455 S
C2490 C2487 1.363 . S
C2490 N2488 1.356 . S
C2491 C2485 1.363 . S
C2491 C2486 1.379 1_655 S
C2491 N2489 1.356 . S
N2492 C2484 1.356 . S
N2492 H2498 0.984 1_655 S
N2492 H2499 0.984 . S
N2493 C2486 1.356 . S
N2493 H2496 0.984 . S
N2493 H2497 0.985 1_455 S
H2494 N2489 0.984 . S
H2495 N2489 0.985 . S
H2496 N2493 0.984 . S
H2497 N2493 0.985 1_655 S
H2498 N2492 0.984 1_455 S
H2499 N2492 0.984 . S
H2500 N2488 0.984 . S
H2501 N2488 0.985 . S
C2502 C2503 1.343 1_455 S
C2502 C2508 1.397 . S
C2502 N2510 1.351 1_455 S
C2503 C2502 1.343 1_655 S
C2503 C2509 1.363 . S
C2504 C2505 1.343 1_655 S
C2504 C2509 1.397 . S
C2504 N2511 1.351 1_655 S
C2505 C2504 1.343 1_455 S
C2505 C2508 1.363 . S
N2506 C2508 1.356 . S
N2506 H2518 0.984 . S
N2506 H2519 0.985 . S
N2507 C2509 1.356 . S
N2507 H2512 0.984 . S
N2507 H2513 0.985 1_556 S
C2508 C2502 1.397 . S
C2508 C2505 1.363 . S
C2508 N2506 1.356 . S
C2509 C2503 1.363 . S
C2509 C2504 1.397 . S
C2509 N2507 1.356 . S
N2510 C2502 1.351 1_655 S
N2510 H2516 0.984 1_655 S
N2510 H2517 0.984 . S
N2511 C2504 1.351 1_455 S
N2511 H2514 0.984 . S
N2511 H2515 0.985 1_456 S
H2512 N2507 0.984 . S
H2513 N2507 0.985 1_554 S
H2514 N2511 0.984 . S
H2515 N2511 0.985 1_654 S
H2516 N2510 0.984 1_455 S
H2517 N2510 0.984 . S
H2518 N2506 0.984 . S
H2519 N2506 0.985 . S
C2520 C2521 1.363 . S
C2520 C2526 1.379 1_565 S
C2520 N2528 1.356 . S
C2521 C2520 1.363 . S
C2521 C2527 1.363 . S
C2522 C2523 1.363 . S
C2522 C2527 1.379 1_545 S
C2522 N2529 1.356 . S
C2523 C2522 1.363 . S
C2523 C2526 1.363 . S
N2524 C2526 1.356 . S
N2524 H2536 0.984 . S
N2524 H2537 0.985 . S
N2525 C2527 1.356 . S
N2525 H2530 0.984 . S
N2525 H2531 0.985 . S
C2526 C2520 1.379 1_545 S
C2526 C2523 1.363 . S
C2526 N2524 1.356 . S
C2527 C2521 1.363 . S
C2527 C2522 1.379 1_565 S
C2527 N2525 1.356 . S
N2528 C2520 1.356 . S
N2528 H2534 0.984 . S
N2528 H2535 0.984 . S
N2529 C2522 1.356 . S
N2529 H2532 0.984 . S
N2529 H2533 0.985 . S
H2530 N2525 0.984 . S
H2531 N2525 0.985 . S
H2532 N2529 0.984 . S
H2533 N2529 0.985 . S
H2534 N2528 0.984 . S
H2535 N2528 0.984 . S
H2536 N2524 0.984 . S
H2537 N2524 0.985 . S
C2538 C2539 1.343 1_554 S
C2538 C2544 1.397 . S
C2538 N2546 1.351 1_554 S
C2539 C2538 1.343 1_556 S
C2539 C2545 1.363 . S
C2540 C2541 1.343 1_556 S
C2540 C2545 1.397 . S
C2540 N2547 1.351 1_556 S
C2541 C2540 1.343 1_554 S
C2541 C2544 1.363 . S
N2542 C2544 1.356 . S
N2542 H2554 0.984 . S
N2542 H2555 0.985 . S
N2543 C2545 1.356 . S
N2543 H2548 0.984 . S
N2543 H2549 0.985 . S
C2544 C2538 1.397 . S
C2544 C2541 1.363 . S
C2544 N2542 1.356 . S
C2545 C2539 1.363 . S
C2545 C2540 1.397 . S
C2545 N2543 1.356 . S
N2546 C2538 1.351 1_556 S
N2546 H2552 0.984 1_556 S
N2546 H2553 0.984 . S
N2547 C2540 1.351 1_554 S
N2547 H2550 0.984 . S
N2547 H2551 0.985 1_554 S
H2548 N2543 0.984 . S
H2549 N2543 0.985 . S
H2550 N2547 0.984 . S
H2551 N2547 0.985 1_556 S
H2552 N2546 0.984 1_554 S
H2553 N2546 0.984 . S
H2554 N2542 0.984 . S
H2555 N2542 0.985 . S
C2556 C2557 1.363 . S
C2556 C2562 1.379 . S
C2556 N2564 1.356 . S
C2557 C2556 1.363 . S
C2557 C2563 1.363 . S
C2558 C2559 1.363 . S
C2558 C2563 1.379 . S
C2558 N2565 1.356 . S
C2559 C2558 1.363 . S
C2559 C2562 1.363 . S
N2560 C2562 1.356 . S
N2560 H2572 0.984 . S
N2560 H2573 0.985 . S
N2561 C2563 1.356 . S
N2561 H2566 0.984 . S
N2561 H2567 0.985 . S
C2562 C2556 1.379 . S
C2562 C2559 1.363 . S
C2562 N2560 1.356 . S
C2563 C2557 1.363 . S
C2563 C2558 1.379 . S
C2563 N2561 1.356 . S
N2564 C2556 1.356 . S
N2564 H2570 0.984 . S
N2564 H2571 0.984 . S
N2565 C2558 1.356 . S
N2565 H2568 0.984 . S
N2565 H2569 0.985 . S
H2566 N2561 0.984 . S
H2567 N2561 0.985 . S
H2568 N2565 0.984 . S
H2569 N2565 0.985 . S
H2570 N2564 0.984 . S
H2571 N2564 0.984 . S
H2572 N2560 0.984 . S
H2573 N2560 0.985 . S
C2574 C2575 1.363 . S
C2574 C2580 1.397 . S
C2574 N2582 1.356 . S
C2575 C2574 1.363 . S
C2575 C2581 1.343 1_554 S
C2576 C2577 1.363 . S
C2576 C2581 1.397 . S
C2576 N2583 1.356 . S
C2577 C2576 1.363 . S
C2577 C2580 1.343 1_556 S
N2578 C2580 1.351 1_556 S
N2578 H2590 0.984 1_566 S
N2578 H2591 0.985 . S
N2579 C2581 1.351 1_554 S
N2579 H2584 0.984 . S
N2579 H2585 0.985 1_554 S
C2580 C2574 1.397 . S
C2580 C2577 1.343 1_554 S
C2580 N2578 1.351 1_554 S
C2581 C2575 1.343 1_556 S
C2581 C2576 1.397 . S
C2581 N2579 1.351 1_556 S
N2582 C2574 1.356 . S
N2582 H2588 0.984 1_565 S
N2582 H2589 0.984 . S
N2583 C2576 1.356 . S
N2583 H2586 0.984 . S
N2583 H2587 0.985 . S
H2584 N2579 0.984 . S
H2585 N2579 0.985 1_556 S
H2586 N2583 0.984 . S
H2587 N2583 0.985 . S
H2588 N2582 0.984 1_545 S
H2589 N2582 0.984 . S
H2590 N2578 0.984 1_544 S
H2591 N2578 0.985 . S
C2592 C2593 1.363 . S
C2592 C2598 1.379 1_556 S
C2592 N2600 1.356 . S
C2593 C2592 1.363 . S
C2593 C2599 1.363 . S
C2594 C2595 1.363 . S
C2594 C2599 1.379 1_554 S
C2594 N2601 1.356 . S
C2595 C2594 1.363 . S
C2595 C2598 1.363 . S
N2596 C2598 1.356 . S
N2596 H2608 0.984 1_554 S
N2596 H2609 0.985 . S
N2597 C2599 1.356 . S
N2597 H2602 0.984 . S
N2597 H2603 0.985 1_556 S
C2598 C2592 1.379 1_554 S
C2598 C2595 1.363 . S
C2598 N2596 1.356 . S
C2599 C2593 1.363 . S
C2599 C2594 1.379 1_556 S
C2599 N2597 1.356 . S
N2600 C2592 1.356 . S
N2600 H2606 0.984 . S
N2600 H2607 0.984 . S
N2601 C2594 1.356 . S
N2601 H2604 0.984 . S
N2601 H2605 0.985 . S
H2602 N2597 0.984 . S
H2603 N2597 0.985 1_554 S
H2604 N2601 0.984 . S
H2605 N2601 0.985 . S
H2606 N2600 0.984 . S
H2607 N2600 0.984 . S
H2608 N2596 0.984 1_556 S
H2609 N2596 0.985 . S
C2610 C2611 1.363 . S
C2610 C2616 1.379 . S
C2610 N2618 1.356 . S
C2611 C2610 1.363 . S
C2611 C2617 1.363 . S
C2612 C2613 1.363 . S
C2612 C2617 1.379 . S
C2612 N2619 1.356 . S
C2613 C2612 1.363 . S
C2613 C2616 1.363 . S
N2614 C2616 1.356 . S
N2614 H2626 0.984 . S
N2614 H2627 0.985 . S
N2615 C2617 1.356 . S
N2615 H2620 0.984 . S
N2615 H2621 0.985 . S
C2616 C2610 1.379 . S
C2616 C2613 1.363 . S
C2616 N2614 1.356 . S
C2617 C2611 1.363 . S
C2617 C2612 1.379 . S
C2617 N2615 1.356 . S
N2618 C2610 1.356 . S
N2618 H2624 0.984 . S
N2618 H2625 0.984 . S
N2619 C2612 1.356 . S
N2619 H2622 0.984 . S
N2619 H2623 0.985 . S
H2620 N2615 0.984 . S
H2621 N2615 0.985 . S
H2622 N2619 0.984 . S
H2623 N2619 0.985 . S
H2624 N2618 0.984 . S
H2625 N2618 0.984 . S
H2626 N2614 0.984 . S
H2627 N2614 0.985 . S
C2628 C2629 1.363 . S
C2628 C2634 1.379 . S
C2628 N2636 1.356 . S
C2629 C2628 1.363 . S
C2629 C2635 1.363 . S
C2630 C2631 1.363 . S
C2630 C2635 1.379 . S
C2630 N2637 1.372 . S
C2631 C2630 1.363 . S
C2631 C2634 1.363 . S
N2632 C2634 1.356 . S
N2632 H2644 0.984 . S
N2632 H2645 0.985 . S
N2633 C2635 1.372 . S
N2633 H2638 0.992 . S
N2633 H2639 0.962 1_455 S
C2634 C2628 1.379 . S
C2634 C2631 1.363 . S
C2634 N2632 1.356 . S
C2635 C2629 1.363 . S
C2635 C2630 1.379 . S
C2635 N2633 1.372 . S
N2636 C2628 1.356 . S
N2636 H2642 0.984 . S
N2636 H2643 0.984 . S
N2637 C2630 1.372 . S
N2637 H2640 0.992 . S
N2637 H2641 0.962 1_455 S
H2638 N2633 0.992 . S
H2639 N2633 0.962 1_655 S
H2640 N2637 0.992 . S
H2641 N2637 0.962 1_655 S
H2642 N2636 0.984 . S
H2643 N2636 0.984 . S
H2644 N2632 0.984 . S
H2645 N2632 0.985 . S
C2646 C2647 1.363 . S
C2646 C2652 1.379 . S
C2646 N2654 1.356 . S
C2647 C2646 1.363 . S
C2647 C2653 1.363 . S
C2648 C2649 1.363 . S
C2648 C2653 1.379 . S
C2648 N2655 1.356 . S
C2649 C2648 1.363 . S
C2649 C2652 1.363 . S
N2650 C2652 1.356 . S
N2650 H2662 0.984 . S
N2650 H2663 0.985 . S
N2651 C2653 1.356 . S
N2651 H2656 0.984 . S
N2651 H2657 0.985 . S
C2652 C2646 1.379 . S
C2652 C2649 1.363 . S
C2652 N2650 1.356 . S
C2653 C2647 1.363 . S
C2653 C2648 1.379 . S
C2653 N2651 1.356 . S
N2654 C2646 1.356 . S
N2654 H2660 0.984 . S
N2654 H2661 0.984 . S
N2655 C2648 1.356 . S
N2655 H2658 0.984 . S
N2655 H2659 0.985 . S
H2656 N2651 0.984 . S
H2657 N2651 0.985 . S
H2658 N2655 0.984 . S
H2659 N2655 0.985 . S
H2660 N2654 0.984 . S
H2661 N2654 0.984 . S
H2662 N2650 0.984 . S
H2663 N2650 0.985 . S
C2664 C2665 1.363 . S
C2664 C2670 1.379 . S
C2664 N2672 1.356 . S
C2665 C2664 1.363 . S
C2665 C2671 1.363 . S
C2666 C2667 1.363 . S
C2666 C2671 1.379 . S
C2666 N2673 1.356 . S
C2667 C2666 1.363 . S
C2667 C2670 1.363 . S
N2668 C2670 1.356 . S
N2668 H2680 0.984 . S
N2668 H2681 0.985 . S
N2669 C2671 1.356 . S
N2669 H2674 0.984 . S
N2669 H2675 0.985 . S
C2670 C2664 1.379 . S
C2670 C2667 1.363 . S
C2670 N2668 1.356 . S
C2671 C2665 1.363 . S
C2671 C2666 1.379 . S
C2671 N2669 1.356 . S
N2672 C2664 1.356 . S
N2672 H2678 0.984 . S
N2672 H2679 0.984 . S
N2673 C2666 1.356 . S
N2673 H2676 0.984 . S
N2673 H2677 0.985 . S
H2674 N2669 0.984 . S
H2675 N2669 0.985 . S
H2676 N2673 0.984 . S
H2677 N2673 0.985 . S
H2678 N2672 0.984 . S
H2679 N2672 0.984 . S
H2680 N2668 0.984 . S
H2681 N2668 0.985 . S
C2682 C2683 1.363 . S
C2682 C2688 1.379 1_545 S
C2682 N2690 1.356 . S
C2683 C2682 1.363 . S
C2683 C2689 1.363 . S
C2684 C2685 1.363 . S
C2684 C2689 1.379 1_565 S
C2684 N2691 1.356 1_655 S
C2685 C2684 1.363 . S
C2685 C2688 1.363 . S
N2686 C2688 1.356 . S
N2686 H2698 0.984 . S
N2686 H2699 0.985 . S
N2687 C2689 1.356 1_455 S
N2687 H2692 0.984 1_455 S
N2687 H2693 0.985 . S
C2688 C2682 1.379 1_565 S
C2688 C2685 1.363 . S
C2688 N2686 1.356 . S
C2689 C2683 1.363 . S
C2689 C2684 1.379 1_545 S
C2689 N2687 1.356 1_655 S
N2690 C2682 1.356 . S
N2690 H2696 0.984 . S
N2690 H2697 0.984 . S
N2691 C2684 1.356 1_455 S
N2691 H2694 0.984 1_455 S
N2691 H2695 0.985 . S
H2692 N2687 0.984 1_655 S
H2693 N2687 0.985 . S
H2694 N2691 0.984 1_655 S
H2695 N2691 0.985 . S
H2696 N2690 0.984 . S
H2697 N2690 0.984 . S
H2698 N2686 0.984 . S
H2699 N2686 0.985 . S
C2700 C2701 1.363 . S
C2700 C2706 1.379 . S
C2700 N2708 1.356 . S
C2701 C2700 1.363 . S
C2701 C2707 1.363 . S
C2702 C2703 1.363 . S
C2702 C2707 1.379 . S
C2702 N2709 1.356 . S
C2703 C2702 1.363 . S
C2703 C2706 1.363 . S
N2704 C2706 1.356 . S
N2704 H2716 0.984 . S
N2704 H2717 0.985 . S
N2705 C2707 1.356 . S
N2705 H2710 0.984 . S
N2705 H2711 0.985 . S
C2706 C2700 1.379 . S
C2706 C2703 1.363 . S
C2706 N2704 1.356 . S
C2707 C2701 1.363 . S
C2707 C2702 1.379 . S
C2707 N2705 1.356 . S
N2708 C2700 1.356 . S
N2708 H2714 0.984 . S
N2708 H2715 0.984 . S
N2709 C2702 1.356 . S
N2709 H2712 0.984 . S
N2709 H2713 0.985 . S
H2710 N2705 0.984 . S
H2711 N2705 0.985 . S
H2712 N2709 0.984 . S
H2713 N2709 0.985 . S
H2714 N2708 0.984 . S
H2715 N2708 0.984 . S
H2716 N2704 0.984 . S
H2717 N2704 0.985 . S
C2718 C2719 1.363 . S
C2718 C2724 1.397 . S
C2718 N2726 1.356 . S
C2719 C2718 1.363 . S
C2719 C2725 1.343 1_655 S
C2720 C2721 1.363 . S
C2720 C2725 1.397 . S
C2720 N2727 1.356 . S
C2721 C2720 1.363 . S
C2721 C2724 1.343 1_455 S
N2722 C2724 1.351 1_455 S
N2722 H2734 0.984 1_455 S
N2722 H2735 0.985 . S
N2723 C2725 1.351 1_655 S
N2723 H2728 0.984 . S
N2723 H2729 0.985 1_655 S
C2724 C2718 1.397 . S
C2724 C2721 1.343 1_655 S
C2724 N2722 1.351 1_655 S
C2725 C2719 1.343 1_455 S
C2725 C2720 1.397 . S
C2725 N2723 1.351 1_455 S
N2726 C2718 1.356 . S
N2726 H2732 0.984 . S
N2726 H2733 0.984 . S
N2727 C2720 1.356 . S
N2727 H2730 0.984 . S
N2727 H2731 0.985 . S
H2728 N2723 0.984 . S
H2729 N2723 0.985 1_455 S
H2730 N2727 0.984 . S
H2731 N2727 0.985 . S
H2732 N2726 0.984 . S
H2733 N2726 0.984 . S
H2734 N2722 0.984 1_655 S
H2735 N2722 0.985 . S
C2736 C2737 1.363 . S
C2736 C2742 1.379 . S
C2736 N2744 1.356 . S
C2737 C2736 1.363 . S
C2737 C2743 1.363 . S
C2738 C2739 1.363 . S
C2738 C2743 1.379 . S
C2738 N2745 1.356 . S
C2739 C2738 1.363 . S
C2739 C2742 1.363 . S
N2740 C2742 1.356 . S
N2740 H2752 0.984 . S
N2740 H2753 0.985 . S
N2741 C2743 1.356 . S
N2741 H2746 0.984 . S
N2741 H2747 0.985 . S
C2742 C2736 1.379 . S
C2742 C2739 1.363 . S
C2742 N2740 1.356 . S
C2743 C2737 1.363 . S
C2743 C2738 1.379 . S
C2743 N2741 1.356 . S
N2744 C2736 1.356 . S
N2744 H2750 0.984 . S
N2744 H2751 0.984 . S
N2745 C2738 1.356 . S
N2745 H2748 0.984 . S
N2745 H2749 0.985 . S
H2746 N2741 0.984 . S
H2747 N2741 0.985 . S
H2748 N2745 0.984 . S
H2749 N2745 0.985 . S
H2750 N2744 0.984 . S
H2751 N2744 0.984 . S
H2752 N2740 0.984 . S
H2753 N2740 0.985 . S
C2754 C2755 1.363 . S
C2754 C2760 1.379 . S
C2754 N2762 1.356 . S
C2755 C2754 1.363 . S
C2755 C2761 1.363 . S
C2756 C2757 1.363 . S
C2756 C2761 1.379 . S
C2756 N2763 1.356 . S
C2757 C2756 1.363 . S
C2757 C2760 1.363 . S
N2758 C2760 1.356 . S
N2758 H2770 0.984 . S
N2758 H2771 0.985 . S
N2759 C2761 1.356 . S
N2759 H2764 0.984 . S
N2759 H2765 0.985 . S
C2760 C2754 1.379 . S
C2760 C2757 1.363 . S
C2760 N2758 1.356 . S
C2761 C2755 1.363 . S
C2761 C2756 1.379 . S
C2761 N2759 1.356 . S
N2762 C2754 1.356 . S
N2762 H2768 0.984 . S
N2762 H2769 0.984 . S
N2763 C2756 1.356 . S
N2763 H2766 0.984 . S
N2763 H2767 0.985 . S
H2764 N2759 0.984 . S
H2765 N2759 0.985 . S
H2766 N2763 0.984 . S
H2767 N2763 0.985 . S
H2768 N2762 0.984 . S
H2769 N2762 0.984 . S
H2770 N2758 0.984 . S
H2771 N2758 0.985 . S
C2772 C2773 1.363 . S
C2772 C2778 1.379 . S
C2772 N2780 1.356 . S
C2773 C2772 1.363 . S
C2773 C2779 1.363 . S
C2774 C2775 1.363 . S
C2774 C2779 1.379 . S
C2774 N2781 1.356 . S
C2775 C2774 1.363 . S
C2775 C2778 1.363 . S
N2776 C2778 1.356 . S
N2776 H2788 0.984 . S
N2776 H2789 0.985 . S
N2777 C2779 1.356 . S
N2777 H2782 0.984 . S
N2777 H2783 0.985 . S
C2778 C2772 1.379 . S
C2778 C2775 1.363 . S
C2778 N2776 1.356 . S
C2779 C2773 1.363 . S
C2779 C2774 1.379 . S
C2779 N2777 1.356 . S
N2780 C2772 1.356 . S
N2780 H2786 0.984 . S
N2780 H2787 0.984 . S
N2781 C2774 1.356 . S
N2781 H2784 0.984 . S
N2781 H2785 0.985 . S
H2782 N2777 0.984 . S
H2783 N2777 0.985 . S
H2784 N2781 0.984 . S
H2785 N2781 0.985 . S
H2786 N2780 0.984 . S
H2787 N2780 0.984 . S
H2788 N2776 0.984 . S
H2789 N2776 0.985 . S
C2790 C2791 1.363 . S
C2790 C2796 1.379 . S
C2790 N2798 1.356 . S
C2791 C2790 1.363 . S
C2791 C2797 1.363 . S
C2792 C2793 1.363 . S
C2792 C2797 1.379 . S
C2792 N2799 1.356 . S
C2793 C2792 1.363 . S
C2793 C2796 1.363 . S
N2794 C2796 1.356 . S
N2794 H2806 0.984 1_545 S
N2794 H2807 0.985 . S
N2795 C2797 1.356 . S
N2795 H2800 0.984 . S
N2795 H2801 0.985 . S
C2796 C2790 1.379 . S
C2796 C2793 1.363 . S
C2796 N2794 1.356 . S
C2797 C2791 1.363 . S
C2797 C2792 1.379 . S
C2797 N2795 1.356 . S
N2798 C2790 1.356 . S
N2798 H2804 0.984 1_545 S
N2798 H2805 0.984 . S
N2799 C2792 1.356 . S
N2799 H2802 0.984 . S
N2799 H2803 0.985 . S
H2800 N2795 0.984 . S
H2801 N2795 0.985 . S
H2802 N2799 0.984 . S
H2803 N2799 0.985 . S
H2804 N2798 0.984 1_565 S
H2805 N2798 0.984 . S
H2806 N2794 0.984 1_565 S
H2807 N2794 0.985 . S
C2808 C2809 1.335 1_545 S
C2808 C2814 1.406 . S
C2808 N2816 1.349 1_545 S
C2809 C2808 1.335 1_565 S
C2809 C2815 1.363 . S
C2810 C2811 1.335 1_565 S
C2810 C2815 1.406 . S
C2810 N2817 1.349 1_565 S
C2811 C2810 1.335 1_545 S
C2811 C2814 1.363 . S
N2812 C2814 1.356 . S
N2812 H2824 0.984 . S
N2812 H2825 0.985 . S
N2813 C2815 1.356 . S
N2813 H2818 0.984 . S
N2813 H2819 0.985 . S
C2814 C2808 1.406 . S
C2814 C2811 1.363 . S
C2814 N2812 1.356 . S
C2815 C2809 1.363 . S
C2815 C2810 1.406 . S
C2815 N2813 1.356 . S
N2816 C2808 1.349 1_565 S
N2816 H2822 0.984 1_565 S
N2816 H2823 0.984 . S
N2817 C2810 1.349 1_545 S
N2817 H2820 0.984 . S
N2817 H2821 0.985 1_545 S
H2818 N2813 0.984 . S
H2819 N2813 0.985 . S
H2820 N2817 0.984 . S
H2821 N2817 0.985 1_565 S
H2822 N2816 0.984 1_545 S
H2823 N2816 0.984 . S
H2824 N2812 0.984 . S
H2825 N2812 0.985 . S
C2826 C2827 1.363 . S
C2826 C2832 1.379 . S
C2826 N2834 1.356 . S
C2827 C2826 1.363 . S
C2827 C2833 1.363 . S
C2828 C2829 1.363 . S
C2828 C2833 1.379 . S
C2828 N2835 1.356 . S
C2829 C2828 1.363 . S
C2829 C2832 1.363 . S
N2830 C2832 1.356 . S
N2830 H2842 0.984 . S
N2830 H2843 0.985 . S
N2831 C2833 1.356 . S
N2831 H2836 0.984 . S
N2831 H2837 0.985 . S
C2832 C2826 1.379 . S
C2832 C2829 1.363 . S
C2832 N2830 1.356 . S
C2833 C2827 1.363 . S
C2833 C2828 1.379 . S
C2833 N2831 1.356 . S
N2834 C2826 1.356 . S
N2834 H2840 0.984 . S
N2834 H2841 0.984 . S
N2835 C2828 1.356 . S
N2835 H2838 0.984 . S
N2835 H2839 0.985 . S
H2836 N2831 0.984 . S
H2837 N2831 0.985 . S
H2838 N2835 0.984 . S
H2839 N2835 0.985 . S
H2840 N2834 0.984 . S
H2841 N2834 0.984 . S
H2842 N2830 0.984 . S
H2843 N2830 0.985 . S
C2844 C2845 1.363 . S
C2844 C2850 1.379 1_554 S
C2844 N2852 1.356 . S
C2845 C2844 1.363 . S
C2845 C2851 1.363 . S
C2846 C2847 1.363 . S
C2846 C2851 1.379 1_556 S
C2846 N2853 1.356 . S
C2847 C2846 1.363 . S
C2847 C2850 1.363 . S
N2848 C2850 1.356 . S
N2848 H2860 0.984 . S
N2848 H2861 0.985 . S
N2849 C2851 1.356 . S
N2849 H2854 0.984 . S
N2849 H2855 0.985 . S
C2850 C2844 1.379 1_556 S
C2850 C2847 1.363 . S
C2850 N2848 1.356 . S
C2851 C2845 1.363 . S
C2851 C2846 1.379 1_554 S
C2851 N2849 1.356 . S
N2852 C2844 1.356 . S
N2852 H2858 0.984 1_554 S
N2852 H2859 0.984 . S
N2853 C2846 1.356 . S
N2853 H2856 0.984 . S
N2853 H2857 0.985 1_556 S
H2854 N2849 0.984 . S
H2855 N2849 0.985 . S
H2856 N2853 0.984 . S
H2857 N2853 0.985 1_554 S
H2858 N2852 0.984 1_556 S
H2859 N2852 0.984 . S
H2860 N2848 0.984 . S
H2861 N2848 0.985 . S
C2862 C2863 1.363 1_545 S
C2862 C2868 1.379 . S
C2862 N2870 1.356 . S
C2863 C2862 1.363 1_565 S
C2863 C2869 1.363 . S
C2864 C2865 1.363 1_565 S
C2864 C2869 1.379 . S
C2864 N2871 1.356 . S
C2865 C2864 1.363 1_545 S
C2865 C2868 1.363 . S
N2866 C2868 1.356 . S
N2866 H2878 0.984 . S
N2866 H2879 0.985 . S
N2867 C2869 1.356 . S
N2867 H2872 0.984 . S
N2867 H2873 0.985 . S
C2868 C2862 1.379 . S
C2868 C2865 1.363 . S
C2868 N2866 1.356 . S
C2869 C2863 1.363 . S
C2869 C2864 1.379 . S
C2869 N2867 1.356 . S
N2870 C2862 1.356 . S
N2870 H2876 0.984 . S
N2870 H2877 0.984 1_545 S
N2871 C2864 1.356 . S
N2871 H2874 0.984 1_565 S
N2871 H2875 0.985 . S
H2872 N2867 0.984 . S
H2873 N2867 0.985 . S
H2874 N2871 0.984 1_545 S
H2875 N2871 0.985 . S
H2876 N2870 0.984 . S
H2877 N2870 0.984 1_565 S
H2878 N2866 0.984 . S
H2879 N2866 0.985 . S
C2880 C2881 1.363 . S
C2880 C2886 1.379 . S
C2880 N2888 1.356 . S
C2881 C2880 1.363 . S
C2881 C2887 1.363 . S
C2882 C2883 1.363 . S
C2882 C2887 1.379 . S
C2882 N2889 1.356 . S
C2883 C2882 1.363 . S
C2883 C2886 1.363 . S
N2884 C2886 1.356 . S
N2884 H2896 0.984 . S
N2884 H2897 0.985 . S
N2885 C2887 1.356 . S
N2885 H2890 0.984 . S
N2885 H2891 0.985 . S
C2886 C2880 1.379 . S
C2886 C2883 1.363 . S
C2886 N2884 1.356 . S
C2887 C2881 1.363 . S
C2887 C2882 1.379 . S
C2887 N2885 1.356 . S
N2888 C2880 1.356 . S
N2888 H2894 0.984 . S
N2888 H2895 0.984 . S
N2889 C2882 1.356 . S
N2889 H2892 0.984 . S
N2889 H2893 0.985 . S
H2890 N2885 0.984 . S
H2891 N2885 0.985 . S
H2892 N2889 0.984 . S
H2893 N2889 0.985 . S
H2894 N2888 0.984 . S
H2895 N2888 0.984 . S
H2896 N2884 0.984 . S
H2897 N2884 0.985 . S
C2898 C2899 1.363 . S
C2898 C2904 1.379 . S
C2898 N2906 1.356 . S
C2899 C2898 1.363 . S
C2899 C2905 1.363 . S
C2900 C2901 1.363 . S
C2900 C2905 1.379 . S
C2900 N2907 1.356 . S
C2901 C2900 1.363 . S
C2901 C2904 1.363 . S
N2902 C2904 1.356 . S
N2902 H2914 0.984 . S
N2902 H2915 0.985 . S
N2903 C2905 1.356 . S
N2903 H2908 0.984 . S
N2903 H2909 0.985 . S
C2904 C2898 1.379 . S
C2904 C2901 1.363 . S
C2904 N2902 1.356 . S
C2905 C2899 1.363 . S
C2905 C2900 1.379 . S
C2905 N2903 1.356 . S
N2906 C2898 1.356 . S
N2906 H2912 0.984 . S
N2906 H2913 0.984 . S
N2907 C2900 1.356 . S
N2907 H2910 0.984 . S
N2907 H2911 0.985 . S
H2908 N2903 0.984 . S
H2909 N2903 0.985 . S
H2910 N2907 0.984 . S
H2911 N2907 0.985 . S
H2912 N2906 0.984 . S
H2913 N2906 0.984 . S
H2914 N2902 0.984 . S
H2915 N2902 0.985 . S
C2916 C2917 1.363 . S
C2916 C2922 1.379 . S
C2916 N2924 1.356 . S
C2917 C2916 1.363 . S
C2917 C2923 1.363 . S
C2918 C2919 1.363 . S
C2918 C2923 1.379 . S
C2918 N2925 1.356 . S
C2919 C2918 1.363 . S
C2919 C2922 1.363 . S
N2920 C2922 1.356 . S
N2920 H2932 0.984 . S
N2920 H2933 0.985 . S
N2921 C2923 1.356 . S
N2921 H2926 0.984 . S
N2921 H2927 0.985 . S
C2922 C2916 1.379 . S
C2922 C2919 1.363 . S
C2922 N2920 1.356 . S
C2923 C2917 1.363 . S
C2923 C2918 1.379 . S
C2923 N2921 1.356 . S
N2924 C2916 1.356 . S
N2924 H2930 0.984 . S
N2924 H2931 0.984 . S
N2925 C2918 1.356 . S
N2925 H2928 0.984 . S
N2925 H2929 0.985 . S
H2926 N2921 0.984 . S
H2927 N2921 0.985 . S
H2928 N2925 0.984 . S
H2929 N2925 0.985 . S
H2930 N2924 0.984 . S
H2931 N2924 0.984 . S
H2932 N2920 0.984 . S
H2933 N2920 0.985 . S
C2934 C2935 1.363 . S
C2934 C2940 1.379 . S
C2934 N2942 1.356 . S
C2935 C2934 1.363 . S
C2935 C2941 1.363 . S
C2936 C2937 1.363 . S
C2936 C2941 1.379 . S
C2936 N2943 1.356 . S
C2937 C2936 1.363 . S
C2937 C2940 1.363 . S
N2938 C2940 1.356 . S
N2938 H2950 0.984 . S
N2938 H2951 0.985 . S
N2939 C2941 1.356 . S
N2939 H2944 0.984 . S
N2939 H2945 0.985 . S
C2940 C2934 1.379 . S
C2940 C2937 1.363 . S
C2940 N2938 1.356 . S
C2941 C2935 1.363 . S
C2941 C2936 1.379 . S
C2941 N2939 1.356 . S
N2942 C2934 1.356 . S
N2942 H2948 0.984 . S
N2942 H2949 0.984 . S
N2943 C2936 1.356 . S
N2943 H2946 0.984 . S
N2943 H2947 0.985 . S
H2944 N2939 0.984 . S
H2945 N2939 0.985 . S
H2946 N2943 0.984 . S
H2947 N2943 0.985 . S
H2948 N2942 0.984 . S
H2949 N2942 0.984 . S
H2950 N2938 0.984 . S
H2951 N2938 0.985 . S
C2952 C2953 1.363 . S
C2952 C2958 1.379 . S
C2952 N2960 1.356 . S
C2953 C2952 1.363 . S
C2953 C2959 1.363 . S
C2954 C2955 1.363 . S
C2954 C2959 1.379 . S
C2954 N2961 1.356 . S
C2955 C2954 1.363 . S
C2955 C2958 1.363 . S
N2956 C2958 1.356 . S
N2956 H2968 0.984 . S
N2956 H2969 0.985 . S
N2957 C2959 1.356 . S
N2957 H2962 0.984 . S
N2957 H2963 0.985 . S
C2958 C2952 1.379 . S
C2958 C2955 1.363 . S
C2958 N2956 1.356 . S
C2959 C2953 1.363 . S
C2959 C2954 1.379 . S
C2959 N2957 1.356 . S
N2960 C2952 1.356 . S
N2960 H2966 0.984 . S
N2960 H2967 0.984 . S
N2961 C2954 1.356 . S
N2961 H2964 0.984 . S
N2961 H2965 0.985 . S
H2962 N2957 0.984 . S
H2963 N2957 0.985 . S
H2964 N2961 0.984 . S
H2965 N2961 0.985 . S
H2966 N2960 0.984 . S
H2967 N2960 0.984 . S
H2968 N2956 0.984 . S
H2969 N2956 0.985 . S
C2970 C2971 1.363 . S
C2970 C2976 1.379 . S
C2970 N2978 1.356 . S
C2971 C2970 1.363 . S
C2971 C2977 1.363 . S
C2972 C2973 1.363 . S
C2972 C2977 1.379 . S
C2972 N2979 1.356 . S
C2973 C2972 1.363 . S
C2973 C2976 1.363 . S
N2974 C2976 1.356 . S
N2974 H2986 0.984 . S
N2974 H2987 0.985 . S
N2975 C2977 1.356 . S
N2975 H2980 0.984 . S
N2975 H2981 0.985 . S
C2976 C2970 1.379 . S
C2976 C2973 1.363 . S
C2976 N2974 1.356 . S
C2977 C2971 1.363 . S
C2977 C2972 1.379 . S
C2977 N2975 1.356 . S
N2978 C2970 1.356 . S
N2978 H2984 0.984 . S
N2978 H2985 0.984 . S
N2979 C2972 1.356 . S
N2979 H2982 0.984 . S
N2979 H2983 0.985 . S
H2980 N2975 0.984 . S
H2981 N2975 0.985 . S
H2982 N2979 0.984 . S
H2983 N2979 0.985 . S
H2984 N2978 0.984 . S
H2985 N2978 0.984 . S
H2986 N2974 0.984 . S
H2987 N2974 0.985 . S
C2988 C2989 1.363 . S
C2988 C2994 1.379 . S
C2988 N2996 1.356 . S
C2989 C2988 1.363 . S
C2989 C2995 1.363 . S
C2990 C2991 1.363 . S
C2990 C2995 1.379 . S
C2990 N2997 1.356 . S
C2991 C2990 1.363 . S
C2991 C2994 1.363 . S
N2992 C2994 1.356 . S
N2992 H3004 0.984 . S
N2992 H3005 0.985 . S
N2993 C2995 1.356 . S
N2993 H2998 0.984 . S
N2993 H2999 0.985 . S
C2994 C2988 1.379 . S
C2994 C2991 1.363 . S
C2994 N2992 1.356 . S
C2995 C2989 1.363 . S
C2995 C2990 1.379 . S
C2995 N2993 1.356 . S
N2996 C2988 1.356 . S
N2996 H3002 0.984 . S
N2996 H3003 0.984 . S
N2997 C2990 1.356 . S
N2997 H3000 0.984 . S
N2997 H3001 0.985 . S
H2998 N2993 0.984 . S
H2999 N2993 0.985 . S
H3000 N2997 0.984 . S
H3001 N2997 0.985 . S
H3002 N2996 0.984 . S
H3003 N2996 0.984 . S
H3004 N2992 0.984 . S
H3005 N2992 0.985 . S
C3006 C3007 1.363 . S
C3006 C3012 1.379 . S
C3006 N3014 1.356 . S
C3007 C3006 1.363 . S
C3007 C3013 1.363 . S
C3008 C3009 1.363 . S
C3008 C3013 1.379 . S
C3008 N3015 1.356 . S
C3009 C3008 1.363 . S
C3009 C3012 1.363 . S
N3010 C3012 1.356 . S
N3010 H3022 0.984 . S
N3010 H3023 0.985 . S
N3011 C3013 1.356 . S
N3011 H3016 0.984 . S
N3011 H3017 0.985 . S
C3012 C3006 1.379 . S
C3012 C3009 1.363 . S
C3012 N3010 1.356 . S
C3013 C3007 1.363 . S
C3013 C3008 1.379 . S
C3013 N3011 1.356 . S
N3014 C3006 1.356 . S
N3014 H3020 0.984 . S
N3014 H3021 0.984 . S
N3015 C3008 1.356 . S
N3015 H3018 0.984 . S
N3015 H3019 0.985 . S
H3016 N3011 0.984 . S
H3017 N3011 0.985 . S
H3018 N3015 0.984 . S
H3019 N3015 0.985 . S
H3020 N3014 0.984 . S
H3021 N3014 0.984 . S
H3022 N3010 0.984 . S
H3023 N3010 0.985 . S
C3024 C3025 1.363 . S
C3024 C3030 1.379 . S
C3024 N3032 1.356 . S
C3025 C3024 1.363 . S
C3025 C3031 1.363 . S
C3026 C3027 1.363 . S
C3026 C3031 1.379 . S
C3026 N3033 1.356 . S
C3027 C3026 1.363 . S
C3027 C3030 1.363 . S
N3028 C3030 1.356 . S
N3028 H3040 0.984 . S
N3028 H3041 0.985 . S
N3029 C3031 1.356 . S
N3029 H3034 0.984 . S
N3029 H3035 0.985 . S
C3030 C3024 1.379 . S
C3030 C3027 1.363 . S
C3030 N3028 1.356 . S
C3031 C3025 1.363 . S
C3031 C3026 1.379 . S
C3031 N3029 1.356 . S
N3032 C3024 1.356 . S
N3032 H3038 0.984 . S
N3032 H3039 0.984 . S
N3033 C3026 1.356 . S
N3033 H3036 0.984 . S
N3033 H3037 0.985 . S
H3034 N3029 0.984 . S
H3035 N3029 0.985 . S
H3036 N3033 0.984 . S
H3037 N3033 0.985 . S
H3038 N3032 0.984 . S
H3039 N3032 0.984 . S
H3040 N3028 0.984 . S
H3041 N3028 0.985 . S
C3042 C3043 1.363 . S
C3042 C3048 1.379 . S
C3042 N3050 1.356 . S
C3043 C3042 1.363 . S
C3043 C3049 1.363 . S
C3044 C3045 1.363 . S
C3044 C3049 1.379 . S
C3044 N3051 1.356 . S
C3045 C3044 1.363 . S
C3045 C3048 1.363 . S
N3046 C3048 1.356 . S
N3046 H3058 0.984 . S
N3046 H3059 0.985 . S
N3047 C3049 1.356 . S
N3047 H3052 0.984 . S
N3047 H3053 0.985 . S
C3048 C3042 1.379 . S
C3048 C3045 1.363 . S
C3048 N3046 1.356 . S
C3049 C3043 1.363 . S
C3049 C3044 1.379 . S
C3049 N3047 1.356 . S
N3050 C3042 1.356 . S
N3050 H3056 0.984 . S
N3050 H3057 0.984 . S
N3051 C3044 1.356 . S
N3051 H3054 0.984 . S
N3051 H3055 0.985 . S
H3052 N3047 0.984 . S
H3053 N3047 0.985 . S
H3054 N3051 0.984 . S
H3055 N3051 0.985 . S
H3056 N3050 0.984 . S
H3057 N3050 0.984 . S
H3058 N3046 0.984 . S
H3059 N3046 0.985 . S
C3060 C3061 1.363 . S
C3060 C3066 1.379 . S
C3060 N3068 1.356 . S
C3061 C3060 1.363 . S
C3061 C3067 1.363 . S
C3062 C3063 1.363 . S
C3062 C3067 1.379 . S
C3062 N3069 1.356 . S
C3063 C3062 1.363 . S
C3063 C3066 1.363 . S
N3064 C3066 1.356 . S
N3064 H3076 0.984 . S
N3064 H3077 0.985 . S
N3065 C3067 1.356 . S
N3065 H3070 0.984 . S
N3065 H3071 0.985 . S
C3066 C3060 1.379 . S
C3066 C3063 1.363 . S
C3066 N3064 1.356 . S
C3067 C3061 1.363 . S
C3067 C3062 1.379 . S
C3067 N3065 1.356 . S
N3068 C3060 1.356 . S
N3068 H3074 0.984 . S
N3068 H3075 0.984 . S
N3069 C3062 1.356 . S
N3069 H3072 0.984 . S
N3069 H3073 0.985 . S
H3070 N3065 0.984 . S
H3071 N3065 0.985 . S
H3072 N3069 0.984 . S
H3073 N3069 0.985 . S
H3074 N3068 0.984 . S
H3075 N3068 0.984 . S
H3076 N3064 0.984 . S
H3077 N3064 0.985 . S
C3078 C3079 1.363 . S
C3078 C3084 1.379 . S
C3078 N3086 1.356 . S
C3079 C3078 1.363 . S
C3079 C3085 1.363 . S
C3080 C3081 1.363 . S
C3080 C3085 1.379 . S
C3080 N3087 1.356 . S
C3081 C3080 1.363 . S
C3081 C3084 1.363 . S
N3082 C3084 1.356 . S
N3082 H3094 0.984 . S
N3082 H3095 0.985 . S
N3083 C3085 1.356 . S
N3083 H3088 0.984 . S
N3083 H3089 0.985 . S
C3084 C3078 1.379 . S
C3084 C3081 1.363 . S
C3084 N3082 1.356 . S
C3085 C3079 1.363 . S
C3085 C3080 1.379 . S
C3085 N3083 1.356 . S
N3086 C3078 1.356 . S
N3086 H3092 0.984 . S
N3086 H3093 0.984 . S
N3087 C3080 1.356 . S
N3087 H3090 0.984 . S
N3087 H3091 0.985 . S
H3088 N3083 0.984 . S
H3089 N3083 0.985 . S
H3090 N3087 0.984 . S
H3091 N3087 0.985 . S
H3092 N3086 0.984 . S
H3093 N3086 0.984 . S
H3094 N3082 0.984 . S
H3095 N3082 0.985 . S
C3096 C3097 1.363 . S
C3096 C3102 1.379 . S
C3096 N3104 1.356 . S
C3097 C3096 1.363 . S
C3097 C3103 1.363 . S
C3098 C3099 1.363 . S
C3098 C3103 1.379 . S
C3098 N3105 1.356 . S
C3099 C3098 1.363 . S
C3099 C3102 1.363 . S
N3100 C3102 1.356 . S
N3100 H3112 0.984 . S
N3100 H3113 0.985 . S
N3101 C3103 1.356 . S
N3101 H3106 0.984 . S
N3101 H3107 0.985 . S
C3102 C3096 1.379 . S
C3102 C3099 1.363 . S
C3102 N3100 1.356 . S
C3103 C3097 1.363 . S
C3103 C3098 1.379 . S
C3103 N3101 1.356 . S
N3104 C3096 1.356 . S
N3104 H3110 0.984 . S
N3104 H3111 0.984 . S
N3105 C3098 1.356 . S
N3105 H3108 0.984 . S
N3105 H3109 0.985 . S
H3106 N3101 0.984 . S
H3107 N3101 0.985 . S
H3108 N3105 0.984 . S
H3109 N3105 0.985 . S
H3110 N3104 0.984 . S
H3111 N3104 0.984 . S
H3112 N3100 0.984 . S
H3113 N3100 0.985 . S
C3114 C3115 1.363 . S
C3114 C3120 1.379 . S
C3114 N3122 1.356 . S
C3115 C3114 1.363 . S
C3115 C3121 1.363 . S
C3116 C3117 1.363 . S
C3116 C3121 1.379 . S
C3116 N3123 1.356 . S
C3117 C3116 1.363 . S
C3117 C3120 1.363 . S
N3118 C3120 1.356 . S
N3118 H3130 0.984 . S
N3118 H3131 0.985 . S
N3119 C3121 1.356 . S
N3119 H3124 0.984 . S
N3119 H3125 0.985 . S
C3120 C3114 1.379 . S
C3120 C3117 1.363 . S
C3120 N3118 1.356 . S
C3121 C3115 1.363 . S
C3121 C3116 1.379 . S
C3121 N3119 1.356 . S
N3122 C3114 1.356 . S
N3122 H3128 0.984 . S
N3122 H3129 0.984 . S
N3123 C3116 1.356 . S
N3123 H3126 0.984 . S
N3123 H3127 0.985 . S
H3124 N3119 0.984 . S
H3125 N3119 0.985 . S
H3126 N3123 0.984 . S
H3127 N3123 0.985 . S
H3128 N3122 0.984 . S
H3129 N3122 0.984 . S
H3130 N3118 0.984 . S
H3131 N3118 0.985 . S
C3132 C3133 1.363 . S
C3132 C3138 1.379 . S
C3132 N3140 1.356 . S
C3133 C3132 1.363 . S
C3133 C3139 1.363 . S
C3134 C3135 1.363 . S
C3134 C3139 1.379 . S
C3134 N3141 1.356 . S
C3135 C3134 1.363 . S
C3135 C3138 1.363 . S
N3136 C3138 1.356 . S
N3136 H3148 0.984 . S
N3136 H3149 0.985 . S
N3137 C3139 1.356 . S
N3137 H3142 0.984 . S
N3137 H3143 0.985 . S
C3138 C3132 1.379 . S
C3138 C3135 1.363 . S
C3138 N3136 1.356 . S
C3139 C3133 1.363 . S
C3139 C3134 1.379 . S
C3139 N3137 1.356 . S
N3140 C3132 1.356 . S
N3140 H3146 0.984 . S
N3140 H3147 0.984 . S
N3141 C3134 1.356 . S
N3141 H3144 0.984 . S
N3141 H3145 0.985 . S
H3142 N3137 0.984 . S
H3143 N3137 0.985 . S
H3144 N3141 0.984 . S
H3145 N3141 0.985 . S
H3146 N3140 0.984 . S
H3147 N3140 0.984 . S
H3148 N3136 0.984 . S
H3149 N3136 0.985 . S
C3150 C3151 1.363 . S
C3150 C3156 1.379 . S
C3150 N3158 1.356 . S
C3151 C3150 1.363 . S
C3151 C3157 1.363 . S
C3152 C3153 1.363 . S
C3152 C3157 1.379 . S
C3152 N3159 1.356 . S
C3153 C3152 1.363 . S
C3153 C3156 1.363 . S
N3154 C3156 1.356 . S
N3154 H3166 0.984 . S
N3154 H3167 0.985 . S
N3155 C3157 1.356 . S
N3155 H3160 0.984 . S
N3155 H3161 0.985 . S
C3156 C3150 1.379 . S
C3156 C3153 1.363 . S
C3156 N3154 1.356 . S
C3157 C3151 1.363 . S
C3157 C3152 1.379 . S
C3157 N3155 1.356 . S
N3158 C3150 1.356 . S
N3158 H3164 0.984 . S
N3158 H3165 0.984 . S
N3159 C3152 1.356 . S
N3159 H3162 0.984 . S
N3159 H3163 0.985 . S
H3160 N3155 0.984 . S
H3161 N3155 0.985 . S
H3162 N3159 0.984 . S
H3163 N3159 0.985 . S
H3164 N3158 0.984 . S
H3165 N3158 0.984 . S
H3166 N3154 0.984 . S
H3167 N3154 0.985 . S
C3168 C3169 1.363 . S
C3168 C3174 1.379 . S
C3168 N3176 1.356 . S
C3169 C3168 1.363 . S
C3169 C3175 1.363 . S
C3170 C3171 1.363 . S
C3170 C3175 1.379 . S
C3170 N3177 1.356 . S
C3171 C3170 1.363 . S
C3171 C3174 1.363 . S
N3172 C3174 1.356 . S
N3172 H3184 0.984 . S
N3172 H3185 0.985 . S
N3173 C3175 1.356 . S
N3173 H3178 0.984 . S
N3173 H3179 0.985 . S
C3174 C3168 1.379 . S
C3174 C3171 1.363 . S
C3174 N3172 1.356 . S
C3175 C3169 1.363 . S
C3175 C3170 1.379 . S
C3175 N3173 1.356 . S
N3176 C3168 1.356 . S
N3176 H3182 0.984 . S
N3176 H3183 0.984 . S
N3177 C3170 1.356 . S
N3177 H3180 0.984 . S
N3177 H3181 0.985 . S
H3178 N3173 0.984 . S
H3179 N3173 0.985 . S
H3180 N3177 0.984 . S
H3181 N3177 0.985 . S
H3182 N3176 0.984 . S
H3183 N3176 0.984 . S
H3184 N3172 0.984 . S
H3185 N3172 0.985 . S
C3186 C3187 1.363 . S
C3186 C3192 1.379 . S
C3186 N3194 1.356 . S
C3187 C3186 1.363 . S
C3187 C3193 1.363 . S
C3188 C3189 1.363 . S
C3188 C3193 1.379 . S
C3188 N3195 1.356 . S
C3189 C3188 1.363 . S
C3189 C3192 1.363 . S
N3190 C3192 1.356 . S
N3190 H3202 0.984 . S
N3190 H3203 0.985 . S
N3191 C3193 1.356 . S
N3191 H3196 0.984 . S
N3191 H3197 0.985 . S
C3192 C3186 1.379 . S
C3192 C3189 1.363 . S
C3192 N3190 1.356 . S
C3193 C3187 1.363 . S
C3193 C3188 1.379 . S
C3193 N3191 1.356 . S
N3194 C3186 1.356 . S
N3194 H3200 0.984 . S
N3194 H3201 0.984 . S
N3195 C3188 1.356 . S
N3195 H3198 0.984 . S
N3195 H3199 0.985 . S
H3196 N3191 0.984 . S
H3197 N3191 0.985 . S
H3198 N3195 0.984 . S
H3199 N3195 0.985 . S
H3200 N3194 0.984 . S
H3201 N3194 0.984 . S
H3202 N3190 0.984 . S
H3203 N3190 0.985 . S
C3204 C3205 1.363 . S
C3204 C3210 1.379 . S
C3204 N3212 1.356 . S
C3205 C3204 1.363 . S
C3205 C3211 1.363 . S
C3206 C3207 1.363 . S
C3206 C3211 1.379 . S
C3206 N3213 1.356 . S
C3207 C3206 1.363 . S
C3207 C3210 1.363 . S
N3208 C3210 1.356 . S
N3208 H3220 0.984 . S
N3208 H3221 0.985 . S
N3209 C3211 1.356 . S
N3209 H3214 0.984 . S
N3209 H3215 0.985 . S
C3210 C3204 1.379 . S
C3210 C3207 1.363 . S
C3210 N3208 1.356 . S
C3211 C3205 1.363 . S
C3211 C3206 1.379 . S
C3211 N3209 1.356 . S
N3212 C3204 1.356 . S
N3212 H3218 0.984 . S
N3212 H3219 0.984 . S
N3213 C3206 1.356 . S
N3213 H3216 0.984 . S
N3213 H3217 0.985 . S
H3214 N3209 0.984 . S
H3215 N3209 0.985 . S
H3216 N3213 0.984 . S
H3217 N3213 0.985 . S
H3218 N3212 0.984 . S
H3219 N3212 0.984 . S
H3220 N3208 0.984 . S
H3221 N3208 0.985 . S
C3222 C3223 1.363 . S
C3222 C3228 1.379 . S
C3222 N3230 1.356 . S
C3223 C3222 1.363 . S
C3223 C3229 1.363 . S
C3224 C3225 1.363 . S
C3224 C3229 1.379 . S
C3224 N3231 1.356 . S
C3225 C3224 1.363 . S
C3225 C3228 1.363 . S
N3226 C3228 1.356 . S
N3226 H3238 0.984 . S
N3226 H3239 0.985 . S
N3227 C3229 1.356 . S
N3227 H3232 0.984 . S
N3227 H3233 0.985 . S
C3228 C3222 1.379 . S
C3228 C3225 1.363 . S
C3228 N3226 1.356 . S
C3229 C3223 1.363 . S
C3229 C3224 1.379 . S
C3229 N3227 1.356 . S
N3230 C3222 1.356 . S
N3230 H3236 0.984 . S
N3230 H3237 0.984 . S
N3231 C3224 1.356 . S
N3231 H3234 0.984 . S
N3231 H3235 0.985 . S
H3232 N3227 0.984 . S
H3233 N3227 0.985 . S
H3234 N3231 0.984 . S
H3235 N3231 0.985 . S
H3236 N3230 0.984 . S
H3237 N3230 0.984 . S
H3238 N3226 0.984 . S
H3239 N3226 0.985 . S
C3240 C3241 1.363 . S
C3240 C3246 1.379 . S
C3240 N3248 1.356 . S
C3241 C3240 1.363 . S
C3241 C3247 1.363 . S
C3242 C3243 1.363 . S
C3242 C3247 1.379 . S
C3242 N3249 1.356 . S
C3243 C3242 1.363 . S
C3243 C3246 1.363 . S
N3244 C3246 1.356 . S
N3244 H3256 0.984 . S
N3244 H3257 0.985 . S
N3245 C3247 1.356 . S
N3245 H3250 0.984 . S
N3245 H3251 0.985 . S
C3246 C3240 1.379 . S
C3246 C3243 1.363 . S
C3246 N3244 1.356 . S
C3247 C3241 1.363 . S
C3247 C3242 1.379 . S
C3247 N3245 1.356 . S
N3248 C3240 1.356 . S
N3248 H3254 0.984 . S
N3248 H3255 0.984 . S
N3249 C3242 1.356 . S
N3249 H3252 0.984 . S
N3249 H3253 0.985 . S
H3250 N3245 0.984 . S
H3251 N3245 0.985 . S
H3252 N3249 0.984 . S
H3253 N3249 0.985 . S
H3254 N3248 0.984 . S
H3255 N3248 0.984 . S
H3256 N3244 0.984 . S
H3257 N3244 0.985 . S
C3258 C3259 1.363 . S
C3258 C3264 1.379 . S
C3258 N3266 1.356 . S
C3259 C3258 1.363 . S
C3259 C3265 1.363 . S
C3260 C3261 1.363 . S
C3260 C3265 1.379 . S
C3260 N3267 1.356 . S
C3261 C3260 1.363 . S
C3261 C3264 1.363 . S
N3262 C3264 1.356 . S
N3262 H3274 0.984 . S
N3262 H3275 0.985 . S
N3263 C3265 1.356 . S
N3263 H3268 0.984 . S
N3263 H3269 0.985 . S
C3264 C3258 1.379 . S
C3264 C3261 1.363 . S
C3264 N3262 1.356 . S
C3265 C3259 1.363 . S
C3265 C3260 1.379 . S
C3265 N3263 1.356 . S
N3266 C3258 1.356 . S
N3266 H3272 0.984 . S
N3266 H3273 0.984 . S
N3267 C3260 1.356 . S
N3267 H3270 0.984 . S
N3267 H3271 0.985 . S
H3268 N3263 0.984 . S
H3269 N3263 0.985 . S
H3270 N3267 0.984 . S
H3271 N3267 0.985 . S
H3272 N3266 0.984 . S
H3273 N3266 0.984 . S
H3274 N3262 0.984 . S
H3275 N3262 0.985 . S
C3276 C3277 1.363 . S
C3276 C3282 1.379 . S
C3276 N3284 1.356 . S
C3277 C3276 1.363 . S
C3277 C3283 1.363 . S
C3278 C3279 1.363 . S
C3278 C3283 1.379 . S
C3278 N3285 1.356 . S
C3279 C3278 1.363 . S
C3279 C3282 1.363 . S
N3280 C3282 1.356 . S
N3280 H3292 0.984 . S
N3280 H3293 0.985 . S
N3281 C3283 1.356 . S
N3281 H3286 0.984 . S
N3281 H3287 0.985 . S
C3282 C3276 1.379 . S
C3282 C3279 1.363 . S
C3282 N3280 1.356 . S
C3283 C3277 1.363 . S
C3283 C3278 1.379 . S
C3283 N3281 1.356 . S
N3284 C3276 1.356 . S
N3284 H3290 0.984 . S
N3284 H3291 0.984 . S
N3285 C3278 1.356 . S
N3285 H3288 0.984 . S
N3285 H3289 0.985 . S
H3286 N3281 0.984 . S
H3287 N3281 0.985 . S
H3288 N3285 0.984 . S
H3289 N3285 0.985 . S
H3290 N3284 0.984 . S
H3291 N3284 0.984 . S
H3292 N3280 0.984 . S
H3293 N3280 0.985 . S
C3294 C3295 1.363 . S
C3294 C3300 1.379 . S
C3294 N3302 1.356 . S
C3295 C3294 1.363 . S
C3295 C3301 1.363 . S
C3296 C3297 1.363 . S
C3296 C3301 1.379 . S
C3296 N3303 1.356 . S
C3297 C3296 1.363 . S
C3297 C3300 1.363 . S
N3298 C3300 1.356 . S
N3298 H3310 0.984 . S
N3298 H3311 0.985 . S
N3299 C3301 1.356 . S
N3299 H3304 0.984 . S
N3299 H3305 0.985 . S
C3300 C3294 1.379 . S
C3300 C3297 1.363 . S
C3300 N3298 1.356 . S
C3301 C3295 1.363 . S
C3301 C3296 1.379 . S
C3301 N3299 1.356 . S
N3302 C3294 1.356 . S
N3302 H3308 0.984 . S
N3302 H3309 0.984 . S
N3303 C3296 1.356 . S
N3303 H3306 0.984 . S
N3303 H3307 0.985 . S
H3304 N3299 0.984 . S
H3305 N3299 0.985 . S
H3306 N3303 0.984 . S
H3307 N3303 0.985 . S
H3308 N3302 0.984 . S
H3309 N3302 0.984 . S
H3310 N3298 0.984 . S
H3311 N3298 0.985 . S
C3312 C3313 1.363 . S
C3312 C3318 1.379 . S
C3312 N3320 1.356 . S
C3313 C3312 1.363 . S
C3313 C3319 1.363 . S
C3314 C3315 1.363 . S
C3314 C3319 1.379 . S
C3314 N3321 1.356 . S
C3315 C3314 1.363 . S
C3315 C3318 1.363 . S
N3316 C3318 1.356 . S
N3316 H3328 0.984 . S
N3316 H3329 0.985 . S
N3317 C3319 1.356 . S
N3317 H3322 0.984 . S
N3317 H3323 0.985 . S
C3318 C3312 1.379 . S
C3318 C3315 1.363 . S
C3318 N3316 1.356 . S
C3319 C3313 1.363 . S
C3319 C3314 1.379 . S
C3319 N3317 1.356 . S
N3320 C3312 1.356 . S
N3320 H3326 0.984 . S
N3320 H3327 0.984 . S
N3321 C3314 1.356 . S
N3321 H3324 0.984 . S
N3321 H3325 0.985 . S
H3322 N3317 0.984 . S
H3323 N3317 0.985 . S
H3324 N3321 0.984 . S
H3325 N3321 0.985 . S
H3326 N3320 0.984 . S
H3327 N3320 0.984 . S
H3328 N3316 0.984 . S
H3329 N3316 0.985 . S
C3330 C3331 1.363 . S
C3330 C3336 1.379 . S
C3330 N3338 1.356 . S
C3331 C3330 1.363 . S
C3331 C3337 1.363 . S
C3332 C3333 1.363 . S
C3332 C3337 1.379 . S
C3332 N3339 1.356 . S
C3333 C3332 1.363 . S
C3333 C3336 1.363 . S
N3334 C3336 1.356 . S
N3334 H3346 0.984 . S
N3334 H3347 0.985 . S
N3335 C3337 1.356 . S
N3335 H3340 0.984 . S
N3335 H3341 0.985 . S
C3336 C3330 1.379 . S
C3336 C3333 1.363 . S
C3336 N3334 1.356 . S
C3337 C3331 1.363 . S
C3337 C3332 1.379 . S
C3337 N3335 1.356 . S
N3338 C3330 1.356 . S
N3338 H3344 0.984 . S
N3338 H3345 0.984 . S
N3339 C3332 1.356 . S
N3339 H3342 0.984 . S
N3339 H3343 0.985 . S
H3340 N3335 0.984 . S
H3341 N3335 0.985 . S
H3342 N3339 0.984 . S
H3343 N3339 0.985 . S
H3344 N3338 0.984 . S
H3345 N3338 0.984 . S
H3346 N3334 0.984 . S
H3347 N3334 0.985 . S
C3348 C3349 1.363 . S
C3348 C3354 1.379 . S
C3348 N3356 1.356 . S
C3349 C3348 1.363 . S
C3349 C3355 1.363 . S
C3350 C3351 1.363 . S
C3350 C3355 1.379 . S
C3350 N3357 1.356 . S
C3351 C3350 1.363 . S
C3351 C3354 1.363 . S
N3352 C3354 1.356 . S
N3352 H3364 0.984 . S
N3352 H3365 0.985 . S
N3353 C3355 1.356 . S
N3353 H3358 0.984 . S
N3353 H3359 0.985 . S
C3354 C3348 1.379 . S
C3354 C3351 1.363 . S
C3354 N3352 1.356 . S
C3355 C3349 1.363 . S
C3355 C3350 1.379 . S
C3355 N3353 1.356 . S
N3356 C3348 1.356 . S
N3356 H3362 0.984 . S
N3356 H3363 0.984 . S
N3357 C3350 1.356 . S
N3357 H3360 0.984 . S
N3357 H3361 0.985 . S
H3358 N3353 0.984 . S
H3359 N3353 0.985 . S
H3360 N3357 0.984 . S
H3361 N3357 0.985 . S
H3362 N3356 0.984 . S
H3363 N3356 0.984 . S
H3364 N3352 0.984 . S
H3365 N3352 0.985 . S
C3366 C3367 1.363 . S
C3366 C3372 1.379 . S
C3366 N3374 1.356 . S
C3367 C3366 1.363 . S
C3367 C3373 1.363 . S
C3368 C3369 1.363 . S
C3368 C3373 1.379 . S
C3368 N3375 1.356 . S
C3369 C3368 1.363 . S
C3369 C3372 1.363 . S
N3370 C3372 1.356 . S
N3370 H3382 0.984 . S
N3370 H3383 0.985 . S
N3371 C3373 1.356 . S
N3371 H3376 0.984 . S
N3371 H3377 0.985 . S
C3372 C3366 1.379 . S
C3372 C3369 1.363 . S
C3372 N3370 1.356 . S
C3373 C3367 1.363 . S
C3373 C3368 1.379 . S
C3373 N3371 1.356 . S
N3374 C3366 1.356 . S
N3374 H3380 0.984 . S
N3374 H3381 0.984 . S
N3375 C3368 1.356 . S
N3375 H3378 0.984 . S
N3375 H3379 0.985 . S
H3376 N3371 0.984 . S
H3377 N3371 0.985 . S
H3378 N3375 0.984 . S
H3379 N3375 0.985 . S
H3380 N3374 0.984 . S
H3381 N3374 0.984 . S
H3382 N3370 0.984 . S
H3383 N3370 0.985 . S
C3384 C3385 1.363 . S
C3384 C3390 1.379 . S
C3384 N3392 1.356 . S
C3385 C3384 1.363 . S
C3385 C3391 1.363 . S
C3386 C3387 1.363 . S
C3386 C3391 1.379 . S
C3386 N3393 1.356 . S
C3387 C3386 1.363 . S
C3387 C3390 1.363 . S
N3388 C3390 1.356 . S
N3388 H3400 0.984 . S
N3388 H3401 0.985 . S
N3389 C3391 1.356 . S
N3389 H3394 0.984 . S
N3389 H3395 0.985 . S
C3390 C3384 1.379 . S
C3390 C3387 1.363 . S
C3390 N3388 1.356 . S
C3391 C3385 1.363 . S
C3391 C3386 1.379 . S
C3391 N3389 1.356 . S
N3392 C3384 1.356 . S
N3392 H3398 0.984 . S
N3392 H3399 0.984 . S
N3393 C3386 1.356 . S
N3393 H3396 0.984 . S
N3393 H3397 0.985 . S
H3394 N3389 0.984 . S
H3395 N3389 0.985 . S
H3396 N3393 0.984 . S
H3397 N3393 0.985 . S
H3398 N3392 0.984 . S
H3399 N3392 0.984 . S
H3400 N3388 0.984 . S
H3401 N3388 0.985 . S
C3402 C3403 1.363 . S
C3402 C3408 1.379 . S
C3402 N3410 1.356 . S
C3403 C3402 1.363 . S
C3403 C3409 1.363 . S
C3404 C3405 1.363 . S
C3404 C3409 1.379 . S
C3404 N3411 1.356 . S
C3405 C3404 1.363 . S
C3405 C3408 1.363 . S
N3406 C3408 1.356 . S
N3406 H3418 0.984 . S
N3406 H3419 0.985 . S
N3407 C3409 1.356 . S
N3407 H3412 0.984 . S
N3407 H3413 0.985 . S
C3408 C3402 1.379 . S
C3408 C3405 1.363 . S
C3408 N3406 1.356 . S
C3409 C3403 1.363 . S
C3409 C3404 1.379 . S
C3409 N3407 1.356 . S
N3410 C3402 1.356 . S
N3410 H3416 0.984 . S
N3410 H3417 0.984 . S
N3411 C3404 1.356 . S
N3411 H3414 0.984 . S
N3411 H3415 0.985 . S
H3412 N3407 0.984 . S
H3413 N3407 0.985 . S
H3414 N3411 0.984 . S
H3415 N3411 0.985 . S
H3416 N3410 0.984 . S
H3417 N3410 0.984 . S
H3418 N3406 0.984 . S
H3419 N3406 0.985 . S
C3420 C3421 1.363 . S
C3420 C3426 1.379 . S
C3420 N3428 1.356 . S
C3421 C3420 1.363 . S
C3421 C3427 1.363 . S
C3422 C3423 1.363 . S
C3422 C3427 1.379 . S
C3422 N3429 1.356 . S
C3423 C3422 1.363 . S
C3423 C3426 1.363 . S
N3424 C3426 1.356 . S
N3424 H3436 0.984 . S
N3424 H3437 0.985 . S
N3425 C3427 1.356 . S
N3425 H3430 0.984 . S
N3425 H3431 0.985 . S
C3426 C3420 1.379 . S
C3426 C3423 1.363 . S
C3426 N3424 1.356 . S
C3427 C3421 1.363 . S
C3427 C3422 1.379 . S
C3427 N3425 1.356 . S
N3428 C3420 1.356 . S
N3428 H3434 0.984 . S
N3428 H3435 0.984 . S
N3429 C3422 1.356 . S
N3429 H3432 0.984 . S
N3429 H3433 0.985 . S
H3430 N3425 0.984 . S
H3431 N3425 0.985 . S
H3432 N3429 0.984 . S
H3433 N3429 0.985 . S
H3434 N3428 0.984 . S
H3435 N3428 0.984 . S
H3436 N3424 0.984 . S
H3437 N3424 0.985 . S
C3438 C3439 1.363 . S
C3438 C3444 1.379 . S
C3438 N3446 1.356 . S
C3439 C3438 1.363 . S
C3439 C3445 1.363 . S
C3440 C3441 1.363 . S
C3440 C3445 1.379 . S
C3440 N3447 1.356 . S
C3441 C3440 1.363 . S
C3441 C3444 1.363 . S
N3442 C3444 1.356 . S
N3442 H3454 0.984 . S
N3442 H3455 0.985 . S
N3443 C3445 1.356 . S
N3443 H3448 0.984 . S
N3443 H3449 0.985 . S
C3444 C3438 1.379 . S
C3444 C3441 1.363 . S
C3444 N3442 1.356 . S
C3445 C3439 1.363 . S
C3445 C3440 1.379 . S
C3445 N3443 1.356 . S
N3446 C3438 1.356 . S
N3446 H3452 0.984 . S
N3446 H3453 0.984 . S
N3447 C3440 1.356 . S
N3447 H3450 0.984 . S
N3447 H3451 0.985 . S
H3448 N3443 0.984 . S
H3449 N3443 0.985 . S
H3450 N3447 0.984 . S
H3451 N3447 0.985 . S
H3452 N3446 0.984 . S
H3453 N3446 0.984 . S
H3454 N3442 0.984 . S
H3455 N3442 0.985 . S
C3456 C3457 1.363 . S
C3456 C3462 1.379 . S
C3456 N3464 1.356 . S
C3457 C3456 1.363 . S
C3457 C3463 1.363 . S
C3458 C3459 1.363 . S
C3458 C3463 1.379 . S
C3458 N3465 1.356 . S
C3459 C3458 1.363 . S
C3459 C3462 1.363 . S
N3460 C3462 1.356 . S
N3460 H3472 0.984 . S
N3460 H3473 0.985 . S
N3461 C3463 1.356 . S
N3461 H3466 0.984 . S
N3461 H3467 0.985 . S
C3462 C3456 1.379 . S
C3462 C3459 1.363 . S
C3462 N3460 1.356 . S
C3463 C3457 1.363 . S
C3463 C3458 1.379 . S
C3463 N3461 1.356 . S
N3464 C3456 1.356 . S
N3464 H3470 0.984 . S
N3464 H3471 0.984 . S
N3465 C3458 1.356 . S
N3465 H3468 0.984 . S
N3465 H3469 0.985 . S
H3466 N3461 0.984 . S
H3467 N3461 0.985 . S
H3468 N3465 0.984 . S
H3469 N3465 0.985 . S
H3470 N3464 0.984 . S
H3471 N3464 0.984 . S
H3472 N3460 0.984 . S
H3473 N3460 0.985 . S
C3474 C3475 1.363 . S
C3474 C3480 1.379 . S
C3474 N3482 1.356 . S
C3475 C3474 1.363 . S
C3475 C3481 1.363 . S
C3476 C3477 1.363 . S
C3476 C3481 1.379 . S
C3476 N3483 1.356 . S
C3477 C3476 1.363 . S
C3477 C3480 1.363 . S
N3478 C3480 1.356 . S
N3478 H3490 0.984 . S
N3478 H3491 0.985 . S
N3479 C3481 1.356 . S
N3479 H3484 0.984 . S
N3479 H3485 0.985 . S
C3480 C3474 1.379 . S
C3480 C3477 1.363 . S
C3480 N3478 1.356 . S
C3481 C3475 1.363 . S
C3481 C3476 1.379 . S
C3481 N3479 1.356 . S
N3482 C3474 1.356 . S
N3482 H3488 0.984 . S
N3482 H3489 0.984 . S
N3483 C3476 1.356 . S
N3483 H3486 0.984 . S
N3483 H3487 0.985 . S
H3484 N3479 0.984 . S
H3485 N3479 0.985 . S
H3486 N3483 0.984 . S
H3487 N3483 0.985 . S
H3488 N3482 0.984 . S
H3489 N3482 0.984 . S
H3490 N3478 0.984 . S
H3491 N3478 0.985 . S
C3492 C3493 1.363 . S
C3492 C3498 1.379 . S
C3492 N3500 1.356 . S
C3493 C3492 1.363 . S
C3493 C3499 1.363 . S
C3494 C3495 1.363 . S
C3494 C3499 1.379 . S
C3494 N3501 1.356 . S
C3495 C3494 1.363 . S
C3495 C3498 1.363 . S
N3496 C3498 1.356 . S
N3496 H3508 0.984 . S
N3496 H3509 0.985 . S
N3497 C3499 1.356 . S
N3497 H3502 0.984 . S
N3497 H3503 0.985 . S
C3498 C3492 1.379 . S
C3498 C3495 1.363 . S
C3498 N3496 1.356 . S
C3499 C3493 1.363 . S
C3499 C3494 1.379 . S
C3499 N3497 1.356 . S
N3500 C3492 1.356 . S
N3500 H3506 0.984 . S
N3500 H3507 0.984 . S
N3501 C3494 1.356 . S
N3501 H3504 0.984 . S
N3501 H3505 0.985 . S
H3502 N3497 0.984 . S
H3503 N3497 0.985 . S
H3504 N3501 0.984 . S
H3505 N3501 0.985 . S
H3506 N3500 0.984 . S
H3507 N3500 0.984 . S
H3508 N3496 0.984 . S
H3509 N3496 0.985 . S
C3510 C3511 1.363 . S
C3510 C3516 1.379 . S
C3510 N3518 1.356 . S
C3511 C3510 1.363 . S
C3511 C3517 1.363 . S
C3512 C3513 1.363 . S
C3512 C3517 1.379 . S
C3512 N3519 1.356 . S
C3513 C3512 1.363 . S
C3513 C3516 1.363 . S
N3514 C3516 1.356 . S
N3514 H3526 0.984 . S
N3514 H3527 0.985 . S
N3515 C3517 1.356 . S
N3515 H3520 0.984 . S
N3515 H3521 0.985 . S
C3516 C3510 1.379 . S
C3516 C3513 1.363 . S
C3516 N3514 1.356 . S
C3517 C3511 1.363 . S
C3517 C3512 1.379 . S
C3517 N3515 1.356 . S
N3518 C3510 1.356 . S
N3518 H3524 0.984 . S
N3518 H3525 0.984 . S
N3519 C3512 1.356 . S
N3519 H3522 0.984 . S
N3519 H3523 0.985 . S
H3520 N3515 0.984 . S
H3521 N3515 0.985 . S
H3522 N3519 0.984 . S
H3523 N3519 0.985 . S
H3524 N3518 0.984 . S
H3525 N3518 0.984 . S
H3526 N3514 0.984 . S
H3527 N3514 0.985 . S
C3528 C3529 1.363 . S
C3528 C3534 1.379 . S
C3528 N3536 1.356 . S
C3529 C3528 1.363 . S
C3529 C3535 1.363 . S
C3530 C3531 1.363 . S
C3530 C3535 1.379 . S
C3530 N3537 1.356 . S
C3531 C3530 1.363 . S
C3531 C3534 1.363 . S
N3532 C3534 1.356 . S
N3532 H3544 0.984 . S
N3532 H3545 0.985 . S
N3533 C3535 1.356 . S
N3533 H3538 0.984 . S
N3533 H3539 0.985 . S
C3534 C3528 1.379 . S
C3534 C3531 1.363 . S
C3534 N3532 1.356 . S
C3535 C3529 1.363 . S
C3535 C3530 1.379 . S
C3535 N3533 1.356 . S
N3536 C3528 1.356 . S
N3536 H3542 0.984 . S
N3536 H3543 0.984 . S
N3537 C3530 1.356 . S
N3537 H3540 0.984 . S
N3537 H3541 0.985 . S
H3538 N3533 0.984 . S
H3539 N3533 0.985 . S
H3540 N3537 0.984 . S
H3541 N3537 0.985 . S
H3542 N3536 0.984 . S
H3543 N3536 0.984 . S
H3544 N3532 0.984 . S
H3545 N3532 0.985 . S
C3546 C3547 1.363 . S
C3546 C3552 1.379 . S
C3546 N3554 1.356 . S
C3547 C3546 1.363 . S
C3547 C3553 1.363 . S
C3548 C3549 1.363 . S
C3548 C3553 1.379 . S
C3548 N3555 1.356 . S
C3549 C3548 1.363 . S
C3549 C3552 1.363 . S
N3550 C3552 1.356 . S
N3550 H3562 0.984 . S
N3550 H3563 0.985 . S
N3551 C3553 1.356 . S
N3551 H3556 0.984 . S
N3551 H3557 0.985 . S
C3552 C3546 1.379 . S
C3552 C3549 1.363 . S
C3552 N3550 1.356 . S
C3553 C3547 1.363 . S
C3553 C3548 1.379 . S
C3553 N3551 1.356 . S
N3554 C3546 1.356 . S
N3554 H3560 0.984 . S
N3554 H3561 0.984 . S
N3555 C3548 1.356 . S
N3555 H3558 0.984 . S
N3555 H3559 0.985 . S
H3556 N3551 0.984 . S
H3557 N3551 0.985 . S
H3558 N3555 0.984 . S
H3559 N3555 0.985 . S
H3560 N3554 0.984 . S
H3561 N3554 0.984 . S
H3562 N3550 0.984 . S
H3563 N3550 0.985 . S
C3564 C3565 1.363 . S
C3564 C3570 1.379 . S
C3564 N3572 1.356 . S
C3565 C3564 1.363 . S
C3565 C3571 1.363 . S
C3566 C3567 1.363 . S
C3566 C3571 1.379 . S
C3566 N3573 1.356 . S
C3567 C3566 1.363 . S
C3567 C3570 1.363 . S
N3568 C3570 1.356 . S
N3568 H3580 0.984 . S
N3568 H3581 0.985 . S
N3569 C3571 1.356 . S
N3569 H3574 0.984 . S
N3569 H3575 0.985 . S
C3570 C3564 1.379 . S
C3570 C3567 1.363 . S
C3570 N3568 1.356 . S
C3571 C3565 1.363 . S
C3571 C3566 1.379 . S
C3571 N3569 1.356 . S
N3572 C3564 1.356 . S
N3572 H3578 0.984 . S
N3572 H3579 0.984 . S
N3573 C3566 1.356 . S
N3573 H3576 0.984 . S
N3573 H3577 0.985 . S
H3574 N3569 0.984 . S
H3575 N3569 0.985 . S
H3576 N3573 0.984 . S
H3577 N3573 0.985 . S
H3578 N3572 0.984 . S
H3579 N3572 0.984 . S
H3580 N3568 0.984 . S
H3581 N3568 0.985 . S
C3582 C3583 1.363 . S
C3582 C3588 1.379 . S
C3582 N3590 1.356 . S
C3583 C3582 1.363 . S
C3583 C3589 1.363 . S
C3584 C3585 1.363 . S
C3584 C3589 1.379 . S
C3584 N3591 1.356 . S
C3585 C3584 1.363 . S
C3585 C3588 1.363 . S
N3586 C3588 1.356 . S
N3586 H3598 0.984 . S
N3586 H3599 0.985 . S
N3587 C3589 1.356 . S
N3587 H3592 0.984 . S
N3587 H3593 0.985 . S
C3588 C3582 1.379 . S
C3588 C3585 1.363 . S
C3588 N3586 1.356 . S
C3589 C3583 1.363 . S
C3589 C3584 1.379 . S
C3589 N3587 1.356 . S
N3590 C3582 1.356 . S
N3590 H3596 0.984 . S
N3590 H3597 0.984 . S
N3591 C3584 1.356 . S
N3591 H3594 0.984 . S
N3591 H3595 0.985 . S
H3592 N3587 0.984 . S
H3593 N3587 0.985 . S
H3594 N3591 0.984 . S
H3595 N3591 0.985 . S
H3596 N3590 0.984 . S
H3597 N3590 0.984 . S
H3598 N3586 0.984 . S
H3599 N3586 0.985 . S
C3600 C3601 1.363 . S
C3600 C3606 1.379 . S
C3600 N3608 1.356 . S
C3601 C3600 1.363 . S
C3601 C3607 1.363 . S
C3602 C3603 1.363 . S
C3602 C3607 1.379 . S
C3602 N3609 1.356 . S
C3603 C3602 1.363 . S
C3603 C3606 1.363 . S
N3604 C3606 1.356 . S
N3604 H3616 0.984 . S
N3604 H3617 0.985 . S
N3605 C3607 1.356 . S
N3605 H3610 0.984 . S
N3605 H3611 0.985 . S
C3606 C3600 1.379 . S
C3606 C3603 1.363 . S
C3606 N3604 1.356 . S
C3607 C3601 1.363 . S
C3607 C3602 1.379 . S
C3607 N3605 1.356 . S
N3608 C3600 1.356 . S
N3608 H3614 0.984 . S
N3608 H3615 0.984 . S
N3609 C3602 1.356 . S
N3609 H3612 0.984 . S
N3609 H3613 0.985 . S
H3610 N3605 0.984 . S
H3611 N3605 0.985 . S
H3612 N3609 0.984 . S
H3613 N3609 0.985 . S
H3614 N3608 0.984 . S
H3615 N3608 0.984 . S
H3616 N3604 0.984 . S
H3617 N3604 0.985 . S
C3618 C3619 1.363 . S
C3618 C3624 1.379 . S
C3618 N3626 1.356 . S
C3619 C3618 1.363 . S
C3619 C3625 1.363 . S
C3620 C3621 1.363 . S
C3620 C3625 1.379 . S
C3620 N3627 1.356 . S
C3621 C3620 1.363 . S
C3621 C3624 1.363 . S
N3622 C3624 1.356 . S
N3622 H3634 0.984 . S
N3622 H3635 0.985 . S
N3623 C3625 1.356 . S
N3623 H3628 0.984 . S
N3623 H3629 0.985 . S
C3624 C3618 1.379 . S
C3624 C3621 1.363 . S
C3624 N3622 1.356 . S
C3625 C3619 1.363 . S
C3625 C3620 1.379 . S
C3625 N3623 1.356 . S
N3626 C3618 1.356 . S
N3626 H3632 0.984 . S
N3626 H3633 0.984 . S
N3627 C3620 1.356 . S
N3627 H3630 0.984 . S
N3627 H3631 0.985 . S
H3628 N3623 0.984 . S
H3629 N3623 0.985 . S
H3630 N3627 0.984 . S
H3631 N3627 0.985 . S
H3632 N3626 0.984 . S
H3633 N3626 0.984 . S
H3634 N3622 0.984 . S
H3635 N3622 0.985 . S
C3636 C3637 1.363 . S
C3636 C3642 1.379 . S
C3636 N3644 1.356 . S
C3637 C3636 1.363 . S
C3637 C3643 1.363 . S
C3638 C3639 1.363 . S
C3638 C3643 1.379 . S
C3638 N3645 1.356 . S
C3639 C3638 1.363 . S
C3639 C3642 1.363 . S
N3640 C3642 1.356 . S
N3640 H3652 0.984 . S
N3640 H3653 0.985 . S
N3641 C3643 1.356 . S
N3641 H3646 0.984 . S
N3641 H3647 0.985 . S
C3642 C3636 1.379 . S
C3642 C3639 1.363 . S
C3642 N3640 1.356 . S
C3643 C3637 1.363 . S
C3643 C3638 1.379 . S
C3643 N3641 1.356 . S
N3644 C3636 1.356 . S
N3644 H3650 0.984 . S
N3644 H3651 0.984 . S
N3645 C3638 1.356 . S
N3645 H3648 0.984 . S
N3645 H3649 0.985 . S
H3646 N3641 0.984 . S
H3647 N3641 0.985 . S
H3648 N3645 0.984 . S
H3649 N3645 0.985 . S
H3650 N3644 0.984 . S
H3651 N3644 0.984 . S
H3652 N3640 0.984 . S
H3653 N3640 0.985 . S
C3654 C3655 1.363 . S
C3654 C3660 1.379 . S
C3654 N3662 1.356 . S
C3655 C3654 1.363 . S
C3655 C3661 1.363 . S
C3656 C3657 1.363 . S
C3656 C3661 1.379 . S
C3656 N3663 1.356 . S
C3657 C3656 1.363 . S
C3657 C3660 1.363 . S
N3658 C3660 1.356 . S
N3658 H3670 0.984 . S
N3658 H3671 0.985 . S
N3659 C3661 1.356 . S
N3659 H3664 0.984 . S
N3659 H3665 0.985 . S
C3660 C3654 1.379 . S
C3660 C3657 1.363 . S
C3660 N3658 1.356 . S
C3661 C3655 1.363 . S
C3661 C3656 1.379 . S
C3661 N3659 1.356 . S
N3662 C3654 1.356 . S
N3662 H3668 0.984 . S
N3662 H3669 0.984 . S
N3663 C3656 1.356 . S
N3663 H3666 0.984 . S
N3663 H3667 0.985 . S
H3664 N3659 0.984 . S
H3665 N3659 0.985 . S
H3666 N3663 0.984 . S
H3667 N3663 0.985 . S
H3668 N3662 0.984 . S
H3669 N3662 0.984 . S
H3670 N3658 0.984 . S
H3671 N3658 0.985 . S
C3672 C3673 1.363 . S
C3672 C3678 1.379 . S
C3672 N3680 1.356 . S
C3673 C3672 1.363 . S
C3673 C3679 1.363 . S
C3674 C3675 1.363 . S
C3674 C3679 1.379 . S
C3674 N3681 1.356 . S
C3675 C3674 1.363 . S
C3675 C3678 1.363 . S
N3676 C3678 1.356 . S
N3676 H3688 0.984 . S
N3676 H3689 0.985 . S
N3677 C3679 1.356 . S
N3677 H3682 0.984 . S
N3677 H3683 0.985 . S
C3678 C3672 1.379 . S
C3678 C3675 1.363 . S
C3678 N3676 1.356 . S
C3679 C3673 1.363 . S
C3679 C3674 1.379 . S
C3679 N3677 1.356 . S
N3680 C3672 1.356 . S
N3680 H3686 0.984 . S
N3680 H3687 0.984 . S
N3681 C3674 1.356 . S
N3681 H3684 0.984 . S
N3681 H3685 0.985 . S
H3682 N3677 0.984 . S
H3683 N3677 0.985 . S
H3684 N3681 0.984 . S
H3685 N3681 0.985 . S
H3686 N3680 0.984 . S
H3687 N3680 0.984 . S
H3688 N3676 0.984 . S
H3689 N3676 0.985 . S
C3690 C3691 1.363 . S
C3690 C3696 1.379 . S
C3690 N3698 1.356 . S
C3691 C3690 1.363 . S
C3691 C3697 1.363 . S
C3692 C3693 1.363 . S
C3692 C3697 1.379 . S
C3692 N3699 1.356 . S
C3693 C3692 1.363 . S
C3693 C3696 1.363 . S
N3694 C3696 1.356 . S
N3694 H3706 0.984 . S
N3694 H3707 0.985 . S
N3695 C3697 1.356 . S
N3695 H3700 0.984 . S
N3695 H3701 0.985 . S
C3696 C3690 1.379 . S
C3696 C3693 1.363 . S
C3696 N3694 1.356 . S
C3697 C3691 1.363 . S
C3697 C3692 1.379 . S
C3697 N3695 1.356 . S
N3698 C3690 1.356 . S
N3698 H3704 0.984 . S
N3698 H3705 0.984 . S
N3699 C3692 1.356 . S
N3699 H3702 0.984 . S
N3699 H3703 0.985 . S
H3700 N3695 0.984 . S
H3701 N3695 0.985 . S
H3702 N3699 0.984 . S
H3703 N3699 0.985 . S
H3704 N3698 0.984 . S
H3705 N3698 0.984 . S
H3706 N3694 0.984 . S
H3707 N3694 0.985 . S
C3708 C3709 1.363 . S
C3708 C3714 1.379 . S
C3708 N3716 1.356 . S
C3709 C3708 1.363 . S
C3709 C3715 1.363 . S
C3710 C3711 1.363 . S
C3710 C3715 1.379 . S
C3710 N3717 1.356 . S
C3711 C3710 1.363 . S
C3711 C3714 1.363 . S
N3712 C3714 1.356 . S
N3712 H3724 0.984 . S
N3712 H3725 0.985 . S
N3713 C3715 1.356 . S
N3713 H3718 0.984 . S
N3713 H3719 0.985 . S
C3714 C3708 1.379 . S
C3714 C3711 1.363 . S
C3714 N3712 1.356 . S
C3715 C3709 1.363 . S
C3715 C3710 1.379 . S
C3715 N3713 1.356 . S
N3716 C3708 1.356 . S
N3716 H3722 0.984 . S
N3716 H3723 0.984 . S
N3717 C3710 1.356 . S
N3717 H3720 0.984 . S
N3717 H3721 0.985 . S
H3718 N3713 0.984 . S
H3719 N3713 0.985 . S
H3720 N3717 0.984 . S
H3721 N3717 0.985 . S
H3722 N3716 0.984 . S
H3723 N3716 0.984 . S
H3724 N3712 0.984 . S
H3725 N3712 0.985 . S
C3726 C3727 1.363 . S
C3726 C3732 1.379 . S
C3726 N3734 1.356 . S
C3727 C3726 1.363 . S
C3727 C3733 1.363 . S
C3728 C3729 1.363 . S
C3728 C3733 1.379 . S
C3728 N3735 1.356 . S
C3729 C3728 1.363 . S
C3729 C3732 1.363 . S
N3730 C3732 1.356 . S
N3730 H3742 0.984 . S
N3730 H3743 0.985 . S
N3731 C3733 1.356 . S
N3731 H3736 0.984 . S
N3731 H3737 0.985 . S
C3732 C3726 1.379 . S
C3732 C3729 1.363 . S
C3732 N3730 1.356 . S
C3733 C3727 1.363 . S
C3733 C3728 1.379 . S
C3733 N3731 1.356 . S
N3734 C3726 1.356 . S
N3734 H3740 0.984 . S
N3734 H3741 0.984 . S
N3735 C3728 1.356 . S
N3735 H3738 0.984 . S
N3735 H3739 0.985 . S
H3736 N3731 0.984 . S
H3737 N3731 0.985 . S
H3738 N3735 0.984 . S
H3739 N3735 0.985 . S
H3740 N3734 0.984 . S
H3741 N3734 0.984 . S
H3742 N3730 0.984 . S
H3743 N3730 0.985 . S
C1585 C282 1.132 . S
C1587 N13 1.137 . S
C1603 C315 1.132 . S
C1605 N46 1.137 . S
C1621 N79 1.137 . S
C1623 C348 1.132 . S
C1639 N112 1.137 . S
C1641 C381 1.132 . S
C1657 N145 1.137 . S
C1659 C414 1.132 . S
C1675 C447 1.132 . S
C1677 N178 1.137 1_455 S
C1693 C480 1.132 . S
C1695 N211 1.137 . S
C1711 N244 1.137 1_655 S
C1713 C513 1.132 . S
C1729 N277 1.137 . S
C1731 C546 1.132 . S
C1747 N310 1.137 1_554 S
C1749 C1569 1.132 . S
C1765 N343 1.137 . S
C1767 C1503 1.132 . S
C1783 N376 1.137 1_554 S
C1785 C1536 1.132 . S
C1801 C579 1.132 . S
C1803 N409 1.137 . S
C1819 C612 1.132 . S
C1821 N442 1.137 1_556 S
C1837 N475 1.137 . S
C1839 C645 1.132 . S
C1855 N508 1.137 1_556 S
C1857 C1470 1.132 . S
C1873 N541 1.137 . S
C1875 C18 1.132 . S
C1891 C150 1.132 . S
C1893 N574 1.137 . S
C1909 N607 1.137 . S
C1911 C183 1.132 . S
C1927 C216 1.132 . S
C1929 N640 1.137 . S
C1945 N673 1.137 . S
C1947 C1041 1.132 . S
C1963 N706 1.137 . S
C1965 C876 1.132 . S
C1981 N739 1.137 . S
C1983 C909 1.132 . S
C1999 N772 1.137 1_545 S
C2001 C843 1.132 . S
C2017 C1074 1.132 . S
C2019 N805 1.137 . S
C2035 C1107 1.132 . S
C2037 N838 1.137 1_655 S
C2053 C1140 1.132 . S
C2055 N871 1.137 . S
C2071 N904 1.137 1_455 S
C2073 C1173 1.132 . S
C2089 C1206 1.132 . S
C2091 N937 1.137 . S
C2107 C1239 1.132 . S
C2109 N970 1.137 . S
C2125 N1003 1.137 . S
C2127 C1272 1.132 . S
C2143 N1036 1.137 . S
C2145 C1305 1.132 . S
C2161 N1069 1.137 . S
C2163 C1338 1.132 . S
C2179 C777 1.132 . S
C2181 N1102 1.137 . S
C2197 C711 1.132 . S
C2199 N1135 1.137 . S
C2215 N1168 1.137 . S
C2217 C744 1.132 . S
C2233 N1201 1.137 . S
C2235 C1371 1.132 . S
C2251 N1234 1.137 . S
C2253 C1404 1.132 . S
C2269 C1437 1.132 . S
C2271 N1267 1.137 . S
C2287 N1300 1.137 . S
C2289 C678 1.132 . S
C2305 C810 1.132 . S
C2307 N1333 1.137 . S
C2323 N1366 1.137 . S
C2325 C942 1.132 . S
C2341 N1399 1.137 1_545 S
C2343 C975 1.132 . S
C2359 C1008 1.132 . S
C2361 N1432 1.137 . S
C2377 N1465 1.137 1_565 S
C2379 C249 1.132 . S
C2395 N1498 1.137 . S
C2397 C84 1.132 . S
C2413 C117 1.132 . S
C2415 N1531 1.137 1_565 S
C2431 C51 1.132 . S
C2433 N1564 1.137 . S
C2449 C21 1.789 . S
C2451 C87 1.789 . S
C2467 C54 1.789 . S
C2469 C120 1.789 . S
C2485 C219 1.789 . S
C2487 C153 1.789 . S
C2503 C186 1.789 . S
C2505 C252 1.789 . S
C2521 C417 1.789 . S
C2523 C285 1.789 . S
C2539 C318 1.789 . S
C2541 C450 1.789 . S
C2557 C483 1.789 . S
C2559 C351 1.789 . S
C2575 C516 1.789 . S
C2577 C384 1.789 . S
C2593 C1440 1.789 . S
C2595 C549 1.789 . S
C2611 C582 1.789 . S
C2613 C714 1.789 . S
C2629 C615 1.789 . S
C2631 C747 1.789 . S
C2647 C648 1.789 . S
C2649 C1341 1.789 . S
C2665 C1572 1.789 . S
C2667 C681 1.789 . S
C2683 C1473 1.789 . S
C2685 C780 1.789 . S
C2701 C879 1.789 . S
C2703 C813 1.789 . S
C2719 C912 1.789 . S
C2721 C846 1.789 . S
C2737 C1011 1.789 . S
C2739 C945 1.789 . S
C2755 C1044 1.789 . S
C2757 C978 1.789 . S
C2773 C1077 1.789 . S
C2775 C1209 1.789 . S
C2791 C1242 1.789 . S
C2793 C1110 1.789 . S
C2809 C1143 1.789 . S
C2811 C1275 1.789 . S
C2827 C1308 1.789 . S
C2829 C1176 1.789 . S
C2845 C1506 1.789 . S
C2847 C1374 1.789 . S
C2863 C1407 1.789 . S
C2865 C1539 1.789 . S
C2881 C436 1.706 . S
C2883 N2 1.578 . S
C2899 C469 1.706 . S
C2901 N35 1.578 . S
C2917 N68 1.578 . S
C2919 C502 1.706 . S
C2935 N101 1.578 . S
C2937 C403 1.706 . S
C2953 N134 1.578 . S
C2955 C1162 1.706 . S
C2971 C1063 1.706 . S
C2973 N167 1.578 . S
C2989 C1096 1.706 . S
C2991 N200 1.578 . S
C3007 N233 1.578 . S
C3009 C1129 1.706 . S
C3025 N266 1.578 . S
C3027 C832 1.706 . S
C3043 C865 1.706 . S
C3045 N299 1.578 . S
C3061 C898 1.706 . S
C3063 N332 1.578 . S
C3079 N365 1.578 . S
C3081 C799 1.706 . S
C3097 N398 1.578 . S
C3099 C238 1.706 . S
C3115 N431 1.578 . S
C3117 C139 1.706 . S
C3133 C172 1.706 . S
C3135 N464 1.578 . S
C3151 N497 1.578 . S
C3153 C205 1.706 . S
C3169 C1525 1.706 . S
C3171 N530 1.578 . S
C3187 N563 1.578 . S
C3189 C1393 1.706 . S
C3205 C1426 1.706 . S
C3207 N596 1.578 . S
C3223 N629 1.578 . S
C3225 C667 1.706 . S
C3241 C568 1.706 . S
C3243 N662 1.578 . S
C3259 N695 1.578 . S
C3261 C766 1.706 . S
C3277 N728 1.578 . S
C3279 C700 1.706 . S
C3295 C1327 1.706 . S
C3297 N761 1.578 . S
C3313 C1228 1.706 . S
C3315 N794 1.578 . S
C3331 C1261 1.706 . S
C3333 N827 1.578 . S
C3349 N860 1.578 . S
C3351 C1294 1.706 . S
C3367 N893 1.578 . S
C3369 C1195 1.706 . S
C3385 C370 1.706 . S
C3387 N926 1.578 . S
C3403 N959 1.578 . S
C3405 C271 1.706 . S
C3421 N992 1.578 . S
C3423 C304 1.706 . S
C3439 N1025 1.578 . S
C3441 C337 1.706 . S
C3457 N1058 1.578 . S
C3459 C40 1.706 . S
C3475 N1091 1.578 . S
C3477 C73 1.706 . S
C3493 N1124 1.578 . S
C3495 C106 1.706 . S
C3511 N1157 1.578 . S
C3513 C7 1.706 . S
C3529 C1030 1.706 . S
C3531 N1190 1.578 . S
C3547 C931 1.706 . S
C3549 N1223 1.578 . S
C3565 N1256 1.578 . S
C3567 C964 1.706 . S
C3583 N1289 1.578 . S
C3585 C997 1.706 . S
C3601 C733 1.706 . S
C3603 N1322 1.578 . S
C3619 N1355 1.578 . S
C3621 C601 1.706 . S
C3637 C634 1.706 . S
C3639 N1388 1.578 . S
C3655 N1421 1.578 . S
C3657 C1459 1.706 . S
C3673 C1360 1.706 . S
C3675 N1454 1.578 . S
C3691 C1558 1.706 . S
C3693 N1487 1.578 . S
C3709 C1492 1.706 . S
C3711 N1520 1.578 . S
C3727 N1553 1.578 . S
C3729 C535 1.706 . S
