# Generated by pormake.
# Topology sml, (6)-cn, num edge types: 1
# Building blocks:
#     Node 0, Type 0, BuildingBlock: CUWYAW_clean_sbu_0, # of connection points: 6
#     Node 1, Type 0, BuildingBlock: CUWYAW_clean_sbu_0, # of connection points: 6
#     Node 2, Type 0, BuildingBlock: CUWYAW_clean_sbu_0, # of connection points: 6
#     Node 3, Type 0, BuildingBlock: CUWYAW_clean_sbu_0, # of connection points: 6
#     Node 4, Type 0, BuildingBlock: CUWYAW_clean_sbu_0, # of connection points: 6
#     Node 5, Type 0, BuildingBlock: CUWYAW_clean_sbu_0, # of connection points: 6
#     Edge 6, Type (0, 0), BuildingBlock: XUDNAN_clean_linker_2, # of connection points: 2
#     Edge 7, Type (0, 0), BuildingBlock: XUDNAN_clean_linker_2, # of connection points: 2
#     Edge 8, Type (0, 0), BuildingBlock: XUDNAN_clean_linker_2, # of connection points: 2
#     Edge 9, Type (0, 0), BuildingBlock: XUDNAN_clean_linker_2, # of connection points: 2
#     Edge 10, Type (0, 0), BuildingBlock: XUDNAN_clean_linker_2, # of connection points: 2
#     Edge 11, Type (0, 0), BuildingBlock: XUDNAN_clean_linker_2, # of connection points: 2
#     Edge 12, Type (0, 0), BuildingBlock: XUDNAN_clean_linker_2, # of connection points: 2
#     Edge 13, Type (0, 0), BuildingBlock: XUDNAN_clean_linker_2, # of connection points: 2
#     Edge 14, Type (0, 0), BuildingBlock: XUDNAN_clean_linker_2, # of connection points: 2
#     Edge 15, Type (0, 0), BuildingBlock: XUDNAN_clean_linker_2, # of connection points: 2
#     Edge 16, Type (0, 0), BuildingBlock: XUDNAN_clean_linker_2, # of connection points: 2
#     Edge 17, Type (0, 0), BuildingBlock: XUDNAN_clean_linker_2, # of connection points: 2
#     Edge 18, Type (0, 0), BuildingBlock: XUDNAN_clean_linker_2, # of connection points: 2
#     Edge 19, Type (0, 0), BuildingBlock: XUDNAN_clean_linker_2, # of connection points: 2
#     Edge 20, Type (0, 0), BuildingBlock: XUDNAN_clean_linker_2, # of connection points: 2
#     Edge 21, Type (0, 0), BuildingBlock: XUDNAN_clean_linker_2, # of connection points: 2
#     Edge 22, Type (0, 0), BuildingBlock: XUDNAN_clean_linker_2, # of connection points: 2
#     Edge 23, Type (0, 0), BuildingBlock: XUDNAN_clean_linker_2, # of connection points: 2
# Relax obj value: 0.235
# Max RMSD: 0.250
# Mean RMSD: 0.249
data_MOF--net-sml--node1-CUWYAW_clean_sbu_0--edge1-XUDNAN_clean_linker_2
_symmetry_space_group_name_H-M    P1
_symmetry_Int_Tables_number       1
_symmetry_cell_setting            triclinic
loop_
_symmetry_equiv_pos_as_xyz
'x, y, z'
_cell_length_a     32.544484
_cell_length_b     32.490975
_cell_length_c     25.234187
_cell_angle_alpha  90.128312
_cell_angle_beta   90.181603
_cell_angle_gamma 120.05752
loop_
_atom_site_label
_atom_site_type_symbol
_atom_site_fract_x
_atom_site_fract_y
_atom_site_fract_z
_atom_type_partial_charge
C0 C 0.26645 0.42231 0.16232 0.0
Eu1 Eu 0.23838 0.43043 0.06777 0.0
C2 C 0.26451 0.4328 0.21876 0.0
C3 C 0.30115 0.43791 0.25229 0.0
C4 C 0.30051 0.4471 0.30625 0.0
C5 C 0.26315 0.45154 0.32801 0.0
C6 C 0.22629 0.44641 0.29418 0.0
C7 C 0.22702 0.43721 0.2399 0.0
C8 C 0.29574 0.48743 0.98975 0.0
C9 C 0.19074 0.49825 0.06448 0.0
C10 C 0.15533 0.43505 0.87144 0.0
Eu11 Eu 0.18556 0.43377 0.96713 0.0
C12 C 0.17244 0.44005 0.81655 0.0
C13 C 0.14903 0.44988 0.77609 0.0
C14 C 0.16489 0.45515 0.72373 0.0
C15 C 0.20487 0.4513 0.71107 0.0
C16 C 0.22815 0.4412 0.75173 0.0
C17 C 0.21174 0.4351 0.80394 0.0
C18 C 0.12841 0.3777 0.04519 0.0
C19 C 0.23866 0.37181 0.96873 0.0
O20 O 0.22727 0.38952 0.13997 0.0
O21 O 0.29122 0.45861 0.13132 0.0
O22 O 0.30767 0.46422 0.02213 0.0
O23 O 0.25583 0.48215 1.00216 0.0
O24 O 0.20591 0.47469 0.09359 0.0
O25 O 0.18492 0.49299 0.01258 0.0
O26 O 0.17675 0.47285 0.90173 0.0
O27 O 0.14659 0.39613 0.89611 0.0
O28 O 0.1173 0.4011 0.01238 0.0
O29 O 0.16766 0.38144 0.03271 0.0
O30 O 0.22804 0.39969 0.94099 0.0
O31 O 0.23747 0.37094 0.02098 0.0
H32 H 0.33026 0.43441 0.23673 0.0
H33 H 0.32901 0.44993 0.3311 0.0
H34 H 0.1972 0.44999 0.30954 0.0
H35 H 0.19841 0.4335 0.21456 0.0
H36 H 0.11851 0.4536 0.78503 0.0
H37 H 0.14645 0.46319 0.69328 0.0
H38 H 0.25879 0.43765 0.74303 0.0
H39 H 0.22992 0.42682 0.83445 0.0
C40 C 0.84976 0.2217 0.49337 0.0
Eu41 Eu 0.81478 0.21312 0.39808 0.0
C42 C 0.83949 0.22844 0.54873 0.0
C43 C 0.87558 0.26469 0.57932 0.0
C44 C 0.86778 0.27099 0.6324 0.0
C45 C 0.82373 0.2409 0.65623 0.0
C46 C 0.78736 0.20476 0.62544 0.0
C47 C 0.79508 0.1987 0.57209 0.0
C48 C 0.82246 0.28464 0.3366 0.0
C49 C 0.7036 0.18854 0.40194 0.0
C50 C 0.71807 0.17475 0.20157 0.0
Eu51 Eu 0.7531 0.18254 0.29658 0.0
C52 C 0.73401 0.18903 0.1467 0.0
C53 C 0.70438 0.1617 0.10493 0.0
C54 C 0.718 0.17463 0.05237 0.0
C55 C 0.7617 0.21527 0.04042 0.0
C56 C 0.79148 0.24262 0.08259 0.0
C57 C 0.77781 0.22956 0.13531 0.0
C58 C 0.74399 0.11077 0.35867 0.0
C59 C 0.8653 0.21425 0.29209 0.0
O60 O 0.82143 0.18077 0.4707 0.0
O61 O 0.86253 0.25761 0.4613 0.0
O62 O 0.8581 0.28651 0.36195 0.0
O63 O 0.78476 0.2467 0.34678 0.0
O64 O 0.74121 0.19347 0.42813 0.0
O65 O 0.70151 0.18825 0.34972 0.0
O66 O 0.72523 0.2087 0.23489 0.0
O67 O 0.72664 0.14296 0.22243 0.0
O68 O 0.70902 0.10952 0.3324 0.0
O69 O 0.78237 0.14832 0.3486 0.0
O70 O 0.82873 0.21375 0.26839 0.0
O71 O 0.865 0.20553 0.34324 0.0
H72 H 0.91015 0.2879 0.56225 0.0
H73 H 0.89669 0.29877 0.65515 0.0
H74 H 0.75289 0.18133 0.64253 0.0
H75 H 0.76645 0.17057 0.54936 0.0
H76 H 0.67038 0.13042 0.113 0.0
H77 H 0.69381 0.15319 0.02108 0.0
H78 H 0.82552 0.2739 0.07489 0.0
H79 H 0.8013 0.25111 0.16707 0.0
C80 C 0.59559 0.82785 0.80649 0.0
Eu81 Eu 0.58449 0.79154 0.71151 0.0
C82 C 0.58394 0.81308 0.86232 0.0
C83 C 0.56923 0.83823 0.89488 0.0
C84 C 0.55838 0.82596 0.94809 0.0
C85 C 0.56209 0.78823 0.97014 0.0
C86 C 0.5769 0.76293 0.93744 0.0
C87 C 0.58755 0.77511 0.88386 0.0
C88 C 0.5203 0.7842 0.63747 0.0
C89 C 0.51562 0.67631 0.71236 0.0
C90 C 0.56749 0.69612 0.51633 0.0
Eu91 Eu 0.57567 0.73156 0.61136 0.0
C92 C 0.56321 0.70818 0.46112 0.0
C93 C 0.5713 0.68435 0.41971 0.0
C94 C 0.56645 0.69432 0.36691 0.0
C95 C 0.5533 0.72836 0.35443 0.0
C96 C 0.54571 0.75262 0.39624 0.0
C97 C 0.55071 0.74268 0.44912 0.0
C98 C 0.63578 0.7342 0.68742 0.0
C99 C 0.63628 0.84706 0.60852 0.0
O100 O 0.62713 0.82028 0.78327 0.0
O101 O 0.56003 0.81937 0.7753 0.0
O102 O 0.54506 0.82216 0.66605 0.0
O103 O 0.52868 0.75203 0.65131 0.0
O104 O 0.54372 0.7151 0.7401 0.0
O105 O 0.51633 0.6753 0.65995 0.0
O106 O 0.53138 0.68541 0.54732 0.0
O107 O 0.60834 0.72301 0.53985 0.0
O108 O 0.61086 0.69787 0.65681 0.0
O109 O 0.63073 0.76865 0.67354 0.0
O110 O 0.60705 0.80749 0.58272 0.0
O111 O 0.64045 0.84866 0.66066 0.0
H112 H 0.56636 0.8677 0.87915 0.0
H113 H 0.54779 0.84664 0.97224 0.0
H114 H 0.57973 0.73343 0.9531 0.0
H115 H 0.5986 0.75495 0.85942 0.0
H116 H 0.58095 0.6576 0.42824 0.0
H117 H 0.572 0.67456 0.33587 0.0
H118 H 0.53616 0.77949 0.3881 0.0
H119 H 0.54462 0.76172 0.4806 0.0
C120 C 0.74753 0.60549 0.18657 0.0
Eu121 Eu 0.75564 0.58057 0.09042 0.0
C122 C 0.74213 0.58749 0.24154 0.0
C123 C 0.70056 0.5466 0.25821 0.0
C124 C 0.69581 0.5312 0.3108 0.0
C125 C 0.73249 0.55627 0.34796 0.0
C126 C 0.77412 0.59701 0.331 0.0
C127 C 0.77877 0.61248 0.27852 0.0
C128 C 0.68628 0.5157 0.02685 0.0
C129 C 0.79049 0.50098 0.09313 0.0
C130 C 0.80074 0.52941 0.89321 0.0
Eu131 Eu 0.7904 0.55472 0.9881 0.0
C132 C 0.78254 0.5238 0.83859 0.0
C133 C 0.78541 0.49086 0.80518 0.0
C134 C 0.77058 0.48593 0.75239 0.0
C135 C 0.7528 0.51415 0.73175 0.0
C136 C 0.74935 0.5468 0.7656 0.0
C137 C 0.76384 0.55141 0.81874 0.0
C138 C 0.85975 0.62029 0.05149 0.0
C139 C 0.75086 0.62873 0.98424 0.0
O140 O 0.78833 0.61892 0.16374 0.0
O141 O 0.71159 0.583 0.15396 0.0
O142 O 0.68172 0.5465 0.05535 0.0
O143 O 0.72559 0.51827 0.03639 0.0
O144 O 0.77677 0.52733 0.11945 0.0
O145 O 0.79561 0.50264 0.04126 0.0
O146 O 0.77191 0.49937 0.92842 0.0
O147 O 0.82595 0.57283 0.91172 0.0
O148 O 0.86429 0.58948 0.02312 0.0
O149 O 0.82039 0.61758 0.04197 0.0
O150 O 0.75354 0.59392 0.96036 0.0
O151 O 0.75933 0.63733 0.03559 0.0
H152 H 0.67148 0.5266 0.23083 0.0
H153 H 0.663 0.50004 0.32249 0.0
H154 H 0.80344 0.61681 0.35815 0.0
H155 H 0.81116 0.64418 0.26683 0.0
H156 H 0.79971 0.46923 0.8198 0.0
H157 H 0.77427 0.46088 0.72733 0.0
H158 H 0.7355 0.56875 0.75092 0.0
H159 H 0.76103 0.57688 0.84403 0.0
C160 C 0.13377 0.75027 0.49914 0.0
Eu161 Eu 0.1724 0.76257 0.40604 0.0
C162 C 0.14611 0.76359 0.55581 0.0
C163 C 0.14298 0.72953 0.59232 0.0
C164 C 0.15202 0.74064 0.64634 0.0
C165 C 0.16484 0.78634 0.6654 0.0
C166 C 0.16839 0.82051 0.6285 0.0
C167 C 0.15834 0.80903 0.57472 0.0
C168 C 0.15951 0.69993 0.32658 0.0
C169 C 0.2817 0.78276 0.40085 0.0
C170 C 0.28362 0.83424 0.21206 0.0
Eu171 Eu 0.23849 0.8138 0.3018 0.0
C172 C 0.27039 0.83053 0.15522 0.0
C173 C 0.29027 0.87183 0.12419 0.0
C174 C 0.27668 0.86992 0.07119 0.0
C175 C 0.24348 0.82649 0.04773 0.0
C176 C 0.2243 0.78486 0.07828 0.0
C177 C 0.23721 0.78692 0.13175 0.0
C178 C 0.23671 0.87106 0.37999 0.0
C179 C 0.12621 0.77869 0.29998 0.0
O180 O 0.13807 0.7834 0.46591 0.0
O181 O 0.14655 0.72125 0.47846 0.0
O182 O 0.1349 0.68675 0.37005 0.0
O183 O 0.18724 0.74369 0.32957 0.0
O184 O 0.24337 0.7708 0.42991 0.0
O185 O 0.28736 0.79835 0.35131 0.0
O186 O 0.27067 0.79459 0.23779 0.0
O187 O 0.27834 0.86526 0.2401 0.0
O188 O 0.24359 0.8832 0.33034 0.0
O189 O 0.23474 0.83178 0.38539 0.0
O190 O 0.16396 0.7862 0.27253 0.0
O191 O 0.12494 0.77788 0.35265 0.0
H192 H 0.1326 0.69383 0.57924 0.0
H193 H 0.14776 0.71286 0.67321 0.0
H194 H 0.17892 0.85637 0.64093 0.0
H195 H 0.15981 0.83578 0.54809 0.0
H196 H 0.31585 0.90585 0.14125 0.0
H197 H 0.2921 0.9025 0.04845 0.0
H198 H 0.19828 0.75101 0.06127 0.0
H199 H 0.22063 0.75456 0.15483 0.0
C200 C 0.41011 0.1546 0.83203 0.0
Eu201 Eu 0.4229 0.18905 0.73659 0.0
C202 C 0.42256 0.17388 0.88646 0.0
C203 C 0.46967 0.20654 0.90102 0.0
C204 C 0.48074 0.22356 0.95306 0.0
C205 C 0.44493 0.20872 0.99158 0.0
C206 C 0.39773 0.17656 0.97656 0.0
C207 C 0.38674 0.15922 0.92462 0.0
C208 C 0.48126 0.18758 0.66179 0.0
C209 C 0.49563 0.3039 0.74015 0.0
C210 C 0.45454 0.28848 0.54236 0.0
Eu211 Eu 0.43627 0.25038 0.63622 0.0
C212 C 0.45944 0.278 0.48634 0.0
C213 C 0.41941 0.25108 0.45397 0.0
C214 C 0.42467 0.24628 0.39968 0.0
C215 C 0.47002 0.2684 0.37656 0.0
C216 C 0.51004 0.29366 0.40942 0.0
C217 C 0.50479 0.29858 0.4636 0.0
C218 C 0.37998 0.25544 0.71085 0.0
C219 C 0.36375 0.13463 0.63435 0.0
O220 O 0.37869 0.16132 0.80704 0.0
O221 O 0.44506 0.16049 0.80145 0.0
O222 O 0.45531 0.15144 0.69188 0.0
O223 O 0.47795 0.2231 0.67516 0.0
O224 O 0.47032 0.2639 0.76638 0.0
O225 O 0.49227 0.30747 0.68836 0.0
O226 O 0.48751 0.29276 0.57558 0.0
O227 O 0.41196 0.26703 0.56316 0.0
O228 O 0.40539 0.2895 0.67818 0.0
O229 O 0.38128 0.21828 0.69893 0.0
O230 O 0.39157 0.17381 0.60736 0.0
O231 O 0.36439 0.13337 0.68667 0.0
H232 H 0.4981 0.21877 0.87238 0.0
H233 H 0.51754 0.24774 0.96326 0.0
H234 H 0.36909 0.16503 1.00481 0.0
H235 H 0.35013 0.13432 0.91421 0.0
H236 H 0.38392 0.2349 0.47015 0.0
H237 H 0.39306 0.22689 0.37549 0.0
H238 H 0.54552 0.3104 0.39311 0.0
H239 H 0.53631 0.31958 0.48748 0.0
H240 H 0.379 0.33561 0.73574 0.0
H241 H 0.32127 0.18914 0.78456 0.0
H242 H 0.28241 0.20376 0.8611 0.0
H243 H 0.39988 0.38984 0.86386 0.0
H244 H 0.3811 0.43122 0.84432 0.0
H245 H 0.40684 0.40985 0.79619 0.0
H246 H 0.33234 0.38037 0.73612 0.0
H247 H 0.30706 0.40247 0.78385 0.0
H248 H 0.27442 0.34107 0.7632 0.0
H249 H 0.25117 0.23694 0.93383 0.0
H250 H 0.22311 0.28186 0.9884 0.0
H251 H 0.29641 0.40293 0.88406 0.0
C252 C 0.35831 0.30649 0.76254 0.0
C253 C 0.35419 0.26154 0.75529 0.0
C254 C 0.32616 0.22424 0.79065 0.0
C255 C 0.30376 0.23222 0.8339 0.0
C256 C 0.30915 0.2774 0.84024 0.0
C257 C 0.33518 0.31358 0.80481 0.0
C258 C 0.33354 0.3581 0.81783 0.0
C259 C 0.38332 0.39969 0.83136 0.0
C260 C 0.31044 0.37123 0.77255 0.0
C261 C 0.3023 0.34147 0.86612 0.0
C262 C 0.28911 0.29518 0.87929 0.0
C263 C 0.261 0.27304 0.92353 0.0
C264 C 0.2454 0.29871 0.95434 0.0
C265 C 0.25725 0.34538 0.93979 0.0
C266 C 0.28631 0.36694 0.8955 0.0
H267 H 0.03984 0.36114 0.0614 0.0
H268 H 0.14201 0.32398 0.12113 0.0
H269 H 0.0857 0.27637 0.19243 0.0
H270 H 0.99349 0.37209 0.18358 0.0
H271 H 0.93366 0.34591 0.15839 0.0
H272 H 0.98306 0.3771 0.1143 0.0
H273 H 0.94864 0.30199 0.05423 0.0
H274 H 0.89982 0.27037 0.09907 0.0
H275 H 0.93724 0.24619 0.08205 0.0
H276 H 0.01722 0.23622 0.26069 0.0
H277 H 0.94308 0.20377 0.3135 0.0
H278 H 0.88708 0.26434 0.20106 0.0
C279 C 0.05056 0.34297 0.08933 0.0
C280 C 0.09563 0.34695 0.08657 0.0
C281 C 0.108 0.32217 0.12344 0.0
C282 C 0.07612 0.29488 0.16376 0.0
C283 C 0.03192 0.2922 0.16559 0.0
C284 C 0.01915 0.3152 0.12866 0.0
C285 C 0.96964 0.30642 0.13763 0.0
C286 C 0.97005 0.35317 0.14919 0.0
C287 C 0.93693 0.27965 0.09043 0.0
C288 C 0.95646 0.27542 0.18604 0.0
C289 C 0.9926 0.26758 0.20215 0.0
C290 C 0.98853 0.24166 0.24789 0.0
C291 C 0.94644 0.22345 0.27764 0.0
C292 C 0.90909 0.23091 0.26095 0.0
C293 C 0.91445 0.25703 0.21442 0.0
H294 H 0.66215 0.03042 0.38534 0.0
H295 H 0.81327 0.10867 0.41869 0.0
H296 H 0.80197 0.05168 0.48993 0.0
H297 H 0.62045 0.99646 0.51706 0.0
H298 H 0.57404 0.93748 0.49925 0.0
H299 H 0.59345 0.98518 0.4522 0.0
H300 H 0.61146 0.93687 0.38365 0.0
H301 H 0.59129 0.88866 0.43012 0.0
H302 H 0.64983 0.91404 0.40205 0.0
H303 H 0.77248 0.98831 0.56153 0.0
H304 H 0.72932 0.91679 0.61817 0.0
H305 H 0.59985 0.87606 0.53014 0.0
C306 C 0.69289 0.03551 0.40756 0.0
C307 C 0.73839 0.07476 0.39787 0.0
C308 C 0.77789 0.07969 0.42688 0.0
C309 C 0.77183 0.0474 0.46716 0.0
C310 C 0.72622 0.00969 0.47669 0.0
C311 C 0.68763 0.00299 0.44682 0.0
C312 C 0.64275 0.95834 0.46302 0.0
C313 C 0.60549 0.97011 0.48414 0.0
C314 C 0.62268 0.92236 0.41697 0.0
C315 C 0.66204 0.94107 0.50685 0.0
C316 C 0.71006 0.97154 0.51492 0.0
C317 C 0.73503 0.96386 0.55508 0.0
C318 C 0.71034 0.92347 0.58714 0.0
C319 C 0.6617 0.89107 0.57779 0.0
C320 C 0.63733 0.90013 0.53739 0.0
H321 H 0.62229 0.65338 0.73251 0.0
H322 H 0.69715 0.80619 0.75507 0.0
H323 H 0.72989 0.79657 0.84042 0.0
H324 H 0.59385 0.6221 0.87014 0.0
H325 H 0.60163 0.57116 0.86479 0.0
H326 H 0.58214 0.59045 0.80806 0.0
H327 H 0.65264 0.59758 0.7529 0.0
H328 H 0.67154 0.57717 0.809 0.0
H329 H 0.71226 0.633 0.77828 0.0
H330 H 0.75664 0.76782 0.92313 0.0
H331 H 0.77837 0.72434 0.98842 0.0
H332 H 0.68665 0.59239 0.90554 0.0
C333 C 0.64554 0.68497 0.7553 0.0
C334 C 0.65686 0.73048 0.7377 0.0
C335 C 0.68742 0.77088 0.76862 0.0
C336 C 0.70618 0.76571 0.81696 0.0
C337 C 0.69397 0.71992 0.83335 0.0
C338 C 0.66448 0.68043 0.80295 0.0
C339 C 0.65772 0.63517 0.82719 0.0
C340 C 0.60574 0.60281 0.84349 0.0
C341 C 0.67458 0.60926 0.78961 0.0
C342 C 0.68958 0.65517 0.87504 0.0
C343 C 0.70956 0.70394 0.87907 0.0
C344 C 0.74097 0.72962 0.92029 0.0
C345 C 0.75298 0.70477 0.95727 0.0
C346 C 0.73421 0.65517 0.95175 0.0
C347 C 0.70155 0.63033 0.91072 0.0
H348 H 0.09688 0.71658 0.21892 0.0
H349 H 0.05524 0.80116 0.31325 0.0
H350 H 0.98235 0.77219 0.2577 0.0
H351 H 0.05649 0.73074 0.09319 0.0
H352 H 0.03568 0.67024 0.07269 0.0
H353 H 0.08422 0.69883 0.11907 0.0
H354 H 0.03865 0.63079 0.18588 0.0
H355 H 0.98987 0.6016 0.14004 0.0
H356 H 0.97972 0.61574 0.20611 0.0
H357 H 0.91568 0.73569 0.18639 0.0
H358 H 0.85809 0.68866 0.11522 0.0
H359 H 0.94253 0.62384 0.07586 0.0
C360 C 0.07259 0.72934 0.22772 0.0
C361 C 0.08183 0.76173 0.26955 0.0
C362 C 0.04872 0.77658 0.28096 0.0
C363 C 0.00748 0.76043 0.24955 0.0
C364 C -0.00024 0.72878 0.20792 0.0
C365 C 0.0312 0.71286 0.19785 0.0
C366 C 0.01434 0.67719 0.15297 0.0
C367 C 0.04979 0.69536 0.10675 0.0
C368 C 0.00505 0.62843 0.17244 0.0
C369 C 0.96866 0.67578 0.13846 0.0
C370 C 0.96081 0.70601 0.17 0.0
C371 C 0.9212 0.71132 0.16224 0.0
C372 C 0.88855 0.68432 0.12201 0.0
C373 C 0.8952 0.65168 0.09117 0.0
C374 C 0.93613 0.64806 0.09925 0.0
H375 H 0.3459 0.12242 0.52686 0.0
H376 H 0.31652 0.04466 0.67484 0.0
H377 H 0.2758 0.9691 0.62544 0.0
H378 H 0.23247 0.03732 0.46061 0.0
H379 H 0.26023 0.04504 0.39688 0.0
H380 H 0.28389 0.09342 0.44399 0.0
H381 H 0.36617 0.09958 0.43803 0.0
H382 H 0.34285 0.05115 0.3912 0.0
H383 H 0.37122 0.04777 0.45119 0.0
H384 H 0.24943 0.90333 0.56071 0.0
H385 H 0.229 0.84922 0.48422 0.0
H386 H 0.26899 0.96747 0.3772 0.0
C387 C 0.33014 0.08951 0.54897 0.0
C388 C 0.33446 0.0896 0.60485 0.0
C389 C 0.31355 0.0457 0.63216 0.0
C390 C 0.29039 0.00249 0.60443 0.0
C391 C 0.28773 0.00368 0.54943 0.0
C392 C 0.30626 0.04592 0.52192 0.0
C393 C 0.29965 0.03694 0.46258 0.0
C394 C 0.26711 0.0542 0.43967 0.0
C395 C 0.34784 0.06024 0.4341 0.0
C396 C 0.27568 0.98309 0.46111 0.0
C397 C 0.26942 0.96485 0.51177 0.0
C398 C 0.25235 0.91679 0.5209 0.0
C399 C 0.2407 0.88632 0.47718 0.0
C400 C 0.24567 0.9038 0.4249 0.0
C401 C 0.26329 0.95288 0.41679 0.0
H402 H 0.15349 0.41185 0.61989 0.0
H403 H 0.29629 0.50678 0.67757 0.0
H404 H 0.32609 0.51999 0.58557 0.0
H405 H 0.18744 0.35724 0.51832 0.0
H406 H 0.14269 0.35164 0.47191 0.0
H407 H 0.13251 0.35123 0.54205 0.0
H408 H 0.1166 0.4213 0.53069 0.0
H409 H 0.12699 0.42208 0.46051 0.0
H410 H 0.16077 0.47531 0.49952 0.0
H411 H 0.34013 0.52308 0.48739 0.0
H412 H 0.33874 0.51193 0.39057 0.0
H413 H 0.18714 0.41229 0.39667 0.0
C414 C 0.19096 0.43569 0.61302 0.0
C415 C 0.22263 0.45855 0.65578 0.0
C416 C 0.27153 0.48882 0.64538 0.0
C417 C 0.28869 0.49671 0.59327 0.0
C418 C 0.25654 0.47373 0.552 0.0
C419 C 0.20877 0.4435 0.56128 0.0
C420 C 0.1821 0.42161 0.51005 0.0
C421 C 0.15989 0.36721 0.51063 0.0
C422 C 0.14439 0.43595 0.49959 0.0
C423 C 0.22228 0.4444 0.47046 0.0
C424 C 0.26484 0.47455 0.4955 0.0
C425 C 0.30705 0.49934 0.4674 0.0
C426 C 0.30591 0.49256 0.41239 0.0
C427 C 0.26291 0.46094 0.38585 0.0
C428 C 0.2205 0.43707 0.4155 0.0
H429 H 0.74834 0.15672 0.95516 0.0
H430 H 0.80622 0.3052 0.99805 0.0
H431 H 0.82746 0.32787 0.9045 0.0
H432 H 0.83494 0.1746 0.85673 0.0
H433 H 0.79272 0.12866 0.81325 0.0
H434 H 0.78269 0.12435 0.88367 0.0
H435 H 0.70039 0.11676 0.86819 0.0
H436 H 0.71026 0.12124 0.79772 0.0
H437 H 0.69642 0.16194 0.83095 0.0
H438 H 0.84208 0.33425 0.80582 0.0
H439 H 0.85026 0.32395 0.71008 0.0
H440 H 0.78133 0.1712 0.7316 0.0
C441 C 0.76514 0.19401 0.94495 0.0
C442 C 0.77558 0.22916 0.98419 0.0
C443 C 0.7984 0.27762 0.969 0.0
C444 C 0.81029 0.29083 0.91584 0.0
C445 C 0.79911 0.25521 0.87823 0.0
C446 C 0.77711 0.2078 0.89213 0.0
C447 C 0.76915 0.17644 0.84416 0.0
C448 C 0.79651 0.14943 0.8498 0.0
C449 C 0.71589 0.14207 0.83471 0.0
C450 C 0.79004 0.21362 0.80103 0.0
C451 C 0.80718 0.25884 0.82149 0.0
C452 C 0.8288 0.299 0.78941 0.0
C453 C 0.83343 0.29281 0.73511 0.0
C454 C 0.81642 0.24679 0.71332 0.0
C455 C 0.79411 0.20676 0.74689 0.0
H456 H 0.60816 0.7355 0.26795 0.0
H457 H 0.48273 0.74165 0.31312 0.0
H458 H 0.47019 0.75521 0.21971 0.0
H459 H 0.649 0.8265 0.16894 0.0
H460 H 0.66972 0.79716 0.12479 0.0
H461 H 0.66861 0.78761 0.19516 0.0
H462 H 0.61697 0.69671 0.17995 0.0
H463 H 0.61774 0.70601 0.10951 0.0
H464 H 0.56192 0.67342 0.14363 0.0
H465 H 0.47113 0.76799 0.12139 0.0
H466 H 0.48711 0.78211 0.02565 0.0
H467 H 0.61179 0.76741 0.04385 0.0
C468 C 0.57783 0.73933 0.2582 0.0
C469 C 0.54644 0.73753 0.29809 0.0
C470 C 0.50763 0.7435 0.28355 0.0
C471 C 0.49999 0.75084 0.23048 0.0
C472 C 0.53145 0.75217 0.19224 0.0
C473 C 0.5697 0.74675 0.2054 0.0
C474 C 0.59868 0.75054 0.15676 0.0
C475 C 0.64951 0.79298 0.16172 0.0
C476 C 0.59882 0.70389 0.14689 0.0
C477 C 0.57078 0.75898 0.11416 0.0
C478 C 0.53206 0.75965 0.13552 0.0
C479 C 0.50138 0.76762 0.10427 0.0
C480 C 0.51088 0.77579 0.04993 0.0
C481 C 0.55079 0.77605 0.02716 0.0
C482 C 0.58071 0.76691 0.05985 0.0
H483 H 0.77399 0.58686 0.66184 0.0
H484 H 0.70283 0.43303 0.67226 0.0
H485 H 0.68726 0.42684 0.57584 0.0
H486 H 0.69565 0.59191 0.55989 0.0
H487 H 0.74375 0.64238 0.52752 0.0
H488 H 0.74642 0.63436 0.59783 0.0
H489 H 0.82719 0.63788 0.58598 0.0
H490 H 0.82456 0.64545 0.51564 0.0
H491 H 0.83144 0.59728 0.54055 0.0
H492 H 0.68385 0.43763 0.47733 0.0
H493 H 0.69134 0.46445 0.38464 0.0
H494 H 0.76274 0.61126 0.43873 0.0
C495 C 0.75426 0.55184 0.64404 0.0
C496 C 0.73965 0.51041 0.67465 0.0
C497 C 0.71477 0.46527 0.64956 0.0
C498 C 0.70556 0.46139 0.59485 0.0
C499 C 0.72131 0.50296 0.56568 0.0
C500 C 0.74485 0.54732 0.58944 0.0
C501 C 0.7596 0.58647 0.54879 0.0
C502 C 0.73487 0.61548 0.55913 0.0
C503 C 0.81392 0.61865 0.54769 0.0
C504 C 0.74128 0.55723 0.4984 0.0
C505 C 0.71912 0.50914 0.50901 0.0
C506 C 0.70063 0.4752 0.46862 0.0
C507 C 0.70486 0.49082 0.41603 0.0
C508 C 0.72744 0.54002 0.40408 0.0
C509 C 0.74565 0.57344 0.44619 0.0
H510 H 0.20198 0.75155 0.74097 0.0
H511 H 0.14543 0.84691 0.72277 0.0
H512 H 0.16003 0.86743 0.81733 0.0
H513 H 0.14808 0.70651 0.86942 0.0
H514 H 0.1976 0.70179 0.89408 0.0
H515 H 0.1843 0.6955 0.82417 0.0
H516 H 0.26995 0.76285 0.80446 0.0
H517 H 0.28349 0.76941 0.87428 0.0
H518 H 0.29227 0.81999 0.8361 0.0
H519 H 0.18272 0.87978 0.9135 0.0
H520 H 0.20809 0.87952 1.00592 0.0
H521 H 0.24362 0.77153 0.96446 0.0
C522 C 0.19207 0.77635 0.75669 0.0
C523 C 0.17305 0.79797 0.72342 0.0
C524 C 0.16129 0.83069 0.74636 0.0
C525 C 0.16901 0.84232 0.80042 0.0
C526 C 0.18786 0.8205 0.83171 0.0
C527 C 0.19879 0.78783 0.81089 0.0
C528 C 0.21777 0.76881 0.85364 0.0
C529 C 0.18497 0.71495 0.86074 0.0
C530 C 0.26891 0.78101 0.84137 0.0
C531 C 0.21614 0.79622 0.9016 0.0
C532 C 0.19905 0.82608 0.88788 0.0
C533 C 0.19579 0.85628 0.92479 0.0
C534 C 0.21039 0.85601 0.97709 0.0
C535 C 0.22755 0.82539 0.99225 0.0
C536 C 0.23011 0.79488 0.95399 0.0
H537 H 0.42057 0.19351 0.30732 0.0
H538 H 0.53108 0.34205 0.31324 0.0
H539 H 0.53813 0.34244 0.21597 0.0
H540 H 0.47025 0.15849 0.19973 0.0
H541 H 0.41318 0.11864 0.17047 0.0
H542 H 0.4182 0.12954 0.24086 0.0
H543 H 0.35476 0.15531 0.23501 0.0
H544 H 0.34968 0.1447 0.16458 0.0
H545 H 0.3636 0.20212 0.19014 0.0
H546 H 0.53064 0.32788 0.11766 0.0
H547 H 0.51063 0.29866 0.0256 0.0
H548 H 0.40589 0.15928 0.08373 0.0
C549 C 0.44626 0.22613 0.2882 0.0
C550 C 0.47546 0.26767 0.31809 0.0
C551 C 0.50889 0.30951 0.29142 0.0
C552 C 0.51295 0.31022 0.23609 0.0
C553 C 0.48338 0.2688 0.20786 0.0
C554 C 0.45082 0.22747 0.23297 0.0
C555 C 0.42282 0.18802 0.19328 0.0
C556 C 0.43166 0.14621 0.20159 0.0
C557 C 0.36957 0.17159 0.19592 0.0
C558 C 0.44447 0.21377 0.14194 0.0
C559 C 0.47932 0.26032 0.15121 0.0
C560 C 0.50371 0.29135 0.10991 0.0
C561 C 0.49225 0.2743 0.0577 0.0
C562 C 0.45679 0.22655 0.04715 0.0
C563 C 0.43278 0.19608 0.09016 0.0
H564 H 0.24863 0.58276 0.11314 0.0
H565 H 0.10114 0.48006 0.08105 0.0
H566 H 0.07622 0.52437 0.14052 0.0
H567 H 0.23781 0.5999 0.24674 0.0
H568 H 0.27914 0.663 0.24775 0.0
H569 H 0.28517 0.62589 0.19904 0.0
H570 H 0.28193 0.67833 0.12432 0.0
H571 H 0.27525 0.71576 0.17225 0.0
H572 H 0.23209 0.68787 0.11978 0.0
H573 H 0.06831 0.57206 0.21412 0.0
H574 H 0.07734 0.62665 0.28773 0.0
H575 H 0.22971 0.70269 0.26585 0.0
C576 C 0.21118 0.57061 0.11763 0.0
C577 C 0.17659 0.52871 0.09236 0.0
C578 C 0.12788 0.51278 0.09958 0.0
C579 C 0.11352 0.53754 0.13336 0.0
C580 C 0.14849 0.57851 0.15859 0.0
C581 C 0.19632 0.59555 0.15023 0.0
C582 C 0.22671 0.63954 0.18337 0.0
C583 C 0.25909 0.63157 0.22148 0.0
C584 C 0.2557 0.68297 0.14783 0.0
C585 C 0.18856 0.64364 0.21309 0.0
C586 C 0.14368 0.60788 0.19851 0.0
C587 C 0.10312 0.60108 0.22476 0.0
C588 C 0.10854 0.6319 0.26663 0.0
C589 C 0.15405 0.66924 0.28119 0.0
C590 C 0.19444 0.67542 0.25387 0.0
H591 H 0.68275 0.16666 0.507 0.0
H592 H 0.63473 0.2055 0.36476 0.0
H593 H 0.57043 0.20593 0.41555 0.0
H594 H 0.56412 0.0883 0.56057 0.0
H595 H 0.58291 0.10587 0.62818 0.0
H596 H 0.62423 0.10672 0.5802 0.0
H597 H 0.68246 0.19542 0.60189 0.0
H598 H 0.6414 0.19489 0.64989 0.0
H599 H 0.66219 0.23774 0.59697 0.0
H600 H 0.5157 0.20825 0.48204 0.0
H601 H 0.47032 0.20765 0.56025 0.0
H602 H 0.55047 0.16377 0.65907 0.0
C603 C 0.65847 0.1749 0.48649 0.0
C604 C 0.66371 0.18609 0.43198 0.0
C605 C 0.6312 0.19654 0.40644 0.0
C606 C 0.59461 0.19696 0.43493 0.0
C607 C 0.59068 0.18621 0.48867 0.0
C608 C 0.62131 0.17485 0.51417 0.0
C609 C 0.60945 0.16522 0.57246 0.0
C610 C 0.59426 0.11344 0.58614 0.0
C611 C 0.65137 0.20043 0.60734 0.0
C612 C 0.56803 0.17404 0.57588 0.0
C613 C 0.55796 0.1862 0.52702 0.0
C614 C 0.52295 0.19841 0.52042 0.0
C615 C 0.49764 0.19841 0.56508 0.0
C616 C 0.50724 0.18596 0.6153 0.0
C617 C 0.54235 0.17297 0.62074 0.0
H618 H 0.39154 0.52907 0.9723 0.0
H619 H 0.25944 0.49844 0.89792 0.0
H620 H 0.30099 0.53254 0.81399 0.0
H621 H 0.45815 0.64331 0.91415 0.0
H622 H 0.51185 0.64065 0.90703 0.0
H623 H 0.47056 0.60758 0.95877 0.0
H624 H 0.46534 0.52968 0.92361 0.0
H625 H 0.50675 0.56323 0.87206 0.0
H626 H 0.44996 0.51305 0.85509 0.0
H627 H 0.35622 0.56968 0.73886 0.0
H628 H 0.4235 0.62402 0.68242 0.0
H629 H 0.5219 0.64043 0.80809 0.0
C630 C 0.37146 0.52911 0.93802 0.0
C631 C 0.32188 0.5102 0.94087 0.0
C632 C 0.29701 0.51216 0.89602 0.0
C633 C 0.32037 0.53104 0.84815 0.0
C634 C 0.3691 0.54888 0.84621 0.0
C635 C 0.39471 0.54946 0.89031 0.0
C636 C 0.44758 0.57668 0.87936 0.0
C637 C 0.47354 0.6196 0.91705 0.0
C638 C 0.46861 0.54367 0.88276 0.0
C639 C 0.44751 0.59223 0.82274 0.0
C640 C 0.40174 0.57417 0.80385 0.0
C641 C 0.39228 0.58392 0.75296 0.0
C642 C 0.43064 0.61454 0.72112 0.0
C643 C 0.47756 0.63605 0.74105 0.0
C644 C 0.48619 0.62401 0.79201 0.0
H645 H 0.7545 0.30555 0.30713 0.0
H646 H 0.89914 0.34016 0.27511 0.0
H647 H 0.90527 0.39692 0.20591 0.0
H648 H 0.72089 0.31491 0.17257 0.0
H649 H 0.68669 0.34213 0.19208 0.0
H650 H 0.69265 0.30204 0.23649 0.0
H651 H 0.72563 0.36703 0.30964 0.0
H652 H 0.71971 0.40731 0.26564 0.0
H653 H 0.77639 0.42442 0.29568 0.0
H654 H 0.89464 0.44801 0.13888 0.0
H655 H 0.87151 0.49728 0.08574 0.0
H656 H 0.73684 0.4352 0.16777 0.0
C657 C 0.78732 0.32499 0.28525 0.0
C658 C 0.82636 0.31871 0.29601 0.0
C659 C 0.86899 0.34488 0.26734 0.0
C660 C 0.87264 0.37682 0.22783 0.0
C661 C 0.83353 0.38245 0.21823 0.0
C662 C 0.79192 0.35779 0.24663 0.0
C663 C 0.75621 0.37255 0.2309 0.0
C664 C 0.71146 0.3304 0.20655 0.0
C665 C 0.74378 0.39412 0.27829 0.0
C666 C 0.78443 0.40977 0.18961 0.0
C667 C 0.82852 0.41414 0.18204 0.0
C668 C 0.86037 0.44515 0.1447 0.0
C669 C 0.84695 0.4728 0.11468 0.0
C670 C 0.80268 0.46994 0.1232 0.0
C671 C 0.77107 0.43814 0.1611 0.0
H672 H 0.3503 0.84573 0.46796 0.0
H673 H 0.29765 0.70929 0.39029 0.0
H674 H 0.357 0.69713 0.43888 0.0
H675 H 0.4779 0.87789 0.46999 0.0
H676 H 0.488 0.90656 0.53377 0.0
H677 H 0.44436 0.90593 0.48913 0.0
H678 H 0.3809 0.86782 0.56291 0.0
H679 H 0.42433 0.86766 0.60711 0.0
H680 H 0.37016 0.81298 0.59285 0.0
H681 H 0.41377 0.69533 0.50354 0.0
H682 H 0.47015 0.70665 0.57498 0.0
H683 H 0.49213 0.84753 0.60632 0.0
C684 C 0.3522 0.81386 0.46062 0.0
C685 C 0.32008 0.77841 0.4255 0.0
C686 C 0.32254 0.73678 0.41692 0.0
C687 C 0.35599 0.72967 0.44427 0.0
C688 C 0.38692 0.76494 0.47936 0.0
C689 C 0.38595 0.80659 0.48703 0.0
C690 C 0.42216 0.83797 0.5284 0.0
C691 C 0.46037 0.88486 0.50383 0.0
C692 C 0.39792 0.84712 0.5756 0.0
C693 C 0.4425 0.80673 0.54404 0.0
C694 C 0.42158 0.7648 0.51517 0.0
C695 C 0.43143 0.72855 0.52532 0.0
C696 C 0.46372 0.7354 0.56581 0.0
C697 C 0.48659 0.77846 0.59497 0.0
C698 C 0.47588 0.81464 0.58384 0.0
H699 H 0.68119 0.44087 0.97093 0.0
H700 H 0.6215 0.53376 0.98013 0.0
H701 H 0.57175 0.4942 0.9014 0.0
H702 H 0.68212 0.43162 0.82632 0.0
H703 H 0.66465 0.36955 0.82768 0.0
H704 H 0.69848 0.40796 0.88191 0.0
H705 H 0.63294 0.35139 0.94751 0.0
H706 H 0.59898 0.31326 0.8933 0.0
H707 H 0.57253 0.33753 0.93678 0.0
H708 H 0.53029 0.44653 0.81998 0.0
H709 H 0.4882 0.38286 0.75283 0.0
H710 H 0.57019 0.31757 0.80101 0.0
C711 C 0.65815 0.45328 0.95579 0.0
C712 C 0.65564 0.49076 0.98094 0.0
C713 C 0.62412 0.50523 0.96114 0.0
C714 C 0.59625 0.48351 0.91605 0.0
C715 C 0.60019 0.44728 0.89141 0.0
C716 C 0.62959 0.43156 0.9112 0.0
C717 C 0.62364 0.38883 0.88046 0.0
C718 C 0.67001 0.40018 0.85246 0.0
C719 C 0.60596 0.34517 0.91666 0.0
C720 C 0.58598 0.38272 0.84078 0.0
C721 C 0.57383 0.41757 0.84681 0.0
C722 C 0.53961 0.41914 0.81474 0.0
C723 C 0.51624 0.38325 0.77651 0.0
C724 C 0.52678 0.34621 0.77165 0.0
C725 C 0.5623 0.34619 0.8037 0.0
loop_
_geom_bond_atom_site_label_1
_geom_bond_atom_site_label_2
_geom_bond_distance
_geom_bond_site_symmetry_2
_ccdc_geom_bond_type
C0 Eu1 2.835 . S
C0 C2 1.500 . S
C0 O20 1.257 . S
C0 O21 1.260 . S
Eu1 C0 2.835 . S
Eu1 O20 2.473 . S
Eu1 O21 2.480 . S
Eu1 O22 2.430 . S
Eu1 O23 2.670 1_554 S
Eu1 O24 2.394 . S
Eu1 O29 2.355 . S
Eu1 O31 2.386 . S
C2 C0 1.500 . S
C2 C3 1.377 . S
C2 C7 1.377 . S
C3 C2 1.377 . S
C3 C4 1.395 . S
C3 H32 0.931 . S
C4 C3 1.395 . S
C4 C5 1.383 . S
C4 H33 0.931 . S
C5 C4 1.383 . S
C5 C6 1.394 . S
C6 C5 1.394 . S
C6 C7 1.378 . S
C6 H34 0.931 . S
C7 C2 1.377 . S
C7 C6 1.378 . S
C7 H35 0.931 . S
C8 O22 1.259 1_556 S
C8 O23 1.270 . S
C9 O24 1.251 . S
C9 O25 1.251 . S
C10 Eu11 2.835 . S
C10 C12 1.500 . S
C10 O26 1.257 . S
C10 O27 1.260 . S
Eu11 C10 2.835 . S
Eu11 O23 2.355 . S
Eu11 O25 2.374 1_556 S
Eu11 O26 2.473 . S
Eu11 O27 2.480 . S
Eu11 O28 2.430 . S
Eu11 O29 2.670 1_556 S
Eu11 O30 2.394 . S
C12 C10 1.500 . S
C12 C13 1.377 . S
C12 C17 1.377 . S
C13 C12 1.377 . S
C13 C14 1.395 . S
C13 H36 0.931 . S
C14 C13 1.395 . S
C14 C15 1.383 . S
C14 H37 0.931 . S
C15 C14 1.383 . S
C15 C16 1.394 . S
C16 C15 1.394 . S
C16 C17 1.378 . S
C16 H38 0.931 . S
C17 C12 1.377 . S
C17 C16 1.378 . S
C17 H39 0.931 . S
C18 O28 1.259 1_554 S
C18 O29 1.270 . S
C19 O30 1.251 . S
C19 O31 1.237 1_556 S
O20 C0 1.257 . S
O20 Eu1 2.473 . S
O21 C0 1.260 . S
O21 Eu1 2.480 . S
O22 Eu1 2.430 . S
O22 C8 1.259 1_554 S
O23 Eu1 2.670 1_556 S
O23 C8 1.270 . S
O23 Eu11 2.355 . S
O24 Eu1 2.394 . S
O24 C9 1.251 . S
O25 C9 1.251 . S
O25 Eu11 2.374 1_554 S
O26 C10 1.257 . S
O26 Eu11 2.473 . S
O27 C10 1.260 . S
O27 Eu11 2.480 . S
O28 Eu11 2.430 . S
O28 C18 1.259 1_556 S
O29 Eu1 2.355 . S
O29 Eu11 2.670 1_554 S
O29 C18 1.270 . S
O30 Eu11 2.394 . S
O30 C19 1.251 . S
O31 Eu1 2.386 . S
O31 C19 1.237 1_554 S
H32 C3 0.931 . S
H33 C4 0.931 . S
H34 C6 0.931 . S
H35 C7 0.931 . S
H36 C13 0.931 . S
H37 C14 0.931 . S
H38 C16 0.931 . S
H39 C17 0.931 . S
C40 Eu41 2.835 . S
C40 C42 1.500 . S
C40 O60 1.257 . S
C40 O61 1.260 . S
Eu41 C40 2.835 . S
Eu41 O60 2.473 . S
Eu41 O61 2.480 . S
Eu41 O62 2.430 . S
Eu41 O63 2.670 . S
Eu41 O64 2.394 . S
Eu41 O69 2.355 . S
Eu41 O71 2.374 . S
C42 C40 1.500 . S
C42 C43 1.377 . S
C42 C47 1.377 . S
C43 C42 1.377 . S
C43 C44 1.395 . S
C43 H72 0.931 . S
C44 C43 1.395 . S
C44 C45 1.383 . S
C44 H73 0.931 . S
C45 C44 1.383 . S
C45 C46 1.394 . S
C46 C45 1.394 . S
C46 C47 1.378 . S
C46 H74 0.931 . S
C47 C42 1.377 . S
C47 C46 1.378 . S
C47 H75 0.931 . S
C48 O62 1.259 . S
C48 O63 1.270 . S
C49 O64 1.251 . S
C49 O65 1.251 . S
C50 Eu51 2.835 . S
C50 C52 1.500 . S
C50 O66 1.257 . S
C50 O67 1.260 . S
Eu51 C50 2.835 . S
Eu51 O63 2.355 . S
Eu51 O65 2.374 . S
Eu51 O66 2.473 . S
Eu51 O67 2.480 . S
Eu51 O68 2.430 . S
Eu51 O69 2.670 . S
Eu51 O70 2.394 . S
C52 C50 1.500 . S
C52 C53 1.377 . S
C52 C57 1.377 . S
C53 C52 1.377 . S
C53 C54 1.395 . S
C53 H76 0.931 . S
C54 C53 1.395 . S
C54 C55 1.383 . S
C54 H77 0.931 . S
C55 C54 1.383 . S
C55 C56 1.394 . S
C56 C55 1.394 . S
C56 C57 1.378 . S
C56 H78 0.931 . S
C57 C52 1.377 . S
C57 C56 1.378 . S
C57 H79 0.931 . S
C58 O68 1.259 . S
C58 O69 1.270 . S
C59 O70 1.251 . S
C59 O71 1.251 . S
O60 C40 1.257 . S
O60 Eu41 2.473 . S
O61 C40 1.260 . S
O61 Eu41 2.480 . S
O62 Eu41 2.430 . S
O62 C48 1.259 . S
O63 Eu41 2.670 . S
O63 C48 1.270 . S
O63 Eu51 2.355 . S
O64 Eu41 2.394 . S
O64 C49 1.251 . S
O65 C49 1.251 . S
O65 Eu51 2.374 . S
O66 C50 1.257 . S
O66 Eu51 2.473 . S
O67 C50 1.260 . S
O67 Eu51 2.480 . S
O68 Eu51 2.430 . S
O68 C58 1.259 . S
O69 Eu41 2.355 . S
O69 Eu51 2.670 . S
O69 C58 1.270 . S
O70 Eu51 2.394 . S
O70 C59 1.251 . S
O71 Eu41 2.374 . S
O71 C59 1.251 . S
H72 C43 0.931 . S
H73 C44 0.931 . S
H74 C46 0.931 . S
H75 C47 0.931 . S
H76 C53 0.931 . S
H77 C54 0.931 . S
H78 C56 0.931 . S
H79 C57 0.931 . S
C80 Eu81 2.835 . S
C80 C82 1.500 . S
C80 O100 1.257 . S
C80 O101 1.260 . S
Eu81 C80 2.835 . S
Eu81 O100 2.473 . S
Eu81 O101 2.480 . S
Eu81 O102 2.430 . S
Eu81 O103 2.670 . S
Eu81 O104 2.394 . S
Eu81 O109 2.355 . S
Eu81 O111 2.374 . S
C82 C80 1.500 . S
C82 C83 1.377 . S
C82 C87 1.377 . S
C83 C82 1.377 . S
C83 C84 1.395 . S
C83 H112 0.931 . S
C84 C83 1.395 . S
C84 C85 1.383 1_556 S
C84 H113 0.931 . S
C85 C84 1.383 1_554 S
C85 C86 1.394 1_554 S
C86 C85 1.394 1_556 S
C86 C87 1.378 . S
C86 H114 0.931 1_556 S
C87 C82 1.377 . S
C87 C86 1.378 . S
C87 H115 0.931 . S
C88 O102 1.259 . S
C88 O103 1.270 . S
C89 O104 1.251 . S
C89 O105 1.251 . S
C90 Eu91 2.835 . S
C90 C92 1.500 . S
C90 O106 1.257 . S
C90 O107 1.260 . S
Eu91 C90 2.835 . S
Eu91 O103 2.355 . S
Eu91 O105 2.374 . S
Eu91 O106 2.473 . S
Eu91 O107 2.480 . S
Eu91 O108 2.430 . S
Eu91 O109 2.670 . S
Eu91 O110 2.394 . S
C92 C90 1.500 . S
C92 C93 1.377 . S
C92 C97 1.377 . S
C93 C92 1.377 . S
C93 C94 1.395 . S
C93 H116 0.931 . S
C94 C93 1.395 . S
C94 C95 1.383 . S
C94 H117 0.931 . S
C95 C94 1.383 . S
C95 C96 1.394 . S
C96 C95 1.394 . S
C96 C97 1.378 . S
C96 H118 0.931 . S
C97 C92 1.377 . S
C97 C96 1.378 . S
C97 H119 0.931 . S
C98 O108 1.259 . S
C98 O109 1.270 . S
C99 O110 1.251 . S
C99 O111 1.251 . S
O100 C80 1.257 . S
O100 Eu81 2.473 . S
O101 C80 1.260 . S
O101 Eu81 2.480 . S
O102 Eu81 2.430 . S
O102 C88 1.259 . S
O103 Eu81 2.670 . S
O103 C88 1.270 . S
O103 Eu91 2.355 . S
O104 Eu81 2.394 . S
O104 C89 1.251 . S
O105 C89 1.251 . S
O105 Eu91 2.374 . S
O106 C90 1.257 . S
O106 Eu91 2.473 . S
O107 C90 1.260 . S
O107 Eu91 2.480 . S
O108 Eu91 2.430 . S
O108 C98 1.259 . S
O109 Eu81 2.355 . S
O109 Eu91 2.670 . S
O109 C98 1.270 . S
O110 Eu91 2.394 . S
O110 C99 1.251 . S
O111 Eu81 2.374 . S
O111 C99 1.251 . S
H112 C83 0.931 . S
H113 C84 0.931 . S
H114 C86 0.931 1_554 S
H115 C87 0.931 . S
H116 C93 0.931 . S
H117 C94 0.931 . S
H118 C96 0.931 . S
H119 C97 0.931 . S
C120 Eu121 2.835 . S
C120 C122 1.500 . S
C120 O140 1.257 . S
C120 O141 1.260 . S
Eu121 C120 2.835 . S
Eu121 O140 2.473 . S
Eu121 O141 2.480 . S
Eu121 O142 2.430 . S
Eu121 O143 2.670 1_554 S
Eu121 O144 2.394 . S
Eu121 O149 2.355 . S
Eu121 O151 2.386 . S
C122 C120 1.500 . S
C122 C123 1.377 . S
C122 C127 1.377 . S
C123 C122 1.377 . S
C123 C124 1.395 . S
C123 H152 0.931 . S
C124 C123 1.395 . S
C124 C125 1.383 . S
C124 H153 0.931 . S
C125 C124 1.383 . S
C125 C126 1.394 . S
C126 C125 1.394 . S
C126 C127 1.378 . S
C126 H154 0.931 . S
C127 C122 1.377 . S
C127 C126 1.378 . S
C127 H155 0.931 . S
C128 O142 1.259 1_556 S
C128 O143 1.270 . S
C129 O144 1.251 . S
C129 O145 1.251 . S
C130 Eu131 2.835 . S
C130 C132 1.500 . S
C130 O146 1.257 . S
C130 O147 1.260 . S
Eu131 C130 2.835 . S
Eu131 O143 2.355 . S
Eu131 O145 2.374 1_556 S
Eu131 O146 2.473 . S
Eu131 O147 2.480 . S
Eu131 O148 2.430 . S
Eu131 O149 2.670 1_556 S
Eu131 O150 2.394 . S
C132 C130 1.500 . S
C132 C133 1.377 . S
C132 C137 1.377 . S
C133 C132 1.377 . S
C133 C134 1.395 . S
C133 H156 0.931 . S
C134 C133 1.395 . S
C134 C135 1.383 . S
C134 H157 0.931 . S
C135 C134 1.383 . S
C135 C136 1.394 . S
C136 C135 1.394 . S
C136 C137 1.378 . S
C136 H158 0.931 . S
C137 C132 1.377 . S
C137 C136 1.378 . S
C137 H159 0.931 . S
C138 O148 1.259 1_554 S
C138 O149 1.270 . S
C139 O150 1.251 . S
C139 O151 1.237 1_556 S
O140 C120 1.257 . S
O140 Eu121 2.473 . S
O141 C120 1.260 . S
O141 Eu121 2.480 . S
O142 Eu121 2.430 . S
O142 C128 1.259 1_554 S
O143 Eu121 2.670 1_556 S
O143 C128 1.270 . S
O143 Eu131 2.355 . S
O144 Eu121 2.394 . S
O144 C129 1.251 . S
O145 C129 1.251 . S
O145 Eu131 2.374 1_554 S
O146 C130 1.257 . S
O146 Eu131 2.473 . S
O147 C130 1.260 . S
O147 Eu131 2.480 . S
O148 Eu131 2.430 . S
O148 C138 1.259 1_556 S
O149 Eu121 2.355 . S
O149 Eu131 2.670 1_554 S
O149 C138 1.270 . S
O150 Eu131 2.394 . S
O150 C139 1.251 . S
O151 Eu121 2.386 . S
O151 C139 1.237 1_554 S
H152 C123 0.931 . S
H153 C124 0.931 . S
H154 C126 0.931 . S
H155 C127 0.931 . S
H156 C133 0.931 . S
H157 C134 0.931 . S
H158 C136 0.931 . S
H159 C137 0.931 . S
C160 Eu161 2.835 . S
C160 C162 1.500 . S
C160 O180 1.257 . S
C160 O181 1.260 . S
Eu161 C160 2.835 . S
Eu161 O180 2.473 . S
Eu161 O181 2.480 . S
Eu161 O182 2.430 . S
Eu161 O183 2.670 . S
Eu161 O184 2.394 . S
Eu161 O189 2.355 . S
Eu161 O191 2.374 . S
C162 C160 1.500 . S
C162 C163 1.377 . S
C162 C167 1.377 . S
C163 C162 1.377 . S
C163 C164 1.395 . S
C163 H192 0.931 . S
C164 C163 1.395 . S
C164 C165 1.383 . S
C164 H193 0.931 . S
C165 C164 1.383 . S
C165 C166 1.394 . S
C166 C165 1.394 . S
C166 C167 1.378 . S
C166 H194 0.931 . S
C167 C162 1.377 . S
C167 C166 1.378 . S
C167 H195 0.931 . S
C168 O182 1.259 . S
C168 O183 1.270 . S
C169 O184 1.251 . S
C169 O185 1.251 . S
C170 Eu171 2.835 . S
C170 C172 1.500 . S
C170 O186 1.257 . S
C170 O187 1.260 . S
Eu171 C170 2.835 . S
Eu171 O183 2.355 . S
Eu171 O185 2.374 . S
Eu171 O186 2.473 . S
Eu171 O187 2.480 . S
Eu171 O188 2.430 . S
Eu171 O189 2.670 . S
Eu171 O190 2.394 . S
C172 C170 1.500 . S
C172 C173 1.377 . S
C172 C177 1.377 . S
C173 C172 1.377 . S
C173 C174 1.395 . S
C173 H196 0.931 . S
C174 C173 1.395 . S
C174 C175 1.383 . S
C174 H197 0.931 . S
C175 C174 1.383 . S
C175 C176 1.394 . S
C176 C175 1.394 . S
C176 C177 1.378 . S
C176 H198 0.931 . S
C177 C172 1.377 . S
C177 C176 1.378 . S
C177 H199 0.931 . S
C178 O188 1.259 . S
C178 O189 1.270 . S
C179 O190 1.251 . S
C179 O191 1.251 . S
O180 C160 1.257 . S
O180 Eu161 2.473 . S
O181 C160 1.260 . S
O181 Eu161 2.480 . S
O182 Eu161 2.430 . S
O182 C168 1.259 . S
O183 Eu161 2.670 . S
O183 C168 1.270 . S
O183 Eu171 2.355 . S
O184 Eu161 2.394 . S
O184 C169 1.251 . S
O185 C169 1.251 . S
O185 Eu171 2.374 . S
O186 C170 1.257 . S
O186 Eu171 2.473 . S
O187 C170 1.260 . S
O187 Eu171 2.480 . S
O188 Eu171 2.430 . S
O188 C178 1.259 . S
O189 Eu161 2.355 . S
O189 Eu171 2.670 . S
O189 C178 1.270 . S
O190 Eu171 2.394 . S
O190 C179 1.251 . S
O191 Eu161 2.374 . S
O191 C179 1.251 . S
H192 C163 0.931 . S
H193 C164 0.931 . S
H194 C166 0.931 . S
H195 C167 0.931 . S
H196 C173 0.931 . S
H197 C174 0.931 . S
H198 C176 0.931 . S
H199 C177 0.931 . S
C200 Eu201 2.835 . S
C200 C202 1.500 . S
C200 O220 1.257 . S
C200 O221 1.260 . S
Eu201 C200 2.835 . S
Eu201 O220 2.473 . S
Eu201 O221 2.480 . S
Eu201 O222 2.430 . S
Eu201 O223 2.670 . S
Eu201 O224 2.394 . S
Eu201 O229 2.355 . S
Eu201 O231 2.374 . S
C202 C200 1.500 . S
C202 C203 1.377 . S
C202 C207 1.377 . S
C203 C202 1.377 . S
C203 C204 1.395 . S
C203 H232 0.931 . S
C204 C203 1.395 . S
C204 C205 1.383 1_556 S
C204 H233 0.931 . S
C205 C204 1.383 1_554 S
C205 C206 1.394 1_554 S
C206 C205 1.394 1_556 S
C206 C207 1.378 . S
C206 H234 0.931 1_556 S
C207 C202 1.377 . S
C207 C206 1.378 . S
C207 H235 0.931 . S
C208 O222 1.259 . S
C208 O223 1.270 . S
C209 O224 1.251 . S
C209 O225 1.251 . S
C210 Eu211 2.835 . S
C210 C212 1.500 . S
C210 O226 1.257 . S
C210 O227 1.260 . S
Eu211 C210 2.835 . S
Eu211 O223 2.355 . S
Eu211 O225 2.374 . S
Eu211 O226 2.473 . S
Eu211 O227 2.480 . S
Eu211 O228 2.430 . S
Eu211 O229 2.670 . S
Eu211 O230 2.394 . S
C212 C210 1.500 . S
C212 C213 1.377 . S
C212 C217 1.377 . S
C213 C212 1.377 . S
C213 C214 1.395 . S
C213 H236 0.931 . S
C214 C213 1.395 . S
C214 C215 1.383 . S
C214 H237 0.931 . S
C215 C214 1.383 . S
C215 C216 1.394 . S
C216 C215 1.394 . S
C216 C217 1.378 . S
C216 H238 0.931 . S
C217 C212 1.377 . S
C217 C216 1.378 . S
C217 H239 0.931 . S
C218 O228 1.259 . S
C218 O229 1.270 . S
C219 O230 1.251 . S
C219 O231 1.251 . S
O220 C200 1.257 . S
O220 Eu201 2.473 . S
O221 C200 1.260 . S
O221 Eu201 2.480 . S
O222 Eu201 2.430 . S
O222 C208 1.259 . S
O223 Eu201 2.670 . S
O223 C208 1.270 . S
O223 Eu211 2.355 . S
O224 Eu201 2.394 . S
O224 C209 1.251 . S
O225 C209 1.251 . S
O225 Eu211 2.374 . S
O226 C210 1.257 . S
O226 Eu211 2.473 . S
O227 C210 1.260 . S
O227 Eu211 2.480 . S
O228 Eu211 2.430 . S
O228 C218 1.259 . S
O229 Eu201 2.355 . S
O229 Eu211 2.670 . S
O229 C218 1.270 . S
O230 Eu211 2.394 . S
O230 C219 1.251 . S
O231 Eu201 2.374 . S
O231 C219 1.251 . S
H232 C203 0.931 . S
H233 C204 0.931 . S
H234 C206 0.931 1_554 S
H235 C207 0.931 . S
H236 C213 0.931 . S
H237 C214 0.931 . S
H238 C216 0.931 . S
H239 C217 0.931 . S
H240 C252 0.930 . S
H241 C254 0.930 . S
H242 C255 0.930 . S
H243 C259 0.959 . S
H244 C259 0.959 . S
H245 C259 0.961 . S
H246 C260 0.960 . S
H247 C260 0.961 . S
H248 C260 0.959 . S
H249 C263 0.929 . S
H250 C264 0.931 . S
H251 C266 0.930 . S
C252 H240 0.930 . S
C252 C253 1.399 . S
C252 C257 1.399 . S
C253 C252 1.399 . S
C253 C254 1.376 . S
C254 H241 0.930 . S
C254 C253 1.376 . S
C254 C255 1.388 . S
C255 H242 0.930 . S
C255 C254 1.388 . S
C255 C256 1.390 . S
C256 C255 1.390 . S
C256 C257 1.394 . S
C256 C262 1.465 . S
C257 C252 1.399 . S
C257 C256 1.394 . S
C257 C258 1.516 . S
C258 C257 1.516 . S
C258 C259 1.502 . S
C258 C260 1.561 . S
C258 C261 1.526 . S
C259 H243 0.959 . S
C259 H244 0.959 . S
C259 H245 0.961 . S
C259 C258 1.502 . S
C260 H246 0.960 . S
C260 H247 0.961 . S
C260 H248 0.959 . S
C260 C258 1.561 . S
C261 C258 1.526 . S
C261 C262 1.396 . S
C261 C266 1.390 . S
C262 C256 1.465 . S
C262 C261 1.396 . S
C262 C263 1.399 . S
C263 H249 0.929 . S
C263 C262 1.399 . S
C263 C264 1.385 . S
C264 H250 0.931 . S
C264 C263 1.385 . S
C264 C265 1.389 . S
C265 C264 1.389 . S
C265 C266 1.387 . S
C266 H251 0.930 . S
C266 C261 1.390 . S
C266 C265 1.387 . S
H267 C279 0.930 . S
H268 C281 0.930 . S
H269 C282 0.930 . S
H270 C286 0.959 . S
H271 C286 0.959 . S
H272 C286 0.961 . S
H273 C287 0.960 . S
H274 C287 0.961 . S
H275 C287 0.959 . S
H276 C290 0.929 1_455 S
H277 C291 0.931 . S
H278 C293 0.930 . S
C279 H267 0.930 . S
C279 C280 1.399 . S
C279 C284 1.399 . S
C280 C279 1.399 . S
C280 C281 1.376 . S
C281 H268 0.930 . S
C281 C280 1.376 . S
C281 C282 1.388 . S
C282 H269 0.930 . S
C282 C281 1.388 . S
C282 C283 1.390 . S
C283 C282 1.390 . S
C283 C284 1.394 . S
C283 C289 1.465 1_455 S
C284 C279 1.399 . S
C284 C283 1.394 . S
C284 C285 1.516 1_455 S
C285 C284 1.516 1_655 S
C285 C286 1.502 . S
C285 C287 1.561 . S
C285 C288 1.526 . S
C286 H270 0.959 . S
C286 H271 0.959 . S
C286 H272 0.961 . S
C286 C285 1.502 . S
C287 H273 0.960 . S
C287 H274 0.961 . S
C287 H275 0.959 . S
C287 C285 1.561 . S
C288 C285 1.526 . S
C288 C289 1.396 . S
C288 C293 1.390 . S
C289 C283 1.465 1_655 S
C289 C288 1.396 . S
C289 C290 1.399 . S
C290 H276 0.929 1_655 S
C290 C289 1.399 . S
C290 C291 1.385 . S
C291 H277 0.931 . S
C291 C290 1.385 . S
C291 C292 1.389 . S
C292 C291 1.389 . S
C292 C293 1.387 . S
C293 H278 0.930 . S
C293 C288 1.390 . S
C293 C292 1.387 . S
H294 C306 0.930 . S
H295 C308 0.930 . S
H296 C309 0.930 . S
H297 C313 0.959 . S
H298 C313 0.959 . S
H299 C313 0.961 . S
H300 C314 0.960 . S
H301 C314 0.961 . S
H302 C314 0.959 . S
H303 C317 0.929 1_545 S
H304 C318 0.931 . S
H305 C320 0.930 . S
C306 H294 0.930 . S
C306 C307 1.399 . S
C306 C311 1.399 . S
C307 C306 1.399 . S
C307 C308 1.376 . S
C308 H295 0.930 . S
C308 C307 1.376 . S
C308 C309 1.388 . S
C309 H296 0.930 . S
C309 C308 1.388 . S
C309 C310 1.390 . S
C310 C309 1.390 . S
C310 C311 1.394 . S
C310 C316 1.465 1_545 S
C311 C306 1.399 . S
C311 C310 1.394 . S
C311 C312 1.516 1_545 S
C312 C311 1.516 1_565 S
C312 C313 1.502 . S
C312 C314 1.561 . S
C312 C315 1.526 . S
C313 H297 0.959 . S
C313 H298 0.959 . S
C313 H299 0.961 . S
C313 C312 1.502 . S
C314 H300 0.960 . S
C314 H301 0.961 . S
C314 H302 0.959 . S
C314 C312 1.561 . S
C315 C312 1.526 . S
C315 C316 1.396 . S
C315 C320 1.390 . S
C316 C310 1.465 1_565 S
C316 C315 1.396 . S
C316 C317 1.399 . S
C317 H303 0.929 1_565 S
C317 C316 1.399 . S
C317 C318 1.385 . S
C318 H304 0.931 . S
C318 C317 1.385 . S
C318 C319 1.389 . S
C319 C318 1.389 . S
C319 C320 1.387 . S
C320 H305 0.930 . S
C320 C315 1.390 . S
C320 C319 1.387 . S
H321 C333 0.930 . S
H322 C335 0.930 . S
H323 C336 0.930 . S
H324 C340 0.959 . S
H325 C340 0.959 . S
H326 C340 0.961 . S
H327 C341 0.960 . S
H328 C341 0.961 . S
H329 C341 0.959 . S
H330 C344 0.929 . S
H331 C345 0.931 . S
H332 C347 0.930 . S
C333 H321 0.930 . S
C333 C334 1.399 . S
C333 C338 1.399 . S
C334 C333 1.399 . S
C334 C335 1.376 . S
C335 H322 0.930 . S
C335 C334 1.376 . S
C335 C336 1.388 . S
C336 H323 0.930 . S
C336 C335 1.388 . S
C336 C337 1.390 . S
C337 C336 1.390 . S
C337 C338 1.394 . S
C337 C343 1.465 . S
C338 C333 1.399 . S
C338 C337 1.394 . S
C338 C339 1.516 . S
C339 C338 1.516 . S
C339 C340 1.502 . S
C339 C341 1.561 . S
C339 C342 1.526 . S
C340 H324 0.959 . S
C340 H325 0.959 . S
C340 H326 0.961 . S
C340 C339 1.502 . S
C341 H327 0.960 . S
C341 H328 0.961 . S
C341 H329 0.959 . S
C341 C339 1.561 . S
C342 C339 1.526 . S
C342 C343 1.396 . S
C342 C347 1.390 . S
C343 C337 1.465 . S
C343 C342 1.396 . S
C343 C344 1.399 . S
C344 H330 0.929 . S
C344 C343 1.399 . S
C344 C345 1.385 . S
C345 H331 0.931 . S
C345 C344 1.385 . S
C345 C346 1.389 . S
C346 C345 1.389 . S
C346 C347 1.387 . S
C347 H332 0.930 . S
C347 C342 1.390 . S
C347 C346 1.387 . S
H348 C360 0.930 . S
H349 C362 0.930 . S
H350 C363 0.930 . S
H351 C367 0.959 . S
H352 C367 0.959 1_655 S
H353 C367 0.961 . S
H354 C368 0.960 . S
H355 C368 0.961 . S
H356 C368 0.959 . S
H357 C371 0.929 . S
H358 C372 0.931 . S
H359 C374 0.930 . S
C360 H348 0.930 . S
C360 C361 1.399 . S
C360 C365 1.399 . S
C361 C360 1.399 . S
C361 C362 1.376 . S
C362 H349 0.930 . S
C362 C361 1.376 . S
C362 C363 1.388 . S
C363 H350 0.930 . S
C363 C362 1.388 . S
C363 C364 1.390 . S
C364 C363 1.390 . S
C364 C365 1.394 . S
C364 C370 1.465 1_455 S
C365 C360 1.399 . S
C365 C364 1.394 . S
C365 C366 1.516 1_455 S
C366 C365 1.516 1_655 S
C366 C367 1.502 1_655 S
C366 C368 1.561 . S
C366 C369 1.526 . S
C367 H351 0.959 . S
C367 H352 0.959 1_455 S
C367 H353 0.961 . S
C367 C366 1.502 1_455 S
C368 H354 0.960 . S
C368 H355 0.961 . S
C368 H356 0.959 . S
C368 C366 1.561 . S
C369 C366 1.526 . S
C369 C370 1.396 . S
C369 C374 1.390 . S
C370 C364 1.465 1_655 S
C370 C369 1.396 . S
C370 C371 1.399 . S
C371 H357 0.929 . S
C371 C370 1.399 . S
C371 C372 1.385 . S
C372 H358 0.931 . S
C372 C371 1.385 . S
C372 C373 1.389 . S
C373 C372 1.389 . S
C373 C374 1.387 . S
C374 H359 0.930 . S
C374 C369 1.390 . S
C374 C373 1.387 . S
H375 C387 0.930 . S
H376 C389 0.930 . S
H377 C390 0.930 . S
H378 C394 0.959 . S
H379 C394 0.959 . S
H380 C394 0.961 . S
H381 C395 0.960 . S
H382 C395 0.961 . S
H383 C395 0.959 . S
H384 C398 0.929 . S
H385 C399 0.931 . S
H386 C401 0.930 . S
C387 H375 0.930 . S
C387 C388 1.399 . S
C387 C392 1.399 . S
C388 C387 1.399 . S
C388 C389 1.376 . S
C389 H376 0.930 . S
C389 C388 1.376 . S
C389 C390 1.388 . S
C390 H377 0.930 . S
C390 C389 1.388 . S
C390 C391 1.390 . S
C391 C390 1.390 . S
C391 C392 1.394 . S
C391 C397 1.465 1_545 S
C392 C387 1.399 . S
C392 C391 1.394 . S
C392 C393 1.511 1_545 S
C393 C392 1.511 1_565 S
C393 C394 1.507 . S
C393 C395 1.542 1_565 S
C393 C396 1.545 . S
C394 H378 0.959 . S
C394 H379 0.959 . S
C394 H380 0.961 . S
C394 C393 1.507 . S
C395 H381 0.960 . S
C395 H382 0.961 . S
C395 H383 0.959 . S
C395 C393 1.542 1_545 S
C396 C393 1.545 . S
C396 C397 1.396 . S
C396 C401 1.390 . S
C397 C391 1.465 1_565 S
C397 C396 1.396 . S
C397 C398 1.399 . S
C398 H384 0.929 . S
C398 C397 1.399 . S
C398 C399 1.385 . S
C399 H385 0.931 . S
C399 C398 1.385 . S
C399 C400 1.389 . S
C400 C399 1.389 . S
C400 C401 1.387 . S
C401 H386 0.930 . S
C401 C396 1.390 . S
C401 C400 1.387 . S
H402 C414 0.930 . S
H403 C416 0.930 . S
H404 C417 0.930 . S
H405 C421 0.959 . S
H406 C421 0.959 . S
H407 C421 0.961 . S
H408 C422 0.960 . S
H409 C422 0.961 . S
H410 C422 0.959 . S
H411 C425 0.929 . S
H412 C426 0.931 . S
H413 C428 0.930 . S
C414 H402 0.930 . S
C414 C415 1.399 . S
C414 C419 1.399 . S
C415 C414 1.399 . S
C415 C416 1.376 . S
C416 H403 0.930 . S
C416 C415 1.376 . S
C416 C417 1.388 . S
C417 H404 0.930 . S
C417 C416 1.388 . S
C417 C418 1.390 . S
C418 C417 1.390 . S
C418 C419 1.394 . S
C418 C424 1.465 . S
C419 C414 1.399 . S
C419 C418 1.394 . S
C419 C420 1.516 . S
C420 C419 1.516 . S
C420 C421 1.502 . S
C420 C422 1.561 . S
C420 C423 1.526 . S
C421 H405 0.959 . S
C421 H406 0.959 . S
C421 H407 0.961 . S
C421 C420 1.502 . S
C422 H408 0.960 . S
C422 H409 0.961 . S
C422 H410 0.959 . S
C422 C420 1.561 . S
C423 C420 1.526 . S
C423 C424 1.396 . S
C423 C428 1.390 . S
C424 C418 1.465 . S
C424 C423 1.396 . S
C424 C425 1.399 . S
C425 H411 0.929 . S
C425 C424 1.399 . S
C425 C426 1.385 . S
C426 H412 0.931 . S
C426 C425 1.385 . S
C426 C427 1.389 . S
C427 C426 1.389 . S
C427 C428 1.387 . S
C428 H413 0.930 . S
C428 C423 1.390 . S
C428 C427 1.387 . S
H429 C441 0.930 . S
H430 C443 0.930 1_554 S
H431 C444 0.930 . S
H432 C448 0.959 . S
H433 C448 0.959 . S
H434 C448 0.961 . S
H435 C449 0.960 . S
H436 C449 0.961 . S
H437 C449 0.959 . S
H438 C452 0.929 . S
H439 C453 0.931 . S
H440 C455 0.930 . S
C441 H429 0.930 . S
C441 C442 1.399 . S
C441 C446 1.399 . S
C442 C441 1.399 . S
C442 C443 1.376 . S
C443 H430 0.930 1_556 S
C443 C442 1.376 . S
C443 C444 1.388 . S
C444 H431 0.930 . S
C444 C443 1.388 . S
C444 C445 1.390 . S
C445 C444 1.390 . S
C445 C446 1.394 . S
C445 C451 1.465 . S
C446 C441 1.399 . S
C446 C445 1.394 . S
C446 C447 1.516 . S
C447 C446 1.516 . S
C447 C448 1.502 . S
C447 C449 1.561 . S
C447 C450 1.526 . S
C448 H432 0.959 . S
C448 H433 0.959 . S
C448 H434 0.961 . S
C448 C447 1.502 . S
C449 H435 0.960 . S
C449 H436 0.961 . S
C449 H437 0.959 . S
C449 C447 1.561 . S
C450 C447 1.526 . S
C450 C451 1.396 . S
C450 C455 1.390 . S
C451 C445 1.465 . S
C451 C450 1.396 . S
C451 C452 1.399 . S
C452 H438 0.929 . S
C452 C451 1.399 . S
C452 C453 1.385 . S
C453 H439 0.931 . S
C453 C452 1.385 . S
C453 C454 1.389 . S
C454 C453 1.389 . S
C454 C455 1.387 . S
C455 H440 0.930 . S
C455 C450 1.390 . S
C455 C454 1.387 . S
H456 C468 0.930 . S
H457 C470 0.930 . S
H458 C471 0.930 . S
H459 C475 0.959 . S
H460 C475 0.959 . S
H461 C475 0.961 . S
H462 C476 0.960 . S
H463 C476 0.961 . S
H464 C476 0.959 . S
H465 C479 0.929 . S
H466 C480 0.931 . S
H467 C482 0.930 . S
C468 H456 0.930 . S
C468 C469 1.399 . S
C468 C473 1.399 . S
C469 C468 1.399 . S
C469 C470 1.376 . S
C470 H457 0.930 . S
C470 C469 1.376 . S
C470 C471 1.388 . S
C471 H458 0.930 . S
C471 C470 1.388 . S
C471 C472 1.390 . S
C472 C471 1.390 . S
C472 C473 1.394 . S
C472 C478 1.465 . S
C473 C468 1.399 . S
C473 C472 1.394 . S
C473 C474 1.516 . S
C474 C473 1.516 . S
C474 C475 1.502 . S
C474 C476 1.561 . S
C474 C477 1.526 . S
C475 H459 0.959 . S
C475 H460 0.959 . S
C475 H461 0.961 . S
C475 C474 1.502 . S
C476 H462 0.960 . S
C476 H463 0.961 . S
C476 H464 0.959 . S
C476 C474 1.561 . S
C477 C474 1.526 . S
C477 C478 1.396 . S
C477 C482 1.390 . S
C478 C472 1.465 . S
C478 C477 1.396 . S
C478 C479 1.399 . S
C479 H465 0.929 . S
C479 C478 1.399 . S
C479 C480 1.385 . S
C480 H466 0.931 . S
C480 C479 1.385 . S
C480 C481 1.389 . S
C481 C480 1.389 . S
C481 C482 1.387 . S
C482 H467 0.930 . S
C482 C477 1.390 . S
C482 C481 1.387 . S
H483 C495 0.930 . S
H484 C497 0.930 . S
H485 C498 0.930 . S
H486 C502 0.959 . S
H487 C502 0.959 . S
H488 C502 0.961 . S
H489 C503 0.960 . S
H490 C503 0.961 . S
H491 C503 0.959 . S
H492 C506 0.929 . S
H493 C507 0.931 . S
H494 C509 0.930 . S
C495 H483 0.930 . S
C495 C496 1.399 . S
C495 C500 1.399 . S
C496 C495 1.399 . S
C496 C497 1.376 . S
C497 H484 0.930 . S
C497 C496 1.376 . S
C497 C498 1.388 . S
C498 H485 0.930 . S
C498 C497 1.388 . S
C498 C499 1.390 . S
C499 C498 1.390 . S
C499 C500 1.394 . S
C499 C505 1.465 . S
C500 C495 1.399 . S
C500 C499 1.394 . S
C500 C501 1.516 . S
C501 C500 1.516 . S
C501 C502 1.502 . S
C501 C503 1.561 . S
C501 C504 1.526 . S
C502 H486 0.959 . S
C502 H487 0.959 . S
C502 H488 0.961 . S
C502 C501 1.502 . S
C503 H489 0.960 . S
C503 H490 0.961 . S
C503 H491 0.959 . S
C503 C501 1.561 . S
C504 C501 1.526 . S
C504 C505 1.396 . S
C504 C509 1.390 . S
C505 C499 1.465 . S
C505 C504 1.396 . S
C505 C506 1.399 . S
C506 H492 0.929 . S
C506 C505 1.399 . S
C506 C507 1.385 . S
C507 H493 0.931 . S
C507 C506 1.385 . S
C507 C508 1.389 . S
C508 C507 1.389 . S
C508 C509 1.387 . S
C509 H494 0.930 . S
C509 C504 1.390 . S
C509 C508 1.387 . S
H510 C522 0.930 . S
H511 C524 0.930 . S
H512 C525 0.930 . S
H513 C529 0.959 . S
H514 C529 0.959 . S
H515 C529 0.961 . S
H516 C530 0.960 . S
H517 C530 0.961 . S
H518 C530 0.959 . S
H519 C533 0.929 . S
H520 C534 0.931 . S
H521 C536 0.930 . S
C522 H510 0.930 . S
C522 C523 1.399 . S
C522 C527 1.399 . S
C523 C522 1.399 . S
C523 C524 1.376 . S
C524 H511 0.930 . S
C524 C523 1.376 . S
C524 C525 1.388 . S
C525 H512 0.930 . S
C525 C524 1.388 . S
C525 C526 1.390 . S
C526 C525 1.390 . S
C526 C527 1.394 . S
C526 C532 1.465 . S
C527 C522 1.399 . S
C527 C526 1.394 . S
C527 C528 1.516 . S
C528 C527 1.516 . S
C528 C529 1.502 . S
C528 C530 1.561 . S
C528 C531 1.526 . S
C529 H513 0.959 . S
C529 H514 0.959 . S
C529 H515 0.961 . S
C529 C528 1.502 . S
C530 H516 0.960 . S
C530 H517 0.961 . S
C530 H518 0.959 . S
C530 C528 1.561 . S
C531 C528 1.526 . S
C531 C532 1.396 . S
C531 C536 1.390 . S
C532 C526 1.465 . S
C532 C531 1.396 . S
C532 C533 1.399 . S
C533 H519 0.929 . S
C533 C532 1.399 . S
C533 C534 1.385 . S
C534 H520 0.931 . S
C534 C533 1.385 . S
C534 C535 1.389 . S
C535 C534 1.389 . S
C535 C536 1.387 . S
C536 H521 0.930 . S
C536 C531 1.390 . S
C536 C535 1.387 . S
H537 C549 0.930 . S
H538 C551 0.930 . S
H539 C552 0.930 . S
H540 C556 0.959 . S
H541 C556 0.959 . S
H542 C556 0.961 . S
H543 C557 0.960 . S
H544 C557 0.961 . S
H545 C557 0.959 . S
H546 C560 0.929 . S
H547 C561 0.931 . S
H548 C563 0.930 . S
C549 H537 0.930 . S
C549 C550 1.399 . S
C549 C554 1.399 . S
C550 C549 1.399 . S
C550 C551 1.376 . S
C551 H538 0.930 . S
C551 C550 1.376 . S
C551 C552 1.388 . S
C552 H539 0.930 . S
C552 C551 1.388 . S
C552 C553 1.390 . S
C553 C552 1.390 . S
C553 C554 1.394 . S
C553 C559 1.465 . S
C554 C549 1.399 . S
C554 C553 1.394 . S
C554 C555 1.516 . S
C555 C554 1.516 . S
C555 C556 1.502 . S
C555 C557 1.561 . S
C555 C558 1.526 . S
C556 H540 0.959 . S
C556 H541 0.959 . S
C556 H542 0.961 . S
C556 C555 1.502 . S
C557 H543 0.960 . S
C557 H544 0.961 . S
C557 H545 0.959 . S
C557 C555 1.561 . S
C558 C555 1.526 . S
C558 C559 1.396 . S
C558 C563 1.390 . S
C559 C553 1.465 . S
C559 C558 1.396 . S
C559 C560 1.399 . S
C560 H546 0.929 . S
C560 C559 1.399 . S
C560 C561 1.385 . S
C561 H547 0.931 . S
C561 C560 1.385 . S
C561 C562 1.389 . S
C562 C561 1.389 . S
C562 C563 1.387 . S
C563 H548 0.930 . S
C563 C558 1.390 . S
C563 C562 1.387 . S
H564 C576 0.930 . S
H565 C578 0.930 . S
H566 C579 0.930 . S
H567 C583 0.959 . S
H568 C583 0.959 . S
H569 C583 0.961 . S
H570 C584 0.960 . S
H571 C584 0.961 . S
H572 C584 0.959 . S
H573 C587 0.929 . S
H574 C588 0.931 . S
H575 C590 0.930 . S
C576 H564 0.930 . S
C576 C577 1.399 . S
C576 C581 1.399 . S
C577 C576 1.399 . S
C577 C578 1.376 . S
C578 H565 0.930 . S
C578 C577 1.376 . S
C578 C579 1.388 . S
C579 H566 0.930 . S
C579 C578 1.388 . S
C579 C580 1.390 . S
C580 C579 1.390 . S
C580 C581 1.394 . S
C580 C586 1.465 . S
C581 C576 1.399 . S
C581 C580 1.394 . S
C581 C582 1.516 . S
C582 C581 1.516 . S
C582 C583 1.502 . S
C582 C584 1.561 . S
C582 C585 1.526 . S
C583 H567 0.959 . S
C583 H568 0.959 . S
C583 H569 0.961 . S
C583 C582 1.502 . S
C584 H570 0.960 . S
C584 H571 0.961 . S
C584 H572 0.959 . S
C584 C582 1.561 . S
C585 C582 1.526 . S
C585 C586 1.396 . S
C585 C590 1.390 . S
C586 C580 1.465 . S
C586 C585 1.396 . S
C586 C587 1.399 . S
C587 H573 0.929 . S
C587 C586 1.399 . S
C587 C588 1.385 . S
C588 H574 0.931 . S
C588 C587 1.385 . S
C588 C589 1.389 . S
C589 C588 1.389 . S
C589 C590 1.387 . S
C590 H575 0.930 . S
C590 C585 1.390 . S
C590 C589 1.387 . S
H591 C603 0.930 . S
H592 C605 0.930 . S
H593 C606 0.930 . S
H594 C610 0.959 . S
H595 C610 0.959 . S
H596 C610 0.961 . S
H597 C611 0.960 . S
H598 C611 0.961 . S
H599 C611 0.959 . S
H600 C614 0.929 . S
H601 C615 0.931 . S
H602 C617 0.930 . S
C603 H591 0.930 . S
C603 C604 1.399 . S
C603 C608 1.399 . S
C604 C603 1.399 . S
C604 C605 1.376 . S
C605 H592 0.930 . S
C605 C604 1.376 . S
C605 C606 1.388 . S
C606 H593 0.930 . S
C606 C605 1.388 . S
C606 C607 1.390 . S
C607 C606 1.390 . S
C607 C608 1.394 . S
C607 C613 1.465 . S
C608 C603 1.399 . S
C608 C607 1.394 . S
C608 C609 1.516 . S
C609 C608 1.516 . S
C609 C610 1.502 . S
C609 C611 1.561 . S
C609 C612 1.526 . S
C610 H594 0.959 . S
C610 H595 0.959 . S
C610 H596 0.961 . S
C610 C609 1.502 . S
C611 H597 0.960 . S
C611 H598 0.961 . S
C611 H599 0.959 . S
C611 C609 1.561 . S
C612 C609 1.526 . S
C612 C613 1.396 . S
C612 C617 1.390 . S
C613 C607 1.465 . S
C613 C612 1.396 . S
C613 C614 1.399 . S
C614 H600 0.929 . S
C614 C613 1.399 . S
C614 C615 1.385 . S
C615 H601 0.931 . S
C615 C614 1.385 . S
C615 C616 1.389 . S
C616 C615 1.389 . S
C616 C617 1.387 . S
C617 H602 0.930 . S
C617 C612 1.390 . S
C617 C616 1.387 . S
H618 C630 0.930 . S
H619 C632 0.930 . S
H620 C633 0.930 . S
H621 C637 0.959 . S
H622 C637 0.959 . S
H623 C637 0.961 . S
H624 C638 0.960 . S
H625 C638 0.961 . S
H626 C638 0.959 . S
H627 C641 0.929 . S
H628 C642 0.931 . S
H629 C644 0.930 . S
C630 H618 0.930 . S
C630 C631 1.399 . S
C630 C635 1.399 . S
C631 C630 1.399 . S
C631 C632 1.376 . S
C632 H619 0.930 . S
C632 C631 1.376 . S
C632 C633 1.388 . S
C633 H620 0.930 . S
C633 C632 1.388 . S
C633 C634 1.390 . S
C634 C633 1.390 . S
C634 C635 1.394 . S
C634 C640 1.465 . S
C635 C630 1.399 . S
C635 C634 1.394 . S
C635 C636 1.516 . S
C636 C635 1.516 . S
C636 C637 1.502 . S
C636 C638 1.561 . S
C636 C639 1.526 . S
C637 H621 0.959 . S
C637 H622 0.959 . S
C637 H623 0.961 . S
C637 C636 1.502 . S
C638 H624 0.960 . S
C638 H625 0.961 . S
C638 H626 0.959 . S
C638 C636 1.561 . S
C639 C636 1.526 . S
C639 C640 1.396 . S
C639 C644 1.390 . S
C640 C634 1.465 . S
C640 C639 1.396 . S
C640 C641 1.399 . S
C641 H627 0.929 . S
C641 C640 1.399 . S
C641 C642 1.385 . S
C642 H628 0.931 . S
C642 C641 1.385 . S
C642 C643 1.389 . S
C643 C642 1.389 . S
C643 C644 1.387 . S
C644 H629 0.930 . S
C644 C639 1.390 . S
C644 C643 1.387 . S
H645 C657 0.930 . S
H646 C659 0.930 . S
H647 C660 0.930 . S
H648 C664 0.959 . S
H649 C664 0.959 . S
H650 C664 0.961 . S
H651 C665 0.960 . S
H652 C665 0.961 . S
H653 C665 0.959 . S
H654 C668 0.929 . S
H655 C669 0.931 . S
H656 C671 0.930 . S
C657 H645 0.930 . S
C657 C658 1.399 . S
C657 C662 1.399 . S
C658 C657 1.399 . S
C658 C659 1.376 . S
C659 H646 0.930 . S
C659 C658 1.376 . S
C659 C660 1.388 . S
C660 H647 0.930 . S
C660 C659 1.388 . S
C660 C661 1.390 . S
C661 C660 1.390 . S
C661 C662 1.394 . S
C661 C667 1.465 . S
C662 C657 1.399 . S
C662 C661 1.394 . S
C662 C663 1.516 . S
C663 C662 1.516 . S
C663 C664 1.502 . S
C663 C665 1.561 . S
C663 C666 1.526 . S
C664 H648 0.959 . S
C664 H649 0.959 . S
C664 H650 0.961 . S
C664 C663 1.502 . S
C665 H651 0.960 . S
C665 H652 0.961 . S
C665 H653 0.959 . S
C665 C663 1.561 . S
C666 C663 1.526 . S
C666 C667 1.396 . S
C666 C671 1.390 . S
C667 C661 1.465 . S
C667 C666 1.396 . S
C667 C668 1.399 . S
C668 H654 0.929 . S
C668 C667 1.399 . S
C668 C669 1.385 . S
C669 H655 0.931 . S
C669 C668 1.385 . S
C669 C670 1.389 . S
C670 C669 1.389 . S
C670 C671 1.387 . S
C671 H656 0.930 . S
C671 C666 1.390 . S
C671 C670 1.387 . S
H672 C684 0.930 . S
H673 C686 0.930 . S
H674 C687 0.930 . S
H675 C691 0.959 . S
H676 C691 0.959 . S
H677 C691 0.961 . S
H678 C692 0.960 . S
H679 C692 0.961 . S
H680 C692 0.959 . S
H681 C695 0.929 . S
H682 C696 0.931 . S
H683 C698 0.930 . S
C684 H672 0.930 . S
C684 C685 1.399 . S
C684 C689 1.399 . S
C685 C684 1.399 . S
C685 C686 1.376 . S
C686 H673 0.930 . S
C686 C685 1.376 . S
C686 C687 1.388 . S
C687 H674 0.930 . S
C687 C686 1.388 . S
C687 C688 1.390 . S
C688 C687 1.390 . S
C688 C689 1.394 . S
C688 C694 1.465 . S
C689 C684 1.399 . S
C689 C688 1.394 . S
C689 C690 1.516 . S
C690 C689 1.516 . S
C690 C691 1.502 . S
C690 C692 1.561 . S
C690 C693 1.526 . S
C691 H675 0.959 . S
C691 H676 0.959 . S
C691 H677 0.961 . S
C691 C690 1.502 . S
C692 H678 0.960 . S
C692 H679 0.961 . S
C692 H680 0.959 . S
C692 C690 1.561 . S
C693 C690 1.526 . S
C693 C694 1.396 . S
C693 C698 1.390 . S
C694 C688 1.465 . S
C694 C693 1.396 . S
C694 C695 1.399 . S
C695 H681 0.929 . S
C695 C694 1.399 . S
C695 C696 1.385 . S
C696 H682 0.931 . S
C696 C695 1.385 . S
C696 C697 1.389 . S
C697 C696 1.389 . S
C697 C698 1.387 . S
C698 H683 0.930 . S
C698 C693 1.390 . S
C698 C697 1.387 . S
H699 C711 0.930 . S
H700 C713 0.930 1_554 S
H701 C714 0.930 . S
H702 C718 0.959 . S
H703 C718 0.959 . S
H704 C718 0.961 . S
H705 C719 0.960 . S
H706 C719 0.961 . S
H707 C719 0.959 . S
H708 C722 0.929 . S
H709 C723 0.931 . S
H710 C725 0.930 . S
C711 H699 0.930 . S
C711 C712 1.399 . S
C711 C716 1.399 . S
C712 C711 1.399 . S
C712 C713 1.376 . S
C713 H700 0.930 1_556 S
C713 C712 1.376 . S
C713 C714 1.388 . S
C714 H701 0.930 . S
C714 C713 1.388 . S
C714 C715 1.390 . S
C715 C714 1.390 . S
C715 C716 1.394 . S
C715 C721 1.465 . S
C716 C711 1.399 . S
C716 C715 1.394 . S
C716 C717 1.516 . S
C717 C716 1.516 . S
C717 C718 1.502 . S
C717 C719 1.561 . S
C717 C720 1.526 . S
C718 H702 0.959 . S
C718 H703 0.959 . S
C718 H704 0.961 . S
C718 C717 1.502 . S
C719 H705 0.960 . S
C719 H706 0.961 . S
C719 H707 0.959 . S
C719 C717 1.561 . S
C720 C717 1.526 . S
C720 C721 1.396 . S
C720 C725 1.390 . S
C721 C715 1.465 . S
C721 C720 1.396 . S
C721 C722 1.399 . S
C722 H708 0.929 . S
C722 C721 1.399 . S
C722 C723 1.385 . S
C723 H709 0.931 . S
C723 C722 1.385 . S
C723 C724 1.389 . S
C724 C723 1.389 . S
C724 C725 1.387 . S
C725 H710 0.930 . S
C725 C720 1.390 . S
C725 C724 1.387 . S
C253 C218 1.316 . S
C265 C19 1.380 . S
C280 C18 1.317 . S
C292 C59 1.380 . S
C307 C58 1.361 . S
C319 C99 1.390 . S
C334 C98 1.366 . S
C346 C139 1.392 . S
C361 C179 1.392 . S
C373 C138 1.364 . S
C388 C219 1.374 . S
C400 C178 1.269 . S
C415 C15 1.405 . S
C427 C5 1.425 . S
C442 C55 1.370 1_556 S
C454 C45 1.451 . S
C469 C95 1.382 . S
C481 C85 1.444 . S
C496 C135 1.405 . S
C508 C125 1.425 . S
C523 C165 1.366 . S
C535 C175 1.453 1_556 S
C550 C215 1.409 . S
C562 C205 1.421 . S
C577 C9 1.735 . S
C589 C168 1.718 . S
C604 C49 1.714 . S
C616 C208 1.737 . S
C631 C8 1.739 . S
C643 C89 1.709 . S
C658 C48 1.732 . S
C670 C129 1.722 . S
C685 C169 1.712 . S
C697 C88 1.738 . S
C712 C128 1.724 . S
C724 C209 1.730 . S
