# Generated by pormake.
# Topology smk, (6)-cn, num edge types: 1
# Building blocks:
#     Node 0, Type 0, BuildingBlock: OJICUG_clean_sbu_0, # of connection points: 6
#     Node 1, Type 0, BuildingBlock: OJICUG_clean_sbu_0, # of connection points: 6
#     Node 2, Type 0, BuildingBlock: OJICUG_clean_sbu_0, # of connection points: 6
#     Node 3, Type 0, BuildingBlock: OJICUG_clean_sbu_0, # of connection points: 6
#     Node 4, Type 0, BuildingBlock: OJICUG_clean_sbu_0, # of connection points: 6
#     Node 5, Type 0, BuildingBlock: OJICUG_clean_sbu_0, # of connection points: 6
#     Edge 6, Type (0, 0), BuildingBlock: OJICUG_clean_linker_0, # of connection points: 2
#     Edge 7, Type (0, 0), BuildingBlock: OJICUG_clean_linker_0, # of connection points: 2
#     Edge 8, Type (0, 0), BuildingBlock: OJICUG_clean_linker_0, # of connection points: 2
#     Edge 9, Type (0, 0), BuildingBlock: OJICUG_clean_linker_0, # of connection points: 2
#     Edge 10, Type (0, 0), BuildingBlock: OJICUG_clean_linker_0, # of connection points: 2
#     Edge 11, Type (0, 0), BuildingBlock: OJICUG_clean_linker_0, # of connection points: 2
#     Edge 12, Type (0, 0), BuildingBlock: OJICUG_clean_linker_0, # of connection points: 2
#     Edge 13, Type (0, 0), BuildingBlock: OJICUG_clean_linker_0, # of connection points: 2
#     Edge 14, Type (0, 0), BuildingBlock: OJICUG_clean_linker_0, # of connection points: 2
#     Edge 15, Type (0, 0), BuildingBlock: OJICUG_clean_linker_0, # of connection points: 2
#     Edge 16, Type (0, 0), BuildingBlock: OJICUG_clean_linker_0, # of connection points: 2
#     Edge 17, Type (0, 0), BuildingBlock: OJICUG_clean_linker_0, # of connection points: 2
#     Edge 18, Type (0, 0), BuildingBlock: OJICUG_clean_linker_0, # of connection points: 2
#     Edge 19, Type (0, 0), BuildingBlock: OJICUG_clean_linker_0, # of connection points: 2
#     Edge 20, Type (0, 0), BuildingBlock: OJICUG_clean_linker_0, # of connection points: 2
#     Edge 21, Type (0, 0), BuildingBlock: OJICUG_clean_linker_0, # of connection points: 2
#     Edge 22, Type (0, 0), BuildingBlock: OJICUG_clean_linker_0, # of connection points: 2
#     Edge 23, Type (0, 0), BuildingBlock: OJICUG_clean_linker_0, # of connection points: 2
# Relax obj value: 0.194
# Max RMSD: 0.221
# Mean RMSD: 0.221
data_MOF--net-smk--node1-OJICUG_clean_sbu_0--edge1-OJICUG_clean_linker_0
_symmetry_space_group_name_H-M    P1
_symmetry_Int_Tables_number       1
_symmetry_cell_setting            triclinic
loop_
_symmetry_equiv_pos_as_xyz
'x, y, z'
_cell_length_a     33.21481
_cell_length_b     33.282757
_cell_length_c     11.856204
_cell_angle_alpha  90.047646
_cell_angle_beta   89.966656
_cell_angle_gamma 119.98874
loop_
_atom_site_label
_atom_site_type_symbol
_atom_site_fract_x
_atom_site_fract_y
_atom_site_fract_z
_atom_type_partial_charge
Sc0 Sc 0.44935 0.18854 0.48184 0.0
Sc1 Sc 0.34475 0.17679 0.58282 0.0
Sc2 Sc 0.45021 0.25612 0.70642 0.0
O3 O 0.41465 0.20698 0.58934 0.0
C4 C 0.51263 0.20761 0.6897 0.0
C5 C 0.35855 0.09091 0.53974 0.0
C6 C 0.36768 0.18499 0.84884 0.0
C7 C 0.37137 0.18249 0.32057 0.0
C8 C 0.51223 0.30044 0.49734 0.0
C9 C 0.36872 0.27673 0.64246 0.0
O10 O 0.48833 0.17944 0.61295 0.0
O11 O 0.33619 0.10846 0.58573 0.0
O12 O 0.41144 0.20836 0.83599 0.0
O13 O 0.41337 0.19385 0.33914 0.0
O14 O 0.49083 0.30516 0.58059 0.0
O15 O 0.34851 0.24291 0.57466 0.0
O16 O 0.5034 0.26103 0.45794 0.0
O17 O 0.34174 0.17363 0.39876 0.0
O18 O 0.40172 0.28209 0.70668 0.0
O19 O 0.39863 0.11519 0.4953 0.0
O20 O 0.50527 0.23947 0.72487 0.0
O21 O 0.33875 0.17551 0.7681 0.0
Sc22 Sc 0.25045 0.45832 0.62792 0.0
Sc23 Sc 0.16917 0.35345 0.74994 0.0
Sc24 Sc 0.19292 0.4576 0.87527 0.0
O25 O 0.2043 0.42352 0.75073 0.0
C26 C 0.30284 0.52081 0.83691 0.0
C27 C 0.26924 0.37509 0.69304 0.0
C28 C 0.18277 0.37477 0.01427 0.0
C29 C 0.1798 0.37557 0.485 0.0
C30 C 0.20243 0.52044 0.66755 0.0
C31 C 0.09086 0.37424 0.80993 0.0
O32 O 0.30374 0.50259 0.74356 0.0
O33 O 0.23372 0.35341 0.75638 0.0
O34 O 0.20372 0.41827 1.00091 0.0
O35 O 0.20197 0.41905 0.49912 0.0
O36 O 0.1833 0.5019 0.76079 0.0
O37 O 0.10466 0.35344 0.74363 0.0
O38 O 0.22841 0.50933 0.61248 0.0
O39 O 0.16935 0.34712 0.56625 0.0
O40 O 0.11827 0.40851 0.87212 0.0
O41 O 0.27677 0.40993 0.63236 0.0
O42 O 0.26561 0.50933 0.89145 0.0
O43 O 0.16276 0.34642 0.93366 0.0
Sc44 Sc 0.79201 0.2589 0.8047 0.0
Sc45 Sc 0.81437 0.17439 0.91036 0.0
Sc46 Sc 0.72327 0.18695 0.01773 0.0
O47 O 0.77642 0.20615 0.91047 0.0
C48 C 0.77118 0.29798 0.01456 0.0
C49 C 0.89291 0.27523 0.86211 0.0
C50 C 0.79703 0.18288 0.17348 0.0
C51 C 0.80297 0.19137 0.64637 0.0
C52 C 0.68032 0.20781 0.81572 0.0
C53 C 0.71587 0.08958 0.95695 0.0
O54 O 0.80193 0.30403 0.94251 0.0
O55 O 0.87831 0.2393 0.92306 0.0
O56 O 0.76766 0.19616 0.15722 0.0
O57 O 0.78394 0.21576 0.66457 0.0
O58 O 0.67621 0.17646 0.88323 0.0
O59 O 0.75374 0.10686 0.9018 0.0
O60 O 0.71974 0.24243 0.78996 0.0
O61 O 0.81889 0.17672 0.72482 0.0
O62 O 0.70234 0.11414 0.00912 0.0
O63 O 0.866 0.28365 0.8033 0.0
O64 O 0.73731 0.25794 0.03933 0.0
O65 O 0.81389 0.16961 0.09455 0.0
Sc66 Sc 0.52817 0.79396 0.98233 0.0
Sc67 Sc 0.63226 0.80982 0.09496 0.0
Sc68 Sc 0.52629 0.72873 0.21253 0.0
O69 O 0.56229 0.7778 0.0965 0.0
C70 C 0.46452 0.77787 0.18791 0.0
C71 C 0.61737 0.89299 0.04156 0.0
C72 C 0.60723 0.79798 0.36007 0.0
C73 C 0.60777 0.7994 0.83172 0.0
C74 C 0.46529 0.68268 0.0027 0.0
C75 C 0.60914 0.70993 0.15128 0.0
O76 O 0.48862 0.80507 0.10914 0.0
O77 O 0.63826 0.87683 0.09976 0.0
O78 O 0.56362 0.77603 0.34438 0.0
O79 O 0.56473 0.78419 0.84682 0.0
O80 O 0.48675 0.67886 0.08683 0.0
O81 O 0.62984 0.74442 0.08551 0.0
O82 O 0.47372 0.7217 0.96225 0.0
O83 O 0.63747 0.81446 0.91134 0.0
O84 O 0.57538 0.70355 0.21425 0.0
O85 O 0.57935 0.86748 0.98927 0.0
O86 O 0.47165 0.74621 0.22604 0.0
O87 O 0.63663 0.80899 0.27992 0.0
Sc88 Sc 0.7231 0.52584 0.13051 0.0
Sc89 Sc 0.80639 0.62994 0.25015 0.0
Sc90 Sc 0.78622 0.52503 0.36254 0.0
O91 O 0.77168 0.56018 0.24848 0.0
C92 C 0.67483 0.46325 0.33609 0.0
C93 C 0.70735 0.61035 0.19631 0.0
C94 C 0.79639 0.60485 0.51432 0.0
C95 C 0.79591 0.6064 0.98619 0.0
C96 C 0.77014 0.46253 0.15534 0.0
C97 C 0.8867 0.61046 0.30011 0.0
O98 O 0.67163 0.4856 0.25312 0.0
O99 O 0.74209 0.63011 0.26226 0.0
O100 O 0.77676 0.56147 0.49786 0.0
O101 O 0.77222 0.56291 1.00104 0.0
O102 O 0.79717 0.48596 0.23509 0.0
O103 O 0.87172 0.63151 0.23857 0.0
O104 O 0.73909 0.47043 0.11612 0.0
O105 O 0.80552 0.63566 0.06573 0.0
O106 O 0.8602 0.57503 0.35965 0.0
O107 O 0.7001 0.57665 0.13197 0.0
O108 O 0.71355 0.47141 0.37836 0.0
O109 O 0.81283 0.63443 0.43448 0.0
Sc110 Sc 0.18651 0.72848 0.29469 0.0
Sc111 Sc 0.16143 0.80943 0.41202 0.0
Sc112 Sc 0.24999 0.79406 0.52481 0.0
O113 O 0.1995 0.77758 0.41075 0.0
C114 C 0.20145 0.68256 0.50468 0.0
C115 C 0.08454 0.7097 0.35366 0.0
C116 C 0.17559 0.79923 0.67539 0.0
C117 C 0.17498 0.7977 0.14701 0.0
C118 C 0.2975 0.77773 0.31958 0.0
C119 C 0.25985 0.89306 0.4652 0.0
O120 O 0.17609 0.67867 0.42061 0.0
O121 O 0.09819 0.74397 0.42024 0.0
O122 O 0.20381 0.78452 0.66044 0.0
O123 O 0.1966 0.77576 0.16282 0.0
O124 O 0.30061 0.80507 0.398 0.0
O125 O 0.22251 0.87657 0.40782 0.0
O126 O 0.25866 0.74594 0.28167 0.0
O127 O 0.15657 0.80874 0.22706 0.0
O128 O 0.27258 0.86773 0.51739 0.0
O129 O 0.11218 0.70331 0.29177 0.0
O130 O 0.23206 0.72167 0.54518 0.0
O131 O 0.16056 0.81383 0.59568 0.0
C132 C 0.36795 0.14462 0.13948 0.0
C133 C 0.35639 0.1733 0.20196 0.0
H134 H 0.3788 0.12471 0.97579 0.0
C135 C 0.3379 0.19761 0.14608 0.0
H136 H 0.38205 0.12535 0.18115 0.0
C137 C 0.33568 0.19687 0.02765 0.0
C138 C 0.3516 0.17154 0.96526 0.0
H139 H 0.3291 0.22015 0.1928 0.0
H140 H 0.32585 0.21945 0.98494 0.0
C141 C 0.36563 0.1438 0.02224 0.0
C142 C 0.13461 0.34358 0.30658 0.0
C143 C 0.17595 0.3596 0.36791 0.0
H144 H 0.10427 0.33432 0.14169 0.0
C145 C 0.21726 0.37085 0.31061 0.0
H146 H 0.10263 0.33564 0.34927 0.0
C147 C 0.21833 0.3705 0.19307 0.0
C148 C 0.17795 0.35832 0.13104 0.0
H149 H 0.24963 0.38385 0.3566 0.0
H150 H 0.25145 0.3835 0.15063 0.0
C151 C 0.13558 0.3427 0.18824 0.0
C152 C 0.79157 0.14211 0.35404 0.0
C153 C 0.81126 0.18336 0.29073 0.0
H154 H 0.77385 0.11206 0.52029 0.0
C155 C 0.83502 0.22611 0.34621 0.0
H156 H 0.7722 0.1088 0.31233 0.0
C157 C 0.83588 0.22792 0.46352 0.0
C158 C 0.8127 0.18703 0.52739 0.0
H159 H 0.84979 0.25824 0.29889 0.0
H160 H 0.85178 0.26154 0.50447 0.0
C161 C 0.79236 0.14393 0.47246 0.0
C162 C 0.64221 0.84354 0.53672 0.0
C163 C 0.62215 0.80134 0.4779 0.0
H164 H 0.65445 0.87594 0.69981 0.0
C165 C 0.60646 0.75975 0.53781 0.0
H166 H 0.65375 0.87584 0.49194 0.0
C167 C 0.60654 0.75973 0.65528 0.0
C168 C 0.62286 0.80137 0.71463 0.0
H169 H 0.5905 0.7268 0.49369 0.0
H170 H 0.59044 0.72687 0.69965 0.0
C171 C 0.64266 0.84354 0.65512 0.0
C172 C 0.78454 0.63931 0.69075 0.0
C173 C 0.8075 0.61993 0.6323 0.0
H174 H 0.76396 0.65139 0.85364 0.0
C175 C 0.83459 0.60571 0.6925 0.0
H176 H 0.76293 0.64981 0.64573 0.0
C177 C 0.83513 0.6065 0.80994 0.0
C178 C 0.80891 0.62191 0.86918 0.0
H179 H 0.85237 0.59044 0.64875 0.0
H180 H 0.8529 0.59146 0.85454 0.0
C181 C 0.78532 0.64038 0.80922 0.0
C182 C 0.18536 0.84323 0.97057 0.0
C183 C 0.16342 0.80101 0.02918 0.0
H184 H 0.20528 0.8757 0.80761 0.0
C185 C 0.13753 0.75941 0.96914 0.0
H186 H 0.20609 0.87555 0.01546 0.0
C187 C 0.13725 0.75943 0.85167 0.0
C188 C 0.16241 0.80111 0.79247 0.0
H189 H 0.12066 0.72644 0.0131 0.0
H190 H 0.12052 0.72657 0.80715 0.0
C191 C 0.18477 0.84326 0.85218 0.0
C192 C 0.28579 0.01575 0.51111 0.0
C193 C 0.33423 0.04002 0.52551 0.0
H194 H 0.22485 0.95075 0.47792 0.0
C195 C 0.35865 0.01567 0.51852 0.0
H196 H 0.26607 0.03362 0.5145 0.0
C197 C 0.33472 0.96765 0.49914 0.0
C198 C 0.28634 0.94375 0.4826 0.0
H199 H 0.39605 0.03366 0.52877 0.0
H200 H 0.35403 0.94937 0.49554 0.0
C201 C 0.26223 0.96834 0.48863 0.0
C202 C 0.33898 0.31725 0.76384 0.0
C203 C 0.34937 0.30771 0.65573 0.0
H204 H 0.30431 0.34559 0.86031 0.0
C205 C 0.33677 0.32402 0.56064 0.0
H206 H 0.34795 0.3045 0.83826 0.0
C207 C 0.31319 0.34869 0.57339 0.0
C208 C 0.30044 0.35589 0.68122 0.0
H209 H 0.34433 0.31683 0.47653 0.0
H210 H 0.30268 0.35989 0.49877 0.0
C211 C 0.31395 0.34049 0.77643 0.0
C212 C 0.96317 0.31868 0.74222 0.0
C213 C 0.9434 0.30565 0.85016 0.0
H214 H 0.02606 0.3501 0.64477 0.0
C215 C 0.97248 0.31858 0.94505 0.0
H216 H 0.9413 0.3086 0.66784 0.0
C217 C 0.02076 0.34357 0.93202 0.0
C218 C 0.04049 0.35444 0.82374 0.0
H219 H 0.95785 0.30871 0.02895 0.0
H220 H 0.04265 0.35229 0.00612 0.0
C221 C 0.01143 0.34219 0.72897 0.0
C222 C 0.69012 0.96751 0.00934 0.0
C223 C 0.64161 0.9434 0.02204 0.0
H224 H 0.75125 0.03232 0.97518 0.0
C225 C 0.61705 0.96733 0.00895 0.0
H226 H 0.70981 0.94972 0.01717 0.0
C227 C 0.641 0.01504 0.98662 0.0
C228 C 0.68954 0.03894 0.973 0.0
H229 H 0.57957 0.9493 0.01755 0.0
H230 H 0.62164 0.03319 0.97938 0.0
C231 C 0.71376 0.01463 0.98367 0.0
C232 C 0.66474 0.63858 0.07836 0.0
C233 C 0.67705 0.63053 0.18574 0.0
H234 H 0.63398 0.67119 0.98337 0.0
C235 C 0.66339 0.64533 0.28187 0.0
H236 H 0.67533 0.62778 0.0031 0.0
C237 C 0.63853 0.66876 0.27064 0.0
C238 C 0.62849 0.67902 0.16306 0.0
H239 H 0.67264 0.63946 0.3654 0.0
H240 H 0.62933 0.68098 0.34571 0.0
C241 C 0.64131 0.6634 0.06704 0.0
C242 C 0.95689 0.63711 0.41999 0.0
C243 C 0.93724 0.63093 0.31206 0.0
H244 H 0.01963 0.6681 0.51786 0.0
C245 C 0.96642 0.64768 0.21741 0.0
H246 H 0.93494 0.62482 0.4942 0.0
C247 C 0.01468 0.67099 0.23075 0.0
C248 C 0.03426 0.67922 0.33913 0.0
H249 H 0.95187 0.64332 0.13351 0.0
H250 H 0.03668 0.68462 0.15691 0.0
C251 C 0.0051 0.66185 0.43359 0.0
C252 C 0.58452 0.37513 0.53155 0.0
C253 C 0.55268 0.3427 0.45448 0.0
H254 H 0.64902 0.43866 0.55398 0.0
C255 C 0.5606 0.35073 0.3385 0.0
H256 H 0.57921 0.36926 0.6216 0.0
C257 C 0.59968 0.3911 0.30017 0.0
C258 C 0.63201 0.42301 0.3774 0.0
H259 H 0.53648 0.32605 0.27794 0.0
H260 H 0.60542 0.39672 0.21018 0.0
C261 C 0.62434 0.41463 0.49327 0.0
C262 C 0.19392 0.56573 0.51129 0.0
C263 C 0.19799 0.5598 0.62688 0.0
H264 H 0.19065 0.60908 0.3827 0.0
C265 C 0.20144 0.59374 0.70328 0.0
H266 H 0.19146 0.54013 0.45096 0.0
C267 C 0.20243 0.63385 0.66415 0.0
C268 C 0.19842 0.63977 0.54847 0.0
H269 H 0.20521 0.59011 0.79287 0.0
H270 H 0.20639 0.6602 0.72401 0.0
C271 C 0.19336 0.60504 0.47258 0.0
C272 C 0.59643 0.16534 0.75973 0.0
C273 C 0.63762 0.2074 0.77979 0.0
H274 H 0.5243 0.13243 0.71443 0.0
C275 C 0.63684 0.24916 0.77462 0.0
H276 H 0.5961 0.13267 0.76432 0.0
C277 C 0.59557 0.24889 0.75034 0.0
C278 C 0.55455 0.20695 0.72805 0.0
H279 H 0.66794 0.282 0.79181 0.0
H280 H 0.59607 0.28166 0.74594 0.0
C281 C 0.55539 0.16518 0.73217 0.0
C282 C 0.41612 0.63425 0.8425 0.0
C283 C 0.42574 0.63992 0.95833 0.0
H284 H 0.36989 0.59074 0.71292 0.0
C285 C 0.39594 0.60505 0.03367 0.0
H286 H 0.43865 0.66075 0.78313 0.0
C287 C 0.35617 0.56578 0.99418 0.0
C288 C 0.34644 0.56013 0.87844 0.0
H289 H 0.40251 0.60893 0.12365 0.0
H290 H 0.33288 0.54001 0.054 0.0
C291 C 0.3771 0.59421 0.80262 0.0
C292 C 0.72915 0.3804 0.09199 0.0
C293 C 0.77107 0.42107 0.1166 0.0
H294 H 0.69639 0.30888 0.04408 0.0
C295 C 0.81303 0.42053 0.11206 0.0
H296 H 0.69627 0.37979 0.09674 0.0
C297 C 0.81313 0.38013 0.08057 0.0
C298 C 0.77112 0.33937 0.05711 0.0
H299 H 0.84571 0.45145 0.13156 0.0
H300 H 0.84594 0.38064 0.07481 0.0
C301 C 0.72913 0.33971 0.06384 0.0
C302 C 0.42293 0.82091 0.23838 0.0
C303 C 0.42272 0.77883 0.22549 0.0
H304 H 0.38313 0.85363 0.2807 0.0
C305 C 0.38101 0.73683 0.24083 0.0
H306 H 0.45467 0.8537 0.2261 0.0
C307 C 0.34007 0.73679 0.2673 0.0
C308 C 0.3403 0.77874 0.28213 0.0
H309 H 0.3798 0.70393 0.22966 0.0
H310 H 0.3084 0.70385 0.27884 0.0
C311 C 0.38214 0.82087 0.2688 0.0
loop_
_geom_bond_atom_site_label_1
_geom_bond_atom_site_label_2
_geom_bond_distance
_geom_bond_site_symmetry_2
_ccdc_geom_bond_type
Sc0 O3 2.025 . S
Sc0 O10 2.105 . S
Sc0 O13 2.105 . S
Sc0 O16 2.105 . S
Sc0 O19 2.105 . S
Sc1 O3 2.025 . S
Sc1 O11 2.105 . S
Sc1 O15 2.105 . S
Sc1 O17 2.105 . S
Sc1 O21 2.105 . S
Sc2 O3 2.025 . S
Sc2 O12 2.105 . S
Sc2 O14 2.105 . S
Sc2 O18 2.105 . S
Sc2 O20 2.105 . S
O3 Sc0 2.025 . S
O3 Sc1 2.025 . S
O3 Sc2 2.025 . S
C4 O10 1.268 . S
C4 O20 1.268 . S
C5 O11 1.268 . S
C5 O19 1.268 . S
C6 O12 1.268 . S
C6 O21 1.268 . S
C7 O13 1.268 . S
C7 O17 1.268 . S
C8 O14 1.268 . S
C8 O16 1.268 . S
C9 O15 1.268 . S
C9 O18 1.268 . S
O10 Sc0 2.105 . S
O10 C4 1.268 . S
O11 Sc1 2.105 . S
O11 C5 1.268 . S
O12 Sc2 2.105 . S
O12 C6 1.268 . S
O13 Sc0 2.105 . S
O13 C7 1.268 . S
O14 Sc2 2.105 . S
O14 C8 1.268 . S
O15 Sc1 2.105 . S
O15 C9 1.268 . S
O16 Sc0 2.105 . S
O16 C8 1.268 . S
O17 Sc1 2.105 . S
O17 C7 1.268 . S
O18 Sc2 2.105 . S
O18 C9 1.268 . S
O19 Sc0 2.105 . S
O19 C5 1.268 . S
O20 Sc2 2.105 . S
O20 C4 1.268 . S
O21 Sc1 2.105 . S
O21 C6 1.268 . S
Sc22 O25 2.025 . S
Sc22 O32 2.105 . S
Sc22 O35 2.105 . S
Sc22 O38 2.105 . S
Sc22 O41 2.105 . S
Sc23 O25 2.025 . S
Sc23 O33 2.105 . S
Sc23 O37 2.105 . S
Sc23 O39 2.105 . S
Sc23 O43 2.105 . S
Sc24 O25 2.025 . S
Sc24 O34 2.105 . S
Sc24 O36 2.105 . S
Sc24 O40 2.105 . S
Sc24 O42 2.105 . S
O25 Sc22 2.025 . S
O25 Sc23 2.025 . S
O25 Sc24 2.025 . S
C26 O32 1.268 . S
C26 O42 1.268 . S
C27 O33 1.268 . S
C27 O41 1.268 . S
C28 O34 1.268 1_554 S
C28 O43 1.268 1_554 S
C29 O35 1.268 . S
C29 O39 1.268 . S
C30 O36 1.268 . S
C30 O38 1.268 . S
C31 O37 1.268 . S
C31 O40 1.268 . S
O32 Sc22 2.105 . S
O32 C26 1.268 . S
O33 Sc23 2.105 . S
O33 C27 1.268 . S
O34 Sc24 2.105 . S
O34 C28 1.268 1_556 S
O35 Sc22 2.105 . S
O35 C29 1.268 . S
O36 Sc24 2.105 . S
O36 C30 1.268 . S
O37 Sc23 2.105 . S
O37 C31 1.268 . S
O38 Sc22 2.105 . S
O38 C30 1.268 . S
O39 Sc23 2.105 . S
O39 C29 1.268 . S
O40 Sc24 2.105 . S
O40 C31 1.268 . S
O41 Sc22 2.105 . S
O41 C27 1.268 . S
O42 Sc24 2.105 . S
O42 C26 1.268 . S
O43 Sc23 2.105 . S
O43 C28 1.268 1_556 S
Sc44 O47 2.025 . S
Sc44 O54 2.105 . S
Sc44 O57 2.105 . S
Sc44 O60 2.105 . S
Sc44 O63 2.105 . S
Sc45 O47 2.025 . S
Sc45 O55 2.105 . S
Sc45 O59 2.105 . S
Sc45 O61 2.105 . S
Sc45 O65 2.105 1_556 S
Sc46 O47 2.025 1_554 S
Sc46 O56 2.105 . S
Sc46 O58 2.105 1_554 S
Sc46 O62 2.105 . S
Sc46 O64 2.105 . S
O47 Sc44 2.025 . S
O47 Sc45 2.025 . S
O47 Sc46 2.025 1_556 S
C48 O54 1.268 1_554 S
C48 O64 1.268 . S
C49 O55 1.268 . S
C49 O63 1.268 . S
C50 O56 1.268 . S
C50 O65 1.268 . S
C51 O57 1.268 . S
C51 O61 1.268 . S
C52 O58 1.268 . S
C52 O60 1.268 . S
C53 O59 1.268 . S
C53 O62 1.268 1_556 S
O54 Sc44 2.105 . S
O54 C48 1.268 1_556 S
O55 Sc45 2.105 . S
O55 C49 1.268 . S
O56 Sc46 2.105 . S
O56 C50 1.268 . S
O57 Sc44 2.105 . S
O57 C51 1.268 . S
O58 Sc46 2.105 1_556 S
O58 C52 1.268 . S
O59 Sc45 2.105 . S
O59 C53 1.268 . S
O60 Sc44 2.105 . S
O60 C52 1.268 . S
O61 Sc45 2.105 . S
O61 C51 1.268 . S
O62 Sc46 2.105 . S
O62 C53 1.268 1_554 S
O63 Sc44 2.105 . S
O63 C49 1.268 . S
O64 Sc46 2.105 . S
O64 C48 1.268 . S
O65 Sc45 2.105 1_554 S
O65 C50 1.268 . S
Sc66 O69 2.025 1_556 S
Sc66 O76 2.105 1_556 S
Sc66 O79 2.105 . S
Sc66 O82 2.105 . S
Sc66 O85 2.105 . S
Sc67 O69 2.025 . S
Sc67 O77 2.105 . S
Sc67 O81 2.105 . S
Sc67 O83 2.105 1_554 S
Sc67 O87 2.105 . S
Sc68 O69 2.025 . S
Sc68 O78 2.105 . S
Sc68 O80 2.105 . S
Sc68 O84 2.105 . S
Sc68 O86 2.105 . S
O69 Sc66 2.025 1_554 S
O69 Sc67 2.025 . S
O69 Sc68 2.025 . S
C70 O76 1.268 . S
C70 O86 1.268 . S
C71 O77 1.268 . S
C71 O85 1.268 1_554 S
C72 O78 1.268 . S
C72 O87 1.268 . S
C73 O79 1.268 . S
C73 O83 1.268 . S
C74 O80 1.268 1_556 S
C74 O82 1.268 . S
C75 O81 1.268 . S
C75 O84 1.268 . S
O76 Sc66 2.105 1_554 S
O76 C70 1.268 . S
O77 Sc67 2.105 . S
O77 C71 1.268 . S
O78 Sc68 2.105 . S
O78 C72 1.268 . S
O79 Sc66 2.105 . S
O79 C73 1.268 . S
O80 Sc68 2.105 . S
O80 C74 1.268 1_554 S
O81 Sc67 2.105 . S
O81 C75 1.268 . S
O82 Sc66 2.105 . S
O82 C74 1.268 . S
O83 Sc67 2.105 1_556 S
O83 C73 1.268 . S
O84 Sc68 2.105 . S
O84 C75 1.268 . S
O85 Sc66 2.105 . S
O85 C71 1.268 1_556 S
O86 Sc68 2.105 . S
O86 C70 1.268 . S
O87 Sc67 2.105 . S
O87 C72 1.268 . S
Sc88 O91 2.025 . S
Sc88 O98 2.105 . S
Sc88 O101 2.105 . S
Sc88 O104 2.105 . S
Sc88 O107 2.105 . S
Sc89 O91 2.025 . S
Sc89 O99 2.105 . S
Sc89 O103 2.105 . S
Sc89 O105 2.105 . S
Sc89 O109 2.105 . S
Sc90 O91 2.025 . S
Sc90 O100 2.105 . S
Sc90 O102 2.105 . S
Sc90 O106 2.105 . S
Sc90 O108 2.105 . S
O91 Sc88 2.025 . S
O91 Sc89 2.025 . S
O91 Sc90 2.025 . S
C92 O98 1.268 . S
C92 O108 1.268 . S
C93 O99 1.268 . S
C93 O107 1.268 . S
C94 O100 1.268 . S
C94 O109 1.268 . S
C95 O101 1.268 1_556 S
C95 O105 1.268 1_556 S
C96 O102 1.268 . S
C96 O104 1.268 . S
C97 O103 1.268 . S
C97 O106 1.268 . S
O98 Sc88 2.105 . S
O98 C92 1.268 . S
O99 Sc89 2.105 . S
O99 C93 1.268 . S
O100 Sc90 2.105 . S
O100 C94 1.268 . S
O101 Sc88 2.105 . S
O101 C95 1.268 1_554 S
O102 Sc90 2.105 . S
O102 C96 1.268 . S
O103 Sc89 2.105 . S
O103 C97 1.268 . S
O104 Sc88 2.105 . S
O104 C96 1.268 . S
O105 Sc89 2.105 . S
O105 C95 1.268 1_554 S
O106 Sc90 2.105 . S
O106 C97 1.268 . S
O107 Sc88 2.105 . S
O107 C93 1.268 . S
O108 Sc90 2.105 . S
O108 C92 1.268 . S
O109 Sc89 2.105 . S
O109 C94 1.268 . S
Sc110 O113 2.025 . S
Sc110 O120 2.105 . S
Sc110 O123 2.105 . S
Sc110 O126 2.105 . S
Sc110 O129 2.105 . S
Sc111 O113 2.025 . S
Sc111 O121 2.105 . S
Sc111 O125 2.105 . S
Sc111 O127 2.105 . S
Sc111 O131 2.105 . S
Sc112 O113 2.025 . S
Sc112 O122 2.105 . S
Sc112 O124 2.105 . S
Sc112 O128 2.105 . S
Sc112 O130 2.105 . S
O113 Sc110 2.025 . S
O113 Sc111 2.025 . S
O113 Sc112 2.025 . S
C114 O120 1.268 . S
C114 O130 1.268 . S
C115 O121 1.268 . S
C115 O129 1.268 . S
C116 O122 1.268 . S
C116 O131 1.268 . S
C117 O123 1.268 . S
C117 O127 1.268 . S
C118 O124 1.268 . S
C118 O126 1.268 . S
C119 O125 1.268 . S
C119 O128 1.268 . S
O120 Sc110 2.105 . S
O120 C114 1.268 . S
O121 Sc111 2.105 . S
O121 C115 1.268 . S
O122 Sc112 2.105 . S
O122 C116 1.268 . S
O123 Sc110 2.105 . S
O123 C117 1.268 . S
O124 Sc112 2.105 . S
O124 C118 1.268 . S
O125 Sc111 2.105 . S
O125 C119 1.268 . S
O126 Sc110 2.105 . S
O126 C118 1.268 . S
O127 Sc111 2.105 . S
O127 C117 1.268 . S
O128 Sc112 2.105 . S
O128 C119 1.268 . S
O129 Sc110 2.105 . S
O129 C115 1.268 . S
O130 Sc112 2.105 . S
O130 C114 1.268 . S
O131 Sc111 2.105 . S
O131 C116 1.268 . S
C132 C133 1.387 . S
C132 H136 0.950 . S
C132 C141 1.390 . S
C133 C132 1.387 . S
C133 C135 1.387 . S
H134 C141 0.950 . S
C135 C133 1.387 . S
C135 C137 1.390 . S
C135 H139 0.950 . S
H136 C132 0.950 . S
C137 C135 1.390 . S
C137 C138 1.387 1_554 S
C137 H140 0.950 1_554 S
C138 C137 1.387 1_556 S
C138 C141 1.387 1_556 S
H139 C135 0.950 . S
H140 C137 0.950 1_556 S
C141 C132 1.390 . S
C141 H134 0.950 . S
C141 C138 1.387 1_554 S
C142 C143 1.387 . S
C142 H146 0.950 . S
C142 C151 1.390 . S
C143 C142 1.387 . S
C143 C145 1.387 . S
H144 C151 0.950 . S
C145 C143 1.387 . S
C145 C147 1.390 . S
C145 H149 0.950 . S
H146 C142 0.950 . S
C147 C145 1.390 . S
C147 C148 1.387 . S
C147 H150 0.950 . S
C148 C147 1.387 . S
C148 C151 1.387 . S
H149 C145 0.950 . S
H150 C147 0.950 . S
C151 C142 1.390 . S
C151 H144 0.950 . S
C151 C148 1.387 . S
C152 C153 1.387 . S
C152 H156 0.950 . S
C152 C161 1.390 . S
C153 C152 1.387 . S
C153 C155 1.387 . S
H154 C161 0.950 . S
C155 C153 1.387 . S
C155 C157 1.390 . S
C155 H159 0.950 . S
H156 C152 0.950 . S
C157 C155 1.390 . S
C157 C158 1.387 . S
C157 H160 0.950 . S
C158 C157 1.387 . S
C158 C161 1.387 . S
H159 C155 0.950 . S
H160 C157 0.950 . S
C161 C152 1.390 . S
C161 H154 0.950 . S
C161 C158 1.387 . S
C162 C163 1.387 . S
C162 H166 0.950 . S
C162 C171 1.390 . S
C163 C162 1.387 . S
C163 C165 1.387 . S
H164 C171 0.950 . S
C165 C163 1.387 . S
C165 C167 1.390 . S
C165 H169 0.950 . S
H166 C162 0.950 . S
C167 C165 1.390 . S
C167 C168 1.387 . S
C167 H170 0.950 . S
C168 C167 1.387 . S
C168 C171 1.387 . S
H169 C165 0.950 . S
H170 C167 0.950 . S
C171 C162 1.390 . S
C171 H164 0.950 . S
C171 C168 1.387 . S
C172 C173 1.387 . S
C172 H176 0.950 . S
C172 C181 1.390 . S
C173 C172 1.387 . S
C173 C175 1.387 . S
H174 C181 0.950 . S
C175 C173 1.387 . S
C175 C177 1.390 . S
C175 H179 0.950 . S
H176 C172 0.950 . S
C177 C175 1.390 . S
C177 C178 1.387 . S
C177 H180 0.950 . S
C178 C177 1.387 . S
C178 C181 1.387 . S
H179 C175 0.950 . S
H180 C177 0.950 . S
C181 C172 1.390 . S
C181 H174 0.950 . S
C181 C178 1.387 . S
C182 C183 1.387 1_556 S
C182 H186 0.952 . S
C182 C191 1.390 . S
C183 C182 1.387 1_554 S
C183 C185 1.387 1_554 S
H184 C191 0.950 . S
C185 C183 1.387 1_556 S
C185 C187 1.390 . S
C185 H189 0.950 1_556 S
H186 C182 0.952 . S
C187 C185 1.390 . S
C187 C188 1.387 . S
C187 H190 0.950 . S
C188 C187 1.387 . S
C188 C191 1.387 . S
H189 C185 0.950 1_554 S
H190 C187 0.950 . S
C191 C182 1.390 . S
C191 H184 0.950 . S
C191 C188 1.387 . S
C192 C193 1.387 . S
C192 H196 0.950 . S
C192 C201 1.390 1_545 S
C193 C192 1.387 . S
C193 C195 1.387 . S
H194 C201 0.950 . S
C195 C193 1.387 . S
C195 C197 1.390 1_545 S
C195 H199 0.950 . S
H196 C192 0.950 . S
C197 C195 1.390 1_565 S
C197 C198 1.387 . S
C197 H200 0.950 . S
C198 C197 1.387 . S
C198 C201 1.387 . S
H199 C195 0.950 . S
H200 C197 0.950 . S
C201 C192 1.390 1_565 S
C201 H194 0.950 . S
C201 C198 1.387 . S
C202 C203 1.387 . S
C202 H206 0.950 . S
C202 C211 1.390 . S
C203 C202 1.387 . S
C203 C205 1.387 . S
H204 C211 0.950 . S
C205 C203 1.387 . S
C205 C207 1.390 . S
C205 H209 0.950 . S
H206 C202 0.950 . S
C207 C205 1.390 . S
C207 C208 1.387 . S
C207 H210 0.950 . S
C208 C207 1.387 . S
C208 C211 1.387 . S
H209 C205 0.950 . S
H210 C207 0.950 . S
C211 C202 1.390 . S
C211 H204 0.950 . S
C211 C208 1.387 . S
C212 C213 1.387 . S
C212 H216 0.950 . S
C212 C221 1.390 1_655 S
C213 C212 1.387 . S
C213 C215 1.387 . S
H214 C221 0.950 . S
C215 C213 1.387 . S
C215 C217 1.390 1_655 S
C215 H219 0.950 1_556 S
H216 C212 0.950 . S
C217 C215 1.390 1_455 S
C217 C218 1.387 . S
C217 H220 0.950 . S
C218 C217 1.387 . S
C218 C221 1.387 . S
H219 C215 0.950 1_554 S
H220 C217 0.950 . S
C221 C212 1.390 1_455 S
C221 H214 0.950 . S
C221 C218 1.387 . S
C222 C223 1.387 . S
C222 H226 0.950 . S
C222 C231 1.390 1_564 S
C223 C222 1.387 . S
C223 C225 1.387 . S
H224 C231 0.950 . S
C225 C223 1.387 . S
C225 C227 1.390 1_564 S
C225 H229 0.950 . S
H226 C222 0.950 . S
C227 C225 1.390 1_546 S
C227 C228 1.387 . S
C227 H230 0.950 . S
C228 C227 1.387 . S
C228 C231 1.387 . S
H229 C225 0.950 . S
H230 C227 0.950 . S
C231 C222 1.390 1_546 S
C231 H224 0.950 . S
C231 C228 1.387 . S
C232 C233 1.387 . S
C232 H236 0.950 . S
C232 C241 1.390 . S
C233 C232 1.387 . S
C233 C235 1.387 . S
H234 C241 0.945 1_556 S
C235 C233 1.387 . S
C235 C237 1.390 . S
C235 H239 0.950 . S
H236 C232 0.950 . S
C237 C235 1.390 . S
C237 C238 1.387 . S
C237 H240 0.950 . S
C238 C237 1.387 . S
C238 C241 1.387 . S
H239 C235 0.950 . S
H240 C237 0.950 . S
C241 C232 1.390 . S
C241 H234 0.945 1_554 S
C241 C238 1.387 . S
C242 C243 1.387 . S
C242 H246 0.950 . S
C242 C251 1.390 1_655 S
C243 C242 1.387 . S
C243 C245 1.387 . S
H244 C251 0.950 . S
C245 C243 1.387 . S
C245 C247 1.390 1_655 S
C245 H249 0.950 . S
H246 C242 0.950 . S
C247 C245 1.390 1_455 S
C247 C248 1.387 . S
C247 H250 0.950 . S
C248 C247 1.387 . S
C248 C251 1.387 . S
H249 C245 0.950 . S
H250 C247 0.950 . S
C251 C242 1.390 1_455 S
C251 H244 0.950 . S
C251 C248 1.387 . S
C252 C253 1.387 . S
C252 H256 0.950 . S
C252 C261 1.390 . S
C253 C252 1.387 . S
C253 C255 1.387 . S
H254 C261 0.950 . S
C255 C253 1.387 . S
C255 C257 1.390 . S
C255 H259 0.950 . S
H256 C252 0.950 . S
C257 C255 1.390 . S
C257 C258 1.387 . S
C257 H260 0.950 . S
C258 C257 1.387 . S
C258 C261 1.387 . S
H259 C255 0.950 . S
H260 C257 0.950 . S
C261 C252 1.390 . S
C261 H254 0.950 . S
C261 C258 1.387 . S
C262 C263 1.387 . S
C262 H266 0.950 . S
C262 C271 1.390 . S
C263 C262 1.387 . S
C263 C265 1.387 . S
H264 C271 0.950 . S
C265 C263 1.387 . S
C265 C267 1.390 . S
C265 H269 0.950 . S
H266 C262 0.950 . S
C267 C265 1.390 . S
C267 C268 1.387 . S
C267 H270 0.950 . S
C268 C267 1.387 . S
C268 C271 1.387 . S
H269 C265 0.950 . S
H270 C267 0.950 . S
C271 C262 1.390 . S
C271 H264 0.950 . S
C271 C268 1.387 . S
C272 C273 1.387 . S
C272 H276 0.950 . S
C272 C281 1.390 . S
C273 C272 1.387 . S
C273 C275 1.387 . S
H274 C281 0.950 . S
C275 C273 1.387 . S
C275 C277 1.390 . S
C275 H279 0.950 . S
H276 C272 0.950 . S
C277 C275 1.390 . S
C277 C278 1.387 . S
C277 H280 0.950 . S
C278 C277 1.387 . S
C278 C281 1.387 . S
H279 C275 0.950 . S
H280 C277 0.950 . S
C281 C272 1.390 . S
C281 H274 0.950 . S
C281 C278 1.387 . S
C282 C283 1.387 . S
C282 H286 0.950 . S
C282 C291 1.390 . S
C283 C282 1.387 . S
C283 C285 1.387 1_556 S
H284 C291 0.950 . S
C285 C283 1.387 1_554 S
C285 C287 1.390 . S
C285 H289 0.950 . S
H286 C282 0.950 . S
C287 C285 1.390 . S
C287 C288 1.387 1_554 S
C287 H290 0.950 . S
C288 C287 1.387 1_556 S
C288 C291 1.387 . S
H289 C285 0.950 . S
H290 C287 0.950 . S
C291 C282 1.390 . S
C291 H284 0.950 . S
C291 C288 1.387 . S
C292 C293 1.387 . S
C292 H296 0.950 1_554 S
C292 C301 1.390 . S
C293 C292 1.387 . S
C293 C295 1.387 . S
H294 C301 0.950 1_556 S
C295 C293 1.387 . S
C295 C297 1.390 . S
C295 H299 0.950 . S
H296 C292 0.950 1_556 S
C297 C295 1.390 . S
C297 C298 1.387 . S
C297 H300 0.950 . S
C298 C297 1.387 . S
C298 C301 1.387 . S
H299 C295 0.950 . S
H300 C297 0.950 . S
C301 C292 1.390 . S
C301 H294 0.950 1_554 S
C301 C298 1.387 . S
C302 C303 1.387 . S
C302 H306 0.950 . S
C302 C311 1.390 . S
C303 C302 1.387 . S
C303 C305 1.387 . S
H304 C311 0.950 . S
C305 C303 1.387 . S
C305 C307 1.390 . S
C305 H309 0.950 . S
H306 C302 0.950 . S
C307 C305 1.390 . S
C307 C308 1.387 . S
C307 H310 0.950 . S
C308 C307 1.387 . S
C308 C311 1.387 . S
H309 C305 0.950 . S
H310 C307 0.950 . S
C311 C302 1.390 . S
C311 H304 0.950 . S
C311 C308 1.387 . S
C133 C7 1.551 . S
C138 C6 1.552 . S
C143 C29 1.549 . S
C148 C28 1.549 . S
C153 C50 1.549 . S
C158 C51 1.551 . S
C163 C72 1.550 . S
C168 C73 1.549 . S
C173 C94 1.549 . S
C178 C95 1.549 . S
C183 C117 1.550 . S
C188 C116 1.549 . S
C193 C5 1.615 . S
C198 C119 1.615 . S
C203 C9 1.614 . S
C208 C27 1.615 . S
C213 C49 1.614 . S
C218 C31 1.615 . S
C223 C71 1.615 . S
C228 C53 1.615 . S
C233 C93 1.613 . S
C238 C75 1.614 . S
C243 C97 1.613 . S
C248 C115 1.614 . S
C253 C8 1.321 . S
C258 C92 1.319 . S
C263 C30 1.319 . S
C268 C114 1.321 . S
C273 C52 1.322 . S
C278 C4 1.322 . S
C283 C74 1.319 . S
C288 C26 1.321 . S
C293 C96 1.318 . S
C298 C48 1.320 . S
C303 C70 1.322 . S
C308 C118 1.322 . S
