# Generated by pormake.
# Topology pcb, (4)-cn, num edge types: 1
# Building blocks:
#     Node 0, Type 0, BuildingBlock: KUFVIS_clean_sbu_0, # of connection points: 4
#     Node 1, Type 0, BuildingBlock: KUFVIS_clean_sbu_0, # of connection points: 4
#     Node 2, Type 0, BuildingBlock: KUFVIS_clean_sbu_0, # of connection points: 4
#     Node 3, Type 0, BuildingBlock: KUFVIS_clean_sbu_0, # of connection points: 4
#     Node 4, Type 0, BuildingBlock: KUFVIS_clean_sbu_0, # of connection points: 4
#     Node 5, Type 0, BuildingBlock: KUFVIS_clean_sbu_0, # of connection points: 4
#     Node 6, Type 0, BuildingBlock: KUFVIS_clean_sbu_0, # of connection points: 4
#     Node 7, Type 0, BuildingBlock: KUFVIS_clean_sbu_0, # of connection points: 4
#     Node 8, Type 0, BuildingBlock: KUFVIS_clean_sbu_0, # of connection points: 4
#     Node 9, Type 0, BuildingBlock: KUFVIS_clean_sbu_0, # of connection points: 4
#     Node 10, Type 0, BuildingBlock: KUFVIS_clean_sbu_0, # of connection points: 4
#     Node 11, Type 0, BuildingBlock: KUFVIS_clean_sbu_0, # of connection points: 4
#     Node 12, Type 0, BuildingBlock: KUFVIS_clean_sbu_0, # of connection points: 4
#     Node 13, Type 0, BuildingBlock: KUFVIS_clean_sbu_0, # of connection points: 4
#     Node 14, Type 0, BuildingBlock: KUFVIS_clean_sbu_0, # of connection points: 4
#     Node 15, Type 0, BuildingBlock: KUFVIS_clean_sbu_0, # of connection points: 4
#     Edge 16, Type (0, 0), BuildingBlock: XUDNAN_clean_linker_2, # of connection points: 2
#     Edge 17, Type (0, 0), BuildingBlock: XUDNAN_clean_linker_2, # of connection points: 2
#     Edge 18, Type (0, 0), BuildingBlock: XUDNAN_clean_linker_2, # of connection points: 2
#     Edge 19, Type (0, 0), BuildingBlock: XUDNAN_clean_linker_2, # of connection points: 2
#     Edge 20, Type (0, 0), BuildingBlock: XUDNAN_clean_linker_2, # of connection points: 2
#     Edge 21, Type (0, 0), BuildingBlock: XUDNAN_clean_linker_2, # of connection points: 2
#     Edge 22, Type (0, 0), BuildingBlock: XUDNAN_clean_linker_2, # of connection points: 2
#     Edge 23, Type (0, 0), BuildingBlock: XUDNAN_clean_linker_2, # of connection points: 2
#     Edge 24, Type (0, 0), BuildingBlock: XUDNAN_clean_linker_2, # of connection points: 2
#     Edge 25, Type (0, 0), BuildingBlock: XUDNAN_clean_linker_2, # of connection points: 2
#     Edge 26, Type (0, 0), BuildingBlock: XUDNAN_clean_linker_2, # of connection points: 2
#     Edge 27, Type (0, 0), BuildingBlock: XUDNAN_clean_linker_2, # of connection points: 2
#     Edge 28, Type (0, 0), BuildingBlock: XUDNAN_clean_linker_2, # of connection points: 2
#     Edge 29, Type (0, 0), BuildingBlock: XUDNAN_clean_linker_2, # of connection points: 2
#     Edge 30, Type (0, 0), BuildingBlock: XUDNAN_clean_linker_2, # of connection points: 2
#     Edge 31, Type (0, 0), BuildingBlock: XUDNAN_clean_linker_2, # of connection points: 2
#     Edge 32, Type (0, 0), BuildingBlock: XUDNAN_clean_linker_2, # of connection points: 2
#     Edge 33, Type (0, 0), BuildingBlock: XUDNAN_clean_linker_2, # of connection points: 2
#     Edge 34, Type (0, 0), BuildingBlock: XUDNAN_clean_linker_2, # of connection points: 2
#     Edge 35, Type (0, 0), BuildingBlock: XUDNAN_clean_linker_2, # of connection points: 2
#     Edge 36, Type (0, 0), BuildingBlock: XUDNAN_clean_linker_2, # of connection points: 2
#     Edge 37, Type (0, 0), BuildingBlock: XUDNAN_clean_linker_2, # of connection points: 2
#     Edge 38, Type (0, 0), BuildingBlock: XUDNAN_clean_linker_2, # of connection points: 2
#     Edge 39, Type (0, 0), BuildingBlock: XUDNAN_clean_linker_2, # of connection points: 2
#     Edge 40, Type (0, 0), BuildingBlock: XUDNAN_clean_linker_2, # of connection points: 2
#     Edge 41, Type (0, 0), BuildingBlock: XUDNAN_clean_linker_2, # of connection points: 2
#     Edge 42, Type (0, 0), BuildingBlock: XUDNAN_clean_linker_2, # of connection points: 2
#     Edge 43, Type (0, 0), BuildingBlock: XUDNAN_clean_linker_2, # of connection points: 2
#     Edge 44, Type (0, 0), BuildingBlock: XUDNAN_clean_linker_2, # of connection points: 2
#     Edge 45, Type (0, 0), BuildingBlock: XUDNAN_clean_linker_2, # of connection points: 2
#     Edge 46, Type (0, 0), BuildingBlock: XUDNAN_clean_linker_2, # of connection points: 2
#     Edge 47, Type (0, 0), BuildingBlock: XUDNAN_clean_linker_2, # of connection points: 2
# Relax obj value: 0.289
# Max RMSD: 0.149
# Mean RMSD: 0.149
data_MOF--net-pcb--node1-KUFVIS_clean_sbu_0--edge1-XUDNAN_clean_linker_2
_symmetry_space_group_name_H-M    P1
_symmetry_Int_Tables_number       1
_symmetry_cell_setting            triclinic
loop_
_symmetry_equiv_pos_as_xyz
'x, y, z'
_cell_length_a     38.879547
_cell_length_b     48.625989
_cell_length_c     48.564424
_cell_angle_alpha  89.960996
_cell_angle_beta   89.982211
_cell_angle_gamma 89.950594
loop_
_atom_site_label
_atom_site_type_symbol
_atom_site_fract_x
_atom_site_fract_y
_atom_site_fract_z
_atom_type_partial_charge
Mn0 Mn 0.18153 0.16287 0.1445 0.0
Mn1 Mn 0.14255 0.21989 0.1194 0.0
C2 C 0.12781 0.17585 0.16071 0.0
C3 C 0.19648 0.11626 0.14412 0.0
C4 C 0.20023 0.2218 0.16114 0.0
O5 O 0.2069 0.16975 0.10832 0.0
O6 O 0.17653 0.20582 0.09226 0.0
C7 C 0.10577 0.19531 0.07195 0.0
N8 N 0.10505 0.20956 0.09611 0.0
C9 C 0.04406 0.21696 0.09214 0.0
C10 C 0.04418 0.20247 0.06719 0.0
C11 C 0.07514 0.19146 0.05715 0.0
C12 C 0.07527 0.21975 0.10623 0.0
H13 H 0.12951 0.18704 0.06395 0.0
C14 C 0.1992 0.18689 0.08932 0.0
O15 O 0.21554 0.1347 0.15575 0.0
O16 O 0.16859 0.12488 0.13203 0.0
N17 N 0.10816 0.23519 0.14316 0.0
C18 C 0.11245 0.24934 0.16715 0.0
C19 C 0.08381 0.26135 0.18003 0.0
C20 C 0.05116 0.25917 0.16789 0.0
C21 C 0.04748 0.24512 0.14287 0.0
C22 C 0.07692 0.23341 0.13106 0.0
H23 H 0.13748 0.25144 0.17649 0.0
O24 O 0.14754 0.16003 0.1754 0.0
O25 O 0.13985 0.18333 0.13693 0.0
O26 O 0.20345 0.19588 0.16301 0.0
O27 O 0.1799 0.23335 0.14404 0.0
C28 C 0.01585 0.24268 0.12899 0.0
C29 C 0.01421 0.22884 0.10353 0.0
H30 H 0.02064 0.19963 0.05561 0.0
H31 H 0.07545 0.18022 0.03792 0.0
H32 H 0.08692 0.27237 0.19923 0.0
H33 H 0.02914 0.26852 0.17786 0.0
H34 H 0.99266 0.25154 0.13762 0.0
H35 H 0.98975 0.22721 0.09298 0.0
Mn36 Mn 0.82409 0.14426 0.1662 0.0
Mn37 Mn 0.86684 0.11381 0.21849 0.0
C38 C 0.87822 0.16 0.17877 0.0
C39 C 0.8087 0.14555 0.11975 0.0
C40 C 0.80635 0.15262 0.22685 0.0
O41 O 0.79944 0.10729 0.17105 0.0
O42 O 0.83487 0.08692 0.20166 0.0
C43 C 0.90725 0.07211 0.188 0.0
N44 N 0.90612 0.09431 0.20508 0.0
C45 C 0.9675 0.0933 0.21121 0.0
C46 C 0.9693 0.07031 0.19384 0.0
C47 C 0.93907 0.05981 0.18203 0.0
C48 C 0.93512 0.10489 0.21614 0.0
H49 H 0.88403 0.06377 0.17912 0.0
C50 C 0.80984 0.08623 0.18453 0.0
O51 O 0.78962 0.1569 0.13847 0.0
O52 O 0.83668 0.13344 0.12784 0.0
N53 N 0.89926 0.13755 0.23624 0.0
C54 C 0.89309 0.15943 0.25308 0.0
C55 C 0.92074 0.17251 0.26627 0.0
C56 C 0.95437 0.16271 0.26238 0.0
C57 C 0.96004 0.13983 0.24542 0.0
C58 C 0.93148 0.12768 0.23276 0.0
H59 H 0.8673 0.1669 0.25649 0.0
O60 O 0.85766 0.17562 0.16462 0.0
O61 O 0.86668 0.13569 0.18461 0.0
O62 O 0.80302 0.15987 0.20174 0.0
O63 O 0.82745 0.13403 0.23472 0.0
C64 C 0.99287 0.12851 0.24076 0.0
C65 C 0.99658 0.10517 0.2238 0.0
H66 H 0.99379 0.06068 0.1893 0.0
H67 H 0.94027 0.04214 0.16852 0.0
H68 H 0.91611 0.19004 0.27948 0.0
H69 H 0.97564 0.17286 0.27258 0.0
H70 H 0.01544 0.13753 0.25019 0.0
H71 H 0.02196 0.0966 0.22043 0.0
Mn72 Mn 0.82404 0.84288 0.14972 0.0
Mn73 Mn 0.86569 0.79111 0.11781 0.0
C74 C 0.87788 0.8291 0.16518 0.0
C75 C 0.8098 0.88949 0.15172 0.0
C76 C 0.80403 0.78287 0.15544 0.0
O77 O 0.79905 0.83895 0.11275 0.0
O78 O 0.83595 0.81039 0.09084 0.0
C79 C 0.90976 0.81996 0.07733 0.0
N80 N 0.90664 0.80323 0.09969 0.0
C81 C 0.96735 0.79356 0.09952 0.0
C82 C 0.97114 0.81059 0.0764 0.0
C83 C 0.94225 0.82402 0.0654 0.0
C84 C 0.93435 0.79045 0.11062 0.0
H85 H 0.88757 0.8298 0.06842 0.0
C86 C 0.81038 0.82703 0.0911 0.0
O87 O 0.79025 0.87096 0.16286 0.0
O88 O 0.83755 0.88112 0.13949 0.0
N89 N 0.89591 0.77157 0.14212 0.0
C90 C 0.88788 0.75528 0.16406 0.0
C91 C 0.91414 0.74104 0.1779 0.0
C92 C 0.9483 0.74332 0.16881 0.0
C93 C 0.9559 0.75985 0.14595 0.0
C94 C 0.92871 0.77377 0.13312 0.0
H95 H 0.86169 0.7531 0.17102 0.0
O96 O 0.85773 0.84326 0.18113 0.0
O97 O 0.8662 0.82412 0.14073 0.0
O98 O 0.80229 0.80741 0.16459 0.0
O99 O 0.82449 0.77564 0.13617 0.0
C100 C 0.98936 0.76289 0.13529 0.0
C101 C 0.99503 0.77951 0.11193 0.0
H102 H 0.99615 0.81366 0.06706 0.0
H103 H 0.94496 0.83724 0.04759 0.0
H104 H 0.90802 0.72822 0.19545 0.0
H105 H 0.96847 0.73224 0.17949 0.0
H106 H 0.0109 0.7524 0.14478 0.0
H107 H 0.02085 0.78152 0.10379 0.0
Mn108 Mn 0.18066 0.8621 0.16847 0.0
Mn109 Mn 0.13977 0.89355 0.22087 0.0
C110 C 0.127 0.84653 0.18253 0.0
C111 C 0.19461 0.86053 0.12178 0.0
C112 C 0.20179 0.85607 0.22818 0.0
O113 O 0.20554 0.89907 0.17252 0.0
O114 O 0.16842 0.92089 0.20098 0.0
C115 C 0.09414 0.93391 0.19342 0.0
N116 N 0.09812 0.91127 0.20962 0.0
C117 C 0.03762 0.91044 0.22008 0.0
C118 C 0.03296 0.93378 0.20353 0.0
C119 C 0.06132 0.94545 0.18998 0.0
C120 C 0.07094 0.8998 0.22264 0.0
H121 H 0.11591 0.94339 0.18357 0.0
C122 C 0.19375 0.92076 0.18407 0.0
O123 O 0.21423 0.84921 0.14017 0.0
O124 O 0.16687 0.87267 0.13033 0.0
N125 N 0.11051 0.86874 0.24074 0.0
C126 C 0.11934 0.84671 0.25664 0.0
C127 C 0.09369 0.83231 0.27101 0.0
C128 C 0.05928 0.84089 0.26922 0.0
C129 C 0.05083 0.86382 0.25307 0.0
C130 C 0.07746 0.87723 0.23901 0.0
H131 H 0.1457 0.84009 0.25844 0.0
O132 O 0.14698 0.83074 0.16805 0.0
O133 O 0.13874 0.8709 0.18764 0.0
O134 O 0.20277 0.84691 0.20363 0.0
O135 O 0.18178 0.87555 0.23566 0.0
C136 C 0.01705 0.87394 0.25048 0.0
C137 C 0.01049 0.89738 0.23421 0.0
H138 H 0.00769 0.94282 0.20094 0.0
H139 H 0.05796 0.96347 0.17717 0.0
H140 H 0.10046 0.8147 0.28352 0.0
H141 H 0.03958 0.82977 0.28038 0.0
H142 H 0.99594 0.86397 0.26107 0.0
H143 H 0.98444 0.90512 0.23258 0.0
Mn144 Mn 0.18264 0.85129 0.86879 0.0
Mn145 Mn 0.15201 0.79183 0.89514 0.0
C146 C 0.13094 0.83346 0.85314 0.0
C147 C 0.18975 0.89889 0.8699 0.0
C148 C 0.21081 0.79433 0.85409 0.0
O149 O 0.20943 0.84689 0.90467 0.0
O150 O 0.18286 0.8097 0.92246 0.0
C151 C 0.11017 0.81396 0.9411 0.0
N152 N 0.11242 0.79914 0.91737 0.0
C153 C 0.05228 0.78766 0.91938 0.0
C154 C 0.04938 0.80267 0.94392 0.0
C155 C 0.07842 0.81598 0.95474 0.0
C156 C 0.08451 0.78657 0.90657 0.0
H157 H 0.13243 0.82413 0.94962 0.0
C158 C 0.20348 0.83018 0.92445 0.0
O159 O 0.21129 0.88307 0.85711 0.0
O160 O 0.16401 0.8872 0.88232 0.0
N161 N 0.12094 0.773 0.87103 0.0
C162 C 0.12806 0.75903 0.84737 0.0
C163 C 0.10166 0.74466 0.83389 0.0
C164 C 0.06831 0.74456 0.845 0.0
C165 C 0.06171 0.75868 0.8696 0.0
C166 C 0.08907 0.77257 0.88217 0.0
H167 H 0.15364 0.75882 0.83877 0.0
O168 O 0.14798 0.85094 0.83822 0.0
O169 O 0.14446 0.8273 0.87676 0.0
O170 O 0.20931 0.82024 0.85049 0.0
O171 O 0.19208 0.78168 0.87163 0.0
C172 C 0.02909 0.75941 0.88218 0.0
C173 C 0.02441 0.77379 0.9071 0.0
H174 H 0.02495 0.80423 0.95453 0.0
H175 H 0.07637 0.82769 0.97362 0.0
H176 H 0.10701 0.7337 0.81499 0.0
H177 H 0.04799 0.73353 0.83449 0.0
H178 H 0.00742 0.74895 0.87289 0.0
H179 H 0.9992 0.77418 0.9166 0.0
Mn180 Mn 0.17018 0.15299 0.84576 0.0
Mn181 Mn 0.13054 0.11886 0.79427 0.0
C182 C 0.11557 0.16628 0.83169 0.0
C183 C 0.18491 0.15668 0.8922 0.0
C184 C 0.18923 0.15908 0.78511 0.0
O185 O 0.19657 0.11663 0.84313 0.0
O186 O 0.16306 0.09362 0.81303 0.0
C187 C 0.09104 0.07708 0.82537 0.0
N188 N 0.09172 0.09878 0.80762 0.0
C189 C 0.03076 0.09548 0.79985 0.0
C190 C 0.02945 0.07295 0.81786 0.0
C191 C 0.05968 0.06386 0.83084 0.0
C192 C 0.06268 0.108 0.7954 0.0
H193 H 0.11428 0.06977 0.83512 0.0
C194 C 0.18742 0.0946 0.83075 0.0
O195 O 0.20366 0.16777 0.87312 0.0
O196 O 0.15745 0.14362 0.88451 0.0
N197 N 0.09767 0.14103 0.77496 0.0
C198 C 0.10333 0.16274 0.75777 0.0
C199 C 0.07553 0.17467 0.74368 0.0
C200 C 0.04228 0.16392 0.74706 0.0
C201 C 0.03716 0.14127 0.76446 0.0
C202 C 0.06583 0.13033 0.77809 0.0
H203 H 0.12882 0.17095 0.75478 0.0
O204 O 0.13494 0.18325 0.84532 0.0
O205 O 0.12857 0.14215 0.82719 0.0
O206 O 0.1913 0.16763 0.80987 0.0
O207 O 0.16949 0.1394 0.77782 0.0
C208 C 0.00477 0.12903 0.76866 0.0
C209 C 0.00162 0.10602 0.78616 0.0
H210 H 0.00533 0.06261 0.82203 0.0
H211 H 0.05884 0.04657 0.84487 0.0
H212 H 0.07973 0.19205 0.73017 0.0
H213 H 0.02091 0.17315 0.73614 0.0
H214 H 0.98213 0.13707 0.75844 0.0
H215 H 0.97659 0.09671 0.78913 0.0
Mn216 Mn 0.81321 0.15771 0.86553 0.0
Mn217 Mn 0.8487 0.21487 0.89323 0.0
C218 C 0.86524 0.17436 0.84915 0.0
C219 C 0.80181 0.11052 0.86258 0.0
C220 C 0.78842 0.21652 0.85384 0.0
O221 O 0.78922 0.16072 0.90281 0.0
O222 O 0.8168 0.19761 0.92027 0.0
C223 C 0.88912 0.18994 0.93859 0.0
N224 N 0.88782 0.20523 0.91509 0.0
C225 C 0.94814 0.2158 0.91826 0.0
C226 C 0.95008 0.20026 0.94255 0.0
C227 C 0.92048 0.18712 0.95264 0.0
C228 C 0.9163 0.21753 0.90493 0.0
H229 H 0.86638 0.1801 0.94669 0.0
C230 C 0.79595 0.17729 0.92255 0.0
O231 O 0.78096 0.12891 0.85296 0.0
O232 O 0.8295 0.11948 0.87468 0.0
N233 N 0.8809 0.23297 0.8695 0.0
C234 C 0.8747 0.24753 0.846 0.0
C235 C 0.90189 0.26136 0.83295 0.0
C236 C 0.93503 0.26046 0.84439 0.0
C237 C 0.94067 0.24579 0.86883 0.0
C238 C 0.91264 0.23223 0.88082 0.0
H239 H 0.84927 0.24853 0.83717 0.0
O240 O 0.84601 0.15894 0.83368 0.0
O241 O 0.85352 0.17958 0.8736 0.0
O242 O 0.7874 0.19067 0.85034 0.0
O243 O 0.80941 0.22798 0.87043 0.0
C244 C 0.97291 0.24441 0.88196 0.0
C245 C 0.97655 0.22968 0.9068 0.0
H246 H 0.97418 0.19819 0.95354 0.0
H247 H 0.92178 0.17505 0.97134 0.0
H248 H 0.89727 0.27277 0.81417 0.0
H249 H 0.95592 0.27122 0.8343 0.0
H250 H 0.99504 0.25474 0.87321 0.0
H251 H 0.00145 0.22888 0.91678 0.0
Mn252 Mn 0.82655 0.85707 0.8482 0.0
Mn253 Mn 0.86869 0.88465 0.79389 0.0
C254 C 0.88093 0.84114 0.83663 0.0
C255 C 0.80978 0.85715 0.89439 0.0
C256 C 0.80994 0.84412 0.78819 0.0
O257 O 0.80111 0.89318 0.84121 0.0
O258 O 0.8362 0.9122 0.8094 0.0
C259 C 0.9083 0.92891 0.82134 0.0
N260 N 0.90763 0.90543 0.80607 0.0
C261 C 0.96915 0.90633 0.80059 0.0
C262 C 0.97044 0.93048 0.81633 0.0
C263 C 0.93989 0.94173 0.82685 0.0
C264 C 0.93695 0.89427 0.79609 0.0
H265 H 0.88492 0.93794 0.82902 0.0
C266 C 0.81117 0.91342 0.82652 0.0
O267 O 0.79147 0.84538 0.87548 0.0
O268 O 0.83787 0.8693 0.88645 0.0
N269 N 0.90175 0.86027 0.77763 0.0
C270 C 0.89614 0.83752 0.76184 0.0
C271 C 0.92413 0.82393 0.74963 0.0
C272 C 0.95758 0.83408 0.75335 0.0
C273 C 0.96272 0.85784 0.76914 0.0
C274 C 0.93382 0.87051 0.78086 0.0
H275 H 0.87055 0.82974 0.75847 0.0
O276 O 0.86056 0.82621 0.85165 0.0
O277 O 0.86915 0.86504 0.82937 0.0
O278 O 0.80683 0.83932 0.8138 0.0
O279 O 0.82983 0.86266 0.7785 0.0
C280 C 0.99538 0.86954 0.77354 0.0
C281 C 0.99857 0.89382 0.78916 0.0
H282 H 0.99475 0.94052 0.82047 0.0
H283 H 0.94064 0.96039 0.83897 0.0
H284 H 0.9199 0.80572 0.73729 0.0
H285 H 0.97912 0.82354 0.74392 0.0
H286 H 0.01819 0.86009 0.7649 0.0
H287 H 0.02382 0.90268 0.7923 0.0
Mn288 Mn 0.68865 0.65531 0.64041 0.0
Mn289 Mn 0.64967 0.71169 0.61384 0.0
C290 C 0.63486 0.6687 0.65633 0.0
C291 C 0.70476 0.6089 0.64211 0.0
C292 C 0.70864 0.71476 0.65438 0.0
O293 O 0.71372 0.66102 0.60389 0.0
O294 O 0.68329 0.69666 0.58685 0.0
C295 C 0.61198 0.68564 0.56767 0.0
N296 N 0.61174 0.70074 0.5913 0.0
C297 C 0.55067 0.70801 0.58786 0.0
C298 C 0.55029 0.69262 0.56346 0.0
C299 C 0.58106 0.68125 0.55341 0.0
C300 C 0.58216 0.7113 0.60143 0.0
H301 H 0.63559 0.67709 0.55967 0.0
C302 C 0.70605 0.6777 0.58445 0.0
O303 O 0.72318 0.62824 0.65279 0.0
O304 O 0.67657 0.61641 0.62967 0.0
N305 N 0.61576 0.7279 0.63742 0.0
C306 C 0.62059 0.74301 0.66075 0.0
C307 C 0.59226 0.75571 0.67343 0.0
C308 C 0.55938 0.75318 0.66177 0.0
C309 C 0.55516 0.73812 0.6374 0.0
C310 C 0.58432 0.72583 0.62572 0.0
H311 H 0.64581 0.74536 0.6697 0.0
O312 O 0.65477 0.65351 0.67153 0.0
O313 O 0.64686 0.6755 0.63233 0.0
O314 O 0.71087 0.68891 0.65723 0.0
O315 O 0.68767 0.72598 0.63755 0.0
C316 C 0.52324 0.73518 0.62404 0.0
C317 C 0.52105 0.72031 0.59919 0.0
H318 H 0.52652 0.68936 0.5523 0.0
H319 H 0.58098 0.66932 0.53461 0.0
H320 H 0.5958 0.76749 0.69211 0.0
H321 H 0.5376 0.76303 0.67159 0.0
H322 H 0.50024 0.74441 0.63261 0.0
H323 H 0.49637 0.7183 0.58904 0.0
Mn324 Mn 0.32743 0.64825 0.66307 0.0
Mn325 Mn 0.36795 0.61814 0.71706 0.0
C326 C 0.384 0.65965 0.67308 0.0
C327 C 0.30795 0.65014 0.61746 0.0
C328 C 0.31623 0.66418 0.72357 0.0
O329 O 0.29794 0.61434 0.67083 0.0
O330 O 0.32917 0.59471 0.7047 0.0
C331 C 0.39569 0.56916 0.68833 0.0
N332 N 0.40098 0.59228 0.70358 0.0
C333 C 0.46158 0.58283 0.70686 0.0
C334 C 0.45677 0.55887 0.69128 0.0
C335 C 0.42371 0.55212 0.68181 0.0
C336 C 0.43282 0.59934 0.71218 0.0
H337 H 0.3703 0.56368 0.68127 0.0
C338 C 0.30416 0.59473 0.68761 0.0
O339 O 0.29262 0.66306 0.63726 0.0
O340 O 0.33479 0.63554 0.62409 0.0
N341 N 0.40664 0.63806 0.73106 0.0
C342 C 0.4068 0.66122 0.74689 0.0
C343 C 0.43797 0.67082 0.75786 0.0
C344 C 0.46853 0.6562 0.75302 0.0
C345 C 0.46758 0.63194 0.73746 0.0
C346 C 0.43579 0.62345 0.7269 0.0
H347 H 0.38338 0.67238 0.75107 0.0
O348 O 0.3649 0.67613 0.6586 0.0
O349 O 0.36974 0.63676 0.68087 0.0
O350 O 0.31136 0.66768 0.69792 0.0
O351 O 0.33529 0.64517 0.73338 0.0
C352 C 0.49681 0.61554 0.73254 0.0
C353 C 0.49375 0.59089 0.71746 0.0
H354 H 0.47827 0.54553 0.68646 0.0
H355 H 0.41976 0.53369 0.66973 0.0
H356 H 0.43841 0.68939 0.77012 0.0
H357 H 0.49251 0.66362 0.76157 0.0
H358 H 0.52173 0.62158 0.74045 0.0
H359 H 0.51639 0.57839 0.71391 0.0
Mn360 Mn 0.3093 0.35235 0.65166 0.0
Mn361 Mn 0.34898 0.30471 0.61255 0.0
C362 C 0.36602 0.33944 0.66079 0.0
C363 C 0.29419 0.39826 0.65984 0.0
C364 C 0.29492 0.29054 0.6555 0.0
O365 O 0.2804 0.35192 0.61637 0.0
O366 O 0.31187 0.32231 0.59099 0.0
C367 C 0.37972 0.34204 0.57104 0.0
N368 N 0.38353 0.32231 0.59074 0.0
C369 C 0.4448 0.32117 0.58392 0.0
C370 C 0.44152 0.34141 0.5635 0.0
C371 C 0.40883 0.35196 0.55712 0.0
C372 C 0.41491 0.31237 0.59737 0.0
H373 H 0.35467 0.35021 0.56599 0.0
C374 C 0.28751 0.3398 0.59368 0.0
O375 O 0.27662 0.37808 0.67025 0.0
O376 O 0.32041 0.39177 0.64464 0.0
N377 N 0.38636 0.28674 0.63081 0.0
C378 C 0.38519 0.26753 0.65123 0.0
C379 C 0.41557 0.2542 0.65935 0.0
C380 C 0.44676 0.26062 0.64627 0.0
C381 C 0.44747 0.28078 0.62564 0.0
C382 C 0.41633 0.29317 0.61822 0.0
H383 H 0.36118 0.26206 0.66096 0.0
O384 O 0.34723 0.35054 0.67992 0.0
O385 O 0.35055 0.33599 0.6375 0.0
O386 O 0.29063 0.31498 0.66446 0.0
O387 O 0.31455 0.28476 0.63517 0.0
C388 C 0.4778 0.28888 0.61195 0.0
C389 C 0.47653 0.30933 0.59138 0.0
H390 H 0.4639 0.34899 0.5526 0.0
H391 H 0.40608 0.36763 0.54143 0.0
H392 H 0.4149 0.23879 0.67543 0.0
H393 H 0.47008 0.25005 0.65239 0.0
H394 H 0.50228 0.2796 0.61718 0.0
H395 H 0.50007 0.31562 0.58124 0.0
Mn396 Mn 0.67193 0.36318 0.66148 0.0
Mn397 Mn 0.64427 0.39771 0.71745 0.0
C398 C 0.61561 0.35804 0.67686 0.0
C399 C 0.68313 0.36157 0.61433 0.0
C400 C 0.69068 0.34767 0.72049 0.0
O401 O 0.70741 0.39381 0.66597 0.0
O402 O 0.68212 0.41849 0.69975 0.0
C403 C 0.61564 0.4472 0.69 0.0
N404 N 0.61122 0.42483 0.70654 0.0
C405 C 0.55138 0.43572 0.71314 0.0
C406 C 0.55534 0.45887 0.69623 0.0
C407 C 0.58759 0.46459 0.68456 0.0
C408 C 0.58019 0.419 0.71765 0.0
H409 H 0.64033 0.45176 0.681 0.0
C410 C 0.70473 0.41536 0.68085 0.0
O411 O 0.69911 0.34559 0.63148 0.0
O412 O 0.66037 0.37833 0.62442 0.0
N413 N 0.6066 0.37992 0.73561 0.0
C414 C 0.60682 0.35655 0.75112 0.0
C415 C 0.57676 0.34844 0.76492 0.0
C416 C 0.54684 0.36446 0.76271 0.0
C417 C 0.54704 0.38819 0.74633 0.0
C418 C 0.57789 0.39548 0.73338 0.0
H419 H 0.62981 0.34433 0.75331 0.0
O420 O 0.62947 0.3396 0.661 0.0
O421 O 0.63518 0.37871 0.6828 0.0
O422 O 0.68975 0.3422 0.69485 0.0
O423 O 0.67728 0.36929 0.73097 0.0
C424 C 0.51785 0.40494 0.74243 0.0
C425 C 0.51994 0.42854 0.72562 0.0
H426 H 0.53379 0.47237 0.69203 0.0
H427 H 0.5908 0.48239 0.67144 0.0
H428 H 0.57673 0.33 0.7774 0.0
H429 H 0.52379 0.35827 0.77359 0.0
H430 H 0.49362 0.39979 0.75215 0.0
H431 H 0.49724 0.44111 0.72255 0.0
Mn432 Mn 0.67637 0.34384 0.36031 0.0
Mn433 Mn 0.63162 0.29351 0.39195 0.0
C434 C 0.62118 0.33322 0.34546 0.0
C435 C 0.6944 0.38959 0.35905 0.0
C436 C 0.69102 0.28275 0.35257 0.0
O437 O 0.7016 0.33831 0.3969 0.0
O438 O 0.66459 0.3098 0.41843 0.0
C439 C 0.59312 0.32568 0.43356 0.0
N440 N 0.59321 0.30834 0.41153 0.0
C441 C 0.53156 0.30434 0.41283 0.0
C442 C 0.53085 0.32195 0.43568 0.0
C443 C 0.56174 0.33282 0.44595 0.0
C444 C 0.56358 0.29814 0.4012 0.0
H445 H 0.61683 0.33388 0.4417 0.0
C446 C 0.6906 0.32594 0.41842 0.0
O447 O 0.71199 0.37031 0.3471 0.0
O448 O 0.66623 0.38247 0.37147 0.0
N449 N 0.59815 0.27648 0.36861 0.0
C450 C 0.60328 0.25921 0.34688 0.0
C451 C 0.57487 0.2468 0.33408 0.0
C452 C 0.54154 0.25193 0.34397 0.0
C453 C 0.53692 0.26934 0.36667 0.0
C454 C 0.56619 0.28115 0.37859 0.0
H455 H 0.62881 0.25487 0.33935 0.0
O456 O 0.64209 0.34656 0.32945 0.0
O457 O 0.63307 0.32703 0.36961 0.0
O458 O 0.69511 0.30754 0.34461 0.0
O459 O 0.67008 0.27591 0.37169 0.0
C460 C 0.50441 0.27535 0.37799 0.0
C461 C 0.50175 0.29275 0.40111 0.0
H462 H 0.5067 0.32743 0.44537 0.0
H463 H 0.56137 0.34654 0.46349 0.0
H464 H 0.57868 0.23325 0.31668 0.0
H465 H 0.51969 0.24235 0.33402 0.0
H466 H 0.4813 0.26665 0.36911 0.0
H467 H 0.47662 0.29718 0.40966 0.0
Mn468 Mn 0.6855 0.63947 0.34172 0.0
Mn469 Mn 0.64512 0.603 0.2924 0.0
C470 C 0.6284 0.64894 0.33029 0.0
C471 C 0.70202 0.64444 0.38764 0.0
C472 C 0.69812 0.64725 0.28004 0.0
O473 O 0.7152 0.6048 0.33816 0.0
O474 O 0.68293 0.58074 0.30808 0.0
C475 C 0.61571 0.55909 0.32756 0.0
N476 N 0.61121 0.57994 0.30916 0.0
C477 C 0.54995 0.57304 0.30884 0.0
C478 C 0.55393 0.55144 0.32771 0.0
C479 C 0.58695 0.5445 0.33718 0.0
C480 C 0.57951 0.58703 0.30022 0.0
H481 H 0.64102 0.55364 0.33492 0.0
C482 C 0.70807 0.58277 0.32496 0.0
O483 O 0.71875 0.6566 0.36799 0.0
O484 O 0.67578 0.62952 0.38079 0.0
N485 N 0.60714 0.62202 0.27609 0.0
C486 C 0.60768 0.64346 0.25801 0.0
C487 C 0.57689 0.65221 0.24573 0.0
C488 C 0.54594 0.63877 0.25205 0.0
C489 C 0.54589 0.61708 0.27107 0.0
C490 C 0.57743 0.60898 0.28233 0.0
H491 H 0.63147 0.65355 0.25264 0.0
O492 O 0.64709 0.66736 0.34256 0.0
O493 O 0.644 0.62601 0.32518 0.0
O494 O 0.70273 0.6549 0.3049 0.0
O495 O 0.67882 0.62702 0.27337 0.0
C496 C 0.51583 0.60302 0.27911 0.0
C497 C 0.51781 0.58123 0.29822 0.0
H498 H 0.53182 0.54006 0.33508 0.0
H499 H 0.59024 0.52789 0.35179 0.0
H500 H 0.57705 0.6691 0.23121 0.0
H501 H 0.52231 0.64538 0.24225 0.0
H502 H 0.49103 0.60887 0.2708 0.0
H503 H 0.49449 0.57075 0.30445 0.0
Mn504 Mn 0.32334 0.66667 0.36599 0.0
Mn505 Mn 0.36503 0.71483 0.40294 0.0
C506 C 0.38075 0.67713 0.35655 0.0
C507 C 0.3055 0.62118 0.36109 0.0
C508 C 0.31134 0.72831 0.35932 0.0
O509 O 0.29367 0.67067 0.40067 0.0
O510 O 0.32798 0.6986 0.42567 0.0
C511 C 0.3962 0.67938 0.44592 0.0
N512 N 0.39985 0.69788 0.42505 0.0
C513 C 0.46132 0.6985 0.4308 0.0
C514 C 0.45819 0.67944 0.45232 0.0
C515 C 0.42548 0.66978 0.45986 0.0
C516 C 0.43124 0.70706 0.41744 0.0
H517 H 0.37116 0.67203 0.45191 0.0
C518 C 0.30189 0.6828 0.42307 0.0
O519 O 0.28941 0.64107 0.34877 0.0
O520 O 0.33196 0.62754 0.37601 0.0
N521 N 0.40231 0.73142 0.38325 0.0
C522 C 0.40102 0.7495 0.36182 0.0
C523 C 0.43147 0.76179 0.3524 0.0
C524 C 0.46289 0.75553 0.36521 0.0
C525 C 0.4637 0.73655 0.38694 0.0
C526 C 0.43248 0.72516 0.39562 0.0
H527 H 0.3769 0.75485 0.35222 0.0
O528 O 0.36177 0.66521 0.33808 0.0
O529 O 0.36525 0.68243 0.37949 0.0
O530 O 0.30707 0.70376 0.35073 0.0
O531 O 0.3304 0.7343 0.37995 0.0
C532 C 0.49423 0.72865 0.40045 0.0
C533 C 0.49309 0.70938 0.42213 0.0
H534 H 0.48071 0.6721 0.46322 0.0
H535 H 0.42285 0.65508 0.47646 0.0
H536 H 0.4307 0.77629 0.3355 0.0
H537 H 0.48627 0.7653 0.35806 0.0
H538 H 0.51877 0.73718 0.39424 0.0
H539 H 0.51677 0.70323 0.43215 0.0
Mn540 Mn 0.31793 0.37194 0.35282 0.0
Mn541 Mn 0.3523 0.39717 0.29402 0.0
C542 C 0.37186 0.35734 0.33859 0.0
C543 C 0.30548 0.3749 0.39977 0.0
C544 C 0.2965 0.3537 0.29504 0.0
O545 O 0.28924 0.40626 0.34511 0.0
O546 O 0.31866 0.42389 0.30928 0.0
C547 C 0.38958 0.44532 0.31649 0.0
N548 N 0.38989 0.42107 0.30244 0.0
C549 C 0.45033 0.42554 0.29282 0.0
C550 C 0.45064 0.45058 0.30711 0.0
C551 C 0.42016 0.46044 0.31912 0.0
C552 C 0.41922 0.41116 0.29125 0.0
H553 H 0.36618 0.45315 0.32554 0.0
C554 C 0.29588 0.42575 0.32827 0.0
O555 O 0.28673 0.3605 0.38313 0.0
O556 O 0.33169 0.38779 0.38928 0.0
N557 N 0.38612 0.37374 0.27747 0.0
C558 C 0.38139 0.34964 0.26364 0.0
C559 C 0.40949 0.33698 0.25063 0.0
C560 C 0.44203 0.34944 0.25149 0.0
C561 C 0.44611 0.37459 0.2652 0.0
C562 C 0.41719 0.3862 0.2779 0.0
H563 H 0.35641 0.34006 0.26254 0.0
O564 O 0.35421 0.34286 0.35605 0.0
O565 O 0.35791 0.38028 0.33061 0.0
O566 O 0.29595 0.35109 0.32111 0.0
O567 O 0.31451 0.37191 0.28271 0.0
C568 C 0.47763 0.38878 0.26638 0.0
C569 C 0.47966 0.41434 0.27999 0.0
H570 H 0.47413 0.46239 0.30902 0.0
H571 H 0.42018 0.47974 0.3302 0.0
H572 H 0.40605 0.31769 0.23987 0.0
H573 H 0.46364 0.33963 0.2414 0.0
H574 H 0.50043 0.38031 0.25675 0.0
H575 H 0.50402 0.42512 0.28064 0.0
H576 H 0.27822 0.35444 0.23946 0.0
H577 H 0.27547 0.30363 0.31315 0.0
H578 H 0.25229 0.26535 0.28625 0.0
H579 H 0.19711 0.32733 0.21079 0.0
H580 H 0.21206 0.32859 0.17568 0.0
H581 H 0.22835 0.35276 0.20058 0.0
H582 H 0.29054 0.33747 0.18916 0.0
H583 H 0.27443 0.31303 0.16446 0.0
H584 H 0.30202 0.30166 0.19204 0.0
H585 H 0.23463 0.23142 0.25206 0.0
H586 H 0.21381 0.20462 0.21283 0.0
H587 H 0.22181 0.2767 0.16025 0.0
C588 C 0.27231 0.33536 0.24994 0.0
C589 C 0.27875 0.3322 0.27854 0.0
C590 C 0.27064 0.30684 0.29142 0.0
C591 C 0.25763 0.28478 0.27627 0.0
C592 C 0.25221 0.28835 0.24821 0.0
C593 C 0.25845 0.31306 0.23513 0.0
C594 C 0.24919 0.3111 0.20471 0.0
C595 C 0.21993 0.33114 0.19752 0.0
C596 C 0.28094 0.31611 0.18652 0.0
C597 C 0.23727 0.28134 0.20289 0.0
C598 C 0.23989 0.2687 0.22828 0.0
C599 C 0.23207 0.2411 0.2321 0.0
C600 C 0.22053 0.22598 0.20951 0.0
C601 C 0.21626 0.23845 0.18332 0.0
C602 C 0.22478 0.26661 0.17998 0.0
H603 H 0.71777 0.28276 0.29984 0.0
H604 H 0.70568 0.2315 0.37241 0.0
H605 H 0.73271 0.19272 0.34784 0.0
H606 H 0.69766 0.23009 0.25089 0.0
H607 H 0.72845 0.24142 0.22556 0.0
H608 H 0.70973 0.26583 0.2491 0.0
H609 H 0.77047 0.28062 0.26517 0.0
H610 H 0.78939 0.25647 0.24147 0.0
H611 H 0.80015 0.25493 0.27754 0.0
H612 H 0.76111 0.15945 0.31571 0.0
H613 H 0.78901 0.1338 0.27799 0.0
H614 H 0.78054 0.20551 0.22514 0.0
C615 C 0.72128 0.2635 0.31068 0.0
C616 C 0.70982 0.2603 0.3382 0.0
C617 C 0.71428 0.23453 0.35141 0.0
C618 C 0.7296 0.21234 0.33761 0.0
C619 C 0.74009 0.21604 0.31043 0.0
C620 C 0.73615 0.24094 0.29705 0.0
C621 C 0.74886 0.23909 0.26752 0.0
C622 C 0.71941 0.24442 0.24706 0.0
C623 C 0.77901 0.25895 0.26265 0.0
C624 C 0.76064 0.20932 0.26647 0.0
C625 C 0.75546 0.19648 0.29152 0.0
C626 C 0.76514 0.16925 0.29596 0.0
C627 C 0.78094 0.15482 0.27437 0.0
C628 C 0.78667 0.16749 0.24848 0.0
C629 C 0.77597 0.19506 0.24449 0.0
H630 H 0.78257 0.78025 0.20942 0.0
H631 H 0.78136 0.73507 0.13241 0.0
H632 H 0.75387 0.69574 0.15584 0.0
H633 H 0.80477 0.72333 0.25139 0.0
H634 H 0.7786 0.73346 0.28031 0.0
H635 H 0.79539 0.75917 0.25725 0.0
H636 H 0.73381 0.77746 0.24825 0.0
H637 H 0.71685 0.75204 0.27158 0.0
H638 H 0.70088 0.75402 0.23679 0.0
H639 H 0.72829 0.66073 0.18775 0.0
H640 H 0.70569 0.63254 0.22591 0.0
H641 H 0.72563 0.69948 0.28287 0.0
C642 C 0.77577 0.76233 0.19738 0.0
C643 C 0.78372 0.76087 0.16898 0.0
C644 C 0.77532 0.73672 0.15413 0.0
C645 C 0.75974 0.71425 0.16726 0.0
C646 C 0.75297 0.71609 0.19537 0.0
C647 C 0.76062 0.7395 0.21028 0.0
C648 C 0.75216 0.73556 0.24054 0.0
C649 C 0.78467 0.73802 0.25842 0.0
C650 C 0.72426 0.75598 0.24983 0.0
C651 C 0.73867 0.70629 0.24028 0.0
C652 C 0.7392 0.69552 0.21398 0.0
C653 C 0.72775 0.66894 0.20845 0.0
C654 C 0.71501 0.65305 0.23031 0.0
C655 C 0.71404 0.66362 0.25751 0.0
C656 C 0.72636 0.69059 0.26244 0.0
H657 H 0.28381 0.72717 0.30697 0.0
H658 H 0.3029 0.78178 0.37601 0.0
H659 H 0.27904 0.82057 0.34934 0.0
H660 H 0.30694 0.77547 0.25409 0.0
H661 H 0.27419 0.76422 0.23038 0.0
H662 H 0.29191 0.74041 0.25504 0.0
H663 H 0.23079 0.72998 0.27358 0.0
H664 H 0.21288 0.75353 0.24879 0.0
H665 H 0.20384 0.75797 0.28492 0.0
H666 H 0.25207 0.85337 0.31553 0.0
H667 H 0.22379 0.87771 0.27705 0.0
H668 H 0.2245 0.80243 0.22911 0.0
C669 C 0.28269 0.74721 0.31663 0.0
C670 C 0.29508 0.75129 0.34375 0.0
C671 C 0.29354 0.77802 0.35535 0.0
C672 C 0.28007 0.80024 0.34033 0.0
C673 C 0.26848 0.79555 0.31359 0.0
C674 C 0.26966 0.76971 0.30181 0.0
C675 C 0.25587 0.77032 0.27258 0.0
C676 C 0.2839 0.76212 0.2518 0.0
C677 C 0.22395 0.75186 0.26982 0.0
C678 C 0.24653 0.8005 0.26983 0.0
C679 C 0.25395 0.81466 0.29376 0.0
C680 C 0.2464 0.84253 0.29661 0.0
C681 C 0.23037 0.8562 0.27461 0.0
C682 C 0.22231 0.84212 0.2499 0.0
C683 C 0.23099 0.81394 0.24747 0.0
H684 H 0.28047 0.66055 0.77321 0.0
H685 H 0.32553 0.71815 0.71528 0.0
H686 H 0.30766 0.75686 0.74463 0.0
H687 H 0.20573 0.70211 0.78725 0.0
H688 H 0.20304 0.69306 0.82318 0.0
H689 H 0.22173 0.66932 0.79896 0.0
H690 H 0.2774 0.66751 0.8282 0.0
H691 H 0.25891 0.69139 0.85243 0.0
H692 H 0.29957 0.69903 0.83633 0.0
H693 H 0.2852 0.78925 0.77899 0.0
H694 H 0.25353 0.8147 0.81441 0.0
H695 H 0.21862 0.73752 0.85003 0.0
C696 C 0.28668 0.68134 0.76696 0.0
C697 C 0.3044 0.68645 0.74201 0.0
C698 C 0.31176 0.71387 0.73421 0.0
C699 C 0.30196 0.73598 0.75083 0.0
C700 C 0.28436 0.73044 0.77515 0.0
C701 C 0.27626 0.70393 0.78314 0.0
C702 C 0.25482 0.70426 0.80937 0.0
C703 C 0.21922 0.69143 0.80438 0.0
C704 C 0.27382 0.68968 0.83298 0.0
C705 C 0.25211 0.73505 0.8146 0.0
C706 C 0.2699 0.74958 0.79476 0.0
C707 C 0.27111 0.77815 0.79467 0.0
C708 C 0.25297 0.79244 0.81501 0.0
C709 C 0.23334 0.77826 0.83516 0.0
C710 C 0.23346 0.74906 0.83511 0.0
H711 H 0.2118 0.21279 0.78516 0.0
H712 H 0.20847 0.1392 0.73473 0.0
H713 H 0.23493 0.16477 0.69624 0.0
H714 H 0.18886 0.2593 0.73167 0.0
H715 H 0.21651 0.28669 0.74323 0.0
H716 H 0.19964 0.26228 0.76764 0.0
H717 H 0.26141 0.25047 0.78379 0.0
H718 H 0.27847 0.27509 0.75966 0.0
H719 H 0.29305 0.2399 0.75879 0.0
H720 H 0.26089 0.19851 0.66286 0.0
H721 H 0.28456 0.23793 0.63704 0.0
H722 H 0.26866 0.29032 0.70829 0.0
C723 C 0.21726 0.20191 0.76621 0.0
C724 C 0.20839 0.17385 0.76311 0.0
C725 C 0.21518 0.16061 0.73768 0.0
C726 C 0.23018 0.17498 0.71567 0.0
C727 C 0.23799 0.20272 0.71922 0.0
C728 C 0.2318 0.21607 0.74384 0.0
C729 C 0.24137 0.24627 0.74185 0.0
C730 C 0.2097 0.26472 0.74636 0.0
C731 C 0.2703 0.25334 0.76223 0.0
C732 C 0.25387 0.24779 0.71228 0.0
C733 C 0.25188 0.2224 0.69966 0.0
C734 C 0.26249 0.21851 0.67252 0.0
C735 C 0.27586 0.24108 0.65799 0.0
C736 C 0.27825 0.26737 0.67046 0.0
C737 C 0.26677 0.27066 0.69796 0.0
H738 H 0.78806 0.27347 0.84682 0.0
H739 H 0.7392 0.19824 0.8184 0.0
H740 H 0.70898 0.22423 0.78264 0.0
H741 H 0.71193 0.31848 0.83369 0.0
H742 H 0.73803 0.34707 0.82269 0.0
H743 H 0.75446 0.32305 0.84774 0.0
H744 H 0.80761 0.31432 0.81682 0.0
H745 H 0.79116 0.33803 0.79152 0.0
H746 H 0.80145 0.30322 0.78175 0.0
H747 H 0.68973 0.25599 0.74663 0.0
H748 H 0.67502 0.29413 0.71552 0.0
H749 H 0.73139 0.35086 0.76763 0.0
C750 C 0.77041 0.26258 0.83349 0.0
C751 C 0.76634 0.23364 0.83551 0.0
C752 C 0.74311 0.22027 0.8174 0.0
C753 C 0.72573 0.23486 0.79688 0.0
C754 C 0.73125 0.26301 0.79481 0.0
C755 C 0.75233 0.27699 0.81289 0.0
C756 C 0.75373 0.30741 0.80548 0.0
C757 C 0.73863 0.32505 0.82879 0.0
C758 C 0.79069 0.31625 0.79848 0.0
C759 C 0.7308 0.30802 0.78009 0.0
C760 C 0.71849 0.28201 0.77433 0.0
C761 C 0.6987 0.27656 0.75112 0.0
C762 C 0.69077 0.29833 0.73344 0.0
C763 C 0.7021 0.32539 0.73914 0.0
C764 C 0.72224 0.33037 0.76291 0.0
H765 H 0.77023 0.8489 0.74018 0.0
H766 H 0.82173 0.79043 0.79376 0.0
H767 H 0.80488 0.75259 0.7632 0.0
H768 H 0.69724 0.80433 0.72598 0.0
H769 H 0.69244 0.81493 0.69062 0.0
H770 H 0.71023 0.83836 0.71554 0.0
H771 H 0.7644 0.84429 0.68509 0.0
H772 H 0.74686 0.82069 0.66017 0.0
H773 H 0.78865 0.81435 0.67493 0.0
H774 H 0.7848 0.7214 0.72779 0.0
H775 H 0.75489 0.69592 0.69186 0.0
H776 H 0.71033 0.77211 0.66105 0.0
C777 C 0.77782 0.82809 0.7453 0.0
C778 C 0.79721 0.8225 0.76939 0.0
C779 C 0.80657 0.79507 0.77561 0.0
C780 C 0.7974 0.77345 0.75825 0.0
C781 C 0.77832 0.77942 0.7348 0.0
C782 C 0.76795 0.80585 0.72838 0.0
C783 C 0.74548 0.80565 0.70263 0.0
C784 C 0.70919 0.81646 0.70909 0.0
C785 C 0.76236 0.82224 0.67932 0.0
C786 C 0.74493 0.77503 0.6959 0.0
C787 C 0.76475 0.76063 0.71459 0.0
C788 C 0.76896 0.73234 0.7131 0.0
C789 C 0.75173 0.71804 0.69241 0.0
C790 C 0.72981 0.7318 0.67349 0.0
C791 C 0.72684 0.76089 0.67507 0.0
H792 H 0.17529 0.19919 0.92796 0.0
H793 H 0.21683 0.1168 0.92178 0.0
H794 H 0.23348 0.11833 0.97107 0.0
H795 H 0.23812 0.22661 0.97766 0.0
H796 H 0.20611 0.24612 0.9961 0.0
H797 H 0.20089 0.23967 0.95979 0.0
H798 H 0.14111 0.21773 0.96892 0.0
H799 H 0.14604 0.22453 1.0051 0.0
H800 H 0.13756 0.19003 0.99346 0.0
H801 H 0.24188 0.12785 0.02179 0.0
H802 H 0.23575 0.14222 0.07026 0.0
H803 H 0.1883 0.21851 0.04329 0.0
C804 C 0.18834 0.1817 0.93703 0.0
C805 C 0.19516 0.15795 0.92132 0.0
C806 C 0.21163 0.13517 0.93368 0.0
C807 C 0.22133 0.13596 0.96154 0.0
C808 C 0.21426 0.1597 0.97666 0.0
C809 C 0.19787 0.18208 0.96487 0.0
C810 C 0.19043 0.20407 0.98614 0.0
C811 C 0.21007 0.23069 0.97952 0.0
C812 C 0.15149 0.20938 0.98854 0.0
C813 C 0.20453 0.19039 0.01181 0.0
C814 C 0.21868 0.16501 0.00589 0.0
C815 C 0.23121 0.14783 0.02662 0.0
C816 C 0.22781 0.15629 0.05417 0.0
C817 C 0.21163 0.18159 0.0608 0.0
C818 C 0.20116 0.1992 0.03911 0.0
H819 H 0.8004 0.20889 0.96929 0.0
H820 H 0.76754 0.12864 0.94033 0.0
H821 H 0.76239 0.11285 0.98843 0.0
H822 H 0.8531 0.18596 0.02043 0.0
H823 H 0.84336 0.21253 0.04511 0.0
H824 H 0.83878 0.2193 0.00889 0.0
H825 H 0.77514 0.23338 0.016 0.0
H826 H 0.7796 0.22721 0.05243 0.0
H827 H 0.74617 0.21013 0.03328 0.0
H828 H 0.77119 0.10329 0.03907 0.0
H829 H 0.78609 0.10277 0.08876 0.0
H830 H 0.81069 0.18951 0.08497 0.0
C831 C 0.79093 0.18828 0.97298 0.0
C832 C 0.78427 0.17009 0.95085 0.0
C833 C 0.77244 0.14315 0.95678 0.0
C834 C 0.76963 0.1339 0.98411 0.0
C835 C 0.77817 0.15194 1.00535 0.0
C836 C 0.7878 0.17878 1.00011 0.0
C837 C 0.79792 0.19351 0.0264 0.0
C838 C 0.83551 0.20339 0.02512 0.0
C839 C 0.77322 0.21747 0.03238 0.0
C840 C 0.79354 0.17053 0.04717 0.0
C841 C 0.78215 0.14667 0.03463 0.0
C842 C 0.77922 0.12203 0.04921 0.0
C843 C 0.78787 0.12185 0.0773 0.0
C844 C 0.79891 0.14617 0.09049 0.0
C845 C 0.80156 0.17081 0.07532 0.0
H846 H 0.84556 0.87573 0.93944 0.0
H847 H 0.75146 0.83409 0.91574 0.0
H848 H 0.73681 0.82734 0.96472 0.0
H849 H 0.86675 0.83211 0.9932 0.0
H850 H 0.88382 0.85839 0.01547 0.0
H851 H 0.88451 0.86319 0.97877 0.0
H852 H 0.85114 0.90907 0.98427 0.0
H853 H 0.8503 0.90432 0.02108 0.0
H854 H 0.81071 0.90937 1.00245 0.0
H855 H 0.73605 0.81987 0.01623 0.0
H856 H 0.75031 0.81219 0.06554 0.0
H857 H 0.84323 0.86008 0.05549 0.0
C858 C 0.8215 0.86574 0.94455 0.0
C859 C 0.79962 0.85553 0.92375 0.0
C860 C 0.76861 0.84218 0.93132 0.0
C861 C 0.75997 0.83833 0.95911 0.0
C862 C 0.78242 0.84816 0.97915 0.0
C863 C 0.81247 0.86176 0.9722 0.0
C864 C 0.83354 0.8684 0.99753 0.0
C865 C 0.86925 0.8547 0.99615 0.0
C866 C 0.83659 0.89965 1.00157 0.0
C867 C 0.81132 0.85554 0.01965 0.0
C868 C 0.78169 0.84424 0.00878 0.0
C869 C 0.75878 0.82917 0.02507 0.0
C870 C 0.76689 0.82498 0.053 0.0
C871 C 0.79756 0.83584 0.06408 0.0
C872 C 0.81944 0.85185 0.04739 0.0
H873 H 0.19406 0.81655 0.08701 0.0
H874 H 0.21433 0.904 0.09054 0.0
H875 H 0.2281 0.90408 0.04065 0.0
H876 H 0.25808 0.79803 0.03395 0.0
H877 H 0.2296 0.77398 0.01733 0.0
H878 H 0.22606 0.78001 0.05384 0.0
H879 H 0.16165 0.79275 0.04803 0.0
H880 H 0.16499 0.78641 0.01165 0.0
H881 H 0.14973 0.81923 0.02382 0.0
H882 H 0.23621 0.89503 0.98998 0.0
H883 H 0.23031 0.87941 0.94192 0.0
H884 H 0.20184 0.79809 0.97102 0.0
C885 C 0.20208 0.83553 0.07725 0.0
C886 C 0.2038 0.86021 0.0924 0.0
C887 C 0.21328 0.88491 0.07909 0.0
C888 C 0.22131 0.88507 0.05089 0.0
C889 C 0.21931 0.86039 0.03633 0.0
C890 C 0.20947 0.83613 0.04899 0.0
C891 C 0.20543 0.81317 0.02816 0.0
C892 C 0.23135 0.78992 0.03365 0.0
C893 C 0.16825 0.80226 0.0279 0.0
C894 C 0.21395 0.82836 1.00176 0.0
C895 C 0.22262 0.85541 0.00696 0.0
C896 C 0.22976 0.87382 0.98568 0.0
C897 C 0.22656 0.86467 0.95838 0.0
C898 C 0.21573 0.83744 0.95253 0.0
C899 C 0.21052 0.81893 0.97467 0.0
H900 H 0.0748 0.15209 0.13377 0.0
H901 H 0.09906 0.20277 0.20435 0.0
H902 H 0.03681 0.20677 0.21522 0.0
H903 H 0.9874 0.17928 0.11468 0.0
H904 H 0.97422 0.1447 0.10776 0.0
H905 H 0.01871 0.15419 0.10354 0.0
H906 H 0.0294 0.11196 0.13493 0.0
H907 H 0.98503 0.10686 0.14431 0.0
H908 H 0.01702 0.11339 0.17043 0.0
H909 H 0.97095 0.21004 0.21348 0.0
H910 H 0.90846 0.19989 0.21007 0.0
H911 H 0.92974 0.13698 0.14939 0.0
C912 C 0.06676 0.16451 0.15114 0.0
C913 C 0.09115 0.17843 0.16747 0.0
C914 C 0.08034 0.19294 0.1911 0.0
C915 C 0.04519 0.19534 0.19732 0.0
C916 C 0.02155 0.18193 0.1804 0.0
C917 C 0.032 0.16596 0.15838 0.0
C918 C 0.00225 0.1497 0.1465 0.0
C919 C 0.99536 0.15746 0.11633 0.0
C920 C 0.00871 0.11863 0.14925 0.0
C921 C 0.97332 0.15949 0.16499 0.0
C922 C 0.9847 0.17905 0.18351 0.0
C923 C 0.96187 0.194 0.19988 0.0
C924 C 0.92658 0.18816 0.19785 0.0
C925 C 0.91494 0.16671 0.18066 0.0
C926 C 0.93848 0.15253 0.16373 0.0
H927 H 0.8148 0.92373 0.19584 0.0
H928 H 0.78664 0.92135 0.10966 0.0
H929 H 0.77468 0.97149 0.11065 0.0
H930 H 0.75416 0.97812 0.21811 0.0
H931 H 0.78523 0.99369 0.24078 0.0
H932 H 0.78671 0.95721 0.23429 0.0
H933 H 0.85016 0.96142 0.21831 0.0
H934 H 0.8489 0.99776 0.22503 0.0
H935 H 0.86093 0.98546 0.19137 0.0
H936 H 0.76964 0.02249 0.12048 0.0
H937 H 0.77873 0.07022 0.13637 0.0
H938 H 0.81285 0.03934 0.21564 0.0
C939 C 0.80537 0.93379 0.17742 0.0
C940 C 0.80094 0.9189 0.15279 0.0
C941 C 0.78968 0.93259 0.12876 0.0
C942 C 0.78271 0.96096 0.1292 0.0
C943 C 0.78747 0.97527 0.15381 0.0
C944 C 0.79889 0.96216 0.17742 0.0
C945 C 0.80569 0.98262 0.20029 0.0
C946 C 0.7815 0.9776 0.22482 0.0
C947 C 0.84367 0.98176 0.20926 0.0
C948 C 0.79705 0.00932 0.18574 0.0
C949 C 0.78585 1.00466 0.15915 0.0
C950 C 0.77805 0.02635 0.14136 0.0
C951 C 0.78304 0.05344 0.15065 0.0
C952 C 0.79631 0.0586 0.17732 0.0
C953 C 0.80235 0.03614 0.19524 0.0
H954 H 0.93009 0.85602 0.14064 0.0
H955 H 0.9073 0.79824 0.20596 0.0
H956 H 0.9696 0.79488 0.21693 0.0
H957 H 0.01793 0.83236 0.11923 0.0
H958 H 0.03037 0.8676 0.11552 0.0
H959 H 0.98611 0.85808 0.11042 0.0
H960 H 0.97373 0.89661 0.14545 0.0
H961 H 0.01804 0.90187 0.15477 0.0
H962 H 0.98665 0.89242 0.1806 0.0
H963 H 0.03549 0.79439 0.21636 0.0
H964 H 0.09777 0.80545 0.21303 0.0
H965 H 0.0746 0.87157 0.15625 0.0
C966 C 0.93848 0.84224 0.15685 0.0
C967 C 0.91453 0.82639 0.17176 0.0
C968 C 0.92572 0.80979 0.19387 0.0
C969 C 0.96091 0.80777 0.20014 0.0
C970 C 0.9841 0.82342 0.18479 0.0
C971 C 0.97321 0.84088 0.16404 0.0
C972 C 0.00237 0.85867 0.15358 0.0
C973 C 0.0095 0.85382 0.12285 0.0
C974 C 0.99485 0.88921 0.15898 0.0
C975 C 0.0316 0.84792 0.17115 0.0
C976 C 0.02082 0.82692 0.18831 0.0
C977 C 0.04411 0.81137 0.2037 0.0
C978 C 0.07928 0.81768 0.20169 0.0
C979 C 0.09036 0.84 0.18536 0.0
C980 C 0.06631 0.85516 0.16982 0.0
H981 H 0.15701 0.07123 0.13052 0.0
H982 H 0.25643 0.09458 0.16362 0.0
H983 H 0.26994 0.04585 0.17248 0.0
H984 H 0.139 0.02092 0.17897 0.0
H985 H 0.11829 0.99741 0.15559 0.0
H986 H 0.11822 0.03368 0.14833 0.0
H987 H 0.14606 0.02444 0.1007 0.0
H988 H 0.1461 0.98805 0.10782 0.0
H989 H 0.18562 0.00516 0.09875 0.0
H990 H 0.26996 0.99494 0.18297 0.0
H991 H 0.25552 0.94633 0.19397 0.0
H992 H 0.15758 0.9561 0.15274 0.0
C993 C 0.18194 0.06602 0.13898 0.0
C994 C 0.20568 0.08674 0.14626 0.0
C995 C 0.23781 0.07909 0.1578 0.0
C996 C 0.24582 0.05142 0.16285 0.0
C997 C 0.22156 0.0315 0.15608 0.0
C998 C 0.19036 0.03844 0.14419 0.0
C999 C 0.16774 0.01333 0.1408 0.0
C1000 C 0.13382 0.01654 0.15688 0.0
C1001 C 0.16099 0.0074 0.11019 0.0
C1002 C 0.19058 0.99149 0.1535 0.0
C1003 C 0.22171 1.00222 0.16193 0.0
C1004 C 0.2459 0.9862 0.17602 0.0
C1005 C 0.23764 0.95867 0.18213 0.0
C1006 C 0.20551 0.94776 0.17422 0.0
C1007 C 0.18223 0.96416 0.15916 0.0
H1008 H 0.9315 0.86543 0.86584 0.0
H1009 H 0.91229 0.80043 0.80702 0.0
H1010 H 0.97509 0.79118 0.80407 0.0
H1011 H 0.01627 0.89043 0.84414 0.0
H1012 H 0.0292 0.89325 0.87941 0.0
H1013 H 0.9844 0.89636 0.87051 0.0
H1014 H 0.97583 0.85844 0.90776 0.0
H1015 H 0.02116 0.85203 0.91214 0.0
H1016 H 0.99271 0.8246 0.90187 0.0
H1017 H 0.04085 0.79641 0.80158 0.0
H1018 H 0.10303 0.80347 0.8111 0.0
H1019 H 0.07714 0.85519 0.88057 0.0
C1020 C 0.94075 0.84953 0.85208 0.0
C1021 C 0.91774 0.83462 0.83537 0.0
C1022 C 0.93002 0.81275 0.81897 0.0
C1023 C 0.96547 0.80738 0.81726 0.0
C1024 C 0.98779 0.82318 0.83324 0.0
C1025 C 0.97574 0.84299 0.85124 0.0
C1026 C 0.0044 0.85417 0.86913 0.0
C1027 C 0.00871 0.8854 0.86555 0.0
C1028 C 0.99822 0.84685 0.89953 0.0
C1029 C 0.03477 0.83867 0.85727 0.0
C1030 C 0.02483 0.82158 0.83597 0.0
C1031 C 0.0489 0.80866 0.81901 0.0
C1032 C 0.08401 0.81277 0.82448 0.0
C1033 C 0.09441 0.82854 0.8474 0.0
C1034 C 0.06953 0.84182 0.8638 0.0
H1035 H 0.19515 0.93194 0.82503 0.0
H1036 H 0.19359 0.93324 0.91417 0.0
H1037 H 0.20242 0.98383 0.91348 0.0
H1038 H 0.25672 0.98759 0.81326 0.0
H1039 H 0.2331 1.00141 0.78446 0.0
H1040 H 0.23116 0.96514 0.79198 0.0
H1041 H 0.16459 0.96762 0.79478 0.0
H1042 H 0.16639 1.00371 0.78679 0.0
H1043 H 0.14475 0.99225 0.81755 0.0
H1044 H 0.21034 0.03445 0.90268 0.0
H1045 H 0.2051 0.08131 0.88344 0.0
H1046 H 0.19601 0.04706 0.80138 0.0
C1047 C 0.19714 0.94294 0.84435 0.0
C1048 C 0.19422 0.92894 0.86968 0.0
C1049 C 0.19594 0.94382 0.89462 0.0
C1050 C 0.20125 0.97242 0.89438 0.0
C1051 C 0.20415 0.98575 0.869 0.0
C1052 C 0.20138 0.97153 0.84444 0.0
C1053 C 0.2011 0.99095 0.82004 0.0
C1054 C 0.23239 0.98597 0.80133 0.0
C1055 C 0.16719 0.98849 0.80385 0.0
C1056 C 0.20376 0.01838 0.83465 0.0
C1057 C 0.2065 0.01493 0.86283 0.0
C1058 C 0.20835 0.03736 0.88064 0.0
C1059 C 0.20573 0.06395 0.86949 0.0
C1060 C 0.20048 0.06784 0.84089 0.0
C1061 C 0.20048 0.04472 0.82326 0.0
H1062 H 0.06501 0.1414 0.86052 0.0
H1063 H 0.08339 0.20453 0.79941 0.0
H1064 H 0.02045 0.21272 0.79574 0.0
H1065 H 0.97892 0.11519 0.83861 0.0
H1066 H 0.96668 0.11296 0.87408 0.0
H1067 H 0.01126 0.10933 0.86469 0.0
H1068 H 0.02056 0.14684 0.90142 0.0
H1069 H 0.97573 0.15502 0.906 0.0
H1070 H 0.00579 0.18113 0.89501 0.0
H1071 H 0.95468 0.20865 0.79486 0.0
H1072 H 0.89267 0.20308 0.80597 0.0
H1073 H 0.91943 0.15196 0.87576 0.0
C1074 C 0.05556 0.15655 0.84601 0.0
C1075 C 0.07849 0.17148 0.82919 0.0
C1076 C 0.06582 0.19232 0.81166 0.0
C1077 C 0.03026 0.19703 0.80947 0.0
C1078 C 0.00811 0.18155 0.82594 0.0
C1079 C 0.02037 0.16231 0.8445 0.0
C1080 C 0.99187 0.15163 0.86292 0.0
C1081 C 0.98701 0.12042 0.85984 0.0
C1082 C 0.99879 0.15914 0.89314 0.0
C1083 C 0.96146 0.1672 0.85117 0.0
C1084 C 0.97114 0.18355 0.8292 0.0
C1085 C 0.94687 0.19675 0.81262 0.0
C1086 C 0.91185 0.19346 0.81897 0.0
C1087 C 0.90176 0.17822 0.84237 0.0
C1088 C 0.92683 0.1648 0.85851 0.0
H1089 H 0.84195 0.94946 0.86047 0.0
H1090 H 0.75348 0.93974 0.80727 0.0
H1091 H 0.73837 0.98891 0.81459 0.0
H1092 H 0.80556 1.00063 0.9084 0.0
H1093 H 0.84549 0.0193 0.91069 0.0
H1094 H 0.84592 0.98274 0.90459 0.0
H1095 H 0.88246 0.99033 0.86063 0.0
H1096 H 0.882 0.02687 0.86644 0.0
H1097 H 0.86686 0.01316 0.83417 0.0
H1098 H 0.73621 0.03973 0.82475 0.0
H1099 H 0.7472 0.08841 0.83535 0.0
H1100 H 0.83991 0.06556 0.87965 0.0
C1101 C 0.81912 0.95767 0.85071 0.0
C1102 C 0.79861 0.94106 0.83349 0.0
C1103 C 0.76906 0.95224 0.82086 0.0
C1104 C 0.76045 0.98007 0.82488 0.0
C1105 C 0.78187 0.99621 0.84142 0.0
C1106 C 0.81061 0.98537 0.85414 0.0
C1107 C 0.83121 0.00745 0.86875 0.0
C1108 C 0.83208 1.00221 0.89996 0.0
C1109 C 0.86778 0.00957 0.85677 0.0
C1110 C 0.80996 0.03264 0.86188 0.0
C1111 C 0.78134 0.02561 0.84646 0.0
C1112 C 0.75837 0.0454 0.83696 0.0
C1113 C 0.76493 0.07306 0.8431 0.0
C1114 C 0.79446 0.08088 0.85837 0.0
C1115 C 0.81705 0.06027 0.86809 0.0
H1116 H 0.6901 0.68756 0.42211 0.0
H1117 H 0.73588 0.60648 0.41835 0.0
H1118 H 0.75025 0.60923 0.46805 0.0
H1119 H 0.74869 0.71775 0.47421 0.0
H1120 H 0.71435 0.73613 0.49106 0.0
H1121 H 0.71207 0.72936 0.45461 0.0
H1122 H 0.65304 0.70541 0.46127 0.0
H1123 H 0.65507 0.71235 0.49759 0.0
H1124 H 0.64936 0.67758 0.48564 0.0
H1125 H 0.75505 0.61936 0.5189 0.0
H1126 H 0.74519 0.63378 0.56696 0.0
H1127 H 0.69511 0.70809 0.53758 0.0
C1128 C 0.70388 0.67074 0.43174 0.0
C1129 C 0.71256 0.64702 0.4166 0.0
C1130 C 0.72954 0.62493 0.42977 0.0
C1131 C 0.73788 0.6264 0.45788 0.0
C1132 C 0.72881 0.65005 0.47247 0.0
C1133 C 0.71197 0.67176 0.45986 0.0
C1134 C 0.70182 0.69352 0.48066 0.0
C1135 C 0.72035 0.72081 0.47478 0.0
C1136 C 0.6625 0.69742 0.48132 0.0
C1137 C 0.71487 0.68042 0.50699 0.0
C1138 C 0.73088 0.65559 0.50182 0.0
C1139 C 0.74293 0.63894 0.52315 0.0
C1140 C 0.73734 0.6474 0.55046 0.0
C1141 C 0.71947 0.67217 0.55627 0.0
C1142 C 0.70923 0.68921 0.53405 0.0
H1143 H 0.33203 0.62441 0.57048 0.0
H1144 H 0.25665 0.68369 0.59923 0.0
H1145 H 0.23911 0.69278 0.55142 0.0
H1146 H 0.35971 0.66109 0.51344 0.0
H1147 H 0.36478 0.63164 0.49129 0.0
H1148 H 0.36817 0.62761 0.52795 0.0
H1149 H 0.32048 0.59026 0.52604 0.0
H1150 H 0.31668 0.59492 0.48932 0.0
H1151 H 0.27934 0.59853 0.51103 0.0
H1152 H 0.23685 0.70159 0.50074 0.0
H1153 H 0.24984 0.70813 0.45117 0.0
H1154 H 0.32194 0.64042 0.45447 0.0
C1155 C 0.31134 0.63885 0.56672 0.0
C1156 C 0.29576 0.6533 0.58866 0.0
C1157 C 0.26898 0.67226 0.58283 0.0
C1158 C 0.25868 0.67753 0.55569 0.0
C1159 C 0.27489 0.66333 0.53447 0.0
C1160 C 0.30039 0.64412 0.53965 0.0
C1161 C 0.31534 0.63317 0.51299 0.0
C1162 C 0.35429 0.63874 0.51134 0.0
C1163 C 0.30748 0.60239 0.50966 0.0
C1164 C 0.29552 0.65023 0.49217 0.0
C1165 C 0.27204 0.66734 0.50494 0.0
C1166 C 0.2542 0.68763 0.49033 0.0
C1167 C 0.26146 0.69112 0.46219 0.0
C1168 C 0.28583 0.6741 0.44901 0.0
C1169 C 0.3021 0.65287 0.46397 0.0
H1170 H 0.28694 0.3322 0.43263 0.0
H1171 H 0.30635 0.41987 0.43364 0.0
H1172 H 0.29139 0.42133 0.48333 0.0
H1173 H 0.21756 0.32945 0.48407 0.0
H1174 H 0.23383 0.29833 0.49951 0.0
H1175 H 0.24076 0.30487 0.46339 0.0
H1176 H 0.30668 0.29938 0.46998 0.0
H1177 H 0.2997 0.29216 0.50584 0.0
H1178 H 0.32818 0.31965 0.49585 0.0
H1179 H 0.27676 0.41254 0.53346 0.0
H1180 H 0.27662 0.39351 0.58063 0.0
H1181 H 0.27157 0.31103 0.54724 0.0
C1182 C 0.28744 0.35176 0.44328 0.0
C1183 C 0.29724 0.37602 0.42941 0.0
C1184 C 0.29874 0.40112 0.44403 0.0
C1185 C 0.28993 0.40215 0.47212 0.0
C1186 C 0.28021 0.3778 0.48528 0.0
C1187 C 0.27972 0.35297 0.47142 0.0
C1188 C 0.27331 0.3292 0.49092 0.0
C1189 C 0.23934 0.31461 0.48405 0.0
C1190 C 0.30378 0.30892 0.49064 0.0
C1191 C 0.27085 0.3444 0.51806 0.0
C1192 C 0.27378 0.3725 0.51431 0.0
C1193 C 0.27412 0.39061 0.53659 0.0
C1194 C 0.27353 0.37962 0.56337 0.0
C1195 C 0.27356 0.3508 0.56759 0.0
C1196 C 0.27072 0.33314 0.54461 0.0
H1197 H 0.6935 0.29504 0.46545 0.0
H1198 H 0.71425 0.37658 0.43337 0.0
H1199 H 0.7193 0.39429 0.48084 0.0
H1200 H 0.64141 0.31368 0.51792 0.0
H1201 H 0.65654 0.28922 0.54307 0.0
H1202 H 0.66045 0.28169 0.50696 0.0
H1203 H 0.72613 0.27457 0.51216 0.0
H1204 H 0.72244 0.28139 0.54853 0.0
H1205 H 0.75188 0.30114 0.52777 0.0
H1206 H 0.70911 0.40472 0.5311 0.0
H1207 H 0.69576 0.40543 0.58103 0.0
H1208 H 0.68716 0.31663 0.58094 0.0
C1209 C 0.70057 0.31637 0.46844 0.0
C1210 C 0.70376 0.33439 0.44573 0.0
C1211 C 0.71233 0.3623 0.45043 0.0
C1212 C 0.71494 0.3726 0.47736 0.0
C1213 C 0.70982 0.35456 0.49933 0.0
C1214 C 0.70397 0.32683 0.49517 0.0
C1215 C 0.69758 0.31207 0.52219 0.0
C1216 C 0.66188 0.29837 0.52254 0.0
C1217 C 0.72622 0.29105 0.52801 0.0
C1218 C 0.69921 0.33599 0.54209 0.0
C1219 C 0.70606 0.36039 0.52849 0.0
C1220 C 0.70486 0.38566 0.54208 0.0
C1221 C 0.69698 0.38592 0.57032 0.0
C1222 C 0.69106 0.36107 0.58468 0.0
C1223 C 0.69247 0.33583 0.57044 0.0
H1224 H 0.58136 0.64335 0.63111 0.0
H1225 H 0.60638 0.69792 0.69855 0.0
H1226 H 0.5442 0.70342 0.70892 0.0
H1227 H 0.49523 0.66996 0.60963 0.0
H1228 H 0.48083 0.63525 0.60536 0.0
H1229 H 0.52571 0.64336 0.60086 0.0
H1230 H 0.5342 0.60349 0.63534 0.0
H1231 H 0.48976 0.60018 0.64542 0.0
H1232 H 0.52234 0.60822 0.67064 0.0
H1233 H 0.47868 0.70863 0.70564 0.0
H1234 H 0.41586 0.70034 0.70182 0.0
H1235 H 0.43516 0.63221 0.64662 0.0
C1236 C 0.57352 0.65686 0.6477 0.0
C1237 C 0.59816 0.67156 0.66314 0.0
C1238 C 0.58754 0.68751 0.68588 0.0
C1239 C 0.55241 0.69074 0.69183 0.0
C1240 C 0.52855 0.67669 0.67565 0.0
C1241 C 0.53872 0.65915 0.65478 0.0
C1242 C 0.50851 0.64267 0.64388 0.0
C1243 C 0.50232 0.64817 0.6131 0.0
C1244 C 0.51391 0.6118 0.64916 0.0
C1245 C 0.47961 0.65442 0.66127 0.0
C1246 C 0.49154 0.67491 0.67853 0.0
C1247 C 0.46911 0.69181 0.69323 0.0
C1248 C 0.43362 0.68702 0.69096 0.0
C1249 C 0.4212 0.66465 0.67536 0.0
C1250 C 0.4444 0.64844 0.65998 0.0
H1251 H 0.31613 0.56019 0.64576 0.0
H1252 H 0.25902 0.56818 0.72176 0.0
H1253 H 0.24388 0.51864 0.71968 0.0
H1254 H 0.26438 0.50433 0.6123 0.0
H1255 H 0.3027 0.48776 0.59957 0.0
H1256 H 0.30167 0.5246 0.60364 0.0
H1257 H 0.35599 0.52187 0.63442 0.0
H1258 H 0.35692 0.48508 0.63093 0.0
H1259 H 0.35546 0.50042 0.66469 0.0
H1260 H 0.2408 0.46713 0.71179 0.0
H1261 H 0.25223 0.41836 0.70048 0.0
H1262 H 0.31657 0.44394 0.63214 0.0
C1263 C 0.29891 0.55171 0.66113 0.0
C1264 C 0.28733 0.56803 0.68325 0.0
C1265 C 0.26689 0.55609 0.70412 0.0
C1266 C 0.25841 0.52798 0.70314 0.0
C1267 C 0.27128 0.51212 0.68147 0.0
C1268 C 0.29121 0.52362 0.66086 0.0
C1269 C 0.30642 0.50172 0.6423 0.0
C1270 C 0.29298 0.50479 0.6127 0.0
C1271 C 0.34602 0.50231 0.64315 0.0
C1272 C 0.2924 0.47602 0.65584 0.0
C1273 C 0.27165 0.48242 0.67807 0.0
C1274 C 0.25675 0.46195 0.69428 0.0
C1275 C 0.26341 0.4343 0.68772 0.0
C1276 C 0.28533 0.42736 0.66547 0.0
C1277 C 0.2997 0.44859 0.64927 0.0
H1278 H 0.56578 0.32599 0.70206 0.0
H1279 H 0.5816 0.39707 0.64963 0.0
H1280 H 0.51935 0.39968 0.64073 0.0
H1281 H 0.50367 0.29402 0.66627 0.0
H1282 H 0.47513 0.28391 0.69397 0.0
H1283 H 0.52021 0.28886 0.70036 0.0
H1284 H 0.50744 0.32324 0.7379 0.0
H1285 H 0.46195 0.31903 0.73287 0.0
H1286 H 0.48055 0.35285 0.73105 0.0
H1287 H 0.45879 0.39069 0.63157 0.0
H1288 H 0.39798 0.37682 0.63005 0.0
H1289 H 0.4173 0.31433 0.69195 0.0
C1290 C 0.55576 0.34246 0.68936 0.0
C1291 C 0.57813 0.3614 0.67646 0.0
C1292 C 0.56461 0.38257 0.65976 0.0
C1293 C 0.52939 0.38418 0.65456 0.0
C1294 C 0.50797 0.36484 0.66684 0.0
C1295 C 0.52018 0.34509 0.68485 0.0
C1296 C 0.49093 0.32697 0.69509 0.0
C1297 C 0.49782 0.29662 0.68845 0.0
C1298 C 0.48491 0.33083 0.72608 0.0
C1299 C 0.461 0.33863 0.67861 0.0
C1300 C 0.47177 0.36045 0.6625 0.0
C1301 C 0.44976 0.3741 0.64455 0.0
C1302 C 0.4154 0.36597 0.6437 0.0
C1303 C 0.40322 0.34466 0.66091 0.0
C1304 C 0.42619 0.33074 0.67867 0.0
H1305 H 0.67591 0.5619 0.61946 0.0
H1306 H 0.7574 0.59 0.67365 0.0
H1307 H 0.77313 0.54214 0.68376 0.0
H1308 H 0.64884 0.50732 0.65973 0.0
H1309 H 0.64035 0.48394 0.63176 0.0
H1310 H 0.63813 0.52042 0.62606 0.0
H1311 H 0.68255 0.51591 0.58649 0.0
H1312 H 0.68511 0.47933 0.5923 0.0
H1313 H 0.72359 0.49995 0.59313 0.0
H1314 H 0.77336 0.49208 0.69474 0.0
H1315 H 0.75899 0.44316 0.70354 0.0
H1316 H 0.68251 0.44619 0.63894 0.0
C1317 C 0.6975 0.55793 0.63298 0.0
C1318 C 0.71535 0.57979 0.64572 0.0
C1319 C 0.7433 0.5737 0.66351 0.0
C1320 C 0.7526 0.54651 0.66936 0.0
C1321 C 0.73424 0.52542 0.65687 0.0
C1322 C 0.70758 0.53074 0.63873 0.0
C1323 C 0.69066 0.50422 0.62955 0.0
C1324 C 0.65223 0.50397 0.63725 0.0
C1325 C 0.6958 0.49959 0.59852 0.0
C1326 C 0.71093 0.48342 0.64631 0.0
C1327 C 0.7361 0.49605 0.66187 0.0
C1328 C 0.7547 0.4817 0.68191 0.0
C1329 C 0.74663 0.45393 0.6867 0.0
C1330 C 0.72084 0.44083 0.67107 0.0
C1331 C 0.70361 0.45553 0.65012 0.0
H1332 H 0.42726 0.38459 0.35838 0.0
H1333 H 0.39761 0.31344 0.31052 0.0
H1334 H 0.45913 0.30152 0.3037 0.0
H1335 H 0.51395 0.40095 0.32646 0.0
H1336 H 0.52964 0.40851 0.36031 0.0
H1337 H 0.48481 0.4138 0.35243 0.0
H1338 H 0.47515 0.38409 0.39599 0.0
H1339 H 0.51927 0.37347 0.39984 0.0
H1340 H 0.48574 0.34824 0.39521 0.0
H1341 H 0.5247 0.30125 0.29814 0.0
H1342 H 0.58767 0.30243 0.30684 0.0
H1343 H 0.57237 0.3653 0.3687 0.0
C1344 C 0.43396 0.36699 0.3458 0.0
C1345 C 0.40817 0.35073 0.33353 0.0
C1346 C 0.41734 0.3267 0.31896 0.0
C1347 C 0.45208 0.31987 0.31498 0.0
C1348 C 0.4771 0.33663 0.32686 0.0
C1349 C 0.46841 0.35918 0.34278 0.0
C1350 C 0.49956 0.37058 0.35766 0.0
C1351 C 0.50734 0.40023 0.34865 0.0
C1352 C 0.49474 0.36896 0.38903 0.0
C1353 C 0.5271 0.35101 0.34744 0.0
C1354 C 0.51392 0.33252 0.3286 0.0
C1355 C 0.53518 0.31492 0.31358 0.0
C1356 C 0.57075 0.31565 0.31862 0.0
C1357 C 0.58418 0.3328 0.33943 0.0
C1358 C 0.56222 0.35102 0.35364 0.0
H1359 H 0.70635 0.42211 0.31437 0.0
H1360 H 0.70682 0.42199 0.40349 0.0
H1361 H 0.72376 0.47112 0.40356 0.0
H1362 H 0.7757 0.47379 0.30252 0.0
H1363 H 0.75265 0.4897 0.27451 0.0
H1364 H 0.7475 0.45346 0.28125 0.0
H1365 H 0.6814 0.4599 0.28531 0.0
H1366 H 0.68646 0.49589 0.27806 0.0
H1367 H 0.66462 0.48513 0.30898 0.0
H1368 H 0.73557 0.52107 0.39394 0.0
H1369 H 0.73024 0.56852 0.37637 0.0
H1370 H 0.71781 0.53691 0.29354 0.0
C1371 C 0.71099 0.43236 0.33381 0.0
C1372 C 0.7061 0.41838 0.35893 0.0
C1373 C 0.71093 0.43247 0.38407 0.0
C1374 C 0.72081 0.46025 0.38427 0.0
C1375 C 0.72523 0.4737 0.35911 0.0
C1376 C 0.71988 0.4603 0.33433 0.0
C1377 C 0.72076 0.48032 0.31042 0.0
C1378 C 0.75096 0.47393 0.29103 0.0
C1379 C 0.68627 0.48031 0.2948 0.0
C1380 C 0.72646 0.50714 0.32562 0.0
C1381 C 0.73011 0.50281 0.3536 0.0
C1382 C 0.7332 0.52468 0.37203 0.0
C1383 C 0.73052 0.55164 0.36181 0.0
C1384 C 0.72395 0.55643 0.33354 0.0
C1385 C 0.72348 0.53388 0.31517 0.0
H1386 H 0.57841 0.6826 0.30695 0.0
H1387 H 0.59488 0.61565 0.36453 0.0
H1388 H 0.53388 0.61729 0.37796 0.0
H1389 H 0.52028 0.7205 0.3459 0.0
H1390 H 0.49108 0.72998 0.31846 0.0
H1391 H 0.53559 0.72311 0.31112 0.0
H1392 H 0.5189 0.68659 0.27584 0.0
H1393 H 0.47431 0.694 0.28223 0.0
H1394 H 0.48959 0.6593 0.28556 0.0
H1395 H 0.47419 0.62821 0.38845 0.0
H1396 H 0.41341 0.64232 0.38984 0.0
H1397 H 0.43131 0.6998 0.32303 0.0
C1398 C 0.56879 0.66812 0.32204 0.0
C1399 C 0.59106 0.64898 0.33483 0.0
C1400 C 0.578 0.63032 0.35452 0.0
C1401 C 0.54349 0.63115 0.36232 0.0
C1402 C 0.52222 0.65048 0.34985 0.0
C1403 C 0.5338 0.66803 0.32945 0.0
C1404 C 0.50469 0.68642 0.31935 0.0
C1405 C 0.51337 0.71683 0.32406 0.0
C1406 C 0.49646 0.68119 0.28891 0.0
C1407 C 0.47538 0.67668 0.33769 0.0
C1408 C 0.48652 0.65617 0.35529 0.0
C1409 C 0.46492 0.64394 0.37453 0.0
C1410 C 0.43056 0.65214 0.37523 0.0
C1411 C 0.41797 0.67204 0.35657 0.0
C1412 C 0.44056 0.68457 0.33752 0.0
H1413 H 0.30166 0.47208 0.29632 0.0
H1414 H 0.26083 0.44302 0.37431 0.0
H1415 H 0.25245 0.49101 0.3892 0.0
H1416 H 0.35062 0.52295 0.3225 0.0
H1417 H 0.34391 0.54772 0.29539 0.0
H1418 H 0.34002 0.5116 0.28822 0.0
H1419 H 0.27817 0.51883 0.26979 0.0
H1420 H 0.282 0.55519 0.27632 0.0
H1421 H 0.24677 0.53605 0.29098 0.0
H1422 H 0.26005 0.5413 0.39932 0.0
H1423 H 0.27643 0.59053 0.40146 0.0
H1424 H 0.31014 0.58728 0.31656 0.0
C1425 C 0.28964 0.4757 0.31611 0.0
C1426 C 0.28181 0.45361 0.33405 0.0
C1427 C 0.26671 0.45944 0.35998 0.0
C1428 C 0.262 0.48672 0.36872 0.0
C1429 C 0.27195 0.50796 0.35114 0.0
C1430 C 0.28471 0.50277 0.32509 0.0
C1431 C 0.29648 0.52905 0.31115 0.0
C1432 C 0.33503 0.52774 0.30391 0.0
C1433 C 0.27453 0.53514 0.28555 0.0
C1434 C 0.2896 0.54973 0.3338 0.0
C1435 C 0.27535 0.53717 0.3567 0.0
C1436 C 0.27018 0.5515 0.38124 0.0
C1437 C 0.27967 0.57934 0.38235 0.0
C1438 C 0.29375 0.59253 0.35901 0.0
C1439 C 0.29847 0.57767 0.33439 0.0
loop_
_geom_bond_atom_site_label_1
_geom_bond_atom_site_label_2
_geom_bond_distance
_geom_bond_site_symmetry_2
_ccdc_geom_bond_type
Mn0 O5 2.095 . S
Mn0 O15 2.162 . S
Mn0 O16 2.297 . S
Mn0 O24 2.385 . S
Mn0 O25 2.209 . S
Mn0 O26 2.094 . S
Mn1 O6 2.121 . S
Mn1 N8 2.257 . S
Mn1 N17 2.282 . S
Mn1 O25 2.215 . S
Mn1 O27 2.117 . S
C2 O24 1.234 . S
C2 O25 1.283 . S
C3 O15 1.281 . S
C3 O16 1.236 . S
C4 O26 1.240 . S
C4 O27 1.264 . S
O5 Mn0 2.095 . S
O5 C14 1.250 . S
O6 Mn1 2.121 . S
O6 C14 1.258 . S
C7 N8 1.326 . S
C7 C11 1.460 . S
C7 H13 0.929 . S
N8 Mn1 2.257 . S
N8 C7 1.326 . S
N8 C12 1.362 . S
C9 C10 1.258 . S
C9 C12 1.431 . S
C9 C29 1.449 . S
C10 C9 1.258 . S
C10 C11 1.477 . S
C10 H30 0.931 . S
C11 C7 1.460 . S
C11 C10 1.477 . S
C11 H31 0.930 . S
C12 N8 1.362 . S
C12 C9 1.431 . S
C12 C22 1.476 . S
H13 C7 0.929 . S
C14 O5 1.250 . S
C14 O6 1.258 . S
O15 Mn0 2.162 . S
O15 C3 1.281 . S
O16 Mn0 2.297 . S
O16 C3 1.236 . S
N17 Mn1 2.282 . S
N17 C18 1.328 . S
N17 C22 1.318 . S
C18 N17 1.328 . S
C18 C19 1.457 . S
C18 H23 0.929 . S
C19 C18 1.457 . S
C19 C20 1.291 . S
C19 H32 0.931 . S
C20 C19 1.291 . S
C20 C21 1.373 . S
C20 H33 0.929 . S
C21 C20 1.373 . S
C21 C22 1.396 . S
C21 C28 1.403 . S
C22 C12 1.476 . S
C22 N17 1.318 . S
C22 C21 1.396 . S
H23 C18 0.929 . S
O24 Mn0 2.385 . S
O24 C2 1.234 . S
O25 Mn0 2.209 . S
O25 Mn1 2.215 . S
O25 C2 1.283 . S
O26 Mn0 2.094 . S
O26 C4 1.240 . S
O27 Mn1 2.117 . S
O27 C4 1.264 . S
C28 C21 1.403 . S
C28 C29 1.399 . S
C28 H34 0.929 . S
C29 C9 1.449 . S
C29 C28 1.399 . S
C29 H35 0.930 . S
H30 C10 0.931 . S
H31 C11 0.930 . S
H32 C19 0.931 . S
H33 C20 0.929 . S
H34 C28 0.929 . S
H35 C29 0.930 . S
Mn36 O41 2.095 . S
Mn36 O51 2.162 . S
Mn36 O52 2.297 . S
Mn36 O60 2.385 . S
Mn36 O61 2.209 . S
Mn36 O62 2.094 . S
Mn37 O42 2.121 . S
Mn37 N44 2.257 . S
Mn37 N53 2.282 . S
Mn37 O61 2.215 . S
Mn37 O63 2.117 . S
C38 O60 1.234 . S
C38 O61 1.283 . S
C39 O51 1.281 . S
C39 O52 1.236 . S
C40 O62 1.240 . S
C40 O63 1.264 . S
O41 Mn36 2.095 . S
O41 C50 1.250 . S
O42 Mn37 2.121 . S
O42 C50 1.258 . S
C43 N44 1.326 . S
C43 C47 1.460 . S
C43 H49 0.929 . S
N44 Mn37 2.257 . S
N44 C43 1.326 . S
N44 C48 1.362 . S
C45 C46 1.258 . S
C45 C48 1.431 . S
C45 C65 1.449 . S
C46 C45 1.258 . S
C46 C47 1.477 . S
C46 H66 0.931 . S
C47 C43 1.460 . S
C47 C46 1.477 . S
C47 H67 0.930 . S
C48 N44 1.362 . S
C48 C45 1.431 . S
C48 C58 1.476 . S
H49 C43 0.929 . S
C50 O41 1.250 . S
C50 O42 1.258 . S
O51 Mn36 2.162 . S
O51 C39 1.281 . S
O52 Mn36 2.297 . S
O52 C39 1.236 . S
N53 Mn37 2.282 . S
N53 C54 1.328 . S
N53 C58 1.318 . S
C54 N53 1.328 . S
C54 C55 1.457 . S
C54 H59 0.929 . S
C55 C54 1.457 . S
C55 C56 1.291 . S
C55 H68 0.931 . S
C56 C55 1.291 . S
C56 C57 1.373 . S
C56 H69 0.929 . S
C57 C56 1.373 . S
C57 C58 1.396 . S
C57 C64 1.403 . S
C58 C48 1.476 . S
C58 N53 1.318 . S
C58 C57 1.396 . S
H59 C54 0.929 . S
O60 Mn36 2.385 . S
O60 C38 1.234 . S
O61 Mn36 2.209 . S
O61 Mn37 2.215 . S
O61 C38 1.283 . S
O62 Mn36 2.094 . S
O62 C40 1.240 . S
O63 Mn37 2.117 . S
O63 C40 1.264 . S
C64 C57 1.403 . S
C64 C65 1.399 . S
C64 H70 0.929 . S
C65 C45 1.449 . S
C65 C64 1.399 . S
C65 H71 0.930 . S
H66 C46 0.931 . S
H67 C47 0.930 . S
H68 C55 0.931 . S
H69 C56 0.929 . S
H70 C64 0.929 . S
H71 C65 0.930 . S
Mn72 O77 2.095 . S
Mn72 O87 2.162 . S
Mn72 O88 2.297 . S
Mn72 O96 2.385 . S
Mn72 O97 2.209 . S
Mn72 O98 2.094 . S
Mn73 O78 2.121 . S
Mn73 N80 2.257 . S
Mn73 N89 2.282 . S
Mn73 O97 2.215 . S
Mn73 O99 2.117 . S
C74 O96 1.234 . S
C74 O97 1.283 . S
C75 O87 1.281 . S
C75 O88 1.236 . S
C76 O98 1.240 . S
C76 O99 1.264 . S
O77 Mn72 2.095 . S
O77 C86 1.250 . S
O78 Mn73 2.121 . S
O78 C86 1.258 . S
C79 N80 1.326 . S
C79 C83 1.460 . S
C79 H85 0.929 . S
N80 Mn73 2.257 . S
N80 C79 1.326 . S
N80 C84 1.362 . S
C81 C82 1.258 . S
C81 C84 1.431 . S
C81 C101 1.449 . S
C82 C81 1.258 . S
C82 C83 1.477 . S
C82 H102 0.931 . S
C83 C79 1.460 . S
C83 C82 1.477 . S
C83 H103 0.930 . S
C84 N80 1.362 . S
C84 C81 1.431 . S
C84 C94 1.476 . S
H85 C79 0.929 . S
C86 O77 1.250 . S
C86 O78 1.258 . S
O87 Mn72 2.162 . S
O87 C75 1.281 . S
O88 Mn72 2.297 . S
O88 C75 1.236 . S
N89 Mn73 2.282 . S
N89 C90 1.328 . S
N89 C94 1.318 . S
C90 N89 1.328 . S
C90 C91 1.457 . S
C90 H95 0.929 . S
C91 C90 1.457 . S
C91 C92 1.291 . S
C91 H104 0.931 . S
C92 C91 1.291 . S
C92 C93 1.373 . S
C92 H105 0.929 . S
C93 C92 1.373 . S
C93 C94 1.396 . S
C93 C100 1.403 . S
C94 C84 1.476 . S
C94 N89 1.318 . S
C94 C93 1.396 . S
H95 C90 0.929 . S
O96 Mn72 2.385 . S
O96 C74 1.234 . S
O97 Mn72 2.209 . S
O97 Mn73 2.215 . S
O97 C74 1.283 . S
O98 Mn72 2.094 . S
O98 C76 1.240 . S
O99 Mn73 2.117 . S
O99 C76 1.264 . S
C100 C93 1.403 . S
C100 C101 1.399 . S
C100 H106 0.929 . S
C101 C81 1.449 . S
C101 C100 1.399 . S
C101 H107 0.930 . S
H102 C82 0.931 . S
H103 C83 0.930 . S
H104 C91 0.931 . S
H105 C92 0.929 . S
H106 C100 0.929 . S
H107 C101 0.930 . S
Mn108 O113 2.095 . S
Mn108 O123 2.162 . S
Mn108 O124 2.297 . S
Mn108 O132 2.385 . S
Mn108 O133 2.209 . S
Mn108 O134 2.094 . S
Mn109 O114 2.121 . S
Mn109 N116 2.257 . S
Mn109 N125 2.282 . S
Mn109 O133 2.215 . S
Mn109 O135 2.117 . S
C110 O132 1.234 . S
C110 O133 1.283 . S
C111 O123 1.281 . S
C111 O124 1.236 . S
C112 O134 1.240 . S
C112 O135 1.264 . S
O113 Mn108 2.095 . S
O113 C122 1.250 . S
O114 Mn109 2.121 . S
O114 C122 1.258 . S
C115 N116 1.326 . S
C115 C119 1.460 . S
C115 H121 0.929 . S
N116 Mn109 2.257 . S
N116 C115 1.326 . S
N116 C120 1.362 . S
C117 C118 1.258 . S
C117 C120 1.431 . S
C117 C137 1.449 . S
C118 C117 1.258 . S
C118 C119 1.477 . S
C118 H138 0.931 . S
C119 C115 1.460 . S
C119 C118 1.477 . S
C119 H139 0.930 . S
C120 N116 1.362 . S
C120 C117 1.431 . S
C120 C130 1.476 . S
H121 C115 0.929 . S
C122 O113 1.250 . S
C122 O114 1.258 . S
O123 Mn108 2.162 . S
O123 C111 1.281 . S
O124 Mn108 2.297 . S
O124 C111 1.236 . S
N125 Mn109 2.282 . S
N125 C126 1.328 . S
N125 C130 1.318 . S
C126 N125 1.328 . S
C126 C127 1.457 . S
C126 H131 0.929 . S
C127 C126 1.457 . S
C127 C128 1.291 . S
C127 H140 0.931 . S
C128 C127 1.291 . S
C128 C129 1.373 . S
C128 H141 0.929 . S
C129 C128 1.373 . S
C129 C130 1.396 . S
C129 C136 1.403 . S
C130 C120 1.476 . S
C130 N125 1.318 . S
C130 C129 1.396 . S
H131 C126 0.929 . S
O132 Mn108 2.385 . S
O132 C110 1.234 . S
O133 Mn108 2.209 . S
O133 Mn109 2.215 . S
O133 C110 1.283 . S
O134 Mn108 2.094 . S
O134 C112 1.240 . S
O135 Mn109 2.117 . S
O135 C112 1.264 . S
C136 C129 1.403 . S
C136 C137 1.399 . S
C136 H142 0.929 . S
C137 C117 1.449 . S
C137 C136 1.399 . S
C137 H143 0.930 . S
H138 C118 0.931 . S
H139 C119 0.930 . S
H140 C127 0.931 . S
H141 C128 0.929 . S
H142 C136 0.929 . S
H143 C137 0.930 . S
Mn144 O149 2.095 . S
Mn144 O159 2.162 . S
Mn144 O160 2.297 . S
Mn144 O168 2.385 . S
Mn144 O169 2.209 . S
Mn144 O170 2.094 . S
Mn145 O150 2.121 . S
Mn145 N152 2.257 . S
Mn145 N161 2.282 . S
Mn145 O169 2.215 . S
Mn145 O171 2.117 . S
C146 O168 1.234 . S
C146 O169 1.283 . S
C147 O159 1.281 . S
C147 O160 1.236 . S
C148 O170 1.240 . S
C148 O171 1.264 . S
O149 Mn144 2.095 . S
O149 C158 1.250 . S
O150 Mn145 2.121 . S
O150 C158 1.258 . S
C151 N152 1.326 . S
C151 C155 1.460 . S
C151 H157 0.929 . S
N152 Mn145 2.257 . S
N152 C151 1.326 . S
N152 C156 1.362 . S
C153 C154 1.258 . S
C153 C156 1.431 . S
C153 C173 1.449 . S
C154 C153 1.258 . S
C154 C155 1.477 . S
C154 H174 0.931 . S
C155 C151 1.460 . S
C155 C154 1.477 . S
C155 H175 0.930 . S
C156 N152 1.362 . S
C156 C153 1.431 . S
C156 C166 1.476 . S
H157 C151 0.929 . S
C158 O149 1.250 . S
C158 O150 1.258 . S
O159 Mn144 2.162 . S
O159 C147 1.281 . S
O160 Mn144 2.297 . S
O160 C147 1.236 . S
N161 Mn145 2.282 . S
N161 C162 1.328 . S
N161 C166 1.318 . S
C162 N161 1.328 . S
C162 C163 1.457 . S
C162 H167 0.929 . S
C163 C162 1.457 . S
C163 C164 1.291 . S
C163 H176 0.931 . S
C164 C163 1.291 . S
C164 C165 1.373 . S
C164 H177 0.929 . S
C165 C164 1.373 . S
C165 C166 1.396 . S
C165 C172 1.403 . S
C166 C156 1.476 . S
C166 N161 1.318 . S
C166 C165 1.396 . S
H167 C162 0.929 . S
O168 Mn144 2.385 . S
O168 C146 1.234 . S
O169 Mn144 2.209 . S
O169 Mn145 2.215 . S
O169 C146 1.283 . S
O170 Mn144 2.094 . S
O170 C148 1.240 . S
O171 Mn145 2.117 . S
O171 C148 1.264 . S
C172 C165 1.403 . S
C172 C173 1.399 . S
C172 H178 0.929 . S
C173 C153 1.449 . S
C173 C172 1.399 . S
C173 H179 0.930 . S
H174 C154 0.931 . S
H175 C155 0.930 . S
H176 C163 0.931 . S
H177 C164 0.929 . S
H178 C172 0.929 . S
H179 C173 0.930 . S
Mn180 O185 2.095 . S
Mn180 O195 2.162 . S
Mn180 O196 2.297 . S
Mn180 O204 2.385 . S
Mn180 O205 2.209 . S
Mn180 O206 2.094 . S
Mn181 O186 2.121 . S
Mn181 N188 2.257 . S
Mn181 N197 2.282 . S
Mn181 O205 2.215 . S
Mn181 O207 2.117 . S
C182 O204 1.234 . S
C182 O205 1.283 . S
C183 O195 1.281 . S
C183 O196 1.236 . S
C184 O206 1.240 . S
C184 O207 1.264 . S
O185 Mn180 2.095 . S
O185 C194 1.250 . S
O186 Mn181 2.121 . S
O186 C194 1.258 . S
C187 N188 1.326 . S
C187 C191 1.460 . S
C187 H193 0.929 . S
N188 Mn181 2.257 . S
N188 C187 1.326 . S
N188 C192 1.362 . S
C189 C190 1.258 . S
C189 C192 1.431 . S
C189 C209 1.449 . S
C190 C189 1.258 . S
C190 C191 1.477 . S
C190 H210 0.931 . S
C191 C187 1.460 . S
C191 C190 1.477 . S
C191 H211 0.930 . S
C192 N188 1.362 . S
C192 C189 1.431 . S
C192 C202 1.476 . S
H193 C187 0.929 . S
C194 O185 1.250 . S
C194 O186 1.258 . S
O195 Mn180 2.162 . S
O195 C183 1.281 . S
O196 Mn180 2.297 . S
O196 C183 1.236 . S
N197 Mn181 2.282 . S
N197 C198 1.328 . S
N197 C202 1.318 . S
C198 N197 1.328 . S
C198 C199 1.457 . S
C198 H203 0.929 . S
C199 C198 1.457 . S
C199 C200 1.291 . S
C199 H212 0.931 . S
C200 C199 1.291 . S
C200 C201 1.373 . S
C200 H213 0.929 . S
C201 C200 1.373 . S
C201 C202 1.396 . S
C201 C208 1.403 . S
C202 C192 1.476 . S
C202 N197 1.318 . S
C202 C201 1.396 . S
H203 C198 0.929 . S
O204 Mn180 2.385 . S
O204 C182 1.234 . S
O205 Mn180 2.209 . S
O205 Mn181 2.215 . S
O205 C182 1.283 . S
O206 Mn180 2.094 . S
O206 C184 1.240 . S
O207 Mn181 2.117 . S
O207 C184 1.264 . S
C208 C201 1.403 . S
C208 C209 1.399 . S
C208 H214 0.929 . S
C209 C189 1.449 . S
C209 C208 1.399 . S
C209 H215 0.930 . S
H210 C190 0.931 . S
H211 C191 0.930 . S
H212 C199 0.931 . S
H213 C200 0.929 . S
H214 C208 0.929 . S
H215 C209 0.930 . S
Mn216 O221 2.095 . S
Mn216 O231 2.162 . S
Mn216 O232 2.297 . S
Mn216 O240 2.385 . S
Mn216 O241 2.209 . S
Mn216 O242 2.094 . S
Mn217 O222 2.121 . S
Mn217 N224 2.257 . S
Mn217 N233 2.282 . S
Mn217 O241 2.215 . S
Mn217 O243 2.117 . S
C218 O240 1.234 . S
C218 O241 1.283 . S
C219 O231 1.281 . S
C219 O232 1.236 . S
C220 O242 1.240 . S
C220 O243 1.264 . S
O221 Mn216 2.095 . S
O221 C230 1.250 . S
O222 Mn217 2.121 . S
O222 C230 1.258 . S
C223 N224 1.326 . S
C223 C227 1.460 . S
C223 H229 0.929 . S
N224 Mn217 2.257 . S
N224 C223 1.326 . S
N224 C228 1.362 . S
C225 C226 1.258 . S
C225 C228 1.431 . S
C225 C245 1.449 . S
C226 C225 1.258 . S
C226 C227 1.477 . S
C226 H246 0.931 . S
C227 C223 1.460 . S
C227 C226 1.477 . S
C227 H247 0.930 . S
C228 N224 1.362 . S
C228 C225 1.431 . S
C228 C238 1.476 . S
H229 C223 0.929 . S
C230 O221 1.250 . S
C230 O222 1.258 . S
O231 Mn216 2.162 . S
O231 C219 1.281 . S
O232 Mn216 2.297 . S
O232 C219 1.236 . S
N233 Mn217 2.282 . S
N233 C234 1.328 . S
N233 C238 1.318 . S
C234 N233 1.328 . S
C234 C235 1.457 . S
C234 H239 0.929 . S
C235 C234 1.457 . S
C235 C236 1.291 . S
C235 H248 0.931 . S
C236 C235 1.291 . S
C236 C237 1.373 . S
C236 H249 0.929 . S
C237 C236 1.373 . S
C237 C238 1.396 . S
C237 C244 1.403 . S
C238 C228 1.476 . S
C238 N233 1.318 . S
C238 C237 1.396 . S
H239 C234 0.929 . S
O240 Mn216 2.385 . S
O240 C218 1.234 . S
O241 Mn216 2.209 . S
O241 Mn217 2.215 . S
O241 C218 1.283 . S
O242 Mn216 2.094 . S
O242 C220 1.240 . S
O243 Mn217 2.117 . S
O243 C220 1.264 . S
C244 C237 1.403 . S
C244 C245 1.399 . S
C244 H250 0.929 . S
C245 C225 1.449 . S
C245 C244 1.399 . S
C245 H251 0.930 . S
H246 C226 0.931 . S
H247 C227 0.930 . S
H248 C235 0.931 . S
H249 C236 0.929 . S
H250 C244 0.929 . S
H251 C245 0.930 . S
Mn252 O257 2.095 . S
Mn252 O267 2.162 . S
Mn252 O268 2.297 . S
Mn252 O276 2.385 . S
Mn252 O277 2.209 . S
Mn252 O278 2.094 . S
Mn253 O258 2.121 . S
Mn253 N260 2.257 . S
Mn253 N269 2.282 . S
Mn253 O277 2.215 . S
Mn253 O279 2.117 . S
C254 O276 1.234 . S
C254 O277 1.283 . S
C255 O267 1.281 . S
C255 O268 1.236 . S
C256 O278 1.240 . S
C256 O279 1.264 . S
O257 Mn252 2.095 . S
O257 C266 1.250 . S
O258 Mn253 2.121 . S
O258 C266 1.258 . S
C259 N260 1.326 . S
C259 C263 1.460 . S
C259 H265 0.929 . S
N260 Mn253 2.257 . S
N260 C259 1.326 . S
N260 C264 1.362 . S
C261 C262 1.258 . S
C261 C264 1.431 . S
C261 C281 1.449 . S
C262 C261 1.258 . S
C262 C263 1.477 . S
C262 H282 0.931 . S
C263 C259 1.460 . S
C263 C262 1.477 . S
C263 H283 0.930 . S
C264 N260 1.362 . S
C264 C261 1.431 . S
C264 C274 1.476 . S
H265 C259 0.929 . S
C266 O257 1.250 . S
C266 O258 1.258 . S
O267 Mn252 2.162 . S
O267 C255 1.281 . S
O268 Mn252 2.297 . S
O268 C255 1.236 . S
N269 Mn253 2.282 . S
N269 C270 1.328 . S
N269 C274 1.318 . S
C270 N269 1.328 . S
C270 C271 1.457 . S
C270 H275 0.929 . S
C271 C270 1.457 . S
C271 C272 1.291 . S
C271 H284 0.931 . S
C272 C271 1.291 . S
C272 C273 1.373 . S
C272 H285 0.929 . S
C273 C272 1.373 . S
C273 C274 1.396 . S
C273 C280 1.403 . S
C274 C264 1.476 . S
C274 N269 1.318 . S
C274 C273 1.396 . S
H275 C270 0.929 . S
O276 Mn252 2.385 . S
O276 C254 1.234 . S
O277 Mn252 2.209 . S
O277 Mn253 2.215 . S
O277 C254 1.283 . S
O278 Mn252 2.094 . S
O278 C256 1.240 . S
O279 Mn253 2.117 . S
O279 C256 1.264 . S
C280 C273 1.403 . S
C280 C281 1.399 . S
C280 H286 0.929 . S
C281 C261 1.449 . S
C281 C280 1.399 . S
C281 H287 0.930 . S
H282 C262 0.931 . S
H283 C263 0.930 . S
H284 C271 0.931 . S
H285 C272 0.929 . S
H286 C280 0.929 . S
H287 C281 0.930 . S
Mn288 O293 2.095 . S
Mn288 O303 2.162 . S
Mn288 O304 2.297 . S
Mn288 O312 2.385 . S
Mn288 O313 2.209 . S
Mn288 O314 2.094 . S
Mn289 O294 2.121 . S
Mn289 N296 2.257 . S
Mn289 N305 2.282 . S
Mn289 O313 2.215 . S
Mn289 O315 2.117 . S
C290 O312 1.234 . S
C290 O313 1.283 . S
C291 O303 1.281 . S
C291 O304 1.236 . S
C292 O314 1.240 . S
C292 O315 1.264 . S
O293 Mn288 2.095 . S
O293 C302 1.250 . S
O294 Mn289 2.121 . S
O294 C302 1.258 . S
C295 N296 1.326 . S
C295 C299 1.460 . S
C295 H301 0.929 . S
N296 Mn289 2.257 . S
N296 C295 1.326 . S
N296 C300 1.362 . S
C297 C298 1.258 . S
C297 C300 1.431 . S
C297 C317 1.449 . S
C298 C297 1.258 . S
C298 C299 1.477 . S
C298 H318 0.931 . S
C299 C295 1.460 . S
C299 C298 1.477 . S
C299 H319 0.930 . S
C300 N296 1.362 . S
C300 C297 1.431 . S
C300 C310 1.476 . S
H301 C295 0.929 . S
C302 O293 1.250 . S
C302 O294 1.258 . S
O303 Mn288 2.162 . S
O303 C291 1.281 . S
O304 Mn288 2.297 . S
O304 C291 1.236 . S
N305 Mn289 2.282 . S
N305 C306 1.328 . S
N305 C310 1.318 . S
C306 N305 1.328 . S
C306 C307 1.457 . S
C306 H311 0.929 . S
C307 C306 1.457 . S
C307 C308 1.291 . S
C307 H320 0.931 . S
C308 C307 1.291 . S
C308 C309 1.373 . S
C308 H321 0.929 . S
C309 C308 1.373 . S
C309 C310 1.396 . S
C309 C316 1.403 . S
C310 C300 1.476 . S
C310 N305 1.318 . S
C310 C309 1.396 . S
H311 C306 0.929 . S
O312 Mn288 2.385 . S
O312 C290 1.234 . S
O313 Mn288 2.209 . S
O313 Mn289 2.215 . S
O313 C290 1.283 . S
O314 Mn288 2.094 . S
O314 C292 1.240 . S
O315 Mn289 2.117 . S
O315 C292 1.264 . S
C316 C309 1.403 . S
C316 C317 1.399 . S
C316 H322 0.929 . S
C317 C297 1.449 . S
C317 C316 1.399 . S
C317 H323 0.930 . S
H318 C298 0.931 . S
H319 C299 0.930 . S
H320 C307 0.931 . S
H321 C308 0.929 . S
H322 C316 0.929 . S
H323 C317 0.930 . S
Mn324 O329 2.095 . S
Mn324 O339 2.162 . S
Mn324 O340 2.297 . S
Mn324 O348 2.385 . S
Mn324 O349 2.209 . S
Mn324 O350 2.094 . S
Mn325 O330 2.121 . S
Mn325 N332 2.257 . S
Mn325 N341 2.282 . S
Mn325 O349 2.215 . S
Mn325 O351 2.117 . S
C326 O348 1.234 . S
C326 O349 1.283 . S
C327 O339 1.281 . S
C327 O340 1.236 . S
C328 O350 1.240 . S
C328 O351 1.264 . S
O329 Mn324 2.095 . S
O329 C338 1.250 . S
O330 Mn325 2.121 . S
O330 C338 1.258 . S
C331 N332 1.326 . S
C331 C335 1.460 . S
C331 H337 0.929 . S
N332 Mn325 2.257 . S
N332 C331 1.326 . S
N332 C336 1.362 . S
C333 C334 1.258 . S
C333 C336 1.431 . S
C333 C353 1.449 . S
C334 C333 1.258 . S
C334 C335 1.477 . S
C334 H354 0.931 . S
C335 C331 1.460 . S
C335 C334 1.477 . S
C335 H355 0.930 . S
C336 N332 1.362 . S
C336 C333 1.431 . S
C336 C346 1.476 . S
H337 C331 0.929 . S
C338 O329 1.250 . S
C338 O330 1.258 . S
O339 Mn324 2.162 . S
O339 C327 1.281 . S
O340 Mn324 2.297 . S
O340 C327 1.236 . S
N341 Mn325 2.282 . S
N341 C342 1.328 . S
N341 C346 1.318 . S
C342 N341 1.328 . S
C342 C343 1.457 . S
C342 H347 0.929 . S
C343 C342 1.457 . S
C343 C344 1.291 . S
C343 H356 0.931 . S
C344 C343 1.291 . S
C344 C345 1.373 . S
C344 H357 0.929 . S
C345 C344 1.373 . S
C345 C346 1.396 . S
C345 C352 1.403 . S
C346 C336 1.476 . S
C346 N341 1.318 . S
C346 C345 1.396 . S
H347 C342 0.929 . S
O348 Mn324 2.385 . S
O348 C326 1.234 . S
O349 Mn324 2.209 . S
O349 Mn325 2.215 . S
O349 C326 1.283 . S
O350 Mn324 2.094 . S
O350 C328 1.240 . S
O351 Mn325 2.117 . S
O351 C328 1.264 . S
C352 C345 1.403 . S
C352 C353 1.399 . S
C352 H358 0.929 . S
C353 C333 1.449 . S
C353 C352 1.399 . S
C353 H359 0.930 . S
H354 C334 0.931 . S
H355 C335 0.930 . S
H356 C343 0.931 . S
H357 C344 0.929 . S
H358 C352 0.929 . S
H359 C353 0.930 . S
Mn360 O365 2.095 . S
Mn360 O375 2.162 . S
Mn360 O376 2.297 . S
Mn360 O384 2.385 . S
Mn360 O385 2.209 . S
Mn360 O386 2.094 . S
Mn361 O366 2.121 . S
Mn361 N368 2.257 . S
Mn361 N377 2.282 . S
Mn361 O385 2.215 . S
Mn361 O387 2.117 . S
C362 O384 1.234 . S
C362 O385 1.283 . S
C363 O375 1.281 . S
C363 O376 1.236 . S
C364 O386 1.240 . S
C364 O387 1.264 . S
O365 Mn360 2.095 . S
O365 C374 1.250 . S
O366 Mn361 2.121 . S
O366 C374 1.258 . S
C367 N368 1.326 . S
C367 C371 1.460 . S
C367 H373 0.929 . S
N368 Mn361 2.257 . S
N368 C367 1.326 . S
N368 C372 1.362 . S
C369 C370 1.258 . S
C369 C372 1.431 . S
C369 C389 1.449 . S
C370 C369 1.258 . S
C370 C371 1.477 . S
C370 H390 0.931 . S
C371 C367 1.460 . S
C371 C370 1.477 . S
C371 H391 0.930 . S
C372 N368 1.362 . S
C372 C369 1.431 . S
C372 C382 1.476 . S
H373 C367 0.929 . S
C374 O365 1.250 . S
C374 O366 1.258 . S
O375 Mn360 2.162 . S
O375 C363 1.281 . S
O376 Mn360 2.297 . S
O376 C363 1.236 . S
N377 Mn361 2.282 . S
N377 C378 1.328 . S
N377 C382 1.318 . S
C378 N377 1.328 . S
C378 C379 1.457 . S
C378 H383 0.929 . S
C379 C378 1.457 . S
C379 C380 1.291 . S
C379 H392 0.931 . S
C380 C379 1.291 . S
C380 C381 1.373 . S
C380 H393 0.929 . S
C381 C380 1.373 . S
C381 C382 1.396 . S
C381 C388 1.403 . S
C382 C372 1.476 . S
C382 N377 1.318 . S
C382 C381 1.396 . S
H383 C378 0.929 . S
O384 Mn360 2.385 . S
O384 C362 1.234 . S
O385 Mn360 2.209 . S
O385 Mn361 2.215 . S
O385 C362 1.283 . S
O386 Mn360 2.094 . S
O386 C364 1.240 . S
O387 Mn361 2.117 . S
O387 C364 1.264 . S
C388 C381 1.403 . S
C388 C389 1.399 . S
C388 H394 0.929 . S
C389 C369 1.449 . S
C389 C388 1.399 . S
C389 H395 0.930 . S
H390 C370 0.931 . S
H391 C371 0.930 . S
H392 C379 0.931 . S
H393 C380 0.929 . S
H394 C388 0.929 . S
H395 C389 0.930 . S
Mn396 O401 2.095 . S
Mn396 O411 2.162 . S
Mn396 O412 2.297 . S
Mn396 O420 2.385 . S
Mn396 O421 2.209 . S
Mn396 O422 2.094 . S
Mn397 O402 2.121 . S
Mn397 N404 2.257 . S
Mn397 N413 2.282 . S
Mn397 O421 2.215 . S
Mn397 O423 2.117 . S
C398 O420 1.234 . S
C398 O421 1.283 . S
C399 O411 1.281 . S
C399 O412 1.236 . S
C400 O422 1.240 . S
C400 O423 1.264 . S
O401 Mn396 2.095 . S
O401 C410 1.250 . S
O402 Mn397 2.121 . S
O402 C410 1.258 . S
C403 N404 1.326 . S
C403 C407 1.460 . S
C403 H409 0.929 . S
N404 Mn397 2.257 . S
N404 C403 1.326 . S
N404 C408 1.362 . S
C405 C406 1.258 . S
C405 C408 1.431 . S
C405 C425 1.449 . S
C406 C405 1.258 . S
C406 C407 1.477 . S
C406 H426 0.931 . S
C407 C403 1.460 . S
C407 C406 1.477 . S
C407 H427 0.930 . S
C408 N404 1.362 . S
C408 C405 1.431 . S
C408 C418 1.476 . S
H409 C403 0.929 . S
C410 O401 1.250 . S
C410 O402 1.258 . S
O411 Mn396 2.162 . S
O411 C399 1.281 . S
O412 Mn396 2.297 . S
O412 C399 1.236 . S
N413 Mn397 2.282 . S
N413 C414 1.328 . S
N413 C418 1.318 . S
C414 N413 1.328 . S
C414 C415 1.457 . S
C414 H419 0.929 . S
C415 C414 1.457 . S
C415 C416 1.291 . S
C415 H428 0.931 . S
C416 C415 1.291 . S
C416 C417 1.373 . S
C416 H429 0.929 . S
C417 C416 1.373 . S
C417 C418 1.396 . S
C417 C424 1.403 . S
C418 C408 1.476 . S
C418 N413 1.318 . S
C418 C417 1.396 . S
H419 C414 0.929 . S
O420 Mn396 2.385 . S
O420 C398 1.234 . S
O421 Mn396 2.209 . S
O421 Mn397 2.215 . S
O421 C398 1.283 . S
O422 Mn396 2.094 . S
O422 C400 1.240 . S
O423 Mn397 2.117 . S
O423 C400 1.264 . S
C424 C417 1.403 . S
C424 C425 1.399 . S
C424 H430 0.929 . S
C425 C405 1.449 . S
C425 C424 1.399 . S
C425 H431 0.930 . S
H426 C406 0.931 . S
H427 C407 0.930 . S
H428 C415 0.931 . S
H429 C416 0.929 . S
H430 C424 0.929 . S
H431 C425 0.930 . S
Mn432 O437 2.095 . S
Mn432 O447 2.162 . S
Mn432 O448 2.297 . S
Mn432 O456 2.385 . S
Mn432 O457 2.209 . S
Mn432 O458 2.094 . S
Mn433 O438 2.121 . S
Mn433 N440 2.257 . S
Mn433 N449 2.282 . S
Mn433 O457 2.215 . S
Mn433 O459 2.117 . S
C434 O456 1.234 . S
C434 O457 1.283 . S
C435 O447 1.281 . S
C435 O448 1.236 . S
C436 O458 1.240 . S
C436 O459 1.264 . S
O437 Mn432 2.095 . S
O437 C446 1.250 . S
O438 Mn433 2.121 . S
O438 C446 1.258 . S
C439 N440 1.326 . S
C439 C443 1.460 . S
C439 H445 0.929 . S
N440 Mn433 2.257 . S
N440 C439 1.326 . S
N440 C444 1.362 . S
C441 C442 1.258 . S
C441 C444 1.431 . S
C441 C461 1.449 . S
C442 C441 1.258 . S
C442 C443 1.477 . S
C442 H462 0.931 . S
C443 C439 1.460 . S
C443 C442 1.477 . S
C443 H463 0.930 . S
C444 N440 1.362 . S
C444 C441 1.431 . S
C444 C454 1.476 . S
H445 C439 0.929 . S
C446 O437 1.250 . S
C446 O438 1.258 . S
O447 Mn432 2.162 . S
O447 C435 1.281 . S
O448 Mn432 2.297 . S
O448 C435 1.236 . S
N449 Mn433 2.282 . S
N449 C450 1.328 . S
N449 C454 1.318 . S
C450 N449 1.328 . S
C450 C451 1.457 . S
C450 H455 0.929 . S
C451 C450 1.457 . S
C451 C452 1.291 . S
C451 H464 0.931 . S
C452 C451 1.291 . S
C452 C453 1.373 . S
C452 H465 0.929 . S
C453 C452 1.373 . S
C453 C454 1.396 . S
C453 C460 1.403 . S
C454 C444 1.476 . S
C454 N449 1.318 . S
C454 C453 1.396 . S
H455 C450 0.929 . S
O456 Mn432 2.385 . S
O456 C434 1.234 . S
O457 Mn432 2.209 . S
O457 Mn433 2.215 . S
O457 C434 1.283 . S
O458 Mn432 2.094 . S
O458 C436 1.240 . S
O459 Mn433 2.117 . S
O459 C436 1.264 . S
C460 C453 1.403 . S
C460 C461 1.399 . S
C460 H466 0.929 . S
C461 C441 1.449 . S
C461 C460 1.399 . S
C461 H467 0.930 . S
H462 C442 0.931 . S
H463 C443 0.930 . S
H464 C451 0.931 . S
H465 C452 0.929 . S
H466 C460 0.929 . S
H467 C461 0.930 . S
Mn468 O473 2.095 . S
Mn468 O483 2.162 . S
Mn468 O484 2.297 . S
Mn468 O492 2.385 . S
Mn468 O493 2.209 . S
Mn468 O494 2.094 . S
Mn469 O474 2.121 . S
Mn469 N476 2.257 . S
Mn469 N485 2.282 . S
Mn469 O493 2.215 . S
Mn469 O495 2.117 . S
C470 O492 1.234 . S
C470 O493 1.283 . S
C471 O483 1.281 . S
C471 O484 1.236 . S
C472 O494 1.240 . S
C472 O495 1.264 . S
O473 Mn468 2.095 . S
O473 C482 1.250 . S
O474 Mn469 2.121 . S
O474 C482 1.258 . S
C475 N476 1.326 . S
C475 C479 1.460 . S
C475 H481 0.929 . S
N476 Mn469 2.257 . S
N476 C475 1.326 . S
N476 C480 1.362 . S
C477 C478 1.258 . S
C477 C480 1.431 . S
C477 C497 1.449 . S
C478 C477 1.258 . S
C478 C479 1.477 . S
C478 H498 0.931 . S
C479 C475 1.460 . S
C479 C478 1.477 . S
C479 H499 0.930 . S
C480 N476 1.362 . S
C480 C477 1.431 . S
C480 C490 1.476 . S
H481 C475 0.929 . S
C482 O473 1.250 . S
C482 O474 1.258 . S
O483 Mn468 2.162 . S
O483 C471 1.281 . S
O484 Mn468 2.297 . S
O484 C471 1.236 . S
N485 Mn469 2.282 . S
N485 C486 1.328 . S
N485 C490 1.318 . S
C486 N485 1.328 . S
C486 C487 1.457 . S
C486 H491 0.929 . S
C487 C486 1.457 . S
C487 C488 1.291 . S
C487 H500 0.931 . S
C488 C487 1.291 . S
C488 C489 1.373 . S
C488 H501 0.929 . S
C489 C488 1.373 . S
C489 C490 1.396 . S
C489 C496 1.403 . S
C490 C480 1.476 . S
C490 N485 1.318 . S
C490 C489 1.396 . S
H491 C486 0.929 . S
O492 Mn468 2.385 . S
O492 C470 1.234 . S
O493 Mn468 2.209 . S
O493 Mn469 2.215 . S
O493 C470 1.283 . S
O494 Mn468 2.094 . S
O494 C472 1.240 . S
O495 Mn469 2.117 . S
O495 C472 1.264 . S
C496 C489 1.403 . S
C496 C497 1.399 . S
C496 H502 0.929 . S
C497 C477 1.449 . S
C497 C496 1.399 . S
C497 H503 0.930 . S
H498 C478 0.931 . S
H499 C479 0.930 . S
H500 C487 0.931 . S
H501 C488 0.929 . S
H502 C496 0.929 . S
H503 C497 0.930 . S
Mn504 O509 2.095 . S
Mn504 O519 2.162 . S
Mn504 O520 2.297 . S
Mn504 O528 2.385 . S
Mn504 O529 2.209 . S
Mn504 O530 2.094 . S
Mn505 O510 2.121 . S
Mn505 N512 2.257 . S
Mn505 N521 2.282 . S
Mn505 O529 2.215 . S
Mn505 O531 2.117 . S
C506 O528 1.234 . S
C506 O529 1.283 . S
C507 O519 1.281 . S
C507 O520 1.236 . S
C508 O530 1.240 . S
C508 O531 1.264 . S
O509 Mn504 2.095 . S
O509 C518 1.250 . S
O510 Mn505 2.121 . S
O510 C518 1.258 . S
C511 N512 1.326 . S
C511 C515 1.460 . S
C511 H517 0.929 . S
N512 Mn505 2.257 . S
N512 C511 1.326 . S
N512 C516 1.362 . S
C513 C514 1.258 . S
C513 C516 1.431 . S
C513 C533 1.449 . S
C514 C513 1.258 . S
C514 C515 1.477 . S
C514 H534 0.931 . S
C515 C511 1.460 . S
C515 C514 1.477 . S
C515 H535 0.930 . S
C516 N512 1.362 . S
C516 C513 1.431 . S
C516 C526 1.476 . S
H517 C511 0.929 . S
C518 O509 1.250 . S
C518 O510 1.258 . S
O519 Mn504 2.162 . S
O519 C507 1.281 . S
O520 Mn504 2.297 . S
O520 C507 1.236 . S
N521 Mn505 2.282 . S
N521 C522 1.328 . S
N521 C526 1.318 . S
C522 N521 1.328 . S
C522 C523 1.457 . S
C522 H527 0.929 . S
C523 C522 1.457 . S
C523 C524 1.291 . S
C523 H536 0.931 . S
C524 C523 1.291 . S
C524 C525 1.373 . S
C524 H537 0.929 . S
C525 C524 1.373 . S
C525 C526 1.396 . S
C525 C532 1.403 . S
C526 C516 1.476 . S
C526 N521 1.318 . S
C526 C525 1.396 . S
H527 C522 0.929 . S
O528 Mn504 2.385 . S
O528 C506 1.234 . S
O529 Mn504 2.209 . S
O529 Mn505 2.215 . S
O529 C506 1.283 . S
O530 Mn504 2.094 . S
O530 C508 1.240 . S
O531 Mn505 2.117 . S
O531 C508 1.264 . S
C532 C525 1.403 . S
C532 C533 1.399 . S
C532 H538 0.929 . S
C533 C513 1.449 . S
C533 C532 1.399 . S
C533 H539 0.930 . S
H534 C514 0.931 . S
H535 C515 0.930 . S
H536 C523 0.931 . S
H537 C524 0.929 . S
H538 C532 0.929 . S
H539 C533 0.930 . S
Mn540 O545 2.095 . S
Mn540 O555 2.162 . S
Mn540 O556 2.297 . S
Mn540 O564 2.385 . S
Mn540 O565 2.209 . S
Mn540 O566 2.094 . S
Mn541 O546 2.121 . S
Mn541 N548 2.257 . S
Mn541 N557 2.282 . S
Mn541 O565 2.215 . S
Mn541 O567 2.117 . S
C542 O564 1.234 . S
C542 O565 1.283 . S
C543 O555 1.281 . S
C543 O556 1.236 . S
C544 O566 1.240 . S
C544 O567 1.264 . S
O545 Mn540 2.095 . S
O545 C554 1.250 . S
O546 Mn541 2.121 . S
O546 C554 1.258 . S
C547 N548 1.326 . S
C547 C551 1.460 . S
C547 H553 0.929 . S
N548 Mn541 2.257 . S
N548 C547 1.326 . S
N548 C552 1.362 . S
C549 C550 1.258 . S
C549 C552 1.431 . S
C549 C569 1.449 . S
C550 C549 1.258 . S
C550 C551 1.477 . S
C550 H570 0.931 . S
C551 C547 1.460 . S
C551 C550 1.477 . S
C551 H571 0.930 . S
C552 N548 1.362 . S
C552 C549 1.431 . S
C552 C562 1.476 . S
H553 C547 0.929 . S
C554 O545 1.250 . S
C554 O546 1.258 . S
O555 Mn540 2.162 . S
O555 C543 1.281 . S
O556 Mn540 2.297 . S
O556 C543 1.236 . S
N557 Mn541 2.282 . S
N557 C558 1.328 . S
N557 C562 1.318 . S
C558 N557 1.328 . S
C558 C559 1.457 . S
C558 H563 0.929 . S
C559 C558 1.457 . S
C559 C560 1.291 . S
C559 H572 0.931 . S
C560 C559 1.291 . S
C560 C561 1.373 . S
C560 H573 0.929 . S
C561 C560 1.373 . S
C561 C562 1.396 . S
C561 C568 1.403 . S
C562 C552 1.476 . S
C562 N557 1.318 . S
C562 C561 1.396 . S
H563 C558 0.929 . S
O564 Mn540 2.385 . S
O564 C542 1.234 . S
O565 Mn540 2.209 . S
O565 Mn541 2.215 . S
O565 C542 1.283 . S
O566 Mn540 2.094 . S
O566 C544 1.240 . S
O567 Mn541 2.117 . S
O567 C544 1.264 . S
C568 C561 1.403 . S
C568 C569 1.399 . S
C568 H574 0.929 . S
C569 C549 1.449 . S
C569 C568 1.399 . S
C569 H575 0.930 . S
H570 C550 0.931 . S
H571 C551 0.930 . S
H572 C559 0.931 . S
H573 C560 0.929 . S
H574 C568 0.929 . S
H575 C569 0.930 . S
H576 C588 0.930 . S
H577 C590 0.930 . S
H578 C591 0.930 . S
H579 C595 0.959 . S
H580 C595 0.959 . S
H581 C595 0.961 . S
H582 C596 0.960 . S
H583 C596 0.961 . S
H584 C596 0.959 . S
H585 C599 0.929 . S
H586 C600 0.931 . S
H587 C602 0.930 . S
C588 H576 0.930 . S
C588 C589 1.399 . S
C588 C593 1.399 . S
C589 C588 1.399 . S
C589 C590 1.376 . S
C590 H577 0.930 . S
C590 C589 1.376 . S
C590 C591 1.388 . S
C591 H578 0.930 . S
C591 C590 1.388 . S
C591 C592 1.390 . S
C592 C591 1.390 . S
C592 C593 1.394 . S
C592 C598 1.465 . S
C593 C588 1.399 . S
C593 C592 1.394 . S
C593 C594 1.516 . S
C594 C593 1.516 . S
C594 C595 1.502 . S
C594 C596 1.561 . S
C594 C597 1.526 . S
C595 H579 0.959 . S
C595 H580 0.959 . S
C595 H581 0.961 . S
C595 C594 1.502 . S
C596 H582 0.960 . S
C596 H583 0.961 . S
C596 H584 0.959 . S
C596 C594 1.561 . S
C597 C594 1.526 . S
C597 C598 1.396 . S
C597 C602 1.390 . S
C598 C592 1.465 . S
C598 C597 1.396 . S
C598 C599 1.399 . S
C599 H585 0.929 . S
C599 C598 1.399 . S
C599 C600 1.385 . S
C600 H586 0.931 . S
C600 C599 1.385 . S
C600 C601 1.389 . S
C601 C600 1.389 . S
C601 C602 1.387 . S
C602 H587 0.930 . S
C602 C597 1.390 . S
C602 C601 1.387 . S
H603 C615 0.930 . S
H604 C617 0.930 . S
H605 C618 0.930 . S
H606 C622 0.959 . S
H607 C622 0.959 . S
H608 C622 0.961 . S
H609 C623 0.960 . S
H610 C623 0.961 . S
H611 C623 0.959 . S
H612 C626 0.929 . S
H613 C627 0.931 . S
H614 C629 0.930 . S
C615 H603 0.930 . S
C615 C616 1.399 . S
C615 C620 1.399 . S
C616 C615 1.399 . S
C616 C617 1.376 . S
C617 H604 0.930 . S
C617 C616 1.376 . S
C617 C618 1.388 . S
C618 H605 0.930 . S
C618 C617 1.388 . S
C618 C619 1.390 . S
C619 C618 1.390 . S
C619 C620 1.394 . S
C619 C625 1.465 . S
C620 C615 1.399 . S
C620 C619 1.394 . S
C620 C621 1.516 . S
C621 C620 1.516 . S
C621 C622 1.502 . S
C621 C623 1.561 . S
C621 C624 1.526 . S
C622 H606 0.959 . S
C622 H607 0.959 . S
C622 H608 0.961 . S
C622 C621 1.502 . S
C623 H609 0.960 . S
C623 H610 0.961 . S
C623 H611 0.959 . S
C623 C621 1.561 . S
C624 C621 1.526 . S
C624 C625 1.396 . S
C624 C629 1.390 . S
C625 C619 1.465 . S
C625 C624 1.396 . S
C625 C626 1.399 . S
C626 H612 0.929 . S
C626 C625 1.399 . S
C626 C627 1.385 . S
C627 H613 0.931 . S
C627 C626 1.385 . S
C627 C628 1.389 . S
C628 C627 1.389 . S
C628 C629 1.387 . S
C629 H614 0.930 . S
C629 C624 1.390 . S
C629 C628 1.387 . S
H630 C642 0.930 . S
H631 C644 0.930 . S
H632 C645 0.930 . S
H633 C649 0.959 . S
H634 C649 0.959 . S
H635 C649 0.961 . S
H636 C650 0.960 . S
H637 C650 0.961 . S
H638 C650 0.959 . S
H639 C653 0.929 . S
H640 C654 0.931 . S
H641 C656 0.930 . S
C642 H630 0.930 . S
C642 C643 1.399 . S
C642 C647 1.399 . S
C643 C642 1.399 . S
C643 C644 1.376 . S
C644 H631 0.930 . S
C644 C643 1.376 . S
C644 C645 1.388 . S
C645 H632 0.930 . S
C645 C644 1.388 . S
C645 C646 1.390 . S
C646 C645 1.390 . S
C646 C647 1.394 . S
C646 C652 1.465 . S
C647 C642 1.399 . S
C647 C646 1.394 . S
C647 C648 1.516 . S
C648 C647 1.516 . S
C648 C649 1.502 . S
C648 C650 1.561 . S
C648 C651 1.526 . S
C649 H633 0.959 . S
C649 H634 0.959 . S
C649 H635 0.961 . S
C649 C648 1.502 . S
C650 H636 0.960 . S
C650 H637 0.961 . S
C650 H638 0.959 . S
C650 C648 1.561 . S
C651 C648 1.526 . S
C651 C652 1.396 . S
C651 C656 1.390 . S
C652 C646 1.465 . S
C652 C651 1.396 . S
C652 C653 1.399 . S
C653 H639 0.929 . S
C653 C652 1.399 . S
C653 C654 1.385 . S
C654 H640 0.931 . S
C654 C653 1.385 . S
C654 C655 1.389 . S
C655 C654 1.389 . S
C655 C656 1.387 . S
C656 H641 0.930 . S
C656 C651 1.390 . S
C656 C655 1.387 . S
H657 C669 0.930 . S
H658 C671 0.930 . S
H659 C672 0.930 . S
H660 C676 0.959 . S
H661 C676 0.959 . S
H662 C676 0.961 . S
H663 C677 0.960 . S
H664 C677 0.961 . S
H665 C677 0.959 . S
H666 C680 0.929 . S
H667 C681 0.931 . S
H668 C683 0.930 . S
C669 H657 0.930 . S
C669 C670 1.399 . S
C669 C674 1.399 . S
C670 C669 1.399 . S
C670 C671 1.376 . S
C671 H658 0.930 . S
C671 C670 1.376 . S
C671 C672 1.388 . S
C672 H659 0.930 . S
C672 C671 1.388 . S
C672 C673 1.390 . S
C673 C672 1.390 . S
C673 C674 1.394 . S
C673 C679 1.465 . S
C674 C669 1.399 . S
C674 C673 1.394 . S
C674 C675 1.516 . S
C675 C674 1.516 . S
C675 C676 1.502 . S
C675 C677 1.561 . S
C675 C678 1.526 . S
C676 H660 0.959 . S
C676 H661 0.959 . S
C676 H662 0.961 . S
C676 C675 1.502 . S
C677 H663 0.960 . S
C677 H664 0.961 . S
C677 H665 0.959 . S
C677 C675 1.561 . S
C678 C675 1.526 . S
C678 C679 1.396 . S
C678 C683 1.390 . S
C679 C673 1.465 . S
C679 C678 1.396 . S
C679 C680 1.399 . S
C680 H666 0.929 . S
C680 C679 1.399 . S
C680 C681 1.385 . S
C681 H667 0.931 . S
C681 C680 1.385 . S
C681 C682 1.389 . S
C682 C681 1.389 . S
C682 C683 1.387 . S
C683 H668 0.930 . S
C683 C678 1.390 . S
C683 C682 1.387 . S
H684 C696 0.930 . S
H685 C698 0.930 . S
H686 C699 0.930 . S
H687 C703 0.959 . S
H688 C703 0.959 . S
H689 C703 0.961 . S
H690 C704 0.960 . S
H691 C704 0.961 . S
H692 C704 0.959 . S
H693 C707 0.929 . S
H694 C708 0.931 . S
H695 C710 0.930 . S
C696 H684 0.930 . S
C696 C697 1.399 . S
C696 C701 1.399 . S
C697 C696 1.399 . S
C697 C698 1.376 . S
C698 H685 0.930 . S
C698 C697 1.376 . S
C698 C699 1.388 . S
C699 H686 0.930 . S
C699 C698 1.388 . S
C699 C700 1.390 . S
C700 C699 1.390 . S
C700 C701 1.394 . S
C700 C706 1.465 . S
C701 C696 1.399 . S
C701 C700 1.394 . S
C701 C702 1.516 . S
C702 C701 1.516 . S
C702 C703 1.502 . S
C702 C704 1.561 . S
C702 C705 1.526 . S
C703 H687 0.959 . S
C703 H688 0.959 . S
C703 H689 0.961 . S
C703 C702 1.502 . S
C704 H690 0.960 . S
C704 H691 0.961 . S
C704 H692 0.959 . S
C704 C702 1.561 . S
C705 C702 1.526 . S
C705 C706 1.396 . S
C705 C710 1.390 . S
C706 C700 1.465 . S
C706 C705 1.396 . S
C706 C707 1.399 . S
C707 H693 0.929 . S
C707 C706 1.399 . S
C707 C708 1.385 . S
C708 H694 0.931 . S
C708 C707 1.385 . S
C708 C709 1.389 . S
C709 C708 1.389 . S
C709 C710 1.387 . S
C710 H695 0.930 . S
C710 C705 1.390 . S
C710 C709 1.387 . S
H711 C723 0.930 . S
H712 C725 0.930 . S
H713 C726 0.930 . S
H714 C730 0.959 . S
H715 C730 0.959 . S
H716 C730 0.961 . S
H717 C731 0.960 . S
H718 C731 0.961 . S
H719 C731 0.959 . S
H720 C734 0.929 . S
H721 C735 0.931 . S
H722 C737 0.930 . S
C723 H711 0.930 . S
C723 C724 1.399 . S
C723 C728 1.399 . S
C724 C723 1.399 . S
C724 C725 1.376 . S
C725 H712 0.930 . S
C725 C724 1.376 . S
C725 C726 1.388 . S
C726 H713 0.930 . S
C726 C725 1.388 . S
C726 C727 1.390 . S
C727 C726 1.390 . S
C727 C728 1.394 . S
C727 C733 1.465 . S
C728 C723 1.399 . S
C728 C727 1.394 . S
C728 C729 1.516 . S
C729 C728 1.516 . S
C729 C730 1.502 . S
C729 C731 1.561 . S
C729 C732 1.526 . S
C730 H714 0.959 . S
C730 H715 0.959 . S
C730 H716 0.961 . S
C730 C729 1.502 . S
C731 H717 0.960 . S
C731 H718 0.961 . S
C731 H719 0.959 . S
C731 C729 1.561 . S
C732 C729 1.526 . S
C732 C733 1.396 . S
C732 C737 1.390 . S
C733 C727 1.465 . S
C733 C732 1.396 . S
C733 C734 1.399 . S
C734 H720 0.929 . S
C734 C733 1.399 . S
C734 C735 1.385 . S
C735 H721 0.931 . S
C735 C734 1.385 . S
C735 C736 1.389 . S
C736 C735 1.389 . S
C736 C737 1.387 . S
C737 H722 0.930 . S
C737 C732 1.390 . S
C737 C736 1.387 . S
H738 C750 0.930 . S
H739 C752 0.930 . S
H740 C753 0.930 . S
H741 C757 0.959 . S
H742 C757 0.959 . S
H743 C757 0.961 . S
H744 C758 0.960 . S
H745 C758 0.961 . S
H746 C758 0.959 . S
H747 C761 0.929 . S
H748 C762 0.931 . S
H749 C764 0.930 . S
C750 H738 0.930 . S
C750 C751 1.399 . S
C750 C755 1.399 . S
C751 C750 1.399 . S
C751 C752 1.376 . S
C752 H739 0.930 . S
C752 C751 1.376 . S
C752 C753 1.388 . S
C753 H740 0.930 . S
C753 C752 1.388 . S
C753 C754 1.390 . S
C754 C753 1.390 . S
C754 C755 1.394 . S
C754 C760 1.465 . S
C755 C750 1.399 . S
C755 C754 1.394 . S
C755 C756 1.516 . S
C756 C755 1.516 . S
C756 C757 1.502 . S
C756 C758 1.561 . S
C756 C759 1.526 . S
C757 H741 0.959 . S
C757 H742 0.959 . S
C757 H743 0.961 . S
C757 C756 1.502 . S
C758 H744 0.960 . S
C758 H745 0.961 . S
C758 H746 0.959 . S
C758 C756 1.561 . S
C759 C756 1.526 . S
C759 C760 1.396 . S
C759 C764 1.390 . S
C760 C754 1.465 . S
C760 C759 1.396 . S
C760 C761 1.399 . S
C761 H747 0.929 . S
C761 C760 1.399 . S
C761 C762 1.385 . S
C762 H748 0.931 . S
C762 C761 1.385 . S
C762 C763 1.389 . S
C763 C762 1.389 . S
C763 C764 1.387 . S
C764 H749 0.930 . S
C764 C759 1.390 . S
C764 C763 1.387 . S
H765 C777 0.930 . S
H766 C779 0.930 . S
H767 C780 0.930 . S
H768 C784 0.959 . S
H769 C784 0.959 . S
H770 C784 0.961 . S
H771 C785 0.960 . S
H772 C785 0.961 . S
H773 C785 0.959 . S
H774 C788 0.929 . S
H775 C789 0.931 . S
H776 C791 0.930 . S
C777 H765 0.930 . S
C777 C778 1.399 . S
C777 C782 1.399 . S
C778 C777 1.399 . S
C778 C779 1.376 . S
C779 H766 0.930 . S
C779 C778 1.376 . S
C779 C780 1.388 . S
C780 H767 0.930 . S
C780 C779 1.388 . S
C780 C781 1.390 . S
C781 C780 1.390 . S
C781 C782 1.394 . S
C781 C787 1.465 . S
C782 C777 1.399 . S
C782 C781 1.394 . S
C782 C783 1.516 . S
C783 C782 1.516 . S
C783 C784 1.502 . S
C783 C785 1.561 . S
C783 C786 1.526 . S
C784 H768 0.959 . S
C784 H769 0.959 . S
C784 H770 0.961 . S
C784 C783 1.502 . S
C785 H771 0.960 . S
C785 H772 0.961 . S
C785 H773 0.959 . S
C785 C783 1.561 . S
C786 C783 1.526 . S
C786 C787 1.396 . S
C786 C791 1.390 . S
C787 C781 1.465 . S
C787 C786 1.396 . S
C787 C788 1.399 . S
C788 H774 0.929 . S
C788 C787 1.399 . S
C788 C789 1.385 . S
C789 H775 0.931 . S
C789 C788 1.385 . S
C789 C790 1.389 . S
C790 C789 1.389 . S
C790 C791 1.387 . S
C791 H776 0.930 . S
C791 C786 1.390 . S
C791 C790 1.387 . S
H792 C804 0.930 . S
H793 C806 0.930 . S
H794 C807 0.930 . S
H795 C811 0.959 . S
H796 C811 0.959 1_554 S
H797 C811 0.961 . S
H798 C812 0.990 . S
H799 C812 0.938 1_554 S
H800 C812 0.953 1_554 S
H801 C815 0.929 . S
H802 C816 0.931 . S
H803 C818 0.930 . S
C804 H792 0.930 . S
C804 C805 1.399 . S
C804 C809 1.399 . S
C805 C804 1.399 . S
C805 C806 1.376 . S
C806 H793 0.930 . S
C806 C805 1.376 . S
C806 C807 1.388 . S
C807 H794 0.930 . S
C807 C806 1.388 . S
C807 C808 1.390 . S
C808 C807 1.390 . S
C808 C809 1.394 . S
C808 C814 1.465 1_556 S
C809 C804 1.399 . S
C809 C808 1.394 . S
C809 C810 1.532 . S
C810 C809 1.532 . S
C810 C811 1.504 . S
C810 C812 1.561 . S
C810 C813 1.508 1_556 S
C811 H795 0.959 . S
C811 H796 0.959 1_556 S
C811 H797 0.961 . S
C811 C810 1.504 . S
C812 H798 0.990 . S
C812 H799 0.938 1_556 S
C812 H800 0.953 1_556 S
C812 C810 1.561 . S
C813 C810 1.508 1_554 S
C813 C814 1.396 . S
C813 C818 1.390 . S
C814 C808 1.465 1_554 S
C814 C813 1.396 . S
C814 C815 1.399 . S
C815 H801 0.929 . S
C815 C814 1.399 . S
C815 C816 1.385 . S
C816 H802 0.931 . S
C816 C815 1.385 . S
C816 C817 1.389 . S
C817 C816 1.389 . S
C817 C818 1.387 . S
C818 H803 0.930 . S
C818 C813 1.390 . S
C818 C817 1.387 . S
H819 C831 0.930 . S
H820 C833 0.930 . S
H821 C834 0.930 . S
H822 C838 0.959 . S
H823 C838 0.959 1_554 S
H824 C838 0.961 . S
H825 C839 0.960 1_556 S
H826 C839 0.961 . S
H827 C839 0.959 . S
H828 C842 0.929 . S
H829 C843 0.931 . S
H830 C845 0.930 . S
C831 H819 0.930 . S
C831 C832 1.399 . S
C831 C836 1.399 . S
C832 C831 1.399 . S
C832 C833 1.376 . S
C833 H820 0.930 . S
C833 C832 1.376 . S
C833 C834 1.388 . S
C834 H821 0.930 . S
C834 C833 1.388 . S
C834 C835 1.390 . S
C835 C834 1.390 . S
C835 C836 1.394 . S
C835 C841 1.465 1_556 S
C836 C831 1.399 . S
C836 C835 1.394 . S
C836 C837 1.516 . S
C837 C836 1.516 . S
C837 C838 1.502 . S
C837 C839 1.561 1_556 S
C837 C840 1.526 1_556 S
C838 H822 0.959 . S
C838 H823 0.959 1_556 S
C838 H824 0.961 . S
C838 C837 1.502 . S
C839 H825 0.960 1_554 S
C839 H826 0.961 . S
C839 H827 0.959 . S
C839 C837 1.561 1_554 S
C840 C837 1.526 1_554 S
C840 C841 1.396 . S
C840 C845 1.390 . S
C841 C835 1.465 1_554 S
C841 C840 1.396 . S
C841 C842 1.399 . S
C842 H828 0.929 . S
C842 C841 1.399 . S
C842 C843 1.385 . S
C843 H829 0.931 . S
C843 C842 1.385 . S
C843 C844 1.389 . S
C844 C843 1.389 . S
C844 C845 1.387 . S
C845 H830 0.930 . S
C845 C840 1.390 . S
C845 C844 1.387 . S
H846 C858 0.930 . S
H847 C860 0.930 . S
H848 C861 0.930 . S
H849 C865 0.959 . S
H850 C865 0.959 . S
H851 C865 0.961 1_556 S
H852 C866 0.960 1_556 S
H853 C866 0.961 . S
H854 C866 0.959 . S
H855 C869 0.929 . S
H856 C870 0.931 . S
H857 C872 0.930 . S
C858 H846 0.930 . S
C858 C859 1.399 . S
C858 C863 1.399 . S
C859 C858 1.399 . S
C859 C860 1.376 . S
C860 H847 0.930 . S
C860 C859 1.376 . S
C860 C861 1.388 . S
C861 H848 0.930 . S
C861 C860 1.388 . S
C861 C862 1.390 . S
C862 C861 1.390 . S
C862 C863 1.394 . S
C862 C868 1.465 1_556 S
C863 C858 1.399 . S
C863 C862 1.394 . S
C863 C864 1.516 1_556 S
C864 C863 1.516 1_554 S
C864 C865 1.502 . S
C864 C866 1.561 . S
C864 C867 1.526 . S
C865 H849 0.959 . S
C865 H850 0.959 . S
C865 H851 0.961 1_554 S
C865 C864 1.502 . S
C866 H852 0.960 1_554 S
C866 H853 0.961 . S
C866 H854 0.959 . S
C866 C864 1.561 . S
C867 C864 1.526 . S
C867 C868 1.396 . S
C867 C872 1.390 . S
C868 C862 1.465 1_554 S
C868 C867 1.396 . S
C868 C869 1.399 . S
C869 H855 0.929 . S
C869 C868 1.399 . S
C869 C870 1.385 . S
C870 H856 0.931 . S
C870 C869 1.385 . S
C870 C871 1.389 . S
C871 C870 1.389 . S
C871 C872 1.387 . S
C872 H857 0.930 . S
C872 C867 1.390 . S
C872 C871 1.387 . S
H873 C885 0.930 . S
H874 C887 0.930 . S
H875 C888 0.930 . S
H876 C892 0.961 . S
H877 C892 0.959 1_556 S
H878 C892 0.961 . S
H879 C893 0.960 . S
H880 C893 0.961 1_556 S
H881 C893 0.954 1_556 S
H882 C896 0.929 . S
H883 C897 0.931 . S
H884 C899 0.930 . S
C885 H873 0.930 . S
C885 C886 1.399 . S
C885 C890 1.399 . S
C886 C885 1.399 . S
C886 C887 1.376 . S
C887 H874 0.930 . S
C887 C886 1.376 . S
C887 C888 1.388 . S
C888 H875 0.930 . S
C888 C887 1.388 . S
C888 C889 1.390 . S
C889 C888 1.390 . S
C889 C890 1.394 . S
C889 C895 1.465 1_554 S
C890 C885 1.399 . S
C890 C889 1.394 . S
C890 C891 1.546 . S
C891 C890 1.546 . S
C891 C892 1.505 . S
C891 C893 1.564 . S
C891 C894 1.491 1_554 S
C892 H876 0.961 . S
C892 H877 0.959 1_554 S
C892 H878 0.961 . S
C892 C891 1.505 . S
C893 H879 0.960 . S
C893 H880 0.961 1_554 S
C893 H881 0.954 1_554 S
C893 C891 1.564 . S
C894 C891 1.491 1_556 S
C894 C895 1.396 . S
C894 C899 1.390 . S
C895 C889 1.465 1_556 S
C895 C894 1.396 . S
C895 C896 1.399 . S
C896 H882 0.929 . S
C896 C895 1.399 . S
C896 C897 1.385 . S
C897 H883 0.931 . S
C897 C896 1.385 . S
C897 C898 1.389 . S
C898 C897 1.389 . S
C898 C899 1.387 . S
C899 H884 0.930 . S
C899 C894 1.390 . S
C899 C898 1.387 . S
H900 C912 0.930 . S
H901 C914 0.930 . S
H902 C915 0.930 . S
H903 C919 0.959 1_655 S
H904 C919 0.956 1_655 S
H905 C919 0.964 . S
H906 C920 0.960 1_455 S
H907 C920 0.961 . S
H908 C920 0.959 . S
H909 C923 0.929 . S
H910 C924 0.931 . S
H911 C926 0.930 . S
C912 H900 0.930 . S
C912 C913 1.399 . S
C912 C917 1.399 . S
C913 C912 1.399 . S
C913 C914 1.376 . S
C914 H901 0.930 . S
C914 C913 1.376 . S
C914 C915 1.388 . S
C915 H902 0.930 . S
C915 C914 1.388 . S
C915 C916 1.390 . S
C916 C915 1.390 . S
C916 C917 1.394 . S
C916 C922 1.465 1_455 S
C917 C912 1.399 . S
C917 C916 1.394 . S
C917 C918 1.510 1_455 S
C918 C917 1.510 1_655 S
C918 C919 1.502 1_655 S
C918 C920 1.562 . S
C918 C921 1.532 . S
C919 H903 0.959 1_455 S
C919 H904 0.956 1_455 S
C919 H905 0.964 . S
C919 C918 1.502 1_455 S
C920 H906 0.960 1_655 S
C920 H907 0.961 . S
C920 H908 0.959 . S
C920 C918 1.562 . S
C921 C918 1.532 . S
C921 C922 1.396 . S
C921 C926 1.390 . S
C922 C916 1.465 1_655 S
C922 C921 1.396 . S
C922 C923 1.399 . S
C923 H909 0.929 . S
C923 C922 1.399 . S
C923 C924 1.385 . S
C924 H910 0.931 . S
C924 C923 1.385 . S
C924 C925 1.389 . S
C925 C924 1.389 . S
C925 C926 1.387 . S
C926 H911 0.930 . S
C926 C921 1.390 . S
C926 C925 1.387 . S
H927 C939 0.930 . S
H928 C941 0.930 . S
H929 C942 0.930 . S
H930 C946 0.959 . S
H931 C946 0.959 1_545 S
H932 C946 0.961 . S
H933 C947 0.963 . S
H934 C947 0.958 1_545 S
H935 C947 0.958 1_545 S
H936 C950 0.929 . S
H937 C951 0.931 . S
H938 C953 0.930 . S
C939 H927 0.930 . S
C939 C940 1.399 . S
C939 C944 1.399 . S
C940 C939 1.399 . S
C940 C941 1.376 . S
C941 H928 0.930 . S
C941 C940 1.376 . S
C941 C942 1.388 . S
C942 H929 0.930 . S
C942 C941 1.388 . S
C942 C943 1.390 . S
C943 C942 1.390 . S
C943 C944 1.394 . S
C943 C949 1.465 1_565 S
C944 C939 1.399 . S
C944 C943 1.394 . S
C944 C945 1.524 . S
C945 C944 1.524 . S
C945 C946 1.503 . S
C945 C947 1.561 . S
C945 C948 1.516 1_565 S
C946 H930 0.959 . S
C946 H931 0.959 1_565 S
C946 H932 0.961 . S
C946 C945 1.503 . S
C947 H933 0.963 . S
C947 H934 0.958 1_565 S
C947 H935 0.958 1_565 S
C947 C945 1.561 . S
C948 C945 1.516 1_545 S
C948 C949 1.396 . S
C948 C953 1.390 . S
C949 C943 1.465 1_545 S
C949 C948 1.396 . S
C949 C950 1.399 . S
C950 H936 0.929 . S
C950 C949 1.399 . S
C950 C951 1.385 . S
C951 H937 0.931 . S
C951 C950 1.385 . S
C951 C952 1.389 . S
C952 C951 1.389 . S
C952 C953 1.387 . S
C953 H938 0.930 . S
C953 C948 1.390 . S
C953 C952 1.387 . S
H954 C966 0.930 . S
H955 C968 0.930 . S
H956 C969 0.930 . S
H957 C973 0.960 . S
H958 C973 0.960 . S
H959 C973 0.960 1_655 S
H960 C974 0.960 1_655 S
H961 C974 0.961 . S
H962 C974 0.959 . S
H963 C977 0.929 . S
H964 C978 0.931 . S
H965 C980 0.930 . S
C966 H954 0.930 . S
C966 C967 1.399 . S
C966 C971 1.399 . S
C967 C966 1.399 . S
C967 C968 1.376 . S
C968 H955 0.930 . S
C968 C967 1.376 . S
C968 C969 1.388 . S
C969 H956 0.930 . S
C969 C968 1.388 . S
C969 C970 1.390 . S
C970 C969 1.390 . S
C970 C971 1.394 . S
C970 C976 1.465 1_655 S
C971 C966 1.399 . S
C971 C970 1.394 . S
C971 C972 1.503 1_655 S
C972 C971 1.503 1_455 S
C972 C973 1.502 . S
C972 C974 1.562 . S
C972 C975 1.538 . S
C973 H957 0.960 . S
C973 H958 0.960 . S
C973 H959 0.960 1_455 S
C973 C972 1.502 . S
C974 H960 0.960 1_455 S
C974 H961 0.961 . S
C974 H962 0.959 . S
C974 C972 1.562 . S
C975 C972 1.538 . S
C975 C976 1.396 . S
C975 C980 1.390 . S
C976 C970 1.465 1_455 S
C976 C975 1.396 . S
C976 C977 1.399 . S
C977 H963 0.929 . S
C977 C976 1.399 . S
C977 C978 1.385 . S
C978 H964 0.931 . S
C978 C977 1.385 . S
C978 C979 1.389 . S
C979 C978 1.389 . S
C979 C980 1.387 . S
C980 H965 0.930 . S
C980 C975 1.390 . S
C980 C979 1.387 . S
H981 C993 0.930 . S
H982 C995 0.930 . S
H983 C996 0.930 . S
H984 C1000 0.959 . S
H985 C1000 0.959 . S
H986 C1000 0.961 1_545 S
H987 C1001 0.960 1_545 S
H988 C1001 0.961 . S
H989 C1001 0.959 . S
H990 C1004 0.929 . S
H991 C1005 0.931 . S
H992 C1007 0.930 . S
C993 H981 0.930 . S
C993 C994 1.399 . S
C993 C998 1.399 . S
C994 C993 1.399 . S
C994 C995 1.376 . S
C995 H982 0.930 . S
C995 C994 1.376 . S
C995 C996 1.388 . S
C996 H983 0.930 . S
C996 C995 1.388 . S
C996 C997 1.390 . S
C997 C996 1.390 . S
C997 C998 1.394 . S
C997 C1003 1.465 1_545 S
C998 C993 1.399 . S
C998 C997 1.394 . S
C998 C999 1.516 1_545 S
C999 C998 1.516 1_565 S
C999 C1000 1.502 . S
C999 C1001 1.561 . S
C999 C1002 1.526 . S
C1000 H984 0.959 . S
C1000 H985 0.959 . S
C1000 H986 0.961 1_565 S
C1000 C999 1.502 . S
C1001 H987 0.960 1_565 S
C1001 H988 0.961 . S
C1001 H989 0.959 . S
C1001 C999 1.561 . S
C1002 C999 1.526 . S
C1002 C1003 1.396 . S
C1002 C1007 1.390 . S
C1003 C997 1.465 1_565 S
C1003 C1002 1.396 . S
C1003 C1004 1.399 . S
C1004 H990 0.929 . S
C1004 C1003 1.399 . S
C1004 C1005 1.385 . S
C1005 H991 0.931 . S
C1005 C1004 1.385 . S
C1005 C1006 1.389 . S
C1006 C1005 1.389 . S
C1006 C1007 1.387 . S
C1007 H992 0.930 . S
C1007 C1002 1.390 . S
C1007 C1006 1.387 . S
H1008 C1020 0.930 . S
H1009 C1022 0.930 . S
H1010 C1023 0.930 . S
H1011 C1027 0.959 . S
H1012 C1027 0.959 . S
H1013 C1027 0.961 1_655 S
H1014 C1028 0.960 1_655 S
H1015 C1028 0.961 . S
H1016 C1028 0.959 . S
H1017 C1031 0.929 . S
H1018 C1032 0.931 . S
H1019 C1034 0.930 . S
C1020 H1008 0.930 . S
C1020 C1021 1.399 . S
C1020 C1025 1.399 . S
C1021 C1020 1.399 . S
C1021 C1022 1.376 . S
C1022 H1009 0.930 . S
C1022 C1021 1.376 . S
C1022 C1023 1.388 . S
C1023 H1010 0.930 . S
C1023 C1022 1.388 . S
C1023 C1024 1.390 . S
C1024 C1023 1.390 . S
C1024 C1025 1.394 . S
C1024 C1030 1.465 1_655 S
C1025 C1020 1.399 . S
C1025 C1024 1.394 . S
C1025 C1026 1.516 1_655 S
C1026 C1025 1.516 1_455 S
C1026 C1027 1.502 . S
C1026 C1028 1.561 . S
C1026 C1029 1.526 . S
C1027 H1011 0.959 . S
C1027 H1012 0.959 . S
C1027 H1013 0.961 1_455 S
C1027 C1026 1.502 . S
C1028 H1014 0.960 1_455 S
C1028 H1015 0.961 . S
C1028 H1016 0.959 . S
C1028 C1026 1.561 . S
C1029 C1026 1.526 . S
C1029 C1030 1.396 . S
C1029 C1034 1.390 . S
C1030 C1024 1.465 1_455 S
C1030 C1029 1.396 . S
C1030 C1031 1.399 . S
C1031 H1017 0.929 . S
C1031 C1030 1.399 . S
C1031 C1032 1.385 . S
C1032 H1018 0.931 . S
C1032 C1031 1.385 . S
C1032 C1033 1.389 . S
C1033 C1032 1.389 . S
C1033 C1034 1.387 . S
C1034 H1019 0.930 . S
C1034 C1029 1.390 . S
C1034 C1033 1.387 . S
H1035 C1047 0.930 . S
H1036 C1049 0.930 . S
H1037 C1050 0.930 . S
H1038 C1054 0.959 . S
H1039 C1054 0.959 1_545 S
H1040 C1054 0.961 . S
H1041 C1055 0.960 1_565 S
H1042 C1055 0.961 . S
H1043 C1055 0.959 . S
H1044 C1058 0.929 . S
H1045 C1059 0.931 . S
H1046 C1061 0.930 . S
C1047 H1035 0.930 . S
C1047 C1048 1.399 . S
C1047 C1052 1.399 . S
C1048 C1047 1.399 . S
C1048 C1049 1.376 . S
C1049 H1036 0.930 . S
C1049 C1048 1.376 . S
C1049 C1050 1.388 . S
C1050 H1037 0.930 . S
C1050 C1049 1.388 . S
C1050 C1051 1.390 . S
C1051 C1050 1.390 . S
C1051 C1052 1.394 . S
C1051 C1057 1.465 1_565 S
C1052 C1047 1.399 . S
C1052 C1051 1.394 . S
C1052 C1053 1.516 1_565 S
C1053 C1052 1.516 1_545 S
C1053 C1054 1.502 1_545 S
C1053 C1055 1.561 . S
C1053 C1056 1.526 . S
C1054 H1038 0.959 . S
C1054 H1039 0.959 1_565 S
C1054 H1040 0.961 . S
C1054 C1053 1.502 1_565 S
C1055 H1041 0.960 1_545 S
C1055 H1042 0.961 . S
C1055 H1043 0.959 . S
C1055 C1053 1.561 . S
C1056 C1053 1.526 . S
C1056 C1057 1.396 . S
C1056 C1061 1.390 . S
C1057 C1051 1.465 1_545 S
C1057 C1056 1.396 . S
C1057 C1058 1.399 . S
C1058 H1044 0.929 . S
C1058 C1057 1.399 . S
C1058 C1059 1.385 . S
C1059 H1045 0.931 . S
C1059 C1058 1.385 . S
C1059 C1060 1.389 . S
C1060 C1059 1.389 . S
C1060 C1061 1.387 . S
C1061 H1046 0.930 . S
C1061 C1056 1.390 . S
C1061 C1060 1.387 . S
H1062 C1074 0.930 . S
H1063 C1076 0.930 . S
H1064 C1077 0.930 . S
H1065 C1081 0.958 1_655 S
H1066 C1081 0.932 1_655 S
H1067 C1081 0.991 . S
H1068 C1082 0.960 1_455 S
H1069 C1082 0.961 . S
H1070 C1082 0.959 . S
H1071 C1085 0.929 . S
H1072 C1086 0.931 . S
H1073 C1088 0.930 . S
C1074 H1062 0.930 . S
C1074 C1075 1.399 . S
C1074 C1079 1.399 . S
C1075 C1074 1.399 . S
C1075 C1076 1.376 . S
C1076 H1063 0.930 . S
C1076 C1075 1.376 . S
C1076 C1077 1.388 . S
C1077 H1064 0.930 . S
C1077 C1076 1.388 . S
C1077 C1078 1.390 . S
C1078 C1077 1.390 . S
C1078 C1079 1.394 . S
C1078 C1084 1.465 1_455 S
C1079 C1074 1.399 . S
C1079 C1078 1.394 . S
C1079 C1080 1.519 . S
C1080 C1079 1.519 . S
C1080 C1081 1.501 . S
C1080 C1082 1.561 1_455 S
C1080 C1083 1.523 1_455 S
C1081 H1065 0.958 1_455 S
C1081 H1066 0.932 1_455 S
C1081 H1067 0.991 . S
C1081 C1080 1.501 . S
C1082 H1068 0.960 1_655 S
C1082 H1069 0.961 . S
C1082 H1070 0.959 . S
C1082 C1080 1.561 1_655 S
C1083 C1080 1.523 1_655 S
C1083 C1084 1.396 . S
C1083 C1088 1.390 . S
C1084 C1078 1.465 1_655 S
C1084 C1083 1.396 . S
C1084 C1085 1.399 . S
C1085 H1071 0.929 . S
C1085 C1084 1.399 . S
C1085 C1086 1.385 . S
C1086 H1072 0.931 . S
C1086 C1085 1.385 . S
C1086 C1087 1.389 . S
C1087 C1086 1.389 . S
C1087 C1088 1.387 . S
C1088 H1073 0.930 . S
C1088 C1083 1.390 . S
C1088 C1087 1.387 . S
H1089 C1101 0.930 . S
H1090 C1103 0.930 . S
H1091 C1104 0.930 . S
H1092 C1108 0.959 1_545 S
H1093 C1108 0.959 1_545 S
H1094 C1108 0.961 . S
H1095 C1109 0.960 . S
H1096 C1109 0.961 1_545 S
H1097 C1109 0.959 . S
H1098 C1112 0.929 . S
H1099 C1113 0.931 . S
H1100 C1115 0.930 . S
C1101 H1089 0.930 . S
C1101 C1102 1.399 . S
C1101 C1106 1.399 . S
C1102 C1101 1.399 . S
C1102 C1103 1.376 . S
C1103 H1090 0.930 . S
C1103 C1102 1.376 . S
C1103 C1104 1.388 . S
C1104 H1091 0.930 . S
C1104 C1103 1.388 . S
C1104 C1105 1.390 . S
C1105 C1104 1.390 . S
C1105 C1106 1.394 . S
C1105 C1111 1.465 1_565 S
C1106 C1101 1.399 . S
C1106 C1105 1.394 . S
C1106 C1107 1.516 . S
C1107 C1106 1.516 . S
C1107 C1108 1.502 . S
C1107 C1109 1.561 . S
C1107 C1110 1.526 1_565 S
C1108 H1092 0.959 1_565 S
C1108 H1093 0.959 1_565 S
C1108 H1094 0.961 . S
C1108 C1107 1.502 . S
C1109 H1095 0.960 . S
C1109 H1096 0.961 1_565 S
C1109 H1097 0.959 . S
C1109 C1107 1.561 . S
C1110 C1107 1.526 1_545 S
C1110 C1111 1.396 . S
C1110 C1115 1.390 . S
C1111 C1105 1.465 1_545 S
C1111 C1110 1.396 . S
C1111 C1112 1.399 . S
C1112 H1098 0.929 . S
C1112 C1111 1.399 . S
C1112 C1113 1.385 . S
C1113 H1099 0.931 . S
C1113 C1112 1.385 . S
C1113 C1114 1.389 . S
C1114 C1113 1.389 . S
C1114 C1115 1.387 . S
C1115 H1100 0.930 . S
C1115 C1110 1.390 . S
C1115 C1114 1.387 . S
H1116 C1128 0.930 . S
H1117 C1130 0.930 . S
H1118 C1131 0.930 . S
H1119 C1135 0.959 . S
H1120 C1135 0.959 . S
H1121 C1135 0.961 . S
H1122 C1136 0.960 . S
H1123 C1136 0.961 . S
H1124 C1136 0.959 . S
H1125 C1139 0.929 . S
H1126 C1140 0.931 . S
H1127 C1142 0.930 . S
C1128 H1116 0.930 . S
C1128 C1129 1.399 . S
C1128 C1133 1.399 . S
C1129 C1128 1.399 . S
C1129 C1130 1.376 . S
C1130 H1117 0.930 . S
C1130 C1129 1.376 . S
C1130 C1131 1.388 . S
C1131 H1118 0.930 . S
C1131 C1130 1.388 . S
C1131 C1132 1.390 . S
C1132 C1131 1.390 . S
C1132 C1133 1.394 . S
C1132 C1138 1.465 . S
C1133 C1128 1.399 . S
C1133 C1132 1.394 . S
C1133 C1134 1.516 . S
C1134 C1133 1.516 . S
C1134 C1135 1.502 . S
C1134 C1136 1.561 . S
C1134 C1137 1.526 . S
C1135 H1119 0.959 . S
C1135 H1120 0.959 . S
C1135 H1121 0.961 . S
C1135 C1134 1.502 . S
C1136 H1122 0.960 . S
C1136 H1123 0.961 . S
C1136 H1124 0.959 . S
C1136 C1134 1.561 . S
C1137 C1134 1.526 . S
C1137 C1138 1.396 . S
C1137 C1142 1.390 . S
C1138 C1132 1.465 . S
C1138 C1137 1.396 . S
C1138 C1139 1.399 . S
C1139 H1125 0.929 . S
C1139 C1138 1.399 . S
C1139 C1140 1.385 . S
C1140 H1126 0.931 . S
C1140 C1139 1.385 . S
C1140 C1141 1.389 . S
C1141 C1140 1.389 . S
C1141 C1142 1.387 . S
C1142 H1127 0.930 . S
C1142 C1137 1.390 . S
C1142 C1141 1.387 . S
H1143 C1155 0.930 . S
H1144 C1157 0.930 . S
H1145 C1158 0.930 . S
H1146 C1162 0.959 . S
H1147 C1162 0.959 . S
H1148 C1162 0.961 . S
H1149 C1163 0.960 . S
H1150 C1163 0.961 . S
H1151 C1163 0.959 . S
H1152 C1166 0.929 . S
H1153 C1167 0.931 . S
H1154 C1169 0.930 . S
C1155 H1143 0.930 . S
C1155 C1156 1.399 . S
C1155 C1160 1.399 . S
C1156 C1155 1.399 . S
C1156 C1157 1.376 . S
C1157 H1144 0.930 . S
C1157 C1156 1.376 . S
C1157 C1158 1.388 . S
C1158 H1145 0.930 . S
C1158 C1157 1.388 . S
C1158 C1159 1.390 . S
C1159 C1158 1.390 . S
C1159 C1160 1.394 . S
C1159 C1165 1.465 . S
C1160 C1155 1.399 . S
C1160 C1159 1.394 . S
C1160 C1161 1.516 . S
C1161 C1160 1.516 . S
C1161 C1162 1.502 . S
C1161 C1163 1.561 . S
C1161 C1164 1.526 . S
C1162 H1146 0.959 . S
C1162 H1147 0.959 . S
C1162 H1148 0.961 . S
C1162 C1161 1.502 . S
C1163 H1149 0.960 . S
C1163 H1150 0.961 . S
C1163 H1151 0.959 . S
C1163 C1161 1.561 . S
C1164 C1161 1.526 . S
C1164 C1165 1.396 . S
C1164 C1169 1.390 . S
C1165 C1159 1.465 . S
C1165 C1164 1.396 . S
C1165 C1166 1.399 . S
C1166 H1152 0.929 . S
C1166 C1165 1.399 . S
C1166 C1167 1.385 . S
C1167 H1153 0.931 . S
C1167 C1166 1.385 . S
C1167 C1168 1.389 . S
C1168 C1167 1.389 . S
C1168 C1169 1.387 . S
C1169 H1154 0.930 . S
C1169 C1164 1.390 . S
C1169 C1168 1.387 . S
H1170 C1182 0.930 . S
H1171 C1184 0.930 . S
H1172 C1185 0.930 . S
H1173 C1189 0.959 . S
H1174 C1189 0.959 . S
H1175 C1189 0.961 . S
H1176 C1190 0.960 . S
H1177 C1190 0.961 . S
H1178 C1190 0.959 . S
H1179 C1193 0.929 . S
H1180 C1194 0.931 . S
H1181 C1196 0.930 . S
C1182 H1170 0.930 . S
C1182 C1183 1.399 . S
C1182 C1187 1.399 . S
C1183 C1182 1.399 . S
C1183 C1184 1.376 . S
C1184 H1171 0.930 . S
C1184 C1183 1.376 . S
C1184 C1185 1.388 . S
C1185 H1172 0.930 . S
C1185 C1184 1.388 . S
C1185 C1186 1.390 . S
C1186 C1185 1.390 . S
C1186 C1187 1.394 . S
C1186 C1192 1.465 . S
C1187 C1182 1.399 . S
C1187 C1186 1.394 . S
C1187 C1188 1.516 . S
C1188 C1187 1.516 . S
C1188 C1189 1.502 . S
C1188 C1190 1.561 . S
C1188 C1191 1.526 . S
C1189 H1173 0.959 . S
C1189 H1174 0.959 . S
C1189 H1175 0.961 . S
C1189 C1188 1.502 . S
C1190 H1176 0.960 . S
C1190 H1177 0.961 . S
C1190 H1178 0.959 . S
C1190 C1188 1.561 . S
C1191 C1188 1.526 . S
C1191 C1192 1.396 . S
C1191 C1196 1.390 . S
C1192 C1186 1.465 . S
C1192 C1191 1.396 . S
C1192 C1193 1.399 . S
C1193 H1179 0.929 . S
C1193 C1192 1.399 . S
C1193 C1194 1.385 . S
C1194 H1180 0.931 . S
C1194 C1193 1.385 . S
C1194 C1195 1.389 . S
C1195 C1194 1.389 . S
C1195 C1196 1.387 . S
C1196 H1181 0.930 . S
C1196 C1191 1.390 . S
C1196 C1195 1.387 . S
H1197 C1209 0.930 . S
H1198 C1211 0.930 . S
H1199 C1212 0.930 . S
H1200 C1216 0.959 . S
H1201 C1216 0.959 . S
H1202 C1216 0.961 . S
H1203 C1217 0.960 . S
H1204 C1217 0.961 . S
H1205 C1217 0.959 . S
H1206 C1220 0.929 . S
H1207 C1221 0.931 . S
H1208 C1223 0.930 . S
C1209 H1197 0.930 . S
C1209 C1210 1.399 . S
C1209 C1214 1.399 . S
C1210 C1209 1.399 . S
C1210 C1211 1.376 . S
C1211 H1198 0.930 . S
C1211 C1210 1.376 . S
C1211 C1212 1.388 . S
C1212 H1199 0.930 . S
C1212 C1211 1.388 . S
C1212 C1213 1.390 . S
C1213 C1212 1.390 . S
C1213 C1214 1.394 . S
C1213 C1219 1.465 . S
C1214 C1209 1.399 . S
C1214 C1213 1.394 . S
C1214 C1215 1.516 . S
C1215 C1214 1.516 . S
C1215 C1216 1.502 . S
C1215 C1217 1.561 . S
C1215 C1218 1.526 . S
C1216 H1200 0.959 . S
C1216 H1201 0.959 . S
C1216 H1202 0.961 . S
C1216 C1215 1.502 . S
C1217 H1203 0.960 . S
C1217 H1204 0.961 . S
C1217 H1205 0.959 . S
C1217 C1215 1.561 . S
C1218 C1215 1.526 . S
C1218 C1219 1.396 . S
C1218 C1223 1.390 . S
C1219 C1213 1.465 . S
C1219 C1218 1.396 . S
C1219 C1220 1.399 . S
C1220 H1206 0.929 . S
C1220 C1219 1.399 . S
C1220 C1221 1.385 . S
C1221 H1207 0.931 . S
C1221 C1220 1.385 . S
C1221 C1222 1.389 . S
C1222 C1221 1.389 . S
C1222 C1223 1.387 . S
C1223 H1208 0.930 . S
C1223 C1218 1.390 . S
C1223 C1222 1.387 . S
H1224 C1236 0.930 . S
H1225 C1238 0.930 . S
H1226 C1239 0.930 . S
H1227 C1243 0.959 . S
H1228 C1243 0.959 . S
H1229 C1243 0.961 . S
H1230 C1244 0.960 . S
H1231 C1244 0.961 . S
H1232 C1244 0.959 . S
H1233 C1247 0.929 . S
H1234 C1248 0.931 . S
H1235 C1250 0.930 . S
C1236 H1224 0.930 . S
C1236 C1237 1.399 . S
C1236 C1241 1.399 . S
C1237 C1236 1.399 . S
C1237 C1238 1.376 . S
C1238 H1225 0.930 . S
C1238 C1237 1.376 . S
C1238 C1239 1.388 . S
C1239 H1226 0.930 . S
C1239 C1238 1.388 . S
C1239 C1240 1.390 . S
C1240 C1239 1.390 . S
C1240 C1241 1.394 . S
C1240 C1246 1.465 . S
C1241 C1236 1.399 . S
C1241 C1240 1.394 . S
C1241 C1242 1.516 . S
C1242 C1241 1.516 . S
C1242 C1243 1.502 . S
C1242 C1244 1.561 . S
C1242 C1245 1.526 . S
C1243 H1227 0.959 . S
C1243 H1228 0.959 . S
C1243 H1229 0.961 . S
C1243 C1242 1.502 . S
C1244 H1230 0.960 . S
C1244 H1231 0.961 . S
C1244 H1232 0.959 . S
C1244 C1242 1.561 . S
C1245 C1242 1.526 . S
C1245 C1246 1.396 . S
C1245 C1250 1.390 . S
C1246 C1240 1.465 . S
C1246 C1245 1.396 . S
C1246 C1247 1.399 . S
C1247 H1233 0.929 . S
C1247 C1246 1.399 . S
C1247 C1248 1.385 . S
C1248 H1234 0.931 . S
C1248 C1247 1.385 . S
C1248 C1249 1.389 . S
C1249 C1248 1.389 . S
C1249 C1250 1.387 . S
C1250 H1235 0.930 . S
C1250 C1245 1.390 . S
C1250 C1249 1.387 . S
H1251 C1263 0.930 . S
H1252 C1265 0.930 . S
H1253 C1266 0.930 . S
H1254 C1270 0.959 . S
H1255 C1270 0.959 . S
H1256 C1270 0.961 . S
H1257 C1271 0.960 . S
H1258 C1271 0.961 . S
H1259 C1271 0.959 . S
H1260 C1274 0.929 . S
H1261 C1275 0.931 . S
H1262 C1277 0.930 . S
C1263 H1251 0.930 . S
C1263 C1264 1.399 . S
C1263 C1268 1.399 . S
C1264 C1263 1.399 . S
C1264 C1265 1.376 . S
C1265 H1252 0.930 . S
C1265 C1264 1.376 . S
C1265 C1266 1.388 . S
C1266 H1253 0.930 . S
C1266 C1265 1.388 . S
C1266 C1267 1.390 . S
C1267 C1266 1.390 . S
C1267 C1268 1.394 . S
C1267 C1273 1.465 . S
C1268 C1263 1.399 . S
C1268 C1267 1.394 . S
C1268 C1269 1.516 . S
C1269 C1268 1.516 . S
C1269 C1270 1.502 . S
C1269 C1271 1.561 . S
C1269 C1272 1.526 . S
C1270 H1254 0.959 . S
C1270 H1255 0.959 . S
C1270 H1256 0.961 . S
C1270 C1269 1.502 . S
C1271 H1257 0.960 . S
C1271 H1258 0.961 . S
C1271 H1259 0.959 . S
C1271 C1269 1.561 . S
C1272 C1269 1.526 . S
C1272 C1273 1.396 . S
C1272 C1277 1.390 . S
C1273 C1267 1.465 . S
C1273 C1272 1.396 . S
C1273 C1274 1.399 . S
C1274 H1260 0.929 . S
C1274 C1273 1.399 . S
C1274 C1275 1.385 . S
C1275 H1261 0.931 . S
C1275 C1274 1.385 . S
C1275 C1276 1.389 . S
C1276 C1275 1.389 . S
C1276 C1277 1.387 . S
C1277 H1262 0.930 . S
C1277 C1272 1.390 . S
C1277 C1276 1.387 . S
H1278 C1290 0.930 . S
H1279 C1292 0.930 . S
H1280 C1293 0.930 . S
H1281 C1297 0.959 . S
H1282 C1297 0.959 . S
H1283 C1297 0.961 . S
H1284 C1298 0.960 . S
H1285 C1298 0.961 . S
H1286 C1298 0.959 . S
H1287 C1301 0.929 . S
H1288 C1302 0.931 . S
H1289 C1304 0.930 . S
C1290 H1278 0.930 . S
C1290 C1291 1.399 . S
C1290 C1295 1.399 . S
C1291 C1290 1.399 . S
C1291 C1292 1.376 . S
C1292 H1279 0.930 . S
C1292 C1291 1.376 . S
C1292 C1293 1.388 . S
C1293 H1280 0.930 . S
C1293 C1292 1.388 . S
C1293 C1294 1.390 . S
C1294 C1293 1.390 . S
C1294 C1295 1.394 . S
C1294 C1300 1.465 . S
C1295 C1290 1.399 . S
C1295 C1294 1.394 . S
C1295 C1296 1.516 . S
C1296 C1295 1.516 . S
C1296 C1297 1.502 . S
C1296 C1298 1.561 . S
C1296 C1299 1.526 . S
C1297 H1281 0.959 . S
C1297 H1282 0.959 . S
C1297 H1283 0.961 . S
C1297 C1296 1.502 . S
C1298 H1284 0.960 . S
C1298 H1285 0.961 . S
C1298 H1286 0.959 . S
C1298 C1296 1.561 . S
C1299 C1296 1.526 . S
C1299 C1300 1.396 . S
C1299 C1304 1.390 . S
C1300 C1294 1.465 . S
C1300 C1299 1.396 . S
C1300 C1301 1.399 . S
C1301 H1287 0.929 . S
C1301 C1300 1.399 . S
C1301 C1302 1.385 . S
C1302 H1288 0.931 . S
C1302 C1301 1.385 . S
C1302 C1303 1.389 . S
C1303 C1302 1.389 . S
C1303 C1304 1.387 . S
C1304 H1289 0.930 . S
C1304 C1299 1.390 . S
C1304 C1303 1.387 . S
H1305 C1317 0.930 . S
H1306 C1319 0.930 . S
H1307 C1320 0.930 . S
H1308 C1324 0.959 . S
H1309 C1324 0.959 . S
H1310 C1324 0.961 . S
H1311 C1325 0.960 . S
H1312 C1325 0.961 . S
H1313 C1325 0.959 . S
H1314 C1328 0.929 . S
H1315 C1329 0.931 . S
H1316 C1331 0.930 . S
C1317 H1305 0.930 . S
C1317 C1318 1.399 . S
C1317 C1322 1.399 . S
C1318 C1317 1.399 . S
C1318 C1319 1.376 . S
C1319 H1306 0.930 . S
C1319 C1318 1.376 . S
C1319 C1320 1.388 . S
C1320 H1307 0.930 . S
C1320 C1319 1.388 . S
C1320 C1321 1.390 . S
C1321 C1320 1.390 . S
C1321 C1322 1.394 . S
C1321 C1327 1.465 . S
C1322 C1317 1.399 . S
C1322 C1321 1.394 . S
C1322 C1323 1.516 . S
C1323 C1322 1.516 . S
C1323 C1324 1.502 . S
C1323 C1325 1.561 . S
C1323 C1326 1.526 . S
C1324 H1308 0.959 . S
C1324 H1309 0.959 . S
C1324 H1310 0.961 . S
C1324 C1323 1.502 . S
C1325 H1311 0.960 . S
C1325 H1312 0.961 . S
C1325 H1313 0.959 . S
C1325 C1323 1.561 . S
C1326 C1323 1.526 . S
C1326 C1327 1.396 . S
C1326 C1331 1.390 . S
C1327 C1321 1.465 . S
C1327 C1326 1.396 . S
C1327 C1328 1.399 . S
C1328 H1314 0.929 . S
C1328 C1327 1.399 . S
C1328 C1329 1.385 . S
C1329 H1315 0.931 . S
C1329 C1328 1.385 . S
C1329 C1330 1.389 . S
C1330 C1329 1.389 . S
C1330 C1331 1.387 . S
C1331 H1316 0.930 . S
C1331 C1326 1.390 . S
C1331 C1330 1.387 . S
H1332 C1344 0.930 . S
H1333 C1346 0.930 . S
H1334 C1347 0.930 . S
H1335 C1351 0.959 . S
H1336 C1351 0.959 . S
H1337 C1351 0.961 . S
H1338 C1352 0.960 . S
H1339 C1352 0.961 . S
H1340 C1352 0.959 . S
H1341 C1355 0.929 . S
H1342 C1356 0.931 . S
H1343 C1358 0.930 . S
C1344 H1332 0.930 . S
C1344 C1345 1.399 . S
C1344 C1349 1.399 . S
C1345 C1344 1.399 . S
C1345 C1346 1.376 . S
C1346 H1333 0.930 . S
C1346 C1345 1.376 . S
C1346 C1347 1.388 . S
C1347 H1334 0.930 . S
C1347 C1346 1.388 . S
C1347 C1348 1.390 . S
C1348 C1347 1.390 . S
C1348 C1349 1.394 . S
C1348 C1354 1.465 . S
C1349 C1344 1.399 . S
C1349 C1348 1.394 . S
C1349 C1350 1.516 . S
C1350 C1349 1.516 . S
C1350 C1351 1.502 . S
C1350 C1352 1.561 . S
C1350 C1353 1.526 . S
C1351 H1335 0.959 . S
C1351 H1336 0.959 . S
C1351 H1337 0.961 . S
C1351 C1350 1.502 . S
C1352 H1338 0.960 . S
C1352 H1339 0.961 . S
C1352 H1340 0.959 . S
C1352 C1350 1.561 . S
C1353 C1350 1.526 . S
C1353 C1354 1.396 . S
C1353 C1358 1.390 . S
C1354 C1348 1.465 . S
C1354 C1353 1.396 . S
C1354 C1355 1.399 . S
C1355 H1341 0.929 . S
C1355 C1354 1.399 . S
C1355 C1356 1.385 . S
C1356 H1342 0.931 . S
C1356 C1355 1.385 . S
C1356 C1357 1.389 . S
C1357 C1356 1.389 . S
C1357 C1358 1.387 . S
C1358 H1343 0.930 . S
C1358 C1353 1.390 . S
C1358 C1357 1.387 . S
H1359 C1371 0.930 . S
H1360 C1373 0.930 . S
H1361 C1374 0.930 . S
H1362 C1378 0.959 . S
H1363 C1378 0.959 . S
H1364 C1378 0.961 . S
H1365 C1379 0.960 . S
H1366 C1379 0.961 . S
H1367 C1379 0.959 . S
H1368 C1382 0.929 . S
H1369 C1383 0.931 . S
H1370 C1385 0.930 . S
C1371 H1359 0.930 . S
C1371 C1372 1.399 . S
C1371 C1376 1.399 . S
C1372 C1371 1.399 . S
C1372 C1373 1.376 . S
C1373 H1360 0.930 . S
C1373 C1372 1.376 . S
C1373 C1374 1.388 . S
C1374 H1361 0.930 . S
C1374 C1373 1.388 . S
C1374 C1375 1.390 . S
C1375 C1374 1.390 . S
C1375 C1376 1.394 . S
C1375 C1381 1.465 . S
C1376 C1371 1.399 . S
C1376 C1375 1.394 . S
C1376 C1377 1.516 . S
C1377 C1376 1.516 . S
C1377 C1378 1.502 . S
C1377 C1379 1.561 . S
C1377 C1380 1.526 . S
C1378 H1362 0.959 . S
C1378 H1363 0.959 . S
C1378 H1364 0.961 . S
C1378 C1377 1.502 . S
C1379 H1365 0.960 . S
C1379 H1366 0.961 . S
C1379 H1367 0.959 . S
C1379 C1377 1.561 . S
C1380 C1377 1.526 . S
C1380 C1381 1.396 . S
C1380 C1385 1.390 . S
C1381 C1375 1.465 . S
C1381 C1380 1.396 . S
C1381 C1382 1.399 . S
C1382 H1368 0.929 . S
C1382 C1381 1.399 . S
C1382 C1383 1.385 . S
C1383 H1369 0.931 . S
C1383 C1382 1.385 . S
C1383 C1384 1.389 . S
C1384 C1383 1.389 . S
C1384 C1385 1.387 . S
C1385 H1370 0.930 . S
C1385 C1380 1.390 . S
C1385 C1384 1.387 . S
H1386 C1398 0.930 . S
H1387 C1400 0.930 . S
H1388 C1401 0.930 . S
H1389 C1405 0.959 . S
H1390 C1405 0.959 . S
H1391 C1405 0.961 . S
H1392 C1406 0.960 . S
H1393 C1406 0.961 . S
H1394 C1406 0.959 . S
H1395 C1409 0.929 . S
H1396 C1410 0.931 . S
H1397 C1412 0.930 . S
C1398 H1386 0.930 . S
C1398 C1399 1.399 . S
C1398 C1403 1.399 . S
C1399 C1398 1.399 . S
C1399 C1400 1.376 . S
C1400 H1387 0.930 . S
C1400 C1399 1.376 . S
C1400 C1401 1.388 . S
C1401 H1388 0.930 . S
C1401 C1400 1.388 . S
C1401 C1402 1.390 . S
C1402 C1401 1.390 . S
C1402 C1403 1.394 . S
C1402 C1408 1.465 . S
C1403 C1398 1.399 . S
C1403 C1402 1.394 . S
C1403 C1404 1.516 . S
C1404 C1403 1.516 . S
C1404 C1405 1.502 . S
C1404 C1406 1.561 . S
C1404 C1407 1.526 . S
C1405 H1389 0.959 . S
C1405 H1390 0.959 . S
C1405 H1391 0.961 . S
C1405 C1404 1.502 . S
C1406 H1392 0.960 . S
C1406 H1393 0.961 . S
C1406 H1394 0.959 . S
C1406 C1404 1.561 . S
C1407 C1404 1.526 . S
C1407 C1408 1.396 . S
C1407 C1412 1.390 . S
C1408 C1402 1.465 . S
C1408 C1407 1.396 . S
C1408 C1409 1.399 . S
C1409 H1395 0.929 . S
C1409 C1408 1.399 . S
C1409 C1410 1.385 . S
C1410 H1396 0.931 . S
C1410 C1409 1.385 . S
C1410 C1411 1.389 . S
C1411 C1410 1.389 . S
C1411 C1412 1.387 . S
C1412 H1397 0.930 . S
C1412 C1407 1.390 . S
C1412 C1411 1.387 . S
H1413 C1425 0.930 . S
H1414 C1427 0.930 . S
H1415 C1428 0.930 . S
H1416 C1432 0.959 . S
H1417 C1432 0.959 . S
H1418 C1432 0.961 . S
H1419 C1433 0.960 . S
H1420 C1433 0.961 . S
H1421 C1433 0.959 . S
H1422 C1436 0.929 . S
H1423 C1437 0.931 . S
H1424 C1439 0.930 . S
C1425 H1413 0.930 . S
C1425 C1426 1.399 . S
C1425 C1430 1.399 . S
C1426 C1425 1.399 . S
C1426 C1427 1.376 . S
C1427 H1414 0.930 . S
C1427 C1426 1.376 . S
C1427 C1428 1.388 . S
C1428 H1415 0.930 . S
C1428 C1427 1.388 . S
C1428 C1429 1.390 . S
C1429 C1428 1.390 . S
C1429 C1430 1.394 . S
C1429 C1435 1.465 . S
C1430 C1425 1.399 . S
C1430 C1429 1.394 . S
C1430 C1431 1.516 . S
C1431 C1430 1.516 . S
C1431 C1432 1.502 . S
C1431 C1433 1.561 . S
C1431 C1434 1.526 . S
C1432 H1416 0.959 . S
C1432 H1417 0.959 . S
C1432 H1418 0.961 . S
C1432 C1431 1.502 . S
C1433 H1419 0.960 . S
C1433 H1420 0.961 . S
C1433 H1421 0.959 . S
C1433 C1431 1.561 . S
C1434 C1431 1.526 . S
C1434 C1435 1.396 . S
C1434 C1439 1.390 . S
C1435 C1429 1.465 . S
C1435 C1434 1.396 . S
C1435 C1436 1.399 . S
C1436 H1422 0.929 . S
C1436 C1435 1.399 . S
C1436 C1437 1.385 . S
C1437 H1423 0.931 . S
C1437 C1436 1.385 . S
C1437 C1438 1.389 . S
C1438 C1437 1.389 . S
C1438 C1439 1.387 . S
C1439 H1424 0.930 . S
C1439 C1434 1.390 . S
C1439 C1438 1.387 . S
C589 C544 1.015 . S
C601 C4 0.962 . S
C616 C436 1.026 . S
C628 C40 0.974 . S
C643 C76 1.020 . S
C655 C472 0.983 . S
C670 C508 1.025 . S
C682 C112 0.975 . S
C697 C328 0.970 . S
C709 C148 1.003 . S
C724 C184 0.991 . S
C736 C364 1.014 . S
C751 C220 1.017 . S
C763 C400 0.962 . S
C778 C256 0.963 . S
C790 C292 1.012 . S
C805 C183 1.442 . S
C817 C14 1.371 . S
C832 C230 1.421 . S
C844 C39 1.437 . S
C859 C255 1.440 . S
C871 C86 1.382 . S
C886 C111 1.443 . S
C898 C158 1.357 . S
C913 C2 1.548 . S
C925 C38 1.549 . S
C940 C75 1.441 . S
C952 C50 1.376 . S
C967 C74 1.548 . S
C979 C110 1.549 . S
C994 C3 1.442 . S
C1006 C122 1.360 . S
C1021 C254 1.549 . S
C1033 C146 1.545 . S
C1048 C147 1.439 . S
C1060 C194 1.397 . S
C1075 C182 1.546 . S
C1087 C218 1.549 . S
C1102 C266 1.336 . S
C1114 C219 1.444 . S
C1129 C471 1.441 . S
C1141 C302 1.382 . S
C1156 C327 1.440 . S
C1168 C518 1.382 . S
C1183 C543 1.442 . S
C1195 C374 1.375 . S
C1210 C446 1.420 . S
C1222 C399 1.437 . S
C1237 C290 1.548 . S
C1249 C326 1.549 . S
C1264 C338 1.349 . S
C1276 C363 1.443 . S
C1291 C398 1.535 . S
C1303 C362 1.533 . S
C1318 C291 1.440 . S
C1330 C410 1.376 . S
C1345 C542 1.546 . S
C1357 C434 1.549 . S
C1372 C435 1.437 . S
C1384 C482 1.417 . S
C1399 C470 1.533 . S
C1411 C506 1.533 . S
C1426 C554 1.422 . S
C1438 C507 1.437 . S
