# Generated by pormake.
# Topology unp, (4)-cn, num edge types: 1
# Building blocks:
#     Node 0, Type 0, BuildingBlock: KUFVIS_clean_sbu_0, # of connection points: 4
#     Node 1, Type 0, BuildingBlock: KUFVIS_clean_sbu_0, # of connection points: 4
#     Node 2, Type 0, BuildingBlock: KUFVIS_clean_sbu_0, # of connection points: 4
#     Node 3, Type 0, BuildingBlock: KUFVIS_clean_sbu_0, # of connection points: 4
#     Node 4, Type 0, BuildingBlock: KUFVIS_clean_sbu_0, # of connection points: 4
#     Node 5, Type 0, BuildingBlock: KUFVIS_clean_sbu_0, # of connection points: 4
#     Node 6, Type 0, BuildingBlock: KUFVIS_clean_sbu_0, # of connection points: 4
#     Node 7, Type 0, BuildingBlock: KUFVIS_clean_sbu_0, # of connection points: 4
#     Node 8, Type 0, BuildingBlock: KUFVIS_clean_sbu_0, # of connection points: 4
#     Node 9, Type 0, BuildingBlock: KUFVIS_clean_sbu_0, # of connection points: 4
#     Node 10, Type 0, BuildingBlock: KUFVIS_clean_sbu_0, # of connection points: 4
#     Node 11, Type 0, BuildingBlock: KUFVIS_clean_sbu_0, # of connection points: 4
#     Node 12, Type 0, BuildingBlock: KUFVIS_clean_sbu_0, # of connection points: 4
#     Node 13, Type 0, BuildingBlock: KUFVIS_clean_sbu_0, # of connection points: 4
#     Node 14, Type 0, BuildingBlock: KUFVIS_clean_sbu_0, # of connection points: 4
#     Node 15, Type 0, BuildingBlock: KUFVIS_clean_sbu_0, # of connection points: 4
#     Node 16, Type 0, BuildingBlock: KUFVIS_clean_sbu_0, # of connection points: 4
#     Node 17, Type 0, BuildingBlock: KUFVIS_clean_sbu_0, # of connection points: 4
#     Edge 18, Type (0, 0), None
#     Edge 19, Type (0, 0), None
#     Edge 20, Type (0, 0), None
#     Edge 21, Type (0, 0), None
#     Edge 22, Type (0, 0), None
#     Edge 23, Type (0, 0), None
#     Edge 24, Type (0, 0), None
#     Edge 25, Type (0, 0), None
#     Edge 26, Type (0, 0), None
#     Edge 27, Type (0, 0), None
#     Edge 28, Type (0, 0), None
#     Edge 29, Type (0, 0), None
#     Edge 30, Type (0, 0), None
#     Edge 31, Type (0, 0), None
#     Edge 32, Type (0, 0), None
#     Edge 33, Type (0, 0), None
#     Edge 34, Type (0, 0), None
#     Edge 35, Type (0, 0), None
#     Edge 36, Type (0, 0), None
#     Edge 37, Type (0, 0), None
#     Edge 38, Type (0, 0), None
#     Edge 39, Type (0, 0), None
#     Edge 40, Type (0, 0), None
#     Edge 41, Type (0, 0), None
#     Edge 42, Type (0, 0), None
#     Edge 43, Type (0, 0), None
#     Edge 44, Type (0, 0), None
#     Edge 45, Type (0, 0), None
#     Edge 46, Type (0, 0), None
#     Edge 47, Type (0, 0), None
#     Edge 48, Type (0, 0), None
#     Edge 49, Type (0, 0), None
#     Edge 50, Type (0, 0), None
#     Edge 51, Type (0, 0), None
#     Edge 52, Type (0, 0), None
#     Edge 53, Type (0, 0), None
# Relax obj value: 0.399
# Max RMSD: 0.198
# Mean RMSD: 0.195
data_MOF--net-unp--node1-KUFVIS_clean_sbu_0--edge1-none
_symmetry_space_group_name_H-M    P1
_symmetry_Int_Tables_number       1
_symmetry_cell_setting            triclinic
loop_
_symmetry_equiv_pos_as_xyz
'x, y, z'
_cell_length_a     22.327558
_cell_length_b     22.327116
_cell_length_c     28.200813
_cell_angle_alpha  89.847993
_cell_angle_beta   90.149669
_cell_angle_gamma 119.69561
loop_
_atom_site_label
_atom_site_type_symbol
_atom_site_fract_x
_atom_site_fract_y
_atom_site_fract_z
_atom_type_partial_charge
Mn0 Mn 0.1271 0.13967 0.08248 0.0
Mn1 Mn 0.23994 0.10211 0.04797 0.0
C2 C 0.11026 0.02844 0.09608 0.0
C3 C 0.01058 0.11762 0.07684 0.0
C4 C 0.28405 0.22299 0.11027 0.0
O5 O 0.16555 0.19729 0.01981 0.0
O6 O 0.22149 0.14362 -0.01113 0.0
C7 C 0.15732 -0.01027 -0.01292 0.0
N8 N 0.20379 0.01364 0.02272 0.0
C9 C 0.17934 0.89982 0.04458 0.0
C10 C 0.1332 0.87477 0.0075 0.0
C11 C 0.11784 0.91948 -0.019 0.0
C12 C 0.21111 0.97032 0.05314 0.0
H13 H 0.14603 0.02385 -0.03341 0.0
C14 C 0.19226 0.18168 -0.01587 0.0
O15 O 0.05639 0.16619 0.10329 0.0
O16 O 0.03432 0.08812 0.05012 0.0
N17 N 0.24572 0.05872 0.10719 0.0
C18 C 0.23947 0.07503 0.15322 0.0
C19 C 0.23577 0.03259 0.19109 0.0
C20 C 0.23092 0.96912 0.18197 0.0
C21 C 0.22602 0.94763 0.13503 0.0
C22 C 0.23282 -0.00605 0.09827 0.0
H23 H 0.23258 0.11725 0.16205 0.0
O24 O 0.08925 0.05588 0.12753 0.0
O25 O 0.14724 0.07175 0.06396 0.0
O26 O 0.22117 0.20153 0.12414 0.0
O27 O 0.29096 0.19842 0.07205 0.0
C28 C 0.2073 0.87948 0.12372 0.0
C29 C 0.18366 0.85524 0.07798 0.0
H30 H 0.10941 0.82027 0.00073 0.0
H31 H 0.07689 0.90225 0.95552 0.0
H32 H 0.23332 0.04752 0.2272 0.0
H33 H 0.22572 0.93526 0.21119 0.0
H34 H 0.20404 0.84364 0.15094 0.0
H35 H 0.16115 0.80063 0.07078 0.0
Mn36 Mn 0.82665 0.98283 0.08022 0.0
Mn37 Mn 0.84332 0.12873 0.04909 0.0
C38 C 0.93536 0.0803 0.0874 0.0
C39 C 0.84523 0.88719 0.0761 0.0
C40 C 0.73757 0.04281 0.11668 0.0
O41 O 0.75867 0.95771 0.02296 0.0
O42 O 0.7951 0.06541 -0.00802 0.0
C43 C 0.90288 0.23751 -0.01844 0.0
N44 N 0.91698 0.20374 0.01623 0.0
C45 C 0.02673 0.30574 0.02943 0.0
C46 C 0.01936 0.33306 -0.01329 0.0
C47 C 0.95482 0.3007 -0.0358 0.0
C48 C 0.97094 0.24292 0.04472 0.0
H49 H 0.8508 0.2164 -0.03167 0.0
C50 C 0.76649 -0.00207 -0.01279 0.0
O51 O 0.7995 0.88756 0.10408 0.0
O52 O 0.87399 0.93824 0.04685 0.0
N53 N 0.8982 0.17664 0.10587 0.0
C54 C 0.89219 0.15173 0.15124 0.0
C55 C 0.94822 0.17965 0.18244 0.0
C56 C 0.00983 0.23795 0.16949 0.0
C57 C 0.0164 0.26418 0.12389 0.0
C58 C 0.96137 0.22821 0.09206 0.0
H59 H 0.84818 0.10705 0.16354 0.0
O60 O 0.91279 0.03226 0.11946 0.0
O61 O 0.88994 0.07426 0.05586 0.0
O62 O 0.76815 0.00927 0.12854 0.0
O63 O 0.75246 0.07025 0.07718 0.0
C64 C 0.07766 0.32141 0.10772 0.0
C65 C 0.08193 0.34372 0.06064 0.0
H66 H 0.0595 0.38307 -0.02503 0.0
H67 H 0.94303 0.32512 0.93543 0.0
H68 H 0.94332 0.15665 0.21709 0.0
H69 H 0.05226 0.26099 0.19447 0.0
H70 H 0.12059 0.34997 0.13163 0.0
H71 H 0.1264 0.39146 0.0494 0.0
Mn72 Mn 0.97684 0.83578 0.07845 0.0
Mn73 Mn 0.8314 0.71245 0.04136 0.0
C74 C 0.87941 0.8461 0.08647 0.0
C75 C 0.06768 0.95319 0.08413 0.0
C76 C 0.91672 0.68231 0.1067 0.0
O77 O -0.00074 0.79654 0.01665 0.0
O78 O 0.89311 0.72797 -0.01572 0.0
C79 C 0.75737 0.70759 0.9541 0.0
N80 N 0.76866 0.72826 0.00768 0.0
C81 C 0.62997 0.70523 0.03153 0.0
C82 C 0.58725 0.67739 -0.02051 0.0
C83 C 0.62761 0.66962 0.93104 0.0
C84 C 0.71322 0.72604 0.04281 0.0
H85 H 0.79857 0.70637 0.93416 0.0
C86 C 0.96021 0.7613 -0.01895 0.0
O87 O 0.0699 0.90418 0.10743 0.0
O88 O 0.02 0.93286 0.05223 0.0
N89 N 0.7801 0.71108 0.09897 0.0
C90 C 0.80605 0.72526 0.14428 0.0
C91 C 0.78295 0.75595 0.17726 0.0
C92 C 0.72632 0.76392 0.16648 0.0
C93 C 0.69251 0.73915 0.12348 0.0
C94 C 0.72702 0.72262 0.08886 0.0
H95 H 0.85037 0.72326 0.15448 0.0
O96 O 0.92411 0.86604 0.12064 0.0
O97 O 0.8879 0.81057 0.05363 0.0
O98 O 0.95158 0.74553 0.11987 0.0
O99 O 0.88138 0.66979 0.07009 0.0
C100 C 0.62845 0.73486 0.11404 0.0
C101 C 0.59539 0.71281 0.07005 0.0
H102 H 0.53358 0.66366 -0.02294 0.0
H103 H 0.59912 0.64659 0.89973 0.0
H104 H 0.80824 0.77243 0.21134 0.0
H105 H 0.70655 0.78477 0.19293 0.0
H106 H 0.60201 0.7457 0.14202 0.0
H107 H 0.54362 0.70443 0.06564 0.0
Mn108 Mn 0.13472 0.13182 0.83602 0.0
Mn109 Mn 0.0973 0.24475 0.87052 0.0
C110 C 0.0235 0.11502 0.82247 0.0
C111 C 0.11254 0.01522 0.84168 0.0
C112 C 0.21812 0.28878 0.80819 0.0
O113 O 0.1924 0.17027 0.89866 0.0
O114 O 0.13882 0.22631 0.92961 0.0
C115 C -0.01505 0.16226 0.93147 0.0
N116 N 0.00886 0.20867 0.8958 0.0
C117 C 0.89504 0.18426 0.87398 0.0
C118 C 0.87 0.13819 0.91109 0.0
C119 C 0.91471 0.12283 0.93759 0.0
C120 C 0.96553 0.21598 0.86538 0.0
H121 H 0.01908 0.15097 0.95196 0.0
C122 C 0.17687 0.19706 0.93434 0.0
O123 O 0.1611 0.06098 0.8152 0.0
O124 O 0.08312 0.03904 0.86841 0.0
N125 N 0.05389 0.25053 0.81131 0.0
C126 C 0.07017 0.24427 0.76527 0.0
C127 C 0.02772 0.24057 0.72742 0.0
C128 C 0.96426 0.23573 0.73655 0.0
C129 C 0.9428 0.23084 0.7835 0.0
C130 C -0.01088 0.23764 0.82025 0.0
H131 H 0.1124 0.23738 0.75642 0.0
O132 O 0.05091 0.09401 0.791 0.0
O133 O 0.06685 0.15201 0.85456 0.0
O134 O 0.19662 0.22588 0.79433 0.0
O135 O 0.19359 0.29572 0.84641 0.0
C136 C 0.87466 0.21216 0.79483 0.0
C137 C 0.85044 0.18856 0.84058 0.0
H138 H 0.81552 0.11443 0.91789 0.0
H139 H 0.8975 0.08191 -0.0369 0.0
H140 H 0.04263 0.23812 0.69129 0.0
H141 H 0.93039 0.23053 0.70734 0.0
H142 H 0.83881 0.20888 0.76761 0.0
H143 H 0.79584 0.16609 0.8478 0.0
Mn144 Mn 0.83085 0.98158 0.84023 0.0
Mn145 Mn 0.70741 0.83626 0.87756 0.0
C146 C 0.84098 0.88398 0.83228 0.0
C147 C 0.94825 0.07242 0.83446 0.0
C148 C 0.67737 0.92136 0.81193 0.0
O149 O 0.79173 0.00424 0.90199 0.0
O150 O 0.72302 0.89821 0.93446 0.0
C151 C 0.70296 0.76299 -0.03482 0.0
N152 N 0.72315 0.77363 0.9115 0.0
C153 C 0.69858 0.63426 0.88813 0.0
C154 C 0.67087 0.59206 0.94035 0.0
C155 C 0.66399 0.63315 -0.01129 0.0
C156 C 0.72009 0.71763 0.87655 0.0
H157 H 0.70236 0.80458 -0.01497 0.0
C158 C 0.75645 0.9653 0.93761 0.0
O159 O 0.89922 0.07459 0.81116 0.0
O160 O 0.92796 0.02478 0.86639 0.0
N161 N 0.70582 0.7846 0.82013 0.0
C162 C 0.72019 0.81034 0.77478 0.0
C163 C 0.75059 0.78671 0.74196 0.0
C164 C 0.75789 0.72973 0.75293 0.0
C165 C 0.73294 0.69623 0.796 0.0
C166 C 0.71681 0.73124 0.83046 0.0
H167 H 0.71862 0.85487 0.76446 0.0
O168 O 0.86097 0.92869 0.79811 0.0
O169 O 0.80555 0.89262 0.86514 0.0
O170 O 0.74061 0.95623 0.7988 0.0
O171 O 0.66474 0.88605 0.84857 0.0
C172 C 0.72804 0.63195 0.80566 0.0
C173 C 0.70576 0.5992 0.84973 0.0
H174 H 0.6567 0.5383 0.94298 0.0
H175 H 0.64101 0.60509 0.02019 0.0
H176 H 0.7673 0.81182 0.70784 0.0
H177 H 0.77852 0.70955 0.72661 0.0
H178 H 0.73858 0.60513 0.7778 0.0
H179 H 0.69696 0.54731 0.85433 0.0
Mn180 Mn 0.97769 0.83122 0.83842 0.0
Mn181 Mn 0.12364 0.84798 0.86953 0.0
C182 C 0.07516 0.93997 0.83117 0.0
C183 C 0.88202 0.84976 0.84262 0.0
C184 C 0.0378 0.74222 0.80194 0.0
O185 O 0.95258 0.76328 0.89568 0.0
O186 O 0.0603 0.79981 0.92667 0.0
C187 C 0.23246 0.90755 0.93702 0.0
N188 N 0.19866 0.92166 0.90237 0.0
C189 C 0.30066 0.03141 0.88914 0.0
C190 C 0.328 0.02404 0.93186 0.0
C191 C 0.29565 0.9595 0.95437 0.0
C192 C 0.23783 0.97562 0.87387 0.0
H193 H 0.21135 0.85547 0.95025 0.0
C194 C -0.00719 0.77117 0.93145 0.0
O195 O 0.88234 0.80402 0.81462 0.0
O196 O 0.93312 0.87854 0.87183 0.0
N197 N 0.17155 0.90285 0.81274 0.0
C198 C 0.14664 0.89683 0.76737 0.0
C199 C 0.17459 0.95284 0.73614 0.0
C200 C 0.23289 0.01445 0.74909 0.0
C201 C 0.25911 0.02103 0.79469 0.0
C202 C 0.22313 0.96602 0.82653 0.0
H203 H 0.10192 0.85285 0.75509 0.0
O204 O 0.02707 0.91737 0.79916 0.0
O205 O 0.06914 0.89457 0.86273 0.0
O206 O 0.00419 0.77274 0.79009 0.0
O207 O 0.0652 0.7571 0.84145 0.0
C208 C 0.31633 0.0823 0.81085 0.0
C209 C 0.33864 0.0866 0.85793 0.0
H210 H 0.37801 0.06418 0.94359 0.0
H211 H 0.32008 0.94771 -0.01687 0.0
H212 H 0.15161 0.94792 0.70149 0.0
H213 H 0.25594 0.05687 0.7241 0.0
H214 H 0.3449 0.12522 0.78693 0.0
H215 H 0.38638 0.13106 0.86916 0.0
Mn216 Mn 0.80671 0.50457 0.41262 0.0
Mn217 Mn 0.91161 0.44823 0.37853 0.0
C218 C 0.78104 0.38104 0.4244 0.0
C219 C 0.68115 0.44737 0.42145 0.0
C220 C 0.9585 0.56949 0.4424 0.0
O221 O 0.86141 0.5602 0.35266 0.0
O222 O 0.90211 0.49431 0.32068 0.0
C223 C 0.90849 0.37288 0.29307 0.0
N224 N 0.88567 0.36507 0.34664 0.0
C225 C 0.8972 0.24232 0.37244 0.0
C226 C 0.92396 0.22417 0.32114 0.0
C227 C 0.93777 0.27369 0.27241 0.0
C228 C 0.88242 0.30958 0.38296 0.0
H229 H 0.91408 0.41658 0.27227 0.0
C230 C 0.88158 0.53894 0.31673 0.0
O231 O 0.72227 0.4547 0.45655 0.0
O232 O 0.71179 0.46694 0.38109 0.0
N233 N 0.9104 0.39859 0.43701 0.0
C234 C 0.90732 0.41723 0.48285 0.0
C235 C 0.90288 0.37544 0.52115 0.0
C236 C 0.89831 0.31205 0.51289 0.0
C237 C 0.89446 0.28928 0.46631 0.0
C238 C 0.89532 0.33235 0.42902 0.0
H239 H 0.90336 0.46116 0.49125 0.0
O240 O 0.76536 0.41284 0.45512 0.0
O241 O 0.81552 0.42222 0.39151 0.0
O242 O 0.8971 0.55018 0.45736 0.0
O243 O 0.96288 0.54329 0.40443 0.0
C244 C 0.89093 0.22566 0.45755 0.0
C245 C 0.89504 0.20405 0.41196 0.0
H246 H 0.9351 0.18225 0.31976 0.0
H247 H 0.96065 0.26513 0.24188 0.0
H248 H 0.90221 0.39199 0.5571 0.0
H249 H 0.89676 0.28067 0.54276 0.0
H250 H 0.89027 0.19415 0.48707 0.0
H251 H 0.90033 0.15871 0.40774 0.0
Mn252 Mn 0.49548 0.313 0.41661 0.0
Mn253 Mn 0.5228 0.45454 0.37232 0.0
C254 C 0.6045 0.40674 0.42587 0.0
C255 C 0.52054 0.22741 0.42674 0.0
C256 C 0.40783 0.38181 0.44186 0.0
O257 O 0.43666 0.27935 0.35343 0.0
O258 O 0.47783 0.38457 0.31824 0.0
C259 C 0.58883 0.51722 0.28122 0.0
N260 N 0.60053 0.51261 0.3358 0.0
C261 C 0.70815 0.65725 0.35335 0.0
C262 C 0.71808 0.69371 0.29942 0.0
C263 C 0.67105 0.64632 0.25278 0.0
C264 C 0.65177 0.57387 0.3685 0.0
H265 H 0.54837 0.47248 0.2628 0.0
C266 C 0.44879 0.31727 0.31559 0.0
O267 O 0.46803 0.22402 0.44871 0.0
O268 O 0.54797 0.27113 0.39276 0.0
N269 N 0.57348 0.51206 0.427 0.0
C270 C 0.56331 0.4908 0.47341 0.0
C271 C 0.61567 0.52278 0.50697 0.0
C272 C 0.67603 0.58319 0.49522 0.0
C273 C 0.6854 0.60744 0.44881 0.0
C274 C 0.63627 0.56512 0.41501 0.0
H275 H 0.5196 0.44465 0.48464 0.0
O276 O 0.57609 0.3653 0.46129 0.0
O277 O 0.56321 0.39898 0.3909 0.0
O278 O 0.43158 0.34275 0.45535 0.0
O279 O 0.43116 0.41432 0.40382 0.0
C280 C 0.74252 0.67122 0.43606 0.0
C281 C 0.75034 0.69795 0.39011 0.0
H282 H 0.75431 0.74799 0.29459 0.0
H283 H 0.6733 0.67046 0.21985 0.0
H284 H 0.60883 0.5004 0.54199 0.0
H285 H 0.71513 0.61028 0.52199 0.0
H286 H 0.77897 0.70325 0.46301 0.0
H287 H 0.79076 0.7502 0.38303 0.0
Mn288 Mn 0.6518 0.18337 0.42116 0.0
Mn289 Mn 0.49694 0.06279 0.39265 0.0
C290 C 0.554 0.18886 0.44 0.0
C291 C 0.73953 0.30402 0.4173 0.0
C292 C 0.5911 0.02739 0.4441 0.0
O293 O 0.66641 0.14607 0.35696 0.0
O294 O 0.55377 0.08784 0.33088 0.0
C295 C 0.41942 0.11297 0.33333 0.0
N296 N 0.42802 0.08718 0.37432 0.0
C297 C 0.32226 0.0794 0.40253 0.0
C298 C 0.30467 0.08658 0.3564 0.0
C299 C 0.35368 0.10253 0.32101 0.0
C300 C 0.38121 0.07257 0.40914 0.0
H301 H 0.46421 0.14962 0.31513 0.0
C302 C 0.62065 0.11509 0.3236 0.0
O303 O 0.74899 0.2588 0.44019 0.0
O304 O 0.68464 0.27804 0.39194 0.0
N305 N 0.45648 0.05562 0.4564 0.0
C306 C 0.49142 0.07063 0.49886 0.0
C307 C 0.47709 0.10374 0.53555 0.0
C308 C 0.42298 0.11736 0.53091 0.0
C309 C 0.37974 0.09136 0.4915 0.0
C310 C 0.40139 0.06584 0.45343 0.0
H311 H 0.53827 0.07079 0.50307 0.0
O312 O 0.60507 0.21421 0.46963 0.0
O313 O 0.55986 0.15438 0.40671 0.0
O314 O 0.63081 0.09 0.45875 0.0
O315 O 0.55298 0.01921 0.40917 0.0
C316 C 0.32001 0.09701 0.48668 0.0
C317 C 0.2883 0.08628 0.44217 0.0
H318 H 0.25721 0.08674 0.34855 0.0
H319 H 0.34116 0.1101 0.28548 0.0
H320 H 0.50969 0.12104 0.56672 0.0
H321 H 0.41197 0.14316 0.55924 0.0
H322 H 0.30009 0.11252 0.51635 0.0
H323 H 0.24328 0.09223 0.43802 0.0
Mn324 Mn 0.82724 0.47204 0.174 0.0
Mn325 Mn 0.77119 0.57829 0.20576 0.0
C326 C 0.7029 0.44395 0.16435 0.0
C327 C 0.77119 0.34739 0.16565 0.0
C328 C 0.89063 0.62156 0.1409 0.0
O329 O 0.88408 0.52991 0.23252 0.0
O330 O 0.81999 0.57332 0.26387 0.0
C331 C 0.69789 0.57961 0.29132 0.0
N332 N 0.68928 0.55461 0.23855 0.0
C333 C 0.56681 0.56573 0.21187 0.0
C334 C 0.54972 0.59535 0.26225 0.0
C335 C 0.59978 0.61084 0.31099 0.0
C336 C 0.63343 0.54998 0.2024 0.0
H337 H 0.74187 0.58574 0.31205 0.0
C338 C 0.86477 0.5529 0.26795 0.0
O339 O 0.77734 0.38789 0.13043 0.0
O340 O 0.79104 0.37814 0.20608 0.0
N341 N 0.71906 0.57175 0.14731 0.0
C342 C 0.73395 0.55974 0.10233 0.0
C343 C 0.6827 0.53021 0.06762 0.0
C344 C 0.61665 0.51855 0.07717 0.0
C345 C 0.60351 0.53959 0.12035 0.0
C346 C 0.65303 0.55639 0.15635 0.0
H347 H 0.78141 0.56338 0.09339 0.0
O348 O 0.73418 0.42879 0.13294 0.0
O349 O 0.74512 0.48097 0.19607 0.0
O350 O 0.87125 0.55954 0.12783 0.0
O351 O 0.8648 0.62906 0.17805 0.0
C352 C 0.54059 0.53803 0.12869 0.0
C353 C 0.52506 0.55587 0.17261 0.0
H354 H 0.50754 0.60612 0.26322 0.0
H355 H 0.59196 0.63567 0.34082 0.0
H356 H 0.69422 0.51631 0.03347 0.0
H357 H 0.57715 0.49633 0.05 0.0
H358 H 0.50426 0.52619 0.09984 0.0
H359 H 0.47949 0.56092 0.17607 0.0
Mn360 Mn 0.50516 0.31494 0.16675 0.0
Mn361 Mn 0.3883 0.16078 0.19523 0.0
C362 C 0.51144 0.21759 0.14574 0.0
C363 C 0.62603 0.40242 0.17192 0.0
C364 C 0.34832 0.25218 0.14362 0.0
O365 O 0.46919 0.33022 0.23138 0.0
O366 O 0.41433 0.21833 0.25862 0.0
C367 C 0.45974 0.08775 0.2415 0.0
N368 N 0.41556 0.09099 0.20975 0.0
C369 C 0.39555 0.98079 0.17857 0.0
C370 C 0.42061 0.96863 0.22006 0.0
C371 C 0.45625 0.02362 0.2505 0.0
C372 C 0.39207 0.04214 0.17503 0.0
H373 H 0.50149 0.13436 0.25571 0.0
C374 C 0.44055 0.28555 0.26557 0.0
O375 O 0.58084 0.41154 0.14905 0.0
O376 O 0.59993 0.34681 0.19633 0.0
N377 N 0.37803 0.12158 0.13095 0.0
C378 C 0.389 0.15471 0.08796 0.0
C379 C 0.39439 0.12481 0.04591 0.0
C380 C 0.39139 0.06132 0.04741 0.0
C381 C 0.38207 0.02794 0.09056 0.0
C382 C 0.37961 0.06182 0.13209 0.0
H383 H 0.4021 0.20696 0.08494 0.0
O384 O 0.53613 0.26945 0.11685 0.0
O385 O 0.47793 0.22352 0.1796 0.0
O386 O 0.41087 0.29377 0.12939 0.0
O387 O 0.34211 0.21589 0.17963 0.0
C388 C 0.38051 0.96453 0.09396 0.0
C389 C 0.3842 0.93929 0.13854 0.0
H390 H 0.42297 0.92169 0.22515 0.0
H391 H 0.48508 0.01542 0.27719 0.0
H392 H 0.40535 0.15297 0.01282 0.0
H393 H 0.40293 0.04155 0.01612 0.0
H394 H 0.37943 0.93633 0.06246 0.0
H395 H 0.38638 0.89196 0.14095 0.0
Mn396 Mn 0.63831 0.16248 0.17182 0.0
Mn397 Mn 0.78286 0.19513 0.21517 0.0
C398 C 0.73056 0.27117 0.16147 0.0
C399 C 0.552 0.1862 0.15921 0.0
C400 C 0.70857 0.0752 0.15077 0.0
O401 O 0.60952 0.10793 0.23663 0.0
O402 O 0.71647 0.15129 0.26998 0.0
C403 C 0.84596 0.26417 0.30438 0.0
N404 N 0.83938 0.27511 0.24969 0.0
C405 C -0.01646 0.3815 0.22945 0.0
C406 C 0.02181 0.39186 0.28267 0.0
C407 C 0.976 0.34572 0.33016 0.0
C408 C 0.89955 0.32554 0.21569 0.0
H409 H 0.80189 0.22477 0.32391 0.0
C410 C 0.64954 0.12158 0.27355 0.0
O411 O 0.54771 0.13165 0.13956 0.0
O412 O 0.59567 0.21529 0.19307 0.0
N413 N 0.8371 0.2439 0.15883 0.0
C414 C 0.81434 0.23116 0.11265 0.0
C415 C 0.8485 0.27993 0.0769 0.0
C416 C 0.90981 0.34002 0.08723 0.0
C417 C 0.93321 0.35322 0.13405 0.0
C418 C 0.89017 0.30734 0.16928 0.0
H419 H 0.76768 0.18646 0.10282 0.0
O420 O 0.68946 0.24183 0.12595 0.0
O421 O 0.72379 0.23089 0.19662 0.0
O422 O 0.66865 0.0974 0.13635 0.0
O423 O 0.74357 0.10215 0.18712 0.0
C424 C -0.0023 0.41009 0.14556 0.0
C425 C 0.02426 0.4209 0.19169 0.0
H426 H 0.07647 0.42724 0.28613 0.0
H427 H 0.00043 0.34813 0.36287 0.0
H428 H 0.82781 0.27043 0.04131 0.0
H429 H 0.93855 0.37558 0.05893 0.0
H430 H 0.03044 0.44376 0.11764 0.0
H431 H 0.07708 0.46064 0.19793 0.0
Mn432 Mn 0.4672 0.83198 0.74451 0.0
Mn433 Mn 0.5735 0.77598 0.71265 0.0
C434 C 0.43918 0.70766 0.75411 0.0
C435 C 0.34255 0.77596 0.75289 0.0
C436 C 0.61672 0.89528 0.77766 0.0
O437 O 0.52507 0.88892 0.68602 0.0
O438 O 0.56856 0.82495 0.65462 0.0
C439 C 0.5747 0.7029 0.62691 0.0
N440 N 0.54985 0.69417 0.67973 0.0
C441 C 0.56149 0.57191 0.70618 0.0
C442 C 0.59106 0.55501 0.65572 0.0
C443 C 0.60626 0.60508 0.60702 0.0
C444 C 0.5455 0.63835 0.71579 0.0
H445 H 0.58062 0.74684 0.60622 0.0
C446 C 0.54804 0.86965 0.65056 0.0
O447 O 0.38306 0.78204 0.78808 0.0
O448 O 0.3733 0.79583 0.71245 0.0
N449 N 0.56698 0.72372 0.771 0.0
C450 C 0.55485 0.73842 0.816 0.0
C451 C 0.52549 0.68707 0.85064 0.0
C452 C 0.51426 0.62117 0.84104 0.0
C453 C 0.53526 0.60821 0.7978 0.0
C454 C 0.55184 0.65778 0.76186 0.0
H455 H 0.55832 0.78581 0.82498 0.0
O456 O 0.42396 0.73888 0.78553 0.0
O457 O 0.47619 0.74991 0.72239 0.0
O458 O 0.55468 0.8759 0.79068 0.0
O459 O 0.62433 0.86946 0.74054 0.0
C460 C 0.53389 0.54541 0.78935 0.0
C461 C 0.55177 0.53009 0.74538 0.0
H462 H 0.60198 0.51293 0.65466 0.0
H463 H 0.63108 0.5974 0.57715 0.0
H464 H 0.51147 0.6984 0.88481 0.0
H465 H 0.49216 0.58157 0.86815 0.0
H466 H 0.5222 0.50904 0.81814 0.0
H467 H 0.55697 0.48461 0.74182 0.0
Mn468 Mn 0.15766 0.64311 0.74674 0.0
Mn469 Mn 0.19022 0.78767 0.70342 0.0
C470 C 0.26633 0.7354 0.7571 0.0
C471 C 0.1815 0.55684 0.75931 0.0
C472 C 0.07029 0.71331 0.76784 0.0
O473 O 0.10311 0.61433 0.68193 0.0
O474 O 0.14639 0.72128 0.6486 0.0
C475 C 0.25926 0.85081 0.61419 0.0
N476 N 0.27019 0.84421 0.66888 0.0
C477 C 0.37659 -0.01163 0.68913 0.0
C478 C 0.38695 0.02666 0.63591 0.0
C479 C 0.34081 0.98086 0.58842 0.0
C480 C 0.32062 0.90438 0.70288 0.0
H481 H 0.21985 0.80675 0.59467 0.0
C482 C 0.11674 0.65436 0.64501 0.0
O483 O 0.12694 0.55249 0.77898 0.0
O484 O 0.21054 0.60055 0.72547 0.0
N485 N 0.239 0.84191 0.75975 0.0
C486 C 0.22625 0.81914 0.80593 0.0
C487 C 0.27502 0.85331 0.84168 0.0
C488 C 0.3351 0.91462 0.83134 0.0
C489 C 0.3483 0.93802 0.78453 0.0
C490 C 0.30243 0.89498 0.7493 0.0
H491 H 0.18155 0.77248 0.81576 0.0
O492 O 0.237 0.69429 0.79262 0.0
O493 O 0.22604 0.72863 0.72196 0.0
O494 O 0.09251 0.67338 0.78223 0.0
O495 O 0.09726 0.74836 0.73151 0.0
C496 C 0.40518 0.00252 0.77302 0.0
C497 C 0.41599 0.02909 0.72688 0.0
H498 H 0.42234 0.08131 0.63245 0.0
H499 H 0.34323 0.0053 0.55571 0.0
H500 H 0.26552 0.83261 0.87727 0.0
H501 H 0.37065 0.94336 0.85965 0.0
H502 H 0.43884 0.03525 0.80093 0.0
H503 H 0.45573 0.0819 0.72065 0.0
Mn504 Mn 0.3102 0.50995 0.75171 0.0
Mn505 Mn 0.15601 0.39312 0.72324 0.0
C506 C 0.21293 0.51627 0.77273 0.0
C507 C 0.39771 0.6308 0.74653 0.0
C508 C 0.24736 0.35306 0.77483 0.0
O509 O 0.32546 0.47398 0.68706 0.0
O510 O 0.21357 0.41917 0.65983 0.0
C511 C 0.08296 0.46458 0.67701 0.0
N512 N 0.08622 0.4204 0.70875 0.0
C513 C 0.97603 0.40037 0.73996 0.0
C514 C 0.96385 0.42541 0.69847 0.0
C515 C 0.01882 0.46106 0.66802 0.0
C516 C 0.03739 0.3969 0.74348 0.0
H517 H 0.12957 0.50634 0.6628 0.0
C518 C 0.28079 0.4454 0.65287 0.0
O519 O 0.40685 0.58561 0.7694 0.0
O520 O 0.34209 0.6047 0.72214 0.0
N521 N 0.11685 0.38286 0.78754 0.0
C522 C 0.14999 0.39382 0.83052 0.0
C523 C 0.12011 0.39923 0.87257 0.0
C524 C 0.05663 0.39624 0.87109 0.0
C525 C 0.02323 0.38692 0.82794 0.0
C526 C 0.05709 0.38444 0.78641 0.0
H527 H 0.20223 0.40692 0.83353 0.0
O528 O 0.26476 0.54096 0.80164 0.0
O529 O 0.21879 0.48276 0.73884 0.0
O530 O 0.28898 0.41561 0.78906 0.0
O531 O 0.21109 0.34689 0.73882 0.0
C532 C 0.95982 0.38536 0.82457 0.0
C533 C 0.93455 0.38903 0.78 0.0
H534 H 0.9169 0.42776 0.69339 0.0
H535 H 0.0106 0.48988 0.64133 0.0
H536 H 0.14829 0.4102 0.90566 0.0
H537 H 0.03688 0.4078 0.90239 0.0
H538 H 0.93163 0.38429 0.85607 0.0
H539 H 0.88722 0.39121 0.7776 0.0
Mn540 Mn 0.49964 0.81159 0.50588 0.0
Mn541 Mn 0.44331 0.91649 0.54003 0.0
C542 C 0.37612 0.78594 0.49413 0.0
C543 C 0.44241 0.68603 0.49699 0.0
C544 C 0.56457 0.96339 0.47616 0.0
O545 O 0.55527 0.86624 0.56586 0.0
O546 O 0.48941 0.90697 0.59787 0.0
C547 C 0.36797 0.91333 0.6255 0.0
N548 N 0.36016 0.89053 0.57193 0.0
C549 C 0.23741 0.90207 0.54615 0.0
C550 C 0.21927 0.92882 0.59744 0.0
C551 C 0.26878 0.94262 0.64617 0.0
C552 C 0.30467 0.88729 0.53561 0.0
H553 H 0.41166 0.91892 0.6463 0.0
C554 C 0.53407 0.88648 0.60179 0.0
O555 O 0.44976 0.72719 0.46191 0.0
O556 O 0.46197 0.71662 0.53737 0.0
N557 N 0.39368 0.91531 0.48156 0.0
C558 C 0.41232 0.91225 0.43572 0.0
C559 C 0.37053 0.9078 0.39742 0.0
C560 C 0.30714 0.9032 0.40569 0.0
C561 C 0.28437 0.89935 0.45227 0.0
C562 C 0.32744 0.90021 0.48956 0.0
H563 H 0.45628 0.90832 0.42731 0.0
O564 O 0.40793 0.7703 0.46339 0.0
O565 O 0.41731 0.8204 0.52703 0.0
O566 O 0.54529 0.90201 0.46118 0.0
O567 O 0.53836 0.96779 0.51412 0.0
C568 C 0.22074 0.89581 0.46104 0.0
C569 C 0.19914 0.89992 0.50663 0.0
H570 H 0.17735 0.93996 0.59883 0.0
H571 H 0.26022 0.96549 0.67671 0.0
H572 H 0.38709 0.90715 0.36147 0.0
H573 H 0.27575 0.90166 0.37582 0.0
H574 H 0.18923 0.89516 0.43152 0.0
H575 H 0.1538 0.90521 0.51086 0.0
Mn576 Mn 0.17847 0.65669 0.49738 0.0
Mn577 Mn 0.05791 0.50179 0.52589 0.0
C578 C 0.18396 0.55884 0.4785 0.0
C579 C 0.29911 0.74442 0.50124 0.0
C580 C 0.02249 0.59596 0.47447 0.0
O581 O 0.14118 0.67127 0.5616 0.0
O582 O 0.08298 0.55862 0.58766 0.0
C583 C 0.10816 0.4243 0.58518 0.0
N584 N 0.08233 0.43288 0.5442 0.0
C585 C 0.07455 0.32712 0.51599 0.0
C586 C 0.08176 0.30953 0.56212 0.0
C587 C 0.09773 0.35856 0.5975 0.0
C588 C 0.0677 0.38606 0.50939 0.0
H589 H 0.14483 0.46909 0.60336 0.0
C590 C 0.11021 0.62549 0.59495 0.0
O591 O 0.25389 0.75389 0.47836 0.0
O592 O 0.27314 0.68952 0.52658 0.0
N593 N 0.0507 0.46132 0.46214 0.0
C594 C 0.0657 0.49628 0.41969 0.0
C595 C 0.09885 0.48199 0.383 0.0
C596 C 0.1125 0.42789 0.38762 0.0
C597 C 0.08649 0.38462 0.42703 0.0
C598 C 0.06094 0.40624 0.46511 0.0
H599 H 0.06585 0.54313 0.41548 0.0
O600 O 0.20929 0.60996 0.44891 0.0
O601 O 0.14948 0.56474 0.51179 0.0
O602 O 0.08509 0.63571 0.45981 0.0
O603 O 0.01428 0.55779 0.50937 0.0
C604 C 0.09215 0.3249 0.43184 0.0
C605 C 0.08143 0.29318 0.47635 0.0
H606 H 0.08192 0.26208 0.56996 0.0
H607 H 0.10531 0.34604 0.63303 0.0
H608 H 0.11615 0.5146 0.35183 0.0
H609 H 0.13832 0.41691 0.3593 0.0
H610 H 0.10767 0.305 0.40217 0.0
H611 H 0.08739 0.24816 0.48049 0.0
Mn612 Mn 0.30809 0.50032 0.50182 0.0
Mn613 Mn 0.4497 0.52774 0.54601 0.0
C614 C 0.4018 0.60937 0.49254 0.0
C615 C 0.2225 0.52537 0.49175 0.0
C616 C 0.37694 0.41272 0.47655 0.0
O617 O 0.27454 0.44151 0.56501 0.0
O618 O 0.37981 0.48277 0.60015 0.0
C619 C 0.51261 0.59381 0.63698 0.0
N620 N 0.50778 0.60553 0.58243 0.0
C621 C 0.65225 0.71346 0.56472 0.0
C622 C 0.6889 0.72346 0.61858 0.0
C623 C 0.64173 0.67631 0.66526 0.0
C624 C 0.56888 0.6569 0.54967 0.0
H625 H 0.46799 0.55323 0.65543 0.0
C626 C 0.31249 0.45367 0.60283 0.0
O627 O 0.21909 0.47285 0.46978 0.0
O628 O 0.26623 0.5528 0.52572 0.0
N629 N 0.5071 0.5784 0.49126 0.0
C630 C 0.48577 0.56811 0.44486 0.0
C631 C 0.51765 0.62039 0.41123 0.0
C632 C 0.57802 0.68082 0.4229 0.0
C633 C 0.6023 0.69038 0.46931 0.0
C634 C 0.56009 0.64129 0.50317 0.0
H635 H 0.43963 0.52437 0.43368 0.0
O636 O 0.36035 0.58096 0.45713 0.0
O637 O 0.39408 0.56807 0.52749 0.0
O638 O 0.33782 0.43641 0.46306 0.0
O639 O 0.40948 0.43606 0.51456 0.0
C640 C 0.66602 0.74764 0.48199 0.0
C641 C 0.69283 0.75564 0.52792 0.0
H642 H 0.74315 0.7598 0.62335 0.0
H643 H 0.66605 0.6786 0.69808 0.0
H644 H 0.49521 0.61343 0.37623 0.0
H645 H 0.60504 0.71986 0.39607 0.0
H646 H 0.69796 0.78405 0.45498 0.0
H647 H 0.74505 0.79615 0.53494 0.0
loop_
_geom_bond_atom_site_label_1
_geom_bond_atom_site_label_2
_geom_bond_distance
_geom_bond_site_symmetry_2
_ccdc_geom_bond_type
Mn0 O5 2.095 . S
Mn0 O15 2.162 . S
Mn0 O16 2.297 . S
Mn0 O24 2.385 . S
Mn0 O25 2.209 . S
Mn0 O26 2.094 . S
Mn1 O6 2.121 . S
Mn1 N8 2.257 . S
Mn1 N17 2.282 . S
Mn1 O25 2.215 . S
Mn1 O27 2.117 . S
C2 O24 1.234 . S
C2 O25 1.283 . S
C3 O15 1.281 . S
C3 O16 1.236 . S
C4 O26 1.240 . S
C4 O27 1.264 . S
O5 Mn0 2.095 . S
O5 C14 1.250 . S
O6 Mn1 2.121 . S
O6 C14 1.258 . S
C7 N8 1.326 1_556 S
C7 C11 1.460 1_545 S
C7 H13 0.929 . S
N8 Mn1 2.257 . S
N8 C7 1.326 1_554 S
N8 C12 1.362 1_545 S
C9 C10 1.258 1_554 S
C9 C12 1.431 . S
C9 C29 1.449 . S
C10 C9 1.258 1_556 S
C10 C11 1.477 . S
C10 H30 0.931 . S
C11 C7 1.460 1_565 S
C11 C10 1.477 . S
C11 H31 0.930 . S
C12 N8 1.362 1_565 S
C12 C9 1.431 . S
C12 C22 1.476 . S
H13 C7 0.929 . S
C14 O5 1.250 . S
C14 O6 1.258 . S
O15 Mn0 2.162 . S
O15 C3 1.281 . S
O16 Mn0 2.297 . S
O16 C3 1.236 . S
N17 Mn1 2.282 . S
N17 C18 1.328 . S
N17 C22 1.318 1_545 S
C18 N17 1.328 . S
C18 C19 1.457 . S
C18 H23 0.929 . S
C19 C18 1.457 . S
C19 C20 1.291 1_545 S
C19 H32 0.931 . S
C20 C19 1.291 1_565 S
C20 C21 1.373 . S
C20 H33 0.929 . S
C21 C20 1.373 . S
C21 C22 1.396 . S
C21 C28 1.403 . S
C22 C12 1.476 . S
C22 N17 1.318 1_565 S
C22 C21 1.396 . S
H23 C18 0.929 . S
O24 Mn0 2.385 . S
O24 C2 1.234 . S
O25 Mn0 2.209 . S
O25 Mn1 2.215 . S
O25 C2 1.283 . S
O26 Mn0 2.094 . S
O26 C4 1.240 . S
O27 Mn1 2.117 . S
O27 C4 1.264 . S
C28 C21 1.403 . S
C28 C29 1.399 . S
C28 H34 0.929 . S
C29 C9 1.449 . S
C29 C28 1.399 . S
C29 H35 0.930 . S
H30 C10 0.931 . S
H31 C11 0.930 . S
H32 C19 0.931 . S
H33 C20 0.929 . S
H34 C28 0.929 . S
H35 C29 0.930 . S
Mn36 O41 2.095 . S
Mn36 O51 2.162 . S
Mn36 O52 2.297 . S
Mn36 O60 2.385 1_565 S
Mn36 O61 2.209 1_565 S
Mn36 O62 2.094 1_565 S
Mn37 O42 2.121 . S
Mn37 N44 2.257 . S
Mn37 N53 2.282 . S
Mn37 O61 2.215 . S
Mn37 O63 2.117 . S
C38 O60 1.234 . S
C38 O61 1.283 . S
C39 O51 1.281 . S
C39 O52 1.236 . S
C40 O62 1.240 . S
C40 O63 1.264 . S
O41 Mn36 2.095 . S
O41 C50 1.250 . S
O42 Mn37 2.121 . S
O42 C50 1.258 1_545 S
C43 N44 1.326 1_556 S
C43 C47 1.460 1_655 S
C43 H49 0.929 . S
N44 Mn37 2.257 . S
N44 C43 1.326 1_554 S
N44 C48 1.362 1_655 S
C45 C46 1.258 1_554 S
C45 C48 1.431 . S
C45 C65 1.449 . S
C46 C45 1.258 1_556 S
C46 C47 1.477 . S
C46 H66 0.931 . S
C47 C43 1.460 1_455 S
C47 C46 1.477 . S
C47 H67 0.930 . S
C48 N44 1.362 1_455 S
C48 C45 1.431 . S
C48 C58 1.476 . S
H49 C43 0.929 . S
C50 O41 1.250 . S
C50 O42 1.258 1_565 S
O51 Mn36 2.162 . S
O51 C39 1.281 . S
O52 Mn36 2.297 . S
O52 C39 1.236 . S
N53 Mn37 2.282 . S
N53 C54 1.328 . S
N53 C58 1.318 1_655 S
C54 N53 1.328 . S
C54 C55 1.457 . S
C54 H59 0.929 . S
C55 C54 1.457 . S
C55 C56 1.291 1_655 S
C55 H68 0.931 . S
C56 C55 1.291 1_455 S
C56 C57 1.373 . S
C56 H69 0.929 . S
C57 C56 1.373 . S
C57 C58 1.396 . S
C57 C64 1.403 . S
C58 C48 1.476 . S
C58 N53 1.318 1_455 S
C58 C57 1.396 . S
H59 C54 0.929 . S
O60 Mn36 2.385 1_545 S
O60 C38 1.234 . S
O61 Mn36 2.209 1_545 S
O61 Mn37 2.215 . S
O61 C38 1.283 . S
O62 Mn36 2.094 1_545 S
O62 C40 1.240 . S
O63 Mn37 2.117 . S
O63 C40 1.264 . S
C64 C57 1.403 . S
C64 C65 1.399 . S
C64 H70 0.929 . S
C65 C45 1.449 . S
C65 C64 1.399 . S
C65 H71 0.930 . S
H66 C46 0.931 . S
H67 C47 0.930 . S
H68 C55 0.931 . S
H69 C56 0.929 . S
H70 C64 0.929 . S
H71 C65 0.930 . S
Mn72 O77 2.095 . S
Mn72 O87 2.162 . S
Mn72 O88 2.297 . S
Mn72 O96 2.385 1_455 S
Mn72 O97 2.209 1_455 S
Mn72 O98 2.094 1_455 S
Mn73 O78 2.121 . S
Mn73 N80 2.257 . S
Mn73 N89 2.282 . S
Mn73 O97 2.215 . S
Mn73 O99 2.117 . S
C74 O96 1.234 . S
C74 O97 1.283 . S
C75 O87 1.281 . S
C75 O88 1.236 . S
C76 O98 1.240 . S
C76 O99 1.264 . S
O77 Mn72 2.095 . S
O77 C86 1.250 . S
O78 Mn73 2.121 . S
O78 C86 1.258 1_655 S
C79 N80 1.326 1_556 S
C79 C83 1.460 . S
C79 H85 0.929 . S
N80 Mn73 2.257 . S
N80 C79 1.326 1_554 S
N80 C84 1.362 . S
C81 C82 1.258 1_554 S
C81 C84 1.431 . S
C81 C101 1.449 . S
C82 C81 1.258 1_556 S
C82 C83 1.477 . S
C82 H102 0.931 . S
C83 C79 1.460 . S
C83 C82 1.477 . S
C83 H103 0.930 . S
C84 N80 1.362 . S
C84 C81 1.431 . S
C84 C94 1.476 . S
H85 C79 0.929 . S
C86 O77 1.250 . S
C86 O78 1.258 1_455 S
O87 Mn72 2.162 . S
O87 C75 1.281 . S
O88 Mn72 2.297 . S
O88 C75 1.236 . S
N89 Mn73 2.282 . S
N89 C90 1.328 . S
N89 C94 1.318 . S
C90 N89 1.328 . S
C90 C91 1.457 . S
C90 H95 0.929 . S
C91 C90 1.457 . S
C91 C92 1.291 . S
C91 H104 0.931 . S
C92 C91 1.291 . S
C92 C93 1.373 . S
C92 H105 0.929 . S
C93 C92 1.373 . S
C93 C94 1.396 . S
C93 C100 1.403 . S
C94 C84 1.476 . S
C94 N89 1.318 . S
C94 C93 1.396 . S
H95 C90 0.929 . S
O96 Mn72 2.385 1_655 S
O96 C74 1.234 . S
O97 Mn72 2.209 1_655 S
O97 Mn73 2.215 . S
O97 C74 1.283 . S
O98 Mn72 2.094 1_655 S
O98 C76 1.240 . S
O99 Mn73 2.117 . S
O99 C76 1.264 . S
C100 C93 1.403 . S
C100 C101 1.399 . S
C100 H106 0.929 . S
C101 C81 1.449 . S
C101 C100 1.399 . S
C101 H107 0.930 . S
H102 C82 0.931 . S
H103 C83 0.930 . S
H104 C91 0.931 . S
H105 C92 0.929 . S
H106 C100 0.929 . S
H107 C101 0.930 . S
Mn108 O113 2.095 . S
Mn108 O123 2.162 . S
Mn108 O124 2.297 . S
Mn108 O132 2.385 . S
Mn108 O133 2.209 . S
Mn108 O134 2.094 . S
Mn109 O114 2.121 . S
Mn109 N116 2.257 . S
Mn109 N125 2.282 . S
Mn109 O133 2.215 . S
Mn109 O135 2.117 . S
C110 O132 1.234 . S
C110 O133 1.283 . S
C111 O123 1.281 . S
C111 O124 1.236 . S
C112 O134 1.240 . S
C112 O135 1.264 . S
O113 Mn108 2.095 . S
O113 C122 1.250 . S
O114 Mn109 2.121 . S
O114 C122 1.258 . S
C115 N116 1.326 1_554 S
C115 C119 1.460 1_455 S
C115 H121 0.929 . S
N116 Mn109 2.257 . S
N116 C115 1.326 1_556 S
N116 C120 1.362 1_455 S
C117 C118 1.258 1_556 S
C117 C120 1.431 . S
C117 C137 1.449 . S
C118 C117 1.258 1_554 S
C118 C119 1.477 . S
C118 H138 0.931 . S
C119 C115 1.460 1_655 S
C119 C118 1.477 . S
C119 H139 0.930 . S
C120 N116 1.362 1_655 S
C120 C117 1.431 . S
C120 C130 1.476 . S
H121 C115 0.929 . S
C122 O113 1.250 . S
C122 O114 1.258 . S
O123 Mn108 2.162 . S
O123 C111 1.281 . S
O124 Mn108 2.297 . S
O124 C111 1.236 . S
N125 Mn109 2.282 . S
N125 C126 1.328 . S
N125 C130 1.318 1_455 S
C126 N125 1.328 . S
C126 C127 1.457 . S
C126 H131 0.929 . S
C127 C126 1.457 . S
C127 C128 1.291 1_455 S
C127 H140 0.931 . S
C128 C127 1.291 1_655 S
C128 C129 1.373 . S
C128 H141 0.929 . S
C129 C128 1.373 . S
C129 C130 1.396 . S
C129 C136 1.403 . S
C130 C120 1.476 . S
C130 N125 1.318 1_655 S
C130 C129 1.396 . S
H131 C126 0.929 . S
O132 Mn108 2.385 . S
O132 C110 1.234 . S
O133 Mn108 2.209 . S
O133 Mn109 2.215 . S
O133 C110 1.283 . S
O134 Mn108 2.094 . S
O134 C112 1.240 . S
O135 Mn109 2.117 . S
O135 C112 1.264 . S
C136 C129 1.403 . S
C136 C137 1.399 . S
C136 H142 0.929 . S
C137 C117 1.449 . S
C137 C136 1.399 . S
C137 H143 0.930 . S
H138 C118 0.931 . S
H139 C119 0.930 . S
H140 C127 0.931 . S
H141 C128 0.929 . S
H142 C136 0.929 . S
H143 C137 0.930 . S
Mn144 O149 2.095 . S
Mn144 O159 2.162 . S
Mn144 O160 2.297 . S
Mn144 O168 2.385 1_545 S
Mn144 O169 2.209 1_545 S
Mn144 O170 2.094 1_545 S
Mn145 O150 2.121 . S
Mn145 N152 2.257 . S
Mn145 N161 2.282 . S
Mn145 O169 2.215 . S
Mn145 O171 2.117 . S
C146 O168 1.234 . S
C146 O169 1.283 . S
C147 O159 1.281 . S
C147 O160 1.236 . S
C148 O170 1.240 . S
C148 O171 1.264 . S
O149 Mn144 2.095 . S
O149 C158 1.250 . S
O150 Mn145 2.121 . S
O150 C158 1.258 1_565 S
C151 N152 1.326 1_554 S
C151 C155 1.460 . S
C151 H157 0.929 . S
N152 Mn145 2.257 . S
N152 C151 1.326 1_556 S
N152 C156 1.362 . S
C153 C154 1.258 1_556 S
C153 C156 1.431 . S
C153 C173 1.449 . S
C154 C153 1.258 1_554 S
C154 C155 1.477 . S
C154 H174 0.931 . S
C155 C151 1.460 . S
C155 C154 1.477 . S
C155 H175 0.930 . S
C156 N152 1.362 . S
C156 C153 1.431 . S
C156 C166 1.476 . S
H157 C151 0.929 . S
C158 O149 1.250 . S
C158 O150 1.258 1_545 S
O159 Mn144 2.162 . S
O159 C147 1.281 . S
O160 Mn144 2.297 . S
O160 C147 1.236 . S
N161 Mn145 2.282 . S
N161 C162 1.328 . S
N161 C166 1.318 . S
C162 N161 1.328 . S
C162 C163 1.457 . S
C162 H167 0.929 . S
C163 C162 1.457 . S
C163 C164 1.291 . S
C163 H176 0.931 . S
C164 C163 1.291 . S
C164 C165 1.373 . S
C164 H177 0.929 . S
C165 C164 1.373 . S
C165 C166 1.396 . S
C165 C172 1.403 . S
C166 C156 1.476 . S
C166 N161 1.318 . S
C166 C165 1.396 . S
H167 C162 0.929 . S
O168 Mn144 2.385 1_565 S
O168 C146 1.234 . S
O169 Mn144 2.209 1_565 S
O169 Mn145 2.215 . S
O169 C146 1.283 . S
O170 Mn144 2.094 1_565 S
O170 C148 1.240 . S
O171 Mn145 2.117 . S
O171 C148 1.264 . S
C172 C165 1.403 . S
C172 C173 1.399 . S
C172 H178 0.929 . S
C173 C153 1.449 . S
C173 C172 1.399 . S
C173 H179 0.930 . S
H174 C154 0.931 . S
H175 C155 0.930 . S
H176 C163 0.931 . S
H177 C164 0.929 . S
H178 C172 0.929 . S
H179 C173 0.930 . S
Mn180 O185 2.095 . S
Mn180 O195 2.162 . S
Mn180 O196 2.297 . S
Mn180 O204 2.385 1_655 S
Mn180 O205 2.209 1_655 S
Mn180 O206 2.094 1_655 S
Mn181 O186 2.121 . S
Mn181 N188 2.257 . S
Mn181 N197 2.282 . S
Mn181 O205 2.215 . S
Mn181 O207 2.117 . S
C182 O204 1.234 . S
C182 O205 1.283 . S
C183 O195 1.281 . S
C183 O196 1.236 . S
C184 O206 1.240 . S
C184 O207 1.264 . S
O185 Mn180 2.095 . S
O185 C194 1.250 . S
O186 Mn181 2.121 . S
O186 C194 1.258 1_455 S
C187 N188 1.326 1_554 S
C187 C191 1.460 1_565 S
C187 H193 0.929 . S
N188 Mn181 2.257 . S
N188 C187 1.326 1_556 S
N188 C192 1.362 1_565 S
C189 C190 1.258 1_556 S
C189 C192 1.431 . S
C189 C209 1.449 . S
C190 C189 1.258 1_554 S
C190 C191 1.477 . S
C190 H210 0.931 . S
C191 C187 1.460 1_545 S
C191 C190 1.477 . S
C191 H211 0.930 . S
C192 N188 1.362 1_545 S
C192 C189 1.431 . S
C192 C202 1.476 . S
H193 C187 0.929 . S
C194 O185 1.250 . S
C194 O186 1.258 1_655 S
O195 Mn180 2.162 . S
O195 C183 1.281 . S
O196 Mn180 2.297 . S
O196 C183 1.236 . S
N197 Mn181 2.282 . S
N197 C198 1.328 . S
N197 C202 1.318 1_565 S
C198 N197 1.328 . S
C198 C199 1.457 . S
C198 H203 0.929 . S
C199 C198 1.457 . S
C199 C200 1.291 1_565 S
C199 H212 0.931 . S
C200 C199 1.291 1_545 S
C200 C201 1.373 . S
C200 H213 0.929 . S
C201 C200 1.373 . S
C201 C202 1.396 . S
C201 C208 1.403 . S
C202 C192 1.476 . S
C202 N197 1.318 1_545 S
C202 C201 1.396 . S
H203 C198 0.929 . S
O204 Mn180 2.385 1_455 S
O204 C182 1.234 . S
O205 Mn180 2.209 1_455 S
O205 Mn181 2.215 . S
O205 C182 1.283 . S
O206 Mn180 2.094 1_455 S
O206 C184 1.240 . S
O207 Mn181 2.117 . S
O207 C184 1.264 . S
C208 C201 1.403 . S
C208 C209 1.399 . S
C208 H214 0.929 . S
C209 C189 1.449 . S
C209 C208 1.399 . S
C209 H215 0.930 . S
H210 C190 0.931 . S
H211 C191 0.930 . S
H212 C199 0.931 . S
H213 C200 0.929 . S
H214 C208 0.929 . S
H215 C209 0.930 . S
Mn216 O221 2.095 . S
Mn216 O231 2.162 . S
Mn216 O232 2.297 . S
Mn216 O240 2.385 . S
Mn216 O241 2.209 . S
Mn216 O242 2.094 . S
Mn217 O222 2.121 . S
Mn217 N224 2.257 . S
Mn217 N233 2.282 . S
Mn217 O241 2.215 . S
Mn217 O243 2.117 . S
C218 O240 1.234 . S
C218 O241 1.283 . S
C219 O231 1.281 . S
C219 O232 1.236 . S
C220 O242 1.240 . S
C220 O243 1.264 . S
O221 Mn216 2.095 . S
O221 C230 1.250 . S
O222 Mn217 2.121 . S
O222 C230 1.258 . S
C223 N224 1.326 . S
C223 C227 1.460 . S
C223 H229 0.929 . S
N224 Mn217 2.257 . S
N224 C223 1.326 . S
N224 C228 1.362 . S
C225 C226 1.258 . S
C225 C228 1.431 . S
C225 C245 1.449 . S
C226 C225 1.258 . S
C226 C227 1.477 . S
C226 H246 0.931 . S
C227 C223 1.460 . S
C227 C226 1.477 . S
C227 H247 0.930 . S
C228 N224 1.362 . S
C228 C225 1.431 . S
C228 C238 1.476 . S
H229 C223 0.929 . S
C230 O221 1.250 . S
C230 O222 1.258 . S
O231 Mn216 2.162 . S
O231 C219 1.281 . S
O232 Mn216 2.297 . S
O232 C219 1.236 . S
N233 Mn217 2.282 . S
N233 C234 1.328 . S
N233 C238 1.318 . S
C234 N233 1.328 . S
C234 C235 1.457 . S
C234 H239 0.929 . S
C235 C234 1.457 . S
C235 C236 1.291 . S
C235 H248 0.931 . S
C236 C235 1.291 . S
C236 C237 1.373 . S
C236 H249 0.929 . S
C237 C236 1.373 . S
C237 C238 1.396 . S
C237 C244 1.403 . S
C238 C228 1.476 . S
C238 N233 1.318 . S
C238 C237 1.396 . S
H239 C234 0.929 . S
O240 Mn216 2.385 . S
O240 C218 1.234 . S
O241 Mn216 2.209 . S
O241 Mn217 2.215 . S
O241 C218 1.283 . S
O242 Mn216 2.094 . S
O242 C220 1.240 . S
O243 Mn217 2.117 . S
O243 C220 1.264 . S
C244 C237 1.403 . S
C244 C245 1.399 . S
C244 H250 0.929 . S
C245 C225 1.449 . S
C245 C244 1.399 . S
C245 H251 0.930 . S
H246 C226 0.931 . S
H247 C227 0.930 . S
H248 C235 0.931 . S
H249 C236 0.929 . S
H250 C244 0.929 . S
H251 C245 0.930 . S
Mn252 O257 2.095 . S
Mn252 O267 2.162 . S
Mn252 O268 2.297 . S
Mn252 O276 2.385 . S
Mn252 O277 2.209 . S
Mn252 O278 2.094 . S
Mn253 O258 2.121 . S
Mn253 N260 2.257 . S
Mn253 N269 2.282 . S
Mn253 O277 2.215 . S
Mn253 O279 2.117 . S
C254 O276 1.234 . S
C254 O277 1.283 . S
C255 O267 1.281 . S
C255 O268 1.236 . S
C256 O278 1.240 . S
C256 O279 1.264 . S
O257 Mn252 2.095 . S
O257 C266 1.250 . S
O258 Mn253 2.121 . S
O258 C266 1.258 . S
C259 N260 1.326 . S
C259 C263 1.460 . S
C259 H265 0.929 . S
N260 Mn253 2.257 . S
N260 C259 1.326 . S
N260 C264 1.362 . S
C261 C262 1.258 . S
C261 C264 1.431 . S
C261 C281 1.449 . S
C262 C261 1.258 . S
C262 C263 1.477 . S
C262 H282 0.931 . S
C263 C259 1.460 . S
C263 C262 1.477 . S
C263 H283 0.930 . S
C264 N260 1.362 . S
C264 C261 1.431 . S
C264 C274 1.476 . S
H265 C259 0.929 . S
C266 O257 1.250 . S
C266 O258 1.258 . S
O267 Mn252 2.162 . S
O267 C255 1.281 . S
O268 Mn252 2.297 . S
O268 C255 1.236 . S
N269 Mn253 2.282 . S
N269 C270 1.328 . S
N269 C274 1.318 . S
C270 N269 1.328 . S
C270 C271 1.457 . S
C270 H275 0.929 . S
C271 C270 1.457 . S
C271 C272 1.291 . S
C271 H284 0.931 . S
C272 C271 1.291 . S
C272 C273 1.373 . S
C272 H285 0.929 . S
C273 C272 1.373 . S
C273 C274 1.396 . S
C273 C280 1.403 . S
C274 C264 1.476 . S
C274 N269 1.318 . S
C274 C273 1.396 . S
H275 C270 0.929 . S
O276 Mn252 2.385 . S
O276 C254 1.234 . S
O277 Mn252 2.209 . S
O277 Mn253 2.215 . S
O277 C254 1.283 . S
O278 Mn252 2.094 . S
O278 C256 1.240 . S
O279 Mn253 2.117 . S
O279 C256 1.264 . S
C280 C273 1.403 . S
C280 C281 1.399 . S
C280 H286 0.929 . S
C281 C261 1.449 . S
C281 C280 1.399 . S
C281 H287 0.930 . S
H282 C262 0.931 . S
H283 C263 0.930 . S
H284 C271 0.931 . S
H285 C272 0.929 . S
H286 C280 0.929 . S
H287 C281 0.930 . S
Mn288 O293 2.095 . S
Mn288 O303 2.162 . S
Mn288 O304 2.297 . S
Mn288 O312 2.385 . S
Mn288 O313 2.209 . S
Mn288 O314 2.094 . S
Mn289 O294 2.121 . S
Mn289 N296 2.257 . S
Mn289 N305 2.282 . S
Mn289 O313 2.215 . S
Mn289 O315 2.117 . S
C290 O312 1.234 . S
C290 O313 1.283 . S
C291 O303 1.281 . S
C291 O304 1.236 . S
C292 O314 1.240 . S
C292 O315 1.264 . S
O293 Mn288 2.095 . S
O293 C302 1.250 . S
O294 Mn289 2.121 . S
O294 C302 1.258 . S
C295 N296 1.326 . S
C295 C299 1.460 . S
C295 H301 0.929 . S
N296 Mn289 2.257 . S
N296 C295 1.326 . S
N296 C300 1.362 . S
C297 C298 1.258 . S
C297 C300 1.431 . S
C297 C317 1.449 . S
C298 C297 1.258 . S
C298 C299 1.477 . S
C298 H318 0.931 . S
C299 C295 1.460 . S
C299 C298 1.477 . S
C299 H319 0.930 . S
C300 N296 1.362 . S
C300 C297 1.431 . S
C300 C310 1.476 . S
H301 C295 0.929 . S
C302 O293 1.250 . S
C302 O294 1.258 . S
O303 Mn288 2.162 . S
O303 C291 1.281 . S
O304 Mn288 2.297 . S
O304 C291 1.236 . S
N305 Mn289 2.282 . S
N305 C306 1.328 . S
N305 C310 1.318 . S
C306 N305 1.328 . S
C306 C307 1.457 . S
C306 H311 0.929 . S
C307 C306 1.457 . S
C307 C308 1.291 . S
C307 H320 0.932 . S
C308 C307 1.291 . S
C308 C309 1.373 . S
C308 H321 0.929 . S
C309 C308 1.373 . S
C309 C310 1.396 . S
C309 C316 1.403 . S
C310 C300 1.476 . S
C310 N305 1.318 . S
C310 C309 1.396 . S
H311 C306 0.929 . S
O312 Mn288 2.385 . S
O312 C290 1.234 . S
O313 Mn288 2.209 . S
O313 Mn289 2.215 . S
O313 C290 1.283 . S
O314 Mn288 2.094 . S
O314 C292 1.240 . S
O315 Mn289 2.117 . S
O315 C292 1.264 . S
C316 C309 1.403 . S
C316 C317 1.399 . S
C316 H322 0.929 . S
C317 C297 1.449 . S
C317 C316 1.399 . S
C317 H323 0.930 . S
H318 C298 0.931 . S
H319 C299 0.930 . S
H320 C307 0.932 . S
H321 C308 0.929 . S
H322 C316 0.929 . S
H323 C317 0.930 . S
Mn324 O329 2.095 . S
Mn324 O339 2.162 . S
Mn324 O340 2.297 . S
Mn324 O348 2.385 . S
Mn324 O349 2.209 . S
Mn324 O350 2.094 . S
Mn325 O330 2.121 . S
Mn325 N332 2.257 . S
Mn325 N341 2.282 . S
Mn325 O349 2.215 . S
Mn325 O351 2.117 . S
C326 O348 1.234 . S
C326 O349 1.283 . S
C327 O339 1.281 . S
C327 O340 1.236 . S
C328 O350 1.240 . S
C328 O351 1.264 . S
O329 Mn324 2.095 . S
O329 C338 1.250 . S
O330 Mn325 2.121 . S
O330 C338 1.258 . S
C331 N332 1.326 . S
C331 C335 1.460 . S
C331 H337 0.929 . S
N332 Mn325 2.257 . S
N332 C331 1.326 . S
N332 C336 1.362 . S
C333 C334 1.258 . S
C333 C336 1.431 . S
C333 C353 1.449 . S
C334 C333 1.258 . S
C334 C335 1.477 . S
C334 H354 0.931 . S
C335 C331 1.460 . S
C335 C334 1.477 . S
C335 H355 0.930 . S
C336 N332 1.362 . S
C336 C333 1.431 . S
C336 C346 1.476 . S
H337 C331 0.929 . S
C338 O329 1.250 . S
C338 O330 1.258 . S
O339 Mn324 2.162 . S
O339 C327 1.281 . S
O340 Mn324 2.297 . S
O340 C327 1.236 . S
N341 Mn325 2.282 . S
N341 C342 1.328 . S
N341 C346 1.318 . S
C342 N341 1.328 . S
C342 C343 1.457 . S
C342 H347 0.929 . S
C343 C342 1.457 . S
C343 C344 1.291 . S
C343 H356 0.931 . S
C344 C343 1.291 . S
C344 C345 1.373 . S
C344 H357 0.929 . S
C345 C344 1.373 . S
C345 C346 1.396 . S
C345 C352 1.403 . S
C346 C336 1.476 . S
C346 N341 1.318 . S
C346 C345 1.396 . S
H347 C342 0.929 . S
O348 Mn324 2.385 . S
O348 C326 1.234 . S
O349 Mn324 2.209 . S
O349 Mn325 2.215 . S
O349 C326 1.283 . S
O350 Mn324 2.094 . S
O350 C328 1.240 . S
O351 Mn325 2.117 . S
O351 C328 1.264 . S
C352 C345 1.403 . S
C352 C353 1.399 . S
C352 H358 0.929 . S
C353 C333 1.449 . S
C353 C352 1.399 . S
C353 H359 0.930 . S
H354 C334 0.931 . S
H355 C335 0.930 . S
H356 C343 0.931 . S
H357 C344 0.929 . S
H358 C352 0.929 . S
H359 C353 0.930 . S
Mn360 O365 2.095 . S
Mn360 O375 2.162 . S
Mn360 O376 2.297 . S
Mn360 O384 2.385 . S
Mn360 O385 2.209 . S
Mn360 O386 2.094 . S
Mn361 O366 2.121 . S
Mn361 N368 2.257 . S
Mn361 N377 2.282 . S
Mn361 O385 2.215 . S
Mn361 O387 2.117 . S
C362 O384 1.234 . S
C362 O385 1.283 . S
C363 O375 1.281 . S
C363 O376 1.236 . S
C364 O386 1.240 . S
C364 O387 1.264 . S
O365 Mn360 2.095 . S
O365 C374 1.250 . S
O366 Mn361 2.121 . S
O366 C374 1.258 . S
C367 N368 1.326 . S
C367 C371 1.460 . S
C367 H373 0.929 . S
N368 Mn361 2.257 . S
N368 C367 1.326 . S
N368 C372 1.362 . S
C369 C370 1.258 . S
C369 C372 1.431 . S
C369 C389 1.449 1_545 S
C370 C369 1.258 . S
C370 C371 1.477 . S
C370 H390 0.931 1_545 S
C371 C367 1.460 . S
C371 C370 1.477 . S
C371 H391 0.930 . S
C372 N368 1.362 . S
C372 C369 1.431 . S
C372 C382 1.476 . S
H373 C367 0.929 . S
C374 O365 1.250 . S
C374 O366 1.258 . S
O375 Mn360 2.162 . S
O375 C363 1.281 . S
O376 Mn360 2.297 . S
O376 C363 1.236 . S
N377 Mn361 2.282 . S
N377 C378 1.328 . S
N377 C382 1.318 . S
C378 N377 1.328 . S
C378 C379 1.457 . S
C378 H383 0.929 . S
C379 C378 1.457 . S
C379 C380 1.291 1_545 S
C379 H392 0.931 . S
C380 C379 1.291 1_565 S
C380 C381 1.373 . S
C380 H393 0.929 . S
C381 C380 1.373 . S
C381 C382 1.396 1_565 S
C381 C388 1.403 . S
C382 C372 1.476 . S
C382 N377 1.318 . S
C382 C381 1.396 1_545 S
H383 C378 0.929 . S
O384 Mn360 2.385 . S
O384 C362 1.234 . S
O385 Mn360 2.209 . S
O385 Mn361 2.215 . S
O385 C362 1.283 . S
O386 Mn360 2.094 . S
O386 C364 1.240 . S
O387 Mn361 2.117 . S
O387 C364 1.264 . S
C388 C381 1.403 . S
C388 C389 1.399 . S
C388 H394 0.929 . S
C389 C369 1.449 1_565 S
C389 C388 1.399 . S
C389 H395 0.930 . S
H390 C370 0.931 1_565 S
H391 C371 0.930 . S
H392 C379 0.931 . S
H393 C380 0.929 . S
H394 C388 0.929 . S
H395 C389 0.930 . S
Mn396 O401 2.095 . S
Mn396 O411 2.162 . S
Mn396 O412 2.297 . S
Mn396 O420 2.385 . S
Mn396 O421 2.209 . S
Mn396 O422 2.094 . S
Mn397 O402 2.121 . S
Mn397 N404 2.257 . S
Mn397 N413 2.282 . S
Mn397 O421 2.215 . S
Mn397 O423 2.117 . S
C398 O420 1.234 . S
C398 O421 1.283 . S
C399 O411 1.281 . S
C399 O412 1.236 . S
C400 O422 1.240 . S
C400 O423 1.264 . S
O401 Mn396 2.095 . S
O401 C410 1.250 . S
O402 Mn397 2.121 . S
O402 C410 1.258 . S
C403 N404 1.326 . S
C403 C407 1.460 . S
C403 H409 0.929 . S
N404 Mn397 2.257 . S
N404 C403 1.326 . S
N404 C408 1.362 . S
C405 C406 1.258 . S
C405 C408 1.431 . S
C405 C425 1.449 1_655 S
C406 C405 1.258 . S
C406 C407 1.477 . S
C406 H426 0.931 1_655 S
C407 C403 1.460 . S
C407 C406 1.477 . S
C407 H427 0.930 . S
C408 N404 1.362 . S
C408 C405 1.431 . S
C408 C418 1.476 . S
H409 C403 0.929 . S
C410 O401 1.250 . S
C410 O402 1.258 . S
O411 Mn396 2.162 . S
O411 C399 1.281 . S
O412 Mn396 2.297 . S
O412 C399 1.236 . S
N413 Mn397 2.282 . S
N413 C414 1.328 . S
N413 C418 1.318 . S
C414 N413 1.328 . S
C414 C415 1.457 . S
C414 H419 0.929 . S
C415 C414 1.457 . S
C415 C416 1.291 1_655 S
C415 H428 0.931 . S
C416 C415 1.291 1_455 S
C416 C417 1.373 . S
C416 H429 0.929 . S
C417 C416 1.373 . S
C417 C418 1.396 1_455 S
C417 C424 1.403 . S
C418 C408 1.476 . S
C418 N413 1.318 . S
C418 C417 1.396 1_655 S
H419 C414 0.929 . S
O420 Mn396 2.385 . S
O420 C398 1.234 . S
O421 Mn396 2.209 . S
O421 Mn397 2.215 . S
O421 C398 1.283 . S
O422 Mn396 2.094 . S
O422 C400 1.240 . S
O423 Mn397 2.117 . S
O423 C400 1.264 . S
C424 C417 1.403 . S
C424 C425 1.399 . S
C424 H430 0.929 . S
C425 C405 1.449 1_455 S
C425 C424 1.399 . S
C425 H431 0.930 . S
H426 C406 0.931 1_455 S
H427 C407 0.930 . S
H428 C415 0.931 . S
H429 C416 0.929 . S
H430 C424 0.929 . S
H431 C425 0.930 . S
Mn432 O437 2.095 . S
Mn432 O447 2.162 . S
Mn432 O448 2.297 . S
Mn432 O456 2.385 . S
Mn432 O457 2.209 . S
Mn432 O458 2.094 . S
Mn433 O438 2.121 . S
Mn433 N440 2.257 . S
Mn433 N449 2.282 . S
Mn433 O457 2.215 . S
Mn433 O459 2.117 . S
C434 O456 1.234 . S
C434 O457 1.283 . S
C435 O447 1.281 . S
C435 O448 1.236 . S
C436 O458 1.240 . S
C436 O459 1.264 . S
O437 Mn432 2.095 . S
O437 C446 1.250 . S
O438 Mn433 2.121 . S
O438 C446 1.258 . S
C439 N440 1.326 . S
C439 C443 1.460 . S
C439 H445 0.929 . S
N440 Mn433 2.257 . S
N440 C439 1.326 . S
N440 C444 1.362 . S
C441 C442 1.258 . S
C441 C444 1.431 . S
C441 C461 1.449 . S
C442 C441 1.258 . S
C442 C443 1.477 . S
C442 H462 0.931 . S
C443 C439 1.460 . S
C443 C442 1.477 . S
C443 H463 0.930 . S
C444 N440 1.362 . S
C444 C441 1.431 . S
C444 C454 1.476 . S
H445 C439 0.929 . S
C446 O437 1.250 . S
C446 O438 1.258 . S
O447 Mn432 2.162 . S
O447 C435 1.281 . S
O448 Mn432 2.297 . S
O448 C435 1.236 . S
N449 Mn433 2.282 . S
N449 C450 1.328 . S
N449 C454 1.318 . S
C450 N449 1.328 . S
C450 C451 1.457 . S
C450 H455 0.929 . S
C451 C450 1.457 . S
C451 C452 1.291 . S
C451 H464 0.931 . S
C452 C451 1.291 . S
C452 C453 1.373 . S
C452 H465 0.929 . S
C453 C452 1.373 . S
C453 C454 1.396 . S
C453 C460 1.403 . S
C454 C444 1.476 . S
C454 N449 1.318 . S
C454 C453 1.396 . S
H455 C450 0.929 . S
O456 Mn432 2.385 . S
O456 C434 1.234 . S
O457 Mn432 2.209 . S
O457 Mn433 2.215 . S
O457 C434 1.283 . S
O458 Mn432 2.094 . S
O458 C436 1.240 . S
O459 Mn433 2.117 . S
O459 C436 1.264 . S
C460 C453 1.403 . S
C460 C461 1.399 . S
C460 H466 0.929 . S
C461 C441 1.449 . S
C461 C460 1.399 . S
C461 H467 0.930 . S
H462 C442 0.931 . S
H463 C443 0.930 . S
H464 C451 0.931 . S
H465 C452 0.929 . S
H466 C460 0.929 . S
H467 C461 0.930 . S
Mn468 O473 2.095 . S
Mn468 O483 2.162 . S
Mn468 O484 2.297 . S
Mn468 O492 2.385 . S
Mn468 O493 2.209 . S
Mn468 O494 2.094 . S
Mn469 O474 2.121 . S
Mn469 N476 2.257 . S
Mn469 N485 2.282 . S
Mn469 O493 2.215 . S
Mn469 O495 2.117 . S
C470 O492 1.234 . S
C470 O493 1.283 . S
C471 O483 1.281 . S
C471 O484 1.236 . S
C472 O494 1.240 . S
C472 O495 1.264 . S
O473 Mn468 2.095 . S
O473 C482 1.250 . S
O474 Mn469 2.121 . S
O474 C482 1.258 . S
C475 N476 1.326 . S
C475 C479 1.460 . S
C475 H481 0.929 . S
N476 Mn469 2.257 . S
N476 C475 1.326 . S
N476 C480 1.362 . S
C477 C478 1.258 . S
C477 C480 1.431 . S
C477 C497 1.449 1_565 S
C478 C477 1.258 . S
C478 C479 1.477 . S
C478 H498 0.931 1_565 S
C479 C475 1.460 . S
C479 C478 1.477 . S
C479 H499 0.930 . S
C480 N476 1.362 . S
C480 C477 1.431 . S
C480 C490 1.476 . S
H481 C475 0.929 . S
C482 O473 1.250 . S
C482 O474 1.258 . S
O483 Mn468 2.162 . S
O483 C471 1.281 . S
O484 Mn468 2.297 . S
O484 C471 1.236 . S
N485 Mn469 2.282 . S
N485 C486 1.328 . S
N485 C490 1.318 . S
C486 N485 1.328 . S
C486 C487 1.457 . S
C486 H491 0.929 . S
C487 C486 1.457 . S
C487 C488 1.291 1_565 S
C487 H500 0.931 . S
C488 C487 1.291 1_545 S
C488 C489 1.373 . S
C488 H501 0.929 . S
C489 C488 1.373 . S
C489 C490 1.396 1_545 S
C489 C496 1.403 . S
C490 C480 1.476 . S
C490 N485 1.318 . S
C490 C489 1.396 1_565 S
H491 C486 0.929 . S
O492 Mn468 2.385 . S
O492 C470 1.234 . S
O493 Mn468 2.209 . S
O493 Mn469 2.215 . S
O493 C470 1.283 . S
O494 Mn468 2.094 . S
O494 C472 1.240 . S
O495 Mn469 2.117 . S
O495 C472 1.264 . S
C496 C489 1.403 . S
C496 C497 1.399 . S
C496 H502 0.929 . S
C497 C477 1.449 1_545 S
C497 C496 1.399 . S
C497 H503 0.930 . S
H498 C478 0.931 1_545 S
H499 C479 0.930 . S
H500 C487 0.931 . S
H501 C488 0.929 . S
H502 C496 0.929 . S
H503 C497 0.930 . S
Mn504 O509 2.095 . S
Mn504 O519 2.162 . S
Mn504 O520 2.297 . S
Mn504 O528 2.385 . S
Mn504 O529 2.209 . S
Mn504 O530 2.094 . S
Mn505 O510 2.121 . S
Mn505 N512 2.257 . S
Mn505 N521 2.282 . S
Mn505 O529 2.215 . S
Mn505 O531 2.117 . S
C506 O528 1.234 . S
C506 O529 1.283 . S
C507 O519 1.281 . S
C507 O520 1.236 . S
C508 O530 1.240 . S
C508 O531 1.264 . S
O509 Mn504 2.095 . S
O509 C518 1.250 . S
O510 Mn505 2.121 . S
O510 C518 1.258 . S
C511 N512 1.326 . S
C511 C515 1.460 . S
C511 H517 0.929 . S
N512 Mn505 2.257 . S
N512 C511 1.326 . S
N512 C516 1.362 . S
C513 C514 1.258 . S
C513 C516 1.431 . S
C513 C533 1.449 1_455 S
C514 C513 1.258 . S
C514 C515 1.477 . S
C514 H534 0.931 1_455 S
C515 C511 1.460 . S
C515 C514 1.477 . S
C515 H535 0.930 . S
C516 N512 1.362 . S
C516 C513 1.431 . S
C516 C526 1.476 . S
H517 C511 0.929 . S
C518 O509 1.250 . S
C518 O510 1.258 . S
O519 Mn504 2.162 . S
O519 C507 1.281 . S
O520 Mn504 2.297 . S
O520 C507 1.236 . S
N521 Mn505 2.282 . S
N521 C522 1.328 . S
N521 C526 1.318 . S
C522 N521 1.328 . S
C522 C523 1.457 . S
C522 H527 0.929 . S
C523 C522 1.457 . S
C523 C524 1.291 1_455 S
C523 H536 0.931 . S
C524 C523 1.291 1_655 S
C524 C525 1.373 . S
C524 H537 0.929 . S
C525 C524 1.373 . S
C525 C526 1.396 1_655 S
C525 C532 1.403 . S
C526 C516 1.476 . S
C526 N521 1.318 . S
C526 C525 1.396 1_455 S
H527 C522 0.929 . S
O528 Mn504 2.385 . S
O528 C506 1.234 . S
O529 Mn504 2.209 . S
O529 Mn505 2.215 . S
O529 C506 1.283 . S
O530 Mn504 2.094 . S
O530 C508 1.240 . S
O531 Mn505 2.117 . S
O531 C508 1.264 . S
C532 C525 1.403 . S
C532 C533 1.399 . S
C532 H538 0.929 . S
C533 C513 1.449 1_655 S
C533 C532 1.399 . S
C533 H539 0.930 . S
H534 C514 0.931 1_655 S
H535 C515 0.930 . S
H536 C523 0.931 . S
H537 C524 0.929 . S
H538 C532 0.929 . S
H539 C533 0.930 . S
Mn540 O545 2.095 . S
Mn540 O555 2.162 . S
Mn540 O556 2.297 . S
Mn540 O564 2.385 . S
Mn540 O565 2.209 . S
Mn540 O566 2.094 . S
Mn541 O546 2.121 . S
Mn541 N548 2.257 . S
Mn541 N557 2.282 . S
Mn541 O565 2.215 . S
Mn541 O567 2.117 . S
C542 O564 1.234 . S
C542 O565 1.283 . S
C543 O555 1.281 . S
C543 O556 1.236 . S
C544 O566 1.240 . S
C544 O567 1.264 . S
O545 Mn540 2.095 . S
O545 C554 1.250 . S
O546 Mn541 2.121 . S
O546 C554 1.258 . S
C547 N548 1.326 . S
C547 C551 1.460 . S
C547 H553 0.929 . S
N548 Mn541 2.257 . S
N548 C547 1.326 . S
N548 C552 1.362 . S
C549 C550 1.258 . S
C549 C552 1.431 . S
C549 C569 1.449 . S
C550 C549 1.258 . S
C550 C551 1.477 . S
C550 H570 0.931 . S
C551 C547 1.460 . S
C551 C550 1.477 . S
C551 H571 0.930 . S
C552 N548 1.362 . S
C552 C549 1.431 . S
C552 C562 1.476 . S
H553 C547 0.929 . S
C554 O545 1.250 . S
C554 O546 1.258 . S
O555 Mn540 2.162 . S
O555 C543 1.281 . S
O556 Mn540 2.297 . S
O556 C543 1.236 . S
N557 Mn541 2.282 . S
N557 C558 1.328 . S
N557 C562 1.318 . S
C558 N557 1.328 . S
C558 C559 1.457 . S
C558 H563 0.929 . S
C559 C558 1.457 . S
C559 C560 1.291 . S
C559 H572 0.931 . S
C560 C559 1.291 . S
C560 C561 1.373 . S
C560 H573 0.929 . S
C561 C560 1.373 . S
C561 C562 1.396 . S
C561 C568 1.403 . S
C562 C552 1.476 . S
C562 N557 1.318 . S
C562 C561 1.396 . S
H563 C558 0.929 . S
O564 Mn540 2.385 . S
O564 C542 1.234 . S
O565 Mn540 2.209 . S
O565 Mn541 2.215 . S
O565 C542 1.283 . S
O566 Mn540 2.094 . S
O566 C544 1.240 . S
O567 Mn541 2.117 . S
O567 C544 1.264 . S
C568 C561 1.403 . S
C568 C569 1.399 . S
C568 H574 0.929 . S
C569 C549 1.449 . S
C569 C568 1.399 . S
C569 H575 0.930 . S
H570 C550 0.931 . S
H571 C551 0.930 . S
H572 C559 0.931 . S
H573 C560 0.929 . S
H574 C568 0.929 . S
H575 C569 0.930 . S
Mn576 O581 2.095 . S
Mn576 O591 2.162 . S
Mn576 O592 2.297 . S
Mn576 O600 2.385 . S
Mn576 O601 2.209 . S
Mn576 O602 2.094 . S
Mn577 O582 2.121 . S
Mn577 N584 2.257 . S
Mn577 N593 2.282 . S
Mn577 O601 2.215 . S
Mn577 O603 2.117 . S
C578 O600 1.234 . S
C578 O601 1.283 . S
C579 O591 1.281 . S
C579 O592 1.236 . S
C580 O602 1.240 . S
C580 O603 1.264 . S
O581 Mn576 2.095 . S
O581 C590 1.250 . S
O582 Mn577 2.121 . S
O582 C590 1.258 . S
C583 N584 1.326 . S
C583 C587 1.460 . S
C583 H589 0.929 . S
N584 Mn577 2.257 . S
N584 C583 1.326 . S
N584 C588 1.362 . S
C585 C586 1.258 . S
C585 C588 1.431 . S
C585 C605 1.449 . S
C586 C585 1.258 . S
C586 C587 1.477 . S
C586 H606 0.931 . S
C587 C583 1.460 . S
C587 C586 1.477 . S
C587 H607 0.930 . S
C588 N584 1.362 . S
C588 C585 1.431 . S
C588 C598 1.476 . S
H589 C583 0.929 . S
C590 O581 1.250 . S
C590 O582 1.258 . S
O591 Mn576 2.162 . S
O591 C579 1.281 . S
O592 Mn576 2.297 . S
O592 C579 1.236 . S
N593 Mn577 2.282 . S
N593 C594 1.328 . S
N593 C598 1.318 . S
C594 N593 1.328 . S
C594 C595 1.457 . S
C594 H599 0.929 . S
C595 C594 1.457 . S
C595 C596 1.291 . S
C595 H608 0.932 . S
C596 C595 1.291 . S
C596 C597 1.373 . S
C596 H609 0.929 . S
C597 C596 1.373 . S
C597 C598 1.396 . S
C597 C604 1.403 . S
C598 C588 1.476 . S
C598 N593 1.318 . S
C598 C597 1.396 . S
H599 C594 0.929 . S
O600 Mn576 2.385 . S
O600 C578 1.234 . S
O601 Mn576 2.209 . S
O601 Mn577 2.215 . S
O601 C578 1.283 . S
O602 Mn576 2.094 . S
O602 C580 1.240 . S
O603 Mn577 2.117 . S
O603 C580 1.264 . S
C604 C597 1.403 . S
C604 C605 1.399 . S
C604 H610 0.929 . S
C605 C585 1.449 . S
C605 C604 1.399 . S
C605 H611 0.930 . S
H606 C586 0.931 . S
H607 C587 0.930 . S
H608 C595 0.932 . S
H609 C596 0.929 . S
H610 C604 0.929 . S
H611 C605 0.930 . S
Mn612 O617 2.095 . S
Mn612 O627 2.162 . S
Mn612 O628 2.297 . S
Mn612 O636 2.385 . S
Mn612 O637 2.209 . S
Mn612 O638 2.094 . S
Mn613 O618 2.121 . S
Mn613 N620 2.257 . S
Mn613 N629 2.282 . S
Mn613 O637 2.215 . S
Mn613 O639 2.117 . S
C614 O636 1.234 . S
C614 O637 1.283 . S
C615 O627 1.281 . S
C615 O628 1.236 . S
C616 O638 1.240 . S
C616 O639 1.264 . S
O617 Mn612 2.095 . S
O617 C626 1.250 . S
O618 Mn613 2.121 . S
O618 C626 1.258 . S
C619 N620 1.326 . S
C619 C623 1.460 . S
C619 H625 0.929 . S
N620 Mn613 2.257 . S
N620 C619 1.326 . S
N620 C624 1.362 . S
C621 C622 1.258 . S
C621 C624 1.431 . S
C621 C641 1.449 . S
C622 C621 1.258 . S
C622 C623 1.477 . S
C622 H642 0.931 . S
C623 C619 1.460 . S
C623 C622 1.477 . S
C623 H643 0.930 . S
C624 N620 1.362 . S
C624 C621 1.431 . S
C624 C634 1.476 . S
H625 C619 0.929 . S
C626 O617 1.250 . S
C626 O618 1.258 . S
O627 Mn612 2.162 . S
O627 C615 1.281 . S
O628 Mn612 2.297 . S
O628 C615 1.236 . S
N629 Mn613 2.282 . S
N629 C630 1.328 . S
N629 C634 1.318 . S
C630 N629 1.328 . S
C630 C631 1.457 . S
C630 H635 0.929 . S
C631 C630 1.457 . S
C631 C632 1.291 . S
C631 H644 0.931 . S
C632 C631 1.291 . S
C632 C633 1.373 . S
C632 H645 0.929 . S
C633 C632 1.373 . S
C633 C634 1.396 . S
C633 C640 1.403 . S
C634 C624 1.476 . S
C634 N629 1.318 . S
C634 C633 1.396 . S
H635 C630 0.929 . S
O636 Mn612 2.385 . S
O636 C614 1.234 . S
O637 Mn612 2.209 . S
O637 Mn613 2.215 . S
O637 C614 1.283 . S
O638 Mn612 2.094 . S
O638 C616 1.240 . S
O639 Mn613 2.117 . S
O639 C616 1.264 . S
C640 C633 1.403 . S
C640 C641 1.399 . S
C640 H646 0.929 . S
C641 C621 1.449 . S
C641 C640 1.399 . S
C641 H647 0.930 . S
H642 C622 0.931 . S
H643 C623 0.930 . S
H644 C631 0.931 . S
H645 C632 0.929 . S
H646 C640 0.929 . S
H647 C641 0.930 . S
C364 C4 1.330 . S
C40 C400 1.307 . S
C328 C76 1.331 . S
C508 C112 1.330 . S
C148 C436 1.331 . S
C472 C184 1.307 . S
C220 C580 1.335 1_655 S
C616 C256 1.365 . S
C292 C544 1.335 1_545 S
C3 C38 1.580 1_455 S
C39 C74 1.545 . S
C2 C75 1.587 1_545 S
C182 C111 1.579 1_565 S
C110 C147 1.587 1_455 S
C183 C146 1.545 . S
C219 C254 1.617 . S
C255 C290 1.600 . S
C218 C291 1.598 . S
C398 C327 1.624 . S
C326 C363 1.583 . S
C362 C399 1.601 . S
C470 C435 1.624 . S
C506 C471 1.601 . S
C434 C507 1.583 . S
C543 C614 1.617 . S
C579 C542 1.598 . S
C615 C578 1.600 . S
C14 C122 1.555 1_554 S
C158 C50 1.550 1_546 S
C194 C86 1.550 1_656 S
C338 C230 1.564 . S
C374 C266 1.548 . S
C302 C410 1.566 . S
C554 C446 1.564 . S
C590 C482 1.566 . S
C626 C518 1.548 . S
