# Generated by pormake.
# Topology unp, (4)-cn, num edge types: 1
# Building blocks:
#     Node 0, Type 0, BuildingBlock: CEKHIL_clean_sbu_0, # of connection points: 4
#     Node 1, Type 0, BuildingBlock: CEKHIL_clean_sbu_0, # of connection points: 4
#     Node 2, Type 0, BuildingBlock: CEKHIL_clean_sbu_0, # of connection points: 4
#     Node 3, Type 0, BuildingBlock: CEKHIL_clean_sbu_0, # of connection points: 4
#     Node 4, Type 0, BuildingBlock: CEKHIL_clean_sbu_0, # of connection points: 4
#     Node 5, Type 0, BuildingBlock: CEKHIL_clean_sbu_0, # of connection points: 4
#     Node 6, Type 0, BuildingBlock: CEKHIL_clean_sbu_0, # of connection points: 4
#     Node 7, Type 0, BuildingBlock: CEKHIL_clean_sbu_0, # of connection points: 4
#     Node 8, Type 0, BuildingBlock: CEKHIL_clean_sbu_0, # of connection points: 4
#     Node 9, Type 0, BuildingBlock: CEKHIL_clean_sbu_0, # of connection points: 4
#     Node 10, Type 0, BuildingBlock: CEKHIL_clean_sbu_0, # of connection points: 4
#     Node 11, Type 0, BuildingBlock: CEKHIL_clean_sbu_0, # of connection points: 4
#     Node 12, Type 0, BuildingBlock: CEKHIL_clean_sbu_0, # of connection points: 4
#     Node 13, Type 0, BuildingBlock: CEKHIL_clean_sbu_0, # of connection points: 4
#     Node 14, Type 0, BuildingBlock: CEKHIL_clean_sbu_0, # of connection points: 4
#     Node 15, Type 0, BuildingBlock: CEKHIL_clean_sbu_0, # of connection points: 4
#     Node 16, Type 0, BuildingBlock: CEKHIL_clean_sbu_0, # of connection points: 4
#     Node 17, Type 0, BuildingBlock: CEKHIL_clean_sbu_0, # of connection points: 4
#     Edge 18, Type (0, 0), BuildingBlock: ZUJKAS_clean_linker_0, # of connection points: 2
#     Edge 19, Type (0, 0), BuildingBlock: ZUJKAS_clean_linker_0, # of connection points: 2
#     Edge 20, Type (0, 0), BuildingBlock: ZUJKAS_clean_linker_0, # of connection points: 2
#     Edge 21, Type (0, 0), BuildingBlock: ZUJKAS_clean_linker_0, # of connection points: 2
#     Edge 22, Type (0, 0), BuildingBlock: ZUJKAS_clean_linker_0, # of connection points: 2
#     Edge 23, Type (0, 0), BuildingBlock: ZUJKAS_clean_linker_0, # of connection points: 2
#     Edge 24, Type (0, 0), BuildingBlock: ZUJKAS_clean_linker_0, # of connection points: 2
#     Edge 25, Type (0, 0), BuildingBlock: ZUJKAS_clean_linker_0, # of connection points: 2
#     Edge 26, Type (0, 0), BuildingBlock: ZUJKAS_clean_linker_0, # of connection points: 2
#     Edge 27, Type (0, 0), BuildingBlock: ZUJKAS_clean_linker_0, # of connection points: 2
#     Edge 28, Type (0, 0), BuildingBlock: ZUJKAS_clean_linker_0, # of connection points: 2
#     Edge 29, Type (0, 0), BuildingBlock: ZUJKAS_clean_linker_0, # of connection points: 2
#     Edge 30, Type (0, 0), BuildingBlock: ZUJKAS_clean_linker_0, # of connection points: 2
#     Edge 31, Type (0, 0), BuildingBlock: ZUJKAS_clean_linker_0, # of connection points: 2
#     Edge 32, Type (0, 0), BuildingBlock: ZUJKAS_clean_linker_0, # of connection points: 2
#     Edge 33, Type (0, 0), BuildingBlock: ZUJKAS_clean_linker_0, # of connection points: 2
#     Edge 34, Type (0, 0), BuildingBlock: ZUJKAS_clean_linker_0, # of connection points: 2
#     Edge 35, Type (0, 0), BuildingBlock: ZUJKAS_clean_linker_0, # of connection points: 2
#     Edge 36, Type (0, 0), BuildingBlock: ZUJKAS_clean_linker_0, # of connection points: 2
#     Edge 37, Type (0, 0), BuildingBlock: ZUJKAS_clean_linker_0, # of connection points: 2
#     Edge 38, Type (0, 0), BuildingBlock: ZUJKAS_clean_linker_0, # of connection points: 2
#     Edge 39, Type (0, 0), BuildingBlock: ZUJKAS_clean_linker_0, # of connection points: 2
#     Edge 40, Type (0, 0), BuildingBlock: ZUJKAS_clean_linker_0, # of connection points: 2
#     Edge 41, Type (0, 0), BuildingBlock: ZUJKAS_clean_linker_0, # of connection points: 2
#     Edge 42, Type (0, 0), BuildingBlock: ZUJKAS_clean_linker_0, # of connection points: 2
#     Edge 43, Type (0, 0), BuildingBlock: ZUJKAS_clean_linker_0, # of connection points: 2
#     Edge 44, Type (0, 0), BuildingBlock: ZUJKAS_clean_linker_0, # of connection points: 2
#     Edge 45, Type (0, 0), BuildingBlock: ZUJKAS_clean_linker_0, # of connection points: 2
#     Edge 46, Type (0, 0), BuildingBlock: ZUJKAS_clean_linker_0, # of connection points: 2
#     Edge 47, Type (0, 0), BuildingBlock: ZUJKAS_clean_linker_0, # of connection points: 2
#     Edge 48, Type (0, 0), BuildingBlock: ZUJKAS_clean_linker_0, # of connection points: 2
#     Edge 49, Type (0, 0), BuildingBlock: ZUJKAS_clean_linker_0, # of connection points: 2
#     Edge 50, Type (0, 0), BuildingBlock: ZUJKAS_clean_linker_0, # of connection points: 2
#     Edge 51, Type (0, 0), BuildingBlock: ZUJKAS_clean_linker_0, # of connection points: 2
#     Edge 52, Type (0, 0), BuildingBlock: ZUJKAS_clean_linker_0, # of connection points: 2
#     Edge 53, Type (0, 0), BuildingBlock: ZUJKAS_clean_linker_0, # of connection points: 2
# Relax obj value: 0.425
# Max RMSD: 0.185
# Mean RMSD: 0.185
data_MOF--net-unp--node1-CEKHIL_clean_sbu_0--edge1-ZUJKAS_clean_linker_0
_symmetry_space_group_name_H-M    P1
_symmetry_Int_Tables_number       1
_symmetry_cell_setting            triclinic
loop_
_symmetry_equiv_pos_as_xyz
'x, y, z'
_cell_length_a     62.588745
_cell_length_b     62.582294
_cell_length_c     69.976091
_cell_angle_alpha  90.011915
_cell_angle_beta   89.998835
_cell_angle_gamma 120.0017
loop_
_atom_site_label
_atom_site_type_symbol
_atom_site_fract_x
_atom_site_fract_y
_atom_site_fract_z
_atom_type_partial_charge
Co0 Co 0.18643 0.14636 0.13684 0.0
O1 O 0.22169 0.16459 0.13823 0.0
O2 O 0.19737 0.18047 0.14282 0.0
C3 C 0.18056 0.11357 0.15417 0.0
O4 O 0.14941 0.13315 0.13747 0.0
Co5 Co 0.15926 0.09522 0.11685 0.0
O6 O 0.12955 0.09318 0.12882 0.0
C7 C 0.1851 0.14041 0.09359 0.0
C8 C 0.21959 0.18379 0.14192 0.0
C9 C 0.12958 0.11212 0.13559 0.0
O10 O 0.18828 0.15369 0.10854 0.0
O11 O 0.17578 0.11697 0.09427 0.0
O12 O 0.18387 0.13343 0.16275 0.0
O13 O 0.18348 0.11521 0.13589 0.0
Co14 Co 0.84573 0.02143 0.1302 0.0
O15 O 0.83157 0.04231 0.12816 0.0
O16 O 0.81368 0.00561 0.14221 0.0
C17 C 0.88364 0.05079 0.13952 0.0
O18 O 0.85513 0.99519 0.13597 0.0
Co19 Co 0.88973 0.02958 0.10452 0.0
O20 O 0.89256 0.00757 0.12339 0.0
C21 C 0.83977 0.00782 0.08806 0.0
C22 C 0.81268 0.02512 0.13724 0.0
C23 C 0.87466 0.99339 0.13423 0.0
O24 O 0.83045 0.00612 0.10476 0.0
O25 O 0.86295 0.01778 0.08491 0.0
O26 O 0.86592 0.04049 0.15199 0.0
O27 O 0.87722 0.04478 0.12194 0.0
Co28 Co 0.96536 0.81648 0.13792 0.0
O29 O 0.94717 0.78119 0.13621 0.0
O30 O 0.98608 0.80327 0.14574 0.0
C31 C 0.93552 0.82076 0.15241 0.0
O32 O 0.98989 0.85294 0.14236 0.0
Co33 Co 0.94762 0.84905 0.11762 0.0
O34 O 0.972 0.87522 0.13469 0.0
C35 C 0.96948 0.82472 0.09504 0.0
C36 C 0.96707 0.78171 0.1422 0.0
C37 C 0.98942 0.87328 0.14237 0.0
O38 O 0.9761 0.81831 0.11044 0.0
O39 O 0.95657 0.83541 0.09507 0.0
O40 O 0.94976 0.81553 0.16252 0.0
O41 O 0.93851 0.82109 0.13418 0.0
Co42 Co 0.1496 0.18094 0.86313 0.0
O43 O 0.16733 0.2162 0.86447 0.0
O44 O 0.18367 0.1933 0.856 0.0
C45 C 0.11623 0.17713 0.84772 0.0
O46 O 0.13673 0.14419 0.85925 0.0
Co47 Co 0.09878 0.15031 0.88322 0.0
O48 O 0.09633 0.12355 0.8665 0.0
C49 C 0.1445 0.17383 0.90621 0.0
C50 C 0.18662 0.21512 0.85908 0.0
C51 C 0.1154 0.12444 0.85915 0.0
O52 O 0.15764 0.17931 0.89089 0.0
O53 O 0.12098 0.16396 0.90599 0.0
O54 O 0.13588 0.18183 0.83809 0.0
O55 O 0.11841 0.17729 0.86604 0.0
Co56 Co 0.82021 0.9791 0.86045 0.0
O57 O 0.78504 0.95898 0.86131 0.0
O58 O 0.80529 0.99681 0.84931 0.0
C59 C 0.82813 0.94975 0.84988 0.0
O60 O 0.85643 0.00489 0.85623 0.0
Co61 Co 0.85333 0.96691 0.88619 0.0
O62 O 0.87984 0.99069 0.86921 0.0
C63 C 0.82617 0.98937 0.90323 0.0
C64 C 0.78427 0.97734 0.85339 0.0
C65 C 0.87738 0.00606 0.85884 0.0
O66 O 0.81948 0.99256 0.88658 0.0
O67 O 0.83845 0.97837 0.9061 0.0
O68 O 0.82188 0.96148 0.8378 0.0
O69 O 0.82686 0.9544 0.86766 0.0
Co70 Co 0.02955 0.84885 0.86282 0.0
O71 O 0.04545 0.82948 0.8629 0.0
O72 O 0.00584 0.81519 0.85614 0.0
C73 C 0.05869 0.88133 0.84645 0.0
O74 O 0.00693 0.86336 0.86046 0.0
Co75 Co 0.05339 0.89992 0.8829 0.0
O76 O 0.02734 0.90323 0.86935 0.0
C77 C 0.03167 0.85441 0.90599 0.0
C78 C 0.02404 0.81101 0.85832 0.0
C79 C 0.0087 0.8847 0.86189 0.0
O80 O 0.02184 0.84133 0.8909 0.0
O81 O 0.04642 0.87775 0.90547 0.0
O82 O 0.04233 0.86189 0.83731 0.0
O83 O 0.05832 0.8794 0.8648 0.0
Co84 Co 0.84767 0.47777 0.47058 0.0
O85 O 0.88298 0.49481 0.47012 0.0
O86 O 0.86039 0.51175 0.47796 0.0
C87 C 0.842 0.44364 0.48582 0.0
O88 O 0.81102 0.46581 0.4736 0.0
Co89 Co 0.81697 0.42783 0.44933 0.0
O90 O 0.78894 0.42644 0.46366 0.0
C91 C 0.84414 0.474 0.42739 0.0
C92 C 0.88211 0.5143 0.47526 0.0
C93 C 0.79051 0.44535 0.47188 0.0
O94 O 0.8477 0.48661 0.44279 0.0
O95 O 0.83417 0.45046 0.42733 0.0
O96 O 0.84696 0.46328 0.49561 0.0
O97 O 0.84314 0.44626 0.46752 0.0
Co98 Co 0.51844 0.37096 0.46639 0.0
O99 O 0.50185 0.38964 0.4677 0.0
O100 O 0.48469 0.34979 0.47445 0.0
C101 C 0.55352 0.39834 0.48127 0.0
O102 O 0.53003 0.34581 0.46752 0.0
Co103 Co 0.56731 0.39069 0.44344 0.0
O104 O 0.56879 0.36313 0.45616 0.0
C105 C 0.52017 0.3724 0.42303 0.0
C106 C 0.48238 0.36924 0.47282 0.0
C107 C 0.55021 0.34556 0.46453 0.0
O108 O 0.50827 0.36316 0.43868 0.0
O109 O 0.54369 0.38588 0.42236 0.0
O110 O 0.53416 0.38361 0.49131 0.0
O111 O 0.55002 0.39777 0.46309 0.0
Co112 Co 0.6386 0.15274 0.46623 0.0
O113 O 0.61919 0.11746 0.46474 0.0
O114 O 0.65656 0.13829 0.47752 0.0
C115 C 0.60843 0.15964 0.47638 0.0
O116 O 0.66374 0.18887 0.47137 0.0
Co117 Co 0.62713 0.18676 0.44111 0.0
O118 O 0.64934 0.21254 0.45934 0.0
C119 C 0.65063 0.16067 0.4238 0.0
C120 C 0.6376 0.11711 0.47303 0.0
C121 C 0.66449 0.20974 0.46972 0.0
O122 O 0.65314 0.15319 0.44034 0.0
O123 O 0.63969 0.17306 0.42106 0.0
O124 O 0.61996 0.15328 0.48857 0.0
O125 O 0.61381 0.15914 0.45866 0.0
Co126 Co 0.81485 0.5156 0.1989 0.0
O127 O 0.83186 0.55093 0.19978 0.0
O128 O 0.84852 0.52859 0.19052 0.0
C129 C 0.78007 0.51015 0.18482 0.0
O130 O 0.80292 0.47904 0.19517 0.0
Co131 Co 0.7654 0.48396 0.22061 0.0
O132 O 0.76336 0.45688 0.20455 0.0
C133 C 0.81229 0.5099 0.24203 0.0
C134 C 0.85111 0.55025 0.19366 0.0
C135 C 0.78226 0.45861 0.1962 0.0
O136 O 0.82469 0.51492 0.22635 0.0
O137 O 0.78873 0.49955 0.24247 0.0
O138 O 0.79932 0.51535 0.17443 0.0
O139 O 0.78344 0.5109 0.20301 0.0
Co140 Co 0.48206 0.30034 0.19608 0.0
O141 O 0.44673 0.28213 0.19649 0.0
O142 O 0.46936 0.32151 0.18829 0.0
C143 C 0.48768 0.27159 0.18119 0.0
O144 O 0.51877 0.32495 0.19306 0.0
Co145 Co 0.51246 0.28111 0.21785 0.0
O146 O 0.54073 0.30792 0.2039 0.0
C147 C 0.48597 0.30125 0.23934 0.0
C148 C 0.44762 0.30238 0.19101 0.0
C149 C 0.53929 0.32514 0.19535 0.0
O150 O 0.48205 0.30967 0.22375 0.0
O151 O 0.49588 0.28763 0.23971 0.0
O152 O 0.48273 0.28613 0.17122 0.0
O153 O 0.48651 0.27333 0.19947 0.0
Co154 Co 0.68844 0.18098 0.19602 0.0
O155 O 0.70767 0.16523 0.19953 0.0
O156 O 0.67139 0.14844 0.18476 0.0
C157 C 0.71939 0.21781 0.18622 0.0
O158 O 0.66372 0.192 0.18914 0.0
Co159 Co 0.69877 0.22673 0.22042 0.0
O160 O 0.67731 0.22993 0.20124 0.0
C161 C 0.67469 0.17728 0.23799 0.0
C162 C 0.68995 0.14641 0.1908 0.0
C163 C 0.66272 0.21202 0.19056 0.0
O164 O 0.67224 0.16722 0.22149 0.0
O165 O 0.68596 0.20064 0.24066 0.0
O166 O 0.70856 0.19973 0.17409 0.0
O167 O 0.71285 0.21225 0.20382 0.0
Co168 Co 0.51728 0.81205 0.80508 0.0
O169 O 0.55214 0.82932 0.80942 0.0
O170 O 0.5277 0.84507 0.81404 0.0
C171 C 0.5084 0.77625 0.81929 0.0
O172 O 0.48046 0.79935 0.80313 0.0
Co173 Co 0.49312 0.76499 0.77963 0.0
O174 O 0.46198 0.7613 0.79027 0.0
C175 C 0.52231 0.81369 0.76177 0.0
C176 C 0.54979 0.84801 0.81448 0.0
C177 C 0.46102 0.77892 0.79865 0.0
O178 O 0.52271 0.82408 0.77775 0.0
O179 O 0.5136 0.79043 0.76004 0.0
O180 O 0.51129 0.79482 0.82961 0.0
O181 O 0.51397 0.78107 0.80147 0.0
Co182 Co 0.17394 0.68641 0.7957 0.0
O183 O 0.15975 0.70739 0.79529 0.0
O184 O 0.14279 0.67052 0.809 0.0
C185 C 0.21254 0.71547 0.80377 0.0
O186 O 0.18346 0.66002 0.80004 0.0
Co187 Co 0.216 0.69447 0.76778 0.0
O188 O 0.21951 0.67156 0.78524 0.0
C189 C 0.16492 0.67255 0.75362 0.0
C190 C 0.14149 0.69009 0.80485 0.0
C191 C 0.20241 0.65764 0.79678 0.0
O192 O 0.15682 0.67126 0.77072 0.0
O193 O 0.18781 0.68231 0.74943 0.0
O194 O 0.19566 0.70519 0.81689 0.0
O195 O 0.20492 0.70972 0.78639 0.0
Co196 Co 0.29459 0.47814 0.80616 0.0
O197 O 0.27755 0.44286 0.80654 0.0
O198 O 0.31672 0.46695 0.81477 0.0
C199 C 0.26496 0.48298 0.82027 0.0
O200 O 0.31793 0.51517 0.80848 0.0
Co201 Co 0.27364 0.50592 0.78288 0.0
O202 O 0.29955 0.53534 0.79654 0.0
C203 C 0.29529 0.47991 0.76287 0.0
C204 C 0.2981 0.44477 0.81244 0.0
C205 C 0.31711 0.53507 0.80558 0.0
O206 O 0.30449 0.47777 0.77872 0.0
O207 O 0.28046 0.48838 0.76187 0.0
O208 O 0.2799 0.47909 0.8307 0.0
O209 O 0.26684 0.4811 0.80209 0.0
Co210 Co 0.47934 0.85321 0.53278 0.0
O211 O 0.49746 0.8885 0.53252 0.0
O212 O 0.51279 0.86456 0.52443 0.0
C213 C 0.44498 0.84815 0.51831 0.0
O214 O 0.46574 0.81622 0.53054 0.0
Co215 Co 0.43057 0.82581 0.55608 0.0
O216 O 0.42765 0.79604 0.5434 0.0
C217 C 0.47808 0.85282 0.57589 0.0
C218 C 0.51623 0.88669 0.52681 0.0
C219 C 0.44531 0.79628 0.5341 0.0
O220 O 0.4893 0.85354 0.5603 0.0
O221 O 0.45493 0.84512 0.57673 0.0
O222 O 0.46404 0.85226 0.5081 0.0
O223 O 0.44851 0.85013 0.53653 0.0
Co224 Co 0.15141 0.64087 0.52937 0.0
O225 O 0.11619 0.62064 0.52956 0.0
O226 O 0.13689 0.65845 0.51753 0.0
C227 C 0.15994 0.61168 0.51952 0.0
O228 O 0.18759 0.66687 0.52571 0.0
Co229 Co 0.18438 0.62963 0.55597 0.0
O230 O 0.21114 0.65306 0.53894 0.0
C231 C 0.15609 0.65149 0.57206 0.0
C232 C 0.11574 0.63902 0.52133 0.0
C233 C 0.20861 0.66826 0.52841 0.0
O234 O 0.14975 0.6544 0.5552 0.0
O235 O 0.16864 0.64085 0.57539 0.0
O236 O 0.15396 0.62327 0.5071 0.0
O237 O 0.15813 0.61638 0.5372 0.0
Co238 Co 0.36702 0.51744 0.53284 0.0
O239 O 0.38559 0.50081 0.53092 0.0
O240 O 0.34602 0.48431 0.52335 0.0
C241 C 0.39484 0.55348 0.51947 0.0
O242 O 0.34226 0.52945 0.53214 0.0
Co243 Co 0.38642 0.5645 0.55807 0.0
O244 O 0.35981 0.56749 0.54499 0.0
C245 C 0.36855 0.51608 0.57587 0.0
C246 C 0.36536 0.48179 0.52495 0.0
C247 C 0.34245 0.54974 0.53572 0.0
O248 O 0.3581 0.50547 0.56007 0.0
O249 O 0.38299 0.53937 0.57745 0.0
O250 O 0.38055 0.53484 0.50862 0.0
O251 O 0.39378 0.54863 0.53745 0.0
H252 H 0.4422 0.33954 0.17503 0.0
H253 H 0.40321 0.33865 0.16819 0.0
H254 H 0.36288 0.26614 0.19339 0.0
H255 H 0.40124 0.26702 0.20036 0.0
H256 H 0.36818 0.30672 0.14464 0.0
H257 H 0.32467 0.29657 0.21449 0.0
H258 H 0.35751 0.30861 0.21206 0.0
H259 H 0.3365 0.27579 0.21385 0.0
C260 C 0.42497 0.32365 0.1794 0.0
C261 C 0.42472 0.30327 0.18811 0.0
C262 C 0.40277 0.32323 0.17557 0.0
C263 C 0.38014 0.30259 0.18069 0.0
C264 C 0.38008 0.28263 0.18988 0.0
H265 H 0.26664 0.19674 0.1333 0.0
H266 H 0.30393 0.23528 0.14037 0.0
C267 C 0.40208 0.28299 0.1936 0.0
C268 C 0.35631 0.29958 0.17405 0.0
H269 H 0.29635 0.26939 0.18852 0.0
C270 C 0.35253 0.29951 0.15428 0.0
C271 C 0.33588 0.29108 0.18653 0.0
C272 C 0.33898 0.29334 0.20793 0.0
C273 C 0.32861 0.28742 0.14666 0.0
C274 C 0.30829 0.27473 0.15912 0.0
C275 C 0.31197 0.27844 0.17889 0.0
C276 C 0.28504 0.25321 0.15243 0.0
C277 C 0.32545 0.28645 0.12526 0.0
C278 C 0.26187 0.25021 0.15712 0.0
C279 C 0.24029 0.22787 0.15315 0.0
C280 C 0.24174 0.20817 0.14482 0.0
C281 C 0.26491 0.21152 0.13979 0.0
C282 C 0.28628 0.23374 0.14358 0.0
H283 H 0.33938 0.30416 0.11867 0.0
H284 H 0.32846 0.2717 0.11934 0.0
H285 H 0.30671 0.28259 0.12116 0.0
H286 H 0.26054 0.26487 0.16425 0.0
H287 H 0.22262 0.22574 0.15719 0.0
H288 H 0.80174 0.05843 0.12222 0.0
H289 H 0.77057 0.06806 0.13336 0.0
H290 H 0.74494 0.00922 0.17466 0.0
H291 H 0.7761 -0.00084 0.16341 0.0
H292 H 0.70656 0.02079 0.15204 0.0
H293 H 0.78483 0.09646 0.19167 0.0
H294 H 0.79086 0.09305 0.16706 0.0
H295 H 0.785 0.06904 0.18386 0.0
C296 C 0.78921 0.04722 0.13344 0.0
C297 C 0.79158 0.02832 0.14219 0.0
C298 C 0.77131 0.05263 0.13967 0.0
C299 C 0.75564 0.03938 0.15482 0.0
C300 C 0.75686 0.01949 0.16285 0.0
H301 H 0.7048 0.12465 0.21668 0.0
H302 H 0.71388 0.0915 0.21093 0.0
C303 C 0.7747 0.01389 0.15648 0.0
C304 C 0.74093 0.049 0.1639 0.0
H305 H 0.74875 0.09929 0.18842 0.0
C306 C 0.71553 0.03771 0.16031 0.0
C307 C 0.75272 0.07076 0.17492 0.0
C308 C 0.77983 0.083 0.17979 0.0
C309 C 0.70179 0.04851 0.16675 0.0
C310 C 0.71405 0.07135 0.17657 0.0
C311 C 0.73923 0.0818 0.18091 0.0
C312 C 0.70216 0.08609 0.18133 0.0
C313 C 0.67445 0.03545 0.16284 0.0
C314 C 0.69141 0.09328 0.16689 0.0
C315 C 0.68559 0.1118 0.17036 0.0
C316 C 0.69121 0.12384 0.18809 0.0
C317 C 0.70058 0.11572 0.20282 0.0
C318 C 0.70568 0.09675 0.19955 0.0
H319 H 0.66664 0.01515 0.16218 0.0
H320 H 0.66441 0.03965 0.17395 0.0
H321 H 0.6712 0.04148 0.14876 0.0
H322 H 0.68909 0.08586 0.15258 0.0
H323 H 0.67847 0.11796 0.15879 0.0
H324 H 0.89319 0.55588 0.17661 0.0
H325 H 0.93076 0.59494 0.16895 0.0
H326 H 0.89906 0.63512 0.19519 0.0
H327 H 0.86207 0.59665 0.20301 0.0
H328 H 0.93291 0.62962 0.14556 0.0
H329 H 0.96831 0.67358 0.21503 0.0
H330 H 0.94728 0.64078 0.21282 0.0
H331 H 0.93573 0.66197 0.21483 0.0
C332 C 0.89452 0.57309 0.18104 0.0
C333 C 0.87466 0.57325 0.19031 0.0
C334 C 0.91599 0.59534 0.17672 0.0
C335 C 0.91798 0.61795 0.18188 0.0
C336 C 0.89836 0.61795 0.19161 0.0
H337 H 0.93145 0.73552 0.13252 0.0
H338 H 0.92976 0.69684 0.13987 0.0
C339 C 0.87701 0.59588 0.19584 0.0
C340 C 0.9385 0.64176 0.17493 0.0
H341 H 0.96983 0.70183 0.1891 0.0
C342 C 0.94179 0.64535 0.15511 0.0
C343 C 0.95099 0.66226 0.18728 0.0
C344 C 0.95059 0.65932 0.20868 0.0
C345 C 0.95405 0.66919 0.14736 0.0
C346 C 0.96254 0.68972 0.15974 0.0
C347 C 0.96263 0.6861 0.17953 0.0
C348 C 0.96597 0.71366 0.15294 0.0
C349 C 0.95615 0.6721 0.12594 0.0
C350 C 0.98675 0.73615 0.15812 0.0
C351 C 0.98764 0.75852 0.1541 0.0
C352 C 0.96759 0.75861 0.14509 0.0
C353 C 0.94719 0.7361 0.13949 0.0
C354 C 0.94635 0.71392 0.14345 0.0
H355 H 0.9594 0.65777 0.11943 0.0
H356 H 0.93854 0.6695 0.12005 0.0
H357 H 0.97136 0.6906 0.12169 0.0
H358 H 0.00194 0.73636 0.16572 0.0
H359 H 0.0036 0.77562 0.15858 0.0
H360 H 0.26196 0.39737 0.80767 0.0
H361 H 0.26301 0.36014 0.81537 0.0
H362 H 0.33898 0.40373 0.8331 0.0
H363 H 0.33795 0.44165 0.82565 0.0
H364 H 0.29362 0.34169 0.80239 0.0
H365 H 0.30382 0.36183 0.88059 0.0
H366 H 0.296 0.37953 0.86464 0.0
H367 H 0.32636 0.38331 0.86404 0.0
C368 C 0.27899 0.39919 0.81312 0.0
C369 C 0.29979 0.42247 0.81626 0.0
C370 C 0.27962 0.37783 0.81739 0.0
C371 C 0.30104 0.37915 0.82486 0.0
C372 C 0.32221 0.40233 0.8275 0.0
H373 H 0.23057 0.22014 0.8463 0.0
H374 H 0.26901 0.259 0.83979 0.0
C375 C 0.32158 0.42392 0.82323 0.0
C376 C 0.29957 0.35586 0.83108 0.0
H377 H 0.2834 0.32043 0.87124 0.0
C378 C 0.29229 0.33702 0.81744 0.0
C379 C 0.29834 0.35002 0.8507 0.0
C380 C 0.30651 0.36962 0.86594 0.0
C381 C 0.28011 0.31213 0.82292 0.0
C382 C 0.27567 0.30618 0.84255 0.0
C383 C 0.28658 0.32513 0.85619 0.0
C384 C 0.25449 0.28237 0.84876 0.0
C385 C 0.26939 0.29251 0.80763 0.0
C386 C 0.23398 0.28267 0.85651 0.0
C387 C 0.21229 0.26077 0.86028 0.0
C388 C 0.21053 0.23795 0.85634 0.0
C389 C 0.23137 0.2375 0.84931 0.0
C390 C 0.25329 0.25963 0.84556 0.0
H391 H 0.27395 0.30042 0.793 0.0
H392 H 0.27669 0.2797 0.80932 0.0
H393 H 0.24901 0.2816 0.80906 0.0
H394 H 0.23441 0.29998 0.85898 0.0
H395 H 0.19668 0.26181 0.86583 0.0
H396 H 0.73896 0.93933 0.86202 0.0
H397 H 0.69916 0.9357 0.8557 0.0
H398 H 0.73502 0.00849 0.83078 0.0
H399 H 0.7755 0.01224 0.83693 0.0
H400 H 0.67897 0.96621 0.86726 0.0
H401 H 0.68852 0.96247 0.78818 0.0
H402 H 0.70924 0.95876 0.80395 0.0
H403 H 0.71136 0.98832 0.80173 0.0
C404 C 0.73853 0.95467 0.85524 0.0
C405 C 0.76038 0.97597 0.84979 0.0
C406 C 0.71573 0.95264 0.85178 0.0
C407 C 0.71414 0.97182 0.84279 0.0
C408 C 0.73588 0.99344 0.83765 0.0
H409 H 0.55435 0.89404 0.81674 0.0
H410 H 0.59244 0.9334 0.82339 0.0
C411 C 0.75893 0.99552 0.84114 0.0
C412 C 0.68933 0.96744 0.83775 0.0
H413 H 0.64861 0.94157 0.801 0.0
C414 C 0.67231 0.96186 0.85267 0.0
C415 C 0.68076 0.96203 0.81869 0.0
C416 C 0.6983 0.96815 0.80212 0.0
C417 C 0.64686 0.94785 0.84927 0.0
C418 C 0.63849 0.93942 0.83058 0.0
C419 C 0.65528 0.94807 0.81534 0.0
C420 C 0.61489 0.91645 0.82754 0.0
C421 C 0.62925 0.93948 0.86592 0.0
C422 C 0.61512 0.89419 0.82793 0.0
C423 C 0.59376 0.87201 0.82408 0.0
C424 C 0.57164 0.8716 0.81987 0.0
C425 C 0.57119 0.89388 0.82001 0.0
C426 C 0.59283 0.91629 0.82373 0.0
H427 H 0.63769 0.95127 0.87871 0.0
H428 H 0.61217 0.93974 0.86206 0.0
H429 H 0.62396 0.92021 0.86965 0.0
H430 H 0.63204 0.89406 0.83093 0.0
H431 H 0.59467 0.85517 0.82422 0.0
H432 H 0.13174 0.72605 0.79417 0.0
H433 H 0.09962 0.73351 0.80657 0.0
H434 H 0.07182 0.66856 0.84186 0.0
H435 H 0.10401 0.66073 0.82939 0.0
H436 H 0.03566 0.68496 0.81714 0.0
H437 H 0.10519 0.74869 0.8696 0.0
H438 H 0.11599 0.74946 0.84562 0.0
H439 H 0.10577 0.72223 0.85989 0.0
C440 C 0.11863 0.71313 0.80437 0.0
C441 C 0.12055 0.69298 0.811 0.0
C442 C 0.10021 0.71734 0.81132 0.0
C443 C 0.08347 0.70154 0.82504 0.0
C444 C 0.08456 0.68078 0.83114 0.0
H445 H 0.02647 0.78209 0.88576 0.0
H446 H 0.03187 0.74634 0.8808 0.0
C447 C 0.10299 0.67646 0.82409 0.0
C448 C 0.06709 0.70887 0.83446 0.0
H449 H 0.07071 0.75369 0.86394 0.0
C450 C 0.04295 0.69957 0.82773 0.0
C451 C 0.07661 0.72755 0.84848 0.0
C452 C 0.10226 0.73754 0.85649 0.0
C453 C 0.02859 0.70982 0.83381 0.0
C454 C 0.03905 0.73021 0.84648 0.0
C455 C 0.06256 0.7381 0.85421 0.0
C456 C 0.02795 0.74597 0.85001 0.0
C457 C 0.00267 0.69908 0.82625 0.0
C458 C 0.02262 0.75683 0.83449 0.0
C459 C 0.01892 0.77684 0.83742 0.0
C460 C 0.02104 0.78648 0.85581 0.0
C461 C 0.02465 0.7747 0.87146 0.0
C462 C 0.02773 0.75434 0.86861 0.0
H463 H 0.99416 0.67887 0.82399 0.0
H464 H 0.99081 0.70253 0.83611 0.0
H465 H 0.00321 0.70753 0.81219 0.0
H466 H 0.02339 0.7513 0.81997 0.0
H467 H 0.01651 0.78602 0.82518 0.0
H468 H 0.88755 0.55752 0.48991 0.0
H469 H 0.92649 0.59626 0.49529 0.0
H470 H 0.96673 0.56321 0.47141 0.0
H471 H 0.9284 0.52505 0.4659 0.0
H472 H 0.96297 0.60147 0.51857 0.0
H473 H 0.0025 0.6303 0.44695 0.0
H474 H 0.96993 0.6093 0.45064 0.0
H475 H 0.99128 0.59789 0.44909 0.0
C476 C 0.90474 0.55876 0.48555 0.0
C477 C 0.90498 0.53824 0.47759 0.0
C478 C 0.9269 0.58089 0.48854 0.0
C479 C 0.94947 0.58284 0.48331 0.0
C480 C 0.94953 0.56248 0.47498 0.0
H481 H 0.06996 0.60227 0.53073 0.0
H482 H 0.03064 0.59892 0.5229 0.0
C483 C 0.92757 0.54048 0.47209 0.0
C484 C 0.97336 0.60438 0.48888 0.0
H485 H 0.03249 0.6348 0.47249 0.0
C486 C 0.97809 0.6096 0.50842 0.0
C487 C 0.99305 0.61582 0.47569 0.0
C488 C 0.98879 0.61322 0.45441 0.0
C489 C 0.00236 0.62273 0.51527 0.0
C490 C 0.02212 0.63017 0.50225 0.0
C491 C 0.01733 0.6284 0.48256 0.0
C492 C 0.04645 0.63433 0.50862 0.0
C493 C 0.00658 0.62676 0.53649 0.0
C494 C 0.06853 0.65509 0.50275 0.0
C495 C 0.09126 0.65693 0.50706 0.0
C496 C 0.09211 0.63786 0.51706 0.0
C497 C 0.06997 0.61728 0.52302 0.0
C498 C 0.04742 0.61551 0.51879 0.0
H499 H 0.99237 0.63011 0.54309 0.0
H500 H 0.00489 0.6099 0.54317 0.0
H501 H 0.02514 0.64261 0.53975 0.0
H502 H 0.06815 0.66961 0.49461 0.0
H503 H 0.10807 0.67302 0.5023 0.0
H504 H 0.32869 0.44048 0.50708 0.0
H505 H 0.32966 0.40277 0.49868 0.0
H506 H 0.40154 0.43319 0.52472 0.0
H507 H 0.40066 0.47031 0.53313 0.0
H508 H 0.36316 0.40085 0.47504 0.0
H509 H 0.36869 0.36324 0.54442 0.0
H510 H 0.35678 0.38415 0.542 0.0
H511 H 0.38946 0.39588 0.54482 0.0
C512 C 0.34448 0.43885 0.51124 0.0
C513 C 0.36466 0.45837 0.52067 0.0
C514 C 0.34495 0.4173 0.50652 0.0
C515 C 0.36539 0.4149 0.51151 0.0
C516 C 0.38521 0.43423 0.52127 0.0
H517 H 0.47201 0.40557 0.46555 0.0
H518 H 0.43423 0.40597 0.4724 0.0
C519 C 0.38485 0.45566 0.52582 0.0
C520 C 0.3683 0.3942 0.50447 0.0
H521 H 0.39656 0.36257 0.51904 0.0
C522 C 0.36952 0.3916 0.48465 0.0
C523 C 0.3757 0.38127 0.51688 0.0
C524 C 0.37227 0.38108 0.53822 0.0
C525 C 0.38165 0.37978 0.47708 0.0
C526 C 0.3932 0.371 0.48969 0.0
C527 C 0.38838 0.37 0.50934 0.0
C528 C 0.41454 0.36865 0.48346 0.0
C529 C 0.38381 0.3787 0.45569 0.0
C530 C 0.41636 0.3477 0.4878 0.0
C531 C 0.43826 0.34752 0.48402 0.0
C532 C 0.45871 0.36845 0.47616 0.0
C533 C 0.45663 0.38917 0.47163 0.0
C534 C 0.43485 0.38928 0.47529 0.0
H535 H 0.36668 0.3758 0.44859 0.0
H536 H 0.39921 0.39656 0.45052 0.0
H537 H 0.38737 0.36369 0.45137 0.0
H538 H 0.40104 0.33175 0.49443 0.0
H539 H 0.43938 0.33128 0.48765 0.0
H540 H 0.67272 0.10995 0.49067 0.0
H541 H 0.66983 0.07031 0.49839 0.0
H542 H 0.59772 0.03196 0.47233 0.0
H543 H 0.60065 0.07106 0.46433 0.0
H544 H 0.63772 0.03628 0.52166 0.0
H545 H 0.62608 0.99173 0.45207 0.0
H546 H 0.63849 0.02464 0.45424 0.0
H547 H 0.60559 0.00389 0.45273 0.0
C548 C 0.65644 0.09301 0.48634 0.0
C549 C 0.63685 0.09358 0.47696 0.0
C550 C 0.65489 0.07042 0.49068 0.0
C551 C 0.63384 0.04815 0.48551 0.0
C552 C 0.61453 0.04885 0.47586 0.0
H553 H 0.52893 0.9336 0.53578 0.0
H554 H 0.56665 0.9712 0.52781 0.0
C555 C 0.61607 0.07128 0.47154 0.0
C556 C 0.62996 0.02406 0.49234 0.0
H557 H 0.59942 0.96391 0.47831 0.0
C558 C 0.63022 0.02051 0.51212 0.0
C559 C 0.62112 0.00345 0.48 0.0
C560 C 0.62313 0.00625 0.45857 0.0
C561 C 0.61835 0.9967 0.51992 0.0
C562 C 0.60545 0.9762 0.50764 0.0
C563 C 0.60862 0.97965 0.48781 0.0
C564 C 0.58445 0.95278 0.51469 0.0
C565 C 0.61808 0.99384 0.54133 0.0
C566 C 0.58158 0.92975 0.50965 0.0
C567 C 0.55965 0.90798 0.51407 0.0
C568 C 0.54024 0.90907 0.52328 0.0
C569 C 0.54349 0.93211 0.52865 0.0
C570 C 0.56527 0.95368 0.52434 0.0
H571 H 0.63602 0.00781 0.54757 0.0
H572 H 0.6036 0.99702 0.54756 0.0
H573 H 0.6143 0.97514 0.54549 0.0
H574 H 0.59601 0.92868 0.50192 0.0
H575 H 0.5576 0.89042 0.50976 0.0
H576 H 0.08344 0.07533 0.1261 0.0
H577 H 0.04407 0.07157 0.13486 0.0
H578 H 0.08189 0.13887 0.16759 0.0
H579 H 0.12164 0.14325 0.15832 0.0
H580 H 0.02243 0.06706 0.16907 0.0
H581 H 0.03908 0.15358 0.13332 0.0
H582 H 0.05914 0.14098 0.1298 0.0
H583 H 0.06072 0.15693 0.15157 0.0
C584 C 0.08347 0.08939 0.13514 0.0
C585 C 0.10572 0.10974 0.14132 0.0
C586 C 0.06091 0.08717 0.1402 0.0
C587 C 0.06001 0.10509 0.15169 0.0
C588 C 0.08214 0.12511 0.15836 0.0
H589 H 0.90383 0.05929 0.17556 0.0
H590 H 0.94775 0.07725 0.18353 0.0
C591 C 0.10483 0.12754 0.15308 0.0
C592 C 0.0357 0.10264 0.15605 0.0
H593 H -0.00036 0.12779 0.1457 0.0
C594 C 0.01747 0.08049 0.16426 0.0
C595 C 0.0294 0.12031 0.14985 0.0
C596 C 0.048 0.14423 0.14052 0.0
C597 C 0.99273 0.07463 0.16506 0.0
C598 C 0.98621 0.09178 0.15796 0.0
C599 C 0.00476 0.11475 0.15116 0.0
C600 C 0.96016 0.08451 0.15413 0.0
C601 C 0.97358 0.04938 0.17208 0.0
C602 C 0.95278 0.08387 0.13512 0.0
C603 C 0.92796 0.074 0.13059 0.0
C604 C 0.90992 0.06444 0.14498 0.0
C605 C 0.91735 0.06636 0.16417 0.0
C606 C 0.94238 0.07645 0.16872 0.0
H607 H 0.98137 0.03705 0.17433 0.0
H608 H 0.96598 0.05124 0.18591 0.0
H609 H 0.9581 0.04042 0.16174 0.0
H610 H 0.96616 0.09003 0.12362 0.0
H611 H 0.92286 0.07302 0.11569 0.0
H612 H 0.84302 0.96116 0.16139 0.0
H613 H 0.84679 0.92882 0.17832 0.0
H614 H 0.91391 0.949 0.14742 0.0
H615 H 0.91075 0.98138 0.13105 0.0
H616 H 0.84562 0.88914 0.16496 0.0
H617 H 0.93547 0.9435 0.19972 0.0
H618 H 0.91883 0.95777 0.19013 0.0
H619 H 0.9393 0.95256 0.17514 0.0
C620 C 0.85872 0.95884 0.15839 0.0
C621 C 0.8766 0.97393 0.14486 0.0
C622 C 0.86089 0.94043 0.16813 0.0
C623 C 0.88102 0.93692 0.16457 0.0
C624 C 0.89873 0.95192 0.15102 0.0
H625 H 0.9016 0.8275 0.1339 0.0
H626 H 0.88288 0.85114 0.14445 0.0
C627 C 0.89669 0.9703 0.14144 0.0
C628 C 0.88269 0.91615 0.17324 0.0
H629 H 0.92659 0.90254 0.18735 0.0
C630 C 0.86307 0.89204 0.17048 0.0
C631 C 0.90497 0.91967 0.18128 0.0
C632 C 0.92566 0.94484 0.18694 0.0
C633 C 0.86636 0.87163 0.17303 0.0
C634 C 0.89008 0.8756 0.17776 0.0
C635 C 0.90856 0.89937 0.18314 0.0
C636 C 0.89759 0.85708 0.17324 0.0
C637 C 0.84474 0.84616 0.16956 0.0
C638 C 0.91238 0.85245 0.18581 0.0
C639 C 0.92368 0.83917 0.17957 0.0
C640 C 0.92044 0.83054 0.16065 0.0
C641 C 0.9045 0.83395 0.14856 0.0
C642 C 0.89341 0.84721 0.15471 0.0
H643 H 0.82753 0.84479 0.17526 0.0
H644 H 0.84212 0.84269 0.15395 0.0
H645 H 0.84744 0.83163 0.17631 0.0
H646 H 0.91611 0.86009 0.20011 0.0
H647 H 0.93597 0.83687 0.18916 0.0
H648 H 0.14094 0.09549 0.17798 0.0
H649 H 0.11205 0.05178 0.18395 0.0
H650 H 0.16177 0.03271 0.15602 0.0
H651 H 0.1899 0.0763 0.1491 0.0
H652 H 0.11953 0.01156 0.1391 0.0
H653 H 0.10109 0.99479 0.21647 0.0
H654 H 0.09733 0.01994 0.20854 0.0
H655 H 0.12728 0.0225 0.20732 0.0
C656 C 0.14612 0.082 0.17388 0.0
C657 C 0.16758 0.0891 0.16315 0.0
C658 C 0.12962 0.05698 0.17734 0.0
C659 C 0.13474 0.03885 0.17053 0.0
C660 C 0.15739 0.04631 0.16141 0.0
H661 H 0.03488 0.88045 0.15263 0.0
H662 H 0.07109 0.91928 0.16252 0.0
C663 C 0.17352 0.07119 0.15753 0.0
C664 C 0.11494 0.01257 0.16958 0.0
H665 H 0.06949 0.96506 0.19524 0.0
C666 C 0.10901 0.00128 0.1515 0.0
C667 C 0.10097 -0.00087 0.18569 0.0
C668 C 0.10717 0.00966 0.20561 0.0
C669 C 0.08913 0.97737 0.14896 0.0
C670 C 0.07463 0.96438 0.16488 0.0
C671 C 0.08073 0.97522 0.18308 0.0
C672 C 0.05213 0.94018 0.16228 0.0
C673 C 0.0831 0.96637 0.12915 0.0
C674 C 0.02953 0.93917 0.15922 0.0
C675 C 0.00892 0.91718 0.15338 0.0
C676 C 0.01057 0.89578 0.15054 0.0
C677 C 0.03299 0.89659 0.15462 0.0
C678 C 0.05366 0.91869 0.16035 0.0
H679 H 0.09602 0.97911 0.11817 0.0
H680 H 0.08391 0.94905 0.12891 0.0
H681 H 0.06403 0.9616 0.12523 0.0
H682 H 0.02812 0.95568 0.16052 0.0
H683 H 0.99189 0.91716 0.15058 0.0
H684 H 0.10479 0.9179 0.85439 0.0
H685 H 0.12088 0.9619 0.84868 0.0
H686 H 0.05646 0.94469 0.8151 0.0
H687 H 0.04071 0.9005 0.82022 0.0
H688 H 0.10269 0.99018 0.80372 0.0
H689 H 0.07945 0.98389 0.88105 0.0
H690 H 0.10097 0.97396 0.87489 0.0
H691 H 0.06976 0.95694 0.86632 0.0
C692 C 0.09466 0.92351 0.84505 0.0
C693 C 0.07156 0.90598 0.83776 0.0
C694 C 0.10379 0.9486 0.84187 0.0
C695 C 0.0896 0.95648 0.83181 0.0
C696 C 0.06768 0.93892 0.82288 0.0
H697 H 0.07278 0.08176 0.851 0.0
H698 H 0.06829 0.04229 0.84125 0.0
C699 C 0.05874 0.91371 0.82575 0.0
C700 C 0.0952 0.98231 0.83371 0.0
H701 H 0.09649 0.02304 0.86678 0.0
C702 C 0.10151 0.99748 0.81749 0.0
C703 C 0.09319 0.99156 0.85169 0.0
C704 C 0.08527 0.97574 0.86948 0.0
C705 C 0.10613 0.02187 0.81889 0.0
C706 C 0.10431 0.03103 0.83689 0.0
C707 C 0.09803 0.01588 0.85304 0.0
C708 C 0.10747 0.05585 0.83942 0.0
C709 C 0.11236 0.03761 0.80121 0.0
C710 C 0.13107 0.07658 0.84135 0.0
C711 C 0.13378 0.09925 0.84707 0.0
C712 C 0.11288 0.10138 0.85111 0.0
C713 C 0.08929 0.08073 0.84828 0.0
C714 C 0.08664 0.05819 0.84256 0.0
H715 H 0.11237 0.02753 0.78814 0.0
H716 H 0.09881 0.04398 0.79936 0.0
H717 H 0.13085 0.05426 0.80288 0.0
H718 H 0.14735 0.07495 0.83921 0.0
H719 H 0.1522 0.11478 0.84906 0.0
H720 H 0.07462 0.1695 0.86527 0.0
H721 H 0.03262 0.14522 0.85379 0.0
H722 H 0.05942 0.13788 0.79874 0.0
H723 H 0.10206 0.16163 0.8106 0.0
H724 H 0.00395 0.14606 0.82564 0.0
H725 H 0.02034 0.06697 0.81525 0.0
H726 H 0.04314 0.09524 0.82632 0.0
H727 H 0.03801 0.09409 0.80098 0.0
C728 C 0.07169 0.16305 0.85061 0.0
C729 C 0.09159 0.167 0.83896 0.0
C730 C 0.0476 0.14928 0.844 0.0
C731 C 0.04278 0.13924 0.82553 0.0
C732 C 0.06269 0.14495 0.81321 0.0
H733 H 0.88104 0.03555 0.82829 0.0
H734 H 0.91912 0.06783 0.81328 0.0
C735 C 0.08702 0.15867 0.81994 0.0
C736 C 0.01695 0.12055 0.8207 0.0
H737 H 0.97981 0.05804 0.81851 0.0
C738 C -0.00147 0.12683 0.82355 0.0
C739 C 0.00998 0.09549 0.81784 0.0
C740 C 0.0288 0.08737 0.815 0.0
C741 C 0.97369 0.10859 0.82596 0.0
C742 C 0.9671 0.08346 0.82482 0.0
C743 C 0.98505 0.07735 0.81957 0.0
C744 C 0.94355 0.06356 0.83283 0.0
C745 C 0.95525 0.11632 0.83155 0.0
C746 C 0.94463 0.05021 0.84853 0.0
C747 C 0.92314 0.03171 0.85687 0.0
C748 C 0.8999 0.02618 0.84986 0.0
C749 C 0.89869 0.03958 0.83413 0.0
C750 C 0.92041 0.05803 0.82557 0.0
H751 H 0.9641 0.1365 0.83408 0.0
H752 H 0.94148 0.11135 0.81994 0.0
H753 H 0.94525 0.10653 0.84472 0.0
H754 H 0.96225 0.05426 0.8545 0.0
H755 H 0.92482 0.02189 0.86899 0.0
H756 H -0.00086 0.9215 0.8708 0.0
H757 H 0.96495 0.92645 0.8598 0.0
H758 H 0.9384 0.8611 0.825 0.0
H759 H 0.97219 0.85544 0.83658 0.0
H760 H 0.95166 0.93354 0.82515 0.0
H761 H 0.87742 0.84468 0.85489 0.0
H762 H 0.90951 0.8565 0.86048 0.0
H763 H 0.89743 0.84238 0.83767 0.0
C764 C 0.98602 0.90811 0.86084 0.0
C765 C 0.98821 0.88789 0.85476 0.0
C766 C 0.96652 0.91102 0.85449 0.0
C767 C 0.94888 0.89397 0.84177 0.0
C768 C 0.95141 0.87415 0.83517 0.0
H769 H 0.84326 0.94485 0.81396 0.0
H770 H 0.86924 0.92679 0.80622 0.0
C771 C 0.97077 0.87099 0.84177 0.0
C772 C 0.92771 0.89702 0.83607 0.0
H773 H 0.86557 0.87163 0.84206 0.0
C774 C 0.93275 0.91988 0.82855 0.0
C775 C 0.90304 0.87904 0.84038 0.0
C776 C 0.89642 0.85433 0.84892 0.0
C777 C 0.91418 0.92609 0.82677 0.0
C778 C 0.88972 0.90859 0.83207 0.0
C779 C 0.88434 0.88496 0.83799 0.0
C780 C 0.87083 0.9159 0.83533 0.0
C781 C 0.92132 0.95199 0.82074 0.0
C782 C 0.862 0.91449 0.85396 0.0
C783 C 0.84699 0.92433 0.85831 0.0
C784 C 0.84056 0.93599 0.84414 0.0
C785 C 0.8481 0.93612 0.82519 0.0
C786 C 0.86308 0.92601 0.82079 0.0
H787 H 0.94164 0.96425 0.81987 0.0
H788 H 0.91345 0.95147 0.80643 0.0
H789 H 0.91388 0.96025 0.83094 0.0
H790 H 0.86765 0.90675 0.86542 0.0
H791 H 0.84126 0.92368 0.87301 0.0
H792 H 0.7862 0.4756 0.49816 0.0
H793 H 0.74809 0.47192 0.51106 0.0
H794 H 0.70534 0.40812 0.47546 0.0
H795 H 0.74304 0.41108 0.46315 0.0
H796 H 0.71325 0.47598 0.49487 0.0
H797 H 0.6697 0.38229 0.52438 0.0
H798 H 0.70172 0.39861 0.51728 0.0
H799 H 0.67777 0.38088 0.50007 0.0
C800 C 0.76864 0.46067 0.49322 0.0
C801 C 0.76766 0.44356 0.47968 0.0
C802 C 0.74689 0.45854 0.50066 0.0
C803 C 0.72379 0.43932 0.49466 0.0
C804 C 0.72287 0.42251 0.48093 0.0
H805 H 0.59528 0.43053 0.4628 0.0
H806 H 0.6374 0.44454 0.47241 0.0
C807 C 0.74451 0.42441 0.47371 0.0
C808 C 0.7005 0.43775 0.50132 0.0
H809 H 0.64098 0.39525 0.51213 0.0
C810 C 0.69761 0.45847 0.49915 0.0
C811 C 0.68021 0.41528 0.50772 0.0
C812 C 0.68267 0.39315 0.51272 0.0
C813 C 0.6744 0.45655 0.50111 0.0
C814 C 0.65344 0.43314 0.50461 0.0
C815 C 0.65685 0.41313 0.50893 0.0
C816 C 0.628 0.42802 0.5006 0.0
C817 C 0.6725 0.4795 0.4987 0.0
C818 C 0.60835 0.41379 0.51313 0.0
C819 C 0.5839 0.4052 0.50743 0.0
C820 C 0.57882 0.41066 0.48907 0.0
C821 C 0.59856 0.42599 0.47704 0.0
C822 C 0.6228 0.43434 0.48264 0.0
H823 H 0.68897 0.49576 0.50486 0.0
H824 H 0.67202 0.4832 0.48324 0.0
H825 H 0.65571 0.47766 0.50565 0.0
H826 H 0.61186 0.40847 0.527 0.0
H827 H 0.56902 0.39333 0.51697 0.0
H828 H 0.58374 0.33256 0.45307 0.0
H829 H 0.58735 0.29742 0.46348 0.0
H830 H 0.52558 0.27512 0.5016 0.0
H831 H 0.52129 0.31004 0.49071 0.0
H832 H 0.59667 0.28564 0.49821 0.0
H833 H 0.50477 0.21198 0.47268 0.0
H834 H 0.51725 0.24391 0.46616 0.0
H835 H 0.50461 0.23347 0.48961 0.0
C836 C 0.57082 0.32018 0.46362 0.0
C837 C 0.5521 0.32402 0.47095 0.0
C838 C 0.57297 0.30011 0.46962 0.0
C839 C 0.5566 0.28347 0.4832 0.0
C840 C 0.53809 0.28741 0.49082 0.0
H841 H 0.60478 0.17624 0.51202 0.0
H842 H 0.58774 0.2032 0.51932 0.0
C843 C 0.53572 0.30741 0.48462 0.0
C844 C 0.55924 0.26208 0.48894 0.0
H845 H 0.53172 0.19949 0.48465 0.0
C846 C 0.58236 0.26673 0.49556 0.0
C847 C 0.54045 0.23744 0.48555 0.0
C848 C 0.51541 0.23127 0.47798 0.0
C849 C 0.58789 0.24769 0.49743 0.0
C850 C 0.56945 0.22318 0.49315 0.0
C851 C 0.54574 0.21829 0.48799 0.0
C852 C 0.57568 0.20343 0.49034 0.0
C853 C 0.61397 0.25432 0.50243 0.0
C854 C 0.57318 0.19346 0.47199 0.0
C855 C 0.5825 0.17791 0.4679 0.0
C856 C 0.59463 0.17206 0.48206 0.0
C857 C 0.59563 0.18058 0.50081 0.0
C858 C 0.5861 0.19613 0.50495 0.0
H859 H 0.62682 0.27458 0.5024 0.0
H860 H 0.61424 0.24729 0.51693 0.0
H861 H 0.62099 0.24572 0.49218 0.0
H862 H 0.56515 0.19874 0.4605 0.0
H863 H 0.58121 0.17143 0.45336 0.0
H864 H 0.82361 0.42889 0.52217 0.0
H865 H 0.79851 0.38611 0.53336 0.0
H866 H 0.80916 0.36003 0.47905 0.0
H867 H 0.83462 0.40212 0.46827 0.0
H868 H 0.75629 0.35496 0.51942 0.0
H869 H 0.81214 0.31069 0.51209 0.0
H870 H 0.82613 0.34388 0.51263 0.0
H871 H 0.81591 0.32716 0.49032 0.0
C872 C 0.82125 0.41396 0.51295 0.0
C873 C 0.83092 0.41878 0.49432 0.0
C874 C 0.80689 0.38955 0.51933 0.0
C875 C 0.80222 0.36974 0.5072 0.0
C876 C 0.81307 0.37481 0.48899 0.0
H877 H 0.67698 0.25775 0.46462 0.0
H878 H 0.7094 0.29399 0.48038 0.0
C879 C 0.82739 0.399 0.4827 0.0
C880 C 0.78286 0.34404 0.51171 0.0
H881 H 0.76825 0.28517 0.50086 0.0
C882 C 0.75908 0.33962 0.51604 0.0
C883 C 0.78632 0.32373 0.50806 0.0
C884 C 0.81163 0.32671 0.50576 0.0
C885 C 0.73843 0.31595 0.51424 0.0
C886 C 0.74163 0.29649 0.50728 0.0
C887 C 0.76561 0.30022 0.50553 0.0
C888 C 0.72083 0.2738 0.49892 0.0
C889 C 0.71332 0.31239 0.51888 0.0
C890 C 0.71697 0.25026 0.50347 0.0
C891 C 0.69863 0.22932 0.49406 0.0
C892 C 0.68389 0.23161 0.47992 0.0
C893 C 0.6878 0.25521 0.47552 0.0
C894 C 0.70619 0.27602 0.48474 0.0
H895 H 0.71448 0.32417 0.53117 0.0
H896 H 0.70639 0.31815 0.50645 0.0
H897 H 0.69985 0.29286 0.52236 0.0
H898 H 0.72826 0.24811 0.51417 0.0
H899 H 0.69605 0.2114 0.49783 0.0
H900 H 0.72837 0.23699 0.14984 0.0
H901 H 0.7491 0.28087 0.14108 0.0
H902 H 0.76413 0.30065 0.20065 0.0
H903 H 0.74432 0.25739 0.20931 0.0
H904 H 0.73388 0.31157 0.15049 0.0
H905 H 0.82804 0.35117 0.1783 0.0
H906 H 0.80842 0.31833 0.17491 0.0
H907 H 0.80727 0.33288 0.19687 0.0
C908 C 0.73673 0.25078 0.16096 0.0
C909 C 0.73466 0.2438 0.18026 0.0
C910 C 0.74854 0.27581 0.15595 0.0
C911 C 0.75861 0.29413 0.17016 0.0
C912 C 0.75728 0.28701 0.18934 0.0
H913 H 0.74309 0.41169 0.19802 0.0
H914 H 0.7404 0.37414 0.1858 0.0
C915 C 0.74562 0.26217 0.19431 0.0
C916 C 0.76727 0.32039 0.16573 0.0
H917 H 0.80941 0.37798 0.18124 0.0
C918 C 0.75079 0.3262 0.15668 0.0
C919 C 0.78966 0.33969 0.17319 0.0
C920 C 0.80943 0.33513 0.18114 0.0
C921 C 0.75477 0.35032 0.15693 0.0
C922 C 0.7753 0.36886 0.16701 0.0
C923 C 0.79324 0.36366 0.17401 0.0
C924 C 0.77668 0.39232 0.17281 0.0
C925 C 0.73632 0.35541 0.1471 0.0
C926 C 0.79829 0.41514 0.17012 0.0
C927 C 0.80011 0.4368 0.17749 0.0
C928 C 0.78035 0.43598 0.18776 0.0
C929 C 0.75866 0.41312 0.19016 0.0
C930 C 0.75695 0.39157 0.18293 0.0
H931 H 0.72878 0.34376 0.13412 0.0
H932 H 0.7206 0.35062 0.15688 0.0
H933 H 0.74464 0.37509 0.14292 0.0
H934 H 0.81386 0.41614 0.16254 0.0
H935 H 0.81707 0.4541 0.17532 0.0
H936 H 0.7391 0.50172 0.20382 0.0
H937 H 0.6966 0.47415 0.19466 0.0
H938 H 0.72048 0.4643 0.13913 0.0
H939 H 0.7637 0.49135 0.14869 0.0
H940 H 0.66458 0.47011 0.16809 0.0
H941 H 0.68691 0.39489 0.159 0.0
H942 H 0.70911 0.42469 0.16832 0.0
H943 H 0.7021 0.42085 0.14321 0.0
C944 C 0.73538 0.49401 0.18953 0.0
C945 C 0.75474 0.49825 0.17712 0.0
C946 C 0.71099 0.47832 0.18425 0.0
C947 C 0.70531 0.46662 0.16638 0.0
C948 C 0.72447 0.4726 0.1532 0.0
H949 H 0.54478 0.35764 0.1668 0.0
H950 H 0.58353 0.39184 0.15441 0.0
C951 C 0.74912 0.48824 0.15859 0.0
C952 C 0.67965 0.44636 0.16299 0.0
H953 H 0.64551 0.3835 0.16133 0.0
C954 C 0.66028 0.45116 0.16622 0.0
C955 C 0.67415 0.42165 0.16058 0.0
C956 C 0.69408 0.41504 0.1577 0.0
C957 C 0.63593 0.43193 0.16891 0.0
C958 C 0.63068 0.4072 0.16756 0.0
C959 C 0.64965 0.40248 0.1625 0.0
C960 C 0.60687 0.3861 0.17412 0.0
C961 C 0.61656 0.43832 0.17473 0.0
C962 C 0.60709 0.37108 0.18893 0.0
C963 C 0.58516 0.35134 0.19572 0.0
C964 C 0.56237 0.34629 0.18802 0.0
C965 C 0.56206 0.36129 0.17317 0.0
C966 C 0.58417 0.38088 0.16613 0.0
H967 H 0.62476 0.45807 0.17872 0.0
H968 H 0.60377 0.43464 0.1626 0.0
H969 H 0.60564 0.42686 0.18703 0.0
H970 H 0.62434 0.37477 0.19541 0.0
H971 H 0.58607 0.34022 0.2072 0.0
H972 H 0.50156 0.27111 0.1439 0.0
H973 H 0.52477 0.25176 0.1319 0.0
H974 H 0.52225 0.22219 0.18812 0.0
H975 H 0.49855 0.24038 0.19979 0.0
H976 H 0.56862 0.26316 0.14185 0.0
H977 H 0.51237 0.16488 0.15793 0.0
H978 H 0.49918 0.1848 0.15762 0.0
H979 H 0.51271 0.18086 0.17921 0.0
C980 C 0.50536 0.25983 0.15348 0.0
C981 C 0.49835 0.25734 0.1728 0.0
C982 C 0.51862 0.2488 0.14662 0.0
C983 C 0.5249 0.23505 0.15898 0.0
C984 C 0.51697 0.23187 0.17806 0.0
H985 H 0.65297 0.24976 0.19272 0.0
H986 H 0.61975 0.25277 0.17778 0.0
C987 C 0.50367 0.24266 0.18482 0.0
C988 C 0.54288 0.22729 0.15329 0.0
H989 H 0.55763 0.18334 0.16485 0.0
C990 C 0.56592 0.24536 0.14623 0.0
C991 C 0.53939 0.2038 0.15819 0.0
C992 C 0.51441 0.18247 0.16342 0.0
C993 C 0.58627 0.24171 0.14652 0.0
C994 C 0.58367 0.21985 0.15472 0.0
C995 C 0.55995 0.2005 0.15919 0.0
C996 C 0.60529 0.21854 0.16195 0.0
C997 C 0.61066 0.26193 0.13902 0.0
C998 C 0.60796 0.19785 0.15858 0.0
C999 C 0.62688 0.19578 0.16755 0.0
C1000 C 0.64336 0.21432 0.18009 0.0
C1001 C 0.64079 0.23514 0.1831 0.0
C1002 C 0.6219 0.23708 0.17431 0.0
H1003 H 0.60777 0.27081 0.12629 0.0
H1004 H 0.61973 0.27641 0.15011 0.0
H1005 H 0.62317 0.25486 0.13505 0.0
H1006 H 0.59516 0.18314 0.14931 0.0
H1007 H 0.62834 0.1795 0.16489 0.0
H1008 H 0.23486 0.72218 0.83876 0.0
H1009 H 0.27917 0.73993 0.84494 0.0
H1010 H 0.29409 0.75537 0.7848 0.0
H1011 H 0.25031 0.73835 0.77865 0.0
H1012 H 0.30705 0.72203 0.8313 0.0
H1013 H 0.34761 0.81849 0.80745 0.0
H1014 H 0.31503 0.7993 0.81218 0.0
H1015 H 0.32763 0.79809 0.7893 0.0
C1016 C 0.2477 0.72992 0.82696 0.0
C1017 C 0.23915 0.72885 0.80822 0.0
C1018 C 0.27297 0.74001 0.8305 0.0
C1019 C 0.28999 0.74935 0.81538 0.0
C1020 C 0.28143 0.74893 0.79678 0.0
H1021 H 0.41578 0.74072 0.78846 0.0
H1022 H 0.37542 0.7352 0.79627 0.0
C1023 C 0.25632 0.73895 0.79325 0.0
C1024 C 0.31627 0.75687 0.81836 0.0
H1025 H 0.37432 0.80055 0.80486 0.0
C1026 C 0.32183 0.73945 0.82594 0.0
C1027 C 0.33565 0.77976 0.81173 0.0
C1028 C 0.33116 0.80005 0.80492 0.0
C1029 C 0.346 0.74354 0.82567 0.0
C1030 C 0.36493 0.76534 0.81716 0.0
C1031 C 0.35972 0.7836 0.81101 0.0
C1032 C 0.38962 0.76863 0.81307 0.0
C1033 C 0.35086 0.72418 0.83409 0.0
C1034 C 0.41111 0.78971 0.81936 0.0
C1035 C 0.43435 0.79315 0.81466 0.0
C1036 C 0.43649 0.77558 0.80351 0.0
C1037 C 0.41488 0.75456 0.79717 0.0
C1038 C 0.39173 0.75123 0.80178 0.0
H1039 H 0.33753 0.71382 0.84569 0.0
H1040 H 0.34856 0.71073 0.82281 0.0
H1041 H 0.36987 0.73248 0.83992 0.0
H1042 H 0.4099 0.80349 0.82792 0.0
H1043 H 0.4506 0.80954 0.81981 0.0
H1044 H 0.23093 0.48926 0.80134 0.0
H1045 H 0.21443 0.51558 0.81039 0.0
H1046 H 0.24985 0.52834 0.86545 0.0
H1047 H 0.26743 0.50246 0.85606 0.0
H1048 H 0.18634 0.5192 0.83806 0.0
H1049 H 0.28338 0.597 0.84332 0.0
H1050 H 0.27638 0.56714 0.83454 0.0
H1051 H 0.27382 0.57167 0.85962 0.0
C1052 C 0.23494 0.49732 0.81552 0.0
C1053 C 0.2509 0.49427 0.82784 0.0
C1054 C 0.22533 0.51226 0.82074 0.0
C1055 C 0.23134 0.5244 0.83844 0.0
C1056 C 0.24546 0.51961 0.85154 0.0
H1057 H 0.17819 0.63163 0.82903 0.0
H1058 H 0.18365 0.60004 0.84553 0.0
C1059 C 0.25532 0.50469 0.84623 0.0
C1060 C 0.22526 0.54421 0.8415 0.0
H1061 H 0.25256 0.6069 0.83913 0.0
C1062 C 0.20069 0.53843 0.83882 0.0
C1063 C 0.24408 0.56928 0.84257 0.0
C1064 C 0.27092 0.57681 0.84508 0.0
C1065 C 0.19477 0.5569 0.835 0.0
C1066 C 0.21392 0.58181 0.83448 0.0
C1067 C 0.23801 0.58772 0.83938 0.0
C1068 C 0.21052 0.60131 0.8254 0.0
C1069 C 0.16854 0.54942 0.82982 0.0
C1070 C 0.22408 0.61276 0.80884 0.0
C1071 C 0.22128 0.63089 0.7996 0.0
C1072 C 0.20466 0.63791 0.8066 0.0
C1073 C 0.19095 0.62641 0.82318 0.0
C1074 C 0.19401 0.60835 0.83261 0.0
H1075 H 0.15661 0.5291 0.82849 0.0
H1076 H 0.16063 0.55592 0.84106 0.0
H1077 H 0.16802 0.55804 0.81609 0.0
H1078 H 0.23681 0.60751 0.80293 0.0
H1079 H 0.23208 0.63927 0.78685 0.0
H1080 H 0.48305 0.75877 0.85304 0.0
H1081 H 0.45347 0.71556 0.86077 0.0
H1082 H 0.47061 0.69284 0.80743 0.0
H1083 H 0.50055 0.7354 0.80009 0.0
H1084 H 0.41305 0.68778 0.84207 0.0
H1085 H 0.46612 0.63966 0.84075 0.0
H1086 H 0.48103 0.67286 0.84231 0.0
H1087 H 0.47294 0.65759 0.81937 0.0
C1088 C 0.48104 0.74442 0.84331 0.0
C1089 C 0.49404 0.75045 0.82593 0.0
C1090 C 0.46408 0.71976 0.8477 0.0
C1091 C 0.46001 0.70082 0.83482 0.0
C1092 C 0.47387 0.70689 0.8179 0.0
H1093 H 0.32971 0.5815 0.79397 0.0
H1094 H 0.36355 0.62052 0.80545 0.0
C1095 C 0.49084 0.73137 0.8136 0.0
C1096 C 0.43913 0.6753 0.83743 0.0
H1097 H 0.42319 0.6154 0.82931 0.0
C1098 C 0.41534 0.6719 0.8398 0.0
C1099 C 0.44195 0.65439 0.83501 0.0
C1100 C 0.46697 0.65637 0.83445 0.0
C1101 C 0.3943 0.64846 0.83807 0.0
C1102 C 0.39711 0.62805 0.83314 0.0
C1103 C 0.42091 0.6311 0.83256 0.0
C1104 C 0.37593 0.60412 0.82687 0.0
C1105 C 0.36931 0.64603 0.84113 0.0
C1106 C 0.37214 0.58171 0.83447 0.0
C1107 C 0.3531 0.55922 0.82753 0.0
C1108 C 0.33743 0.55874 0.81292 0.0
C1109 C 0.34125 0.5812 0.80538 0.0
C1110 C 0.36047 0.60359 0.8121 0.0
H1111 H 0.37039 0.65962 0.85187 0.0
H1112 H 0.36287 0.65002 0.82752 0.0
H1113 H 0.35546 0.62723 0.846 0.0
H1114 H 0.38396 0.58161 0.84574 0.0
H1115 H 0.35057 0.54223 0.83369 0.0
H1116 H 0.41466 0.75053 0.54859 0.0
H1117 H 0.4096 0.71123 0.53781 0.0
H1118 H 0.46233 0.7485 0.49264 0.0
H1119 H 0.46835 0.78819 0.50398 0.0
H1120 H 0.3935 0.68651 0.50566 0.0
H1121 H 0.49109 0.71052 0.51618 0.0
H1122 H 0.47953 0.73005 0.52458 0.0
H1123 H 0.48678 0.73 0.4997 0.0
C1124 C 0.42526 0.7504 0.5364 0.0
C1125 C 0.4421 0.77248 0.52727 0.0
C1126 C 0.4223 0.72789 0.5302 0.0
C1127 C 0.43584 0.72687 0.51457 0.0
C1128 C 0.45218 0.74884 0.50504 0.0
H1129 H 0.38764 0.57142 0.48561 0.0
H1130 H 0.40029 0.61465 0.47868 0.0
C1131 C 0.45552 0.7715 0.5115 0.0
C1132 C 0.43281 0.70269 0.5087 0.0
H1133 H 0.46341 0.67041 0.50576 0.0
C1134 C 0.40881 0.68301 0.50547 0.0
C1135 C 0.45285 0.69819 0.5084 0.0
C1136 C 0.47898 0.71821 0.51255 0.0
C1137 C 0.40405 0.65872 0.50325 0.0
C1138 C 0.42402 0.65413 0.50352 0.0
C1139 C 0.44818 0.67404 0.50543 0.0
C1140 C 0.41999 0.62875 0.50535 0.0
C1141 C 0.37754 0.63808 0.5021 0.0
C1142 C 0.42828 0.62261 0.52195 0.0
C1143 C 0.42154 0.59821 0.52572 0.0
C1144 C 0.4062 0.57934 0.51303 0.0
C1145 C 0.3994 0.5856 0.49568 0.0
C1146 C 0.40637 0.61023 0.49182 0.0
H1147 H 0.3643 0.64448 0.50547 0.0
H1148 H 0.37358 0.6304 0.4874 0.0
H1149 H 0.37417 0.62296 0.51213 0.0
H1150 H 0.43891 0.63655 0.53257 0.0
H1151 H 0.42728 0.59399 0.53913 0.0
H1152 H 0.21165 0.70195 0.50166 0.0
H1153 H 0.2492 0.73563 0.4873 0.0
H1154 H 0.29337 0.71431 0.52081 0.0
H1155 H 0.25638 0.68058 0.5347 0.0
H1156 H 0.28587 0.77464 0.50362 0.0
H1157 H 0.32556 0.72316 0.47002 0.0
H1158 H 0.2938 0.70812 0.47781 0.0
H1159 H 0.31805 0.71283 0.49422 0.0
C1160 C 0.22938 0.70431 0.50579 0.0
C1161 C 0.23097 0.6885 0.51931 0.0
C1162 C 0.25079 0.7235 0.49752 0.0
C1163 C 0.27409 0.7271 0.50257 0.0
C1164 C 0.27561 0.71138 0.51611 0.0
H1165 H 0.4035 0.83884 0.5372 0.0
H1166 H 0.36123 0.81378 0.52654 0.0
C1167 C 0.25436 0.69221 0.52424 0.0
C1168 C 0.29715 0.74853 0.49539 0.0
H1169 H 0.35586 0.76387 0.48344 0.0
C1170 C 0.301 0.77234 0.49863 0.0
C1171 C 0.31673 0.74579 0.4881 0.0
C1172 C 0.31316 0.72105 0.48213 0.0
C1173 C 0.32464 0.79314 0.49709 0.0
C1174 C 0.34493 0.78986 0.49285 0.0
C1175 C 0.34049 0.76645 0.48722 0.0
C1176 C 0.37064 0.80888 0.49767 0.0
C1177 C 0.32774 0.81824 0.50096 0.0
C1178 C 0.39029 0.8145 0.4851 0.0
C1179 C 0.41475 0.82858 0.49137 0.0
C1180 C 0.41984 0.83706 0.51034 0.0
C1181 C 0.40019 0.83255 0.52251 0.0
C1182 C 0.37591 0.81845 0.51631 0.0
H1183 H 0.31175 0.81934 0.49524 0.0
H1184 H 0.32828 0.82125 0.51663 0.0
H1185 H 0.34492 0.83323 0.49449 0.0
H1186 H 0.38669 0.80712 0.47071 0.0
H1187 H 0.42956 0.83175 0.4817 0.0
H1188 H 0.30532 0.51975 0.51104 0.0
H1189 H 0.27192 0.52563 0.49893 0.0
H1190 H 0.29937 0.59217 0.53238 0.0
H1191 H 0.33305 0.58691 0.54405 0.0
H1192 H 0.23545 0.52604 0.51721 0.0
H1193 H 0.28964 0.61629 0.48211 0.0
H1194 H 0.30333 0.59819 0.48955 0.0
H1195 H 0.30011 0.61839 0.50622 0.0
C1196 C 0.30433 0.53572 0.51573 0.0
C1197 C 0.32191 0.55287 0.52852 0.0
C1198 C 0.28527 0.53909 0.50873 0.0
C1199 C 0.28346 0.55966 0.51437 0.0
C1200 C 0.30083 0.57661 0.52729 0.0
H1201 H 0.1705 0.58385 0.54292 0.0
H1202 H 0.19721 0.56695 0.53643 0.0
C1203 C 0.31996 0.5734 0.53415 0.0
C1204 C 0.26249 0.56267 0.50805 0.0
H1205 H 0.24899 0.60674 0.49394 0.0
C1206 C 0.23838 0.54349 0.51167 0.0
C1207 C 0.2661 0.5851 0.50021 0.0
C1208 C 0.29122 0.6055 0.49409 0.0
C1209 C 0.21807 0.547 0.50943 0.0
C1210 C 0.22209 0.5705 0.50394 0.0
C1211 C 0.24589 0.58885 0.49852 0.0
C1212 C 0.20297 0.57762 0.5066 0.0
C1213 C 0.19261 0.52573 0.51361 0.0
C1214 C 0.19734 0.58949 0.49203 0.0
C1215 C 0.18216 0.59953 0.49581 0.0
C1216 C 0.17265 0.59803 0.51427 0.0
C1217 C 0.17752 0.58528 0.52854 0.0
C1218 C 0.19262 0.57534 0.52479 0.0
H1219 H 0.19128 0.50789 0.5097 0.0
H1220 H 0.18892 0.52517 0.52916 0.0
H1221 H 0.17816 0.52749 0.50575 0.0
H1222 H 0.20535 0.59169 0.47794 0.0
H1223 H 0.1788 0.60939 0.48457 0.0
H1224 H 0.17796 0.11785 0.05897 0.0
H1225 H 0.18466 0.13624 0.02753 0.0
H1226 H 0.21352 0.20835 0.05285 0.0
H1227 H 0.20617 0.18984 0.0848 0.0
H1228 H 0.18038 0.20117 0.02698 0.0
H1229 H 0.24302 0.17435 0.99401 0.0
H1230 H 0.21777 0.14734 0.00431 0.0
H1231 H 0.2381 0.17277 0.01953 0.0
C1232 C 0.18608 0.13769 0.058 0.0
C1233 C 0.19143 0.15233 0.07451 0.0
C1234 C 0.19022 0.14826 0.03989 0.0
C1235 C 0.2002 0.17378 0.03774 0.0
C1236 C 0.20609 0.18863 0.05416 0.0
H1237 H 0.19431 0.19956 0.91436 0.0
H1238 H 0.21374 0.20746 0.94604 0.0
C1239 C 0.20181 0.17801 0.0724 0.0
C1240 C 0.20131 0.18396 0.01837 0.0
H1241 H 0.21252 0.17553 0.97207 0.0
C1242 C 0.18807 0.19623 0.01502 0.0
C1243 C 0.21199 0.17835 0.00271 0.0
C1244 C 0.22876 0.16774 0.00541 0.0
C1245 C 0.18283 0.20041 0.99636 0.0
C1246 C 0.1904 0.19141 0.98074 0.0
C1247 C 0.20608 0.1818 0.98404 0.0
C1248 C 0.17923 0.18832 0.96152 0.0
C1249 C 0.16825 0.21342 0.99363 0.0
C1250 C 0.15349 0.17455 0.95969 0.0
C1251 C 0.14241 0.17005 0.94178 0.0
C1252 C 0.1568 0.1789 0.92512 0.0
C1253 C 0.18268 0.19249 0.92689 0.0
C1254 C 0.1938 0.1971 0.94497 0.0
H1255 H 0.17263 0.22737 0.00504 0.0
H1256 H 0.172 0.22272 0.97952 0.0
H1257 H 0.14825 0.19977 0.99464 0.0
H1258 H 0.14187 0.16679 0.97217 0.0
H1259 H 0.12247 0.15929 0.94104 0.0
H1260 H 0.78024 0.98157 0.91171 0.0
H1261 H 0.76587 0.986 0.94346 0.0
H1262 H 0.84041 0.01907 0.96475 0.0
H1263 H 0.85455 0.0141 0.93346 0.0
H1264 H 0.77404 0.9612 0.97523 0.0
H1265 H 0.81291 0.06048 0.9901 0.0
H1266 H 0.80684 0.04798 0.96612 0.0
H1267 H 0.83476 0.05436 0.9783 0.0
C1268 C 0.79359 0.99058 0.92305 0.0
C1269 C 0.81847 0.99753 0.92028 0.0
C1270 C 0.78537 0.99303 0.94113 0.0
C1271 C 0.80213 0.00311 0.95636 0.0
C1272 C 0.82725 0.01169 0.9531 0.0
H1273 H 0.84365 0.98448 0.05687 0.0
H1274 H 0.82305 0.97908 0.0262 0.0
C1275 C 0.83532 0.00875 0.93527 0.0
C1276 C 0.7936 0.00094 0.97634 0.0
H1277 H 0.81046 0.03478 0.01736 0.0
C1278 C 0.78109 0.97726 0.98444 0.0
C1279 C 0.80249 0.02185 0.98831 0.0
C1280 C 0.81479 0.04761 0.98023 0.0
C1281 C 0.78014 0.97407 0.00433 0.0
C1282 C 0.79199 0.99506 0.01623 0.0
C1283 C 0.80159 0.01866 0.00819 0.0
C1284 C 0.79972 0.99334 0.03586 0.0
C1285 C 0.76831 0.94832 0.01239 0.0
C1286 C 0.79303 0.00265 0.0516 0.0
C1287 C 0.8046 0.0054 0.06931 0.0
C1288 C 0.82344 -0.00047 0.07124 0.0
C1289 C 0.82914 0.98907 0.05573 0.0
C1290 C 0.81728 0.98586 0.03825 0.0
H1291 H 0.75334 0.93495 0.0029 0.0
H1292 H 0.78241 0.94257 0.01352 0.0
H1293 H 0.76063 0.94748 0.02686 0.0
H1294 H 0.77976 0.00882 0.04994 0.0
H1295 H 0.80012 0.01379 0.08104 0.0
H1296 H 0.00718 0.80466 0.91447 0.0
H1297 H 0.99721 0.7857 0.94638 0.0
H1298 H 0.03229 0.85805 0.97208 0.0
H1299 H 0.04266 0.87696 0.94071 0.0
H1300 H 0.04425 0.82592 0.99029 0.0
H1301 H 0.94263 0.78344 0.97987 0.0
H1302 H 0.95966 0.77532 0.96358 0.0
H1303 H 0.96426 0.80602 0.96337 0.0
C1304 C 0.01278 0.81648 0.92696 0.0
C1305 C 0.02558 0.84235 0.925 0.0
C1306 C 0.00707 0.80561 0.94515 0.0
C1307 C 0.0139 0.82048 0.96159 0.0
C1308 C 0.02699 0.84621 0.9596 0.0
H1309 H 0.96713 0.84366 0.06069 0.0
H1310 H 0.97753 0.83479 0.02944 0.0
C1311 C 0.0328 0.85701 0.94158 0.0
C1312 C 0.00652 0.81005 0.98107 0.0
H1313 H 0.95711 0.78783 0.01114 0.0
C1314 C 0.02514 0.81689 0.99488 0.0
C1315 C 0.98156 0.7981 0.98693 0.0
C1316 C 0.96078 0.7903 0.97276 0.0
C1317 C 0.01967 0.81458 0.01448 0.0
C1318 C 0.99491 0.80483 0.02031 0.0
C1319 C 0.97609 0.79544 0.00653 0.0
C1320 C 0.98868 0.80925 0.03977 0.0
C1321 C 0.04054 0.82475 0.02875 0.0
C1322 C 0.99177 0.79799 0.05607 0.0
C1323 C 0.98595 0.80321 0.07422 0.0
C1324 C 0.97682 0.81961 0.07621 0.0
C1325 C 0.97393 0.83082 0.05977 0.0
C1326 C 0.97981 0.82571 0.04182 0.0
H1327 H 0.0589 0.83292 0.02174 0.0
H1328 H 0.03998 0.83912 0.03768 0.0
H1329 H 0.03845 0.80975 0.0384 0.0
H1330 H -0.00155 0.7851 0.05476 0.0
H1331 H 0.98824 0.79416 0.0866 0.0
H1332 H 0.79161 0.49861 0.27742 0.0
H1333 H 0.81202 0.50768 0.3081 0.0
H1334 H 0.88306 0.54426 0.28035 0.0
H1335 H 0.86253 0.53482 0.249 0.0
H1336 H 0.8807 0.51266 0.30785 0.0
H1337 H 0.84632 0.57039 0.33868 0.0
H1338 H 0.82073 0.54343 0.3286 0.0
H1339 H 0.84542 0.56477 0.31327 0.0
C1340 C 0.81159 0.50882 0.27765 0.0
C1341 C 0.82539 0.51606 0.26064 0.0
C1342 C 0.82327 0.51426 0.29533 0.0
C1343 C 0.84907 0.52734 0.29658 0.0
C1344 C 0.8631 0.53452 0.27969 0.0
H1345 H 0.86876 0.52408 0.42028 0.0
H1346 H 0.87989 0.54453 0.38899 0.0
C1347 C 0.85134 0.52902 0.26182 0.0
C1348 C 0.86061 0.53102 0.31569 0.0
H1349 H 0.85016 0.54205 0.36145 0.0
C1350 C 0.87477 0.51986 0.31954 0.0
C1351 C 0.85379 0.54124 0.33094 0.0
C1352 C 0.84098 0.55589 0.32758 0.0
C1353 C 0.87931 0.51567 0.33842 0.0
C1354 C 0.86876 0.52216 0.35365 0.0
C1355 C 0.85763 0.53636 0.3498 0.0
C1356 C 0.86492 0.51058 0.37278 0.0
C1357 C 0.89414 0.50306 0.34179 0.0
C1358 C 0.85253 0.48476 0.37407 0.0
C1359 C 0.84613 0.47309 0.39177 0.0
C1360 C 0.85164 0.48692 0.40873 0.0
C1361 C 0.86418 0.51286 0.4075 0.0
C1362 C 0.87068 0.52459 0.38965 0.0
H1363 H 0.90907 0.50904 0.33099 0.0
H1364 H 0.9025 0.50702 0.35628 0.0
H1365 H 0.88197 0.48282 0.3402 0.0
H1366 H 0.847 0.47347 0.3613 0.0
H1367 H 0.83639 0.45312 0.39206 0.0
H1368 H 0.49781 0.29277 0.27486 0.0
H1369 H 0.48763 0.30342 0.30545 0.0
H1370 H 0.4481 0.33444 0.27717 0.0
H1371 H 0.45879 0.3242 0.246 0.0
H1372 H 0.47734 0.36471 0.30401 0.0
H1373 H 0.42602 0.27304 0.33664 0.0
H1374 H 0.45402 0.27628 0.32712 0.0
H1375 H 0.43167 0.27703 0.31121 0.0
C1376 C 0.48671 0.30161 0.275 0.0
C1377 C 0.47908 0.30756 0.2579 0.0
C1378 C 0.48063 0.30743 0.2926 0.0
C1379 C 0.46641 0.31901 0.29368 0.0
C1380 C 0.45874 0.32512 0.27668 0.0
H1381 H 0.47 0.34406 0.41688 0.0
H1382 H 0.44858 0.33301 0.38596 0.0
C1383 C 0.46497 0.31937 0.2589 0.0
C1384 C 0.46215 0.32676 0.31266 0.0
H1385 H 0.4531 0.30699 0.35886 0.0
C1386 C 0.47125 0.35197 0.31596 0.0
C1387 C 0.45324 0.31018 0.32827 0.0
C1388 C 0.44041 0.2826 0.32553 0.0
C1389 C 0.47483 0.36132 0.33464 0.0
C1390 C 0.46996 0.34513 0.35025 0.0
C1391 C 0.45762 0.3196 0.34693 0.0
C1392 C 0.4817 0.3543 0.36918 0.0
C1393 C 0.48512 0.38864 0.33739 0.0
C1394 C 0.50737 0.36982 0.37005 0.0
C1395 C 0.51956 0.37612 0.38754 0.0
C1396 C 0.50648 0.36676 0.4047 0.0
C1397 C 0.48065 0.35155 0.40393 0.0
C1398 C 0.46837 0.3453 0.38629 0.0
H1399 H 0.47746 0.3959 0.3265 0.0
H1400 H 0.48093 0.39293 0.35184 0.0
H1401 H 0.50543 0.39842 0.33539 0.0
H1402 H 0.51825 0.37629 0.35711 0.0
H1403 H 0.53944 0.38782 0.38747 0.0
H1404 H 0.64315 0.11509 0.41454 0.0
H1405 H 0.64831 0.10175 0.3826 0.0
H1406 H 0.6819 0.17695 0.36275 0.0
H1407 H 0.67615 0.1901 0.39424 0.0
H1408 H 0.62422 0.11186 0.35071 0.0
H1409 H 0.72374 0.14933 0.33746 0.0
H1410 H 0.71041 0.14224 0.36118 0.0
H1411 H 0.71754 0.17083 0.34978 0.0
C1412 C 0.65242 0.12881 0.40349 0.0
C1413 C 0.65928 0.15359 0.40671 0.0
C1414 C 0.65529 0.12117 0.3853 0.0
C1415 C 0.66571 0.13842 0.37042 0.0
C1416 C 0.67423 0.16343 0.37413 0.0
H1417 H 0.65327 0.18399 0.26925 0.0
H1418 H 0.64668 0.16349 0.30014 0.0
C1419 C 0.67086 0.17093 0.39207 0.0
C1420 C 0.66395 0.13051 0.35031 0.0
H1421 H 0.69899 0.1476 0.3099 0.0
C1422 C 0.64051 0.11876 0.34178 0.0
C1423 C 0.68517 0.13929 0.33872 0.0
C1424 C 0.71065 0.15091 0.34728 0.0
C1425 C 0.63794 0.11838 0.32185 0.0
C1426 C 0.65931 0.12995 0.31035 0.0
C1427 C 0.68259 0.13889 0.31878 0.0
C1428 C 0.65839 0.13802 0.29068 0.0
C1429 C 0.61251 0.10746 0.3133 0.0
C1430 C 0.66661 0.13005 0.27503 0.0
C1431 C 0.66997 0.1415 0.2572 0.0
C1432 C 0.66583 0.16149 0.25508 0.0
C1433 C 0.65652 0.16859 0.27055 0.0
C1434 C 0.65266 0.15683 0.28815 0.0
H1435 H 0.5984 0.09302 0.32273 0.0
H1436 H 0.60777 0.12224 0.31155 0.0
H1437 H 0.61174 0.09936 0.29902 0.0
H1438 H 0.6714 0.11576 0.27682 0.0
H1439 H 0.67744 0.13592 0.24551 0.0
H1440 H 0.51256 0.84121 0.58769 0.0
H1441 H 0.52897 0.8455 0.62018 0.0
H1442 H 0.49193 0.88505 0.637 0.0
H1443 H 0.4743 0.8794 0.60494 0.0
H1444 H 0.5562 0.88082 0.6459 0.0
H1445 H 0.45945 0.82665 0.67157 0.0
H1446 H 0.4671 0.83108 0.64655 0.0
H1447 H 0.46616 0.855 0.66022 0.0
C1448 C 0.50827 0.85113 0.59829 0.0
C1449 C 0.49183 0.85956 0.59403 0.0
C1450 C 0.51766 0.85361 0.61682 0.0
C1451 C 0.51104 0.86493 0.63118 0.0
C1452 C 0.49657 0.87549 0.62634 0.0
H1453 H 0.52235 0.85676 0.75496 0.0
H1454 H 0.52547 0.87578 0.7237 0.0
C1455 C 0.48663 0.87239 0.60802 0.0
C1456 C 0.51715 0.86346 0.65145 0.0
H1457 H 0.49053 0.84059 0.69484 0.0
C1458 C 0.54187 0.87219 0.65664 0.0
C1459 C 0.49839 0.85195 0.66545 0.0
C1460 C 0.47129 0.84041 0.66067 0.0
C1461 C 0.54822 0.86942 0.67538 0.0
C1462 C 0.52943 0.85786 0.6892 0.0
C1463 C 0.5049 0.84982 0.6842 0.0
C1464 C 0.53395 0.85095 0.70833 0.0
C1465 C 0.57484 0.87843 0.68028 0.0
C1466 C 0.5383 0.83113 0.71001 0.0
C1467 C 0.53613 0.81999 0.72772 0.0
C1468 C 0.52971 0.8286 0.74408 0.0
C1469 C 0.52736 0.84975 0.74262 0.0
C1470 C 0.52918 0.86066 0.7248 0.0
H1471 H 0.58758 0.89145 0.66936 0.0
H1472 H 0.57949 0.88768 0.69445 0.0
H1473 H 0.57783 0.86241 0.6811 0.0
H1474 H 0.54162 0.82315 0.6974 0.0
H1475 H 0.53822 0.80385 0.72844 0.0
H1476 H 0.11053 0.64615 0.5781 0.0
H1477 H 0.09437 0.65137 0.60879 0.0
H1478 H 0.16639 0.67951 0.63406 0.0
H1479 H 0.18228 0.67377 0.60384 0.0
H1480 H 0.09753 0.62503 0.64208 0.0
H1481 H 0.14139 0.72504 0.65587 0.0
H1482 H 0.13618 0.71225 0.63199 0.0
H1483 H 0.16271 0.71705 0.64552 0.0
C1484 C 0.12299 0.65417 0.5901 0.0
C1485 C 0.1476 0.65953 0.58874 0.0
C1486 C 0.11376 0.65709 0.60756 0.0
C1487 C 0.12927 0.6661 0.62359 0.0
C1488 C 0.15423 0.67298 0.62177 0.0
H1489 H 0.16449 0.64515 0.72369 0.0
H1490 H 0.14303 0.63939 0.69342 0.0
C1491 C 0.16327 0.66956 0.60456 0.0
C1492 C 0.11935 0.66473 0.64299 0.0
H1493 H 0.13606 0.69902 0.68374 0.0
C1494 C 0.10504 0.64125 0.65115 0.0
C1495 C 0.12873 0.68585 0.65476 0.0
C1496 C 0.1429 0.7115 0.64653 0.0
C1497 C 0.10291 0.63827 0.67105 0.0
C1498 C 0.11547 0.65925 0.68289 0.0
C1499 C 0.12668 0.68287 0.67466 0.0
C1500 C 0.1227 0.65719 0.70263 0.0
C1501 C 0.08914 0.6126 0.67926 0.0
C1502 C 0.11792 0.66856 0.71805 0.0
C1503 C 0.12999 0.67153 0.73556 0.0
C1504 C 0.14744 0.66379 0.73755 0.0
C1505 C 0.15103 0.65116 0.72248 0.0
C1506 C 0.13864 0.64773 0.70523 0.0
H1507 H 0.07366 0.60007 0.66978 0.0
H1508 H 0.10188 0.60514 0.68045 0.0
H1509 H 0.08177 0.61259 0.69371 0.0
H1510 H 0.10597 0.67629 0.71621 0.0
H1511 H 0.1272 0.6816 0.74696 0.0
H1512 H 0.40085 0.51805 0.60244 0.0
H1513 H 0.3912 0.50011 0.63448 0.0
H1514 H 0.31343 0.46532 0.62158 0.0
H1515 H 0.32323 0.48199 0.58912 0.0
H1516 H 0.37074 0.51396 0.65868 0.0
H1517 H 0.31178 0.41295 0.65411 0.0
H1518 H 0.32908 0.43128 0.63383 0.0
H1519 H 0.29923 0.42746 0.63947 0.0
C1520 C 0.38174 0.50582 0.6063 0.0
C1521 C 0.36274 0.50137 0.59346 0.0
C1522 C 0.37622 0.49558 0.62458 0.0
C1523 C 0.35157 0.48123 0.63053 0.0
C1524 C 0.33258 0.4757 0.61728 0.0
H1525 H 0.2721 0.47081 0.72841 0.0
H1526 H 0.28742 0.46631 0.69752 0.0
C1527 C 0.33816 0.4854 0.59876 0.0
C1528 C 0.34586 0.47594 0.6512 0.0
H1529 H 0.30633 0.43233 0.68271 0.0
C1530 C 0.35718 0.4959 0.66398 0.0
C1531 C 0.32811 0.45242 0.65822 0.0
C1532 C 0.31659 0.42981 0.64567 0.0
C1533 C 0.3502 0.49339 0.68321 0.0
C1534 C 0.33136 0.47032 0.6899 0.0
C1535 C 0.32078 0.45002 0.67746 0.0
C1536 C 0.32038 0.46817 0.70898 0.0
C1537 C 0.36195 0.51583 0.69601 0.0
C1538 C 0.33357 0.46997 0.72569 0.0
C1539 C 0.32486 0.47257 0.74348 0.0
C1540 C 0.30298 0.47367 0.74469 0.0
C1541 C 0.28919 0.4704 0.72796 0.0
C1542 C 0.29779 0.46761 0.7103 0.0
H1543 H 0.37489 0.53288 0.68814 0.0
H1544 H 0.34751 0.51866 0.70279 0.0
H1545 H 0.37233 0.51291 0.7076 0.0
H1546 H 0.35108 0.47045 0.72488 0.0
H1547 H 0.33584 0.47493 0.7561 0.0
loop_
_geom_bond_atom_site_label_1
_geom_bond_atom_site_label_2
_geom_bond_distance
_geom_bond_site_symmetry_2
_ccdc_geom_bond_type
Co0 O1 2.216 . S
Co0 O2 2.091 . S
Co0 O4 2.004 . S
Co0 O10 2.021 . S
Co0 O12 2.137 . S
Co0 O13 2.244 . S
O1 Co0 2.216 . S
O1 C8 1.247 . S
O2 Co0 2.091 . S
O2 C8 1.261 . S
C3 O12 1.247 . S
C3 O13 1.272 . S
O4 Co0 2.004 . S
O4 C9 1.259 . S
Co5 O6 2.061 . S
Co5 O11 2.052 . S
Co5 O13 2.135 . S
O6 Co5 2.061 . S
O6 C9 1.235 . S
C7 O10 1.238 . S
C7 O11 1.241 . S
C8 O1 1.247 . S
C8 O2 1.261 . S
C9 O4 1.259 . S
C9 O6 1.235 . S
O10 Co0 2.021 . S
O10 C7 1.238 . S
O11 Co5 2.052 . S
O11 C7 1.241 . S
O12 Co0 2.137 . S
O12 C3 1.247 . S
O13 Co0 2.244 . S
O13 C3 1.272 . S
O13 Co5 2.135 . S
Co14 O15 2.216 . S
Co14 O16 2.091 . S
Co14 O18 2.004 1_545 S
Co14 O24 2.021 1_545 S
Co14 O26 2.137 . S
Co14 O27 2.244 . S
O15 Co14 2.216 . S
O15 C22 1.247 . S
O16 Co14 2.091 . S
O16 C22 1.261 . S
C17 O26 1.247 . S
C17 O27 1.272 . S
O18 Co14 2.004 1_565 S
O18 C23 1.259 . S
Co19 O20 2.061 1_545 S
Co19 O25 2.052 . S
Co19 O27 2.135 . S
O20 Co19 2.061 1_565 S
O20 C23 1.235 . S
C21 O24 1.238 . S
C21 O25 1.241 1_565 S
C22 O15 1.247 . S
C22 O16 1.261 . S
C23 O18 1.259 . S
C23 O20 1.235 . S
O24 Co14 2.021 1_565 S
O24 C21 1.238 . S
O25 Co19 2.052 . S
O25 C21 1.241 1_545 S
O26 Co14 2.137 . S
O26 C17 1.247 . S
O27 Co14 2.244 . S
O27 C17 1.272 . S
O27 Co19 2.135 . S
Co28 O29 2.216 . S
Co28 O30 2.090 . S
Co28 O32 2.004 1_655 S
Co28 O38 2.021 1_655 S
Co28 O40 2.137 . S
Co28 O41 2.244 . S
O29 Co28 2.216 . S
O29 C36 1.247 . S
O30 Co28 2.090 . S
O30 C36 1.260 . S
C31 O40 1.247 . S
C31 O41 1.272 . S
O32 Co28 2.004 1_455 S
O32 C37 1.259 . S
Co33 O34 2.061 1_655 S
Co33 O39 2.052 . S
Co33 O41 2.135 . S
O34 Co33 2.061 1_455 S
O34 C37 1.235 . S
C35 O38 1.238 . S
C35 O39 1.241 1_455 S
C36 O29 1.247 . S
C36 O30 1.260 . S
C37 O32 1.259 . S
C37 O34 1.235 . S
O38 Co28 2.021 1_455 S
O38 C35 1.238 . S
O39 Co33 2.052 . S
O39 C35 1.241 1_655 S
O40 Co28 2.137 . S
O40 C31 1.247 . S
O41 Co28 2.244 . S
O41 C31 1.272 . S
O41 Co33 2.135 . S
Co42 O43 2.216 . S
Co42 O44 2.091 . S
Co42 O46 2.004 . S
Co42 O52 2.021 . S
Co42 O54 2.137 . S
Co42 O55 2.244 . S
O43 Co42 2.216 . S
O43 C50 1.247 . S
O44 Co42 2.091 . S
O44 C50 1.261 . S
C45 O54 1.247 . S
C45 O55 1.272 . S
O46 Co42 2.004 . S
O46 C51 1.259 . S
Co47 O48 2.061 . S
Co47 O53 2.052 . S
Co47 O55 2.135 . S
O48 Co47 2.061 . S
O48 C51 1.235 . S
C49 O52 1.238 . S
C49 O53 1.241 . S
C50 O43 1.247 . S
C50 O44 1.261 . S
C51 O46 1.259 . S
C51 O48 1.235 . S
O52 Co42 2.021 . S
O52 C49 1.238 . S
O53 Co47 2.052 . S
O53 C49 1.241 . S
O54 Co42 2.137 . S
O54 C45 1.247 . S
O55 Co42 2.244 . S
O55 C45 1.272 . S
O55 Co47 2.135 . S
Co56 O57 2.216 . S
Co56 O58 2.089 . S
Co56 O60 2.004 1_565 S
Co56 O66 2.021 1_565 S
Co56 O68 2.137 . S
Co56 O69 2.244 . S
O57 Co56 2.216 . S
O57 C64 1.247 . S
O58 Co56 2.089 . S
O58 C64 1.258 . S
C59 O68 1.247 . S
C59 O69 1.272 . S
O60 Co56 2.004 1_545 S
O60 C65 1.259 . S
Co61 O62 2.061 1_565 S
Co61 O67 2.052 . S
Co61 O69 2.135 . S
O62 Co61 2.061 1_545 S
O62 C65 1.235 . S
C63 O66 1.238 . S
C63 O67 1.241 1_545 S
C64 O57 1.247 . S
C64 O58 1.258 . S
C65 O60 1.259 . S
C65 O62 1.235 . S
O66 Co56 2.021 1_545 S
O66 C63 1.238 . S
O67 Co61 2.052 . S
O67 C63 1.241 1_565 S
O68 Co56 2.137 . S
O68 C59 1.247 . S
O69 Co56 2.244 . S
O69 C59 1.272 . S
O69 Co61 2.135 . S
Co70 O71 2.216 . S
Co70 O72 2.091 . S
Co70 O74 2.004 1_455 S
Co70 O80 2.021 1_455 S
Co70 O82 2.137 . S
Co70 O83 2.244 . S
O71 Co70 2.216 . S
O71 C78 1.247 . S
O72 Co70 2.091 . S
O72 C78 1.261 . S
C73 O82 1.247 . S
C73 O83 1.272 . S
O74 Co70 2.004 1_655 S
O74 C79 1.259 . S
Co75 O76 2.061 1_455 S
Co75 O81 2.052 . S
Co75 O83 2.135 . S
O76 Co75 2.061 1_655 S
O76 C79 1.235 . S
C77 O80 1.238 . S
C77 O81 1.241 1_655 S
C78 O71 1.247 . S
C78 O72 1.261 . S
C79 O74 1.259 . S
C79 O76 1.235 . S
O80 Co70 2.021 1_655 S
O80 C77 1.238 . S
O81 Co75 2.052 . S
O81 C77 1.241 1_455 S
O82 Co70 2.137 . S
O82 C73 1.247 . S
O83 Co70 2.244 . S
O83 C73 1.272 . S
O83 Co75 2.135 . S
Co84 O85 2.216 . S
Co84 O86 2.091 . S
Co84 O88 2.004 . S
Co84 O94 2.021 . S
Co84 O96 2.137 . S
Co84 O97 2.244 . S
O85 Co84 2.216 . S
O85 C92 1.247 . S
O86 Co84 2.091 . S
O86 C92 1.261 . S
C87 O96 1.247 . S
C87 O97 1.272 . S
O88 Co84 2.004 . S
O88 C93 1.259 . S
Co89 O90 2.061 . S
Co89 O95 2.052 . S
Co89 O97 2.135 . S
O90 Co89 2.061 . S
O90 C93 1.235 . S
C91 O94 1.238 . S
C91 O95 1.241 . S
C92 O85 1.247 . S
C92 O86 1.261 . S
C93 O88 1.259 . S
C93 O90 1.235 . S
O94 Co84 2.021 . S
O94 C91 1.238 . S
O95 Co89 2.052 . S
O95 C91 1.241 . S
O96 Co84 2.137 . S
O96 C87 1.247 . S
O97 Co84 2.244 . S
O97 C87 1.272 . S
O97 Co89 2.135 . S
Co98 O99 2.216 . S
Co98 O100 2.091 . S
Co98 O102 2.004 . S
Co98 O108 2.021 . S
Co98 O110 2.137 . S
Co98 O111 2.244 . S
O99 Co98 2.216 . S
O99 C106 1.247 . S
O100 Co98 2.091 . S
O100 C106 1.261 . S
C101 O110 1.247 . S
C101 O111 1.272 . S
O102 Co98 2.004 . S
O102 C107 1.259 . S
Co103 O104 2.061 . S
Co103 O109 2.052 . S
Co103 O111 2.135 . S
O104 Co103 2.061 . S
O104 C107 1.235 . S
C105 O108 1.238 . S
C105 O109 1.241 . S
C106 O99 1.247 . S
C106 O100 1.261 . S
C107 O102 1.259 . S
C107 O104 1.235 . S
O108 Co98 2.021 . S
O108 C105 1.238 . S
O109 Co103 2.052 . S
O109 C105 1.241 . S
O110 Co98 2.137 . S
O110 C101 1.247 . S
O111 Co98 2.244 . S
O111 C101 1.272 . S
O111 Co103 2.135 . S
Co112 O113 2.216 . S
Co112 O114 2.091 . S
Co112 O116 2.004 . S
Co112 O122 2.021 . S
Co112 O124 2.137 . S
Co112 O125 2.244 . S
O113 Co112 2.216 . S
O113 C120 1.247 . S
O114 Co112 2.091 . S
O114 C120 1.261 . S
C115 O124 1.247 . S
C115 O125 1.272 . S
O116 Co112 2.004 . S
O116 C121 1.259 . S
Co117 O118 2.061 . S
Co117 O123 2.052 . S
Co117 O125 2.135 . S
O118 Co117 2.061 . S
O118 C121 1.235 . S
C119 O122 1.238 . S
C119 O123 1.241 . S
C120 O113 1.247 . S
C120 O114 1.261 . S
C121 O116 1.259 . S
C121 O118 1.235 . S
O122 Co112 2.021 . S
O122 C119 1.238 . S
O123 Co117 2.052 . S
O123 C119 1.241 . S
O124 Co112 2.137 . S
O124 C115 1.247 . S
O125 Co112 2.244 . S
O125 C115 1.272 . S
O125 Co117 2.135 . S
Co126 O127 2.216 . S
Co126 O128 2.091 . S
Co126 O130 2.004 . S
Co126 O136 2.021 . S
Co126 O138 2.137 . S
Co126 O139 2.244 . S
O127 Co126 2.216 . S
O127 C134 1.247 . S
O128 Co126 2.091 . S
O128 C134 1.261 . S
C129 O138 1.247 . S
C129 O139 1.272 . S
O130 Co126 2.004 . S
O130 C135 1.259 . S
Co131 O132 2.061 . S
Co131 O137 2.052 . S
Co131 O139 2.135 . S
O132 Co131 2.061 . S
O132 C135 1.235 . S
C133 O136 1.238 . S
C133 O137 1.241 . S
C134 O127 1.247 . S
C134 O128 1.261 . S
C135 O130 1.259 . S
C135 O132 1.235 . S
O136 Co126 2.021 . S
O136 C133 1.238 . S
O137 Co131 2.052 . S
O137 C133 1.241 . S
O138 Co126 2.137 . S
O138 C129 1.247 . S
O139 Co126 2.244 . S
O139 C129 1.272 . S
O139 Co131 2.135 . S
Co140 O141 2.216 . S
Co140 O142 2.091 . S
Co140 O144 2.004 . S
Co140 O150 2.021 . S
Co140 O152 2.137 . S
Co140 O153 2.244 . S
O141 Co140 2.216 . S
O141 C148 1.247 . S
O142 Co140 2.091 . S
O142 C148 1.261 . S
C143 O152 1.247 . S
C143 O153 1.272 . S
O144 Co140 2.004 . S
O144 C149 1.259 . S
Co145 O146 2.061 . S
Co145 O151 2.052 . S
Co145 O153 2.135 . S
O146 Co145 2.061 . S
O146 C149 1.235 . S
C147 O150 1.238 . S
C147 O151 1.241 . S
C148 O141 1.247 . S
C148 O142 1.261 . S
C149 O144 1.259 . S
C149 O146 1.235 . S
O150 Co140 2.021 . S
O150 C147 1.238 . S
O151 Co145 2.052 . S
O151 C147 1.241 . S
O152 Co140 2.137 . S
O152 C143 1.247 . S
O153 Co140 2.244 . S
O153 C143 1.272 . S
O153 Co145 2.135 . S
Co154 O155 2.216 . S
Co154 O156 2.091 . S
Co154 O158 2.004 . S
Co154 O164 2.021 . S
Co154 O166 2.137 . S
Co154 O167 2.244 . S
O155 Co154 2.216 . S
O155 C162 1.247 . S
O156 Co154 2.091 . S
O156 C162 1.261 . S
C157 O166 1.247 . S
C157 O167 1.272 . S
O158 Co154 2.004 . S
O158 C163 1.259 . S
Co159 O160 2.061 . S
Co159 O165 2.052 . S
Co159 O167 2.135 . S
O160 Co159 2.061 . S
O160 C163 1.235 . S
C161 O164 1.238 . S
C161 O165 1.241 . S
C162 O155 1.247 . S
C162 O156 1.261 . S
C163 O158 1.259 . S
C163 O160 1.235 . S
O164 Co154 2.021 . S
O164 C161 1.238 . S
O165 Co159 2.052 . S
O165 C161 1.241 . S
O166 Co154 2.137 . S
O166 C157 1.247 . S
O167 Co154 2.244 . S
O167 C157 1.272 . S
O167 Co159 2.135 . S
Co168 O169 2.216 . S
Co168 O170 2.091 . S
Co168 O172 2.004 . S
Co168 O178 2.021 . S
Co168 O180 2.137 . S
Co168 O181 2.244 . S
O169 Co168 2.216 . S
O169 C176 1.247 . S
O170 Co168 2.091 . S
O170 C176 1.261 . S
C171 O180 1.247 . S
C171 O181 1.272 . S
O172 Co168 2.004 . S
O172 C177 1.259 . S
Co173 O174 2.061 . S
Co173 O179 2.052 . S
Co173 O181 2.135 . S
O174 Co173 2.061 . S
O174 C177 1.235 . S
C175 O178 1.238 . S
C175 O179 1.241 . S
C176 O169 1.247 . S
C176 O170 1.261 . S
C177 O172 1.259 . S
C177 O174 1.235 . S
O178 Co168 2.021 . S
O178 C175 1.238 . S
O179 Co173 2.052 . S
O179 C175 1.241 . S
O180 Co168 2.137 . S
O180 C171 1.247 . S
O181 Co168 2.244 . S
O181 C171 1.272 . S
O181 Co173 2.135 . S
Co182 O183 2.216 . S
Co182 O184 2.091 . S
Co182 O186 2.004 . S
Co182 O192 2.021 . S
Co182 O194 2.137 . S
Co182 O195 2.244 . S
O183 Co182 2.216 . S
O183 C190 1.247 . S
O184 Co182 2.091 . S
O184 C190 1.261 . S
C185 O194 1.247 . S
C185 O195 1.272 . S
O186 Co182 2.004 . S
O186 C191 1.259 . S
Co187 O188 2.061 . S
Co187 O193 2.052 . S
Co187 O195 2.135 . S
O188 Co187 2.061 . S
O188 C191 1.235 . S
C189 O192 1.238 . S
C189 O193 1.241 . S
C190 O183 1.247 . S
C190 O184 1.261 . S
C191 O186 1.259 . S
C191 O188 1.235 . S
O192 Co182 2.021 . S
O192 C189 1.238 . S
O193 Co187 2.052 . S
O193 C189 1.241 . S
O194 Co182 2.137 . S
O194 C185 1.247 . S
O195 Co182 2.244 . S
O195 C185 1.272 . S
O195 Co187 2.135 . S
Co196 O197 2.216 . S
Co196 O198 2.091 . S
Co196 O200 2.004 . S
Co196 O206 2.021 . S
Co196 O208 2.137 . S
Co196 O209 2.244 . S
O197 Co196 2.216 . S
O197 C204 1.247 . S
O198 Co196 2.091 . S
O198 C204 1.261 . S
C199 O208 1.247 . S
C199 O209 1.272 . S
O200 Co196 2.004 . S
O200 C205 1.259 . S
Co201 O202 2.061 . S
Co201 O207 2.052 . S
Co201 O209 2.135 . S
O202 Co201 2.061 . S
O202 C205 1.235 . S
C203 O206 1.238 . S
C203 O207 1.241 . S
C204 O197 1.247 . S
C204 O198 1.261 . S
C205 O200 1.259 . S
C205 O202 1.235 . S
O206 Co196 2.021 . S
O206 C203 1.238 . S
O207 Co201 2.052 . S
O207 C203 1.241 . S
O208 Co196 2.137 . S
O208 C199 1.247 . S
O209 Co196 2.244 . S
O209 C199 1.272 . S
O209 Co201 2.135 . S
Co210 O211 2.216 . S
Co210 O212 2.091 . S
Co210 O214 2.004 . S
Co210 O220 2.021 . S
Co210 O222 2.137 . S
Co210 O223 2.244 . S
O211 Co210 2.216 . S
O211 C218 1.247 . S
O212 Co210 2.091 . S
O212 C218 1.261 . S
C213 O222 1.247 . S
C213 O223 1.272 . S
O214 Co210 2.004 . S
O214 C219 1.259 . S
Co215 O216 2.061 . S
Co215 O221 2.052 . S
Co215 O223 2.135 . S
O216 Co215 2.061 . S
O216 C219 1.235 . S
C217 O220 1.238 . S
C217 O221 1.241 . S
C218 O211 1.247 . S
C218 O212 1.261 . S
C219 O214 1.259 . S
C219 O216 1.235 . S
O220 Co210 2.021 . S
O220 C217 1.238 . S
O221 Co215 2.052 . S
O221 C217 1.241 . S
O222 Co210 2.137 . S
O222 C213 1.247 . S
O223 Co210 2.244 . S
O223 C213 1.272 . S
O223 Co215 2.135 . S
Co224 O225 2.216 . S
Co224 O226 2.091 . S
Co224 O228 2.004 . S
Co224 O234 2.021 . S
Co224 O236 2.137 . S
Co224 O237 2.244 . S
O225 Co224 2.216 . S
O225 C232 1.247 . S
O226 Co224 2.091 . S
O226 C232 1.261 . S
C227 O236 1.247 . S
C227 O237 1.272 . S
O228 Co224 2.004 . S
O228 C233 1.259 . S
Co229 O230 2.061 . S
Co229 O235 2.052 . S
Co229 O237 2.135 . S
O230 Co229 2.061 . S
O230 C233 1.235 . S
C231 O234 1.238 . S
C231 O235 1.241 . S
C232 O225 1.247 . S
C232 O226 1.261 . S
C233 O228 1.259 . S
C233 O230 1.235 . S
O234 Co224 2.021 . S
O234 C231 1.238 . S
O235 Co229 2.052 . S
O235 C231 1.241 . S
O236 Co224 2.137 . S
O236 C227 1.247 . S
O237 Co224 2.244 . S
O237 C227 1.272 . S
O237 Co229 2.135 . S
Co238 O239 2.216 . S
Co238 O240 2.091 . S
Co238 O242 2.004 . S
Co238 O248 2.021 . S
Co238 O250 2.137 . S
Co238 O251 2.244 . S
O239 Co238 2.216 . S
O239 C246 1.247 . S
O240 Co238 2.091 . S
O240 C246 1.261 . S
C241 O250 1.247 . S
C241 O251 1.272 . S
O242 Co238 2.004 . S
O242 C247 1.259 . S
Co243 O244 2.061 . S
Co243 O249 2.052 . S
Co243 O251 2.135 . S
O244 Co243 2.061 . S
O244 C247 1.235 . S
C245 O248 1.238 . S
C245 O249 1.241 . S
C246 O239 1.247 . S
C246 O240 1.261 . S
C247 O242 1.259 . S
C247 O244 1.235 . S
O248 Co238 2.021 . S
O248 C245 1.238 . S
O249 Co243 2.052 . S
O249 C245 1.241 . S
O250 Co238 2.137 . S
O250 C241 1.247 . S
O251 Co238 2.244 . S
O251 C241 1.272 . S
O251 Co243 2.135 . S
H252 C260 0.929 . S
H253 C262 0.930 . S
H254 C264 0.930 . S
H255 C267 0.929 . S
H256 C270 0.930 . S
H257 C272 0.960 . S
H258 C272 0.960 . S
H259 C272 0.960 . S
C260 H252 0.929 . S
C260 C261 1.377 . S
C260 C262 1.384 . S
C261 C260 1.377 . S
C261 C267 1.390 . S
C262 H253 0.930 . S
C262 C260 1.384 . S
C262 C263 1.372 . S
C263 C262 1.372 . S
C263 C264 1.400 . S
C263 C268 1.490 . S
C264 H254 0.930 . S
C264 C263 1.400 . S
C264 C267 1.386 . S
H265 C281 0.930 . S
H266 C282 0.931 . S
C267 H255 0.929 . S
C267 C261 1.390 . S
C267 C264 1.386 . S
C268 C263 1.490 . S
C268 C270 1.395 . S
C268 C271 1.403 . S
H269 C275 0.930 . S
C270 H256 0.930 . S
C270 C268 1.395 . S
C270 C273 1.403 . S
C271 C268 1.403 . S
C271 C272 1.524 . S
C271 C275 1.400 . S
C272 H257 0.960 . S
C272 H258 0.960 . S
C272 H259 0.960 . S
C272 C271 1.524 . S
C273 C270 1.403 . S
C273 C274 1.392 . S
C273 C277 1.495 . S
C274 C273 1.392 . S
C274 C275 1.385 . S
C274 C276 1.478 . S
C275 H269 0.930 . S
C275 C271 1.400 . S
C275 C274 1.385 . S
C276 C274 1.478 . S
C276 C278 1.381 . S
C276 C282 1.383 . S
C277 C273 1.495 . S
C277 H283 0.959 . S
C277 H284 0.961 . S
C277 H285 0.960 . S
C278 C276 1.381 . S
C278 C279 1.394 . S
C278 H286 0.930 . S
C279 C278 1.394 . S
C279 C280 1.383 . S
C279 H287 0.929 . S
C280 C279 1.383 . S
C280 C281 1.377 . S
C281 H265 0.930 . S
C281 C280 1.377 . S
C281 C282 1.379 . S
C282 H266 0.931 . S
C282 C276 1.383 . S
C282 C281 1.379 . S
H283 C277 0.959 . S
H284 C277 0.961 . S
H285 C277 0.960 . S
H286 C278 0.930 . S
H287 C279 0.929 . S
H288 C296 0.929 . S
H289 C298 0.930 . S
H290 C300 0.930 . S
H291 C303 0.929 . S
H292 C306 0.930 . S
H293 C308 0.960 . S
H294 C308 0.960 . S
H295 C308 0.960 . S
C296 H288 0.929 . S
C296 C297 1.377 . S
C296 C298 1.384 . S
C297 C296 1.377 . S
C297 C303 1.390 . S
C298 H289 0.930 . S
C298 C296 1.384 . S
C298 C299 1.372 . S
C299 C298 1.372 . S
C299 C300 1.400 . S
C299 C304 1.490 . S
C300 H290 0.930 . S
C300 C299 1.400 . S
C300 C303 1.386 . S
H301 C317 0.930 . S
H302 C318 0.931 . S
C303 H291 0.929 . S
C303 C297 1.390 . S
C303 C300 1.386 . S
C304 C299 1.490 . S
C304 C306 1.395 . S
C304 C307 1.403 . S
H305 C311 0.930 . S
C306 H292 0.930 . S
C306 C304 1.395 . S
C306 C309 1.403 . S
C307 C304 1.403 . S
C307 C308 1.524 . S
C307 C311 1.400 . S
C308 H293 0.960 . S
C308 H294 0.960 . S
C308 H295 0.960 . S
C308 C307 1.524 . S
C309 C306 1.403 . S
C309 C310 1.392 . S
C309 C313 1.495 . S
C310 C309 1.392 . S
C310 C311 1.385 . S
C310 C312 1.478 . S
C311 H305 0.930 . S
C311 C307 1.400 . S
C311 C310 1.385 . S
C312 C310 1.478 . S
C312 C314 1.381 . S
C312 C318 1.383 . S
C313 C309 1.495 . S
C313 H319 0.959 . S
C313 H320 0.961 . S
C313 H321 0.960 . S
C314 C312 1.381 . S
C314 C315 1.394 . S
C314 H322 0.930 . S
C315 C314 1.394 . S
C315 C316 1.383 . S
C315 H323 0.929 . S
C316 C315 1.383 . S
C316 C317 1.377 . S
C317 H301 0.930 . S
C317 C316 1.377 . S
C317 C318 1.379 . S
C318 H302 0.931 . S
C318 C312 1.383 . S
C318 C317 1.379 . S
H319 C313 0.959 . S
H320 C313 0.961 . S
H321 C313 0.960 . S
H322 C314 0.930 . S
H323 C315 0.929 . S
H324 C332 0.929 . S
H325 C334 0.930 . S
H326 C336 0.930 . S
H327 C339 0.929 . S
H328 C342 0.930 . S
H329 C344 0.960 . S
H330 C344 0.960 . S
H331 C344 0.960 . S
C332 H324 0.929 . S
C332 C333 1.377 . S
C332 C334 1.384 . S
C333 C332 1.377 . S
C333 C339 1.390 . S
C334 H325 0.930 . S
C334 C332 1.384 . S
C334 C335 1.372 . S
C335 C334 1.372 . S
C335 C336 1.400 . S
C335 C340 1.490 . S
C336 H326 0.930 . S
C336 C335 1.400 . S
C336 C339 1.386 . S
H337 C353 0.930 . S
H338 C354 0.931 . S
C339 H327 0.929 . S
C339 C333 1.390 . S
C339 C336 1.386 . S
C340 C335 1.490 . S
C340 C342 1.395 . S
C340 C343 1.403 . S
H341 C347 0.930 . S
C342 H328 0.930 . S
C342 C340 1.395 . S
C342 C345 1.403 . S
C343 C340 1.403 . S
C343 C344 1.524 . S
C343 C347 1.400 . S
C344 H329 0.960 . S
C344 H330 0.960 . S
C344 H331 0.960 . S
C344 C343 1.524 . S
C345 C342 1.403 . S
C345 C346 1.392 . S
C345 C349 1.495 . S
C346 C345 1.392 . S
C346 C347 1.385 . S
C346 C348 1.478 . S
C347 H341 0.930 . S
C347 C343 1.400 . S
C347 C346 1.385 . S
C348 C346 1.478 . S
C348 C350 1.381 . S
C348 C354 1.383 . S
C349 C345 1.495 . S
C349 H355 0.959 . S
C349 H356 0.961 . S
C349 H357 0.960 . S
C350 C348 1.381 . S
C350 C351 1.394 . S
C350 H358 0.930 . S
C351 C350 1.394 . S
C351 C352 1.383 . S
C351 H359 0.974 . S
C352 C351 1.383 . S
C352 C353 1.377 . S
C353 H337 0.930 . S
C353 C352 1.377 . S
C353 C354 1.379 . S
C354 H338 0.931 . S
C354 C348 1.383 . S
C354 C353 1.379 . S
H355 C349 0.959 . S
H356 C349 0.961 . S
H357 C349 0.960 . S
H358 C350 0.930 . S
H359 C351 0.974 . S
H360 C368 0.929 . S
H361 C370 0.930 . S
H362 C372 0.930 . S
H363 C375 0.929 . S
H364 C378 0.930 . S
H365 C380 0.960 . S
H366 C380 0.960 . S
H367 C380 0.960 . S
C368 H360 0.929 . S
C368 C369 1.377 . S
C368 C370 1.384 . S
C369 C368 1.377 . S
C369 C375 1.390 . S
C370 H361 0.930 . S
C370 C368 1.384 . S
C370 C371 1.372 . S
C371 C370 1.372 . S
C371 C372 1.400 . S
C371 C376 1.490 . S
C372 H362 0.930 . S
C372 C371 1.400 . S
C372 C375 1.386 . S
H373 C389 0.930 . S
H374 C390 0.931 . S
C375 H363 0.929 . S
C375 C369 1.390 . S
C375 C372 1.386 . S
C376 C371 1.490 . S
C376 C378 1.395 . S
C376 C379 1.403 . S
H377 C383 0.930 . S
C378 H364 0.930 . S
C378 C376 1.395 . S
C378 C381 1.403 . S
C379 C376 1.403 . S
C379 C380 1.524 . S
C379 C383 1.400 . S
C380 H365 0.960 . S
C380 H366 0.960 . S
C380 H367 0.960 . S
C380 C379 1.524 . S
C381 C378 1.403 . S
C381 C382 1.392 . S
C381 C385 1.495 . S
C382 C381 1.392 . S
C382 C383 1.385 . S
C382 C384 1.478 . S
C383 H377 0.930 . S
C383 C379 1.400 . S
C383 C382 1.385 . S
C384 C382 1.478 . S
C384 C386 1.381 . S
C384 C390 1.383 . S
C385 C381 1.495 . S
C385 H391 0.959 . S
C385 H392 0.961 . S
C385 H393 0.960 . S
C386 C384 1.381 . S
C386 C387 1.394 . S
C386 H394 0.930 . S
C387 C386 1.394 . S
C387 C388 1.383 . S
C387 H395 0.929 . S
C388 C387 1.383 . S
C388 C389 1.377 . S
C389 H373 0.930 . S
C389 C388 1.377 . S
C389 C390 1.379 . S
C390 H374 0.931 . S
C390 C384 1.383 . S
C390 C389 1.379 . S
H391 C385 0.959 . S
H392 C385 0.961 . S
H393 C385 0.960 . S
H394 C386 0.930 . S
H395 C387 0.929 . S
H396 C404 0.929 . S
H397 C406 0.930 . S
H398 C408 0.930 . S
H399 C411 0.944 . S
H400 C414 0.930 . S
H401 C416 0.960 . S
H402 C416 0.960 . S
H403 C416 0.960 . S
C404 H396 0.929 . S
C404 C405 1.377 . S
C404 C406 1.384 . S
C405 C404 1.377 . S
C405 C411 1.390 . S
C406 H397 0.930 . S
C406 C404 1.384 . S
C406 C407 1.372 . S
C407 C406 1.372 . S
C407 C408 1.400 . S
C407 C412 1.490 . S
C408 H398 0.930 . S
C408 C407 1.400 . S
C408 C411 1.386 . S
H409 C425 0.930 . S
H410 C426 0.931 . S
C411 H399 0.944 . S
C411 C405 1.390 . S
C411 C408 1.386 . S
C412 C407 1.490 . S
C412 C414 1.395 . S
C412 C415 1.403 . S
H413 C419 0.930 . S
C414 H400 0.930 . S
C414 C412 1.395 . S
C414 C417 1.403 . S
C415 C412 1.403 . S
C415 C416 1.524 . S
C415 C419 1.400 . S
C416 H401 0.960 . S
C416 H402 0.960 . S
C416 H403 0.960 . S
C416 C415 1.524 . S
C417 C414 1.403 . S
C417 C418 1.392 . S
C417 C421 1.495 . S
C418 C417 1.392 . S
C418 C419 1.385 . S
C418 C420 1.478 . S
C419 H413 0.930 . S
C419 C415 1.400 . S
C419 C418 1.385 . S
C420 C418 1.478 . S
C420 C422 1.381 . S
C420 C426 1.383 . S
C421 C417 1.495 . S
C421 H427 0.959 . S
C421 H428 0.961 . S
C421 H429 0.960 . S
C422 C420 1.381 . S
C422 C423 1.394 . S
C422 H430 0.930 . S
C423 C422 1.394 . S
C423 C424 1.383 . S
C423 H431 0.929 . S
C424 C423 1.383 . S
C424 C425 1.377 . S
C425 H409 0.930 . S
C425 C424 1.377 . S
C425 C426 1.379 . S
C426 H410 0.931 . S
C426 C420 1.383 . S
C426 C425 1.379 . S
H427 C421 0.959 . S
H428 C421 0.961 . S
H429 C421 0.960 . S
H430 C422 0.930 . S
H431 C423 0.929 . S
H432 C440 0.929 . S
H433 C442 0.930 . S
H434 C444 0.930 . S
H435 C447 0.929 . S
H436 C450 0.930 . S
H437 C452 0.960 . S
H438 C452 0.960 . S
H439 C452 0.960 . S
C440 H432 0.929 . S
C440 C441 1.377 . S
C440 C442 1.384 . S
C441 C440 1.377 . S
C441 C447 1.390 . S
C442 H433 0.930 . S
C442 C440 1.384 . S
C442 C443 1.372 . S
C443 C442 1.372 . S
C443 C444 1.400 . S
C443 C448 1.490 . S
C444 H434 0.930 . S
C444 C443 1.400 . S
C444 C447 1.386 . S
H445 C461 0.930 . S
H446 C462 0.931 . S
C447 H435 0.929 . S
C447 C441 1.390 . S
C447 C444 1.386 . S
C448 C443 1.490 . S
C448 C450 1.395 . S
C448 C451 1.403 . S
H449 C455 0.930 . S
C450 H436 0.930 . S
C450 C448 1.395 . S
C450 C453 1.403 . S
C451 C448 1.403 . S
C451 C452 1.524 . S
C451 C455 1.400 . S
C452 H437 0.960 . S
C452 H438 0.960 . S
C452 H439 0.960 . S
C452 C451 1.524 . S
C453 C450 1.403 . S
C453 C454 1.392 . S
C453 C457 1.495 . S
C454 C453 1.392 . S
C454 C455 1.385 . S
C454 C456 1.478 . S
C455 H449 0.930 . S
C455 C451 1.400 . S
C455 C454 1.385 . S
C456 C454 1.478 . S
C456 C458 1.381 . S
C456 C462 1.383 . S
C457 C453 1.495 . S
C457 H463 0.959 . S
C457 H464 0.961 . S
C457 H465 0.960 . S
C458 C456 1.381 . S
C458 C459 1.394 . S
C458 H466 0.930 . S
C459 C458 1.394 . S
C459 C460 1.383 . S
C459 H467 0.929 . S
C460 C459 1.383 . S
C460 C461 1.377 . S
C461 H445 0.930 . S
C461 C460 1.377 . S
C461 C462 1.379 . S
C462 H446 0.931 . S
C462 C456 1.383 . S
C462 C461 1.379 . S
H463 C457 0.959 . S
H464 C457 0.961 . S
H465 C457 0.960 . S
H466 C458 0.930 . S
H467 C459 0.929 . S
H468 C476 0.929 . S
H469 C478 0.930 . S
H470 C480 0.930 . S
H471 C483 0.929 . S
H472 C486 0.930 . S
H473 C488 0.960 . S
H474 C488 0.960 . S
H475 C488 0.960 . S
C476 H468 0.929 . S
C476 C477 1.377 . S
C476 C478 1.384 . S
C477 C476 1.377 . S
C477 C483 1.390 . S
C478 H469 0.930 . S
C478 C476 1.384 . S
C478 C479 1.372 . S
C479 C478 1.372 . S
C479 C480 1.400 . S
C479 C484 1.490 . S
C480 H470 0.930 . S
C480 C479 1.400 . S
C480 C483 1.386 . S
H481 C497 0.930 . S
H482 C498 0.931 . S
C483 H471 0.929 . S
C483 C477 1.390 . S
C483 C480 1.386 . S
C484 C479 1.490 . S
C484 C486 1.395 . S
C484 C487 1.403 . S
H485 C491 0.930 . S
C486 H472 0.930 . S
C486 C484 1.395 . S
C486 C489 1.403 1_655 S
C487 C484 1.403 . S
C487 C488 1.524 . S
C487 C491 1.400 1_655 S
C488 H473 0.960 . S
C488 H474 0.960 . S
C488 H475 0.960 . S
C488 C487 1.524 . S
C489 C486 1.403 1_455 S
C489 C490 1.392 . S
C489 C493 1.495 . S
C490 C489 1.392 . S
C490 C491 1.385 . S
C490 C492 1.478 . S
C491 H485 0.930 . S
C491 C487 1.400 1_455 S
C491 C490 1.385 . S
C492 C490 1.478 . S
C492 C494 1.381 . S
C492 C498 1.383 . S
C493 C489 1.495 . S
C493 H499 0.959 . S
C493 H500 0.961 . S
C493 H501 0.960 . S
C494 C492 1.381 . S
C494 C495 1.394 . S
C494 H502 0.930 . S
C495 C494 1.394 . S
C495 C496 1.383 . S
C495 H503 0.929 . S
C496 C495 1.383 . S
C496 C497 1.377 . S
C497 H481 0.930 . S
C497 C496 1.377 . S
C497 C498 1.379 . S
C498 H482 0.931 . S
C498 C492 1.383 . S
C498 C497 1.379 . S
H499 C493 0.959 . S
H500 C493 0.961 . S
H501 C493 0.960 . S
H502 C494 0.930 . S
H503 C495 0.929 . S
H504 C512 0.929 . S
H505 C514 0.930 . S
H506 C516 0.930 . S
H507 C519 0.929 . S
H508 C522 0.930 . S
H509 C524 0.960 . S
H510 C524 0.960 . S
H511 C524 0.960 . S
C512 H504 0.929 . S
C512 C513 1.377 . S
C512 C514 1.384 . S
C513 C512 1.377 . S
C513 C519 1.390 . S
C514 H505 0.930 . S
C514 C512 1.384 . S
C514 C515 1.372 . S
C515 C514 1.372 . S
C515 C516 1.400 . S
C515 C520 1.490 . S
C516 H506 0.930 . S
C516 C515 1.400 . S
C516 C519 1.386 . S
H517 C533 0.930 . S
H518 C534 0.931 . S
C519 H507 0.929 . S
C519 C513 1.390 . S
C519 C516 1.386 . S
C520 C515 1.490 . S
C520 C522 1.395 . S
C520 C523 1.403 . S
H521 C527 0.930 . S
C522 H508 0.930 . S
C522 C520 1.395 . S
C522 C525 1.403 . S
C523 C520 1.403 . S
C523 C524 1.524 . S
C523 C527 1.400 . S
C524 H509 0.960 . S
C524 H510 0.960 . S
C524 H511 0.960 . S
C524 C523 1.524 . S
C525 C522 1.403 . S
C525 C526 1.392 . S
C525 C529 1.495 . S
C526 C525 1.392 . S
C526 C527 1.385 . S
C526 C528 1.478 . S
C527 H521 0.930 . S
C527 C523 1.400 . S
C527 C526 1.385 . S
C528 C526 1.478 . S
C528 C530 1.381 . S
C528 C534 1.383 . S
C529 C525 1.495 . S
C529 H535 0.959 . S
C529 H536 0.961 . S
C529 H537 0.960 . S
C530 C528 1.381 . S
C530 C531 1.394 . S
C530 H538 0.930 . S
C531 C530 1.394 . S
C531 C532 1.383 . S
C531 H539 0.929 . S
C532 C531 1.383 . S
C532 C533 1.377 . S
C533 H517 0.930 . S
C533 C532 1.377 . S
C533 C534 1.379 . S
C534 H518 0.931 . S
C534 C528 1.383 . S
C534 C533 1.379 . S
H535 C529 0.959 . S
H536 C529 0.961 . S
H537 C529 0.960 . S
H538 C530 0.930 . S
H539 C531 0.929 . S
H540 C548 0.929 . S
H541 C550 0.930 . S
H542 C552 0.930 . S
H543 C555 0.929 . S
H544 C558 0.930 . S
H545 C560 0.960 . S
H546 C560 0.960 . S
H547 C560 0.960 . S
C548 H540 0.929 . S
C548 C549 1.377 . S
C548 C550 1.384 . S
C549 C548 1.377 . S
C549 C555 1.390 . S
C550 H541 0.930 . S
C550 C548 1.384 . S
C550 C551 1.372 . S
C551 C550 1.372 . S
C551 C552 1.400 . S
C551 C556 1.490 . S
C552 H542 0.930 . S
C552 C551 1.400 . S
C552 C555 1.386 . S
H553 C569 0.930 . S
H554 C570 0.931 . S
C555 H543 0.929 . S
C555 C549 1.390 . S
C555 C552 1.386 . S
C556 C551 1.490 . S
C556 C558 1.395 . S
C556 C559 1.403 . S
H557 C563 0.930 . S
C558 H544 0.930 . S
C558 C556 1.395 . S
C558 C561 1.403 1_545 S
C559 C556 1.403 . S
C559 C560 1.524 . S
C559 C563 1.400 1_545 S
C560 H545 0.960 . S
C560 H546 0.960 . S
C560 H547 0.960 . S
C560 C559 1.524 . S
C561 C558 1.403 1_565 S
C561 C562 1.392 . S
C561 C565 1.495 . S
C562 C561 1.392 . S
C562 C563 1.385 . S
C562 C564 1.478 . S
C563 H557 0.930 . S
C563 C559 1.400 1_565 S
C563 C562 1.385 . S
C564 C562 1.478 . S
C564 C566 1.381 . S
C564 C570 1.383 . S
C565 C561 1.495 . S
C565 H571 0.959 . S
C565 H572 0.961 . S
C565 H573 0.960 . S
C566 C564 1.381 . S
C566 C567 1.394 . S
C566 H574 0.930 . S
C567 C566 1.394 . S
C567 C568 1.383 . S
C567 H575 0.929 . S
C568 C567 1.383 . S
C568 C569 1.377 . S
C569 H553 0.930 . S
C569 C568 1.377 . S
C569 C570 1.379 . S
C570 H554 0.931 . S
C570 C564 1.383 . S
C570 C569 1.379 . S
H571 C565 0.959 . S
H572 C565 0.961 . S
H573 C565 0.960 . S
H574 C566 0.930 . S
H575 C567 0.929 . S
H576 C584 0.929 . S
H577 C586 0.930 . S
H578 C588 0.930 . S
H579 C591 0.929 . S
H580 C594 0.930 . S
H581 C596 0.960 . S
H582 C596 0.960 . S
H583 C596 0.960 . S
C584 H576 0.929 . S
C584 C585 1.377 . S
C584 C586 1.384 . S
C585 C584 1.377 . S
C585 C591 1.390 . S
C586 H577 0.930 . S
C586 C584 1.384 . S
C586 C587 1.372 . S
C587 C586 1.372 . S
C587 C588 1.400 . S
C587 C592 1.490 . S
C588 H578 0.930 . S
C588 C587 1.400 . S
C588 C591 1.386 . S
H589 C605 0.930 . S
H590 C606 0.931 . S
C591 H579 0.929 . S
C591 C585 1.390 . S
C591 C588 1.386 . S
C592 C587 1.490 . S
C592 C594 1.395 . S
C592 C595 1.403 . S
H593 C599 0.930 . S
C594 H580 0.930 . S
C594 C592 1.395 . S
C594 C597 1.403 1_455 S
C595 C592 1.403 . S
C595 C596 1.524 . S
C595 C599 1.400 1_455 S
C596 H581 0.960 . S
C596 H582 0.960 . S
C596 H583 0.960 . S
C596 C595 1.524 . S
C597 C594 1.403 1_655 S
C597 C598 1.392 . S
C597 C601 1.495 . S
C598 C597 1.392 . S
C598 C599 1.385 . S
C598 C600 1.478 . S
C599 H593 0.930 . S
C599 C595 1.400 1_655 S
C599 C598 1.385 . S
C600 C598 1.478 . S
C600 C602 1.381 . S
C600 C606 1.383 . S
C601 C597 1.495 . S
C601 H607 0.959 . S
C601 H608 0.961 . S
C601 H609 0.960 . S
C602 C600 1.381 . S
C602 C603 1.394 . S
C602 H610 0.930 . S
C603 C602 1.394 . S
C603 C604 1.383 . S
C603 H611 0.929 . S
C604 C603 1.383 . S
C604 C605 1.377 . S
C605 H589 0.930 . S
C605 C604 1.377 . S
C605 C606 1.379 . S
C606 H590 0.931 . S
C606 C600 1.383 . S
C606 C605 1.379 . S
H607 C601 0.959 . S
H608 C601 0.961 . S
H609 C601 0.960 . S
H610 C602 0.930 . S
H611 C603 0.929 . S
H612 C620 0.929 . S
H613 C622 0.930 . S
H614 C624 0.930 . S
H615 C627 0.929 . S
H616 C630 0.930 . S
H617 C632 0.960 . S
H618 C632 0.960 . S
H619 C632 0.960 . S
C620 H612 0.929 . S
C620 C621 1.377 . S
C620 C622 1.384 . S
C621 C620 1.377 . S
C621 C627 1.390 . S
C622 H613 0.930 . S
C622 C620 1.384 . S
C622 C623 1.372 . S
C623 C622 1.372 . S
C623 C624 1.400 . S
C623 C628 1.490 . S
C624 H614 0.930 . S
C624 C623 1.400 . S
C624 C627 1.386 . S
H625 C641 0.930 . S
H626 C642 0.931 . S
C627 H615 0.929 . S
C627 C621 1.390 . S
C627 C624 1.386 . S
C628 C623 1.490 . S
C628 C630 1.395 . S
C628 C631 1.403 . S
H629 C635 0.930 . S
C630 H616 0.930 . S
C630 C628 1.395 . S
C630 C633 1.403 . S
C631 C628 1.403 . S
C631 C632 1.524 . S
C631 C635 1.400 . S
C632 H617 0.960 . S
C632 H618 0.960 . S
C632 H619 0.960 . S
C632 C631 1.524 . S
C633 C630 1.403 . S
C633 C634 1.392 . S
C633 C637 1.495 . S
C634 C633 1.392 . S
C634 C635 1.385 . S
C634 C636 1.478 . S
C635 H629 0.930 . S
C635 C631 1.400 . S
C635 C634 1.385 . S
C636 C634 1.478 . S
C636 C638 1.381 . S
C636 C642 1.383 . S
C637 C633 1.495 . S
C637 H643 0.959 . S
C637 H644 0.961 . S
C637 H645 0.960 . S
C638 C636 1.381 . S
C638 C639 1.394 . S
C638 H646 0.930 . S
C639 C638 1.394 . S
C639 C640 1.383 . S
C639 H647 0.929 . S
C640 C639 1.383 . S
C640 C641 1.377 . S
C641 H625 0.930 . S
C641 C640 1.377 . S
C641 C642 1.379 . S
C642 H626 0.931 . S
C642 C636 1.383 . S
C642 C641 1.379 . S
H643 C637 0.959 . S
H644 C637 0.961 . S
H645 C637 0.960 . S
H646 C638 0.930 . S
H647 C639 0.929 . S
H648 C656 0.929 . S
H649 C658 0.930 . S
H650 C660 0.930 . S
H651 C663 0.929 . S
H652 C666 0.930 . S
H653 C668 0.960 . S
H654 C668 0.960 . S
H655 C668 0.960 . S
C656 H648 0.929 . S
C656 C657 1.377 . S
C656 C658 1.384 . S
C657 C656 1.377 . S
C657 C663 1.390 . S
C658 H649 0.930 . S
C658 C656 1.384 . S
C658 C659 1.372 . S
C659 C658 1.372 . S
C659 C660 1.400 . S
C659 C664 1.490 . S
C660 H650 0.930 . S
C660 C659 1.400 . S
C660 C663 1.386 . S
H661 C677 0.930 . S
H662 C678 0.931 . S
C663 H651 0.929 . S
C663 C657 1.390 . S
C663 C660 1.386 . S
C664 C659 1.490 . S
C664 C666 1.395 . S
C664 C667 1.403 . S
H665 C671 0.930 . S
C666 H652 0.930 . S
C666 C664 1.395 . S
C666 C669 1.403 1_545 S
C667 C664 1.403 . S
C667 C668 1.524 . S
C667 C671 1.400 1_545 S
C668 H653 0.960 . S
C668 H654 0.960 . S
C668 H655 0.960 . S
C668 C667 1.524 . S
C669 C666 1.403 1_565 S
C669 C670 1.392 . S
C669 C673 1.495 . S
C670 C669 1.392 . S
C670 C671 1.385 . S
C670 C672 1.478 . S
C671 H665 0.930 . S
C671 C667 1.400 1_565 S
C671 C670 1.385 . S
C672 C670 1.478 . S
C672 C674 1.381 . S
C672 C678 1.383 . S
C673 C669 1.495 . S
C673 H679 0.959 . S
C673 H680 0.961 . S
C673 H681 0.960 . S
C674 C672 1.381 . S
C674 C675 1.394 . S
C674 H682 0.930 . S
C675 C674 1.394 . S
C675 C676 1.383 . S
C675 H683 0.929 . S
C676 C675 1.383 . S
C676 C677 1.377 . S
C677 H661 0.930 . S
C677 C676 1.377 . S
C677 C678 1.379 . S
C678 H662 0.931 . S
C678 C672 1.383 . S
C678 C677 1.379 . S
H679 C673 0.959 . S
H680 C673 0.961 . S
H681 C673 0.960 . S
H682 C674 0.930 . S
H683 C675 0.929 . S
H684 C692 0.929 . S
H685 C694 0.930 . S
H686 C696 0.930 . S
H687 C699 0.929 . S
H688 C702 0.930 . S
H689 C704 0.960 . S
H690 C704 0.960 . S
H691 C704 0.960 . S
C692 H684 0.929 . S
C692 C693 1.377 . S
C692 C694 1.384 . S
C693 C692 1.377 . S
C693 C699 1.390 . S
C694 H685 0.930 . S
C694 C692 1.384 . S
C694 C695 1.372 . S
C695 C694 1.372 . S
C695 C696 1.400 . S
C695 C700 1.490 . S
C696 H686 0.930 . S
C696 C695 1.400 . S
C696 C699 1.386 . S
H697 C713 0.930 . S
H698 C714 0.931 . S
C699 H687 0.929 . S
C699 C693 1.390 . S
C699 C696 1.386 . S
C700 C695 1.490 . S
C700 C702 1.395 . S
C700 C703 1.403 . S
H701 C707 0.930 . S
C702 H688 0.930 . S
C702 C700 1.395 . S
C702 C705 1.403 1_565 S
C703 C700 1.403 . S
C703 C704 1.524 . S
C703 C707 1.400 1_565 S
C704 H689 0.960 . S
C704 H690 0.960 . S
C704 H691 0.960 . S
C704 C703 1.524 . S
C705 C702 1.403 1_545 S
C705 C706 1.392 . S
C705 C709 1.495 . S
C706 C705 1.392 . S
C706 C707 1.385 . S
C706 C708 1.478 . S
C707 H701 0.930 . S
C707 C703 1.400 1_545 S
C707 C706 1.385 . S
C708 C706 1.478 . S
C708 C710 1.381 . S
C708 C714 1.383 . S
C709 C705 1.495 . S
C709 H715 0.959 . S
C709 H716 0.961 . S
C709 H717 0.960 . S
C710 C708 1.381 . S
C710 C711 1.394 . S
C710 H718 0.930 . S
C711 C710 1.394 . S
C711 C712 1.383 . S
C711 H719 0.929 . S
C712 C711 1.383 . S
C712 C713 1.377 . S
C713 H697 0.930 . S
C713 C712 1.377 . S
C713 C714 1.379 . S
C714 H698 0.931 . S
C714 C708 1.383 . S
C714 C713 1.379 . S
H715 C709 0.959 . S
H716 C709 0.961 . S
H717 C709 0.960 . S
H718 C710 0.930 . S
H719 C711 0.929 . S
H720 C728 0.929 . S
H721 C730 0.930 . S
H722 C732 0.930 . S
H723 C735 0.929 . S
H724 C738 0.930 . S
H725 C740 0.960 . S
H726 C740 0.960 . S
H727 C740 0.960 . S
C728 H720 0.929 . S
C728 C729 1.377 . S
C728 C730 1.384 . S
C729 C728 1.377 . S
C729 C735 1.390 . S
C730 H721 0.930 . S
C730 C728 1.384 . S
C730 C731 1.372 . S
C731 C730 1.372 . S
C731 C732 1.400 . S
C731 C736 1.490 . S
C732 H722 0.930 . S
C732 C731 1.400 . S
C732 C735 1.386 . S
H733 C749 0.930 . S
H734 C750 0.931 . S
C735 H723 0.929 . S
C735 C729 1.390 . S
C735 C732 1.386 . S
C736 C731 1.490 . S
C736 C738 1.395 . S
C736 C739 1.403 . S
H737 C743 0.930 . S
C738 H724 0.930 . S
C738 C736 1.395 . S
C738 C741 1.403 1_455 S
C739 C736 1.403 . S
C739 C740 1.524 . S
C739 C743 1.400 1_455 S
C740 H725 0.960 . S
C740 H726 0.960 . S
C740 H727 0.960 . S
C740 C739 1.524 . S
C741 C738 1.403 1_655 S
C741 C742 1.392 . S
C741 C745 1.495 . S
C742 C741 1.392 . S
C742 C743 1.385 . S
C742 C744 1.478 . S
C743 H737 0.930 . S
C743 C739 1.400 1_655 S
C743 C742 1.385 . S
C744 C742 1.478 . S
C744 C746 1.381 . S
C744 C750 1.383 . S
C745 C741 1.495 . S
C745 H751 0.959 . S
C745 H752 0.961 . S
C745 H753 0.960 . S
C746 C744 1.381 . S
C746 C747 1.394 . S
C746 H754 0.930 . S
C747 C746 1.394 . S
C747 C748 1.383 . S
C747 H755 0.929 . S
C748 C747 1.383 . S
C748 C749 1.377 . S
C749 H733 0.930 . S
C749 C748 1.377 . S
C749 C750 1.379 . S
C750 H734 0.931 . S
C750 C744 1.383 . S
C750 C749 1.379 . S
H751 C745 0.959 . S
H752 C745 0.961 . S
H753 C745 0.960 . S
H754 C746 0.930 . S
H755 C747 0.929 . S
H756 C764 0.929 . S
H757 C766 0.930 . S
H758 C768 0.930 . S
H759 C771 0.929 . S
H760 C774 0.930 . S
H761 C776 0.960 . S
H762 C776 0.960 . S
H763 C776 0.960 . S
C764 H756 0.929 . S
C764 C765 1.377 . S
C764 C766 1.384 . S
C765 C764 1.377 . S
C765 C771 1.390 . S
C766 H757 0.930 . S
C766 C764 1.384 . S
C766 C767 1.372 . S
C767 C766 1.372 . S
C767 C768 1.400 . S
C767 C772 1.490 . S
C768 H758 0.930 . S
C768 C767 1.400 . S
C768 C771 1.386 . S
H769 C785 0.930 . S
H770 C786 0.931 . S
C771 H759 0.929 . S
C771 C765 1.390 . S
C771 C768 1.386 . S
C772 C767 1.490 . S
C772 C774 1.395 . S
C772 C775 1.403 . S
H773 C779 0.930 . S
C774 H760 0.930 . S
C774 C772 1.395 . S
C774 C777 1.403 . S
C775 C772 1.403 . S
C775 C776 1.524 . S
C775 C779 1.400 . S
C776 H761 0.960 . S
C776 H762 0.960 . S
C776 H763 0.960 . S
C776 C775 1.524 . S
C777 C774 1.403 . S
C777 C778 1.392 . S
C777 C781 1.495 . S
C778 C777 1.392 . S
C778 C779 1.385 . S
C778 C780 1.478 . S
C779 H773 0.930 . S
C779 C775 1.400 . S
C779 C778 1.385 . S
C780 C778 1.478 . S
C780 C782 1.381 . S
C780 C786 1.383 . S
C781 C777 1.495 . S
C781 H787 0.959 . S
C781 H788 0.961 . S
C781 H789 0.960 . S
C782 C780 1.381 . S
C782 C783 1.394 . S
C782 H790 0.930 . S
C783 C782 1.394 . S
C783 C784 1.383 . S
C783 H791 0.929 . S
C784 C783 1.383 . S
C784 C785 1.377 . S
C785 H769 0.930 . S
C785 C784 1.377 . S
C785 C786 1.379 . S
C786 H770 0.931 . S
C786 C780 1.383 . S
C786 C785 1.379 . S
H787 C781 0.959 . S
H788 C781 0.961 . S
H789 C781 0.960 . S
H790 C782 0.930 . S
H791 C783 0.929 . S
H792 C800 0.929 . S
H793 C802 0.930 . S
H794 C804 0.930 . S
H795 C807 0.929 . S
H796 C810 0.930 . S
H797 C812 0.960 . S
H798 C812 0.960 . S
H799 C812 0.960 . S
C800 H792 0.929 . S
C800 C801 1.377 . S
C800 C802 1.384 . S
C801 C800 1.377 . S
C801 C807 1.390 . S
C802 H793 0.930 . S
C802 C800 1.384 . S
C802 C803 1.372 . S
C803 C802 1.372 . S
C803 C804 1.400 . S
C803 C808 1.490 . S
C804 H794 0.930 . S
C804 C803 1.400 . S
C804 C807 1.386 . S
H805 C821 0.930 . S
H806 C822 0.931 . S
C807 H795 0.929 . S
C807 C801 1.390 . S
C807 C804 1.386 . S
C808 C803 1.490 . S
C808 C810 1.395 . S
C808 C811 1.403 . S
H809 C815 0.930 . S
C810 H796 0.930 . S
C810 C808 1.395 . S
C810 C813 1.403 . S
C811 C808 1.403 . S
C811 C812 1.524 . S
C811 C815 1.400 . S
C812 H797 0.960 . S
C812 H798 0.960 . S
C812 H799 0.960 . S
C812 C811 1.524 . S
C813 C810 1.403 . S
C813 C814 1.392 . S
C813 C817 1.495 . S
C814 C813 1.392 . S
C814 C815 1.385 . S
C814 C816 1.478 . S
C815 H809 0.930 . S
C815 C811 1.400 . S
C815 C814 1.385 . S
C816 C814 1.478 . S
C816 C818 1.381 . S
C816 C822 1.383 . S
C817 C813 1.495 . S
C817 H823 0.959 . S
C817 H824 0.961 . S
C817 H825 0.960 . S
C818 C816 1.381 . S
C818 C819 1.394 . S
C818 H826 0.930 . S
C819 C818 1.394 . S
C819 C820 1.383 . S
C819 H827 0.929 . S
C820 C819 1.383 . S
C820 C821 1.377 . S
C821 H805 0.930 . S
C821 C820 1.377 . S
C821 C822 1.379 . S
C822 H806 0.931 . S
C822 C816 1.383 . S
C822 C821 1.379 . S
H823 C817 0.959 . S
H824 C817 0.961 . S
H825 C817 0.960 . S
H826 C818 0.930 . S
H827 C819 0.929 . S
H828 C836 0.929 . S
H829 C838 0.930 . S
H830 C840 0.930 . S
H831 C843 0.929 . S
H832 C846 0.930 . S
H833 C848 0.960 . S
H834 C848 0.960 . S
H835 C848 0.960 . S
C836 H828 0.929 . S
C836 C837 1.377 . S
C836 C838 1.384 . S
C837 C836 1.377 . S
C837 C843 1.390 . S
C838 H829 0.930 . S
C838 C836 1.384 . S
C838 C839 1.372 . S
C839 C838 1.372 . S
C839 C840 1.400 . S
C839 C844 1.490 . S
C840 H830 0.930 . S
C840 C839 1.400 . S
C840 C843 1.386 . S
H841 C857 0.930 . S
H842 C858 0.931 . S
C843 H831 0.929 . S
C843 C837 1.390 . S
C843 C840 1.386 . S
C844 C839 1.490 . S
C844 C846 1.395 . S
C844 C847 1.403 . S
H845 C851 0.930 . S
C846 H832 0.930 . S
C846 C844 1.395 . S
C846 C849 1.403 . S
C847 C844 1.403 . S
C847 C848 1.524 . S
C847 C851 1.400 . S
C848 H833 0.960 . S
C848 H834 0.960 . S
C848 H835 0.960 . S
C848 C847 1.524 . S
C849 C846 1.403 . S
C849 C850 1.392 . S
C849 C853 1.495 . S
C850 C849 1.392 . S
C850 C851 1.385 . S
C850 C852 1.478 . S
C851 H845 0.930 . S
C851 C847 1.400 . S
C851 C850 1.385 . S
C852 C850 1.478 . S
C852 C854 1.381 . S
C852 C858 1.383 . S
C853 C849 1.495 . S
C853 H859 0.959 . S
C853 H860 0.961 . S
C853 H861 0.960 . S
C854 C852 1.381 . S
C854 C855 1.394 . S
C854 H862 0.930 . S
C855 C854 1.394 . S
C855 C856 1.383 . S
C855 H863 0.929 . S
C856 C855 1.383 . S
C856 C857 1.377 . S
C857 H841 0.930 . S
C857 C856 1.377 . S
C857 C858 1.379 . S
C858 H842 0.931 . S
C858 C852 1.383 . S
C858 C857 1.379 . S
H859 C853 0.959 . S
H860 C853 0.961 . S
H861 C853 0.960 . S
H862 C854 0.930 . S
H863 C855 0.929 . S
H864 C872 0.929 . S
H865 C874 0.930 . S
H866 C876 0.930 . S
H867 C879 0.929 . S
H868 C882 0.930 . S
H869 C884 0.960 . S
H870 C884 0.960 . S
H871 C884 0.960 . S
C872 H864 0.929 . S
C872 C873 1.377 . S
C872 C874 1.384 . S
C873 C872 1.377 . S
C873 C879 1.390 . S
C874 H865 0.930 . S
C874 C872 1.384 . S
C874 C875 1.372 . S
C875 C874 1.372 . S
C875 C876 1.400 . S
C875 C880 1.490 . S
C876 H866 0.930 . S
C876 C875 1.400 . S
C876 C879 1.386 . S
H877 C893 0.930 . S
H878 C894 0.931 . S
C879 H867 0.929 . S
C879 C873 1.390 . S
C879 C876 1.386 . S
C880 C875 1.490 . S
C880 C882 1.395 . S
C880 C883 1.403 . S
H881 C887 0.930 . S
C882 H868 0.930 . S
C882 C880 1.395 . S
C882 C885 1.403 . S
C883 C880 1.403 . S
C883 C884 1.524 . S
C883 C887 1.400 . S
C884 H869 0.960 . S
C884 H870 0.960 . S
C884 H871 0.960 . S
C884 C883 1.524 . S
C885 C882 1.403 . S
C885 C886 1.392 . S
C885 C889 1.495 . S
C886 C885 1.392 . S
C886 C887 1.385 . S
C886 C888 1.478 . S
C887 H881 0.930 . S
C887 C883 1.400 . S
C887 C886 1.385 . S
C888 C886 1.478 . S
C888 C890 1.381 . S
C888 C894 1.383 . S
C889 C885 1.495 . S
C889 H895 0.959 . S
C889 H896 0.961 . S
C889 H897 0.960 . S
C890 C888 1.381 . S
C890 C891 1.394 . S
C890 H898 0.930 . S
C891 C890 1.394 . S
C891 C892 1.383 . S
C891 H899 0.929 . S
C892 C891 1.383 . S
C892 C893 1.377 . S
C893 H877 0.930 . S
C893 C892 1.377 . S
C893 C894 1.379 . S
C894 H878 0.931 . S
C894 C888 1.383 . S
C894 C893 1.379 . S
H895 C889 0.959 . S
H896 C889 0.961 . S
H897 C889 0.960 . S
H898 C890 0.930 . S
H899 C891 0.929 . S
H900 C908 0.929 . S
H901 C910 0.930 . S
H902 C912 0.930 . S
H903 C915 0.929 . S
H904 C918 0.930 . S
H905 C920 0.960 . S
H906 C920 0.960 . S
H907 C920 0.960 . S
C908 H900 0.929 . S
C908 C909 1.377 . S
C908 C910 1.384 . S
C909 C908 1.377 . S
C909 C915 1.390 . S
C910 H901 0.930 . S
C910 C908 1.384 . S
C910 C911 1.372 . S
C911 C910 1.372 . S
C911 C912 1.400 . S
C911 C916 1.490 . S
C912 H902 0.930 . S
C912 C911 1.400 . S
C912 C915 1.386 . S
H913 C929 0.930 . S
H914 C930 0.931 . S
C915 H903 0.929 . S
C915 C909 1.390 . S
C915 C912 1.386 . S
C916 C911 1.490 . S
C916 C918 1.395 . S
C916 C919 1.403 . S
H917 C923 0.930 . S
C918 H904 0.930 . S
C918 C916 1.395 . S
C918 C921 1.403 . S
C919 C916 1.403 . S
C919 C920 1.524 . S
C919 C923 1.400 . S
C920 H905 0.960 . S
C920 H906 0.960 . S
C920 H907 0.960 . S
C920 C919 1.524 . S
C921 C918 1.403 . S
C921 C922 1.392 . S
C921 C925 1.495 . S
C922 C921 1.392 . S
C922 C923 1.385 . S
C922 C924 1.478 . S
C923 H917 0.930 . S
C923 C919 1.400 . S
C923 C922 1.385 . S
C924 C922 1.478 . S
C924 C926 1.381 . S
C924 C930 1.383 . S
C925 C921 1.495 . S
C925 H931 0.959 . S
C925 H932 0.961 . S
C925 H933 0.960 . S
C926 C924 1.381 . S
C926 C927 1.394 . S
C926 H934 0.930 . S
C927 C926 1.394 . S
C927 C928 1.383 . S
C927 H935 0.929 . S
C928 C927 1.383 . S
C928 C929 1.377 . S
C929 H913 0.930 . S
C929 C928 1.377 . S
C929 C930 1.379 . S
C930 H914 0.931 . S
C930 C924 1.383 . S
C930 C929 1.379 . S
H931 C925 0.959 . S
H932 C925 0.961 . S
H933 C925 0.960 . S
H934 C926 0.930 . S
H935 C927 0.929 . S
H936 C944 0.929 . S
H937 C946 0.930 . S
H938 C948 0.930 . S
H939 C951 0.929 . S
H940 C954 0.930 . S
H941 C956 0.960 . S
H942 C956 0.960 . S
H943 C956 0.960 . S
C944 H936 0.929 . S
C944 C945 1.377 . S
C944 C946 1.384 . S
C945 C944 1.377 . S
C945 C951 1.390 . S
C946 H937 0.930 . S
C946 C944 1.384 . S
C946 C947 1.372 . S
C947 C946 1.372 . S
C947 C948 1.400 . S
C947 C952 1.490 . S
C948 H938 0.930 . S
C948 C947 1.400 . S
C948 C951 1.386 . S
H949 C965 0.930 . S
H950 C966 0.931 . S
C951 H939 0.929 . S
C951 C945 1.390 . S
C951 C948 1.386 . S
C952 C947 1.490 . S
C952 C954 1.395 . S
C952 C955 1.403 . S
H953 C959 0.930 . S
C954 H940 0.930 . S
C954 C952 1.395 . S
C954 C957 1.403 . S
C955 C952 1.403 . S
C955 C956 1.524 . S
C955 C959 1.400 . S
C956 H941 0.960 . S
C956 H942 0.960 . S
C956 H943 0.960 . S
C956 C955 1.524 . S
C957 C954 1.403 . S
C957 C958 1.392 . S
C957 C961 1.495 . S
C958 C957 1.392 . S
C958 C959 1.385 . S
C958 C960 1.478 . S
C959 H953 0.930 . S
C959 C955 1.400 . S
C959 C958 1.385 . S
C960 C958 1.478 . S
C960 C962 1.381 . S
C960 C966 1.383 . S
C961 C957 1.495 . S
C961 H967 0.959 . S
C961 H968 0.961 . S
C961 H969 0.960 . S
C962 C960 1.381 . S
C962 C963 1.394 . S
C962 H970 0.930 . S
C963 C962 1.394 . S
C963 C964 1.383 . S
C963 H971 0.929 . S
C964 C963 1.383 . S
C964 C965 1.377 . S
C965 H949 0.930 . S
C965 C964 1.377 . S
C965 C966 1.379 . S
C966 H950 0.931 . S
C966 C960 1.383 . S
C966 C965 1.379 . S
H967 C961 0.959 . S
H968 C961 0.961 . S
H969 C961 0.960 . S
H970 C962 0.930 . S
H971 C963 0.929 . S
H972 C980 0.929 . S
H973 C982 0.930 . S
H974 C984 0.930 . S
H975 C987 0.929 . S
H976 C990 0.930 . S
H977 C992 0.960 . S
H978 C992 0.960 . S
H979 C992 0.960 . S
C980 H972 0.929 . S
C980 C981 1.377 . S
C980 C982 1.384 . S
C981 C980 1.377 . S
C981 C987 1.390 . S
C982 H973 0.930 . S
C982 C980 1.384 . S
C982 C983 1.372 . S
C983 C982 1.372 . S
C983 C984 1.400 . S
C983 C988 1.490 . S
C984 H974 0.930 . S
C984 C983 1.400 . S
C984 C987 1.386 . S
H985 C1001 0.930 . S
H986 C1002 0.931 . S
C987 H975 0.929 . S
C987 C981 1.390 . S
C987 C984 1.386 . S
C988 C983 1.490 . S
C988 C990 1.395 . S
C988 C991 1.403 . S
H989 C995 0.930 . S
C990 H976 0.930 . S
C990 C988 1.395 . S
C990 C993 1.403 . S
C991 C988 1.403 . S
C991 C992 1.524 . S
C991 C995 1.400 . S
C992 H977 0.960 . S
C992 H978 0.960 . S
C992 H979 0.960 . S
C992 C991 1.524 . S
C993 C990 1.403 . S
C993 C994 1.392 . S
C993 C997 1.495 . S
C994 C993 1.392 . S
C994 C995 1.385 . S
C994 C996 1.478 . S
C995 H989 0.930 . S
C995 C991 1.400 . S
C995 C994 1.385 . S
C996 C994 1.478 . S
C996 C998 1.381 . S
C996 C1002 1.383 . S
C997 C993 1.495 . S
C997 H1003 0.959 . S
C997 H1004 0.961 . S
C997 H1005 0.960 . S
C998 C996 1.381 . S
C998 C999 1.394 . S
C998 H1006 0.930 . S
C999 C998 1.394 . S
C999 C1000 1.383 . S
C999 H1007 0.929 . S
C1000 C999 1.383 . S
C1000 C1001 1.377 . S
C1001 H985 0.930 . S
C1001 C1000 1.377 . S
C1001 C1002 1.379 . S
C1002 H986 0.931 . S
C1002 C996 1.383 . S
C1002 C1001 1.379 . S
H1003 C997 0.959 . S
H1004 C997 0.961 . S
H1005 C997 0.960 . S
H1006 C998 0.930 . S
H1007 C999 0.929 . S
H1008 C1016 0.929 . S
H1009 C1018 0.930 . S
H1010 C1020 0.930 . S
H1011 C1023 0.929 . S
H1012 C1026 0.930 . S
H1013 C1028 0.960 . S
H1014 C1028 0.960 . S
H1015 C1028 0.960 . S
C1016 H1008 0.929 . S
C1016 C1017 1.377 . S
C1016 C1018 1.384 . S
C1017 C1016 1.377 . S
C1017 C1023 1.390 . S
C1018 H1009 0.930 . S
C1018 C1016 1.384 . S
C1018 C1019 1.372 . S
C1019 C1018 1.372 . S
C1019 C1020 1.400 . S
C1019 C1024 1.490 . S
C1020 H1010 0.930 . S
C1020 C1019 1.400 . S
C1020 C1023 1.386 . S
H1021 C1037 0.930 . S
H1022 C1038 0.931 . S
C1023 H1011 0.929 . S
C1023 C1017 1.390 . S
C1023 C1020 1.386 . S
C1024 C1019 1.490 . S
C1024 C1026 1.395 . S
C1024 C1027 1.403 . S
H1025 C1031 0.930 . S
C1026 H1012 0.930 . S
C1026 C1024 1.395 . S
C1026 C1029 1.403 . S
C1027 C1024 1.403 . S
C1027 C1028 1.524 . S
C1027 C1031 1.400 . S
C1028 H1013 0.960 . S
C1028 H1014 0.960 . S
C1028 H1015 0.960 . S
C1028 C1027 1.524 . S
C1029 C1026 1.403 . S
C1029 C1030 1.392 . S
C1029 C1033 1.495 . S
C1030 C1029 1.392 . S
C1030 C1031 1.385 . S
C1030 C1032 1.478 . S
C1031 H1025 0.930 . S
C1031 C1027 1.400 . S
C1031 C1030 1.385 . S
C1032 C1030 1.478 . S
C1032 C1034 1.381 . S
C1032 C1038 1.383 . S
C1033 C1029 1.495 . S
C1033 H1039 0.959 . S
C1033 H1040 0.961 . S
C1033 H1041 0.960 . S
C1034 C1032 1.381 . S
C1034 C1035 1.394 . S
C1034 H1042 0.930 . S
C1035 C1034 1.394 . S
C1035 C1036 1.383 . S
C1035 H1043 0.929 . S
C1036 C1035 1.383 . S
C1036 C1037 1.377 . S
C1037 H1021 0.930 . S
C1037 C1036 1.377 . S
C1037 C1038 1.379 . S
C1038 H1022 0.931 . S
C1038 C1032 1.383 . S
C1038 C1037 1.379 . S
H1039 C1033 0.959 . S
H1040 C1033 0.961 . S
H1041 C1033 0.960 . S
H1042 C1034 0.930 . S
H1043 C1035 0.929 . S
H1044 C1052 0.929 . S
H1045 C1054 0.930 . S
H1046 C1056 0.930 . S
H1047 C1059 0.929 . S
H1048 C1062 0.930 . S
H1049 C1064 0.960 . S
H1050 C1064 0.960 . S
H1051 C1064 0.960 . S
C1052 H1044 0.929 . S
C1052 C1053 1.377 . S
C1052 C1054 1.384 . S
C1053 C1052 1.377 . S
C1053 C1059 1.390 . S
C1054 H1045 0.930 . S
C1054 C1052 1.384 . S
C1054 C1055 1.372 . S
C1055 C1054 1.372 . S
C1055 C1056 1.400 . S
C1055 C1060 1.490 . S
C1056 H1046 0.930 . S
C1056 C1055 1.400 . S
C1056 C1059 1.386 . S
H1057 C1073 0.930 . S
H1058 C1074 0.931 . S
C1059 H1047 0.929 . S
C1059 C1053 1.390 . S
C1059 C1056 1.386 . S
C1060 C1055 1.490 . S
C1060 C1062 1.395 . S
C1060 C1063 1.403 . S
H1061 C1067 0.930 . S
C1062 H1048 0.930 . S
C1062 C1060 1.395 . S
C1062 C1065 1.403 . S
C1063 C1060 1.403 . S
C1063 C1064 1.524 . S
C1063 C1067 1.400 . S
C1064 H1049 0.960 . S
C1064 H1050 0.960 . S
C1064 H1051 0.960 . S
C1064 C1063 1.524 . S
C1065 C1062 1.403 . S
C1065 C1066 1.392 . S
C1065 C1069 1.495 . S
C1066 C1065 1.392 . S
C1066 C1067 1.385 . S
C1066 C1068 1.478 . S
C1067 H1061 0.930 . S
C1067 C1063 1.400 . S
C1067 C1066 1.385 . S
C1068 C1066 1.478 . S
C1068 C1070 1.381 . S
C1068 C1074 1.383 . S
C1069 C1065 1.495 . S
C1069 H1075 0.959 . S
C1069 H1076 0.961 . S
C1069 H1077 0.960 . S
C1070 C1068 1.381 . S
C1070 C1071 1.394 . S
C1070 H1078 0.930 . S
C1071 C1070 1.394 . S
C1071 C1072 1.383 . S
C1071 H1079 0.929 . S
C1072 C1071 1.383 . S
C1072 C1073 1.377 . S
C1073 H1057 0.930 . S
C1073 C1072 1.377 . S
C1073 C1074 1.379 . S
C1074 H1058 0.931 . S
C1074 C1068 1.383 . S
C1074 C1073 1.379 . S
H1075 C1069 0.959 . S
H1076 C1069 0.961 . S
H1077 C1069 0.960 . S
H1078 C1070 0.930 . S
H1079 C1071 0.929 . S
H1080 C1088 0.929 . S
H1081 C1090 0.930 . S
H1082 C1092 0.930 . S
H1083 C1095 0.929 . S
H1084 C1098 0.930 . S
H1085 C1100 0.960 . S
H1086 C1100 0.960 . S
H1087 C1100 0.960 . S
C1088 H1080 0.929 . S
C1088 C1089 1.377 . S
C1088 C1090 1.384 . S
C1089 C1088 1.377 . S
C1089 C1095 1.390 . S
C1090 H1081 0.930 . S
C1090 C1088 1.384 . S
C1090 C1091 1.372 . S
C1091 C1090 1.372 . S
C1091 C1092 1.400 . S
C1091 C1096 1.490 . S
C1092 H1082 0.930 . S
C1092 C1091 1.400 . S
C1092 C1095 1.386 . S
H1093 C1109 0.930 . S
H1094 C1110 0.931 . S
C1095 H1083 0.929 . S
C1095 C1089 1.390 . S
C1095 C1092 1.386 . S
C1096 C1091 1.490 . S
C1096 C1098 1.395 . S
C1096 C1099 1.403 . S
H1097 C1103 0.930 . S
C1098 H1084 0.930 . S
C1098 C1096 1.395 . S
C1098 C1101 1.403 . S
C1099 C1096 1.403 . S
C1099 C1100 1.524 . S
C1099 C1103 1.400 . S
C1100 H1085 0.960 . S
C1100 H1086 0.960 . S
C1100 H1087 0.960 . S
C1100 C1099 1.524 . S
C1101 C1098 1.403 . S
C1101 C1102 1.392 . S
C1101 C1105 1.495 . S
C1102 C1101 1.392 . S
C1102 C1103 1.385 . S
C1102 C1104 1.478 . S
C1103 H1097 0.930 . S
C1103 C1099 1.400 . S
C1103 C1102 1.385 . S
C1104 C1102 1.478 . S
C1104 C1106 1.381 . S
C1104 C1110 1.383 . S
C1105 C1101 1.495 . S
C1105 H1111 0.959 . S
C1105 H1112 0.961 . S
C1105 H1113 0.960 . S
C1106 C1104 1.381 . S
C1106 C1107 1.394 . S
C1106 H1114 0.930 . S
C1107 C1106 1.394 . S
C1107 C1108 1.383 . S
C1107 H1115 0.929 . S
C1108 C1107 1.383 . S
C1108 C1109 1.377 . S
C1109 H1093 0.930 . S
C1109 C1108 1.377 . S
C1109 C1110 1.379 . S
C1110 H1094 0.931 . S
C1110 C1104 1.383 . S
C1110 C1109 1.379 . S
H1111 C1105 0.959 . S
H1112 C1105 0.961 . S
H1113 C1105 0.960 . S
H1114 C1106 0.930 . S
H1115 C1107 0.929 . S
H1116 C1124 0.929 . S
H1117 C1126 0.930 . S
H1118 C1128 0.930 . S
H1119 C1131 0.929 . S
H1120 C1134 0.930 . S
H1121 C1136 0.960 . S
H1122 C1136 0.960 . S
H1123 C1136 0.960 . S
C1124 H1116 0.929 . S
C1124 C1125 1.377 . S
C1124 C1126 1.384 . S
C1125 C1124 1.377 . S
C1125 C1131 1.390 . S
C1126 H1117 0.930 . S
C1126 C1124 1.384 . S
C1126 C1127 1.372 . S
C1127 C1126 1.372 . S
C1127 C1128 1.400 . S
C1127 C1132 1.490 . S
C1128 H1118 0.930 . S
C1128 C1127 1.400 . S
C1128 C1131 1.386 . S
H1129 C1145 0.930 . S
H1130 C1146 0.931 . S
C1131 H1119 0.929 . S
C1131 C1125 1.390 . S
C1131 C1128 1.386 . S
C1132 C1127 1.490 . S
C1132 C1134 1.395 . S
C1132 C1135 1.403 . S
H1133 C1139 0.930 . S
C1134 H1120 0.930 . S
C1134 C1132 1.395 . S
C1134 C1137 1.403 . S
C1135 C1132 1.403 . S
C1135 C1136 1.524 . S
C1135 C1139 1.400 . S
C1136 H1121 0.960 . S
C1136 H1122 0.960 . S
C1136 H1123 0.960 . S
C1136 C1135 1.524 . S
C1137 C1134 1.403 . S
C1137 C1138 1.392 . S
C1137 C1141 1.495 . S
C1138 C1137 1.392 . S
C1138 C1139 1.385 . S
C1138 C1140 1.478 . S
C1139 H1133 0.930 . S
C1139 C1135 1.400 . S
C1139 C1138 1.385 . S
C1140 C1138 1.478 . S
C1140 C1142 1.381 . S
C1140 C1146 1.383 . S
C1141 C1137 1.495 . S
C1141 H1147 0.959 . S
C1141 H1148 0.961 . S
C1141 H1149 0.960 . S
C1142 C1140 1.381 . S
C1142 C1143 1.394 . S
C1142 H1150 0.930 . S
C1143 C1142 1.394 . S
C1143 C1144 1.383 . S
C1143 H1151 0.929 . S
C1144 C1143 1.383 . S
C1144 C1145 1.377 . S
C1145 H1129 0.930 . S
C1145 C1144 1.377 . S
C1145 C1146 1.379 . S
C1146 H1130 0.931 . S
C1146 C1140 1.383 . S
C1146 C1145 1.379 . S
H1147 C1141 0.959 . S
H1148 C1141 0.961 . S
H1149 C1141 0.960 . S
H1150 C1142 0.930 . S
H1151 C1143 0.929 . S
H1152 C1160 0.929 . S
H1153 C1162 0.930 . S
H1154 C1164 0.930 . S
H1155 C1167 0.929 . S
H1156 C1170 0.930 . S
H1157 C1172 0.960 . S
H1158 C1172 0.960 . S
H1159 C1172 0.960 . S
C1160 H1152 0.929 . S
C1160 C1161 1.377 . S
C1160 C1162 1.384 . S
C1161 C1160 1.377 . S
C1161 C1167 1.390 . S
C1162 H1153 0.930 . S
C1162 C1160 1.384 . S
C1162 C1163 1.372 . S
C1163 C1162 1.372 . S
C1163 C1164 1.400 . S
C1163 C1168 1.490 . S
C1164 H1154 0.930 . S
C1164 C1163 1.400 . S
C1164 C1167 1.386 . S
H1165 C1181 0.930 . S
H1166 C1182 0.931 . S
C1167 H1155 0.929 . S
C1167 C1161 1.390 . S
C1167 C1164 1.386 . S
C1168 C1163 1.490 . S
C1168 C1170 1.395 . S
C1168 C1171 1.403 . S
H1169 C1175 0.930 . S
C1170 H1156 0.930 . S
C1170 C1168 1.395 . S
C1170 C1173 1.403 . S
C1171 C1168 1.403 . S
C1171 C1172 1.524 . S
C1171 C1175 1.400 . S
C1172 H1157 0.960 . S
C1172 H1158 0.960 . S
C1172 H1159 0.960 . S
C1172 C1171 1.524 . S
C1173 C1170 1.403 . S
C1173 C1174 1.392 . S
C1173 C1177 1.495 . S
C1174 C1173 1.392 . S
C1174 C1175 1.385 . S
C1174 C1176 1.478 . S
C1175 H1169 0.930 . S
C1175 C1171 1.400 . S
C1175 C1174 1.385 . S
C1176 C1174 1.478 . S
C1176 C1178 1.381 . S
C1176 C1182 1.383 . S
C1177 C1173 1.495 . S
C1177 H1183 0.959 . S
C1177 H1184 0.961 . S
C1177 H1185 0.960 . S
C1178 C1176 1.381 . S
C1178 C1179 1.394 . S
C1178 H1186 0.930 . S
C1179 C1178 1.394 . S
C1179 C1180 1.383 . S
C1179 H1187 0.929 . S
C1180 C1179 1.383 . S
C1180 C1181 1.377 . S
C1181 H1165 0.930 . S
C1181 C1180 1.377 . S
C1181 C1182 1.379 . S
C1182 H1166 0.931 . S
C1182 C1176 1.383 . S
C1182 C1181 1.379 . S
H1183 C1177 0.959 . S
H1184 C1177 0.961 . S
H1185 C1177 0.960 . S
H1186 C1178 0.930 . S
H1187 C1179 0.929 . S
H1188 C1196 0.929 . S
H1189 C1198 0.930 . S
H1190 C1200 0.930 . S
H1191 C1203 0.929 . S
H1192 C1206 0.930 . S
H1193 C1208 0.960 . S
H1194 C1208 0.960 . S
H1195 C1208 0.960 . S
C1196 H1188 0.929 . S
C1196 C1197 1.377 . S
C1196 C1198 1.384 . S
C1197 C1196 1.377 . S
C1197 C1203 1.390 . S
C1198 H1189 0.930 . S
C1198 C1196 1.384 . S
C1198 C1199 1.372 . S
C1199 C1198 1.372 . S
C1199 C1200 1.400 . S
C1199 C1204 1.490 . S
C1200 H1190 0.930 . S
C1200 C1199 1.400 . S
C1200 C1203 1.386 . S
H1201 C1217 0.930 . S
H1202 C1218 0.931 . S
C1203 H1191 0.929 . S
C1203 C1197 1.390 . S
C1203 C1200 1.386 . S
C1204 C1199 1.490 . S
C1204 C1206 1.395 . S
C1204 C1207 1.403 . S
H1205 C1211 0.930 . S
C1206 H1192 0.930 . S
C1206 C1204 1.395 . S
C1206 C1209 1.403 . S
C1207 C1204 1.403 . S
C1207 C1208 1.524 . S
C1207 C1211 1.400 . S
C1208 H1193 0.960 . S
C1208 H1194 0.960 . S
C1208 H1195 0.960 . S
C1208 C1207 1.524 . S
C1209 C1206 1.403 . S
C1209 C1210 1.392 . S
C1209 C1213 1.495 . S
C1210 C1209 1.392 . S
C1210 C1211 1.385 . S
C1210 C1212 1.478 . S
C1211 H1205 0.930 . S
C1211 C1207 1.400 . S
C1211 C1210 1.385 . S
C1212 C1210 1.478 . S
C1212 C1214 1.381 . S
C1212 C1218 1.383 . S
C1213 C1209 1.495 . S
C1213 H1219 0.959 . S
C1213 H1220 0.961 . S
C1213 H1221 0.960 . S
C1214 C1212 1.381 . S
C1214 C1215 1.394 . S
C1214 H1222 0.930 . S
C1215 C1214 1.394 . S
C1215 C1216 1.383 . S
C1215 H1223 0.929 . S
C1216 C1215 1.383 . S
C1216 C1217 1.377 . S
C1217 H1201 0.930 . S
C1217 C1216 1.377 . S
C1217 C1218 1.379 . S
C1218 H1202 0.931 . S
C1218 C1212 1.383 . S
C1218 C1217 1.379 . S
H1219 C1213 0.959 . S
H1220 C1213 0.961 . S
H1221 C1213 0.960 . S
H1222 C1214 0.930 . S
H1223 C1215 0.929 . S
H1224 C1232 0.929 . S
H1225 C1234 0.930 . S
H1226 C1236 0.930 . S
H1227 C1239 0.929 . S
H1228 C1242 0.930 . S
H1229 C1244 0.960 . S
H1230 C1244 0.960 . S
H1231 C1244 0.960 . S
C1232 H1224 0.929 . S
C1232 C1233 1.377 . S
C1232 C1234 1.384 . S
C1233 C1232 1.377 . S
C1233 C1239 1.390 . S
C1234 H1225 0.930 . S
C1234 C1232 1.384 . S
C1234 C1235 1.372 . S
C1235 C1234 1.372 . S
C1235 C1236 1.400 . S
C1235 C1240 1.490 . S
C1236 H1226 0.930 . S
C1236 C1235 1.400 . S
C1236 C1239 1.386 . S
H1237 C1253 0.930 . S
H1238 C1254 0.931 . S
C1239 H1227 0.929 . S
C1239 C1233 1.390 . S
C1239 C1236 1.386 . S
C1240 C1235 1.490 . S
C1240 C1242 1.395 . S
C1240 C1243 1.403 . S
H1241 C1247 0.930 . S
C1242 H1228 0.930 . S
C1242 C1240 1.395 . S
C1242 C1245 1.403 1_554 S
C1243 C1240 1.403 . S
C1243 C1244 1.524 . S
C1243 C1247 1.400 1_554 S
C1244 H1229 0.960 . S
C1244 H1230 0.960 . S
C1244 H1231 0.960 . S
C1244 C1243 1.524 . S
C1245 C1242 1.403 1_556 S
C1245 C1246 1.392 . S
C1245 C1249 1.495 . S
C1246 C1245 1.392 . S
C1246 C1247 1.385 . S
C1246 C1248 1.478 . S
C1247 H1241 0.930 . S
C1247 C1243 1.400 1_556 S
C1247 C1246 1.385 . S
C1248 C1246 1.478 . S
C1248 C1250 1.381 . S
C1248 C1254 1.383 . S
C1249 C1245 1.495 . S
C1249 H1255 0.959 . S
C1249 H1256 0.961 . S
C1249 H1257 0.960 . S
C1250 C1248 1.381 . S
C1250 C1251 1.394 . S
C1250 H1258 0.930 . S
C1251 C1250 1.394 . S
C1251 C1252 1.383 . S
C1251 H1259 0.929 . S
C1252 C1251 1.383 . S
C1252 C1253 1.377 . S
C1253 H1237 0.930 . S
C1253 C1252 1.377 . S
C1253 C1254 1.379 . S
C1254 H1238 0.931 . S
C1254 C1248 1.383 . S
C1254 C1253 1.379 . S
H1255 C1249 0.959 . S
H1256 C1249 0.961 . S
H1257 C1249 0.960 . S
H1258 C1250 0.930 . S
H1259 C1251 0.929 . S
H1260 C1268 0.929 . S
H1261 C1270 0.930 . S
H1262 C1272 0.930 . S
H1263 C1275 0.929 . S
H1264 C1278 0.930 . S
H1265 C1280 0.960 . S
H1266 C1280 0.960 . S
H1267 C1280 0.960 . S
C1268 H1260 0.929 . S
C1268 C1269 1.377 1_565 S
C1268 C1270 1.384 . S
C1269 C1268 1.377 1_545 S
C1269 C1275 1.390 . S
C1270 H1261 0.930 . S
C1270 C1268 1.384 . S
C1270 C1271 1.372 1_565 S
C1271 C1270 1.372 1_545 S
C1271 C1272 1.400 . S
C1271 C1276 1.492 . S
C1272 H1262 0.930 . S
C1272 C1271 1.400 . S
C1272 C1275 1.386 . S
H1273 C1289 0.930 . S
H1274 C1290 0.931 . S
C1275 H1263 0.929 . S
C1275 C1269 1.390 . S
C1275 C1272 1.386 . S
C1276 C1271 1.492 . S
C1276 C1278 1.371 1_545 S
C1276 C1279 1.423 . S
H1277 C1283 0.930 . S
C1278 H1264 0.930 . S
C1278 C1276 1.371 1_565 S
C1278 C1281 1.403 1_556 S
C1279 C1276 1.423 . S
C1279 C1280 1.524 . S
C1279 C1283 1.400 1_556 S
C1280 H1265 0.960 . S
C1280 H1266 0.960 . S
C1280 H1267 0.960 . S
C1280 C1279 1.524 . S
C1281 C1278 1.403 1_554 S
C1281 C1282 1.392 . S
C1281 C1285 1.495 . S
C1282 C1281 1.392 . S
C1282 C1283 1.385 1_565 S
C1282 C1284 1.478 . S
C1283 H1277 0.930 . S
C1283 C1279 1.400 1_554 S
C1283 C1282 1.385 1_545 S
C1284 C1282 1.478 . S
C1284 C1286 1.381 . S
C1284 C1290 1.383 1_565 S
C1285 C1281 1.495 . S
C1285 H1291 0.959 . S
C1285 H1292 0.961 . S
C1285 H1293 0.960 . S
C1286 C1284 1.381 . S
C1286 C1287 1.394 . S
C1286 H1294 0.930 . S
C1287 C1286 1.394 . S
C1287 C1288 1.383 . S
C1287 H1295 0.929 . S
C1288 C1287 1.383 . S
C1288 C1289 1.377 1_565 S
C1289 H1273 0.930 . S
C1289 C1288 1.377 1_545 S
C1289 C1290 1.379 . S
C1290 H1274 0.931 . S
C1290 C1284 1.383 1_545 S
C1290 C1289 1.379 . S
H1291 C1285 0.959 . S
H1292 C1285 0.961 . S
H1293 C1285 0.960 . S
H1294 C1286 0.930 . S
H1295 C1287 0.929 . S
H1296 C1304 0.929 1_455 S
H1297 C1306 0.960 . S
H1298 C1308 0.930 . S
H1299 C1311 0.929 . S
H1300 C1314 0.930 . S
H1301 C1316 0.960 . S
H1302 C1316 0.960 . S
H1303 C1316 0.960 . S
C1304 H1296 0.929 1_655 S
C1304 C1305 1.377 . S
C1304 C1306 1.381 1_655 S
C1305 C1304 1.377 . S
C1305 C1311 1.390 . S
C1306 H1297 0.960 . S
C1306 C1304 1.381 1_455 S
C1306 C1307 1.347 1_455 S
C1307 C1306 1.347 1_655 S
C1307 C1308 1.400 . S
C1307 C1312 1.490 . S
C1308 H1298 0.930 . S
C1308 C1307 1.400 . S
C1308 C1311 1.386 . S
H1309 C1325 0.930 . S
H1310 C1326 0.931 . S
C1311 H1299 0.929 . S
C1311 C1305 1.390 . S
C1311 C1308 1.386 . S
C1312 C1307 1.490 . S
C1312 C1314 1.394 1_655 S
C1312 C1315 1.403 . S
H1313 C1319 0.930 . S
C1314 H1300 0.930 . S
C1314 C1312 1.394 1_455 S
C1314 C1317 1.403 1_556 S
C1315 C1312 1.403 . S
C1315 C1316 1.524 . S
C1315 C1319 1.400 1_556 S
C1316 H1301 0.960 . S
C1316 H1302 0.960 . S
C1316 H1303 0.960 . S
C1316 C1315 1.524 . S
C1317 C1314 1.403 1_554 S
C1317 C1318 1.392 . S
C1317 C1321 1.495 . S
C1318 C1317 1.392 . S
C1318 C1319 1.385 1_455 S
C1318 C1320 1.478 . S
C1319 H1313 0.930 . S
C1319 C1315 1.400 1_554 S
C1319 C1318 1.385 1_655 S
C1320 C1318 1.478 . S
C1320 C1322 1.381 . S
C1320 C1326 1.383 . S
C1321 C1317 1.495 . S
C1321 H1327 0.959 . S
C1321 H1328 0.961 . S
C1321 H1329 0.960 . S
C1322 C1320 1.381 . S
C1322 C1323 1.394 . S
C1322 H1330 0.930 . S
C1323 C1322 1.394 . S
C1323 C1324 1.383 . S
C1323 H1331 0.929 . S
C1324 C1323 1.383 . S
C1324 C1325 1.377 . S
C1325 H1309 0.930 . S
C1325 C1324 1.377 . S
C1325 C1326 1.379 . S
C1326 H1310 0.931 . S
C1326 C1320 1.383 . S
C1326 C1325 1.379 . S
H1327 C1321 0.959 . S
H1328 C1321 0.961 . S
H1329 C1321 0.960 . S
H1330 C1322 0.930 . S
H1331 C1323 0.929 . S
H1332 C1340 0.929 . S
H1333 C1342 0.930 . S
H1334 C1344 0.930 . S
H1335 C1347 0.929 . S
H1336 C1350 0.930 . S
H1337 C1352 0.960 . S
H1338 C1352 0.960 . S
H1339 C1352 0.960 . S
C1340 H1332 0.929 . S
C1340 C1341 1.377 . S
C1340 C1342 1.384 . S
C1341 C1340 1.377 . S
C1341 C1347 1.390 . S
C1342 H1333 0.930 . S
C1342 C1340 1.384 . S
C1342 C1343 1.372 . S
C1343 C1342 1.372 . S
C1343 C1344 1.400 . S
C1343 C1348 1.490 . S
C1344 H1334 0.930 . S
C1344 C1343 1.400 . S
C1344 C1347 1.386 . S
H1345 C1361 0.930 . S
H1346 C1362 0.931 . S
C1347 H1335 0.929 . S
C1347 C1341 1.390 . S
C1347 C1344 1.386 . S
C1348 C1343 1.490 . S
C1348 C1350 1.395 . S
C1348 C1351 1.403 . S
H1349 C1355 0.930 . S
C1350 H1336 0.930 . S
C1350 C1348 1.395 . S
C1350 C1353 1.403 . S
C1351 C1348 1.403 . S
C1351 C1352 1.524 . S
C1351 C1355 1.400 . S
C1352 H1337 0.960 . S
C1352 H1338 0.960 . S
C1352 H1339 0.960 . S
C1352 C1351 1.524 . S
C1353 C1350 1.403 . S
C1353 C1354 1.392 . S
C1353 C1357 1.495 . S
C1354 C1353 1.392 . S
C1354 C1355 1.385 . S
C1354 C1356 1.478 . S
C1355 H1349 0.930 . S
C1355 C1351 1.400 . S
C1355 C1354 1.385 . S
C1356 C1354 1.478 . S
C1356 C1358 1.381 . S
C1356 C1362 1.383 . S
C1357 C1353 1.495 . S
C1357 H1363 0.959 . S
C1357 H1364 0.961 . S
C1357 H1365 0.960 . S
C1358 C1356 1.381 . S
C1358 C1359 1.394 . S
C1358 H1366 0.930 . S
C1359 C1358 1.394 . S
C1359 C1360 1.383 . S
C1359 H1367 0.929 . S
C1360 C1359 1.383 . S
C1360 C1361 1.377 . S
C1361 H1345 0.930 . S
C1361 C1360 1.377 . S
C1361 C1362 1.379 . S
C1362 H1346 0.931 . S
C1362 C1356 1.383 . S
C1362 C1361 1.379 . S
H1363 C1357 0.959 . S
H1364 C1357 0.961 . S
H1365 C1357 0.960 . S
H1366 C1358 0.930 . S
H1367 C1359 0.929 . S
H1368 C1376 0.929 . S
H1369 C1378 0.930 . S
H1370 C1380 0.930 . S
H1371 C1383 0.929 . S
H1372 C1386 0.930 . S
H1373 C1388 0.960 . S
H1374 C1388 0.960 . S
H1375 C1388 0.960 . S
C1376 H1368 0.929 . S
C1376 C1377 1.377 . S
C1376 C1378 1.384 . S
C1377 C1376 1.377 . S
C1377 C1383 1.390 . S
C1378 H1369 0.930 . S
C1378 C1376 1.384 . S
C1378 C1379 1.372 . S
C1379 C1378 1.372 . S
C1379 C1380 1.400 . S
C1379 C1384 1.490 . S
C1380 H1370 0.930 . S
C1380 C1379 1.400 . S
C1380 C1383 1.386 . S
H1381 C1397 0.930 . S
H1382 C1398 0.931 . S
C1383 H1371 0.929 . S
C1383 C1377 1.390 . S
C1383 C1380 1.386 . S
C1384 C1379 1.490 . S
C1384 C1386 1.395 . S
C1384 C1387 1.403 . S
H1385 C1391 0.930 . S
C1386 H1372 0.930 . S
C1386 C1384 1.395 . S
C1386 C1389 1.403 . S
C1387 C1384 1.403 . S
C1387 C1388 1.524 . S
C1387 C1391 1.400 . S
C1388 H1373 0.960 . S
C1388 H1374 0.960 . S
C1388 H1375 0.960 . S
C1388 C1387 1.524 . S
C1389 C1386 1.403 . S
C1389 C1390 1.392 . S
C1389 C1393 1.495 . S
C1390 C1389 1.392 . S
C1390 C1391 1.385 . S
C1390 C1392 1.478 . S
C1391 H1385 0.930 . S
C1391 C1387 1.400 . S
C1391 C1390 1.385 . S
C1392 C1390 1.478 . S
C1392 C1394 1.381 . S
C1392 C1398 1.383 . S
C1393 C1389 1.495 . S
C1393 H1399 0.959 . S
C1393 H1400 0.961 . S
C1393 H1401 0.960 . S
C1394 C1392 1.381 . S
C1394 C1395 1.394 . S
C1394 H1402 0.930 . S
C1395 C1394 1.394 . S
C1395 C1396 1.383 . S
C1395 H1403 0.929 . S
C1396 C1395 1.383 . S
C1396 C1397 1.377 . S
C1397 H1381 0.930 . S
C1397 C1396 1.377 . S
C1397 C1398 1.379 . S
C1398 H1382 0.931 . S
C1398 C1392 1.383 . S
C1398 C1397 1.379 . S
H1399 C1393 0.959 . S
H1400 C1393 0.961 . S
H1401 C1393 0.960 . S
H1402 C1394 0.930 . S
H1403 C1395 0.929 . S
H1404 C1412 0.929 . S
H1405 C1414 0.930 . S
H1406 C1416 0.930 . S
H1407 C1419 0.929 . S
H1408 C1422 0.930 . S
H1409 C1424 0.960 . S
H1410 C1424 0.960 . S
H1411 C1424 0.960 . S
C1412 H1404 0.929 . S
C1412 C1413 1.377 . S
C1412 C1414 1.384 . S
C1413 C1412 1.377 . S
C1413 C1419 1.390 . S
C1414 H1405 0.930 . S
C1414 C1412 1.384 . S
C1414 C1415 1.372 . S
C1415 C1414 1.372 . S
C1415 C1416 1.400 . S
C1415 C1420 1.490 . S
C1416 H1406 0.930 . S
C1416 C1415 1.400 . S
C1416 C1419 1.386 . S
H1417 C1433 0.930 . S
H1418 C1434 0.931 . S
C1419 H1407 0.929 . S
C1419 C1413 1.390 . S
C1419 C1416 1.386 . S
C1420 C1415 1.490 . S
C1420 C1422 1.395 . S
C1420 C1423 1.403 . S
H1421 C1427 0.930 . S
C1422 H1408 0.930 . S
C1422 C1420 1.395 . S
C1422 C1425 1.403 . S
C1423 C1420 1.403 . S
C1423 C1424 1.524 . S
C1423 C1427 1.400 . S
C1424 H1409 0.960 . S
C1424 H1410 0.960 . S
C1424 H1411 0.960 . S
C1424 C1423 1.524 . S
C1425 C1422 1.403 . S
C1425 C1426 1.392 . S
C1425 C1429 1.495 . S
C1426 C1425 1.392 . S
C1426 C1427 1.385 . S
C1426 C1428 1.478 . S
C1427 H1421 0.930 . S
C1427 C1423 1.400 . S
C1427 C1426 1.385 . S
C1428 C1426 1.478 . S
C1428 C1430 1.381 . S
C1428 C1434 1.383 . S
C1429 C1425 1.495 . S
C1429 H1435 0.959 . S
C1429 H1436 0.961 . S
C1429 H1437 0.960 . S
C1430 C1428 1.381 . S
C1430 C1431 1.394 . S
C1430 H1438 0.930 . S
C1431 C1430 1.394 . S
C1431 C1432 1.383 . S
C1431 H1439 0.929 . S
C1432 C1431 1.383 . S
C1432 C1433 1.377 . S
C1433 H1417 0.930 . S
C1433 C1432 1.377 . S
C1433 C1434 1.379 . S
C1434 H1418 0.931 . S
C1434 C1428 1.383 . S
C1434 C1433 1.379 . S
H1435 C1429 0.959 . S
H1436 C1429 0.961 . S
H1437 C1429 0.960 . S
H1438 C1430 0.930 . S
H1439 C1431 0.929 . S
H1440 C1448 0.929 . S
H1441 C1450 0.930 . S
H1442 C1452 0.930 . S
H1443 C1455 0.929 . S
H1444 C1458 0.930 . S
H1445 C1460 0.960 . S
H1446 C1460 0.960 . S
H1447 C1460 0.960 . S
C1448 H1440 0.929 . S
C1448 C1449 1.377 . S
C1448 C1450 1.384 . S
C1449 C1448 1.377 . S
C1449 C1455 1.390 . S
C1450 H1441 0.930 . S
C1450 C1448 1.384 . S
C1450 C1451 1.372 . S
C1451 C1450 1.372 . S
C1451 C1452 1.400 . S
C1451 C1456 1.490 . S
C1452 H1442 0.930 . S
C1452 C1451 1.400 . S
C1452 C1455 1.386 . S
H1453 C1469 0.930 . S
H1454 C1470 0.931 . S
C1455 H1443 0.929 . S
C1455 C1449 1.390 . S
C1455 C1452 1.386 . S
C1456 C1451 1.490 . S
C1456 C1458 1.395 . S
C1456 C1459 1.403 . S
H1457 C1463 0.930 . S
C1458 H1444 0.930 . S
C1458 C1456 1.395 . S
C1458 C1461 1.403 . S
C1459 C1456 1.403 . S
C1459 C1460 1.524 . S
C1459 C1463 1.400 . S
C1460 H1445 0.960 . S
C1460 H1446 0.960 . S
C1460 H1447 0.960 . S
C1460 C1459 1.524 . S
C1461 C1458 1.403 . S
C1461 C1462 1.392 . S
C1461 C1465 1.495 . S
C1462 C1461 1.392 . S
C1462 C1463 1.385 . S
C1462 C1464 1.478 . S
C1463 H1457 0.930 . S
C1463 C1459 1.400 . S
C1463 C1462 1.385 . S
C1464 C1462 1.478 . S
C1464 C1466 1.381 . S
C1464 C1470 1.383 . S
C1465 C1461 1.495 . S
C1465 H1471 0.959 . S
C1465 H1472 0.961 . S
C1465 H1473 0.960 . S
C1466 C1464 1.381 . S
C1466 C1467 1.394 . S
C1466 H1474 0.930 . S
C1467 C1466 1.394 . S
C1467 C1468 1.383 . S
C1467 H1475 0.929 . S
C1468 C1467 1.383 . S
C1468 C1469 1.377 . S
C1469 H1453 0.930 . S
C1469 C1468 1.377 . S
C1469 C1470 1.379 . S
C1470 H1454 0.931 . S
C1470 C1464 1.383 . S
C1470 C1469 1.379 . S
H1471 C1465 0.959 . S
H1472 C1465 0.961 . S
H1473 C1465 0.960 . S
H1474 C1466 0.930 . S
H1475 C1467 0.929 . S
H1476 C1484 0.929 . S
H1477 C1486 0.930 . S
H1478 C1488 0.930 . S
H1479 C1491 0.929 . S
H1480 C1494 0.930 . S
H1481 C1496 0.960 . S
H1482 C1496 0.960 . S
H1483 C1496 0.960 . S
C1484 H1476 0.929 . S
C1484 C1485 1.377 . S
C1484 C1486 1.384 . S
C1485 C1484 1.377 . S
C1485 C1491 1.390 . S
C1486 H1477 0.930 . S
C1486 C1484 1.384 . S
C1486 C1487 1.372 . S
C1487 C1486 1.372 . S
C1487 C1488 1.400 . S
C1487 C1492 1.490 . S
C1488 H1478 0.930 . S
C1488 C1487 1.400 . S
C1488 C1491 1.386 . S
H1489 C1505 0.930 . S
H1490 C1506 0.931 . S
C1491 H1479 0.929 . S
C1491 C1485 1.390 . S
C1491 C1488 1.386 . S
C1492 C1487 1.490 . S
C1492 C1494 1.395 . S
C1492 C1495 1.403 . S
H1493 C1499 0.930 . S
C1494 H1480 0.930 . S
C1494 C1492 1.395 . S
C1494 C1497 1.403 . S
C1495 C1492 1.403 . S
C1495 C1496 1.524 . S
C1495 C1499 1.400 . S
C1496 H1481 0.960 . S
C1496 H1482 0.960 . S
C1496 H1483 0.960 . S
C1496 C1495 1.524 . S
C1497 C1494 1.403 . S
C1497 C1498 1.392 . S
C1497 C1501 1.495 . S
C1498 C1497 1.392 . S
C1498 C1499 1.385 . S
C1498 C1500 1.478 . S
C1499 H1493 0.930 . S
C1499 C1495 1.400 . S
C1499 C1498 1.385 . S
C1500 C1498 1.478 . S
C1500 C1502 1.381 . S
C1500 C1506 1.383 . S
C1501 C1497 1.495 . S
C1501 H1507 0.959 . S
C1501 H1508 0.961 . S
C1501 H1509 0.960 . S
C1502 C1500 1.381 . S
C1502 C1503 1.394 . S
C1502 H1510 0.930 . S
C1503 C1502 1.394 . S
C1503 C1504 1.383 . S
C1503 H1511 0.929 . S
C1504 C1503 1.383 . S
C1504 C1505 1.377 . S
C1505 H1489 0.930 . S
C1505 C1504 1.377 . S
C1505 C1506 1.379 . S
C1506 H1490 0.931 . S
C1506 C1500 1.383 . S
C1506 C1505 1.379 . S
H1507 C1501 0.959 . S
H1508 C1501 0.961 . S
H1509 C1501 0.960 . S
H1510 C1502 0.930 . S
H1511 C1503 0.929 . S
H1512 C1520 0.929 . S
H1513 C1522 0.930 . S
H1514 C1524 0.930 . S
H1515 C1527 0.929 . S
H1516 C1530 0.930 . S
H1517 C1532 0.960 . S
H1518 C1532 0.960 . S
H1519 C1532 0.960 . S
C1520 H1512 0.929 . S
C1520 C1521 1.377 . S
C1520 C1522 1.384 . S
C1521 C1520 1.377 . S
C1521 C1527 1.390 . S
C1522 H1513 0.930 . S
C1522 C1520 1.384 . S
C1522 C1523 1.372 . S
C1523 C1522 1.372 . S
C1523 C1524 1.400 . S
C1523 C1528 1.490 . S
C1524 H1514 0.930 . S
C1524 C1523 1.400 . S
C1524 C1527 1.386 . S
H1525 C1541 0.930 . S
H1526 C1542 0.931 . S
C1527 H1515 0.929 . S
C1527 C1521 1.390 . S
C1527 C1524 1.386 . S
C1528 C1523 1.490 . S
C1528 C1530 1.395 . S
C1528 C1531 1.403 . S
H1529 C1535 0.930 . S
C1530 H1516 0.930 . S
C1530 C1528 1.395 . S
C1530 C1533 1.403 . S
C1531 C1528 1.403 . S
C1531 C1532 1.524 . S
C1531 C1535 1.400 . S
C1532 H1517 0.960 . S
C1532 H1518 0.960 . S
C1532 H1519 0.960 . S
C1532 C1531 1.524 . S
C1533 C1530 1.403 . S
C1533 C1534 1.392 . S
C1533 C1537 1.495 . S
C1534 C1533 1.392 . S
C1534 C1535 1.385 . S
C1534 C1536 1.478 . S
C1535 H1529 0.930 . S
C1535 C1531 1.400 . S
C1535 C1534 1.385 . S
C1536 C1534 1.478 . S
C1536 C1538 1.381 . S
C1536 C1542 1.383 . S
C1537 C1533 1.495 . S
C1537 H1543 0.959 . S
C1537 H1544 0.961 . S
C1537 H1545 0.960 . S
C1538 C1536 1.381 . S
C1538 C1539 1.394 . S
C1538 H1546 0.930 . S
C1539 C1538 1.394 . S
C1539 C1540 1.383 . S
C1539 H1547 0.929 . S
C1540 C1539 1.383 . S
C1540 C1541 1.377 . S
C1541 H1525 0.930 . S
C1541 C1540 1.377 . S
C1541 C1542 1.379 . S
C1542 H1526 0.931 . S
C1542 C1536 1.383 . S
C1542 C1541 1.379 . S
H1543 C1537 0.959 . S
H1544 C1537 0.961 . S
H1545 C1537 0.960 . S
H1546 C1538 0.930 . S
H1547 C1539 0.929 . S
C261 C148 1.006 . S
C280 C8 1.010 . S
C297 C22 1.006 . S
C316 C162 1.018 . S
C333 C134 1.010 . S
C352 C36 0.993 . S
C369 C204 1.008 . S
C388 C50 1.024 . S
C405 C64 1.009 . S
C424 C176 1.021 . S
C441 C190 1.006 . S
C460 C78 1.020 . S
C477 C92 1.006 . S
C496 C232 1.012 . S
C513 C246 1.011 . S
C532 C106 0.991 . S
C549 C120 1.011 . S
C568 C218 0.991 . S
C585 C9 0.809 . S
C604 C17 0.842 . S
C621 C23 0.814 . S
C640 C31 0.860 . S
C657 C3 0.839 . S
C676 C37 0.778 . S
C693 C73 0.839 . S
C712 C51 0.859 . S
C729 C45 0.834 . S
C748 C65 0.838 . S
C765 C79 0.810 . S
C784 C59 0.839 . S
C801 C93 0.815 . S
C820 C101 0.860 . S
C837 C107 0.822 . S
C856 C115 0.815 . S
C873 C87 0.844 . S
C892 C121 0.750 . S
C909 C157 0.845 . S
C928 C135 0.759 . S
C945 C129 0.833 . S
C964 C149 0.866 . S
C981 C143 0.838 . S
C1000 C163 0.863 . S
C1017 C185 0.843 . S
C1036 C177 0.809 . S
C1053 C199 0.833 . S
C1072 C191 0.881 . S
C1089 C171 0.840 . S
C1108 C205 0.766 . S
C1125 C219 0.808 . S
C1144 C241 0.844 . S
C1161 C233 0.821 . S
C1180 C213 0.848 . S
C1197 C247 0.814 . S
C1216 C227 0.861 . S
C1233 C7 1.574 . S
C1252 C49 1.557 . S
C1269 C63 1.585 . S
C1288 C21 1.568 . S
C1305 C77 1.585 . S
C1324 C35 1.591 . S
C1341 C133 1.573 . S
C1360 C91 1.561 . S
C1377 C147 1.573 . S
C1396 C105 1.581 . S
C1413 C119 1.586 . S
C1432 C161 1.581 . S
C1449 C217 1.576 . S
C1468 C175 1.602 . S
C1485 C231 1.586 . S
C1504 C189 1.587 . S
C1521 C245 1.582 . S
C1540 C203 1.550 . S
