# Generated by pormake.
# Topology uox, (4)-cn, num edge types: 1
# Building blocks:
#     Node 0, Type 0, BuildingBlock: GALJAG_clean_sbu_0, # of connection points: 4
#     Node 1, Type 0, BuildingBlock: GALJAG_clean_sbu_0, # of connection points: 4
#     Node 2, Type 0, BuildingBlock: GALJAG_clean_sbu_0, # of connection points: 4
#     Node 3, Type 0, BuildingBlock: GALJAG_clean_sbu_0, # of connection points: 4
#     Node 4, Type 0, BuildingBlock: GALJAG_clean_sbu_0, # of connection points: 4
#     Node 5, Type 0, BuildingBlock: GALJAG_clean_sbu_0, # of connection points: 4
#     Node 6, Type 0, BuildingBlock: GALJAG_clean_sbu_0, # of connection points: 4
#     Node 7, Type 0, BuildingBlock: GALJAG_clean_sbu_0, # of connection points: 4
#     Node 8, Type 0, BuildingBlock: GALJAG_clean_sbu_0, # of connection points: 4
#     Node 9, Type 0, BuildingBlock: GALJAG_clean_sbu_0, # of connection points: 4
#     Node 10, Type 0, BuildingBlock: GALJAG_clean_sbu_0, # of connection points: 4
#     Node 11, Type 0, BuildingBlock: GALJAG_clean_sbu_0, # of connection points: 4
#     Node 12, Type 0, BuildingBlock: GALJAG_clean_sbu_0, # of connection points: 4
#     Node 13, Type 0, BuildingBlock: GALJAG_clean_sbu_0, # of connection points: 4
#     Node 14, Type 0, BuildingBlock: GALJAG_clean_sbu_0, # of connection points: 4
#     Node 15, Type 0, BuildingBlock: GALJAG_clean_sbu_0, # of connection points: 4
#     Node 16, Type 0, BuildingBlock: GALJAG_clean_sbu_0, # of connection points: 4
#     Node 17, Type 0, BuildingBlock: GALJAG_clean_sbu_0, # of connection points: 4
#     Node 18, Type 0, BuildingBlock: GALJAG_clean_sbu_0, # of connection points: 4
#     Node 19, Type 0, BuildingBlock: GALJAG_clean_sbu_0, # of connection points: 4
#     Node 20, Type 0, BuildingBlock: GALJAG_clean_sbu_0, # of connection points: 4
#     Node 21, Type 0, BuildingBlock: GALJAG_clean_sbu_0, # of connection points: 4
#     Node 22, Type 0, BuildingBlock: GALJAG_clean_sbu_0, # of connection points: 4
#     Node 23, Type 0, BuildingBlock: GALJAG_clean_sbu_0, # of connection points: 4
#     Node 24, Type 0, BuildingBlock: GALJAG_clean_sbu_0, # of connection points: 4
#     Node 25, Type 0, BuildingBlock: GALJAG_clean_sbu_0, # of connection points: 4
#     Node 26, Type 0, BuildingBlock: GALJAG_clean_sbu_0, # of connection points: 4
#     Node 27, Type 0, BuildingBlock: GALJAG_clean_sbu_0, # of connection points: 4
#     Node 28, Type 0, BuildingBlock: GALJAG_clean_sbu_0, # of connection points: 4
#     Node 29, Type 0, BuildingBlock: GALJAG_clean_sbu_0, # of connection points: 4
#     Node 30, Type 0, BuildingBlock: GALJAG_clean_sbu_0, # of connection points: 4
#     Node 31, Type 0, BuildingBlock: GALJAG_clean_sbu_0, # of connection points: 4
#     Edge 32, Type (0, 0), BuildingBlock: ZUJKAS_clean_linker_0, # of connection points: 2
#     Edge 33, Type (0, 0), BuildingBlock: ZUJKAS_clean_linker_0, # of connection points: 2
#     Edge 34, Type (0, 0), BuildingBlock: ZUJKAS_clean_linker_0, # of connection points: 2
#     Edge 35, Type (0, 0), BuildingBlock: ZUJKAS_clean_linker_0, # of connection points: 2
#     Edge 36, Type (0, 0), BuildingBlock: ZUJKAS_clean_linker_0, # of connection points: 2
#     Edge 37, Type (0, 0), BuildingBlock: ZUJKAS_clean_linker_0, # of connection points: 2
#     Edge 38, Type (0, 0), BuildingBlock: ZUJKAS_clean_linker_0, # of connection points: 2
#     Edge 39, Type (0, 0), BuildingBlock: ZUJKAS_clean_linker_0, # of connection points: 2
#     Edge 40, Type (0, 0), BuildingBlock: ZUJKAS_clean_linker_0, # of connection points: 2
#     Edge 41, Type (0, 0), BuildingBlock: ZUJKAS_clean_linker_0, # of connection points: 2
#     Edge 42, Type (0, 0), BuildingBlock: ZUJKAS_clean_linker_0, # of connection points: 2
#     Edge 43, Type (0, 0), BuildingBlock: ZUJKAS_clean_linker_0, # of connection points: 2
#     Edge 44, Type (0, 0), BuildingBlock: ZUJKAS_clean_linker_0, # of connection points: 2
#     Edge 45, Type (0, 0), BuildingBlock: ZUJKAS_clean_linker_0, # of connection points: 2
#     Edge 46, Type (0, 0), BuildingBlock: ZUJKAS_clean_linker_0, # of connection points: 2
#     Edge 47, Type (0, 0), BuildingBlock: ZUJKAS_clean_linker_0, # of connection points: 2
#     Edge 48, Type (0, 0), BuildingBlock: ZUJKAS_clean_linker_0, # of connection points: 2
#     Edge 49, Type (0, 0), BuildingBlock: ZUJKAS_clean_linker_0, # of connection points: 2
#     Edge 50, Type (0, 0), BuildingBlock: ZUJKAS_clean_linker_0, # of connection points: 2
#     Edge 51, Type (0, 0), BuildingBlock: ZUJKAS_clean_linker_0, # of connection points: 2
#     Edge 52, Type (0, 0), BuildingBlock: ZUJKAS_clean_linker_0, # of connection points: 2
#     Edge 53, Type (0, 0), BuildingBlock: ZUJKAS_clean_linker_0, # of connection points: 2
#     Edge 54, Type (0, 0), BuildingBlock: ZUJKAS_clean_linker_0, # of connection points: 2
#     Edge 55, Type (0, 0), BuildingBlock: ZUJKAS_clean_linker_0, # of connection points: 2
#     Edge 56, Type (0, 0), BuildingBlock: ZUJKAS_clean_linker_0, # of connection points: 2
#     Edge 57, Type (0, 0), BuildingBlock: ZUJKAS_clean_linker_0, # of connection points: 2
#     Edge 58, Type (0, 0), BuildingBlock: ZUJKAS_clean_linker_0, # of connection points: 2
#     Edge 59, Type (0, 0), BuildingBlock: ZUJKAS_clean_linker_0, # of connection points: 2
#     Edge 60, Type (0, 0), BuildingBlock: ZUJKAS_clean_linker_0, # of connection points: 2
#     Edge 61, Type (0, 0), BuildingBlock: ZUJKAS_clean_linker_0, # of connection points: 2
#     Edge 62, Type (0, 0), BuildingBlock: ZUJKAS_clean_linker_0, # of connection points: 2
#     Edge 63, Type (0, 0), BuildingBlock: ZUJKAS_clean_linker_0, # of connection points: 2
#     Edge 64, Type (0, 0), BuildingBlock: ZUJKAS_clean_linker_0, # of connection points: 2
#     Edge 65, Type (0, 0), BuildingBlock: ZUJKAS_clean_linker_0, # of connection points: 2
#     Edge 66, Type (0, 0), BuildingBlock: ZUJKAS_clean_linker_0, # of connection points: 2
#     Edge 67, Type (0, 0), BuildingBlock: ZUJKAS_clean_linker_0, # of connection points: 2
#     Edge 68, Type (0, 0), BuildingBlock: ZUJKAS_clean_linker_0, # of connection points: 2
#     Edge 69, Type (0, 0), BuildingBlock: ZUJKAS_clean_linker_0, # of connection points: 2
#     Edge 70, Type (0, 0), BuildingBlock: ZUJKAS_clean_linker_0, # of connection points: 2
#     Edge 71, Type (0, 0), BuildingBlock: ZUJKAS_clean_linker_0, # of connection points: 2
#     Edge 72, Type (0, 0), BuildingBlock: ZUJKAS_clean_linker_0, # of connection points: 2
#     Edge 73, Type (0, 0), BuildingBlock: ZUJKAS_clean_linker_0, # of connection points: 2
#     Edge 74, Type (0, 0), BuildingBlock: ZUJKAS_clean_linker_0, # of connection points: 2
#     Edge 75, Type (0, 0), BuildingBlock: ZUJKAS_clean_linker_0, # of connection points: 2
#     Edge 76, Type (0, 0), BuildingBlock: ZUJKAS_clean_linker_0, # of connection points: 2
#     Edge 77, Type (0, 0), BuildingBlock: ZUJKAS_clean_linker_0, # of connection points: 2
#     Edge 78, Type (0, 0), BuildingBlock: ZUJKAS_clean_linker_0, # of connection points: 2
#     Edge 79, Type (0, 0), BuildingBlock: ZUJKAS_clean_linker_0, # of connection points: 2
#     Edge 80, Type (0, 0), BuildingBlock: ZUJKAS_clean_linker_0, # of connection points: 2
#     Edge 81, Type (0, 0), BuildingBlock: ZUJKAS_clean_linker_0, # of connection points: 2
#     Edge 82, Type (0, 0), BuildingBlock: ZUJKAS_clean_linker_0, # of connection points: 2
#     Edge 83, Type (0, 0), BuildingBlock: ZUJKAS_clean_linker_0, # of connection points: 2
#     Edge 84, Type (0, 0), BuildingBlock: ZUJKAS_clean_linker_0, # of connection points: 2
#     Edge 85, Type (0, 0), BuildingBlock: ZUJKAS_clean_linker_0, # of connection points: 2
#     Edge 86, Type (0, 0), BuildingBlock: ZUJKAS_clean_linker_0, # of connection points: 2
#     Edge 87, Type (0, 0), BuildingBlock: ZUJKAS_clean_linker_0, # of connection points: 2
#     Edge 88, Type (0, 0), BuildingBlock: ZUJKAS_clean_linker_0, # of connection points: 2
#     Edge 89, Type (0, 0), BuildingBlock: ZUJKAS_clean_linker_0, # of connection points: 2
#     Edge 90, Type (0, 0), BuildingBlock: ZUJKAS_clean_linker_0, # of connection points: 2
#     Edge 91, Type (0, 0), BuildingBlock: ZUJKAS_clean_linker_0, # of connection points: 2
#     Edge 92, Type (0, 0), BuildingBlock: ZUJKAS_clean_linker_0, # of connection points: 2
#     Edge 93, Type (0, 0), BuildingBlock: ZUJKAS_clean_linker_0, # of connection points: 2
#     Edge 94, Type (0, 0), BuildingBlock: ZUJKAS_clean_linker_0, # of connection points: 2
#     Edge 95, Type (0, 0), BuildingBlock: ZUJKAS_clean_linker_0, # of connection points: 2
# Relax obj value: 0.005
# Max RMSD: 0.035
# Mean RMSD: 0.035
data_MOF--net-uox--node1-GALJAG_clean_sbu_0--edge1-ZUJKAS_clean_linker_0
_symmetry_space_group_name_H-M    P1
_symmetry_Int_Tables_number       1
_symmetry_cell_setting            triclinic
loop_
_symmetry_equiv_pos_as_xyz
'x, y, z'
_cell_length_a     63.009822
_cell_length_b     63.011721
_cell_length_c     93.968117
_cell_angle_alpha  90.000817
_cell_angle_beta   90.003547
_cell_angle_gamma 89.992817
loop_
_atom_site_label
_atom_site_type_symbol
_atom_site_fract_x
_atom_site_fract_y
_atom_site_fract_z
_atom_type_partial_charge
In0 In 0.39311 0.06828 0.15465 0.0
O1 O 0.38513 0.03829 0.14203 0.0
O2 O 0.36004 0.05429 0.15271 0.0
C3 C 0.4322 0.07401 0.14358 0.0
C4 C 0.39745 0.05312 0.18138 0.0
C5 C 0.37715 0.10691 0.14837 0.0
O6 O 0.41839 0.06262 0.13753 0.0
O7 O 0.42627 0.08229 0.15513 0.0
O8 O 0.38618 0.10293 0.16006 0.0
O9 O 0.37597 0.09139 0.13994 0.0
C10 C 0.36561 0.03881 0.14506 0.0
O11 O 0.38403 0.06721 0.17821 0.0
O12 O 0.40881 0.04697 0.17115 0.0
In13 In 0.18398 0.14558 0.40361 0.0
O14 O 0.18778 0.13119 0.42584 0.0
O15 O 0.20021 0.16202 0.4222 0.0
C16 C 0.14483 0.13025 0.3982 0.0
C17 C 0.21456 0.12081 0.39209 0.0
C18 C 0.17795 0.18525 0.39366 0.0
O19 O 0.15178 0.13251 0.41072 0.0
O20 O 0.15764 0.13561 0.38854 0.0
O21 O 0.18859 0.17158 0.38689 0.0
O22 O 0.17056 0.17889 0.40539 0.0
C23 C 0.19761 0.14696 0.43084 0.0
O24 O 0.21773 0.13998 0.39529 0.0
O25 O 0.19597 0.11436 0.3944 0.0
In26 In 0.10652 0.92786 0.65629 0.0
O27 O 0.11588 0.95481 0.64122 0.0
O28 O 0.1382 0.94491 0.65686 0.0
C29 C 0.06694 0.92318 0.64574 0.0
C30 C 0.10226 0.94437 0.6826 0.0
C31 C 0.12327 0.88921 0.65064 0.0
O32 O 0.08149 0.9324 0.63887 0.0
O33 O 0.07239 0.91645 0.65784 0.0
O34 O 0.11268 0.89294 0.66174 0.0
O35 O 0.12551 0.90492 0.6425 0.0
C36 C 0.134 0.95734 0.64673 0.0
O37 O 0.11444 0.92894 0.67998 0.0
O38 O 0.09197 0.95117 0.67202 0.0
In39 In 0.31459 0.85422 0.90313 0.0
O40 O 0.31601 0.85687 0.92736 0.0
O41 O 0.28774 0.84481 0.91804 0.0
C42 C 0.35382 0.8695 0.8978 0.0
C43 C 0.28769 0.88377 0.89269 0.0
C44 C 0.31944 0.81408 0.89351 0.0
O45 O 0.34647 0.86795 0.91025 0.0
O46 O 0.34135 0.86349 0.8881 0.0
O47 O 0.31132 0.82859 0.88602 0.0
O48 O 0.3249 0.81979 0.90584 0.0
C49 C 0.29746 0.84985 0.92927 0.0
O50 O 0.28569 0.86425 0.89001 0.0
O51 O 0.30342 0.88836 0.90038 0.0
In52 In 0.39594 0.93425 0.34419 0.0
O53 O 0.38629 0.93584 0.32077 0.0
O54 O 0.41102 0.95619 0.32782 0.0
C55 C 0.38008 0.8953 0.34959 0.0
C56 C 0.36921 0.96387 0.35475 0.0
C57 C 0.43546 0.92748 0.35425 0.0
O58 O 0.38482 0.90134 0.33718 0.0
O59 O 0.3832 0.90895 0.35919 0.0
O60 O 0.42138 0.93687 0.36145 0.0
O61 O 0.4296 0.92165 0.34201 0.0
C62 C 0.39946 0.95018 0.31764 0.0
O63 O 0.38908 0.96525 0.35606 0.0
O64 O 0.3629 0.94741 0.34843 0.0
In65 In 0.31637 0.1411 0.59364 0.0
O66 O 0.28944 0.13083 0.60844 0.0
O67 O 0.30001 0.10912 0.59259 0.0
C68 C 0.32047 0.18068 0.60437 0.0
C69 C 0.29995 0.14561 0.56734 0.0
C70 C 0.35517 0.12476 0.59937 0.0
O71 O 0.31159 0.16591 0.61122 0.0
O72 O 0.3271 0.17545 0.59221 0.0
O73 O 0.35141 0.13551 0.58834 0.0
O74 O 0.3394 0.12212 0.60741 0.0
C75 C 0.28732 0.11282 0.60267 0.0
O76 O 0.31625 0.1345 0.56976 0.0
O77 O 0.29224 0.1547 0.57813 0.0
In78 In 0.10773 0.07161 0.84271 0.0
O79 O 0.11635 0.04245 0.85608 0.0
O80 O 0.14112 0.05841 0.84514 0.0
C81 C 0.06836 0.07664 0.85347 0.0
C82 C 0.1039 0.05422 0.8166 0.0
C83 C 0.12256 0.11132 0.84704 0.0
O84 O 0.08336 0.06874 0.86064 0.0
O85 O 0.07326 0.08194 0.84095 0.0
O86 O 0.11543 0.10528 0.83516 0.0
O87 O 0.12223 0.09736 0.85665 0.0
C88 C 0.13586 0.04319 0.85308 0.0
O89 O 0.11683 0.06899 0.81925 0.0
O90 O 0.0927 0.04849 0.82703 0.0
In91 In 0.18017 0.85813 0.09247 0.0
O92 O 0.18021 0.86458 0.06849 0.0
O93 O 0.20279 0.84274 0.07659 0.0
C94 C 0.14256 0.87607 0.09915 0.0
C95 C 0.20918 0.88589 0.10239 0.0
C96 C 0.17365 0.81874 0.10293 0.0
O97 O 0.14628 0.86803 0.0871 0.0
O98 O 0.15788 0.87525 0.10778 0.0
O99 O 0.18911 0.8301 0.10679 0.0
O100 O 0.16164 0.82721 0.09383 0.0
C101 C 0.19555 0.85233 0.06588 0.0
O102 O 0.20697 0.86753 0.10759 0.0
O103 O 0.19654 0.89029 0.09241 0.0
In104 In 0.60351 0.93298 0.84443 0.0
O105 O 0.61509 0.95886 0.85958 0.0
O106 O 0.63592 0.94845 0.84314 0.0
C107 C 0.56401 0.92727 0.855 0.0
C108 C 0.59767 0.95087 0.81869 0.0
C109 C 0.621 0.89459 0.84969 0.0
O110 O 0.57811 0.93734 0.86175 0.0
O111 O 0.56983 0.92041 0.84304 0.0
O112 O 0.61147 0.89873 0.83822 0.0
O113 O 0.6218 0.90977 0.8584 0.0
C114 C 0.63299 0.96067 0.85359 0.0
O115 O 0.60682 0.93318 0.82026 0.0
O116 O 0.59125 0.95934 0.83008 0.0
In117 In 0.8173 0.855 0.59526 0.0
O118 O 0.78856 0.86546 0.60838 0.0
O119 O 0.80633 0.88923 0.59769 0.0
C120 C 0.82214 0.81488 0.60482 0.0
C121 C 0.80038 0.85051 0.56906 0.0
C122 C 0.85645 0.86994 0.60118 0.0
O123 O 0.81292 0.82904 0.61203 0.0
O124 O 0.82867 0.82091 0.59279 0.0
O125 O 0.84961 0.86822 0.58861 0.0
O126 O 0.84352 0.86426 0.6107 0.0
C127 C 0.79066 0.88491 0.60551 0.0
O128 O 0.81854 0.85842 0.57107 0.0
O129 O 0.79094 0.84466 0.58023 0.0
In130 In 0.89574 0.06514 0.34473 0.0
O131 O 0.88897 0.06409 0.32085 0.0
O132 O 0.91015 0.04115 0.32941 0.0
C133 C 0.88027 0.10414 0.35052 0.0
C134 C 0.86707 0.03701 0.35475 0.0
C135 C 0.93543 0.07096 0.35468 0.0
O136 O 0.88433 0.09813 0.338 0.0
O137 O 0.88389 0.09047 0.36002 0.0
O138 O 0.92138 0.06124 0.36171 0.0
O139 O 0.92946 0.0776 0.34266 0.0
C140 C 0.90071 0.04822 0.31857 0.0
O141 O 0.88648 0.03611 0.35799 0.0
O142 O 0.86217 0.05223 0.3467 0.0
In143 In 0.68111 0.14306 0.09243 0.0
O144 O 0.70931 0.13331 0.10628 0.0
O145 O 0.69528 0.10986 0.09302 0.0
C146 C 0.67532 0.18269 0.10273 0.0
C147 C 0.69787 0.14841 0.06629 0.0
C148 C 0.64229 0.12669 0.09786 0.0
O149 O 0.68451 0.16835 0.10981 0.0
O150 O 0.66928 0.17705 0.09051 0.0
O151 O 0.64777 0.13291 0.08565 0.0
O152 O 0.65643 0.12855 0.10728 0.0
C153 C 0.70954 0.11434 0.10195 0.0
O154 O 0.68089 0.13825 0.06838 0.0
O155 O 0.70624 0.15605 0.07736 0.0
In156 In 0.60585 0.06766 0.65571 0.0
O157 O 0.60467 0.07067 0.67999 0.0
O158 O 0.59704 0.04085 0.67081 0.0
C159 C 0.62342 0.10529 0.64889 0.0
C160 C 0.63609 0.04143 0.64557 0.0
C161 C 0.56579 0.07301 0.64612 0.0
O162 O 0.62193 0.09889 0.6616 0.0
O163 O 0.61626 0.0926 0.63967 0.0
O164 O 0.57737 0.05785 0.64201 0.0
O165 O 0.57434 0.08518 0.65508 0.0
C166 C 0.59934 0.0516 0.682 0.0
O167 O 0.61759 0.04201 0.64041 0.0
O168 O 0.63932 0.05425 0.65565 0.0
In169 In 0.68358 0.85321 0.40554 0.0
O170 O 0.6823 0.85819 0.42962 0.0
O171 O 0.70918 0.84239 0.42097 0.0
C172 C 0.64478 0.86854 0.39895 0.0
C173 C 0.71136 0.88202 0.39527 0.0
C174 C 0.6788 0.81282 0.39653 0.0
O175 O 0.65091 0.86619 0.41165 0.0
O176 O 0.65822 0.86326 0.38966 0.0
O177 O 0.68794 0.82682 0.38914 0.0
O178 O 0.67216 0.81919 0.40846 0.0
C179 C 0.7 0.84943 0.43192 0.0
O180 O 0.71256 0.86253 0.39232 0.0
O181 O 0.69597 0.88698 0.40317 0.0
In182 In 0.89225 0.93113 0.15583 0.0
O183 O 0.88431 0.93124 0.17953 0.0
O184 O 0.91085 0.94935 0.17271 0.0
C185 C 0.87317 0.89366 0.15029 0.0
C186 C 0.86503 0.96105 0.14623 0.0
C187 C 0.93152 0.92602 0.14482 0.0
O188 O 0.88237 0.89751 0.16194 0.0
O189 O 0.87339 0.90879 0.1415 0.0
O190 O 0.92175 0.9435 0.1442 0.0
O191 O 0.92148 0.9113 0.15091 0.0
C192 C 0.89918 0.94366 0.18292 0.0
O193 O 0.8798 0.95377 0.13857 0.0
O194 O 0.86406 0.95318 0.15853 0.0
In195 In 0.81843 0.1429 0.90438 0.0
O196 O 0.79235 0.13102 0.88946 0.0
O197 O 0.80429 0.10967 0.90501 0.0
C198 C 0.82244 0.18298 0.89459 0.0
C199 C 0.80116 0.14896 0.9303 0.0
C200 C 0.85744 0.12731 0.8985 0.0
O201 O 0.8123 0.16888 0.8879 0.0
O202 O 0.83043 0.17687 0.9062 0.0
O203 O 0.85112 0.13052 0.91105 0.0
O204 O 0.84406 0.13176 0.88899 0.0
C205 C 0.79137 0.11279 0.89498 0.0
O206 O 0.81921 0.14061 0.9286 0.0
O207 O 0.79202 0.15451 0.91894 0.0
In208 In 0.89343 0.56568 0.65563 0.0
O209 O 0.87675 0.56018 0.67695 0.0
O210 O 0.9095 0.55269 0.67554 0.0
C211 C 0.87879 0.60494 0.64964 0.0
C212 C 0.86893 0.53528 0.64376 0.0
C213 C 0.93329 0.56964 0.64554 0.0
O214 O 0.88071 0.5983 0.66226 0.0
O215 O 0.88407 0.59176 0.64018 0.0
O216 O 0.91993 0.55717 0.64002 0.0
O217 O 0.92657 0.57986 0.65617 0.0
C218 C 0.89299 0.55291 0.6831 0.0
O219 O 0.88735 0.53155 0.64836 0.0
O220 O 0.86314 0.55436 0.64483 0.0
In221 In 0.68333 0.64463 0.90414 0.0
O222 O 0.68083 0.64301 0.92844 0.0
O223 O 0.70879 0.65614 0.91946 0.0
C224 C 0.64636 0.62612 0.8968 0.0
C225 C 0.71157 0.61609 0.89421 0.0
C226 C 0.67661 0.6846 0.89488 0.0
O227 O 0.65206 0.62831 0.9096 0.0
O228 O 0.6594 0.63308 0.88773 0.0
O229 O 0.69182 0.67338 0.89043 0.0
O230 O 0.66495 0.67572 0.90401 0.0
C231 C 0.69889 0.65104 0.93059 0.0
O232 O 0.71024 0.63468 0.88928 0.0
O233 O 0.69839 0.61184 0.9039 0.0
In234 In 0.60494 0.43158 0.15502 0.0
O235 O 0.60804 0.43031 0.17924 0.0
O236 O 0.59456 0.45797 0.16996 0.0
C237 C 0.61928 0.39236 0.1486 0.0
C238 C 0.63526 0.45804 0.14515 0.0
C239 C 0.56465 0.42785 0.14559 0.0
O240 O 0.61736 0.39874 0.16127 0.0
O241 O 0.61413 0.40578 0.13926 0.0
O242 O 0.57891 0.43707 0.13847 0.0
O243 O 0.5707 0.42065 0.15744 0.0
C244 C 0.60016 0.44851 0.18117 0.0
O245 O 0.61603 0.45968 0.14156 0.0
O246 O 0.6392 0.44288 0.1535 0.0
In247 In 0.81626 0.3535 0.40428 0.0
O248 O 0.81588 0.36273 0.42779 0.0
O249 O 0.79342 0.33991 0.42068 0.0
C250 C 0.85534 0.36831 0.39808 0.0
C251 C 0.78772 0.38154 0.39395 0.0
C252 C 0.82151 0.31359 0.39455 0.0
O253 O 0.84966 0.36407 0.41065 0.0
O254 O 0.84133 0.36511 0.38873 0.0
O255 O 0.81249 0.32785 0.38729 0.0
O256 O 0.8277 0.31946 0.4067 0.0
C257 C 0.80052 0.35074 0.43091 0.0
O258 O 0.78574 0.36178 0.39224 0.0
O259 O 0.80418 0.38705 0.4006 0.0
In260 In 0.89302 0.43176 0.84457 0.0
O261 O 0.8868 0.46645 0.85036 0.0
O262 O 0.86473 0.44338 0.85751 0.0
C263 C 0.93301 0.42745 0.85445 0.0
C264 C 0.89223 0.44383 0.81697 0.0
C265 C 0.87691 0.39301 0.85026 0.0
O266 O 0.9204 0.44127 0.85926 0.0
O267 O 0.92551 0.41609 0.84461 0.0
O268 O 0.87793 0.40028 0.83775 0.0
O269 O 0.88384 0.40532 0.85976 0.0
C270 C 0.86971 0.46272 0.85687 0.0
O271 O 0.87571 0.43853 0.82367 0.0
O272 O 0.90916 0.44235 0.82404 0.0
In273 In 0.81554 0.64445 0.09396 0.0
O274 O 0.81723 0.64558 0.06965 0.0
O275 O 0.78728 0.65057 0.07948 0.0
C276 C 0.85491 0.6298 0.09964 0.0
C277 C 0.7904 0.61381 0.1048 0.0
C278 C 0.81872 0.68489 0.10327 0.0
O279 O 0.84703 0.6293 0.08729 0.0
O280 O 0.84287 0.63744 0.10905 0.0
O281 O 0.80901 0.67074 0.11019 0.0
O282 O 0.82657 0.67868 0.09165 0.0
C283 C 0.79767 0.64919 0.06806 0.0
O284 O 0.78869 0.63305 0.10834 0.0
O285 O 0.80504 0.61 0.096 0.0
In286 In 0.60429 0.56601 0.34412 0.0
O287 O 0.6079 0.56752 0.31992 0.0
O288 O 0.59097 0.54152 0.3287 0.0
C289 C 0.62221 0.60326 0.35145 0.0
C290 C 0.63299 0.53792 0.3541 0.0
C291 C 0.56445 0.57329 0.35341 0.0
O292 O 0.61947 0.59783 0.33864 0.0
O293 O 0.61615 0.58979 0.36052 0.0
O294 O 0.57538 0.55781 0.35779 0.0
O295 O 0.57352 0.58481 0.34428 0.0
C296 C 0.59801 0.55043 0.31767 0.0
O297 O 0.61446 0.53926 0.35914 0.0
O298 O 0.63702 0.5509 0.34427 0.0
In299 In 0.68202 0.35524 0.5941 0.0
O300 O 0.68382 0.36607 0.5709 0.0
O301 O 0.70335 0.34031 0.57731 0.0
C302 C 0.6429 0.3706 0.59974 0.0
C303 C 0.71165 0.3819 0.6046 0.0
C304 C 0.67652 0.31571 0.60443 0.0
O305 O 0.64813 0.36385 0.58758 0.0
O306 O 0.6574 0.36966 0.60897 0.0
O307 O 0.68562 0.33013 0.61148 0.0
O308 O 0.67025 0.32126 0.59223 0.0
C309 C 0.6977 0.35259 0.56742 0.0
O310 O 0.71287 0.36204 0.60611 0.0
O311 O 0.69539 0.38822 0.59804 0.0
In312 In 0.10427 0.43404 0.344 0.0
O313 O 0.10872 0.43287 0.31989 0.0
O314 O 0.09289 0.45959 0.32872 0.0
C315 C 0.12021 0.39529 0.34998 0.0
C316 C 0.13267 0.46231 0.35417 0.0
C317 C 0.06436 0.42819 0.3537 0.0
O318 O 0.11744 0.40167 0.33738 0.0
O319 O 0.11517 0.40851 0.35947 0.0
O320 O 0.07859 0.43705 0.36105 0.0
O321 O 0.07021 0.42251 0.34144 0.0
C322 C 0.09978 0.4505 0.31769 0.0
O323 O 0.1131 0.4635 0.35687 0.0
O324 O 0.13794 0.44668 0.34658 0.0
In325 In 0.31645 0.35797 0.09393 0.0
O326 O 0.3178 0.3617 0.06971 0.0
O327 O 0.29175 0.34494 0.07856 0.0
C328 C 0.35388 0.3757 0.10111 0.0
C329 C 0.28853 0.38655 0.10428 0.0
C330 C 0.32342 0.31795 0.103 0.0
O331 O 0.3483 0.37299 0.08832 0.0
O332 O 0.34047 0.36968 0.11024 0.0
O333 O 0.30796 0.32891 0.10735 0.0
O334 O 0.33518 0.32711 0.09404 0.0
C335 C 0.30065 0.35192 0.0675 0.0
O336 O 0.28986 0.36791 0.10911 0.0
O337 O 0.30146 0.3908 0.09445 0.0
In338 In 0.39629 0.5666 0.84294 0.0
O339 O 0.38452 0.54086 0.85812 0.0
O340 O 0.36288 0.5529 0.84276 0.0
C341 C 0.43666 0.57065 0.85218 0.0
C342 C 0.40208 0.54867 0.81719 0.0
C343 C 0.38018 0.60533 0.84903 0.0
O344 O 0.4228 0.56043 0.85903 0.0
O345 O 0.43017 0.5787 0.84068 0.0
O346 O 0.382 0.59862 0.83643 0.0
O347 O 0.38635 0.5925 0.85845 0.0
C348 C 0.36612 0.54007 0.85283 0.0
O349 O 0.39587 0.56762 0.81863 0.0
O350 O 0.4056 0.53899 0.8287 0.0
In351 In 0.18041 0.63955 0.59316 0.0
O352 O 0.20337 0.62627 0.60982 0.0
O353 O 0.19825 0.60839 0.59096 0.0
C354 C 0.17466 0.67902 0.60372 0.0
C355 C 0.19631 0.64726 0.567 0.0
C356 C 0.14266 0.62121 0.59876 0.0
O357 O 0.19088 0.66808 0.60659 0.0
O358 O 0.16153 0.6701 0.59556 0.0
O359 O 0.14767 0.6277 0.5865 0.0
O360 O 0.15676 0.62379 0.60813 0.0
C361 C 0.20777 0.60983 0.60271 0.0
O362 O 0.17951 0.63675 0.56894 0.0
O363 O 0.20482 0.65419 0.57823 0.0
In364 In 0.1045 0.56991 0.15504 0.0
O365 O 0.1107 0.56996 0.17902 0.0
O366 O 0.09165 0.54525 0.17044 0.0
C367 C 0.12104 0.6086 0.14954 0.0
C368 C 0.13269 0.54103 0.14562 0.0
C369 C 0.06533 0.57543 0.14392 0.0
O370 O 0.11095 0.6046 0.16083 0.0
O371 O 0.12288 0.59312 0.14114 0.0
O372 O 0.08014 0.56674 0.137 0.0
O373 O 0.0703 0.5811 0.15634 0.0
C374 C 0.10019 0.55324 0.18133 0.0
O375 O 0.11342 0.54075 0.14189 0.0
O376 O 0.13768 0.55602 0.15388 0.0
In377 In 0.18133 0.35813 0.90515 0.0
O378 O 0.20738 0.36859 0.88966 0.0
O379 O 0.19906 0.38931 0.90666 0.0
C380 C 0.17784 0.32003 0.89211 0.0
C381 C 0.19763 0.35239 0.93138 0.0
C382 C 0.14201 0.37488 0.90201 0.0
O383 O 0.18019 0.33706 0.88522 0.0
O384 O 0.17751 0.32228 0.90542 0.0
O385 O 0.14562 0.35916 0.90994 0.0
O386 O 0.15815 0.38222 0.89586 0.0
C387 C 0.21065 0.38604 0.89594 0.0
O388 O 0.18006 0.36158 0.92935 0.0
O389 O 0.20668 0.34588 0.92022 0.0
In390 In 0.39287 0.4285 0.65532 0.0
O391 O 0.39421 0.42687 0.67961 0.0
O392 O 0.40245 0.456 0.66963 0.0
C393 C 0.3759 0.39017 0.6493 0.0
C394 C 0.36246 0.45492 0.64561 0.0
C395 C 0.43285 0.42361 0.64552 0.0
O396 O 0.37721 0.3972 0.66185 0.0
O397 O 0.38294 0.40253 0.63987 0.0
O398 O 0.41967 0.43591 0.63966 0.0
O399 O 0.42591 0.41403 0.65634 0.0
C400 C 0.4 0.44592 0.68111 0.0
O401 O 0.38069 0.45399 0.64006 0.0
O402 O 0.35953 0.44232 0.65585 0.0
In403 In 0.31578 0.64668 0.40458 0.0
O404 O 0.28706 0.63762 0.39103 0.0
O405 O 0.30142 0.61371 0.40382 0.0
C406 C 0.32105 0.68606 0.39374 0.0
C407 C 0.29926 0.65078 0.43089 0.0
C408 C 0.35461 0.63029 0.39924 0.0
O409 O 0.31394 0.67091 0.38636 0.0
O410 O 0.32518 0.68133 0.40647 0.0
O411 O 0.35056 0.64068 0.41039 0.0
O412 O 0.33909 0.62804 0.39092 0.0
C413 C 0.2869 0.61852 0.39515 0.0
O414 O 0.31636 0.64089 0.42858 0.0
O415 O 0.29073 0.65873 0.41998 0.0
H416 H 0.37258 0.94425 0.29521 0.0
H417 H 0.37371 0.96186 0.27201 0.0
H418 H 0.43044 0.9953 0.28459 0.0
H419 H 0.42906 0.97819 0.30794 0.0
H420 H 0.40207 0.02156 0.27256 0.0
H421 H 0.4122 0.95042 0.23859 0.0
H422 H 0.38931 0.94876 0.24989 0.0
H423 H 0.41541 0.94961 0.25767 0.0
C424 C 0.38539 0.95521 0.29297 0.0
C425 C 0.40077 0.95981 0.30335 0.0
C426 C 0.38609 0.96518 0.27969 0.0
C427 C 0.40236 0.97964 0.27649 0.0
C428 C 0.4178 0.98413 0.28682 0.0
H429 H 0.42823 0.0266 0.19128 0.0
H430 H 0.43032 0.00991 0.21474 0.0
C431 C 0.41701 0.97432 0.30014 0.0
C432 C 0.4028 0.99078 0.2626 0.0
H433 H 0.40325 0.98263 0.2267 0.0
C434 C 0.40247 0.01306 0.26253 0.0
C435 C 0.40362 0.97968 0.24952 0.0
C436 C 0.40538 0.95581 0.24888 0.0
C437 C 0.40255 0.02455 0.24974 0.0
C438 C 0.40241 0.01342 0.23666 0.0
C439 C 0.40313 0.99115 0.23673 0.0
C440 C 0.40161 0.0245 0.22275 0.0
C441 C 0.40316 0.04848 0.25039 0.0
C442 C 0.38477 0.03827 0.21946 0.0
C443 C 0.38368 0.04803 0.20612 0.0
C444 C 0.39921 0.04388 0.19576 0.0
C445 C 0.41604 0.0301 0.19907 0.0
C446 C 0.41724 0.02053 0.21245 0.0
H447 H 0.40967 0.05417 0.26069 0.0
H448 H 0.41292 0.05516 0.24163 0.0
H449 H 0.38678 0.05475 0.24936 0.0
H450 H 0.37224 0.04115 0.2271 0.0
H451 H 0.37042 0.05841 0.20381 0.0
H452 H 0.31099 0.12419 0.54319 0.0
H453 H 0.29311 0.12521 0.52007 0.0
H454 H 0.24867 0.1713 0.53634 0.0
H455 H 0.26618 0.17003 0.55956 0.0
H456 H 0.22901 0.13907 0.52205 0.0
H457 H 0.29543 0.17133 0.48993 0.0
H458 H 0.30229 0.14778 0.49965 0.0
H459 H 0.29553 0.17164 0.50913 0.0
C460 C 0.29753 0.13468 0.54179 0.0
C461 C 0.29002 0.14709 0.55315 0.0
C462 C 0.28739 0.13531 0.52857 0.0
C463 C 0.26974 0.14855 0.52644 0.0
C464 C 0.26231 0.16103 0.53775 0.0
H465 H 0.21574 0.18056 0.44438 0.0
H466 H 0.23197 0.1811 0.468 0.0
C467 C 0.27236 0.16033 0.55099 0.0
C468 C 0.25856 0.14886 0.51257 0.0
H469 H 0.26561 0.15825 0.47713 0.0
C470 C 0.23697 0.14336 0.51222 0.0
C471 C 0.26892 0.1547 0.49981 0.0
C472 C 0.29176 0.1619 0.49962 0.0
C473 C 0.22551 0.14326 0.49942 0.0
C474 C 0.23607 0.14838 0.48658 0.0
C475 C 0.25759 0.15415 0.48697 0.0
C476 C 0.2251 0.14816 0.47263 0.0
C477 C 0.20214 0.13807 0.4998 0.0
C478 C 0.21579 0.12947 0.46741 0.0
C479 C 0.20632 0.12917 0.45395 0.0
C480 C 0.20629 0.1475 0.44543 0.0
C481 C 0.21552 0.1662 0.45071 0.0
C482 C 0.22483 0.16652 0.46419 0.0
H483 H 0.19534 0.14046 0.51059 0.0
H484 H 0.19313 0.14798 0.49212 0.0
H485 H 0.19987 0.12116 0.49688 0.0
H486 H 0.21624 0.11498 0.4736 0.0
H487 H 0.19949 0.11449 0.45009 0.0
H488 H 0.0733 0.02708 0.80715 0.0
H489 H 0.07206 0.00847 0.78432 0.0
H490 H 0.13075 0.03844 0.77184 0.0
H491 H 0.13166 0.05769 0.79445 0.0
H492 H 0.10319 0.03828 0.75043 0.0
H493 H 0.10702 0.95762 0.77374 0.0
H494 H 0.08487 0.97266 0.78022 0.0
H495 H 0.11148 0.98124 0.78416 0.0
C496 C 0.0859 0.02974 0.79951 0.0
C497 C 0.10264 0.04373 0.80259 0.0
C498 C 0.08526 0.01896 0.78653 0.0
C499 C 0.10158 0.02166 0.77651 0.0
C500 C 0.11806 0.03601 0.77945 0.0
H501 H 0.12831 0.93799 0.70539 0.0
H502 H 0.12795 0.95697 0.72811 0.0
C503 C 0.11856 0.047 0.79236 0.0
C504 C 0.10142 0.00969 0.76292 0.0
H505 H 0.09934 0.95968 0.74899 0.0
C506 C 0.10242 0.02109 0.75011 0.0
C507 C 0.10078 0.98723 0.76253 0.0
C508 C 0.1012 0.97395 0.77589 0.0
C509 C 0.10256 0.01069 0.73691 0.0
C510 C 0.10099 0.98829 0.7365 0.0
C511 C 0.10025 0.97687 0.74931 0.0
C512 C 0.10065 0.97635 0.7229 0.0
C513 C 0.10495 0.02383 0.72356 0.0
C514 C 0.08513 0.98057 0.71256 0.0
C515 C 0.08545 0.96992 0.69953 0.0
C516 C 0.10106 0.95457 0.69671 0.0
C517 C 0.11609 0.94976 0.70727 0.0
C518 C 0.11591 0.96059 0.72024 0.0
H519 H 0.11217 0.03954 0.72586 0.0
H520 H 0.11491 0.01556 0.71555 0.0
H521 H 0.08905 0.02665 0.71886 0.0
H522 H 0.07283 0.99221 0.71454 0.0
H523 H 0.07355 0.97381 0.69162 0.0
H524 H 0.31516 0.85967 0.95499 0.0
H525 H 0.29818 0.85818 0.97842 0.0
H526 H 0.24039 0.83562 0.95901 0.0
H527 H 0.25733 0.83676 0.93561 0.0
H528 H 0.26258 0.88007 0.9873 0.0
H529 H 0.24954 0.79322 0.99126 0.0
H530 H 0.26724 0.80489 0.97833 0.0
H531 H 0.23907 0.80477 0.97526 0.0
C532 C 0.2989 0.8542 0.95574 0.0
C533 C 0.28759 0.84825 0.94349 0.0
C534 C 0.28922 0.85339 0.96911 0.0
C535 C 0.26813 0.84651 0.97046 0.0
C536 C 0.25682 0.84054 0.95824 0.0
H537 H 0.18324 0.87194 0.04129 0.0
H538 H 0.20067 0.87016 0.01802 0.0
C539 C 0.26649 0.84131 0.94488 0.0
C540 C 0.25763 0.8465 0.98457 0.0
H541 H 0.23191 0.81475 0.00842 0.0
C542 C 0.25596 0.86578 0.99196 0.0
C543 C 0.24921 0.82779 0.99067 0.0
C544 C 0.2515 0.80644 0.98355 0.0
C545 C 0.24574 0.86692 0.0052 0.0
C546 C 0.23664 0.84836 0.01106 0.0
C547 C 0.23866 0.829 0.0038 0.0
C548 C 0.2254 0.84863 0.0249 0.0
C549 C 0.24509 0.88794 0.0129 0.0
C550 C 0.23309 0.83653 0.03631 0.0
C551 C 0.22308 0.83738 0.04957 0.0
C552 C 0.20515 0.8503 0.05161 0.0
C553 C 0.1971 0.86193 0.04005 0.0
C554 C 0.20711 0.86104 0.02678 0.0
H555 H 0.25728 0.89911 0.0088 0.0
H556 H 0.22928 0.89533 0.01133 0.0
H557 H 0.24761 0.88576 0.02451 0.0
H558 H 0.24712 0.82676 0.03505 0.0
H559 H 0.22962 0.8282 0.05827 0.0
H560 H 0.58354 0.99097 0.81329 0.0
H561 H 0.58158 0.0089 0.79017 0.0
H562 H 0.60471 0.95241 0.76947 0.0
H563 H 0.60694 0.93438 0.79255 0.0
H564 H 0.62224 0.00875 0.76879 0.0
H565 H 0.54522 0.97623 0.74943 0.0
H566 H 0.55063 0.97984 0.76817 0.0
H567 H 0.56345 0.95888 0.75858 0.0
C568 C 0.58806 0.98231 0.8038 0.0
C569 C 0.59541 0.96128 0.8047 0.0
C570 C 0.58695 0.99258 0.79065 0.0
C571 C 0.59293 0.98189 0.77821 0.0
C572 C 0.59995 0.96082 0.77901 0.0
H573 H 0.59459 0.00985 0.68864 0.0
H574 H 0.59266 0.99394 0.71231 0.0
C575 C 0.60123 0.95058 0.79217 0.0
C576 C 0.59268 0.99303 0.76441 0.0
H577 H 0.56444 0.99805 0.73364 0.0
C578 C 0.60959 0.00657 0.76109 0.0
C579 C 0.57619 0.9899 0.75447 0.0
C580 C 0.55773 0.97549 0.75775 0.0
C581 C 0.61071 0.01683 0.74786 0.0
C582 C 0.59412 0.01386 0.73788 0.0
C583 C 0.57709 0.0004 0.74132 0.0
C584 C 0.59456 0.02383 0.72359 0.0
C585 C 0.63002 0.0301 0.74452 0.0
C586 C 0.59587 0.04597 0.72206 0.0
C587 C 0.59724 0.05509 0.70852 0.0
C588 C 0.59692 0.04224 0.69631 0.0
C589 C 0.59488 0.02015 0.69786 0.0
C590 C 0.59376 0.01104 0.71138 0.0
H591 H 0.6436 0.02608 0.75157 0.0
H592 H 0.63507 0.02796 0.73329 0.0
H593 H 0.62616 0.0471 0.74619 0.0
H594 H 0.59595 0.05618 0.73132 0.0
H595 H 0.5986 0.07218 0.70762 0.0
H596 H 0.68433 0.86508 0.45694 0.0
H597 H 0.70135 0.86423 0.48039 0.0
H598 H 0.75454 0.83033 0.46256 0.0
H599 H 0.73759 0.83095 0.43914 0.0
H600 H 0.7395 0.81355 0.48867 0.0
H601 H 0.75346 0.90053 0.49145 0.0
H602 H 0.72648 0.89289 0.48796 0.0
H603 H 0.74674 0.88713 0.47507 0.0
C604 C 0.69961 0.85739 0.45804 0.0
C605 C 0.70968 0.84817 0.44621 0.0
C606 C 0.70935 0.85701 0.4714 0.0
C607 C 0.72932 0.84748 0.47313 0.0
C608 C 0.73917 0.83784 0.46141 0.0
H609 H 0.81698 0.86322 0.5436 0.0
H610 H 0.80005 0.8615 0.52015 0.0
C611 C 0.72947 0.83823 0.44805 0.0
C612 C 0.74008 0.84763 0.48713 0.0
H613 H 0.76153 0.88058 0.51211 0.0
C614 C 0.74434 0.82818 0.49381 0.0
C615 C 0.74661 0.86675 0.49367 0.0
C616 C 0.74329 0.88803 0.48665 0.0
C617 C 0.75473 0.82735 0.50702 0.0
C618 C 0.76075 0.8465 0.51374 0.0
C619 C 0.75675 0.86593 0.50696 0.0
C620 C 0.77123 0.84677 0.52784 0.0
C621 C 0.75945 0.806 0.51356 0.0
C622 C 0.76057 0.83914 0.5399 0.0
C623 C 0.77019 0.84009 0.55328 0.0
C624 C 0.7906 0.84879 0.55483 0.0
C625 C 0.80127 0.85637 0.54272 0.0
C626 C 0.79162 0.85543 0.52934 0.0
H627 H 0.75869 0.79304 0.50555 0.0
H628 H 0.77541 0.80588 0.51857 0.0
H629 H 0.74753 0.80258 0.52194 0.0
H630 H 0.74466 0.83276 0.539 0.0
H631 H 0.76153 0.83423 0.56243 0.0
H632 H 0.8766 0.05566 0.29497 0.0
H633 H 0.87808 0.03694 0.27217 0.0
H634 H 0.93077 0.99958 0.28743 0.0
H635 H 0.9289 0.01774 0.3104 0.0
H636 H 0.90847 0.03357 0.25238 0.0
H637 H 0.89068 0.95385 0.27431 0.0
H638 H 0.88794 0.97776 0.2847 0.0
H639 H 0.91365 0.96588 0.28219 0.0
C640 C 0.88851 0.04347 0.29345 0.0
C641 C 0.90252 0.03801 0.30449 0.0
C642 C 0.88934 0.03279 0.28043 0.0
C643 C 0.90424 0.01654 0.2782 0.0
C644 C 0.91875 0.01162 0.28905 0.0
H645 H 0.93235 0.96662 0.19348 0.0
H646 H 0.93486 0.98353 0.21688 0.0
C647 C 0.91777 0.02213 0.30212 0.0
C648 C 0.90457 0.00485 0.26451 0.0
H649 H 0.90083 0.95529 0.25001 0.0
C650 C 0.90678 0.01645 0.25185 0.0
C651 C 0.90205 0.98254 0.26383 0.0
C652 C 0.89823 0.96928 0.27697 0.0
C653 C 0.90658 0.00639 0.23853 0.0
C654 C 0.90477 0.98401 0.23788 0.0
C655 C 0.9025 0.97241 0.25054 0.0
C656 C 0.90419 0.97244 0.22414 0.0
C657 C 0.90765 0.01993 0.22529 0.0
C658 C 0.88664 0.95968 0.22074 0.0
C659 C 0.88538 0.94966 0.20751 0.0
C660 C 0.9016 0.95233 0.19741 0.0
C661 C 0.91952 0.96447 0.20102 0.0
C662 C 0.92089 0.97427 0.21433 0.0
H663 H 0.90304 0.03664 0.2275 0.0
H664 H 0.92418 0.02002 0.22121 0.0
H665 H 0.89712 0.01361 0.21682 0.0
H666 H 0.87364 0.95793 0.22819 0.0
H667 H 0.87138 0.9404 0.20502 0.0
H668 H 0.81722 0.13715 0.9561 0.0
H669 H 0.79943 0.13882 0.97925 0.0
H670 H 0.74447 0.16698 0.95946 0.0
H671 H 0.76221 0.16558 0.9363 0.0
H672 H 0.75673 0.18664 0.98528 0.0
H673 H 0.75023 0.09907 0.99052 0.0
H674 H 0.77666 0.10865 0.98733 0.0
H675 H 0.75662 0.11191 0.97389 0.0
C676 C 0.80139 0.1438 0.9567 0.0
C677 C 0.79104 0.15111 0.94439 0.0
C678 C 0.79123 0.14464 0.9699 0.0
C679 C 0.77053 0.15271 0.971 0.0
C680 C 0.76041 0.1606 0.95881 0.0
H681 H 0.68316 0.13271 0.04108 0.0
H682 H 0.70017 0.13501 0.01771 0.0
C683 C 0.77055 0.15977 0.9456 0.0
C684 C 0.75926 0.15258 0.98481 0.0
H685 H 0.74014 0.11953 0.01056 0.0
C686 C 0.75306 0.172 0.99082 0.0
C687 C 0.75423 0.1334 0.99187 0.0
C688 C 0.75959 0.11204 0.98554 0.0
C689 C 0.74225 0.17276 0.00388 0.0
C690 C 0.73781 0.15361 0.01114 0.0
C691 C 0.74371 0.13419 0.005 0.0
C692 C 0.72705 0.15328 0.02514 0.0
C693 C 0.73542 0.19402 0.00969 0.0
C694 C 0.73657 0.16276 0.03705 0.0
C695 C 0.72689 0.16149 0.05039 0.0
C696 C 0.70758 0.1506 0.05207 0.0
C697 C 0.69801 0.14124 0.04011 0.0
C698 C 0.7077 0.14253 0.02677 0.0
H699 H 0.73507 0.20638 0.00126 0.0
H700 H 0.71944 0.19299 0.01463 0.0
H701 H 0.74683 0.19916 0.01799 0.0
H702 H 0.75171 0.17078 0.03607 0.0
H703 H 0.73469 0.16876 0.05944 0.0
H704 H 0.85826 0.54609 0.6999 0.0
H705 H 0.85722 0.52807 0.72302 0.0
H706 H 0.92524 0.52071 0.72188 0.0
H707 H 0.92643 0.53867 0.69881 0.0
H708 H 0.87317 0.48543 0.7281 0.0
H709 H 0.91257 0.54615 0.76187 0.0
H710 H 0.90081 0.55239 0.74484 0.0
H711 H 0.92628 0.53965 0.74567 0.0
C712 C 0.87301 0.54089 0.70467 0.0
C713 C 0.89243 0.54382 0.69758 0.0
C714 C 0.87238 0.53055 0.71783 0.0
C715 C 0.89117 0.52324 0.72417 0.0
C716 C 0.91061 0.52651 0.71724 0.0
H717 H 0.92585 0.45502 0.80034 0.0
H718 H 0.92487 0.47313 0.77732 0.0
C719 C 0.91124 0.53672 0.70405 0.0
C720 C 0.89043 0.51122 0.73768 0.0
H721 H 0.90734 0.51218 0.77215 0.0
C722 C 0.88048 0.4913 0.73779 0.0
C723 C 0.9001 0.51893 0.75021 0.0
C724 C 0.91041 0.54053 0.75075 0.0
C725 C 0.88042 0.47858 0.75006 0.0
C726 C 0.89019 0.48625 0.7626 0.0
C727 C 0.89994 0.5063 0.7625 0.0
C728 C 0.89059 0.4738 0.77598 0.0
C729 C 0.87046 0.45683 0.74935 0.0
C730 C 0.87163 0.46799 0.78279 0.0
C731 C 0.87215 0.45749 0.79589 0.0
C732 C 0.89164 0.45284 0.80247 0.0
C733 C 0.91059 0.45834 0.79551 0.0
C734 C 0.91006 0.46874 0.78239 0.0
H735 H 0.86897 0.45113 0.73821 0.0
H736 H 0.87989 0.44509 0.7555 0.0
H737 H 0.8543 0.45753 0.75401 0.0
H738 H 0.85643 0.47212 0.77819 0.0
H739 H 0.85729 0.45361 0.80107 0.0
H740 H 0.81705 0.65197 0.04211 0.0
H741 H 0.79996 0.65481 0.01877 0.0
H742 H 0.73843 0.65285 0.03887 0.0
H743 H 0.75538 0.65069 0.06221 0.0
H744 H 0.77397 0.62713 0.00583 0.0
H745 H 0.73147 0.70335 0.01315 0.0
H746 H 0.75181 0.69439 0.02527 0.0
H747 H 0.72516 0.68429 0.02668 0.0
C748 C 0.79988 0.65235 0.04154 0.0
C749 C 0.78753 0.65124 0.05396 0.0
C750 C 0.79014 0.65396 0.02822 0.0
C751 C 0.76792 0.65445 0.02709 0.0
C752 C 0.75559 0.65314 0.0395 0.0
H753 H 0.68034 0.64257 0.95629 0.0
H754 H 0.69709 0.64412 0.97986 0.0
C755 C 0.7653 0.65174 0.05282 0.0
C756 C 0.75763 0.65525 0.01291 0.0
H757 H 0.72147 0.68261 0.99294 0.0
C758 C 0.76263 0.63936 0.00298 0.0
C759 C 0.74281 0.67124 0.00921 0.0
C760 C 0.73765 0.6894 0.01909 0.0
C761 C 0.75293 0.63882 0.98955 0.0
C762 C 0.73792 0.65457 0.98598 0.0
C763 C 0.73292 0.6705 0.99583 0.0
C764 C 0.72748 0.65481 0.97192 0.0
C765 C 0.75855 0.62126 0.97931 0.0
C766 C 0.73899 0.6607 0.95979 0.0
C767 C 0.72948 0.65995 0.94638 0.0
C768 C 0.70832 0.65323 0.9449 0.0
C769 C 0.69668 0.64779 0.95712 0.0
C770 C 0.70619 0.64867 0.97056 0.0
H771 H 0.76804 0.60853 0.98446 0.0
H772 H 0.74394 0.61414 0.97474 0.0
H773 H 0.76797 0.62792 0.97038 0.0
H774 H 0.75541 0.66561 0.96069 0.0
H775 H 0.73884 0.66426 0.93715 0.0
H776 H 0.57803 0.51354 0.31062 0.0
H777 H 0.57711 0.4962 0.28733 0.0
H778 H 0.61238 0.54824 0.26919 0.0
H779 H 0.61357 0.56561 0.29251 0.0
H780 H 0.5613 0.51041 0.26084 0.0
H781 H 0.64816 0.49542 0.25931 0.0
H782 H 0.63443 0.50297 0.27539 0.0
H783 H 0.64087 0.52264 0.26224 0.0
C784 C 0.58549 0.52135 0.30166 0.0
C785 C 0.596 0.54086 0.30339 0.0
C786 C 0.58493 0.51143 0.28837 0.0
C787 C 0.59497 0.52079 0.27662 0.0
C788 C 0.60488 0.54059 0.27821 0.0
H789 H 0.5837 0.48735 0.18757 0.0
H790 H 0.58159 0.50427 0.21094 0.0
C791 C 0.60544 0.55054 0.2915 0.0
C792 C 0.59534 0.50961 0.26278 0.0
H793 H 0.62874 0.4873 0.23841 0.0
C794 C 0.57602 0.50532 0.25592 0.0
C795 C 0.61457 0.50271 0.25654 0.0
C796 C 0.6357 0.50596 0.26378 0.0
C797 C 0.57545 0.49463 0.24282 0.0
C798 C 0.59473 0.48833 0.23637 0.0
C799 C 0.61401 0.49229 0.24335 0.0
C800 C 0.5953 0.47775 0.22232 0.0
C801 C 0.55423 0.48993 0.23609 0.0
C802 C 0.60404 0.45735 0.22095 0.0
C803 C 0.60536 0.44767 0.20759 0.0
C804 C 0.5981 0.45831 0.19538 0.0
C805 C 0.58932 0.47871 0.1968 0.0
C806 C 0.58799 0.48836 0.21015 0.0
H807 H 0.54111 0.49076 0.24398 0.0
H808 H 0.55101 0.50183 0.22766 0.0
H809 H 0.55417 0.47395 0.23111 0.0
H810 H 0.60988 0.44896 0.23022 0.0
H811 H 0.61225 0.43196 0.20681 0.0
H812 H 0.72383 0.32208 0.5567 0.0
H813 H 0.74121 0.3216 0.53344 0.0
H814 H 0.71138 0.38116 0.5228 0.0
H815 H 0.69342 0.3814 0.54591 0.0
H816 H 0.70997 0.35388 0.50088 0.0
H817 H 0.79184 0.35691 0.52227 0.0
H818 H 0.777 0.33477 0.52896 0.0
H819 H 0.7688 0.36138 0.53325 0.0
C820 C 0.72093 0.33504 0.54938 0.0
C821 C 0.70738 0.35184 0.55313 0.0
C822 C 0.731 0.33483 0.53615 0.0
C823 C 0.728 0.3516 0.52652 0.0
C824 C 0.71405 0.36814 0.53011 0.0
H825 H 0.8081 0.37747 0.4532 0.0
H826 H 0.79021 0.3779 0.47633 0.0
C827 C 0.7038 0.36825 0.5433 0.0
C828 C 0.73921 0.35178 0.51265 0.0
H829 H 0.78842 0.34946 0.49752 0.0
C830 C 0.72713 0.35301 0.50013 0.0
C831 C 0.76162 0.35102 0.51171 0.0
C832 C 0.77559 0.35118 0.52477 0.0
C833 C 0.73681 0.35312 0.48669 0.0
C834 C 0.75916 0.35136 0.48574 0.0
C835 C 0.77127 0.35052 0.49826 0.0
C836 C 0.77033 0.35068 0.47185 0.0
C837 C 0.72299 0.35558 0.47367 0.0
C838 C 0.76544 0.33496 0.46179 0.0
C839 C 0.77548 0.33481 0.44854 0.0
C840 C 0.79087 0.35017 0.44522 0.0
C841 C 0.7963 0.36545 0.45548 0.0
C842 C 0.78608 0.36572 0.46868 0.0
H843 H 0.70749 0.36299 0.47633 0.0
H844 H 0.73092 0.3654 0.46543 0.0
H845 H 0.71974 0.33969 0.46908 0.0
H846 H 0.75379 0.32283 0.46417 0.0
H847 H 0.77112 0.32273 0.44088 0.0
H848 H 0.08246 0.48878 0.31082 0.0
H849 H 0.08125 0.50565 0.28741 0.0
H850 H 0.11213 0.45112 0.26892 0.0
H851 H 0.11369 0.43425 0.29239 0.0
H852 H 0.13034 0.48924 0.26089 0.0
H853 H 0.04302 0.49169 0.25359 0.0
H854 H 0.05183 0.5033 0.27001 0.0
H855 H 0.05564 0.47539 0.26694 0.0
C856 C 0.08883 0.4803 0.30175 0.0
C857 C 0.09812 0.46017 0.30342 0.0
C858 C 0.08802 0.48991 0.28837 0.0
C859 C 0.09632 0.4795 0.27641 0.0
C860 C 0.10553 0.45936 0.27803 0.0
H861 H 0.08012 0.51635 0.18818 0.0
H862 H 0.07933 0.49857 0.2113 0.0
C863 C 0.10638 0.44974 0.29142 0.0
C864 C 0.09624 0.49005 0.26232 0.0
H865 H 0.06366 0.51196 0.23729 0.0
C866 C 0.11577 0.49413 0.25569 0.0
C867 C 0.07719 0.4962 0.25551 0.0
C868 C 0.05571 0.49126 0.2618 0.0
C869 C 0.11679 0.50453 0.2425 0.0
C870 C 0.09777 0.51136 0.23593 0.0
C871 C 0.07822 0.50694 0.24245 0.0
C872 C 0.09782 0.52261 0.2221 0.0
C873 C 0.13818 0.50779 0.23562 0.0
C874 C 0.10813 0.54223 0.22058 0.0
C875 C 0.10867 0.55241 0.20736 0.0
C876 C 0.09874 0.54319 0.19548 0.0
C877 C 0.08795 0.52382 0.19713 0.0
C878 C 0.08747 0.51365 0.21033 0.0
H879 H 0.15038 0.49698 0.24014 0.0
H880 H 0.13731 0.50517 0.22395 0.0
H881 H 0.14348 0.52435 0.2375 0.0
H882 H 0.11583 0.54963 0.22961 0.0
H883 H 0.117 0.56738 0.20642 0.0
H884 H 0.26342 0.33244 0.06063 0.0
H885 H 0.2464 0.33076 0.03728 0.0
H886 H 0.29905 0.36474 0.01881 0.0
H887 H 0.31609 0.36674 0.04222 0.0
H888 H 0.25968 0.38141 0.01153 0.0
H889 H 0.26164 0.29436 0.0027 0.0
H890 H 0.25007 0.30207 0.01938 0.0
H891 H 0.27767 0.30732 0.01604 0.0
C892 C 0.27149 0.33936 0.05157 0.0
C893 C 0.29111 0.34969 0.05323 0.0
C894 C 0.26179 0.33829 0.03823 0.0
C895 C 0.2716 0.34738 0.0263 0.0
C896 C 0.29128 0.35753 0.02789 0.0
H897 H 0.23562 0.33415 0.93782 0.0
H898 H 0.25317 0.33279 0.96102 0.0
C899 C 0.301 0.35863 0.04125 0.0
C900 C 0.26079 0.34728 0.01231 0.0
H901 H 0.24033 0.3146 0.98678 0.0
C902 C 0.25552 0.36681 0.00608 0.0
C903 C 0.25554 0.3282 0.0052 0.0
C904 C 0.26168 0.30679 0.01108 0.0
C905 C 0.24487 0.36781 0.99298 0.0
C906 C 0.23905 0.34873 0.98608 0.0
C907 C 0.24459 0.32919 0.9922 0.0
C908 C 0.22782 0.34878 0.97224 0.0
C909 C 0.24029 0.38926 0.98654 0.0
C910 C 0.20754 0.35782 0.97095 0.0
C911 C 0.19748 0.35866 0.9577 0.0
C912 C 0.2075 0.35034 0.94556 0.0
C913 C 0.22753 0.34074 0.94698 0.0
C914 C 0.23757 0.33993 0.96022 0.0
H915 H 0.25021 0.40193 0.99137 0.0
H916 H 0.2431 0.3891 0.97487 0.0
H917 H 0.22338 0.39336 0.9884 0.0
H918 H 0.19958 0.36437 0.98018 0.0
H919 H 0.182 0.36606 0.95694 0.0
H920 H 0.39778 0.56663 0.79086 0.0
H921 H 0.39961 0.54865 0.76772 0.0
H922 H 0.41269 0.48932 0.7888 0.0
H923 H 0.41104 0.50711 0.81194 0.0
H924 H 0.43652 0.51968 0.7569 0.0
H925 H 0.35706 0.48182 0.76255 0.0
H926 H 0.36423 0.50566 0.77209 0.0
H927 H 0.37488 0.48055 0.77751 0.0
C928 C 0.40117 0.54978 0.79055 0.0
C929 C 0.4042 0.53825 0.80319 0.0
C930 C 0.40224 0.53958 0.77735 0.0
C931 C 0.40614 0.5177 0.77663 0.0
C932 C 0.40954 0.50621 0.7892 0.0
H933 H 0.39929 0.42684 0.70722 0.0
H934 H 0.40258 0.44396 0.73052 0.0
C935 C 0.40863 0.51641 0.80238 0.0
C936 C 0.40618 0.5067 0.76276 0.0
H937 H 0.37685 0.47326 0.7421 0.0
C938 C 0.42351 0.50953 0.75361 0.0
C939 C 0.38924 0.4934 0.75865 0.0
C940 C 0.37018 0.49016 0.76813 0.0
C941 C 0.42443 0.49916 0.7404 0.0
C942 C 0.40727 0.48611 0.73613 0.0
C943 C 0.39 0.48324 0.74538 0.0
C944 C 0.40659 0.47564 0.722 0.0
C945 C 0.44396 0.50195 0.73129 0.0
C946 C 0.40769 0.48776 0.70949 0.0
C947 C 0.40602 0.47799 0.6962 0.0
C948 C 0.40286 0.45597 0.69517 0.0
C949 C 0.40175 0.44384 0.70769 0.0
C950 C 0.40361 0.4536 0.721 0.0
H951 H 0.45793 0.50665 0.73778 0.0
H952 H 0.44786 0.48715 0.72544 0.0
H953 H 0.44104 0.51473 0.7234 0.0
H954 H 0.40938 0.50484 0.71 0.0
H955 H 0.40673 0.48778 0.68673 0.0
H956 H 0.18136 0.63324 0.54139 0.0
H957 H 0.199 0.63562 0.51823 0.0
H958 H 0.25105 0.66951 0.53751 0.0
H959 H 0.23338 0.66748 0.56066 0.0
H960 H 0.23813 0.68674 0.51153 0.0
H961 H 0.25097 0.59975 0.50763 0.0
H962 H 0.22378 0.60731 0.51034 0.0
H963 H 0.2431 0.61259 0.52397 0.0
C964 C 0.19649 0.64132 0.54067 0.0
C965 C 0.20607 0.65005 0.55284 0.0
C966 C 0.2066 0.64256 0.52746 0.0
C967 C 0.2265 0.65239 0.52623 0.0
C968 C 0.23575 0.66175 0.53827 0.0
H969 H 0.3148 0.6356 0.45606 0.0
H970 H 0.29786 0.63723 0.4795 0.0
C971 C 0.22564 0.66056 0.55148 0.0
C972 C 0.23789 0.6526 0.51246 0.0
H973 H 0.25942 0.62017 0.4872 0.0
C974 C 0.24284 0.67221 0.50621 0.0
C975 C 0.24432 0.6336 0.50568 0.0
C976 C 0.24048 0.61211 0.51229 0.0
C977 C 0.25372 0.67333 0.49319 0.0
C978 C 0.25947 0.65431 0.48617 0.0
C979 C 0.25485 0.63472 0.49256 0.0
C980 C 0.27015 0.6543 0.47213 0.0
C981 C 0.25922 0.69484 0.48718 0.0
C982 C 0.26014 0.66328 0.46024 0.0
C983 C 0.2698 0.66244 0.44687 0.0
C984 C 0.28956 0.65241 0.44515 0.0
C985 C 0.29959 0.64346 0.45708 0.0
C986 C 0.28994 0.64437 0.47046 0.0
H987 H 0.25913 0.7073 0.49555 0.0
H988 H 0.27508 0.69465 0.48203 0.0
H989 H 0.24727 0.69928 0.47904 0.0
H990 H 0.24465 0.6706 0.46123 0.0
H991 H 0.26161 0.66935 0.43786 0.0
H992 H 0.32279 0.03851 0.1489 0.0
H993 H 0.29765 0.01096 0.14182 0.0
H994 H 0.34887 0.9742 0.12391 0.0
H995 H 0.37414 0.00201 0.13072 0.0
H996 H 0.31439 0.97581 0.10637 0.0
H997 H 0.28935 0.95382 0.16089 0.0
H998 H 0.28623 0.98163 0.15737 0.0
H999 H 0.31236 0.97008 0.15744 0.0
C1000 C 0.32872 0.02456 0.14345 0.0
C1001 C 0.35044 0.02235 0.14041 0.0
C1002 C 0.31435 0.00876 0.13952 0.0
C1003 C 0.32146 0.99033 0.13263 0.0
C1004 C 0.34309 0.98824 0.12934 0.0
H1005 H 0.24111 0.8785 0.12145 0.0
H1006 H 0.26943 0.90297 0.12855 0.0
C1007 C 0.35749 0.00412 0.13321 0.0
C1008 C 0.30617 0.97352 0.12856 0.0
H1009 H 0.26756 0.94111 0.14187 0.0
C1010 C 0.30427 0.96808 0.11413 0.0
C1011 C 0.29324 0.96319 0.13874 0.0
C1012 C 0.29552 0.9673 0.15449 0.0
C1013 C 0.28928 0.95309 0.10956 0.0
C1014 C 0.27552 0.94367 0.11965 0.0
C1015 C 0.27792 0.94857 0.13413 0.0
C1016 C 0.25835 0.9289 0.11539 0.0
C1017 C 0.28847 0.94738 0.09397 0.0
C1018 C 0.24252 0.93551 0.10586 0.0
C1019 C 0.22644 0.92156 0.10174 0.0
C1020 C 0.22573 0.90083 0.10723 0.0
C1021 C 0.24128 0.89439 0.11704 0.0
C1022 C 0.25746 0.90832 0.12109 0.0
H1023 H 0.30378 0.95082 0.08858 0.0
H1024 H 0.28461 0.93034 0.09245 0.0
H1025 H 0.27599 0.95699 0.08868 0.0
H1026 H 0.24257 0.9515 0.10163 0.0
H1027 H 0.21457 0.92702 0.09425 0.0
H1028 H 0.25713 0.12889 0.39051 0.0
H1029 H 0.2853 0.10408 0.3835 0.0
H1030 H 0.23833 0.05589 0.37518 0.0
H1031 H 0.21017 0.08046 0.38219 0.0
H1032 H 0.29234 0.06248 0.39678 0.0
H1033 H 0.27637 0.05755 0.33874 0.0
H1034 H 0.26722 0.07936 0.34962 0.0
H1035 H 0.25348 0.05439 0.34996 0.0
C1036 C 0.25282 0.11308 0.38702 0.0
C1037 C 0.23147 0.10659 0.38686 0.0
C1038 C 0.2689 0.09895 0.38307 0.0
C1039 C 0.26383 0.07827 0.37872 0.0
C1040 C 0.24252 0.07189 0.37833 0.0
H1041 H 0.32604 0.96314 0.35389 0.0
H1042 H 0.30156 0.99165 0.36033 0.0
C1043 C 0.22647 0.08592 0.38238 0.0
C1044 C 0.28077 0.0629 0.37523 0.0
H1045 H 0.29965 0.03164 0.34845 0.0
C1046 C 0.29416 0.05586 0.38619 0.0
C1047 C 0.28294 0.05433 0.36143 0.0
C1048 C 0.26938 0.06188 0.3492 0.0
C1049 C 0.30922 0.03983 0.38381 0.0
C1050 C 0.31116 0.03097 0.37003 0.0
C1051 C 0.29807 0.0384 0.35901 0.0
C1052 C 0.32618 0.01352 0.36686 0.0
C1053 C 0.32232 0.03193 0.39617 0.0
C1054 C 0.34816 0.01634 0.36845 0.0
C1055 C 0.3622 -1e-05 0.36487 0.0
C1056 C 0.35447 0.98066 0.3595 0.0
C1057 C 0.33246 0.97784 0.35802 0.0
C1058 C 0.31846 0.99413 0.36166 0.0
H1059 H 0.31533 0.03661 0.40656 0.0
H1060 H 0.32386 0.01438 0.39588 0.0
H1061 H 0.33847 0.03887 0.39551 0.0
H1062 H 0.35447 0.03132 0.37219 0.0
H1063 H 0.37909 0.00266 0.366 0.0
H1064 H 0.13118 0.98266 0.62315 0.0
H1065 H 0.15694 0.00924 0.61507 0.0
H1066 H 0.19622 0.9959 0.6516 0.0
H1067 H 0.17094 0.96899 0.65948 0.0
H1068 H 0.17122 0.04533 0.62765 0.0
H1069 H 0.2382 0.98973 0.61946 0.0
H1070 H 0.21136 0.98073 0.62229 0.0
H1071 H 0.22763 0.98844 0.63716 0.0
C1072 C 0.14537 0.98535 0.6294 0.0
C1073 C 0.14918 0.97363 0.64186 0.0
C1074 C 0.16004 0.00054 0.6248 0.0
C1075 C 0.17869 0.00425 0.63259 0.0
C1076 C 0.18223 0.99289 0.64521 0.0
H1077 H 0.26155 0.11441 0.62609 0.0
H1078 H 0.23471 0.08837 0.63325 0.0
C1079 C 0.16771 0.9776 0.64974 0.0
C1080 C 0.19436 0.02017 0.62767 0.0
H1081 H 0.24666 0.02659 0.61929 0.0
C1082 C 0.18769 0.04123 0.62573 0.0
C1083 C 0.21577 0.01472 0.62497 0.0
C1084 C 0.22364 0.99214 0.62593 0.0
C1085 C 0.20197 0.0571 0.62142 0.0
C1086 C 0.22358 0.05181 0.61936 0.0
C1087 C 0.23014 0.03068 0.62105 0.0
C1088 C 0.23964 0.06779 0.61509 0.0
C1089 C 0.19365 0.07923 0.61888 0.0
C1090 C 0.25177 0.06455 0.60275 0.0
C1091 C 0.26732 0.07916 0.5988 0.0
C1092 C 0.27101 0.09736 0.60708 0.0
C1093 C 0.25893 0.10059 0.61946 0.0
C1094 C 0.24349 0.08583 0.62349 0.0
H1095 H 0.17626 0.07922 0.61689 0.0
H1096 H 0.19666 0.08908 0.62845 0.0
H1097 H 0.20169 0.08679 0.60966 0.0
H1098 H 0.24914 0.05071 0.59614 0.0
H1099 H 0.27636 0.07626 0.58919 0.0
H1100 H 0.12849 0.00869 0.87006 0.0
H1101 H 0.15396 0.98113 0.877 0.0
H1102 H 0.20329 0.01363 0.85382 0.0
H1103 H 0.17797 0.0411 0.84678 0.0
H1104 H 0.20014 0.96949 0.84793 0.0
H1105 H 0.20332 0.98647 0.90596 0.0
H1106 H 0.17718 0.98298 0.89864 0.0
H1107 H 0.193 0.00524 0.89319 0.0
C1108 C 0.1448 0.01003 0.86655 0.0
C1109 C 0.15126 0.02706 0.85792 0.0
C1110 C 0.15933 0.99433 0.87055 0.0
C1111 C 0.18052 0.99548 0.86601 0.0
C1112 C 0.187 0.0125 0.85745 0.0
H1113 H 0.29001 0.92661 0.89628 0.0
H1114 H 0.26382 0.95326 0.88923 0.0
C1115 C 0.17253 0.0282 0.85347 0.0
C1116 C 0.1959 0.97866 0.86982 0.0
H1117 H 0.22189 0.95616 0.89788 0.0
C1118 C 0.20491 0.96653 0.85885 0.0
C1119 C 0.20218 0.97503 0.88405 0.0
C1120 C 0.19359 0.98819 0.89616 0.0
C1121 C 0.22006 0.95077 0.86173 0.0
C1122 C 0.2261 0.9469 0.87599 0.0
C1123 C 0.21712 0.95909 0.88696 0.0
C1124 C 0.24215 0.93067 0.87977 0.0
C1125 C 0.22981 0.93876 0.84947 0.0
C1126 C 0.23863 0.90913 0.87677 0.0
C1127 C 0.25365 0.89387 0.88071 0.0
C1128 C 0.27232 0.8999 0.88783 0.0
C1129 C 0.2758 0.92149 0.89078 0.0
C1130 C 0.26084 0.93672 0.8868 0.0
H1131 H 0.22745 0.94715 0.83919 0.0
H1132 H 0.24708 0.93635 0.85117 0.0
H1133 H 0.22219 0.92294 0.84863 0.0
H1134 H 0.22413 0.90407 0.8716 0.0
H1135 H 0.25046 0.87733 0.8784 0.0
H1136 H 0.76504 0.1139 0.87189 0.0
H1137 H 0.7382 0.08766 0.86516 0.0
H1138 H 0.75498 0.04957 0.90162 0.0
H1139 H 0.78227 0.07537 0.90814 0.0
H1140 H 0.75008 0.02552 0.87847 0.0
H1141 H 0.6811 0.07951 0.88366 0.0
H1142 H 0.70068 0.0892 0.87142 0.0
H1143 H 0.70721 0.0865 0.88998 0.0
C1144 C 0.76302 0.0999 0.87844 0.0
C1145 C 0.77567 0.0967 0.89057 0.0
C1146 C 0.74756 0.08501 0.87466 0.0
C1147 C 0.74426 0.06689 0.88307 0.0
C1148 C 0.75717 0.0635 0.89503 0.0
H1149 H 0.63277 0.9853 0.87757 0.0
H1150 H 0.66013 0.01046 0.88527 0.0
C1151 C 0.77276 0.07825 0.89873 0.0
C1152 C 0.72759 0.05124 0.87931 0.0
H1153 H 0.67456 0.04604 0.87271 0.0
C1154 C 0.73355 0.02998 0.87728 0.0
C1155 C 0.70596 0.057 0.87802 0.0
C1156 C 0.69829 0.07925 0.88103 0.0
C1157 C 0.71855 0.01441 0.87371 0.0
C1158 C 0.69709 0.02038 0.87175 0.0
C1159 C 0.69106 0.04154 0.87406 0.0
C1160 C 0.68068 0.00495 0.86718 0.0
C1161 C 0.72582 0.99168 0.87233 0.0
C1162 C 0.68303 0.99373 0.85438 0.0
C1163 C 0.66757 0.97924 0.85005 0.0
C1164 C 0.64928 0.97596 0.85831 0.0
C1165 C 0.64673 0.98747 0.871 0.0
C1166 C 0.66233 0.00185 0.8754 0.0
H1167 H 0.74071 0.98881 0.87837 0.0
H1168 H 0.71351 0.98047 0.87621 0.0
H1169 H 0.72904 0.98814 0.86097 0.0
H1170 H 0.69676 0.9963 0.84766 0.0
H1171 H 0.66986 0.97076 0.84014 0.0
H1172 H 0.67737 0.03937 0.65405 0.0
H1173 H 0.7042 0.0135 0.6468 0.0
H1174 H 0.65858 0.98317 0.61927 0.0
H1175 H 0.63176 0.00931 0.62624 0.0
H1176 H 0.70335 0.97065 0.65039 0.0
H1177 H 0.70924 0.99045 0.59301 0.0
H1178 H 0.69621 0.00758 0.60569 0.0
H1179 H 0.68269 0.98466 0.59875 0.0
C1180 C 0.67311 0.02732 0.64634 0.0
C1181 C 0.6525 0.02639 0.64066 0.0
C1182 C 0.68844 0.01254 0.64223 0.0
C1183 C 0.68346 0.99657 0.63238 0.0
C1184 C 0.6629 0.99564 0.62666 0.0
H1185 H 0.75354 0.87907 0.62001 0.0
H1186 H 0.72768 0.90621 0.62688 0.0
C1187 C 0.64756 0.01051 0.6307 0.0
C1188 C 0.69959 0.98042 0.62857 0.0
H1189 H 0.72648 0.95881 0.60057 0.0
C1190 C 0.70848 0.9681 0.6395 0.0
C1191 C 0.70643 0.97731 0.61438 0.0
C1192 C 0.69832 0.99083 0.60229 0.0
C1193 C 0.72384 0.95257 0.63662 0.0
C1194 C 0.73015 0.94897 0.62238 0.0
C1195 C 0.72146 0.96147 0.61147 0.0
C1196 C 0.74596 0.93252 0.61856 0.0
C1197 C 0.73346 0.94045 0.64888 0.0
C1198 C 0.76462 0.93826 0.61138 0.0
C1199 C 0.77929 0.92279 0.60733 0.0
C1200 C 0.77556 0.90128 0.61038 0.0
C1201 C 0.75692 0.89555 0.61763 0.0
C1202 C 0.74218 0.91104 0.62162 0.0
H1203 H 0.73137 0.94899 0.65914 0.0
H1204 H 0.72549 0.92481 0.64983 0.0
H1205 H 0.75067 0.93766 0.64715 0.0
H1206 H 0.7678 0.95474 0.60888 0.0
H1207 H 0.79349 0.92768 0.60172 0.0
H1208 H 0.74731 0.87469 0.37979 0.0
H1209 H 0.77463 0.9005 0.37309 0.0
H1210 H 0.73847 0.95042 0.39307 0.0
H1211 H 0.7113 0.9247 0.39999 0.0
H1212 H 0.77172 0.93698 0.3566 0.0
H1213 H 0.79686 0.95617 0.4117 0.0
H1214 H 0.78057 0.93344 0.40752 0.0
H1215 H 0.76891 0.95944 0.40869 0.0
C1216 C 0.74518 0.89117 0.38273 0.0
C1217 C 0.72725 0.89767 0.39049 0.0
C1218 C 0.76078 0.90588 0.37891 0.0
C1219 C 0.75874 0.92727 0.38283 0.0
C1220 C 0.74058 0.93389 0.39023 0.0
H1221 H 0.82477 0.03611 0.34881 0.0
H1222 H 0.79901 0.00897 0.35566 0.0
C1223 C 0.72501 0.9192 0.39409 0.0
C1224 C 0.77551 0.94274 0.37905 0.0
H1225 H 0.81023 0.97848 0.39332 0.0
C1226 C 0.78022 0.94599 0.36462 0.0
C1227 C 0.78679 0.95421 0.38955 0.0
C1228 C 0.78321 0.95053 0.40524 0.0
C1229 C 0.79556 0.96084 0.36039 0.0
C1230 C 0.80619 0.97296 0.37087 0.0
C1231 C 0.80188 0.96932 0.38531 0.0
C1232 C 0.82173 0.98962 0.36705 0.0
C1233 C 0.8004 0.96329 0.34475 0.0
C1234 C 0.8429 0.98806 0.37159 0.0
C1235 C 0.85765 0.00363 0.36777 0.0
C1236 C 0.8514 0.02105 0.35943 0.0
C1237 C 0.83008 0.0228 0.35518 0.0
C1238 C 0.81537 0.00725 0.359 0.0
H1239 H 0.79528 0.94917 0.33856 0.0
H1240 H 0.79176 0.9773 0.34055 0.0
H1241 H 0.81764 0.96583 0.34297 0.0
H1242 H 0.84807 0.97462 0.3779 0.0
H1243 H 0.87397 0.0019 0.37121 0.0
H1244 H 0.71442 0.07369 0.09262 0.0
H1245 H 0.74137 0.04798 0.09991 0.0
H1246 H 0.76773 0.09377 0.12909 0.0
H1247 H 0.74101 0.11977 0.12164 0.0
H1248 H 0.79835 0.07325 0.11305 0.0
H1249 H 0.74282 0.01526 0.13726 0.0
H1250 H 0.73652 0.02186 0.11916 0.0
H1251 H 0.73495 0.04195 0.13272 0.0
C1252 C 0.72589 0.07826 0.10064 0.0
C1253 C 0.72554 0.09869 0.10663 0.0
C1254 C 0.74122 0.06352 0.10483 0.0
C1255 C 0.75633 0.06886 0.11519 0.0
C1256 C 0.75613 0.08932 0.12112 0.0
H1257 H 0.83502 0.98114 0.16203 0.0
H1258 H 0.80956 0.00788 0.15417 0.0
C1259 C 0.74084 0.10411 0.11689 0.0
C1260 C 0.77253 0.0532 0.11971 0.0
H1261 H 0.77853 0.00404 0.13439 0.0
C1262 C 0.79406 0.05813 0.11776 0.0
C1263 C 0.76685 0.0336 0.12598 0.0
C1264 C 0.74404 0.02788 0.12904 0.0
C1265 C 0.8101 0.04388 0.1218 0.0
C1266 C 0.80439 0.02402 0.12769 0.0
C1267 C 0.78286 0.01919 0.12974 0.0
C1268 C 0.82045 0.00828 0.13233 0.0
C1269 C 0.83299 0.05041 0.12002 0.0
C1270 C 0.83501 0.99955 0.12264 0.0
C1271 C 0.84973 0.98431 0.12713 0.0
C1272 C 0.84992 0.97741 0.14135 0.0
C1273 C 0.83526 0.98612 0.15099 0.0
C1274 C 0.82069 0.0014 0.14652 0.0
H1275 H 0.83464 0.06788 0.11888 0.0
H1276 H 0.84271 0.04512 0.12921 0.0
H1277 H 0.83949 0.04292 0.11026 0.0
H1278 H 0.8348 0.00429 0.11156 0.0
H1279 H 0.86076 0.97776 0.11946 0.0
H1280 H 0.74971 0.37205 0.61695 0.0
H1281 H 0.77778 0.39678 0.62423 0.0
H1282 H 0.73932 0.44953 0.61044 0.0
H1283 H 0.71125 0.42504 0.60322 0.0
H1284 H 0.79896 0.42735 0.6063 0.0
H1285 H 0.75685 0.4651 0.65159 0.0
H1286 H 0.74877 0.43996 0.64412 0.0
H1287 H 0.74188 0.46434 0.63533 0.0
C1288 C 0.7472 0.38893 0.61559 0.0
C1289 C 0.72827 0.39664 0.60958 0.0
C1290 C 0.76323 0.403 0.61971 0.0
C1291 C 0.76047 0.42494 0.61801 0.0
C1292 C 0.74158 0.43265 0.61205 0.0
H1293 H 0.8297 0.54027 0.63211 0.0
H1294 H 0.80463 0.51245 0.62533 0.0
C1295 C 0.72561 0.41864 0.60789 0.0
C1296 C 0.77753 0.43989 0.62204 0.0
H1297 H 0.78824 0.4822 0.64349 0.0
C1298 C 0.79677 0.43924 0.61452 0.0
C1299 C 0.77452 0.45533 0.63275 0.0
C1300 C 0.75447 0.45618 0.64152 0.0
C1301 C 0.81284 0.45419 0.6171 0.0
C1302 C 0.80965 0.4699 0.62764 0.0
C1303 C 0.79058 0.47022 0.63535 0.0
C1304 C 0.82564 0.4865 0.63071 0.0
C1305 C 0.83275 0.45351 0.60819 0.0
C1306 C 0.84584 0.4811 0.63586 0.0
C1307 C 0.86027 0.49699 0.63966 0.0
C1308 C 0.85461 0.51849 0.6385 0.0
C1309 C 0.83451 0.52383 0.63311 0.0
C1310 C 0.82016 0.50797 0.62926 0.0
H1311 H 0.83052 0.44399 0.59835 0.0
H1312 H 0.83787 0.46975 0.60516 0.0
H1313 H 0.8457 0.4461 0.61447 0.0
H1314 H 0.85024 0.46463 0.63733 0.0
H1315 H 0.8756 0.49242 0.64389 0.0
H1316 H 0.87343 0.50541 0.85256 0.0
H1317 H 0.84811 0.53308 0.85951 0.0
H1318 H 0.809 0.48598 0.88001 0.0
H1319 H 0.83413 0.45823 0.87306 0.0
H1320 H 0.80286 0.53182 0.85143 0.0
H1321 H 0.81604 0.53508 0.90988 0.0
H1322 H 0.83561 0.52472 0.89766 0.0
H1323 H 0.81296 0.50897 0.90241 0.0
C1324 C 0.8596 0.50101 0.85873 0.0
C1325 C 0.85573 0.47968 0.86228 0.0
C1326 C 0.84515 0.5168 0.86265 0.0
C1327 C 0.82683 0.51153 0.87034 0.0
C1328 C 0.82322 0.49035 0.87422 0.0
H1329 H 0.71538 0.57465 0.90202 0.0
H1330 H 0.74355 0.54982 0.89548 0.0
C1331 C 0.83754 0.47454 0.87021 0.0
C1332 C 0.81074 0.5279 0.87355 0.0
H1333 H 0.78596 0.55334 0.90093 0.0
C1334 C 0.79924 0.53672 0.86222 0.0
C1335 C 0.80607 0.53405 0.88765 0.0
C1336 C 0.81839 0.52538 0.90013 0.0
C1337 C 0.78267 0.55115 0.86466 0.0
C1338 C 0.77788 0.55724 0.8788 0.0
C1339 C 0.78964 0.54862 0.89011 0.0
C1340 C 0.76044 0.57218 0.88217 0.0
C1341 C 0.76998 0.55914 0.85214 0.0
C1342 C 0.76057 0.59299 0.87682 0.0
C1343 C 0.74437 0.60716 0.88044 0.0
C1344 C 0.72794 0.60082 0.88961 0.0
C1345 C 0.72781 0.57997 0.8949 0.0
C1346 C 0.74392 0.56579 0.89121 0.0
H1347 H 0.7719 0.54875 0.84267 0.0
H1348 H 0.75284 0.56017 0.85479 0.0
H1349 H 0.7756 0.57525 0.84922 0.0
H1350 H 0.77341 0.5984 0.87007 0.0
H1351 H 0.74497 0.6232 0.87631 0.0
H1352 H 0.79184 0.57135 0.09918 0.0
H1353 H 0.76611 0.54428 0.10631 0.0
H1354 H 0.72973 0.59175 0.12864 0.0
H1355 H 0.75561 0.61886 0.12176 0.0
H1356 H 0.73424 0.55453 0.14393 0.0
H1357 H 0.70713 0.53805 0.08882 0.0
H1358 H 0.73523 0.53511 0.09134 0.0
H1359 H 0.72318 0.56081 0.09329 0.0
C1360 C 0.77841 0.576 0.10567 0.0
C1361 C 0.77565 0.59724 0.10985 0.0
C1362 C 0.76367 0.56054 0.10965 0.0
C1363 C 0.74581 0.5661 0.11775 0.0
C1364 C 0.74335 0.58717 0.1223 0.0
H1365 H 0.63006 0.49354 0.12886 0.0
H1366 H 0.65711 0.51971 0.12236 0.0
C1367 C 0.75813 0.60263 0.11837 0.0
C1368 C 0.7296 0.54999 0.12144 0.0
H1369 H 0.69416 0.51519 0.10691 0.0
C1370 C 0.72545 0.54593 0.13585 0.0
C1371 C 0.71795 0.53904 0.11086 0.0
C1372 C 0.72091 0.54357 0.09521 0.0
C1373 C 0.71012 0.53099 0.13999 0.0
C1374 C 0.69895 0.51957 0.1294 0.0
C1375 C 0.70291 0.52382 0.11499 0.0
C1376 C 0.68279 0.5034 0.13307 0.0
C1377 C 0.70572 0.52791 0.15564 0.0
C1378 C 0.68836 0.48536 0.14098 0.0
C1379 C 0.67295 0.47044 0.14474 0.0
C1380 C 0.65172 0.47322 0.14052 0.0
C1381 C 0.64628 0.49101 0.13227 0.0
C1382 C 0.6617 0.50595 0.12856 0.0
H1383 H 0.71139 0.54158 0.16206 0.0
H1384 H 0.68848 0.52572 0.15762 0.0
H1385 H 0.71413 0.5135 0.15941 0.0
H1386 H 0.70464 0.48285 0.14429 0.0
H1387 H 0.67763 0.45682 0.15103 0.0
H1388 H 0.74933 0.37354 0.38146 0.0
H1389 H 0.72217 0.39949 0.37468 0.0
H1390 H 0.76281 0.45037 0.38884 0.0
H1391 H 0.78982 0.42458 0.39584 0.0
H1392 H 0.72172 0.45377 0.39895 0.0
H1393 H 0.72256 0.43981 0.34058 0.0
H1394 H 0.71827 0.41644 0.35114 0.0
H1395 H 0.74322 0.43016 0.35221 0.0
C1396 C 0.75252 0.39027 0.38301 0.0
C1397 C 0.77171 0.39705 0.38913 0.0
C1398 C 0.73703 0.40507 0.37909 0.0
C1399 C 0.74059 0.42685 0.38112 0.0
C1400 C 0.75978 0.43363 0.38716 0.0
H1401 H 0.6739 0.53356 0.34532 0.0
H1402 H 0.69948 0.50644 0.3525 0.0
C1403 C 0.77521 0.41888 0.39112 0.0
C1404 C 0.72415 0.44266 0.37734 0.0
H1405 H 0.69607 0.46296 0.34943 0.0
C1406 C 0.71608 0.45579 0.38813 0.0
C1407 C 0.71701 0.44536 0.36319 0.0
C1408 C 0.72581 0.43235 0.35107 0.0
C1409 C 0.70104 0.4716 0.38515 0.0
C1410 C 0.69362 0.47406 0.37104 0.0
C1411 C 0.70168 0.46092 0.36025 0.0
C1412 C 0.67811 0.4907 0.36711 0.0
C1413 C 0.69365 0.48589 0.39705 0.0
C1414 C 0.6576 0.49082 0.37295 0.0
C1415 C 0.64297 0.5064 0.36893 0.0
C1416 C 0.64858 0.52197 0.3589 0.0
C1417 C 0.66913 0.52179 0.35309 0.0
C1418 C 0.68374 0.50629 0.35715 0.0
H1419 H 0.70457 0.48535 0.40632 0.0
H1420 H 0.69232 0.50259 0.39337 0.0
H1421 H 0.67774 0.48064 0.40068 0.0
H1422 H 0.65282 0.4787 0.38046 0.0
H1423 H 0.62719 0.50607 0.3735 0.0
H1424 H 0.12457 0.49901 0.36864 0.0
H1425 H 0.15001 0.52667 0.37531 0.0
H1426 H 0.20092 0.48963 0.35728 0.0
H1427 H 0.17557 0.46212 0.35036 0.0
H1428 H 0.18516 0.52479 0.3927 0.0
H1429 H 0.20827 0.54692 0.33773 0.0
H1430 H 0.18533 0.53075 0.34156 0.0
H1431 H 0.21142 0.51916 0.34145 0.0
C1432 C 0.1412 0.49677 0.36612 0.0
C1433 C 0.14808 0.47848 0.35891 0.0
C1434 C 0.15569 0.51257 0.36992 0.0
C1435 C 0.17727 0.51037 0.36654 0.0
C1436 C 0.18426 0.49187 0.35968 0.0
H1437 H 0.28424 0.5768 0.40246 0.0
H1438 H 0.257 0.55126 0.39548 0.0
C1439 C 0.16978 0.4761 0.35583 0.0
C1440 C 0.19255 0.52729 0.37039 0.0
H1441 H 0.2296 0.56093 0.35646 0.0
C1442 C 0.1948 0.53278 0.38478 0.0
C1443 C 0.20484 0.53793 0.36 0.0
C1444 C 0.20223 0.53357 0.3443 0.0
C1445 C 0.20946 0.54825 0.38911 0.0
C1446 C 0.22244 0.55818 0.37878 0.0
C1447 C 0.21977 0.55311 0.36436 0.0
C1448 C 0.23909 0.57363 0.38278 0.0
C1449 C 0.21078 0.55394 0.40468 0.0
C1450 C 0.23841 0.59451 0.37758 0.0
C1451 C 0.25408 0.60913 0.38147 0.0
C1452 C 0.27071 0.60303 0.39056 0.0
C1453 C 0.27155 0.58201 0.39551 0.0
C1454 C 0.25592 0.56742 0.39161 0.0
H1455 H 0.19607 0.54948 0.41047 0.0
H1456 H 0.22421 0.54522 0.4096 0.0
H1457 H 0.21359 0.5712 0.40613 0.0
H1458 H 0.22562 0.59955 0.37066 0.0
H1459 H 0.25306 0.62522 0.37746 0.0
H1460 H 0.25574 0.3797 0.12276 0.0
H1461 H 0.22804 0.40492 0.12977 0.0
H1462 H 0.25778 0.45344 0.10425 0.0
H1463 H 0.28518 0.42823 0.09695 0.0
H1464 H 0.23031 0.44277 0.14366 0.0
H1465 H 0.19731 0.45466 0.0896 0.0
H1466 H 0.21567 0.43356 0.09373 0.0
H1467 H 0.22524 0.46004 0.09052 0.0
C1468 C 0.25636 0.39575 0.11866 0.0
C1469 C 0.27251 0.40197 0.10923 0.0
C1470 C 0.24053 0.41012 0.12266 0.0
C1471 C 0.24061 0.43091 0.11728 0.0
C1472 C 0.2571 0.43731 0.10821 0.0
H1473 H 0.17524 0.5405 0.15068 0.0
H1474 H 0.20076 0.51313 0.14388 0.0
C1475 C 0.27282 0.42294 0.10414 0.0
C1476 C 0.22362 0.44603 0.1213 0.0
H1477 H 0.18607 0.47918 0.10744 0.0
C1478 C 0.22053 0.45063 0.13576 0.0
C1479 C 0.21062 0.45598 0.11098 0.0
C1480 C 0.2122 0.45066 0.09535 0.0
C1481 C 0.2052 0.46539 0.14016 0.0
C1482 C 0.19298 0.47617 0.12979 0.0
C1483 C 0.19564 0.4711 0.11536 0.0
C1484 C 0.17752 0.49292 0.13368 0.0
C1485 C 0.2021 0.46911 0.15589 0.0
C1486 C 0.15612 0.49103 0.12972 0.0
C1487 C 0.14153 0.50682 0.13342 0.0
C1488 C 0.14814 0.52475 0.14112 0.0
C1489 C 0.16965 0.52678 0.14483 0.0
C1490 C 0.18422 0.51107 0.14106 0.0
H1491 H 0.20781 0.45542 0.16229 0.0
H1492 H 0.21134 0.48328 0.15917 0.0
H1493 H 0.18514 0.47197 0.15846 0.0
H1494 H 0.15066 0.47722 0.12391 0.0
H1495 H 0.12505 0.50485 0.13041 0.0
H1496 H 0.32772 0.53204 0.84064 0.0
H1497 H 0.30141 0.50572 0.84795 0.0
H1498 H 0.34132 0.48737 0.88316 0.0
H1499 H 0.36803 0.51331 0.87566 0.0
H1500 H 0.32586 0.45322 0.86904 0.0
H1501 H 0.26045 0.50933 0.88088 0.0
H1502 H 0.27056 0.51203 0.86312 0.0
H1503 H 0.28741 0.518 0.87806 0.0
C1504 C 0.33083 0.5225 0.85 0.0
C1505 C 0.34987 0.5248 0.85764 0.0
C1506 C 0.31573 0.50754 0.8542 0.0
C1507 C 0.31923 0.49484 0.86624 0.0
C1508 C 0.33826 0.49709 0.87388 0.0
H1509 H 0.22371 0.42131 0.91008 0.0
H1510 H 0.25063 0.44692 0.90274 0.0
C1511 C 0.35346 0.51194 0.86961 0.0
C1512 C 0.30332 0.47881 0.87065 0.0
H1513 H 0.2514 0.47269 0.88012 0.0
C1514 C 0.3096 0.45747 0.87153 0.0
C1515 C 0.28218 0.48443 0.87404 0.0
C1516 C 0.27477 0.50721 0.87412 0.0
C1517 C 0.29524 0.44154 0.87559 0.0
C1518 C 0.27391 0.44707 0.87849 0.0
C1519 C 0.2677 0.46844 0.87773 0.0
C1520 C 0.2579 0.43112 0.88288 0.0
C1521 C 0.3032 0.41906 0.87704 0.0
C1522 C 0.25293 0.41377 0.8741 0.0
C1523 C 0.23765 0.39894 0.87835 0.0
C1524 C 0.22689 0.40145 0.89133 0.0
C1525 C 0.23173 0.41897 0.9 0.0
C1526 C 0.2471 0.43363 0.89582 0.0
H1527 H 0.32073 0.4185 0.8783 0.0
H1528 H 0.29581 0.411 0.88631 0.0
H1529 H 0.29905 0.41002 0.8673 0.0
H1530 H 0.2607 0.41179 0.86391 0.0
H1531 H 0.23412 0.38567 0.87141 0.0
H1532 H 0.36437 0.48265 0.62327 0.0
H1533 H 0.33761 0.50883 0.61623 0.0
H1534 H 0.29715 0.48817 0.65058 0.0
H1535 H 0.32359 0.4617 0.65748 0.0
H1536 H 0.27534 0.49333 0.62578 0.0
H1537 H 0.32492 0.56419 0.63677 0.0
H1538 H 0.33697 0.54582 0.6246 0.0
H1539 H 0.33216 0.53794 0.64272 0.0
C1540 C 0.34974 0.48367 0.6293 0.0
C1541 C 0.3461 0.47021 0.64096 0.0
C1542 C 0.33455 0.49873 0.62533 0.0
C1543 C 0.31558 0.50071 0.63306 0.0
C1544 C 0.31174 0.48699 0.64453 0.0
H1545 H 0.22831 0.60777 0.62832 0.0
H1546 H 0.25383 0.58081 0.63614 0.0
C1547 C 0.32686 0.47187 0.64845 0.0
C1548 C 0.29957 0.51691 0.62912 0.0
H1549 H 0.29228 0.5702 0.62471 0.0
C1550 C 0.27901 0.51014 0.62559 0.0
C1551 C 0.3043 0.53886 0.62912 0.0
C1552 C 0.32572 0.5472 0.63364 0.0
C1553 C 0.26314 0.52471 0.6218 0.0
C1554 C 0.26812 0.54659 0.62123 0.0
C1555 C 0.28856 0.5534 0.62502 0.0
C1556 C 0.25241 0.56267 0.6166 0.0
C1557 C 0.24112 0.51653 0.61866 0.0
C1558 C 0.24335 0.56152 0.60298 0.0
C1559 C 0.2287 0.57677 0.59855 0.0
C1560 C 0.22305 0.59362 0.60759 0.0
C1561 C 0.23232 0.59492 0.62116 0.0
C1562 C 0.24691 0.57957 0.62562 0.0
H1563 H 0.23838 0.50073 0.62357 0.0
H1564 H 0.2288 0.52768 0.62259 0.0
H1565 H 0.23918 0.5148 0.60698 0.0
H1566 H 0.24776 0.54893 0.59572 0.0
H1567 H 0.22197 0.57546 0.58798 0.0
H1568 H 0.34947 0.11744 0.12724 0.0
H1569 H 0.33808 0.15303 0.12017 0.0
H1570 H 0.37677 0.18015 0.15342 0.0
H1571 H 0.3874 0.14452 0.16094 0.0
H1572 H 0.34027 0.20031 0.15186 0.0
H1573 H 0.37329 0.1932 0.09743 0.0
H1574 H 0.35378 0.17325 0.10114 0.0
H1575 H 0.37827 0.17366 0.11103 0.0
C1576 C 0.35545 0.13101 0.13307 0.0
C1577 C 0.36944 0.12827 0.14456 0.0
C1578 C 0.34906 0.15134 0.12896 0.0
C1579 C 0.35701 0.16931 0.13601 0.0
C1580 C 0.37053 0.16654 0.14775 0.0
H1581 H 0.3603 0.29585 0.10068 0.0
H1582 H 0.36781 0.26008 0.10935 0.0
C1583 C 0.37661 0.14619 0.15204 0.0
C1584 C 0.35145 0.19102 0.13111 0.0
H1585 H 0.35211 0.22355 0.10207 0.0
C1586 C 0.34292 0.20543 0.14098 0.0
C1587 C 0.35523 0.19781 0.11697 0.0
C1588 C 0.36585 0.18375 0.10608 0.0
C1589 C 0.33804 0.22639 0.13711 0.0
C1590 C 0.34107 0.23292 0.12284 0.0
C1591 C 0.34959 0.2185 0.11298 0.0
C1592 C 0.33635 0.25484 0.11794 0.0
C1593 C 0.33035 0.24145 0.14849 0.0
C1594 C 0.31612 0.26381 0.1198 0.0
C1595 C 0.31192 0.28445 0.11508 0.0
C1596 C 0.32772 0.29623 0.1081 0.0
C1597 C 0.3478 0.2871 0.10601 0.0
C1598 C 0.35211 0.26666 0.11095 0.0
H1599 H 0.33502 0.236 0.15929 0.0
H1600 H 0.33673 0.25769 0.14683 0.0
H1601 H 0.31277 0.24224 0.14817 0.0
H1602 H 0.3035 0.25481 0.12477 0.0
H1603 H 0.29623 0.29106 0.1167 0.0
H1604 H 0.12571 0.12804 0.3723 0.0
H1605 H 0.08994 0.11553 0.36686 0.0
H1606 H 0.07975 0.10123 0.41123 0.0
H1607 H 0.11546 0.11427 0.41682 0.0
H1608 H 0.07216 0.07643 0.37077 0.0
H1609 H 0.02829 0.13737 0.40186 0.0
H1610 H 0.05627 0.13961 0.39805 0.0
H1611 H 0.04718 0.1222 0.41192 0.0
C1612 C 0.11585 0.12229 0.38092 0.0
C1613 C 0.12332 0.12225 0.395 0.0
C1614 C 0.09542 0.11511 0.37779 0.0
C1615 C 0.08207 0.10773 0.38866 0.0
C1616 C 0.08962 0.1073 0.40272 0.0
H1617 H 0.95084 0.06231 0.38127 0.0
H1618 H 0.9867 0.06939 0.39032 0.0
C1619 C 0.11005 0.11464 0.40589 0.0
C1620 C 0.06037 0.10037 0.3851 0.0
H1621 H 0.0078 0.11104 0.39044 0.0
C1622 C 0.05809 0.08394 0.37512 0.0
C1623 C 0.04203 0.11017 0.39082 0.0
C1624 C 0.04346 0.12844 0.40117 0.0
C1625 C 0.03799 0.07726 0.37054 0.0
C1626 C 0.01973 0.08737 0.37601 0.0
C1627 C 0.02191 0.10334 0.3863 0.0
C1628 C 0.99828 0.0825 0.37052 0.0
C1629 C 0.03641 0.05952 0.35981 0.0
C1630 C 0.99299 0.08771 0.35645 0.0
C1631 C 0.97258 0.08382 0.3513 0.0
C1632 C 0.95711 0.07462 0.36013 0.0
C1633 C 0.96247 0.06934 0.37422 0.0
C1634 C 0.98289 0.07339 0.3794 0.0
H1635 H 0.05128 0.05006 0.35929 0.0
H1636 H 0.023 0.04875 0.3624 0.0
H1637 H 0.03346 0.06637 0.34911 0.0
H1638 H 0.00459 0.09505 0.34951 0.0
H1639 H 0.9689 0.08811 0.34041 0.0
H1640 H 0.11329 0.85133 0.66305 0.0
H1641 H 0.12527 0.81598 0.65587 0.0
H1642 H 0.16461 0.84395 0.62329 0.0
H1643 H 0.15204 0.87924 0.63008 0.0
H1644 H 0.14252 0.81272 0.61269 0.0
H1645 H 0.17941 0.78449 0.6626 0.0
H1646 H 0.15245 0.7926 0.66536 0.0
H1647 H 0.17197 0.81186 0.65993 0.0
C1648 C 0.12469 0.84993 0.65447 0.0
C1649 C 0.13174 0.868 0.64711 0.0
C1650 C 0.13166 0.82973 0.65045 0.0
C1651 C 0.14615 0.82729 0.6392 0.0
C1652 C 0.1535 0.84542 0.63204 0.0
H1653 H 0.20327 0.70473 0.61725 0.0
H1654 H 0.19756 0.74117 0.6256 0.0
C1655 C 0.14632 0.86557 0.63592 0.0
C1656 C 0.15237 0.80583 0.63417 0.0
H1657 H 0.17134 0.75778 0.64518 0.0
C1658 C 0.14904 0.8008 0.61978 0.0
C1659 C 0.1612 0.79034 0.64333 0.0
C1660 C 0.16669 0.79516 0.65862 0.0
C1661 C 0.1537 0.78057 0.6144 0.0
C1662 C 0.16124 0.76468 0.62377 0.0
C1663 C 0.16524 0.76987 0.63805 0.0
C1664 C 0.16468 0.74251 0.61897 0.0
C1665 C 0.15068 0.77657 0.59869 0.0
C1666 C 0.148 0.73103 0.61274 0.0
C1667 C 0.1513 0.7104 0.60782 0.0
C1668 C 0.17123 0.70066 0.60929 0.0
C1669 C 0.18776 0.71188 0.61594 0.0
C1670 C 0.18451 0.73267 0.62072 0.0
H1671 H 0.1517 0.79154 0.59248 0.0
H1672 H 0.16273 0.76531 0.59453 0.0
H1673 H 0.13469 0.76971 0.59688 0.0
H1674 H 0.13239 0.73804 0.61167 0.0
H1675 H 0.13819 0.70204 0.6029 0.0
H1676 H 0.54833 0.937 0.88144 0.0
H1677 H 0.51311 0.92813 0.89096 0.0
H1678 H 0.49613 0.89973 0.85078 0.0
H1679 H 0.53118 0.90818 0.84133 0.0
H1680 H 0.47229 0.93926 0.88147 0.0
H1681 H 0.48417 0.85224 0.87919 0.0
H1682 H 0.50584 0.87084 0.87761 0.0
H1683 H 0.48934 0.86498 0.86248 0.0
C1684 C 0.53705 0.92889 0.87466 0.0
C1685 C 0.54255 0.92311 0.86069 0.0
C1686 C 0.51697 0.92384 0.8801 0.0
C1687 C 0.5022 0.91289 0.87166 0.0
C1688 C 0.50748 0.90772 0.85759 0.0
H1689 H 0.37384 0.87056 0.87213 0.0
H1690 H 0.41014 0.8821 0.86712 0.0
C1691 C 0.52748 0.91268 0.85217 0.0
C1692 C 0.48117 0.90682 0.87741 0.0
H1693 H 0.44833 0.86424 0.88186 0.0
C1694 C 0.46712 0.92285 0.88176 0.0
C1695 C 0.47454 0.88537 0.87787 0.0
C1696 C 0.48934 0.86735 0.87418 0.0
C1697 C 0.44623 0.91804 0.8859 0.0
C1698 C 0.43939 0.89669 0.88573 0.0
C1699 C 0.45364 0.88062 0.88185 0.0
C1700 C 0.41721 0.89069 0.88889 0.0
C1701 C 0.43133 0.9358 0.88991 0.0
C1702 C 0.40925 0.89169 0.90282 0.0
C1703 C 0.38853 0.88498 0.90574 0.0
C1704 C 0.37549 0.87723 0.89476 0.0
C1705 C 0.38349 0.87649 0.88081 0.0
C1706 C 0.4042 0.88306 0.87792 0.0
H1707 H 0.43831 0.95168 0.88781 0.0
H1708 H 0.41622 0.93434 0.8839 0.0
H1709 H 0.4275 0.93467 0.90141 0.0
H1710 H 0.41918 0.89733 0.91143 0.0
H1711 H 0.38279 0.88571 0.91659 0.0
H1712 H 0.31777 0.69945 0.36607 0.0
H1713 H 0.32695 0.73461 0.35659 0.0
H1714 H 0.34222 0.75603 0.39896 0.0
H1715 H 0.33348 0.72105 0.40843 0.0
H1716 H 0.31113 0.77531 0.36294 0.0
H1717 H 0.39639 0.76878 0.37669 0.0
H1718 H 0.37877 0.74619 0.3767 0.0
H1719 H 0.37928 0.76408 0.39162 0.0
C1720 C 0.32303 0.71171 0.37334 0.0
C1721 C 0.32511 0.70747 0.38797 0.0
C1722 C 0.32825 0.73174 0.36792 0.0
C1723 C 0.33568 0.74775 0.37704 0.0
C1724 C 0.33702 0.74374 0.3917 0.0
H1725 H 0.37238 0.87812 0.37566 0.0
H1726 H 0.36072 0.84198 0.38107 0.0
C1727 C 0.3319 0.72377 0.3971 0.0
C1728 C 0.34221 0.76869 0.37137 0.0
H1729 H 0.38374 0.80346 0.37083 0.0
C1730 C 0.32706 0.7814 0.36449 0.0
C1731 C 0.36306 0.77649 0.37333 0.0
C1732 C 0.38038 0.7631 0.37986 0.0
C1733 C 0.332 0.80213 0.36007 0.0
C1734 C 0.3526 0.81017 0.36257 0.0
C1735 C 0.3679 0.79725 0.36906 0.0
C1736 C 0.35848 0.83226 0.35905 0.0
C1737 C 0.31505 0.81561 0.35324 0.0
C1738 C 0.36106 0.83867 0.34486 0.0
C1739 C 0.36784 0.85929 0.34173 0.0
C1740 C 0.3721 0.87378 0.35276 0.0
C1741 C 0.3692 0.86734 0.36694 0.0
C1742 C 0.36255 0.84672 0.37005 0.0
H1743 H 0.29916 0.80801 0.35375 0.0
H1744 H 0.31422 0.83135 0.35852 0.0
H1745 H 0.31914 0.8183 0.34189 0.0
H1746 H 0.35821 0.82761 0.33625 0.0
H1747 H 0.36997 0.86382 0.3307 0.0
H1748 H 0.36543 0.09507 0.6193 0.0
H1749 H 0.40093 0.0834 0.62634 0.0
H1750 H 0.42856 0.1253 0.5951 0.0
H1751 H 0.39302 0.13636 0.58761 0.0
H1752 H 0.44919 0.08838 0.59575 0.0
H1753 H 0.43956 0.11808 0.6509 0.0
H1754 H 0.42 0.09867 0.64616 0.0
H1755 H 0.42061 0.1238 0.63705 0.0
C1756 C 0.37909 0.10169 0.61388 0.0
C1757 C 0.37651 0.11677 0.603 0.0
C1758 C 0.39936 0.09512 0.61797 0.0
C1759 C 0.41744 0.10388 0.61151 0.0
C1760 C 0.41485 0.11842 0.60031 0.0
H1761 H 0.54243 0.10905 0.64839 0.0
H1762 H 0.50674 0.11559 0.63931 0.0
C1763 C 0.39455 0.12475 0.59605 0.0
C1764 C 0.43903 0.09831 0.61659 0.0
H1765 H 0.47059 0.09813 0.64611 0.0
C1766 C 0.4539 0.09054 0.60676 0.0
C1767 C 0.44526 0.10143 0.63092 0.0
C1768 C 0.4306 0.11116 0.64184 0.0
C1769 C 0.47483 0.08582 0.61084 0.0
C1770 C 0.48085 0.08834 0.62526 0.0
C1771 C 0.46593 0.09602 0.63509 0.0
C1772 C 0.50278 0.08418 0.63034 0.0
C1773 C 0.49041 0.0789 0.59955 0.0
C1774 C 0.51248 0.0643 0.62839 0.0
C1775 C 0.53309 0.06064 0.63338 0.0
C1776 C 0.54412 0.07666 0.64069 0.0
C1777 C 0.53428 0.09639 0.64283 0.0
C1778 C 0.51387 0.10014 0.63764 0.0
H1779 H 0.48508 0.08363 0.58873 0.0
H1780 H 0.50638 0.08577 0.60148 0.0
H1781 H 0.49179 0.06135 0.59972 0.0
H1782 H 0.50404 0.05153 0.62315 0.0
H1783 H 0.54026 0.04522 0.63171 0.0
H1784 H 0.12461 0.14431 0.82814 0.0
H1785 H 0.13723 0.18051 0.83273 0.0
H1786 H 0.15042 0.16361 0.87632 0.0
H1787 H 0.13816 0.12748 0.87179 0.0
H1788 H 0.12139 0.20948 0.8522 0.0
H1789 H 0.20561 0.19176 0.86397 0.0
H1790 H 0.18826 0.17292 0.85535 0.0
H1791 H 0.18771 0.17599 0.87439 0.0
C1792 C 0.13037 0.1483 0.83867 0.0
C1793 C 0.13049 0.13306 0.8496 0.0
C1794 C 0.13757 0.16895 0.84127 0.0
C1795 C 0.14512 0.17463 0.85479 0.0
C1796 C 0.14516 0.15944 0.86571 0.0
H1797 H 0.17549 0.28161 0.90515 0.0
H1798 H 0.16873 0.2471 0.89422 0.0
C1799 C 0.138 0.13883 0.86313 0.0
C1800 C 0.15195 0.19667 0.85781 0.0
H1801 H 0.19263 0.22561 0.87194 0.0
C1802 C 0.13708 0.21311 0.85627 0.0
C1803 C 0.17246 0.20135 0.86307 0.0
C1804 C 0.1895 0.1846 0.86416 0.0
C1805 C 0.14181 0.23391 0.86061 0.0
C1806 C 0.16199 0.23834 0.86648 0.0
C1807 C 0.17713 0.2221 0.86748 0.0
C1808 C 0.16705 0.25929 0.87273 0.0
C1809 C 0.12487 0.25077 0.85955 0.0
C1810 C 0.16868 0.27752 0.86421 0.0
C1811 C 0.17261 0.29732 0.87044 0.0
C1812 C 0.17492 0.29912 0.88527 0.0
C1813 C 0.17371 0.28074 0.8937 0.0
C1814 C 0.16989 0.26101 0.88748 0.0
H1815 H 0.10912 0.24401 0.85677 0.0
H1816 H 0.12345 0.25951 0.86977 0.0
H1817 H 0.12935 0.26237 0.85119 0.0
H1818 H 0.16677 0.27643 0.85277 0.0
H1819 H 0.17351 0.31122 0.86369 0.0
H1820 H 0.10534 0.87232 0.08456 0.0
H1821 H 0.0702 0.88447 0.09196 0.0
H1822 H 0.09739 0.91209 0.12983 0.0
H1823 H 0.13248 0.89927 0.12271 0.0
H1824 H 0.06391 0.88955 0.13634 0.0
H1825 H 0.04258 0.94156 0.09119 0.0
H1826 H 0.04946 0.91542 0.08526 0.0
H1827 H 0.06919 0.93172 0.09381 0.0
C1828 C 0.10386 0.88121 0.09438 0.0
C1829 C 0.12163 0.88486 0.10306 0.0
C1830 C 0.08378 0.8883 0.09854 0.0
C1831 C 0.08117 0.89956 0.11133 0.0
C1832 C 0.09902 0.90354 0.11988 0.0
H1833 H 0.95957 0.95649 0.13602 0.0
H1834 H 0.99637 0.95124 0.12823 0.0
C1835 C 0.11905 0.89622 0.11581 0.0
C1836 C 0.05966 0.90569 0.11632 0.0
H1837 H 0.01374 0.93021 0.10614 0.0
C1838 C 0.05304 0.89866 0.12978 0.0
C1839 C 0.04554 0.91786 0.10789 0.0
C1840 C 0.05214 0.92727 0.0938 0.0
C1841 C 0.03254 0.90285 0.13486 0.0
C1842 C 0.01798 0.9138 0.12605 0.0
C1843 C 0.02479 0.9215 0.11279 0.0
C1844 C 0.99554 0.91703 0.13032 0.0
C1845 C 0.0268 0.89563 0.14969 0.0
C1846 C 0.98272 0.89954 0.13373 0.0
C1847 C 0.96187 0.90251 0.13832 0.0
C1848 C 0.95327 0.92303 0.13931 0.0
C1849 C 0.96582 0.9405 0.13538 0.0
C1850 C 0.98681 0.93752 0.13094 0.0
H1851 H 0.04113 0.89393 0.15649 0.0
H1852 H 0.01572 0.90691 0.1549 0.0
H1853 H 0.019 0.87986 0.14909 0.0
H1854 H 0.98889 0.88354 0.13292 0.0
H1855 H 0.95249 0.88872 0.14111 0.0
H1856 H 0.70373 0.71056 0.88034 0.0
H1857 H 0.69711 0.74703 0.87242 0.0
H1858 H 0.63348 0.74358 0.88926 0.0
H1859 H 0.64034 0.70758 0.89772 0.0
H1860 H 0.66999 0.76346 0.85416 0.0
H1861 H 0.65317 0.79738 0.90722 0.0
H1862 H 0.66398 0.7711 0.90497 0.0
H1863 H 0.63583 0.77558 0.90338 0.0
C1864 C 0.68838 0.71768 0.88241 0.0
C1865 C 0.67262 0.70637 0.88978 0.0
C1866 C 0.68461 0.73848 0.87788 0.0
C1867 C 0.66496 0.74824 0.88053 0.0
C1868 C 0.649 0.73667 0.88751 0.0
H1869 H 0.61141 0.85683 0.83704 0.0
H1870 H 0.62376 0.82153 0.84401 0.0
C1871 C 0.65288 0.71604 0.89225 0.0
C1872 C 0.66094 0.77035 0.87579 0.0
H1873 H 0.64238 0.81826 0.88721 0.0
C1874 C 0.66416 0.77552 0.86141 0.0
C1875 C 0.65377 0.78623 0.8853 0.0
C1876 C 0.65172 0.78235 0.90109 0.0
C1877 C 0.65978 0.79595 0.8562 0.0
C1878 C 0.65127 0.81141 0.86553 0.0
C1879 C 0.64864 0.80638 0.87999 0.0
C1880 C 0.64474 0.83285 0.86063 0.0
C1881 C 0.66466 0.80077 0.84082 0.0
C1882 C 0.65199 0.85099 0.86784 0.0
C1883 C 0.64449 0.87109 0.86412 0.0
C1884 C 0.6298 0.87348 0.853 0.0
C1885 C 0.62291 0.85544 0.84555 0.0
C1886 C 0.63011 0.83527 0.84946 0.0
H1887 H 0.67742 0.79028 0.83667 0.0
H1888 H 0.65025 0.7979 0.83431 0.0
H1889 H 0.66963 0.81753 0.83937 0.0
H1890 H 0.66322 0.84956 0.87652 0.0
H1891 H 0.6501 0.88476 0.87003 0.0
H1892 H 0.05215 0.93256 0.61907 0.0
H1893 H 0.01614 0.92679 0.60984 0.0
H1894 H 0.997 0.90135 0.65045 0.0
H1895 H 0.03278 0.907 0.65973 0.0
H1896 H 0.99367 0.8862 0.60925 0.0
H1897 H 0.95178 0.94758 0.64097 0.0
H1898 H 0.98013 0.94802 0.63807 0.0
H1899 H 0.96887 0.93048 0.65112 0.0
C1900 C 0.04021 0.92585 0.62604 0.0
C1901 C 0.04524 0.92026 0.64013 0.0
C1902 C 0.0197 0.92257 0.62075 0.0
C1903 C 0.0039 0.91391 0.62953 0.0
C1904 C 0.0089 0.90837 0.64359 0.0
H1905 H 0.87546 0.87119 0.62719 0.0
H1906 H 0.91144 0.88292 0.63283 0.0
C1907 C 0.02937 0.91151 0.64885 0.0
C1908 C 0.98235 0.90979 0.62395 0.0
H1909 H 0.93018 0.92181 0.62939 0.0
C1910 C 0.97976 0.89414 0.61348 0.0
C1911 C 0.96433 0.9202 0.62955 0.0
C1912 C 0.96633 0.93765 0.64046 0.0
C1913 C 0.95947 0.8879 0.60892 0.0
C1914 C 0.94138 0.89796 0.61478 0.0
C1915 C 0.94406 0.91409 0.62494 0.0
C1916 C 0.9195 0.89122 0.61114 0.0
C1917 C 0.95759 0.86993 0.59837 0.0
C1918 C 0.91198 0.89224 0.59709 0.0
C1919 C 0.89144 0.88536 0.59381 0.0
C1920 C 0.87801 0.87762 0.60457 0.0
C1921 C 0.88544 0.87705 0.61866 0.0
C1922 C 0.90598 0.88377 0.62191 0.0
H1923 H 0.97254 0.86066 0.59755 0.0
H1924 H 0.94453 0.85898 0.60138 0.0
H1925 H 0.95398 0.87652 0.58769 0.0
H1926 H 0.92198 0.89837 0.58867 0.0
H1927 H 0.88607 0.88614 0.58287 0.0
H1928 H 0.81472 0.29862 0.36762 0.0
H1929 H 0.82191 0.26275 0.35865 0.0
H1930 H 0.84347 0.24381 0.4003 0.0
H1931 H 0.83647 0.27955 0.40933 0.0
H1932 H 0.86382 0.24104 0.36059 0.0
H1933 H 0.79833 0.19806 0.38776 0.0
H1934 H 0.7977 0.22635 0.3846 0.0
H1935 H 0.81358 0.21574 0.39878 0.0
C1936 C 0.82086 0.28675 0.37488 0.0
C1937 C 0.82502 0.29185 0.38918 0.0
C1938 C 0.82496 0.26633 0.36974 0.0
C1939 C 0.833 0.25066 0.37886 0.0
C1940 C 0.837 0.25565 0.39315 0.0
H1941 H 0.87488 0.12156 0.37678 0.0
H1942 H 0.86271 0.15736 0.38252 0.0
C1943 C 0.83308 0.27608 0.39827 0.0
C1944 C 0.8381 0.22926 0.3734 0.0
H1945 H 0.82515 0.17699 0.37704 0.0
C1946 C 0.85527 0.227 0.36403 0.0
C1947 C 0.8269 0.2111 0.37799 0.0
C1948 C 0.80798 0.21282 0.38775 0.0
C1949 C 0.86212 0.20688 0.35955 0.0
C1950 C 0.85111 0.18862 0.36431 0.0
C1951 C 0.83358 0.19099 0.37341 0.0
C1952 C 0.85814 0.16685 0.3606 0.0
C1953 C 0.88162 0.20533 0.35028 0.0
C1954 C 0.85937 0.16019 0.34636 0.0
C1955 C 0.86653 0.13977 0.34303 0.0
C1956 C 0.87229 0.12559 0.35391 0.0
C1957 C 0.87059 0.13214 0.36816 0.0
C1958 C 0.8636 0.15258 0.37146 0.0
H1959 H 0.89116 0.22015 0.35057 0.0
H1960 H 0.89188 0.1919 0.35364 0.0
H1961 H 0.8767 0.20256 0.3391 0.0
H1962 H 0.85476 0.17077 0.33782 0.0
H1963 H 0.86752 0.13508 0.33196 0.0
H1964 H 0.60859 0.12326 0.07969 0.0
H1965 H 0.57239 0.11191 0.08548 0.0
H1966 H 0.59121 0.10089 0.12898 0.0
H1967 H 0.62742 0.11207 0.12328 0.0
H1968 H 0.56515 0.06806 0.11655 0.0
H1969 H 0.53165 0.14917 0.10972 0.0
H1970 H 0.54666 0.1389 0.09498 0.0
H1971 H 0.55977 0.14438 0.11153 0.0
C1972 C 0.60504 0.1183 0.09046 0.0
C1973 C 0.62078 0.11868 0.10106 0.0
C1974 C 0.58436 0.11189 0.09375 0.0
C1975 C 0.57912 0.10582 0.10768 0.0
C1976 C 0.59496 0.10557 0.11817 0.0
H1977 H 0.46276 0.10018 0.15403 0.0
H1978 H 0.49811 0.10671 0.1443 0.0
C1979 C 0.61561 0.11201 0.1149 0.0
C1980 C 0.55701 0.10038 0.11153 0.0
H1981 H 0.50773 0.12195 0.11585 0.0
C1982 C 0.55252 0.07975 0.1163 0.0
C1983 C 0.54069 0.11578 0.1113 0.0
C1984 C 0.54484 0.13837 0.10672 0.0
C1985 C 0.5321 0.07417 0.12097 0.0
C1986 C 0.51582 0.0896 0.12078 0.0
C1987 C 0.52026 0.11014 0.11587 0.0
C1988 C 0.49443 0.0852 0.12654 0.0
C1989 C 0.52821 0.05205 0.12653 0.0
C1990 C 0.48063 0.071 0.11969 0.0
C1991 C 0.46033 0.06727 0.12521 0.0
C1992 C 0.4536 0.07768 0.13766 0.0
C1993 C 0.4675 0.09188 0.14444 0.0
C1994 C 0.48768 0.09566 0.1389 0.0
H1995 H 0.54321 0.04307 0.12806 0.0
H1996 H 0.51957 0.05266 0.13683 0.0
H1997 H 0.51816 0.04322 0.11884 0.0
H1998 H 0.4855 0.06297 0.11004 0.0
H1999 H 0.44992 0.05628 0.11974 0.0
H2000 H 0.65962 0.28189 0.5904 0.0
H2001 H 0.6538 0.24603 0.59957 0.0
H2002 H 0.68039 0.26448 0.64 0.0
H2003 H 0.68626 0.30051 0.63091 0.0
H2004 H 0.68552 0.21727 0.61174 0.0
H2005 H 0.6207 0.23874 0.64938 0.0
H2006 H 0.62844 0.25579 0.63483 0.0
H2007 H 0.64479 0.25399 0.65041 0.0
C2008 C 0.66422 0.27833 0.60125 0.0
C2009 C 0.67331 0.29401 0.60997 0.0
C2010 C 0.66093 0.25784 0.60645 0.0
C2011 C 0.66649 0.25272 0.62048 0.0
C2012 C 0.67577 0.26824 0.62919 0.0
H2013 H 0.64049 0.13502 0.66672 0.0
H2014 H 0.65342 0.17048 0.66042 0.0
C2015 C 0.67916 0.28876 0.62397 0.0
C2016 C 0.66249 0.23106 0.6259 0.0
H2017 H 0.63075 0.20282 0.64841 0.0
C2018 C 0.67364 0.21407 0.61981 0.0
C2019 C 0.64708 0.22705 0.63649 0.0
C2020 C 0.63441 0.24478 0.64314 0.0
C2021 C 0.66963 0.19305 0.62394 0.0
C2022 C 0.65368 0.18895 0.63418 0.0
C2023 C 0.64294 0.20601 0.64055 0.0
C2024 C 0.64708 0.16707 0.6379 0.0
C2025 C 0.68257 0.17547 0.61734 0.0
C2026 C 0.63914 0.15346 0.62734 0.0
C2027 C 0.63185 0.13322 0.6309 0.0
C2028 C 0.63213 0.1263 0.64511 0.0
C2029 C 0.64014 0.13991 0.65568 0.0
C2030 C 0.64751 0.16015 0.6521 0.0
H2031 H 0.69811 0.18141 0.61342 0.0
H2032 H 0.68547 0.16244 0.62505 0.0
H2033 H 0.67382 0.16887 0.6081 0.0
H2034 H 0.63816 0.15865 0.61638 0.0
H2035 H 0.62563 0.12315 0.62254 0.0
H2036 H 0.46873 0.91005 0.3399 0.0
H2037 H 0.5043 0.9024 0.34901 0.0
H2038 H 0.48664 0.92776 0.38995 0.0
H2039 H 0.45093 0.93549 0.38091 0.0
H2040 H 0.53411 0.93269 0.36212 0.0
H2041 H 0.51011 0.86644 0.39791 0.0
H2042 H 0.49359 0.87546 0.38341 0.0
H2043 H 0.49553 0.8909 0.39939 0.0
C2044 C 0.47241 0.91401 0.35084 0.0
C2045 C 0.45704 0.9233 0.35972 0.0
C2046 C 0.49272 0.90966 0.35601 0.0
C2047 C 0.49797 0.91434 0.37017 0.0
C2048 C 0.48276 0.92382 0.37904 0.0
H2049 H 0.61408 0.8836 0.41689 0.0
H2050 H 0.57868 0.89661 0.41047 0.0
C2051 C 0.46244 0.92828 0.37385 0.0
C2052 C 0.51943 0.90927 0.37556 0.0
H2053 H 0.54634 0.87549 0.39747 0.0
C2054 C 0.53683 0.92026 0.36989 0.0
C2055 C 0.52281 0.89315 0.38576 0.0
C2056 C 0.50459 0.88065 0.39196 0.0
C2057 C 0.55765 0.91545 0.37411 0.0
C2058 C 0.56113 0.89883 0.38397 0.0
C2059 C 0.54364 0.88818 0.38989 0.0
C2060 C 0.58277 0.89162 0.38785 0.0
C2061 C 0.57568 0.92834 0.36803 0.0
C2062 C 0.59671 0.88429 0.37728 0.0
C2063 C 0.61693 0.87699 0.3809 0.0
C2064 C 0.62349 0.87662 0.39519 0.0
C2065 C 0.60946 0.88376 0.40579 0.0
C2066 C 0.58925 0.89118 0.40214 0.0
H2067 H 0.57019 0.94423 0.36445 0.0
H2068 H 0.58858 0.9305 0.37595 0.0
H2069 H 0.58231 0.91997 0.35864 0.0
H2070 H 0.59185 0.88393 0.36623 0.0
H2071 H 0.62732 0.87141 0.37252 0.0
H2072 H 0.84072 0.71699 0.09066 0.0
H2073 H 0.84724 0.75261 0.10004 0.0
H2074 H 0.80986 0.73794 0.13719 0.0
H2075 H 0.8032 0.70217 0.12787 0.0
H2076 H 0.80188 0.77947 0.12392 0.0
H2077 H 0.88707 0.76359 0.13489 0.0
H2078 H 0.87843 0.75704 0.1172 0.0
H2079 H 0.86796 0.74263 0.13212 0.0
C2080 C 0.8338 0.72136 0.1008 0.0
C2081 C 0.82156 0.70676 0.10858 0.0
C2082 C 0.83759 0.74168 0.10615 0.0
C2083 C 0.82925 0.74774 0.11937 0.0
C2084 C 0.8165 0.73346 0.12699 0.0
H2085 H 0.87362 0.85796 0.16673 0.0
H2086 H 0.86087 0.82253 0.16028 0.0
C2087 C 0.81274 0.71307 0.12166 0.0
C2088 C 0.83429 0.76887 0.12533 0.0
H2089 H 0.87563 0.79935 0.13681 0.0
C2090 C 0.81796 0.78383 0.12684 0.0
C2091 C 0.85524 0.77433 0.12928 0.0
C2092 C 0.87319 0.75853 0.12843 0.0
C2093 C 0.82219 0.80444 0.13179 0.0
C2094 C 0.84329 0.81015 0.1352 0.0
C2095 C 0.85948 0.79495 0.1341 0.0
C2096 C 0.84915 0.83195 0.13958 0.0
C2097 C 0.80407 0.81991 0.13338 0.0
C2098 C 0.8467 0.84895 0.13008 0.0
C2099 C 0.85402 0.86918 0.13372 0.0
C2100 C 0.86397 0.8727 0.14689 0.0
C2101 C 0.86599 0.85573 0.15651 0.0
C2102 C 0.85873 0.8355 0.15285 0.0
H2103 H 0.78851 0.81165 0.13393 0.0
H2104 H 0.80605 0.82978 0.14308 0.0
H2105 H 0.80379 0.83066 0.12403 0.0
H2106 H 0.83972 0.84645 0.11968 0.0
H2107 H 0.85231 0.88194 0.12608 0.0
H2108 H 0.05476 0.0704 0.88081 0.0
H2109 H 0.01882 0.07592 0.89023 0.0
H2110 H 0.99743 0.09502 0.84857 0.0
H2111 H 0.03317 0.08962 0.8391 0.0
H2112 H 0.99457 0.11554 0.88867 0.0
H2113 H 0.95467 0.04818 0.86157 0.0
H2114 H 0.98308 0.04936 0.86409 0.0
H2115 H 0.97072 0.06454 0.85019 0.0
C2116 C 0.04235 0.07567 0.87366 0.0
C2117 C 0.04673 0.07955 0.85922 0.0
C2118 C 0.02188 0.07882 0.87905 0.0
C2119 C 0.00548 0.0856 0.87004 0.0
C2120 C 0.00982 0.08945 0.85563 0.0
H2121 H 0.87527 0.12287 0.87228 0.0
H2122 H 0.91144 0.11171 0.86662 0.0
C2123 C 0.03026 0.08646 0.85027 0.0
C2124 C 0.98393 0.0895 0.8757 0.0
H2125 H 0.93226 0.07429 0.87202 0.0
C2126 C 0.98093 0.10639 0.88521 0.0
C2127 C 0.96626 0.07752 0.8711 0.0
C2128 C 0.96877 0.05875 0.86127 0.0
C2129 C 0.96052 0.11225 0.88976 0.0
C2130 C 0.94276 0.10055 0.8849 0.0
C2131 C 0.94588 0.08326 0.87571 0.0
C2132 C 0.92071 0.10671 0.88855 0.0
C2133 C 0.95811 0.13148 0.8992 0.0
C2134 C 0.91381 0.10728 0.90275 0.0
C2135 C 0.89315 0.11382 0.90602 0.0
C2136 C 0.87902 0.11964 0.89513 0.0
C2137 C 0.88581 0.11852 0.88091 0.0
C2138 C 0.90646 0.11212 0.87766 0.0
H2139 H 0.97261 0.14152 0.89917 0.0
H2140 H 0.94442 0.14134 0.89578 0.0
H2141 H 0.95522 0.12622 0.9103 0.0
H2142 H 0.92439 0.10272 0.9113 0.0
H2143 H 0.88829 0.11438 0.91707 0.0
H2144 H 0.84 0.78174 0.59059 0.0
H2145 H 0.84761 0.74622 0.5997 0.0
H2146 H 0.82086 0.76349 0.64034 0.0
H2147 H 0.81283 0.79902 0.63119 0.0
H2148 H 0.87364 0.73625 0.62224 0.0
H2149 H 0.7917 0.70702 0.63203 0.0
H2150 H 0.79716 0.73018 0.62133 0.0
H2151 H 0.79799 0.73185 0.64041 0.0
C2152 C 0.83554 0.77792 0.60142 0.0
C2153 C 0.82578 0.79314 0.61018 0.0
C2154 C 0.83992 0.75763 0.60662 0.0
C2155 C 0.83459 0.75214 0.62064 0.0
C2156 C 0.82472 0.76725 0.62939 0.0
H2157 H 0.86386 0.63554 0.66778 0.0
H2158 H 0.85279 0.6718 0.66163 0.0
C2159 C 0.82025 0.78757 0.62418 0.0
C2160 C 0.84039 0.7309 0.6262 0.0
H2161 H 0.8199 0.68478 0.63952 0.0
C2162 C 0.86188 0.72501 0.62603 0.0
C2163 C 0.82503 0.71632 0.63121 0.0
C2164 C 0.80165 0.72152 0.63117 0.0
C2165 C 0.86841 0.70487 0.63061 0.0
C2166 C 0.85303 0.69019 0.63537 0.0
C2167 C 0.8316 0.69617 0.63587 0.0
C2168 C 0.85891 0.66819 0.63912 0.0
C2169 C 0.89171 0.69935 0.63028 0.0
C2170 C 0.86566 0.6542 0.62844 0.0
C2171 C 0.87186 0.63357 0.63189 0.0
C2172 C 0.87146 0.62657 0.64609 0.0
C2173 C 0.86439 0.64053 0.65676 0.0
C2174 C 0.85804 0.66119 0.65328 0.0
H2175 H 0.90184 0.7137 0.62926 0.0
H2176 H 0.89635 0.69064 0.64007 0.0
H2177 H 0.8949 0.68888 0.62103 0.0
H2178 H 0.86624 0.6593 0.61744 0.0
H2179 H 0.87719 0.62317 0.62343 0.0
H2180 H 0.61649 0.60852 0.91426 0.0
H2181 H 0.58149 0.59486 0.90755 0.0
H2182 H 0.59424 0.61012 0.86362 0.0
H2183 H 0.62935 0.62331 0.87019 0.0
H2184 H 0.54925 0.61673 0.89546 0.0
H2185 H 0.57211 0.55022 0.86017 0.0
H2186 H 0.59081 0.56312 0.87187 0.0
H2187 H 0.5842 0.57478 0.85495 0.0
C2188 C 0.61192 0.6087 0.90315 0.0
C2189 C 0.62567 0.61691 0.89274 0.0
C2190 C 0.59193 0.60091 0.89934 0.0
C2191 C 0.58539 0.60114 0.88506 0.0
C2192 C 0.59916 0.60925 0.87465 0.0
H2193 H 0.46968 0.58905 0.83811 0.0
H2194 H 0.50579 0.59487 0.84689 0.0
C2195 C 0.61916 0.61694 0.87844 0.0
C2196 C 0.56366 0.59426 0.88113 0.0
H2197 H 0.53603 0.56219 0.85842 0.0
C2198 C 0.54635 0.60459 0.88752 0.0
C2199 C 0.5599 0.57839 0.87077 0.0
C2200 C 0.57775 0.56584 0.86415 0.0
C2201 C 0.52542 0.60005 0.88342 0.0
C2202 C 0.52176 0.58471 0.87273 0.0
C2203 C 0.53898 0.57402 0.86657 0.0
C2204 C 0.50016 0.58028 0.86737 0.0
C2205 C 0.50739 0.61219 0.89016 0.0
C2206 C 0.4852 0.56989 0.87595 0.0
C2207 C 0.46458 0.56646 0.87095 0.0
C2208 C 0.45863 0.57345 0.85731 0.0
C2209 C 0.47379 0.58356 0.84868 0.0
C2210 C 0.49441 0.58685 0.85366 0.0
H2211 H 0.5131 0.62568 0.89673 0.0
H2212 H 0.4965 0.61838 0.88184 0.0
H2213 H 0.49813 0.60135 0.89709 0.0
H2214 H 0.48945 0.56456 0.88653 0.0
H2215 H 0.45324 0.55859 0.87782 0.0
H2216 H 0.62122 0.37462 0.12222 0.0
H2217 H 0.63187 0.33846 0.11603 0.0
H2218 H 0.64426 0.32501 0.16024 0.0
H2219 H 0.63352 0.36127 0.16658 0.0
H2220 H 0.6773 0.3118 0.13885 0.0
H2221 H 0.59546 0.28444 0.12657 0.0
H2222 H 0.60319 0.30914 0.11851 0.0
H2223 H 0.6008 0.30741 0.13751 0.0
C2224 C 0.62625 0.364 0.13064 0.0
C2225 C 0.62644 0.37073 0.1449 0.0
C2226 C 0.63227 0.34336 0.12708 0.0
C2227 C 0.63862 0.32908 0.1377 0.0
C2228 C 0.63931 0.33583 0.15192 0.0
H2229 H 0.68333 0.19769 0.12954 0.0
H2230 H 0.67514 0.23306 0.13893 0.0
C2231 C 0.63315 0.35649 0.15551 0.0
C2232 C 0.64431 0.30706 0.13386 0.0
H2233 H 0.62361 0.26157 0.11993 0.0
C2234 C 0.66559 0.30068 0.13483 0.0
C2235 C 0.62894 0.29272 0.12864 0.0
C2236 C 0.60577 0.29862 0.12782 0.0
C2237 C 0.67206 0.28049 0.13019 0.0
C2238 C 0.65672 0.26626 0.12472 0.0
C2239 C 0.63536 0.27253 0.12408 0.0
C2240 C 0.66245 0.24504 0.11908 0.0
C2241 C 0.69533 0.27488 0.13067 0.0
C2242 C 0.65771 0.23994 0.1049 0.0
C2243 C 0.66215 0.21975 0.09957 0.0
C2244 C 0.67141 0.20424 0.10834 0.0
C2245 C 0.67631 0.20938 0.12252 0.0
C2246 C 0.67176 0.2296 0.12787 0.0
H2247 H 0.70548 0.2892 0.13186 0.0
H2248 H 0.69833 0.26436 0.13993 0.0
H2249 H 0.70019 0.26629 0.12089 0.0
H2250 H 0.65047 0.2516 0.09795 0.0
H2251 H 0.65819 0.21626 0.0886 0.0
H2252 H 0.88718 0.37965 0.41635 0.0
H2253 H 0.92261 0.39284 0.41016 0.0
H2254 H 0.90729 0.38743 0.36556 0.0
H2255 H 0.87181 0.37478 0.37165 0.0
H2256 H 0.95391 0.37338 0.39518 0.0
H2257 H 0.93017 0.44718 0.36748 0.0
H2258 H 0.91195 0.43209 0.37831 0.0
H2259 H 0.9173 0.42421 0.36025 0.0
C2260 C 0.89135 0.38143 0.40523 0.0
C2261 C 0.87671 0.37632 0.39448 0.0
C2262 C 0.91156 0.38896 0.40171 0.0
C2263 C 0.91744 0.39152 0.3874 0.0
C2264 C 0.90291 0.38616 0.37667 0.0
H2265 H 0.03052 0.41257 0.33899 0.0
H2266 H 0.99499 0.40478 0.34814 0.0
C2267 C 0.88268 0.37877 0.38017 0.0
C2268 C 0.93906 0.39888 0.38361 0.0
H2269 H 0.96585 0.43527 0.36353 0.0
C2270 C 0.95655 0.38708 0.38843 0.0
C2271 C 0.94247 0.41683 0.37483 0.0
C2272 C 0.92448 0.43093 0.37004 0.0
C2273 C 0.97729 0.39225 0.38423 0.0
C2274 C 0.98057 0.4097 0.37506 0.0
C2275 C 0.96319 0.42182 0.37051 0.0
C2276 C 0.00189 0.41508 0.3696 0.0
C2277 C 0.99553 0.37864 0.38923 0.0
C2278 C 0.01736 0.42371 0.37864 0.0
C2279 C 0.03763 0.4283 0.37342 0.0
C2280 C 0.04273 0.42422 0.35911 0.0
C2281 C 0.02707 0.41582 0.35007 0.0
C2282 C 0.00679 0.41139 0.35526 0.0
H2283 H 0.99003 0.36401 0.3947 0.0
H2284 H 0.00571 0.37406 0.38008 0.0
H2285 H 0.00547 0.38786 0.39677 0.0
H2286 H 0.01375 0.42683 0.38971 0.0
H2287 H 0.04938 0.43478 0.38063 0.0
H2288 H 0.87726 0.37323 0.87596 0.0
H2289 H 0.86483 0.33752 0.8816 0.0
H2290 H 0.84509 0.3289 0.83802 0.0
H2291 H 0.85804 0.36458 0.8322 0.0
H2292 H 0.8252 0.32016 0.87959 0.0
H2293 H 0.88186 0.27693 0.84466 0.0
H2294 H 0.88478 0.30475 0.84873 0.0
H2295 H 0.86562 0.29623 0.83577 0.0
C2296 C 0.8703 0.36374 0.86756 0.0
C2297 C 0.86874 0.37163 0.85362 0.0
C2298 C 0.86317 0.34334 0.8708 0.0
C2299 C 0.85432 0.33044 0.86019 0.0
C2300 C 0.85231 0.33842 0.8463 0.0
H2301 H 0.8105 0.19878 0.8687 0.0
H2302 H 0.81608 0.23488 0.85963 0.0
C2303 C 0.85959 0.35883 0.84301 0.0
C2304 C 0.84724 0.30867 0.86384 0.0
H2305 H 0.85712 0.25624 0.85739 0.0
C2306 C 0.8321 0.30618 0.87468 0.0
C2307 C 0.85624 0.29046 0.85739 0.0
C2308 C 0.87315 0.29212 0.84607 0.0
C2309 C 0.82598 0.28599 0.87942 0.0
C2310 C 0.83537 0.26784 0.87323 0.0
C2311 C 0.84997 0.27025 0.86208 0.0
C2312 C 0.83127 0.24628 0.8788 0.0
C2313 C 0.80965 0.28418 0.8911 0.0
C2314 C 0.83814 0.2408 0.89251 0.0
C2315 C 0.8351 0.22025 0.89767 0.0
C2316 C 0.82512 0.20482 0.8892 0.0
C2317 C 0.81816 0.21038 0.87548 0.0
C2318 C 0.82135 0.23094 0.87028 0.0
H2319 H 0.80019 0.29898 0.8922 0.0
H2320 H 0.79869 0.27072 0.88906 0.0
H2321 H 0.81783 0.28121 0.90136 0.0
H2322 H 0.84614 0.25236 0.89915 0.0
H2323 H 0.84068 0.21643 0.90827 0.0
H2324 H 0.03171 0.5938 0.15722 0.0
H2325 H 0.99663 0.60124 0.14738 0.0
H2326 H 0.01549 0.57362 0.10733 0.0
H2327 H 0.05074 0.56588 0.11719 0.0
H2328 H 0.98788 0.62675 0.12343 0.0
H2329 H 0.95847 0.54411 0.11635 0.0
H2330 H 0.98093 0.5504 0.12752 0.0
H2331 H 0.9838 0.55014 0.10851 0.0
C2332 C 0.02838 0.58916 0.14634 0.0
C2333 C 0.04396 0.57922 0.13797 0.0
C2334 C 0.00833 0.59345 0.14074 0.0
C2335 C 0.00341 0.58781 0.12668 0.0
C2336 C 0.01887 0.57779 0.11828 0.0
H2337 H 0.88347 0.61122 0.08152 0.0
H2338 H 0.92017 0.60077 0.08687 0.0
C2339 C 0.03901 0.57347 0.1239 0.0
C2340 C 0.98229 0.59326 0.12082 0.0
H2341 H 0.93559 0.57181 0.10924 0.0
C2342 C 0.97649 0.61474 0.12025 0.0
C2343 C 0.96753 0.57755 0.11661 0.0
C2344 C 0.97283 0.55423 0.11734 0.0
C2345 C 0.95617 0.62094 0.11583 0.0
C2346 C 0.94118 0.60523 0.11208 0.0
C2347 C 0.94716 0.58377 0.11217 0.0
C2348 C 0.91889 0.6108 0.10887 0.0
C2349 C 0.95082 0.64427 0.1153 0.0
C2350 C 0.906 0.61949 0.11955 0.0
C2351 C 0.88512 0.62538 0.11656 0.0
C2352 C 0.87674 0.62266 0.10283 0.0
C2353 C 0.88954 0.61356 0.09219 0.0
C2354 C 0.91046 0.60757 0.09522 0.0
H2355 H 0.96533 0.65428 0.11493 0.0
H2356 H 0.94084 0.64797 0.10587 0.0
H2357 H 0.94173 0.64863 0.12498 0.0
H2358 H 0.91216 0.62182 0.1302 0.0
H2359 H 0.87563 0.63228 0.12499 0.0
H2360 H 0.62485 0.62014 0.37809 0.0
H2361 H 0.63715 0.6556 0.38471 0.0
H2362 H 0.65206 0.66879 0.34078 0.0
H2363 H 0.63925 0.63351 0.33403 0.0
H2364 H 0.67562 0.67523 0.38171 0.0
H2365 H 0.61376 0.71816 0.35095 0.0
H2366 H 0.61257 0.68995 0.35411 0.0
H2367 H 0.62965 0.70041 0.34048 0.0
C2368 C 0.63079 0.63058 0.36984 0.0
C2369 C 0.63092 0.62414 0.35552 0.0
C2370 C 0.63783 0.65082 0.37364 0.0
C2371 C 0.64515 0.66497 0.3632 0.0
C2372 C 0.64599 0.65831 0.34896 0.0
H2373 H 0.68766 0.79655 0.37025 0.0
H2374 H 0.68123 0.76027 0.36183 0.0
C2375 C 0.63879 0.63812 0.34513 0.0
C2376 C 0.65166 0.68674 0.36729 0.0
H2377 H 0.63997 0.73913 0.36218 0.0
C2378 C 0.66785 0.6892 0.37743 0.0
C2379 C 0.64146 0.70495 0.3617 0.0
C2380 C 0.62326 0.70332 0.35131 0.0
C2381 C 0.67411 0.7094 0.38213 0.0
C2382 C 0.66379 0.72753 0.37662 0.0
C2383 C 0.64788 0.72513 0.36632 0.0
C2384 C 0.66859 0.74912 0.38188 0.0
C2385 C 0.69173 0.71123 0.39293 0.0
C2386 C 0.66347 0.75479 0.39589 0.0
C2387 C 0.66698 0.77547 0.40069 0.0
C2388 C 0.6757 0.79082 0.39155 0.0
C2389 C 0.68098 0.78504 0.37754 0.0
C2390 C 0.67732 0.76437 0.37272 0.0
H2391 H 0.70125 0.69642 0.39362 0.0
H2392 H 0.70245 0.72464 0.39028 0.0
H2393 H 0.68475 0.71436 0.40357 0.0
H2394 H 0.65641 0.74331 0.40305 0.0
H2395 H 0.66272 0.77948 0.41153 0.0
H2396 H 0.60846 0.37222 0.58208 0.0
H2397 H 0.57248 0.38412 0.58801 0.0
H2398 H 0.59278 0.39835 0.63079 0.0
H2399 H 0.62874 0.38667 0.62493 0.0
H2400 H 0.54633 0.36696 0.60908 0.0
H2401 H 0.56111 0.45248 0.61884 0.0
H2402 H 0.57969 0.43574 0.60944 0.0
H2403 H 0.57857 0.43523 0.62856 0.0
C2404 C 0.60528 0.37808 0.59271 0.0
C2405 C 0.6214 0.37855 0.60304 0.0
C2406 C 0.58475 0.38487 0.59607 0.0
C2407 C 0.58006 0.3924 0.60977 0.0
C2408 C 0.59617 0.39302 0.62007 0.0
H2409 H 0.46277 0.39647 0.65581 0.0
H2410 H 0.49815 0.38958 0.64619 0.0
C2411 C 0.61667 0.3862 0.61673 0.0
C2412 C 0.55806 0.39834 0.61361 0.0
H2413 H 0.52796 0.43867 0.62713 0.0
C2414 C 0.54225 0.3827 0.61289 0.0
C2415 C 0.55276 0.41894 0.61843 0.0
C2416 C 0.56887 0.43664 0.61875 0.0
C2417 C 0.52143 0.38688 0.61736 0.0
C2418 C 0.51639 0.40716 0.62284 0.0
C2419 C 0.53197 0.42307 0.62306 0.0
C2420 C 0.49518 0.41189 0.6288 0.0
C2421 C 0.50501 0.36954 0.61625 0.0
C2422 C 0.48204 0.42714 0.62242 0.0
C2423 C 0.46179 0.43115 0.62791 0.0
C2424 C 0.45449 0.42009 0.63995 0.0
C2425 C 0.46791 0.40518 0.64649 0.0
C2426 C 0.48808 0.40114 0.64097 0.0
H2427 H 0.50986 0.35702 0.60858 0.0
H2428 H 0.50294 0.362 0.62683 0.0
H2429 H 0.48943 0.37607 0.61288 0.0
H2430 H 0.48733 0.43568 0.61306 0.0
H2431 H 0.45181 0.44277 0.62268 0.0
H2432 H 0.13448 0.36479 0.33157 0.0
H2433 H 0.14594 0.32858 0.33748 0.0
H2434 H 0.13482 0.34112 0.38196 0.0
H2435 H 0.12351 0.37726 0.37621 0.0
H2436 H 0.18011 0.31579 0.35999 0.0
H2437 H 0.09794 0.28668 0.36947 0.0
H2438 H 0.10362 0.30942 0.35839 0.0
H2439 H 0.10493 0.31173 0.37739 0.0
C2440 C 0.13459 0.35984 0.34261 0.0
C2441 C 0.12803 0.3738 0.35343 0.0
C2442 C 0.14116 0.33922 0.34595 0.0
C2443 C 0.14105 0.33225 0.36012 0.0
C2444 C 0.13487 0.34625 0.37095 0.0
H2445 H 0.15863 0.21777 0.4076 0.0
H2446 H 0.15095 0.25329 0.39859 0.0
C2447 C 0.12845 0.36686 0.36764 0.0
C2448 C 0.1469 0.3102 0.3637 0.0
H2449 H 0.12601 0.26375 0.37594 0.0
C2450 C 0.16834 0.30428 0.36336 0.0
C2451 C 0.13142 0.29538 0.36809 0.0
C2452 C 0.10814 0.30096 0.3683 0.0
C2453 C 0.17483 0.284 0.36783 0.0
C2454 C 0.15935 0.26924 0.37244 0.0
C2455 C 0.13785 0.2751 0.37243 0.0
C2456 C 0.16504 0.24792 0.37789 0.0
C2457 C 0.19822 0.27887 0.3681 0.0
C2458 C 0.17553 0.23307 0.36924 0.0
C2459 C 0.18009 0.21275 0.37442 0.0
C2460 C 0.17399 0.2069 0.38826 0.0
C2461 C 0.16352 0.2218 0.39688 0.0
C2462 C 0.1591 0.2421 0.39175 0.0
H2463 H 0.20814 0.29343 0.36761 0.0
H2464 H 0.20245 0.26988 0.37785 0.0
H2465 H 0.20219 0.26889 0.35874 0.0
H2466 H 0.17985 0.23707 0.35842 0.0
H2467 H 0.18805 0.20152 0.36751 0.0
H2468 H 0.3707 0.37912 0.12773 0.0
H2469 H 0.40614 0.39149 0.13423 0.0
H2470 H 0.4198 0.40445 0.09009 0.0
H2471 H 0.38446 0.39159 0.08347 0.0
H2472 H 0.45129 0.38226 0.10277 0.0
H2473 H 0.42988 0.45085 0.13666 0.0
H2474 H 0.41711 0.42685 0.14229 0.0
H2475 H 0.41096 0.43796 0.12512 0.0
C2476 C 0.38116 0.38482 0.11942 0.0
C2477 C 0.3748 0.38443 0.1051 0.0
C2478 C 0.40137 0.39203 0.12317 0.0
C2479 C 0.41548 0.39927 0.11268 0.0
C2480 C 0.40909 0.39908 0.09837 0.0
H2481 H 0.54873 0.43843 0.11946 0.0
H2482 H 0.51248 0.4328 0.11071 0.0
C2483 C 0.38892 0.39174 0.0946 0.0
C2484 C 0.43736 0.40572 0.11659 0.0
H2485 H 0.46563 0.43808 0.13875 0.0
C2486 C 0.45445 0.39467 0.11048 0.0
C2487 C 0.44144 0.42194 0.12664 0.0
C2488 C 0.42388 0.43523 0.13295 0.0
C2489 C 0.47545 0.39885 0.11458 0.0
C2490 C 0.47944 0.41458 0.12495 0.0
C2491 C 0.46244 0.42596 0.13083 0.0
C2492 C 0.50111 0.41875 0.13028 0.0
C2493 C 0.49321 0.38594 0.10815 0.0
C2494 C 0.50652 0.41304 0.14424 0.0
C2495 C 0.52715 0.41615 0.14924 0.0
C2496 C 0.54268 0.42523 0.14039 0.0
C2497 C 0.5371 0.43136 0.1265 0.0
C2498 C 0.51646 0.42811 0.12148 0.0
H2499 H 0.48719 0.37217 0.10197 0.0
H2500 H 0.50264 0.39614 0.1009 0.0
H2501 H 0.50402 0.38004 0.11661 0.0
H2502 H 0.49484 0.40583 0.15118 0.0
H2503 H 0.53097 0.41134 0.16 0.0
H2504 H 0.31313 0.79911 0.86652 0.0
H2505 H 0.32039 0.76324 0.8576 0.0
H2506 H 0.3411 0.74423 0.89944 0.0
H2507 H 0.3339 0.77994 0.90843 0.0
H2508 H 0.36088 0.74185 0.85882 0.0
H2509 H 0.29774 0.69787 0.88756 0.0
H2510 H 0.29694 0.72628 0.88498 0.0
H2511 H 0.31352 0.71502 0.89859 0.0
C2512 C 0.31906 0.78722 0.87384 0.0
C2513 C 0.32291 0.7923 0.88818 0.0
C2514 C 0.32321 0.76679 0.86873 0.0
C2515 C 0.33102 0.75107 0.87791 0.0
C2516 C 0.33473 0.75606 0.89224 0.0
H2517 H 0.37708 0.62338 0.87527 0.0
H2518 H 0.36428 0.6589 0.88118 0.0
C2519 C 0.33071 0.77649 0.89734 0.0
C2520 C 0.33629 0.72968 0.87245 0.0
H2521 H 0.32493 0.67712 0.87678 0.0
C2522 C 0.35289 0.72767 0.86259 0.0
C2523 C 0.32582 0.71129 0.87744 0.0
C2524 C 0.30738 0.71264 0.88764 0.0
C2525 C 0.35991 0.70765 0.85801 0.0
C2526 C 0.3497 0.68921 0.86322 0.0
C2527 C 0.33274 0.69128 0.87282 0.0
C2528 C 0.35705 0.66758 0.85943 0.0
C2529 C 0.37874 0.7064 0.84813 0.0
C2530 C 0.35698 0.66057 0.84525 0.0
C2531 C 0.36442 0.64027 0.84182 0.0
C2532 C 0.37185 0.62661 0.85255 0.0
C2533 C 0.3715 0.63355 0.86676 0.0
C2534 C 0.36416 0.65383 0.87016 0.0
H2535 H 0.38777 0.72154 0.84783 0.0
H2536 H 0.38968 0.69346 0.85138 0.0
H2537 H 0.3731 0.70296 0.83718 0.0
H2538 H 0.35116 0.67077 0.83684 0.0
H2539 H 0.36437 0.63529 0.83079 0.0
H2540 H 0.96343 0.59726 0.65489 0.0
H2541 H 0.99881 0.60319 0.64501 0.0
H2542 H 0.98756 0.55484 0.61343 0.0
H2543 H 0.95201 0.54873 0.6233 0.0
H2544 H 0.02846 0.55281 0.62783 0.0
H2545 H 0.01022 0.63266 0.60605 0.0
H2546 H 0.00313 0.62916 0.62442 0.0
H2547 H 0.98982 0.6139 0.61096 0.0
C2548 C 0.96847 0.58785 0.64586 0.0
C2549 C 0.95492 0.5726 0.63982 0.0
C2550 C 0.98864 0.59133 0.64019 0.0
C2551 C 0.99562 0.57965 0.62838 0.0
C2552 C 0.98236 0.56407 0.62251 0.0
H2553 H 0.10886 0.61666 0.58081 0.0
H2554 H 0.07315 0.60416 0.58682 0.0
C2555 C 0.96209 0.56063 0.62814 0.0
C2556 C 0.01682 0.58384 0.62224 0.0
H2557 H 0.04669 0.62285 0.607 0.0
C2558 C 0.03244 0.56803 0.62314 0.0
C2559 C 0.02181 0.60361 0.61597 0.0
C2560 C 0.00534 0.62077 0.61415 0.0
C2561 C 0.05325 0.57182 0.61843 0.0
C2562 C 0.0585 0.59197 0.61282 0.0
C2563 C 0.04264 0.60746 0.61141 0.0
C2564 C 0.08052 0.59773 0.60889 0.0
C2565 C 0.06944 0.55426 0.61954 0.0
C2566 C 0.09646 0.59822 0.61931 0.0
C2567 C 0.11682 0.60538 0.61593 0.0
C2568 C 0.12156 0.61227 0.60206 0.0
C2569 C 0.10568 0.61141 0.59157 0.0
C2570 C 0.08529 0.60429 0.59499 0.0
H2571 H 0.06176 0.53842 0.6202 0.0
H2572 H 0.08039 0.55442 0.61027 0.0
H2573 H 0.079 0.55657 0.62933 0.0
H2574 H 0.09299 0.59364 0.63018 0.0
H2575 H 0.12871 0.60593 0.62424 0.0
H2576 H 0.15069 0.61871 0.12961 0.0
H2577 H 0.16327 0.65407 0.12302 0.0
H2578 H 0.12183 0.68185 0.1545 0.0
H2579 H 0.10998 0.64642 0.16157 0.0
H2580 H 0.14213 0.68478 0.11168 0.0
H2581 H 0.17456 0.71435 0.16259 0.0
H2582 H 0.16751 0.68688 0.15996 0.0
H2583 H 0.14748 0.70615 0.16452 0.0
C2584 C 0.14452 0.63236 0.13527 0.0
C2585 C 0.12943 0.62986 0.14613 0.0
C2586 C 0.1517 0.65256 0.13149 0.0
C2587 C 0.14376 0.67067 0.1384 0.0
C2588 C 0.1287 0.66815 0.1493 0.0
H2589 H 0.13772 0.79515 0.10039 0.0
H2590 H 0.13141 0.75926 0.10921 0.0
C2591 C 0.1218 0.6479 0.15326 0.0
C2592 C 0.15004 0.69217 0.13344 0.0
H2593 H 0.16731 0.7407 0.14474 0.0
C2594 C 0.14786 0.69691 0.11891 0.0
C2595 C 0.15786 0.70796 0.14279 0.0
C2596 C 0.16222 0.7035 0.15829 0.0
C2597 C 0.15272 0.71709 0.11354 0.0
C2598 C 0.1592 0.73328 0.12304 0.0
C2599 C 0.16201 0.7284 0.1375 0.0
C2600 C 0.16284 0.7554 0.11818 0.0
C2601 C 0.15113 0.7207 0.09769 0.0
C2602 C 0.18227 0.76558 0.12086 0.0
C2603 C 0.18575 0.78632 0.11607 0.0
C2604 C 0.16989 0.79715 0.10847 0.0
C2605 C 0.15033 0.78708 0.10605 0.0
C2606 C 0.14676 0.76651 0.111 0.0
H2607 H 0.15302 0.70562 0.09169 0.0
H2608 H 0.13521 0.72719 0.09513 0.0
H2609 H 0.16333 0.7321 0.09392 0.0
H2610 H 0.19485 0.75737 0.12647 0.0
H2611 H 0.20096 0.79373 0.11812 0.0
H2612 H 0.13153 0.41204 0.88902 0.0
H2613 H 0.09603 0.42482 0.88295 0.0
H2614 H 0.06859 0.3691 0.9023 0.0
H2615 H 0.10405 0.35663 0.90885 0.0
H2616 H 0.06904 0.40674 0.86549 0.0
H2617 H 0.03041 0.41416 0.9181 0.0
H2618 H 0.05871 0.41077 0.91616 0.0
H2619 H 0.04126 0.38816 0.91543 0.0
C2620 C 0.11789 0.4027 0.89219 0.0
C2621 C 0.12051 0.38336 0.89942 0.0
C2622 C 0.09762 0.41001 0.88871 0.0
C2623 C 0.07959 0.39807 0.89232 0.0
C2624 C 0.08219 0.37889 0.89974 0.0
H2625 H 0.96084 0.39609 0.84755 0.0
H2626 H 0.99652 0.3905 0.85694 0.0
C2627 C 0.10247 0.37169 0.90339 0.0
C2628 C 0.05832 0.40479 0.88724 0.0
H2629 H 0.00715 0.41314 0.89782 0.0
C2630 C 0.05557 0.40838 0.8726 0.0
C2631 C 0.0408 0.40725 0.89652 0.0
C2632 C 0.04297 0.40511 0.91244 0.0
C2633 C 0.03569 0.41366 0.86693 0.0
C2634 C 0.0179 0.41479 0.87609 0.0
C2635 C 0.02075 0.41197 0.89079 0.0
C2636 C 0.99615 0.41823 0.87054 0.0
C2637 C 0.03398 0.41807 0.85119 0.0
C2638 C 0.98381 0.43531 0.8754 0.0
C2639 C 0.96325 0.4384 0.87017 0.0
C2640 C 0.95473 0.42444 0.86 0.0
C2641 C 0.96706 0.40725 0.85526 0.0
C2642 C 0.9875 0.4041 0.86056 0.0
H2643 H 0.04945 0.42324 0.84668 0.0
H2644 H 0.02918 0.40332 0.8456 0.0
H2645 H 0.02196 0.43052 0.84895 0.0
H2646 H 0.99014 0.44632 0.88317 0.0
H2647 H 0.95406 0.45174 0.87404 0.0
H2648 H 0.31076 0.19529 0.63105 0.0
H2649 H 0.31635 0.23125 0.64041 0.0
H2650 H 0.34212 0.2507 0.59996 0.0
H2651 H 0.33659 0.215 0.59055 0.0
H2652 H 0.35634 0.25359 0.6416 0.0
H2653 H 0.29653 0.29615 0.60902 0.0
H2654 H 0.29597 0.26774 0.6116 0.0
H2655 H 0.31393 0.27931 0.59893 0.0
C2656 C 0.31747 0.20729 0.62414 0.0
C2657 C 0.32319 0.20237 0.61006 0.0
C2658 C 0.32066 0.22778 0.6295 0.0
C2659 C 0.32935 0.24366 0.6208 0.0
C2660 C 0.33502 0.23876 0.60675 0.0
H2661 H 0.37489 0.37089 0.62339 0.0
H2662 H 0.36221 0.33523 0.61776 0.0
C2663 C 0.33196 0.21832 0.60142 0.0
C2664 C 0.33347 0.26518 0.62648 0.0
H2665 H 0.32251 0.31751 0.6207 0.0
C2666 C 0.34876 0.26759 0.63721 0.0
C2667 C 0.32354 0.28334 0.62068 0.0
C2668 C 0.30643 0.28157 0.60951 0.0
C2669 C 0.35515 0.28781 0.64182 0.0
C2670 C 0.34563 0.30602 0.63573 0.0
C2671 C 0.32983 0.30353 0.62533 0.0
C2672 C 0.35273 0.3278 0.63933 0.0
C2673 C 0.37274 0.28948 0.65267 0.0
C2674 C 0.35133 0.33559 0.6533 0.0
C2675 C 0.35872 0.35595 0.65658 0.0
C2676 C 0.3674 0.36893 0.64589 0.0
C2677 C 0.36831 0.36126 0.63186 0.0
C2678 C 0.36104 0.3409 0.62862 0.0
H2679 H 0.3816 0.27433 0.65381 0.0
H2680 H 0.38412 0.3022 0.64973 0.0
H2681 H 0.36582 0.2935 0.66319 0.0
H2682 H 0.34454 0.32591 0.66167 0.0
H2683 H 0.35768 0.36151 0.66746 0.0
H2684 H 0.54252 0.61018 0.35063 0.0
H2685 H 0.50715 0.61841 0.35969 0.0
H2686 H 0.50199 0.55497 0.37668 0.0
H2687 H 0.53786 0.54698 0.36816 0.0
H2688 H 0.47034 0.60234 0.3532 0.0
H2689 H 0.48435 0.58864 0.41068 0.0
H2690 H 0.50569 0.5896 0.39791 0.0
H2691 H 0.49025 0.56577 0.40004 0.0
C2692 C 0.53389 0.59802 0.35637 0.0
C2693 C 0.54294 0.57797 0.35875 0.0
C2694 C 0.51367 0.60274 0.36155 0.0
C2695 C 0.502 0.58744 0.36909 0.0
C2696 C 0.5109 0.56725 0.37127 0.0
H2697 H 0.36508 0.60064 0.37939 0.0
H2698 H 0.40064 0.58884 0.3726 0.0
C2699 C 0.53131 0.56263 0.36629 0.0
C2700 C 0.48026 0.59255 0.37414 0.0
H2701 H 0.44845 0.59369 0.40356 0.0
C2702 C 0.46559 0.60051 0.36423 0.0
C2703 C 0.47413 0.59044 0.38857 0.0
C2704 C 0.48949 0.58336 0.39994 0.0
C2705 C 0.44502 0.60642 0.36832 0.0
C2706 C 0.43862 0.60353 0.38263 0.0
C2707 C 0.45328 0.59564 0.39256 0.0
C2708 C 0.41698 0.60925 0.38756 0.0
C2709 C 0.43065 0.61634 0.35731 0.0
C2710 C 0.41428 0.62375 0.39877 0.0
C2711 C 0.39393 0.63013 0.4029 0.0
C2712 C 0.37598 0.62223 0.39579 0.0
C2713 C 0.37867 0.60719 0.38491 0.0
C2714 C 0.39898 0.60056 0.38096 0.0
H2715 H 0.43985 0.62321 0.34834 0.0
H2716 H 0.42002 0.60397 0.35286 0.0
H2717 H 0.4207 0.62906 0.36203 0.0
H2718 H 0.42793 0.63056 0.40409 0.0
H2719 H 0.39229 0.64172 0.41134 0.0
loop_
_geom_bond_atom_site_label_1
_geom_bond_atom_site_label_2
_geom_bond_distance
_geom_bond_site_symmetry_2
_ccdc_geom_bond_type
In0 O1 2.294 . S
In0 O2 2.326 . S
In0 O6 2.266 . S
In0 O7 2.326 . S
In0 O8 2.266 . S
In0 O9 2.326 . S
In0 O11 2.294 . S
In0 O12 2.326 . S
O1 In0 2.294 . S
O1 C10 1.240 . S
O2 In0 2.326 . S
O2 C10 1.252 . S
C3 O6 1.252 . S
C3 O7 1.260 . S
C4 O11 1.240 . S
C4 O12 1.252 . S
C5 O8 1.252 . S
C5 O9 1.260 . S
O6 In0 2.266 . S
O6 C3 1.252 . S
O7 In0 2.326 . S
O7 C3 1.260 . S
O8 In0 2.266 . S
O8 C5 1.252 . S
O9 In0 2.326 . S
O9 C5 1.260 . S
C10 O1 1.240 . S
C10 O2 1.252 . S
O11 In0 2.294 . S
O11 C4 1.240 . S
O12 In0 2.326 . S
O12 C4 1.252 . S
In13 O14 2.294 . S
In13 O15 2.326 . S
In13 O19 2.266 . S
In13 O20 2.326 . S
In13 O21 2.266 . S
In13 O22 2.326 . S
In13 O24 2.294 . S
In13 O25 2.326 . S
O14 In13 2.294 . S
O14 C23 1.240 . S
O15 In13 2.326 . S
O15 C23 1.252 . S
C16 O19 1.252 . S
C16 O20 1.260 . S
C17 O24 1.240 . S
C17 O25 1.252 . S
C18 O21 1.252 . S
C18 O22 1.260 . S
O19 In13 2.266 . S
O19 C16 1.252 . S
O20 In13 2.326 . S
O20 C16 1.260 . S
O21 In13 2.266 . S
O21 C18 1.252 . S
O22 In13 2.326 . S
O22 C18 1.260 . S
C23 O14 1.240 . S
C23 O15 1.252 . S
O24 In13 2.294 . S
O24 C17 1.240 . S
O25 In13 2.326 . S
O25 C17 1.252 . S
In26 O27 2.294 . S
In26 O28 2.326 . S
In26 O32 2.266 . S
In26 O33 2.326 . S
In26 O34 2.266 . S
In26 O35 2.326 . S
In26 O37 2.294 . S
In26 O38 2.326 . S
O27 In26 2.294 . S
O27 C36 1.240 . S
O28 In26 2.326 . S
O28 C36 1.252 . S
C29 O32 1.252 . S
C29 O33 1.260 . S
C30 O37 1.240 . S
C30 O38 1.252 . S
C31 O34 1.252 . S
C31 O35 1.260 . S
O32 In26 2.266 . S
O32 C29 1.252 . S
O33 In26 2.326 . S
O33 C29 1.260 . S
O34 In26 2.266 . S
O34 C31 1.252 . S
O35 In26 2.326 . S
O35 C31 1.260 . S
C36 O27 1.240 . S
C36 O28 1.252 . S
O37 In26 2.294 . S
O37 C30 1.240 . S
O38 In26 2.326 . S
O38 C30 1.252 . S
In39 O40 2.294 . S
In39 O41 2.326 . S
In39 O45 2.266 . S
In39 O46 2.326 . S
In39 O47 2.266 . S
In39 O48 2.326 . S
In39 O50 2.294 . S
In39 O51 2.326 . S
O40 In39 2.294 . S
O40 C49 1.240 . S
O41 In39 2.326 . S
O41 C49 1.252 . S
C42 O45 1.252 . S
C42 O46 1.260 . S
C43 O50 1.240 . S
C43 O51 1.252 . S
C44 O47 1.252 . S
C44 O48 1.260 . S
O45 In39 2.266 . S
O45 C42 1.252 . S
O46 In39 2.326 . S
O46 C42 1.260 . S
O47 In39 2.266 . S
O47 C44 1.252 . S
O48 In39 2.326 . S
O48 C44 1.260 . S
C49 O40 1.240 . S
C49 O41 1.252 . S
O50 In39 2.294 . S
O50 C43 1.240 . S
O51 In39 2.326 . S
O51 C43 1.252 . S
In52 O53 2.294 . S
In52 O54 2.326 . S
In52 O58 2.266 . S
In52 O59 2.326 . S
In52 O60 2.266 . S
In52 O61 2.326 . S
In52 O63 2.294 . S
In52 O64 2.326 . S
O53 In52 2.294 . S
O53 C62 1.240 . S
O54 In52 2.326 . S
O54 C62 1.252 . S
C55 O58 1.252 . S
C55 O59 1.260 . S
C56 O63 1.240 . S
C56 O64 1.252 . S
C57 O60 1.252 . S
C57 O61 1.260 . S
O58 In52 2.266 . S
O58 C55 1.252 . S
O59 In52 2.326 . S
O59 C55 1.260 . S
O60 In52 2.266 . S
O60 C57 1.252 . S
O61 In52 2.326 . S
O61 C57 1.260 . S
C62 O53 1.240 . S
C62 O54 1.252 . S
O63 In52 2.294 . S
O63 C56 1.240 . S
O64 In52 2.326 . S
O64 C56 1.252 . S
In65 O66 2.294 . S
In65 O67 2.326 . S
In65 O71 2.266 . S
In65 O72 2.326 . S
In65 O73 2.266 . S
In65 O74 2.326 . S
In65 O76 2.294 . S
In65 O77 2.326 . S
O66 In65 2.294 . S
O66 C75 1.240 . S
O67 In65 2.326 . S
O67 C75 1.252 . S
C68 O71 1.252 . S
C68 O72 1.260 . S
C69 O76 1.240 . S
C69 O77 1.252 . S
C70 O73 1.252 . S
C70 O74 1.260 . S
O71 In65 2.266 . S
O71 C68 1.252 . S
O72 In65 2.326 . S
O72 C68 1.260 . S
O73 In65 2.266 . S
O73 C70 1.252 . S
O74 In65 2.326 . S
O74 C70 1.260 . S
C75 O66 1.240 . S
C75 O67 1.252 . S
O76 In65 2.294 . S
O76 C69 1.240 . S
O77 In65 2.326 . S
O77 C69 1.252 . S
In78 O79 2.294 . S
In78 O80 2.326 . S
In78 O84 2.266 . S
In78 O85 2.326 . S
In78 O86 2.266 . S
In78 O87 2.326 . S
In78 O89 2.294 . S
In78 O90 2.326 . S
O79 In78 2.294 . S
O79 C88 1.240 . S
O80 In78 2.326 . S
O80 C88 1.252 . S
C81 O84 1.252 . S
C81 O85 1.260 . S
C82 O89 1.240 . S
C82 O90 1.252 . S
C83 O86 1.252 . S
C83 O87 1.260 . S
O84 In78 2.266 . S
O84 C81 1.252 . S
O85 In78 2.326 . S
O85 C81 1.260 . S
O86 In78 2.266 . S
O86 C83 1.252 . S
O87 In78 2.326 . S
O87 C83 1.260 . S
C88 O79 1.240 . S
C88 O80 1.252 . S
O89 In78 2.294 . S
O89 C82 1.240 . S
O90 In78 2.326 . S
O90 C82 1.252 . S
In91 O92 2.294 . S
In91 O93 2.326 . S
In91 O97 2.266 . S
In91 O98 2.326 . S
In91 O99 2.266 . S
In91 O100 2.326 . S
In91 O102 2.294 . S
In91 O103 2.326 . S
O92 In91 2.294 . S
O92 C101 1.240 . S
O93 In91 2.326 . S
O93 C101 1.252 . S
C94 O97 1.252 . S
C94 O98 1.260 . S
C95 O102 1.240 . S
C95 O103 1.252 . S
C96 O99 1.252 . S
C96 O100 1.260 . S
O97 In91 2.266 . S
O97 C94 1.252 . S
O98 In91 2.326 . S
O98 C94 1.260 . S
O99 In91 2.266 . S
O99 C96 1.252 . S
O100 In91 2.326 . S
O100 C96 1.260 . S
C101 O92 1.240 . S
C101 O93 1.252 . S
O102 In91 2.294 . S
O102 C95 1.240 . S
O103 In91 2.326 . S
O103 C95 1.252 . S
In104 O105 2.294 . S
In104 O106 2.326 . S
In104 O110 2.266 . S
In104 O111 2.326 . S
In104 O112 2.266 . S
In104 O113 2.326 . S
In104 O115 2.294 . S
In104 O116 2.326 . S
O105 In104 2.294 . S
O105 C114 1.240 . S
O106 In104 2.326 . S
O106 C114 1.252 . S
C107 O110 1.252 . S
C107 O111 1.260 . S
C108 O115 1.240 . S
C108 O116 1.252 . S
C109 O112 1.252 . S
C109 O113 1.260 . S
O110 In104 2.266 . S
O110 C107 1.252 . S
O111 In104 2.326 . S
O111 C107 1.260 . S
O112 In104 2.266 . S
O112 C109 1.252 . S
O113 In104 2.326 . S
O113 C109 1.260 . S
C114 O105 1.240 . S
C114 O106 1.252 . S
O115 In104 2.294 . S
O115 C108 1.240 . S
O116 In104 2.326 . S
O116 C108 1.252 . S
In117 O118 2.294 . S
In117 O119 2.326 . S
In117 O123 2.266 . S
In117 O124 2.326 . S
In117 O125 2.266 . S
In117 O126 2.326 . S
In117 O128 2.294 . S
In117 O129 2.326 . S
O118 In117 2.294 . S
O118 C127 1.240 . S
O119 In117 2.326 . S
O119 C127 1.252 . S
C120 O123 1.252 . S
C120 O124 1.260 . S
C121 O128 1.240 . S
C121 O129 1.252 . S
C122 O125 1.252 . S
C122 O126 1.260 . S
O123 In117 2.266 . S
O123 C120 1.252 . S
O124 In117 2.326 . S
O124 C120 1.260 . S
O125 In117 2.266 . S
O125 C122 1.252 . S
O126 In117 2.326 . S
O126 C122 1.260 . S
C127 O118 1.240 . S
C127 O119 1.252 . S
O128 In117 2.294 . S
O128 C121 1.240 . S
O129 In117 2.326 . S
O129 C121 1.252 . S
In130 O131 2.294 . S
In130 O132 2.326 . S
In130 O136 2.266 . S
In130 O137 2.326 . S
In130 O138 2.266 . S
In130 O139 2.326 . S
In130 O141 2.294 . S
In130 O142 2.326 . S
O131 In130 2.294 . S
O131 C140 1.240 . S
O132 In130 2.326 . S
O132 C140 1.252 . S
C133 O136 1.252 . S
C133 O137 1.260 . S
C134 O141 1.240 . S
C134 O142 1.252 . S
C135 O138 1.252 . S
C135 O139 1.260 . S
O136 In130 2.266 . S
O136 C133 1.252 . S
O137 In130 2.326 . S
O137 C133 1.260 . S
O138 In130 2.266 . S
O138 C135 1.252 . S
O139 In130 2.326 . S
O139 C135 1.260 . S
C140 O131 1.240 . S
C140 O132 1.252 . S
O141 In130 2.294 . S
O141 C134 1.240 . S
O142 In130 2.326 . S
O142 C134 1.252 . S
In143 O144 2.294 . S
In143 O145 2.326 . S
In143 O149 2.266 . S
In143 O150 2.326 . S
In143 O151 2.266 . S
In143 O152 2.326 . S
In143 O154 2.294 . S
In143 O155 2.326 . S
O144 In143 2.294 . S
O144 C153 1.240 . S
O145 In143 2.326 . S
O145 C153 1.252 . S
C146 O149 1.252 . S
C146 O150 1.260 . S
C147 O154 1.240 . S
C147 O155 1.252 . S
C148 O151 1.252 . S
C148 O152 1.260 . S
O149 In143 2.266 . S
O149 C146 1.252 . S
O150 In143 2.326 . S
O150 C146 1.260 . S
O151 In143 2.266 . S
O151 C148 1.252 . S
O152 In143 2.326 . S
O152 C148 1.260 . S
C153 O144 1.240 . S
C153 O145 1.252 . S
O154 In143 2.294 . S
O154 C147 1.240 . S
O155 In143 2.326 . S
O155 C147 1.252 . S
In156 O157 2.294 . S
In156 O158 2.326 . S
In156 O162 2.266 . S
In156 O163 2.326 . S
In156 O164 2.266 . S
In156 O165 2.326 . S
In156 O167 2.294 . S
In156 O168 2.326 . S
O157 In156 2.294 . S
O157 C166 1.240 . S
O158 In156 2.326 . S
O158 C166 1.252 . S
C159 O162 1.252 . S
C159 O163 1.260 . S
C160 O167 1.240 . S
C160 O168 1.252 . S
C161 O164 1.252 . S
C161 O165 1.260 . S
O162 In156 2.266 . S
O162 C159 1.252 . S
O163 In156 2.326 . S
O163 C159 1.260 . S
O164 In156 2.266 . S
O164 C161 1.252 . S
O165 In156 2.326 . S
O165 C161 1.260 . S
C166 O157 1.240 . S
C166 O158 1.252 . S
O167 In156 2.294 . S
O167 C160 1.240 . S
O168 In156 2.326 . S
O168 C160 1.252 . S
In169 O170 2.294 . S
In169 O171 2.326 . S
In169 O175 2.266 . S
In169 O176 2.326 . S
In169 O177 2.266 . S
In169 O178 2.326 . S
In169 O180 2.294 . S
In169 O181 2.326 . S
O170 In169 2.294 . S
O170 C179 1.240 . S
O171 In169 2.326 . S
O171 C179 1.252 . S
C172 O175 1.252 . S
C172 O176 1.260 . S
C173 O180 1.240 . S
C173 O181 1.252 . S
C174 O177 1.252 . S
C174 O178 1.260 . S
O175 In169 2.266 . S
O175 C172 1.252 . S
O176 In169 2.326 . S
O176 C172 1.260 . S
O177 In169 2.266 . S
O177 C174 1.252 . S
O178 In169 2.326 . S
O178 C174 1.260 . S
C179 O170 1.240 . S
C179 O171 1.252 . S
O180 In169 2.294 . S
O180 C173 1.240 . S
O181 In169 2.326 . S
O181 C173 1.252 . S
In182 O183 2.294 . S
In182 O184 2.326 . S
In182 O188 2.266 . S
In182 O189 2.326 . S
In182 O190 2.266 . S
In182 O191 2.326 . S
In182 O193 2.294 . S
In182 O194 2.326 . S
O183 In182 2.294 . S
O183 C192 1.240 . S
O184 In182 2.326 . S
O184 C192 1.252 . S
C185 O188 1.252 . S
C185 O189 1.260 . S
C186 O193 1.240 . S
C186 O194 1.252 . S
C187 O190 1.252 . S
C187 O191 1.260 . S
O188 In182 2.266 . S
O188 C185 1.252 . S
O189 In182 2.326 . S
O189 C185 1.260 . S
O190 In182 2.266 . S
O190 C187 1.252 . S
O191 In182 2.326 . S
O191 C187 1.260 . S
C192 O183 1.240 . S
C192 O184 1.252 . S
O193 In182 2.294 . S
O193 C186 1.240 . S
O194 In182 2.326 . S
O194 C186 1.252 . S
In195 O196 2.294 . S
In195 O197 2.326 . S
In195 O201 2.266 . S
In195 O202 2.326 . S
In195 O203 2.266 . S
In195 O204 2.326 . S
In195 O206 2.294 . S
In195 O207 2.326 . S
O196 In195 2.294 . S
O196 C205 1.240 . S
O197 In195 2.326 . S
O197 C205 1.252 . S
C198 O201 1.252 . S
C198 O202 1.260 . S
C199 O206 1.240 . S
C199 O207 1.252 . S
C200 O203 1.252 . S
C200 O204 1.260 . S
O201 In195 2.266 . S
O201 C198 1.252 . S
O202 In195 2.326 . S
O202 C198 1.260 . S
O203 In195 2.266 . S
O203 C200 1.252 . S
O204 In195 2.326 . S
O204 C200 1.260 . S
C205 O196 1.240 . S
C205 O197 1.252 . S
O206 In195 2.294 . S
O206 C199 1.240 . S
O207 In195 2.326 . S
O207 C199 1.252 . S
In208 O209 2.294 . S
In208 O210 2.326 . S
In208 O214 2.266 . S
In208 O215 2.326 . S
In208 O216 2.266 . S
In208 O217 2.326 . S
In208 O219 2.294 . S
In208 O220 2.326 . S
O209 In208 2.294 . S
O209 C218 1.240 . S
O210 In208 2.326 . S
O210 C218 1.252 . S
C211 O214 1.252 . S
C211 O215 1.260 . S
C212 O219 1.240 . S
C212 O220 1.252 . S
C213 O216 1.252 . S
C213 O217 1.260 . S
O214 In208 2.266 . S
O214 C211 1.252 . S
O215 In208 2.326 . S
O215 C211 1.260 . S
O216 In208 2.266 . S
O216 C213 1.252 . S
O217 In208 2.326 . S
O217 C213 1.260 . S
C218 O209 1.240 . S
C218 O210 1.252 . S
O219 In208 2.294 . S
O219 C212 1.240 . S
O220 In208 2.326 . S
O220 C212 1.252 . S
In221 O222 2.294 . S
In221 O223 2.326 . S
In221 O227 2.266 . S
In221 O228 2.326 . S
In221 O229 2.266 . S
In221 O230 2.326 . S
In221 O232 2.294 . S
In221 O233 2.326 . S
O222 In221 2.294 . S
O222 C231 1.240 . S
O223 In221 2.326 . S
O223 C231 1.252 . S
C224 O227 1.252 . S
C224 O228 1.260 . S
C225 O232 1.240 . S
C225 O233 1.252 . S
C226 O229 1.252 . S
C226 O230 1.260 . S
O227 In221 2.266 . S
O227 C224 1.252 . S
O228 In221 2.326 . S
O228 C224 1.260 . S
O229 In221 2.266 . S
O229 C226 1.252 . S
O230 In221 2.326 . S
O230 C226 1.260 . S
C231 O222 1.240 . S
C231 O223 1.252 . S
O232 In221 2.294 . S
O232 C225 1.240 . S
O233 In221 2.326 . S
O233 C225 1.252 . S
In234 O235 2.294 . S
In234 O236 2.326 . S
In234 O240 2.266 . S
In234 O241 2.326 . S
In234 O242 2.266 . S
In234 O243 2.326 . S
In234 O245 2.294 . S
In234 O246 2.326 . S
O235 In234 2.294 . S
O235 C244 1.240 . S
O236 In234 2.326 . S
O236 C244 1.252 . S
C237 O240 1.252 . S
C237 O241 1.260 . S
C238 O245 1.240 . S
C238 O246 1.252 . S
C239 O242 1.252 . S
C239 O243 1.260 . S
O240 In234 2.266 . S
O240 C237 1.252 . S
O241 In234 2.326 . S
O241 C237 1.260 . S
O242 In234 2.266 . S
O242 C239 1.252 . S
O243 In234 2.326 . S
O243 C239 1.260 . S
C244 O235 1.240 . S
C244 O236 1.252 . S
O245 In234 2.294 . S
O245 C238 1.240 . S
O246 In234 2.326 . S
O246 C238 1.252 . S
In247 O248 2.294 . S
In247 O249 2.326 . S
In247 O253 2.266 . S
In247 O254 2.326 . S
In247 O255 2.266 . S
In247 O256 2.326 . S
In247 O258 2.294 . S
In247 O259 2.326 . S
O248 In247 2.294 . S
O248 C257 1.240 . S
O249 In247 2.326 . S
O249 C257 1.252 . S
C250 O253 1.252 . S
C250 O254 1.260 . S
C251 O258 1.240 . S
C251 O259 1.252 . S
C252 O255 1.252 . S
C252 O256 1.260 . S
O253 In247 2.266 . S
O253 C250 1.252 . S
O254 In247 2.326 . S
O254 C250 1.260 . S
O255 In247 2.266 . S
O255 C252 1.252 . S
O256 In247 2.326 . S
O256 C252 1.260 . S
C257 O248 1.240 . S
C257 O249 1.252 . S
O258 In247 2.294 . S
O258 C251 1.240 . S
O259 In247 2.326 . S
O259 C251 1.252 . S
In260 O261 2.294 . S
In260 O262 2.326 . S
In260 O266 2.266 . S
In260 O267 2.326 . S
In260 O268 2.266 . S
In260 O269 2.326 . S
In260 O271 2.294 . S
In260 O272 2.326 . S
O261 In260 2.294 . S
O261 C270 1.240 . S
O262 In260 2.326 . S
O262 C270 1.252 . S
C263 O266 1.252 . S
C263 O267 1.260 . S
C264 O271 1.240 . S
C264 O272 1.252 . S
C265 O268 1.252 . S
C265 O269 1.260 . S
O266 In260 2.266 . S
O266 C263 1.252 . S
O267 In260 2.326 . S
O267 C263 1.260 . S
O268 In260 2.266 . S
O268 C265 1.252 . S
O269 In260 2.326 . S
O269 C265 1.260 . S
C270 O261 1.240 . S
C270 O262 1.252 . S
O271 In260 2.294 . S
O271 C264 1.240 . S
O272 In260 2.326 . S
O272 C264 1.252 . S
In273 O274 2.294 . S
In273 O275 2.326 . S
In273 O279 2.266 . S
In273 O280 2.326 . S
In273 O281 2.266 . S
In273 O282 2.326 . S
In273 O284 2.294 . S
In273 O285 2.326 . S
O274 In273 2.294 . S
O274 C283 1.240 . S
O275 In273 2.326 . S
O275 C283 1.252 . S
C276 O279 1.252 . S
C276 O280 1.260 . S
C277 O284 1.240 . S
C277 O285 1.252 . S
C278 O281 1.252 . S
C278 O282 1.260 . S
O279 In273 2.266 . S
O279 C276 1.252 . S
O280 In273 2.326 . S
O280 C276 1.260 . S
O281 In273 2.266 . S
O281 C278 1.252 . S
O282 In273 2.326 . S
O282 C278 1.260 . S
C283 O274 1.240 . S
C283 O275 1.252 . S
O284 In273 2.294 . S
O284 C277 1.240 . S
O285 In273 2.326 . S
O285 C277 1.252 . S
In286 O287 2.294 . S
In286 O288 2.326 . S
In286 O292 2.266 . S
In286 O293 2.326 . S
In286 O294 2.266 . S
In286 O295 2.326 . S
In286 O297 2.294 . S
In286 O298 2.326 . S
O287 In286 2.294 . S
O287 C296 1.240 . S
O288 In286 2.326 . S
O288 C296 1.252 . S
C289 O292 1.252 . S
C289 O293 1.260 . S
C290 O297 1.240 . S
C290 O298 1.252 . S
C291 O294 1.252 . S
C291 O295 1.260 . S
O292 In286 2.266 . S
O292 C289 1.252 . S
O293 In286 2.326 . S
O293 C289 1.260 . S
O294 In286 2.266 . S
O294 C291 1.252 . S
O295 In286 2.326 . S
O295 C291 1.260 . S
C296 O287 1.240 . S
C296 O288 1.252 . S
O297 In286 2.294 . S
O297 C290 1.240 . S
O298 In286 2.326 . S
O298 C290 1.252 . S
In299 O300 2.294 . S
In299 O301 2.326 . S
In299 O305 2.266 . S
In299 O306 2.326 . S
In299 O307 2.266 . S
In299 O308 2.326 . S
In299 O310 2.294 . S
In299 O311 2.326 . S
O300 In299 2.294 . S
O300 C309 1.240 . S
O301 In299 2.326 . S
O301 C309 1.252 . S
C302 O305 1.252 . S
C302 O306 1.260 . S
C303 O310 1.240 . S
C303 O311 1.252 . S
C304 O307 1.252 . S
C304 O308 1.260 . S
O305 In299 2.266 . S
O305 C302 1.252 . S
O306 In299 2.326 . S
O306 C302 1.260 . S
O307 In299 2.266 . S
O307 C304 1.252 . S
O308 In299 2.326 . S
O308 C304 1.260 . S
C309 O300 1.240 . S
C309 O301 1.252 . S
O310 In299 2.294 . S
O310 C303 1.240 . S
O311 In299 2.326 . S
O311 C303 1.252 . S
In312 O313 2.294 . S
In312 O314 2.326 . S
In312 O318 2.266 . S
In312 O319 2.326 . S
In312 O320 2.266 . S
In312 O321 2.326 . S
In312 O323 2.294 . S
In312 O324 2.326 . S
O313 In312 2.294 . S
O313 C322 1.240 . S
O314 In312 2.326 . S
O314 C322 1.252 . S
C315 O318 1.252 . S
C315 O319 1.260 . S
C316 O323 1.240 . S
C316 O324 1.252 . S
C317 O320 1.252 . S
C317 O321 1.260 . S
O318 In312 2.266 . S
O318 C315 1.252 . S
O319 In312 2.326 . S
O319 C315 1.260 . S
O320 In312 2.266 . S
O320 C317 1.252 . S
O321 In312 2.326 . S
O321 C317 1.260 . S
C322 O313 1.240 . S
C322 O314 1.252 . S
O323 In312 2.294 . S
O323 C316 1.240 . S
O324 In312 2.326 . S
O324 C316 1.252 . S
In325 O326 2.294 . S
In325 O327 2.326 . S
In325 O331 2.266 . S
In325 O332 2.326 . S
In325 O333 2.266 . S
In325 O334 2.326 . S
In325 O336 2.294 . S
In325 O337 2.326 . S
O326 In325 2.294 . S
O326 C335 1.240 . S
O327 In325 2.326 . S
O327 C335 1.252 . S
C328 O331 1.252 . S
C328 O332 1.260 . S
C329 O336 1.240 . S
C329 O337 1.252 . S
C330 O333 1.252 . S
C330 O334 1.260 . S
O331 In325 2.266 . S
O331 C328 1.252 . S
O332 In325 2.326 . S
O332 C328 1.260 . S
O333 In325 2.266 . S
O333 C330 1.252 . S
O334 In325 2.326 . S
O334 C330 1.260 . S
C335 O326 1.240 . S
C335 O327 1.252 . S
O336 In325 2.294 . S
O336 C329 1.240 . S
O337 In325 2.326 . S
O337 C329 1.252 . S
In338 O339 2.294 . S
In338 O340 2.326 . S
In338 O344 2.266 . S
In338 O345 2.326 . S
In338 O346 2.266 . S
In338 O347 2.326 . S
In338 O349 2.294 . S
In338 O350 2.326 . S
O339 In338 2.294 . S
O339 C348 1.240 . S
O340 In338 2.326 . S
O340 C348 1.252 . S
C341 O344 1.252 . S
C341 O345 1.260 . S
C342 O349 1.240 . S
C342 O350 1.252 . S
C343 O346 1.252 . S
C343 O347 1.260 . S
O344 In338 2.266 . S
O344 C341 1.252 . S
O345 In338 2.326 . S
O345 C341 1.260 . S
O346 In338 2.266 . S
O346 C343 1.252 . S
O347 In338 2.326 . S
O347 C343 1.260 . S
C348 O339 1.240 . S
C348 O340 1.252 . S
O349 In338 2.294 . S
O349 C342 1.240 . S
O350 In338 2.326 . S
O350 C342 1.252 . S
In351 O352 2.294 . S
In351 O353 2.326 . S
In351 O357 2.266 . S
In351 O358 2.326 . S
In351 O359 2.266 . S
In351 O360 2.326 . S
In351 O362 2.294 . S
In351 O363 2.326 . S
O352 In351 2.294 . S
O352 C361 1.240 . S
O353 In351 2.326 . S
O353 C361 1.252 . S
C354 O357 1.252 . S
C354 O358 1.260 . S
C355 O362 1.240 . S
C355 O363 1.252 . S
C356 O359 1.252 . S
C356 O360 1.260 . S
O357 In351 2.266 . S
O357 C354 1.252 . S
O358 In351 2.326 . S
O358 C354 1.260 . S
O359 In351 2.266 . S
O359 C356 1.252 . S
O360 In351 2.326 . S
O360 C356 1.260 . S
C361 O352 1.240 . S
C361 O353 1.252 . S
O362 In351 2.294 . S
O362 C355 1.240 . S
O363 In351 2.326 . S
O363 C355 1.252 . S
In364 O365 2.294 . S
In364 O366 2.326 . S
In364 O370 2.266 . S
In364 O371 2.326 . S
In364 O372 2.266 . S
In364 O373 2.326 . S
In364 O375 2.294 . S
In364 O376 2.326 . S
O365 In364 2.294 . S
O365 C374 1.240 . S
O366 In364 2.326 . S
O366 C374 1.252 . S
C367 O370 1.252 . S
C367 O371 1.260 . S
C368 O375 1.240 . S
C368 O376 1.252 . S
C369 O372 1.252 . S
C369 O373 1.260 . S
O370 In364 2.266 . S
O370 C367 1.252 . S
O371 In364 2.326 . S
O371 C367 1.260 . S
O372 In364 2.266 . S
O372 C369 1.252 . S
O373 In364 2.326 . S
O373 C369 1.260 . S
C374 O365 1.240 . S
C374 O366 1.252 . S
O375 In364 2.294 . S
O375 C368 1.240 . S
O376 In364 2.326 . S
O376 C368 1.252 . S
In377 O378 2.294 . S
In377 O379 2.326 . S
In377 O383 2.266 . S
In377 O384 2.326 . S
In377 O385 2.266 . S
In377 O386 2.326 . S
In377 O388 2.294 . S
In377 O389 2.326 . S
O378 In377 2.294 . S
O378 C387 1.240 . S
O379 In377 2.326 . S
O379 C387 1.252 . S
C380 O383 1.252 . S
C380 O384 1.260 . S
C381 O388 1.240 . S
C381 O389 1.252 . S
C382 O385 1.252 . S
C382 O386 1.260 . S
O383 In377 2.266 . S
O383 C380 1.252 . S
O384 In377 2.326 . S
O384 C380 1.260 . S
O385 In377 2.266 . S
O385 C382 1.252 . S
O386 In377 2.326 . S
O386 C382 1.260 . S
C387 O378 1.240 . S
C387 O379 1.252 . S
O388 In377 2.294 . S
O388 C381 1.240 . S
O389 In377 2.326 . S
O389 C381 1.252 . S
In390 O391 2.294 . S
In390 O392 2.326 . S
In390 O396 2.266 . S
In390 O397 2.326 . S
In390 O398 2.266 . S
In390 O399 2.326 . S
In390 O401 2.294 . S
In390 O402 2.326 . S
O391 In390 2.294 . S
O391 C400 1.240 . S
O392 In390 2.326 . S
O392 C400 1.252 . S
C393 O396 1.252 . S
C393 O397 1.260 . S
C394 O401 1.240 . S
C394 O402 1.252 . S
C395 O398 1.252 . S
C395 O399 1.260 . S
O396 In390 2.266 . S
O396 C393 1.252 . S
O397 In390 2.326 . S
O397 C393 1.260 . S
O398 In390 2.266 . S
O398 C395 1.252 . S
O399 In390 2.326 . S
O399 C395 1.260 . S
C400 O391 1.240 . S
C400 O392 1.252 . S
O401 In390 2.294 . S
O401 C394 1.240 . S
O402 In390 2.326 . S
O402 C394 1.252 . S
In403 O404 2.294 . S
In403 O405 2.326 . S
In403 O409 2.266 . S
In403 O410 2.326 . S
In403 O411 2.266 . S
In403 O412 2.326 . S
In403 O414 2.294 . S
In403 O415 2.326 . S
O404 In403 2.294 . S
O404 C413 1.240 . S
O405 In403 2.326 . S
O405 C413 1.252 . S
C406 O409 1.252 . S
C406 O410 1.260 . S
C407 O414 1.240 . S
C407 O415 1.252 . S
C408 O411 1.252 . S
C408 O412 1.260 . S
O409 In403 2.266 . S
O409 C406 1.252 . S
O410 In403 2.326 . S
O410 C406 1.260 . S
O411 In403 2.266 . S
O411 C408 1.252 . S
O412 In403 2.326 . S
O412 C408 1.260 . S
C413 O404 1.240 . S
C413 O405 1.252 . S
O414 In403 2.294 . S
O414 C407 1.240 . S
O415 In403 2.326 . S
O415 C407 1.252 . S
H416 C424 0.929 . S
H417 C426 0.930 . S
H418 C428 0.930 . S
H419 C431 0.929 . S
H420 C434 0.930 . S
H421 C436 0.960 . S
H422 C436 0.960 . S
H423 C436 0.960 . S
C424 H416 0.929 . S
C424 C425 1.377 . S
C424 C426 1.384 . S
C425 C424 1.377 . S
C425 C431 1.390 . S
C426 H417 0.930 . S
C426 C424 1.384 . S
C426 C427 1.372 . S
C427 C426 1.372 . S
C427 C428 1.400 . S
C427 C432 1.490 . S
C428 H418 0.930 . S
C428 C427 1.400 . S
C428 C431 1.386 . S
H429 C445 0.930 . S
H430 C446 0.931 . S
C431 H419 0.929 . S
C431 C425 1.390 . S
C431 C428 1.386 . S
C432 C427 1.490 . S
C432 C434 1.395 1_565 S
C432 C435 1.403 . S
H433 C439 0.930 . S
C434 H420 0.930 . S
C434 C432 1.395 1_545 S
C434 C437 1.403 . S
C435 C432 1.403 . S
C435 C436 1.524 . S
C435 C439 1.400 . S
C436 H421 0.960 . S
C436 H422 0.960 . S
C436 H423 0.960 . S
C436 C435 1.524 . S
C437 C434 1.403 . S
C437 C438 1.392 . S
C437 C441 1.495 . S
C438 C437 1.392 . S
C438 C439 1.385 1_545 S
C438 C440 1.478 . S
C439 H433 0.930 . S
C439 C435 1.400 . S
C439 C438 1.385 1_565 S
C440 C438 1.478 . S
C440 C442 1.381 . S
C440 C446 1.383 . S
C441 C437 1.495 . S
C441 H447 0.959 . S
C441 H448 0.961 . S
C441 H449 0.960 . S
C442 C440 1.381 . S
C442 C443 1.394 . S
C442 H450 0.930 . S
C443 C442 1.394 . S
C443 C444 1.383 . S
C443 H451 0.929 . S
C444 C443 1.383 . S
C444 C445 1.377 . S
C445 H429 0.930 . S
C445 C444 1.377 . S
C445 C446 1.379 . S
C446 H430 0.931 . S
C446 C440 1.383 . S
C446 C445 1.379 . S
H447 C441 0.959 . S
H448 C441 0.961 . S
H449 C441 0.960 . S
H450 C442 0.930 . S
H451 C443 0.929 . S
H452 C460 0.929 . S
H453 C462 0.930 . S
H454 C464 0.930 . S
H455 C467 0.929 . S
H456 C470 0.930 . S
H457 C472 0.960 . S
H458 C472 0.960 . S
H459 C472 0.960 . S
C460 H452 0.929 . S
C460 C461 1.377 . S
C460 C462 1.384 . S
C461 C460 1.377 . S
C461 C467 1.390 . S
C462 H453 0.930 . S
C462 C460 1.384 . S
C462 C463 1.372 . S
C463 C462 1.372 . S
C463 C464 1.400 . S
C463 C468 1.490 . S
C464 H454 0.930 . S
C464 C463 1.400 . S
C464 C467 1.386 . S
H465 C481 0.930 . S
H466 C482 0.931 . S
C467 H455 0.929 . S
C467 C461 1.390 . S
C467 C464 1.386 . S
C468 C463 1.490 . S
C468 C470 1.395 . S
C468 C471 1.403 . S
H469 C475 0.930 . S
C470 H456 0.930 . S
C470 C468 1.395 . S
C470 C473 1.403 . S
C471 C468 1.403 . S
C471 C472 1.524 . S
C471 C475 1.400 . S
C472 H457 0.960 . S
C472 H458 0.960 . S
C472 H459 0.960 . S
C472 C471 1.524 . S
C473 C470 1.403 . S
C473 C474 1.392 . S
C473 C477 1.495 . S
C474 C473 1.392 . S
C474 C475 1.385 . S
C474 C476 1.478 . S
C475 H469 0.930 . S
C475 C471 1.400 . S
C475 C474 1.385 . S
C476 C474 1.478 . S
C476 C478 1.381 . S
C476 C482 1.383 . S
C477 C473 1.495 . S
C477 H483 0.959 . S
C477 H484 0.961 . S
C477 H485 0.960 . S
C478 C476 1.381 . S
C478 C479 1.394 . S
C478 H486 0.930 . S
C479 C478 1.394 . S
C479 C480 1.383 . S
C479 H487 0.929 . S
C480 C479 1.383 . S
C480 C481 1.377 . S
C481 H465 0.930 . S
C481 C480 1.377 . S
C481 C482 1.379 . S
C482 H466 0.931 . S
C482 C476 1.383 . S
C482 C481 1.379 . S
H483 C477 0.959 . S
H484 C477 0.961 . S
H485 C477 0.960 . S
H486 C478 0.930 . S
H487 C479 0.929 . S
H488 C496 0.929 . S
H489 C498 0.930 . S
H490 C500 0.930 . S
H491 C503 0.929 . S
H492 C506 0.930 . S
H493 C508 0.960 . S
H494 C508 0.960 . S
H495 C508 0.960 . S
C496 H488 0.929 . S
C496 C497 1.377 . S
C496 C498 1.384 . S
C497 C496 1.377 . S
C497 C503 1.390 . S
C498 H489 0.930 . S
C498 C496 1.384 . S
C498 C499 1.372 . S
C499 C498 1.372 . S
C499 C500 1.400 . S
C499 C504 1.490 . S
C500 H490 0.930 . S
C500 C499 1.400 . S
C500 C503 1.386 . S
H501 C517 0.930 . S
H502 C518 0.931 . S
C503 H491 0.929 . S
C503 C497 1.390 . S
C503 C500 1.386 . S
C504 C499 1.490 . S
C504 C506 1.395 . S
C504 C507 1.403 1_545 S
H505 C511 0.930 . S
C506 H492 0.930 . S
C506 C504 1.395 . S
C506 C509 1.403 . S
C507 C504 1.403 1_565 S
C507 C508 1.524 . S
C507 C511 1.400 . S
C508 H493 0.960 . S
C508 H494 0.960 . S
C508 H495 0.960 . S
C508 C507 1.524 . S
C509 C506 1.403 . S
C509 C510 1.392 1_545 S
C509 C513 1.495 . S
C510 C509 1.392 1_565 S
C510 C511 1.385 . S
C510 C512 1.478 . S
C511 H505 0.930 . S
C511 C507 1.400 . S
C511 C510 1.385 . S
C512 C510 1.478 . S
C512 C514 1.381 . S
C512 C518 1.383 . S
C513 C509 1.495 . S
C513 H519 0.959 . S
C513 H520 0.961 . S
C513 H521 0.960 . S
C514 C512 1.381 . S
C514 C515 1.394 . S
C514 H522 0.930 . S
C515 C514 1.394 . S
C515 C516 1.383 . S
C515 H523 0.929 . S
C516 C515 1.383 . S
C516 C517 1.377 . S
C517 H501 0.930 . S
C517 C516 1.377 . S
C517 C518 1.379 . S
C518 H502 0.931 . S
C518 C512 1.383 . S
C518 C517 1.379 . S
H519 C513 0.959 . S
H520 C513 0.961 . S
H521 C513 0.960 . S
H522 C514 0.930 . S
H523 C515 0.929 . S
H524 C532 0.929 . S
H525 C534 0.930 . S
H526 C536 0.930 . S
H527 C539 0.929 . S
H528 C542 0.930 . S
H529 C544 0.960 . S
H530 C544 0.960 . S
H531 C544 0.960 . S
C532 H524 0.929 . S
C532 C533 1.377 . S
C532 C534 1.384 . S
C533 C532 1.377 . S
C533 C539 1.390 . S
C534 H525 0.930 . S
C534 C532 1.384 . S
C534 C535 1.372 . S
C535 C534 1.372 . S
C535 C536 1.400 . S
C535 C540 1.490 . S
C536 H526 0.930 . S
C536 C535 1.400 . S
C536 C539 1.386 . S
H537 C553 0.930 . S
H538 C554 0.931 . S
C539 H527 0.929 . S
C539 C533 1.390 . S
C539 C536 1.386 . S
C540 C535 1.490 . S
C540 C542 1.395 . S
C540 C543 1.403 . S
H541 C547 0.930 . S
C542 H528 0.930 . S
C542 C540 1.395 . S
C542 C545 1.403 1_556 S
C543 C540 1.403 . S
C543 C544 1.524 . S
C543 C547 1.400 1_556 S
C544 H529 0.960 . S
C544 H530 0.960 . S
C544 H531 0.960 . S
C544 C543 1.524 . S
C545 C542 1.403 1_554 S
C545 C546 1.392 . S
C545 C549 1.495 . S
C546 C545 1.392 . S
C546 C547 1.385 . S
C546 C548 1.478 . S
C547 H541 0.930 . S
C547 C543 1.400 1_554 S
C547 C546 1.385 . S
C548 C546 1.478 . S
C548 C550 1.381 . S
C548 C554 1.383 . S
C549 C545 1.495 . S
C549 H555 0.959 . S
C549 H556 0.961 . S
C549 H557 0.960 . S
C550 C548 1.381 . S
C550 C551 1.394 . S
C550 H558 0.930 . S
C551 C550 1.394 . S
C551 C552 1.383 . S
C551 H559 0.929 . S
C552 C551 1.383 . S
C552 C553 1.377 . S
C553 H537 0.930 . S
C553 C552 1.377 . S
C553 C554 1.379 . S
C554 H538 0.931 . S
C554 C548 1.383 . S
C554 C553 1.379 . S
H555 C549 0.959 . S
H556 C549 0.961 . S
H557 C549 0.960 . S
H558 C550 0.930 . S
H559 C551 0.929 . S
H560 C568 0.929 . S
H561 C570 0.930 . S
H562 C572 0.930 . S
H563 C575 0.929 . S
H564 C578 0.930 . S
H565 C580 0.960 . S
H566 C580 0.960 . S
H567 C580 0.960 . S
C568 H560 0.929 . S
C568 C569 1.377 . S
C568 C570 1.384 . S
C569 C568 1.377 . S
C569 C575 1.390 . S
C570 H561 0.930 . S
C570 C568 1.384 . S
C570 C571 1.372 . S
C571 C570 1.372 . S
C571 C572 1.400 . S
C571 C576 1.490 . S
C572 H562 0.930 . S
C572 C571 1.400 . S
C572 C575 1.386 . S
H573 C589 0.930 . S
H574 C590 0.931 . S
C575 H563 0.929 . S
C575 C569 1.390 . S
C575 C572 1.386 . S
C576 C571 1.490 . S
C576 C578 1.395 1_565 S
C576 C579 1.403 . S
H577 C583 0.930 . S
C578 H564 0.930 . S
C578 C576 1.395 1_545 S
C578 C581 1.403 . S
C579 C576 1.403 . S
C579 C580 1.524 . S
C579 C583 1.400 . S
C580 H565 0.960 . S
C580 H566 0.960 . S
C580 H567 0.960 . S
C580 C579 1.524 . S
C581 C578 1.403 . S
C581 C582 1.392 . S
C581 C585 1.495 . S
C582 C581 1.392 . S
C582 C583 1.385 1_545 S
C582 C584 1.478 . S
C583 H577 0.930 . S
C583 C579 1.400 . S
C583 C582 1.385 1_565 S
C584 C582 1.478 . S
C584 C586 1.381 . S
C584 C590 1.383 . S
C585 C581 1.495 . S
C585 H591 0.959 . S
C585 H592 0.961 . S
C585 H593 0.960 . S
C586 C584 1.381 . S
C586 C587 1.394 . S
C586 H594 0.930 . S
C587 C586 1.394 . S
C587 C588 1.383 . S
C587 H595 0.929 . S
C588 C587 1.383 . S
C588 C589 1.377 . S
C589 H573 0.930 . S
C589 C588 1.377 . S
C589 C590 1.379 . S
C590 H574 0.931 . S
C590 C584 1.383 . S
C590 C589 1.379 . S
H591 C585 0.959 . S
H592 C585 0.961 . S
H593 C585 0.960 . S
H594 C586 0.930 . S
H595 C587 0.929 . S
H596 C604 0.929 . S
H597 C606 0.930 . S
H598 C608 0.930 . S
H599 C611 0.929 . S
H600 C614 0.930 . S
H601 C616 0.960 . S
H602 C616 0.960 . S
H603 C616 0.960 . S
C604 H596 0.929 . S
C604 C605 1.377 . S
C604 C606 1.384 . S
C605 C604 1.377 . S
C605 C611 1.390 . S
C606 H597 0.930 . S
C606 C604 1.384 . S
C606 C607 1.372 . S
C607 C606 1.372 . S
C607 C608 1.400 . S
C607 C612 1.490 . S
C608 H598 0.930 . S
C608 C607 1.400 . S
C608 C611 1.386 . S
H609 C625 0.930 . S
H610 C626 0.931 . S
C611 H599 0.929 . S
C611 C605 1.390 . S
C611 C608 1.386 . S
C612 C607 1.490 . S
C612 C614 1.395 . S
C612 C615 1.403 . S
H613 C619 0.930 . S
C614 H600 0.930 . S
C614 C612 1.395 . S
C614 C617 1.403 . S
C615 C612 1.403 . S
C615 C616 1.524 . S
C615 C619 1.400 . S
C616 H601 0.960 . S
C616 H602 0.960 . S
C616 H603 0.960 . S
C616 C615 1.524 . S
C617 C614 1.403 . S
C617 C618 1.392 . S
C617 C621 1.495 . S
C618 C617 1.392 . S
C618 C619 1.385 . S
C618 C620 1.478 . S
C619 H613 0.930 . S
C619 C615 1.400 . S
C619 C618 1.385 . S
C620 C618 1.478 . S
C620 C622 1.381 . S
C620 C626 1.383 . S
C621 C617 1.495 . S
C621 H627 0.959 . S
C621 H628 0.961 . S
C621 H629 0.960 . S
C622 C620 1.381 . S
C622 C623 1.394 . S
C622 H630 0.930 . S
C623 C622 1.394 . S
C623 C624 1.383 . S
C623 H631 0.929 . S
C624 C623 1.383 . S
C624 C625 1.377 . S
C625 H609 0.930 . S
C625 C624 1.377 . S
C625 C626 1.379 . S
C626 H610 0.931 . S
C626 C620 1.383 . S
C626 C625 1.379 . S
H627 C621 0.959 . S
H628 C621 0.961 . S
H629 C621 0.960 . S
H630 C622 0.930 . S
H631 C623 0.929 . S
H632 C640 0.929 . S
H633 C642 0.930 . S
H634 C644 0.930 . S
H635 C647 0.929 . S
H636 C650 0.930 . S
H637 C652 0.960 . S
H638 C652 0.960 . S
H639 C652 0.960 . S
C640 H632 0.929 . S
C640 C641 1.377 . S
C640 C642 1.384 . S
C641 C640 1.377 . S
C641 C647 1.390 . S
C642 H633 0.930 . S
C642 C640 1.384 . S
C642 C643 1.372 . S
C643 C642 1.372 . S
C643 C644 1.400 . S
C643 C648 1.490 . S
C644 H634 0.930 . S
C644 C643 1.400 . S
C644 C647 1.386 . S
H645 C661 0.930 . S
H646 C662 0.931 . S
C647 H635 0.929 . S
C647 C641 1.390 . S
C647 C644 1.386 . S
C648 C643 1.490 . S
C648 C650 1.395 . S
C648 C651 1.403 1_545 S
H649 C655 0.930 . S
C650 H636 0.930 . S
C650 C648 1.395 . S
C650 C653 1.403 . S
C651 C648 1.403 1_565 S
C651 C652 1.524 . S
C651 C655 1.400 . S
C652 H637 0.960 . S
C652 H638 0.960 . S
C652 H639 0.960 . S
C652 C651 1.524 . S
C653 C650 1.403 . S
C653 C654 1.392 1_545 S
C653 C657 1.495 . S
C654 C653 1.392 1_565 S
C654 C655 1.385 . S
C654 C656 1.478 . S
C655 H649 0.930 . S
C655 C651 1.400 . S
C655 C654 1.385 . S
C656 C654 1.478 . S
C656 C658 1.381 . S
C656 C662 1.383 . S
C657 C653 1.495 . S
C657 H663 0.959 . S
C657 H664 0.961 . S
C657 H665 0.960 . S
C658 C656 1.381 . S
C658 C659 1.394 . S
C658 H666 0.930 . S
C659 C658 1.394 . S
C659 C660 1.383 . S
C659 H667 0.929 . S
C660 C659 1.383 . S
C660 C661 1.377 . S
C661 H645 0.930 . S
C661 C660 1.377 . S
C661 C662 1.379 . S
C662 H646 0.931 . S
C662 C656 1.383 . S
C662 C661 1.379 . S
H663 C657 0.959 . S
H664 C657 0.961 . S
H665 C657 0.960 . S
H666 C658 0.930 . S
H667 C659 0.929 . S
H668 C676 0.929 . S
H669 C678 0.930 . S
H670 C680 0.930 . S
H671 C683 0.929 . S
H672 C686 0.930 . S
H673 C688 0.950 1_554 S
H674 C688 0.960 . S
H675 C688 0.960 . S
C676 H668 0.929 . S
C676 C677 1.377 . S
C676 C678 1.384 . S
C677 C676 1.377 . S
C677 C683 1.390 . S
C678 H669 0.930 . S
C678 C676 1.384 . S
C678 C679 1.372 . S
C679 C678 1.372 . S
C679 C680 1.400 . S
C679 C684 1.490 . S
C680 H670 0.930 . S
C680 C679 1.400 . S
C680 C683 1.386 . S
H681 C697 0.930 . S
H682 C698 0.931 . S
C683 H671 0.929 . S
C683 C677 1.390 . S
C683 C680 1.386 . S
C684 C679 1.490 . S
C684 C686 1.395 . S
C684 C687 1.403 . S
H685 C691 0.930 . S
C686 H672 0.930 . S
C686 C684 1.395 . S
C686 C689 1.403 1_556 S
C687 C684 1.403 . S
C687 C688 1.524 . S
C687 C691 1.400 1_556 S
C688 H673 0.950 1_556 S
C688 H674 0.960 . S
C688 H675 0.960 . S
C688 C687 1.524 . S
C689 C686 1.403 1_554 S
C689 C690 1.392 . S
C689 C693 1.495 . S
C690 C689 1.392 . S
C690 C691 1.385 . S
C690 C692 1.478 . S
C691 H685 0.930 . S
C691 C687 1.400 1_554 S
C691 C690 1.385 . S
C692 C690 1.478 . S
C692 C694 1.381 . S
C692 C698 1.383 . S
C693 C689 1.495 . S
C693 H699 0.999 . S
C693 H700 0.961 . S
C693 H701 0.960 . S
C694 C692 1.381 . S
C694 C695 1.394 . S
C694 H702 0.930 . S
C695 C694 1.394 . S
C695 C696 1.383 . S
C695 H703 0.929 . S
C696 C695 1.383 . S
C696 C697 1.377 . S
C697 H681 0.930 . S
C697 C696 1.377 . S
C697 C698 1.379 . S
C698 H682 0.931 . S
C698 C692 1.383 . S
C698 C697 1.379 . S
H699 C693 0.999 . S
H700 C693 0.961 . S
H701 C693 0.960 . S
H702 C694 0.930 . S
H703 C695 0.929 . S
H704 C712 0.929 . S
H705 C714 0.930 . S
H706 C716 0.930 . S
H707 C719 0.929 . S
H708 C722 0.930 . S
H709 C724 0.960 . S
H710 C724 0.960 . S
H711 C724 0.960 . S
C712 H704 0.929 . S
C712 C713 1.377 . S
C712 C714 1.384 . S
C713 C712 1.377 . S
C713 C719 1.390 . S
C714 H705 0.930 . S
C714 C712 1.384 . S
C714 C715 1.372 . S
C715 C714 1.372 . S
C715 C716 1.400 . S
C715 C720 1.490 . S
C716 H706 0.930 . S
C716 C715 1.400 . S
C716 C719 1.386 . S
H717 C733 0.930 . S
H718 C734 0.931 . S
C719 H707 0.929 . S
C719 C713 1.390 . S
C719 C716 1.386 . S
C720 C715 1.490 . S
C720 C722 1.395 . S
C720 C723 1.403 . S
H721 C727 0.930 . S
C722 H708 0.930 . S
C722 C720 1.395 . S
C722 C725 1.403 . S
C723 C720 1.403 . S
C723 C724 1.524 . S
C723 C727 1.400 . S
C724 H709 0.960 . S
C724 H710 0.960 . S
C724 H711 0.960 . S
C724 C723 1.524 . S
C725 C722 1.403 . S
C725 C726 1.392 . S
C725 C729 1.495 . S
C726 C725 1.392 . S
C726 C727 1.385 . S
C726 C728 1.478 . S
C727 H721 0.930 . S
C727 C723 1.400 . S
C727 C726 1.385 . S
C728 C726 1.478 . S
C728 C730 1.381 . S
C728 C734 1.383 . S
C729 C725 1.495 . S
C729 H735 0.959 . S
C729 H736 0.961 . S
C729 H737 0.960 . S
C730 C728 1.381 . S
C730 C731 1.394 . S
C730 H738 0.930 . S
C731 C730 1.394 . S
C731 C732 1.383 . S
C731 H739 0.929 . S
C732 C731 1.383 . S
C732 C733 1.377 . S
C733 H717 0.930 . S
C733 C732 1.377 . S
C733 C734 1.379 . S
C734 H718 0.931 . S
C734 C728 1.383 . S
C734 C733 1.379 . S
H735 C729 0.959 . S
H736 C729 0.961 . S
H737 C729 0.960 . S
H738 C730 0.930 . S
H739 C731 0.929 . S
H740 C748 0.929 . S
H741 C750 0.930 . S
H742 C752 0.930 . S
H743 C755 0.929 . S
H744 C758 0.930 . S
H745 C760 0.960 . S
H746 C760 0.960 . S
H747 C760 0.960 . S
C748 H740 0.929 . S
C748 C749 1.377 . S
C748 C750 1.384 . S
C749 C748 1.377 . S
C749 C755 1.390 . S
C750 H741 0.930 . S
C750 C748 1.384 . S
C750 C751 1.372 . S
C751 C750 1.372 . S
C751 C752 1.400 . S
C751 C756 1.490 . S
C752 H742 0.930 . S
C752 C751 1.400 . S
C752 C755 1.386 . S
H753 C769 0.930 . S
H754 C770 0.931 . S
C755 H743 0.929 . S
C755 C749 1.390 . S
C755 C752 1.386 . S
C756 C751 1.490 . S
C756 C758 1.395 . S
C756 C759 1.403 . S
H757 C763 0.930 . S
C758 H744 0.930 . S
C758 C756 1.395 . S
C758 C761 1.403 1_554 S
C759 C756 1.403 . S
C759 C760 1.524 . S
C759 C763 1.400 1_554 S
C760 H745 0.960 . S
C760 H746 0.960 . S
C760 H747 0.960 . S
C760 C759 1.524 . S
C761 C758 1.403 1_556 S
C761 C762 1.392 . S
C761 C765 1.495 . S
C762 C761 1.392 . S
C762 C763 1.385 . S
C762 C764 1.478 . S
C763 H757 0.930 . S
C763 C759 1.400 1_556 S
C763 C762 1.385 . S
C764 C762 1.478 . S
C764 C766 1.381 . S
C764 C770 1.383 . S
C765 C761 1.495 . S
C765 H771 0.959 . S
C765 H772 0.961 . S
C765 H773 0.960 . S
C766 C764 1.381 . S
C766 C767 1.394 . S
C766 H774 0.930 . S
C767 C766 1.394 . S
C767 C768 1.383 . S
C767 H775 0.929 . S
C768 C767 1.383 . S
C768 C769 1.377 . S
C769 H753 0.930 . S
C769 C768 1.377 . S
C769 C770 1.379 . S
C770 H754 0.931 . S
C770 C764 1.383 . S
C770 C769 1.379 . S
H771 C765 0.959 . S
H772 C765 0.961 . S
H773 C765 0.960 . S
H774 C766 0.930 . S
H775 C767 0.929 . S
H776 C784 0.929 . S
H777 C786 0.930 . S
H778 C788 0.930 . S
H779 C791 0.929 . S
H780 C794 0.930 . S
H781 C796 0.960 . S
H782 C796 0.960 . S
H783 C796 0.960 . S
C784 H776 0.929 . S
C784 C785 1.377 . S
C784 C786 1.384 . S
C785 C784 1.377 . S
C785 C791 1.390 . S
C786 H777 0.930 . S
C786 C784 1.384 . S
C786 C787 1.372 . S
C787 C786 1.372 . S
C787 C788 1.400 . S
C787 C792 1.490 . S
C788 H778 0.930 . S
C788 C787 1.400 . S
C788 C791 1.386 . S
H789 C805 0.930 . S
H790 C806 0.931 . S
C791 H779 0.929 . S
C791 C785 1.390 . S
C791 C788 1.386 . S
C792 C787 1.490 . S
C792 C794 1.395 . S
C792 C795 1.403 . S
H793 C799 0.930 . S
C794 H780 0.930 . S
C794 C792 1.395 . S
C794 C797 1.403 . S
C795 C792 1.403 . S
C795 C796 1.524 . S
C795 C799 1.400 . S
C796 H781 0.960 . S
C796 H782 0.960 . S
C796 H783 0.960 . S
C796 C795 1.524 . S
C797 C794 1.403 . S
C797 C798 1.392 . S
C797 C801 1.495 . S
C798 C797 1.392 . S
C798 C799 1.385 . S
C798 C800 1.478 . S
C799 H793 0.930 . S
C799 C795 1.400 . S
C799 C798 1.385 . S
C800 C798 1.478 . S
C800 C802 1.381 . S
C800 C806 1.383 . S
C801 C797 1.495 . S
C801 H807 0.959 . S
C801 H808 0.961 . S
C801 H809 0.960 . S
C802 C800 1.381 . S
C802 C803 1.394 . S
C802 H810 0.930 . S
C803 C802 1.394 . S
C803 C804 1.383 . S
C803 H811 0.929 . S
C804 C803 1.383 . S
C804 C805 1.377 . S
C805 H789 0.930 . S
C805 C804 1.377 . S
C805 C806 1.379 . S
C806 H790 0.931 . S
C806 C800 1.383 . S
C806 C805 1.379 . S
H807 C801 0.959 . S
H808 C801 0.961 . S
H809 C801 0.960 . S
H810 C802 0.930 . S
H811 C803 0.929 . S
H812 C820 0.929 . S
H813 C822 0.930 . S
H814 C824 0.930 . S
H815 C827 0.929 . S
H816 C830 0.930 . S
H817 C832 0.960 . S
H818 C832 0.960 . S
H819 C832 0.960 . S
C820 H812 0.929 . S
C820 C821 1.377 . S
C820 C822 1.384 . S
C821 C820 1.377 . S
C821 C827 1.390 . S
C822 H813 0.930 . S
C822 C820 1.384 . S
C822 C823 1.372 . S
C823 C822 1.372 . S
C823 C824 1.400 . S
C823 C828 1.490 . S
C824 H814 0.930 . S
C824 C823 1.400 . S
C824 C827 1.386 . S
H825 C841 0.930 . S
H826 C842 0.931 . S
C827 H815 0.929 . S
C827 C821 1.390 . S
C827 C824 1.386 . S
C828 C823 1.490 . S
C828 C830 1.395 . S
C828 C831 1.403 . S
H829 C835 0.930 . S
C830 H816 0.930 . S
C830 C828 1.395 . S
C830 C833 1.403 . S
C831 C828 1.403 . S
C831 C832 1.524 . S
C831 C835 1.400 . S
C832 H817 0.960 . S
C832 H818 0.960 . S
C832 H819 0.960 . S
C832 C831 1.524 . S
C833 C830 1.403 . S
C833 C834 1.392 . S
C833 C837 1.495 . S
C834 C833 1.392 . S
C834 C835 1.385 . S
C834 C836 1.478 . S
C835 H829 0.930 . S
C835 C831 1.400 . S
C835 C834 1.385 . S
C836 C834 1.478 . S
C836 C838 1.381 . S
C836 C842 1.383 . S
C837 C833 1.495 . S
C837 H843 0.959 . S
C837 H844 0.961 . S
C837 H845 0.960 . S
C838 C836 1.381 . S
C838 C839 1.394 . S
C838 H846 0.930 . S
C839 C838 1.394 . S
C839 C840 1.383 . S
C839 H847 0.929 . S
C840 C839 1.383 . S
C840 C841 1.377 . S
C841 H825 0.930 . S
C841 C840 1.377 . S
C841 C842 1.379 . S
C842 H826 0.931 . S
C842 C836 1.383 . S
C842 C841 1.379 . S
H843 C837 0.959 . S
H844 C837 0.961 . S
H845 C837 0.960 . S
H846 C838 0.930 . S
H847 C839 0.929 . S
H848 C856 0.929 . S
H849 C858 0.930 . S
H850 C860 0.930 . S
H851 C863 0.929 . S
H852 C866 0.930 . S
H853 C868 0.960 . S
H854 C868 0.960 . S
H855 C868 0.960 . S
C856 H848 0.929 . S
C856 C857 1.377 . S
C856 C858 1.384 . S
C857 C856 1.377 . S
C857 C863 1.390 . S
C858 H849 0.930 . S
C858 C856 1.384 . S
C858 C859 1.372 . S
C859 C858 1.372 . S
C859 C860 1.400 . S
C859 C864 1.490 . S
C860 H850 0.930 . S
C860 C859 1.400 . S
C860 C863 1.386 . S
H861 C877 0.930 . S
H862 C878 0.931 . S
C863 H851 0.929 . S
C863 C857 1.390 . S
C863 C860 1.386 . S
C864 C859 1.490 . S
C864 C866 1.395 . S
C864 C867 1.403 . S
H865 C871 0.930 . S
C866 H852 0.930 . S
C866 C864 1.395 . S
C866 C869 1.403 . S
C867 C864 1.403 . S
C867 C868 1.524 . S
C867 C871 1.400 . S
C868 H853 0.960 . S
C868 H854 0.960 . S
C868 H855 0.960 . S
C868 C867 1.524 . S
C869 C866 1.403 . S
C869 C870 1.392 . S
C869 C873 1.495 . S
C870 C869 1.392 . S
C870 C871 1.385 . S
C870 C872 1.478 . S
C871 H865 0.930 . S
C871 C867 1.400 . S
C871 C870 1.385 . S
C872 C870 1.478 . S
C872 C874 1.381 . S
C872 C878 1.383 . S
C873 C869 1.495 . S
C873 H879 0.959 . S
C873 H880 0.961 . S
C873 H881 0.960 . S
C874 C872 1.381 . S
C874 C875 1.394 . S
C874 H882 0.930 . S
C875 C874 1.394 . S
C875 C876 1.383 . S
C875 H883 0.929 . S
C876 C875 1.383 . S
C876 C877 1.377 . S
C877 H861 0.930 . S
C877 C876 1.377 . S
C877 C878 1.379 . S
C878 H862 0.931 . S
C878 C872 1.383 . S
C878 C877 1.379 . S
H879 C873 0.959 . S
H880 C873 0.961 . S
H881 C873 0.960 . S
H882 C874 0.930 . S
H883 C875 0.929 . S
H884 C892 0.929 . S
H885 C894 0.930 . S
H886 C896 0.930 . S
H887 C899 0.929 . S
H888 C902 0.930 . S
H889 C904 0.960 . S
H890 C904 0.960 . S
H891 C904 0.960 . S
C892 H884 0.929 . S
C892 C893 1.377 . S
C892 C894 1.384 . S
C893 C892 1.377 . S
C893 C899 1.390 . S
C894 H885 0.930 . S
C894 C892 1.384 . S
C894 C895 1.372 . S
C895 C894 1.372 . S
C895 C896 1.400 . S
C895 C900 1.490 . S
C896 H886 0.930 . S
C896 C895 1.400 . S
C896 C899 1.386 . S
H897 C913 0.930 . S
H898 C914 0.931 . S
C899 H887 0.929 . S
C899 C893 1.390 . S
C899 C896 1.386 . S
C900 C895 1.490 . S
C900 C902 1.395 . S
C900 C903 1.403 . S
H901 C907 0.930 . S
C902 H888 0.930 . S
C902 C900 1.395 . S
C902 C905 1.403 1_554 S
C903 C900 1.403 . S
C903 C904 1.524 . S
C903 C907 1.400 1_554 S
C904 H889 0.960 . S
C904 H890 0.960 . S
C904 H891 0.960 . S
C904 C903 1.524 . S
C905 C902 1.403 1_556 S
C905 C906 1.392 . S
C905 C909 1.495 . S
C906 C905 1.392 . S
C906 C907 1.385 . S
C906 C908 1.478 . S
C907 H901 0.930 . S
C907 C903 1.400 1_556 S
C907 C906 1.385 . S
C908 C906 1.478 . S
C908 C910 1.381 . S
C908 C914 1.383 . S
C909 C905 1.495 . S
C909 H915 1.004 . S
C909 H916 0.961 . S
C909 H917 0.960 . S
C910 C908 1.381 . S
C910 C911 1.394 . S
C910 H918 0.930 . S
C911 C910 1.394 . S
C911 C912 1.383 . S
C911 H919 0.929 . S
C912 C911 1.383 . S
C912 C913 1.377 . S
C913 H897 0.930 . S
C913 C912 1.377 . S
C913 C914 1.379 . S
C914 H898 0.931 . S
C914 C908 1.383 . S
C914 C913 1.379 . S
H915 C909 1.004 . S
H916 C909 0.961 . S
H917 C909 0.960 . S
H918 C910 0.930 . S
H919 C911 0.929 . S
H920 C928 0.929 . S
H921 C930 0.930 . S
H922 C932 0.930 . S
H923 C935 0.929 . S
H924 C938 0.930 . S
H925 C940 0.960 . S
H926 C940 0.960 . S
H927 C940 0.960 . S
C928 H920 0.929 . S
C928 C929 1.377 . S
C928 C930 1.384 . S
C929 C928 1.377 . S
C929 C935 1.390 . S
C930 H921 0.930 . S
C930 C928 1.384 . S
C930 C931 1.372 . S
C931 C930 1.372 . S
C931 C932 1.400 . S
C931 C936 1.490 . S
C932 H922 0.930 . S
C932 C931 1.400 . S
C932 C935 1.386 . S
H933 C949 0.930 . S
H934 C950 0.931 . S
C935 H923 0.929 . S
C935 C929 1.390 . S
C935 C932 1.386 . S
C936 C931 1.490 . S
C936 C938 1.395 . S
C936 C939 1.403 . S
H937 C943 0.930 . S
C938 H924 0.930 . S
C938 C936 1.395 . S
C938 C941 1.403 . S
C939 C936 1.403 . S
C939 C940 1.524 . S
C939 C943 1.400 . S
C940 H925 0.960 . S
C940 H926 0.960 . S
C940 H927 0.960 . S
C940 C939 1.524 . S
C941 C938 1.403 . S
C941 C942 1.392 . S
C941 C945 1.495 . S
C942 C941 1.392 . S
C942 C943 1.385 . S
C942 C944 1.478 . S
C943 H937 0.930 . S
C943 C939 1.400 . S
C943 C942 1.385 . S
C944 C942 1.478 . S
C944 C946 1.381 . S
C944 C950 1.383 . S
C945 C941 1.495 . S
C945 H951 0.959 . S
C945 H952 0.961 . S
C945 H953 0.960 . S
C946 C944 1.381 . S
C946 C947 1.394 . S
C946 H954 0.930 . S
C947 C946 1.394 . S
C947 C948 1.383 . S
C947 H955 0.929 . S
C948 C947 1.383 . S
C948 C949 1.377 . S
C949 H933 0.930 . S
C949 C948 1.377 . S
C949 C950 1.379 . S
C950 H934 0.931 . S
C950 C944 1.383 . S
C950 C949 1.379 . S
H951 C945 0.959 . S
H952 C945 0.961 . S
H953 C945 0.960 . S
H954 C946 0.930 . S
H955 C947 0.929 . S
H956 C964 0.929 . S
H957 C966 0.930 . S
H958 C968 0.930 . S
H959 C971 0.929 . S
H960 C974 0.930 . S
H961 C976 0.960 . S
H962 C976 0.960 . S
H963 C976 0.960 . S
C964 H956 0.929 . S
C964 C965 1.377 . S
C964 C966 1.384 . S
C965 C964 1.377 . S
C965 C971 1.390 . S
C966 H957 0.930 . S
C966 C964 1.384 . S
C966 C967 1.372 . S
C967 C966 1.372 . S
C967 C968 1.400 . S
C967 C972 1.490 . S
C968 H958 0.930 . S
C968 C967 1.400 . S
C968 C971 1.386 . S
H969 C985 0.930 . S
H970 C986 0.931 . S
C971 H959 0.929 . S
C971 C965 1.390 . S
C971 C968 1.386 . S
C972 C967 1.490 . S
C972 C974 1.395 . S
C972 C975 1.403 . S
H973 C979 0.930 . S
C974 H960 0.930 . S
C974 C972 1.395 . S
C974 C977 1.403 . S
C975 C972 1.403 . S
C975 C976 1.524 . S
C975 C979 1.400 . S
C976 H961 0.960 . S
C976 H962 0.960 . S
C976 H963 0.960 . S
C976 C975 1.524 . S
C977 C974 1.403 . S
C977 C978 1.392 . S
C977 C981 1.495 . S
C978 C977 1.392 . S
C978 C979 1.385 . S
C978 C980 1.478 . S
C979 H973 0.930 . S
C979 C975 1.400 . S
C979 C978 1.385 . S
C980 C978 1.478 . S
C980 C982 1.381 . S
C980 C986 1.383 . S
C981 C977 1.495 . S
C981 H987 0.959 . S
C981 H988 0.961 . S
C981 H989 0.960 . S
C982 C980 1.381 . S
C982 C983 1.394 . S
C982 H990 0.930 . S
C983 C982 1.394 . S
C983 C984 1.383 . S
C983 H991 0.929 . S
C984 C983 1.383 . S
C984 C985 1.377 . S
C985 H969 0.930 . S
C985 C984 1.377 . S
C985 C986 1.379 . S
C986 H970 0.931 . S
C986 C980 1.383 . S
C986 C985 1.379 . S
H987 C981 0.959 . S
H988 C981 0.961 . S
H989 C981 0.960 . S
H990 C982 0.930 . S
H991 C983 0.929 . S
H992 C1000 0.929 . S
H993 C1002 0.930 . S
H994 C1004 0.930 . S
H995 C1007 0.929 1_565 S
H996 C1010 0.930 . S
H997 C1012 0.960 . S
H998 C1012 0.960 . S
H999 C1012 0.960 . S
C1000 H992 0.929 . S
C1000 C1001 1.377 . S
C1000 C1002 1.384 . S
C1001 C1000 1.377 . S
C1001 C1007 1.390 . S
C1002 H993 0.930 . S
C1002 C1000 1.384 . S
C1002 C1003 1.372 1_545 S
C1003 C1002 1.372 1_565 S
C1003 C1004 1.400 . S
C1003 C1008 1.490 . S
C1004 H994 0.930 . S
C1004 C1003 1.400 . S
C1004 C1007 1.386 1_565 S
H1005 C1021 0.930 . S
H1006 C1022 0.931 . S
C1007 H995 0.929 1_545 S
C1007 C1001 1.390 . S
C1007 C1004 1.386 1_545 S
C1008 C1003 1.490 . S
C1008 C1010 1.395 . S
C1008 C1011 1.403 . S
H1009 C1015 0.930 . S
C1010 H996 0.930 . S
C1010 C1008 1.395 . S
C1010 C1013 1.403 . S
C1011 C1008 1.403 . S
C1011 C1012 1.524 . S
C1011 C1015 1.400 . S
C1012 H997 0.960 . S
C1012 H998 0.960 . S
C1012 H999 0.960 . S
C1012 C1011 1.524 . S
C1013 C1010 1.403 . S
C1013 C1014 1.392 . S
C1013 C1017 1.495 . S
C1014 C1013 1.392 . S
C1014 C1015 1.385 . S
C1014 C1016 1.478 . S
C1015 H1009 0.930 . S
C1015 C1011 1.400 . S
C1015 C1014 1.385 . S
C1016 C1014 1.478 . S
C1016 C1018 1.381 . S
C1016 C1022 1.383 . S
C1017 C1013 1.495 . S
C1017 H1023 0.959 . S
C1017 H1024 0.961 . S
C1017 H1025 0.960 . S
C1018 C1016 1.381 . S
C1018 C1019 1.394 . S
C1018 H1026 0.930 . S
C1019 C1018 1.394 . S
C1019 C1020 1.383 . S
C1019 H1027 0.929 . S
C1020 C1019 1.383 . S
C1020 C1021 1.377 . S
C1021 H1005 0.930 . S
C1021 C1020 1.377 . S
C1021 C1022 1.379 . S
C1022 H1006 0.931 . S
C1022 C1016 1.383 . S
C1022 C1021 1.379 . S
H1023 C1017 0.959 . S
H1024 C1017 0.961 . S
H1025 C1017 0.960 . S
H1026 C1018 0.930 . S
H1027 C1019 0.929 . S
H1028 C1036 0.929 . S
H1029 C1038 0.930 . S
H1030 C1040 0.930 . S
H1031 C1043 0.929 . S
H1032 C1046 0.930 . S
H1033 C1048 0.960 . S
H1034 C1048 0.960 . S
H1035 C1048 0.960 . S
C1036 H1028 0.929 . S
C1036 C1037 1.377 . S
C1036 C1038 1.384 . S
C1037 C1036 1.377 . S
C1037 C1043 1.390 . S
C1038 H1029 0.930 . S
C1038 C1036 1.384 . S
C1038 C1039 1.372 . S
C1039 C1038 1.372 . S
C1039 C1040 1.400 . S
C1039 C1044 1.490 . S
C1040 H1030 0.930 . S
C1040 C1039 1.400 . S
C1040 C1043 1.386 . S
H1041 C1057 0.930 . S
H1042 C1058 0.931 . S
C1043 H1031 0.929 . S
C1043 C1037 1.390 . S
C1043 C1040 1.386 . S
C1044 C1039 1.490 . S
C1044 C1046 1.395 . S
C1044 C1047 1.403 . S
H1045 C1051 0.930 . S
C1046 H1032 0.930 . S
C1046 C1044 1.395 . S
C1046 C1049 1.403 . S
C1047 C1044 1.403 . S
C1047 C1048 1.524 . S
C1047 C1051 1.400 . S
C1048 H1033 0.960 . S
C1048 H1034 0.960 . S
C1048 H1035 0.960 . S
C1048 C1047 1.524 . S
C1049 C1046 1.403 . S
C1049 C1050 1.392 . S
C1049 C1053 1.495 . S
C1050 C1049 1.392 . S
C1050 C1051 1.385 . S
C1050 C1052 1.478 . S
C1051 H1045 0.930 . S
C1051 C1047 1.400 . S
C1051 C1050 1.385 . S
C1052 C1050 1.478 . S
C1052 C1054 1.381 . S
C1052 C1058 1.383 1_545 S
C1053 C1049 1.495 . S
C1053 H1059 0.959 . S
C1053 H1060 0.961 1_545 S
C1053 H1061 0.960 . S
C1054 C1052 1.381 . S
C1054 C1055 1.394 1_545 S
C1054 H1062 0.930 . S
C1055 C1054 1.394 1_565 S
C1055 C1056 1.383 . S
C1055 H1063 0.929 . S
C1056 C1055 1.383 . S
C1056 C1057 1.377 . S
C1057 H1041 0.930 . S
C1057 C1056 1.377 . S
C1057 C1058 1.379 . S
C1058 H1042 0.931 . S
C1058 C1052 1.383 1_565 S
C1058 C1057 1.379 . S
H1059 C1053 0.959 . S
H1060 C1053 0.961 1_565 S
H1061 C1053 0.960 . S
H1062 C1054 0.930 . S
H1063 C1055 0.929 . S
H1064 C1072 0.929 . S
H1065 C1074 0.930 . S
H1066 C1076 0.931 . S
H1067 C1079 0.929 . S
H1068 C1082 0.930 . S
H1069 C1084 0.958 1_545 S
H1070 C1084 0.972 . S
H1071 C1084 0.962 . S
C1072 H1064 0.929 . S
C1072 C1073 1.377 . S
C1072 C1074 1.384 . S
C1073 C1072 1.377 . S
C1073 C1079 1.390 . S
C1074 H1065 0.930 . S
C1074 C1072 1.384 . S
C1074 C1075 1.372 1_565 S
C1075 C1074 1.372 1_545 S
C1075 C1076 1.400 . S
C1075 C1080 1.490 . S
C1076 H1066 0.931 . S
C1076 C1075 1.400 . S
C1076 C1079 1.383 1_545 S
H1077 C1093 0.930 . S
H1078 C1094 0.931 . S
C1079 H1067 0.929 . S
C1079 C1073 1.390 . S
C1079 C1076 1.383 1_565 S
C1080 C1075 1.490 . S
C1080 C1082 1.395 . S
C1080 C1083 1.403 . S
H1081 C1087 0.930 . S
C1082 H1068 0.930 . S
C1082 C1080 1.395 . S
C1082 C1085 1.403 . S
C1083 C1080 1.403 . S
C1083 C1084 1.511 1_545 S
C1083 C1087 1.400 . S
C1084 H1069 0.958 1_565 S
C1084 H1070 0.972 . S
C1084 H1071 0.962 . S
C1084 C1083 1.511 1_565 S
C1085 C1082 1.403 . S
C1085 C1086 1.392 . S
C1085 C1089 1.495 . S
C1086 C1085 1.392 . S
C1086 C1087 1.385 . S
C1086 C1088 1.478 . S
C1087 H1081 0.930 . S
C1087 C1083 1.400 . S
C1087 C1086 1.385 . S
C1088 C1086 1.478 . S
C1088 C1090 1.381 . S
C1088 C1094 1.383 . S
C1089 C1085 1.495 . S
C1089 H1095 0.959 . S
C1089 H1096 0.961 . S
C1089 H1097 0.960 . S
C1090 C1088 1.381 . S
C1090 C1091 1.394 . S
C1090 H1098 0.930 . S
C1091 C1090 1.394 . S
C1091 C1092 1.383 . S
C1091 H1099 0.929 . S
C1092 C1091 1.383 . S
C1092 C1093 1.377 . S
C1093 H1077 0.930 . S
C1093 C1092 1.377 . S
C1093 C1094 1.379 . S
C1094 H1078 0.931 . S
C1094 C1088 1.383 . S
C1094 C1093 1.379 . S
H1095 C1089 0.959 . S
H1096 C1089 0.961 . S
H1097 C1089 0.960 . S
H1098 C1090 0.930 . S
H1099 C1091 0.929 . S
H1100 C1108 0.929 . S
H1101 C1110 0.930 . S
H1102 C1112 0.930 . S
H1103 C1115 0.929 . S
H1104 C1118 0.930 . S
H1105 C1120 0.960 . S
H1106 C1120 0.960 . S
H1107 C1120 0.960 . S
C1108 H1100 0.929 . S
C1108 C1109 1.377 . S
C1108 C1110 1.384 1_545 S
C1109 C1108 1.377 . S
C1109 C1115 1.390 . S
C1110 H1101 0.930 . S
C1110 C1108 1.384 1_565 S
C1110 C1111 1.372 . S
C1111 C1110 1.372 . S
C1111 C1112 1.400 1_565 S
C1111 C1116 1.490 . S
C1112 H1102 0.930 . S
C1112 C1111 1.400 1_545 S
C1112 C1115 1.386 . S
H1113 C1129 0.930 . S
H1114 C1130 0.931 . S
C1115 H1103 0.929 . S
C1115 C1109 1.390 . S
C1115 C1112 1.386 . S
C1116 C1111 1.490 . S
C1116 C1118 1.395 . S
C1116 C1119 1.403 . S
H1117 C1123 0.930 . S
C1118 H1104 0.930 . S
C1118 C1116 1.395 . S
C1118 C1121 1.403 . S
C1119 C1116 1.403 . S
C1119 C1120 1.524 1_565 S
C1119 C1123 1.400 . S
C1120 H1105 0.960 . S
C1120 H1106 0.960 . S
C1120 H1107 0.960 . S
C1120 C1119 1.524 1_545 S
C1121 C1118 1.403 . S
C1121 C1122 1.392 . S
C1121 C1125 1.495 . S
C1122 C1121 1.392 . S
C1122 C1123 1.385 . S
C1122 C1124 1.478 . S
C1123 H1117 0.930 . S
C1123 C1119 1.400 . S
C1123 C1122 1.385 . S
C1124 C1122 1.478 . S
C1124 C1126 1.381 . S
C1124 C1130 1.383 . S
C1125 C1121 1.495 . S
C1125 H1131 0.959 . S
C1125 H1132 0.961 . S
C1125 H1133 0.960 . S
C1126 C1124 1.381 . S
C1126 C1127 1.394 . S
C1126 H1134 0.930 . S
C1127 C1126 1.394 . S
C1127 C1128 1.383 . S
C1127 H1135 0.929 . S
C1128 C1127 1.383 . S
C1128 C1129 1.377 . S
C1129 H1113 0.930 . S
C1129 C1128 1.377 . S
C1129 C1130 1.379 . S
C1130 H1114 0.931 . S
C1130 C1124 1.383 . S
C1130 C1129 1.379 . S
H1131 C1125 0.959 . S
H1132 C1125 0.961 . S
H1133 C1125 0.960 . S
H1134 C1126 0.930 . S
H1135 C1127 0.929 . S
H1136 C1144 0.929 . S
H1137 C1146 0.930 . S
H1138 C1148 0.930 . S
H1139 C1151 0.929 . S
H1140 C1154 0.930 . S
H1141 C1156 0.960 . S
H1142 C1156 0.960 . S
H1143 C1156 0.960 . S
C1144 H1136 0.929 . S
C1144 C1145 1.377 . S
C1144 C1146 1.384 . S
C1145 C1144 1.377 . S
C1145 C1151 1.390 . S
C1146 H1137 0.930 . S
C1146 C1144 1.384 . S
C1146 C1147 1.372 . S
C1147 C1146 1.372 . S
C1147 C1148 1.400 . S
C1147 C1152 1.490 . S
C1148 H1138 0.930 . S
C1148 C1147 1.400 . S
C1148 C1151 1.386 . S
H1149 C1165 0.930 . S
H1150 C1166 0.931 . S
C1151 H1139 0.929 . S
C1151 C1145 1.390 . S
C1151 C1148 1.386 . S
C1152 C1147 1.490 . S
C1152 C1154 1.395 . S
C1152 C1155 1.403 . S
H1153 C1159 0.930 . S
C1154 H1140 0.930 . S
C1154 C1152 1.395 . S
C1154 C1157 1.403 . S
C1155 C1152 1.403 . S
C1155 C1156 1.524 . S
C1155 C1159 1.400 . S
C1156 H1141 0.960 . S
C1156 H1142 0.960 . S
C1156 H1143 0.960 . S
C1156 C1155 1.524 . S
C1157 C1154 1.403 . S
C1157 C1158 1.392 . S
C1157 C1161 1.495 1_545 S
C1158 C1157 1.392 . S
C1158 C1159 1.385 . S
C1158 C1160 1.478 . S
C1159 H1153 0.930 . S
C1159 C1155 1.400 . S
C1159 C1158 1.385 . S
C1160 C1158 1.478 . S
C1160 C1162 1.381 1_545 S
C1160 C1166 1.383 1_545 S
C1161 C1157 1.495 1_565 S
C1161 H1167 0.959 . S
C1161 H1168 0.961 . S
C1161 H1169 0.960 . S
C1162 C1160 1.381 1_565 S
C1162 C1163 1.394 . S
C1162 H1170 0.930 1_565 S
C1163 C1162 1.394 . S
C1163 C1164 1.383 . S
C1163 H1171 0.929 . S
C1164 C1163 1.383 . S
C1164 C1165 1.377 . S
C1165 H1149 0.930 . S
C1165 C1164 1.377 . S
C1165 C1166 1.379 . S
C1166 H1150 0.931 . S
C1166 C1160 1.383 1_565 S
C1166 C1165 1.379 . S
H1167 C1161 0.959 . S
H1168 C1161 0.961 . S
H1169 C1161 0.960 . S
H1170 C1162 0.930 1_545 S
H1171 C1163 0.929 . S
H1172 C1180 0.929 . S
H1173 C1182 0.930 . S
H1174 C1184 0.930 . S
H1175 C1187 0.929 . S
H1176 C1190 0.930 . S
H1177 C1192 0.960 . S
H1178 C1192 0.960 1_545 S
H1179 C1192 0.960 . S
C1180 H1172 0.929 . S
C1180 C1181 1.377 . S
C1180 C1182 1.384 . S
C1181 C1180 1.377 . S
C1181 C1187 1.390 . S
C1182 H1173 0.930 . S
C1182 C1180 1.384 . S
C1182 C1183 1.372 1_545 S
C1183 C1182 1.372 1_565 S
C1183 C1184 1.400 . S
C1183 C1188 1.490 . S
C1184 H1174 0.930 . S
C1184 C1183 1.400 . S
C1184 C1187 1.386 1_565 S
H1185 C1201 0.930 . S
H1186 C1202 0.931 . S
C1187 H1175 0.929 . S
C1187 C1181 1.390 . S
C1187 C1184 1.386 1_545 S
C1188 C1183 1.490 . S
C1188 C1190 1.395 . S
C1188 C1191 1.403 . S
H1189 C1195 0.930 . S
C1190 H1176 0.930 . S
C1190 C1188 1.395 . S
C1190 C1193 1.403 . S
C1191 C1188 1.403 . S
C1191 C1192 1.524 . S
C1191 C1195 1.400 . S
C1192 H1177 0.960 . S
C1192 H1178 0.960 1_565 S
C1192 H1179 0.960 . S
C1192 C1191 1.524 . S
C1193 C1190 1.403 . S
C1193 C1194 1.392 . S
C1193 C1197 1.495 . S
C1194 C1193 1.392 . S
C1194 C1195 1.385 . S
C1194 C1196 1.478 . S
C1195 H1189 0.930 . S
C1195 C1191 1.400 . S
C1195 C1194 1.385 . S
C1196 C1194 1.478 . S
C1196 C1198 1.381 . S
C1196 C1202 1.383 . S
C1197 C1193 1.495 . S
C1197 H1203 0.959 . S
C1197 H1204 0.961 . S
C1197 H1205 0.960 . S
C1198 C1196 1.381 . S
C1198 C1199 1.394 . S
C1198 H1206 0.930 . S
C1199 C1198 1.394 . S
C1199 C1200 1.383 . S
C1199 H1207 0.929 . S
C1200 C1199 1.383 . S
C1200 C1201 1.377 . S
C1201 H1185 0.930 . S
C1201 C1200 1.377 . S
C1201 C1202 1.379 . S
C1202 H1186 0.931 . S
C1202 C1196 1.383 . S
C1202 C1201 1.379 . S
H1203 C1197 0.959 . S
H1204 C1197 0.961 . S
H1205 C1197 0.960 . S
H1206 C1198 0.930 . S
H1207 C1199 0.929 . S
H1208 C1216 0.929 . S
H1209 C1218 0.930 . S
H1210 C1220 0.930 . S
H1211 C1223 0.929 . S
H1212 C1226 0.930 . S
H1213 C1228 0.960 . S
H1214 C1228 0.960 . S
H1215 C1228 0.960 . S
C1216 H1208 0.929 . S
C1216 C1217 1.377 . S
C1216 C1218 1.384 . S
C1217 C1216 1.377 . S
C1217 C1223 1.390 . S
C1218 H1209 0.930 . S
C1218 C1216 1.384 . S
C1218 C1219 1.372 . S
C1219 C1218 1.372 . S
C1219 C1220 1.400 . S
C1219 C1224 1.490 . S
C1220 H1210 0.930 . S
C1220 C1219 1.400 . S
C1220 C1223 1.386 . S
H1221 C1237 0.930 . S
H1222 C1238 0.931 . S
C1223 H1211 0.929 . S
C1223 C1217 1.390 . S
C1223 C1220 1.386 . S
C1224 C1219 1.490 . S
C1224 C1226 1.395 . S
C1224 C1227 1.403 . S
H1225 C1231 0.930 . S
C1226 H1212 0.930 . S
C1226 C1224 1.395 . S
C1226 C1229 1.403 . S
C1227 C1224 1.403 . S
C1227 C1228 1.524 . S
C1227 C1231 1.400 . S
C1228 H1213 0.960 . S
C1228 H1214 0.960 . S
C1228 H1215 0.960 . S
C1228 C1227 1.524 . S
C1229 C1226 1.403 . S
C1229 C1230 1.392 . S
C1229 C1233 1.495 . S
C1230 C1229 1.392 . S
C1230 C1231 1.385 . S
C1230 C1232 1.478 . S
C1231 H1225 0.930 . S
C1231 C1227 1.400 . S
C1231 C1230 1.385 . S
C1232 C1230 1.478 . S
C1232 C1234 1.381 . S
C1232 C1238 1.383 1_565 S
C1233 C1229 1.495 . S
C1233 H1239 0.959 . S
C1233 H1240 0.961 . S
C1233 H1241 0.960 . S
C1234 C1232 1.381 . S
C1234 C1235 1.394 1_565 S
C1234 H1242 0.930 . S
C1235 C1234 1.394 1_545 S
C1235 C1236 1.383 . S
C1235 H1243 0.929 . S
C1236 C1235 1.383 . S
C1236 C1237 1.377 . S
C1237 H1221 0.930 . S
C1237 C1236 1.377 . S
C1237 C1238 1.379 . S
C1238 H1222 0.931 . S
C1238 C1232 1.383 1_545 S
C1238 C1237 1.379 . S
H1239 C1233 0.959 . S
H1240 C1233 0.961 . S
H1241 C1233 0.960 . S
H1242 C1234 0.930 . S
H1243 C1235 0.929 . S
H1244 C1252 0.929 . S
H1245 C1254 0.930 . S
H1246 C1256 0.930 . S
H1247 C1259 0.929 . S
H1248 C1262 0.930 . S
H1249 C1264 0.960 . S
H1250 C1264 0.960 . S
H1251 C1264 0.960 . S
C1252 H1244 0.929 . S
C1252 C1253 1.377 . S
C1252 C1254 1.384 . S
C1253 C1252 1.377 . S
C1253 C1259 1.390 . S
C1254 H1245 0.930 . S
C1254 C1252 1.384 . S
C1254 C1255 1.372 . S
C1255 C1254 1.372 . S
C1255 C1256 1.400 . S
C1255 C1260 1.490 . S
C1256 H1246 0.930 . S
C1256 C1255 1.400 . S
C1256 C1259 1.386 . S
H1257 C1273 0.930 . S
H1258 C1274 0.931 . S
C1259 H1247 0.929 . S
C1259 C1253 1.390 . S
C1259 C1256 1.386 . S
C1260 C1255 1.490 . S
C1260 C1262 1.395 . S
C1260 C1263 1.403 . S
H1261 C1267 0.930 . S
C1262 H1248 0.930 . S
C1262 C1260 1.395 . S
C1262 C1265 1.403 . S
C1263 C1260 1.403 . S
C1263 C1264 1.524 . S
C1263 C1267 1.400 . S
C1264 H1249 0.960 . S
C1264 H1250 0.960 . S
C1264 H1251 0.960 . S
C1264 C1263 1.524 . S
C1265 C1262 1.403 . S
C1265 C1266 1.392 . S
C1265 C1269 1.495 . S
C1266 C1265 1.392 . S
C1266 C1267 1.385 . S
C1266 C1268 1.478 . S
C1267 H1261 0.930 . S
C1267 C1263 1.400 . S
C1267 C1266 1.385 . S
C1268 C1266 1.478 . S
C1268 C1270 1.381 1_545 S
C1268 C1274 1.383 . S
C1269 C1265 1.495 . S
C1269 H1275 0.959 . S
C1269 H1276 0.961 . S
C1269 H1277 0.960 . S
C1270 C1268 1.381 1_565 S
C1270 C1271 1.394 . S
C1270 H1278 0.930 . S
C1271 C1270 1.394 . S
C1271 C1272 1.383 . S
C1271 H1279 0.929 . S
C1272 C1271 1.383 . S
C1272 C1273 1.377 . S
C1273 H1257 0.930 . S
C1273 C1272 1.377 . S
C1273 C1274 1.379 1_565 S
C1274 H1258 0.931 . S
C1274 C1268 1.383 . S
C1274 C1273 1.379 1_545 S
H1275 C1269 0.959 . S
H1276 C1269 0.961 . S
H1277 C1269 0.960 . S
H1278 C1270 0.930 . S
H1279 C1271 0.929 . S
H1280 C1288 0.929 . S
H1281 C1290 0.930 . S
H1282 C1292 0.930 . S
H1283 C1295 0.929 . S
H1284 C1298 0.930 . S
H1285 C1300 0.960 . S
H1286 C1300 0.960 . S
H1287 C1300 0.960 . S
C1288 H1280 0.929 . S
C1288 C1289 1.377 . S
C1288 C1290 1.384 . S
C1289 C1288 1.377 . S
C1289 C1295 1.390 . S
C1290 H1281 0.930 . S
C1290 C1288 1.384 . S
C1290 C1291 1.372 . S
C1291 C1290 1.372 . S
C1291 C1292 1.400 . S
C1291 C1296 1.490 . S
C1292 H1282 0.930 . S
C1292 C1291 1.400 . S
C1292 C1295 1.386 . S
H1293 C1309 0.930 . S
H1294 C1310 0.931 . S
C1295 H1283 0.929 . S
C1295 C1289 1.390 . S
C1295 C1292 1.386 . S
C1296 C1291 1.490 . S
C1296 C1298 1.395 . S
C1296 C1299 1.403 . S
H1297 C1303 0.930 . S
C1298 H1284 0.930 . S
C1298 C1296 1.395 . S
C1298 C1301 1.403 . S
C1299 C1296 1.403 . S
C1299 C1300 1.524 . S
C1299 C1303 1.400 . S
C1300 H1285 0.960 . S
C1300 H1286 0.960 . S
C1300 H1287 0.960 . S
C1300 C1299 1.524 . S
C1301 C1298 1.403 . S
C1301 C1302 1.392 . S
C1301 C1305 1.495 . S
C1302 C1301 1.392 . S
C1302 C1303 1.385 . S
C1302 C1304 1.478 . S
C1303 H1297 0.930 . S
C1303 C1299 1.400 . S
C1303 C1302 1.385 . S
C1304 C1302 1.478 . S
C1304 C1306 1.381 . S
C1304 C1310 1.383 . S
C1305 C1301 1.495 . S
C1305 H1311 0.959 . S
C1305 H1312 0.961 . S
C1305 H1313 0.960 . S
C1306 C1304 1.381 . S
C1306 C1307 1.394 . S
C1306 H1314 0.930 . S
C1307 C1306 1.394 . S
C1307 C1308 1.383 . S
C1307 H1315 0.929 . S
C1308 C1307 1.383 . S
C1308 C1309 1.377 . S
C1309 H1293 0.930 . S
C1309 C1308 1.377 . S
C1309 C1310 1.379 . S
C1310 H1294 0.931 . S
C1310 C1304 1.383 . S
C1310 C1309 1.379 . S
H1311 C1305 0.959 . S
H1312 C1305 0.961 . S
H1313 C1305 0.960 . S
H1314 C1306 0.930 . S
H1315 C1307 0.929 . S
H1316 C1324 0.929 . S
H1317 C1326 0.930 . S
H1318 C1328 0.930 . S
H1319 C1331 0.929 . S
H1320 C1334 0.930 . S
H1321 C1336 0.960 . S
H1322 C1336 0.960 . S
H1323 C1336 0.960 . S
C1324 H1316 0.929 . S
C1324 C1325 1.377 . S
C1324 C1326 1.384 . S
C1325 C1324 1.377 . S
C1325 C1331 1.390 . S
C1326 H1317 0.930 . S
C1326 C1324 1.384 . S
C1326 C1327 1.372 . S
C1327 C1326 1.372 . S
C1327 C1328 1.400 . S
C1327 C1332 1.490 . S
C1328 H1318 0.930 . S
C1328 C1327 1.400 . S
C1328 C1331 1.386 . S
H1329 C1345 0.930 . S
H1330 C1346 0.931 . S
C1331 H1319 0.929 . S
C1331 C1325 1.390 . S
C1331 C1328 1.386 . S
C1332 C1327 1.490 . S
C1332 C1334 1.395 . S
C1332 C1335 1.403 . S
H1333 C1339 0.930 . S
C1334 H1320 0.930 . S
C1334 C1332 1.395 . S
C1334 C1337 1.403 . S
C1335 C1332 1.403 . S
C1335 C1336 1.524 . S
C1335 C1339 1.400 . S
C1336 H1321 0.960 . S
C1336 H1322 0.960 . S
C1336 H1323 0.960 . S
C1336 C1335 1.524 . S
C1337 C1334 1.403 . S
C1337 C1338 1.392 . S
C1337 C1341 1.495 . S
C1338 C1337 1.392 . S
C1338 C1339 1.385 . S
C1338 C1340 1.478 . S
C1339 H1333 0.930 . S
C1339 C1335 1.400 . S
C1339 C1338 1.385 . S
C1340 C1338 1.478 . S
C1340 C1342 1.381 . S
C1340 C1346 1.383 . S
C1341 C1337 1.495 . S
C1341 H1347 0.959 . S
C1341 H1348 0.961 . S
C1341 H1349 0.960 . S
C1342 C1340 1.381 . S
C1342 C1343 1.394 . S
C1342 H1350 0.930 . S
C1343 C1342 1.394 . S
C1343 C1344 1.383 . S
C1343 H1351 0.929 . S
C1344 C1343 1.383 . S
C1344 C1345 1.377 . S
C1345 H1329 0.930 . S
C1345 C1344 1.377 . S
C1345 C1346 1.379 . S
C1346 H1330 0.931 . S
C1346 C1340 1.383 . S
C1346 C1345 1.379 . S
H1347 C1341 0.959 . S
H1348 C1341 0.961 . S
H1349 C1341 0.960 . S
H1350 C1342 0.930 . S
H1351 C1343 0.929 . S
H1352 C1360 0.929 . S
H1353 C1362 0.930 . S
H1354 C1364 0.930 . S
H1355 C1367 0.929 . S
H1356 C1370 0.930 . S
H1357 C1372 0.960 . S
H1358 C1372 0.960 . S
H1359 C1372 0.960 . S
C1360 H1352 0.929 . S
C1360 C1361 1.377 . S
C1360 C1362 1.384 . S
C1361 C1360 1.377 . S
C1361 C1367 1.390 . S
C1362 H1353 0.930 . S
C1362 C1360 1.384 . S
C1362 C1363 1.372 . S
C1363 C1362 1.372 . S
C1363 C1364 1.400 . S
C1363 C1368 1.490 . S
C1364 H1354 0.930 . S
C1364 C1363 1.400 . S
C1364 C1367 1.386 . S
H1365 C1381 0.930 . S
H1366 C1382 0.931 . S
C1367 H1355 0.929 . S
C1367 C1361 1.390 . S
C1367 C1364 1.386 . S
C1368 C1363 1.490 . S
C1368 C1370 1.395 . S
C1368 C1371 1.403 . S
H1369 C1375 0.930 . S
C1370 H1356 0.930 . S
C1370 C1368 1.395 . S
C1370 C1373 1.403 . S
C1371 C1368 1.403 . S
C1371 C1372 1.524 . S
C1371 C1375 1.400 . S
C1372 H1357 0.960 . S
C1372 H1358 0.960 . S
C1372 H1359 0.960 . S
C1372 C1371 1.524 . S
C1373 C1370 1.403 . S
C1373 C1374 1.392 . S
C1373 C1377 1.495 . S
C1374 C1373 1.392 . S
C1374 C1375 1.385 . S
C1374 C1376 1.478 . S
C1375 H1369 0.930 . S
C1375 C1371 1.400 . S
C1375 C1374 1.385 . S
C1376 C1374 1.478 . S
C1376 C1378 1.381 . S
C1376 C1382 1.383 . S
C1377 C1373 1.495 . S
C1377 H1383 0.959 . S
C1377 H1384 0.961 . S
C1377 H1385 0.960 . S
C1378 C1376 1.381 . S
C1378 C1379 1.394 . S
C1378 H1386 0.930 . S
C1379 C1378 1.394 . S
C1379 C1380 1.383 . S
C1379 H1387 0.929 . S
C1380 C1379 1.383 . S
C1380 C1381 1.377 . S
C1381 H1365 0.930 . S
C1381 C1380 1.377 . S
C1381 C1382 1.379 . S
C1382 H1366 0.931 . S
C1382 C1376 1.383 . S
C1382 C1381 1.379 . S
H1383 C1377 0.959 . S
H1384 C1377 0.961 . S
H1385 C1377 0.960 . S
H1386 C1378 0.930 . S
H1387 C1379 0.929 . S
H1388 C1396 0.929 . S
H1389 C1398 0.930 . S
H1390 C1400 0.930 . S
H1391 C1403 0.929 . S
H1392 C1406 0.930 . S
H1393 C1408 0.960 . S
H1394 C1408 0.960 . S
H1395 C1408 0.960 . S
C1396 H1388 0.929 . S
C1396 C1397 1.377 . S
C1396 C1398 1.384 . S
C1397 C1396 1.377 . S
C1397 C1403 1.390 . S
C1398 H1389 0.930 . S
C1398 C1396 1.384 . S
C1398 C1399 1.372 . S
C1399 C1398 1.372 . S
C1399 C1400 1.400 . S
C1399 C1404 1.490 . S
C1400 H1390 0.930 . S
C1400 C1399 1.400 . S
C1400 C1403 1.386 . S
H1401 C1417 0.930 . S
H1402 C1418 0.931 . S
C1403 H1391 0.929 . S
C1403 C1397 1.390 . S
C1403 C1400 1.386 . S
C1404 C1399 1.490 . S
C1404 C1406 1.395 . S
C1404 C1407 1.403 . S
H1405 C1411 0.930 . S
C1406 H1392 0.930 . S
C1406 C1404 1.395 . S
C1406 C1409 1.403 . S
C1407 C1404 1.403 . S
C1407 C1408 1.524 . S
C1407 C1411 1.400 . S
C1408 H1393 0.960 . S
C1408 H1394 0.960 . S
C1408 H1395 0.960 . S
C1408 C1407 1.524 . S
C1409 C1406 1.403 . S
C1409 C1410 1.392 . S
C1409 C1413 1.495 . S
C1410 C1409 1.392 . S
C1410 C1411 1.385 . S
C1410 C1412 1.478 . S
C1411 H1405 0.930 . S
C1411 C1407 1.400 . S
C1411 C1410 1.385 . S
C1412 C1410 1.478 . S
C1412 C1414 1.381 . S
C1412 C1418 1.383 . S
C1413 C1409 1.495 . S
C1413 H1419 0.959 . S
C1413 H1420 0.961 . S
C1413 H1421 0.960 . S
C1414 C1412 1.381 . S
C1414 C1415 1.394 . S
C1414 H1422 0.930 . S
C1415 C1414 1.394 . S
C1415 C1416 1.383 . S
C1415 H1423 0.929 . S
C1416 C1415 1.383 . S
C1416 C1417 1.377 . S
C1417 H1401 0.930 . S
C1417 C1416 1.377 . S
C1417 C1418 1.379 . S
C1418 H1402 0.931 . S
C1418 C1412 1.383 . S
C1418 C1417 1.379 . S
H1419 C1413 0.959 . S
H1420 C1413 0.961 . S
H1421 C1413 0.960 . S
H1422 C1414 0.930 . S
H1423 C1415 0.929 . S
H1424 C1432 0.929 . S
H1425 C1434 0.930 . S
H1426 C1436 0.930 . S
H1427 C1439 0.929 . S
H1428 C1442 0.930 . S
H1429 C1444 0.960 . S
H1430 C1444 0.960 . S
H1431 C1444 0.960 . S
C1432 H1424 0.929 . S
C1432 C1433 1.377 . S
C1432 C1434 1.384 . S
C1433 C1432 1.377 . S
C1433 C1439 1.390 . S
C1434 H1425 0.930 . S
C1434 C1432 1.384 . S
C1434 C1435 1.372 . S
C1435 C1434 1.372 . S
C1435 C1436 1.400 . S
C1435 C1440 1.490 . S
C1436 H1426 0.930 . S
C1436 C1435 1.400 . S
C1436 C1439 1.386 . S
H1437 C1453 0.930 . S
H1438 C1454 0.931 . S
C1439 H1427 0.929 . S
C1439 C1433 1.390 . S
C1439 C1436 1.386 . S
C1440 C1435 1.490 . S
C1440 C1442 1.395 . S
C1440 C1443 1.403 . S
H1441 C1447 0.930 . S
C1442 H1428 0.930 . S
C1442 C1440 1.395 . S
C1442 C1445 1.403 . S
C1443 C1440 1.403 . S
C1443 C1444 1.524 . S
C1443 C1447 1.400 . S
C1444 H1429 0.960 . S
C1444 H1430 0.960 . S
C1444 H1431 0.960 . S
C1444 C1443 1.524 . S
C1445 C1442 1.403 . S
C1445 C1446 1.392 . S
C1445 C1449 1.495 . S
C1446 C1445 1.392 . S
C1446 C1447 1.385 . S
C1446 C1448 1.478 . S
C1447 H1441 0.930 . S
C1447 C1443 1.400 . S
C1447 C1446 1.385 . S
C1448 C1446 1.478 . S
C1448 C1450 1.381 . S
C1448 C1454 1.383 . S
C1449 C1445 1.495 . S
C1449 H1455 0.959 . S
C1449 H1456 0.961 . S
C1449 H1457 0.960 . S
C1450 C1448 1.381 . S
C1450 C1451 1.394 . S
C1450 H1458 0.930 . S
C1451 C1450 1.394 . S
C1451 C1452 1.383 . S
C1451 H1459 0.929 . S
C1452 C1451 1.383 . S
C1452 C1453 1.377 . S
C1453 H1437 0.930 . S
C1453 C1452 1.377 . S
C1453 C1454 1.379 . S
C1454 H1438 0.931 . S
C1454 C1448 1.383 . S
C1454 C1453 1.379 . S
H1455 C1449 0.959 . S
H1456 C1449 0.961 . S
H1457 C1449 0.960 . S
H1458 C1450 0.930 . S
H1459 C1451 0.929 . S
H1460 C1468 0.929 . S
H1461 C1470 0.930 . S
H1462 C1472 0.930 . S
H1463 C1475 0.929 . S
H1464 C1478 0.930 . S
H1465 C1480 0.960 . S
H1466 C1480 0.960 . S
H1467 C1480 0.960 . S
C1468 H1460 0.929 . S
C1468 C1469 1.377 . S
C1468 C1470 1.384 . S
C1469 C1468 1.377 . S
C1469 C1475 1.390 . S
C1470 H1461 0.930 . S
C1470 C1468 1.384 . S
C1470 C1471 1.372 . S
C1471 C1470 1.372 . S
C1471 C1472 1.400 . S
C1471 C1476 1.490 . S
C1472 H1462 0.930 . S
C1472 C1471 1.400 . S
C1472 C1475 1.386 . S
H1473 C1489 0.930 . S
H1474 C1490 0.931 . S
C1475 H1463 0.929 . S
C1475 C1469 1.390 . S
C1475 C1472 1.386 . S
C1476 C1471 1.490 . S
C1476 C1478 1.395 . S
C1476 C1479 1.403 . S
H1477 C1483 0.930 . S
C1478 H1464 0.930 . S
C1478 C1476 1.395 . S
C1478 C1481 1.403 . S
C1479 C1476 1.403 . S
C1479 C1480 1.524 . S
C1479 C1483 1.400 . S
C1480 H1465 0.960 . S
C1480 H1466 0.960 . S
C1480 H1467 0.960 . S
C1480 C1479 1.524 . S
C1481 C1478 1.403 . S
C1481 C1482 1.392 . S
C1481 C1485 1.495 . S
C1482 C1481 1.392 . S
C1482 C1483 1.385 . S
C1482 C1484 1.478 . S
C1483 H1477 0.930 . S
C1483 C1479 1.400 . S
C1483 C1482 1.385 . S
C1484 C1482 1.478 . S
C1484 C1486 1.381 . S
C1484 C1490 1.383 . S
C1485 C1481 1.495 . S
C1485 H1491 0.959 . S
C1485 H1492 0.961 . S
C1485 H1493 0.960 . S
C1486 C1484 1.381 . S
C1486 C1487 1.394 . S
C1486 H1494 0.930 . S
C1487 C1486 1.394 . S
C1487 C1488 1.383 . S
C1487 H1495 0.929 . S
C1488 C1487 1.383 . S
C1488 C1489 1.377 . S
C1489 H1473 0.930 . S
C1489 C1488 1.377 . S
C1489 C1490 1.379 . S
C1490 H1474 0.931 . S
C1490 C1484 1.383 . S
C1490 C1489 1.379 . S
H1491 C1485 0.959 . S
H1492 C1485 0.961 . S
H1493 C1485 0.960 . S
H1494 C1486 0.930 . S
H1495 C1487 0.929 . S
H1496 C1504 0.929 . S
H1497 C1506 0.930 . S
H1498 C1508 0.930 . S
H1499 C1511 0.929 . S
H1500 C1514 0.930 . S
H1501 C1516 0.960 . S
H1502 C1516 0.960 . S
H1503 C1516 0.960 . S
C1504 H1496 0.929 . S
C1504 C1505 1.377 . S
C1504 C1506 1.384 . S
C1505 C1504 1.377 . S
C1505 C1511 1.390 . S
C1506 H1497 0.930 . S
C1506 C1504 1.384 . S
C1506 C1507 1.372 . S
C1507 C1506 1.372 . S
C1507 C1508 1.400 . S
C1507 C1512 1.490 . S
C1508 H1498 0.930 . S
C1508 C1507 1.400 . S
C1508 C1511 1.386 . S
H1509 C1525 0.930 . S
H1510 C1526 0.931 . S
C1511 H1499 0.929 . S
C1511 C1505 1.390 . S
C1511 C1508 1.386 . S
C1512 C1507 1.490 . S
C1512 C1514 1.395 . S
C1512 C1515 1.403 . S
H1513 C1519 0.930 . S
C1514 H1500 0.930 . S
C1514 C1512 1.395 . S
C1514 C1517 1.403 . S
C1515 C1512 1.403 . S
C1515 C1516 1.524 . S
C1515 C1519 1.400 . S
C1516 H1501 0.960 . S
C1516 H1502 0.960 . S
C1516 H1503 0.960 . S
C1516 C1515 1.524 . S
C1517 C1514 1.403 . S
C1517 C1518 1.392 . S
C1517 C1521 1.495 . S
C1518 C1517 1.392 . S
C1518 C1519 1.385 . S
C1518 C1520 1.478 . S
C1519 H1513 0.930 . S
C1519 C1515 1.400 . S
C1519 C1518 1.385 . S
C1520 C1518 1.478 . S
C1520 C1522 1.381 . S
C1520 C1526 1.383 . S
C1521 C1517 1.495 . S
C1521 H1527 0.959 . S
C1521 H1528 0.961 . S
C1521 H1529 0.960 . S
C1522 C1520 1.381 . S
C1522 C1523 1.394 . S
C1522 H1530 0.930 . S
C1523 C1522 1.394 . S
C1523 C1524 1.383 . S
C1523 H1531 0.929 . S
C1524 C1523 1.383 . S
C1524 C1525 1.377 . S
C1525 H1509 0.930 . S
C1525 C1524 1.377 . S
C1525 C1526 1.379 . S
C1526 H1510 0.931 . S
C1526 C1520 1.383 . S
C1526 C1525 1.379 . S
H1527 C1521 0.959 . S
H1528 C1521 0.961 . S
H1529 C1521 0.960 . S
H1530 C1522 0.930 . S
H1531 C1523 0.929 . S
H1532 C1540 0.929 . S
H1533 C1542 0.930 . S
H1534 C1544 0.930 . S
H1535 C1547 0.929 . S
H1536 C1550 0.930 . S
H1537 C1552 0.960 . S
H1538 C1552 0.960 . S
H1539 C1552 0.960 . S
C1540 H1532 0.929 . S
C1540 C1541 1.377 . S
C1540 C1542 1.384 . S
C1541 C1540 1.377 . S
C1541 C1547 1.390 . S
C1542 H1533 0.930 . S
C1542 C1540 1.384 . S
C1542 C1543 1.372 . S
C1543 C1542 1.372 . S
C1543 C1544 1.400 . S
C1543 C1548 1.490 . S
C1544 H1534 0.930 . S
C1544 C1543 1.400 . S
C1544 C1547 1.386 . S
H1545 C1561 0.930 . S
H1546 C1562 0.931 . S
C1547 H1535 0.929 . S
C1547 C1541 1.390 . S
C1547 C1544 1.386 . S
C1548 C1543 1.490 . S
C1548 C1550 1.395 . S
C1548 C1551 1.403 . S
H1549 C1555 0.930 . S
C1550 H1536 0.930 . S
C1550 C1548 1.395 . S
C1550 C1553 1.403 . S
C1551 C1548 1.403 . S
C1551 C1552 1.524 . S
C1551 C1555 1.400 . S
C1552 H1537 0.960 . S
C1552 H1538 0.960 . S
C1552 H1539 0.960 . S
C1552 C1551 1.524 . S
C1553 C1550 1.403 . S
C1553 C1554 1.392 . S
C1553 C1557 1.495 . S
C1554 C1553 1.392 . S
C1554 C1555 1.385 . S
C1554 C1556 1.478 . S
C1555 H1549 0.930 . S
C1555 C1551 1.400 . S
C1555 C1554 1.385 . S
C1556 C1554 1.478 . S
C1556 C1558 1.381 . S
C1556 C1562 1.383 . S
C1557 C1553 1.495 . S
C1557 H1563 0.959 . S
C1557 H1564 0.961 . S
C1557 H1565 0.960 . S
C1558 C1556 1.381 . S
C1558 C1559 1.394 . S
C1558 H1566 0.930 . S
C1559 C1558 1.394 . S
C1559 C1560 1.383 . S
C1559 H1567 0.929 . S
C1560 C1559 1.383 . S
C1560 C1561 1.377 . S
C1561 H1545 0.930 . S
C1561 C1560 1.377 . S
C1561 C1562 1.379 . S
C1562 H1546 0.931 . S
C1562 C1556 1.383 . S
C1562 C1561 1.379 . S
H1563 C1557 0.959 . S
H1564 C1557 0.961 . S
H1565 C1557 0.960 . S
H1566 C1558 0.930 . S
H1567 C1559 0.929 . S
H1568 C1576 0.929 . S
H1569 C1578 0.930 . S
H1570 C1580 0.930 . S
H1571 C1583 0.929 . S
H1572 C1586 0.930 . S
H1573 C1588 0.960 . S
H1574 C1588 0.960 . S
H1575 C1588 0.960 . S
C1576 H1568 0.929 . S
C1576 C1577 1.377 . S
C1576 C1578 1.384 . S
C1577 C1576 1.377 . S
C1577 C1583 1.390 . S
C1578 H1569 0.930 . S
C1578 C1576 1.384 . S
C1578 C1579 1.372 . S
C1579 C1578 1.372 . S
C1579 C1580 1.400 . S
C1579 C1584 1.490 . S
C1580 H1570 0.930 . S
C1580 C1579 1.400 . S
C1580 C1583 1.386 . S
H1581 C1597 0.930 . S
H1582 C1598 0.931 . S
C1583 H1571 0.929 . S
C1583 C1577 1.390 . S
C1583 C1580 1.386 . S
C1584 C1579 1.490 . S
C1584 C1586 1.395 . S
C1584 C1587 1.403 . S
H1585 C1591 0.930 . S
C1586 H1572 0.930 . S
C1586 C1584 1.395 . S
C1586 C1589 1.403 . S
C1587 C1584 1.403 . S
C1587 C1588 1.524 . S
C1587 C1591 1.400 . S
C1588 H1573 0.960 . S
C1588 H1574 0.960 . S
C1588 H1575 0.960 . S
C1588 C1587 1.524 . S
C1589 C1586 1.403 . S
C1589 C1590 1.392 . S
C1589 C1593 1.495 . S
C1590 C1589 1.392 . S
C1590 C1591 1.385 . S
C1590 C1592 1.478 . S
C1591 H1585 0.930 . S
C1591 C1587 1.400 . S
C1591 C1590 1.385 . S
C1592 C1590 1.478 . S
C1592 C1594 1.381 . S
C1592 C1598 1.383 . S
C1593 C1589 1.495 . S
C1593 H1599 0.959 . S
C1593 H1600 0.961 . S
C1593 H1601 0.960 . S
C1594 C1592 1.381 . S
C1594 C1595 1.394 . S
C1594 H1602 0.930 . S
C1595 C1594 1.394 . S
C1595 C1596 1.383 . S
C1595 H1603 0.929 . S
C1596 C1595 1.383 . S
C1596 C1597 1.377 . S
C1597 H1581 0.930 . S
C1597 C1596 1.377 . S
C1597 C1598 1.379 . S
C1598 H1582 0.931 . S
C1598 C1592 1.383 . S
C1598 C1597 1.379 . S
H1599 C1593 0.959 . S
H1600 C1593 0.961 . S
H1601 C1593 0.960 . S
H1602 C1594 0.930 . S
H1603 C1595 0.929 . S
H1604 C1612 0.929 . S
H1605 C1614 0.930 . S
H1606 C1616 0.930 . S
H1607 C1619 0.929 . S
H1608 C1622 0.930 . S
H1609 C1624 0.960 . S
H1610 C1624 0.960 . S
H1611 C1624 0.960 . S
C1612 H1604 0.929 . S
C1612 C1613 1.377 . S
C1612 C1614 1.384 . S
C1613 C1612 1.377 . S
C1613 C1619 1.390 . S
C1614 H1605 0.930 . S
C1614 C1612 1.384 . S
C1614 C1615 1.372 . S
C1615 C1614 1.372 . S
C1615 C1616 1.400 . S
C1615 C1620 1.490 . S
C1616 H1606 0.930 . S
C1616 C1615 1.400 . S
C1616 C1619 1.386 . S
H1617 C1633 0.930 . S
H1618 C1634 0.931 . S
C1619 H1607 0.929 . S
C1619 C1613 1.390 . S
C1619 C1616 1.386 . S
C1620 C1615 1.490 . S
C1620 C1622 1.395 . S
C1620 C1623 1.403 . S
H1621 C1627 0.930 . S
C1622 H1608 0.930 . S
C1622 C1620 1.395 . S
C1622 C1625 1.403 . S
C1623 C1620 1.403 . S
C1623 C1624 1.524 . S
C1623 C1627 1.400 . S
C1624 H1609 0.960 . S
C1624 H1610 0.960 . S
C1624 H1611 0.960 . S
C1624 C1623 1.524 . S
C1625 C1622 1.403 . S
C1625 C1626 1.392 . S
C1625 C1629 1.495 . S
C1626 C1625 1.392 . S
C1626 C1627 1.385 . S
C1626 C1628 1.478 1_455 S
C1627 H1621 0.930 . S
C1627 C1623 1.400 . S
C1627 C1626 1.385 . S
C1628 C1626 1.478 1_655 S
C1628 C1630 1.381 . S
C1628 C1634 1.383 . S
C1629 C1625 1.495 . S
C1629 H1635 0.959 . S
C1629 H1636 0.961 . S
C1629 H1637 0.960 . S
C1630 C1628 1.381 . S
C1630 C1631 1.394 . S
C1630 H1638 0.930 . S
C1631 C1630 1.394 . S
C1631 C1632 1.383 . S
C1631 H1639 0.929 . S
C1632 C1631 1.383 . S
C1632 C1633 1.377 . S
C1633 H1617 0.930 . S
C1633 C1632 1.377 . S
C1633 C1634 1.379 . S
C1634 H1618 0.931 . S
C1634 C1628 1.383 . S
C1634 C1633 1.379 . S
H1635 C1629 0.959 . S
H1636 C1629 0.961 . S
H1637 C1629 0.960 . S
H1638 C1630 0.930 . S
H1639 C1631 0.929 . S
H1640 C1648 0.929 . S
H1641 C1650 0.930 . S
H1642 C1652 0.930 . S
H1643 C1655 0.929 . S
H1644 C1658 0.930 . S
H1645 C1660 0.960 . S
H1646 C1660 0.960 . S
H1647 C1660 0.960 . S
C1648 H1640 0.929 . S
C1648 C1649 1.377 . S
C1648 C1650 1.384 . S
C1649 C1648 1.377 . S
C1649 C1655 1.390 . S
C1650 H1641 0.930 . S
C1650 C1648 1.384 . S
C1650 C1651 1.372 . S
C1651 C1650 1.372 . S
C1651 C1652 1.400 . S
C1651 C1656 1.490 . S
C1652 H1642 0.930 . S
C1652 C1651 1.400 . S
C1652 C1655 1.386 . S
H1653 C1669 0.930 . S
H1654 C1670 0.931 . S
C1655 H1643 0.929 . S
C1655 C1649 1.390 . S
C1655 C1652 1.386 . S
C1656 C1651 1.490 . S
C1656 C1658 1.395 . S
C1656 C1659 1.403 . S
H1657 C1663 0.930 . S
C1658 H1644 0.930 . S
C1658 C1656 1.395 . S
C1658 C1661 1.403 . S
C1659 C1656 1.403 . S
C1659 C1660 1.524 . S
C1659 C1663 1.400 . S
C1660 H1645 0.960 . S
C1660 H1646 0.960 . S
C1660 H1647 0.960 . S
C1660 C1659 1.524 . S
C1661 C1658 1.403 . S
C1661 C1662 1.392 . S
C1661 C1665 1.495 . S
C1662 C1661 1.392 . S
C1662 C1663 1.385 . S
C1662 C1664 1.478 . S
C1663 H1657 0.930 . S
C1663 C1659 1.400 . S
C1663 C1662 1.385 . S
C1664 C1662 1.478 . S
C1664 C1666 1.381 . S
C1664 C1670 1.383 . S
C1665 C1661 1.495 . S
C1665 H1671 0.959 . S
C1665 H1672 0.961 . S
C1665 H1673 0.960 . S
C1666 C1664 1.381 . S
C1666 C1667 1.394 . S
C1666 H1674 0.930 . S
C1667 C1666 1.394 . S
C1667 C1668 1.383 . S
C1667 H1675 0.929 . S
C1668 C1667 1.383 . S
C1668 C1669 1.377 . S
C1669 H1653 0.930 . S
C1669 C1668 1.377 . S
C1669 C1670 1.379 . S
C1670 H1654 0.931 . S
C1670 C1664 1.383 . S
C1670 C1669 1.379 . S
H1671 C1665 0.959 . S
H1672 C1665 0.961 . S
H1673 C1665 0.960 . S
H1674 C1666 0.930 . S
H1675 C1667 0.929 . S
H1676 C1684 0.929 . S
H1677 C1686 0.930 . S
H1678 C1688 0.930 . S
H1679 C1691 0.929 . S
H1680 C1694 0.930 . S
H1681 C1696 0.960 . S
H1682 C1696 0.960 . S
H1683 C1696 0.960 . S
C1684 H1676 0.929 . S
C1684 C1685 1.377 . S
C1684 C1686 1.384 . S
C1685 C1684 1.377 . S
C1685 C1691 1.390 . S
C1686 H1677 0.930 . S
C1686 C1684 1.384 . S
C1686 C1687 1.372 . S
C1687 C1686 1.372 . S
C1687 C1688 1.400 . S
C1687 C1692 1.490 . S
C1688 H1678 0.930 . S
C1688 C1687 1.400 . S
C1688 C1691 1.386 . S
H1689 C1705 0.930 . S
H1690 C1706 0.931 . S
C1691 H1679 0.929 . S
C1691 C1685 1.390 . S
C1691 C1688 1.386 . S
C1692 C1687 1.490 . S
C1692 C1694 1.395 . S
C1692 C1695 1.403 . S
H1693 C1699 0.930 . S
C1694 H1680 0.930 . S
C1694 C1692 1.395 . S
C1694 C1697 1.403 . S
C1695 C1692 1.403 . S
C1695 C1696 1.524 . S
C1695 C1699 1.400 . S
C1696 H1681 0.960 . S
C1696 H1682 0.960 . S
C1696 H1683 0.960 . S
C1696 C1695 1.524 . S
C1697 C1694 1.403 . S
C1697 C1698 1.392 . S
C1697 C1701 1.495 . S
C1698 C1697 1.392 . S
C1698 C1699 1.385 . S
C1698 C1700 1.478 . S
C1699 H1693 0.930 . S
C1699 C1695 1.400 . S
C1699 C1698 1.385 . S
C1700 C1698 1.478 . S
C1700 C1702 1.381 . S
C1700 C1706 1.383 . S
C1701 C1697 1.495 . S
C1701 H1707 0.959 . S
C1701 H1708 0.961 . S
C1701 H1709 0.960 . S
C1702 C1700 1.381 . S
C1702 C1703 1.394 . S
C1702 H1710 0.930 . S
C1703 C1702 1.394 . S
C1703 C1704 1.383 . S
C1703 H1711 0.929 . S
C1704 C1703 1.383 . S
C1704 C1705 1.377 . S
C1705 H1689 0.930 . S
C1705 C1704 1.377 . S
C1705 C1706 1.379 . S
C1706 H1690 0.931 . S
C1706 C1700 1.383 . S
C1706 C1705 1.379 . S
H1707 C1701 0.959 . S
H1708 C1701 0.961 . S
H1709 C1701 0.960 . S
H1710 C1702 0.930 . S
H1711 C1703 0.929 . S
H1712 C1720 0.929 . S
H1713 C1722 0.930 . S
H1714 C1724 0.930 . S
H1715 C1727 0.929 . S
H1716 C1730 0.930 . S
H1717 C1732 0.960 . S
H1718 C1732 0.960 . S
H1719 C1732 0.960 . S
C1720 H1712 0.929 . S
C1720 C1721 1.377 . S
C1720 C1722 1.384 . S
C1721 C1720 1.377 . S
C1721 C1727 1.390 . S
C1722 H1713 0.930 . S
C1722 C1720 1.384 . S
C1722 C1723 1.372 . S
C1723 C1722 1.372 . S
C1723 C1724 1.400 . S
C1723 C1728 1.490 . S
C1724 H1714 0.930 . S
C1724 C1723 1.400 . S
C1724 C1727 1.386 . S
H1725 C1741 0.930 . S
H1726 C1742 0.931 . S
C1727 H1715 0.929 . S
C1727 C1721 1.390 . S
C1727 C1724 1.386 . S
C1728 C1723 1.490 . S
C1728 C1730 1.395 . S
C1728 C1731 1.403 . S
H1729 C1735 0.930 . S
C1730 H1716 0.930 . S
C1730 C1728 1.395 . S
C1730 C1733 1.403 . S
C1731 C1728 1.403 . S
C1731 C1732 1.524 . S
C1731 C1735 1.400 . S
C1732 H1717 0.960 . S
C1732 H1718 0.960 . S
C1732 H1719 0.960 . S
C1732 C1731 1.524 . S
C1733 C1730 1.403 . S
C1733 C1734 1.392 . S
C1733 C1737 1.495 . S
C1734 C1733 1.392 . S
C1734 C1735 1.385 . S
C1734 C1736 1.478 . S
C1735 H1729 0.930 . S
C1735 C1731 1.400 . S
C1735 C1734 1.385 . S
C1736 C1734 1.478 . S
C1736 C1738 1.381 . S
C1736 C1742 1.383 . S
C1737 C1733 1.495 . S
C1737 H1743 0.959 . S
C1737 H1744 0.961 . S
C1737 H1745 0.960 . S
C1738 C1736 1.381 . S
C1738 C1739 1.394 . S
C1738 H1746 0.930 . S
C1739 C1738 1.394 . S
C1739 C1740 1.383 . S
C1739 H1747 0.929 . S
C1740 C1739 1.383 . S
C1740 C1741 1.377 . S
C1741 H1725 0.930 . S
C1741 C1740 1.377 . S
C1741 C1742 1.379 . S
C1742 H1726 0.931 . S
C1742 C1736 1.383 . S
C1742 C1741 1.379 . S
H1743 C1737 0.959 . S
H1744 C1737 0.961 . S
H1745 C1737 0.960 . S
H1746 C1738 0.930 . S
H1747 C1739 0.929 . S
H1748 C1756 0.929 . S
H1749 C1758 0.930 . S
H1750 C1760 0.930 . S
H1751 C1763 0.929 . S
H1752 C1766 0.930 . S
H1753 C1768 0.960 . S
H1754 C1768 0.960 . S
H1755 C1768 0.960 . S
C1756 H1748 0.929 . S
C1756 C1757 1.377 . S
C1756 C1758 1.384 . S
C1757 C1756 1.377 . S
C1757 C1763 1.390 . S
C1758 H1749 0.930 . S
C1758 C1756 1.384 . S
C1758 C1759 1.372 . S
C1759 C1758 1.372 . S
C1759 C1760 1.400 . S
C1759 C1764 1.490 . S
C1760 H1750 0.930 . S
C1760 C1759 1.400 . S
C1760 C1763 1.386 . S
H1761 C1777 0.930 . S
H1762 C1778 0.931 . S
C1763 H1751 0.929 . S
C1763 C1757 1.390 . S
C1763 C1760 1.386 . S
C1764 C1759 1.490 . S
C1764 C1766 1.395 . S
C1764 C1767 1.403 . S
H1765 C1771 0.930 . S
C1766 H1752 0.930 . S
C1766 C1764 1.395 . S
C1766 C1769 1.403 . S
C1767 C1764 1.403 . S
C1767 C1768 1.524 . S
C1767 C1771 1.400 . S
C1768 H1753 0.960 . S
C1768 H1754 0.960 . S
C1768 H1755 0.960 . S
C1768 C1767 1.524 . S
C1769 C1766 1.403 . S
C1769 C1770 1.392 . S
C1769 C1773 1.495 . S
C1770 C1769 1.392 . S
C1770 C1771 1.385 . S
C1770 C1772 1.478 . S
C1771 H1765 0.930 . S
C1771 C1767 1.400 . S
C1771 C1770 1.385 . S
C1772 C1770 1.478 . S
C1772 C1774 1.381 . S
C1772 C1778 1.383 . S
C1773 C1769 1.495 . S
C1773 H1779 0.959 . S
C1773 H1780 0.961 . S
C1773 H1781 0.960 . S
C1774 C1772 1.381 . S
C1774 C1775 1.394 . S
C1774 H1782 0.930 . S
C1775 C1774 1.394 . S
C1775 C1776 1.383 . S
C1775 H1783 0.929 . S
C1776 C1775 1.383 . S
C1776 C1777 1.377 . S
C1777 H1761 0.930 . S
C1777 C1776 1.377 . S
C1777 C1778 1.379 . S
C1778 H1762 0.931 . S
C1778 C1772 1.383 . S
C1778 C1777 1.379 . S
H1779 C1773 0.959 . S
H1780 C1773 0.961 . S
H1781 C1773 0.960 . S
H1782 C1774 0.930 . S
H1783 C1775 0.929 . S
H1784 C1792 0.929 . S
H1785 C1794 0.930 . S
H1786 C1796 0.930 . S
H1787 C1799 0.929 . S
H1788 C1802 0.930 . S
H1789 C1804 0.960 . S
H1790 C1804 0.960 . S
H1791 C1804 0.960 . S
C1792 H1784 0.929 . S
C1792 C1793 1.377 . S
C1792 C1794 1.384 . S
C1793 C1792 1.377 . S
C1793 C1799 1.390 . S
C1794 H1785 0.930 . S
C1794 C1792 1.384 . S
C1794 C1795 1.372 . S
C1795 C1794 1.372 . S
C1795 C1796 1.400 . S
C1795 C1800 1.490 . S
C1796 H1786 0.930 . S
C1796 C1795 1.400 . S
C1796 C1799 1.386 . S
H1797 C1813 0.930 . S
H1798 C1814 0.931 . S
C1799 H1787 0.929 . S
C1799 C1793 1.390 . S
C1799 C1796 1.386 . S
C1800 C1795 1.490 . S
C1800 C1802 1.395 . S
C1800 C1803 1.403 . S
H1801 C1807 0.930 . S
C1802 H1788 0.930 . S
C1802 C1800 1.395 . S
C1802 C1805 1.403 . S
C1803 C1800 1.403 . S
C1803 C1804 1.524 . S
C1803 C1807 1.400 . S
C1804 H1789 0.960 . S
C1804 H1790 0.960 . S
C1804 H1791 0.960 . S
C1804 C1803 1.524 . S
C1805 C1802 1.403 . S
C1805 C1806 1.392 . S
C1805 C1809 1.495 . S
C1806 C1805 1.392 . S
C1806 C1807 1.385 . S
C1806 C1808 1.478 . S
C1807 H1801 0.930 . S
C1807 C1803 1.400 . S
C1807 C1806 1.385 . S
C1808 C1806 1.478 . S
C1808 C1810 1.381 . S
C1808 C1814 1.383 . S
C1809 C1805 1.495 . S
C1809 H1815 0.959 . S
C1809 H1816 0.961 . S
C1809 H1817 0.960 . S
C1810 C1808 1.381 . S
C1810 C1811 1.394 . S
C1810 H1818 0.930 . S
C1811 C1810 1.394 . S
C1811 C1812 1.383 . S
C1811 H1819 0.929 . S
C1812 C1811 1.383 . S
C1812 C1813 1.377 . S
C1813 H1797 0.930 . S
C1813 C1812 1.377 . S
C1813 C1814 1.379 . S
C1814 H1798 0.931 . S
C1814 C1808 1.383 . S
C1814 C1813 1.379 . S
H1815 C1809 0.959 . S
H1816 C1809 0.961 . S
H1817 C1809 0.960 . S
H1818 C1810 0.930 . S
H1819 C1811 0.929 . S
H1820 C1828 0.929 . S
H1821 C1830 0.930 . S
H1822 C1832 0.930 . S
H1823 C1835 0.929 . S
H1824 C1838 0.930 . S
H1825 C1840 0.960 . S
H1826 C1840 0.960 . S
H1827 C1840 0.960 . S
C1828 H1820 0.929 . S
C1828 C1829 1.377 . S
C1828 C1830 1.384 . S
C1829 C1828 1.377 . S
C1829 C1835 1.390 . S
C1830 H1821 0.930 . S
C1830 C1828 1.384 . S
C1830 C1831 1.372 . S
C1831 C1830 1.372 . S
C1831 C1832 1.400 . S
C1831 C1836 1.490 . S
C1832 H1822 0.930 . S
C1832 C1831 1.400 . S
C1832 C1835 1.386 . S
H1833 C1849 0.930 . S
H1834 C1850 0.931 1_455 S
C1835 H1823 0.929 . S
C1835 C1829 1.390 . S
C1835 C1832 1.386 . S
C1836 C1831 1.490 . S
C1836 C1838 1.395 . S
C1836 C1839 1.403 . S
H1837 C1843 0.930 . S
C1838 H1824 0.930 . S
C1838 C1836 1.395 . S
C1838 C1841 1.403 . S
C1839 C1836 1.403 . S
C1839 C1840 1.524 . S
C1839 C1843 1.400 . S
C1840 H1825 0.960 . S
C1840 H1826 0.960 . S
C1840 H1827 0.960 . S
C1840 C1839 1.524 . S
C1841 C1838 1.403 . S
C1841 C1842 1.392 . S
C1841 C1845 1.495 . S
C1842 C1841 1.392 . S
C1842 C1843 1.385 . S
C1842 C1844 1.478 1_455 S
C1843 H1837 0.930 . S
C1843 C1839 1.400 . S
C1843 C1842 1.385 . S
C1844 C1842 1.478 1_655 S
C1844 C1846 1.381 . S
C1844 C1850 1.383 . S
C1845 C1841 1.495 . S
C1845 H1851 0.959 . S
C1845 H1852 0.961 . S
C1845 H1853 0.960 . S
C1846 C1844 1.381 . S
C1846 C1847 1.394 . S
C1846 H1854 0.930 . S
C1847 C1846 1.394 . S
C1847 C1848 1.383 . S
C1847 H1855 0.929 . S
C1848 C1847 1.383 . S
C1848 C1849 1.377 . S
C1849 H1833 0.930 . S
C1849 C1848 1.377 . S
C1849 C1850 1.379 . S
C1850 H1834 0.931 1_655 S
C1850 C1844 1.383 . S
C1850 C1849 1.379 . S
H1851 C1845 0.959 . S
H1852 C1845 0.961 . S
H1853 C1845 0.960 . S
H1854 C1846 0.930 . S
H1855 C1847 0.929 . S
H1856 C1864 0.929 . S
H1857 C1866 0.930 . S
H1858 C1868 0.930 . S
H1859 C1871 0.929 . S
H1860 C1874 0.930 . S
H1861 C1876 0.960 . S
H1862 C1876 0.960 . S
H1863 C1876 0.960 . S
C1864 H1856 0.929 . S
C1864 C1865 1.377 . S
C1864 C1866 1.384 . S
C1865 C1864 1.377 . S
C1865 C1871 1.390 . S
C1866 H1857 0.930 . S
C1866 C1864 1.384 . S
C1866 C1867 1.372 . S
C1867 C1866 1.372 . S
C1867 C1868 1.400 . S
C1867 C1872 1.490 . S
C1868 H1858 0.930 . S
C1868 C1867 1.400 . S
C1868 C1871 1.386 . S
H1869 C1885 0.930 . S
H1870 C1886 0.931 . S
C1871 H1859 0.929 . S
C1871 C1865 1.390 . S
C1871 C1868 1.386 . S
C1872 C1867 1.490 . S
C1872 C1874 1.395 . S
C1872 C1875 1.403 . S
H1873 C1879 0.930 . S
C1874 H1860 0.930 . S
C1874 C1872 1.395 . S
C1874 C1877 1.403 . S
C1875 C1872 1.403 . S
C1875 C1876 1.524 . S
C1875 C1879 1.400 . S
C1876 H1861 0.960 . S
C1876 H1862 0.960 . S
C1876 H1863 0.960 . S
C1876 C1875 1.524 . S
C1877 C1874 1.403 . S
C1877 C1878 1.392 . S
C1877 C1881 1.495 . S
C1878 C1877 1.392 . S
C1878 C1879 1.385 . S
C1878 C1880 1.478 . S
C1879 H1873 0.930 . S
C1879 C1875 1.400 . S
C1879 C1878 1.385 . S
C1880 C1878 1.478 . S
C1880 C1882 1.381 . S
C1880 C1886 1.383 . S
C1881 C1877 1.495 . S
C1881 H1887 0.959 . S
C1881 H1888 0.961 . S
C1881 H1889 0.960 . S
C1882 C1880 1.381 . S
C1882 C1883 1.394 . S
C1882 H1890 0.930 . S
C1883 C1882 1.394 . S
C1883 C1884 1.383 . S
C1883 H1891 0.929 . S
C1884 C1883 1.383 . S
C1884 C1885 1.377 . S
C1885 H1869 0.930 . S
C1885 C1884 1.377 . S
C1885 C1886 1.379 . S
C1886 H1870 0.931 . S
C1886 C1880 1.383 . S
C1886 C1885 1.379 . S
H1887 C1881 0.959 . S
H1888 C1881 0.961 . S
H1889 C1881 0.960 . S
H1890 C1882 0.930 . S
H1891 C1883 0.929 . S
H1892 C1900 0.929 . S
H1893 C1902 0.930 . S
H1894 C1904 0.930 . S
H1895 C1907 0.929 . S
H1896 C1910 0.930 . S
H1897 C1912 0.960 . S
H1898 C1912 0.960 . S
H1899 C1912 0.960 . S
C1900 H1892 0.929 . S
C1900 C1901 1.377 . S
C1900 C1902 1.384 . S
C1901 C1900 1.377 . S
C1901 C1907 1.390 . S
C1902 H1893 0.930 . S
C1902 C1900 1.384 . S
C1902 C1903 1.372 . S
C1903 C1902 1.372 . S
C1903 C1904 1.400 . S
C1903 C1908 1.490 1_455 S
C1904 H1894 0.930 . S
C1904 C1903 1.400 . S
C1904 C1907 1.386 . S
H1905 C1921 0.930 . S
H1906 C1922 0.931 . S
C1907 H1895 0.929 . S
C1907 C1901 1.390 . S
C1907 C1904 1.386 . S
C1908 C1903 1.490 1_655 S
C1908 C1910 1.395 . S
C1908 C1911 1.403 . S
H1909 C1915 0.930 . S
C1910 H1896 0.930 . S
C1910 C1908 1.395 . S
C1910 C1913 1.403 . S
C1911 C1908 1.403 . S
C1911 C1912 1.524 . S
C1911 C1915 1.400 . S
C1912 H1897 0.960 . S
C1912 H1898 0.960 . S
C1912 H1899 0.960 . S
C1912 C1911 1.524 . S
C1913 C1910 1.403 . S
C1913 C1914 1.392 . S
C1913 C1917 1.495 . S
C1914 C1913 1.392 . S
C1914 C1915 1.385 . S
C1914 C1916 1.478 . S
C1915 H1909 0.930 . S
C1915 C1911 1.400 . S
C1915 C1914 1.385 . S
C1916 C1914 1.478 . S
C1916 C1918 1.381 . S
C1916 C1922 1.383 . S
C1917 C1913 1.495 . S
C1917 H1923 0.959 . S
C1917 H1924 0.961 . S
C1917 H1925 0.960 . S
C1918 C1916 1.381 . S
C1918 C1919 1.394 . S
C1918 H1926 0.930 . S
C1919 C1918 1.394 . S
C1919 C1920 1.383 . S
C1919 H1927 0.929 . S
C1920 C1919 1.383 . S
C1920 C1921 1.377 . S
C1921 H1905 0.930 . S
C1921 C1920 1.377 . S
C1921 C1922 1.379 . S
C1922 H1906 0.931 . S
C1922 C1916 1.383 . S
C1922 C1921 1.379 . S
H1923 C1917 0.959 . S
H1924 C1917 0.961 . S
H1925 C1917 0.960 . S
H1926 C1918 0.930 . S
H1927 C1919 0.929 . S
H1928 C1936 0.929 . S
H1929 C1938 0.930 . S
H1930 C1940 0.930 . S
H1931 C1943 0.929 . S
H1932 C1946 0.930 . S
H1933 C1948 0.960 . S
H1934 C1948 0.960 . S
H1935 C1948 0.960 . S
C1936 H1928 0.929 . S
C1936 C1937 1.377 . S
C1936 C1938 1.384 . S
C1937 C1936 1.377 . S
C1937 C1943 1.390 . S
C1938 H1929 0.930 . S
C1938 C1936 1.384 . S
C1938 C1939 1.372 . S
C1939 C1938 1.372 . S
C1939 C1940 1.400 . S
C1939 C1944 1.490 . S
C1940 H1930 0.930 . S
C1940 C1939 1.400 . S
C1940 C1943 1.386 . S
H1941 C1957 0.930 . S
H1942 C1958 0.931 . S
C1943 H1931 0.929 . S
C1943 C1937 1.390 . S
C1943 C1940 1.386 . S
C1944 C1939 1.490 . S
C1944 C1946 1.395 . S
C1944 C1947 1.403 . S
H1945 C1951 0.930 . S
C1946 H1932 0.930 . S
C1946 C1944 1.395 . S
C1946 C1949 1.403 . S
C1947 C1944 1.403 . S
C1947 C1948 1.524 . S
C1947 C1951 1.400 . S
C1948 H1933 0.960 . S
C1948 H1934 0.960 . S
C1948 H1935 0.960 . S
C1948 C1947 1.524 . S
C1949 C1946 1.403 . S
C1949 C1950 1.392 . S
C1949 C1953 1.495 . S
C1950 C1949 1.392 . S
C1950 C1951 1.385 . S
C1950 C1952 1.478 . S
C1951 H1945 0.930 . S
C1951 C1947 1.400 . S
C1951 C1950 1.385 . S
C1952 C1950 1.478 . S
C1952 C1954 1.381 . S
C1952 C1958 1.383 . S
C1953 C1949 1.495 . S
C1953 H1959 0.959 . S
C1953 H1960 0.961 . S
C1953 H1961 0.960 . S
C1954 C1952 1.381 . S
C1954 C1955 1.394 . S
C1954 H1962 0.930 . S
C1955 C1954 1.394 . S
C1955 C1956 1.383 . S
C1955 H1963 0.929 . S
C1956 C1955 1.383 . S
C1956 C1957 1.377 . S
C1957 H1941 0.930 . S
C1957 C1956 1.377 . S
C1957 C1958 1.379 . S
C1958 H1942 0.931 . S
C1958 C1952 1.383 . S
C1958 C1957 1.379 . S
H1959 C1953 0.959 . S
H1960 C1953 0.961 . S
H1961 C1953 0.960 . S
H1962 C1954 0.930 . S
H1963 C1955 0.929 . S
H1964 C1972 0.929 . S
H1965 C1974 0.930 . S
H1966 C1976 0.930 . S
H1967 C1979 0.929 . S
H1968 C1982 0.930 . S
H1969 C1984 0.960 . S
H1970 C1984 0.960 . S
H1971 C1984 0.960 . S
C1972 H1964 0.929 . S
C1972 C1973 1.377 . S
C1972 C1974 1.384 . S
C1973 C1972 1.377 . S
C1973 C1979 1.390 . S
C1974 H1965 0.930 . S
C1974 C1972 1.384 . S
C1974 C1975 1.372 . S
C1975 C1974 1.372 . S
C1975 C1976 1.400 . S
C1975 C1980 1.490 . S
C1976 H1966 0.930 . S
C1976 C1975 1.400 . S
C1976 C1979 1.386 . S
H1977 C1993 0.930 . S
H1978 C1994 0.931 . S
C1979 H1967 0.929 . S
C1979 C1973 1.390 . S
C1979 C1976 1.386 . S
C1980 C1975 1.490 . S
C1980 C1982 1.395 . S
C1980 C1983 1.403 . S
H1981 C1987 0.930 . S
C1982 H1968 0.930 . S
C1982 C1980 1.395 . S
C1982 C1985 1.403 . S
C1983 C1980 1.403 . S
C1983 C1984 1.524 . S
C1983 C1987 1.400 . S
C1984 H1969 0.960 . S
C1984 H1970 0.960 . S
C1984 H1971 0.960 . S
C1984 C1983 1.524 . S
C1985 C1982 1.403 . S
C1985 C1986 1.392 . S
C1985 C1989 1.495 . S
C1986 C1985 1.392 . S
C1986 C1987 1.385 . S
C1986 C1988 1.478 . S
C1987 H1981 0.930 . S
C1987 C1983 1.400 . S
C1987 C1986 1.385 . S
C1988 C1986 1.478 . S
C1988 C1990 1.381 . S
C1988 C1994 1.383 . S
C1989 C1985 1.495 . S
C1989 H1995 0.959 . S
C1989 H1996 0.961 . S
C1989 H1997 0.960 . S
C1990 C1988 1.381 . S
C1990 C1991 1.394 . S
C1990 H1998 0.930 . S
C1991 C1990 1.394 . S
C1991 C1992 1.383 . S
C1991 H1999 0.929 . S
C1992 C1991 1.383 . S
C1992 C1993 1.377 . S
C1993 H1977 0.930 . S
C1993 C1992 1.377 . S
C1993 C1994 1.379 . S
C1994 H1978 0.931 . S
C1994 C1988 1.383 . S
C1994 C1993 1.379 . S
H1995 C1989 0.959 . S
H1996 C1989 0.961 . S
H1997 C1989 0.960 . S
H1998 C1990 0.930 . S
H1999 C1991 0.929 . S
H2000 C2008 0.929 . S
H2001 C2010 0.930 . S
H2002 C2012 0.930 . S
H2003 C2015 0.929 . S
H2004 C2018 0.930 . S
H2005 C2020 0.960 . S
H2006 C2020 0.960 . S
H2007 C2020 0.960 . S
C2008 H2000 0.929 . S
C2008 C2009 1.377 . S
C2008 C2010 1.384 . S
C2009 C2008 1.377 . S
C2009 C2015 1.390 . S
C2010 H2001 0.930 . S
C2010 C2008 1.384 . S
C2010 C2011 1.372 . S
C2011 C2010 1.372 . S
C2011 C2012 1.400 . S
C2011 C2016 1.490 . S
C2012 H2002 0.930 . S
C2012 C2011 1.400 . S
C2012 C2015 1.386 . S
H2013 C2029 0.930 . S
H2014 C2030 0.931 . S
C2015 H2003 0.929 . S
C2015 C2009 1.390 . S
C2015 C2012 1.386 . S
C2016 C2011 1.490 . S
C2016 C2018 1.395 . S
C2016 C2019 1.403 . S
H2017 C2023 0.930 . S
C2018 H2004 0.930 . S
C2018 C2016 1.395 . S
C2018 C2021 1.403 . S
C2019 C2016 1.403 . S
C2019 C2020 1.524 . S
C2019 C2023 1.400 . S
C2020 H2005 0.960 . S
C2020 H2006 0.960 . S
C2020 H2007 0.960 . S
C2020 C2019 1.524 . S
C2021 C2018 1.403 . S
C2021 C2022 1.392 . S
C2021 C2025 1.495 . S
C2022 C2021 1.392 . S
C2022 C2023 1.385 . S
C2022 C2024 1.478 . S
C2023 H2017 0.930 . S
C2023 C2019 1.400 . S
C2023 C2022 1.385 . S
C2024 C2022 1.478 . S
C2024 C2026 1.381 . S
C2024 C2030 1.383 . S
C2025 C2021 1.495 . S
C2025 H2031 0.959 . S
C2025 H2032 0.961 . S
C2025 H2033 0.960 . S
C2026 C2024 1.381 . S
C2026 C2027 1.394 . S
C2026 H2034 0.930 . S
C2027 C2026 1.394 . S
C2027 C2028 1.383 . S
C2027 H2035 0.929 . S
C2028 C2027 1.383 . S
C2028 C2029 1.377 . S
C2029 H2013 0.930 . S
C2029 C2028 1.377 . S
C2029 C2030 1.379 . S
C2030 H2014 0.931 . S
C2030 C2024 1.383 . S
C2030 C2029 1.379 . S
H2031 C2025 0.959 . S
H2032 C2025 0.961 . S
H2033 C2025 0.960 . S
H2034 C2026 0.930 . S
H2035 C2027 0.929 . S
H2036 C2044 0.929 . S
H2037 C2046 0.930 . S
H2038 C2048 0.930 . S
H2039 C2051 0.929 . S
H2040 C2054 0.930 . S
H2041 C2056 0.960 . S
H2042 C2056 0.960 . S
H2043 C2056 0.960 . S
C2044 H2036 0.929 . S
C2044 C2045 1.377 . S
C2044 C2046 1.384 . S
C2045 C2044 1.377 . S
C2045 C2051 1.390 . S
C2046 H2037 0.930 . S
C2046 C2044 1.384 . S
C2046 C2047 1.372 . S
C2047 C2046 1.372 . S
C2047 C2048 1.400 . S
C2047 C2052 1.490 . S
C2048 H2038 0.930 . S
C2048 C2047 1.400 . S
C2048 C2051 1.386 . S
H2049 C2065 0.930 . S
H2050 C2066 0.931 . S
C2051 H2039 0.929 . S
C2051 C2045 1.390 . S
C2051 C2048 1.386 . S
C2052 C2047 1.490 . S
C2052 C2054 1.395 . S
C2052 C2055 1.403 . S
H2053 C2059 0.930 . S
C2054 H2040 0.930 . S
C2054 C2052 1.395 . S
C2054 C2057 1.403 . S
C2055 C2052 1.403 . S
C2055 C2056 1.524 . S
C2055 C2059 1.400 . S
C2056 H2041 0.960 . S
C2056 H2042 0.960 . S
C2056 H2043 0.960 . S
C2056 C2055 1.524 . S
C2057 C2054 1.403 . S
C2057 C2058 1.392 . S
C2057 C2061 1.495 . S
C2058 C2057 1.392 . S
C2058 C2059 1.385 . S
C2058 C2060 1.478 . S
C2059 H2053 0.930 . S
C2059 C2055 1.400 . S
C2059 C2058 1.385 . S
C2060 C2058 1.478 . S
C2060 C2062 1.381 . S
C2060 C2066 1.383 . S
C2061 C2057 1.495 . S
C2061 H2067 0.959 . S
C2061 H2068 0.961 . S
C2061 H2069 0.960 . S
C2062 C2060 1.381 . S
C2062 C2063 1.394 . S
C2062 H2070 0.930 . S
C2063 C2062 1.394 . S
C2063 C2064 1.383 . S
C2063 H2071 0.929 . S
C2064 C2063 1.383 . S
C2064 C2065 1.377 . S
C2065 H2049 0.930 . S
C2065 C2064 1.377 . S
C2065 C2066 1.379 . S
C2066 H2050 0.931 . S
C2066 C2060 1.383 . S
C2066 C2065 1.379 . S
H2067 C2061 0.959 . S
H2068 C2061 0.961 . S
H2069 C2061 0.960 . S
H2070 C2062 0.930 . S
H2071 C2063 0.929 . S
H2072 C2080 0.929 . S
H2073 C2082 0.930 . S
H2074 C2084 0.930 . S
H2075 C2087 0.929 . S
H2076 C2090 0.930 . S
H2077 C2092 0.960 . S
H2078 C2092 0.960 . S
H2079 C2092 0.960 . S
C2080 H2072 0.929 . S
C2080 C2081 1.377 . S
C2080 C2082 1.384 . S
C2081 C2080 1.377 . S
C2081 C2087 1.390 . S
C2082 H2073 0.930 . S
C2082 C2080 1.384 . S
C2082 C2083 1.372 . S
C2083 C2082 1.372 . S
C2083 C2084 1.400 . S
C2083 C2088 1.490 . S
C2084 H2074 0.930 . S
C2084 C2083 1.400 . S
C2084 C2087 1.386 . S
H2085 C2101 0.930 . S
H2086 C2102 0.931 . S
C2087 H2075 0.929 . S
C2087 C2081 1.390 . S
C2087 C2084 1.386 . S
C2088 C2083 1.490 . S
C2088 C2090 1.395 . S
C2088 C2091 1.403 . S
H2089 C2095 0.930 . S
C2090 H2076 0.930 . S
C2090 C2088 1.395 . S
C2090 C2093 1.403 . S
C2091 C2088 1.403 . S
C2091 C2092 1.524 . S
C2091 C2095 1.400 . S
C2092 H2077 0.960 . S
C2092 H2078 0.960 . S
C2092 H2079 0.960 . S
C2092 C2091 1.524 . S
C2093 C2090 1.403 . S
C2093 C2094 1.392 . S
C2093 C2097 1.495 . S
C2094 C2093 1.392 . S
C2094 C2095 1.385 . S
C2094 C2096 1.478 . S
C2095 H2089 0.930 . S
C2095 C2091 1.400 . S
C2095 C2094 1.385 . S
C2096 C2094 1.478 . S
C2096 C2098 1.381 . S
C2096 C2102 1.383 . S
C2097 C2093 1.495 . S
C2097 H2103 0.959 . S
C2097 H2104 0.961 . S
C2097 H2105 0.960 . S
C2098 C2096 1.381 . S
C2098 C2099 1.394 . S
C2098 H2106 0.930 . S
C2099 C2098 1.394 . S
C2099 C2100 1.383 . S
C2099 H2107 0.929 . S
C2100 C2099 1.383 . S
C2100 C2101 1.377 . S
C2101 H2085 0.930 . S
C2101 C2100 1.377 . S
C2101 C2102 1.379 . S
C2102 H2086 0.931 . S
C2102 C2096 1.383 . S
C2102 C2101 1.379 . S
H2103 C2097 0.959 . S
H2104 C2097 0.961 . S
H2105 C2097 0.960 . S
H2106 C2098 0.930 . S
H2107 C2099 0.929 . S
H2108 C2116 0.929 . S
H2109 C2118 0.930 . S
H2110 C2120 0.940 . S
H2111 C2123 0.929 . S
H2112 C2126 0.930 . S
H2113 C2128 0.960 . S
H2114 C2128 0.960 . S
H2115 C2128 0.960 . S
C2116 H2108 0.929 . S
C2116 C2117 1.377 . S
C2116 C2118 1.384 . S
C2117 C2116 1.377 . S
C2117 C2123 1.390 . S
C2118 H2109 0.930 . S
C2118 C2116 1.384 . S
C2118 C2119 1.372 . S
C2119 C2118 1.372 . S
C2119 C2120 1.400 . S
C2119 C2124 1.490 1_455 S
C2120 H2110 0.940 . S
C2120 C2119 1.400 . S
C2120 C2123 1.386 . S
H2121 C2137 0.930 . S
H2122 C2138 0.931 . S
C2123 H2111 0.929 . S
C2123 C2117 1.390 . S
C2123 C2120 1.386 . S
C2124 C2119 1.490 1_655 S
C2124 C2126 1.395 . S
C2124 C2127 1.403 . S
H2125 C2131 0.930 . S
C2126 H2112 0.930 . S
C2126 C2124 1.395 . S
C2126 C2129 1.403 . S
C2127 C2124 1.403 . S
C2127 C2128 1.524 . S
C2127 C2131 1.400 . S
C2128 H2113 0.960 . S
C2128 H2114 0.960 . S
C2128 H2115 0.960 . S
C2128 C2127 1.524 . S
C2129 C2126 1.403 . S
C2129 C2130 1.392 . S
C2129 C2133 1.495 . S
C2130 C2129 1.392 . S
C2130 C2131 1.385 . S
C2130 C2132 1.478 . S
C2131 H2125 0.930 . S
C2131 C2127 1.400 . S
C2131 C2130 1.385 . S
C2132 C2130 1.478 . S
C2132 C2134 1.381 . S
C2132 C2138 1.383 . S
C2133 C2129 1.495 . S
C2133 H2139 0.959 . S
C2133 H2140 0.961 . S
C2133 H2141 0.960 . S
C2134 C2132 1.381 . S
C2134 C2135 1.394 . S
C2134 H2142 0.930 . S
C2135 C2134 1.394 . S
C2135 C2136 1.383 . S
C2135 H2143 0.929 . S
C2136 C2135 1.383 . S
C2136 C2137 1.377 . S
C2137 H2121 0.930 . S
C2137 C2136 1.377 . S
C2137 C2138 1.379 . S
C2138 H2122 0.931 . S
C2138 C2132 1.383 . S
C2138 C2137 1.379 . S
H2139 C2133 0.959 . S
H2140 C2133 0.961 . S
H2141 C2133 0.960 . S
H2142 C2134 0.930 . S
H2143 C2135 0.929 . S
H2144 C2152 0.929 . S
H2145 C2154 0.930 . S
H2146 C2156 0.930 . S
H2147 C2159 0.929 . S
H2148 C2162 0.930 . S
H2149 C2164 0.960 . S
H2150 C2164 0.960 . S
H2151 C2164 0.960 . S
C2152 H2144 0.929 . S
C2152 C2153 1.377 . S
C2152 C2154 1.384 . S
C2153 C2152 1.377 . S
C2153 C2159 1.390 . S
C2154 H2145 0.930 . S
C2154 C2152 1.384 . S
C2154 C2155 1.372 . S
C2155 C2154 1.372 . S
C2155 C2156 1.400 . S
C2155 C2160 1.490 . S
C2156 H2146 0.930 . S
C2156 C2155 1.400 . S
C2156 C2159 1.386 . S
H2157 C2173 0.930 . S
H2158 C2174 0.931 . S
C2159 H2147 0.929 . S
C2159 C2153 1.390 . S
C2159 C2156 1.386 . S
C2160 C2155 1.490 . S
C2160 C2162 1.395 . S
C2160 C2163 1.403 . S
H2161 C2167 0.930 . S
C2162 H2148 0.930 . S
C2162 C2160 1.395 . S
C2162 C2165 1.403 . S
C2163 C2160 1.403 . S
C2163 C2164 1.524 . S
C2163 C2167 1.400 . S
C2164 H2149 0.960 . S
C2164 H2150 0.960 . S
C2164 H2151 0.960 . S
C2164 C2163 1.524 . S
C2165 C2162 1.403 . S
C2165 C2166 1.392 . S
C2165 C2169 1.495 . S
C2166 C2165 1.392 . S
C2166 C2167 1.385 . S
C2166 C2168 1.478 . S
C2167 H2161 0.930 . S
C2167 C2163 1.400 . S
C2167 C2166 1.385 . S
C2168 C2166 1.478 . S
C2168 C2170 1.381 . S
C2168 C2174 1.383 . S
C2169 C2165 1.495 . S
C2169 H2175 0.959 . S
C2169 H2176 0.961 . S
C2169 H2177 0.960 . S
C2170 C2168 1.381 . S
C2170 C2171 1.394 . S
C2170 H2178 0.930 . S
C2171 C2170 1.394 . S
C2171 C2172 1.383 . S
C2171 H2179 0.929 . S
C2172 C2171 1.383 . S
C2172 C2173 1.377 . S
C2173 H2157 0.930 . S
C2173 C2172 1.377 . S
C2173 C2174 1.379 . S
C2174 H2158 0.931 . S
C2174 C2168 1.383 . S
C2174 C2173 1.379 . S
H2175 C2169 0.959 . S
H2176 C2169 0.961 . S
H2177 C2169 0.960 . S
H2178 C2170 0.930 . S
H2179 C2171 0.929 . S
H2180 C2188 0.929 . S
H2181 C2190 0.930 . S
H2182 C2192 0.930 . S
H2183 C2195 0.929 . S
H2184 C2198 0.930 . S
H2185 C2200 0.960 . S
H2186 C2200 0.960 . S
H2187 C2200 0.960 . S
C2188 H2180 0.929 . S
C2188 C2189 1.377 . S
C2188 C2190 1.384 . S
C2189 C2188 1.377 . S
C2189 C2195 1.390 . S
C2190 H2181 0.930 . S
C2190 C2188 1.384 . S
C2190 C2191 1.372 . S
C2191 C2190 1.372 . S
C2191 C2192 1.400 . S
C2191 C2196 1.490 . S
C2192 H2182 0.930 . S
C2192 C2191 1.400 . S
C2192 C2195 1.386 . S
H2193 C2209 0.930 . S
H2194 C2210 0.931 . S
C2195 H2183 0.929 . S
C2195 C2189 1.390 . S
C2195 C2192 1.386 . S
C2196 C2191 1.490 . S
C2196 C2198 1.395 . S
C2196 C2199 1.403 . S
H2197 C2203 0.930 . S
C2198 H2184 0.930 . S
C2198 C2196 1.395 . S
C2198 C2201 1.403 . S
C2199 C2196 1.403 . S
C2199 C2200 1.524 . S
C2199 C2203 1.400 . S
C2200 H2185 0.960 . S
C2200 H2186 0.960 . S
C2200 H2187 0.960 . S
C2200 C2199 1.524 . S
C2201 C2198 1.403 . S
C2201 C2202 1.392 . S
C2201 C2205 1.495 . S
C2202 C2201 1.392 . S
C2202 C2203 1.385 . S
C2202 C2204 1.478 . S
C2203 H2197 0.930 . S
C2203 C2199 1.400 . S
C2203 C2202 1.385 . S
C2204 C2202 1.478 . S
C2204 C2206 1.381 . S
C2204 C2210 1.383 . S
C2205 C2201 1.495 . S
C2205 H2211 0.959 . S
C2205 H2212 0.961 . S
C2205 H2213 0.960 . S
C2206 C2204 1.381 . S
C2206 C2207 1.394 . S
C2206 H2214 0.930 . S
C2207 C2206 1.394 . S
C2207 C2208 1.383 . S
C2207 H2215 0.929 . S
C2208 C2207 1.383 . S
C2208 C2209 1.377 . S
C2209 H2193 0.930 . S
C2209 C2208 1.377 . S
C2209 C2210 1.379 . S
C2210 H2194 0.931 . S
C2210 C2204 1.383 . S
C2210 C2209 1.379 . S
H2211 C2205 0.959 . S
H2212 C2205 0.961 . S
H2213 C2205 0.960 . S
H2214 C2206 0.930 . S
H2215 C2207 0.929 . S
H2216 C2224 0.929 . S
H2217 C2226 0.930 . S
H2218 C2228 0.930 . S
H2219 C2231 0.929 . S
H2220 C2234 0.930 . S
H2221 C2236 0.960 . S
H2222 C2236 0.960 . S
H2223 C2236 0.960 . S
C2224 H2216 0.929 . S
C2224 C2225 1.377 . S
C2224 C2226 1.384 . S
C2225 C2224 1.377 . S
C2225 C2231 1.390 . S
C2226 H2217 0.930 . S
C2226 C2224 1.384 . S
C2226 C2227 1.372 . S
C2227 C2226 1.372 . S
C2227 C2228 1.400 . S
C2227 C2232 1.490 . S
C2228 H2218 0.930 . S
C2228 C2227 1.400 . S
C2228 C2231 1.386 . S
H2229 C2245 0.930 . S
H2230 C2246 0.931 . S
C2231 H2219 0.929 . S
C2231 C2225 1.390 . S
C2231 C2228 1.386 . S
C2232 C2227 1.490 . S
C2232 C2234 1.395 . S
C2232 C2235 1.403 . S
H2233 C2239 0.930 . S
C2234 H2220 0.930 . S
C2234 C2232 1.395 . S
C2234 C2237 1.403 . S
C2235 C2232 1.403 . S
C2235 C2236 1.524 . S
C2235 C2239 1.400 . S
C2236 H2221 0.960 . S
C2236 H2222 0.960 . S
C2236 H2223 0.960 . S
C2236 C2235 1.524 . S
C2237 C2234 1.403 . S
C2237 C2238 1.392 . S
C2237 C2241 1.495 . S
C2238 C2237 1.392 . S
C2238 C2239 1.385 . S
C2238 C2240 1.478 . S
C2239 H2233 0.930 . S
C2239 C2235 1.400 . S
C2239 C2238 1.385 . S
C2240 C2238 1.478 . S
C2240 C2242 1.381 . S
C2240 C2246 1.383 . S
C2241 C2237 1.495 . S
C2241 H2247 0.959 . S
C2241 H2248 0.961 . S
C2241 H2249 0.960 . S
C2242 C2240 1.381 . S
C2242 C2243 1.394 . S
C2242 H2250 0.930 . S
C2243 C2242 1.394 . S
C2243 C2244 1.383 . S
C2243 H2251 0.929 . S
C2244 C2243 1.383 . S
C2244 C2245 1.377 . S
C2245 H2229 0.930 . S
C2245 C2244 1.377 . S
C2245 C2246 1.379 . S
C2246 H2230 0.931 . S
C2246 C2240 1.383 . S
C2246 C2245 1.379 . S
H2247 C2241 0.959 . S
H2248 C2241 0.961 . S
H2249 C2241 0.960 . S
H2250 C2242 0.930 . S
H2251 C2243 0.929 . S
H2252 C2260 0.929 . S
H2253 C2262 0.930 . S
H2254 C2264 0.930 . S
H2255 C2267 0.929 . S
H2256 C2270 0.930 . S
H2257 C2272 0.960 . S
H2258 C2272 0.960 . S
H2259 C2272 0.960 . S
C2260 H2252 0.929 . S
C2260 C2261 1.377 . S
C2260 C2262 1.384 . S
C2261 C2260 1.377 . S
C2261 C2267 1.390 . S
C2262 H2253 0.930 . S
C2262 C2260 1.384 . S
C2262 C2263 1.372 . S
C2263 C2262 1.372 . S
C2263 C2264 1.400 . S
C2263 C2268 1.490 . S
C2264 H2254 0.930 . S
C2264 C2263 1.400 . S
C2264 C2267 1.386 . S
H2265 C2281 0.930 . S
H2266 C2282 0.931 . S
C2267 H2255 0.929 . S
C2267 C2261 1.390 . S
C2267 C2264 1.386 . S
C2268 C2263 1.490 . S
C2268 C2270 1.395 . S
C2268 C2271 1.403 . S
H2269 C2275 0.930 . S
C2270 H2256 0.930 . S
C2270 C2268 1.395 . S
C2270 C2273 1.403 . S
C2271 C2268 1.403 . S
C2271 C2272 1.524 . S
C2271 C2275 1.400 . S
C2272 H2257 0.960 . S
C2272 H2258 0.960 . S
C2272 H2259 0.960 . S
C2272 C2271 1.524 . S
C2273 C2270 1.403 . S
C2273 C2274 1.392 . S
C2273 C2277 1.495 . S
C2274 C2273 1.392 . S
C2274 C2275 1.385 . S
C2274 C2276 1.478 1_655 S
C2275 H2269 0.930 . S
C2275 C2271 1.400 . S
C2275 C2274 1.385 . S
C2276 C2274 1.478 1_455 S
C2276 C2278 1.381 . S
C2276 C2282 1.383 . S
C2277 C2273 1.495 . S
C2277 H2283 0.959 . S
C2277 H2284 0.961 1_655 S
C2277 H2285 0.960 1_655 S
C2278 C2276 1.381 . S
C2278 C2279 1.394 . S
C2278 H2286 0.930 . S
C2279 C2278 1.394 . S
C2279 C2280 1.383 . S
C2279 H2287 0.929 . S
C2280 C2279 1.383 . S
C2280 C2281 1.377 . S
C2281 H2265 0.930 . S
C2281 C2280 1.377 . S
C2281 C2282 1.379 . S
C2282 H2266 0.931 . S
C2282 C2276 1.383 . S
C2282 C2281 1.379 . S
H2283 C2277 0.959 . S
H2284 C2277 0.961 1_455 S
H2285 C2277 0.960 1_455 S
H2286 C2278 0.930 . S
H2287 C2279 0.929 . S
H2288 C2296 0.929 . S
H2289 C2298 0.930 . S
H2290 C2300 0.930 . S
H2291 C2303 0.929 . S
H2292 C2306 0.930 . S
H2293 C2308 0.960 . S
H2294 C2308 0.960 . S
H2295 C2308 0.960 . S
C2296 H2288 0.929 . S
C2296 C2297 1.377 . S
C2296 C2298 1.384 . S
C2297 C2296 1.377 . S
C2297 C2303 1.390 . S
C2298 H2289 0.930 . S
C2298 C2296 1.384 . S
C2298 C2299 1.372 . S
C2299 C2298 1.372 . S
C2299 C2300 1.400 . S
C2299 C2304 1.490 . S
C2300 H2290 0.930 . S
C2300 C2299 1.400 . S
C2300 C2303 1.386 . S
H2301 C2317 0.930 . S
H2302 C2318 0.931 . S
C2303 H2291 0.929 . S
C2303 C2297 1.390 . S
C2303 C2300 1.386 . S
C2304 C2299 1.490 . S
C2304 C2306 1.395 . S
C2304 C2307 1.403 . S
H2305 C2311 0.930 . S
C2306 H2292 0.930 . S
C2306 C2304 1.395 . S
C2306 C2309 1.403 . S
C2307 C2304 1.403 . S
C2307 C2308 1.524 . S
C2307 C2311 1.400 . S
C2308 H2293 0.960 . S
C2308 H2294 0.960 . S
C2308 H2295 0.960 . S
C2308 C2307 1.524 . S
C2309 C2306 1.403 . S
C2309 C2310 1.392 . S
C2309 C2313 1.495 . S
C2310 C2309 1.392 . S
C2310 C2311 1.385 . S
C2310 C2312 1.478 . S
C2311 H2305 0.930 . S
C2311 C2307 1.400 . S
C2311 C2310 1.385 . S
C2312 C2310 1.478 . S
C2312 C2314 1.381 . S
C2312 C2318 1.383 . S
C2313 C2309 1.495 . S
C2313 H2319 0.959 . S
C2313 H2320 0.961 . S
C2313 H2321 0.960 . S
C2314 C2312 1.381 . S
C2314 C2315 1.394 . S
C2314 H2322 0.930 . S
C2315 C2314 1.394 . S
C2315 C2316 1.383 . S
C2315 H2323 0.929 . S
C2316 C2315 1.383 . S
C2316 C2317 1.377 . S
C2317 H2301 0.930 . S
C2317 C2316 1.377 . S
C2317 C2318 1.379 . S
C2318 H2302 0.931 . S
C2318 C2312 1.383 . S
C2318 C2317 1.379 . S
H2319 C2313 0.959 . S
H2320 C2313 0.961 . S
H2321 C2313 0.960 . S
H2322 C2314 0.930 . S
H2323 C2315 0.929 . S
H2324 C2332 0.929 . S
H2325 C2334 0.930 . S
H2326 C2336 0.930 . S
H2327 C2339 0.929 . S
H2328 C2342 0.930 . S
H2329 C2344 0.960 . S
H2330 C2344 0.960 . S
H2331 C2344 0.960 . S
C2332 H2324 0.929 . S
C2332 C2333 1.377 . S
C2332 C2334 1.384 . S
C2333 C2332 1.377 . S
C2333 C2339 1.390 . S
C2334 H2325 0.930 . S
C2334 C2332 1.384 . S
C2334 C2335 1.372 . S
C2335 C2334 1.372 . S
C2335 C2336 1.400 . S
C2335 C2340 1.490 1_455 S
C2336 H2326 0.930 . S
C2336 C2335 1.400 . S
C2336 C2339 1.386 . S
H2337 C2353 0.930 . S
H2338 C2354 0.931 . S
C2339 H2327 0.929 . S
C2339 C2333 1.390 . S
C2339 C2336 1.386 . S
C2340 C2335 1.490 1_655 S
C2340 C2342 1.395 . S
C2340 C2343 1.403 . S
H2341 C2347 0.930 . S
C2342 H2328 0.930 . S
C2342 C2340 1.395 . S
C2342 C2345 1.403 . S
C2343 C2340 1.403 . S
C2343 C2344 1.524 . S
C2343 C2347 1.400 . S
C2344 H2329 0.960 . S
C2344 H2330 0.960 . S
C2344 H2331 0.960 . S
C2344 C2343 1.524 . S
C2345 C2342 1.403 . S
C2345 C2346 1.392 . S
C2345 C2349 1.495 . S
C2346 C2345 1.392 . S
C2346 C2347 1.385 . S
C2346 C2348 1.478 . S
C2347 H2341 0.930 . S
C2347 C2343 1.400 . S
C2347 C2346 1.385 . S
C2348 C2346 1.478 . S
C2348 C2350 1.381 . S
C2348 C2354 1.383 . S
C2349 C2345 1.495 . S
C2349 H2355 0.959 . S
C2349 H2356 0.961 . S
C2349 H2357 0.960 . S
C2350 C2348 1.381 . S
C2350 C2351 1.394 . S
C2350 H2358 0.930 . S
C2351 C2350 1.394 . S
C2351 C2352 1.383 . S
C2351 H2359 0.929 . S
C2352 C2351 1.383 . S
C2352 C2353 1.377 . S
C2353 H2337 0.930 . S
C2353 C2352 1.377 . S
C2353 C2354 1.379 . S
C2354 H2338 0.931 . S
C2354 C2348 1.383 . S
C2354 C2353 1.379 . S
H2355 C2349 0.959 . S
H2356 C2349 0.961 . S
H2357 C2349 0.960 . S
H2358 C2350 0.930 . S
H2359 C2351 0.929 . S
H2360 C2368 0.929 . S
H2361 C2370 0.930 . S
H2362 C2372 0.930 . S
H2363 C2375 0.929 . S
H2364 C2378 0.930 . S
H2365 C2380 0.960 . S
H2366 C2380 0.960 . S
H2367 C2380 0.960 . S
C2368 H2360 0.929 . S
C2368 C2369 1.377 . S
C2368 C2370 1.384 . S
C2369 C2368 1.377 . S
C2369 C2375 1.390 . S
C2370 H2361 0.930 . S
C2370 C2368 1.384 . S
C2370 C2371 1.372 . S
C2371 C2370 1.372 . S
C2371 C2372 1.400 . S
C2371 C2376 1.490 . S
C2372 H2362 0.930 . S
C2372 C2371 1.400 . S
C2372 C2375 1.386 . S
H2373 C2389 0.930 . S
H2374 C2390 0.931 . S
C2375 H2363 0.929 . S
C2375 C2369 1.390 . S
C2375 C2372 1.386 . S
C2376 C2371 1.490 . S
C2376 C2378 1.395 . S
C2376 C2379 1.403 . S
H2377 C2383 0.930 . S
C2378 H2364 0.930 . S
C2378 C2376 1.395 . S
C2378 C2381 1.403 . S
C2379 C2376 1.403 . S
C2379 C2380 1.524 . S
C2379 C2383 1.400 . S
C2380 H2365 0.960 . S
C2380 H2366 0.960 . S
C2380 H2367 0.960 . S
C2380 C2379 1.524 . S
C2381 C2378 1.403 . S
C2381 C2382 1.392 . S
C2381 C2385 1.495 . S
C2382 C2381 1.392 . S
C2382 C2383 1.385 . S
C2382 C2384 1.478 . S
C2383 H2377 0.930 . S
C2383 C2379 1.400 . S
C2383 C2382 1.385 . S
C2384 C2382 1.478 . S
C2384 C2386 1.381 . S
C2384 C2390 1.383 . S
C2385 C2381 1.495 . S
C2385 H2391 0.959 . S
C2385 H2392 0.961 . S
C2385 H2393 0.960 . S
C2386 C2384 1.381 . S
C2386 C2387 1.394 . S
C2386 H2394 0.930 . S
C2387 C2386 1.394 . S
C2387 C2388 1.383 . S
C2387 H2395 0.929 . S
C2388 C2387 1.383 . S
C2388 C2389 1.377 . S
C2389 H2373 0.930 . S
C2389 C2388 1.377 . S
C2389 C2390 1.379 . S
C2390 H2374 0.931 . S
C2390 C2384 1.383 . S
C2390 C2389 1.379 . S
H2391 C2385 0.959 . S
H2392 C2385 0.961 . S
H2393 C2385 0.960 . S
H2394 C2386 0.930 . S
H2395 C2387 0.929 . S
H2396 C2404 0.929 . S
H2397 C2406 0.930 . S
H2398 C2408 0.930 . S
H2399 C2411 0.929 . S
H2400 C2414 0.930 . S
H2401 C2416 0.960 . S
H2402 C2416 0.960 . S
H2403 C2416 0.960 . S
C2404 H2396 0.929 . S
C2404 C2405 1.377 . S
C2404 C2406 1.384 . S
C2405 C2404 1.377 . S
C2405 C2411 1.390 . S
C2406 H2397 0.930 . S
C2406 C2404 1.384 . S
C2406 C2407 1.372 . S
C2407 C2406 1.372 . S
C2407 C2408 1.400 . S
C2407 C2412 1.490 . S
C2408 H2398 0.930 . S
C2408 C2407 1.400 . S
C2408 C2411 1.386 . S
H2409 C2425 0.930 . S
H2410 C2426 0.931 . S
C2411 H2399 0.929 . S
C2411 C2405 1.390 . S
C2411 C2408 1.386 . S
C2412 C2407 1.490 . S
C2412 C2414 1.395 . S
C2412 C2415 1.403 . S
H2413 C2419 0.930 . S
C2414 H2400 0.930 . S
C2414 C2412 1.395 . S
C2414 C2417 1.403 . S
C2415 C2412 1.403 . S
C2415 C2416 1.524 . S
C2415 C2419 1.400 . S
C2416 H2401 0.960 . S
C2416 H2402 0.960 . S
C2416 H2403 0.960 . S
C2416 C2415 1.524 . S
C2417 C2414 1.403 . S
C2417 C2418 1.392 . S
C2417 C2421 1.495 . S
C2418 C2417 1.392 . S
C2418 C2419 1.385 . S
C2418 C2420 1.478 . S
C2419 H2413 0.930 . S
C2419 C2415 1.400 . S
C2419 C2418 1.385 . S
C2420 C2418 1.478 . S
C2420 C2422 1.381 . S
C2420 C2426 1.383 . S
C2421 C2417 1.495 . S
C2421 H2427 0.959 . S
C2421 H2428 0.961 . S
C2421 H2429 0.960 . S
C2422 C2420 1.381 . S
C2422 C2423 1.394 . S
C2422 H2430 0.930 . S
C2423 C2422 1.394 . S
C2423 C2424 1.383 . S
C2423 H2431 0.929 . S
C2424 C2423 1.383 . S
C2424 C2425 1.377 . S
C2425 H2409 0.930 . S
C2425 C2424 1.377 . S
C2425 C2426 1.379 . S
C2426 H2410 0.931 . S
C2426 C2420 1.383 . S
C2426 C2425 1.379 . S
H2427 C2421 0.959 . S
H2428 C2421 0.961 . S
H2429 C2421 0.960 . S
H2430 C2422 0.930 . S
H2431 C2423 0.929 . S
H2432 C2440 0.929 . S
H2433 C2442 0.930 . S
H2434 C2444 0.930 . S
H2435 C2447 0.929 . S
H2436 C2450 0.930 . S
H2437 C2452 0.960 . S
H2438 C2452 0.960 . S
H2439 C2452 0.960 . S
C2440 H2432 0.929 . S
C2440 C2441 1.377 . S
C2440 C2442 1.384 . S
C2441 C2440 1.377 . S
C2441 C2447 1.390 . S
C2442 H2433 0.930 . S
C2442 C2440 1.384 . S
C2442 C2443 1.372 . S
C2443 C2442 1.372 . S
C2443 C2444 1.400 . S
C2443 C2448 1.490 . S
C2444 H2434 0.930 . S
C2444 C2443 1.400 . S
C2444 C2447 1.386 . S
H2445 C2461 0.930 . S
H2446 C2462 0.931 . S
C2447 H2435 0.929 . S
C2447 C2441 1.390 . S
C2447 C2444 1.386 . S
C2448 C2443 1.490 . S
C2448 C2450 1.395 . S
C2448 C2451 1.403 . S
H2449 C2455 0.930 . S
C2450 H2436 0.930 . S
C2450 C2448 1.395 . S
C2450 C2453 1.403 . S
C2451 C2448 1.403 . S
C2451 C2452 1.524 . S
C2451 C2455 1.400 . S
C2452 H2437 0.960 . S
C2452 H2438 0.960 . S
C2452 H2439 0.960 . S
C2452 C2451 1.524 . S
C2453 C2450 1.403 . S
C2453 C2454 1.392 . S
C2453 C2457 1.495 . S
C2454 C2453 1.392 . S
C2454 C2455 1.385 . S
C2454 C2456 1.478 . S
C2455 H2449 0.930 . S
C2455 C2451 1.400 . S
C2455 C2454 1.385 . S
C2456 C2454 1.478 . S
C2456 C2458 1.381 . S
C2456 C2462 1.383 . S
C2457 C2453 1.495 . S
C2457 H2463 0.959 . S
C2457 H2464 0.961 . S
C2457 H2465 0.960 . S
C2458 C2456 1.381 . S
C2458 C2459 1.394 . S
C2458 H2466 0.930 . S
C2459 C2458 1.394 . S
C2459 C2460 1.383 . S
C2459 H2467 0.929 . S
C2460 C2459 1.383 . S
C2460 C2461 1.377 . S
C2461 H2445 0.930 . S
C2461 C2460 1.377 . S
C2461 C2462 1.379 . S
C2462 H2446 0.931 . S
C2462 C2456 1.383 . S
C2462 C2461 1.379 . S
H2463 C2457 0.959 . S
H2464 C2457 0.961 . S
H2465 C2457 0.960 . S
H2466 C2458 0.930 . S
H2467 C2459 0.929 . S
H2468 C2476 0.929 . S
H2469 C2478 0.930 . S
H2470 C2480 0.930 . S
H2471 C2483 0.929 . S
H2472 C2486 0.930 . S
H2473 C2488 0.960 . S
H2474 C2488 0.960 . S
H2475 C2488 0.960 . S
C2476 H2468 0.929 . S
C2476 C2477 1.377 . S
C2476 C2478 1.384 . S
C2477 C2476 1.377 . S
C2477 C2483 1.390 . S
C2478 H2469 0.930 . S
C2478 C2476 1.384 . S
C2478 C2479 1.372 . S
C2479 C2478 1.372 . S
C2479 C2480 1.400 . S
C2479 C2484 1.490 . S
C2480 H2470 0.930 . S
C2480 C2479 1.400 . S
C2480 C2483 1.386 . S
H2481 C2497 0.930 . S
H2482 C2498 0.931 . S
C2483 H2471 0.929 . S
C2483 C2477 1.390 . S
C2483 C2480 1.386 . S
C2484 C2479 1.490 . S
C2484 C2486 1.395 . S
C2484 C2487 1.403 . S
H2485 C2491 0.930 . S
C2486 H2472 0.930 . S
C2486 C2484 1.395 . S
C2486 C2489 1.403 . S
C2487 C2484 1.403 . S
C2487 C2488 1.524 . S
C2487 C2491 1.400 . S
C2488 H2473 0.960 . S
C2488 H2474 0.960 . S
C2488 H2475 0.960 . S
C2488 C2487 1.524 . S
C2489 C2486 1.403 . S
C2489 C2490 1.392 . S
C2489 C2493 1.495 . S
C2490 C2489 1.392 . S
C2490 C2491 1.385 . S
C2490 C2492 1.478 . S
C2491 H2485 0.930 . S
C2491 C2487 1.400 . S
C2491 C2490 1.385 . S
C2492 C2490 1.478 . S
C2492 C2494 1.381 . S
C2492 C2498 1.383 . S
C2493 C2489 1.495 . S
C2493 H2499 0.959 . S
C2493 H2500 0.961 . S
C2493 H2501 0.960 . S
C2494 C2492 1.381 . S
C2494 C2495 1.394 . S
C2494 H2502 0.930 . S
C2495 C2494 1.394 . S
C2495 C2496 1.383 . S
C2495 H2503 0.929 . S
C2496 C2495 1.383 . S
C2496 C2497 1.377 . S
C2497 H2481 0.930 . S
C2497 C2496 1.377 . S
C2497 C2498 1.379 . S
C2498 H2482 0.931 . S
C2498 C2492 1.383 . S
C2498 C2497 1.379 . S
H2499 C2493 0.959 . S
H2500 C2493 0.961 . S
H2501 C2493 0.960 . S
H2502 C2494 0.930 . S
H2503 C2495 0.929 . S
H2504 C2512 0.929 . S
H2505 C2514 0.930 . S
H2506 C2516 0.930 . S
H2507 C2519 0.929 . S
H2508 C2522 0.930 . S
H2509 C2524 0.960 . S
H2510 C2524 0.960 . S
H2511 C2524 0.960 . S
C2512 H2504 0.929 . S
C2512 C2513 1.377 . S
C2512 C2514 1.384 . S
C2513 C2512 1.377 . S
C2513 C2519 1.390 . S
C2514 H2505 0.930 . S
C2514 C2512 1.384 . S
C2514 C2515 1.372 . S
C2515 C2514 1.372 . S
C2515 C2516 1.400 . S
C2515 C2520 1.490 . S
C2516 H2506 0.930 . S
C2516 C2515 1.400 . S
C2516 C2519 1.386 . S
H2517 C2533 0.930 . S
H2518 C2534 0.931 . S
C2519 H2507 0.929 . S
C2519 C2513 1.390 . S
C2519 C2516 1.386 . S
C2520 C2515 1.490 . S
C2520 C2522 1.395 . S
C2520 C2523 1.403 . S
H2521 C2527 0.930 . S
C2522 H2508 0.930 . S
C2522 C2520 1.395 . S
C2522 C2525 1.403 . S
C2523 C2520 1.403 . S
C2523 C2524 1.524 . S
C2523 C2527 1.400 . S
C2524 H2509 0.960 . S
C2524 H2510 0.960 . S
C2524 H2511 0.960 . S
C2524 C2523 1.524 . S
C2525 C2522 1.403 . S
C2525 C2526 1.392 . S
C2525 C2529 1.495 . S
C2526 C2525 1.392 . S
C2526 C2527 1.385 . S
C2526 C2528 1.478 . S
C2527 H2521 0.930 . S
C2527 C2523 1.400 . S
C2527 C2526 1.385 . S
C2528 C2526 1.478 . S
C2528 C2530 1.381 . S
C2528 C2534 1.383 . S
C2529 C2525 1.495 . S
C2529 H2535 0.959 . S
C2529 H2536 0.961 . S
C2529 H2537 0.960 . S
C2530 C2528 1.381 . S
C2530 C2531 1.394 . S
C2530 H2538 0.930 . S
C2531 C2530 1.394 . S
C2531 C2532 1.383 . S
C2531 H2539 0.929 . S
C2532 C2531 1.383 . S
C2532 C2533 1.377 . S
C2533 H2517 0.930 . S
C2533 C2532 1.377 . S
C2533 C2534 1.379 . S
C2534 H2518 0.931 . S
C2534 C2528 1.383 . S
C2534 C2533 1.379 . S
H2535 C2529 0.959 . S
H2536 C2529 0.961 . S
H2537 C2529 0.960 . S
H2538 C2530 0.930 . S
H2539 C2531 0.929 . S
H2540 C2548 0.929 . S
H2541 C2550 0.930 1_455 S
H2542 C2552 0.930 . S
H2543 C2555 0.929 . S
H2544 C2558 0.930 . S
H2545 C2560 0.960 . S
H2546 C2560 0.960 . S
H2547 C2560 0.960 1_655 S
C2548 H2540 0.929 . S
C2548 C2549 1.377 . S
C2548 C2550 1.384 . S
C2549 C2548 1.377 . S
C2549 C2555 1.390 . S
C2550 H2541 0.930 1_655 S
C2550 C2548 1.384 . S
C2550 C2551 1.372 . S
C2551 C2550 1.372 . S
C2551 C2552 1.400 . S
C2551 C2556 1.490 1_655 S
C2552 H2542 0.930 . S
C2552 C2551 1.400 . S
C2552 C2555 1.386 . S
H2553 C2569 0.930 . S
H2554 C2570 0.931 . S
C2555 H2543 0.929 . S
C2555 C2549 1.390 . S
C2555 C2552 1.386 . S
C2556 C2551 1.490 1_455 S
C2556 C2558 1.395 . S
C2556 C2559 1.403 . S
H2557 C2563 0.930 . S
C2558 H2544 0.930 . S
C2558 C2556 1.395 . S
C2558 C2561 1.403 . S
C2559 C2556 1.403 . S
C2559 C2560 1.524 . S
C2559 C2563 1.400 . S
C2560 H2545 0.960 . S
C2560 H2546 0.960 . S
C2560 H2547 0.960 1_455 S
C2560 C2559 1.524 . S
C2561 C2558 1.403 . S
C2561 C2562 1.392 . S
C2561 C2565 1.495 . S
C2562 C2561 1.392 . S
C2562 C2563 1.385 . S
C2562 C2564 1.478 . S
C2563 H2557 0.930 . S
C2563 C2559 1.400 . S
C2563 C2562 1.385 . S
C2564 C2562 1.478 . S
C2564 C2566 1.381 . S
C2564 C2570 1.383 . S
C2565 C2561 1.495 . S
C2565 H2571 0.959 . S
C2565 H2572 0.961 . S
C2565 H2573 0.960 . S
C2566 C2564 1.381 . S
C2566 C2567 1.394 . S
C2566 H2574 0.930 . S
C2567 C2566 1.394 . S
C2567 C2568 1.383 . S
C2567 H2575 0.929 . S
C2568 C2567 1.383 . S
C2568 C2569 1.377 . S
C2569 H2553 0.930 . S
C2569 C2568 1.377 . S
C2569 C2570 1.379 . S
C2570 H2554 0.931 . S
C2570 C2564 1.383 . S
C2570 C2569 1.379 . S
H2571 C2565 0.959 . S
H2572 C2565 0.961 . S
H2573 C2565 0.960 . S
H2574 C2566 0.930 . S
H2575 C2567 0.929 . S
H2576 C2584 0.929 . S
H2577 C2586 0.930 . S
H2578 C2588 0.930 . S
H2579 C2591 0.929 . S
H2580 C2594 0.930 . S
H2581 C2596 0.960 . S
H2582 C2596 0.960 . S
H2583 C2596 0.960 . S
C2584 H2576 0.929 . S
C2584 C2585 1.377 . S
C2584 C2586 1.384 . S
C2585 C2584 1.377 . S
C2585 C2591 1.390 . S
C2586 H2577 0.930 . S
C2586 C2584 1.384 . S
C2586 C2587 1.372 . S
C2587 C2586 1.372 . S
C2587 C2588 1.400 . S
C2587 C2592 1.490 . S
C2588 H2578 0.930 . S
C2588 C2587 1.400 . S
C2588 C2591 1.386 . S
H2589 C2605 0.930 . S
H2590 C2606 0.931 . S
C2591 H2579 0.929 . S
C2591 C2585 1.390 . S
C2591 C2588 1.386 . S
C2592 C2587 1.490 . S
C2592 C2594 1.395 . S
C2592 C2595 1.403 . S
H2593 C2599 0.930 . S
C2594 H2580 0.930 . S
C2594 C2592 1.395 . S
C2594 C2597 1.403 . S
C2595 C2592 1.403 . S
C2595 C2596 1.524 . S
C2595 C2599 1.400 . S
C2596 H2581 0.960 . S
C2596 H2582 0.960 . S
C2596 H2583 0.960 . S
C2596 C2595 1.524 . S
C2597 C2594 1.403 . S
C2597 C2598 1.392 . S
C2597 C2601 1.495 . S
C2598 C2597 1.392 . S
C2598 C2599 1.385 . S
C2598 C2600 1.478 . S
C2599 H2593 0.930 . S
C2599 C2595 1.400 . S
C2599 C2598 1.385 . S
C2600 C2598 1.478 . S
C2600 C2602 1.381 . S
C2600 C2606 1.383 . S
C2601 C2597 1.495 . S
C2601 H2607 0.959 . S
C2601 H2608 0.961 . S
C2601 H2609 0.960 . S
C2602 C2600 1.381 . S
C2602 C2603 1.394 . S
C2602 H2610 0.930 . S
C2603 C2602 1.394 . S
C2603 C2604 1.383 . S
C2603 H2611 0.929 . S
C2604 C2603 1.383 . S
C2604 C2605 1.377 . S
C2605 H2589 0.930 . S
C2605 C2604 1.377 . S
C2605 C2606 1.379 . S
C2606 H2590 0.931 . S
C2606 C2600 1.383 . S
C2606 C2605 1.379 . S
H2607 C2601 0.959 . S
H2608 C2601 0.961 . S
H2609 C2601 0.960 . S
H2610 C2602 0.930 . S
H2611 C2603 0.929 . S
H2612 C2620 0.929 . S
H2613 C2622 0.930 . S
H2614 C2624 0.930 . S
H2615 C2627 0.929 . S
H2616 C2630 0.930 . S
H2617 C2632 0.960 . S
H2618 C2632 0.960 . S
H2619 C2632 0.960 . S
C2620 H2612 0.929 . S
C2620 C2621 1.377 . S
C2620 C2622 1.384 . S
C2621 C2620 1.377 . S
C2621 C2627 1.390 . S
C2622 H2613 0.930 . S
C2622 C2620 1.384 . S
C2622 C2623 1.372 . S
C2623 C2622 1.372 . S
C2623 C2624 1.400 . S
C2623 C2628 1.490 . S
C2624 H2614 0.930 . S
C2624 C2623 1.400 . S
C2624 C2627 1.386 . S
H2625 C2641 0.930 . S
H2626 C2642 0.931 . S
C2627 H2615 0.929 . S
C2627 C2621 1.390 . S
C2627 C2624 1.386 . S
C2628 C2623 1.490 . S
C2628 C2630 1.395 . S
C2628 C2631 1.403 . S
H2629 C2635 0.930 . S
C2630 H2616 0.930 . S
C2630 C2628 1.395 . S
C2630 C2633 1.403 . S
C2631 C2628 1.403 . S
C2631 C2632 1.524 . S
C2631 C2635 1.400 . S
C2632 H2617 0.960 . S
C2632 H2618 0.960 . S
C2632 H2619 0.960 . S
C2632 C2631 1.524 . S
C2633 C2630 1.403 . S
C2633 C2634 1.392 . S
C2633 C2637 1.495 . S
C2634 C2633 1.392 . S
C2634 C2635 1.385 . S
C2634 C2636 1.478 1_455 S
C2635 H2629 0.930 . S
C2635 C2631 1.400 . S
C2635 C2634 1.385 . S
C2636 C2634 1.478 1_655 S
C2636 C2638 1.381 . S
C2636 C2642 1.383 . S
C2637 C2633 1.495 . S
C2637 H2643 0.959 . S
C2637 H2644 0.961 . S
C2637 H2645 0.960 . S
C2638 C2636 1.381 . S
C2638 C2639 1.394 . S
C2638 H2646 0.927 1_655 S
C2639 C2638 1.394 . S
C2639 C2640 1.383 . S
C2639 H2647 0.929 . S
C2640 C2639 1.383 . S
C2640 C2641 1.377 . S
C2641 H2625 0.930 . S
C2641 C2640 1.377 . S
C2641 C2642 1.379 . S
C2642 H2626 0.931 . S
C2642 C2636 1.383 . S
C2642 C2641 1.379 . S
H2643 C2637 0.959 . S
H2644 C2637 0.961 . S
H2645 C2637 0.960 . S
H2646 C2638 0.927 1_455 S
H2647 C2639 0.929 . S
H2648 C2656 0.929 . S
H2649 C2658 0.930 . S
H2650 C2660 0.930 . S
H2651 C2663 0.929 . S
H2652 C2666 0.930 . S
H2653 C2668 0.960 . S
H2654 C2668 0.960 . S
H2655 C2668 0.960 . S
C2656 H2648 0.929 . S
C2656 C2657 1.377 . S
C2656 C2658 1.384 . S
C2657 C2656 1.377 . S
C2657 C2663 1.390 . S
C2658 H2649 0.930 . S
C2658 C2656 1.384 . S
C2658 C2659 1.372 . S
C2659 C2658 1.372 . S
C2659 C2660 1.400 . S
C2659 C2664 1.490 . S
C2660 H2650 0.930 . S
C2660 C2659 1.400 . S
C2660 C2663 1.386 . S
H2661 C2677 0.930 . S
H2662 C2678 0.931 . S
C2663 H2651 0.929 . S
C2663 C2657 1.390 . S
C2663 C2660 1.386 . S
C2664 C2659 1.490 . S
C2664 C2666 1.395 . S
C2664 C2667 1.403 . S
H2665 C2671 0.930 . S
C2666 H2652 0.930 . S
C2666 C2664 1.395 . S
C2666 C2669 1.403 . S
C2667 C2664 1.403 . S
C2667 C2668 1.524 . S
C2667 C2671 1.400 . S
C2668 H2653 0.960 . S
C2668 H2654 0.960 . S
C2668 H2655 0.960 . S
C2668 C2667 1.524 . S
C2669 C2666 1.403 . S
C2669 C2670 1.392 . S
C2669 C2673 1.495 . S
C2670 C2669 1.392 . S
C2670 C2671 1.385 . S
C2670 C2672 1.478 . S
C2671 H2665 0.930 . S
C2671 C2667 1.400 . S
C2671 C2670 1.385 . S
C2672 C2670 1.478 . S
C2672 C2674 1.381 . S
C2672 C2678 1.383 . S
C2673 C2669 1.495 . S
C2673 H2679 0.959 . S
C2673 H2680 0.961 . S
C2673 H2681 0.960 . S
C2674 C2672 1.381 . S
C2674 C2675 1.394 . S
C2674 H2682 0.930 . S
C2675 C2674 1.394 . S
C2675 C2676 1.383 . S
C2675 H2683 0.929 . S
C2676 C2675 1.383 . S
C2676 C2677 1.377 . S
C2677 H2661 0.930 . S
C2677 C2676 1.377 . S
C2677 C2678 1.379 . S
C2678 H2662 0.931 . S
C2678 C2672 1.383 . S
C2678 C2677 1.379 . S
H2679 C2673 0.959 . S
H2680 C2673 0.961 . S
H2681 C2673 0.960 . S
H2682 C2674 0.930 . S
H2683 C2675 0.929 . S
H2684 C2692 0.929 . S
H2685 C2694 0.930 . S
H2686 C2696 0.930 . S
H2687 C2699 0.929 . S
H2688 C2702 0.930 . S
H2689 C2704 0.960 . S
H2690 C2704 0.960 . S
H2691 C2704 0.960 . S
C2692 H2684 0.929 . S
C2692 C2693 1.377 . S
C2692 C2694 1.384 . S
C2693 C2692 1.377 . S
C2693 C2699 1.390 . S
C2694 H2685 0.930 . S
C2694 C2692 1.384 . S
C2694 C2695 1.372 . S
C2695 C2694 1.372 . S
C2695 C2696 1.400 . S
C2695 C2700 1.490 . S
C2696 H2686 0.930 . S
C2696 C2695 1.400 . S
C2696 C2699 1.386 . S
H2697 C2713 0.930 . S
H2698 C2714 0.931 . S
C2699 H2687 0.929 . S
C2699 C2693 1.390 . S
C2699 C2696 1.386 . S
C2700 C2695 1.490 . S
C2700 C2702 1.395 . S
C2700 C2703 1.403 . S
H2701 C2707 0.930 . S
C2702 H2688 0.930 . S
C2702 C2700 1.395 . S
C2702 C2705 1.403 . S
C2703 C2700 1.403 . S
C2703 C2704 1.524 . S
C2703 C2707 1.400 . S
C2704 H2689 0.960 . S
C2704 H2690 0.960 . S
C2704 H2691 0.960 . S
C2704 C2703 1.524 . S
C2705 C2702 1.403 . S
C2705 C2706 1.392 . S
C2705 C2709 1.495 . S
C2706 C2705 1.392 . S
C2706 C2707 1.385 . S
C2706 C2708 1.478 . S
C2707 H2701 0.930 . S
C2707 C2703 1.400 . S
C2707 C2706 1.385 . S
C2708 C2706 1.478 . S
C2708 C2710 1.381 . S
C2708 C2714 1.383 . S
C2709 C2705 1.495 . S
C2709 H2715 0.959 . S
C2709 H2716 0.961 . S
C2709 H2717 0.960 . S
C2710 C2708 1.381 . S
C2710 C2711 1.394 . S
C2710 H2718 0.930 . S
C2711 C2710 1.394 . S
C2711 C2712 1.383 . S
C2711 H2719 0.929 . S
C2712 C2711 1.383 . S
C2712 C2713 1.377 . S
C2713 H2697 0.930 . S
C2713 C2712 1.377 . S
C2713 C2714 1.379 . S
C2714 H2698 0.931 . S
C2714 C2708 1.383 . S
C2714 C2713 1.379 . S
H2715 C2709 0.959 . S
H2716 C2709 0.961 . S
H2717 C2709 0.960 . S
H2718 C2710 0.930 . S
H2719 C2711 0.929 . S
C425 C62 1.503 . S
C444 C4 1.498 . S
C461 C69 1.503 . S
C480 C23 1.497 . S
C497 C82 1.504 . S
C516 C30 1.501 . S
C533 C49 1.504 . S
C552 C101 1.497 . S
C569 C108 1.504 . S
C588 C166 1.499 . S
C605 C179 1.503 . S
C624 C121 1.503 . S
C641 C140 1.502 . S
C660 C192 1.501 . S
C677 C199 1.503 . S
C696 C147 1.503 . S
C713 C218 1.503 . S
C732 C264 1.498 . S
C749 C283 1.504 . S
C768 C231 1.500 . S
C785 C296 1.503 . S
C804 C244 1.503 . S
C821 C309 1.504 . S
C840 C257 1.500 . S
C857 C322 1.504 . S
C876 C374 1.497 . S
C893 C335 1.504 . S
C912 C381 1.496 . S
C929 C342 1.502 . S
C948 C400 1.502 . S
C965 C355 1.503 . S
C984 C407 1.503 . S
C1001 C10 1.519 . S
C1020 C95 1.514 . S
C1037 C17 1.519 . S
C1056 C56 1.519 . S
C1073 C36 1.520 . S
C1092 C75 1.513 . S
C1109 C88 1.520 . S
C1128 C43 1.516 . S
C1145 C205 1.519 . S
C1164 C114 1.518 . S
C1181 C160 1.520 . S
C1200 C127 1.518 . S
C1217 C173 1.519 . S
C1236 C134 1.512 . S
C1253 C153 1.520 . S
C1272 C186 1.516 . S
C1289 C303 1.520 . S
C1308 C212 1.514 . S
C1325 C270 1.519 . S
C1344 C225 1.519 . S
C1361 C277 1.519 . S
C1380 C238 1.514 . S
C1397 C251 1.519 . S
C1416 C290 1.519 . S
C1433 C316 1.518 . S
C1452 C413 1.512 . S
C1469 C329 1.518 . S
C1488 C368 1.513 . S
C1505 C348 1.519 . S
C1524 C387 1.514 . S
C1541 C394 1.519 . S
C1560 C361 1.517 . S
C1577 C5 1.493 . S
C1596 C330 1.491 . S
C1613 C16 1.492 . S
C1632 C135 1.491 . S
C1649 C31 1.493 . S
C1668 C354 1.488 . S
C1685 C107 1.493 . S
C1704 C42 1.492 . S
C1721 C406 1.493 . S
C1740 C55 1.492 . S
C1757 C70 1.493 . S
C1776 C161 1.492 . S
C1793 C83 1.493 . S
C1812 C380 1.488 . S
C1829 C94 1.493 . S
C1848 C187 1.488 . S
C1865 C226 1.493 . S
C1884 C109 1.492 . S
C1901 C29 1.494 . S
C1920 C122 1.488 . S
C1937 C252 1.494 . S
C1956 C133 1.488 . S
C1973 C148 1.493 . S
C1992 C3 1.492 . S
C2009 C304 1.493 . S
C2028 C159 1.492 . S
C2045 C57 1.492 . S
C2064 C172 1.491 . S
C2081 C278 1.493 . S
C2100 C185 1.492 . S
C2117 C81 1.494 . S
C2136 C200 1.488 . S
C2153 C120 1.493 . S
C2172 C211 1.487 . S
C2189 C224 1.494 . S
C2208 C341 1.487 . S
C2225 C237 1.493 . S
C2244 C146 1.492 . S
C2261 C250 1.494 . S
C2280 C317 1.488 . S
C2297 C265 1.493 . S
C2316 C198 1.489 . S
C2333 C369 1.493 . S
C2352 C276 1.488 . S
C2369 C289 1.492 . S
C2388 C174 1.491 . S
C2405 C302 1.493 . S
C2424 C395 1.487 . S
C2441 C315 1.493 . S
C2460 C18 1.492 . S
C2477 C328 1.493 . S
C2496 C239 1.488 . S
C2513 C44 1.493 . S
C2532 C343 1.487 . S
C2549 C213 1.493 . S
C2568 C356 1.493 . S
C2585 C367 1.494 . S
C2604 C96 1.490 . S
C2621 C382 1.493 . S
C2640 C263 1.491 . S
C2657 C68 1.494 . S
C2676 C393 1.490 . S
C2693 C291 1.493 . S
C2712 C408 1.488 . S
