# Generated by pormake.
# Topology wna, (6)-cn, num edge types: 1
# Building blocks:
#     Node 0, Type 0, BuildingBlock: UKALOJ_clean_sbu_0, # of connection points: 6
#     Node 1, Type 0, BuildingBlock: UKALOJ_clean_sbu_0, # of connection points: 6
#     Node 2, Type 0, BuildingBlock: UKALOJ_clean_sbu_0, # of connection points: 6
#     Node 3, Type 0, BuildingBlock: UKALOJ_clean_sbu_0, # of connection points: 6
#     Node 4, Type 0, BuildingBlock: UKALOJ_clean_sbu_0, # of connection points: 6
#     Node 5, Type 0, BuildingBlock: UKALOJ_clean_sbu_0, # of connection points: 6
#     Node 6, Type 0, BuildingBlock: UKALOJ_clean_sbu_0, # of connection points: 6
#     Node 7, Type 0, BuildingBlock: UKALOJ_clean_sbu_0, # of connection points: 6
#     Node 8, Type 0, BuildingBlock: UKALOJ_clean_sbu_0, # of connection points: 6
#     Node 9, Type 0, BuildingBlock: UKALOJ_clean_sbu_0, # of connection points: 6
#     Node 10, Type 0, BuildingBlock: UKALOJ_clean_sbu_0, # of connection points: 6
#     Node 11, Type 0, BuildingBlock: UKALOJ_clean_sbu_0, # of connection points: 6
#     Node 12, Type 0, BuildingBlock: UKALOJ_clean_sbu_0, # of connection points: 6
#     Node 13, Type 0, BuildingBlock: UKALOJ_clean_sbu_0, # of connection points: 6
#     Node 14, Type 0, BuildingBlock: UKALOJ_clean_sbu_0, # of connection points: 6
#     Node 15, Type 0, BuildingBlock: UKALOJ_clean_sbu_0, # of connection points: 6
#     Node 16, Type 0, BuildingBlock: UKALOJ_clean_sbu_0, # of connection points: 6
#     Node 17, Type 0, BuildingBlock: UKALOJ_clean_sbu_0, # of connection points: 6
#     Node 18, Type 0, BuildingBlock: UKALOJ_clean_sbu_0, # of connection points: 6
#     Node 19, Type 0, BuildingBlock: UKALOJ_clean_sbu_0, # of connection points: 6
#     Node 20, Type 0, BuildingBlock: UKALOJ_clean_sbu_0, # of connection points: 6
#     Node 21, Type 0, BuildingBlock: UKALOJ_clean_sbu_0, # of connection points: 6
#     Node 22, Type 0, BuildingBlock: UKALOJ_clean_sbu_0, # of connection points: 6
#     Node 23, Type 0, BuildingBlock: UKALOJ_clean_sbu_0, # of connection points: 6
#     Node 24, Type 0, BuildingBlock: UKALOJ_clean_sbu_0, # of connection points: 6
#     Node 25, Type 0, BuildingBlock: UKALOJ_clean_sbu_0, # of connection points: 6
#     Node 26, Type 0, BuildingBlock: UKALOJ_clean_sbu_0, # of connection points: 6
#     Node 27, Type 0, BuildingBlock: UKALOJ_clean_sbu_0, # of connection points: 6
#     Node 28, Type 0, BuildingBlock: UKALOJ_clean_sbu_0, # of connection points: 6
#     Node 29, Type 0, BuildingBlock: UKALOJ_clean_sbu_0, # of connection points: 6
#     Node 30, Type 0, BuildingBlock: UKALOJ_clean_sbu_0, # of connection points: 6
#     Node 31, Type 0, BuildingBlock: UKALOJ_clean_sbu_0, # of connection points: 6
#     Node 32, Type 0, BuildingBlock: UKALOJ_clean_sbu_0, # of connection points: 6
#     Node 33, Type 0, BuildingBlock: UKALOJ_clean_sbu_0, # of connection points: 6
#     Node 34, Type 0, BuildingBlock: UKALOJ_clean_sbu_0, # of connection points: 6
#     Node 35, Type 0, BuildingBlock: UKALOJ_clean_sbu_0, # of connection points: 6
#     Edge 36, Type (0, 0), BuildingBlock: KIFKEQ_clean_linker_1, # of connection points: 2
#     Edge 37, Type (0, 0), BuildingBlock: KIFKEQ_clean_linker_1, # of connection points: 2
#     Edge 38, Type (0, 0), BuildingBlock: KIFKEQ_clean_linker_1, # of connection points: 2
#     Edge 39, Type (0, 0), BuildingBlock: KIFKEQ_clean_linker_1, # of connection points: 2
#     Edge 40, Type (0, 0), BuildingBlock: KIFKEQ_clean_linker_1, # of connection points: 2
#     Edge 41, Type (0, 0), BuildingBlock: KIFKEQ_clean_linker_1, # of connection points: 2
#     Edge 42, Type (0, 0), BuildingBlock: KIFKEQ_clean_linker_1, # of connection points: 2
#     Edge 43, Type (0, 0), BuildingBlock: KIFKEQ_clean_linker_1, # of connection points: 2
#     Edge 44, Type (0, 0), BuildingBlock: KIFKEQ_clean_linker_1, # of connection points: 2
#     Edge 45, Type (0, 0), BuildingBlock: KIFKEQ_clean_linker_1, # of connection points: 2
#     Edge 46, Type (0, 0), BuildingBlock: KIFKEQ_clean_linker_1, # of connection points: 2
#     Edge 47, Type (0, 0), BuildingBlock: KIFKEQ_clean_linker_1, # of connection points: 2
#     Edge 48, Type (0, 0), BuildingBlock: KIFKEQ_clean_linker_1, # of connection points: 2
#     Edge 49, Type (0, 0), BuildingBlock: KIFKEQ_clean_linker_1, # of connection points: 2
#     Edge 50, Type (0, 0), BuildingBlock: KIFKEQ_clean_linker_1, # of connection points: 2
#     Edge 51, Type (0, 0), BuildingBlock: KIFKEQ_clean_linker_1, # of connection points: 2
#     Edge 52, Type (0, 0), BuildingBlock: KIFKEQ_clean_linker_1, # of connection points: 2
#     Edge 53, Type (0, 0), BuildingBlock: KIFKEQ_clean_linker_1, # of connection points: 2
#     Edge 54, Type (0, 0), BuildingBlock: KIFKEQ_clean_linker_1, # of connection points: 2
#     Edge 55, Type (0, 0), BuildingBlock: KIFKEQ_clean_linker_1, # of connection points: 2
#     Edge 56, Type (0, 0), BuildingBlock: KIFKEQ_clean_linker_1, # of connection points: 2
#     Edge 57, Type (0, 0), BuildingBlock: KIFKEQ_clean_linker_1, # of connection points: 2
#     Edge 58, Type (0, 0), BuildingBlock: KIFKEQ_clean_linker_1, # of connection points: 2
#     Edge 59, Type (0, 0), BuildingBlock: KIFKEQ_clean_linker_1, # of connection points: 2
#     Edge 60, Type (0, 0), BuildingBlock: KIFKEQ_clean_linker_1, # of connection points: 2
#     Edge 61, Type (0, 0), BuildingBlock: KIFKEQ_clean_linker_1, # of connection points: 2
#     Edge 62, Type (0, 0), BuildingBlock: KIFKEQ_clean_linker_1, # of connection points: 2
#     Edge 63, Type (0, 0), BuildingBlock: KIFKEQ_clean_linker_1, # of connection points: 2
#     Edge 64, Type (0, 0), BuildingBlock: KIFKEQ_clean_linker_1, # of connection points: 2
#     Edge 65, Type (0, 0), BuildingBlock: KIFKEQ_clean_linker_1, # of connection points: 2
#     Edge 66, Type (0, 0), BuildingBlock: KIFKEQ_clean_linker_1, # of connection points: 2
#     Edge 67, Type (0, 0), BuildingBlock: KIFKEQ_clean_linker_1, # of connection points: 2
#     Edge 68, Type (0, 0), BuildingBlock: KIFKEQ_clean_linker_1, # of connection points: 2
#     Edge 69, Type (0, 0), BuildingBlock: KIFKEQ_clean_linker_1, # of connection points: 2
#     Edge 70, Type (0, 0), BuildingBlock: KIFKEQ_clean_linker_1, # of connection points: 2
#     Edge 71, Type (0, 0), BuildingBlock: KIFKEQ_clean_linker_1, # of connection points: 2
#     Edge 72, Type (0, 0), BuildingBlock: KIFKEQ_clean_linker_1, # of connection points: 2
#     Edge 73, Type (0, 0), BuildingBlock: KIFKEQ_clean_linker_1, # of connection points: 2
#     Edge 74, Type (0, 0), BuildingBlock: KIFKEQ_clean_linker_1, # of connection points: 2
#     Edge 75, Type (0, 0), BuildingBlock: KIFKEQ_clean_linker_1, # of connection points: 2
#     Edge 76, Type (0, 0), BuildingBlock: KIFKEQ_clean_linker_1, # of connection points: 2
#     Edge 77, Type (0, 0), BuildingBlock: KIFKEQ_clean_linker_1, # of connection points: 2
#     Edge 78, Type (0, 0), BuildingBlock: KIFKEQ_clean_linker_1, # of connection points: 2
#     Edge 79, Type (0, 0), BuildingBlock: KIFKEQ_clean_linker_1, # of connection points: 2
#     Edge 80, Type (0, 0), BuildingBlock: KIFKEQ_clean_linker_1, # of connection points: 2
#     Edge 81, Type (0, 0), BuildingBlock: KIFKEQ_clean_linker_1, # of connection points: 2
#     Edge 82, Type (0, 0), BuildingBlock: KIFKEQ_clean_linker_1, # of connection points: 2
#     Edge 83, Type (0, 0), BuildingBlock: KIFKEQ_clean_linker_1, # of connection points: 2
#     Edge 84, Type (0, 0), BuildingBlock: KIFKEQ_clean_linker_1, # of connection points: 2
#     Edge 85, Type (0, 0), BuildingBlock: KIFKEQ_clean_linker_1, # of connection points: 2
#     Edge 86, Type (0, 0), BuildingBlock: KIFKEQ_clean_linker_1, # of connection points: 2
#     Edge 87, Type (0, 0), BuildingBlock: KIFKEQ_clean_linker_1, # of connection points: 2
#     Edge 88, Type (0, 0), BuildingBlock: KIFKEQ_clean_linker_1, # of connection points: 2
#     Edge 89, Type (0, 0), BuildingBlock: KIFKEQ_clean_linker_1, # of connection points: 2
#     Edge 90, Type (0, 0), BuildingBlock: KIFKEQ_clean_linker_1, # of connection points: 2
#     Edge 91, Type (0, 0), BuildingBlock: KIFKEQ_clean_linker_1, # of connection points: 2
#     Edge 92, Type (0, 0), BuildingBlock: KIFKEQ_clean_linker_1, # of connection points: 2
#     Edge 93, Type (0, 0), BuildingBlock: KIFKEQ_clean_linker_1, # of connection points: 2
#     Edge 94, Type (0, 0), BuildingBlock: KIFKEQ_clean_linker_1, # of connection points: 2
#     Edge 95, Type (0, 0), BuildingBlock: KIFKEQ_clean_linker_1, # of connection points: 2
#     Edge 96, Type (0, 0), BuildingBlock: KIFKEQ_clean_linker_1, # of connection points: 2
#     Edge 97, Type (0, 0), BuildingBlock: KIFKEQ_clean_linker_1, # of connection points: 2
#     Edge 98, Type (0, 0), BuildingBlock: KIFKEQ_clean_linker_1, # of connection points: 2
#     Edge 99, Type (0, 0), BuildingBlock: KIFKEQ_clean_linker_1, # of connection points: 2
#     Edge 100, Type (0, 0), BuildingBlock: KIFKEQ_clean_linker_1, # of connection points: 2
#     Edge 101, Type (0, 0), BuildingBlock: KIFKEQ_clean_linker_1, # of connection points: 2
#     Edge 102, Type (0, 0), BuildingBlock: KIFKEQ_clean_linker_1, # of connection points: 2
#     Edge 103, Type (0, 0), BuildingBlock: KIFKEQ_clean_linker_1, # of connection points: 2
#     Edge 104, Type (0, 0), BuildingBlock: KIFKEQ_clean_linker_1, # of connection points: 2
#     Edge 105, Type (0, 0), BuildingBlock: KIFKEQ_clean_linker_1, # of connection points: 2
#     Edge 106, Type (0, 0), BuildingBlock: KIFKEQ_clean_linker_1, # of connection points: 2
#     Edge 107, Type (0, 0), BuildingBlock: KIFKEQ_clean_linker_1, # of connection points: 2
#     Edge 108, Type (0, 0), BuildingBlock: KIFKEQ_clean_linker_1, # of connection points: 2
#     Edge 109, Type (0, 0), BuildingBlock: KIFKEQ_clean_linker_1, # of connection points: 2
#     Edge 110, Type (0, 0), BuildingBlock: KIFKEQ_clean_linker_1, # of connection points: 2
#     Edge 111, Type (0, 0), BuildingBlock: KIFKEQ_clean_linker_1, # of connection points: 2
#     Edge 112, Type (0, 0), BuildingBlock: KIFKEQ_clean_linker_1, # of connection points: 2
#     Edge 113, Type (0, 0), BuildingBlock: KIFKEQ_clean_linker_1, # of connection points: 2
#     Edge 114, Type (0, 0), BuildingBlock: KIFKEQ_clean_linker_1, # of connection points: 2
#     Edge 115, Type (0, 0), BuildingBlock: KIFKEQ_clean_linker_1, # of connection points: 2
#     Edge 116, Type (0, 0), BuildingBlock: KIFKEQ_clean_linker_1, # of connection points: 2
#     Edge 117, Type (0, 0), BuildingBlock: KIFKEQ_clean_linker_1, # of connection points: 2
#     Edge 118, Type (0, 0), BuildingBlock: KIFKEQ_clean_linker_1, # of connection points: 2
#     Edge 119, Type (0, 0), BuildingBlock: KIFKEQ_clean_linker_1, # of connection points: 2
#     Edge 120, Type (0, 0), BuildingBlock: KIFKEQ_clean_linker_1, # of connection points: 2
#     Edge 121, Type (0, 0), BuildingBlock: KIFKEQ_clean_linker_1, # of connection points: 2
#     Edge 122, Type (0, 0), BuildingBlock: KIFKEQ_clean_linker_1, # of connection points: 2
#     Edge 123, Type (0, 0), BuildingBlock: KIFKEQ_clean_linker_1, # of connection points: 2
#     Edge 124, Type (0, 0), BuildingBlock: KIFKEQ_clean_linker_1, # of connection points: 2
#     Edge 125, Type (0, 0), BuildingBlock: KIFKEQ_clean_linker_1, # of connection points: 2
#     Edge 126, Type (0, 0), BuildingBlock: KIFKEQ_clean_linker_1, # of connection points: 2
#     Edge 127, Type (0, 0), BuildingBlock: KIFKEQ_clean_linker_1, # of connection points: 2
#     Edge 128, Type (0, 0), BuildingBlock: KIFKEQ_clean_linker_1, # of connection points: 2
#     Edge 129, Type (0, 0), BuildingBlock: KIFKEQ_clean_linker_1, # of connection points: 2
#     Edge 130, Type (0, 0), BuildingBlock: KIFKEQ_clean_linker_1, # of connection points: 2
#     Edge 131, Type (0, 0), BuildingBlock: KIFKEQ_clean_linker_1, # of connection points: 2
#     Edge 132, Type (0, 0), BuildingBlock: KIFKEQ_clean_linker_1, # of connection points: 2
#     Edge 133, Type (0, 0), BuildingBlock: KIFKEQ_clean_linker_1, # of connection points: 2
#     Edge 134, Type (0, 0), BuildingBlock: KIFKEQ_clean_linker_1, # of connection points: 2
#     Edge 135, Type (0, 0), BuildingBlock: KIFKEQ_clean_linker_1, # of connection points: 2
#     Edge 136, Type (0, 0), BuildingBlock: KIFKEQ_clean_linker_1, # of connection points: 2
#     Edge 137, Type (0, 0), BuildingBlock: KIFKEQ_clean_linker_1, # of connection points: 2
#     Edge 138, Type (0, 0), BuildingBlock: KIFKEQ_clean_linker_1, # of connection points: 2
#     Edge 139, Type (0, 0), BuildingBlock: KIFKEQ_clean_linker_1, # of connection points: 2
#     Edge 140, Type (0, 0), BuildingBlock: KIFKEQ_clean_linker_1, # of connection points: 2
#     Edge 141, Type (0, 0), BuildingBlock: KIFKEQ_clean_linker_1, # of connection points: 2
#     Edge 142, Type (0, 0), BuildingBlock: KIFKEQ_clean_linker_1, # of connection points: 2
#     Edge 143, Type (0, 0), BuildingBlock: KIFKEQ_clean_linker_1, # of connection points: 2
# Relax obj value: 0.388
# Max RMSD: 0.262
# Mean RMSD: 0.252
data_MOF--net-wna--node1-UKALOJ_clean_sbu_0--edge1-KIFKEQ_clean_linker_1
_symmetry_space_group_name_H-M    P1
_symmetry_Int_Tables_number       1
_symmetry_cell_setting            triclinic
loop_
_symmetry_equiv_pos_as_xyz
'x, y, z'
_cell_length_a     46.512073
_cell_length_b     46.483383
_cell_length_c     81.156941
_cell_angle_alpha  90.036153
_cell_angle_beta   89.98911
_cell_angle_gamma 119.99346
loop_
_atom_site_label
_atom_site_type_symbol
_atom_site_fract_x
_atom_site_fract_y
_atom_site_fract_z
_atom_type_partial_charge
Zn0 Zn 0.10931 0.22383 0.16952 0.0
O1 O 0.08729 0.19954 0.19361 0.0
C2 C 0.04305 0.21305 0.16307 0.0
Zn3 Zn 0.10687 0.26804 0.17732 0.0
C4 C 0.08253 0.21662 0.20452 0.0
O5 O 0.092 0.2468 0.20126 0.0
C6 C 0.1303 0.27574 0.14212 0.0
O7 O 0.15894 0.29361 0.18413 0.0
O8 O 0.15803 0.24705 0.17856 0.0
N9 N 0.10162 0.30676 0.18544 0.0
C10 C 0.11529 0.33881 0.18088 0.0
C11 C 0.07959 0.33023 0.19948 0.0
N12 N 0.07967 0.30161 0.19713 0.0
N13 N 0.10179 0.35401 0.18944 0.0
C14 C 0.12541 0.16597 0.16853 0.0
C15 C 0.11413 0.15072 0.14347 0.0
N16 N 0.11364 0.1844 0.16157 0.0
N17 N 0.10653 0.17473 0.14604 0.0
N18 N 0.12611 0.14465 0.15735 0.0
H19 H 0.14213 0.19389 0.19131 0.0
H20 H 0.1605 0.16848 0.18662 0.0
H21 H 0.11815 0.14997 0.19362 0.0
C22 C 0.13751 0.17009 0.18597 0.0
C23 C 0.14254 0.35561 0.16852 0.0
H24 H 0.1582 0.34385 0.16811 0.0
H25 H 0.1582 0.38239 0.1715 0.0
H26 H 0.13128 0.35355 0.15625 0.0
O27 O 0.12091 0.28909 0.15297 0.0
O28 O 0.12894 0.24833 0.14567 0.0
C29 C 0.17404 0.2771 0.18323 0.0
O30 O 0.06185 0.20127 0.16014 0.0
O31 O 0.05464 0.24085 0.17049 0.0
Zn32 Zn 0.78111 0.89136 0.1701 0.0
O33 O 0.80691 0.89455 0.19373 0.0
C34 C 0.79448 0.83828 0.16461 0.0
Zn35 Zn 0.73851 0.84553 0.17969 0.0
C36 C 0.79137 0.87458 0.20558 0.0
O37 O 0.76068 0.85374 0.2037 0.0
C38 C 0.72827 0.85755 0.14388 0.0
O39 O 0.71144 0.87068 0.1865 0.0
O40 O 0.75728 0.91578 0.17955 0.0
N41 N 0.7016 0.80039 0.18759 0.0
C42 C 0.66904 0.78165 0.18396 0.0
C43 C 0.68228 0.75223 0.19874 0.0
N44 N 0.70964 0.78212 0.19688 0.0
N45 N 0.65632 0.75098 0.19067 0.0
C46 C 0.83619 0.96634 0.16914 0.0
C47 C 0.84914 0.97246 0.14369 0.0
N48 N 0.81889 0.93619 0.16195 0.0
N49 N 0.82715 0.94009 0.14616 0.0
N50 N 0.85527 0.98962 0.15788 0.0
H51 H 0.81045 0.95264 0.19261 0.0
H52 H 0.83235 0.99669 0.1881 0.0
H53 H 0.85464 0.97583 0.19381 0.0
C54 C 0.83289 0.97318 0.1869 0.0
C55 C 0.64969 0.79417 0.17466 0.0
H56 H 0.66091 0.82135 0.17608 0.0
H57 H 0.62357 0.78175 0.179 0.0
H58 H 0.64988 0.78884 0.16139 0.0
O59 O 0.7164 0.83619 0.15543 0.0
O60 O 0.75514 0.88474 0.14664 0.0
C61 C 0.72781 0.90219 0.18495 0.0
O62 O 0.80455 0.86799 0.16037 0.0
O63 O 0.76778 0.8226 0.17294 0.0
Zn64 Zn 0.11367 0.88321 0.1762 0.0
O65 O 0.11294 0.90771 0.19992 0.0
C66 C 0.15717 0.9507 0.16549 0.0
Zn67 Zn 0.16495 0.89591 0.18111 0.0
C68 C 0.13794 0.91736 0.20958 0.0
O69 O 0.16109 0.91197 0.2052 0.0
C70 C 0.14555 0.86587 0.14744 0.0
O71 O 0.14914 0.84616 0.18993 0.0
O72 O 0.09885 0.83844 0.18836 0.0
N73 N 0.21336 0.91093 0.18567 0.0
C74 C 0.23298 0.89861 0.18111 0.0
C75 C 0.26299 0.94335 0.19444 0.0
N76 N 0.23203 0.93864 0.19399 0.0
N77 N 0.26441 0.91869 0.1864 0.0
C78 C 0.041 0.87247 0.17499 0.0
C79 C 0.01732 0.82626 0.16206 0.0
N80 N 0.0646 0.8648 0.1712 0.0
N81 N 0.04975 0.83618 0.16315 0.0
N82 N 0.01106 0.84846 0.16943 0.0
H83 H 0.04871 0.89562 0.19851 0.0
H84 H 0.02688 0.90744 0.18428 0.0
H85 H 0.07119 0.92357 0.182 0.0
C86 C 0.04712 0.90157 0.18542 0.0
C87 C 0.22097 0.86638 0.1721 0.0
H88 H 0.19433 0.84913 0.17428 0.0
H89 H 0.23519 0.85419 0.17594 0.0
H90 H 0.22433 0.87129 0.15867 0.0
O91 O 0.17029 0.8815 0.15693 0.0
O92 O 0.11738 0.86093 0.15242 0.0
C93 C 0.11806 0.82755 0.19205 0.0
O94 O 0.12728 0.92746 0.16416 0.0
O95 O 0.17849 0.94503 0.17238 0.0
Zn96 Zn 0.26698 0.10298 0.33447 0.0
O97 O 0.29718 0.15399 0.32585 0.0
C98 C 0.27781 0.13213 0.36845 0.0
Zn99 Zn 0.22692 0.11317 0.34036 0.0
C100 C 0.28324 0.17155 0.3246 0.0
O101 O 0.25325 0.15929 0.32896 0.0
C102 C 0.20808 0.04562 0.35028 0.0
O103 O 0.20112 0.08827 0.31673 0.0
O104 O 0.24618 0.08681 0.3106 0.0
N105 N 0.19099 0.12384 0.34715 0.0
C106 C 0.17439 0.13674 0.33932 0.0
C107 C 0.16145 0.13251 0.36475 0.0
N108 N 0.18274 0.12113 0.36291 0.0
N109 N 0.15577 0.1426 0.35017 0.0
C110 C 0.33508 0.10542 0.33181 0.0
C111 C 0.32105 0.06174 0.31767 0.0
N112 N 0.30242 0.09152 0.32839 0.0
N113 N 0.29383 0.06448 0.31958 0.0
N114 N 0.34742 0.08703 0.32522 0.0
H115 H 0.34305 0.15312 0.34001 0.0
H116 H 0.38044 0.15156 0.3362 0.0
H117 H 0.3554 0.13208 0.35424 0.0
C118 C 0.35468 0.13749 0.34099 0.0
C119 C 0.17784 0.14502 0.32132 0.0
H120 H 0.20038 0.14634 0.31604 0.0
H121 H 0.17839 0.1689 0.31928 0.0
H122 H 0.15617 0.12516 0.31465 0.0
O123 O 0.20049 0.06807 0.35183 0.0
O124 O 0.23497 0.0523 0.34297 0.0
C125 C 0.217 0.08001 0.30665 0.0
O126 O 0.28784 0.11784 0.35854 0.0
O127 O 0.25336 0.13561 0.36398 0.0
Zn128 Zn 0.90123 0.16576 0.33012 0.0
O129 O 0.84872 0.14141 0.32425 0.0
C130 C 0.87863 0.15076 0.36534 0.0
Zn131 Zn 0.8958 0.11786 0.33743 0.0
C132 C 0.83277 0.10976 0.32393 0.0
O133 O 0.84766 0.09414 0.32772 0.0
C134 C 0.96347 0.17141 0.34383 0.0
O135 O 0.91817 0.11595 0.31337 0.0
O136 O 0.91368 0.15866 0.30575 0.0
N137 N 0.88891 0.0726 0.34483 0.0
C138 C 0.8759 0.04267 0.33737 0.0
C139 C 0.88339 0.03575 0.36263 0.0
N140 N 0.89367 0.06818 0.36049 0.0
N141 N 0.87202 0.01904 0.34834 0.0
C142 C 0.8955 0.22969 0.32835 0.0
C143 C 0.9292 0.25622 0.30889 0.0
N144 N 0.90778 0.21064 0.3228 0.0
N145 N 0.92853 0.2271 0.31064 0.0
N146 N 0.90866 0.25845 0.31985 0.0
H147 H 0.85208 0.19228 0.34096 0.0
H148 H 0.85519 0.23262 0.33982 0.0
H149 H 0.88147 0.22595 0.35368 0.0
C150 C 0.8694 0.21946 0.3414 0.0
C151 C 0.86531 0.03636 0.31967 0.0
H152 H 0.86368 0.05727 0.31422 0.0
H153 H 0.84104 0.0131 0.3185 0.0
H154 H 0.88398 0.03343 0.3125 0.0
O155 O 0.94334 0.14127 0.34729 0.0
O156 O 0.95321 0.18833 0.33604 0.0
C157 C 0.92286 0.13771 0.30243 0.0
O158 O 0.89059 0.17389 0.35471 0.0
O159 O 0.87565 0.12277 0.36141 0.0
Zn160 Zn 0.8393 0.73757 0.32657 0.0
O161 O 0.86456 0.71078 0.31944 0.0
C162 C 0.84869 0.72316 0.36179 0.0
Zn163 Zn 0.88525 0.77909 0.33671 0.0
C164 C 0.8961 0.72693 0.32072 0.0
O165 O 0.91004 0.7563 0.32635 0.0
C166 C 0.83224 0.79288 0.34258 0.0
O167 O 0.89068 0.80768 0.31386 0.0
O168 O 0.84987 0.76226 0.30316 0.0
N169 N 0.93003 0.81348 0.34694 0.0
C170 C 0.95774 0.84146 0.34215 0.0
C171 C 0.96802 0.8275 0.36547 0.0
N172 N 0.93667 0.8052 0.36145 0.0
N173 N 0.98217 0.8505 0.35355 0.0
C174 C 0.77671 0.66874 0.3204 0.0
C175 C 0.74947 0.6809 0.30345 0.0
N176 N 0.79533 0.70142 0.31709 0.0
N177 N 0.77848 0.70885 0.30642 0.0
N178 N 0.74775 0.65535 0.31208 0.0
H179 H 0.8146 0.66112 0.3315 0.0
H180 H 0.77605 0.62351 0.32688 0.0
H181 H 0.77843 0.64917 0.34392 0.0
C182 C 0.78726 0.64957 0.33123 0.0
C183 C 0.95966 0.86072 0.32701 0.0
H184 H 0.96324 0.84852 0.31607 0.0
H185 H 0.98023 0.88678 0.3278 0.0
H186 H 0.93613 0.861 0.32545 0.0
O187 O 0.86168 0.8021 0.3471 0.0
O188 O 0.81653 0.7669 0.33368 0.0
C189 C 0.87108 0.79297 0.30174 0.0
O190 O 0.82724 0.71265 0.3503 0.0
O191 O 0.87615 0.74966 0.35922 0.0
Zn192 Zn 0.91803 0.74123 0.83693 0.0
O193 O 0.93825 0.70879 0.837 0.0
C194 C 0.92335 0.74131 0.87329 0.0
Zn195 Zn 0.9663 0.78043 0.84701 0.0
C196 C 0.96819 0.71844 0.84103 0.0
O197 O 0.98731 0.74882 0.84486 0.0
C198 C 0.91468 0.80137 0.84447 0.0
O199 O 0.97924 0.79607 0.82276 0.0
O200 O 0.93305 0.75522 0.81269 0.0
N201 N 0.01066 0.81948 0.8549 0.0
C202 C 0.02394 0.85237 0.85224 0.0
C203 C 0.05819 0.84611 0.86711 0.0
N204 N 0.032 0.81564 0.86413 0.0
N205 N 0.05354 0.8696 0.85991 0.0
C206 C 0.85084 0.67503 0.83588 0.0
C207 C 0.82889 0.68075 0.81403 0.0
N208 N 0.87344 0.7037 0.82875 0.0
N209 N 0.85989 0.70698 0.81505 0.0
N210 N 0.82258 0.6603 0.82697 0.0
H211 H 0.88308 0.66761 0.85225 0.0
H212 H 0.84084 0.63328 0.85126 0.0
H213 H 0.85002 0.67053 0.86214 0.0
C214 C 0.85665 0.66074 0.85123 0.0
C215 C 0.00889 0.86763 0.84142 0.0
H216 H 0.02853 0.88994 0.83505 0.0
H217 H 0.99417 0.87527 0.84914 0.0
H218 H 0.9922 0.85011 0.83203 0.0
O219 O 0.94359 0.81009 0.84979 0.0
O220 O 0.89798 0.77336 0.83744 0.0
C221 C 0.96082 0.78136 0.8105 0.0
O222 O 0.90363 0.72878 0.86122 0.0
O223 O 0.95307 0.76414 0.87095 0.0
Zn224 Zn 0.22353 0.18753 0.84697 0.0
O225 O 0.20623 0.18495 0.82278 0.0
C226 C 0.20267 0.11537 0.84534 0.0
Zn227 Zn 0.26201 0.17846 0.83552 0.0
C228 C 0.21877 0.17876 0.81035 0.0
O229 O 0.24375 0.17505 0.81206 0.0
C230 C 0.26783 0.18793 0.87183 0.0
O231 O 0.29349 0.2307 0.83331 0.0
O232 O 0.25544 0.23972 0.84435 0.0
N233 N 0.2977 0.16966 0.82617 0.0
C234 C 0.32729 0.17608 0.8322 0.0
C235 C 0.31604 0.14286 0.81207 0.0
N236 N 0.29101 0.1494 0.81346 0.0
N237 N 0.33916 0.15929 0.82373 0.0
C238 C 0.15316 0.17783 0.85128 0.0
C239 C 0.15817 0.20872 0.87178 0.0
N240 N 0.18537 0.19343 0.85588 0.0
N241 N 0.18844 0.21264 0.86861 0.0
N242 N 0.13565 0.18689 0.86111 0.0
H243 H 0.15003 0.13978 0.83475 0.0
H244 H 0.1466 0.17275 0.82519 0.0
H245 H 0.11222 0.14123 0.8362 0.0
C246 C 0.1396 0.15642 0.83617 0.0
C247 C 0.34507 0.1992 0.84619 0.0
H248 H 0.33997 0.22006 0.84611 0.0
H249 H 0.37223 0.20913 0.84521 0.0
H250 H 0.33647 0.18562 0.85801 0.0
O251 O 0.27961 0.18185 0.85909 0.0
O252 O 0.2422 0.19088 0.87086 0.0
C253 C 0.28462 0.25091 0.83858 0.0
O254 O 0.19336 0.13546 0.85009 0.0
O255 O 0.2307 0.12663 0.83838 0.0
Zn256 Zn 0.81851 0.04018 0.84747 0.0
O257 O 0.82189 0.02704 0.82309 0.0
C258 C 0.8904 0.09208 0.84643 0.0
Zn259 Zn 0.82691 0.08794 0.83675 0.0
C260 C 0.82827 0.04649 0.81096 0.0
O261 O 0.83095 0.07468 0.81312 0.0
C262 C 0.81752 0.08239 0.87285 0.0
O263 O 0.77482 0.06694 0.83424 0.0
O264 O 0.7658 0.01976 0.84499 0.0
N265 N 0.83533 0.13265 0.8283 0.0
C266 C 0.82643 0.15438 0.83392 0.0
C267 C 0.86182 0.17836 0.81481 0.0
N268 N 0.85702 0.14748 0.81629 0.0
N269 N 0.84316 0.18366 0.82579 0.0
C270 C 0.83224 0.98204 0.85261 0.0
C271 C 0.79103 0.94715 0.86688 0.0
N272 N 0.8127 0.99541 0.85534 0.0
N273 N 0.78708 0.97365 0.8642 0.0
N274 N 0.81937 0.95197 0.85986 0.0
H275 H 0.86563 0.97797 0.83548 0.0
H276 H 0.88503 0.01149 0.85006 0.0
H277 H 0.86281 0.01474 0.83288 0.0
C278 C 0.86296 0.99741 0.84208 0.0
C279 C 0.80008 0.14598 0.84666 0.0
H280 H 0.78126 0.11929 0.84617 0.0
H281 H 0.78759 0.16075 0.84475 0.0
H282 H 0.81147 0.15129 0.8591 0.0
O283 O 0.82294 0.10077 0.86039 0.0
O284 O 0.81501 0.05403 0.87146 0.0
C285 C 0.75454 0.03793 0.83951 0.0
O286 O 0.87048 0.06233 0.8507 0.0
O287 O 0.87893 0.109 0.83982 0.0
Zn288 Zn 0.74011 0.91543 0.67414 0.0
O289 O 0.70832 0.93647 0.67297 0.0
C290 C 0.73741 0.91304 0.63768 0.0
Zn291 Zn 0.77859 0.96114 0.66185 0.0
C292 C 0.71815 0.96583 0.66782 0.0
O293 O 0.74813 0.98365 0.66306 0.0
C294 C 0.79878 0.90927 0.66697 0.0
O295 O 0.79641 0.97836 0.68569 0.0
O296 O 0.7555 0.93436 0.69733 0.0
N297 N 0.81752 0.00358 0.65226 0.0
C298 C 0.85042 0.01678 0.65478 0.0
C299 C 0.84419 0.04966 0.63882 0.0
N300 N 0.81369 0.02404 0.64234 0.0
N301 N 0.86764 0.04545 0.64635 0.0
C302 C 0.67344 0.84989 0.678 0.0
C303 C 0.68129 0.83004 0.70005 0.0
N304 N 0.70297 0.87291 0.68418 0.0
N305 N 0.70756 0.86075 0.69804 0.0
N306 N 0.65949 0.82257 0.68762 0.0
H307 H 0.66508 0.88062 0.66097 0.0
H308 H 0.63032 0.83893 0.66353 0.0
H309 H 0.66596 0.8459 0.65185 0.0
C310 C 0.65778 0.85422 0.66275 0.0
C311 C 0.8658 0.00285 0.66626 0.0
H312 H 0.84849 0.98707 0.67594 0.0
H313 H 0.88816 0.02313 0.67231 0.0
H314 H 0.87344 0.98747 0.65907 0.0
O315 O 0.8072 0.93701 0.66019 0.0
O316 O 0.7716 0.89451 0.67486 0.0
C317 C 0.78202 0.96206 0.69856 0.0
O318 O 0.72601 0.89654 0.65083 0.0
O319 O 0.76004 0.94334 0.63831 0.0
Zn320 Zn 0.08679 0.82784 0.67243 0.0
O321 O 0.0643 0.77534 0.6742 0.0
C322 C 0.08467 0.81761 0.63675 0.0
Zn323 Zn 0.03994 0.82016 0.66089 0.0
C324 C 0.03476 0.75548 0.6694 0.0
O325 O 0.0169 0.76727 0.6641 0.0
C326 C 0.09372 0.89202 0.6625 0.0
O327 O 0.02491 0.82633 0.68466 0.0
O328 O 0.07019 0.83072 0.69544 0.0
N329 N 0.99846 0.81766 0.65054 0.0
C330 C 0.96852 0.80937 0.65693 0.0
C331 C 0.97363 0.83537 0.63457 0.0
N332 N 1.00136 0.83347 0.63655 0.0
N333 N 0.9526 0.82078 0.64728 0.0
C334 C 0.15304 0.82743 0.67704 0.0
C335 C 0.17314 0.85766 0.69835 0.0
N336 N 0.12994 0.83441 0.68267 0.0
N337 N 0.14235 0.85284 0.69607 0.0
N338 N 0.18051 0.842 0.68654 0.0
H339 H 0.12224 0.78498 0.66201 0.0
H340 H 0.1649 0.79455 0.66373 0.0
H341 H 0.15466 0.81989 0.65107 0.0
C342 C 0.14839 0.80532 0.66264 0.0
C343 C 0.95407 0.78801 0.67187 0.0
H344 H 0.96461 0.77144 0.6735 0.0
H345 H 0.92664 0.77294 0.6708 0.0
H346 H 0.96012 0.80383 0.68292 0.0
O347 O 0.06444 0.87262 0.65734 0.0
O348 O 0.1092 0.87985 0.66995 0.0
C349 C 0.04299 0.83042 0.69717 0.0
O350 O 0.1027 0.82509 0.64946 0.0
O351 O 0.05581 0.81397 0.63754 0.0
Zn352 Zn 0.17345 0.25843 0.67012 0.0
O353 O 0.22549 0.29316 0.66941 0.0
C354 C 0.17422 0.2595 0.63351 0.0
Zn355 Zn 0.18545 0.22229 0.65847 0.0
C356 C 0.24689 0.28623 0.66382 0.0
O357 O 0.23736 0.25677 0.6589 0.0
C358 C 0.11213 0.1964 0.66326 0.0
O359 O 0.18792 0.20776 0.68281 0.0
O360 O 0.17702 0.24454 0.6937 0.0
N361 N 0.19283 0.18503 0.64958 0.0
C362 C 0.18151 0.15401 0.65543 0.0
C363 C 0.20764 0.15812 0.63318 0.0
N364 N 0.20909 0.18753 0.63575 0.0
N365 N 0.19075 0.13683 0.64548 0.0
C366 C 0.17016 0.32309 0.67272 0.0
C367 C 0.14117 0.31475 0.69436 0.0
N368 N 0.16446 0.29405 0.67923 0.0
N369 N 0.14681 0.28912 0.69282 0.0
N370 N 0.15559 0.33642 0.68189 0.0
H371 H 0.21011 0.33229 0.65604 0.0
H372 H 0.20212 0.36638 0.6583 0.0
H373 H 0.17431 0.33037 0.64659 0.0
C374 C 0.19053 0.33895 0.65759 0.0
C375 C 0.15957 0.13961 0.67028 0.0
H376 H 0.17529 0.14293 0.68121 0.0
H377 H 0.14215 0.11264 0.66862 0.0
H378 H 0.14491 0.15182 0.6728 0.0
O379 O 0.13325 0.18945 0.65737 0.0
O380 O 0.12218 0.22419 0.67032 0.0
C381 C 0.18283 0.22086 0.69536 0.0
O382 O 0.16844 0.27088 0.64647 0.0
O383 O 0.18341 0.23802 0.6345 0.0
Zn384 Zn 0.76853 0.55357 0.50102 0.0
O385 O 0.74507 0.5297 0.52521 0.0
C386 C 0.70342 0.54467 0.49456 0.0
Zn387 Zn 0.76809 0.59886 0.50876 0.0
C388 C 0.74119 0.54775 0.5359 0.0
O389 O 0.75276 0.57825 0.53255 0.0
C390 C 0.79053 0.60546 0.47355 0.0
O391 O 0.82025 0.62315 0.5156 0.0
O392 O 0.817 0.57534 0.5104 0.0
N393 N 0.76406 0.63847 0.51679 0.0
C394 C 0.77706 0.67021 0.51176 0.0
C395 C 0.74431 0.66306 0.53167 0.0
N396 N 0.74392 0.63424 0.52925 0.0
N397 N 0.76496 0.68609 0.52087 0.0
C398 C 0.78662 0.49715 0.49978 0.0
C399 C 0.7691 0.47697 0.47589 0.0
N400 N 0.77203 0.51342 0.49329 0.0
N401 N 0.76116 0.50077 0.47846 0.0
N402 N 0.78538 0.47433 0.48901 0.0
H403 H 0.78997 0.51458 0.52478 0.0
H404 H 0.82746 0.51822 0.51661 0.0
H405 H 0.79422 0.4781 0.5225 0.0
C406 C 0.80013 0.50226 0.51696 0.0
C407 C 0.80262 0.68603 0.49852 0.0
H408 H 0.8196 0.67575 0.49858 0.0
H409 H 0.81725 0.71336 0.50022 0.0
H410 H 0.78989 0.68074 0.48642 0.0
O411 O 0.78228 0.6194 0.48458 0.0
O412 O 0.78858 0.5777 0.47696 0.0
C413 C 0.83413 0.60544 0.51492 0.0
O414 O 0.72162 0.53228 0.49146 0.0
O415 O 0.71576 0.57256 0.50198 0.0
Zn416 Zn 0.43631 0.22426 0.51174 0.0
O417 O 0.46255 0.22571 0.53536 0.0
C418 C 0.46479 0.18565 0.49957 0.0
Zn419 Zn 0.4005 0.17148 0.51555 0.0
C420 C 0.44881 0.1992 0.54413 0.0
O421 O 0.42124 0.17521 0.53928 0.0
C422 C 0.38809 0.19094 0.48247 0.0
O423 O 0.36366 0.1833 0.52508 0.0
O424 O 0.40427 0.23472 0.52455 0.0
N425 N 0.36955 0.12239 0.52009 0.0
C426 C 0.33806 0.10129 0.51539 0.0
C427 C 0.35279 0.07466 0.53144 0.0
N428 N 0.37863 0.10581 0.53008 0.0
N429 N 0.32708 0.0713 0.52236 0.0
C430 C 0.4959 0.29852 0.50789 0.0
C431 C 0.46722 0.3214 0.50211 0.0
N432 N 0.46373 0.27434 0.50762 0.0
N433 N 0.44616 0.28875 0.50395 0.0
N434 N 0.49868 0.3284 0.50451 0.0
H435 H 0.51495 0.2697 0.51941 0.0
H436 H 0.54351 0.31423 0.51904 0.0
H437 H 0.53496 0.28982 0.50054 0.0
C438 C 0.52396 0.29277 0.5121 0.0
C439 C 0.31744 0.11034 0.50473 0.0
H440 H 0.32451 0.13668 0.50643 0.0
H441 H 0.29065 0.09439 0.50755 0.0
H442 H 0.32143 0.10648 0.49163 0.0
O443 O 0.38067 0.16607 0.49159 0.0
O444 O 0.40944 0.21968 0.4879 0.0
C445 C 0.37456 0.21392 0.52806 0.0
O446 O 0.46903 0.21481 0.49921 0.0
O447 O 0.43848 0.1621 0.50603 0.0
Zn448 Zn 0.78438 0.22764 0.50403 0.0
O449 O 0.78187 0.25185 0.52777 0.0
C450 C 0.83576 0.29461 0.49604 0.0
Zn451 Zn 0.83222 0.23413 0.5118 0.0
C452 C 0.80431 0.25793 0.5386 0.0
O453 O 0.82533 0.24883 0.53543 0.0
C454 C 0.81862 0.20872 0.47717 0.0
O455 O 0.80816 0.1817 0.51941 0.0
O456 O 0.76143 0.1809 0.51486 0.0
N457 N 0.8776 0.24308 0.51924 0.0
C458 C 0.89611 0.22944 0.51486 0.0
C459 C 0.92579 0.2706 0.53052 0.0
N460 N 0.89599 0.26849 0.52906 0.0
N461 N 0.92664 0.24649 0.52166 0.0
C462 C 0.71385 0.222 0.50054 0.0
C463 C 0.69718 0.19206 0.47886 0.0
N464 N 0.73863 0.21691 0.49556 0.0
N465 N 0.72809 0.19838 0.4821 0.0
N466 N 0.68749 0.20642 0.49028 0.0
H467 H 0.74125 0.26672 0.51455 0.0
H468 H 0.71405 0.23051 0.52643 0.0
H469 H 0.6971 0.25099 0.51414 0.0
C470 C 0.71653 0.24385 0.51471 0.0
C471 C 0.88367 0.19858 0.50462 0.0
H472 H 0.8567 0.18193 0.50639 0.0
H473 H 0.89688 0.18502 0.50787 0.0
H474 H 0.88802 0.20541 0.4914 0.0
O475 O 0.84135 0.22135 0.48794 0.0
O476 O 0.79062 0.20596 0.48068 0.0
C477 C 0.77646 0.16592 0.51951 0.0
O478 O 0.80576 0.27347 0.49302 0.0
O479 O 0.85355 0.28593 0.50428 0.0
Zn480 Zn 0.93295 0.43971 0.66461 0.0
O481 O 0.96296 0.49234 0.65823 0.0
C482 C 0.94325 0.46416 0.69929 0.0
Zn483 Zn 0.89255 0.44844 0.67156 0.0
C484 C 0.94845 0.50945 0.65757 0.0
O485 O 0.91791 0.49567 0.6611 0.0
C486 C 0.87487 0.37999 0.67909 0.0
O487 O 0.86664 0.42586 0.64774 0.0
O488 O 0.91212 0.42611 0.6405 0.0
N489 N 0.85815 0.46025 0.67964 0.0
C490 C 0.82693 0.45236 0.6756 0.0
C491 C 0.84282 0.48816 0.69497 0.0
N492 N 0.86781 0.48246 0.69166 0.0
N493 N 0.81686 0.4697 0.68504 0.0
C494 C 1.0012 0.44316 0.66258 0.0
C495 C 0.9923 0.40693 0.64419 0.0
N496 N 0.96976 0.43099 0.65727 0.0
N497 N 0.96438 0.40868 0.64574 0.0
N498 N 0.01577 0.4284 0.6546 0.0
H499 H 0.00884 0.48809 0.67435 0.0
H500 H 0.04545 0.48401 0.67301 0.0
H501 H 0.01335 0.45947 0.68757 0.0
C502 C 0.01821 0.4704 0.67504 0.0
C503 C 0.80605 0.4265 0.66316 0.0
H504 H 0.81109 0.40557 0.66371 0.0
H505 H 0.8126 0.43756 0.65066 0.0
H506 H 0.77924 0.41696 0.66536 0.0
O507 O 0.86655 0.40162 0.68211 0.0
O508 O 0.90166 0.38828 0.67125 0.0
C509 C 0.88245 0.41858 0.63715 0.0
O510 O 0.95288 0.4505 0.68885 0.0
O511 O 0.91938 0.46878 0.69523 0.0
Zn512 Zn 0.55619 0.49287 0.66395 0.0
O513 O 0.50752 0.48055 0.6548 0.0
C514 C 0.52397 0.46607 0.69691 0.0
Zn515 Zn 0.54195 0.44005 0.66626 0.0
C516 C 0.48768 0.44979 0.65229 0.0
O517 O 0.49727 0.42924 0.65523 0.0
C518 C 0.60901 0.47996 0.67808 0.0
O519 O 0.56608 0.44414 0.64176 0.0
O520 O 0.57507 0.4948 0.63983 0.0
N521 N 0.52413 0.38994 0.66577 0.0
C522 C 0.52174 0.36594 0.67602 0.0
C523 C 0.4994 0.34279 0.65322 0.0
N524 N 0.51013 0.37531 0.65168 0.0
N525 N 0.50618 0.33592 0.66837 0.0
C526 C 0.56078 0.56155 0.66791 0.0
C527 C 0.60148 0.59174 0.65208 0.0
N528 N 0.57213 0.54214 0.66177 0.0
N529 N 0.59739 0.56096 0.65194 0.0
N530 N 0.57872 0.59261 0.66197 0.0
H531 H 0.512 0.52422 0.67585 0.0
H532 H 0.52053 0.56644 0.67811 0.0
H533 H 0.53931 0.55033 0.69193 0.0
C534 C 0.5313 0.54992 0.67901 0.0
C535 C 0.53573 0.37247 0.6931 0.0
H536 H 0.54758 0.35731 0.69565 0.0
H537 H 0.51532 0.36559 0.70207 0.0
H538 H 0.55404 0.39912 0.69487 0.0
O539 O 0.5857 0.45006 0.67714 0.0
O540 O 0.60418 0.50338 0.67331 0.0
C541 C 0.57872 0.47157 0.63388 0.0
O542 O 0.53883 0.49206 0.68814 0.0
O543 O 0.52038 0.43874 0.69116 0.0
Zn544 Zn 0.50479 0.06922 0.67018 0.0
O545 O 0.52992 0.04203 0.66342 0.0
C546 C 0.52251 0.06226 0.70483 0.0
Zn547 Zn 0.55294 0.11229 0.67669 0.0
C548 C 0.56156 0.0578 0.66288 0.0
O549 O 0.57715 0.08839 0.66658 0.0
C550 C 0.49869 0.12506 0.68468 0.0
O551 O 0.55311 0.13625 0.65266 0.0
O552 O 0.50958 0.08893 0.64596 0.0
N553 N 0.59769 0.15131 0.68379 0.0
C554 C 0.62745 0.16878 0.67628 0.0
C555 C 0.63401 0.18394 0.70144 0.0
N556 N 0.60186 0.16096 0.69937 0.0
N557 N 0.65078 0.18934 0.68717 0.0
C558 C 0.44176 0.99878 0.66903 0.0
C559 C 0.41339 0.00511 0.65027 0.0
N560 N 0.45994 0.03013 0.66336 0.0
N561 N 0.44234 0.03387 0.6516 0.0
N562 N 0.41247 0.98266 0.66104 0.0
H563 H 0.48034 0.99379 0.68104 0.0
H564 H 0.44042 0.95602 0.68012 0.0
H565 H 0.44676 0.98852 0.69418 0.0
C566 C 0.45311 0.98336 0.68178 0.0
C567 C 0.63378 0.16436 0.6586 0.0
H568 H 0.61321 0.1414 0.65328 0.0
H569 H 0.65742 0.16409 0.65742 0.0
H570 H 0.63585 0.18547 0.65131 0.0
O571 O 0.52932 0.13581 0.68708 0.0
O572 O 0.4814 0.09746 0.67724 0.0
C573 C 0.53011 0.11896 0.64227 0.0
O574 O 0.49885 0.05043 0.6945 0.0
O575 O 0.54986 0.08778 0.70065 0.0
Zn576 Zn 0.58648 0.08045 0.17317 0.0
O577 O 0.60899 0.05005 0.17184 0.0
C578 C 0.5856 0.07456 0.20956 0.0
Zn579 Zn 0.63191 0.11928 0.18567 0.0
C580 C 0.63773 0.05982 0.17783 0.0
O581 O 0.65409 0.08901 0.18381 0.0
C582 C 0.57952 0.13832 0.18255 0.0
O583 O 0.64828 0.13808 0.16164 0.0
O584 O 0.60317 0.09871 0.15002 0.0
N585 N 0.67482 0.15782 0.19514 0.0
C586 C 0.69229 0.18959 0.18995 0.0
C587 C 0.71868 0.18476 0.21023 0.0
N588 N 0.6912 0.15487 0.20779 0.0
N589 N 0.71991 0.20673 0.19906 0.0
C590 C 0.52165 0.01305 0.16834 0.0
C591 C 0.49912 0.02497 0.14871 0.0
N592 N 0.54353 0.04404 0.16324 0.0
N593 N 0.52965 0.05121 0.1509 0.0
N594 N 0.49312 1.0006 0.15956 0.0
H595 H 0.55595 0.00215 0.18092 0.0
H596 H 0.51443 0.96736 0.17899 0.0
H597 H 0.52359 1.00028 0.19354 0.0
C598 C 0.52931 0.99455 0.18113 0.0
C599 C 0.6821 0.20473 0.17643 0.0
H600 H 0.69582 0.20602 0.16504 0.0
H601 H 0.68881 0.23052 0.17975 0.0
H602 H 0.65528 0.19045 0.17381 0.0
O603 O 0.6083 0.1479 0.18828 0.0
O604 O 0.56438 0.11074 0.17499 0.0
C605 C 0.63101 0.12502 0.14881 0.0
O606 O 0.56948 0.06295 0.19633 0.0
O607 O 0.61481 0.09945 0.20921 0.0
Zn608 Zn 0.93167 0.51211 0.17586 0.0
O609 O 0.96583 0.56383 0.17906 0.0
C610 C 0.92534 0.50542 0.21227 0.0
Zn611 Zn 0.89348 0.52205 0.18671 0.0
C612 C 0.95778 0.58426 0.18489 0.0
O613 O 0.92766 0.57387 0.18888 0.0
C614 C 0.86899 0.4498 0.17899 0.0
O615 O 0.88378 0.52943 0.16237 0.0
O616 O 0.92215 0.52021 0.15208 0.0
N617 N 0.85464 0.52752 0.19478 0.0
C618 C 0.82401 0.51514 0.18827 0.0
C619 C 0.82429 0.53789 0.21113 0.0
N620 N 0.85482 0.54176 0.20896 0.0
N621 N 0.80456 0.52123 0.19831 0.0
C622 C 0.99663 0.50899 0.17509 0.0
C623 C 0.9927 0.48498 0.15217 0.0
N624 N 0.96892 0.50475 0.16759 0.0
N625 N 0.96674 0.49018 0.15325 0.0
N626 N 0.01183 0.49654 0.16574 0.0
H627 H 0.0026 0.5456 0.19324 0.0
H628 H 0.03692 0.53777 0.19186 0.0
H629 H 0.99872 0.50795 0.20141 0.0
C630 C 0.00951 0.52625 0.19129 0.0
C631 C 0.81395 0.49961 0.17146 0.0
H632 H 0.82494 0.51956 0.16206 0.0
H633 H 0.78675 0.48641 0.16958 0.0
H634 H 0.82316 0.48218 0.16917 0.0
O635 O 0.86066 0.46981 0.18504 0.0
O636 O 0.89801 0.46117 0.17319 0.0
C637 C 0.89918 0.52696 0.15006 0.0
O638 O 0.93956 0.5026 0.19958 0.0
O639 O 0.90431 0.51508 0.21092 0.0
Zn640 Zn 0.48753 0.37676 0.18647 0.0
O641 O 0.48763 0.3601 0.16217 0.0
C642 C 0.55943 0.42661 0.18246 0.0
Zn643 Zn 0.49563 0.42321 0.17432 0.0
C644 C 0.49125 0.37752 0.14946 0.0
O645 O 0.49438 0.40605 0.15099 0.0
C646 C 0.49346 0.42434 0.2108 0.0
O647 O 0.44258 0.40262 0.17393 0.0
O648 O 0.43552 0.35661 0.18527 0.0
N649 N 0.50411 0.4676 0.16504 0.0
C650 C 0.49689 0.49043 0.1709 0.0
C651 C 0.5316 0.513 0.15138 0.0
N652 N 0.52538 0.48158 0.15279 0.0
N653 N 0.51438 0.51956 0.1627 0.0
C654 C 0.49428 0.31412 0.19029 0.0
C655 C 0.46492 0.29005 0.21146 0.0
N656 N 0.48157 0.33293 0.19568 0.0
N657 N 0.46335 0.31794 0.20886 0.0
N658 N 0.48391 0.28701 0.19984 0.0
H659 H 0.50482 0.30915 0.16514 0.0
H660 H 0.53708 0.31545 0.17924 0.0
H661 H 0.53158 0.34973 0.1735 0.0
C662 C 0.51844 0.32294 0.17631 0.0
C663 C 0.47125 0.48326 0.18391 0.0
H664 H 0.45142 0.45691 0.18351 0.0
H665 H 0.45994 0.49916 0.1822 0.0
H666 H 0.48291 0.4881 0.19625 0.0
O667 O 0.49787 0.44048 0.19761 0.0
O668 O 0.48714 0.39441 0.2103 0.0
C669 C 0.42321 0.37374 0.17973 0.0
O670 O 0.53943 0.39817 0.18831 0.0
O671 O 0.54791 0.44289 0.17518 0.0
Zn672 Zn 0.44719 0.2983 0.99881 0.0
O673 O 0.46266 0.31258 0.02323 0.0
C674 C 0.46792 0.24683 0.0021 0.0
Zn675 Zn 0.4076 0.2504 0.00899 0.0
C676 C 0.44744 0.29392 0.03535 0.0
O677 O 0.42181 0.26596 0.03287 0.0
C678 C 0.40727 0.25408 0.97263 0.0
O679 O 0.37557 0.27021 0.00911 0.0
O680 O 0.41453 0.31867 1.00009 0.0
N681 N 0.37102 0.20639 0.01767 0.0
C682 C 0.34078 0.18416 0.01185 0.0
C683 C 0.35061 0.16242 0.03259 0.0
N684 N 0.37688 0.193 0.03068 0.0
N685 N 0.32748 0.15591 0.0209 0.0
C686 C 0.51892 0.35666 0.99367 0.0
C687 C 0.51204 0.39223 0.9803 0.0
N688 N 0.48601 0.34303 0.99094 0.0
N689 N 0.4818 0.36521 0.98264 0.0
N690 N 0.53567 0.38724 0.98701 0.0
H691 H 0.55812 0.36043 0.00947 0.0
H692 H 0.54094 0.32595 0.99544 0.0
H693 H 0.518 0.325 0.01349 0.0
C694 C 0.53476 0.34114 0.00368 0.0
C695 C 0.3239 0.19119 0.99797 0.0
H696 H 0.33211 0.21792 0.99727 0.0
H697 H 0.29654 0.17698 0.99953 0.0
H698 H 0.33055 0.18416 0.98613 0.0
O699 O 0.39398 0.23501 0.98488 0.0
O700 O 0.43107 0.28351 0.97479 0.0
C701 C 0.3844 0.29948 0.00432 0.0
O702 O 0.47744 0.27592 0.99677 0.0
O703 O 0.4394 0.23034 0.00858 0.0
Zn704 Zn 0.75298 0.15879 0.01057 0.0
O705 O 0.7286 0.10576 0.01185 0.0
C706 C 0.75138 0.15199 0.97464 0.0
Zn707 Zn 0.70741 0.15439 0.99908 0.0
C708 C 0.69918 0.0877 0.00636 0.0
O709 O 0.68323 0.10157 1.00106 0.0
C710 C 0.76194 0.22487 0.00162 0.0
O711 O 0.69247 0.15934 0.02311 0.0
O712 O 0.73694 0.16145 0.03365 0.0
N713 N 0.66685 0.1536 0.98883 0.0
C714 C 0.63715 0.14642 0.9951 0.0
C715 C 0.64287 0.17126 0.97228 0.0
N716 N 0.67015 0.16871 0.97456 0.0
N717 N 0.62177 0.15779 0.98506 0.0
C718 C 0.81866 0.15743 0.01428 0.0
C719 C 0.84032 0.18861 0.03511 0.0
N720 N 0.79566 0.16387 0.02055 0.0
N721 N 0.809 0.18278 0.03371 0.0
N722 N 0.84712 0.17308 0.023 0.0
H723 H 0.7871 0.11513 0.99928 0.0
H724 H 0.82977 0.12441 1.0007 0.0
H725 H 0.81962 0.14995 0.98824 0.0
C726 C 0.81337 0.13533 0.99979 0.0
C727 C 0.6225 0.12623 0.01037 0.0
H728 H 0.63202 0.10884 0.01224 0.0
H729 H 0.595 0.11206 0.00955 0.0
H730 H 0.62965 0.14287 0.0212 0.0
O731 O 0.73249 0.20632 0.99655 0.0
O732 O 0.77704 0.21177 0.00862 0.0
C733 C 0.71037 0.16229 0.03554 0.0
O734 O 0.76858 0.15632 0.98742 0.0
O735 O 0.72339 0.1503 0.97558 0.0
Zn736 Zn 0.85454 0.55952 0.99828 0.0
O737 O 0.85799 0.55042 0.02313 0.0
C738 C 0.78172 0.53676 0.00206 0.0
Zn739 Zn 0.8449 0.59932 0.0073 0.0
C740 C 0.85301 0.56541 0.03486 0.0
O741 O 0.84614 0.58805 0.03189 0.0
C742 C 0.84821 0.59462 0.97093 0.0
O743 O 0.89696 0.63272 0.00728 0.0
O744 O 0.90698 0.59428 0.99785 0.0
N745 N 0.83651 0.63685 0.01402 0.0
C746 C 0.84215 0.66469 0.00611 0.0
C747 C 0.81451 0.66069 0.02774 0.0
N748 N 0.81965 0.63463 0.02757 0.0
N749 N 0.82838 0.67995 0.01439 0.0
C750 C 0.845 0.48857 0.99646 0.0
C751 C 0.88305 0.49402 0.97997 0.0
N752 N 0.86203 0.52083 0.99196 0.0
N753 N 0.88577 0.52418 0.98176 0.0
N754 N 0.85746 0.47121 0.98899 0.0
H755 H 0.81821 0.49317 0.01728 0.0
H756 H 0.8178 0.4543 0.01604 0.0
H757 H 0.79323 0.46306 0.00209 0.0
C758 C 0.81718 0.47419 0.00876 0.0
C759 C 0.86228 0.6778 0.99067 0.0
H760 H 0.88291 0.67238 0.99061 0.0
H761 H 0.87263 0.70504 0.98965 0.0
H762 H 0.84629 0.66579 0.97979 0.0
O763 O 0.8437 0.60947 0.98286 0.0
O764 O 0.85256 0.57018 0.9735 0.0
C765 C 0.91757 0.62437 0.00209 0.0
O766 O 0.80164 0.52653 0.99824 0.0
O767 O 0.79337 0.56666 0.00664 0.0
Zn768 Zn 0.457 0.89882 0.84567 0.0
O769 O 0.43268 0.87224 0.86914 0.0
C770 C 0.38855 0.8738 0.83617 0.0
Zn771 Zn 0.44322 0.93594 0.85101 0.0
C772 C 0.42426 0.88787 0.87931 0.0
O773 O 0.43093 0.91713 0.87552 0.0
C774 C 0.47032 0.94696 0.81707 0.0
O775 O 0.49478 0.97095 0.85749 0.0
O776 O 0.50199 0.92799 0.8576 0.0
N777 N 0.42934 0.96992 0.85676 0.0
C778 C 0.43973 1.00071 0.85091 0.0
C779 C 0.40096 0.98974 0.8681 0.0
N780 N 0.40542 0.96324 0.86754 0.0
N781 N 0.42227 0.01354 0.85779 0.0
C782 C 0.46738 0.8366 0.84127 0.0
C783 C 0.51255 0.86092 0.82758 0.0
N784 N 0.47534 0.86858 0.83939 0.0
N785 N 0.50343 0.88347 0.83094 0.0
N786 N 0.49046 0.83124 0.83392 0.0
H787 H 0.41677 0.81765 0.84891 0.0
H788 H 0.44189 0.80923 0.86272 0.0
H789 H 0.42751 0.7861 0.84378 0.0
C790 C 0.43642 0.81079 0.84955 0.0
C791 C 0.46765 0.0189 0.83892 0.0
H792 H 0.48652 0.01118 0.84015 0.0
H793 H 0.47967 0.04613 0.8409 0.0
H794 H 0.45763 0.01349 0.82621 0.0
O795 O 0.45304 0.95383 0.82659 0.0
O796 O 0.47857 0.92608 0.82209 0.0
C797 C 0.51364 0.95876 0.85976 0.0
O798 O 0.41284 0.86912 0.83377 0.0
O799 O 0.39307 0.8996 0.84397 0.0
Zn800 Zn 0.11102 0.5536 0.83878 0.0
O801 O 0.13694 0.55587 0.86243 0.0
C802 C 0.12754 0.50249 0.83119 0.0
Zn803 Zn 0.06981 0.50525 0.8461 0.0
C804 C 0.12078 0.53341 0.87327 0.0
O805 O 0.09067 0.51205 0.87018 0.0
C806 C 0.0592 0.51971 0.81146 0.0
O807 O 0.04084 0.52839 0.85299 0.0
O808 O 0.08629 0.57616 0.84957 0.0
N809 N 0.03289 0.45951 0.85295 0.0
C810 C 1.00065 0.44161 0.84856 0.0
C811 C 0.01158 0.41073 0.86358 0.0
N812 N 0.03955 0.44035 0.86236 0.0
N813 N 0.98671 0.41064 0.85497 0.0
C814 C 0.17607 0.6241 0.83562 0.0
C815 C 0.1608 0.64313 0.81562 0.0
N816 N 0.14573 0.59988 0.83086 0.0
N817 N 0.13649 0.61189 0.81844 0.0
N818 N 0.18593 0.65162 0.82627 0.0
H819 H 0.18812 0.62341 0.86095 0.0
H820 H 0.22317 0.63811 0.84714 0.0
H821 H 0.19269 0.5944 0.84809 0.0
C822 C 0.19639 0.61988 0.84867 0.0
C823 C 0.98278 0.45504 0.83861 0.0
H824 H 0.99396 0.4821 0.84024 0.0
H825 H 0.95623 0.44287 0.84219 0.0
H826 H 0.98453 0.45039 0.82534 0.0
O827 O 0.04907 0.49651 0.82197 0.0
O828 O 0.08399 0.54778 0.81531 0.0
C829 C 0.05587 0.56001 0.85344 0.0
O830 O 0.1364 0.53248 0.82795 0.0
O831 O 0.10069 0.48465 0.83912 0.0
Zn832 Zn 0.44972 0.5576 0.8372 0.0
O833 O 0.44848 0.58096 0.86118 0.0
C834 C 0.50209 0.62492 0.82924 0.0
Zn835 Zn 0.49857 0.564 0.84353 0.0
C836 C 0.47171 0.58745 0.87156 0.0
O837 O 0.49312 0.57914 0.86777 0.0
C838 C 0.48065 0.53753 0.80895 0.0
O839 O 0.47499 0.51229 0.85058 0.0
O840 O 0.42705 0.50998 0.84738 0.0
N841 N 0.54397 0.57174 0.85064 0.0
C842 C 0.5624 0.55816 0.846 0.0
C843 C 0.5909 0.59613 0.86344 0.0
N844 N 0.56165 0.59513 0.8616 0.0
N845 N 0.59193 0.57309 0.85381 0.0
C846 C 0.37438 0.53739 0.83724 0.0
C847 C 0.36814 0.54552 0.81197 0.0
N848 N 0.40438 0.55019 0.82992 0.0
N849 N 0.40038 0.55534 0.81426 0.0
N850 N 0.3511 0.53402 0.82616 0.0
H851 H 0.38835 0.52441 0.86033 0.0
H852 H 0.34417 0.50287 0.85607 0.0
H853 H 0.36567 0.54588 0.86213 0.0
C854 C 0.36782 0.52677 0.85492 0.0
C855 C 0.55126 0.52955 0.83436 0.0
H856 H 0.52385 0.51401 0.83419 0.0
H857 H 0.56228 0.51407 0.8379 0.0
H858 H 0.56017 0.53935 0.82184 0.0
O859 O 0.50487 0.54998 0.81902 0.0
O860 O 0.45368 0.53637 0.81333 0.0
C861 C 0.44339 0.49582 0.85115 0.0
O862 O 0.4717 0.60425 0.82684 0.0
O863 O 0.52038 0.61551 0.83639 0.0
Zn864 Zn 0.60269 0.77403 0.99622 0.0
O865 O 0.62657 0.82674 0.99039 0.0
C866 C 0.61184 0.79564 0.03167 0.0
Zn867 Zn 0.55808 0.77442 0.00503 0.0
C868 C 0.60879 0.84048 0.99164 0.0
O869 O 0.57868 0.82293 0.99603 0.0
C870 C 0.54931 0.70897 0.0103 0.0
O871 O 0.53275 0.75184 0.98108 0.0
O872 O 0.58067 0.75992 0.97231 0.0
N873 N 0.51964 0.77874 0.01479 0.0
C874 C 0.49454 0.78256 0.00896 0.0
C875 C 0.49613 0.78913 0.03502 0.0
N876 N 0.52026 0.78264 0.03096 0.0
N877 N 0.47966 0.78962 0.02148 0.0
C878 C 0.67382 0.78411 0.99218 0.0
C879 C 0.66607 0.74887 0.97346 0.0
N880 N 0.64194 0.77044 0.98733 0.0
N881 N 0.63732 0.74883 0.97554 0.0
N882 N 0.68941 0.77083 0.98378 0.0
H883 H 0.67868 0.82705 0.00485 0.0
H884 H 0.71705 0.82637 0.00234 0.0
H885 H 0.68678 0.79944 0.01709 0.0
C886 C 0.69004 0.811 0.0048 0.0
C887 C 0.48342 0.77672 0.99135 0.0
H888 H 0.50182 0.79756 0.98367 0.0
H889 H 0.45849 0.77389 0.98978 0.0
H890 H 0.48194 0.7535 0.98692 0.0
O891 O 0.5375 0.72731 0.01425 0.0
O892 O 0.57652 0.72128 0.00228 0.0
C893 C 0.54993 0.74862 0.96963 0.0
O894 O 0.6249 0.78699 0.02039 0.0
O895 O 0.58428 0.79417 0.0286 0.0
Zn896 Zn 0.22899 0.8284 1.00036 0.0
O897 O 0.17938 0.81496 0.99152 0.0
C898 C 0.19706 0.80724 0.03353 0.0
Zn899 Zn 0.21316 0.77629 0.00416 0.0
C900 C 0.15988 0.7843 0.98856 0.0
O901 O 0.16987 0.76405 0.99129 0.0
C902 C 0.28049 0.81617 0.01609 0.0
O903 O 0.23944 0.77708 0.98069 0.0
O904 O 0.24547 0.8262 0.97615 0.0
N905 N 0.1932 0.72646 0.00755 0.0
C906 C 0.20486 0.70523 0.00892 0.0
C907 C 0.15202 0.67658 0.01059 0.0
N908 N 0.16042 0.70854 0.00867 0.0
N909 N 0.17944 0.67386 0.01084 0.0
C910 C 0.23312 0.89691 0.00169 0.0
C911 C 0.2782 0.9273 0.98871 0.0
N912 N 0.24543 0.87737 0.99696 0.0
N913 N 0.27339 0.89627 0.9889 0.0
N914 N 0.25337 0.9285 0.99669 0.0
H915 H 0.18382 0.85801 0.00882 0.0
H916 H 0.18831 0.89851 0.00658 0.0
H917 H 0.2058 0.88874 0.02408 0.0
C918 C 0.20085 0.88477 0.01067 0.0
C919 C 0.24072 0.71505 0.00769 0.0
H920 H 0.25444 0.73766 1.00002 0.0
H921 H 0.24345 0.69452 0.0024 0.0
H922 H 0.25169 0.7205 0.02023 0.0
O923 O 0.2555 0.78715 0.01683 0.0
O924 O 0.2775 0.83935 0.00934 0.0
C925 C 0.25057 0.80297 0.97153 0.0
O926 O 0.21471 0.83229 0.02456 0.0
O927 O 0.18961 0.7786 0.02793 0.0
Zn928 Zn 0.17657 0.40036 0.99675 0.0
O929 O 0.19065 0.36496 0.98802 0.0
C930 C 0.19607 0.38961 0.0299 0.0
Zn931 Zn 0.22878 0.43862 1.00079 0.0
C932 C 0.22164 0.37664 0.98585 0.0
O933 O 0.24145 0.40688 0.98901 0.0
C934 C 0.18769 0.46463 0.01216 0.0
O935 O 0.23048 0.46378 0.97696 0.0
O936 O 0.18098 0.421 0.97274 0.0
N937 N 0.27836 0.46752 0.0057 0.0
C938 C 0.30309 0.49897 0.00316 0.0
C939 C 0.32399 0.47336 0.01564 0.0
N940 N 0.29159 0.45183 0.01341 0.0
N941 N 0.3321 0.50321 0.00931 0.0
C942 C 0.10664 0.33704 0.99704 0.0
C943 C 0.07922 0.35093 0.98111 0.0
N944 N 0.12768 0.36811 0.99173 0.0
N945 N 0.11062 0.3766 0.98174 0.0
N946 N 0.0762 0.32585 0.99061 0.0
H947 H 0.14208 0.32388 0.0062 0.0
H948 H 0.09964 0.29013 0.00568 0.0
H949 H 0.11222 0.32202 0.02103 0.0
C950 C 0.11585 0.3171 0.00805 0.0
C951 C 0.29814 0.5254 0.99543 0.0
H952 H 0.30374 0.52668 0.98207 0.0
H953 H 0.31505 0.54996 1.00105 0.0
H954 H 0.272 0.51941 0.99683 0.0
O955 O 0.21739 0.47049 0.01242 0.0
O956 O 0.16492 0.43728 0.00607 0.0
C957 C 0.20457 0.44885 0.96784 0.0
O958 O 0.17104 0.38004 0.02061 0.0
O959 O 0.224 0.41316 0.02487 0.0
Zn960 Zn 0.30034 0.44172 0.51693 0.0
O961 O 0.31759 0.44654 0.49268 0.0
C962 C 0.25058 0.4628 0.50624 0.0
Zn963 Zn 0.25185 0.40123 0.50758 0.0
C964 C 0.29958 0.42801 0.48109 0.0
O965 O 0.26981 0.40601 0.48395 0.0
C966 C 0.25243 0.41452 0.54339 0.0
O967 O 0.27027 0.36938 0.51359 0.0
O968 O 0.31915 0.40863 0.52204 0.0
N969 N 0.209 0.36055 0.50017 0.0
C970 C 0.17742 0.34758 0.50527 0.0
C971 C 0.17788 0.31507 0.48682 0.0
N972 N 0.20925 0.34035 0.48868 0.0
N973 N 0.15769 0.31907 0.49724 0.0
C974 C 0.35841 0.51438 0.51741 0.0
C975 C 0.38882 0.51541 0.53729 0.0
N976 N 0.34432 0.48324 0.52354 0.0
N977 N 0.36335 0.48391 0.53586 0.0
N978 N 0.38609 0.53506 0.52593 0.0
H979 H 0.33165 0.50346 0.4942 0.0
H980 H 0.36729 0.5444 0.49566 0.0
H981 H 0.32992 0.53424 0.50669 0.0
C982 C 0.34615 0.52448 0.5026 0.0
C983 C 0.16554 0.36289 0.51784 0.0
H984 H 0.16487 0.35182 0.53003 0.0
H985 H 0.13996 0.35734 0.51491 0.0
H986 H 0.1821 0.39014 0.51848 0.0
O987 O 0.23467 0.39716 0.53143 0.0
O988 O 0.28282 0.43578 0.54112 0.0
C989 C 0.29873 0.3779 0.51947 0.0
O990 O 0.27919 0.47266 0.51237 0.0
O991 O 0.23297 0.43265 0.50192 0.0
Zn992 Zn 0.55497 0.85388 0.51909 0.0
O993 O 0.54709 0.86108 0.4943 0.0
C994 C 0.5327 0.78212 0.51159 0.0
Zn995 Zn 0.59543 0.84578 0.50971 0.0
C996 C 0.56471 0.86005 0.48263 0.0
O997 O 0.58813 0.85445 0.48571 0.0
C998 C 0.58514 0.83815 0.54589 0.0
O999 O 0.62868 0.89788 0.51315 0.0
O1000 O 0.58855 0.90623 0.52166 0.0
N1001 N 0.63365 0.8392 0.50223 0.0
C1002 C 0.66057 0.84251 0.51018 0.0
C1003 C 0.6592 0.82168 0.48662 0.0
N1004 N 0.63306 0.82659 0.48752 0.0
N1005 N 0.67689 0.83143 0.5007 0.0
C1006 C 0.48456 0.84571 0.51878 0.0
C1007 C 0.48273 0.86792 0.54143 0.0
N1008 N 0.51471 0.85823 0.52593 0.0
N1009 N 0.51351 0.8721 0.53999 0.0
N1010 N 0.46423 0.8517 0.52819 0.0
H1011 H 0.47359 0.84102 0.49301 0.0
H1012 H 0.44827 0.80406 0.50465 0.0
H1013 H 0.49044 0.81582 0.49979 0.0
C1014 C 0.47385 0.82538 0.50325 0.0
C1015 C 0.67176 0.85802 0.52686 0.0
H1016 H 0.66509 0.87756 0.52883 0.0
H1017 H 0.69901 0.86897 0.52821 0.0
H1018 H 0.65938 0.83877 0.53648 0.0
O1019 O 0.60137 0.83613 0.53384 0.0
O1020 O 0.56367 0.84696 0.54357 0.0
C1021 C 0.61919 0.91767 0.51834 0.0
O1022 O 0.52331 0.8016 0.51721 0.0
O1023 O 0.56237 0.79418 0.50655 0.0
Zn1024 Zn 0.15435 0.74426 0.50685 0.0
O1025 O 0.102 0.72432 0.50873 0.0
C1026 C 0.15706 0.73704 0.54302 0.0
Zn1027 Zn 0.14645 0.69504 0.51495 0.0
C1028 C 0.08226 0.69448 0.51311 0.0
O1029 O 0.09394 0.67541 0.51625 0.0
C1030 C 0.2185 0.74647 0.50981 0.0
O1031 O 0.14194 0.68272 0.48989 0.0
O1032 O 0.14968 0.73144 0.48234 0.0
N1033 N 0.14162 0.6499 0.52082 0.0
C1034 C 0.15419 0.63265 0.51333 0.0
C1035 C 0.13023 0.6065 0.53527 0.0
N1036 N 0.12664 0.63353 0.53443 0.0
N1037 N 0.14715 0.60524 0.52208 0.0
C1038 C 0.15731 0.81242 0.50864 0.0
C1039 C 0.17939 0.83373 0.48556 0.0
N1040 N 0.16076 0.78934 0.50024 0.0
N1041 N 0.17406 0.80248 0.4858 0.0
N1042 N 0.16909 0.84062 0.49976 0.0
H1043 H 0.12101 0.78093 0.52655 0.0
H1044 H 0.13112 0.82397 0.52701 0.0
H1045 H 0.15998 0.81242 0.53497 0.0
C1046 C 0.14127 0.80706 0.52524 0.0
C1047 C 0.17524 0.64359 0.49804 0.0
H1048 H 0.15926 0.63104 0.48721 0.0
H1049 H 0.19476 0.63656 0.49865 0.0
H1050 H 0.18731 0.67065 0.49611 0.0
O1051 O 0.19931 0.71661 0.5143 0.0
O1052 O 0.20599 0.76399 0.50531 0.0
C1053 C 0.14461 0.70284 0.47866 0.0
O1054 O 0.16015 0.75676 0.53149 0.0
O1055 O 0.15015 0.70758 0.53977 0.0
Zn1056 Zn 0.07512 0.58685 0.33485 0.0
O1057 O 0.0421 0.60594 0.33094 0.0
C1058 C 0.08489 0.5868 0.29866 0.0
Zn1059 Zn 0.11528 0.63469 0.32462 0.0
C1060 C 0.05165 0.63468 0.32495 0.0
O1061 O 0.08216 0.65329 0.32126 0.0
C1062 C 0.13753 0.5858 0.3335 0.0
O1063 O 0.12306 0.65157 0.34921 0.0
O1064 O 0.0831 0.6038 0.35855 0.0
N1065 N 0.15539 0.67876 0.31727 0.0
C1066 C 0.18513 0.69737 0.32464 0.0
C1067 C 0.18761 0.71923 0.30123 0.0
N1068 N 0.15695 0.69246 0.30274 0.0
N1069 N 0.20562 0.72299 0.3149 0.0
C1070 C 0.00986 0.51876 0.3347 0.0
C1071 C 0.01193 0.49883 0.35799 0.0
N1072 N 0.03679 0.54238 0.34265 0.0
N1073 N 0.0378 0.53008 0.35721 0.0
N1074 N 0.99401 0.49105 0.34398 0.0
H1075 H 0.00494 0.54948 0.31629 0.0
H1076 H 0.97099 0.50698 0.31698 0.0
H1077 H 0.0103 0.51639 0.30836 0.0
C1078 C 0.99827 0.52325 0.31816 0.0
C1079 C 0.19511 0.68938 0.34087 0.0
H1080 H 0.18025 0.6628 0.34399 0.0
H1081 H 0.1915 0.7038 0.35074 0.0
H1082 H 0.22168 0.69641 0.34073 0.0
O1083 O 0.14694 0.61431 0.3274 0.0
O1084 O 0.10782 0.56836 0.33847 0.0
C1085 C 0.10626 0.63319 0.36112 0.0
O1086 O 0.06882 0.56994 0.31108 0.0
O1087 O 0.10657 0.61725 0.3003 0.0
Zn1088 Zn 0.42155 0.48845 0.33649 0.0
O1089 O 0.40299 0.43731 0.33107 0.0
C1090 C 0.41407 0.49918 0.3009 0.0
Zn1091 Zn 0.37205 0.48054 0.32926 0.0
C1092 C 0.37296 0.41744 0.32708 0.0
O1093 O 0.3529 0.4285 0.32576 0.0
C1094 C 0.4222 0.55169 0.33763 0.0
O1095 O 0.36057 0.47173 0.35428 0.0
O1096 O 0.40855 0.47659 0.36091 0.0
N1097 N 0.32663 0.47605 0.32466 0.0
C1098 C 0.3131 0.49352 0.33088 0.0
C1099 C 0.27991 0.46107 0.31255 0.0
N1100 N 0.30589 0.45577 0.31333 0.0
N1101 N 0.28401 0.48486 0.32335 0.0
C1102 C 0.48952 0.49242 0.33152 0.0
C1103 C 0.51324 0.51187 0.35456 0.0
N1104 N 0.46737 0.49475 0.34131 0.0
N1105 N 0.48203 0.50647 0.3557 0.0
N1106 N 0.5186 0.50329 0.33949 0.0
H1107 H 0.45595 0.45891 0.31315 0.0
H1108 H 0.49835 0.46756 0.31139 0.0
H1109 H 0.48781 0.49834 0.30546 0.0
C1110 C 0.48239 0.47831 0.31442 0.0
C1111 C 0.32752 0.51801 0.3448 0.0
H1112 H 0.30749 0.51802 0.35223 0.0
H1113 H 0.34333 0.5433 0.33973 0.0
H1114 H 0.34304 0.51244 0.35299 0.0
O1115 O 0.39297 0.53273 0.3323 0.0
O1116 O 0.44005 0.5392 0.34156 0.0
C1117 C 0.37992 0.47092 0.36504 0.0
O1118 O 0.43393 0.50119 0.31213 0.0
O1119 O 0.38386 0.48884 0.30429 0.0
Zn1120 Zn 0.51451 0.92717 0.33776 0.0
O1121 O 0.56646 0.96015 0.33544 0.0
C1122 C 0.51149 0.9193 0.30164 0.0
Zn1123 Zn 0.52254 0.88638 0.3291 0.0
C1124 C 0.58645 0.9502 0.33134 0.0
O1125 O 0.57515 0.91941 0.3285 0.0
C1126 C 0.45062 0.86488 0.33437 0.0
O1127 O 0.52597 0.87662 0.35408 0.0
O1128 O 0.52072 0.91887 0.36199 0.0
N1129 N 0.5278 0.84662 0.32248 0.0
C1130 C 0.51508 0.81632 0.32946 0.0
C1131 C 0.54101 0.81611 0.30785 0.0
N1132 N 0.54396 0.84645 0.30906 0.0
N1133 N 0.5233 0.79694 0.32062 0.0
C1134 C 0.51242 0.99307 0.33768 0.0
C1135 C 0.48477 0.98708 0.35957 0.0
N1136 N 0.50686 0.96468 0.34497 0.0
N1137 N 0.48998 0.96121 0.35863 0.0
N1138 N 0.49834 0.00757 0.34654 0.0
H1139 H 0.55177 0.99894 0.32148 0.0
H1140 H 0.54612 0.03453 0.32257 0.0
H1141 H 0.51695 0.99759 0.31142 0.0
C1142 C 0.53312 0.00699 0.32246 0.0
C1143 C 0.49264 0.80459 0.34424 0.0
H1144 H 0.50723 0.80525 0.35518 0.0
H1145 H 0.47251 0.77852 0.34247 0.0
H1146 H 0.48135 0.82007 0.34681 0.0
O1147 O 0.46991 0.8549 0.32916 0.0
O1148 O 0.463 0.89441 0.33967 0.0
C1149 C 0.52468 0.89457 0.36551 0.0
O1150 O 0.50762 0.93464 0.31356 0.0
O1151 O 0.5196 0.89737 0.30431 0.0
H1152 H 0.15744 0.13045 0.1336 0.0
H1153 H 0.12091 0.10515 0.18344 0.0
H1154 H 0.17371 0.08791 0.13423 0.0
H1155 H 0.13882 0.06406 0.18433 0.0
H1156 H 0.19467 0.00664 0.18345 0.0
H1157 H 0.19373 0.05883 0.18133 0.0
H1158 H 0.13432 0.02278 0.13722 0.0
H1159 H 0.13445 0.97044 0.1396 0.0
C1160 C 0.15353 0.11633 0.1448 0.0
C1161 C 0.13846 0.12176 0.15858 0.0
C1162 C 0.16299 0.09216 0.14517 0.0
C1163 C 0.15793 0.07312 0.1594 0.0
C1164 C 0.14374 0.07904 0.17335 0.0
C1165 C 0.13372 0.10284 0.17288 0.0
C1166 C 0.18247 0.01043 0.17299 0.0
C1167 C 0.16478 0.98471 0.16162 0.0
C1168 C 0.18164 0.04007 0.17189 0.0
C1169 C 0.16381 0.04464 0.15917 0.0
C1170 C 0.14841 0.01994 0.14708 0.0
C1171 C 0.14855 0.99007 0.14841 0.0
H1172 H 0.01261 0.17914 0.13543 0.0
H1173 H 0.99435 0.19394 0.18595 0.0
H1174 H 0.95999 0.12704 0.13461 0.0
H1175 H 0.94156 0.14133 0.18528 0.0
H1176 H 0.89823 0.02433 0.18266 0.0
H1177 H 0.93592 0.08416 0.18381 0.0
H1178 H 0.8982 0.09539 0.13711 0.0
H1179 H 0.85983 0.03544 0.1362 0.0
C1180 C 0.99645 0.17199 0.14609 0.0
C1181 C 0.00727 0.19063 0.16067 0.0
C1182 C 0.96638 0.14203 0.14568 0.0
C1183 C 0.94685 0.12984 0.15997 0.0
C1184 C 0.95626 0.15 0.17414 0.0
C1185 C 0.98617 0.18036 0.17444 0.0
C1186 C 0.89702 0.03962 0.17297 0.0
C1187 C 0.87567 0.02518 0.15946 0.0
C1188 C 0.91872 0.07397 0.17359 0.0
C1189 C 0.91987 0.09456 0.1606 0.0
C1190 C 0.8979 0.0802 0.1473 0.0
C1191 C 0.87606 0.04592 0.14675 0.0
H1192 H 0.95562 0.79533 0.18041 0.0
H1193 H 0.99352 0.89286 0.15954 0.0
H1194 H 0.89878 0.78531 0.17811 0.0
H1195 H 0.93699 0.88353 0.15757 0.0
H1196 H 0.83575 0.84846 0.13905 0.0
H1197 H 0.88788 0.8481 0.14066 0.0
H1198 H 0.86121 0.80437 0.18918 0.0
H1199 H 0.80862 0.80417 0.18738 0.0
C1200 C 0.95165 0.81485 0.17569 0.0
C1201 C 0.97876 0.84511 0.17048 0.0
C1202 C 0.91926 0.80913 0.17433 0.0
C1203 C 0.91339 0.83345 0.16748 0.0
C1204 C 0.94069 0.86407 0.16265 0.0
C1205 C 0.97306 0.86978 0.16408 0.0
C1206 C 0.84046 0.83749 0.14976 0.0
C1207 C 0.81822 0.82629 0.16307 0.0
C1208 C 0.87053 0.83783 0.15081 0.0
C1209 C 0.87905 0.82717 0.16525 0.0
C1210 C 0.85537 0.81286 0.17791 0.0
C1211 C 0.82507 0.81235 0.17681 0.0
H1212 H 0.11347 0.13298 0.32481 0.0
H1213 H 0.15024 0.18445 0.37103 0.0
H1214 H 0.07404 0.15296 0.32323 0.0
H1215 H 0.10994 0.20354 0.36973 0.0
H1216 H 0.99289 0.16413 0.37098 0.0
H1217 H 0.04669 0.16702 0.37185 0.0
H1218 H 0.06673 0.20511 0.32212 0.0
H1219 H 0.01292 0.20289 0.32144 0.0
C1220 C 0.11404 0.14953 0.33431 0.0
C1221 C 0.13532 0.1575 0.34794 0.0
C1222 C 0.09131 0.16088 0.33346 0.0
C1223 C 0.08906 0.17992 0.34634 0.0
C1224 C 0.11117 0.18892 0.35964 0.0
C1225 C 0.13409 0.1779 0.3604 0.0
C1226 C 0.00948 0.17457 0.36054 0.0
C1227 C 0.99903 0.18356 0.34622 0.0
C1228 C 0.04022 0.17614 0.361 0.0
C1229 C 0.0607 0.18601 0.34699 0.0
C1230 C 0.0513 0.19732 0.33306 0.0
C1231 C 0.02077 0.19645 0.33274 0.0
H1232 H 0.83645 0.82755 0.37013 0.0
H1233 H 0.80573 0.81464 0.31925 0.0
H1234 H 0.83768 0.88052 0.37091 0.0
H1235 H 0.80722 0.86808 0.3199 0.0
H1236 H 0.88007 0.98487 0.32321 0.0
H1237 H 0.85799 0.92501 0.32173 0.0
H1238 H 0.80881 0.91285 0.36847 0.0
H1239 H 0.83053 0.97278 0.36975 0.0
C1240 C 0.82844 0.83539 0.35934 0.0
C1241 C 0.82067 0.81691 0.3447 0.0
C1242 C 0.82931 0.86585 0.35973 0.0
C1243 C 0.82297 0.87872 0.34539 0.0
C1244 C 0.8125 0.85891 0.3311 0.0
C1245 C 0.81109 0.82808 0.3308 0.0
C1246 C 0.86359 0.96935 0.33285 0.0
C1247 C 0.8567 0.98352 0.3465 0.0
C1248 C 0.85097 0.93499 0.33204 0.0
C1249 C 0.8315 0.91413 0.34496 0.0
C1250 C 0.82381 0.92824 0.35836 0.0
C1251 C 0.8363 0.96251 0.35911 0.0
H1252 H 0.02508 0.87608 0.32752 0.0
H1253 H 0.01812 0.88153 0.38032 0.0
H1254 H 0.08332 0.91938 0.32864 0.0
H1255 H 0.07682 0.92204 0.38173 0.0
H1256 H 0.16421 0.02746 0.37516 0.0
H1257 H 0.11077 0.97743 0.37646 0.0
H1258 H 0.13872 0.93606 0.33588 0.0
H1259 H 0.19226 0.98768 0.33414 0.0
C1260 C 0.03579 0.88689 0.33933 0.0
C1261 C 0.01649 0.87654 0.35375 0.0
C1262 C 0.06955 0.91102 0.34006 0.0
C1263 C 0.08497 0.92462 0.35529 0.0
C1264 C 0.06583 0.91299 0.36973 0.0
C1265 C 0.03211 0.88959 0.36894 0.0
C1266 C 0.15939 0.00724 0.36686 0.0
C1267 C 0.1823 0.0115 0.35451 0.0
C1268 C 0.12859 0.97835 0.36759 0.0
C1269 C 0.11994 0.95265 0.35609 0.0
C1270 C 0.14418 0.95564 0.34468 0.0
C1271 C 0.17516 0.98489 0.3439 0.0
H1272 H 0.8611 0.79885 0.82907 0.0
H1273 H 0.93517 0.85231 0.86637 0.0
H1274 H 0.83727 0.83442 0.83389 0.0
H1275 H 0.91044 0.88659 0.87189 0.0
H1276 H 0.88252 0.9664 0.86534 0.0
H1277 H 0.90513 0.92979 0.86144 0.0
H1278 H 0.80627 0.84795 0.85187 0.0
H1279 H 0.78431 0.88585 0.8545 0.0
C1280 C 0.87213 0.81807 0.83839 0.0
C1281 C 0.90018 0.82297 0.84723 0.0
C1282 C 0.85827 0.83829 0.84129 0.0
C1283 C 0.87182 0.86355 0.85331 0.0
C1284 C 0.89966 0.86799 0.86229 0.0
C1285 C 0.91382 0.84819 0.85918 0.0
C1286 C 0.86577 0.94072 0.86213 0.0
C1287 C 0.83188 0.92919 0.85964 0.0
C1288 C 0.8786 0.91945 0.86019 0.0
C1289 C 0.85767 0.88577 0.85615 0.0
C1290 C 0.82335 0.87386 0.85455 0.0
C1291 C 0.81062 0.89538 0.85627 0.0
H1292 H 0.15133 0.08498 0.86703 0.0
H1293 H 0.20653 0.06452 0.83065 0.0
H1294 H 0.11732 0.02589 0.87263 0.0
H1295 H 0.17136 0.00518 0.83554 0.0
H1296 H 0.11993 0.90108 0.85587 0.0
H1297 H 0.15764 0.96105 0.85382 0.0
H1298 H 0.07476 0.97725 0.86159 0.0
H1299 H 0.0382 0.91786 0.86493 0.0
C1300 C 0.15593 0.06777 0.86009 0.0
C1301 C 0.18151 0.07936 0.84836 0.0
C1302 C 0.13632 0.0338 0.86324 0.0
C1303 C 0.14138 0.01052 0.85451 0.0
C1304 C 0.16705 0.02227 0.84275 0.0
C1305 C 0.18705 0.05631 0.83981 0.0
C1306 C 0.1101 0.91769 0.85737 0.0
C1307 C 0.07605 0.9049 0.86002 0.0
C1308 C 0.13153 0.95199 0.85599 0.0
C1309 C 0.11927 0.97417 0.85722 0.0
C1310 C 0.08532 0.96118 0.86062 0.0
C1311 C 0.06411 0.92702 0.86222 0.0
H1312 H 0.94132 0.14895 0.83324 0.0
H1313 H 0.9207 0.06914 0.86702 0.0
H1314 H 1.00062 0.17287 0.83827 0.0
H1315 H 0.97966 0.09374 0.87268 0.0
H1316 H 0.08766 0.12311 0.8636 0.0
H1317 H 0.02814 0.10088 0.8606 0.0
H1318 H 0.04471 0.20097 0.85724 0.0
H1319 H 0.10474 0.22274 0.85928 0.0
C1320 C 0.94947 0.13669 0.84185 0.0
C1321 C 0.92637 0.107 0.8496 0.0
C1322 C 0.98347 0.15056 0.84487 0.0
C1323 C 0.99512 0.13527 0.85588 0.0
C1324 C 0.9718 0.1059 0.86387 0.0
C1325 C 0.93791 0.0918 0.86066 0.0
C1326 C 0.07836 0.14018 0.86215 0.0
C1327 C 0.10051 0.17445 0.86119 0.0
C1328 C 0.04426 0.12757 0.86063 0.0
C1329 C 0.03142 0.14907 0.85851 0.0
C1330 C 0.05369 0.18361 0.85845 0.0
C1331 C 0.08795 0.19617 0.85979 0.0
H1332 H 0.79611 0.85722 0.68423 0.0
H1333 H 0.8482 0.92569 0.64455 0.0
H1334 H 0.82967 0.83066 0.67976 0.0
H1335 H 0.88111 0.89886 0.63998 0.0
H1336 H 0.9099 0.82215 0.62536 0.0
H1337 H 0.86992 0.84086 0.63037 0.0
H1338 H 0.89321 0.85021 0.68222 0.0
H1339 H 0.93402 0.83314 0.67717 0.0
C1340 C 0.81466 0.86657 0.67457 0.0
C1341 C 0.81956 0.89362 0.66478 0.0
C1342 C 0.83381 0.85137 0.67202 0.0
C1343 C 0.85771 0.8625 0.65941 0.0
C1344 C 0.86252 0.88947 0.64963 0.0
C1345 C 0.84386 0.90501 0.65236 0.0
C1346 C 0.90592 0.82751 0.63787 0.0
C1347 C 0.92468 0.82528 0.65088 0.0
C1348 C 0.88321 0.83836 0.64072 0.0
C1349 C 0.87852 0.84698 0.65669 0.0
C1350 C 0.89597 0.84323 0.66983 0.0
C1351 C 0.91909 0.8329 0.66694 0.0
H1352 H 0.19905 0.10665 0.67187 0.0
H1353 H 0.16261 0.08993 0.62199 0.0
H1354 H 0.17704 0.04704 0.67548 0.0
H1355 H 0.14114 0.03014 0.6253 0.0
H1356 H 0.06855 0.92578 0.64593 0.0
H1357 H 0.09534 0.98536 0.64087 0.0
H1358 H 0.18267 0.99981 0.66682 0.0
H1359 H 0.15573 0.94027 0.67212 0.0
C1360 C 0.18661 0.09007 0.66164 0.0
C1361 C 0.18197 0.10256 0.64676 0.0
C1362 C 0.17422 0.05603 0.66363 0.0
C1363 C 0.157 0.03378 0.65073 0.0
C1364 C 0.15379 0.04657 0.63556 0.0
C1365 C 0.16633 0.08071 0.63357 0.0
C1366 C 0.09346 0.94165 0.65057 0.0
C1367 C 0.10993 0.92825 0.6595 0.0
C1368 C 0.10894 0.97578 0.64753 0.0
C1369 C 0.1412 0.99733 0.65338 0.0
C1370 C 0.1577 0.98392 0.66227 0.0
C1371 C 0.14226 0.94977 0.66527 0.0
H1372 H 0.89895 0.11183 0.6504 0.0
H1373 H 0.91577 0.02993 0.64191 0.0
H1374 H 0.95876 0.14927 0.65354 0.0
H1375 H 0.97501 0.06627 0.64619 0.0
H1376 H 0.08315 0.14434 0.64187 0.0
H1377 H 0.02442 0.10952 0.63582 0.0
H1378 H 1.00113 0.16144 0.67301 0.0
H1379 H 0.06016 0.19739 0.67844 0.0
C1380 C 0.91558 0.10197 0.64918 0.0
C1381 C 0.90287 0.06797 0.64635 0.0
C1382 C 0.94974 0.1232 0.6512 0.0
C1383 C 0.9718 0.11075 0.65046 0.0
C1384 C 0.95897 0.0769 0.64682 0.0
C1385 C 0.92495 0.05589 0.6446 0.0
C1386 C 0.06547 0.1482 0.64882 0.0
C1387 C 0.07627 0.17356 0.66066 0.0
C1388 C 0.03171 0.12816 0.64537 0.0
C1389 C 0.00786 0.13262 0.65388 0.0
C1390 C 0.01874 0.1577 0.66594 0.0
C1391 C 0.05258 0.17808 0.66921 0.0
H1392 H 0.82908 0.31998 0.46737 0.0
H1393 H 0.86222 0.34637 0.51757 0.0
H1394 H 0.8231 0.36898 0.46492 0.0
H1395 H 0.85543 0.39518 0.51534 0.0
H1396 H 0.84511 0.48722 0.50161 0.0
H1397 H 0.86748 0.4494 0.50207 0.0
H1398 H 0.77839 0.37409 0.47825 0.0
H1399 H 0.75603 0.41157 0.47811 0.0
C1400 C 0.83655 0.33717 0.47763 0.0
C1401 C 0.84621 0.32954 0.49262 0.0
C1402 C 0.8326 0.36492 0.47634 0.0
C1403 C 0.8378 0.38535 0.4901 0.0
C1404 C 0.85115 0.37986 0.50454 0.0
C1405 C 0.8554 0.35211 0.50577 0.0
C1406 C 0.83 0.46231 0.49689 0.0
C1407 C 0.7984 0.45202 0.49019 0.0
C1408 C 0.84302 0.44083 0.49694 0.0
C1409 C 0.82493 0.40891 0.49001 0.0
C1410 C 0.79335 0.39877 0.48335 0.0
C1411 C 0.78035 0.42007 0.4834 0.0
H1412 H 0.55849 0.34666 0.49053 0.0
H1413 H 0.50234 0.38478 0.51523 0.0
H1414 H 0.60444 0.40321 0.4868 0.0
H1415 H 0.54762 0.44151 0.51091 0.0
H1416 H 0.65614 0.53218 0.51751 0.0
H1417 H 0.60381 0.47982 0.51982 0.0
H1418 H 0.61821 0.45239 0.47091 0.0
H1419 H 0.6709 0.50428 0.4689 0.0
C1420 C 0.55622 0.36708 0.49543 0.0
C1421 C 0.52714 0.36128 0.50348 0.0
C1422 C 0.58221 0.39958 0.49296 0.0
C1423 C 0.57956 0.42699 0.49838 0.0
C1424 C 0.55058 0.42106 0.50664 0.0
C1425 C 0.52467 0.3886 0.5091 0.0
C1426 C 0.64724 0.51568 0.50696 0.0
C1427 C 0.66743 0.52223 0.49301 0.0
C1428 C 0.61745 0.48544 0.50834 0.0
C1429 C 0.60735 0.46147 0.49573 0.0
C1430 C 0.62581 0.46985 0.48105 0.0
C1431 C 0.65562 0.49986 0.47974 0.0
H1432 H 0.48064 0.14012 0.51127 0.0
H1433 H 0.51333 0.22285 0.47778 0.0
H1434 H 0.53425 0.14259 0.50818 0.0
H1435 H 0.56663 0.22569 0.47491 0.0
H1436 H 0.64819 0.19297 0.51715 0.0
H1437 H 0.59124 0.1829 0.51758 0.0
H1438 H 0.59543 0.19781 0.46488 0.0
H1439 H 0.6526 0.20904 0.46468 0.0
C1440 C 0.49887 0.15813 0.50289 0.0
C1441 C 0.4929 0.18129 0.49476 0.0
C1442 C 0.5297 0.15989 0.50132 0.0
C1443 C 0.55479 0.18462 0.49148 0.0
C1444 C 0.54782 0.20624 0.48251 0.0
C1445 C 0.51725 0.20462 0.48416 0.0
C1446 C 0.6371 0.19487 0.50578 0.0
C1447 C 0.65499 0.20278 0.49095 0.0
C1448 C 0.60431 0.18839 0.50594 0.0
C1449 C 0.58883 0.1895 0.49124 0.0
C1450 C 0.60675 0.1971 0.47642 0.0
C1451 C 0.63942 0.20356 0.47629 0.0
H1452 H 0.78228 0.47002 0.71133 0.0
H1453 H 0.78518 0.47512 0.65829 0.0
H1454 H 0.73426 0.47818 0.71154 0.0
H1455 H 0.73671 0.48282 0.65836 0.0
H1456 H 0.62334 0.44549 0.70016 0.0
H1457 H 0.67526 0.44497 0.70254 0.0
H1458 H 0.72108 0.52561 0.66759 0.0
H1459 H 0.66874 0.52612 0.66523 0.0
C1460 C 0.77225 0.47249 0.69972 0.0
C1461 C 0.78679 0.47119 0.68479 0.0
C1462 C 0.74494 0.47725 0.69982 0.0
C1463 C 0.73188 0.48128 0.68497 0.0
C1464 C 0.74652 0.48013 0.67 0.0
C1465 C 0.77376 0.47508 0.66991 0.0
C1466 C 0.64481 0.46376 0.69336 0.0
C1467 C 0.64218 0.48593 0.68257 0.0
C1468 C 0.67449 0.46342 0.69469 0.0
C1469 C 0.70204 0.48496 0.68509 0.0
C1470 C 0.70002 0.50846 0.67497 0.0
C1471 C 0.67032 0.50912 0.67382 0.0
H1472 H 0.52013 0.17388 0.70775 0.0
H1473 H 0.45031 0.12941 0.66775 0.0
H1474 H 0.51428 0.2231 0.70631 0.0
H1475 H 0.44447 0.17878 0.66632 0.0
H1476 H 0.50553 0.28932 0.64868 0.0
H1477 H 0.49258 0.23354 0.65592 0.0
H1478 H 0.47832 0.25162 0.70662 0.0
H1479 H 0.48985 0.30752 0.69919 0.0
C1480 C 0.50248 0.17408 0.69911 0.0
C1481 C 0.48603 0.14806 0.6877 0.0
C1482 C 0.49909 0.20227 0.69832 0.0
C1483 C 0.47946 0.205 0.68599 0.0
C1484 C 0.46012 0.17741 0.67581 0.0
C1485 C 0.46322 0.14903 0.67672 0.0
C1486 C 0.49935 0.28145 0.66137 0.0
C1487 C 0.49956 0.30336 0.67339 0.0
C1488 C 0.49162 0.24932 0.66549 0.0
C1489 C 0.48405 0.23809 0.6818 0.0
C1490 C 0.48409 0.25973 0.69393 0.0
C1491 C 0.49133 0.29198 0.68973 0.0
H1492 H 0.85535 0.32754 0.6583 0.0
H1493 H 0.83693 0.3548 0.70633 0.0
H1494 H 0.8026 0.27493 0.65987 0.0
H1495 H 0.78485 0.30217 0.7081 0.0
H1496 H 0.69744 0.19834 0.70935 0.0
H1497 H 0.75684 0.23862 0.70808 0.0
H1498 H 0.74367 0.26914 0.65979 0.0
H1499 H 0.68423 0.22986 0.66133 0.0
C1500 C 0.84077 0.32158 0.66949 0.0
C1501 C 0.85013 0.34502 0.68224 0.0
C1502 C 0.81047 0.29172 0.6703 0.0
C1503 C 0.78958 0.28466 0.68405 0.0
C1504 C 0.80054 0.30684 0.69741 0.0
C1505 C 0.83037 0.33691 0.69643 0.0
C1506 C 0.70734 0.21339 0.69838 0.0
C1507 C 0.68615 0.21054 0.68535 0.0
C1508 C 0.7413 0.23627 0.69764 0.0
C1509 C 0.75487 0.25673 0.68378 0.0
C1510 C 0.73397 0.2531 0.67047 0.0
C1511 C 0.69988 0.23044 0.6713 0.0
H1512 H 0.60445 0.19695 0.19928 0.0
H1513 H 0.51812 0.1253 0.17215 0.0
H1514 H 0.57774 0.22974 0.20437 0.0
H1515 H 0.49126 0.15807 0.17742 0.0
H1516 H 0.47673 0.25007 0.17298 0.0
H1517 H 0.49819 0.21205 0.16916 0.0
H1518 H 0.53096 0.22752 0.21987 0.0
H1519 H 0.50998 0.26622 0.22342 0.0
C1520 C 0.57974 0.18814 0.19442 0.0
C1521 C 0.56345 0.15853 0.18527 0.0
C1522 C 0.56432 0.20681 0.19747 0.0
C1523 C 0.5323 0.19639 0.1914 0.0
C1524 C 0.51603 0.16685 0.18218 0.0
C1525 C 0.53141 0.14807 0.17918 0.0
C1526 C 0.48839 0.24509 0.18328 0.0
C1527 C 0.4923 0.26129 0.1984 0.0
C1528 C 0.50042 0.22318 0.18116 0.0
C1529 C 0.5166 0.21705 0.19416 0.0
C1530 C 0.51908 0.23216 0.20955 0.0
C1531 C 0.50685 0.25397 0.21166 0.0
H1532 H 0.80774 0.41727 0.19344 0.0
H1533 H 0.88009 0.4003 0.1685 0.0
H1534 H 0.77393 0.3579 0.19887 0.0
H1535 H 0.84639 0.34101 0.17411 0.0
H1536 H 0.75628 0.23374 0.17188 0.0
H1537 H 0.79285 0.29292 0.16644 0.0
H1538 H 0.77702 0.31546 0.21616 0.0
H1539 H 0.73981 0.25594 0.22133 0.0
C1540 C 0.81631 0.40087 0.18899 0.0
C1541 C 0.84662 0.41353 0.18053 0.0
C1542 C 0.79711 0.36691 0.19228 0.0
C1543 C 0.80772 0.34486 0.18711 0.0
C1544 C 0.83752 0.35738 0.17821 0.0
C1545 C 0.85679 0.39135 0.17498 0.0
C1546 C 0.76105 0.25149 0.18164 0.0
C1547 C 0.7453 0.2407 0.19695 0.0
C1548 C 0.782 0.28525 0.17858 0.0
C1549 C 0.78751 0.30887 0.19081 0.0
C1550 C 0.77279 0.29785 0.20641 0.0
C1551 C 0.75192 0.26395 0.20947 0.0
H1552 H 0.75768 0.45721 0.19561 0.0
H1553 H 0.77263 0.55622 0.19885 0.0
H1554 H 0.69831 0.43483 0.1916 0.0
H1555 H 0.71263 0.53397 0.19555 0.0
H1556 H 0.61004 0.4851 0.17017 0.0
H1557 H 0.66956 0.50877 0.17479 0.0
H1558 H 0.64958 0.42492 0.20557 0.0
H1559 H 0.59055 0.40084 0.2005 0.0
C1560 C 0.74795 0.47407 0.19553 0.0
C1561 C 0.76945 0.50836 0.19716 0.0
C1562 C 0.71398 0.46133 0.1934 0.0
C1563 C 0.70063 0.48261 0.19317 0.0
C1564 C 0.72216 0.51697 0.19537 0.0
C1565 C 0.75633 0.52971 0.19741 0.0
C1566 C 0.61844 0.47169 0.17785 0.0
C1567 C 0.59558 0.44098 0.18487 0.0
C1568 C 0.65252 0.4854 0.18063 0.0
C1569 C 0.66441 0.46876 0.19054 0.0
C1570 C 0.64141 0.43818 0.19764 0.0
C1571 C 0.60748 0.4244 0.19477 0.0
H1572 H 0.60269 0.17131 0.01452 0.0
H1573 H 0.58038 0.15964 0.96248 0.0
H1574 H 0.56222 0.18907 0.01877 0.0
H1575 H 0.54093 0.17932 0.96669 0.0
H1576 H 0.51971 0.26542 0.98086 0.0
H1577 H 0.55314 0.23883 0.97675 0.0
H1578 H 0.49764 0.16762 0.01479 0.0
H1579 H 0.46363 0.19376 0.01875 0.0
C1580 C 0.58826 0.17112 0.00407 0.0
C1581 C 0.59417 0.16301 0.98819 0.0
C1582 C 0.56539 0.18188 0.0065 0.0
C1583 C 0.54861 0.18565 0.99305 0.0
C1584 C 0.55372 0.17675 0.97725 0.0
C1585 C 0.57611 0.16536 0.97487 0.0
C1586 C 0.51467 0.24414 0.98837 0.0
C1587 C 0.48909 0.23169 1.00014 0.0
C1588 C 0.53359 0.22877 0.98591 0.0
C1589 C 0.52771 0.20106 0.99537 0.0
C1590 C 0.50255 0.18892 0.00733 0.0
C1591 C 0.48317 0.20388 0.00958 0.0
H1592 H 0.74351 0.2573 0.98005 0.0
H1593 H 0.8175 0.27441 0.01684 0.0
H1594 H 0.76887 0.31664 0.97561 0.0
H1595 H 0.84224 0.33438 0.01296 0.0
H1596 H 0.89379 0.44102 0.9929 0.0
H1597 H 0.87275 0.38105 0.99501 0.0
H1598 H 0.77262 0.36284 0.9889 0.0
H1599 H 0.79401 0.42198 0.98571 0.0
C1600 C 0.7651 0.27382 0.98732 0.0
C1601 C 0.77829 0.26117 0.99893 0.0
C1602 C 0.7796 0.30796 0.98483 0.0
C1603 C 0.80738 0.3305 0.99409 0.0
C1604 C 0.82105 0.31781 0.00549 0.0
C1605 C 0.80676 0.28346 0.00782 0.0
C1606 C 0.86737 0.42393 0.99188 0.0
C1607 C 0.84541 0.43606 0.98961 0.0
C1608 C 0.85524 0.38969 0.99325 0.0
C1609 C 0.82091 0.36696 0.99226 0.0
C1610 C 0.7992 0.37936 0.98958 0.0
C1611 C 0.81135 0.41339 0.98808 0.0
H1612 H 0.58412 0.37824 0.97467 0.0
H1613 H 0.56563 0.44734 1.00137 0.0
H1614 H 0.64393 0.41509 0.97783 0.0
H1615 H 0.62529 0.48375 0.00552 0.0
H1616 H 0.73528 0.55566 0.99867 0.0
H1617 H 0.67608 0.52066 0.99384 0.0
H1618 H 0.68648 0.4334 0.99704 0.0
H1619 H 0.74601 0.46875 1.00094 0.0
C1620 C 0.59315 0.40151 0.9812 0.0
C1621 C 0.57068 0.41025 0.98773 0.0
C1622 C 0.62732 0.42248 0.98322 0.0
C1623 C 0.63973 0.45242 0.99211 0.0
C1624 C 0.61692 0.46126 0.99839 0.0
C1625 C 0.58276 0.44049 0.99609 0.0
C1626 C 0.72487 0.52897 0.99839 0.0
C1627 C 0.74539 0.51497 1.00017 0.0
C1628 C 0.69079 0.5088 0.99569 0.0
C1629 C 0.67618 0.47401 0.99499 0.0
C1630 C 0.69675 0.46005 0.9971 0.0
C1631 C 0.73096 0.48031 0.99949 0.0
H1632 H 0.48094 0.78644 0.8578 0.0
H1633 H 0.50816 0.81111 0.80682 0.0
H1634 H 0.49118 0.7397 0.85539 0.0
H1635 H 0.51912 0.76513 0.80442 0.0
H1636 H 0.48621 0.65193 0.80387 0.0
H1637 H 0.48589 0.70414 0.80464 0.0
H1638 H 0.5385 0.72869 0.85101 0.0
H1639 H 0.53875 0.6761 0.85018 0.0
C1640 C 0.48854 0.78147 0.84604 0.0
C1641 C 0.49308 0.80184 0.83239 0.0
C1642 C 0.49509 0.75523 0.84472 0.0
C1643 C 0.50621 0.74894 0.82973 0.0
C1644 C 0.51047 0.76925 0.8161 0.0
C1645 C 0.50412 0.79546 0.81745 0.0
C1646 C 0.49894 0.66915 0.81386 0.0
C1647 C 0.51275 0.6602 0.82688 0.0
C1648 C 0.49856 0.69894 0.81438 0.0
C1649 C 0.51165 0.72021 0.82804 0.0
C1650 C 0.52777 0.71247 0.84046 0.0
C1651 C 0.52853 0.68275 0.83983 0.0
H1652 H 0.21589 0.68729 0.85384 0.0
H1653 H 0.2193 0.69042 0.80074 0.0
H1654 H 0.2625 0.74433 0.85489 0.0
H1655 H 0.26463 0.74776 0.80166 0.0
H1656 H 0.37284 0.82922 0.81161 0.0
H1657 H 0.3222 0.7761 0.80891 0.0
H1658 H 0.2782 0.80228 0.8489 0.0
H1659 H 0.32974 0.85568 0.85183 0.0
C1660 C 0.22701 0.7 0.84242 0.0
C1661 C 0.21478 0.68416 0.8272 0.0
C1662 C 0.25313 0.7329 0.84299 0.0
C1663 C 0.26725 0.75061 0.82834 0.0
C1664 C 0.25463 0.73474 0.81316 0.0
C1665 C 0.22872 0.70194 0.81262 0.0
C1666 C 0.35205 0.82402 0.81955 0.0
C1667 C 0.35518 0.84651 0.83194 0.0
C1668 C 0.32297 0.79354 0.818 0.0
C1669 C 0.29629 0.78477 0.82882 0.0
C1670 C 0.29859 0.80816 0.84056 0.0
C1671 C 0.32782 0.83891 0.84206 0.0
H1672 H 0.30506 0.49587 0.80383 0.0
H1673 H 0.31691 0.54118 0.85163 0.0
H1674 H 0.24573 0.47715 0.80448 0.0
H1675 H 0.2575 0.52156 0.85252 0.0
H1676 H 0.16628 0.51376 0.80435 0.0
H1677 H 0.21813 0.51264 0.80349 0.0
H1678 H 0.1984 0.4696 0.8522 0.0
H1679 H 0.14595 0.47015 0.85288 0.0
C1680 C 0.29485 0.50121 0.81463 0.0
C1681 C 0.31567 0.51967 0.82776 0.0
C1682 C 0.26093 0.4904 0.81501 0.0
C1683 C 0.24698 0.49769 0.82859 0.0
C1684 C 0.26746 0.51495 0.84205 0.0
C1685 C 0.30153 0.52608 0.84158 0.0
C1686 C 0.17234 0.5027 0.81455 0.0
C1687 C 0.15207 0.49175 0.82859 0.0
C1688 C 0.20206 0.50215 0.8141 0.0
C1689 C 0.21241 0.49132 0.82786 0.0
C1690 C 0.19102 0.47821 0.84148 0.0
C1691 C 0.16085 0.4781 0.84177 0.0
H1692 H 0.43563 0.77551 0.04579 0.0
H1693 H 0.46584 0.82431 0.99861 0.0
H1694 H 0.39263 0.79019 0.04762 0.0
H1695 H 0.41992 0.83546 0.99935 0.0
H1696 H 0.343 0.86566 0.00702 0.0
H1697 H 0.39462 0.86411 0.00996 0.0
H1698 H 0.34127 0.77213 0.03723 0.0
H1699 H 0.29132 0.77517 0.03532 0.0
C1700 C 0.43251 0.7887 0.03559 0.0
C1701 C 0.45314 0.79719 0.02168 0.0
C1702 C 0.4076 0.79694 0.03656 0.0
C1703 C 0.4019 0.81322 0.02344 0.0
C1704 C 0.42333 0.82283 0.00972 0.0
C1705 C 0.44906 0.81545 0.00901 0.0
C1706 C 0.34281 0.84587 0.01414 0.0
C1707 C 0.31306 0.82042 0.02083 0.0
C1708 C 0.37223 0.8446 0.01559 0.0
C1709 C 0.37229 0.81773 0.02364 0.0
C1710 C 0.34276 0.79353 0.03114 0.0
C1711 C 0.31377 0.7951 0.02992 0.0
H1712 H 0.14633 0.61952 0.99223 0.0
H1713 H 0.21159 0.65943 0.03401 0.0
H1714 H 0.14443 0.56647 0.99563 0.0
H1715 H 0.20837 0.60582 0.03833 0.0
H1716 H 0.23177 0.52376 0.02581 0.0
H1717 H 0.22776 0.57335 0.02711 0.0
H1718 H 0.12564 0.51767 0.01078 0.0
H1719 H 0.1305 0.46785 0.00844 0.0
C1720 C 0.16013 0.61661 0.0022 0.0
C1721 C 0.17967 0.64338 0.01265 0.0
C1722 C 0.15868 0.58614 0.00436 0.0
C1723 C 0.17614 0.5816 0.01731 0.0
C1724 C 0.19511 0.60846 0.02802 0.0
C1725 C 0.19711 0.63917 0.02559 0.0
C1726 C 0.2082 0.5218 0.02272 0.0
C1727 C 0.18161 0.49191 0.01672 0.0
C1728 C 0.20582 0.55042 0.0236 0.0
C1729 C 0.17655 0.54987 0.0188 0.0
C1730 C 0.14892 0.51926 0.01413 0.0
C1731 C 0.15149 0.49056 0.013 0.0
H1732 H 0.37534 0.52012 0.03423 0.0
H1733 H 0.36429 0.54931 0.98527 0.0
H1734 H 0.43291 0.56477 0.03489 0.0
H1735 H 0.42174 0.59519 0.98613 0.0
H1736 H 0.53217 0.66149 0.98678 0.0
H1737 H 0.48008 0.6082 0.98644 0.0
H1738 H 0.46176 0.62424 0.03689 0.0
H1739 H 0.51363 0.67688 0.03717 0.0
C1740 C 0.38519 0.53644 0.02368 0.0
C1741 C 0.36505 0.53169 0.00986 0.0
C1742 C 0.41817 0.56201 0.02405 0.0
C1743 C 0.432 0.58358 0.01057 0.0
C1744 C 0.41196 0.57877 0.99666 0.0
C1745 C 0.3788 0.553 0.99629 0.0
C1746 C 0.51778 0.65267 0.99802 0.0
C1747 C 0.52701 0.673 0.01208 0.0
C1748 C 0.4876 0.62257 0.99772 0.0
C1749 C 0.46644 0.61227 0.01153 0.0
C1750 C 0.47742 0.63126 0.02606 0.0
C1751 C 0.50731 0.66133 0.02629 0.0
H1752 H 0.27752 0.52511 0.51935 0.0
H1753 H 0.19084 0.45038 0.49357 0.0
H1754 H 0.25107 0.55859 0.52264 0.0
H1755 H 0.16422 0.48389 0.49708 0.0
H1756 H 0.14274 0.57166 0.49413 0.0
H1757 H 0.16844 0.53758 0.48889 0.0
H1758 H 0.20362 0.55297 0.53917 0.0
H1759 H 0.17839 0.58748 0.54417 0.0
C1760 C 0.25305 0.51603 0.51414 0.0
C1761 C 0.23635 0.48506 0.50616 0.0
C1762 C 0.23773 0.53507 0.51621 0.0
C1763 C 0.20539 0.52367 0.51031 0.0
C1764 C 0.18919 0.49337 0.50172 0.0
C1765 C 0.20446 0.47419 0.49972 0.0
C1766 C 0.15599 0.56763 0.50399 0.0
C1767 C 0.15911 0.58245 0.51946 0.0
C1768 C 0.1705 0.54803 0.50105 0.0
C1769 C 0.18845 0.543 0.51355 0.0
C1770 C 0.19049 0.55693 0.5292 0.0
C1771 C 0.1758 0.57632 0.53214 0.0
H1772 H 0.47234 0.74887 0.52664 0.0
H1773 H 0.54252 0.73292 0.49896 0.0
H1774 H 0.43776 0.68945 0.53065 0.0
H1775 H 0.50703 0.67301 0.50235 0.0
H1776 H 0.45309 0.56973 0.52615 0.0
H1777 H 0.4888 0.62978 0.52235 0.0
H1778 H 0.40153 0.63967 0.51753 0.0
H1779 H 0.36657 0.58054 0.5225 0.0
C1780 C 0.48012 0.73261 0.52114 0.0
C1781 C 0.5102 0.74569 0.51245 0.0
C1782 C 0.46017 0.6984 0.5234 0.0
C1783 C 0.4695 0.67622 0.51684 0.0
C1784 C 0.49929 0.68929 0.50783 0.0
C1785 C 0.51948 0.72364 0.50572 0.0
C1786 C 0.4418 0.58499 0.52438 0.0
C1787 C 0.40713 0.57044 0.52415 0.0
C1788 C 0.46214 0.61928 0.52201 0.0
C1789 C 0.44813 0.6397 0.51943 0.0
C1790 C 0.41335 0.62497 0.51956 0.0
C1791 C 0.39318 0.59089 0.52209 0.0
H1792 H 0.41524 0.81653 0.54985 0.0
H1793 H 0.43484 0.85947 0.50126 0.0
H1794 H 0.35538 0.79093 0.54492 0.0
H1795 H 0.37515 0.83346 0.49605 0.0
H1796 H 0.26611 0.80879 0.50036 0.0
H1797 H 0.32579 0.83575 0.50507 0.0
H1798 H 0.31334 0.74582 0.52729 0.0
H1799 H 0.25353 0.71884 0.52272 0.0
C1800 C 0.40659 0.82065 0.53818 0.0
C1801 C 0.42939 0.83956 0.52585 0.0
C1802 C 0.37245 0.80574 0.53526 0.0
C1803 C 0.36052 0.80982 0.52001 0.0
C1804 C 0.38351 0.82985 0.50792 0.0
C1805 C 0.41761 0.84454 0.51083 0.0
C1806 C 0.2761 0.79463 0.50612 0.0
C1807 C 0.25501 0.76165 0.51119 0.0
C1808 C 0.31033 0.8101 0.50879 0.0
C1809 C 0.32426 0.79303 0.51668 0.0
C1810 C 0.30328 0.75982 0.52143 0.0
C1811 C 0.26905 0.74426 0.51867 0.0
H1812 H 0.19724 0.61111 0.318 0.0
H1813 H 0.12852 0.52898 0.34837 0.0
H1814 H 0.23196 0.5861 0.31538 0.0
H1815 H 0.16419 0.50452 0.34638 0.0
H1816 H 0.21713 0.45236 0.32448 0.0
H1817 H 0.18152 0.47697 0.32744 0.0
H1818 H 0.26883 0.57471 0.32942 0.0
H1819 H 0.30362 0.55017 0.3252 0.0
C1820 C 0.18984 0.58797 0.32438 0.0
C1821 C 0.16012 0.57203 0.3334 0.0
C1822 C 0.20987 0.57363 0.32293 0.0
C1823 C 0.20096 0.54322 0.33066 0.0
C1824 C 0.17155 0.52765 0.34001 0.0
C1825 C 0.15127 0.54183 0.3413 0.0
C1826 C 0.22845 0.47908 0.3255 0.0
C1827 C 0.2631 0.49929 0.32513 0.0
C1828 C 0.20819 0.4932 0.32738 0.0
C1829 C 0.22226 0.52788 0.32886 0.0
C1830 C 0.257 0.54798 0.32824 0.0
C1831 C 0.27709 0.53388 0.32617 0.0
H1832 H 0.39467 0.58654 0.32463 0.0
H1833 H 0.48284 0.59948 0.34919 0.0
H1834 H 0.42107 0.64636 0.3207 0.0
H1835 H 0.50934 0.65947 0.3451 0.0
H1836 H 0.52945 0.76837 0.34828 0.0
H1837 H 0.50473 0.70872 0.35355 0.0
H1838 H 0.468 0.68811 0.30354 0.0
H1839 H 0.49239 0.74782 0.2985 0.0
C1840 C 0.4195 0.60215 0.32941 0.0
C1841 C 0.43663 0.58819 0.33724 0.0
C1842 C 0.43477 0.63641 0.32697 0.0
C1843 C 0.46743 0.65755 0.33239 0.0
C1844 C 0.48412 0.64379 0.34081 0.0
C1845 C 0.46893 0.60944 0.34315 0.0
C1846 C 0.51615 0.75094 0.33847 0.0
C1847 C 0.51234 0.76238 0.32307 0.0
C1848 C 0.50219 0.71692 0.34142 0.0
C1849 C 0.48405 0.69374 0.32902 0.0
C1850 C 0.48134 0.70537 0.31342 0.0
C1851 C 0.49554 0.73942 0.31045 0.0
H1852 H 0.23408 0.76153 0.34159 0.0
H1853 H 0.25519 0.73667 0.29366 0.0
H1854 H 0.29359 0.79573 0.3471 0.0
H1855 H 0.31482 0.77156 0.29884 0.0
H1856 H 0.41595 0.80213 0.32156 0.0
H1857 H 0.35629 0.76919 0.31674 0.0
H1858 H 0.34327 0.84678 0.33846 0.0
H1859 H 0.40281 0.87955 0.34351 0.0
C1860 C 0.25161 0.76368 0.33221 0.0
C1861 C 0.2403 0.74622 0.31732 0.0
C1862 C 0.2856 0.78337 0.33529 0.0
C1863 C 0.30894 0.78601 0.32349 0.0
C1864 C 0.29747 0.7695 0.30831 0.0
C1865 C 0.26345 0.74991 0.30524 0.0
C1866 C 0.40033 0.81203 0.32546 0.0
C1867 C 0.41417 0.8435 0.3329 0.0
C1868 C 0.36618 0.79329 0.32255 0.0
C1869 C 0.34509 0.80553 0.32706 0.0
C1870 C 0.35881 0.83657 0.33492 0.0
C1871 C 0.39296 0.85536 0.33779 0.0
H1872 H 0.22077 0.3436 0.18677 0.0
H1873 H 0.21019 0.24591 0.1845 0.0
H1874 H 0.28134 0.36841 0.18702 0.0
H1875 H 0.26983 0.27035 0.18412 0.0
H1876 H 0.37766 0.31882 0.1964 0.0
H1877 H 0.31862 0.29797 0.19956 0.0
H1878 H 0.3267 0.37798 0.16915 0.0
H1879 H 0.38648 0.39972 0.16654 0.0
C1880 C 0.23129 0.32742 0.18655 0.0
C1881 C 0.21053 0.29276 0.18566 0.0
C1882 C 0.26603 0.34163 0.18647 0.0
C1883 C 0.28071 0.32147 0.18553 0.0
C1884 C 0.25973 0.28681 0.18513 0.0
C1885 C 0.22529 0.27271 0.18526 0.0
C1886 C 0.36693 0.33199 0.19032 0.0
C1887 C 0.38686 0.36076 0.18104 0.0
C1888 C 0.3329 0.31995 0.19211 0.0
C1889 C 0.31757 0.33603 0.1845 0.0
C1890 C 0.33758 0.36508 0.17535 0.0
C1891 C 0.37184 0.37737 0.17369 0.0
H1892 H 0.69115 0.06824 0.19566 0.0
H1893 H 0.61264 0.9977 0.16415 0.0
H1894 H 0.71009 0.02875 0.20006 0.0
H1895 H 0.63254 0.95845 0.16797 0.0
H1896 H 0.66147 0.88409 0.18708 0.0
H1897 H 0.63844 0.92146 0.18647 0.0
H1898 H 0.73796 0.00603 0.18636 0.0
H1899 H 0.76048 0.96925 0.18765 0.0
C1900 C 0.67822 0.04447 0.18943 0.0
C1901 C 0.65061 0.03639 0.17937 0.0
C1902 C 0.68912 0.02169 0.19196 0.0
C1903 C 0.67304 0.99026 0.18432 0.0
C1904 C 0.64533 0.98215 0.17426 0.0
C1905 C 0.63416 0.00486 0.17188 0.0
C1906 C 0.67827 0.91068 0.18736 0.0
C1907 C 0.7128 0.9236 0.18742 0.0
C1908 C 0.66513 0.93215 0.18676 0.0
C1909 C 0.68627 0.96694 0.18624 0.0
C1910 C 0.72072 0.97957 0.18697 0.0
C1911 C 0.73372 0.9583 0.18763 0.0
H1912 H 0.13203 0.78213 0.1787 0.0
H1913 H 0.06748 0.79264 0.21324 0.0
H1914 H 0.09458 0.72207 0.1782 0.0
H1915 H 0.03091 0.73265 0.21358 0.0
H1916 H 0.9489 0.63715 0.19111 0.0
H1917 H 0.99124 0.69484 0.1954 0.0
H1918 H 0.06777 0.66861 0.18985 0.0
H1919 H 0.02525 0.61108 0.18481 0.0
C1920 C 0.11065 0.77137 0.1868 0.0
C1921 C 0.10266 0.79193 0.19605 0.0
C1922 C 0.08896 0.73689 0.18646 0.0
C1923 C 0.05908 0.72234 0.19554 0.0
C1924 C 0.05297 0.74289 0.20598 0.0
C1925 C 0.07426 0.77727 0.20606 0.0
C1926 C 0.97476 0.6437 0.1908 0.0
C1927 C 0.98363 0.6195 0.18753 0.0
C1928 C 0.99918 0.67683 0.19345 0.0
C1929 C 0.03319 0.68664 0.19317 0.0
C1930 C 0.04199 0.66226 0.19 0.0
C1931 C 0.01754 0.62917 0.18713 0.0
H1932 H 0.34631 0.21854 0.33348 0.0
H1933 H 0.26053 0.2049 0.3065 0.0
H1934 H 0.36969 0.27874 0.33242 0.0
H1935 H 0.28437 0.26478 0.30457 0.0
H1936 H 0.30918 0.36548 0.32545 0.0
H1937 H 0.29073 0.30676 0.32233 0.0
H1938 H 0.39284 0.32987 0.31854 0.0
H1939 H 0.41121 0.38858 0.32243 0.0
C1940 C 0.33313 0.22851 0.32675 0.0
C1941 C 0.30163 0.20712 0.3201 0.0
C1942 C 0.34642 0.26307 0.32617 0.0
C1943 C 0.32865 0.2769 0.31871 0.0
C1944 C 0.29836 0.25526 0.3109 0.0
C1945 C 0.28488 0.22087 0.31176 0.0
C1946 C 0.32768 0.35805 0.32387 0.0
C1947 C 0.36164 0.38175 0.32427 0.0
C1948 C 0.31712 0.32428 0.32193 0.0
C1949 C 0.34022 0.31324 0.32007 0.0
C1950 C 0.37425 0.33716 0.32016 0.0
C1951 C 0.38481 0.37092 0.32232 0.0
H1952 H 0.63856 0.93846 0.33086 0.0
H1953 H 0.61543 0.01729 0.327 0.0
H1954 H 0.69725 0.97863 0.32747 0.0
H1955 H 0.67388 0.05738 0.32265 0.0
H1956 H 0.78564 0.12508 0.33356 0.0
H1957 H 0.72578 0.08716 0.3348 0.0
H1958 H 0.73835 0.01243 0.30927 0.0
H1959 H 0.7981 0.04971 0.30905 0.0
C1960 C 0.64602 0.96437 0.32912 0.0
C1961 C 0.62231 0.97464 0.32928 0.0
C1962 C 0.67975 0.98752 0.32699 0.0
C1963 C 0.6907 0.02154 0.32461 0.0
C1964 C 0.66677 0.03165 0.32468 0.0
C1965 C 0.63311 0.00857 0.32711 0.0
C1966 C 0.77539 0.1008 0.3279 0.0
C1967 C 0.79648 0.09034 0.32122 0.0
C1968 C 0.741 0.07889 0.32863 0.0
C1969 C 0.7269 0.04621 0.32242 0.0
C1970 C 0.74809 0.03682 0.31471 0.0
C1971 C 0.7824 0.05841 0.31431 0.0
H1972 H 0.87687 0.66072 0.31609 0.0
H1973 H 0.9633 0.75874 0.3187 0.0
H1974 H 0.91316 0.63652 0.31495 0.0
H1975 H 0.99905 0.73494 0.31822 0.0
H1976 H 0.06054 0.68854 0.30721 0.0
H1977 H 0.0214 0.70815 0.30304 0.0
H1978 H 0.94876 0.62702 0.33265 0.0
H1979 H 0.98759 0.60664 0.33621 0.0
C1980 C 0.90352 0.6771 0.31617 0.0
C1981 C 0.91708 0.71167 0.31751 0.0
C1982 C 0.92438 0.66325 0.31572 0.0
C1983 C 0.95921 0.68368 0.31658 0.0
C1984 C 0.97253 0.71827 0.31727 0.0
C1985 C 0.95185 0.732 0.31766 0.0
C1986 C 0.03618 0.6748 0.31279 0.0
C1987 C 0.0274 0.64621 0.3222 0.0
C1988 C 0.01367 0.68611 0.31045 0.0
C1989 C 0.98183 0.66945 0.31764 0.0
C1990 C 0.9728 0.64036 0.32674 0.0
C1991 C 0.99524 0.62882 0.32893 0.0
H1992 H 0.6322 0.56692 0.87545 0.0
H1993 H 0.61882 0.57863 0.82388 0.0
H1994 H 0.68785 0.57603 0.86974 0.0
H1995 H 0.67437 0.58896 0.81807 0.0
H1996 H 0.77582 0.60951 0.80918 0.0
H1997 H 0.71694 0.57548 0.81635 0.0
H1998 H 0.73691 0.62553 0.86346 0.0
H1999 H 0.79497 0.65832 0.85634 0.0
C2000 C 0.64102 0.57063 0.86285 0.0
C2001 C 0.62137 0.57179 0.85008 0.0
C2002 C 0.67284 0.57606 0.85955 0.0
C2003 C 0.68586 0.58366 0.84345 0.0
C2004 C 0.66515 0.58264 0.83056 0.0
C2005 C 0.63322 0.57671 0.83385 0.0
C2006 C 0.76748 0.61219 0.82124 0.0
C2007 C 0.78989 0.63601 0.83232 0.0
C2008 C 0.73386 0.59297 0.82534 0.0
C2009 C 0.72202 0.59781 0.84047 0.0
C2010 C 0.745 0.62041 0.85187 0.0
C2011 C 0.7785 0.63928 0.84782 0.0
H2012 H 0.33985 0.13638 0.85393 0.0
H2013 H 0.38714 0.15655 0.80637 0.0
H2014 H 0.36963 0.1088 0.86256 0.0
H2015 H 0.41833 0.12944 0.81509 0.0
H2016 H 0.4134 0.0291 0.82714 0.0
H2017 H 0.40277 0.07335 0.81919 0.0
H2018 H 0.41772 0.10765 0.86973 0.0
H2019 H 0.42682 0.06195 0.8776 0.0
C2020 C 0.35796 0.13629 0.8456 0.0
C2021 C 0.36175 0.14909 0.8296 0.0
C2022 C 0.37509 0.12035 0.85052 0.0
C2023 C 0.39646 0.11678 0.83954 0.0
C2024 C 0.40172 0.13135 0.82379 0.0
C2025 C 0.38418 0.14706 0.81881 0.0
C2026 C 0.41524 0.04671 0.8364 0.0
C2027 C 0.42095 0.04244 0.85293 0.0
C2028 C 0.40932 0.07221 0.83188 0.0
C2029 C 0.40921 0.0941 0.84382 0.0
C2030 C 0.417 0.0909 0.86026 0.0
C2031 C 0.42234 0.06496 0.8648 0.0
H2032 H 0.83616 0.20733 0.8558 0.0
H2033 H 0.86411 0.23522 0.80504 0.0
H2034 H 0.85704 0.2643 0.86302 0.0
H2035 H 0.88987 0.2929 0.8127 0.0
H2036 H 0.94792 0.39448 0.82719 0.0
H2037 H 0.8991 0.3423 0.82125 0.0
H2038 H 0.90828 0.30505 0.86872 0.0
H2039 H 0.95405 0.35914 0.87552 0.0
C2040 C 0.84567 0.22521 0.84596 0.0
C2041 C 0.84821 0.21618 0.8297 0.0
C2042 C 0.85883 0.25851 0.85028 0.0
C2043 C 0.87667 0.28383 0.83872 0.0
C2044 C 0.8765 0.27463 0.82215 0.0
C2045 C 0.86198 0.24127 0.8177 0.0
C2046 C 0.9384 0.37611 0.83684 0.0
C2047 C 0.95483 0.38152 0.85204 0.0
C2048 C 0.91066 0.34541 0.83319 0.0
C2049 C 0.89977 0.31863 0.84423 0.0
C2050 C 0.91515 0.32471 0.85981 0.0
C2051 C 0.94197 0.35581 0.8637 0.0
H2052 H 0.58411 0.61885 0.69201 0.0
H2053 H 0.56999 0.63154 0.64069 0.0
H2054 H 0.59274 0.67409 0.69803 0.0
H2055 H 0.57655 0.68611 0.64659 0.0
H2056 H 0.61051 0.77569 0.70628 0.0
H2057 H 0.57793 0.71615 0.69987 0.0
H2058 H 0.62601 0.7354 0.65228 0.0
H2059 H 0.6575 0.7937 0.65868 0.0
C2060 C 0.58163 0.63318 0.68217 0.0
C2061 C 0.57683 0.62158 0.66591 0.0
C2062 C 0.58631 0.66469 0.68557 0.0
C2063 C 0.58586 0.68483 0.67274 0.0
C2064 C 0.57788 0.67161 0.65669 0.0
C2065 C 0.57398 0.64045 0.65328 0.0
C2066 C 0.61298 0.76697 0.69427 0.0
C2067 C 0.63578 0.78928 0.68281 0.0
C2068 C 0.59461 0.73302 0.69062 0.0
C2069 C 0.59923 0.72089 0.67553 0.0
C2070 C 0.62092 0.74369 0.66382 0.0
C2071 C 0.639 0.77738 0.66744 0.0
H2072 H 0.37314 0.93302 0.64057 0.0
H2073 H 0.38501 0.9652 0.69111 0.0
H2074 H 0.3174 0.88724 0.64676 0.0
H2075 H 0.32911 0.9209 0.69733 0.0
H2076 H 0.2265 0.84142 0.70653 0.0
H2077 H 0.28582 0.86566 0.70049 0.0
H2078 H 0.26835 0.8884 0.65108 0.0
H2079 H 0.20993 0.86372 0.65712 0.0
C2080 C 0.36393 0.92967 0.65308 0.0
C2081 C 0.38314 0.9523 0.66539 0.0
C2082 C 0.33202 0.90373 0.65665 0.0
C2083 C 0.31839 0.90062 0.6725 0.0
C2084 C 0.33872 0.92205 0.68505 0.0
C2085 C 0.37082 0.94756 0.68152 0.0
C2086 C 0.23551 0.8507 0.69427 0.0
C2087 C 0.21366 0.85015 0.6822 0.0
C2088 C 0.2694 0.86477 0.6908 0.0
C2089 C 0.28206 0.87916 0.67529 0.0
C2090 C 0.25967 0.87692 0.66302 0.0
C2091 C 0.22595 0.86264 0.66645 0.0
H2092 H 0.06309 0.4345 0.63358 0.0
H2093 H 0.03454 0.42029 0.68472 0.0
H2094 H 0.10841 0.42378 0.63979 0.0
H2095 H 0.07856 0.40836 0.691 0.0
H2096 H 0.15873 0.38613 0.70032 0.0
H2097 H 0.13455 0.42095 0.69335 0.0
H2098 H 0.10547 0.37276 0.64577 0.0
H2099 H 0.12985 0.33908 0.65273 0.0
C2100 C 0.06715 0.42983 0.6462 0.0
C2101 C 0.04571 0.42839 0.6587 0.0
C2102 C 0.09285 0.42352 0.64978 0.0
C2103 C 0.09692 0.41478 0.66587 0.0
C2104 C 0.07665 0.41552 0.67853 0.0
C2105 C 0.05132 0.42231 0.67497 0.0
C2106 C 0.14799 0.38398 0.68823 0.0
C2107 C 0.14673 0.36057 0.67693 0.0
C2108 C 0.13404 0.40367 0.68424 0.0
C2109 C 0.11804 0.39972 0.66897 0.0
C2110 C 0.11829 0.37726 0.65744 0.0
C2111 C 0.13238 0.35789 0.6614 0.0
H2112 H 0.86896 0.573 0.51247 0.0
H2113 H 0.88217 0.67012 0.52251 0.0
H2114 H 0.92811 0.59534 0.51334 0.0
H2115 H 0.94244 0.6928 0.52383 0.0
H2116 H 0.04821 0.7258 0.50367 0.0
H2117 H 0.98889 0.70572 0.50615 0.0
H2118 H 0.97554 0.61676 0.53001 0.0
H2119 H 0.03455 0.6363 0.52694 0.0
C2120 C 0.88442 0.5991 0.51527 0.0
C2121 C 0.87048 0.61961 0.51754 0.0
C2122 C 0.91867 0.61199 0.51582 0.0
C2123 C 0.94038 0.64595 0.51873 0.0
C2124 C 0.92656 0.66656 0.52139 0.0
C2125 C 0.89197 0.65353 0.52079 0.0
C2126 C 0.03259 0.70192 0.50943 0.0
C2127 C 0.04615 0.68247 0.5149 0.0
C2128 C 0.99854 0.69053 0.51101 0.0
C2129 C 0.97714 0.65948 0.51822 0.0
C2130 C 0.99098 0.64049 0.52408 0.0
C2131 C 0.02493 0.65172 0.52236 0.0
H2132 H 0.31667 0.20166 0.51368 0.0
H2133 H 0.38686 0.25985 0.55151 0.0
H2134 H 0.29563 0.2404 0.51346 0.0
H2135 H 0.36525 0.29801 0.55185 0.0
H2136 H 0.35916 0.3848 0.52808 0.0
H2137 H 0.37181 0.3406 0.53339 0.0
H2138 H 0.26872 0.26706 0.52569 0.0
H2139 H 0.2564 0.31101 0.51988 0.0
C2140 C 0.32629 0.22169 0.5226 0.0
C2141 C 0.35316 0.22762 0.5327 0.0
C2142 C 0.31453 0.24423 0.52238 0.0
C2143 C 0.32932 0.27295 0.53236 0.0
C2144 C 0.35392 0.2768 0.54365 0.0
C2145 C 0.36584 0.25453 0.54373 0.0
C2146 C 0.33923 0.35922 0.52758 0.0
C2147 C 0.30688 0.35156 0.52341 0.0
C2148 C 0.34636 0.33377 0.53078 0.0
C2149 C 0.32124 0.30005 0.53002 0.0
C2150 C 0.28879 0.29257 0.52617 0.0
C2151 C 0.28174 0.31792 0.52288 0.0
H2152 H 0.68211 0.95289 0.50565 0.0
H2153 H 0.61234 0.96376 0.53632 0.0
H2154 H 0.72164 0.0121 0.50839 0.0
H2155 H 0.65236 0.02251 0.53985 0.0
H2156 H 0.70994 0.13084 0.52442 0.0
H2157 H 0.67402 0.07151 0.52546 0.0
H2158 H 0.75956 0.05817 0.52426 0.0
H2159 H 0.79599 0.11861 0.52236 0.0
C2160 C 0.67534 0.96788 0.51314 0.0
C2161 C 0.6438 0.9536 0.52056 0.0
C2162 C 0.69823 0.0019 0.51487 0.0
C2163 C 0.69042 0.02258 0.52426 0.0
C2164 C 0.65921 0.00786 0.53216 0.0
C2165 C 0.63615 0.974 0.5302 0.0
C2166 C 0.72136 0.11545 0.52457 0.0
C2167 C 0.75603 0.12973 0.52321 0.0
C2168 C 0.70054 0.08108 0.52531 0.0
C2169 C 0.71354 0.05952 0.52492 0.0
C2170 C 0.74844 0.0738 0.52432 0.0
C2171 C 0.76945 0.10852 0.52345 0.0
H2172 H 0.97097 0.70357 0.66577 0.0
H2173 H 0.07258 0.72569 0.66937 0.0
H2174 H 0.95302 0.64506 0.66156 0.0
H2175 H 0.05515 0.66778 0.66419 0.0
H2176 H 0.00831 0.55449 0.67083 0.0
H2177 H 0.02982 0.61404 0.67398 0.0
H2178 H 0.95055 0.60638 0.64303 0.0
H2179 H 0.92824 0.54672 0.64087 0.0
C2180 C 0.98948 0.69593 0.66565 0.0
C2181 C 0.02315 0.71935 0.66806 0.0
C2182 C 0.9793 0.66234 0.66299 0.0
C2183 C 0.00257 0.65127 0.6623 0.0
C2184 C 0.03626 0.67486 0.66485 0.0
C2185 C 0.04634 0.70828 0.66782 0.0
C2186 C 0.99614 0.56582 0.66433 0.0
C2187 C 0.96674 0.54601 0.65552 0.0
C2188 C 0.00832 0.60006 0.6662 0.0
C2189 C 0.99166 0.61538 0.65906 0.0
C2190 C 0.96357 0.59565 0.64923 0.0
C2191 C 0.95107 0.56144 0.64768 0.0
H2192 H 0.30036 0.27988 0.6552 0.0
H2193 H 0.27278 0.35338 0.66726 0.0
H2194 H 0.35705 0.32386 0.6501 0.0
H2195 H 0.3293 0.39756 0.66156 0.0
H2196 H 0.44465 0.46243 0.66914 0.0
H2197 H 0.38491 0.42426 0.67138 0.0
H2198 H 0.3904 0.36594 0.63127 0.0
H2199 H 0.45018 0.40327 0.62971 0.0
C2200 C 0.30638 0.30545 0.65674 0.0
C2201 C 0.28198 0.313 0.66171 0.0
C2202 C 0.33888 0.33081 0.6536 0.0
C2203 C 0.34787 0.36451 0.65514 0.0
C2204 C 0.3235 0.37202 0.66031 0.0
C2205 C 0.29101 0.3466 0.66359 0.0
C2206 C 0.43274 0.44227 0.66035 0.0
C2207 C 0.45192 0.43592 0.64916 0.0
C2208 C 0.39849 0.4201 0.66172 0.0
C2209 C 0.3828 0.39134 0.65181 0.0
C2210 C 0.40168 0.38711 0.63949 0.0
C2211 C 0.43586 0.40891 0.63832 0.0
H2212 H 0.73173 0.03036 0.66701 0.0
H2213 H 0.65055 0.92932 0.66546 0.0
H2214 H 0.69268 0.05053 0.66459 0.0
H2215 H 0.61145 0.94915 0.6619 0.0
H2216 H 0.54592 0.9952 0.67247 0.0
H2217 H 0.5831 0.97244 0.6735 0.0
H2218 H 0.6584 0.0594 0.64804 0.0
H2219 H 0.6219 0.08279 0.64816 0.0
C2220 C 0.7055 0.01244 0.66599 0.0
C2221 C 0.69431 0.97826 0.66654 0.0
C2222 C 0.68293 0.02397 0.6644 0.0
C2223 C 0.64849 0.00164 0.66287 0.0
C2224 C 0.63748 0.96734 0.66332 0.0
C2225 C 0.66001 0.95587 0.6653 0.0
C2226 C 0.57021 0.00905 0.66681 0.0
C2227 C 0.58095 0.04073 0.66021 0.0
C2228 C 0.59172 0.99605 0.6674 0.0
C2229 C 0.62436 0.01414 0.66109 0.0
C2230 C 0.6341 0.045 0.65356 0.0
C2231 C 0.61291 0.05828 0.65335 0.0
H2232 H 0.28136 0.89579 0.15908 0.0
H2233 H 0.31654 0.94099 0.20676 0.0
H2234 H 0.33415 0.8997 0.15356 0.0
H2235 H 0.37084 0.94923 0.20046 0.0
H2236 H 0.46762 0.9702 0.18938 0.0
H2237 H 0.41013 0.93552 0.19598 0.0
H2238 H 0.38445 0.93981 0.14514 0.0
H2239 H 0.44263 0.97047 0.13813 0.0
C2240 C 0.29993 0.90565 0.16865 0.0
C2241 C 0.29432 0.91738 0.18358 0.0
C2242 C 0.33081 0.90879 0.16527 0.0
C2243 C 0.35739 0.92524 0.17638 0.0
C2244 C 0.35123 0.93578 0.1916 0.0
C2245 C 0.32007 0.93158 0.19518 0.0
C2246 C 0.45026 0.9621 0.17931 0.0
C2247 C 0.46026 0.97339 0.16309 0.0
C2248 C 0.4167 0.9428 0.18326 0.0
C2249 C 0.39216 0.93589 0.17133 0.0
C2250 C 0.40221 0.94442 0.15483 0.0
C2251 C 0.43582 0.96246 0.15077 0.0
H2252 H 0.06325 0.50265 0.14775 0.0
H2253 H 0.01298 0.46772 0.19427 0.0
H2254 H 0.09791 0.47804 0.15414 0.0
H2255 H 0.04671 0.44309 0.20066 0.0
H2256 H 0.10825 0.39978 0.21162 0.0
H2257 H 0.09801 0.44588 0.20671 0.0
H2258 H 0.08453 0.42133 0.15482 0.0
H2259 H 0.09555 0.3763 0.15984 0.0
C2260 C 0.06037 0.49053 0.15952 0.0
C2261 C 0.03601 0.48764 0.17066 0.0
C2262 C 0.07999 0.47634 0.16317 0.0
C2263 C 0.07514 0.45855 0.17793 0.0
C2264 C 0.05185 0.45726 0.18938 0.0
C2265 C 0.03246 0.47153 0.18576 0.0
C2266 C 0.10421 0.40521 0.19914 0.0
C2267 C 0.10303 0.38489 0.18609 0.0
C2268 C 0.09817 0.43136 0.1963 0.0
C2269 C 0.09008 0.43712 0.18039 0.0
C2270 C 0.09122 0.4181 0.16718 0.0
C2271 C 0.09761 0.39224 0.17002 0.0
H2272 H 0.53623 0.57133 0.14194 0.0
H2273 H 0.51082 0.54437 0.19299 0.0
H2274 H 0.56244 0.62929 0.1494 0.0
H2275 H 0.53234 0.60158 0.20009 0.0
H2276 H 0.62681 0.69953 0.21152 0.0
H2277 H 0.58322 0.64403 0.20508 0.0
H2278 H 0.56923 0.67833 0.15777 0.0
H2279 H 0.61577 0.73257 0.16347 0.0
C2280 C 0.53483 0.57764 0.15465 0.0
C2281 C 0.52117 0.55269 0.16673 0.0
C2282 C 0.54961 0.61114 0.15898 0.0
C2283 C 0.55036 0.62071 0.17552 0.0
C2284 C 0.53347 0.59556 0.18731 0.0
C2285 C 0.51992 0.56213 0.18308 0.0
C2286 C 0.61407 0.69528 0.19983 0.0
C2287 C 0.62501 0.72086 0.18813 0.0
C2288 C 0.58855 0.6633 0.19614 0.0
C2289 C 0.57252 0.65602 0.18071 0.0
C2290 C 0.5814 0.68242 0.1696 0.0
C2291 C 0.60778 0.7142 0.17309 0.0
H2292 H 0.22879 0.9452 0.02343 0.0
H2293 H 0.27517 0.98001 0.97596 0.0
H2294 H 0.2295 0.9968 0.02793 0.0
H2295 H 0.28055 0.03348 0.98138 0.0
H2296 H 0.29823 0.12907 0.99093 0.0
H2297 H 0.26466 0.07129 0.98478 0.0
H2298 H 0.26689 0.04797 0.03623 0.0
H2299 H 0.29614 0.10636 0.0427 0.0
C2300 C 0.23829 0.96341 0.01369 0.0
C2301 C 0.25117 0.95802 0.9991 0.0
C2302 C 0.23958 0.99366 0.0165 0.0
C2303 C 0.25547 0.01996 0.00519 0.0
C2304 C 0.26739 0.01402 0.99035 0.0
C2305 C 0.26493 0.98339 0.9873 0.0
C2306 C 0.28993 0.1122 1.00119 0.0
C2307 C 0.30044 0.12293 0.01743 0.0
C2308 C 0.27124 0.07845 0.99752 0.0
C2309 C 0.26436 0.05451 0.00978 0.0
C2310 C 0.27167 0.06523 0.02626 0.0
C2311 C 0.28894 0.099 0.03003 0.0
H2312 H 0.05151 0.30649 0.02102 0.0
H2313 H 0.03227 0.28025 0.96972 0.0
H2314 H 0.99665 0.26106 0.02822 0.0
H2315 H 0.97764 0.23337 0.97675 0.0
H2316 H 0.87052 0.19987 0.99333 0.0
H2317 H 0.9279 0.22986 0.98482 0.0
H2318 H 0.95672 0.20443 0.03083 0.0
H2319 H 0.89834 0.17486 0.03946 0.0
C2320 C 0.03573 0.29013 0.01137 0.0
C2321 C 0.04577 0.29657 0.99486 0.0
C2322 C 0.00436 0.26395 0.01545 0.0
C2323 C 0.98249 0.24349 0.00307 0.0
C2324 C 0.99352 0.24897 0.98659 0.0
C2325 C 0.02472 0.2756 0.98251 0.0
C2326 C 0.88891 0.19941 1.00131 0.0
C2327 C 0.88002 0.18448 0.0169 0.0
C2328 C 0.92202 0.21679 0.99647 0.0
C2329 C 0.94717 0.21972 0.00712 0.0
C2330 C 0.93805 0.20308 0.02239 0.0
C2331 C 0.90474 0.18591 0.02731 0.0
H2332 H 0.83228 0.73147 0.03142 0.0
H2333 H 0.80451 0.68165 0.98445 0.0
H2334 H 0.8086 0.76602 0.02321 0.0
H2335 H 0.78036 0.71508 0.9763 0.0
H2336 H 0.73686 0.77629 0.96291 0.0
H2337 H 0.78213 0.76559 0.96946 0.0
H2338 H 0.75219 0.75173 0.02064 0.0
H2339 H 0.70802 0.76294 0.01402 0.0
C2340 C 0.8219 0.72864 0.01919 0.0
C2341 C 0.82059 0.70434 0.00848 0.0
C2342 C 0.8082 0.74818 0.01449 0.0
C2343 C 0.79233 0.74321 0.99912 0.0
C2344 C 0.79292 0.72019 0.98808 0.0
C2345 C 0.80684 0.70095 0.99273 0.0
C2346 C 0.7409 0.77199 0.9756 0.0
C2347 C 0.71945 0.771 0.988 0.0
C2348 C 0.76658 0.76569 0.97937 0.0
C2349 C 0.77077 0.75763 0.99558 0.0
C2350 C 0.75034 0.75856 0.00809 0.0
C2351 C 0.72494 0.7651 0.00433 0.0
H2352 H 0.72547 0.07623 0.83579 0.0
H2353 H 0.70285 0.97686 0.84843 0.0
H2354 H 0.66935 0.06241 0.84311 0.0
H2355 H 0.64606 0.96234 0.85492 0.0
H2356 H 0.55482 0.94815 0.87919 0.0
H2357 H 0.61382 0.96953 0.8746 0.0
H2358 H 0.61314 0.03378 0.83627 0.0
H2359 H 0.55445 0.01345 0.84164 0.0
C2360 C 0.70833 0.05117 0.83983 0.0
C2361 C 0.71885 0.02768 0.84154 0.0
C2362 C 0.67595 0.04319 0.84403 0.0
C2363 C 0.65293 0.01134 0.84989 0.0
C2364 C 0.66316 0.98747 0.85096 0.0
C2365 C 0.6957 0.9956 0.84698 0.0
C2366 C 0.56772 0.96789 0.87028 0.0
C2367 C 0.55016 0.97947 0.86094 0.0
C2368 C 0.60143 0.97964 0.86734 0.0
C2369 C 0.61836 0.00275 0.85469 0.0
C2370 C 0.60124 0.01611 0.84616 0.0
C2371 C 0.56756 0.00472 0.84934 0.0
H2372 H 0.03204 0.73019 0.8426 0.0
H2373 H 0.93002 0.65095 0.8439 0.0
H2374 H 0.05043 0.69016 0.84711 0.0
H2375 H 0.94813 0.61099 0.84935 0.0
H2376 H 0.99407 0.54361 0.84226 0.0
H2377 H 0.97188 0.58108 0.83923 0.0
H2378 H 0.0559 0.65677 0.86628 0.0
H2379 H 0.07873 0.61987 0.86831 0.0
C2380 C 0.01352 0.70418 0.8439 0.0
C2381 C 0.97959 0.69384 0.84278 0.0
C2382 C 0.02401 0.68111 0.84672 0.0
C2383 C 1.00087 0.64703 0.84886 0.0
C2384 C 0.96687 0.63675 0.84759 0.0
C2385 C 0.95641 0.65978 0.84448 0.0
C2386 C 0.00725 0.56796 0.84793 0.0
C2387 C 0.03807 0.57877 0.85557 0.0
C2388 C 0.99464 0.58965 0.84614 0.0
C2389 C 0.01232 0.62253 0.85219 0.0
C2390 C 0.04199 0.63223 0.86091 0.0
C2391 C 0.05486 0.61084 0.86238 0.0
H2392 H 0.27303 0.30295 0.84072 0.0
H2393 H 0.35203 0.27979 0.84004 0.0
H2394 H 0.31341 0.36127 0.84526 0.0
H2395 H 0.39236 0.33764 0.84564 0.0
H2396 H 0.45938 0.45086 0.83914 0.0
H2397 H 0.42175 0.39136 0.83587 0.0
H2398 H 0.34753 0.39917 0.86458 0.0
H2399 H 0.38452 0.45888 0.86678 0.0
C2400 C 0.29908 0.31038 0.84156 0.0
C2401 C 0.30931 0.2868 0.83989 0.0
C2402 C 0.32233 0.34382 0.84442 0.0
C2403 C 0.35641 0.35449 0.84612 0.0
C2404 C 0.36656 0.33076 0.84423 0.0
C2405 C 0.34336 0.29744 0.84102 0.0
C2406 C 0.43534 0.43958 0.84512 0.0
C2407 C 0.42487 0.4594 0.85325 0.0
C2408 C 0.41357 0.40539 0.84319 0.0
C2409 C 0.38105 0.39019 0.84963 0.0
C2410 C 0.37178 0.4099 0.8589 0.0
C2411 C 0.39322 0.44411 0.86047 0.0
H2412 H 0.67469 0.88986 0.98996 0.0
H2413 H 0.5751 0.87432 0.99156 0.0
H2414 H 0.69693 0.94981 0.99275 0.0
H2415 H 0.59693 0.93327 0.99506 0.0
H2416 H 0.64346 0.044 0.98936 0.0
H2417 H 0.6237 0.98584 0.98342 0.0
H2418 H 0.70343 0.99018 0.01267 0.0
H2419 H 0.72406 0.04899 0.018 0.0
C2420 C 0.65756 0.89921 0.99064 0.0
C2421 C 0.6231 0.87714 0.9905 0.0
C2422 C 0.67027 0.93358 0.99251 0.0
C2423 C 0.64883 0.94668 0.99431 0.0
C2424 C 0.61442 0.92454 0.99351 0.0
C2425 C 0.60181 0.89044 0.99156 0.0
C2426 C 0.65665 0.03253 0.99467 0.0
C2427 C 0.68521 0.05124 0.0043 0.0
C2428 C 0.64527 0.99899 0.99126 0.0
C2429 C 0.66184 0.98293 0.99753 0.0
C2430 C 0.69025 0.00162 0.00734 0.0
C2431 C 0.70185 0.03533 0.01061 0.0
H2432 H 0.97011 0.61564 0.99433 0.0
H2433 H 0.94505 0.69193 0.00369 0.0
H2434 H 0.02726 0.65819 0.98873 0.0
H2435 H 0.00191 0.73456 0.99749 0.0
H2436 H 0.11713 0.79894 0.00445 0.0
H2437 H 0.05736 0.76144 0.00717 0.0
H2438 H 0.06171 0.69818 0.96936 0.0
H2439 H 0.12151 0.73495 0.96731 0.0
C2440 C 0.97678 0.6415 0.99517 0.0
C2441 C 0.95295 0.65025 0.99958 0.0
C2442 C 0.00955 0.66604 0.99175 0.0
C2443 C 0.0194 0.70008 0.99242 0.0
C2444 C 0.99553 0.70877 0.99696 0.0
C2445 C 0.96281 0.68422 1.00053 0.0
C2446 C 0.105 0.77777 0.99625 0.0
C2447 C 0.12392 0.76999 0.98558 0.0
C2448 C 0.0707 0.75597 0.99791 0.0
C2449 C 0.05461 0.72611 0.98881 0.0
C2450 C 0.07325 0.72024 0.97699 0.0
C2451 C 0.10747 0.74171 0.97552 0.0
H2452 H 0.27177 0.38728 0.96523 0.0
H2453 H 0.20774 0.32096 0.00293 0.0
H2454 H 0.30979 0.36607 0.9689 0.0
H2455 H 0.24646 0.30077 0.00737 0.0
H2456 H 0.39287 0.36017 0.99509 0.0
H2457 H 0.34988 0.37372 0.98846 0.0
H2458 H 0.27433 0.27288 0.99976 0.0
H2459 H 0.31716 0.26002 0.0072 0.0
C2460 C 0.26528 0.36724 0.9739 0.0
C2461 C 0.23659 0.35541 0.98362 0.0
C2462 C 0.28748 0.35561 0.97633 0.0
C2463 C 0.28193 0.33237 0.98881 0.0
C2464 C 0.25173 0.31857 0.9976 0.0
C2465 C 0.2292 0.32984 0.99495 0.0
C2466 C 0.36708 0.34105 0.99636 0.0
C2467 C 0.35862 0.30907 0.00174 0.0
C2468 C 0.3423 0.34862 0.99231 0.0
C2469 C 0.30835 0.32427 0.99329 0.0
C2470 C 0.30001 0.29244 0.99894 0.0
C2471 C 0.32474 0.28503 0.0032 0.0
H2472 H 0.11055 0.31213 0.4762 0.0
H2473 H 0.12721 0.27981 0.52306 0.0
H2474 H 0.0512 0.28509 0.48195 0.0
H2475 H 0.0675 0.25077 0.52874 0.0
H2476 H 0.97574 0.2597 0.543 0.0
H2477 H 0.03065 0.26886 0.53635 0.0
H2478 H 0.99923 0.23843 0.48607 0.0
H2479 H 0.9457 0.23248 0.49245 0.0
C2480 C 0.10101 0.29804 0.48747 0.0
C2481 C 0.12281 0.2978 0.49923 0.0
C2482 C 0.06709 0.28238 0.4908 0.0
C2483 C 0.05445 0.26584 0.5059 0.0
C2484 C 0.07639 0.26379 0.51715 0.0
C2485 C 0.11038 0.28001 0.5139 0.0
C2486 C 0.98051 0.2544 0.53062 0.0
C2487 C 0.95616 0.24487 0.51836 0.0
C2488 C 0.01188 0.25931 0.52681 0.0
C2489 C 0.01953 0.25454 0.51061 0.0
C2490 C 0.9944 0.24281 0.49861 0.0
C2491 C 0.96325 0.23856 0.50237 0.0
H2492 H 0.67841 0.80171 0.52894 0.0
H2493 H 0.72837 0.83847 0.48248 0.0
H2494 H 0.71161 0.77607 0.53445 0.0
H2495 H 0.76235 0.8128 0.48796 0.0
H2496 H 0.75811 0.70974 0.49172 0.0
H2497 H 0.74753 0.75539 0.48772 0.0
H2498 H 0.76301 0.77797 0.53976 0.0
H2499 H 0.7729 0.7314 0.54366 0.0
C2500 C 0.6977 0.80572 0.52027 0.0
C2501 C 0.70123 0.82257 0.5054 0.0
C2502 C 0.71677 0.79084 0.52338 0.0
C2503 C 0.73968 0.79227 0.51163 0.0
C2504 C 0.74468 0.81094 0.49719 0.0
C2505 C 0.72544 0.82577 0.49407 0.0
C2506 C 0.76066 0.72534 0.50215 0.0
C2507 C 0.76653 0.7173 0.51798 0.0
C2508 C 0.75453 0.75156 0.49989 0.0
C2509 C 0.75411 0.77023 0.51345 0.0
C2510 C 0.76262 0.76375 0.5291 0.0
C2511 C 0.76846 0.73731 0.53135 0.0
H2512 H 0.2019 0.86757 0.52795 0.0
H2513 H 0.16393 0.88872 0.48398 0.0
H2514 H 0.23238 0.92595 0.5347 0.0
H2515 H 0.19411 0.94802 0.49085 0.0
H2516 H 0.28626 0.03181 0.54605 0.0
H2517 H 0.23722 0.9769 0.54228 0.0
H2518 H 0.25144 0.98771 0.48946 0.0
H2519 H 0.29926 0.04293 0.49346 0.0
C2520 C 0.19869 0.88465 0.52018 0.0
C2521 C 0.18017 0.87366 0.50558 0.0
C2522 C 0.21635 0.91833 0.524 0.0
C2523 C 0.21594 0.94187 0.51328 0.0
C2524 C 0.19539 0.9306 0.49925 0.0
C2525 C 0.17791 0.89676 0.49536 0.0
C2526 C 0.27818 0.02246 0.53369 0.0
C2527 C 0.29619 0.04122 0.52003 0.0
C2528 C 0.25029 0.99112 0.53148 0.0
C2529 C 0.2405 0.97766 0.51557 0.0
C2530 C 0.25776 0.99737 0.50188 0.0
C2531 C 0.28529 0.02893 0.50412 0.0
H2532 H 0.99441 0.46158 0.31544 0.0
H2533 H 0.94283 0.44465 0.36169 0.0
H2534 H 0.96242 0.40307 0.30904 0.0
H2535 H 0.91012 0.38518 0.35532 0.0
H2536 H 0.90189 0.29774 0.29783 0.0
H2537 H 0.91146 0.35379 0.30285 0.0
H2538 H 0.92551 0.34294 0.35467 0.0
H2539 H 0.91515 0.28702 0.34955 0.0
C2540 C 0.97499 0.44554 0.32388 0.0
C2541 C 0.97057 0.45778 0.33891 0.0
C2542 C 0.95665 0.41176 0.32026 0.0
C2543 C 0.9336 0.38929 0.33166 0.0
C2544 C 0.92788 0.40179 0.34634 0.0
C2545 C 0.94637 0.43573 0.34996 0.0
C2546 C 0.90601 0.30719 0.31032 0.0
C2547 C 0.90754 0.28814 0.32331 0.0
C2548 C 0.91166 0.33923 0.31322 0.0
C2549 C 0.91961 0.35303 0.32914 0.0
C2550 C 0.91894 0.33301 0.3423 0.0
C2551 C 0.91297 0.30088 0.3394 0.0
H2552 H 0.70639 0.61427 0.28882 0.0
H2553 H 0.72094 0.62752 0.3413 0.0
H2554 H 0.65081 0.5665 0.29338 0.0
H2555 H 0.66596 0.58063 0.346 0.0
H2556 H 0.56676 0.49509 0.35309 0.0
H2557 H 0.62511 0.52288 0.34457 0.0
H2558 H 0.60143 0.5651 0.30285 0.0
H2559 H 0.54385 0.53725 0.31131 0.0
C2560 C 0.69795 0.6063 0.3013 0.0
C2561 C 0.71804 0.6241 0.3147 0.0
C2562 C 0.66622 0.57915 0.30395 0.0
C2563 C 0.65385 0.56973 0.32007 0.0
C2564 C 0.67482 0.58657 0.33343 0.0
C2565 C 0.7065 0.6135 0.33077 0.0
C2566 C 0.57412 0.50948 0.34182 0.0
C2567 C 0.55081 0.5136 0.33271 0.0
C2568 C 0.60741 0.5255 0.33697 0.0
C2569 C 0.61802 0.54639 0.32306 0.0
C2570 C 0.59417 0.54872 0.31342 0.0
C2571 C 0.56097 0.53259 0.31822 0.0
H2572 H 0.37472 0.06501 0.30313 0.0
H2573 H 0.3928 0.11348 0.35046 0.0
H2574 H 0.42144 0.05708 0.30725 0.0
H2575 H 0.44256 0.11025 0.3536 0.0
H2576 H 0.48338 0.0422 0.36795 0.0
H2577 H 0.45539 0.07254 0.36168 0.0
H2578 H 0.47284 0.06682 0.30967 0.0
H2579 H 0.49564 0.03197 0.31589 0.0
C2580 C 0.38954 0.07525 0.31414 0.0
C2581 C 0.3797 0.08988 0.32639 0.0
C2582 C 0.41698 0.07121 0.31646 0.0
C2583 C 0.43613 0.08255 0.33096 0.0
C2584 C 0.4281 0.10012 0.34249 0.0
C2585 C 0.39976 0.10295 0.34045 0.0
C2586 C 0.48153 0.0477 0.35516 0.0
C2587 C 0.4916 0.03393 0.34255 0.0
C2588 C 0.46571 0.06569 0.35149 0.0
C2589 C 0.46053 0.07151 0.33502 0.0
C2590 C 0.47474 0.06163 0.32249 0.0
C2591 C 0.48909 0.04223 0.32615 0.0
H2592 H 0.1556 0.3242 0.0372 0.0
H2593 H 0.22648 0.41685 0.05972 0.0
H2594 H 0.14224 0.29712 0.064 0.0
H2595 H 0.21352 0.38954 0.08682 0.0
H2596 H 0.14798 0.33943 0.13307 0.0
H2597 H 0.16733 0.3666 0.10654 0.0
H2598 H 0.16169 0.27759 0.08696 0.0
H2599 H 0.14201 0.25023 0.11372 0.0
C2600 C 0.16843 0.33884 0.0479 0.0
C2601 C 0.19174 0.3729 0.04625 0.0
C2602 C 0.16104 0.32313 0.06334 0.0
C2603 C 0.17652 0.34099 0.07776 0.0
C2604 C 0.2007 0.37495 0.07607 0.0
C2605 C 0.20841 0.39061 0.0605 0.0
C2606 C 0.15077 0.32549 0.1232 0.0
C2607 C 0.143 0.29237 0.1257 0.0
C2608 C 0.1623 0.34132 0.1079 0.0
C2609 C 0.16623 0.32451 0.09444 0.0
C2610 C 0.15876 0.2914 0.09694 0.0
C2611 C 0.14753 0.27566 0.11235 0.0
H2612 H 0.67845 0.82648 0.03868 0.0
H2613 H 0.58353 0.79141 0.06209 0.0
H2614 H 0.70597 0.84246 0.06541 0.0
H2615 H 0.61113 0.80771 0.08902 0.0
H2616 H 0.66921 0.80295 0.13478 0.0
H2617 H 0.64103 0.79023 0.10826 0.0
H2618 H 0.71995 0.88209 0.08853 0.0
H2619 H 0.74807 0.89513 0.11532 0.0
C2620 C 0.66335 0.82193 0.04953 0.0
C2621 C 0.62861 0.80705 0.04812 0.0
C2622 C 0.67926 0.83156 0.06493 0.0
C2623 C 0.66094 0.82633 0.07954 0.0
C2624 C 0.62616 0.81185 0.07813 0.0
C2625 C 0.61028 0.80266 0.06265 0.0
C2626 C 0.6805 0.82076 0.12493 0.0
C2627 C 0.71097 0.85029 0.12744 0.0
C2628 C 0.66418 0.81342 0.10962 0.0
C2629 C 0.67796 0.83509 0.09612 0.0
C2630 C 0.70854 0.86462 0.09855 0.0
C2631 C 0.72468 0.87219 0.11399 0.0
H2632 H 0.09862 0.8223 0.12489 0.0
H2633 H 0.2043 0.88369 0.1321 0.0
H2634 H 0.10888 0.80531 0.09772 0.0
H2635 H 0.21433 0.8669 0.10538 0.0
H2636 H 0.22092 0.86609 0.04971 0.0
H2637 H 0.20627 0.87766 0.07655 0.0
H2638 H 0.13522 0.77366 0.08305 0.0
H2639 H 0.15011 0.76177 0.05567 0.0
C2640 C 0.12397 0.83215 0.12076 0.0
C2641 C 0.15056 0.85454 0.13082 0.0
C2642 C 0.12987 0.82221 0.10521 0.0
C2643 C 0.16249 0.83481 0.09919 0.0
C2644 C 0.18887 0.85688 0.10939 0.0
C2645 C 0.18305 0.86644 0.12486 0.0
C2646 C 0.20206 0.84543 0.05671 0.0
C2647 C 0.18686 0.81285 0.05033 0.0
C2648 C 0.19375 0.85216 0.07228 0.0
C2649 C 0.16967 0.82668 0.08218 0.0
C2650 C 0.15382 0.79401 0.07579 0.0
C2651 C 0.1625 0.78713 0.06012 0.0
H2652 H 0.35634 0.13252 0.46561 0.0
H2653 H 0.38379 0.23559 0.46088 0.0
H2654 H 0.33031 0.1208 0.43865 0.0
H2655 H 0.35707 0.22354 0.43349 0.0
H2656 H 0.27146 0.1724 0.39197 0.0
H2657 H 0.29877 0.18928 0.4191 0.0
H2658 H 0.34905 0.13425 0.40957 0.0
H2659 H 0.32238 0.11779 0.38275 0.0
C2660 C 0.35678 0.15284 0.45886 0.0
C2661 C 0.3724 0.18513 0.46562 0.0
C2662 C 0.34188 0.14604 0.44324 0.0
C2663 C 0.34154 0.17113 0.4337 0.0
C2664 C 0.35666 0.20348 0.44046 0.0
C2665 C 0.37219 0.21046 0.45614 0.0
C2666 C 0.28843 0.16401 0.39565 0.0
C2667 C 0.29442 0.14351 0.38504 0.0
C2668 C 0.30428 0.17388 0.4112 0.0
C2669 C 0.32612 0.16305 0.41669 0.0
C2670 C 0.33221 0.14287 0.40596 0.0
C2671 C 0.31687 0.13347 0.39045 0.0
H2672 H 0.83414 0.10598 0.38811 0.0
H2673 H 0.9007 0.2107 0.38037 0.0
H2674 H 0.81775 0.11845 0.41488 0.0
H2675 H 0.88487 0.22293 0.40697 0.0
H2676 H 0.8792 0.22795 0.4635 0.0
H2677 H 0.89227 0.21242 0.43705 0.0
H2678 H 0.78786 0.15009 0.4269 0.0
H2679 H 0.77454 0.1662 0.45354 0.0
C2680 C 0.84541 0.13159 0.39211 0.0
C2681 C 0.86882 0.15728 0.38199 0.0
C2682 C 0.83583 0.13877 0.40742 0.0
C2683 C 0.84998 0.17175 0.41317 0.0
C2684 C 0.87355 0.19725 0.40307 0.0
C2685 C 0.88256 0.19018 0.38772 0.0
C2686 C 0.85886 0.21088 0.45571 0.0
C2687 C 0.82573 0.19846 0.46077 0.0
C2688 C 0.86643 0.20205 0.44044 0.0
C2689 C 0.8412 0.17998 0.42973 0.0
C2690 C 0.80797 0.16699 0.43485 0.0
C2691 C 0.80032 0.17639 0.45008 0.0
H2692 H 0.79352 0.66416 0.37091 0.0
H2693 H 0.88757 0.74098 0.38975 0.0
H2694 H 0.78177 0.63503 0.39722 0.0
H2695 H 0.87556 0.71204 0.41621 0.0
H2696 H 0.82249 0.67181 0.46648 0.0
H2697 H 0.83731 0.6991 0.43971 0.0
H2698 H 0.79948 0.60385 0.41596 0.0
H2699 H 0.78444 0.57639 0.44302 0.0
C2700 C 0.8119 0.67479 0.38056 0.0
C2701 C 0.84165 0.70501 0.37798 0.0
C2702 C 0.80514 0.65794 0.39573 0.0
C2703 C 0.82766 0.67097 0.40897 0.0
C2704 C 0.85743 0.70122 0.40641 0.0
C2705 C 0.86439 0.71784 0.39115 0.0
C2706 C 0.81721 0.65656 0.45559 0.0
C2707 C 0.80188 0.62177 0.45701 0.0
C2708 C 0.82607 0.67233 0.44016 0.0
C2709 C 0.81957 0.65385 0.42552 0.0
C2710 C 0.80463 0.61898 0.42691 0.0
C2711 C 0.79622 0.6032 0.44245 0.0
H2712 H 0.96281 0.73535 0.89564 0.0
H2713 H 0.86116 0.70903 0.88601 0.0
H2714 H 0.94466 0.69693 0.91863 0.0
H2715 H 0.84288 0.6713 0.90955 0.0
H2716 H 0.81894 0.58011 0.94045 0.0
H2717 H 0.83812 0.61803 0.91665 0.0
H2718 H 0.92209 0.6898 0.94531 0.0
H2719 H 0.90404 0.6515 0.96824 0.0
C2720 C 0.93669 0.72213 0.89884 0.0
C2721 C 0.91327 0.7249 0.88918 0.0
C2722 C 0.92625 0.69997 0.9119 0.0
C2723 C 0.89231 0.68085 0.91568 0.0
C2724 C 0.86908 0.68513 0.90659 0.0
C2725 C 0.87952 0.70698 0.89334 0.0
C2726 C 0.84182 0.60371 0.94129 0.0
C2727 C 0.8602 0.61335 0.95586 0.0
C2728 C 0.85253 0.6255 0.92791 0.0
C2729 C 0.88143 0.65689 0.92926 0.0
C2730 C 0.90003 0.66569 0.94383 0.0
C2731 C 0.88964 0.64393 0.95695 0.0
H2732 H 0.33255 0.23139 0.87345 0.0
H2733 H 0.24784 0.167 0.90344 0.0
H2734 H 0.36882 0.24549 0.89713 0.0
H2735 H 0.28425 0.1825 0.92775 0.0
H2736 H 0.36571 0.19088 0.96237 0.0
H2737 H 0.33091 0.17426 0.93778 0.0
H2738 H 0.37796 0.27695 0.92239 0.0
H2739 H 0.41283 0.29352 0.94682 0.0
C2740 C 0.32186 0.22003 0.88517 0.0
C2741 C 0.28784 0.19745 0.8867 0.0
C2742 C 0.34248 0.22848 0.89874 0.0
C2743 C 0.32928 0.21487 0.91416 0.0
C2744 C 0.29495 0.19283 0.91585 0.0
C2745 C 0.27418 0.18425 0.90211 0.0
C2746 C 0.36881 0.20978 0.95361 0.0
C2747 C 0.39161 0.24347 0.95649 0.0
C2748 C 0.34877 0.20031 0.93967 0.0
C2749 C 0.35148 0.22442 0.92844 0.0
C2750 C 0.37553 0.25789 0.93089 0.0
C2751 C 0.39559 0.26735 0.9448 0.0
H2752 H 0.84383 0.08667 0.90326 0.0
H2753 H 0.7713 0.09966 0.87614 0.0
H2754 H 0.83013 0.10697 0.92829 0.0
H2755 H 0.75669 0.11868 0.90093 0.0
H2756 H 0.75932 0.18014 0.94444 0.0
H2757 H 0.77877 0.16511 0.91955 0.0
H2758 H 0.78372 0.08761 0.94678 0.0
H2759 H 0.76551 0.10346 0.97144 0.0
C2760 C 0.82484 0.09366 0.90281 0.0
C2761 C 0.80875 0.0922 0.88805 0.0
C2762 C 0.81701 0.10522 0.91697 0.0
C2763 C 0.79262 0.11471 0.91641 0.0
C2764 C 0.77621 0.11246 0.90159 0.0
C2765 C 0.78436 0.10141 0.88749 0.0
C2766 C 0.76476 0.16005 0.94491 0.0
C2767 C 0.76157 0.1431 0.9596 0.0
C2768 C 0.7758 0.15143 0.93082 0.0
C2769 C 0.78299 0.1254 0.93137 0.0
C2770 C 0.77925 0.10832 0.94614 0.0
C2771 C 0.76872 0.11724 0.96017 0.0
H2772 H 0.61246 0.80148 0.5556 0.0
H2773 H 0.58338 0.87111 0.57307 0.0
H2774 H 0.65107 0.81619 0.57856 0.0
H2775 H 0.62141 0.88519 0.59627 0.0
H2776 H 0.72843 0.94457 0.61189 0.0
H2777 H 0.6845 0.91814 0.59138 0.0
H2778 H 0.66109 0.8214 0.60948 0.0
H2779 H 0.7056 0.84782 0.62976 0.0
C2780 C 0.61339 0.8189 0.56476 0.0
C2781 C 0.59605 0.8361 0.56242 0.0
C2782 C 0.63542 0.82728 0.57783 0.0
C2783 C 0.63987 0.85267 0.58863 0.0
C2784 C 0.61888 0.86622 0.58766 0.0
C2785 C 0.59684 0.85784 0.57459 0.0
C2786 C 0.71469 0.91771 0.61107 0.0
C2787 C 0.71976 0.8981 0.62245 0.0
C2788 C 0.68918 0.90263 0.59964 0.0
C2789 C 0.66881 0.86792 0.59947 0.0
C2790 C 0.67617 0.84824 0.60969 0.0
C2791 C 0.70166 0.86331 0.62114 0.0
H2792 H 0.11742 0.69772 0.56738 0.0
H2793 H 0.19189 0.79877 0.55592 0.0
H2794 H 0.10027 0.71715 0.59117 0.0
H2795 H 0.17548 0.81834 0.58008 0.0
H2796 H 0.10238 0.84257 0.60563 0.0
H2797 H 0.12554 0.82206 0.5845 0.0
H2798 H 0.11311 0.74337 0.61742 0.0
H2799 H 0.08837 0.76269 0.6378 0.0
C2800 C 0.13108 0.72393 0.57043 0.0
C2801 C 0.15546 0.74694 0.55982 0.0
C2802 C 0.12116 0.73512 0.58396 0.0
C2803 C 0.13597 0.76935 0.58712 0.0
C2804 C 0.16299 0.79193 0.57755 0.0
C2805 C 0.17264 0.78076 0.56392 0.0
C2806 C 0.10411 0.82055 0.60802 0.0
C2807 C 0.09392 0.80402 0.62308 0.0
C2808 C 0.11783 0.80918 0.59619 0.0
C2809 C 0.1216 0.78148 0.59951 0.0
C2810 C 0.11045 0.76467 0.61452 0.0
C2811 C 0.09645 0.77573 0.62615 0.0
H2812 H 0.18849 0.38863 0.55311 0.0
H2813 H 0.28656 0.41619 0.57075 0.0
H2814 H 0.16391 0.34821 0.57531 0.0
H2815 H 0.26204 0.37677 0.59333 0.0
H2816 H 0.21613 0.27021 0.60809 0.0
H2817 H 0.23359 0.31491 0.58805 0.0
H2818 H 0.15671 0.33403 0.60519 0.0
H2819 H 0.13854 0.28855 0.62487 0.0
C2820 C 0.20467 0.38693 0.56217 0.0
C2821 C 0.23922 0.40423 0.55997 0.0
C2822 C 0.19065 0.36388 0.57482 0.0
C2823 C 0.21126 0.35852 0.58543 0.0
C2824 C 0.2458 0.3798 0.58482 0.0
C2825 C 0.2598 0.40275 0.57212 0.0
C2826 C 0.20216 0.28308 0.6071 0.0
C2827 C 0.17648 0.27657 0.61811 0.0
C2828 C 0.2126 0.30911 0.59596 0.0
C2829 C 0.19734 0.32866 0.59572 0.0
C2830 C 0.16923 0.31967 0.60544 0.0
C2831 C 0.15874 0.29358 0.61654 0.0
H2832 H 0.94459 0.50955 0.722 0.0
H2833 H 0.97958 0.44035 0.7143 0.0
H2834 H 0.973 0.52484 0.7489 0.0
H2835 H 0.00726 0.45517 0.74097 0.0
H2836 H 0.01727 0.45965 0.79738 0.0
H2837 H 0.98929 0.44778 0.77081 0.0
H2838 H 0.03346 0.55274 0.76137 0.0
H2839 H 0.06217 0.56483 0.78814 0.0
C2840 C 0.95819 0.49752 0.72603 0.0
C2841 C 0.95968 0.47367 0.71589 0.0
C2842 C 0.97467 0.50645 0.7414 0.0
C2843 C 0.99244 0.49121 0.7472 0.0
C2844 C 0.99369 0.46729 0.73705 0.0
C2845 C 0.97785 0.45888 0.72165 0.0
C2846 C 0.02115 0.48036 0.78972 0.0
C2847 C 0.04223 0.51327 0.79501 0.0
C2848 C 0.00509 0.47348 0.77438 0.0
C2849 C 0.00905 0.49924 0.76383 0.0
C2850 C 0.02965 0.53225 0.76918 0.0
C2851 C 0.0463 0.53919 0.78449 0.0
H2852 H 0.48944 0.49747 0.70397 0.0
H2853 H 0.53075 0.4431 0.72738 0.0
H2854 H 0.47663 0.51183 0.73085 0.0
H2855 H 0.51798 0.45759 0.75456 0.0
H2856 H 0.53292 0.53119 0.79759 0.0
H2857 H 0.53908 0.50909 0.77148 0.0
H2858 H 0.44272 0.49135 0.75629 0.0
H2859 H 0.43627 0.51305 0.78278 0.0
C2860 C 0.49537 0.48814 0.7149 0.0
C2861 C 0.51113 0.46906 0.71343 0.0
C2862 C 0.48785 0.49629 0.73039 0.0
C2863 C 0.49636 0.48618 0.74506 0.0
C2864 C 0.51126 0.46616 0.7436 0.0
C2865 C 0.51827 0.45747 0.72801 0.0
C2866 C 0.51278 0.52231 0.78885 0.0
C2867 C 0.48401 0.52397 0.79257 0.0
C2868 C 0.5163 0.50939 0.77378 0.0
C2869 C 0.49139 0.49808 0.76163 0.0
C2870 C 0.46258 0.49985 0.76525 0.0
C2871 C 0.45883 0.51232 0.7805 0.0
H2872 H 0.46349 0.02022 0.71949 0.0
H2873 H 0.56903 0.06728 0.72796 0.0
H2874 H 0.45291 0.99201 0.74581 0.0
H2875 H 0.55826 0.03897 0.75482 0.0
H2876 H 0.51937 0.95284 0.79531 0.0
H2877 H 0.53424 0.98141 0.76843 0.0
H2878 H 0.45773 0.00715 0.77474 0.0
H2879 H 0.44285 0.97876 0.80106 0.0
C2880 C 0.48459 0.02451 0.72693 0.0
C2881 C 0.51718 0.04609 0.72143 0.0
C2882 C 0.47845 0.00843 0.74219 0.0
C2883 C 0.50465 0.01315 0.75261 0.0
C2884 C 0.53742 0.03449 0.74712 0.0
C2885 C 0.5436 0.05097 0.73177 0.0
C2886 C 0.5057 0.96452 0.79089 0.0
C2887 C 0.47986 0.96337 0.80046 0.0
C2888 C 0.51441 0.98116 0.77553 0.0
C2889 C 0.49713 0.99659 0.76927 0.0
C2890 C 0.47141 0.99533 0.77894 0.0
C2891 C 0.46299 0.97912 0.7942 0.0
H2892 H 0.619 0.06733 0.23514 0.0
H2893 H 0.5206 0.03754 0.21702 0.0
H2894 H 0.5949 0.02326 0.2558 0.0
H2895 H 0.49664 0.99312 0.23737 0.0
H2896 H 0.47545 0.94619 0.29067 0.0
H2897 H 0.49115 0.98503 0.26783 0.0
H2898 H 0.56533 0.96023 0.25287 0.0
H2899 H 0.54994 0.92163 0.27598 0.0
C2900 C 0.59224 0.05195 0.23591 0.0
C2901 C 0.57156 0.05542 0.22454 0.0
C2902 C 0.57854 0.0264 0.24742 0.0
C2903 C 0.54411 0.00437 0.24768 0.0
C2904 C 0.52329 0.00961 0.2372 0.0
C2905 C 0.53696 0.03506 0.2257 0.0
C2906 C 0.49427 0.94819 0.28212 0.0
C2907 C 0.512 0.93161 0.28511 0.0
C2908 C 0.50329 0.97043 0.26913 0.0
C2909 C 0.53006 0.97616 0.25904 0.0
C2910 C 0.54515 0.95666 0.26086 0.0
C2911 C 0.53601 0.93425 0.27385 0.0
H2912 H 0.08127 0.61788 0.27124 0.0
H2913 H 0.05974 0.52238 0.2903 0.0
H2914 H 0.03794 0.59012 0.25057 0.0
H2915 H 0.01569 0.49462 0.26998 0.0
H2916 H 0.95161 0.46714 0.22075 0.0
H2917 H 0.9972 0.48495 0.2403 0.0
H2918 H 0.97675 0.56 0.25895 0.0
H2919 H 0.93191 0.54292 0.23905 0.0
C2920 C 0.06838 0.59101 0.27048 0.0
C2921 C 0.07282 0.57209 0.28253 0.0
C2922 C 0.04317 0.57516 0.25895 0.0
C2923 C 0.02266 0.54046 0.25942 0.0
C2924 C 0.03081 0.52145 0.2697 0.0
C2925 C 0.05611 0.53731 0.28118 0.0
C2926 C 0.9561 0.48656 0.22952 0.0
C2927 C 0.93925 0.5045 0.22818 0.0
C2928 C 0.98229 0.49689 0.24054 0.0
C2929 C 0.99124 0.52482 0.25039 0.0
C2930 C 0.97095 0.53924 0.25086 0.0
C2931 C 0.94485 0.529 0.23979 0.0
H2932 H 0.45226 0.39295 0.23648 0.0
H2933 H 0.52565 0.48956 0.21829 0.0
H2934 H 0.43292 0.41949 0.25603 0.0
H2935 H 0.50555 0.51602 0.23735 0.0
H2936 H 0.47596 0.53983 0.28941 0.0
H2937 H 0.49985 0.52472 0.26669 0.0
H2938 H 0.40146 0.4496 0.25142 0.0
H2939 H 0.37767 0.464 0.27456 0.0
C2940 C 0.46488 0.41983 0.23705 0.0
C2941 C 0.49004 0.43932 0.22587 0.0
C2942 C 0.45332 0.43497 0.24787 0.0
C2943 C 0.4669 0.46963 0.24757 0.0
C2944 C 0.49434 0.48923 0.23756 0.0
C2945 C 0.50598 0.47412 0.22682 0.0
C2946 C 0.45942 0.52111 0.28073 0.0
C2947 C 0.42526 0.50216 0.28392 0.0
C2948 C 0.47308 0.51237 0.2678 0.0
C2949 C 0.45245 0.48503 0.2579 0.0
C2950 C 0.41781 0.46998 0.2594 0.0
C2951 C 0.40417 0.47863 0.2724 0.0
H2952 H 0.95923 0.10755 0.29267 0.0
H2953 H 0.93346 0.18054 0.27709 0.0
H2954 H 0.99854 0.12356 0.26946 0.0
H2955 H 0.9723 0.19637 0.25434 0.0
H2956 H 0.07255 0.24914 0.22993 0.0
H2957 H 0.03354 0.22652 0.25263 0.0
H2958 H 0.00557 0.12711 0.23726 0.0
H2959 H 0.04506 0.15001 0.21409 0.0
C2960 C 0.96136 0.12649 0.28419 0.0
C2961 C 0.94292 0.14267 0.28696 0.0
C2962 C 0.98405 0.13577 0.27087 0.0
C2963 C 0.98924 0.16177 0.26006 0.0
C2964 C 0.96971 0.17677 0.26249 0.0
C2965 C 0.94704 0.1674 0.27559 0.0
C2966 C 0.05853 0.2224 0.23136 0.0
C2967 C 0.06225 0.20159 0.21994 0.0
C2968 C 0.03577 0.20935 0.24443 0.0
C2969 C 0.01571 0.17484 0.24678 0.0
C2970 C 0.02046 0.1538 0.23591 0.0
C2971 C 0.04326 0.16698 0.22262 0.0
H2972 H 0.87136 0.85225 0.3015 0.0
H2973 H 0.86146 0.77418 0.26922 0.0
H2974 H 0.85521 0.87629 0.27876 0.0
H2975 H 0.84691 0.79908 0.24633 0.0
H2976 H 0.8514 0.87655 0.2065 0.0
H2977 H 0.87512 0.86032 0.22933 0.0
H2978 H 0.79484 0.84719 0.2608 0.0
H2979 H 0.7703 0.86188 0.23779 0.0
C2980 C 0.86694 0.84088 0.28942 0.0
C2981 C 0.86839 0.81154 0.28719 0.0
C2982 C 0.85731 0.85448 0.27641 0.0
C2983 C 0.84982 0.83975 0.26063 0.0
C2984 C 0.85274 0.81129 0.25823 0.0
C2985 C 0.86126 0.79708 0.27136 0.0
C2986 C 0.83921 0.871 0.21839 0.0
C2987 C 0.80915 0.87116 0.22031 0.0
C2988 C 0.85267 0.86136 0.23146 0.0
C2989 C 0.83704 0.85254 0.247 0.0
C2990 C 0.80776 0.85408 0.2491 0.0
C2991 C 0.79373 0.86264 0.23589 0.0
H2992 H 0.15023 0.04182 0.29725 0.0
H2993 H 0.2493 0.07006 0.28122 0.0
H2994 H 0.12735 0.0016 0.27432 0.0
H2995 H 0.22684 0.0307 0.25867 0.0
H2996 H 0.1836 0.93174 0.23389 0.0
H2997 H 0.19923 0.971 0.25642 0.0
H2998 H 0.12133 0.99119 0.24299 0.0
H2999 H 0.1053 0.95107 0.22008 0.0
C3000 C 0.16718 0.04006 0.28871 0.0
C3001 C 0.20178 0.0594 0.2913 0.0
C3002 C 0.15403 0.01683 0.27555 0.0
C3003 C 0.17509 0.01208 0.26468 0.0
C3004 C 0.20957 0.03268 0.2669 0.0
C3005 C 0.22257 0.0557 0.27988 0.0
C3006 C 0.16935 0.94411 0.23571 0.0
C3007 C 0.14312 0.93796 0.22492 0.0
C3008 C 0.17861 0.96708 0.24868 0.0
C3009 C 0.16217 0.98516 0.25153 0.0
C3010 C 0.13476 0.97795 0.24128 0.0
C3011 C 0.12545 0.95478 0.22812 0.0
H3012 H 0.01699 0.83853 0.80232 0.0
H3013 H 0.92824 0.7562 0.78151 0.0
H3014 H 0.03648 0.86004 0.77475 0.0
H3015 H 0.9481 0.77767 0.75394 0.0
H3016 H 0.07596 0.83757 0.72579 0.0
H3017 H 0.0551 0.83371 0.75349 0.0
H3018 H 0.96507 0.82623 0.73413 0.0
H3019 H 0.98628 0.83069 0.70616 0.0
C3020 C 1.00155 0.82515 0.79187 0.0
C3021 C 0.97146 0.79528 0.79398 0.0
C3022 C 0.01262 0.83762 0.77616 0.0
C3023 C 0.99377 0.82042 0.76234 0.0
C3024 C 0.96284 0.79156 0.76447 0.0
C3025 C 0.95174 0.77905 0.7802 0.0
C3026 C 0.05194 0.83567 0.72737 0.0
C3027 C 0.03216 0.83319 0.71378 0.0
C3028 C 0.04017 0.8338 0.74326 0.0
C3029 C 0.0084 0.82936 0.74583 0.0
C3030 C 0.98951 0.82922 0.73234 0.0
C3031 C 1.00149 0.83145 0.71638 0.0
H3032 H 0.22169 0.19717 0.70683 0.0
H3033 H 0.14197 0.21468 0.72036 0.0
H3034 H 0.22399 0.18038 0.73496 0.0
H3035 H 0.14217 0.1954 0.7482 0.0
H3036 H 0.19022 0.21339 0.79928 0.0
H3037 H 0.17591 0.21752 0.77098 0.0
H3038 H 0.20081 0.14289 0.75649 0.0
H3039 H 0.21746 0.14083 0.78473 0.0
C3040 C 0.20423 0.19669 0.71582 0.0
C3041 C 0.18223 0.20783 0.71174 0.0
C3042 C 0.20518 0.1867 0.73188 0.0
C3043 C 0.18342 0.18682 0.74391 0.0
C3044 C 0.15991 0.19593 0.73938 0.0
C3045 C 0.15969 0.20687 0.72347 0.0
C3046 C 0.19218 0.19764 0.79002 0.0
C3047 C 0.20541 0.17729 0.79394 0.0
C3048 C 0.18372 0.19971 0.77382 0.0
C3049 C 0.18755 0.18076 0.76139 0.0
C3050 C 0.19847 0.15851 0.76567 0.0
C3051 C 0.20781 0.15716 0.7818 0.0
H3052 H 0.82794 0.9897 0.8023 0.0
H3053 H 0.83815 0.08076 0.78245 0.0
H3054 H 0.82734 0.96994 0.7744 0.0
H3055 H 0.83683 0.06071 0.75472 0.0
H3056 H 0.83866 0.02007 0.70574 0.0
H3057 H 0.86101 0.04141 0.73311 0.0
H3058 H 0.78058 0.95294 0.75502 0.0
H3059 H 0.75862 0.93148 0.72792 0.0
C3060 C 0.83044 0.00561 0.792 0.0
C3061 C 0.83209 0.03629 0.79444 0.0
C3062 C 0.8303 0.9944 0.7761 0.0
C3063 C 0.83166 0.01369 0.76251 0.0
C3064 C 0.83603 0.04549 0.76501 0.0
C3065 C 0.83629 0.05674 0.78088 0.0
C3066 C 0.82601 0.00512 0.71643 0.0
C3067 C 0.79656 0.97448 0.7148 0.0
C3068 C 0.8389 0.01722 0.73201 0.0
C3069 C 0.82253 0.99873 0.74607 0.0
C3070 C 0.79402 0.96742 0.74435 0.0
C3071 C 0.78114 0.95538 0.72884 0.0
H3072 H 0.63144 0.53131 0.62628 0.0
H3073 H 0.5807 0.42989 0.6093 0.0
H3074 H 0.67136 0.54678 0.60439 0.0
H3075 H 0.61989 0.44596 0.58604 0.0
H3076 H 0.71053 0.48367 0.54989 0.0
H3077 H 0.67192 0.46311 0.57344 0.0
H3078 H 0.68049 0.55975 0.57789 0.0
H3079 H 0.71978 0.58018 0.5558 0.0
C3080 C 0.62827 0.51227 0.61756 0.0
C3081 C 0.60213 0.4794 0.61952 0.0
C3082 C 0.65134 0.52128 0.60472 0.0
C3083 C 0.64893 0.49813 0.59273 0.0
C3084 C 0.62303 0.46484 0.59483 0.0
C3085 C 0.60021 0.45554 0.60814 0.0
C3086 C 0.70464 0.5006 0.5562 0.0
C3087 C 0.71922 0.53395 0.55095 0.0
C3088 C 0.68204 0.4887 0.56967 0.0
C3089 C 0.67292 0.50964 0.57815 0.0
C3090 C 0.68727 0.54268 0.57251 0.0
C3091 C 0.71006 0.55457 0.55949 0.0
H3092 H 0.4804 0.08688 0.61988 0.0
H3093 H 0.5631 0.18438 0.63016 0.0
H3094 H 0.46384 0.1088 0.59728 0.0
H3095 H 0.54723 0.20666 0.60648 0.0
H3096 H 0.48736 0.23931 0.57068 0.0
H3097 H 0.50994 0.22231 0.5939 0.0
H3098 H 0.47381 0.12648 0.57089 0.0
H3099 H 0.4502 0.14266 0.54879 0.0
C3100 C 0.49572 0.11307 0.61712 0.0
C3101 C 0.52354 0.13352 0.62698 0.0
C3102 C 0.4862 0.12585 0.60386 0.0
C3103 C 0.50426 0.15976 0.59949 0.0
C3104 C 0.53236 0.18047 0.60928 0.0
C3105 C 0.5418 0.16757 0.62282 0.0
C3106 C 0.48434 0.21466 0.57068 0.0
C3107 C 0.46622 0.19219 0.55793 0.0
C3108 C 0.49742 0.20482 0.584 0.0
C3109 C 0.49319 0.17241 0.58481 0.0
C3110 C 0.47667 0.15103 0.57145 0.0
C3111 C 0.4632 0.16051 0.55851 0.0
H3112 H 0.84314 0.41935 0.61086 0.0
H3113 H 0.88269 0.36164 0.63224 0.0
H3114 H 0.82102 0.3799 0.58755 0.0
H3115 H 0.85906 0.32155 0.61021 0.0
H3116 H 0.85297 0.27552 0.56147 0.0
H3117 H 0.86863 0.31359 0.58407 0.0
H3118 H 0.78525 0.32774 0.57423 0.0
H3119 H 0.77044 0.29007 0.55032 0.0
C3120 C 0.8467 0.39805 0.61073 0.0
C3121 C 0.86529 0.39411 0.62336 0.0
C3122 C 0.83387 0.37518 0.59736 0.0
C3123 C 0.83875 0.34743 0.59641 0.0
C3124 C 0.85571 0.34294 0.60971 0.0
C3125 C 0.86909 0.36596 0.62264 0.0
C3126 C 0.83742 0.28622 0.56404 0.0
C3127 C 0.80997 0.2789 0.5539 0.0
C3128 C 0.84641 0.30828 0.57736 0.0
C3129 C 0.82809 0.32389 0.58162 0.0
C3130 C 0.8003 0.31656 0.57156 0.0
C3131 C 0.79145 0.29451 0.55788 0.0
H3132 H 0.65925 0.17233 0.04455 0.0
H3133 H 0.741 0.16343 0.06409 0.0
H3134 H 0.64132 0.17444 0.0726 0.0
H3135 H 0.72314 0.16538 0.09179 0.0
H3136 H 0.59578 0.10889 0.12035 0.0
H3137 H 0.61674 0.12894 0.09291 0.0
H3138 H 0.71348 0.19653 0.11321 0.0
H3139 H 0.69278 0.17549 0.14075 0.0
C3140 C 0.67338 0.17092 0.05478 0.0
C3141 C 0.70085 0.16667 0.05216 0.0
C3142 C 0.66335 0.17248 0.07078 0.0
C3143 C 0.68082 0.16999 0.0843 0.0
C3144 C 0.70948 0.16787 0.08161 0.0
C3145 C 0.71942 0.16627 0.0657 0.0
C3146 C 0.62143 0.1283 0.119 0.0
C3147 C 0.64289 0.14017 0.13261 0.0
C3148 C 0.63327 0.14019 0.1033 0.0
C3149 C 0.66675 0.16415 0.10098 0.0
C3150 C 0.6876 0.17781 0.11473 0.0
C3151 C 0.67577 0.1658 0.13045 0.0
H3152 H 0.87877 0.56939 0.14003 0.0
H3153 H 0.89728 0.49198 0.12323 0.0
H3154 H 0.86516 0.57706 0.11197 0.0
H3155 H 0.88119 0.49752 0.09544 0.0
H3156 H 0.89452 0.5449 0.0456 0.0
H3157 H 0.90365 0.53439 0.07379 0.0
H3158 H 0.82738 0.55537 0.09023 0.0
H3159 H 0.82016 0.56829 0.06192 0.0
C3160 C 0.8794 0.55375 0.13029 0.0
C3161 C 0.88954 0.53058 0.1335 0.0
C3162 C 0.8713 0.55782 0.11429 0.0
C3163 C 0.87235 0.53807 0.10143 0.0
C3164 C 0.88109 0.51382 0.10495 0.0
C3165 C 0.89016 0.5105 0.12082 0.0
C3166 C 0.87969 0.54712 0.05528 0.0
C3167 C 0.85677 0.55743 0.05177 0.0
C3168 C 0.88466 0.54083 0.07142 0.0
C3169 C 0.86608 0.54383 0.08428 0.0
C3170 C 0.8425 0.55341 0.08064 0.0
C3171 C 0.83819 0.5606 0.06449 0.0
H3172 H 0.50561 0.41157 0.12069 0.0
H3173 H 0.47804 0.31518 0.14107 0.0
H3174 H 0.50139 0.38983 0.09313 0.0
H3175 H 0.47504 0.29368 0.11333 0.0
H3176 H 0.41675 0.26284 0.06371 0.0
H3177 H 0.43435 0.28211 0.09165 0.0
H3178 H 0.52348 0.36703 0.073 0.0
H3179 H 0.50541 0.34817 0.04487 0.0
C3180 C 0.49918 0.38585 0.11929 0.0
C3181 C 0.49169 0.36489 0.13299 0.0
C3182 C 0.49723 0.37354 0.1035 0.0
C3183 C 0.48787 0.34009 0.10114 0.0
C3184 C 0.48204 0.31952 0.11487 0.0
C3185 C 0.48386 0.33183 0.13071 0.0
C3186 C 0.44025 0.28547 0.06556 0.0
C3187 C 0.45943 0.30441 0.05217 0.0
C3188 C 0.45052 0.29627 0.08157 0.0
C3189 C 0.48023 0.32607 0.08443 0.0
C3190 C 0.50027 0.34415 0.07106 0.0
C3191 C 0.48989 0.33343 0.05501 0.0
H3192 H 0.41305 0.91876 0.90506 0.0
H3193 H 0.3844 0.82059 0.88728 0.0
H3194 H 0.37105 0.89506 0.92642 0.0
H3195 H 0.34159 0.79649 0.90897 0.0
H3196 H 0.28402 0.76988 0.9613 0.0
H3197 H 0.32694 0.78742 0.93971 0.0
H3198 H 0.31138 0.86872 0.9271 0.0
H3199 H 0.26928 0.85156 0.94832 0.0
C3200 C 0.39811 0.89195 0.90581 0.0
C3201 C 0.40252 0.87182 0.89425 0.0
C3202 C 0.37354 0.87825 0.91808 0.0
C3203 C 0.35202 0.84368 0.91941 0.0
C3204 C 0.35746 0.8232 0.90844 0.0
C3205 C 0.38224 0.83706 0.896 0.0
C3206 C 0.28933 0.79111 0.95369 0.0
C3207 C 0.27287 0.8092 0.95675 0.0
C3208 C 0.31415 0.80131 0.9413 0.0
C3209 C 0.32349 0.83007 0.93171 0.0
C3210 C 0.30585 0.84703 0.93437 0.0
C3211 C 0.28121 0.83687 0.94657 0.0
H3212 H 0.15619 0.4179 0.94466 0.0
H3213 H 0.23834 0.51476 0.9566 0.0
H3214 H 0.13942 0.4418 0.92276 0.0
H3215 H 0.22122 0.53909 0.93427 0.0
H3216 H 0.18806 0.55985 0.88086 0.0
H3217 H 0.21207 0.54218 0.90306 0.0
H3218 H 0.11363 0.47597 0.92152 0.0
H3219 H 0.09 0.49328 0.89968 0.0
C3220 C 0.17107 0.44439 0.94254 0.0
C3221 C 0.19874 0.46419 0.95265 0.0
C3222 C 0.16115 0.45827 0.92994 0.0
C3223 C 0.17836 0.49267 0.92677 0.0
C3224 C 0.20715 0.51252 0.93627 0.0
C3225 C 0.2171 0.49851 0.94908 0.0
C3226 C 0.17161 0.54207 0.88988 0.0
C3227 C 0.13689 0.5281 0.88829 0.0
C3228 C 0.18542 0.53178 0.90262 0.0
C3229 C 0.16491 0.50699 0.91406 0.0
C3230 C 0.13042 0.49442 0.91284 0.0
C3231 C 0.11677 0.5047 0.90028 0.0
H3232 H 0.4384 0.62 0.88288 0.0
H3233 H 0.51915 0.60337 0.89523 0.0
H3234 H 0.45417 0.65942 0.90608 0.0
H3235 H 0.5347 0.64227 0.91795 0.0
H3236 H 0.58237 0.74178 0.94316 0.0
H3237 H 0.56037 0.7027 0.92044 0.0
H3238 H 0.46077 0.66745 0.93797 0.0
H3239 H 0.48309 0.70706 0.96116 0.0
C3240 C 0.45912 0.62421 0.89062 0.0
C3241 C 0.47737 0.60817 0.88695 0.0
C3242 C 0.46825 0.64697 0.90396 0.0
C3243 C 0.4962 0.65475 0.9139 0.0
C3244 C 0.51351 0.63774 0.91051 0.0
C3245 C 0.5043 0.61499 0.89742 0.0
C3246 C 0.55568 0.72614 0.94221 0.0
C3247 C 0.53473 0.72797 0.95424 0.0
C3248 C 0.54298 0.7033 0.92912 0.0
C3249 C 0.50866 0.68117 0.92732 0.0
C3250 C 0.48733 0.68394 0.93884 0.0
C3251 C 0.50017 0.70684 0.95216 0.0
H3252 H 0.36074 0.47508 0.47034 0.0
H3253 H 0.26831 0.39052 0.45421 0.0
H3254 H 0.3813 0.48399 0.44208 0.0
H3255 H 0.28913 0.39932 0.42611 0.0
H3256 H 0.32011 0.45685 0.37745 0.0
H3257 H 0.30188 0.44486 0.40592 0.0
H3258 H 0.39654 0.45582 0.41983 0.0
H3259 H 0.41518 0.46827 0.39126 0.0
C3260 C 0.345 0.45824 0.4608 0.0
C3261 C 0.31285 0.43232 0.46438 0.0
C3262 C 0.35682 0.46324 0.44471 0.0
C3263 C 0.33662 0.4424 0.43205 0.0
C3264 C 0.3049 0.41592 0.43571 0.0
C3265 C 0.29308 0.4109 0.45176 0.0
C3266 C 0.33703 0.45663 0.38655 0.0
C3267 C 0.36902 0.46343 0.38219 0.0
C3268 C 0.32652 0.44958 0.40279 0.0
C3269 C 0.34782 0.44927 0.41491 0.0
C3270 C 0.37983 0.45612 0.41062 0.0
C3271 C 0.39037 0.4631 0.39432 0.0
H3272 H 0.52215 0.92791 0.39246 0.0
H3273 H 0.53483 0.84558 0.37742 0.0
H3274 H 0.53015 0.91802 0.42103 0.0
H3275 H 0.54184 0.83514 0.40611 0.0
H3276 H 0.51567 0.87093 0.47155 0.0
H3277 H 0.50303 0.87652 0.44301 0.0
H3278 H 0.58549 0.86535 0.42683 0.0
H3279 H 0.59759 0.8588 0.45523 0.0
C3280 C 0.52632 0.90751 0.39527 0.0
C3281 C 0.52804 0.88757 0.38275 0.0
C3282 C 0.53063 0.90172 0.41162 0.0
C3283 C 0.5366 0.87587 0.41567 0.0
C3284 C 0.53762 0.85547 0.40321 0.0
C3285 C 0.53343 0.86133 0.38683 0.0
C3286 C 0.53096 0.86952 0.46189 0.0
C3287 C 0.55753 0.86437 0.46556 0.0
C3288 C 0.52382 0.87283 0.44561 0.0
C3289 C 0.54324 0.87119 0.43282 0.0
C3290 C 0.56983 0.86613 0.4365 0.0
C3291 C 0.5769 0.86269 0.45275 0.0
H3292 H 0.10582 0.64143 0.46617 0.0
H3293 H 0.17692 0.74246 0.45277 0.0
H3294 H 0.09835 0.62556 0.43731 0.0
H3295 H 0.17158 0.72632 0.42389 0.0
H3296 H 0.12346 0.69413 0.37315 0.0
H3297 H 0.13467 0.71165 0.40191 0.0
H3298 H 0.1232 0.61606 0.41495 0.0
H3299 H 0.1094 0.59807 0.38653 0.0
C3300 C 0.12026 0.66002 0.45698 0.0
C3301 C 0.1417 0.69306 0.46147 0.0
C3302 C 0.11627 0.65098 0.44048 0.0
C3303 C 0.13447 0.67469 0.42828 0.0
C3304 C 0.15668 0.70764 0.43293 0.0
C3305 C 0.15993 0.71685 0.44942 0.0
C3306 C 0.12334 0.67709 0.38229 0.0
C3307 C 0.11507 0.64475 0.37795 0.0
C3308 C 0.13003 0.68709 0.39869 0.0
C3309 C 0.12949 0.66509 0.41076 0.0
C3310 C 0.12278 0.63323 0.40608 0.0
C3311 C 0.11508 0.62297 0.38984 0.0
loop_
_geom_bond_atom_site_label_1
_geom_bond_atom_site_label_2
_geom_bond_distance
_geom_bond_site_symmetry_2
_ccdc_geom_bond_type
Zn0 O1 2.055 . S
Zn0 O8 2.046 . S
Zn0 N16 2.036 . S
Zn0 O28 2.053 . S
Zn0 O30 2.066 . S
O1 Zn0 2.055 . S
O1 C4 1.259 . S
C2 O30 1.256 . S
C2 O31 1.244 . S
Zn3 O5 2.046 . S
Zn3 O7 2.055 . S
Zn3 N9 2.036 . S
Zn3 O27 2.066 . S
Zn3 O31 2.053 . S
C4 O1 1.259 . S
C4 O5 1.254 . S
O5 Zn3 2.046 . S
O5 C4 1.254 . S
C6 O27 1.256 . S
C6 O28 1.244 . S
O7 Zn3 2.055 . S
O7 C29 1.259 . S
O8 Zn0 2.046 . S
O8 C29 1.254 . S
N9 Zn3 2.036 . S
N9 C10 1.298 . S
N9 N12 1.398 . S
C10 N9 1.298 . S
C10 N13 1.367 . S
C10 C23 1.481 . S
C11 N12 1.299 . S
C11 N13 1.379 . S
N12 N9 1.398 . S
N12 C11 1.299 . S
N13 C10 1.367 . S
N13 C11 1.379 . S
C14 N16 1.298 . S
C14 N18 1.367 . S
C14 C22 1.481 . S
C15 N17 1.299 . S
C15 N18 1.379 . S
N16 Zn0 2.036 . S
N16 C14 1.298 . S
N16 N17 1.398 . S
N17 C15 1.299 . S
N17 N16 1.398 . S
N18 C14 1.367 . S
N18 C15 1.379 . S
H19 C22 0.980 . S
H20 C22 0.981 . S
H21 C22 0.981 . S
C22 C14 1.481 . S
C22 H19 0.980 . S
C22 H20 0.981 . S
C22 H21 0.981 . S
C23 C10 1.481 . S
C23 H24 0.980 . S
C23 H25 0.981 . S
C23 H26 0.981 . S
H24 C23 0.980 . S
H25 C23 0.981 . S
H26 C23 0.981 . S
O27 Zn3 2.066 . S
O27 C6 1.256 . S
O28 Zn0 2.053 . S
O28 C6 1.244 . S
C29 O7 1.259 . S
C29 O8 1.254 . S
O30 Zn0 2.066 . S
O30 C2 1.256 . S
O31 C2 1.244 . S
O31 Zn3 2.053 . S
Zn32 O33 2.055 . S
Zn32 O40 2.046 . S
Zn32 N48 2.036 . S
Zn32 O60 2.053 . S
Zn32 O62 2.066 . S
O33 Zn32 2.055 . S
O33 C36 1.259 . S
C34 O62 1.256 . S
C34 O63 1.244 . S
Zn35 O37 2.046 . S
Zn35 O39 2.055 . S
Zn35 N41 2.036 . S
Zn35 O59 2.066 . S
Zn35 O63 2.053 . S
C36 O33 1.259 . S
C36 O37 1.254 . S
O37 Zn35 2.046 . S
O37 C36 1.254 . S
C38 O59 1.256 . S
C38 O60 1.244 . S
O39 Zn35 2.055 . S
O39 C61 1.259 . S
O40 Zn32 2.046 . S
O40 C61 1.254 . S
N41 Zn35 2.036 . S
N41 C42 1.298 . S
N41 N44 1.398 . S
C42 N41 1.298 . S
C42 N45 1.367 . S
C42 C55 1.481 . S
C43 N44 1.299 . S
C43 N45 1.379 . S
N44 N41 1.398 . S
N44 C43 1.299 . S
N45 C42 1.367 . S
N45 C43 1.379 . S
C46 N48 1.298 . S
C46 N50 1.367 1_565 S
C46 C54 1.481 . S
C47 N49 1.299 1_545 S
C47 N50 1.379 . S
N48 Zn32 2.036 . S
N48 C46 1.298 . S
N48 N49 1.398 . S
N49 C47 1.299 1_565 S
N49 N48 1.398 . S
N50 C46 1.367 1_545 S
N50 C47 1.379 . S
H51 C54 0.980 . S
H52 C54 0.981 . S
H53 C54 0.981 . S
C54 C46 1.481 . S
C54 H51 0.980 . S
C54 H52 0.981 . S
C54 H53 0.981 . S
C55 C42 1.481 . S
C55 H56 0.980 . S
C55 H57 0.981 . S
C55 H58 0.981 . S
H56 C55 0.980 . S
H57 C55 0.981 . S
H58 C55 0.981 . S
O59 Zn35 2.066 . S
O59 C38 1.256 . S
O60 Zn32 2.053 . S
O60 C38 1.244 . S
C61 O39 1.259 . S
C61 O40 1.254 . S
O62 Zn32 2.066 . S
O62 C34 1.256 . S
O63 C34 1.244 . S
O63 Zn35 2.053 . S
Zn64 O65 2.055 . S
Zn64 O72 2.046 . S
Zn64 N80 2.036 . S
Zn64 O92 2.053 . S
Zn64 O94 2.066 . S
O65 Zn64 2.055 . S
O65 C68 1.259 . S
C66 O94 1.256 . S
C66 O95 1.244 . S
Zn67 O69 2.046 . S
Zn67 O71 2.055 . S
Zn67 N73 2.036 . S
Zn67 O91 2.066 . S
Zn67 O95 2.053 . S
C68 O65 1.259 . S
C68 O69 1.254 . S
O69 Zn67 2.046 . S
O69 C68 1.254 . S
C70 O91 1.256 . S
C70 O92 1.244 . S
O71 Zn67 2.055 . S
O71 C93 1.259 . S
O72 Zn64 2.046 . S
O72 C93 1.254 . S
N73 Zn67 2.036 . S
N73 C74 1.298 . S
N73 N76 1.398 . S
C74 N73 1.298 . S
C74 N77 1.367 . S
C74 C87 1.481 . S
C75 N76 1.299 . S
C75 N77 1.379 . S
N76 N73 1.398 . S
N76 C75 1.299 . S
N77 C74 1.367 . S
N77 C75 1.379 . S
C78 N80 1.298 . S
C78 N82 1.367 1_455 S
C78 C86 1.481 . S
C79 N81 1.299 1_655 S
C79 N82 1.379 . S
N80 Zn64 2.036 . S
N80 C78 1.298 . S
N80 N81 1.398 . S
N81 C79 1.299 1_455 S
N81 N80 1.398 . S
N82 C78 1.367 1_655 S
N82 C79 1.379 . S
H83 C86 0.980 . S
H84 C86 0.981 . S
H85 C86 0.981 . S
C86 C78 1.481 . S
C86 H83 0.980 . S
C86 H84 0.981 . S
C86 H85 0.981 . S
C87 C74 1.481 . S
C87 H88 0.980 . S
C87 H89 0.981 . S
C87 H90 0.981 . S
H88 C87 0.980 . S
H89 C87 0.981 . S
H90 C87 0.981 . S
O91 Zn67 2.066 . S
O91 C70 1.256 . S
O92 Zn64 2.053 . S
O92 C70 1.244 . S
C93 O71 1.259 . S
C93 O72 1.254 . S
O94 Zn64 2.066 . S
O94 C66 1.256 . S
O95 C66 1.244 . S
O95 Zn67 2.053 . S
Zn96 O97 2.055 . S
Zn96 O104 2.046 . S
Zn96 N112 2.036 . S
Zn96 O124 2.053 . S
Zn96 O126 2.066 . S
O97 Zn96 2.055 . S
O97 C100 1.259 . S
C98 O126 1.256 . S
C98 O127 1.244 . S
Zn99 O101 2.046 . S
Zn99 O103 2.055 . S
Zn99 N105 2.036 . S
Zn99 O123 2.066 . S
Zn99 O127 2.053 . S
C100 O97 1.259 . S
C100 O101 1.254 . S
O101 Zn99 2.046 . S
O101 C100 1.254 . S
C102 O123 1.256 . S
C102 O124 1.244 . S
O103 Zn99 2.055 . S
O103 C125 1.259 . S
O104 Zn96 2.046 . S
O104 C125 1.254 . S
N105 Zn99 2.036 . S
N105 C106 1.298 . S
N105 N108 1.398 . S
C106 N105 1.298 . S
C106 N109 1.367 . S
C106 C119 1.481 . S
C107 N108 1.299 . S
C107 N109 1.379 . S
N108 N105 1.398 . S
N108 C107 1.299 . S
N109 C106 1.367 . S
N109 C107 1.379 . S
C110 N112 1.298 . S
C110 N114 1.367 . S
C110 C118 1.481 . S
C111 N113 1.299 . S
C111 N114 1.379 . S
N112 Zn96 2.036 . S
N112 C110 1.298 . S
N112 N113 1.398 . S
N113 C111 1.299 . S
N113 N112 1.398 . S
N114 C110 1.367 . S
N114 C111 1.379 . S
H115 C118 0.980 . S
H116 C118 0.981 . S
H117 C118 0.981 . S
C118 C110 1.481 . S
C118 H115 0.980 . S
C118 H116 0.981 . S
C118 H117 0.981 . S
C119 C106 1.481 . S
C119 H120 0.980 . S
C119 H121 0.981 . S
C119 H122 0.981 . S
H120 C119 0.980 . S
H121 C119 0.981 . S
H122 C119 0.981 . S
O123 Zn99 2.066 . S
O123 C102 1.256 . S
O124 Zn96 2.053 . S
O124 C102 1.244 . S
C125 O103 1.259 . S
C125 O104 1.254 . S
O126 Zn96 2.066 . S
O126 C98 1.256 . S
O127 C98 1.244 . S
O127 Zn99 2.053 . S
Zn128 O129 2.055 . S
Zn128 O136 2.046 . S
Zn128 N144 2.036 . S
Zn128 O156 2.053 . S
Zn128 O158 2.066 . S
O129 Zn128 2.055 . S
O129 C132 1.259 . S
C130 O158 1.256 . S
C130 O159 1.244 . S
Zn131 O133 2.046 . S
Zn131 O135 2.055 . S
Zn131 N137 2.036 . S
Zn131 O155 2.066 . S
Zn131 O159 2.053 . S
C132 O129 1.259 . S
C132 O133 1.254 . S
O133 Zn131 2.046 . S
O133 C132 1.254 . S
C134 O155 1.256 . S
C134 O156 1.244 . S
O135 Zn131 2.055 . S
O135 C157 1.259 . S
O136 Zn128 2.046 . S
O136 C157 1.254 . S
N137 Zn131 2.036 . S
N137 C138 1.298 . S
N137 N140 1.398 . S
C138 N137 1.298 . S
C138 N141 1.367 1_545 S
C138 C151 1.481 . S
C139 N140 1.299 1_565 S
C139 N141 1.379 . S
N140 N137 1.398 . S
N140 C139 1.299 1_545 S
N141 C138 1.367 1_565 S
N141 C139 1.379 . S
C142 N144 1.298 . S
C142 N146 1.367 . S
C142 C150 1.481 . S
C143 N145 1.299 . S
C143 N146 1.379 . S
N144 Zn128 2.036 . S
N144 C142 1.298 . S
N144 N145 1.398 . S
N145 C143 1.299 . S
N145 N144 1.398 . S
N146 C142 1.367 . S
N146 C143 1.379 . S
H147 C150 0.980 . S
H148 C150 0.981 . S
H149 C150 0.981 . S
C150 C142 1.481 . S
C150 H147 0.980 . S
C150 H148 0.981 . S
C150 H149 0.981 . S
C151 C138 1.481 . S
C151 H152 0.980 . S
C151 H153 0.981 . S
C151 H154 0.981 . S
H152 C151 0.980 . S
H153 C151 0.981 . S
H154 C151 0.981 . S
O155 Zn131 2.066 . S
O155 C134 1.256 . S
O156 Zn128 2.053 . S
O156 C134 1.244 . S
C157 O135 1.259 . S
C157 O136 1.254 . S
O158 Zn128 2.066 . S
O158 C130 1.256 . S
O159 C130 1.244 . S
O159 Zn131 2.053 . S
Zn160 O161 2.055 . S
Zn160 O168 2.046 . S
Zn160 N176 2.036 . S
Zn160 O188 2.053 . S
Zn160 O190 2.066 . S
O161 Zn160 2.055 . S
O161 C164 1.259 . S
C162 O190 1.256 . S
C162 O191 1.244 . S
Zn163 O165 2.046 . S
Zn163 O167 2.055 . S
Zn163 N169 2.036 . S
Zn163 O187 2.066 . S
Zn163 O191 2.053 . S
C164 O161 1.259 . S
C164 O165 1.254 . S
O165 Zn163 2.046 . S
O165 C164 1.254 . S
C166 O187 1.256 . S
C166 O188 1.244 . S
O167 Zn163 2.055 . S
O167 C189 1.259 . S
O168 Zn160 2.046 . S
O168 C189 1.254 . S
N169 Zn163 2.036 . S
N169 C170 1.298 . S
N169 N172 1.398 . S
C170 N169 1.298 . S
C170 N173 1.367 1_655 S
C170 C183 1.481 . S
C171 N172 1.299 1_455 S
C171 N173 1.379 . S
N172 N169 1.398 . S
N172 C171 1.299 1_655 S
N173 C170 1.367 1_455 S
N173 C171 1.379 . S
C174 N176 1.298 . S
C174 N178 1.367 . S
C174 C182 1.481 . S
C175 N177 1.299 . S
C175 N178 1.379 . S
N176 Zn160 2.036 . S
N176 C174 1.298 . S
N176 N177 1.398 . S
N177 C175 1.299 . S
N177 N176 1.398 . S
N178 C174 1.367 . S
N178 C175 1.379 . S
H179 C182 0.980 . S
H180 C182 0.981 . S
H181 C182 0.981 . S
C182 C174 1.481 . S
C182 H179 0.980 . S
C182 H180 0.981 . S
C182 H181 0.981 . S
C183 C170 1.481 . S
C183 H184 0.980 . S
C183 H185 0.981 . S
C183 H186 0.981 . S
H184 C183 0.980 . S
H185 C183 0.981 . S
H186 C183 0.981 . S
O187 Zn163 2.066 . S
O187 C166 1.256 . S
O188 Zn160 2.053 . S
O188 C166 1.244 . S
C189 O167 1.259 . S
C189 O168 1.254 . S
O190 Zn160 2.066 . S
O190 C162 1.256 . S
O191 C162 1.244 . S
O191 Zn163 2.053 . S
Zn192 O193 2.055 . S
Zn192 O200 2.046 . S
Zn192 N208 2.036 . S
Zn192 O220 2.053 . S
Zn192 O222 2.066 . S
O193 Zn192 2.055 . S
O193 C196 1.259 . S
C194 O222 1.256 . S
C194 O223 1.244 . S
Zn195 O197 2.046 . S
Zn195 O199 2.055 . S
Zn195 N201 2.036 1_655 S
Zn195 O219 2.066 . S
Zn195 O223 2.053 . S
C196 O193 1.259 . S
C196 O197 1.254 . S
O197 Zn195 2.046 . S
O197 C196 1.254 . S
C198 O219 1.256 . S
C198 O220 1.244 . S
O199 Zn195 2.055 . S
O199 C221 1.259 . S
O200 Zn192 2.046 . S
O200 C221 1.254 . S
N201 Zn195 2.036 1_455 S
N201 C202 1.298 . S
N201 N204 1.398 . S
C202 N201 1.298 . S
C202 N205 1.367 . S
C202 C215 1.481 . S
C203 N204 1.299 . S
C203 N205 1.379 . S
N204 N201 1.398 . S
N204 C203 1.299 . S
N205 C202 1.367 . S
N205 C203 1.379 . S
C206 N208 1.298 . S
C206 N210 1.367 . S
C206 C214 1.481 . S
C207 N209 1.299 . S
C207 N210 1.379 . S
N208 Zn192 2.036 . S
N208 C206 1.298 . S
N208 N209 1.398 . S
N209 C207 1.299 . S
N209 N208 1.398 . S
N210 C206 1.367 . S
N210 C207 1.379 . S
H211 C214 0.980 . S
H212 C214 0.981 . S
H213 C214 0.981 . S
C214 C206 1.481 . S
C214 H211 0.980 . S
C214 H212 0.981 . S
C214 H213 0.981 . S
C215 C202 1.481 . S
C215 H216 0.980 . S
C215 H217 0.981 . S
C215 H218 0.981 . S
H216 C215 0.980 . S
H217 C215 0.981 . S
H218 C215 0.981 . S
O219 Zn195 2.066 . S
O219 C198 1.256 . S
O220 Zn192 2.053 . S
O220 C198 1.244 . S
C221 O199 1.259 . S
C221 O200 1.254 . S
O222 Zn192 2.066 . S
O222 C194 1.256 . S
O223 C194 1.244 . S
O223 Zn195 2.053 . S
Zn224 O225 2.055 . S
Zn224 O232 2.046 . S
Zn224 N240 2.036 . S
Zn224 O252 2.053 . S
Zn224 O254 2.066 . S
O225 Zn224 2.055 . S
O225 C228 1.259 . S
C226 O254 1.256 . S
C226 O255 1.244 . S
Zn227 O229 2.046 . S
Zn227 O231 2.055 . S
Zn227 N233 2.036 . S
Zn227 O251 2.066 . S
Zn227 O255 2.053 . S
C228 O225 1.259 . S
C228 O229 1.254 . S
O229 Zn227 2.046 . S
O229 C228 1.254 . S
C230 O251 1.256 . S
C230 O252 1.244 . S
O231 Zn227 2.055 . S
O231 C253 1.259 . S
O232 Zn224 2.046 . S
O232 C253 1.254 . S
N233 Zn227 2.036 . S
N233 C234 1.298 . S
N233 N236 1.398 . S
C234 N233 1.298 . S
C234 N237 1.367 . S
C234 C247 1.481 . S
C235 N236 1.299 . S
C235 N237 1.379 . S
N236 N233 1.398 . S
N236 C235 1.299 . S
N237 C234 1.367 . S
N237 C235 1.379 . S
C238 N240 1.298 . S
C238 N242 1.367 . S
C238 C246 1.481 . S
C239 N241 1.299 . S
C239 N242 1.379 . S
N240 Zn224 2.036 . S
N240 C238 1.298 . S
N240 N241 1.398 . S
N241 C239 1.299 . S
N241 N240 1.398 . S
N242 C238 1.367 . S
N242 C239 1.379 . S
H243 C246 0.980 . S
H244 C246 0.981 . S
H245 C246 0.981 . S
C246 C238 1.481 . S
C246 H243 0.980 . S
C246 H244 0.981 . S
C246 H245 0.981 . S
C247 C234 1.481 . S
C247 H248 0.980 . S
C247 H249 0.981 . S
C247 H250 0.981 . S
H248 C247 0.980 . S
H249 C247 0.981 . S
H250 C247 0.981 . S
O251 Zn227 2.066 . S
O251 C230 1.256 . S
O252 Zn224 2.053 . S
O252 C230 1.244 . S
C253 O231 1.259 . S
C253 O232 1.254 . S
O254 Zn224 2.066 . S
O254 C226 1.256 . S
O255 C226 1.244 . S
O255 Zn227 2.053 . S
Zn256 O257 2.055 . S
Zn256 O264 2.046 . S
Zn256 N272 2.036 1_545 S
Zn256 O284 2.053 . S
Zn256 O286 2.066 . S
O257 Zn256 2.055 . S
O257 C260 1.259 . S
C258 O286 1.256 . S
C258 O287 1.244 . S
Zn259 O261 2.046 . S
Zn259 O263 2.055 . S
Zn259 N265 2.036 . S
Zn259 O283 2.066 . S
Zn259 O287 2.053 . S
C260 O257 1.259 . S
C260 O261 1.254 . S
O261 Zn259 2.046 . S
O261 C260 1.254 . S
C262 O283 1.256 . S
C262 O284 1.244 . S
O263 Zn259 2.055 . S
O263 C285 1.259 . S
O264 Zn256 2.046 . S
O264 C285 1.254 . S
N265 Zn259 2.036 . S
N265 C266 1.298 . S
N265 N268 1.398 . S
C266 N265 1.298 . S
C266 N269 1.367 . S
C266 C279 1.481 . S
C267 N268 1.299 . S
C267 N269 1.379 . S
N268 N265 1.398 . S
N268 C267 1.299 . S
N269 C266 1.367 . S
N269 C267 1.379 . S
C270 N272 1.298 . S
C270 N274 1.367 . S
C270 C278 1.481 . S
C271 N273 1.299 . S
C271 N274 1.379 . S
N272 Zn256 2.036 1_565 S
N272 C270 1.298 . S
N272 N273 1.398 . S
N273 C271 1.299 . S
N273 N272 1.398 . S
N274 C270 1.367 . S
N274 C271 1.379 . S
H275 C278 0.980 . S
H276 C278 0.981 . S
H277 C278 0.981 . S
C278 C270 1.481 . S
C278 H275 0.980 . S
C278 H276 0.981 . S
C278 H277 0.981 . S
C279 C266 1.481 . S
C279 H280 0.980 . S
C279 H281 0.981 . S
C279 H282 0.981 . S
H280 C279 0.980 . S
H281 C279 0.981 . S
H282 C279 0.981 . S
O283 Zn259 2.066 . S
O283 C262 1.256 . S
O284 Zn256 2.053 . S
O284 C262 1.244 . S
C285 O263 1.259 . S
C285 O264 1.254 . S
O286 Zn256 2.066 . S
O286 C258 1.256 . S
O287 C258 1.244 . S
O287 Zn259 2.053 . S
Zn288 O289 2.055 . S
Zn288 O296 2.046 . S
Zn288 N304 2.036 . S
Zn288 O316 2.053 . S
Zn288 O318 2.066 . S
O289 Zn288 2.055 . S
O289 C292 1.259 . S
C290 O318 1.256 . S
C290 O319 1.244 . S
Zn291 O293 2.046 . S
Zn291 O295 2.055 . S
Zn291 N297 2.036 1_565 S
Zn291 O315 2.066 . S
Zn291 O319 2.053 . S
C292 O289 1.259 . S
C292 O293 1.254 . S
O293 Zn291 2.046 . S
O293 C292 1.254 . S
C294 O315 1.256 . S
C294 O316 1.244 . S
O295 Zn291 2.055 . S
O295 C317 1.259 . S
O296 Zn288 2.046 . S
O296 C317 1.254 . S
N297 Zn291 2.036 1_545 S
N297 C298 1.298 . S
N297 N300 1.398 . S
C298 N297 1.298 . S
C298 N301 1.367 . S
C298 C311 1.481 . S
C299 N300 1.299 . S
C299 N301 1.379 . S
N300 N297 1.398 . S
N300 C299 1.299 . S
N301 C298 1.367 . S
N301 C299 1.379 . S
C302 N304 1.298 . S
C302 N306 1.367 . S
C302 C310 1.481 . S
C303 N305 1.299 . S
C303 N306 1.379 . S
N304 Zn288 2.036 . S
N304 C302 1.298 . S
N304 N305 1.398 . S
N305 C303 1.299 . S
N305 N304 1.398 . S
N306 C302 1.367 . S
N306 C303 1.379 . S
H307 C310 0.980 . S
H308 C310 0.981 . S
H309 C310 0.981 . S
C310 C302 1.481 . S
C310 H307 0.980 . S
C310 H308 0.981 . S
C310 H309 0.981 . S
C311 C298 1.481 . S
C311 H312 0.980 . S
C311 H313 0.981 . S
C311 H314 0.981 . S
H312 C311 0.980 . S
H313 C311 0.981 . S
H314 C311 0.981 . S
O315 Zn291 2.066 . S
O315 C294 1.256 . S
O316 Zn288 2.053 . S
O316 C294 1.244 . S
C317 O295 1.259 . S
C317 O296 1.254 . S
O318 Zn288 2.066 . S
O318 C290 1.256 . S
O319 C290 1.244 . S
O319 Zn291 2.053 . S
Zn320 O321 2.055 . S
Zn320 O328 2.046 . S
Zn320 N336 2.036 . S
Zn320 O348 2.053 . S
Zn320 O350 2.066 . S
O321 Zn320 2.055 . S
O321 C324 1.259 . S
C322 O350 1.256 . S
C322 O351 1.244 . S
Zn323 O325 2.046 . S
Zn323 O327 2.055 . S
Zn323 N329 2.036 1_455 S
Zn323 O347 2.066 . S
Zn323 O351 2.053 . S
C324 O321 1.259 . S
C324 O325 1.254 . S
O325 Zn323 2.046 . S
O325 C324 1.254 . S
C326 O347 1.256 . S
C326 O348 1.244 . S
O327 Zn323 2.055 . S
O327 C349 1.259 . S
O328 Zn320 2.046 . S
O328 C349 1.254 . S
N329 Zn323 2.036 1_655 S
N329 C330 1.298 . S
N329 N332 1.398 . S
C330 N329 1.298 . S
C330 N333 1.367 . S
C330 C343 1.481 . S
C331 N332 1.299 . S
C331 N333 1.379 . S
N332 N329 1.398 . S
N332 C331 1.299 . S
N333 C330 1.367 . S
N333 C331 1.379 . S
C334 N336 1.298 . S
C334 N338 1.367 . S
C334 C342 1.481 . S
C335 N337 1.299 . S
C335 N338 1.379 . S
N336 Zn320 2.036 . S
N336 C334 1.298 . S
N336 N337 1.398 . S
N337 C335 1.299 . S
N337 N336 1.398 . S
N338 C334 1.367 . S
N338 C335 1.379 . S
H339 C342 0.980 . S
H340 C342 0.981 . S
H341 C342 0.981 . S
C342 C334 1.481 . S
C342 H339 0.980 . S
C342 H340 0.981 . S
C342 H341 0.981 . S
C343 C330 1.481 . S
C343 H344 0.980 . S
C343 H345 0.981 . S
C343 H346 0.981 . S
H344 C343 0.980 . S
H345 C343 0.981 . S
H346 C343 0.981 . S
O347 Zn323 2.066 . S
O347 C326 1.256 . S
O348 Zn320 2.053 . S
O348 C326 1.244 . S
C349 O327 1.259 . S
C349 O328 1.254 . S
O350 Zn320 2.066 . S
O350 C322 1.256 . S
O351 C322 1.244 . S
O351 Zn323 2.053 . S
Zn352 O353 2.055 . S
Zn352 O360 2.046 . S
Zn352 N368 2.036 . S
Zn352 O380 2.053 . S
Zn352 O382 2.066 . S
O353 Zn352 2.055 . S
O353 C356 1.259 . S
C354 O382 1.256 . S
C354 O383 1.244 . S
Zn355 O357 2.046 . S
Zn355 O359 2.055 . S
Zn355 N361 2.036 . S
Zn355 O379 2.066 . S
Zn355 O383 2.053 . S
C356 O353 1.259 . S
C356 O357 1.254 . S
O357 Zn355 2.046 . S
O357 C356 1.254 . S
C358 O379 1.256 . S
C358 O380 1.244 . S
O359 Zn355 2.055 . S
O359 C381 1.259 . S
O360 Zn352 2.046 . S
O360 C381 1.254 . S
N361 Zn355 2.036 . S
N361 C362 1.298 . S
N361 N364 1.398 . S
C362 N361 1.298 . S
C362 N365 1.367 . S
C362 C375 1.481 . S
C363 N364 1.299 . S
C363 N365 1.379 . S
N364 N361 1.398 . S
N364 C363 1.299 . S
N365 C362 1.367 . S
N365 C363 1.379 . S
C366 N368 1.298 . S
C366 N370 1.367 . S
C366 C374 1.481 . S
C367 N369 1.299 . S
C367 N370 1.379 . S
N368 Zn352 2.036 . S
N368 C366 1.298 . S
N368 N369 1.398 . S
N369 C367 1.299 . S
N369 N368 1.398 . S
N370 C366 1.367 . S
N370 C367 1.379 . S
H371 C374 0.980 . S
H372 C374 0.981 . S
H373 C374 0.981 . S
C374 C366 1.481 . S
C374 H371 0.980 . S
C374 H372 0.981 . S
C374 H373 0.981 . S
C375 C362 1.481 . S
C375 H376 0.980 . S
C375 H377 0.981 . S
C375 H378 0.981 . S
H376 C375 0.980 . S
H377 C375 0.981 . S
H378 C375 0.981 . S
O379 Zn355 2.066 . S
O379 C358 1.256 . S
O380 Zn352 2.053 . S
O380 C358 1.244 . S
C381 O359 1.259 . S
C381 O360 1.254 . S
O382 Zn352 2.066 . S
O382 C354 1.256 . S
O383 C354 1.244 . S
O383 Zn355 2.053 . S
Zn384 O385 2.055 . S
Zn384 O392 2.046 . S
Zn384 N400 2.036 . S
Zn384 O412 2.053 . S
Zn384 O414 2.066 . S
O385 Zn384 2.055 . S
O385 C388 1.259 . S
C386 O414 1.256 . S
C386 O415 1.244 . S
Zn387 O389 2.046 . S
Zn387 O391 2.055 . S
Zn387 N393 2.036 . S
Zn387 O411 2.066 . S
Zn387 O415 2.053 . S
C388 O385 1.259 . S
C388 O389 1.254 . S
O389 Zn387 2.046 . S
O389 C388 1.254 . S
C390 O411 1.256 . S
C390 O412 1.244 . S
O391 Zn387 2.055 . S
O391 C413 1.259 . S
O392 Zn384 2.046 . S
O392 C413 1.254 . S
N393 Zn387 2.036 . S
N393 C394 1.298 . S
N393 N396 1.398 . S
C394 N393 1.298 . S
C394 N397 1.367 . S
C394 C407 1.481 . S
C395 N396 1.299 . S
C395 N397 1.379 . S
N396 N393 1.398 . S
N396 C395 1.299 . S
N397 C394 1.367 . S
N397 C395 1.379 . S
C398 N400 1.298 . S
C398 N402 1.367 . S
C398 C406 1.481 . S
C399 N401 1.299 . S
C399 N402 1.379 . S
N400 Zn384 2.036 . S
N400 C398 1.298 . S
N400 N401 1.398 . S
N401 C399 1.299 . S
N401 N400 1.398 . S
N402 C398 1.367 . S
N402 C399 1.379 . S
H403 C406 0.980 . S
H404 C406 0.981 . S
H405 C406 0.981 . S
C406 C398 1.481 . S
C406 H403 0.980 . S
C406 H404 0.981 . S
C406 H405 0.981 . S
C407 C394 1.481 . S
C407 H408 0.980 . S
C407 H409 0.981 . S
C407 H410 0.981 . S
H408 C407 0.980 . S
H409 C407 0.981 . S
H410 C407 0.981 . S
O411 Zn387 2.066 . S
O411 C390 1.256 . S
O412 Zn384 2.053 . S
O412 C390 1.244 . S
C413 O391 1.259 . S
C413 O392 1.254 . S
O414 Zn384 2.066 . S
O414 C386 1.256 . S
O415 C386 1.244 . S
O415 Zn387 2.053 . S
Zn416 O417 2.055 . S
Zn416 O424 2.046 . S
Zn416 N432 2.036 . S
Zn416 O444 2.053 . S
Zn416 O446 2.066 . S
O417 Zn416 2.055 . S
O417 C420 1.259 . S
C418 O446 1.256 . S
C418 O447 1.244 . S
Zn419 O421 2.046 . S
Zn419 O423 2.055 . S
Zn419 N425 2.036 . S
Zn419 O443 2.066 . S
Zn419 O447 2.053 . S
C420 O417 1.259 . S
C420 O421 1.254 . S
O421 Zn419 2.046 . S
O421 C420 1.254 . S
C422 O443 1.256 . S
C422 O444 1.244 . S
O423 Zn419 2.055 . S
O423 C445 1.259 . S
O424 Zn416 2.046 . S
O424 C445 1.254 . S
N425 Zn419 2.036 . S
N425 C426 1.298 . S
N425 N428 1.398 . S
C426 N425 1.298 . S
C426 N429 1.367 . S
C426 C439 1.481 . S
C427 N428 1.299 . S
C427 N429 1.379 . S
N428 N425 1.398 . S
N428 C427 1.299 . S
N429 C426 1.367 . S
N429 C427 1.379 . S
C430 N432 1.298 . S
C430 N434 1.367 . S
C430 C438 1.481 . S
C431 N433 1.299 . S
C431 N434 1.379 . S
N432 Zn416 2.036 . S
N432 C430 1.298 . S
N432 N433 1.398 . S
N433 C431 1.299 . S
N433 N432 1.398 . S
N434 C430 1.367 . S
N434 C431 1.379 . S
H435 C438 0.980 . S
H436 C438 0.981 . S
H437 C438 0.981 . S
C438 C430 1.481 . S
C438 H435 0.980 . S
C438 H436 0.981 . S
C438 H437 0.981 . S
C439 C426 1.481 . S
C439 H440 0.980 . S
C439 H441 0.981 . S
C439 H442 0.981 . S
H440 C439 0.980 . S
H441 C439 0.981 . S
H442 C439 0.981 . S
O443 Zn419 2.066 . S
O443 C422 1.256 . S
O444 Zn416 2.053 . S
O444 C422 1.244 . S
C445 O423 1.259 . S
C445 O424 1.254 . S
O446 Zn416 2.066 . S
O446 C418 1.256 . S
O447 C418 1.244 . S
O447 Zn419 2.053 . S
Zn448 O449 2.055 . S
Zn448 O456 2.046 . S
Zn448 N464 2.036 . S
Zn448 O476 2.053 . S
Zn448 O478 2.066 . S
O449 Zn448 2.055 . S
O449 C452 1.259 . S
C450 O478 1.256 . S
C450 O479 1.244 . S
Zn451 O453 2.046 . S
Zn451 O455 2.055 . S
Zn451 N457 2.036 . S
Zn451 O475 2.066 . S
Zn451 O479 2.053 . S
C452 O449 1.259 . S
C452 O453 1.254 . S
O453 Zn451 2.046 . S
O453 C452 1.254 . S
C454 O475 1.256 . S
C454 O476 1.244 . S
O455 Zn451 2.055 . S
O455 C477 1.259 . S
O456 Zn448 2.046 . S
O456 C477 1.254 . S
N457 Zn451 2.036 . S
N457 C458 1.298 . S
N457 N460 1.398 . S
C458 N457 1.298 . S
C458 N461 1.367 . S
C458 C471 1.481 . S
C459 N460 1.299 . S
C459 N461 1.379 . S
N460 N457 1.398 . S
N460 C459 1.299 . S
N461 C458 1.367 . S
N461 C459 1.379 . S
C462 N464 1.298 . S
C462 N466 1.367 . S
C462 C470 1.481 . S
C463 N465 1.299 . S
C463 N466 1.379 . S
N464 Zn448 2.036 . S
N464 C462 1.298 . S
N464 N465 1.398 . S
N465 C463 1.299 . S
N465 N464 1.398 . S
N466 C462 1.367 . S
N466 C463 1.379 . S
H467 C470 0.980 . S
H468 C470 0.981 . S
H469 C470 0.981 . S
C470 C462 1.481 . S
C470 H467 0.980 . S
C470 H468 0.981 . S
C470 H469 0.981 . S
C471 C458 1.481 . S
C471 H472 0.980 . S
C471 H473 0.981 . S
C471 H474 0.981 . S
H472 C471 0.980 . S
H473 C471 0.981 . S
H474 C471 0.981 . S
O475 Zn451 2.066 . S
O475 C454 1.256 . S
O476 Zn448 2.053 . S
O476 C454 1.244 . S
C477 O455 1.259 . S
C477 O456 1.254 . S
O478 Zn448 2.066 . S
O478 C450 1.256 . S
O479 C450 1.244 . S
O479 Zn451 2.053 . S
Zn480 O481 2.055 . S
Zn480 O488 2.046 . S
Zn480 N496 2.036 . S
Zn480 O508 2.053 . S
Zn480 O510 2.066 . S
O481 Zn480 2.055 . S
O481 C484 1.259 . S
C482 O510 1.256 . S
C482 O511 1.244 . S
Zn483 O485 2.046 . S
Zn483 O487 2.055 . S
Zn483 N489 2.036 . S
Zn483 O507 2.066 . S
Zn483 O511 2.053 . S
C484 O481 1.259 . S
C484 O485 1.254 . S
O485 Zn483 2.046 . S
O485 C484 1.254 . S
C486 O507 1.256 . S
C486 O508 1.244 . S
O487 Zn483 2.055 . S
O487 C509 1.259 . S
O488 Zn480 2.046 . S
O488 C509 1.254 . S
N489 Zn483 2.036 . S
N489 C490 1.298 . S
N489 N492 1.398 . S
C490 N489 1.298 . S
C490 N493 1.367 . S
C490 C503 1.481 . S
C491 N492 1.299 . S
C491 N493 1.379 . S
N492 N489 1.398 . S
N492 C491 1.299 . S
N493 C490 1.367 . S
N493 C491 1.379 . S
C494 N496 1.298 1_455 S
C494 N498 1.367 . S
C494 C502 1.481 . S
C495 N497 1.299 . S
C495 N498 1.379 1_655 S
N496 Zn480 2.036 . S
N496 C494 1.298 1_655 S
N496 N497 1.398 . S
N497 C495 1.299 . S
N497 N496 1.398 . S
N498 C494 1.367 . S
N498 C495 1.379 1_455 S
H499 C502 0.980 . S
H500 C502 0.981 . S
H501 C502 0.981 . S
C502 C494 1.481 . S
C502 H499 0.980 . S
C502 H500 0.981 . S
C502 H501 0.981 . S
C503 C490 1.481 . S
C503 H504 0.980 . S
C503 H505 0.981 . S
C503 H506 0.981 . S
H504 C503 0.980 . S
H505 C503 0.981 . S
H506 C503 0.981 . S
O507 Zn483 2.066 . S
O507 C486 1.256 . S
O508 Zn480 2.053 . S
O508 C486 1.244 . S
C509 O487 1.259 . S
C509 O488 1.254 . S
O510 Zn480 2.066 . S
O510 C482 1.256 . S
O511 C482 1.244 . S
O511 Zn483 2.053 . S
Zn512 O513 2.055 . S
Zn512 O520 2.046 . S
Zn512 N528 2.036 . S
Zn512 O540 2.053 . S
Zn512 O542 2.066 . S
O513 Zn512 2.055 . S
O513 C516 1.259 . S
C514 O542 1.256 . S
C514 O543 1.244 . S
Zn515 O517 2.046 . S
Zn515 O519 2.055 . S
Zn515 N521 2.036 . S
Zn515 O539 2.066 . S
Zn515 O543 2.053 . S
C516 O513 1.259 . S
C516 O517 1.254 . S
O517 Zn515 2.046 . S
O517 C516 1.254 . S
C518 O539 1.256 . S
C518 O540 1.244 . S
O519 Zn515 2.055 . S
O519 C541 1.259 . S
O520 Zn512 2.046 . S
O520 C541 1.254 . S
N521 Zn515 2.036 . S
N521 C522 1.298 . S
N521 N524 1.398 . S
C522 N521 1.298 . S
C522 N525 1.367 . S
C522 C535 1.481 . S
C523 N524 1.299 . S
C523 N525 1.379 . S
N524 N521 1.398 . S
N524 C523 1.299 . S
N525 C522 1.367 . S
N525 C523 1.379 . S
C526 N528 1.298 . S
C526 N530 1.367 . S
C526 C534 1.481 . S
C527 N529 1.299 . S
C527 N530 1.379 . S
N528 Zn512 2.036 . S
N528 C526 1.298 . S
N528 N529 1.398 . S
N529 C527 1.299 . S
N529 N528 1.398 . S
N530 C526 1.367 . S
N530 C527 1.379 . S
H531 C534 0.980 . S
H532 C534 0.981 . S
H533 C534 0.981 . S
C534 C526 1.481 . S
C534 H531 0.980 . S
C534 H532 0.981 . S
C534 H533 0.981 . S
C535 C522 1.481 . S
C535 H536 0.980 . S
C535 H537 0.981 . S
C535 H538 0.981 . S
H536 C535 0.980 . S
H537 C535 0.981 . S
H538 C535 0.981 . S
O539 Zn515 2.066 . S
O539 C518 1.256 . S
O540 Zn512 2.053 . S
O540 C518 1.244 . S
C541 O519 1.259 . S
C541 O520 1.254 . S
O542 Zn512 2.066 . S
O542 C514 1.256 . S
O543 C514 1.244 . S
O543 Zn515 2.053 . S
Zn544 O545 2.055 . S
Zn544 O552 2.046 . S
Zn544 N560 2.036 . S
Zn544 O572 2.053 . S
Zn544 O574 2.066 . S
O545 Zn544 2.055 . S
O545 C548 1.259 . S
C546 O574 1.256 . S
C546 O575 1.244 . S
Zn547 O549 2.046 . S
Zn547 O551 2.055 . S
Zn547 N553 2.036 . S
Zn547 O571 2.066 . S
Zn547 O575 2.053 . S
C548 O545 1.259 . S
C548 O549 1.254 . S
O549 Zn547 2.046 . S
O549 C548 1.254 . S
C550 O571 1.256 . S
C550 O572 1.244 . S
O551 Zn547 2.055 . S
O551 C573 1.259 . S
O552 Zn544 2.046 . S
O552 C573 1.254 . S
N553 Zn547 2.036 . S
N553 C554 1.298 . S
N553 N556 1.398 . S
C554 N553 1.298 . S
C554 N557 1.367 . S
C554 C567 1.481 . S
C555 N556 1.299 . S
C555 N557 1.379 . S
N556 N553 1.398 . S
N556 C555 1.299 . S
N557 C554 1.367 . S
N557 C555 1.379 . S
C558 N560 1.298 1_565 S
C558 N562 1.367 . S
C558 C566 1.481 . S
C559 N561 1.299 . S
C559 N562 1.379 1_545 S
N560 Zn544 2.036 . S
N560 C558 1.298 1_545 S
N560 N561 1.398 . S
N561 C559 1.299 . S
N561 N560 1.398 . S
N562 C558 1.367 . S
N562 C559 1.379 1_565 S
H563 C566 0.980 . S
H564 C566 0.981 . S
H565 C566 0.981 . S
C566 C558 1.481 . S
C566 H563 0.980 . S
C566 H564 0.981 . S
C566 H565 0.981 . S
C567 C554 1.481 . S
C567 H568 0.980 . S
C567 H569 0.981 . S
C567 H570 0.981 . S
H568 C567 0.980 . S
H569 C567 0.981 . S
H570 C567 0.981 . S
O571 Zn547 2.066 . S
O571 C550 1.256 . S
O572 Zn544 2.053 . S
O572 C550 1.244 . S
C573 O551 1.259 . S
C573 O552 1.254 . S
O574 Zn544 2.066 . S
O574 C546 1.256 . S
O575 C546 1.244 . S
O575 Zn547 2.053 . S
Zn576 O577 2.055 . S
Zn576 O584 2.046 . S
Zn576 N592 2.036 . S
Zn576 O604 2.053 . S
Zn576 O606 2.066 . S
O577 Zn576 2.055 . S
O577 C580 1.259 . S
C578 O606 1.256 . S
C578 O607 1.244 . S
Zn579 O581 2.046 . S
Zn579 O583 2.055 . S
Zn579 N585 2.036 . S
Zn579 O603 2.066 . S
Zn579 O607 2.053 . S
C580 O577 1.259 . S
C580 O581 1.254 . S
O581 Zn579 2.046 . S
O581 C580 1.254 . S
C582 O603 1.256 . S
C582 O604 1.244 . S
O583 Zn579 2.055 . S
O583 C605 1.259 . S
O584 Zn576 2.046 . S
O584 C605 1.254 . S
N585 Zn579 2.036 . S
N585 C586 1.298 . S
N585 N588 1.398 . S
C586 N585 1.298 . S
C586 N589 1.367 . S
C586 C599 1.481 . S
C587 N588 1.299 . S
C587 N589 1.379 . S
N588 N585 1.398 . S
N588 C587 1.299 . S
N589 C586 1.367 . S
N589 C587 1.379 . S
C590 N592 1.298 1_565 S
C590 N594 1.367 . S
C590 C598 1.481 . S
C591 N593 1.299 . S
C591 N594 1.379 1_545 S
N592 Zn576 2.036 . S
N592 C590 1.298 1_545 S
N592 N593 1.398 . S
N593 C591 1.299 . S
N593 N592 1.398 . S
N594 C590 1.367 . S
N594 C591 1.379 1_565 S
H595 C598 0.980 . S
H596 C598 0.981 . S
H597 C598 0.981 . S
C598 C590 1.481 . S
C598 H595 0.980 . S
C598 H596 0.981 . S
C598 H597 0.981 . S
C599 C586 1.481 . S
C599 H600 0.980 . S
C599 H601 0.981 . S
C599 H602 0.981 . S
H600 C599 0.980 . S
H601 C599 0.981 . S
H602 C599 0.981 . S
O603 Zn579 2.066 . S
O603 C582 1.256 . S
O604 Zn576 2.053 . S
O604 C582 1.244 . S
C605 O583 1.259 . S
C605 O584 1.254 . S
O606 Zn576 2.066 . S
O606 C578 1.256 . S
O607 C578 1.244 . S
O607 Zn579 2.053 . S
Zn608 O609 2.055 . S
Zn608 O616 2.046 . S
Zn608 N624 2.036 . S
Zn608 O636 2.053 . S
Zn608 O638 2.066 . S
O609 Zn608 2.055 . S
O609 C612 1.259 . S
C610 O638 1.256 . S
C610 O639 1.244 . S
Zn611 O613 2.046 . S
Zn611 O615 2.055 . S
Zn611 N617 2.036 . S
Zn611 O635 2.066 . S
Zn611 O639 2.053 . S
C612 O609 1.259 . S
C612 O613 1.254 . S
O613 Zn611 2.046 . S
O613 C612 1.254 . S
C614 O635 1.256 . S
C614 O636 1.244 . S
O615 Zn611 2.055 . S
O615 C637 1.259 . S
O616 Zn608 2.046 . S
O616 C637 1.254 . S
N617 Zn611 2.036 . S
N617 C618 1.298 . S
N617 N620 1.398 . S
C618 N617 1.298 . S
C618 N621 1.367 . S
C618 C631 1.481 . S
C619 N620 1.299 . S
C619 N621 1.379 . S
N620 N617 1.398 . S
N620 C619 1.299 . S
N621 C618 1.367 . S
N621 C619 1.379 . S
C622 N624 1.298 1_455 S
C622 N626 1.367 . S
C622 C630 1.481 . S
C623 N625 1.299 . S
C623 N626 1.379 1_655 S
N624 Zn608 2.036 . S
N624 C622 1.298 1_655 S
N624 N625 1.398 . S
N625 C623 1.299 . S
N625 N624 1.398 . S
N626 C622 1.367 . S
N626 C623 1.379 1_455 S
H627 C630 0.980 . S
H628 C630 0.981 . S
H629 C630 0.981 . S
C630 C622 1.481 . S
C630 H627 0.980 . S
C630 H628 0.981 . S
C630 H629 0.981 . S
C631 C618 1.481 . S
C631 H632 0.980 . S
C631 H633 0.981 . S
C631 H634 0.981 . S
H632 C631 0.980 . S
H633 C631 0.981 . S
H634 C631 0.981 . S
O635 Zn611 2.066 . S
O635 C614 1.256 . S
O636 Zn608 2.053 . S
O636 C614 1.244 . S
C637 O615 1.259 . S
C637 O616 1.254 . S
O638 Zn608 2.066 . S
O638 C610 1.256 . S
O639 C610 1.244 . S
O639 Zn611 2.053 . S
Zn640 O641 2.055 . S
Zn640 O648 2.046 . S
Zn640 N656 2.036 . S
Zn640 O668 2.053 . S
Zn640 O670 2.066 . S
O641 Zn640 2.055 . S
O641 C644 1.259 . S
C642 O670 1.256 . S
C642 O671 1.244 . S
Zn643 O645 2.046 . S
Zn643 O647 2.055 . S
Zn643 N649 2.036 . S
Zn643 O667 2.066 . S
Zn643 O671 2.053 . S
C644 O641 1.259 . S
C644 O645 1.254 . S
O645 Zn643 2.046 . S
O645 C644 1.254 . S
C646 O667 1.256 . S
C646 O668 1.244 . S
O647 Zn643 2.055 . S
O647 C669 1.259 . S
O648 Zn640 2.046 . S
O648 C669 1.254 . S
N649 Zn643 2.036 . S
N649 C650 1.298 . S
N649 N652 1.398 . S
C650 N649 1.298 . S
C650 N653 1.367 . S
C650 C663 1.481 . S
C651 N652 1.299 . S
C651 N653 1.379 . S
N652 N649 1.398 . S
N652 C651 1.299 . S
N653 C650 1.367 . S
N653 C651 1.379 . S
C654 N656 1.298 . S
C654 N658 1.367 . S
C654 C662 1.481 . S
C655 N657 1.299 . S
C655 N658 1.379 . S
N656 Zn640 2.036 . S
N656 C654 1.298 . S
N656 N657 1.398 . S
N657 C655 1.299 . S
N657 N656 1.398 . S
N658 C654 1.367 . S
N658 C655 1.379 . S
H659 C662 0.980 . S
H660 C662 0.981 . S
H661 C662 0.981 . S
C662 C654 1.481 . S
C662 H659 0.980 . S
C662 H660 0.981 . S
C662 H661 0.981 . S
C663 C650 1.481 . S
C663 H664 0.980 . S
C663 H665 0.981 . S
C663 H666 0.981 . S
H664 C663 0.980 . S
H665 C663 0.981 . S
H666 C663 0.981 . S
O667 Zn643 2.066 . S
O667 C646 1.256 . S
O668 Zn640 2.053 . S
O668 C646 1.244 . S
C669 O647 1.259 . S
C669 O648 1.254 . S
O670 Zn640 2.066 . S
O670 C642 1.256 . S
O671 C642 1.244 . S
O671 Zn643 2.053 . S
Zn672 O673 2.055 1_556 S
Zn672 O680 2.046 1_556 S
Zn672 N688 2.036 . S
Zn672 O700 2.053 . S
Zn672 O702 2.066 . S
O673 Zn672 2.055 1_554 S
O673 C676 1.259 . S
C674 O702 1.239 1_554 S
C674 O703 1.261 . S
Zn675 O677 2.046 . S
Zn675 O679 2.055 . S
Zn675 N681 2.036 . S
Zn675 O699 2.066 1_554 S
Zn675 O703 2.053 . S
C676 O673 1.259 . S
C676 O677 1.254 . S
O677 Zn675 2.046 . S
O677 C676 1.254 . S
C678 O699 1.256 . S
C678 O700 1.244 . S
O679 Zn675 2.055 . S
O679 C701 1.275 . S
O680 Zn672 2.046 1_554 S
O680 C701 1.252 . S
N681 Zn675 2.036 . S
N681 C682 1.298 . S
N681 N684 1.398 . S
C682 N681 1.298 . S
C682 N685 1.367 . S
C682 C695 1.476 1_554 S
C683 N684 1.299 . S
C683 N685 1.379 . S
N684 N681 1.398 . S
N684 C683 1.299 . S
N685 C682 1.367 . S
N685 C683 1.379 . S
C686 N688 1.298 . S
C686 N690 1.367 . S
C686 C694 1.481 1_556 S
C687 N689 1.299 . S
C687 N690 1.379 . S
N688 Zn672 2.036 . S
N688 C686 1.298 . S
N688 N689 1.398 . S
N689 C687 1.299 . S
N689 N688 1.398 . S
N690 C686 1.367 . S
N690 C687 1.379 . S
H691 C694 0.980 . S
H692 C694 0.981 . S
H693 C694 0.981 . S
C694 C686 1.481 1_554 S
C694 H691 0.980 . S
C694 H692 0.981 . S
C694 H693 0.981 . S
C695 C682 1.476 1_556 S
C695 H696 0.977 1_556 S
C695 H697 0.975 1_556 S
C695 H698 0.995 . S
H696 C695 0.977 1_554 S
H697 C695 0.975 1_554 S
H698 C695 0.995 . S
O699 Zn675 2.066 1_556 S
O699 C678 1.256 . S
O700 Zn672 2.053 . S
O700 C678 1.244 . S
C701 O679 1.275 . S
C701 O680 1.252 . S
O702 Zn672 2.066 . S
O702 C674 1.239 1_556 S
O703 C674 1.261 . S
O703 Zn675 2.053 . S
Zn704 O705 2.055 . S
Zn704 O712 2.046 . S
Zn704 N720 2.036 . S
Zn704 O732 2.053 . S
Zn704 O734 2.066 1_554 S
O705 Zn704 2.055 . S
O705 C708 1.275 . S
C706 O734 1.256 . S
C706 O735 1.244 . S
Zn707 O709 2.046 1_556 S
Zn707 O711 2.055 1_556 S
Zn707 N713 2.036 . S
Zn707 O731 2.066 . S
Zn707 O735 2.053 . S
C708 O705 1.275 . S
C708 O709 1.252 . S
O709 Zn707 2.046 1_554 S
O709 C708 1.252 . S
C710 O731 1.239 1_554 S
C710 O732 1.261 . S
O711 Zn707 2.055 1_554 S
O711 C733 1.259 . S
O712 Zn704 2.046 . S
O712 C733 1.254 . S
N713 Zn707 2.036 . S
N713 C714 1.298 . S
N713 N716 1.398 . S
C714 N713 1.298 . S
C714 N717 1.367 . S
C714 C727 1.481 1_556 S
C715 N716 1.299 . S
C715 N717 1.379 . S
N716 N713 1.398 . S
N716 C715 1.299 . S
N717 C714 1.367 . S
N717 C715 1.379 . S
C718 N720 1.298 . S
C718 N722 1.367 . S
C718 C726 1.476 1_554 S
C719 N721 1.299 . S
C719 N722 1.379 . S
N720 Zn704 2.036 . S
N720 C718 1.298 . S
N720 N721 1.398 . S
N721 C719 1.299 . S
N721 N720 1.398 . S
N722 C718 1.367 . S
N722 C719 1.379 . S
H723 C726 0.977 1_554 S
H724 C726 0.975 1_554 S
H725 C726 0.994 . S
C726 C718 1.476 1_556 S
C726 H723 0.977 1_556 S
C726 H724 0.975 1_556 S
C726 H725 0.994 . S
C727 C714 1.481 1_554 S
C727 H728 0.980 . S
C727 H729 0.981 . S
C727 H730 0.981 . S
H728 C727 0.980 . S
H729 C727 0.981 . S
H730 C727 0.981 . S
O731 Zn707 2.066 . S
O731 C710 1.239 1_556 S
O732 Zn704 2.053 . S
O732 C710 1.261 . S
C733 O711 1.259 . S
C733 O712 1.254 . S
O734 Zn704 2.066 1_556 S
O734 C706 1.256 . S
O735 C706 1.244 . S
O735 Zn707 2.053 . S
Zn736 O737 2.055 1_556 S
Zn736 O744 2.046 1_556 S
Zn736 N752 2.036 . S
Zn736 O764 2.053 . S
Zn736 O766 2.066 . S
O737 Zn736 2.055 1_554 S
O737 C740 1.259 . S
C738 O766 1.239 1_554 S
C738 O767 1.261 . S
Zn739 O741 2.046 . S
Zn739 O743 2.055 . S
Zn739 N745 2.036 . S
Zn739 O763 2.066 1_554 S
Zn739 O767 2.053 . S
C740 O737 1.259 . S
C740 O741 1.254 . S
O741 Zn739 2.046 . S
O741 C740 1.254 . S
C742 O763 1.256 . S
C742 O764 1.244 . S
O743 Zn739 2.055 . S
O743 C765 1.275 . S
O744 Zn736 2.046 1_554 S
O744 C765 1.252 . S
N745 Zn739 2.036 . S
N745 C746 1.298 . S
N745 N748 1.398 . S
C746 N745 1.298 . S
C746 N749 1.367 . S
C746 C759 1.476 1_554 S
C747 N748 1.299 . S
C747 N749 1.379 . S
N748 N745 1.398 . S
N748 C747 1.299 . S
N749 C746 1.367 . S
N749 C747 1.379 . S
C750 N752 1.298 . S
C750 N754 1.367 . S
C750 C758 1.481 1_556 S
C751 N753 1.299 . S
C751 N754 1.379 . S
N752 Zn736 2.036 . S
N752 C750 1.298 . S
N752 N753 1.398 . S
N753 C751 1.299 . S
N753 N752 1.398 . S
N754 C750 1.367 . S
N754 C751 1.379 . S
H755 C758 0.980 . S
H756 C758 0.981 . S
H757 C758 0.981 . S
C758 C750 1.481 1_554 S
C758 H755 0.980 . S
C758 H756 0.981 . S
C758 H757 0.981 . S
C759 C746 1.476 1_556 S
C759 H760 0.977 1_556 S
C759 H761 0.976 1_556 S
C759 H762 0.994 . S
H760 C759 0.977 1_554 S
H761 C759 0.976 1_554 S
H762 C759 0.994 . S
O763 Zn739 2.066 1_556 S
O763 C742 1.256 . S
O764 Zn736 2.053 . S
O764 C742 1.244 . S
C765 O743 1.275 . S
C765 O744 1.252 . S
O766 Zn736 2.066 . S
O766 C738 1.239 1_556 S
O767 C738 1.261 . S
O767 Zn739 2.053 . S
Zn768 O769 2.055 . S
Zn768 O776 2.046 . S
Zn768 N784 2.036 . S
Zn768 O796 2.053 . S
Zn768 O798 2.066 . S
O769 Zn768 2.055 . S
O769 C772 1.259 . S
C770 O798 1.256 . S
C770 O799 1.244 . S
Zn771 O773 2.046 . S
Zn771 O775 2.055 . S
Zn771 N777 2.036 . S
Zn771 O795 2.066 . S
Zn771 O799 2.053 . S
C772 O769 1.259 . S
C772 O773 1.254 . S
O773 Zn771 2.046 . S
O773 C772 1.254 . S
C774 O795 1.256 . S
C774 O796 1.244 . S
O775 Zn771 2.055 . S
O775 C797 1.259 . S
O776 Zn768 2.046 . S
O776 C797 1.254 . S
N777 Zn771 2.036 . S
N777 C778 1.298 1_565 S
N777 N780 1.398 . S
C778 N777 1.298 1_545 S
C778 N781 1.367 . S
C778 C791 1.481 . S
C779 N780 1.299 . S
C779 N781 1.379 1_565 S
N780 N777 1.398 . S
N780 C779 1.299 . S
N781 C778 1.367 . S
N781 C779 1.379 1_545 S
C782 N784 1.298 . S
C782 N786 1.367 . S
C782 C790 1.481 . S
C783 N785 1.299 . S
C783 N786 1.379 . S
N784 Zn768 2.036 . S
N784 C782 1.298 . S
N784 N785 1.398 . S
N785 C783 1.299 . S
N785 N784 1.398 . S
N786 C782 1.367 . S
N786 C783 1.379 . S
H787 C790 0.980 . S
H788 C790 0.981 . S
H789 C790 0.981 . S
C790 C782 1.481 . S
C790 H787 0.980 . S
C790 H788 0.981 . S
C790 H789 0.981 . S
C791 C778 1.481 . S
C791 H792 0.980 . S
C791 H793 0.981 . S
C791 H794 0.981 . S
H792 C791 0.980 . S
H793 C791 0.981 . S
H794 C791 0.981 . S
O795 Zn771 2.066 . S
O795 C774 1.256 . S
O796 Zn768 2.053 . S
O796 C774 1.244 . S
C797 O775 1.259 . S
C797 O776 1.254 . S
O798 Zn768 2.066 . S
O798 C770 1.256 . S
O799 C770 1.244 . S
O799 Zn771 2.053 . S
Zn800 O801 2.055 . S
Zn800 O808 2.046 . S
Zn800 N816 2.036 . S
Zn800 O828 2.053 . S
Zn800 O830 2.066 . S
O801 Zn800 2.055 . S
O801 C804 1.259 . S
C802 O830 1.256 . S
C802 O831 1.244 . S
Zn803 O805 2.046 . S
Zn803 O807 2.055 . S
Zn803 N809 2.036 . S
Zn803 O827 2.066 . S
Zn803 O831 2.053 . S
C804 O801 1.259 . S
C804 O805 1.254 . S
O805 Zn803 2.046 . S
O805 C804 1.254 . S
C806 O827 1.256 . S
C806 O828 1.244 . S
O807 Zn803 2.055 . S
O807 C829 1.259 . S
O808 Zn800 2.046 . S
O808 C829 1.254 . S
N809 Zn803 2.036 . S
N809 C810 1.298 1_455 S
N809 N812 1.398 . S
C810 N809 1.298 1_655 S
C810 N813 1.367 . S
C810 C823 1.481 . S
C811 N812 1.299 . S
C811 N813 1.379 1_455 S
N812 N809 1.398 . S
N812 C811 1.299 . S
N813 C810 1.367 . S
N813 C811 1.379 1_655 S
C814 N816 1.298 . S
C814 N818 1.367 . S
C814 C822 1.481 . S
C815 N817 1.299 . S
C815 N818 1.379 . S
N816 Zn800 2.036 . S
N816 C814 1.298 . S
N816 N817 1.398 . S
N817 C815 1.299 . S
N817 N816 1.398 . S
N818 C814 1.367 . S
N818 C815 1.379 . S
H819 C822 0.980 . S
H820 C822 0.981 . S
H821 C822 0.981 . S
C822 C814 1.481 . S
C822 H819 0.980 . S
C822 H820 0.981 . S
C822 H821 0.981 . S
C823 C810 1.481 . S
C823 H824 0.980 . S
C823 H825 0.981 . S
C823 H826 0.981 . S
H824 C823 0.980 . S
H825 C823 0.981 . S
H826 C823 0.981 . S
O827 Zn803 2.066 . S
O827 C806 1.256 . S
O828 Zn800 2.053 . S
O828 C806 1.244 . S
C829 O807 1.259 . S
C829 O808 1.254 . S
O830 Zn800 2.066 . S
O830 C802 1.256 . S
O831 C802 1.244 . S
O831 Zn803 2.053 . S
Zn832 O833 2.055 . S
Zn832 O840 2.046 . S
Zn832 N848 2.036 . S
Zn832 O860 2.053 . S
Zn832 O862 2.066 . S
O833 Zn832 2.055 . S
O833 C836 1.259 . S
C834 O862 1.256 . S
C834 O863 1.244 . S
Zn835 O837 2.046 . S
Zn835 O839 2.055 . S
Zn835 N841 2.036 . S
Zn835 O859 2.066 . S
Zn835 O863 2.053 . S
C836 O833 1.259 . S
C836 O837 1.254 . S
O837 Zn835 2.046 . S
O837 C836 1.254 . S
C838 O859 1.256 . S
C838 O860 1.244 . S
O839 Zn835 2.055 . S
O839 C861 1.259 . S
O840 Zn832 2.046 . S
O840 C861 1.254 . S
N841 Zn835 2.036 . S
N841 C842 1.298 . S
N841 N844 1.398 . S
C842 N841 1.298 . S
C842 N845 1.367 . S
C842 C855 1.481 . S
C843 N844 1.299 . S
C843 N845 1.379 . S
N844 N841 1.398 . S
N844 C843 1.299 . S
N845 C842 1.367 . S
N845 C843 1.379 . S
C846 N848 1.298 . S
C846 N850 1.367 . S
C846 C854 1.481 . S
C847 N849 1.299 . S
C847 N850 1.379 . S
N848 Zn832 2.036 . S
N848 C846 1.298 . S
N848 N849 1.398 . S
N849 C847 1.299 . S
N849 N848 1.398 . S
N850 C846 1.367 . S
N850 C847 1.379 . S
H851 C854 0.980 . S
H852 C854 0.981 . S
H853 C854 0.981 . S
C854 C846 1.481 . S
C854 H851 0.980 . S
C854 H852 0.981 . S
C854 H853 0.981 . S
C855 C842 1.481 . S
C855 H856 0.980 . S
C855 H857 0.981 . S
C855 H858 0.981 . S
H856 C855 0.980 . S
H857 C855 0.981 . S
H858 C855 0.981 . S
O859 Zn835 2.066 . S
O859 C838 1.256 . S
O860 Zn832 2.053 . S
O860 C838 1.244 . S
C861 O839 1.259 . S
C861 O840 1.254 . S
O862 Zn832 2.066 . S
O862 C834 1.256 . S
O863 C834 1.244 . S
O863 Zn835 2.053 . S
Zn864 O865 2.055 . S
Zn864 O872 2.046 . S
Zn864 N880 2.036 . S
Zn864 O892 2.053 1_556 S
Zn864 O894 2.066 1_556 S
O865 Zn864 2.055 . S
O865 C868 1.259 . S
C866 O894 1.256 . S
C866 O895 1.244 . S
Zn867 O869 2.046 1_554 S
Zn867 O871 2.055 1_554 S
Zn867 N873 2.036 . S
Zn867 O891 2.066 . S
Zn867 O895 2.053 . S
C868 O865 1.259 . S
C868 O869 1.254 . S
O869 Zn867 2.046 1_556 S
O869 C868 1.254 . S
C870 O891 1.256 . S
C870 O892 1.244 . S
O871 Zn867 2.055 1_556 S
O871 C893 1.259 . S
O872 Zn864 2.046 . S
O872 C893 1.254 . S
N873 Zn867 2.036 . S
N873 C874 1.298 1_554 S
N873 N876 1.398 . S
C874 N873 1.298 1_556 S
C874 N877 1.367 1_556 S
C874 C887 1.481 . S
C875 N876 1.299 . S
C875 N877 1.379 . S
N876 N873 1.398 . S
N876 C875 1.299 . S
N877 C874 1.367 1_554 S
N877 C875 1.379 . S
C878 N880 1.298 1_554 S
C878 N882 1.367 . S
C878 C886 1.481 . S
C879 N881 1.287 1_554 S
C879 N882 1.392 . S
N880 Zn864 2.036 . S
N880 C878 1.298 1_556 S
N880 N881 1.398 . S
N881 C879 1.287 1_556 S
N881 N880 1.398 . S
N882 C878 1.367 . S
N882 C879 1.392 . S
H883 C886 0.986 . S
H884 C886 0.994 . S
H885 C886 0.981 . S
C886 C878 1.481 . S
C886 H883 0.986 . S
C886 H884 0.994 . S
C886 H885 0.981 . S
C887 C874 1.481 . S
C887 H888 0.980 . S
C887 H889 0.981 . S
C887 H890 0.981 . S
H888 C887 0.980 . S
H889 C887 0.981 . S
H890 C887 0.981 . S
O891 Zn867 2.066 . S
O891 C870 1.256 . S
O892 Zn864 2.053 1_554 S
O892 C870 1.244 . S
C893 O871 1.259 . S
C893 O872 1.254 . S
O894 Zn864 2.066 1_554 S
O894 C866 1.256 . S
O895 C866 1.244 . S
O895 Zn867 2.053 . S
Zn896 O897 2.055 . S
Zn896 O904 2.046 . S
Zn896 N912 2.036 . S
Zn896 O924 2.053 1_556 S
Zn896 O926 2.066 1_556 S
O897 Zn896 2.055 . S
O897 C900 1.259 . S
C898 O926 1.256 . S
C898 O927 1.244 . S
Zn899 O901 2.046 1_554 S
Zn899 O903 2.055 1_554 S
Zn899 N905 2.036 . S
Zn899 O923 2.066 . S
Zn899 O927 2.053 . S
C900 O897 1.259 . S
C900 O901 1.254 . S
O901 Zn899 2.046 1_556 S
O901 C900 1.254 . S
C902 O923 1.256 . S
C902 O924 1.244 . S
O903 Zn899 2.055 1_556 S
O903 C925 1.259 . S
O904 Zn896 2.046 . S
O904 C925 1.254 . S
N905 Zn899 2.036 . S
N905 C906 1.298 1_554 S
N905 N908 1.398 . S
C906 N905 1.298 1_556 S
C906 N909 1.367 1_556 S
C906 C919 1.481 . S
C907 N908 1.299 . S
C907 N909 1.379 . S
N908 N905 1.398 . S
N908 C907 1.299 . S
N909 C906 1.367 1_554 S
N909 C907 1.379 . S
C910 N912 1.298 1_554 S
C910 N914 1.367 . S
C910 C918 1.481 . S
C911 N913 1.287 1_554 S
C911 N914 1.392 . S
N912 Zn896 2.036 . S
N912 C910 1.298 1_556 S
N912 N913 1.398 . S
N913 C911 1.287 1_556 S
N913 N912 1.398 . S
N914 C910 1.367 . S
N914 C911 1.392 . S
H915 C918 0.986 . S
H916 C918 0.994 . S
H917 C918 0.981 . S
C918 C910 1.481 . S
C918 H915 0.986 . S
C918 H916 0.994 . S
C918 H917 0.981 . S
C919 C906 1.481 . S
C919 H920 0.980 . S
C919 H921 0.981 . S
C919 H922 0.981 . S
H920 C919 0.980 . S
H921 C919 0.981 . S
H922 C919 0.981 . S
O923 Zn899 2.066 . S
O923 C902 1.256 . S
O924 Zn896 2.053 1_554 S
O924 C902 1.244 . S
C925 O903 1.259 . S
C925 O904 1.254 . S
O926 Zn896 2.066 1_554 S
O926 C898 1.256 . S
O927 C898 1.244 . S
O927 Zn899 2.053 . S
Zn928 O929 2.055 . S
Zn928 O936 2.046 . S
Zn928 N944 2.036 . S
Zn928 O956 2.053 1_556 S
Zn928 O958 2.066 1_556 S
O929 Zn928 2.055 . S
O929 C932 1.259 . S
C930 O958 1.256 . S
C930 O959 1.244 . S
Zn931 O933 2.046 1_554 S
Zn931 O935 2.055 1_554 S
Zn931 N937 2.036 . S
Zn931 O955 2.066 . S
Zn931 O959 2.053 . S
C932 O929 1.259 . S
C932 O933 1.254 . S
O933 Zn931 2.046 1_556 S
O933 C932 1.254 . S
C934 O955 1.256 . S
C934 O956 1.244 . S
O935 Zn931 2.055 1_556 S
O935 C957 1.259 . S
O936 Zn928 2.046 . S
O936 C957 1.254 . S
N937 Zn931 2.036 . S
N937 C938 1.298 1_554 S
N937 N940 1.398 . S
C938 N937 1.298 1_556 S
C938 N941 1.367 1_556 S
C938 C951 1.481 . S
C939 N940 1.299 . S
C939 N941 1.379 . S
N940 N937 1.398 . S
N940 C939 1.299 . S
N941 C938 1.367 1_554 S
N941 C939 1.379 . S
C942 N944 1.298 1_554 S
C942 N946 1.367 . S
C942 C950 1.481 . S
C943 N945 1.287 1_554 S
C943 N946 1.392 . S
N944 Zn928 2.036 . S
N944 C942 1.298 1_556 S
N944 N945 1.398 . S
N945 C943 1.287 1_556 S
N945 N944 1.398 . S
N946 C942 1.367 . S
N946 C943 1.392 . S
H947 C950 0.986 . S
H948 C950 0.994 . S
H949 C950 0.981 . S
C950 C942 1.481 . S
C950 H947 0.986 . S
C950 H948 0.994 . S
C950 H949 0.981 . S
C951 C938 1.481 . S
C951 H952 0.980 . S
C951 H953 0.981 . S
C951 H954 0.981 . S
H952 C951 0.980 . S
H953 C951 0.981 . S
H954 C951 0.981 . S
O955 Zn931 2.066 . S
O955 C934 1.256 . S
O956 Zn928 2.053 1_554 S
O956 C934 1.244 . S
C957 O935 1.259 . S
C957 O936 1.254 . S
O958 Zn928 2.066 1_554 S
O958 C930 1.256 . S
O959 C930 1.244 . S
O959 Zn931 2.053 . S
Zn960 O961 2.055 . S
Zn960 O968 2.046 . S
Zn960 N976 2.036 . S
Zn960 O988 2.053 . S
Zn960 O990 2.066 . S
O961 Zn960 2.055 . S
O961 C964 1.259 . S
C962 O990 1.256 . S
C962 O991 1.244 . S
Zn963 O965 2.046 . S
Zn963 O967 2.055 . S
Zn963 N969 2.036 . S
Zn963 O987 2.066 . S
Zn963 O991 2.053 . S
C964 O961 1.259 . S
C964 O965 1.254 . S
O965 Zn963 2.046 . S
O965 C964 1.254 . S
C966 O987 1.256 . S
C966 O988 1.244 . S
O967 Zn963 2.055 . S
O967 C989 1.259 . S
O968 Zn960 2.046 . S
O968 C989 1.254 . S
N969 Zn963 2.036 . S
N969 C970 1.298 . S
N969 N972 1.398 . S
C970 N969 1.298 . S
C970 N973 1.367 . S
C970 C983 1.481 . S
C971 N972 1.299 . S
C971 N973 1.379 . S
N972 N969 1.398 . S
N972 C971 1.299 . S
N973 C970 1.367 . S
N973 C971 1.379 . S
C974 N976 1.298 . S
C974 N978 1.367 . S
C974 C982 1.481 . S
C975 N977 1.299 . S
C975 N978 1.379 . S
N976 Zn960 2.036 . S
N976 C974 1.298 . S
N976 N977 1.398 . S
N977 C975 1.299 . S
N977 N976 1.398 . S
N978 C974 1.367 . S
N978 C975 1.379 . S
H979 C982 0.980 . S
H980 C982 0.981 . S
H981 C982 0.981 . S
C982 C974 1.481 . S
C982 H979 0.980 . S
C982 H980 0.981 . S
C982 H981 0.981 . S
C983 C970 1.481 . S
C983 H984 0.980 . S
C983 H985 0.981 . S
C983 H986 0.981 . S
H984 C983 0.980 . S
H985 C983 0.981 . S
H986 C983 0.981 . S
O987 Zn963 2.066 . S
O987 C966 1.256 . S
O988 Zn960 2.053 . S
O988 C966 1.244 . S
C989 O967 1.259 . S
C989 O968 1.254 . S
O990 Zn960 2.066 . S
O990 C962 1.256 . S
O991 C962 1.244 . S
O991 Zn963 2.053 . S
Zn992 O993 2.055 . S
Zn992 O1000 2.046 . S
Zn992 N1008 2.036 . S
Zn992 O1020 2.053 . S
Zn992 O1022 2.066 . S
O993 Zn992 2.055 . S
O993 C996 1.259 . S
C994 O1022 1.256 . S
C994 O1023 1.244 . S
Zn995 O997 2.046 . S
Zn995 O999 2.055 . S
Zn995 N1001 2.036 . S
Zn995 O1019 2.066 . S
Zn995 O1023 2.053 . S
C996 O993 1.259 . S
C996 O997 1.254 . S
O997 Zn995 2.046 . S
O997 C996 1.254 . S
C998 O1019 1.256 . S
C998 O1020 1.244 . S
O999 Zn995 2.055 . S
O999 C1021 1.259 . S
O1000 Zn992 2.046 . S
O1000 C1021 1.254 . S
N1001 Zn995 2.036 . S
N1001 C1002 1.298 . S
N1001 N1004 1.398 . S
C1002 N1001 1.298 . S
C1002 N1005 1.367 . S
C1002 C1015 1.481 . S
C1003 N1004 1.299 . S
C1003 N1005 1.379 . S
N1004 N1001 1.398 . S
N1004 C1003 1.299 . S
N1005 C1002 1.367 . S
N1005 C1003 1.379 . S
C1006 N1008 1.298 . S
C1006 N1010 1.367 . S
C1006 C1014 1.481 . S
C1007 N1009 1.299 . S
C1007 N1010 1.379 . S
N1008 Zn992 2.036 . S
N1008 C1006 1.298 . S
N1008 N1009 1.398 . S
N1009 C1007 1.299 . S
N1009 N1008 1.398 . S
N1010 C1006 1.367 . S
N1010 C1007 1.379 . S
H1011 C1014 0.980 . S
H1012 C1014 0.981 . S
H1013 C1014 0.981 . S
C1014 C1006 1.481 . S
C1014 H1011 0.980 . S
C1014 H1012 0.981 . S
C1014 H1013 0.981 . S
C1015 C1002 1.481 . S
C1015 H1016 0.980 . S
C1015 H1017 0.981 . S
C1015 H1018 0.981 . S
H1016 C1015 0.980 . S
H1017 C1015 0.981 . S
H1018 C1015 0.981 . S
O1019 Zn995 2.066 . S
O1019 C998 1.256 . S
O1020 Zn992 2.053 . S
O1020 C998 1.244 . S
C1021 O999 1.259 . S
C1021 O1000 1.254 . S
O1022 Zn992 2.066 . S
O1022 C994 1.256 . S
O1023 C994 1.244 . S
O1023 Zn995 2.053 . S
Zn1024 O1025 2.055 . S
Zn1024 O1032 2.046 . S
Zn1024 N1040 2.036 . S
Zn1024 O1052 2.053 . S
Zn1024 O1054 2.066 . S
O1025 Zn1024 2.055 . S
O1025 C1028 1.259 . S
C1026 O1054 1.256 . S
C1026 O1055 1.244 . S
Zn1027 O1029 2.046 . S
Zn1027 O1031 2.055 . S
Zn1027 N1033 2.036 . S
Zn1027 O1051 2.066 . S
Zn1027 O1055 2.053 . S
C1028 O1025 1.259 . S
C1028 O1029 1.254 . S
O1029 Zn1027 2.046 . S
O1029 C1028 1.254 . S
C1030 O1051 1.256 . S
C1030 O1052 1.244 . S
O1031 Zn1027 2.055 . S
O1031 C1053 1.259 . S
O1032 Zn1024 2.046 . S
O1032 C1053 1.254 . S
N1033 Zn1027 2.036 . S
N1033 C1034 1.298 . S
N1033 N1036 1.398 . S
C1034 N1033 1.298 . S
C1034 N1037 1.367 . S
C1034 C1047 1.481 . S
C1035 N1036 1.299 . S
C1035 N1037 1.379 . S
N1036 N1033 1.398 . S
N1036 C1035 1.299 . S
N1037 C1034 1.367 . S
N1037 C1035 1.379 . S
C1038 N1040 1.298 . S
C1038 N1042 1.367 . S
C1038 C1046 1.481 . S
C1039 N1041 1.299 . S
C1039 N1042 1.379 . S
N1040 Zn1024 2.036 . S
N1040 C1038 1.298 . S
N1040 N1041 1.398 . S
N1041 C1039 1.299 . S
N1041 N1040 1.398 . S
N1042 C1038 1.367 . S
N1042 C1039 1.379 . S
H1043 C1046 0.980 . S
H1044 C1046 0.981 . S
H1045 C1046 0.981 . S
C1046 C1038 1.481 . S
C1046 H1043 0.980 . S
C1046 H1044 0.981 . S
C1046 H1045 0.981 . S
C1047 C1034 1.481 . S
C1047 H1048 0.980 . S
C1047 H1049 0.981 . S
C1047 H1050 0.981 . S
H1048 C1047 0.980 . S
H1049 C1047 0.981 . S
H1050 C1047 0.981 . S
O1051 Zn1027 2.066 . S
O1051 C1030 1.256 . S
O1052 Zn1024 2.053 . S
O1052 C1030 1.244 . S
C1053 O1031 1.259 . S
C1053 O1032 1.254 . S
O1054 Zn1024 2.066 . S
O1054 C1026 1.256 . S
O1055 C1026 1.244 . S
O1055 Zn1027 2.053 . S
Zn1056 O1057 2.055 . S
Zn1056 O1064 2.046 . S
Zn1056 N1072 2.036 . S
Zn1056 O1084 2.053 . S
Zn1056 O1086 2.066 . S
O1057 Zn1056 2.055 . S
O1057 C1060 1.259 . S
C1058 O1086 1.256 . S
C1058 O1087 1.244 . S
Zn1059 O1061 2.046 . S
Zn1059 O1063 2.055 . S
Zn1059 N1065 2.036 . S
Zn1059 O1083 2.066 . S
Zn1059 O1087 2.053 . S
C1060 O1057 1.259 . S
C1060 O1061 1.254 . S
O1061 Zn1059 2.046 . S
O1061 C1060 1.254 . S
C1062 O1083 1.256 . S
C1062 O1084 1.244 . S
O1063 Zn1059 2.055 . S
O1063 C1085 1.259 . S
O1064 Zn1056 2.046 . S
O1064 C1085 1.254 . S
N1065 Zn1059 2.036 . S
N1065 C1066 1.298 . S
N1065 N1068 1.398 . S
C1066 N1065 1.298 . S
C1066 N1069 1.367 . S
C1066 C1079 1.481 . S
C1067 N1068 1.299 . S
C1067 N1069 1.379 . S
N1068 N1065 1.398 . S
N1068 C1067 1.299 . S
N1069 C1066 1.367 . S
N1069 C1067 1.379 . S
C1070 N1072 1.298 1_655 S
C1070 N1074 1.367 . S
C1070 C1078 1.481 . S
C1071 N1073 1.299 . S
C1071 N1074 1.379 1_455 S
N1072 Zn1056 2.036 . S
N1072 C1070 1.298 1_455 S
N1072 N1073 1.398 . S
N1073 C1071 1.299 . S
N1073 N1072 1.398 . S
N1074 C1070 1.367 . S
N1074 C1071 1.379 1_655 S
H1075 C1078 0.980 . S
H1076 C1078 0.981 . S
H1077 C1078 0.981 . S
C1078 C1070 1.481 . S
C1078 H1075 0.980 . S
C1078 H1076 0.981 . S
C1078 H1077 0.981 . S
C1079 C1066 1.481 . S
C1079 H1080 0.980 . S
C1079 H1081 0.981 . S
C1079 H1082 0.981 . S
H1080 C1079 0.980 . S
H1081 C1079 0.981 . S
H1082 C1079 0.981 . S
O1083 Zn1059 2.066 . S
O1083 C1062 1.256 . S
O1084 Zn1056 2.053 . S
O1084 C1062 1.244 . S
C1085 O1063 1.259 . S
C1085 O1064 1.254 . S
O1086 Zn1056 2.066 . S
O1086 C1058 1.256 . S
O1087 C1058 1.244 . S
O1087 Zn1059 2.053 . S
Zn1088 O1089 2.055 . S
Zn1088 O1096 2.046 . S
Zn1088 N1104 2.036 . S
Zn1088 O1116 2.053 . S
Zn1088 O1118 2.066 . S
O1089 Zn1088 2.055 . S
O1089 C1092 1.259 . S
C1090 O1118 1.256 . S
C1090 O1119 1.244 . S
Zn1091 O1093 2.046 . S
Zn1091 O1095 2.055 . S
Zn1091 N1097 2.036 . S
Zn1091 O1115 2.066 . S
Zn1091 O1119 2.053 . S
C1092 O1089 1.259 . S
C1092 O1093 1.254 . S
O1093 Zn1091 2.046 . S
O1093 C1092 1.254 . S
C1094 O1115 1.256 . S
C1094 O1116 1.244 . S
O1095 Zn1091 2.055 . S
O1095 C1117 1.259 . S
O1096 Zn1088 2.046 . S
O1096 C1117 1.254 . S
N1097 Zn1091 2.036 . S
N1097 C1098 1.298 . S
N1097 N1100 1.398 . S
C1098 N1097 1.298 . S
C1098 N1101 1.367 . S
C1098 C1111 1.481 . S
C1099 N1100 1.299 . S
C1099 N1101 1.379 . S
N1100 N1097 1.398 . S
N1100 C1099 1.299 . S
N1101 C1098 1.367 . S
N1101 C1099 1.379 . S
C1102 N1104 1.298 . S
C1102 N1106 1.367 . S
C1102 C1110 1.481 . S
C1103 N1105 1.299 . S
C1103 N1106 1.379 . S
N1104 Zn1088 2.036 . S
N1104 C1102 1.298 . S
N1104 N1105 1.398 . S
N1105 C1103 1.299 . S
N1105 N1104 1.398 . S
N1106 C1102 1.367 . S
N1106 C1103 1.379 . S
H1107 C1110 0.980 . S
H1108 C1110 0.981 . S
H1109 C1110 0.981 . S
C1110 C1102 1.481 . S
C1110 H1107 0.980 . S
C1110 H1108 0.981 . S
C1110 H1109 0.981 . S
C1111 C1098 1.481 . S
C1111 H1112 0.980 . S
C1111 H1113 0.981 . S
C1111 H1114 0.981 . S
H1112 C1111 0.980 . S
H1113 C1111 0.981 . S
H1114 C1111 0.981 . S
O1115 Zn1091 2.066 . S
O1115 C1094 1.256 . S
O1116 Zn1088 2.053 . S
O1116 C1094 1.244 . S
C1117 O1095 1.259 . S
C1117 O1096 1.254 . S
O1118 Zn1088 2.066 . S
O1118 C1090 1.256 . S
O1119 C1090 1.244 . S
O1119 Zn1091 2.053 . S
Zn1120 O1121 2.055 . S
Zn1120 O1128 2.046 . S
Zn1120 N1136 2.036 . S
Zn1120 O1148 2.053 . S
Zn1120 O1150 2.066 . S
O1121 Zn1120 2.055 . S
O1121 C1124 1.259 . S
C1122 O1150 1.256 . S
C1122 O1151 1.244 . S
Zn1123 O1125 2.046 . S
Zn1123 O1127 2.055 . S
Zn1123 N1129 2.036 . S
Zn1123 O1147 2.066 . S
Zn1123 O1151 2.053 . S
C1124 O1121 1.259 . S
C1124 O1125 1.254 . S
O1125 Zn1123 2.046 . S
O1125 C1124 1.254 . S
C1126 O1147 1.256 . S
C1126 O1148 1.244 . S
O1127 Zn1123 2.055 . S
O1127 C1149 1.259 . S
O1128 Zn1120 2.046 . S
O1128 C1149 1.254 . S
N1129 Zn1123 2.036 . S
N1129 C1130 1.298 . S
N1129 N1132 1.398 . S
C1130 N1129 1.298 . S
C1130 N1133 1.367 . S
C1130 C1143 1.481 . S
C1131 N1132 1.299 . S
C1131 N1133 1.379 . S
N1132 N1129 1.398 . S
N1132 C1131 1.299 . S
N1133 C1130 1.367 . S
N1133 C1131 1.379 . S
C1134 N1136 1.298 1_545 S
C1134 N1138 1.367 . S
C1134 C1142 1.481 . S
C1135 N1137 1.299 . S
C1135 N1138 1.379 1_565 S
N1136 Zn1120 2.036 . S
N1136 C1134 1.298 1_565 S
N1136 N1137 1.398 . S
N1137 C1135 1.299 . S
N1137 N1136 1.398 . S
N1138 C1134 1.367 . S
N1138 C1135 1.379 1_545 S
H1139 C1142 0.980 . S
H1140 C1142 0.981 . S
H1141 C1142 0.981 . S
C1142 C1134 1.481 . S
C1142 H1139 0.980 . S
C1142 H1140 0.981 . S
C1142 H1141 0.981 . S
C1143 C1130 1.481 . S
C1143 H1144 0.980 . S
C1143 H1145 0.981 . S
C1143 H1146 0.981 . S
H1144 C1143 0.980 . S
H1145 C1143 0.981 . S
H1146 C1143 0.981 . S
O1147 Zn1123 2.066 . S
O1147 C1126 1.256 . S
O1148 Zn1120 2.053 . S
O1148 C1126 1.244 . S
C1149 O1127 1.259 . S
C1149 O1128 1.254 . S
O1150 Zn1120 2.066 . S
O1150 C1122 1.256 . S
O1151 C1122 1.244 . S
O1151 Zn1123 2.053 . S
H1152 C1160 0.950 . S
H1153 C1165 0.950 . S
H1154 C1162 0.950 . S
H1155 C1164 0.950 . S
H1156 C1166 0.950 . S
H1157 C1168 0.949 1_545 S
H1158 C1170 0.950 . S
H1159 C1171 0.950 . S
C1160 H1152 0.950 . S
C1160 C1161 1.386 . S
C1160 C1162 1.391 . S
C1161 C1160 1.386 . S
C1161 C1165 1.393 . S
C1162 H1154 0.950 . S
C1162 C1160 1.391 . S
C1162 C1163 1.400 . S
C1163 C1162 1.400 . S
C1163 C1164 1.398 . S
C1163 C1169 1.491 . S
C1164 H1155 0.950 . S
C1164 C1163 1.398 . S
C1164 C1165 1.391 . S
C1165 H1153 0.950 . S
C1165 C1161 1.393 . S
C1165 C1164 1.391 . S
C1166 H1156 0.950 . S
C1166 C1167 1.386 . S
C1166 C1168 1.391 . S
C1167 C1166 1.386 . S
C1167 C1171 1.393 . S
C1168 H1157 0.949 1_565 S
C1168 C1166 1.391 . S
C1168 C1169 1.400 1_565 S
C1169 C1163 1.491 . S
C1169 C1168 1.400 1_545 S
C1169 C1170 1.398 . S
C1170 H1158 0.950 . S
C1170 C1169 1.398 . S
C1170 C1171 1.391 1_545 S
C1171 H1159 0.950 . S
C1171 C1167 1.393 . S
C1171 C1170 1.391 1_565 S
H1172 C1180 0.950 . S
H1173 C1185 0.950 . S
H1174 C1182 0.950 . S
H1175 C1184 0.950 . S
H1176 C1186 0.950 . S
H1177 C1188 0.950 . S
H1178 C1190 0.950 . S
H1179 C1191 0.950 . S
C1180 H1172 0.950 . S
C1180 C1181 1.386 . S
C1180 C1182 1.391 1_455 S
C1181 C1180 1.386 . S
C1181 C1185 1.393 . S
C1182 H1174 0.950 . S
C1182 C1180 1.391 1_655 S
C1182 C1183 1.400 . S
C1183 C1182 1.400 . S
C1183 C1184 1.398 1_655 S
C1183 C1189 1.491 . S
C1184 H1175 0.950 . S
C1184 C1183 1.398 1_455 S
C1184 C1185 1.391 . S
C1185 H1173 0.950 . S
C1185 C1181 1.393 . S
C1185 C1184 1.391 . S
C1186 H1176 0.950 . S
C1186 C1187 1.386 . S
C1186 C1188 1.391 . S
C1187 C1186 1.386 . S
C1187 C1191 1.393 . S
C1188 H1177 0.950 . S
C1188 C1186 1.391 . S
C1188 C1189 1.400 . S
C1189 C1183 1.491 . S
C1189 C1188 1.400 . S
C1189 C1190 1.398 . S
C1190 H1178 0.950 . S
C1190 C1189 1.398 . S
C1190 C1191 1.391 . S
C1191 H1179 0.950 . S
C1191 C1187 1.393 . S
C1191 C1190 1.391 . S
H1192 C1200 0.950 . S
H1193 C1205 0.950 . S
H1194 C1202 0.950 . S
H1195 C1204 0.950 . S
H1196 C1206 0.950 . S
H1197 C1208 0.950 . S
H1198 C1210 0.950 . S
H1199 C1211 0.950 . S
C1200 H1192 0.950 . S
C1200 C1201 1.386 . S
C1200 C1202 1.391 . S
C1201 C1200 1.386 . S
C1201 C1205 1.393 . S
C1202 H1194 0.950 . S
C1202 C1200 1.391 . S
C1202 C1203 1.400 . S
C1203 C1202 1.400 . S
C1203 C1204 1.398 . S
C1203 C1209 1.491 . S
C1204 H1195 0.950 . S
C1204 C1203 1.398 . S
C1204 C1205 1.391 . S
C1205 H1193 0.950 . S
C1205 C1201 1.393 . S
C1205 C1204 1.391 . S
C1206 H1196 0.950 . S
C1206 C1207 1.386 . S
C1206 C1208 1.391 . S
C1207 C1206 1.386 . S
C1207 C1211 1.393 . S
C1208 H1197 0.950 . S
C1208 C1206 1.391 . S
C1208 C1209 1.400 . S
C1209 C1203 1.491 . S
C1209 C1208 1.400 . S
C1209 C1210 1.398 . S
C1210 H1198 0.950 . S
C1210 C1209 1.398 . S
C1210 C1211 1.391 . S
C1211 H1199 0.950 . S
C1211 C1207 1.393 . S
C1211 C1210 1.391 . S
H1212 C1220 0.950 . S
H1213 C1225 0.950 . S
H1214 C1222 0.950 . S
H1215 C1224 0.950 . S
H1216 C1226 0.950 . S
H1217 C1228 0.950 . S
H1218 C1230 0.950 . S
H1219 C1231 0.950 . S
C1220 H1212 0.950 . S
C1220 C1221 1.386 . S
C1220 C1222 1.391 . S
C1221 C1220 1.386 . S
C1221 C1225 1.393 . S
C1222 H1214 0.950 . S
C1222 C1220 1.391 . S
C1222 C1223 1.400 . S
C1223 C1222 1.400 . S
C1223 C1224 1.398 . S
C1223 C1229 1.491 . S
C1224 H1215 0.950 . S
C1224 C1223 1.398 . S
C1224 C1225 1.391 . S
C1225 H1213 0.950 . S
C1225 C1221 1.393 . S
C1225 C1224 1.391 . S
C1226 H1216 0.950 . S
C1226 C1227 1.386 . S
C1226 C1228 1.391 1_655 S
C1227 C1226 1.386 . S
C1227 C1231 1.393 . S
C1228 H1217 0.950 . S
C1228 C1226 1.391 1_455 S
C1228 C1229 1.400 . S
C1229 C1223 1.491 . S
C1229 C1228 1.400 . S
C1229 C1230 1.398 1_455 S
C1230 H1218 0.950 . S
C1230 C1229 1.398 1_655 S
C1230 C1231 1.391 . S
C1231 H1219 0.950 . S
C1231 C1227 1.393 . S
C1231 C1230 1.391 . S
H1232 C1240 0.950 . S
H1233 C1245 0.950 . S
H1234 C1242 0.950 . S
H1235 C1244 0.950 . S
H1236 C1246 0.950 . S
H1237 C1248 0.950 . S
H1238 C1250 0.950 . S
H1239 C1251 0.950 . S
C1240 H1232 0.950 . S
C1240 C1241 1.386 . S
C1240 C1242 1.391 . S
C1241 C1240 1.386 . S
C1241 C1245 1.393 . S
C1242 H1234 0.950 . S
C1242 C1240 1.391 . S
C1242 C1243 1.400 . S
C1243 C1242 1.400 . S
C1243 C1244 1.398 . S
C1243 C1249 1.491 . S
C1244 H1235 0.950 . S
C1244 C1243 1.398 . S
C1244 C1245 1.391 . S
C1245 H1233 0.950 . S
C1245 C1241 1.393 . S
C1245 C1244 1.391 . S
C1246 H1236 0.950 . S
C1246 C1247 1.386 . S
C1246 C1248 1.391 . S
C1247 C1246 1.386 . S
C1247 C1251 1.393 . S
C1248 H1237 0.950 . S
C1248 C1246 1.391 . S
C1248 C1249 1.400 . S
C1249 C1243 1.491 . S
C1249 C1248 1.400 . S
C1249 C1250 1.398 . S
C1250 H1238 0.950 . S
C1250 C1249 1.398 . S
C1250 C1251 1.391 . S
C1251 H1239 0.950 . S
C1251 C1247 1.393 . S
C1251 C1250 1.391 . S
H1252 C1260 0.950 . S
H1253 C1265 0.950 . S
H1254 C1262 0.950 . S
H1255 C1264 0.950 . S
H1256 C1266 0.950 . S
H1257 C1268 0.940 . S
H1258 C1270 0.950 . S
H1259 C1271 0.950 . S
C1260 H1252 0.950 . S
C1260 C1261 1.386 . S
C1260 C1262 1.391 . S
C1261 C1260 1.386 . S
C1261 C1265 1.393 . S
C1262 H1254 0.950 . S
C1262 C1260 1.391 . S
C1262 C1263 1.400 . S
C1263 C1262 1.400 . S
C1263 C1264 1.398 . S
C1263 C1269 1.491 . S
C1264 H1255 0.950 . S
C1264 C1263 1.398 . S
C1264 C1265 1.391 . S
C1265 H1253 0.950 . S
C1265 C1261 1.393 . S
C1265 C1264 1.391 . S
C1266 H1256 0.950 . S
C1266 C1267 1.386 . S
C1266 C1268 1.391 . S
C1267 C1266 1.386 . S
C1267 C1271 1.393 . S
C1268 H1257 0.940 . S
C1268 C1266 1.391 . S
C1268 C1269 1.400 1_545 S
C1269 C1263 1.491 . S
C1269 C1268 1.400 1_565 S
C1269 C1270 1.398 . S
C1270 H1258 0.950 . S
C1270 C1269 1.398 . S
C1270 C1271 1.391 1_565 S
C1271 H1259 0.950 . S
C1271 C1267 1.393 . S
C1271 C1270 1.391 1_545 S
H1272 C1280 0.950 . S
H1273 C1285 0.950 . S
H1274 C1282 0.950 . S
H1275 C1284 0.950 . S
H1276 C1286 0.950 . S
H1277 C1288 0.950 . S
H1278 C1290 0.950 . S
H1279 C1291 0.950 . S
C1280 H1272 0.950 . S
C1280 C1281 1.386 . S
C1280 C1282 1.391 . S
C1281 C1280 1.386 . S
C1281 C1285 1.393 . S
C1282 H1274 0.950 . S
C1282 C1280 1.391 . S
C1282 C1283 1.400 . S
C1283 C1282 1.400 . S
C1283 C1284 1.398 . S
C1283 C1289 1.491 . S
C1284 H1275 0.950 . S
C1284 C1283 1.398 . S
C1284 C1285 1.391 . S
C1285 H1273 0.950 . S
C1285 C1281 1.393 . S
C1285 C1284 1.391 . S
C1286 H1276 0.950 . S
C1286 C1287 1.386 . S
C1286 C1288 1.391 . S
C1287 C1286 1.386 . S
C1287 C1291 1.393 . S
C1288 H1277 0.950 . S
C1288 C1286 1.391 . S
C1288 C1289 1.400 . S
C1289 C1283 1.491 . S
C1289 C1288 1.400 . S
C1289 C1290 1.398 . S
C1290 H1278 0.950 . S
C1290 C1289 1.398 . S
C1290 C1291 1.391 . S
C1291 H1279 0.950 . S
C1291 C1287 1.393 . S
C1291 C1290 1.391 . S
H1292 C1300 0.950 . S
H1293 C1305 0.950 . S
H1294 C1302 0.950 . S
H1295 C1304 0.950 . S
H1296 C1306 0.950 . S
H1297 C1308 0.950 . S
H1298 C1310 0.950 . S
H1299 C1311 0.950 . S
C1300 H1292 0.950 . S
C1300 C1301 1.386 . S
C1300 C1302 1.391 . S
C1301 C1300 1.386 . S
C1301 C1305 1.393 . S
C1302 H1294 0.950 . S
C1302 C1300 1.391 . S
C1302 C1303 1.400 . S
C1303 C1302 1.400 . S
C1303 C1304 1.398 . S
C1303 C1309 1.491 1_545 S
C1304 H1295 0.950 . S
C1304 C1303 1.398 . S
C1304 C1305 1.391 . S
C1305 H1293 0.950 . S
C1305 C1301 1.393 . S
C1305 C1304 1.391 . S
C1306 H1296 0.950 . S
C1306 C1307 1.386 . S
C1306 C1308 1.391 . S
C1307 C1306 1.386 . S
C1307 C1311 1.393 . S
C1308 H1297 0.950 . S
C1308 C1306 1.391 . S
C1308 C1309 1.400 . S
C1309 C1303 1.491 1_565 S
C1309 C1308 1.400 . S
C1309 C1310 1.398 . S
C1310 H1298 0.950 . S
C1310 C1309 1.398 . S
C1310 C1311 1.391 . S
C1311 H1299 0.950 . S
C1311 C1307 1.393 . S
C1311 C1310 1.391 . S
H1312 C1320 0.950 . S
H1313 C1325 0.950 . S
H1314 C1322 0.950 . S
H1315 C1324 0.950 . S
H1316 C1326 0.950 . S
H1317 C1328 0.950 . S
H1318 C1330 0.950 . S
H1319 C1331 0.950 . S
C1320 H1312 0.950 . S
C1320 C1321 1.386 . S
C1320 C1322 1.391 . S
C1321 C1320 1.386 . S
C1321 C1325 1.393 . S
C1322 H1314 0.950 . S
C1322 C1320 1.391 . S
C1322 C1323 1.400 . S
C1323 C1322 1.400 . S
C1323 C1324 1.398 . S
C1323 C1329 1.491 1_655 S
C1324 H1315 0.950 . S
C1324 C1323 1.398 . S
C1324 C1325 1.391 . S
C1325 H1313 0.950 . S
C1325 C1321 1.393 . S
C1325 C1324 1.391 . S
C1326 H1316 0.950 . S
C1326 C1327 1.386 . S
C1326 C1328 1.391 . S
C1327 C1326 1.386 . S
C1327 C1331 1.393 . S
C1328 H1317 0.950 . S
C1328 C1326 1.391 . S
C1328 C1329 1.400 . S
C1329 C1323 1.491 1_455 S
C1329 C1328 1.400 . S
C1329 C1330 1.398 . S
C1330 H1318 0.950 . S
C1330 C1329 1.398 . S
C1330 C1331 1.391 . S
C1331 H1319 0.950 . S
C1331 C1327 1.393 . S
C1331 C1330 1.391 . S
H1332 C1340 0.950 . S
H1333 C1345 0.950 . S
H1334 C1342 0.950 . S
H1335 C1344 0.950 . S
H1336 C1346 0.950 . S
H1337 C1348 0.950 . S
H1338 C1350 0.950 . S
H1339 C1351 0.950 . S
C1340 H1332 0.950 . S
C1340 C1341 1.386 . S
C1340 C1342 1.391 . S
C1341 C1340 1.386 . S
C1341 C1345 1.393 . S
C1342 H1334 0.950 . S
C1342 C1340 1.391 . S
C1342 C1343 1.400 . S
C1343 C1342 1.400 . S
C1343 C1344 1.398 . S
C1343 C1349 1.491 . S
C1344 H1335 0.950 . S
C1344 C1343 1.398 . S
C1344 C1345 1.391 . S
C1345 H1333 0.950 . S
C1345 C1341 1.393 . S
C1345 C1344 1.391 . S
C1346 H1336 0.950 . S
C1346 C1347 1.386 . S
C1346 C1348 1.391 . S
C1347 C1346 1.386 . S
C1347 C1351 1.393 . S
C1348 H1337 0.950 . S
C1348 C1346 1.391 . S
C1348 C1349 1.400 . S
C1349 C1343 1.491 . S
C1349 C1348 1.400 . S
C1349 C1350 1.398 . S
C1350 H1338 0.950 . S
C1350 C1349 1.398 . S
C1350 C1351 1.391 . S
C1351 H1339 0.950 . S
C1351 C1347 1.393 . S
C1351 C1350 1.391 . S
H1352 C1360 0.950 . S
H1353 C1365 0.950 . S
H1354 C1362 0.950 . S
H1355 C1364 0.950 . S
H1356 C1366 0.950 . S
H1357 C1368 0.950 . S
H1358 C1370 0.950 . S
H1359 C1371 0.950 . S
C1360 H1352 0.950 . S
C1360 C1361 1.386 . S
C1360 C1362 1.391 . S
C1361 C1360 1.386 . S
C1361 C1365 1.393 . S
C1362 H1354 0.950 . S
C1362 C1360 1.391 . S
C1362 C1363 1.400 . S
C1363 C1362 1.400 . S
C1363 C1364 1.398 . S
C1363 C1369 1.491 1_545 S
C1364 H1355 0.950 . S
C1364 C1363 1.398 . S
C1364 C1365 1.391 . S
C1365 H1353 0.950 . S
C1365 C1361 1.393 . S
C1365 C1364 1.391 . S
C1366 H1356 0.950 . S
C1366 C1367 1.386 . S
C1366 C1368 1.391 . S
C1367 C1366 1.386 . S
C1367 C1371 1.393 . S
C1368 H1357 0.950 . S
C1368 C1366 1.391 . S
C1368 C1369 1.400 . S
C1369 C1363 1.491 1_565 S
C1369 C1368 1.400 . S
C1369 C1370 1.398 . S
C1370 H1358 0.950 . S
C1370 C1369 1.398 . S
C1370 C1371 1.391 . S
C1371 H1359 0.950 . S
C1371 C1367 1.393 . S
C1371 C1370 1.391 . S
H1372 C1380 0.950 . S
H1373 C1385 0.950 . S
H1374 C1382 0.950 . S
H1375 C1384 0.950 . S
H1376 C1386 0.950 . S
H1377 C1388 0.950 . S
H1378 C1390 0.950 . S
H1379 C1391 0.950 . S
C1380 H1372 0.950 . S
C1380 C1381 1.386 . S
C1380 C1382 1.391 . S
C1381 C1380 1.386 . S
C1381 C1385 1.393 . S
C1382 H1374 0.950 . S
C1382 C1380 1.391 . S
C1382 C1383 1.400 . S
C1383 C1382 1.400 . S
C1383 C1384 1.398 . S
C1383 C1389 1.491 1_655 S
C1384 H1375 0.950 . S
C1384 C1383 1.398 . S
C1384 C1385 1.391 . S
C1385 H1373 0.950 . S
C1385 C1381 1.393 . S
C1385 C1384 1.391 . S
C1386 H1376 0.950 . S
C1386 C1387 1.386 . S
C1386 C1388 1.391 . S
C1387 C1386 1.386 . S
C1387 C1391 1.393 . S
C1388 H1377 0.950 . S
C1388 C1386 1.391 . S
C1388 C1389 1.400 . S
C1389 C1383 1.491 1_455 S
C1389 C1388 1.400 . S
C1389 C1390 1.398 . S
C1390 H1378 0.950 . S
C1390 C1389 1.398 . S
C1390 C1391 1.391 . S
C1391 H1379 0.950 . S
C1391 C1387 1.393 . S
C1391 C1390 1.391 . S
H1392 C1400 0.950 . S
H1393 C1405 0.950 . S
H1394 C1402 0.950 . S
H1395 C1404 0.950 . S
H1396 C1406 0.950 . S
H1397 C1408 0.950 . S
H1398 C1410 0.950 . S
H1399 C1411 0.950 . S
C1400 H1392 0.950 . S
C1400 C1401 1.386 . S
C1400 C1402 1.391 . S
C1401 C1400 1.386 . S
C1401 C1405 1.393 . S
C1402 H1394 0.950 . S
C1402 C1400 1.391 . S
C1402 C1403 1.400 . S
C1403 C1402 1.400 . S
C1403 C1404 1.398 . S
C1403 C1409 1.491 . S
C1404 H1395 0.950 . S
C1404 C1403 1.398 . S
C1404 C1405 1.391 . S
C1405 H1393 0.950 . S
C1405 C1401 1.393 . S
C1405 C1404 1.391 . S
C1406 H1396 0.950 . S
C1406 C1407 1.386 . S
C1406 C1408 1.391 . S
C1407 C1406 1.386 . S
C1407 C1411 1.393 . S
C1408 H1397 0.950 . S
C1408 C1406 1.391 . S
C1408 C1409 1.400 . S
C1409 C1403 1.491 . S
C1409 C1408 1.400 . S
C1409 C1410 1.398 . S
C1410 H1398 0.950 . S
C1410 C1409 1.398 . S
C1410 C1411 1.391 . S
C1411 H1399 0.950 . S
C1411 C1407 1.393 . S
C1411 C1410 1.391 . S
H1412 C1420 0.950 . S
H1413 C1425 0.950 . S
H1414 C1422 0.950 . S
H1415 C1424 0.950 . S
H1416 C1426 0.950 . S
H1417 C1428 0.950 . S
H1418 C1430 0.950 . S
H1419 C1431 0.950 . S
C1420 H1412 0.950 . S
C1420 C1421 1.386 . S
C1420 C1422 1.391 . S
C1421 C1420 1.386 . S
C1421 C1425 1.393 . S
C1422 H1414 0.950 . S
C1422 C1420 1.391 . S
C1422 C1423 1.400 . S
C1423 C1422 1.400 . S
C1423 C1424 1.398 . S
C1423 C1429 1.491 . S
C1424 H1415 0.950 . S
C1424 C1423 1.398 . S
C1424 C1425 1.391 . S
C1425 H1413 0.950 . S
C1425 C1421 1.393 . S
C1425 C1424 1.391 . S
C1426 H1416 0.950 . S
C1426 C1427 1.386 . S
C1426 C1428 1.391 . S
C1427 C1426 1.386 . S
C1427 C1431 1.393 . S
C1428 H1417 0.950 . S
C1428 C1426 1.391 . S
C1428 C1429 1.400 . S
C1429 C1423 1.491 . S
C1429 C1428 1.400 . S
C1429 C1430 1.398 . S
C1430 H1418 0.950 . S
C1430 C1429 1.398 . S
C1430 C1431 1.391 . S
C1431 H1419 0.950 . S
C1431 C1427 1.393 . S
C1431 C1430 1.391 . S
H1432 C1440 0.950 . S
H1433 C1445 0.950 . S
H1434 C1442 0.950 . S
H1435 C1444 0.950 . S
H1436 C1446 0.950 . S
H1437 C1448 0.950 . S
H1438 C1450 0.950 . S
H1439 C1451 0.950 . S
C1440 H1432 0.950 . S
C1440 C1441 1.386 . S
C1440 C1442 1.391 . S
C1441 C1440 1.386 . S
C1441 C1445 1.393 . S
C1442 H1434 0.950 . S
C1442 C1440 1.391 . S
C1442 C1443 1.400 . S
C1443 C1442 1.400 . S
C1443 C1444 1.398 . S
C1443 C1449 1.491 . S
C1444 H1435 0.950 . S
C1444 C1443 1.398 . S
C1444 C1445 1.391 . S
C1445 H1433 0.950 . S
C1445 C1441 1.393 . S
C1445 C1444 1.391 . S
C1446 H1436 0.950 . S
C1446 C1447 1.386 . S
C1446 C1448 1.391 . S
C1447 C1446 1.386 . S
C1447 C1451 1.393 . S
C1448 H1437 0.950 . S
C1448 C1446 1.391 . S
C1448 C1449 1.400 . S
C1449 C1443 1.491 . S
C1449 C1448 1.400 . S
C1449 C1450 1.398 . S
C1450 H1438 0.950 . S
C1450 C1449 1.398 . S
C1450 C1451 1.391 . S
C1451 H1439 0.950 . S
C1451 C1447 1.393 . S
C1451 C1450 1.391 . S
H1452 C1460 0.950 . S
H1453 C1465 0.950 . S
H1454 C1462 0.950 . S
H1455 C1464 0.950 . S
H1456 C1466 0.950 . S
H1457 C1468 0.950 . S
H1458 C1470 0.950 . S
H1459 C1471 0.950 . S
C1460 H1452 0.950 . S
C1460 C1461 1.386 . S
C1460 C1462 1.391 . S
C1461 C1460 1.386 . S
C1461 C1465 1.393 . S
C1462 H1454 0.950 . S
C1462 C1460 1.391 . S
C1462 C1463 1.400 . S
C1463 C1462 1.400 . S
C1463 C1464 1.398 . S
C1463 C1469 1.491 . S
C1464 H1455 0.950 . S
C1464 C1463 1.398 . S
C1464 C1465 1.391 . S
C1465 H1453 0.950 . S
C1465 C1461 1.393 . S
C1465 C1464 1.391 . S
C1466 H1456 0.950 . S
C1466 C1467 1.386 . S
C1466 C1468 1.391 . S
C1467 C1466 1.386 . S
C1467 C1471 1.393 . S
C1468 H1457 0.950 . S
C1468 C1466 1.391 . S
C1468 C1469 1.400 . S
C1469 C1463 1.491 . S
C1469 C1468 1.400 . S
C1469 C1470 1.398 . S
C1470 H1458 0.950 . S
C1470 C1469 1.398 . S
C1470 C1471 1.391 . S
C1471 H1459 0.950 . S
C1471 C1467 1.393 . S
C1471 C1470 1.391 . S
H1472 C1480 0.950 . S
H1473 C1485 0.950 . S
H1474 C1482 0.950 . S
H1475 C1484 0.950 . S
H1476 C1486 0.950 . S
H1477 C1488 0.950 . S
H1478 C1490 0.950 . S
H1479 C1491 0.950 . S
C1480 H1472 0.950 . S
C1480 C1481 1.386 . S
C1480 C1482 1.391 . S
C1481 C1480 1.386 . S
C1481 C1485 1.393 . S
C1482 H1474 0.950 . S
C1482 C1480 1.391 . S
C1482 C1483 1.400 . S
C1483 C1482 1.400 . S
C1483 C1484 1.398 . S
C1483 C1489 1.491 . S
C1484 H1475 0.950 . S
C1484 C1483 1.398 . S
C1484 C1485 1.391 . S
C1485 H1473 0.950 . S
C1485 C1481 1.393 . S
C1485 C1484 1.391 . S
C1486 H1476 0.950 . S
C1486 C1487 1.386 . S
C1486 C1488 1.391 . S
C1487 C1486 1.386 . S
C1487 C1491 1.393 . S
C1488 H1477 0.950 . S
C1488 C1486 1.391 . S
C1488 C1489 1.400 . S
C1489 C1483 1.491 . S
C1489 C1488 1.400 . S
C1489 C1490 1.398 . S
C1490 H1478 0.950 . S
C1490 C1489 1.398 . S
C1490 C1491 1.391 . S
C1491 H1479 0.950 . S
C1491 C1487 1.393 . S
C1491 C1490 1.391 . S
H1492 C1500 0.950 . S
H1493 C1505 0.950 . S
H1494 C1502 0.950 . S
H1495 C1504 0.950 . S
H1496 C1506 0.950 . S
H1497 C1508 0.950 . S
H1498 C1510 0.950 . S
H1499 C1511 0.950 . S
C1500 H1492 0.950 . S
C1500 C1501 1.386 . S
C1500 C1502 1.391 . S
C1501 C1500 1.386 . S
C1501 C1505 1.393 . S
C1502 H1494 0.950 . S
C1502 C1500 1.391 . S
C1502 C1503 1.400 . S
C1503 C1502 1.400 . S
C1503 C1504 1.398 . S
C1503 C1509 1.491 . S
C1504 H1495 0.950 . S
C1504 C1503 1.398 . S
C1504 C1505 1.391 . S
C1505 H1493 0.950 . S
C1505 C1501 1.393 . S
C1505 C1504 1.391 . S
C1506 H1496 0.950 . S
C1506 C1507 1.386 . S
C1506 C1508 1.391 . S
C1507 C1506 1.386 . S
C1507 C1511 1.393 . S
C1508 H1497 0.950 . S
C1508 C1506 1.391 . S
C1508 C1509 1.400 . S
C1509 C1503 1.491 . S
C1509 C1508 1.400 . S
C1509 C1510 1.398 . S
C1510 H1498 0.950 . S
C1510 C1509 1.398 . S
C1510 C1511 1.391 . S
C1511 H1499 0.950 . S
C1511 C1507 1.393 . S
C1511 C1510 1.391 . S
H1512 C1520 0.950 . S
H1513 C1525 0.950 . S
H1514 C1522 0.950 . S
H1515 C1524 0.950 . S
H1516 C1526 0.950 . S
H1517 C1528 0.950 . S
H1518 C1530 0.950 . S
H1519 C1531 0.950 . S
C1520 H1512 0.950 . S
C1520 C1521 1.386 . S
C1520 C1522 1.391 . S
C1521 C1520 1.386 . S
C1521 C1525 1.393 . S
C1522 H1514 0.950 . S
C1522 C1520 1.391 . S
C1522 C1523 1.400 . S
C1523 C1522 1.400 . S
C1523 C1524 1.398 . S
C1523 C1529 1.491 . S
C1524 H1515 0.950 . S
C1524 C1523 1.398 . S
C1524 C1525 1.391 . S
C1525 H1513 0.950 . S
C1525 C1521 1.393 . S
C1525 C1524 1.391 . S
C1526 H1516 0.950 . S
C1526 C1527 1.386 . S
C1526 C1528 1.391 . S
C1527 C1526 1.386 . S
C1527 C1531 1.393 . S
C1528 H1517 0.950 . S
C1528 C1526 1.391 . S
C1528 C1529 1.400 . S
C1529 C1523 1.491 . S
C1529 C1528 1.400 . S
C1529 C1530 1.398 . S
C1530 H1518 0.950 . S
C1530 C1529 1.398 . S
C1530 C1531 1.391 . S
C1531 H1519 0.950 . S
C1531 C1527 1.393 . S
C1531 C1530 1.391 . S
H1532 C1540 0.950 . S
H1533 C1545 0.950 . S
H1534 C1542 0.950 . S
H1535 C1544 0.950 . S
H1536 C1546 0.950 . S
H1537 C1548 0.950 . S
H1538 C1550 0.950 . S
H1539 C1551 0.950 . S
C1540 H1532 0.950 . S
C1540 C1541 1.386 . S
C1540 C1542 1.391 . S
C1541 C1540 1.386 . S
C1541 C1545 1.393 . S
C1542 H1534 0.950 . S
C1542 C1540 1.391 . S
C1542 C1543 1.400 . S
C1543 C1542 1.400 . S
C1543 C1544 1.398 . S
C1543 C1549 1.491 . S
C1544 H1535 0.950 . S
C1544 C1543 1.398 . S
C1544 C1545 1.391 . S
C1545 H1533 0.950 . S
C1545 C1541 1.393 . S
C1545 C1544 1.391 . S
C1546 H1536 0.950 . S
C1546 C1547 1.386 . S
C1546 C1548 1.391 . S
C1547 C1546 1.386 . S
C1547 C1551 1.393 . S
C1548 H1537 0.950 . S
C1548 C1546 1.391 . S
C1548 C1549 1.400 . S
C1549 C1543 1.491 . S
C1549 C1548 1.400 . S
C1549 C1550 1.398 . S
C1550 H1538 0.950 . S
C1550 C1549 1.398 . S
C1550 C1551 1.391 . S
C1551 H1539 0.950 . S
C1551 C1547 1.393 . S
C1551 C1550 1.391 . S
H1552 C1560 0.950 . S
H1553 C1565 0.950 . S
H1554 C1562 0.950 . S
H1555 C1564 0.950 . S
H1556 C1566 0.950 . S
H1557 C1568 0.950 . S
H1558 C1570 0.950 . S
H1559 C1571 0.950 . S
C1560 H1552 0.950 . S
C1560 C1561 1.386 . S
C1560 C1562 1.391 . S
C1561 C1560 1.386 . S
C1561 C1565 1.393 . S
C1562 H1554 0.950 . S
C1562 C1560 1.391 . S
C1562 C1563 1.400 . S
C1563 C1562 1.400 . S
C1563 C1564 1.398 . S
C1563 C1569 1.491 . S
C1564 H1555 0.950 . S
C1564 C1563 1.398 . S
C1564 C1565 1.391 . S
C1565 H1553 0.950 . S
C1565 C1561 1.393 . S
C1565 C1564 1.391 . S
C1566 H1556 0.950 . S
C1566 C1567 1.386 . S
C1566 C1568 1.391 . S
C1567 C1566 1.386 . S
C1567 C1571 1.393 . S
C1568 H1557 0.950 . S
C1568 C1566 1.391 . S
C1568 C1569 1.400 . S
C1569 C1563 1.491 . S
C1569 C1568 1.400 . S
C1569 C1570 1.398 . S
C1570 H1558 0.950 . S
C1570 C1569 1.398 . S
C1570 C1571 1.391 . S
C1571 H1559 0.950 . S
C1571 C1567 1.393 . S
C1571 C1570 1.391 . S
H1572 C1580 0.950 . S
H1573 C1585 0.950 . S
H1574 C1582 0.950 . S
H1575 C1584 0.950 . S
H1576 C1586 0.950 . S
H1577 C1588 0.950 . S
H1578 C1590 0.950 . S
H1579 C1591 0.950 . S
C1580 H1572 0.950 . S
C1580 C1581 1.386 1_554 S
C1580 C1582 1.391 . S
C1581 C1580 1.386 1_556 S
C1581 C1585 1.393 . S
C1582 H1574 0.950 . S
C1582 C1580 1.391 . S
C1582 C1583 1.400 1_554 S
C1583 C1582 1.400 1_556 S
C1583 C1584 1.398 . S
C1583 C1589 1.491 . S
C1584 H1575 0.950 . S
C1584 C1583 1.398 . S
C1584 C1585 1.391 . S
C1585 H1573 0.950 . S
C1585 C1581 1.393 . S
C1585 C1584 1.391 . S
C1586 H1576 0.950 . S
C1586 C1587 1.369 1_556 S
C1586 C1588 1.391 . S
C1587 C1586 1.369 1_554 S
C1587 C1591 1.407 . S
C1588 H1577 0.950 . S
C1588 C1586 1.391 . S
C1588 C1589 1.400 . S
C1589 C1583 1.491 . S
C1589 C1588 1.400 . S
C1589 C1590 1.398 1_556 S
C1590 H1578 0.950 . S
C1590 C1589 1.398 1_554 S
C1590 C1591 1.391 . S
C1591 H1579 0.950 . S
C1591 C1587 1.407 . S
C1591 C1590 1.391 . S
H1592 C1600 0.950 . S
H1593 C1605 0.950 . S
H1594 C1602 0.950 . S
H1595 C1604 0.954 . S
H1596 C1606 0.950 . S
H1597 C1608 0.950 . S
H1598 C1610 0.950 . S
H1599 C1611 0.950 . S
C1600 H1592 0.950 . S
C1600 C1601 1.375 1_556 S
C1600 C1602 1.391 . S
C1601 C1600 1.375 1_554 S
C1601 C1605 1.399 . S
C1602 H1594 0.950 . S
C1602 C1600 1.391 . S
C1602 C1603 1.400 . S
C1603 C1602 1.400 . S
C1603 C1604 1.391 1_556 S
C1603 C1609 1.491 . S
C1604 H1595 0.954 . S
C1604 C1603 1.391 1_554 S
C1604 C1605 1.394 . S
C1605 H1593 0.950 . S
C1605 C1601 1.399 . S
C1605 C1604 1.394 . S
C1606 H1596 0.950 . S
C1606 C1607 1.386 . S
C1606 C1608 1.391 . S
C1607 C1606 1.386 . S
C1607 C1611 1.393 . S
C1608 H1597 0.950 . S
C1608 C1606 1.391 . S
C1608 C1609 1.400 . S
C1609 C1603 1.491 . S
C1609 C1608 1.400 . S
C1609 C1610 1.398 . S
C1610 H1598 0.950 . S
C1610 C1609 1.398 . S
C1610 C1611 1.391 . S
C1611 H1599 0.950 . S
C1611 C1607 1.393 . S
C1611 C1610 1.391 . S
H1612 C1620 0.950 1_554 S
H1613 C1625 0.950 . S
H1614 C1622 0.935 1_554 S
H1615 C1624 0.950 . S
H1616 C1626 0.950 . S
H1617 C1628 0.950 . S
H1618 C1630 0.950 . S
H1619 C1631 0.950 . S
C1620 H1612 0.950 1_556 S
C1620 C1621 1.386 . S
C1620 C1622 1.395 . S
C1621 C1620 1.386 . S
C1621 C1625 1.393 . S
C1622 H1614 0.935 1_556 S
C1622 C1620 1.395 . S
C1622 C1623 1.411 . S
C1623 C1622 1.411 . S
C1623 C1624 1.398 . S
C1623 C1629 1.491 . S
C1624 H1615 0.950 . S
C1624 C1623 1.398 . S
C1624 C1625 1.391 . S
C1625 H1613 0.950 . S
C1625 C1621 1.393 . S
C1625 C1624 1.391 . S
C1626 H1616 0.950 . S
C1626 C1627 1.364 1_556 S
C1626 C1628 1.391 . S
C1627 C1626 1.364 1_554 S
C1627 C1631 1.410 . S
C1628 H1617 0.950 . S
C1628 C1626 1.391 . S
C1628 C1629 1.400 . S
C1629 C1623 1.491 . S
C1629 C1628 1.400 . S
C1629 C1630 1.398 1_556 S
C1630 H1618 0.950 . S
C1630 C1629 1.398 1_554 S
C1630 C1631 1.391 . S
C1631 H1619 0.950 . S
C1631 C1627 1.410 . S
C1631 C1630 1.391 . S
H1632 C1640 0.950 . S
H1633 C1645 0.950 . S
H1634 C1642 0.950 . S
H1635 C1644 0.950 . S
H1636 C1646 0.950 . S
H1637 C1648 0.950 . S
H1638 C1650 0.950 . S
H1639 C1651 0.950 . S
C1640 H1632 0.950 . S
C1640 C1641 1.386 . S
C1640 C1642 1.391 . S
C1641 C1640 1.386 . S
C1641 C1645 1.393 . S
C1642 H1634 0.950 . S
C1642 C1640 1.391 . S
C1642 C1643 1.400 . S
C1643 C1642 1.400 . S
C1643 C1644 1.398 . S
C1643 C1649 1.491 . S
C1644 H1635 0.950 . S
C1644 C1643 1.398 . S
C1644 C1645 1.391 . S
C1645 H1633 0.950 . S
C1645 C1641 1.393 . S
C1645 C1644 1.391 . S
C1646 H1636 0.950 . S
C1646 C1647 1.386 . S
C1646 C1648 1.391 . S
C1647 C1646 1.386 . S
C1647 C1651 1.393 . S
C1648 H1637 0.950 . S
C1648 C1646 1.391 . S
C1648 C1649 1.400 . S
C1649 C1643 1.491 . S
C1649 C1648 1.400 . S
C1649 C1650 1.398 . S
C1650 H1638 0.950 . S
C1650 C1649 1.398 . S
C1650 C1651 1.391 . S
C1651 H1639 0.950 . S
C1651 C1647 1.393 . S
C1651 C1650 1.391 . S
H1652 C1660 0.950 . S
H1653 C1665 0.950 . S
H1654 C1662 0.950 . S
H1655 C1664 0.950 . S
H1656 C1666 0.950 . S
H1657 C1668 0.950 . S
H1658 C1670 0.950 . S
H1659 C1671 0.950 . S
C1660 H1652 0.950 . S
C1660 C1661 1.386 . S
C1660 C1662 1.391 . S
C1661 C1660 1.386 . S
C1661 C1665 1.393 . S
C1662 H1654 0.950 . S
C1662 C1660 1.391 . S
C1662 C1663 1.400 . S
C1663 C1662 1.400 . S
C1663 C1664 1.398 . S
C1663 C1669 1.491 . S
C1664 H1655 0.950 . S
C1664 C1663 1.398 . S
C1664 C1665 1.391 . S
C1665 H1653 0.950 . S
C1665 C1661 1.393 . S
C1665 C1664 1.391 . S
C1666 H1656 0.950 . S
C1666 C1667 1.386 . S
C1666 C1668 1.391 . S
C1667 C1666 1.386 . S
C1667 C1671 1.393 . S
C1668 H1657 0.950 . S
C1668 C1666 1.391 . S
C1668 C1669 1.400 . S
C1669 C1663 1.491 . S
C1669 C1668 1.400 . S
C1669 C1670 1.398 . S
C1670 H1658 0.950 . S
C1670 C1669 1.398 . S
C1670 C1671 1.391 . S
C1671 H1659 0.950 . S
C1671 C1667 1.393 . S
C1671 C1670 1.391 . S
H1672 C1680 0.950 . S
H1673 C1685 0.950 . S
H1674 C1682 0.950 . S
H1675 C1684 0.950 . S
H1676 C1686 0.950 . S
H1677 C1688 0.950 . S
H1678 C1690 0.950 . S
H1679 C1691 0.950 . S
C1680 H1672 0.950 . S
C1680 C1681 1.386 . S
C1680 C1682 1.391 . S
C1681 C1680 1.386 . S
C1681 C1685 1.393 . S
C1682 H1674 0.950 . S
C1682 C1680 1.391 . S
C1682 C1683 1.400 . S
C1683 C1682 1.400 . S
C1683 C1684 1.398 . S
C1683 C1689 1.491 . S
C1684 H1675 0.950 . S
C1684 C1683 1.398 . S
C1684 C1685 1.391 . S
C1685 H1673 0.950 . S
C1685 C1681 1.393 . S
C1685 C1684 1.391 . S
C1686 H1676 0.950 . S
C1686 C1687 1.386 . S
C1686 C1688 1.391 . S
C1687 C1686 1.386 . S
C1687 C1691 1.393 . S
C1688 H1677 0.950 . S
C1688 C1686 1.391 . S
C1688 C1689 1.400 . S
C1689 C1683 1.491 . S
C1689 C1688 1.400 . S
C1689 C1690 1.398 . S
C1690 H1678 0.950 . S
C1690 C1689 1.398 . S
C1690 C1691 1.391 . S
C1691 H1679 0.950 . S
C1691 C1687 1.393 . S
C1691 C1690 1.391 . S
H1692 C1700 0.950 . S
H1693 C1705 0.950 . S
H1694 C1702 0.950 . S
H1695 C1704 0.950 . S
H1696 C1706 0.950 . S
H1697 C1708 0.950 . S
H1698 C1710 0.950 . S
H1699 C1711 0.950 . S
C1700 H1692 0.950 . S
C1700 C1701 1.386 . S
C1700 C1702 1.391 . S
C1701 C1700 1.386 . S
C1701 C1705 1.393 1_554 S
C1702 H1694 0.950 . S
C1702 C1700 1.391 . S
C1702 C1703 1.400 . S
C1703 C1702 1.400 . S
C1703 C1704 1.398 1_554 S
C1703 C1709 1.491 . S
C1704 H1695 0.950 . S
C1704 C1703 1.398 1_556 S
C1704 C1705 1.391 . S
C1705 H1693 0.950 . S
C1705 C1701 1.393 1_556 S
C1705 C1704 1.391 . S
C1706 H1696 0.950 . S
C1706 C1707 1.386 1_556 S
C1706 C1708 1.391 . S
C1707 C1706 1.386 1_554 S
C1707 C1711 1.393 . S
C1708 H1697 0.950 . S
C1708 C1706 1.391 . S
C1708 C1709 1.400 1_556 S
C1709 C1703 1.491 . S
C1709 C1708 1.400 1_554 S
C1709 C1710 1.398 . S
C1710 H1698 0.950 . S
C1710 C1709 1.398 . S
C1710 C1711 1.391 . S
C1711 H1699 0.950 . S
C1711 C1707 1.393 . S
C1711 C1710 1.391 . S
H1712 C1720 0.950 . S
H1713 C1725 0.950 . S
H1714 C1722 0.950 . S
H1715 C1724 0.950 . S
H1716 C1726 0.950 . S
H1717 C1728 0.950 . S
H1718 C1730 0.950 . S
H1719 C1731 0.950 . S
C1720 H1712 0.950 . S
C1720 C1721 1.386 . S
C1720 C1722 1.391 . S
C1721 C1720 1.386 . S
C1721 C1725 1.393 . S
C1722 H1714 0.950 . S
C1722 C1720 1.391 . S
C1722 C1723 1.400 . S
C1723 C1722 1.400 . S
C1723 C1724 1.398 . S
C1723 C1729 1.491 . S
C1724 H1715 0.950 . S
C1724 C1723 1.398 . S
C1724 C1725 1.391 . S
C1725 H1713 0.950 . S
C1725 C1721 1.393 . S
C1725 C1724 1.391 . S
C1726 H1716 0.950 . S
C1726 C1727 1.386 . S
C1726 C1728 1.391 . S
C1727 C1726 1.386 . S
C1727 C1731 1.393 . S
C1728 H1717 0.950 . S
C1728 C1726 1.391 . S
C1728 C1729 1.400 . S
C1729 C1723 1.491 . S
C1729 C1728 1.400 . S
C1729 C1730 1.398 . S
C1730 H1718 0.950 . S
C1730 C1729 1.398 . S
C1730 C1731 1.391 . S
C1731 H1719 0.950 . S
C1731 C1727 1.393 . S
C1731 C1730 1.391 . S
H1732 C1740 0.950 . S
H1733 C1745 0.950 . S
H1734 C1742 0.950 . S
H1735 C1744 0.950 . S
H1736 C1746 0.950 . S
H1737 C1748 0.950 . S
H1738 C1750 0.950 . S
H1739 C1751 0.950 . S
C1740 H1732 0.950 . S
C1740 C1741 1.386 . S
C1740 C1742 1.391 . S
C1741 C1740 1.386 . S
C1741 C1745 1.393 1_554 S
C1742 H1734 0.950 . S
C1742 C1740 1.391 . S
C1742 C1743 1.400 . S
C1743 C1742 1.400 . S
C1743 C1744 1.398 1_554 S
C1743 C1749 1.491 . S
C1744 H1735 0.950 . S
C1744 C1743 1.398 1_556 S
C1744 C1745 1.391 . S
C1745 H1733 0.950 . S
C1745 C1741 1.393 1_556 S
C1745 C1744 1.391 . S
C1746 H1736 0.950 . S
C1746 C1747 1.386 1_556 S
C1746 C1748 1.391 . S
C1747 C1746 1.386 1_554 S
C1747 C1751 1.393 . S
C1748 H1737 0.950 . S
C1748 C1746 1.391 . S
C1748 C1749 1.400 1_556 S
C1749 C1743 1.491 . S
C1749 C1748 1.400 1_554 S
C1749 C1750 1.398 . S
C1750 H1738 0.950 . S
C1750 C1749 1.398 . S
C1750 C1751 1.391 . S
C1751 H1739 0.950 . S
C1751 C1747 1.393 . S
C1751 C1750 1.391 . S
H1752 C1760 0.950 . S
H1753 C1765 0.950 . S
H1754 C1762 0.950 . S
H1755 C1764 0.950 . S
H1756 C1766 0.950 . S
H1757 C1768 0.950 . S
H1758 C1770 0.950 . S
H1759 C1771 0.950 . S
C1760 H1752 0.950 . S
C1760 C1761 1.386 . S
C1760 C1762 1.391 . S
C1761 C1760 1.386 . S
C1761 C1765 1.393 . S
C1762 H1754 0.950 . S
C1762 C1760 1.391 . S
C1762 C1763 1.400 . S
C1763 C1762 1.400 . S
C1763 C1764 1.398 . S
C1763 C1769 1.491 . S
C1764 H1755 0.950 . S
C1764 C1763 1.398 . S
C1764 C1765 1.391 . S
C1765 H1753 0.950 . S
C1765 C1761 1.393 . S
C1765 C1764 1.391 . S
C1766 H1756 0.950 . S
C1766 C1767 1.386 . S
C1766 C1768 1.391 . S
C1767 C1766 1.386 . S
C1767 C1771 1.393 . S
C1768 H1757 0.950 . S
C1768 C1766 1.391 . S
C1768 C1769 1.400 . S
C1769 C1763 1.491 . S
C1769 C1768 1.400 . S
C1769 C1770 1.398 . S
C1770 H1758 0.950 . S
C1770 C1769 1.398 . S
C1770 C1771 1.391 . S
C1771 H1759 0.950 . S
C1771 C1767 1.393 . S
C1771 C1770 1.391 . S
H1772 C1780 0.950 . S
H1773 C1785 0.950 . S
H1774 C1782 0.950 . S
H1775 C1784 0.950 . S
H1776 C1786 0.950 . S
H1777 C1788 0.950 . S
H1778 C1790 0.950 . S
H1779 C1791 0.950 . S
C1780 H1772 0.950 . S
C1780 C1781 1.386 . S
C1780 C1782 1.391 . S
C1781 C1780 1.386 . S
C1781 C1785 1.393 . S
C1782 H1774 0.950 . S
C1782 C1780 1.391 . S
C1782 C1783 1.400 . S
C1783 C1782 1.400 . S
C1783 C1784 1.398 . S
C1783 C1789 1.491 . S
C1784 H1775 0.950 . S
C1784 C1783 1.398 . S
C1784 C1785 1.391 . S
C1785 H1773 0.950 . S
C1785 C1781 1.393 . S
C1785 C1784 1.391 . S
C1786 H1776 0.950 . S
C1786 C1787 1.386 . S
C1786 C1788 1.391 . S
C1787 C1786 1.386 . S
C1787 C1791 1.393 . S
C1788 H1777 0.950 . S
C1788 C1786 1.391 . S
C1788 C1789 1.400 . S
C1789 C1783 1.491 . S
C1789 C1788 1.400 . S
C1789 C1790 1.398 . S
C1790 H1778 0.950 . S
C1790 C1789 1.398 . S
C1790 C1791 1.391 . S
C1791 H1779 0.950 . S
C1791 C1787 1.393 . S
C1791 C1790 1.391 . S
H1792 C1800 0.950 . S
H1793 C1805 0.950 . S
H1794 C1802 0.950 . S
H1795 C1804 0.950 . S
H1796 C1806 0.950 . S
H1797 C1808 0.950 . S
H1798 C1810 0.950 . S
H1799 C1811 0.950 . S
C1800 H1792 0.950 . S
C1800 C1801 1.386 . S
C1800 C1802 1.391 . S
C1801 C1800 1.386 . S
C1801 C1805 1.393 . S
C1802 H1794 0.950 . S
C1802 C1800 1.391 . S
C1802 C1803 1.400 . S
C1803 C1802 1.400 . S
C1803 C1804 1.398 . S
C1803 C1809 1.491 . S
C1804 H1795 0.950 . S
C1804 C1803 1.398 . S
C1804 C1805 1.391 . S
C1805 H1793 0.950 . S
C1805 C1801 1.393 . S
C1805 C1804 1.391 . S
C1806 H1796 0.950 . S
C1806 C1807 1.386 . S
C1806 C1808 1.391 . S
C1807 C1806 1.386 . S
C1807 C1811 1.393 . S
C1808 H1797 0.950 . S
C1808 C1806 1.391 . S
C1808 C1809 1.400 . S
C1809 C1803 1.491 . S
C1809 C1808 1.400 . S
C1809 C1810 1.398 . S
C1810 H1798 0.950 . S
C1810 C1809 1.398 . S
C1810 C1811 1.391 . S
C1811 H1799 0.950 . S
C1811 C1807 1.393 . S
C1811 C1810 1.391 . S
H1812 C1820 0.950 . S
H1813 C1825 0.950 . S
H1814 C1822 0.950 . S
H1815 C1824 0.950 . S
H1816 C1826 0.950 . S
H1817 C1828 0.950 . S
H1818 C1830 0.950 . S
H1819 C1831 0.950 . S
C1820 H1812 0.950 . S
C1820 C1821 1.386 . S
C1820 C1822 1.391 . S
C1821 C1820 1.386 . S
C1821 C1825 1.393 . S
C1822 H1814 0.950 . S
C1822 C1820 1.391 . S
C1822 C1823 1.400 . S
C1823 C1822 1.400 . S
C1823 C1824 1.398 . S
C1823 C1829 1.491 . S
C1824 H1815 0.950 . S
C1824 C1823 1.398 . S
C1824 C1825 1.391 . S
C1825 H1813 0.950 . S
C1825 C1821 1.393 . S
C1825 C1824 1.391 . S
C1826 H1816 0.950 . S
C1826 C1827 1.386 . S
C1826 C1828 1.391 . S
C1827 C1826 1.386 . S
C1827 C1831 1.393 . S
C1828 H1817 0.950 . S
C1828 C1826 1.391 . S
C1828 C1829 1.400 . S
C1829 C1823 1.491 . S
C1829 C1828 1.400 . S
C1829 C1830 1.398 . S
C1830 H1818 0.950 . S
C1830 C1829 1.398 . S
C1830 C1831 1.391 . S
C1831 H1819 0.950 . S
C1831 C1827 1.393 . S
C1831 C1830 1.391 . S
H1832 C1840 0.950 . S
H1833 C1845 0.950 . S
H1834 C1842 0.950 . S
H1835 C1844 0.950 . S
H1836 C1846 0.950 . S
H1837 C1848 0.950 . S
H1838 C1850 0.950 . S
H1839 C1851 0.950 . S
C1840 H1832 0.950 . S
C1840 C1841 1.386 . S
C1840 C1842 1.391 . S
C1841 C1840 1.386 . S
C1841 C1845 1.393 . S
C1842 H1834 0.950 . S
C1842 C1840 1.391 . S
C1842 C1843 1.400 . S
C1843 C1842 1.400 . S
C1843 C1844 1.398 . S
C1843 C1849 1.491 . S
C1844 H1835 0.950 . S
C1844 C1843 1.398 . S
C1844 C1845 1.391 . S
C1845 H1833 0.950 . S
C1845 C1841 1.393 . S
C1845 C1844 1.391 . S
C1846 H1836 0.950 . S
C1846 C1847 1.386 . S
C1846 C1848 1.391 . S
C1847 C1846 1.386 . S
C1847 C1851 1.393 . S
C1848 H1837 0.950 . S
C1848 C1846 1.391 . S
C1848 C1849 1.400 . S
C1849 C1843 1.491 . S
C1849 C1848 1.400 . S
C1849 C1850 1.398 . S
C1850 H1838 0.950 . S
C1850 C1849 1.398 . S
C1850 C1851 1.391 . S
C1851 H1839 0.950 . S
C1851 C1847 1.393 . S
C1851 C1850 1.391 . S
H1852 C1860 0.950 . S
H1853 C1865 0.950 . S
H1854 C1862 0.950 . S
H1855 C1864 0.950 . S
H1856 C1866 0.950 . S
H1857 C1868 0.950 . S
H1858 C1870 0.950 . S
H1859 C1871 0.950 . S
C1860 H1852 0.950 . S
C1860 C1861 1.386 . S
C1860 C1862 1.391 . S
C1861 C1860 1.386 . S
C1861 C1865 1.393 . S
C1862 H1854 0.950 . S
C1862 C1860 1.391 . S
C1862 C1863 1.400 . S
C1863 C1862 1.400 . S
C1863 C1864 1.398 . S
C1863 C1869 1.491 . S
C1864 H1855 0.950 . S
C1864 C1863 1.398 . S
C1864 C1865 1.391 . S
C1865 H1853 0.950 . S
C1865 C1861 1.393 . S
C1865 C1864 1.391 . S
C1866 H1856 0.950 . S
C1866 C1867 1.386 . S
C1866 C1868 1.391 . S
C1867 C1866 1.386 . S
C1867 C1871 1.393 . S
C1868 H1857 0.950 . S
C1868 C1866 1.391 . S
C1868 C1869 1.400 . S
C1869 C1863 1.491 . S
C1869 C1868 1.400 . S
C1869 C1870 1.398 . S
C1870 H1858 0.950 . S
C1870 C1869 1.398 . S
C1870 C1871 1.391 . S
C1871 H1859 0.950 . S
C1871 C1867 1.393 . S
C1871 C1870 1.391 . S
H1872 C1880 0.950 . S
H1873 C1885 0.950 . S
H1874 C1882 0.950 . S
H1875 C1884 0.950 . S
H1876 C1886 0.950 . S
H1877 C1888 0.950 . S
H1878 C1890 0.950 . S
H1879 C1891 0.950 . S
C1880 H1872 0.950 . S
C1880 C1881 1.386 . S
C1880 C1882 1.391 . S
C1881 C1880 1.386 . S
C1881 C1885 1.393 . S
C1882 H1874 0.950 . S
C1882 C1880 1.391 . S
C1882 C1883 1.400 . S
C1883 C1882 1.400 . S
C1883 C1884 1.398 . S
C1883 C1889 1.491 . S
C1884 H1875 0.950 . S
C1884 C1883 1.398 . S
C1884 C1885 1.391 . S
C1885 H1873 0.950 . S
C1885 C1881 1.393 . S
C1885 C1884 1.391 . S
C1886 H1876 0.950 . S
C1886 C1887 1.386 . S
C1886 C1888 1.391 . S
C1887 C1886 1.386 . S
C1887 C1891 1.393 . S
C1888 H1877 0.950 . S
C1888 C1886 1.391 . S
C1888 C1889 1.400 . S
C1889 C1883 1.491 . S
C1889 C1888 1.400 . S
C1889 C1890 1.398 . S
C1890 H1878 0.950 . S
C1890 C1889 1.398 . S
C1890 C1891 1.391 . S
C1891 H1879 0.950 . S
C1891 C1887 1.393 . S
C1891 C1890 1.391 . S
H1892 C1900 0.950 . S
H1893 C1905 0.950 . S
H1894 C1902 0.950 . S
H1895 C1904 0.950 . S
H1896 C1906 0.950 . S
H1897 C1908 0.950 . S
H1898 C1910 0.950 . S
H1899 C1911 0.950 . S
C1900 H1892 0.950 . S
C1900 C1901 1.386 . S
C1900 C1902 1.391 . S
C1901 C1900 1.386 . S
C1901 C1905 1.393 1_545 S
C1902 H1894 0.950 . S
C1902 C1900 1.391 . S
C1902 C1903 1.400 1_545 S
C1903 C1902 1.400 1_565 S
C1903 C1904 1.398 . S
C1903 C1909 1.491 . S
C1904 H1895 0.950 . S
C1904 C1903 1.398 . S
C1904 C1905 1.391 . S
C1905 H1893 0.950 . S
C1905 C1901 1.393 1_565 S
C1905 C1904 1.391 . S
C1906 H1896 0.950 . S
C1906 C1907 1.386 . S
C1906 C1908 1.391 . S
C1907 C1906 1.386 . S
C1907 C1911 1.393 . S
C1908 H1897 0.950 . S
C1908 C1906 1.391 . S
C1908 C1909 1.400 . S
C1909 C1903 1.491 . S
C1909 C1908 1.400 . S
C1909 C1910 1.398 . S
C1910 H1898 0.950 . S
C1910 C1909 1.398 . S
C1910 C1911 1.391 . S
C1911 H1899 0.950 . S
C1911 C1907 1.393 . S
C1911 C1910 1.391 . S
H1912 C1920 0.950 . S
H1913 C1925 0.950 . S
H1914 C1922 0.950 . S
H1915 C1924 0.950 . S
H1916 C1926 0.950 . S
H1917 C1928 0.952 . S
H1918 C1930 0.950 . S
H1919 C1931 0.950 . S
C1920 H1912 0.950 . S
C1920 C1921 1.386 . S
C1920 C1922 1.391 . S
C1921 C1920 1.386 . S
C1921 C1925 1.393 . S
C1922 H1914 0.950 . S
C1922 C1920 1.391 . S
C1922 C1923 1.400 . S
C1923 C1922 1.400 . S
C1923 C1924 1.398 . S
C1923 C1929 1.491 . S
C1924 H1915 0.950 . S
C1924 C1923 1.398 . S
C1924 C1925 1.391 . S
C1925 H1913 0.950 . S
C1925 C1921 1.393 . S
C1925 C1924 1.391 . S
C1926 H1916 0.950 . S
C1926 C1927 1.386 . S
C1926 C1928 1.392 . S
C1927 C1926 1.386 . S
C1927 C1931 1.393 1_655 S
C1928 H1917 0.952 . S
C1928 C1926 1.392 . S
C1928 C1929 1.398 1_655 S
C1929 C1923 1.491 . S
C1929 C1928 1.398 1_455 S
C1929 C1930 1.398 . S
C1930 H1918 0.950 . S
C1930 C1929 1.398 . S
C1930 C1931 1.391 . S
C1931 H1919 0.950 . S
C1931 C1927 1.393 1_455 S
C1931 C1930 1.391 . S
H1932 C1940 0.950 . S
H1933 C1945 0.950 . S
H1934 C1942 0.950 . S
H1935 C1944 0.950 . S
H1936 C1946 0.950 . S
H1937 C1948 0.950 . S
H1938 C1950 0.950 . S
H1939 C1951 0.950 . S
C1940 H1932 0.950 . S
C1940 C1941 1.386 . S
C1940 C1942 1.391 . S
C1941 C1940 1.386 . S
C1941 C1945 1.393 . S
C1942 H1934 0.950 . S
C1942 C1940 1.391 . S
C1942 C1943 1.400 . S
C1943 C1942 1.400 . S
C1943 C1944 1.398 . S
C1943 C1949 1.491 . S
C1944 H1935 0.950 . S
C1944 C1943 1.398 . S
C1944 C1945 1.391 . S
C1945 H1933 0.950 . S
C1945 C1941 1.393 . S
C1945 C1944 1.391 . S
C1946 H1936 0.950 . S
C1946 C1947 1.386 . S
C1946 C1948 1.391 . S
C1947 C1946 1.386 . S
C1947 C1951 1.393 . S
C1948 H1937 0.950 . S
C1948 C1946 1.391 . S
C1948 C1949 1.400 . S
C1949 C1943 1.491 . S
C1949 C1948 1.400 . S
C1949 C1950 1.398 . S
C1950 H1938 0.950 . S
C1950 C1949 1.398 . S
C1950 C1951 1.391 . S
C1951 H1939 0.950 . S
C1951 C1947 1.393 . S
C1951 C1950 1.391 . S
H1952 C1960 0.950 . S
H1953 C1965 0.950 . S
H1954 C1962 0.950 . S
H1955 C1964 0.950 . S
H1956 C1966 0.950 . S
H1957 C1968 0.950 . S
H1958 C1970 0.950 . S
H1959 C1971 0.950 . S
C1960 H1952 0.950 . S
C1960 C1961 1.386 . S
C1960 C1962 1.391 . S
C1961 C1960 1.386 . S
C1961 C1965 1.393 1_565 S
C1962 H1954 0.950 . S
C1962 C1960 1.391 . S
C1962 C1963 1.400 1_565 S
C1963 C1962 1.400 1_545 S
C1963 C1964 1.398 . S
C1963 C1969 1.491 . S
C1964 H1955 0.950 . S
C1964 C1963 1.398 . S
C1964 C1965 1.391 . S
C1965 H1953 0.950 . S
C1965 C1961 1.393 1_545 S
C1965 C1964 1.391 . S
C1966 H1956 0.950 . S
C1966 C1967 1.386 . S
C1966 C1968 1.391 . S
C1967 C1966 1.386 . S
C1967 C1971 1.393 . S
C1968 H1957 0.950 . S
C1968 C1966 1.391 . S
C1968 C1969 1.400 . S
C1969 C1963 1.491 . S
C1969 C1968 1.400 . S
C1969 C1970 1.398 . S
C1970 H1958 0.950 . S
C1970 C1969 1.398 . S
C1970 C1971 1.391 . S
C1971 H1959 0.950 . S
C1971 C1967 1.393 . S
C1971 C1970 1.391 . S
H1972 C1980 0.950 . S
H1973 C1985 0.950 . S
H1974 C1982 0.950 . S
H1975 C1984 0.950 . S
H1976 C1986 0.950 . S
H1977 C1988 0.950 . S
H1978 C1990 0.950 . S
H1979 C1991 0.950 . S
C1980 H1972 0.950 . S
C1980 C1981 1.386 . S
C1980 C1982 1.391 . S
C1981 C1980 1.386 . S
C1981 C1985 1.393 . S
C1982 H1974 0.950 . S
C1982 C1980 1.391 . S
C1982 C1983 1.400 . S
C1983 C1982 1.400 . S
C1983 C1984 1.398 . S
C1983 C1989 1.491 . S
C1984 H1975 0.950 . S
C1984 C1983 1.398 . S
C1984 C1985 1.391 . S
C1985 H1973 0.950 . S
C1985 C1981 1.393 . S
C1985 C1984 1.391 . S
C1986 H1976 0.950 . S
C1986 C1987 1.386 . S
C1986 C1988 1.391 . S
C1987 C1986 1.386 . S
C1987 C1991 1.393 1_455 S
C1988 H1977 0.950 . S
C1988 C1986 1.391 . S
C1988 C1989 1.400 1_455 S
C1989 C1983 1.491 . S
C1989 C1988 1.400 1_655 S
C1989 C1990 1.398 . S
C1990 H1978 0.950 . S
C1990 C1989 1.398 . S
C1990 C1991 1.391 . S
C1991 H1979 0.950 . S
C1991 C1987 1.393 1_655 S
C1991 C1990 1.391 . S
H1992 C2000 0.950 . S
H1993 C2005 0.950 . S
H1994 C2002 0.950 . S
H1995 C2004 0.950 . S
H1996 C2006 0.950 . S
H1997 C2008 0.950 . S
H1998 C2010 0.950 . S
H1999 C2011 0.950 . S
C2000 H1992 0.950 . S
C2000 C2001 1.386 . S
C2000 C2002 1.391 . S
C2001 C2000 1.386 . S
C2001 C2005 1.393 . S
C2002 H1994 0.950 . S
C2002 C2000 1.391 . S
C2002 C2003 1.400 . S
C2003 C2002 1.400 . S
C2003 C2004 1.398 . S
C2003 C2009 1.491 . S
C2004 H1995 0.950 . S
C2004 C2003 1.398 . S
C2004 C2005 1.391 . S
C2005 H1993 0.950 . S
C2005 C2001 1.393 . S
C2005 C2004 1.391 . S
C2006 H1996 0.950 . S
C2006 C2007 1.386 . S
C2006 C2008 1.391 . S
C2007 C2006 1.386 . S
C2007 C2011 1.393 . S
C2008 H1997 0.950 . S
C2008 C2006 1.391 . S
C2008 C2009 1.400 . S
C2009 C2003 1.491 . S
C2009 C2008 1.400 . S
C2009 C2010 1.398 . S
C2010 H1998 0.950 . S
C2010 C2009 1.398 . S
C2010 C2011 1.391 . S
C2011 H1999 0.950 . S
C2011 C2007 1.393 . S
C2011 C2010 1.391 . S
H2012 C2020 0.950 . S
H2013 C2025 0.950 . S
H2014 C2022 0.950 . S
H2015 C2024 0.950 . S
H2016 C2026 0.950 . S
H2017 C2028 0.950 . S
H2018 C2030 0.950 . S
H2019 C2031 0.950 . S
C2020 H2012 0.950 . S
C2020 C2021 1.386 . S
C2020 C2022 1.391 . S
C2021 C2020 1.386 . S
C2021 C2025 1.393 . S
C2022 H2014 0.950 . S
C2022 C2020 1.391 . S
C2022 C2023 1.400 . S
C2023 C2022 1.400 . S
C2023 C2024 1.398 . S
C2023 C2029 1.491 . S
C2024 H2015 0.950 . S
C2024 C2023 1.398 . S
C2024 C2025 1.391 . S
C2025 H2013 0.950 . S
C2025 C2021 1.393 . S
C2025 C2024 1.391 . S
C2026 H2016 0.950 . S
C2026 C2027 1.386 . S
C2026 C2028 1.391 . S
C2027 C2026 1.386 . S
C2027 C2031 1.393 . S
C2028 H2017 0.950 . S
C2028 C2026 1.391 . S
C2028 C2029 1.400 . S
C2029 C2023 1.491 . S
C2029 C2028 1.400 . S
C2029 C2030 1.398 . S
C2030 H2018 0.950 . S
C2030 C2029 1.398 . S
C2030 C2031 1.391 . S
C2031 H2019 0.950 . S
C2031 C2027 1.393 . S
C2031 C2030 1.391 . S
H2032 C2040 0.950 . S
H2033 C2045 0.950 . S
H2034 C2042 0.950 . S
H2035 C2044 0.950 . S
H2036 C2046 0.950 . S
H2037 C2048 0.950 . S
H2038 C2050 0.950 . S
H2039 C2051 0.950 1_455 S
C2040 H2032 0.950 . S
C2040 C2041 1.386 . S
C2040 C2042 1.391 . S
C2041 C2040 1.386 . S
C2041 C2045 1.393 . S
C2042 H2034 0.950 . S
C2042 C2040 1.391 . S
C2042 C2043 1.400 . S
C2043 C2042 1.400 . S
C2043 C2044 1.398 . S
C2043 C2049 1.491 . S
C2044 H2035 0.950 . S
C2044 C2043 1.398 . S
C2044 C2045 1.391 . S
C2045 H2033 0.950 . S
C2045 C2041 1.393 . S
C2045 C2044 1.391 . S
C2046 H2036 0.950 . S
C2046 C2047 1.386 . S
C2046 C2048 1.391 . S
C2047 C2046 1.386 . S
C2047 C2051 1.393 . S
C2048 H2037 0.950 . S
C2048 C2046 1.391 . S
C2048 C2049 1.400 . S
C2049 C2043 1.491 . S
C2049 C2048 1.400 . S
C2049 C2050 1.398 . S
C2050 H2038 0.950 . S
C2050 C2049 1.398 . S
C2050 C2051 1.391 . S
C2051 H2039 0.950 1_655 S
C2051 C2047 1.393 . S
C2051 C2050 1.391 . S
H2052 C2060 0.950 . S
H2053 C2065 0.950 . S
H2054 C2062 0.950 . S
H2055 C2064 0.950 . S
H2056 C2066 0.950 . S
H2057 C2068 0.950 . S
H2058 C2070 0.950 . S
H2059 C2071 0.950 . S
C2060 H2052 0.950 . S
C2060 C2061 1.386 . S
C2060 C2062 1.391 . S
C2061 C2060 1.386 . S
C2061 C2065 1.393 . S
C2062 H2054 0.950 . S
C2062 C2060 1.391 . S
C2062 C2063 1.400 . S
C2063 C2062 1.400 . S
C2063 C2064 1.398 . S
C2063 C2069 1.491 . S
C2064 H2055 0.950 . S
C2064 C2063 1.398 . S
C2064 C2065 1.391 . S
C2065 H2053 0.950 . S
C2065 C2061 1.393 . S
C2065 C2064 1.391 . S
C2066 H2056 0.950 . S
C2066 C2067 1.386 . S
C2066 C2068 1.391 . S
C2067 C2066 1.386 . S
C2067 C2071 1.393 . S
C2068 H2057 0.950 . S
C2068 C2066 1.391 . S
C2068 C2069 1.400 . S
C2069 C2063 1.491 . S
C2069 C2068 1.400 . S
C2069 C2070 1.398 . S
C2070 H2058 0.950 . S
C2070 C2069 1.398 . S
C2070 C2071 1.391 . S
C2071 H2059 0.950 . S
C2071 C2067 1.393 . S
C2071 C2070 1.391 . S
H2072 C2080 0.950 . S
H2073 C2085 0.950 . S
H2074 C2082 0.950 . S
H2075 C2084 0.950 . S
H2076 C2086 0.950 . S
H2077 C2088 0.950 . S
H2078 C2090 0.950 . S
H2079 C2091 0.950 . S
C2080 H2072 0.950 . S
C2080 C2081 1.386 . S
C2080 C2082 1.391 . S
C2081 C2080 1.386 . S
C2081 C2085 1.393 . S
C2082 H2074 0.950 . S
C2082 C2080 1.391 . S
C2082 C2083 1.400 . S
C2083 C2082 1.400 . S
C2083 C2084 1.398 . S
C2083 C2089 1.491 . S
C2084 H2075 0.950 . S
C2084 C2083 1.398 . S
C2084 C2085 1.391 . S
C2085 H2073 0.950 . S
C2085 C2081 1.393 . S
C2085 C2084 1.391 . S
C2086 H2076 0.950 . S
C2086 C2087 1.386 . S
C2086 C2088 1.391 . S
C2087 C2086 1.386 . S
C2087 C2091 1.393 . S
C2088 H2077 0.950 . S
C2088 C2086 1.391 . S
C2088 C2089 1.400 . S
C2089 C2083 1.491 . S
C2089 C2088 1.400 . S
C2089 C2090 1.398 . S
C2090 H2078 0.950 . S
C2090 C2089 1.398 . S
C2090 C2091 1.391 . S
C2091 H2079 0.950 . S
C2091 C2087 1.393 . S
C2091 C2090 1.391 . S
H2092 C2100 0.950 . S
H2093 C2105 0.950 . S
H2094 C2102 0.950 . S
H2095 C2104 0.950 . S
H2096 C2106 0.950 . S
H2097 C2108 0.950 . S
H2098 C2110 0.950 . S
H2099 C2111 0.950 . S
C2100 H2092 0.950 . S
C2100 C2101 1.386 . S
C2100 C2102 1.391 . S
C2101 C2100 1.386 . S
C2101 C2105 1.393 . S
C2102 H2094 0.950 . S
C2102 C2100 1.391 . S
C2102 C2103 1.400 . S
C2103 C2102 1.400 . S
C2103 C2104 1.398 . S
C2103 C2109 1.491 . S
C2104 H2095 0.950 . S
C2104 C2103 1.398 . S
C2104 C2105 1.391 . S
C2105 H2093 0.950 . S
C2105 C2101 1.393 . S
C2105 C2104 1.391 . S
C2106 H2096 0.950 . S
C2106 C2107 1.386 . S
C2106 C2108 1.391 . S
C2107 C2106 1.386 . S
C2107 C2111 1.393 . S
C2108 H2097 0.950 . S
C2108 C2106 1.391 . S
C2108 C2109 1.400 . S
C2109 C2103 1.491 . S
C2109 C2108 1.400 . S
C2109 C2110 1.398 . S
C2110 H2098 0.950 . S
C2110 C2109 1.398 . S
C2110 C2111 1.391 . S
C2111 H2099 0.950 . S
C2111 C2107 1.393 . S
C2111 C2110 1.391 . S
H2112 C2120 0.950 . S
H2113 C2125 0.950 . S
H2114 C2122 0.950 . S
H2115 C2124 0.950 . S
H2116 C2126 0.950 . S
H2117 C2128 0.950 . S
H2118 C2130 0.950 1_655 S
H2119 C2131 0.950 . S
C2120 H2112 0.950 . S
C2120 C2121 1.386 . S
C2120 C2122 1.391 . S
C2121 C2120 1.386 . S
C2121 C2125 1.393 . S
C2122 H2114 0.950 . S
C2122 C2120 1.391 . S
C2122 C2123 1.400 . S
C2123 C2122 1.400 . S
C2123 C2124 1.398 . S
C2123 C2129 1.491 . S
C2124 H2115 0.950 . S
C2124 C2123 1.398 . S
C2124 C2125 1.391 . S
C2125 H2113 0.950 . S
C2125 C2121 1.393 . S
C2125 C2124 1.391 . S
C2126 H2116 0.950 . S
C2126 C2127 1.386 . S
C2126 C2128 1.391 . S
C2127 C2126 1.386 . S
C2127 C2131 1.393 . S
C2128 H2117 0.950 . S
C2128 C2126 1.391 . S
C2128 C2129 1.400 1_455 S
C2129 C2123 1.491 . S
C2129 C2128 1.400 1_655 S
C2129 C2130 1.398 1_655 S
C2130 H2118 0.950 1_455 S
C2130 C2129 1.398 1_455 S
C2130 C2131 1.391 . S
C2131 H2119 0.950 . S
C2131 C2127 1.393 . S
C2131 C2130 1.391 . S
H2132 C2140 0.950 . S
H2133 C2145 0.950 . S
H2134 C2142 0.950 . S
H2135 C2144 0.950 . S
H2136 C2146 0.950 . S
H2137 C2148 0.950 . S
H2138 C2150 0.950 . S
H2139 C2151 0.950 . S
C2140 H2132 0.950 . S
C2140 C2141 1.386 . S
C2140 C2142 1.391 . S
C2141 C2140 1.386 . S
C2141 C2145 1.393 . S
C2142 H2134 0.950 . S
C2142 C2140 1.391 . S
C2142 C2143 1.400 . S
C2143 C2142 1.400 . S
C2143 C2144 1.398 . S
C2143 C2149 1.491 . S
C2144 H2135 0.950 . S
C2144 C2143 1.398 . S
C2144 C2145 1.391 . S
C2145 H2133 0.950 . S
C2145 C2141 1.393 . S
C2145 C2144 1.391 . S
C2146 H2136 0.950 . S
C2146 C2147 1.386 . S
C2146 C2148 1.391 . S
C2147 C2146 1.386 . S
C2147 C2151 1.393 . S
C2148 H2137 0.950 . S
C2148 C2146 1.391 . S
C2148 C2149 1.400 . S
C2149 C2143 1.491 . S
C2149 C2148 1.400 . S
C2149 C2150 1.398 . S
C2150 H2138 0.950 . S
C2150 C2149 1.398 . S
C2150 C2151 1.391 . S
C2151 H2139 0.950 . S
C2151 C2147 1.393 . S
C2151 C2150 1.391 . S
H2152 C2160 0.950 . S
H2153 C2165 0.950 . S
H2154 C2162 0.950 . S
H2155 C2164 0.950 1_545 S
H2156 C2166 0.950 . S
H2157 C2168 0.950 . S
H2158 C2170 0.950 . S
H2159 C2171 0.950 . S
C2160 H2152 0.950 . S
C2160 C2161 1.386 . S
C2160 C2162 1.391 . S
C2161 C2160 1.386 . S
C2161 C2165 1.393 . S
C2162 H2154 0.950 . S
C2162 C2160 1.391 . S
C2162 C2163 1.400 1_565 S
C2163 C2162 1.400 1_545 S
C2163 C2164 1.398 1_545 S
C2163 C2169 1.491 . S
C2164 H2155 0.950 1_565 S
C2164 C2163 1.398 1_565 S
C2164 C2165 1.391 . S
C2165 H2153 0.950 . S
C2165 C2161 1.393 . S
C2165 C2164 1.391 . S
C2166 H2156 0.950 . S
C2166 C2167 1.386 . S
C2166 C2168 1.391 . S
C2167 C2166 1.386 . S
C2167 C2171 1.393 . S
C2168 H2157 0.950 . S
C2168 C2166 1.391 . S
C2168 C2169 1.400 . S
C2169 C2163 1.491 . S
C2169 C2168 1.400 . S
C2169 C2170 1.398 . S
C2170 H2158 0.950 . S
C2170 C2169 1.398 . S
C2170 C2171 1.391 . S
C2171 H2159 0.950 . S
C2171 C2167 1.393 . S
C2171 C2170 1.391 . S
H2172 C2180 0.950 1_655 S
H2173 C2185 0.950 . S
H2174 C2182 0.950 . S
H2175 C2184 0.950 . S
H2176 C2186 0.950 . S
H2177 C2188 0.950 . S
H2178 C2190 0.950 . S
H2179 C2191 0.950 . S
C2180 H2172 0.950 1_455 S
C2180 C2181 1.386 . S
C2180 C2182 1.391 1_455 S
C2181 C2180 1.386 . S
C2181 C2185 1.393 . S
C2182 H2174 0.950 . S
C2182 C2180 1.391 1_655 S
C2182 C2183 1.400 1_655 S
C2183 C2182 1.400 1_455 S
C2183 C2184 1.398 . S
C2183 C2189 1.491 . S
C2184 H2175 0.950 . S
C2184 C2183 1.398 . S
C2184 C2185 1.391 . S
C2185 H2173 0.950 . S
C2185 C2181 1.393 . S
C2185 C2184 1.391 . S
C2186 H2176 0.950 . S
C2186 C2187 1.386 1_455 S
C2186 C2188 1.391 . S
C2187 C2186 1.386 1_655 S
C2187 C2191 1.393 . S
C2188 H2177 0.950 . S
C2188 C2186 1.391 . S
C2188 C2189 1.400 . S
C2189 C2183 1.491 . S
C2189 C2188 1.400 . S
C2189 C2190 1.398 1_455 S
C2190 H2178 0.950 . S
C2190 C2189 1.398 1_655 S
C2190 C2191 1.391 . S
C2191 H2179 0.950 . S
C2191 C2187 1.393 . S
C2191 C2190 1.391 . S
H2192 C2200 0.950 . S
H2193 C2205 0.950 . S
H2194 C2202 0.950 . S
H2195 C2204 0.950 . S
H2196 C2206 0.950 . S
H2197 C2208 0.950 . S
H2198 C2210 0.950 . S
H2199 C2211 0.950 . S
C2200 H2192 0.950 . S
C2200 C2201 1.386 . S
C2200 C2202 1.391 . S
C2201 C2200 1.386 . S
C2201 C2205 1.393 . S
C2202 H2194 0.950 . S
C2202 C2200 1.391 . S
C2202 C2203 1.400 . S
C2203 C2202 1.400 . S
C2203 C2204 1.398 . S
C2203 C2209 1.491 . S
C2204 H2195 0.950 . S
C2204 C2203 1.398 . S
C2204 C2205 1.391 . S
C2205 H2193 0.950 . S
C2205 C2201 1.393 . S
C2205 C2204 1.391 . S
C2206 H2196 0.950 . S
C2206 C2207 1.386 . S
C2206 C2208 1.391 . S
C2207 C2206 1.386 . S
C2207 C2211 1.393 . S
C2208 H2197 0.950 . S
C2208 C2206 1.391 . S
C2208 C2209 1.400 . S
C2209 C2203 1.491 . S
C2209 C2208 1.400 . S
C2209 C2210 1.398 . S
C2210 H2198 0.950 . S
C2210 C2209 1.398 . S
C2210 C2211 1.391 . S
C2211 H2199 0.950 . S
C2211 C2207 1.393 . S
C2211 C2210 1.391 . S
H2212 C2220 0.950 . S
H2213 C2225 0.950 . S
H2214 C2222 0.950 . S
H2215 C2224 0.950 . S
H2216 C2226 0.950 . S
H2217 C2228 0.950 . S
H2218 C2230 0.950 . S
H2219 C2231 0.950 . S
C2220 H2212 0.950 . S
C2220 C2221 1.386 . S
C2220 C2222 1.391 . S
C2221 C2220 1.386 . S
C2221 C2225 1.393 . S
C2222 H2214 0.950 . S
C2222 C2220 1.391 . S
C2222 C2223 1.400 . S
C2223 C2222 1.400 . S
C2223 C2224 1.398 . S
C2223 C2229 1.491 . S
C2224 H2215 0.950 . S
C2224 C2223 1.398 . S
C2224 C2225 1.391 . S
C2225 H2213 0.950 . S
C2225 C2221 1.393 . S
C2225 C2224 1.391 . S
C2226 H2216 0.950 . S
C2226 C2227 1.386 . S
C2226 C2228 1.391 1_545 S
C2227 C2226 1.386 . S
C2227 C2231 1.393 . S
C2228 H2217 0.950 . S
C2228 C2226 1.391 1_565 S
C2228 C2229 1.400 . S
C2229 C2223 1.491 . S
C2229 C2228 1.400 . S
C2229 C2230 1.398 1_565 S
C2230 H2218 0.950 . S
C2230 C2229 1.398 1_545 S
C2230 C2231 1.391 . S
C2231 H2219 0.950 . S
C2231 C2227 1.393 . S
C2231 C2230 1.391 . S
H2232 C2240 0.950 . S
H2233 C2245 0.950 . S
H2234 C2242 0.950 . S
H2235 C2244 0.950 . S
H2236 C2246 0.950 . S
H2237 C2248 0.950 . S
H2238 C2250 0.950 . S
H2239 C2251 0.950 . S
C2240 H2232 0.950 . S
C2240 C2241 1.386 . S
C2240 C2242 1.391 . S
C2241 C2240 1.386 . S
C2241 C2245 1.393 . S
C2242 H2234 0.950 . S
C2242 C2240 1.391 . S
C2242 C2243 1.400 . S
C2243 C2242 1.400 . S
C2243 C2244 1.398 . S
C2243 C2249 1.491 . S
C2244 H2235 0.950 . S
C2244 C2243 1.398 . S
C2244 C2245 1.391 . S
C2245 H2233 0.950 . S
C2245 C2241 1.393 . S
C2245 C2244 1.391 . S
C2246 H2236 0.950 . S
C2246 C2247 1.386 . S
C2246 C2248 1.391 . S
C2247 C2246 1.386 . S
C2247 C2251 1.393 . S
C2248 H2237 0.950 . S
C2248 C2246 1.391 . S
C2248 C2249 1.400 . S
C2249 C2243 1.491 . S
C2249 C2248 1.400 . S
C2249 C2250 1.398 . S
C2250 H2238 0.950 . S
C2250 C2249 1.398 . S
C2250 C2251 1.391 . S
C2251 H2239 0.950 . S
C2251 C2247 1.393 . S
C2251 C2250 1.391 . S
H2252 C2260 0.950 . S
H2253 C2265 0.950 . S
H2254 C2262 0.950 . S
H2255 C2264 0.950 . S
H2256 C2266 0.950 . S
H2257 C2268 0.950 . S
H2258 C2270 0.950 . S
H2259 C2271 0.950 . S
C2260 H2252 0.950 . S
C2260 C2261 1.386 . S
C2260 C2262 1.391 . S
C2261 C2260 1.386 . S
C2261 C2265 1.393 . S
C2262 H2254 0.950 . S
C2262 C2260 1.391 . S
C2262 C2263 1.400 . S
C2263 C2262 1.400 . S
C2263 C2264 1.398 . S
C2263 C2269 1.491 . S
C2264 H2255 0.950 . S
C2264 C2263 1.398 . S
C2264 C2265 1.391 . S
C2265 H2253 0.950 . S
C2265 C2261 1.393 . S
C2265 C2264 1.391 . S
C2266 H2256 0.950 . S
C2266 C2267 1.386 . S
C2266 C2268 1.391 . S
C2267 C2266 1.386 . S
C2267 C2271 1.393 . S
C2268 H2257 0.950 . S
C2268 C2266 1.391 . S
C2268 C2269 1.400 . S
C2269 C2263 1.491 . S
C2269 C2268 1.400 . S
C2269 C2270 1.398 . S
C2270 H2258 0.950 . S
C2270 C2269 1.398 . S
C2270 C2271 1.391 . S
C2271 H2259 0.950 . S
C2271 C2267 1.393 . S
C2271 C2270 1.391 . S
H2272 C2280 0.950 . S
H2273 C2285 0.950 . S
H2274 C2282 0.950 . S
H2275 C2284 0.950 . S
H2276 C2286 0.950 . S
H2277 C2288 0.950 . S
H2278 C2290 0.950 . S
H2279 C2291 0.950 . S
C2280 H2272 0.950 . S
C2280 C2281 1.386 . S
C2280 C2282 1.391 . S
C2281 C2280 1.386 . S
C2281 C2285 1.393 . S
C2282 H2274 0.950 . S
C2282 C2280 1.391 . S
C2282 C2283 1.400 . S
C2283 C2282 1.400 . S
C2283 C2284 1.398 . S
C2283 C2289 1.491 . S
C2284 H2275 0.950 . S
C2284 C2283 1.398 . S
C2284 C2285 1.391 . S
C2285 H2273 0.950 . S
C2285 C2281 1.393 . S
C2285 C2284 1.391 . S
C2286 H2276 0.950 . S
C2286 C2287 1.386 . S
C2286 C2288 1.391 . S
C2287 C2286 1.386 . S
C2287 C2291 1.393 . S
C2288 H2277 0.950 . S
C2288 C2286 1.391 . S
C2288 C2289 1.400 . S
C2289 C2283 1.491 . S
C2289 C2288 1.400 . S
C2289 C2290 1.398 . S
C2290 H2278 0.950 . S
C2290 C2289 1.398 . S
C2290 C2291 1.391 . S
C2291 H2279 0.950 . S
C2291 C2287 1.393 . S
C2291 C2290 1.391 . S
H2292 C2300 0.950 . S
H2293 C2305 0.950 . S
H2294 C2302 0.950 . S
H2295 C2304 0.950 1_545 S
H2296 C2306 0.950 . S
H2297 C2308 0.950 . S
H2298 C2310 0.950 . S
H2299 C2311 0.950 . S
C2300 H2292 0.950 . S
C2300 C2301 1.386 . S
C2300 C2302 1.391 . S
C2301 C2300 1.386 . S
C2301 C2305 1.393 1_554 S
C2302 H2294 0.950 . S
C2302 C2300 1.391 . S
C2302 C2303 1.400 1_565 S
C2303 C2302 1.400 1_545 S
C2303 C2304 1.398 1_544 S
C2303 C2309 1.491 . S
C2304 H2295 0.950 1_565 S
C2304 C2303 1.398 1_566 S
C2304 C2305 1.391 . S
C2305 H2293 0.950 . S
C2305 C2301 1.393 1_556 S
C2305 C2304 1.391 . S
C2306 H2296 0.950 . S
C2306 C2307 1.386 1_556 S
C2306 C2308 1.391 . S
C2307 C2306 1.386 1_554 S
C2307 C2311 1.393 . S
C2308 H2297 0.950 . S
C2308 C2306 1.391 . S
C2308 C2309 1.400 1_556 S
C2309 C2303 1.491 . S
C2309 C2308 1.400 1_554 S
C2309 C2310 1.398 . S
C2310 H2298 0.950 . S
C2310 C2309 1.398 . S
C2310 C2311 1.391 . S
C2311 H2299 0.950 . S
C2311 C2307 1.393 . S
C2311 C2310 1.391 . S
H2312 C2320 0.950 . S
H2313 C2325 0.950 . S
H2314 C2322 0.950 . S
H2315 C2324 0.950 1_655 S
H2316 C2326 0.950 . S
H2317 C2328 0.950 . S
H2318 C2330 0.950 . S
H2319 C2331 0.950 . S
C2320 H2312 0.950 . S
C2320 C2321 1.386 . S
C2320 C2322 1.391 . S
C2321 C2320 1.386 . S
C2321 C2325 1.393 1_554 S
C2322 H2314 0.950 . S
C2322 C2320 1.391 . S
C2322 C2323 1.400 1_455 S
C2323 C2322 1.400 1_655 S
C2323 C2324 1.398 1_654 S
C2323 C2329 1.491 . S
C2324 H2315 0.950 1_455 S
C2324 C2323 1.398 1_456 S
C2324 C2325 1.391 . S
C2325 H2313 0.950 . S
C2325 C2321 1.393 1_556 S
C2325 C2324 1.391 . S
C2326 H2316 0.950 . S
C2326 C2327 1.386 1_556 S
C2326 C2328 1.391 . S
C2327 C2326 1.386 1_554 S
C2327 C2331 1.393 . S
C2328 H2317 0.950 . S
C2328 C2326 1.391 . S
C2328 C2329 1.400 1_556 S
C2329 C2323 1.491 . S
C2329 C2328 1.400 1_554 S
C2329 C2330 1.398 . S
C2330 H2318 0.950 . S
C2330 C2329 1.398 . S
C2330 C2331 1.391 . S
C2331 H2319 0.950 . S
C2331 C2327 1.393 . S
C2331 C2330 1.391 . S
H2332 C2340 0.950 . S
H2333 C2345 0.952 1_556 S
H2334 C2342 0.950 . S
H2335 C2344 0.942 1_556 S
H2336 C2346 0.962 . S
H2337 C2348 0.961 . S
H2338 C2350 0.950 . S
H2339 C2351 0.950 . S
C2340 H2332 0.950 . S
C2340 C2341 1.386 . S
C2340 C2342 1.391 . S
C2341 C2340 1.386 . S
C2341 C2345 1.391 . S
C2342 H2334 0.950 . S
C2342 C2340 1.391 . S
C2342 C2343 1.400 . S
C2343 C2342 1.400 . S
C2343 C2344 1.407 . S
C2343 C2349 1.491 . S
C2344 H2335 0.942 1_554 S
C2344 C2343 1.407 . S
C2344 C2345 1.390 . S
C2345 H2333 0.952 1_554 S
C2345 C2341 1.391 . S
C2345 C2344 1.390 . S
C2346 H2336 0.962 . S
C2346 C2347 1.374 1_556 S
C2346 C2348 1.391 . S
C2347 C2346 1.374 1_554 S
C2347 C2351 1.393 . S
C2348 H2337 0.961 . S
C2348 C2346 1.391 . S
C2348 C2349 1.389 1_556 S
C2349 C2343 1.491 . S
C2349 C2348 1.389 1_554 S
C2349 C2350 1.398 . S
C2350 H2338 0.950 . S
C2350 C2349 1.398 . S
C2350 C2351 1.391 . S
C2351 H2339 0.950 . S
C2351 C2347 1.393 . S
C2351 C2350 1.391 . S
H2352 C2360 0.950 . S
H2353 C2365 0.950 . S
H2354 C2362 0.950 . S
H2355 C2364 0.950 1_565 S
H2356 C2366 0.950 . S
H2357 C2368 0.950 . S
H2358 C2370 0.950 . S
H2359 C2371 0.950 1_545 S
C2360 H2352 0.950 . S
C2360 C2361 1.386 . S
C2360 C2362 1.391 . S
C2361 C2360 1.386 . S
C2361 C2365 1.393 . S
C2362 H2354 0.950 . S
C2362 C2360 1.391 . S
C2362 C2363 1.400 . S
C2363 C2362 1.400 . S
C2363 C2364 1.398 . S
C2363 C2369 1.491 . S
C2364 H2355 0.950 1_545 S
C2364 C2363 1.398 . S
C2364 C2365 1.391 . S
C2365 H2353 0.950 . S
C2365 C2361 1.393 . S
C2365 C2364 1.391 . S
C2366 H2356 0.950 . S
C2366 C2367 1.386 . S
C2366 C2368 1.391 . S
C2367 C2366 1.386 . S
C2367 C2371 1.393 . S
C2368 H2357 0.950 . S
C2368 C2366 1.391 . S
C2368 C2369 1.400 1_565 S
C2369 C2363 1.491 . S
C2369 C2368 1.400 1_545 S
C2369 C2370 1.398 . S
C2370 H2358 0.950 . S
C2370 C2369 1.398 . S
C2370 C2371 1.391 1_545 S
C2371 H2359 0.950 1_565 S
C2371 C2367 1.393 . S
C2371 C2370 1.391 1_565 S
H2372 C2380 0.950 . S
H2373 C2385 0.950 . S
H2374 C2382 0.950 . S
H2375 C2384 0.950 . S
H2376 C2386 0.950 . S
H2377 C2388 0.950 . S
H2378 C2390 0.950 . S
H2379 C2391 0.950 . S
C2380 H2372 0.950 . S
C2380 C2381 1.386 . S
C2380 C2382 1.391 . S
C2381 C2380 1.386 . S
C2381 C2385 1.393 . S
C2382 H2374 0.950 . S
C2382 C2380 1.391 . S
C2382 C2383 1.400 . S
C2383 C2382 1.400 . S
C2383 C2384 1.398 . S
C2383 C2389 1.491 . S
C2384 H2375 0.950 . S
C2384 C2383 1.398 . S
C2384 C2385 1.391 . S
C2385 H2373 0.950 . S
C2385 C2381 1.393 . S
C2385 C2384 1.391 . S
C2386 H2376 0.950 . S
C2386 C2387 1.386 . S
C2386 C2388 1.391 . S
C2387 C2386 1.386 . S
C2387 C2391 1.393 . S
C2388 H2377 0.950 . S
C2388 C2386 1.391 . S
C2388 C2389 1.400 1_455 S
C2389 C2383 1.491 . S
C2389 C2388 1.400 1_655 S
C2389 C2390 1.398 1_655 S
C2390 H2378 0.950 . S
C2390 C2389 1.398 1_455 S
C2390 C2391 1.391 . S
C2391 H2379 0.950 . S
C2391 C2387 1.393 . S
C2391 C2390 1.391 . S
H2392 C2400 0.950 . S
H2393 C2405 0.950 . S
H2394 C2402 0.950 . S
H2395 C2404 0.950 . S
H2396 C2406 0.950 . S
H2397 C2408 0.950 . S
H2398 C2410 0.950 . S
H2399 C2411 0.950 . S
C2400 H2392 0.950 . S
C2400 C2401 1.386 . S
C2400 C2402 1.391 . S
C2401 C2400 1.386 . S
C2401 C2405 1.393 . S
C2402 H2394 0.950 . S
C2402 C2400 1.391 . S
C2402 C2403 1.400 . S
C2403 C2402 1.400 . S
C2403 C2404 1.398 . S
C2403 C2409 1.491 . S
C2404 H2395 0.950 . S
C2404 C2403 1.398 . S
C2404 C2405 1.391 . S
C2405 H2393 0.950 . S
C2405 C2401 1.393 . S
C2405 C2404 1.391 . S
C2406 H2396 0.950 . S
C2406 C2407 1.386 . S
C2406 C2408 1.391 . S
C2407 C2406 1.386 . S
C2407 C2411 1.393 . S
C2408 H2397 0.950 . S
C2408 C2406 1.391 . S
C2408 C2409 1.400 . S
C2409 C2403 1.491 . S
C2409 C2408 1.400 . S
C2409 C2410 1.398 . S
C2410 H2398 0.950 . S
C2410 C2409 1.398 . S
C2410 C2411 1.391 . S
C2411 H2399 0.950 . S
C2411 C2407 1.393 . S
C2411 C2410 1.391 . S
H2412 C2420 0.950 . S
H2413 C2425 0.950 . S
H2414 C2422 0.950 . S
H2415 C2424 0.950 . S
H2416 C2426 0.950 . S
H2417 C2428 0.950 1_565 S
H2418 C2430 0.950 . S
H2419 C2431 0.950 . S
C2420 H2412 0.950 . S
C2420 C2421 1.386 . S
C2420 C2422 1.391 . S
C2421 C2420 1.386 . S
C2421 C2425 1.393 1_556 S
C2422 H2414 0.950 . S
C2422 C2420 1.391 . S
C2422 C2423 1.400 . S
C2423 C2422 1.400 . S
C2423 C2424 1.398 1_556 S
C2423 C2429 1.491 . S
C2424 H2415 0.950 . S
C2424 C2423 1.398 1_554 S
C2424 C2425 1.391 . S
C2425 H2413 0.950 . S
C2425 C2421 1.393 1_554 S
C2425 C2424 1.391 . S
C2426 H2416 0.950 . S
C2426 C2427 1.359 1_554 S
C2426 C2428 1.391 . S
C2427 C2426 1.359 1_556 S
C2427 C2431 1.422 . S
C2428 H2417 0.950 1_545 S
C2428 C2426 1.391 . S
C2428 C2429 1.400 1_544 S
C2429 C2423 1.491 . S
C2429 C2428 1.400 1_566 S
C2429 C2430 1.398 1_565 S
C2430 H2418 0.950 . S
C2430 C2429 1.398 1_545 S
C2430 C2431 1.391 . S
C2431 H2419 0.950 . S
C2431 C2427 1.422 . S
C2431 C2430 1.391 . S
H2432 C2440 0.950 . S
H2433 C2445 0.950 . S
H2434 C2442 0.950 1_455 S
H2435 C2444 0.950 . S
H2436 C2446 0.950 . S
H2437 C2448 0.950 . S
H2438 C2450 0.950 . S
H2439 C2451 0.950 . S
C2440 H2432 0.950 . S
C2440 C2441 1.386 . S
C2440 C2442 1.391 . S
C2441 C2440 1.386 . S
C2441 C2445 1.393 1_556 S
C2442 H2434 0.950 1_655 S
C2442 C2440 1.391 . S
C2442 C2443 1.400 1_655 S
C2443 C2442 1.400 1_455 S
C2443 C2444 1.398 1_456 S
C2443 C2449 1.491 . S
C2444 H2435 0.950 . S
C2444 C2443 1.398 1_654 S
C2444 C2445 1.391 . S
C2445 H2433 0.950 . S
C2445 C2441 1.393 1_554 S
C2445 C2444 1.391 . S
C2446 H2436 0.950 . S
C2446 C2447 1.386 1_554 S
C2446 C2448 1.391 . S
C2447 C2446 1.386 1_556 S
C2447 C2451 1.393 . S
C2448 H2437 0.950 . S
C2448 C2446 1.391 . S
C2448 C2449 1.400 1_554 S
C2449 C2443 1.491 . S
C2449 C2448 1.400 1_556 S
C2449 C2450 1.398 . S
C2450 H2438 0.950 . S
C2450 C2449 1.398 . S
C2450 C2451 1.391 . S
C2451 H2439 0.950 . S
C2451 C2447 1.393 . S
C2451 C2450 1.391 . S
H2452 C2460 0.950 . S
H2453 C2465 0.950 . S
H2454 C2462 0.950 . S
H2455 C2464 0.950 . S
H2456 C2466 0.950 . S
H2457 C2468 0.950 . S
H2458 C2470 0.950 . S
H2459 C2471 0.950 . S
C2460 H2452 0.950 . S
C2460 C2461 1.386 . S
C2460 C2462 1.391 . S
C2461 C2460 1.386 . S
C2461 C2465 1.393 1_556 S
C2462 H2454 0.950 . S
C2462 C2460 1.391 . S
C2462 C2463 1.400 . S
C2463 C2462 1.400 . S
C2463 C2464 1.398 1_556 S
C2463 C2469 1.491 . S
C2464 H2455 0.950 . S
C2464 C2463 1.398 1_554 S
C2464 C2465 1.391 . S
C2465 H2453 0.950 . S
C2465 C2461 1.393 1_554 S
C2465 C2464 1.391 . S
C2466 H2456 0.950 . S
C2466 C2467 1.356 1_554 S
C2466 C2468 1.391 . S
C2467 C2466 1.356 1_556 S
C2467 C2471 1.425 . S
C2468 H2457 0.950 . S
C2468 C2466 1.391 . S
C2468 C2469 1.400 1_554 S
C2469 C2463 1.491 . S
C2469 C2468 1.400 1_556 S
C2469 C2470 1.398 . S
C2470 H2458 0.950 . S
C2470 C2469 1.398 . S
C2470 C2471 1.391 . S
C2471 H2459 0.950 . S
C2471 C2467 1.425 . S
C2471 C2470 1.391 . S
H2472 C2480 0.950 . S
H2473 C2485 0.950 . S
H2474 C2482 0.950 . S
H2475 C2484 0.950 . S
H2476 C2486 0.950 . S
H2477 C2488 0.950 . S
H2478 C2490 0.950 1_455 S
H2479 C2491 0.950 . S
C2480 H2472 0.950 . S
C2480 C2481 1.386 . S
C2480 C2482 1.391 . S
C2481 C2480 1.386 . S
C2481 C2485 1.393 . S
C2482 H2474 0.950 . S
C2482 C2480 1.391 . S
C2482 C2483 1.400 . S
C2483 C2482 1.400 . S
C2483 C2484 1.398 . S
C2483 C2489 1.491 . S
C2484 H2475 0.950 . S
C2484 C2483 1.398 . S
C2484 C2485 1.391 . S
C2485 H2473 0.950 . S
C2485 C2481 1.393 . S
C2485 C2484 1.391 . S
C2486 H2476 0.950 . S
C2486 C2487 1.386 . S
C2486 C2488 1.391 . S
C2487 C2486 1.386 . S
C2487 C2491 1.393 . S
C2488 H2477 0.950 . S
C2488 C2486 1.391 . S
C2488 C2489 1.400 1_655 S
C2489 C2483 1.491 . S
C2489 C2488 1.400 1_455 S
C2489 C2490 1.398 1_455 S
C2490 H2478 0.950 1_655 S
C2490 C2489 1.398 1_655 S
C2490 C2491 1.391 . S
C2491 H2479 0.950 . S
C2491 C2487 1.393 . S
C2491 C2490 1.391 . S
H2492 C2500 0.950 . S
H2493 C2505 0.950 . S
H2494 C2502 0.950 . S
H2495 C2504 0.950 . S
H2496 C2506 0.950 . S
H2497 C2508 0.950 . S
H2498 C2510 0.950 . S
H2499 C2511 0.950 . S
C2500 H2492 0.950 . S
C2500 C2501 1.386 . S
C2500 C2502 1.391 . S
C2501 C2500 1.386 . S
C2501 C2505 1.393 . S
C2502 H2494 0.950 . S
C2502 C2500 1.391 . S
C2502 C2503 1.400 . S
C2503 C2502 1.400 . S
C2503 C2504 1.398 . S
C2503 C2509 1.491 . S
C2504 H2495 0.950 . S
C2504 C2503 1.398 . S
C2504 C2505 1.391 . S
C2505 H2493 0.950 . S
C2505 C2501 1.393 . S
C2505 C2504 1.391 . S
C2506 H2496 0.950 . S
C2506 C2507 1.386 . S
C2506 C2508 1.391 . S
C2507 C2506 1.386 . S
C2507 C2511 1.393 . S
C2508 H2497 0.950 . S
C2508 C2506 1.391 . S
C2508 C2509 1.400 . S
C2509 C2503 1.491 . S
C2509 C2508 1.400 . S
C2509 C2510 1.398 . S
C2510 H2498 0.950 . S
C2510 C2509 1.398 . S
C2510 C2511 1.391 . S
C2511 H2499 0.950 . S
C2511 C2507 1.393 . S
C2511 C2510 1.391 . S
H2512 C2520 0.950 . S
H2513 C2525 0.950 . S
H2514 C2522 0.950 . S
H2515 C2524 0.950 . S
H2516 C2526 0.950 . S
H2517 C2528 0.950 . S
H2518 C2530 0.950 1_565 S
H2519 C2531 0.950 . S
C2520 H2512 0.950 . S
C2520 C2521 1.386 . S
C2520 C2522 1.391 . S
C2521 C2520 1.386 . S
C2521 C2525 1.393 . S
C2522 H2514 0.950 . S
C2522 C2520 1.391 . S
C2522 C2523 1.400 . S
C2523 C2522 1.400 . S
C2523 C2524 1.398 . S
C2523 C2529 1.491 . S
C2524 H2515 0.950 . S
C2524 C2523 1.398 . S
C2524 C2525 1.391 . S
C2525 H2513 0.950 . S
C2525 C2521 1.393 . S
C2525 C2524 1.391 . S
C2526 H2516 0.950 . S
C2526 C2527 1.386 . S
C2526 C2528 1.391 . S
C2527 C2526 1.386 . S
C2527 C2531 1.393 . S
C2528 H2517 0.950 . S
C2528 C2526 1.391 . S
C2528 C2529 1.400 1_545 S
C2529 C2523 1.491 . S
C2529 C2528 1.400 1_565 S
C2529 C2530 1.398 1_565 S
C2530 H2518 0.950 1_545 S
C2530 C2529 1.398 1_545 S
C2530 C2531 1.391 . S
C2531 H2519 0.950 . S
C2531 C2527 1.393 . S
C2531 C2530 1.391 . S
H2532 C2540 0.950 1_455 S
H2533 C2545 0.950 . S
H2534 C2542 0.950 . S
H2535 C2544 0.950 . S
H2536 C2546 0.950 . S
H2537 C2548 0.950 . S
H2538 C2550 0.950 . S
H2539 C2551 0.950 . S
C2540 H2532 0.950 1_655 S
C2540 C2541 1.386 . S
C2540 C2542 1.391 . S
C2541 C2540 1.386 . S
C2541 C2545 1.393 . S
C2542 H2534 0.950 . S
C2542 C2540 1.391 . S
C2542 C2543 1.400 . S
C2543 C2542 1.400 . S
C2543 C2544 1.398 . S
C2543 C2549 1.491 . S
C2544 H2535 0.950 . S
C2544 C2543 1.398 . S
C2544 C2545 1.391 . S
C2545 H2533 0.950 . S
C2545 C2541 1.393 . S
C2545 C2544 1.391 . S
C2546 H2536 0.950 . S
C2546 C2547 1.386 . S
C2546 C2548 1.391 . S
C2547 C2546 1.386 . S
C2547 C2551 1.393 . S
C2548 H2537 0.950 . S
C2548 C2546 1.391 . S
C2548 C2549 1.400 . S
C2549 C2543 1.491 . S
C2549 C2548 1.400 . S
C2549 C2550 1.398 . S
C2550 H2538 0.950 . S
C2550 C2549 1.398 . S
C2550 C2551 1.391 . S
C2551 H2539 0.950 . S
C2551 C2547 1.393 . S
C2551 C2550 1.391 . S
H2552 C2560 0.950 . S
H2553 C2565 0.950 . S
H2554 C2562 0.950 . S
H2555 C2564 0.950 . S
H2556 C2566 0.950 . S
H2557 C2568 0.950 . S
H2558 C2570 0.950 . S
H2559 C2571 0.950 . S
C2560 H2552 0.950 . S
C2560 C2561 1.386 . S
C2560 C2562 1.391 . S
C2561 C2560 1.386 . S
C2561 C2565 1.393 . S
C2562 H2554 0.950 . S
C2562 C2560 1.391 . S
C2562 C2563 1.400 . S
C2563 C2562 1.400 . S
C2563 C2564 1.398 . S
C2563 C2569 1.491 . S
C2564 H2555 0.950 . S
C2564 C2563 1.398 . S
C2564 C2565 1.391 . S
C2565 H2553 0.950 . S
C2565 C2561 1.393 . S
C2565 C2564 1.391 . S
C2566 H2556 0.950 . S
C2566 C2567 1.386 . S
C2566 C2568 1.391 . S
C2567 C2566 1.386 . S
C2567 C2571 1.393 . S
C2568 H2557 0.950 . S
C2568 C2566 1.391 . S
C2568 C2569 1.400 . S
C2569 C2563 1.491 . S
C2569 C2568 1.400 . S
C2569 C2570 1.398 . S
C2570 H2558 0.950 . S
C2570 C2569 1.398 . S
C2570 C2571 1.391 . S
C2571 H2559 0.950 . S
C2571 C2567 1.393 . S
C2571 C2570 1.391 . S
H2572 C2580 0.950 . S
H2573 C2585 0.950 . S
H2574 C2582 0.950 . S
H2575 C2584 0.950 . S
H2576 C2586 0.950 . S
H2577 C2588 0.950 . S
H2578 C2590 0.950 . S
H2579 C2591 0.950 1_565 S
C2580 H2572 0.950 . S
C2580 C2581 1.386 . S
C2580 C2582 1.391 . S
C2581 C2580 1.386 . S
C2581 C2585 1.393 . S
C2582 H2574 0.950 . S
C2582 C2580 1.391 . S
C2582 C2583 1.400 . S
C2583 C2582 1.400 . S
C2583 C2584 1.398 . S
C2583 C2589 1.491 . S
C2584 H2575 0.950 . S
C2584 C2583 1.398 . S
C2584 C2585 1.391 . S
C2585 H2573 0.950 . S
C2585 C2581 1.393 . S
C2585 C2584 1.391 . S
C2586 H2576 0.950 . S
C2586 C2587 1.386 . S
C2586 C2588 1.391 . S
C2587 C2586 1.386 . S
C2587 C2591 1.393 . S
C2588 H2577 0.950 . S
C2588 C2586 1.391 . S
C2588 C2589 1.400 . S
C2589 C2583 1.491 . S
C2589 C2588 1.400 . S
C2589 C2590 1.398 . S
C2590 H2578 0.950 . S
C2590 C2589 1.398 . S
C2590 C2591 1.391 . S
C2591 H2579 0.950 1_545 S
C2591 C2587 1.393 . S
C2591 C2590 1.391 . S
H2592 C2600 0.950 . S
H2593 C2605 0.950 . S
H2594 C2602 0.950 . S
H2595 C2604 0.950 . S
H2596 C2606 0.950 . S
H2597 C2608 0.950 . S
H2598 C2610 0.950 . S
H2599 C2611 0.950 . S
C2600 H2592 0.950 . S
C2600 C2601 1.386 . S
C2600 C2602 1.391 . S
C2601 C2600 1.386 . S
C2601 C2605 1.393 . S
C2602 H2594 0.950 . S
C2602 C2600 1.391 . S
C2602 C2603 1.400 . S
C2603 C2602 1.400 . S
C2603 C2604 1.398 . S
C2603 C2609 1.491 . S
C2604 H2595 0.950 . S
C2604 C2603 1.398 . S
C2604 C2605 1.391 . S
C2605 H2593 0.950 . S
C2605 C2601 1.393 . S
C2605 C2604 1.391 . S
C2606 H2596 0.950 . S
C2606 C2607 1.386 . S
C2606 C2608 1.391 . S
C2607 C2606 1.386 . S
C2607 C2611 1.393 . S
C2608 H2597 0.950 . S
C2608 C2606 1.391 . S
C2608 C2609 1.400 . S
C2609 C2603 1.491 . S
C2609 C2608 1.400 . S
C2609 C2610 1.398 . S
C2610 H2598 0.950 . S
C2610 C2609 1.398 . S
C2610 C2611 1.391 . S
C2611 H2599 0.950 . S
C2611 C2607 1.393 . S
C2611 C2610 1.391 . S
H2612 C2620 0.950 . S
H2613 C2625 0.950 . S
H2614 C2622 0.950 . S
H2615 C2624 0.950 . S
H2616 C2626 0.950 . S
H2617 C2628 0.950 . S
H2618 C2630 0.950 . S
H2619 C2631 0.950 . S
C2620 H2612 0.950 . S
C2620 C2621 1.386 . S
C2620 C2622 1.391 . S
C2621 C2620 1.386 . S
C2621 C2625 1.393 . S
C2622 H2614 0.950 . S
C2622 C2620 1.391 . S
C2622 C2623 1.400 . S
C2623 C2622 1.400 . S
C2623 C2624 1.398 . S
C2623 C2629 1.491 . S
C2624 H2615 0.950 . S
C2624 C2623 1.398 . S
C2624 C2625 1.391 . S
C2625 H2613 0.950 . S
C2625 C2621 1.393 . S
C2625 C2624 1.391 . S
C2626 H2616 0.950 . S
C2626 C2627 1.386 . S
C2626 C2628 1.391 . S
C2627 C2626 1.386 . S
C2627 C2631 1.393 . S
C2628 H2617 0.950 . S
C2628 C2626 1.391 . S
C2628 C2629 1.400 . S
C2629 C2623 1.491 . S
C2629 C2628 1.400 . S
C2629 C2630 1.398 . S
C2630 H2618 0.950 . S
C2630 C2629 1.398 . S
C2630 C2631 1.391 . S
C2631 H2619 0.950 . S
C2631 C2627 1.393 . S
C2631 C2630 1.391 . S
H2632 C2640 0.950 . S
H2633 C2645 0.950 . S
H2634 C2642 0.950 . S
H2635 C2644 0.950 . S
H2636 C2646 0.950 . S
H2637 C2648 0.950 . S
H2638 C2650 0.950 . S
H2639 C2651 0.950 . S
C2640 H2632 0.950 . S
C2640 C2641 1.386 . S
C2640 C2642 1.391 . S
C2641 C2640 1.386 . S
C2641 C2645 1.393 . S
C2642 H2634 0.950 . S
C2642 C2640 1.391 . S
C2642 C2643 1.400 . S
C2643 C2642 1.400 . S
C2643 C2644 1.398 . S
C2643 C2649 1.491 . S
C2644 H2635 0.950 . S
C2644 C2643 1.398 . S
C2644 C2645 1.391 . S
C2645 H2633 0.950 . S
C2645 C2641 1.393 . S
C2645 C2644 1.391 . S
C2646 H2636 0.950 . S
C2646 C2647 1.386 . S
C2646 C2648 1.391 . S
C2647 C2646 1.386 . S
C2647 C2651 1.393 . S
C2648 H2637 0.950 . S
C2648 C2646 1.391 . S
C2648 C2649 1.400 . S
C2649 C2643 1.491 . S
C2649 C2648 1.400 . S
C2649 C2650 1.398 . S
C2650 H2638 0.950 . S
C2650 C2649 1.398 . S
C2650 C2651 1.391 . S
C2651 H2639 0.950 . S
C2651 C2647 1.393 . S
C2651 C2650 1.391 . S
H2652 C2660 0.950 . S
H2653 C2665 0.950 . S
H2654 C2662 0.950 . S
H2655 C2664 0.950 . S
H2656 C2666 0.950 . S
H2657 C2668 0.950 . S
H2658 C2670 0.950 . S
H2659 C2671 0.950 . S
C2660 H2652 0.950 . S
C2660 C2661 1.386 . S
C2660 C2662 1.391 . S
C2661 C2660 1.386 . S
C2661 C2665 1.393 . S
C2662 H2654 0.950 . S
C2662 C2660 1.391 . S
C2662 C2663 1.400 . S
C2663 C2662 1.400 . S
C2663 C2664 1.398 . S
C2663 C2669 1.491 . S
C2664 H2655 0.950 . S
C2664 C2663 1.398 . S
C2664 C2665 1.391 . S
C2665 H2653 0.950 . S
C2665 C2661 1.393 . S
C2665 C2664 1.391 . S
C2666 H2656 0.950 . S
C2666 C2667 1.386 . S
C2666 C2668 1.391 . S
C2667 C2666 1.386 . S
C2667 C2671 1.393 . S
C2668 H2657 0.950 . S
C2668 C2666 1.391 . S
C2668 C2669 1.400 . S
C2669 C2663 1.491 . S
C2669 C2668 1.400 . S
C2669 C2670 1.398 . S
C2670 H2658 0.950 . S
C2670 C2669 1.398 . S
C2670 C2671 1.391 . S
C2671 H2659 0.950 . S
C2671 C2667 1.393 . S
C2671 C2670 1.391 . S
H2672 C2680 0.950 . S
H2673 C2685 0.950 . S
H2674 C2682 0.950 . S
H2675 C2684 0.950 . S
H2676 C2686 0.950 . S
H2677 C2688 0.950 . S
H2678 C2690 0.950 . S
H2679 C2691 0.950 . S
C2680 H2672 0.950 . S
C2680 C2681 1.386 . S
C2680 C2682 1.391 . S
C2681 C2680 1.386 . S
C2681 C2685 1.393 . S
C2682 H2674 0.950 . S
C2682 C2680 1.391 . S
C2682 C2683 1.400 . S
C2683 C2682 1.400 . S
C2683 C2684 1.398 . S
C2683 C2689 1.491 . S
C2684 H2675 0.950 . S
C2684 C2683 1.398 . S
C2684 C2685 1.391 . S
C2685 H2673 0.950 . S
C2685 C2681 1.393 . S
C2685 C2684 1.391 . S
C2686 H2676 0.950 . S
C2686 C2687 1.386 . S
C2686 C2688 1.391 . S
C2687 C2686 1.386 . S
C2687 C2691 1.393 . S
C2688 H2677 0.950 . S
C2688 C2686 1.391 . S
C2688 C2689 1.400 . S
C2689 C2683 1.491 . S
C2689 C2688 1.400 . S
C2689 C2690 1.398 . S
C2690 H2678 0.950 . S
C2690 C2689 1.398 . S
C2690 C2691 1.391 . S
C2691 H2679 0.950 . S
C2691 C2687 1.393 . S
C2691 C2690 1.391 . S
H2692 C2700 0.950 . S
H2693 C2705 0.950 . S
H2694 C2702 0.950 . S
H2695 C2704 0.950 . S
H2696 C2706 0.950 . S
H2697 C2708 0.950 . S
H2698 C2710 0.950 . S
H2699 C2711 0.950 . S
C2700 H2692 0.950 . S
C2700 C2701 1.386 . S
C2700 C2702 1.391 . S
C2701 C2700 1.386 . S
C2701 C2705 1.393 . S
C2702 H2694 0.950 . S
C2702 C2700 1.391 . S
C2702 C2703 1.400 . S
C2703 C2702 1.400 . S
C2703 C2704 1.398 . S
C2703 C2709 1.491 . S
C2704 H2695 0.950 . S
C2704 C2703 1.398 . S
C2704 C2705 1.391 . S
C2705 H2693 0.950 . S
C2705 C2701 1.393 . S
C2705 C2704 1.391 . S
C2706 H2696 0.950 . S
C2706 C2707 1.386 . S
C2706 C2708 1.391 . S
C2707 C2706 1.386 . S
C2707 C2711 1.393 . S
C2708 H2697 0.950 . S
C2708 C2706 1.391 . S
C2708 C2709 1.400 . S
C2709 C2703 1.491 . S
C2709 C2708 1.400 . S
C2709 C2710 1.398 . S
C2710 H2698 0.950 . S
C2710 C2709 1.398 . S
C2710 C2711 1.391 . S
C2711 H2699 0.950 . S
C2711 C2707 1.393 . S
C2711 C2710 1.391 . S
H2712 C2720 0.950 . S
H2713 C2725 0.950 . S
H2714 C2722 0.950 . S
H2715 C2724 0.950 . S
H2716 C2726 0.950 . S
H2717 C2728 0.950 . S
H2718 C2730 0.950 . S
H2719 C2731 0.950 . S
C2720 H2712 0.950 . S
C2720 C2721 1.386 . S
C2720 C2722 1.391 . S
C2721 C2720 1.386 . S
C2721 C2725 1.393 . S
C2722 H2714 0.950 . S
C2722 C2720 1.391 . S
C2722 C2723 1.400 . S
C2723 C2722 1.400 . S
C2723 C2724 1.398 . S
C2723 C2729 1.491 . S
C2724 H2715 0.950 . S
C2724 C2723 1.398 . S
C2724 C2725 1.391 . S
C2725 H2713 0.950 . S
C2725 C2721 1.393 . S
C2725 C2724 1.391 . S
C2726 H2716 0.950 . S
C2726 C2727 1.386 . S
C2726 C2728 1.391 . S
C2727 C2726 1.386 . S
C2727 C2731 1.393 . S
C2728 H2717 0.950 . S
C2728 C2726 1.391 . S
C2728 C2729 1.400 . S
C2729 C2723 1.491 . S
C2729 C2728 1.400 . S
C2729 C2730 1.398 . S
C2730 H2718 0.950 . S
C2730 C2729 1.398 . S
C2730 C2731 1.391 . S
C2731 H2719 0.950 . S
C2731 C2727 1.393 . S
C2731 C2730 1.391 . S
H2732 C2740 0.950 . S
H2733 C2745 0.950 . S
H2734 C2742 0.950 . S
H2735 C2744 0.950 . S
H2736 C2746 0.950 . S
H2737 C2748 0.950 . S
H2738 C2750 0.950 . S
H2739 C2751 0.950 . S
C2740 H2732 0.950 . S
C2740 C2741 1.386 . S
C2740 C2742 1.391 . S
C2741 C2740 1.386 . S
C2741 C2745 1.393 . S
C2742 H2734 0.950 . S
C2742 C2740 1.391 . S
C2742 C2743 1.400 . S
C2743 C2742 1.400 . S
C2743 C2744 1.398 . S
C2743 C2749 1.491 . S
C2744 H2735 0.950 . S
C2744 C2743 1.398 . S
C2744 C2745 1.391 . S
C2745 H2733 0.950 . S
C2745 C2741 1.393 . S
C2745 C2744 1.391 . S
C2746 H2736 0.950 . S
C2746 C2747 1.386 . S
C2746 C2748 1.391 . S
C2747 C2746 1.386 . S
C2747 C2751 1.393 . S
C2748 H2737 0.950 . S
C2748 C2746 1.391 . S
C2748 C2749 1.400 . S
C2749 C2743 1.491 . S
C2749 C2748 1.400 . S
C2749 C2750 1.398 . S
C2750 H2738 0.950 . S
C2750 C2749 1.398 . S
C2750 C2751 1.391 . S
C2751 H2739 0.950 . S
C2751 C2747 1.393 . S
C2751 C2750 1.391 . S
H2752 C2760 0.950 . S
H2753 C2765 0.950 . S
H2754 C2762 0.950 . S
H2755 C2764 0.950 . S
H2756 C2766 0.950 . S
H2757 C2768 0.950 . S
H2758 C2770 0.950 . S
H2759 C2771 0.950 . S
C2760 H2752 0.950 . S
C2760 C2761 1.386 . S
C2760 C2762 1.391 . S
C2761 C2760 1.386 . S
C2761 C2765 1.393 . S
C2762 H2754 0.950 . S
C2762 C2760 1.391 . S
C2762 C2763 1.400 . S
C2763 C2762 1.400 . S
C2763 C2764 1.398 . S
C2763 C2769 1.491 . S
C2764 H2755 0.950 . S
C2764 C2763 1.398 . S
C2764 C2765 1.391 . S
C2765 H2753 0.950 . S
C2765 C2761 1.393 . S
C2765 C2764 1.391 . S
C2766 H2756 0.950 . S
C2766 C2767 1.386 . S
C2766 C2768 1.391 . S
C2767 C2766 1.386 . S
C2767 C2771 1.393 . S
C2768 H2757 0.950 . S
C2768 C2766 1.391 . S
C2768 C2769 1.400 . S
C2769 C2763 1.491 . S
C2769 C2768 1.400 . S
C2769 C2770 1.398 . S
C2770 H2758 0.950 . S
C2770 C2769 1.398 . S
C2770 C2771 1.391 . S
C2771 H2759 0.950 . S
C2771 C2767 1.393 . S
C2771 C2770 1.391 . S
H2772 C2780 0.950 . S
H2773 C2785 0.950 . S
H2774 C2782 0.950 . S
H2775 C2784 0.950 . S
H2776 C2786 0.950 . S
H2777 C2788 0.950 . S
H2778 C2790 0.950 . S
H2779 C2791 0.950 . S
C2780 H2772 0.950 . S
C2780 C2781 1.386 . S
C2780 C2782 1.391 . S
C2781 C2780 1.386 . S
C2781 C2785 1.393 . S
C2782 H2774 0.950 . S
C2782 C2780 1.391 . S
C2782 C2783 1.400 . S
C2783 C2782 1.400 . S
C2783 C2784 1.398 . S
C2783 C2789 1.491 . S
C2784 H2775 0.950 . S
C2784 C2783 1.398 . S
C2784 C2785 1.391 . S
C2785 H2773 0.950 . S
C2785 C2781 1.393 . S
C2785 C2784 1.391 . S
C2786 H2776 0.950 . S
C2786 C2787 1.386 . S
C2786 C2788 1.391 . S
C2787 C2786 1.386 . S
C2787 C2791 1.393 . S
C2788 H2777 0.950 . S
C2788 C2786 1.391 . S
C2788 C2789 1.400 . S
C2789 C2783 1.491 . S
C2789 C2788 1.400 . S
C2789 C2790 1.398 . S
C2790 H2778 0.950 . S
C2790 C2789 1.398 . S
C2790 C2791 1.391 . S
C2791 H2779 0.950 . S
C2791 C2787 1.393 . S
C2791 C2790 1.391 . S
H2792 C2800 0.950 . S
H2793 C2805 0.950 . S
H2794 C2802 0.950 . S
H2795 C2804 0.950 . S
H2796 C2806 0.950 . S
H2797 C2808 0.950 . S
H2798 C2810 0.950 . S
H2799 C2811 0.950 . S
C2800 H2792 0.950 . S
C2800 C2801 1.386 . S
C2800 C2802 1.391 . S
C2801 C2800 1.386 . S
C2801 C2805 1.393 . S
C2802 H2794 0.950 . S
C2802 C2800 1.391 . S
C2802 C2803 1.400 . S
C2803 C2802 1.400 . S
C2803 C2804 1.398 . S
C2803 C2809 1.491 . S
C2804 H2795 0.950 . S
C2804 C2803 1.398 . S
C2804 C2805 1.391 . S
C2805 H2793 0.950 . S
C2805 C2801 1.393 . S
C2805 C2804 1.391 . S
C2806 H2796 0.950 . S
C2806 C2807 1.386 . S
C2806 C2808 1.391 . S
C2807 C2806 1.386 . S
C2807 C2811 1.393 . S
C2808 H2797 0.950 . S
C2808 C2806 1.391 . S
C2808 C2809 1.400 . S
C2809 C2803 1.491 . S
C2809 C2808 1.400 . S
C2809 C2810 1.398 . S
C2810 H2798 0.950 . S
C2810 C2809 1.398 . S
C2810 C2811 1.391 . S
C2811 H2799 0.950 . S
C2811 C2807 1.393 . S
C2811 C2810 1.391 . S
H2812 C2820 0.950 . S
H2813 C2825 0.950 . S
H2814 C2822 0.950 . S
H2815 C2824 0.950 . S
H2816 C2826 0.950 . S
H2817 C2828 0.950 . S
H2818 C2830 0.950 . S
H2819 C2831 0.950 . S
C2820 H2812 0.950 . S
C2820 C2821 1.386 . S
C2820 C2822 1.391 . S
C2821 C2820 1.386 . S
C2821 C2825 1.393 . S
C2822 H2814 0.950 . S
C2822 C2820 1.391 . S
C2822 C2823 1.400 . S
C2823 C2822 1.400 . S
C2823 C2824 1.398 . S
C2823 C2829 1.491 . S
C2824 H2815 0.950 . S
C2824 C2823 1.398 . S
C2824 C2825 1.391 . S
C2825 H2813 0.950 . S
C2825 C2821 1.393 . S
C2825 C2824 1.391 . S
C2826 H2816 0.950 . S
C2826 C2827 1.386 . S
C2826 C2828 1.391 . S
C2827 C2826 1.386 . S
C2827 C2831 1.393 . S
C2828 H2817 0.950 . S
C2828 C2826 1.391 . S
C2828 C2829 1.400 . S
C2829 C2823 1.491 . S
C2829 C2828 1.400 . S
C2829 C2830 1.398 . S
C2830 H2818 0.950 . S
C2830 C2829 1.398 . S
C2830 C2831 1.391 . S
C2831 H2819 0.950 . S
C2831 C2827 1.393 . S
C2831 C2830 1.391 . S
H2832 C2840 0.950 . S
H2833 C2845 0.950 . S
H2834 C2842 0.950 . S
H2835 C2844 0.950 1_455 S
H2836 C2846 0.950 . S
H2837 C2848 0.950 . S
H2838 C2850 0.950 1_655 S
H2839 C2851 0.950 . S
C2840 H2832 0.950 . S
C2840 C2841 1.386 . S
C2840 C2842 1.391 . S
C2841 C2840 1.386 . S
C2841 C2845 1.393 . S
C2842 H2834 0.950 . S
C2842 C2840 1.391 . S
C2842 C2843 1.400 . S
C2843 C2842 1.400 . S
C2843 C2844 1.398 . S
C2843 C2849 1.491 1_655 S
C2844 H2835 0.950 1_655 S
C2844 C2843 1.398 . S
C2844 C2845 1.391 . S
C2845 H2833 0.950 . S
C2845 C2841 1.393 . S
C2845 C2844 1.391 . S
C2846 H2836 0.950 . S
C2846 C2847 1.386 . S
C2846 C2848 1.391 . S
C2847 C2846 1.386 . S
C2847 C2851 1.393 . S
C2848 H2837 0.950 . S
C2848 C2846 1.391 . S
C2848 C2849 1.400 . S
C2849 C2843 1.491 1_455 S
C2849 C2848 1.400 . S
C2849 C2850 1.398 . S
C2850 H2838 0.950 1_455 S
C2850 C2849 1.398 . S
C2850 C2851 1.391 . S
C2851 H2839 0.950 . S
C2851 C2847 1.393 . S
C2851 C2850 1.391 . S
H2852 C2860 0.950 . S
H2853 C2865 0.950 . S
H2854 C2862 0.950 . S
H2855 C2864 0.950 . S
H2856 C2866 0.950 . S
H2857 C2868 0.950 . S
H2858 C2870 0.950 . S
H2859 C2871 0.950 . S
C2860 H2852 0.950 . S
C2860 C2861 1.386 . S
C2860 C2862 1.391 . S
C2861 C2860 1.386 . S
C2861 C2865 1.393 . S
C2862 H2854 0.950 . S
C2862 C2860 1.391 . S
C2862 C2863 1.400 . S
C2863 C2862 1.400 . S
C2863 C2864 1.398 . S
C2863 C2869 1.491 . S
C2864 H2855 0.950 . S
C2864 C2863 1.398 . S
C2864 C2865 1.391 . S
C2865 H2853 0.950 . S
C2865 C2861 1.393 . S
C2865 C2864 1.391 . S
C2866 H2856 0.950 . S
C2866 C2867 1.386 . S
C2866 C2868 1.391 . S
C2867 C2866 1.386 . S
C2867 C2871 1.393 . S
C2868 H2857 0.950 . S
C2868 C2866 1.391 . S
C2868 C2869 1.400 . S
C2869 C2863 1.491 . S
C2869 C2868 1.400 . S
C2869 C2870 1.398 . S
C2870 H2858 0.950 . S
C2870 C2869 1.398 . S
C2870 C2871 1.391 . S
C2871 H2859 0.950 . S
C2871 C2867 1.393 . S
C2871 C2870 1.391 . S
H2872 C2880 0.950 . S
H2873 C2885 0.950 . S
H2874 C2882 0.950 1_565 S
H2875 C2884 0.950 . S
H2876 C2886 0.950 . S
H2877 C2888 0.950 1_545 S
H2878 C2890 0.950 . S
H2879 C2891 0.950 . S
C2880 H2872 0.950 . S
C2880 C2881 1.386 . S
C2880 C2882 1.391 . S
C2881 C2880 1.386 . S
C2881 C2885 1.393 . S
C2882 H2874 0.950 1_545 S
C2882 C2880 1.391 . S
C2882 C2883 1.400 . S
C2883 C2882 1.400 . S
C2883 C2884 1.398 . S
C2883 C2889 1.491 1_545 S
C2884 H2875 0.950 . S
C2884 C2883 1.398 . S
C2884 C2885 1.391 . S
C2885 H2873 0.950 . S
C2885 C2881 1.393 . S
C2885 C2884 1.391 . S
C2886 H2876 0.950 . S
C2886 C2887 1.386 . S
C2886 C2888 1.391 . S
C2887 C2886 1.386 . S
C2887 C2891 1.393 . S
C2888 H2877 0.950 1_565 S
C2888 C2886 1.391 . S
C2888 C2889 1.400 . S
C2889 C2883 1.491 1_565 S
C2889 C2888 1.400 . S
C2889 C2890 1.398 . S
C2890 H2878 0.950 . S
C2890 C2889 1.398 . S
C2890 C2891 1.391 . S
C2891 H2879 0.950 . S
C2891 C2887 1.393 . S
C2891 C2890 1.391 . S
H2892 C2900 0.950 . S
H2893 C2905 0.950 . S
H2894 C2902 0.950 1_565 S
H2895 C2904 0.950 . S
H2896 C2906 0.950 . S
H2897 C2908 0.950 1_545 S
H2898 C2910 0.950 . S
H2899 C2911 0.950 . S
C2900 H2892 0.950 . S
C2900 C2901 1.386 . S
C2900 C2902 1.391 . S
C2901 C2900 1.386 . S
C2901 C2905 1.393 . S
C2902 H2894 0.950 1_545 S
C2902 C2900 1.391 . S
C2902 C2903 1.400 . S
C2903 C2902 1.400 . S
C2903 C2904 1.398 . S
C2903 C2909 1.491 1_545 S
C2904 H2895 0.950 . S
C2904 C2903 1.398 . S
C2904 C2905 1.391 . S
C2905 H2893 0.950 . S
C2905 C2901 1.393 . S
C2905 C2904 1.391 . S
C2906 H2896 0.950 . S
C2906 C2907 1.386 . S
C2906 C2908 1.391 . S
C2907 C2906 1.386 . S
C2907 C2911 1.393 . S
C2908 H2897 0.950 1_565 S
C2908 C2906 1.391 . S
C2908 C2909 1.400 . S
C2909 C2903 1.491 1_565 S
C2909 C2908 1.400 . S
C2909 C2910 1.398 . S
C2910 H2898 0.950 . S
C2910 C2909 1.398 . S
C2910 C2911 1.391 . S
C2911 H2899 0.950 . S
C2911 C2907 1.393 . S
C2911 C2910 1.391 . S
H2912 C2920 0.950 . S
H2913 C2925 0.950 . S
H2914 C2922 0.950 . S
H2915 C2924 0.950 . S
H2916 C2926 0.950 . S
H2917 C2928 0.950 . S
H2918 C2930 0.950 . S
H2919 C2931 0.950 . S
C2920 H2912 0.950 . S
C2920 C2921 1.386 . S
C2920 C2922 1.391 . S
C2921 C2920 1.386 . S
C2921 C2925 1.393 . S
C2922 H2914 0.950 . S
C2922 C2920 1.391 . S
C2922 C2923 1.400 . S
C2923 C2922 1.400 . S
C2923 C2924 1.398 . S
C2923 C2929 1.491 1_455 S
C2924 H2915 0.950 . S
C2924 C2923 1.398 . S
C2924 C2925 1.391 . S
C2925 H2913 0.950 . S
C2925 C2921 1.393 . S
C2925 C2924 1.391 . S
C2926 H2916 0.950 . S
C2926 C2927 1.386 . S
C2926 C2928 1.391 . S
C2927 C2926 1.386 . S
C2927 C2931 1.393 . S
C2928 H2917 0.950 . S
C2928 C2926 1.391 . S
C2928 C2929 1.400 . S
C2929 C2923 1.491 1_655 S
C2929 C2928 1.400 . S
C2929 C2930 1.398 . S
C2930 H2918 0.950 . S
C2930 C2929 1.398 . S
C2930 C2931 1.391 . S
C2931 H2919 0.950 . S
C2931 C2927 1.393 . S
C2931 C2930 1.391 . S
H2932 C2940 0.950 . S
H2933 C2945 0.950 . S
H2934 C2942 0.950 . S
H2935 C2944 0.950 . S
H2936 C2946 0.950 . S
H2937 C2948 0.950 . S
H2938 C2950 0.950 . S
H2939 C2951 0.950 . S
C2940 H2932 0.950 . S
C2940 C2941 1.386 . S
C2940 C2942 1.391 . S
C2941 C2940 1.386 . S
C2941 C2945 1.393 . S
C2942 H2934 0.950 . S
C2942 C2940 1.391 . S
C2942 C2943 1.400 . S
C2943 C2942 1.400 . S
C2943 C2944 1.398 . S
C2943 C2949 1.491 . S
C2944 H2935 0.950 . S
C2944 C2943 1.398 . S
C2944 C2945 1.391 . S
C2945 H2933 0.950 . S
C2945 C2941 1.393 . S
C2945 C2944 1.391 . S
C2946 H2936 0.950 . S
C2946 C2947 1.386 . S
C2946 C2948 1.391 . S
C2947 C2946 1.386 . S
C2947 C2951 1.393 . S
C2948 H2937 0.950 . S
C2948 C2946 1.391 . S
C2948 C2949 1.400 . S
C2949 C2943 1.491 . S
C2949 C2948 1.400 . S
C2949 C2950 1.398 . S
C2950 H2938 0.950 . S
C2950 C2949 1.398 . S
C2950 C2951 1.391 . S
C2951 H2939 0.950 . S
C2951 C2947 1.393 . S
C2951 C2950 1.391 . S
H2952 C2960 0.950 . S
H2953 C2965 0.950 . S
H2954 C2962 0.950 . S
H2955 C2964 0.950 . S
H2956 C2966 0.950 . S
H2957 C2968 0.950 . S
H2958 C2970 0.950 . S
H2959 C2971 0.950 . S
C2960 H2952 0.950 . S
C2960 C2961 1.386 . S
C2960 C2962 1.391 . S
C2961 C2960 1.386 . S
C2961 C2965 1.393 . S
C2962 H2954 0.950 . S
C2962 C2960 1.391 . S
C2962 C2963 1.400 . S
C2963 C2962 1.400 . S
C2963 C2964 1.398 . S
C2963 C2969 1.491 1_655 S
C2964 H2955 0.950 . S
C2964 C2963 1.398 . S
C2964 C2965 1.391 . S
C2965 H2953 0.950 . S
C2965 C2961 1.393 . S
C2965 C2964 1.391 . S
C2966 H2956 0.950 . S
C2966 C2967 1.386 . S
C2966 C2968 1.391 . S
C2967 C2966 1.386 . S
C2967 C2971 1.393 . S
C2968 H2957 0.950 . S
C2968 C2966 1.391 . S
C2968 C2969 1.400 . S
C2969 C2963 1.491 1_455 S
C2969 C2968 1.400 . S
C2969 C2970 1.398 . S
C2970 H2958 0.950 . S
C2970 C2969 1.398 . S
C2970 C2971 1.391 . S
C2971 H2959 0.950 . S
C2971 C2967 1.393 . S
C2971 C2970 1.391 . S
H2972 C2980 0.950 . S
H2973 C2985 0.950 . S
H2974 C2982 0.950 . S
H2975 C2984 0.950 . S
H2976 C2986 0.950 . S
H2977 C2988 0.950 . S
H2978 C2990 0.950 . S
H2979 C2991 0.950 . S
C2980 H2972 0.950 . S
C2980 C2981 1.386 . S
C2980 C2982 1.391 . S
C2981 C2980 1.386 . S
C2981 C2985 1.393 . S
C2982 H2974 0.950 . S
C2982 C2980 1.391 . S
C2982 C2983 1.400 . S
C2983 C2982 1.400 . S
C2983 C2984 1.398 . S
C2983 C2989 1.491 . S
C2984 H2975 0.950 . S
C2984 C2983 1.398 . S
C2984 C2985 1.391 . S
C2985 H2973 0.950 . S
C2985 C2981 1.393 . S
C2985 C2984 1.391 . S
C2986 H2976 0.950 . S
C2986 C2987 1.386 . S
C2986 C2988 1.391 . S
C2987 C2986 1.386 . S
C2987 C2991 1.393 . S
C2988 H2977 0.950 . S
C2988 C2986 1.391 . S
C2988 C2989 1.400 . S
C2989 C2983 1.491 . S
C2989 C2988 1.400 . S
C2989 C2990 1.398 . S
C2990 H2978 0.950 . S
C2990 C2989 1.398 . S
C2990 C2991 1.391 . S
C2991 H2979 0.950 . S
C2991 C2987 1.393 . S
C2991 C2990 1.391 . S
H2992 C3000 0.950 . S
H2993 C3005 0.950 . S
H2994 C3002 0.950 . S
H2995 C3004 0.950 . S
H2996 C3006 0.950 . S
H2997 C3008 0.950 . S
H2998 C3010 0.950 . S
H2999 C3011 0.950 . S
C3000 H2992 0.950 . S
C3000 C3001 1.386 . S
C3000 C3002 1.391 . S
C3001 C3000 1.386 . S
C3001 C3005 1.393 . S
C3002 H2994 0.950 . S
C3002 C3000 1.391 . S
C3002 C3003 1.400 . S
C3003 C3002 1.400 . S
C3003 C3004 1.398 . S
C3003 C3009 1.491 1_545 S
C3004 H2995 0.950 . S
C3004 C3003 1.398 . S
C3004 C3005 1.391 . S
C3005 H2993 0.950 . S
C3005 C3001 1.393 . S
C3005 C3004 1.391 . S
C3006 H2996 0.950 . S
C3006 C3007 1.386 . S
C3006 C3008 1.391 . S
C3007 C3006 1.386 . S
C3007 C3011 1.393 . S
C3008 H2997 0.950 . S
C3008 C3006 1.391 . S
C3008 C3009 1.400 . S
C3009 C3003 1.491 1_565 S
C3009 C3008 1.400 . S
C3009 C3010 1.398 . S
C3010 H2998 0.950 . S
C3010 C3009 1.398 . S
C3010 C3011 1.391 . S
C3011 H2999 0.950 . S
C3011 C3007 1.393 . S
C3011 C3010 1.391 . S
H3012 C3020 0.950 . S
H3013 C3025 0.950 . S
H3014 C3022 0.950 . S
H3015 C3024 0.950 1_455 S
H3016 C3026 0.950 . S
H3017 C3028 0.950 . S
H3018 C3030 0.950 1_655 S
H3019 C3031 0.950 . S
C3020 H3012 0.950 . S
C3020 C3021 1.386 . S
C3020 C3022 1.391 . S
C3021 C3020 1.386 . S
C3021 C3025 1.393 . S
C3022 H3014 0.950 . S
C3022 C3020 1.391 . S
C3022 C3023 1.400 . S
C3023 C3022 1.400 . S
C3023 C3024 1.398 . S
C3023 C3029 1.491 1_655 S
C3024 H3015 0.950 1_655 S
C3024 C3023 1.398 . S
C3024 C3025 1.391 . S
C3025 H3013 0.950 . S
C3025 C3021 1.393 . S
C3025 C3024 1.391 . S
C3026 H3016 0.950 . S
C3026 C3027 1.386 . S
C3026 C3028 1.391 . S
C3027 C3026 1.386 . S
C3027 C3031 1.393 . S
C3028 H3017 0.950 . S
C3028 C3026 1.391 . S
C3028 C3029 1.400 . S
C3029 C3023 1.491 1_455 S
C3029 C3028 1.400 . S
C3029 C3030 1.398 . S
C3030 H3018 0.950 1_455 S
C3030 C3029 1.398 . S
C3030 C3031 1.391 . S
C3031 H3019 0.950 . S
C3031 C3027 1.393 . S
C3031 C3030 1.391 . S
H3032 C3040 0.950 . S
H3033 C3045 0.950 . S
H3034 C3042 0.950 . S
H3035 C3044 0.950 . S
H3036 C3046 0.950 . S
H3037 C3048 0.950 . S
H3038 C3050 0.950 . S
H3039 C3051 0.950 . S
C3040 H3032 0.950 . S
C3040 C3041 1.386 . S
C3040 C3042 1.391 . S
C3041 C3040 1.386 . S
C3041 C3045 1.393 . S
C3042 H3034 0.950 . S
C3042 C3040 1.391 . S
C3042 C3043 1.400 . S
C3043 C3042 1.400 . S
C3043 C3044 1.398 . S
C3043 C3049 1.491 . S
C3044 H3035 0.950 . S
C3044 C3043 1.398 . S
C3044 C3045 1.391 . S
C3045 H3033 0.950 . S
C3045 C3041 1.393 . S
C3045 C3044 1.391 . S
C3046 H3036 0.950 . S
C3046 C3047 1.386 . S
C3046 C3048 1.391 . S
C3047 C3046 1.386 . S
C3047 C3051 1.393 . S
C3048 H3037 0.950 . S
C3048 C3046 1.391 . S
C3048 C3049 1.400 . S
C3049 C3043 1.491 . S
C3049 C3048 1.400 . S
C3049 C3050 1.398 . S
C3050 H3038 0.950 . S
C3050 C3049 1.398 . S
C3050 C3051 1.391 . S
C3051 H3039 0.950 . S
C3051 C3047 1.393 . S
C3051 C3050 1.391 . S
H3052 C3060 0.950 . S
H3053 C3065 0.950 . S
H3054 C3062 0.950 1_565 S
H3055 C3064 0.950 . S
H3056 C3066 0.950 . S
H3057 C3068 0.950 1_545 S
H3058 C3070 0.950 . S
H3059 C3071 0.950 . S
C3060 H3052 0.950 . S
C3060 C3061 1.386 . S
C3060 C3062 1.391 . S
C3061 C3060 1.386 . S
C3061 C3065 1.393 . S
C3062 H3054 0.950 1_545 S
C3062 C3060 1.391 . S
C3062 C3063 1.400 . S
C3063 C3062 1.400 . S
C3063 C3064 1.398 . S
C3063 C3069 1.491 1_545 S
C3064 H3055 0.950 . S
C3064 C3063 1.398 . S
C3064 C3065 1.391 . S
C3065 H3053 0.950 . S
C3065 C3061 1.393 . S
C3065 C3064 1.391 . S
C3066 H3056 0.950 . S
C3066 C3067 1.386 . S
C3066 C3068 1.391 . S
C3067 C3066 1.386 . S
C3067 C3071 1.393 . S
C3068 H3057 0.950 1_565 S
C3068 C3066 1.391 . S
C3068 C3069 1.400 . S
C3069 C3063 1.491 1_565 S
C3069 C3068 1.400 . S
C3069 C3070 1.398 . S
C3070 H3058 0.950 . S
C3070 C3069 1.398 . S
C3070 C3071 1.391 . S
C3071 H3059 0.950 . S
C3071 C3067 1.393 . S
C3071 C3070 1.391 . S
H3072 C3080 0.950 . S
H3073 C3085 0.950 . S
H3074 C3082 0.950 . S
H3075 C3084 0.950 . S
H3076 C3086 0.950 . S
H3077 C3088 0.950 . S
H3078 C3090 0.950 . S
H3079 C3091 0.950 . S
C3080 H3072 0.950 . S
C3080 C3081 1.386 . S
C3080 C3082 1.391 . S
C3081 C3080 1.386 . S
C3081 C3085 1.393 . S
C3082 H3074 0.950 . S
C3082 C3080 1.391 . S
C3082 C3083 1.400 . S
C3083 C3082 1.400 . S
C3083 C3084 1.398 . S
C3083 C3089 1.491 . S
C3084 H3075 0.950 . S
C3084 C3083 1.398 . S
C3084 C3085 1.391 . S
C3085 H3073 0.950 . S
C3085 C3081 1.393 . S
C3085 C3084 1.391 . S
C3086 H3076 0.950 . S
C3086 C3087 1.386 . S
C3086 C3088 1.391 . S
C3087 C3086 1.386 . S
C3087 C3091 1.393 . S
C3088 H3077 0.950 . S
C3088 C3086 1.391 . S
C3088 C3089 1.400 . S
C3089 C3083 1.491 . S
C3089 C3088 1.400 . S
C3089 C3090 1.398 . S
C3090 H3078 0.950 . S
C3090 C3089 1.398 . S
C3090 C3091 1.391 . S
C3091 H3079 0.950 . S
C3091 C3087 1.393 . S
C3091 C3090 1.391 . S
H3092 C3100 0.950 . S
H3093 C3105 0.950 . S
H3094 C3102 0.950 . S
H3095 C3104 0.950 . S
H3096 C3106 0.950 . S
H3097 C3108 0.950 . S
H3098 C3110 0.950 . S
H3099 C3111 0.950 . S
C3100 H3092 0.950 . S
C3100 C3101 1.386 . S
C3100 C3102 1.391 . S
C3101 C3100 1.386 . S
C3101 C3105 1.393 . S
C3102 H3094 0.950 . S
C3102 C3100 1.391 . S
C3102 C3103 1.400 . S
C3103 C3102 1.400 . S
C3103 C3104 1.398 . S
C3103 C3109 1.491 . S
C3104 H3095 0.950 . S
C3104 C3103 1.398 . S
C3104 C3105 1.391 . S
C3105 H3093 0.950 . S
C3105 C3101 1.393 . S
C3105 C3104 1.391 . S
C3106 H3096 0.950 . S
C3106 C3107 1.386 . S
C3106 C3108 1.391 . S
C3107 C3106 1.386 . S
C3107 C3111 1.393 . S
C3108 H3097 0.950 . S
C3108 C3106 1.391 . S
C3108 C3109 1.400 . S
C3109 C3103 1.491 . S
C3109 C3108 1.400 . S
C3109 C3110 1.398 . S
C3110 H3098 0.950 . S
C3110 C3109 1.398 . S
C3110 C3111 1.391 . S
C3111 H3099 0.950 . S
C3111 C3107 1.393 . S
C3111 C3110 1.391 . S
H3112 C3120 0.950 . S
H3113 C3125 0.950 . S
H3114 C3122 0.950 . S
H3115 C3124 0.950 . S
H3116 C3126 0.950 . S
H3117 C3128 0.950 . S
H3118 C3130 0.950 . S
H3119 C3131 0.950 . S
C3120 H3112 0.950 . S
C3120 C3121 1.386 . S
C3120 C3122 1.391 . S
C3121 C3120 1.386 . S
C3121 C3125 1.393 . S
C3122 H3114 0.950 . S
C3122 C3120 1.391 . S
C3122 C3123 1.400 . S
C3123 C3122 1.400 . S
C3123 C3124 1.398 . S
C3123 C3129 1.491 . S
C3124 H3115 0.950 . S
C3124 C3123 1.398 . S
C3124 C3125 1.391 . S
C3125 H3113 0.950 . S
C3125 C3121 1.393 . S
C3125 C3124 1.391 . S
C3126 H3116 0.950 . S
C3126 C3127 1.386 . S
C3126 C3128 1.391 . S
C3127 C3126 1.386 . S
C3127 C3131 1.393 . S
C3128 H3117 0.950 . S
C3128 C3126 1.391 . S
C3128 C3129 1.400 . S
C3129 C3123 1.491 . S
C3129 C3128 1.400 . S
C3129 C3130 1.398 . S
C3130 H3118 0.950 . S
C3130 C3129 1.398 . S
C3130 C3131 1.391 . S
C3131 H3119 0.950 . S
C3131 C3127 1.393 . S
C3131 C3130 1.391 . S
H3132 C3140 0.950 . S
H3133 C3145 0.950 . S
H3134 C3142 0.950 . S
H3135 C3144 0.950 . S
H3136 C3146 0.950 . S
H3137 C3148 0.950 . S
H3138 C3150 0.950 . S
H3139 C3151 0.950 . S
C3140 H3132 0.950 . S
C3140 C3141 1.386 . S
C3140 C3142 1.391 . S
C3141 C3140 1.386 . S
C3141 C3145 1.393 . S
C3142 H3134 0.950 . S
C3142 C3140 1.391 . S
C3142 C3143 1.400 . S
C3143 C3142 1.400 . S
C3143 C3144 1.398 . S
C3143 C3149 1.491 . S
C3144 H3135 0.950 . S
C3144 C3143 1.398 . S
C3144 C3145 1.391 . S
C3145 H3133 0.950 . S
C3145 C3141 1.393 . S
C3145 C3144 1.391 . S
C3146 H3136 0.950 . S
C3146 C3147 1.386 . S
C3146 C3148 1.391 . S
C3147 C3146 1.386 . S
C3147 C3151 1.393 . S
C3148 H3137 0.950 . S
C3148 C3146 1.391 . S
C3148 C3149 1.400 . S
C3149 C3143 1.491 . S
C3149 C3148 1.400 . S
C3149 C3150 1.398 . S
C3150 H3138 0.950 . S
C3150 C3149 1.398 . S
C3150 C3151 1.391 . S
C3151 H3139 0.950 . S
C3151 C3147 1.393 . S
C3151 C3150 1.391 . S
H3152 C3160 0.950 . S
H3153 C3165 0.950 . S
H3154 C3162 0.950 . S
H3155 C3164 0.950 . S
H3156 C3166 0.950 . S
H3157 C3168 0.950 . S
H3158 C3170 0.950 . S
H3159 C3171 0.950 . S
C3160 H3152 0.950 . S
C3160 C3161 1.386 . S
C3160 C3162 1.391 . S
C3161 C3160 1.386 . S
C3161 C3165 1.393 . S
C3162 H3154 0.950 . S
C3162 C3160 1.391 . S
C3162 C3163 1.400 . S
C3163 C3162 1.400 . S
C3163 C3164 1.398 . S
C3163 C3169 1.491 . S
C3164 H3155 0.950 . S
C3164 C3163 1.398 . S
C3164 C3165 1.391 . S
C3165 H3153 0.950 . S
C3165 C3161 1.393 . S
C3165 C3164 1.391 . S
C3166 H3156 0.950 . S
C3166 C3167 1.386 . S
C3166 C3168 1.391 . S
C3167 C3166 1.386 . S
C3167 C3171 1.393 . S
C3168 H3157 0.950 . S
C3168 C3166 1.391 . S
C3168 C3169 1.400 . S
C3169 C3163 1.491 . S
C3169 C3168 1.400 . S
C3169 C3170 1.398 . S
C3170 H3158 0.950 . S
C3170 C3169 1.398 . S
C3170 C3171 1.391 . S
C3171 H3159 0.950 . S
C3171 C3167 1.393 . S
C3171 C3170 1.391 . S
H3172 C3180 0.950 . S
H3173 C3185 0.950 . S
H3174 C3182 0.950 . S
H3175 C3184 0.950 . S
H3176 C3186 0.950 . S
H3177 C3188 0.950 . S
H3178 C3190 0.950 . S
H3179 C3191 0.950 . S
C3180 H3172 0.950 . S
C3180 C3181 1.386 . S
C3180 C3182 1.391 . S
C3181 C3180 1.386 . S
C3181 C3185 1.393 . S
C3182 H3174 0.950 . S
C3182 C3180 1.391 . S
C3182 C3183 1.400 . S
C3183 C3182 1.400 . S
C3183 C3184 1.398 . S
C3183 C3189 1.491 . S
C3184 H3175 0.950 . S
C3184 C3183 1.398 . S
C3184 C3185 1.391 . S
C3185 H3173 0.950 . S
C3185 C3181 1.393 . S
C3185 C3184 1.391 . S
C3186 H3176 0.950 . S
C3186 C3187 1.386 . S
C3186 C3188 1.391 . S
C3187 C3186 1.386 . S
C3187 C3191 1.393 . S
C3188 H3177 0.950 . S
C3188 C3186 1.391 . S
C3188 C3189 1.400 . S
C3189 C3183 1.491 . S
C3189 C3188 1.400 . S
C3189 C3190 1.398 . S
C3190 H3178 0.950 . S
C3190 C3189 1.398 . S
C3190 C3191 1.391 . S
C3191 H3179 0.950 . S
C3191 C3187 1.393 . S
C3191 C3190 1.391 . S
H3192 C3200 0.950 . S
H3193 C3205 0.950 . S
H3194 C3202 0.950 . S
H3195 C3204 0.950 . S
H3196 C3206 0.950 . S
H3197 C3208 0.950 . S
H3198 C3210 0.950 . S
H3199 C3211 0.950 . S
C3200 H3192 0.950 . S
C3200 C3201 1.386 . S
C3200 C3202 1.391 . S
C3201 C3200 1.386 . S
C3201 C3205 1.393 . S
C3202 H3194 0.950 . S
C3202 C3200 1.391 . S
C3202 C3203 1.400 . S
C3203 C3202 1.400 . S
C3203 C3204 1.398 . S
C3203 C3209 1.491 . S
C3204 H3195 0.950 . S
C3204 C3203 1.398 . S
C3204 C3205 1.391 . S
C3205 H3193 0.950 . S
C3205 C3201 1.393 . S
C3205 C3204 1.391 . S
C3206 H3196 0.950 . S
C3206 C3207 1.386 . S
C3206 C3208 1.391 . S
C3207 C3206 1.386 . S
C3207 C3211 1.393 . S
C3208 H3197 0.950 . S
C3208 C3206 1.391 . S
C3208 C3209 1.400 . S
C3209 C3203 1.491 . S
C3209 C3208 1.400 . S
C3209 C3210 1.398 . S
C3210 H3198 0.950 . S
C3210 C3209 1.398 . S
C3210 C3211 1.391 . S
C3211 H3199 0.950 . S
C3211 C3207 1.393 . S
C3211 C3210 1.391 . S
H3212 C3220 0.950 . S
H3213 C3225 0.950 . S
H3214 C3222 0.950 . S
H3215 C3224 0.950 . S
H3216 C3226 0.950 . S
H3217 C3228 0.950 . S
H3218 C3230 0.950 . S
H3219 C3231 0.950 . S
C3220 H3212 0.950 . S
C3220 C3221 1.386 . S
C3220 C3222 1.391 . S
C3221 C3220 1.386 . S
C3221 C3225 1.393 . S
C3222 H3214 0.950 . S
C3222 C3220 1.391 . S
C3222 C3223 1.400 . S
C3223 C3222 1.400 . S
C3223 C3224 1.398 . S
C3223 C3229 1.491 . S
C3224 H3215 0.950 . S
C3224 C3223 1.398 . S
C3224 C3225 1.391 . S
C3225 H3213 0.950 . S
C3225 C3221 1.393 . S
C3225 C3224 1.391 . S
C3226 H3216 0.950 . S
C3226 C3227 1.386 . S
C3226 C3228 1.391 . S
C3227 C3226 1.386 . S
C3227 C3231 1.393 . S
C3228 H3217 0.950 . S
C3228 C3226 1.391 . S
C3228 C3229 1.400 . S
C3229 C3223 1.491 . S
C3229 C3228 1.400 . S
C3229 C3230 1.398 . S
C3230 H3218 0.950 . S
C3230 C3229 1.398 . S
C3230 C3231 1.391 . S
C3231 H3219 0.950 . S
C3231 C3227 1.393 . S
C3231 C3230 1.391 . S
H3232 C3240 0.950 . S
H3233 C3245 0.950 . S
H3234 C3242 0.950 . S
H3235 C3244 0.950 . S
H3236 C3246 0.950 . S
H3237 C3248 0.950 . S
H3238 C3250 0.950 . S
H3239 C3251 0.950 . S
C3240 H3232 0.950 . S
C3240 C3241 1.386 . S
C3240 C3242 1.391 . S
C3241 C3240 1.386 . S
C3241 C3245 1.393 . S
C3242 H3234 0.950 . S
C3242 C3240 1.391 . S
C3242 C3243 1.400 . S
C3243 C3242 1.400 . S
C3243 C3244 1.398 . S
C3243 C3249 1.491 . S
C3244 H3235 0.950 . S
C3244 C3243 1.398 . S
C3244 C3245 1.391 . S
C3245 H3233 0.950 . S
C3245 C3241 1.393 . S
C3245 C3244 1.391 . S
C3246 H3236 0.950 . S
C3246 C3247 1.386 . S
C3246 C3248 1.391 . S
C3247 C3246 1.386 . S
C3247 C3251 1.393 . S
C3248 H3237 0.950 . S
C3248 C3246 1.391 . S
C3248 C3249 1.400 . S
C3249 C3243 1.491 . S
C3249 C3248 1.400 . S
C3249 C3250 1.398 . S
C3250 H3238 0.950 . S
C3250 C3249 1.398 . S
C3250 C3251 1.391 . S
C3251 H3239 0.950 . S
C3251 C3247 1.393 . S
C3251 C3250 1.391 . S
H3252 C3260 0.950 . S
H3253 C3265 0.950 . S
H3254 C3262 0.950 . S
H3255 C3264 0.950 . S
H3256 C3266 0.950 . S
H3257 C3268 0.950 . S
H3258 C3270 0.950 . S
H3259 C3271 0.950 . S
C3260 H3252 0.950 . S
C3260 C3261 1.386 . S
C3260 C3262 1.391 . S
C3261 C3260 1.386 . S
C3261 C3265 1.393 . S
C3262 H3254 0.950 . S
C3262 C3260 1.391 . S
C3262 C3263 1.400 . S
C3263 C3262 1.400 . S
C3263 C3264 1.398 . S
C3263 C3269 1.491 . S
C3264 H3255 0.950 . S
C3264 C3263 1.398 . S
C3264 C3265 1.391 . S
C3265 H3253 0.950 . S
C3265 C3261 1.393 . S
C3265 C3264 1.391 . S
C3266 H3256 0.950 . S
C3266 C3267 1.386 . S
C3266 C3268 1.391 . S
C3267 C3266 1.386 . S
C3267 C3271 1.393 . S
C3268 H3257 0.950 . S
C3268 C3266 1.391 . S
C3268 C3269 1.400 . S
C3269 C3263 1.491 . S
C3269 C3268 1.400 . S
C3269 C3270 1.398 . S
C3270 H3258 0.950 . S
C3270 C3269 1.398 . S
C3270 C3271 1.391 . S
C3271 H3259 0.950 . S
C3271 C3267 1.393 . S
C3271 C3270 1.391 . S
H3272 C3280 0.950 . S
H3273 C3285 0.950 . S
H3274 C3282 0.950 . S
H3275 C3284 0.950 . S
H3276 C3286 0.950 . S
H3277 C3288 0.950 . S
H3278 C3290 0.950 . S
H3279 C3291 0.950 . S
C3280 H3272 0.950 . S
C3280 C3281 1.386 . S
C3280 C3282 1.391 . S
C3281 C3280 1.386 . S
C3281 C3285 1.393 . S
C3282 H3274 0.950 . S
C3282 C3280 1.391 . S
C3282 C3283 1.400 . S
C3283 C3282 1.400 . S
C3283 C3284 1.398 . S
C3283 C3289 1.491 . S
C3284 H3275 0.950 . S
C3284 C3283 1.398 . S
C3284 C3285 1.391 . S
C3285 H3273 0.950 . S
C3285 C3281 1.393 . S
C3285 C3284 1.391 . S
C3286 H3276 0.950 . S
C3286 C3287 1.386 . S
C3286 C3288 1.391 . S
C3287 C3286 1.386 . S
C3287 C3291 1.393 . S
C3288 H3277 0.950 . S
C3288 C3286 1.391 . S
C3288 C3289 1.400 . S
C3289 C3283 1.491 . S
C3289 C3288 1.400 . S
C3289 C3290 1.398 . S
C3290 H3278 0.950 . S
C3290 C3289 1.398 . S
C3290 C3291 1.391 . S
C3291 H3279 0.950 . S
C3291 C3287 1.393 . S
C3291 C3290 1.391 . S
H3292 C3300 0.950 . S
H3293 C3305 0.950 . S
H3294 C3302 0.950 . S
H3295 C3304 0.950 . S
H3296 C3306 0.950 . S
H3297 C3308 0.950 . S
H3298 C3310 0.950 . S
H3299 C3311 0.950 . S
C3300 H3292 0.950 . S
C3300 C3301 1.386 . S
C3300 C3302 1.391 . S
C3301 C3300 1.386 . S
C3301 C3305 1.393 . S
C3302 H3294 0.950 . S
C3302 C3300 1.391 . S
C3302 C3303 1.400 . S
C3303 C3302 1.400 . S
C3303 C3304 1.398 . S
C3303 C3309 1.491 . S
C3304 H3295 0.950 . S
C3304 C3303 1.398 . S
C3304 C3305 1.391 . S
C3305 H3293 0.950 . S
C3305 C3301 1.393 . S
C3305 C3304 1.391 . S
C3306 H3296 0.950 . S
C3306 C3307 1.386 . S
C3306 C3308 1.391 . S
C3307 C3306 1.386 . S
C3307 C3311 1.393 . S
C3308 H3297 0.950 . S
C3308 C3306 1.391 . S
C3308 C3309 1.400 . S
C3309 C3303 1.491 . S
C3309 C3308 1.400 . S
C3309 C3310 1.398 . S
C3310 H3298 0.950 . S
C3310 C3309 1.398 . S
C3310 C3311 1.391 . S
C3311 H3299 0.950 . S
C3311 C3307 1.393 . S
C3311 C3310 1.391 . S
C1161 N18 1.095 . S
C1167 C66 1.096 . S
C1181 C2 1.098 . S
C1187 N50 1.098 . S
C1201 N82 1.105 . S
C1207 C34 1.105 . S
C1221 N109 1.096 . S
C1227 C134 1.097 . S
C1241 C166 1.095 . S
C1247 N141 1.093 . S
C1261 N173 1.105 . S
C1267 C102 1.105 . S
C1281 C198 1.686 . S
C1287 N274 1.700 . S
C1301 C226 1.695 . S
C1307 N205 1.701 . S
C1321 C258 1.688 . S
C1327 N242 1.697 . S
C1341 C294 1.689 . S
C1347 N333 1.697 . S
C1361 N365 1.697 . S
C1367 C326 1.685 . S
C1381 N301 1.697 . S
C1387 C358 1.689 . S
C1401 C450 1.091 . S
C1407 N402 1.089 . S
C1421 N434 1.089 . S
C1427 C386 1.091 . S
C1441 C418 1.093 . S
C1447 N466 1.091 . S
C1461 N493 1.092 . S
C1467 C518 1.093 . S
C1481 C550 1.098 . S
C1487 N525 1.096 . S
C1501 C486 1.098 . S
C1507 N557 1.096 . S
C1521 C582 1.693 . S
C1527 N658 1.699 . S
C1541 C614 1.697 . S
C1547 N589 1.703 . S
C1561 N621 1.703 . S
C1567 C642 1.697 . S
C1581 N717 1.698 . S
C1587 C674 1.690 . S
C1601 C710 1.696 . S
C1607 N754 1.702 . S
C1621 N690 1.699 . S
C1627 C738 1.693 . S
C1641 N786 1.100 . S
C1647 C834 1.100 . S
C1661 N818 1.104 . S
C1667 C770 1.105 . S
C1681 N850 1.103 . S
C1687 C802 1.104 . S
C1701 N877 1.088 . S
C1707 C902 1.090 . S
C1721 N909 1.101 . S
C1727 C934 1.102 . S
C1741 N941 1.087 . S
C1747 C870 1.090 . S
C1761 C962 1.692 . S
C1767 N1037 1.698 . S
C1781 C994 1.696 . S
C1787 N978 1.704 . S
C1801 N1010 1.703 . S
C1807 C1030 1.697 . S
C1821 C1062 1.697 . S
C1827 N1101 1.702 . S
C1841 C1094 1.696 . S
C1847 N1133 1.702 . S
C1861 N1069 1.697 . S
C1867 C1126 1.685 . S
C1881 C29 1.323 . S
C1887 C669 1.366 . S
C1901 C580 1.369 . S
C1907 C61 1.328 . S
C1921 C93 1.343 . S
C1927 C612 1.360 . S
C1941 C100 1.344 . S
C1947 C1092 1.361 . S
C1961 C1124 1.370 . S
C1967 C132 1.323 . S
C1981 C164 1.325 . S
C1987 C1060 1.365 . S
C2001 N845 0.833 . S
C2007 N210 0.768 . S
C2021 N237 0.768 . S
C2027 N781 0.833 . S
C2041 N269 0.784 . S
C2047 N813 0.813 . S
C2061 N530 0.811 . S
C2067 N306 0.787 . S
C2081 N562 0.841 . S
C2087 N338 0.771 . S
C2101 N498 0.832 . S
C2107 N370 0.768 . S
C2121 C413 1.340 . S
C2127 C1028 1.365 . S
C2141 C445 1.344 . S
C2147 C989 1.361 . S
C2161 C1021 1.362 . S
C2167 C477 1.332 . S
C2181 C324 1.369 . S
C2187 C484 1.326 . S
C2201 C356 1.370 . S
C2207 C516 1.322 . S
C2221 C292 1.369 . S
C2227 C548 1.320 . S
C2241 N77 0.813 . S
C2247 N594 0.839 . S
C2261 N626 0.837 . S
C2267 N13 0.801 . S
C2281 N653 0.837 . S
C2287 N45 0.815 . S
C2301 N914 0.811 . S
C2307 N685 0.839 . S
C2321 N946 0.809 . S
C2327 N722 0.839 . S
C2341 N749 0.815 . S
C2347 N882 0.799 . S
C2361 C285 1.361 . S
C2367 C797 1.345 . S
C2381 C196 1.368 . S
C2387 C829 1.320 . S
C2401 C253 1.370 . S
C2407 C861 1.321 . S
C2421 C868 1.324 . S
C2427 C708 1.359 1_556 S
C2441 C765 1.361 1_556 S
C2447 C900 1.322 . S
C2461 C932 1.323 . S
C2467 C701 1.359 1_556 S
C2481 N973 0.809 . S
C2487 N461 0.800 . S
C2501 N1005 0.780 . S
C2507 N397 0.845 . S
C2521 N1042 0.789 . S
C2527 N429 0.810 . S
C2541 N1074 0.788 . S
C2547 N146 0.810 . S
C2561 N178 0.844 . S
C2567 N1106 0.792 . S
C2581 N114 0.823 . S
C2587 N1138 0.774 . S
C2601 C930 1.899 . S
C2607 C6 1.893 . S
C2621 C866 1.898 . S
C2627 C38 1.889 . S
C2641 C70 1.896 . S
C2647 C898 1.898 . S
C2661 C422 1.888 . S
C2667 C98 1.888 . S
C2681 C130 1.892 . S
C2687 C454 1.899 . S
C2701 C162 1.899 . S
C2707 C390 1.892 . S
C2721 C194 1.398 . S
C2727 C742 1.397 . S
C2741 C230 1.398 . S
C2747 C678 1.399 . S
C2761 C262 1.391 . S
C2767 C706 1.390 . S
C2781 C998 1.392 . S
C2787 C290 1.393 . S
C2801 C1026 1.398 . S
C2807 C322 1.397 . S
C2821 C966 1.384 . S
C2827 C354 1.384 . S
C2841 C482 1.892 . S
C2847 C806 1.899 . S
C2861 C514 1.899 . S
C2867 C838 1.892 . S
C2881 C546 1.891 . S
C2887 C774 1.887 . S
C2901 C578 1.401 . S
C2907 C1122 1.402 . S
C2921 C1058 1.402 . S
C2927 C610 1.402 . S
C2941 C646 1.402 . S
C2947 C1090 1.402 . S
C2961 C157 2.348 . S
C2967 C4 2.350 . S
C2981 C189 2.348 . S
C2987 C36 2.342 . S
C3001 C125 2.345 . S
C3007 C68 2.350 . S
C3021 C221 1.573 . S
C3027 C349 1.568 . S
C3041 C381 1.572 . S
C3047 C228 1.587 . S
C3061 C260 1.582 . S
C3067 C317 1.590 . S
C3081 C541 2.344 . S
C3087 C388 2.338 . S
C3101 C573 2.343 . S
C3107 C420 2.337 . S
C3121 C509 2.341 . S
C3127 C452 2.347 . S
C3141 C733 1.568 . S
C3147 C605 1.573 . S
C3161 C637 1.573 . S
C3167 C740 1.588 . S
C3181 C644 1.577 . S
C3187 C676 1.567 . S
C3201 C772 2.336 . S
C3207 C925 2.338 . S
C3221 C957 2.336 . S
C3227 C804 2.338 . S
C3241 C836 2.350 . S
C3247 C893 2.346 . S
C3261 C964 1.578 . S
C3267 C1117 1.590 . S
C3281 C1149 1.583 . S
C3287 C996 1.590 . S
C3301 C1053 1.573 . S
C3307 C1085 1.588 . S
