# Generated by pormake.
# Topology umu, (4)-cn, num edge types: 1
# Building blocks:
#     Node 0, Type 0, BuildingBlock: QUQFOY_clean_sbu_1, # of connection points: 4
#     Node 1, Type 0, BuildingBlock: QUQFOY_clean_sbu_1, # of connection points: 4
#     Node 2, Type 0, BuildingBlock: QUQFOY_clean_sbu_1, # of connection points: 4
#     Node 3, Type 0, BuildingBlock: QUQFOY_clean_sbu_1, # of connection points: 4
#     Node 4, Type 0, BuildingBlock: QUQFOY_clean_sbu_1, # of connection points: 4
#     Node 5, Type 0, BuildingBlock: QUQFOY_clean_sbu_1, # of connection points: 4
#     Node 6, Type 0, BuildingBlock: QUQFOY_clean_sbu_1, # of connection points: 4
#     Node 7, Type 0, BuildingBlock: QUQFOY_clean_sbu_1, # of connection points: 4
#     Node 8, Type 0, BuildingBlock: QUQFOY_clean_sbu_1, # of connection points: 4
#     Node 9, Type 0, BuildingBlock: QUQFOY_clean_sbu_1, # of connection points: 4
#     Node 10, Type 0, BuildingBlock: QUQFOY_clean_sbu_1, # of connection points: 4
#     Node 11, Type 0, BuildingBlock: QUQFOY_clean_sbu_1, # of connection points: 4
#     Node 12, Type 0, BuildingBlock: QUQFOY_clean_sbu_1, # of connection points: 4
#     Node 13, Type 0, BuildingBlock: QUQFOY_clean_sbu_1, # of connection points: 4
#     Node 14, Type 0, BuildingBlock: QUQFOY_clean_sbu_1, # of connection points: 4
#     Node 15, Type 0, BuildingBlock: QUQFOY_clean_sbu_1, # of connection points: 4
#     Node 16, Type 0, BuildingBlock: QUQFOY_clean_sbu_1, # of connection points: 4
#     Node 17, Type 0, BuildingBlock: QUQFOY_clean_sbu_1, # of connection points: 4
#     Node 18, Type 0, BuildingBlock: QUQFOY_clean_sbu_1, # of connection points: 4
#     Node 19, Type 0, BuildingBlock: QUQFOY_clean_sbu_1, # of connection points: 4
#     Node 20, Type 0, BuildingBlock: QUQFOY_clean_sbu_1, # of connection points: 4
#     Node 21, Type 0, BuildingBlock: QUQFOY_clean_sbu_1, # of connection points: 4
#     Node 22, Type 0, BuildingBlock: QUQFOY_clean_sbu_1, # of connection points: 4
#     Node 23, Type 0, BuildingBlock: QUQFOY_clean_sbu_1, # of connection points: 4
#     Node 24, Type 0, BuildingBlock: QUQFOY_clean_sbu_1, # of connection points: 4
#     Node 25, Type 0, BuildingBlock: QUQFOY_clean_sbu_1, # of connection points: 4
#     Node 26, Type 0, BuildingBlock: QUQFOY_clean_sbu_1, # of connection points: 4
#     Node 27, Type 0, BuildingBlock: QUQFOY_clean_sbu_1, # of connection points: 4
#     Node 28, Type 0, BuildingBlock: QUQFOY_clean_sbu_1, # of connection points: 4
#     Node 29, Type 0, BuildingBlock: QUQFOY_clean_sbu_1, # of connection points: 4
#     Node 30, Type 0, BuildingBlock: QUQFOY_clean_sbu_1, # of connection points: 4
#     Node 31, Type 0, BuildingBlock: QUQFOY_clean_sbu_1, # of connection points: 4
#     Edge 32, Type (0, 0), None
#     Edge 33, Type (0, 0), None
#     Edge 34, Type (0, 0), None
#     Edge 35, Type (0, 0), None
#     Edge 36, Type (0, 0), None
#     Edge 37, Type (0, 0), None
#     Edge 38, Type (0, 0), None
#     Edge 39, Type (0, 0), None
#     Edge 40, Type (0, 0), None
#     Edge 41, Type (0, 0), None
#     Edge 42, Type (0, 0), None
#     Edge 43, Type (0, 0), None
#     Edge 44, Type (0, 0), None
#     Edge 45, Type (0, 0), None
#     Edge 46, Type (0, 0), None
#     Edge 47, Type (0, 0), None
#     Edge 48, Type (0, 0), None
#     Edge 49, Type (0, 0), None
#     Edge 50, Type (0, 0), None
#     Edge 51, Type (0, 0), None
#     Edge 52, Type (0, 0), None
#     Edge 53, Type (0, 0), None
#     Edge 54, Type (0, 0), None
#     Edge 55, Type (0, 0), None
#     Edge 56, Type (0, 0), None
#     Edge 57, Type (0, 0), None
#     Edge 58, Type (0, 0), None
#     Edge 59, Type (0, 0), None
#     Edge 60, Type (0, 0), None
#     Edge 61, Type (0, 0), None
#     Edge 62, Type (0, 0), None
#     Edge 63, Type (0, 0), None
#     Edge 64, Type (0, 0), None
#     Edge 65, Type (0, 0), None
#     Edge 66, Type (0, 0), None
#     Edge 67, Type (0, 0), None
#     Edge 68, Type (0, 0), None
#     Edge 69, Type (0, 0), None
#     Edge 70, Type (0, 0), None
#     Edge 71, Type (0, 0), None
#     Edge 72, Type (0, 0), None
#     Edge 73, Type (0, 0), None
#     Edge 74, Type (0, 0), None
#     Edge 75, Type (0, 0), None
#     Edge 76, Type (0, 0), None
#     Edge 77, Type (0, 0), None
#     Edge 78, Type (0, 0), None
#     Edge 79, Type (0, 0), None
#     Edge 80, Type (0, 0), None
#     Edge 81, Type (0, 0), None
#     Edge 82, Type (0, 0), None
#     Edge 83, Type (0, 0), None
#     Edge 84, Type (0, 0), None
#     Edge 85, Type (0, 0), None
#     Edge 86, Type (0, 0), None
#     Edge 87, Type (0, 0), None
#     Edge 88, Type (0, 0), None
#     Edge 89, Type (0, 0), None
#     Edge 90, Type (0, 0), None
#     Edge 91, Type (0, 0), None
#     Edge 92, Type (0, 0), None
#     Edge 93, Type (0, 0), None
#     Edge 94, Type (0, 0), None
#     Edge 95, Type (0, 0), None
# Relax obj value: 0.011
# Max RMSD: 0.035
# Mean RMSD: 0.035
data_MOF--net-umu--node1-QUQFOY_clean_sbu_1--edge1-none
_symmetry_space_group_name_H-M    P1
_symmetry_Int_Tables_number       1
_symmetry_cell_setting            triclinic
loop_
_symmetry_equiv_pos_as_xyz
'x, y, z'
_cell_length_a     43.066871
_cell_length_b     43.069566
_cell_length_c     12.520689
_cell_angle_alpha  90.005923
_cell_angle_beta   89.999979
_cell_angle_gamma 90.0
loop_
_atom_site_label
_atom_site_type_symbol
_atom_site_fract_x
_atom_site_fract_y
_atom_site_fract_z
_atom_type_partial_charge
O0 O 0.18507 0.13496 0.92879 0.0
Cd1 Cd 0.15053 0.1465 1.03277 0.0
Cd2 Cd 0.20201 0.14712 0.17399 0.0
O3 O 0.22334 0.12731 1.04314 0.0
O4 O 0.11297 0.13253 0.95448 0.0
O5 O 0.1274 0.11413 0.11302 0.0
C6 C 0.1087 0.11346 1.03233 0.0
C7 C 0.21931 0.13519 0.34723 0.0
C8 C 0.21281 0.12706 0.94827 0.0
C9 C 0.16802 0.20762 0.11789 0.0
O10 O 0.19121 0.19362 0.15837 0.0
O11 O 0.14683 0.19282 0.06897 0.0
O12 O 0.23734 0.14801 0.27847 0.0
O13 O 0.19171 0.12761 0.31693 0.0
O14 O 0.0634 0.93594 0.1788 0.0
Cd15 Cd 0.05185 0.90141 0.28275 0.0
Cd16 Cd 0.05124 0.95288 0.424 0.0
O17 O 0.07105 -0.0258 0.29316 0.0
O18 O 0.06581 0.86384 0.20445 0.0
O19 O 0.08422 0.87827 0.36301 0.0
C20 C 0.08489 0.85957 0.28231 0.0
C21 C 0.06317 0.97018 0.59725 0.0
C22 C 0.0713 0.96368 0.1983 0.0
C23 C -0.00927 0.91889 0.36786 0.0
O24 O 0.00473 0.94208 0.40837 0.0
O25 O 0.00552 0.8977 0.31895 0.0
O26 O 0.05034 -0.01179 0.52849 0.0
O27 O 0.07074 0.94258 0.56694 0.0
O28 O 0.26241 0.81425 0.42882 0.0
Cd29 Cd 0.29695 0.80271 0.53278 0.0
Cd30 Cd 0.24547 0.8021 0.67401 0.0
O31 O 0.22414 0.82191 0.54318 0.0
O32 O 0.33451 0.81667 0.45448 0.0
O33 O 0.32008 0.83508 0.61303 0.0
C34 C 0.33878 0.83575 0.53233 0.0
C35 C 0.22816 0.81403 0.84726 0.0
C36 C 0.23467 0.82216 0.44831 0.0
C37 C 0.27947 0.74159 0.61787 0.0
O38 O 0.25627 0.75559 0.65838 0.0
O39 O 0.30065 0.75639 0.56897 0.0
O40 O 0.21014 0.8012 0.77849 0.0
O41 O 0.25577 0.8216 0.81697 0.0
O42 O 0.38409 0.01328 0.67886 0.0
Cd43 Cd 0.39563 0.04781 0.78282 0.0
Cd44 Cd 0.39624 -0.00366 0.92404 0.0
O45 O 0.37643 -0.02499 0.79319 0.0
O46 O 0.38167 0.08537 0.7045 0.0
O47 O 0.36326 0.07096 0.86305 0.0
C48 C 0.3626 0.08965 0.78234 0.0
C49 C 0.38432 -0.02097 0.09728 0.0
C50 C 0.37618 -0.01447 0.69833 0.0
C51 C 0.45675 0.03033 0.86792 0.0
O52 O 0.44275 0.00714 0.90842 0.0
O53 O 0.44196 0.05152 0.81902 0.0
O54 O 0.39714 0.96101 1.02851 0.0
O55 O 0.37674 0.00664 0.067 0.0
O56 O 0.18507 0.81427 0.37869 0.0
Cd57 Cd 0.15053 0.80272 0.27473 0.0
Cd58 Cd 0.20202 0.8021 0.13349 0.0
O59 O 0.22334 0.82191 0.26434 0.0
O60 O 0.11297 0.81669 0.35303 0.0
O61 O 0.1274 0.83509 0.19449 0.0
C62 C 0.1087 0.83576 0.27518 0.0
C63 C 0.21932 0.81402 0.96026 0.0
C64 C 0.21281 0.82217 0.35919 0.0
C65 C 0.16802 0.7416 0.18961 0.0
O66 O 0.1912 0.75559 0.14911 0.0
O67 O 0.14683 0.7564 0.23853 0.0
O68 O 0.23735 0.8012 1.02901 0.0
O69 O 0.19172 0.82161 0.99056 0.0
O70 O 0.38407 0.93594 0.6287 0.0
Cd71 Cd 0.39562 0.9014 0.52475 0.0
Cd72 Cd 0.39624 0.95289 0.38351 0.0
O73 O 0.37643 -0.02579 0.51436 0.0
O74 O 0.38166 0.86384 0.60305 0.0
O75 O 0.36325 0.87826 0.4445 0.0
C76 C 0.36259 0.85957 0.5252 0.0
C77 C 0.38432 0.97019 0.21028 0.0
C78 C 0.37617 0.96368 0.60921 0.0
C79 C 0.45675 0.91889 0.43964 0.0
O80 O 0.44275 0.94208 0.39914 0.0
O81 O 0.44195 0.8977 0.48855 0.0
O82 O 0.39715 -0.01178 0.27904 0.0
O83 O 0.37673 0.94259 0.24056 0.0
O84 O 0.26241 0.13495 0.87866 0.0
Cd85 Cd 0.29695 0.1465 0.77471 0.0
Cd86 Cd 0.24546 0.14711 0.63347 0.0
O87 O 0.22413 0.1273 0.76431 0.0
O88 O 0.33451 0.13254 0.85304 0.0
O89 O 0.32009 0.11412 0.69448 0.0
C90 C 0.33878 0.11346 0.7752 0.0
C91 C 0.22816 0.13519 0.46022 0.0
C92 C 0.23467 0.12704 0.85916 0.0
C93 C 0.27947 0.20761 0.68962 0.0
O94 O 0.25627 0.19362 0.64911 0.0
O95 O 0.30065 0.19282 0.73852 0.0
O96 O 0.21013 0.14801 0.52898 0.0
O97 O 0.25576 0.1276 0.49052 0.0
O98 O 0.06341 0.01328 0.12869 0.0
Cd99 Cd 0.05186 0.04781 1.02475 0.0
Cd100 Cd 0.05124 -0.00367 0.88349 0.0
O101 O 0.07105 -0.025 1.01433 0.0
O102 O 0.06582 0.08537 0.10306 0.0
O103 O 0.08423 0.07095 0.9445 0.0
C104 C 0.08489 0.08964 1.02521 0.0
C105 C 0.06316 -0.02097 0.71025 0.0
C106 C 0.07131 -0.01447 0.10918 0.0
C107 C -0.00927 0.03032 0.93965 0.0
O108 O 0.00473 0.00713 0.89913 0.0
O109 O 0.00553 0.05151 0.98856 0.0
O110 O 0.05034 0.961 0.77899 0.0
O111 O 0.07075 0.00663 0.74056 0.0
O112 O 0.76241 0.81425 0.3787 0.0
Cd113 Cd 0.79695 0.80271 0.27473 0.0
Cd114 Cd 0.74548 0.8021 0.13351 0.0
O115 O 0.72415 0.8219 0.26436 0.0
O116 O 0.83451 0.81668 0.35302 0.0
O117 O 0.82008 0.83508 0.19448 0.0
C118 C 0.83878 0.83576 0.27517 0.0
C119 C 0.72817 0.81402 0.96027 0.0
C120 C 0.73467 0.82216 0.35922 0.0
C121 C 0.77947 0.74159 0.18961 0.0
O122 O 0.75628 0.75559 0.14912 0.0
O123 O 0.80066 0.75639 0.23853 0.0
O124 O 0.71014 0.8012 1.02903 0.0
O125 O 0.75577 0.8216 0.99056 0.0
O126 O 0.88409 0.01328 0.1287 0.0
Cd127 Cd 0.89563 0.04781 1.02475 0.0
Cd128 Cd 0.89624 -0.00366 0.88351 0.0
O129 O 0.87643 -0.02499 1.01434 0.0
O130 O 0.88167 0.08537 0.10305 0.0
O131 O 0.86326 0.07094 0.9445 0.0
C132 C 0.86259 0.08964 1.0252 0.0
C133 C 0.88431 -0.02097 0.71026 0.0
C134 C 0.87618 -0.01447 0.10921 0.0
C135 C 0.95675 0.03033 0.93964 0.0
O136 O 0.94275 0.00714 0.89914 0.0
O137 O 0.94196 0.05151 0.98856 0.0
O138 O 0.89714 0.96101 0.77902 0.0
O139 O 0.87674 0.00664 0.74056 0.0
O140 O 0.68507 0.13496 0.87867 0.0
Cd141 Cd 0.65053 0.14651 0.77471 0.0
Cd142 Cd 0.70201 0.14712 0.63348 0.0
O143 O 0.72333 0.1273 0.76432 0.0
O144 O 0.61297 0.13254 0.85303 0.0
O145 O 0.62739 0.11413 0.69448 0.0
C146 C 0.6087 0.11346 0.77519 0.0
C147 C 0.71931 0.13519 0.46023 0.0
C148 C 0.71281 0.12706 0.85918 0.0
C149 C 0.66801 0.20762 0.68962 0.0
O150 O 0.69121 0.19362 0.64912 0.0
O151 O 0.64683 0.19283 0.73852 0.0
O152 O 0.73734 0.14801 0.529 0.0
O153 O 0.69171 0.12761 0.49053 0.0
O154 O 0.56339 0.93594 0.62871 0.0
Cd155 Cd 0.55185 0.9014 0.52475 0.0
Cd156 Cd 0.55124 0.95287 0.38352 0.0
O157 O 0.57105 -0.0258 0.51438 0.0
O158 O 0.56581 0.86384 0.60305 0.0
O159 O 0.58422 0.87826 0.4445 0.0
C160 C 0.58489 0.85957 0.5252 0.0
C161 C 0.56317 0.97018 0.21029 0.0
C162 C 0.5713 0.96368 0.60924 0.0
C163 C 0.49073 0.91888 0.43964 0.0
O164 O 0.50473 0.94207 0.39915 0.0
O165 O 0.50552 0.8977 0.48855 0.0
O166 O 0.55034 -0.0118 0.27906 0.0
O167 O 0.57074 0.94258 0.24057 0.0
O168 O 0.76241 0.13495 0.9288 0.0
Cd169 Cd 0.79695 0.14649 1.03277 0.0
Cd170 Cd 0.74546 0.14711 0.174 0.0
O171 O 0.72413 0.12731 1.04315 0.0
O172 O 0.83451 0.13253 0.95447 0.0
O173 O 0.82008 0.11412 0.11302 0.0
C174 C 0.83878 0.11345 1.03232 0.0
C175 C 0.72816 0.13519 0.34724 0.0
C176 C 0.73467 0.12704 0.9483 0.0
C177 C 0.77946 0.20761 0.11789 0.0
O178 O 0.75627 0.19362 0.15838 0.0
O179 O 0.80065 0.19281 0.06897 0.0
O180 O 0.71013 0.14802 0.27849 0.0
O181 O 0.75576 0.1276 0.31694 0.0
O182 O 0.56341 0.01327 0.67886 0.0
Cd183 Cd 0.55186 0.04781 0.78281 0.0
Cd184 Cd 0.55124 -0.00367 0.92406 0.0
O185 O 0.57105 -0.025 0.79321 0.0
O186 O 0.56581 0.08537 0.70449 0.0
O187 O 0.58423 0.07096 0.86304 0.0
C188 C 0.58489 0.08965 0.78233 0.0
C189 C 0.56316 -0.02097 0.09729 0.0
C190 C 0.57131 -0.01447 0.69836 0.0
C191 C 0.49073 0.03033 0.86793 0.0
O192 O 0.50473 0.00714 0.90843 0.0
O193 O 0.50553 0.05151 0.81902 0.0
O194 O 0.55034 0.961 1.02853 0.0
O195 O 0.57075 0.00663 0.06701 0.0
O196 O 0.68507 0.81426 0.42883 0.0
Cd197 Cd 0.65053 0.80272 0.53278 0.0
Cd198 Cd 0.70202 0.8021 0.67403 0.0
O199 O 0.72335 0.82191 0.54319 0.0
O200 O 0.61297 0.81668 0.45447 0.0
O201 O 0.62739 0.83509 0.61303 0.0
C202 C 0.6087 0.83576 0.53233 0.0
C203 C 0.71932 0.81402 0.84727 0.0
C204 C 0.71282 0.82217 0.44834 0.0
C205 C 0.66801 0.7416 0.61787 0.0
O206 O 0.69121 0.7556 0.65839 0.0
O207 O 0.64683 0.7564 0.56897 0.0
O208 O 0.73735 0.8012 0.77851 0.0
O209 O 0.69172 0.82161 0.81698 0.0
O210 O 0.88407 0.93594 0.17881 0.0
Cd211 Cd 0.89562 0.90141 0.28275 0.0
Cd212 Cd 0.89624 0.95289 0.42401 0.0
O213 O 0.87643 -0.02578 0.29317 0.0
O214 O 0.88166 0.86384 0.20444 0.0
O215 O 0.86325 0.87827 0.363 0.0
C216 C 0.86259 0.85957 0.28229 0.0
C217 C 0.88432 0.97019 0.59726 0.0
C218 C 0.87617 0.96368 0.19832 0.0
C219 C 0.95675 0.91889 0.36787 0.0
O220 O 0.94275 0.94208 0.40838 0.0
O221 O 0.94195 0.89771 0.31894 0.0
O222 O 0.89714 -0.01178 0.52851 0.0
O223 O 0.87673 0.94259 0.56695 0.0
O224 O 0.68507 0.63496 0.42878 0.0
Cd225 Cd 0.65053 0.6465 0.53275 0.0
Cd226 Cd 0.70201 0.64712 0.67398 0.0
O227 O 0.72334 0.62731 0.54313 0.0
O228 O 0.61297 0.63253 0.45446 0.0
O229 O 0.6274 0.61413 0.613 0.0
C230 C 0.6087 0.61346 0.53231 0.0
C231 C 0.71931 0.63519 0.84722 0.0
C232 C 0.71281 0.62706 0.44826 0.0
C233 C 0.66802 0.70762 0.61788 0.0
O234 O 0.6912 0.69362 0.65837 0.0
O235 O 0.64682 0.69282 0.56895 0.0
O236 O 0.73734 0.64801 0.77846 0.0
O237 O 0.69171 0.62761 0.81692 0.0
O238 O 0.5634 0.43594 0.6788 0.0
Cd239 Cd 0.55185 0.4014 0.78275 0.0
Cd240 Cd 0.55124 0.45288 0.92399 0.0
O241 O 0.57105 0.4742 0.79315 0.0
O242 O 0.56581 0.36384 0.70445 0.0
O243 O 0.58422 0.37827 0.863 0.0
C244 C 0.58489 0.35957 0.7823 0.0
C245 C 0.56317 0.47018 0.09724 0.0
C246 C 0.5713 0.46368 0.69829 0.0
C247 C 0.49073 0.41889 0.86785 0.0
O248 O 0.50473 0.44208 0.90836 0.0
O249 O 0.50552 0.3977 0.81894 0.0
O250 O 0.55034 0.48821 1.02848 0.0
O251 O 0.57074 0.44258 0.06693 0.0
O252 O 0.76241 0.31425 0.92883 0.0
Cd253 Cd 0.79695 0.30271 1.03279 0.0
Cd254 Cd 0.74547 0.3021 0.17402 0.0
O255 O 0.72414 0.32191 1.04319 0.0
O256 O 0.83451 0.31667 0.95447 0.0
O257 O 0.82009 0.33508 0.11302 0.0
C258 C 0.83878 0.33575 1.03232 0.0
C259 C 0.72816 0.31403 0.34727 0.0
C260 C 0.73466 0.32216 0.94832 0.0
C261 C 0.77947 0.24159 0.11789 0.0
O262 O 0.75627 0.25559 0.15839 0.0
O263 O 0.80065 0.25639 0.06899 0.0
O264 O 0.71014 0.3012 0.2785 0.0
O265 O 0.75577 0.32161 0.31698 0.0
O266 O 0.88409 0.51327 0.1788 0.0
Cd267 Cd 0.89563 0.54781 0.28277 0.0
Cd268 Cd 0.89624 0.49634 0.42399 0.0
O269 O 0.87643 0.47501 0.29314 0.0
O270 O 0.88167 0.58537 0.20446 0.0
O271 O 0.86326 0.57095 0.36301 0.0
C272 C 0.8626 0.58964 0.28231 0.0
C273 C 0.88432 0.47903 0.59723 0.0
C274 C 0.87618 0.48553 0.19828 0.0
C275 C 0.95675 0.53032 0.36787 0.0
O276 O 0.94275 0.50714 0.40837 0.0
O277 O 0.94196 0.55151 0.31897 0.0
O278 O 0.89714 0.46101 0.52846 0.0
O279 O 0.87674 0.50663 0.56695 0.0
O280 O 0.68507 0.31427 0.8787 0.0
Cd281 Cd 0.65053 0.30272 0.77474 0.0
Cd282 Cd 0.70202 0.3021 0.6335 0.0
O283 O 0.72334 0.32191 0.76435 0.0
O284 O 0.61297 0.31669 0.85303 0.0
O285 O 0.6274 0.33509 0.69449 0.0
C286 C 0.6087 0.33576 0.77518 0.0
C287 C 0.71932 0.31402 0.46027 0.0
C288 C 0.71281 0.32217 0.8592 0.0
C289 C 0.66802 0.2416 0.68961 0.0
O290 O 0.69121 0.2556 0.64912 0.0
O291 O 0.64683 0.2564 0.73853 0.0
O292 O 0.73735 0.3012 0.52901 0.0
O293 O 0.69172 0.32161 0.49057 0.0
O294 O 0.88407 0.43594 0.12865 0.0
Cd295 Cd 0.89562 0.4014 1.02469 0.0
Cd296 Cd 0.89624 0.45288 0.88345 0.0
O297 O 0.87643 0.47421 1.01431 0.0
O298 O 0.88167 0.36384 0.10301 0.0
O299 O 0.86325 0.37825 0.94446 0.0
C300 C 0.86259 0.35956 1.02517 0.0
C301 C 0.88432 0.47018 0.71022 0.0
C302 C 0.87617 0.46368 0.10915 0.0
C303 C 0.95675 0.41888 0.93959 0.0
O304 O 0.94275 0.44207 0.89909 0.0
O305 O 0.94195 0.3977 0.98849 0.0
O306 O 0.89714 0.48821 0.77898 0.0
O307 O 0.87673 0.44258 0.74051 0.0
O308 O 0.76241 0.63495 0.37865 0.0
Cd309 Cd 0.79695 0.64649 0.27471 0.0
Cd310 Cd 0.74546 0.64711 0.13345 0.0
O311 O 0.72414 0.62731 0.2643 0.0
O312 O 0.83451 0.63253 0.35302 0.0
O313 O 0.82009 0.61412 0.19447 0.0
C314 C 0.83878 0.61346 0.27517 0.0
C315 C 0.72816 0.63519 0.96021 0.0
C316 C 0.73467 0.62704 0.35915 0.0
C317 C 0.77947 0.70761 0.1896 0.0
O318 O 0.75628 0.69362 0.1491 0.0
O319 O 0.80065 0.69282 0.23852 0.0
O320 O 0.71013 0.64802 1.02897 0.0
O321 O 0.75576 0.6276 0.99051 0.0
O322 O 0.56341 0.51327 0.62868 0.0
Cd323 Cd 0.55186 0.54781 0.52474 0.0
Cd324 Cd 0.55124 0.49632 0.38349 0.0
O325 O 0.57105 0.475 0.51432 0.0
O326 O 0.56582 0.58537 0.60305 0.0
O327 O 0.58423 0.57094 0.44449 0.0
C328 C 0.5849 0.58964 0.52519 0.0
C329 C 0.56316 0.47902 0.21024 0.0
C330 C 0.57131 0.48553 0.60918 0.0
C331 C 0.49073 0.53032 0.43964 0.0
O332 O 0.50473 0.50713 0.39912 0.0
O333 O 0.50553 0.55151 0.48855 0.0
O334 O 0.55034 0.461 0.27899 0.0
O335 O 0.57075 0.50663 0.24055 0.0
O336 O 0.26241 0.31425 0.87871 0.0
Cd337 Cd 0.29695 0.30271 0.77474 0.0
Cd338 Cd 0.24548 0.3021 0.63352 0.0
O339 O 0.22415 0.32191 0.76437 0.0
O340 O 0.33451 0.31668 0.85302 0.0
O341 O 0.32008 0.33508 0.69448 0.0
C342 C 0.33878 0.33575 0.77517 0.0
C343 C 0.22817 0.31403 0.46028 0.0
C344 C 0.23467 0.32216 0.85923 0.0
C345 C 0.27946 0.24159 0.68961 0.0
O346 O 0.25628 0.25559 0.64913 0.0
O347 O 0.30066 0.25639 0.73853 0.0
O348 O 0.21014 0.3012 0.52903 0.0
O349 O 0.25577 0.3216 0.49057 0.0
O350 O 0.38408 0.51328 0.62869 0.0
Cd351 Cd 0.39563 0.54781 0.52474 0.0
Cd352 Cd 0.39624 0.49634 0.3835 0.0
O353 O 0.37643 0.47501 0.51434 0.0
O354 O 0.38167 0.58537 0.60304 0.0
O355 O 0.36326 0.57094 0.44449 0.0
C356 C 0.36259 0.58964 0.52519 0.0
C357 C 0.38431 0.47903 0.21025 0.0
C358 C 0.37618 0.48553 0.6092 0.0
C359 C 0.45675 0.53032 0.43963 0.0
O360 O 0.44275 0.50713 0.39913 0.0
O361 O 0.44196 0.55151 0.48855 0.0
O362 O 0.39714 0.46101 0.27901 0.0
O363 O 0.37674 0.50664 0.24056 0.0
O364 O 0.18507 0.63496 0.37866 0.0
Cd365 Cd 0.15053 0.64651 0.27471 0.0
Cd366 Cd 0.202 0.64712 0.13347 0.0
O367 O 0.22333 0.62731 0.26431 0.0
O368 O 0.11297 0.63254 0.35301 0.0
O369 O 0.1274 0.61413 0.19446 0.0
C370 C 0.1087 0.61346 0.27516 0.0
C371 C 0.21931 0.63519 0.96022 0.0
C372 C 0.21281 0.62706 0.35917 0.0
C373 C 0.16801 0.70762 0.18961 0.0
O374 O 0.1912 0.69362 0.14911 0.0
O375 O 0.14682 0.69283 0.23851 0.0
O376 O 0.23734 0.64801 1.02899 0.0
O377 O 0.19171 0.62761 0.99051 0.0
O378 O 0.06339 0.43593 0.12866 0.0
Cd379 Cd 0.05185 0.4014 1.0247 0.0
Cd380 Cd 0.05124 0.45287 0.88347 0.0
O381 O 0.07105 0.4742 1.01432 0.0
O382 O 0.06581 0.36384 0.10301 0.0
O383 O 0.08422 0.37826 0.94447 0.0
C384 C 0.08488 0.35956 1.02517 0.0
C385 C 0.06317 0.47018 0.71023 0.0
C386 C 0.0713 0.46368 0.10918 0.0
C387 C -0.00927 0.41888 0.93958 0.0
O388 O 0.00473 0.44207 0.89909 0.0
O389 O 0.00552 0.39769 0.98849 0.0
O390 O 0.05034 0.4882 0.779 0.0
O391 O 0.07074 0.44257 0.74051 0.0
O392 O 0.26241 0.63495 0.42879 0.0
Cd393 Cd 0.29695 0.64649 0.53275 0.0
Cd394 Cd 0.24546 0.64711 0.67399 0.0
O395 O 0.22413 0.62731 0.54314 0.0
O396 O 0.33451 0.63252 0.45445 0.0
O397 O 0.32008 0.61412 0.613 0.0
C398 C 0.33878 0.61345 0.5323 0.0
C399 C 0.22816 0.63519 0.84723 0.0
C400 C 0.23466 0.62704 0.44829 0.0
C401 C 0.27946 0.70761 0.61788 0.0
O402 O 0.25627 0.69362 0.65838 0.0
O403 O 0.30065 0.69281 0.56895 0.0
O404 O 0.21013 0.64802 0.77848 0.0
O405 O 0.25576 0.6276 0.81693 0.0
O406 O 0.06341 0.51327 0.17881 0.0
Cd407 Cd 0.05186 0.54781 0.28276 0.0
Cd408 Cd 0.05124 0.49632 0.42401 0.0
O409 O 0.07105 0.475 0.29315 0.0
O410 O 0.06581 0.58537 0.20445 0.0
O411 O 0.08423 0.57095 0.363 0.0
C412 C 0.08489 0.58965 0.2823 0.0
C413 C 0.06316 0.47902 0.59724 0.0
C414 C 0.07131 0.48553 0.1983 0.0
C415 C -0.00927 0.53032 0.36788 0.0
O416 O 0.00473 0.50713 0.40838 0.0
O417 O 0.00553 0.55151 0.31896 0.0
O418 O 0.05034 0.46099 0.52848 0.0
O419 O 0.07075 0.50662 0.56695 0.0
O420 O 0.18507 0.31426 0.92884 0.0
Cd421 Cd 0.15053 0.30272 1.03279 0.0
Cd422 Cd 0.20202 0.3021 0.17404 0.0
O423 O 0.22335 0.32191 1.0432 0.0
O424 O 0.11297 0.31667 0.95447 0.0
O425 O 0.12739 0.33509 0.11302 0.0
C426 C 0.1087 0.33575 1.03231 0.0
C427 C 0.21932 0.31402 0.34728 0.0
C428 C 0.21282 0.32217 0.94835 0.0
C429 C 0.16802 0.2416 0.11789 0.0
O430 O 0.19121 0.2556 0.1584 0.0
O431 O 0.14683 0.2564 0.06898 0.0
O432 O 0.23735 0.3012 0.27852 0.0
O433 O 0.19172 0.32161 0.31699 0.0
O434 O 0.38407 0.43594 0.6788 0.0
Cd435 Cd 0.39562 0.4014 0.78275 0.0
Cd436 Cd 0.39624 0.45289 0.92401 0.0
O437 O 0.37643 0.47421 0.79317 0.0
O438 O 0.38166 0.36384 0.70444 0.0
O439 O 0.36325 0.37827 0.863 0.0
C440 C 0.36259 0.35957 0.78229 0.0
C441 C 0.38432 0.47019 0.09725 0.0
C442 C 0.37617 0.46368 0.69831 0.0
C443 C 0.45675 0.41889 0.86786 0.0
O444 O 0.44275 0.44208 0.90837 0.0
O445 O 0.44195 0.39771 0.81894 0.0
O446 O 0.39714 0.48822 1.0285 0.0
O447 O 0.37673 0.44259 0.06694 0.0
loop_
_geom_bond_atom_site_label_1
_geom_bond_atom_site_label_2
_geom_bond_distance
_geom_bond_site_symmetry_2
_ccdc_geom_bond_type
O0 Cd1 2.223 . S
O0 C8 1.315 . S
Cd1 O0 2.223 . S
Cd1 O4 2.297 . S
Cd1 O5 2.439 1_556 S
Cd1 O11 2.240 1_556 S
Cd2 O3 2.240 1_554 S
Cd2 O10 2.223 . S
Cd2 O12 2.297 . S
Cd2 O13 2.439 . S
O3 Cd2 2.240 1_556 S
O3 C8 1.279 . S
O4 Cd1 2.297 . S
O4 C6 1.247 . S
O5 Cd1 2.439 1_554 S
O5 C6 1.208 1_554 S
C6 O4 1.247 . S
C6 O5 1.208 1_556 S
C7 O12 1.247 . S
C7 O13 1.208 . S
C8 O0 1.315 . S
C8 O3 1.279 . S
C9 O10 1.315 . S
C9 O11 1.279 . S
O10 Cd2 2.223 . S
O10 C9 1.315 . S
O11 Cd1 2.240 1_554 S
O11 C9 1.279 . S
O12 Cd2 2.297 . S
O12 C7 1.247 . S
O13 Cd2 2.439 . S
O13 C7 1.208 . S
O14 Cd15 2.223 . S
O14 C22 1.315 . S
Cd15 O14 2.223 . S
Cd15 O18 2.297 . S
Cd15 O19 2.439 . S
Cd15 O25 2.240 . S
Cd16 O17 2.240 1_545 S
Cd16 O24 2.223 . S
Cd16 O26 2.297 . S
Cd16 O27 2.439 1_545 S
O17 Cd16 2.240 1_565 S
O17 C22 1.279 . S
O18 Cd15 2.297 . S
O18 C20 1.247 . S
O19 Cd15 2.439 . S
O19 C20 1.208 . S
C20 O18 1.247 . S
C20 O19 1.208 . S
C21 O26 1.247 . S
C21 O27 1.208 1_545 S
C22 O14 1.315 . S
C22 O17 1.279 . S
C23 O24 1.315 1_565 S
C23 O25 1.279 . S
O24 Cd16 2.223 . S
O24 C23 1.315 1_545 S
O25 Cd15 2.240 . S
O25 C23 1.279 . S
O26 Cd16 2.297 . S
O26 C21 1.247 . S
O27 Cd16 2.439 1_565 S
O27 C21 1.208 1_565 S
O28 Cd29 2.223 . S
O28 C36 1.315 . S
Cd29 O28 2.223 . S
Cd29 O32 2.297 . S
Cd29 O33 2.439 . S
Cd29 O39 2.240 . S
Cd30 O31 2.240 . S
Cd30 O38 2.223 . S
Cd30 O40 2.297 . S
Cd30 O41 2.439 . S
O31 Cd30 2.240 . S
O31 C36 1.279 . S
O32 Cd29 2.297 . S
O32 C34 1.247 . S
O33 Cd29 2.439 . S
O33 C34 1.208 . S
C34 O32 1.247 . S
C34 O33 1.208 . S
C35 O40 1.247 . S
C35 O41 1.208 . S
C36 O28 1.315 . S
C36 O31 1.279 . S
C37 O38 1.315 . S
C37 O39 1.279 . S
O38 Cd30 2.223 . S
O38 C37 1.315 . S
O39 Cd29 2.240 . S
O39 C37 1.279 . S
O40 Cd30 2.297 . S
O40 C35 1.247 . S
O41 Cd30 2.439 . S
O41 C35 1.208 . S
O42 Cd43 2.223 . S
O42 C50 1.315 . S
Cd43 O42 2.223 . S
Cd43 O46 2.297 . S
Cd43 O47 2.439 . S
Cd43 O53 2.240 . S
Cd44 O45 2.240 1_565 S
Cd44 O52 2.223 . S
Cd44 O54 2.297 1_556 S
Cd44 O55 2.446 1_565 S
O45 Cd44 2.240 1_545 S
O45 C50 1.279 . S
O46 Cd43 2.297 . S
O46 C48 1.247 . S
O47 Cd43 2.439 . S
O47 C48 1.208 . S
C48 O46 1.247 . S
C48 O47 1.208 . S
C49 O54 1.273 . S
C49 O55 1.181 1_564 S
C50 O42 1.315 . S
C50 O45 1.279 . S
C51 O52 1.315 1_545 S
C51 O53 1.279 . S
O52 Cd44 2.223 . S
O52 C51 1.315 1_565 S
O53 Cd43 2.240 . S
O53 C51 1.279 . S
O54 Cd44 2.297 1_554 S
O54 C49 1.273 . S
O55 Cd44 2.446 1_545 S
O55 C49 1.181 1_546 S
O56 Cd57 2.223 . S
O56 C64 1.315 . S
Cd57 O56 2.223 . S
Cd57 O60 2.297 . S
Cd57 O61 2.439 . S
Cd57 O67 2.240 . S
Cd58 O59 2.240 . S
Cd58 O66 2.223 . S
Cd58 O68 2.297 1_554 S
Cd58 O69 2.439 1_554 S
O59 Cd58 2.240 . S
O59 C64 1.279 . S
O60 Cd57 2.297 . S
O60 C62 1.247 . S
O61 Cd57 2.439 . S
O61 C62 1.208 . S
C62 O60 1.247 . S
C62 O61 1.208 . S
C63 O68 1.247 . S
C63 O69 1.208 . S
C64 O56 1.315 . S
C64 O59 1.279 . S
C65 O66 1.315 . S
C65 O67 1.279 . S
O66 Cd58 2.223 . S
O66 C65 1.315 . S
O67 Cd57 2.240 . S
O67 C65 1.279 . S
O68 Cd58 2.297 1_556 S
O68 C63 1.247 . S
O69 Cd58 2.439 1_556 S
O69 C63 1.208 . S
O70 Cd71 2.223 . S
O70 C78 1.315 . S
Cd71 O70 2.223 . S
Cd71 O74 2.297 . S
Cd71 O75 2.439 . S
Cd71 O81 2.240 . S
Cd72 O73 2.240 1_545 S
Cd72 O80 2.223 . S
Cd72 O82 2.297 . S
Cd72 O83 2.439 1_545 S
O73 Cd72 2.240 1_565 S
O73 C78 1.279 . S
O74 Cd71 2.297 . S
O74 C76 1.247 . S
O75 Cd71 2.439 . S
O75 C76 1.208 . S
C76 O74 1.247 . S
C76 O75 1.208 . S
C77 O82 1.247 . S
C77 O83 1.208 1_545 S
C78 O70 1.315 . S
C78 O73 1.279 . S
C79 O80 1.315 1_565 S
C79 O81 1.279 . S
O80 Cd72 2.223 . S
O80 C79 1.315 1_545 S
O81 Cd71 2.240 . S
O81 C79 1.279 . S
O82 Cd72 2.297 . S
O82 C77 1.247 . S
O83 Cd72 2.439 1_565 S
O83 C77 1.208 1_565 S
O84 Cd85 2.223 . S
O84 C92 1.315 . S
Cd85 O84 2.223 . S
Cd85 O88 2.297 . S
Cd85 O89 2.439 . S
Cd85 O95 2.240 . S
Cd86 O87 2.240 . S
Cd86 O94 2.223 . S
Cd86 O96 2.297 . S
Cd86 O97 2.439 . S
O87 Cd86 2.240 . S
O87 C92 1.279 . S
O88 Cd85 2.297 . S
O88 C90 1.247 . S
O89 Cd85 2.439 . S
O89 C90 1.208 . S
C90 O88 1.247 . S
C90 O89 1.208 . S
C91 O96 1.247 . S
C91 O97 1.208 . S
C92 O84 1.315 . S
C92 O87 1.279 . S
C93 O94 1.315 . S
C93 O95 1.279 . S
O94 Cd86 2.223 . S
O94 C93 1.315 . S
O95 Cd85 2.240 . S
O95 C93 1.279 . S
O96 Cd86 2.297 . S
O96 C91 1.247 . S
O97 Cd86 2.439 . S
O97 C91 1.208 . S
O98 Cd99 2.223 1_554 S
O98 C106 1.315 . S
Cd99 O98 2.223 1_556 S
Cd99 O102 2.297 1_556 S
Cd99 O103 2.439 . S
Cd99 O109 2.240 . S
Cd100 O101 2.240 1_565 S
Cd100 O108 2.223 . S
Cd100 O110 2.297 . S
Cd100 O111 2.439 1_565 S
O101 Cd100 2.240 1_545 S
O101 C106 1.279 1_556 S
O102 Cd99 2.297 1_554 S
O102 C104 1.247 1_554 S
O103 Cd99 2.439 . S
O103 C104 1.208 . S
C104 O102 1.247 1_556 S
C104 O103 1.208 . S
C105 O110 1.273 . S
C105 O111 1.187 1_565 S
C106 O98 1.315 . S
C106 O101 1.279 1_554 S
C107 O108 1.315 1_545 S
C107 O109 1.279 . S
O108 Cd100 2.223 . S
O108 C107 1.315 1_565 S
O109 Cd99 2.240 . S
O109 C107 1.279 . S
O110 Cd100 2.297 . S
O110 C105 1.273 . S
O111 Cd100 2.439 1_545 S
O111 C105 1.187 1_545 S
O112 Cd113 2.223 . S
O112 C120 1.315 . S
Cd113 O112 2.223 . S
Cd113 O116 2.297 . S
Cd113 O117 2.439 . S
Cd113 O123 2.240 . S
Cd114 O115 2.240 . S
Cd114 O122 2.223 . S
Cd114 O124 2.297 1_554 S
Cd114 O125 2.439 1_554 S
O115 Cd114 2.240 . S
O115 C120 1.279 . S
O116 Cd113 2.297 . S
O116 C118 1.247 . S
O117 Cd113 2.439 . S
O117 C118 1.208 . S
C118 O116 1.247 . S
C118 O117 1.208 . S
C119 O124 1.247 . S
C119 O125 1.208 . S
C120 O112 1.315 . S
C120 O115 1.279 . S
C121 O122 1.315 . S
C121 O123 1.279 . S
O122 Cd114 2.223 . S
O122 C121 1.315 . S
O123 Cd113 2.240 . S
O123 C121 1.279 . S
O124 Cd114 2.297 1_556 S
O124 C119 1.247 . S
O125 Cd114 2.439 1_556 S
O125 C119 1.208 . S
O126 Cd127 2.223 1_554 S
O126 C134 1.315 . S
Cd127 O126 2.223 1_556 S
Cd127 O130 2.297 1_556 S
Cd127 O131 2.439 . S
Cd127 O137 2.240 . S
Cd128 O129 2.240 1_565 S
Cd128 O136 2.223 . S
Cd128 O138 2.297 . S
Cd128 O139 2.439 1_565 S
O129 Cd128 2.240 1_545 S
O129 C134 1.279 1_556 S
O130 Cd127 2.297 1_554 S
O130 C132 1.247 1_554 S
O131 Cd127 2.439 . S
O131 C132 1.208 . S
C132 O130 1.247 1_556 S
C132 O131 1.208 . S
C133 O138 1.273 . S
C133 O139 1.187 1_565 S
C134 O126 1.315 . S
C134 O129 1.279 1_554 S
C135 O136 1.315 1_545 S
C135 O137 1.279 . S
O136 Cd128 2.223 . S
O136 C135 1.315 1_565 S
O137 Cd127 2.240 . S
O137 C135 1.279 . S
O138 Cd128 2.297 . S
O138 C133 1.273 . S
O139 Cd128 2.439 1_545 S
O139 C133 1.187 1_545 S
O140 Cd141 2.223 . S
O140 C148 1.315 . S
Cd141 O140 2.223 . S
Cd141 O144 2.297 . S
Cd141 O145 2.439 . S
Cd141 O151 2.240 . S
Cd142 O143 2.240 . S
Cd142 O150 2.223 . S
Cd142 O152 2.297 . S
Cd142 O153 2.439 . S
O143 Cd142 2.240 . S
O143 C148 1.279 . S
O144 Cd141 2.297 . S
O144 C146 1.247 . S
O145 Cd141 2.439 . S
O145 C146 1.208 . S
C146 O144 1.247 . S
C146 O145 1.208 . S
C147 O152 1.247 . S
C147 O153 1.208 . S
C148 O140 1.315 . S
C148 O143 1.279 . S
C149 O150 1.315 . S
C149 O151 1.279 . S
O150 Cd142 2.223 . S
O150 C149 1.315 . S
O151 Cd141 2.240 . S
O151 C149 1.279 . S
O152 Cd142 2.297 . S
O152 C147 1.247 . S
O153 Cd142 2.439 . S
O153 C147 1.208 . S
O154 Cd155 2.223 . S
O154 C162 1.315 . S
Cd155 O154 2.223 . S
Cd155 O158 2.297 . S
Cd155 O159 2.439 . S
Cd155 O165 2.240 . S
Cd156 O157 2.240 1_545 S
Cd156 O164 2.223 . S
Cd156 O166 2.297 . S
Cd156 O167 2.439 1_545 S
O157 Cd156 2.240 1_565 S
O157 C162 1.279 . S
O158 Cd155 2.297 . S
O158 C160 1.247 . S
O159 Cd155 2.439 . S
O159 C160 1.208 . S
C160 O158 1.247 . S
C160 O159 1.208 . S
C161 O166 1.247 . S
C161 O167 1.208 1_545 S
C162 O154 1.315 . S
C162 O157 1.279 . S
C163 O164 1.315 1_565 S
C163 O165 1.279 . S
O164 Cd156 2.223 . S
O164 C163 1.315 1_545 S
O165 Cd155 2.240 . S
O165 C163 1.279 . S
O166 Cd156 2.297 . S
O166 C161 1.247 . S
O167 Cd156 2.439 1_565 S
O167 C161 1.208 1_565 S
O168 Cd169 2.223 . S
O168 C176 1.315 . S
Cd169 O168 2.223 . S
Cd169 O172 2.297 . S
Cd169 O173 2.439 1_556 S
Cd169 O179 2.240 1_556 S
Cd170 O171 2.240 1_554 S
Cd170 O178 2.223 . S
Cd170 O180 2.297 . S
Cd170 O181 2.439 . S
O171 Cd170 2.240 1_556 S
O171 C176 1.279 . S
O172 Cd169 2.297 . S
O172 C174 1.247 . S
O173 Cd169 2.439 1_554 S
O173 C174 1.208 1_554 S
C174 O172 1.247 . S
C174 O173 1.208 1_556 S
C175 O180 1.247 . S
C175 O181 1.208 . S
C176 O168 1.315 . S
C176 O171 1.279 . S
C177 O178 1.315 . S
C177 O179 1.279 . S
O178 Cd170 2.223 . S
O178 C177 1.315 . S
O179 Cd169 2.240 1_554 S
O179 C177 1.279 . S
O180 Cd170 2.297 . S
O180 C175 1.247 . S
O181 Cd170 2.439 . S
O181 C175 1.208 . S
O182 Cd183 2.223 . S
O182 C190 1.315 . S
Cd183 O182 2.223 . S
Cd183 O186 2.297 . S
Cd183 O187 2.439 . S
Cd183 O193 2.240 . S
Cd184 O185 2.240 1_565 S
Cd184 O192 2.223 . S
Cd184 O194 2.297 1_556 S
Cd184 O195 2.446 1_565 S
O185 Cd184 2.240 1_545 S
O185 C190 1.279 . S
O186 Cd183 2.297 . S
O186 C188 1.247 . S
O187 Cd183 2.439 . S
O187 C188 1.208 . S
C188 O186 1.247 . S
C188 O187 1.208 . S
C189 O194 1.273 . S
C189 O195 1.181 1_564 S
C190 O182 1.315 . S
C190 O185 1.279 . S
C191 O192 1.315 1_545 S
C191 O193 1.279 . S
O192 Cd184 2.223 . S
O192 C191 1.315 1_565 S
O193 Cd183 2.240 . S
O193 C191 1.279 . S
O194 Cd184 2.297 1_554 S
O194 C189 1.273 . S
O195 Cd184 2.446 1_545 S
O195 C189 1.181 1_546 S
O196 Cd197 2.223 . S
O196 C204 1.315 . S
Cd197 O196 2.223 . S
Cd197 O200 2.297 . S
Cd197 O201 2.439 . S
Cd197 O207 2.240 . S
Cd198 O199 2.240 . S
Cd198 O206 2.223 . S
Cd198 O208 2.297 . S
Cd198 O209 2.439 . S
O199 Cd198 2.240 . S
O199 C204 1.279 . S
O200 Cd197 2.297 . S
O200 C202 1.247 . S
O201 Cd197 2.439 . S
O201 C202 1.208 . S
C202 O200 1.247 . S
C202 O201 1.208 . S
C203 O208 1.247 . S
C203 O209 1.208 . S
C204 O196 1.315 . S
C204 O199 1.279 . S
C205 O206 1.315 . S
C205 O207 1.279 . S
O206 Cd198 2.223 . S
O206 C205 1.315 . S
O207 Cd197 2.240 . S
O207 C205 1.279 . S
O208 Cd198 2.297 . S
O208 C203 1.247 . S
O209 Cd198 2.439 . S
O209 C203 1.208 . S
O210 Cd211 2.223 . S
O210 C218 1.315 . S
Cd211 O210 2.223 . S
Cd211 O214 2.297 . S
Cd211 O215 2.439 . S
Cd211 O221 2.240 . S
Cd212 O213 2.240 1_545 S
Cd212 O220 2.223 . S
Cd212 O222 2.297 . S
Cd212 O223 2.439 1_545 S
O213 Cd212 2.240 1_565 S
O213 C218 1.279 . S
O214 Cd211 2.297 . S
O214 C216 1.247 . S
O215 Cd211 2.439 . S
O215 C216 1.208 . S
C216 O214 1.247 . S
C216 O215 1.208 . S
C217 O222 1.247 . S
C217 O223 1.208 1_545 S
C218 O210 1.315 . S
C218 O213 1.279 . S
C219 O220 1.315 1_565 S
C219 O221 1.279 . S
O220 Cd212 2.223 . S
O220 C219 1.315 1_545 S
O221 Cd211 2.240 . S
O221 C219 1.279 . S
O222 Cd212 2.297 . S
O222 C217 1.247 . S
O223 Cd212 2.439 1_565 S
O223 C217 1.208 1_565 S
O224 Cd225 2.223 . S
O224 C232 1.315 . S
Cd225 O224 2.223 . S
Cd225 O228 2.297 . S
Cd225 O229 2.439 . S
Cd225 O235 2.240 . S
Cd226 O227 2.240 . S
Cd226 O234 2.223 . S
Cd226 O236 2.297 . S
Cd226 O237 2.439 . S
O227 Cd226 2.240 . S
O227 C232 1.279 . S
O228 Cd225 2.297 . S
O228 C230 1.247 . S
O229 Cd225 2.439 . S
O229 C230 1.208 . S
C230 O228 1.247 . S
C230 O229 1.208 . S
C231 O236 1.247 . S
C231 O237 1.208 . S
C232 O224 1.315 . S
C232 O227 1.279 . S
C233 O234 1.315 . S
C233 O235 1.279 . S
O234 Cd226 2.223 . S
O234 C233 1.315 . S
O235 Cd225 2.240 . S
O235 C233 1.279 . S
O236 Cd226 2.297 . S
O236 C231 1.247 . S
O237 Cd226 2.439 . S
O237 C231 1.208 . S
O238 Cd239 2.223 . S
O238 C246 1.315 . S
Cd239 O238 2.223 . S
Cd239 O242 2.297 . S
Cd239 O243 2.439 . S
Cd239 O249 2.240 . S
Cd240 O241 2.240 . S
Cd240 O248 2.223 . S
Cd240 O250 2.297 1_556 S
Cd240 O251 2.446 . S
O241 Cd240 2.240 . S
O241 C246 1.279 . S
O242 Cd239 2.297 . S
O242 C244 1.247 . S
O243 Cd239 2.439 . S
O243 C244 1.208 . S
C244 O242 1.247 . S
C244 O243 1.208 . S
C245 O250 1.247 . S
C245 O251 1.202 1_554 S
C246 O238 1.315 . S
C246 O241 1.279 . S
C247 O248 1.315 . S
C247 O249 1.279 . S
O248 Cd240 2.223 . S
O248 C247 1.315 . S
O249 Cd239 2.240 . S
O249 C247 1.279 . S
O250 Cd240 2.297 1_554 S
O250 C245 1.247 . S
O251 Cd240 2.446 . S
O251 C245 1.202 1_556 S
O252 Cd253 2.223 . S
O252 C260 1.315 . S
Cd253 O252 2.223 . S
Cd253 O256 2.297 . S
Cd253 O257 2.439 1_556 S
Cd253 O263 2.240 1_556 S
Cd254 O255 2.240 1_554 S
Cd254 O262 2.223 . S
Cd254 O264 2.297 . S
Cd254 O265 2.439 . S
O255 Cd254 2.240 1_556 S
O255 C260 1.279 . S
O256 Cd253 2.297 . S
O256 C258 1.247 . S
O257 Cd253 2.439 1_554 S
O257 C258 1.208 1_554 S
C258 O256 1.247 . S
C258 O257 1.208 1_556 S
C259 O264 1.247 . S
C259 O265 1.208 . S
C260 O252 1.315 . S
C260 O255 1.279 . S
C261 O262 1.315 . S
C261 O263 1.279 . S
O262 Cd254 2.223 . S
O262 C261 1.315 . S
O263 Cd253 2.240 1_554 S
O263 C261 1.279 . S
O264 Cd254 2.297 . S
O264 C259 1.247 . S
O265 Cd254 2.439 . S
O265 C259 1.208 . S
O266 Cd267 2.223 . S
O266 C274 1.315 . S
Cd267 O266 2.223 . S
Cd267 O270 2.297 . S
Cd267 O271 2.439 . S
Cd267 O277 2.240 . S
Cd268 O269 2.240 . S
Cd268 O276 2.223 . S
Cd268 O278 2.297 . S
Cd268 O279 2.439 . S
O269 Cd268 2.240 . S
O269 C274 1.279 . S
O270 Cd267 2.297 . S
O270 C272 1.247 . S
O271 Cd267 2.439 . S
O271 C272 1.208 . S
C272 O270 1.247 . S
C272 O271 1.208 . S
C273 O278 1.247 . S
C273 O279 1.208 . S
C274 O266 1.315 . S
C274 O269 1.279 . S
C275 O276 1.315 . S
C275 O277 1.279 . S
O276 Cd268 2.223 . S
O276 C275 1.315 . S
O277 Cd267 2.240 . S
O277 C275 1.279 . S
O278 Cd268 2.297 . S
O278 C273 1.247 . S
O279 Cd268 2.439 . S
O279 C273 1.208 . S
O280 Cd281 2.223 . S
O280 C288 1.315 . S
Cd281 O280 2.223 . S
Cd281 O284 2.297 . S
Cd281 O285 2.439 . S
Cd281 O291 2.240 . S
Cd282 O283 2.240 . S
Cd282 O290 2.223 . S
Cd282 O292 2.297 . S
Cd282 O293 2.439 . S
O283 Cd282 2.240 . S
O283 C288 1.279 . S
O284 Cd281 2.297 . S
O284 C286 1.247 . S
O285 Cd281 2.439 . S
O285 C286 1.208 . S
C286 O284 1.247 . S
C286 O285 1.208 . S
C287 O292 1.247 . S
C287 O293 1.208 . S
C288 O280 1.315 . S
C288 O283 1.279 . S
C289 O290 1.315 . S
C289 O291 1.279 . S
O290 Cd282 2.223 . S
O290 C289 1.315 . S
O291 Cd281 2.240 . S
O291 C289 1.279 . S
O292 Cd282 2.297 . S
O292 C287 1.247 . S
O293 Cd282 2.439 . S
O293 C287 1.208 . S
O294 Cd295 2.223 1_554 S
O294 C302 1.315 . S
Cd295 O294 2.223 1_556 S
Cd295 O298 2.297 1_556 S
Cd295 O299 2.439 . S
Cd295 O305 2.240 . S
Cd296 O297 2.240 . S
Cd296 O304 2.223 . S
Cd296 O306 2.297 . S
Cd296 O307 2.439 . S
O297 Cd296 2.240 . S
O297 C302 1.279 1_556 S
O298 Cd295 2.297 1_554 S
O298 C300 1.247 1_554 S
O299 Cd295 2.439 . S
O299 C300 1.208 . S
C300 O298 1.247 1_556 S
C300 O299 1.208 . S
C301 O306 1.247 . S
C301 O307 1.208 . S
C302 O294 1.315 . S
C302 O297 1.279 1_554 S
C303 O304 1.315 . S
C303 O305 1.279 . S
O304 Cd296 2.223 . S
O304 C303 1.315 . S
O305 Cd295 2.240 . S
O305 C303 1.279 . S
O306 Cd296 2.297 . S
O306 C301 1.247 . S
O307 Cd296 2.439 . S
O307 C301 1.208 . S
O308 Cd309 2.223 . S
O308 C316 1.315 . S
Cd309 O308 2.223 . S
Cd309 O312 2.297 . S
Cd309 O313 2.439 . S
Cd309 O319 2.240 . S
Cd310 O311 2.240 . S
Cd310 O318 2.223 . S
Cd310 O320 2.297 1_554 S
Cd310 O321 2.439 1_554 S
O311 Cd310 2.240 . S
O311 C316 1.279 . S
O312 Cd309 2.297 . S
O312 C314 1.247 . S
O313 Cd309 2.439 . S
O313 C314 1.208 . S
C314 O312 1.247 . S
C314 O313 1.208 . S
C315 O320 1.247 . S
C315 O321 1.208 . S
C316 O308 1.315 . S
C316 O311 1.279 . S
C317 O318 1.315 . S
C317 O319 1.279 . S
O318 Cd310 2.223 . S
O318 C317 1.315 . S
O319 Cd309 2.240 . S
O319 C317 1.279 . S
O320 Cd310 2.297 1_556 S
O320 C315 1.247 . S
O321 Cd310 2.439 1_556 S
O321 C315 1.208 . S
O322 Cd323 2.223 . S
O322 C330 1.315 . S
Cd323 O322 2.223 . S
Cd323 O326 2.297 . S
Cd323 O327 2.439 . S
Cd323 O333 2.240 . S
Cd324 O325 2.240 . S
Cd324 O332 2.223 . S
Cd324 O334 2.297 . S
Cd324 O335 2.439 . S
O325 Cd324 2.240 . S
O325 C330 1.279 . S
O326 Cd323 2.297 . S
O326 C328 1.247 . S
O327 Cd323 2.439 . S
O327 C328 1.208 . S
C328 O326 1.247 . S
C328 O327 1.208 . S
C329 O334 1.247 . S
C329 O335 1.208 . S
C330 O322 1.315 . S
C330 O325 1.279 . S
C331 O332 1.315 . S
C331 O333 1.279 . S
O332 Cd324 2.223 . S
O332 C331 1.315 . S
O333 Cd323 2.240 . S
O333 C331 1.279 . S
O334 Cd324 2.297 . S
O334 C329 1.247 . S
O335 Cd324 2.439 . S
O335 C329 1.208 . S
O336 Cd337 2.223 . S
O336 C344 1.315 . S
Cd337 O336 2.223 . S
Cd337 O340 2.297 . S
Cd337 O341 2.439 . S
Cd337 O347 2.240 . S
Cd338 O339 2.240 . S
Cd338 O346 2.223 . S
Cd338 O348 2.297 . S
Cd338 O349 2.439 . S
O339 Cd338 2.240 . S
O339 C344 1.279 . S
O340 Cd337 2.297 . S
O340 C342 1.247 . S
O341 Cd337 2.439 . S
O341 C342 1.208 . S
C342 O340 1.247 . S
C342 O341 1.208 . S
C343 O348 1.247 . S
C343 O349 1.208 . S
C344 O336 1.315 . S
C344 O339 1.279 . S
C345 O346 1.315 . S
C345 O347 1.279 . S
O346 Cd338 2.223 . S
O346 C345 1.315 . S
O347 Cd337 2.240 . S
O347 C345 1.279 . S
O348 Cd338 2.297 . S
O348 C343 1.247 . S
O349 Cd338 2.439 . S
O349 C343 1.208 . S
O350 Cd351 2.223 . S
O350 C358 1.315 . S
Cd351 O350 2.223 . S
Cd351 O354 2.297 . S
Cd351 O355 2.439 . S
Cd351 O361 2.240 . S
Cd352 O353 2.240 . S
Cd352 O360 2.223 . S
Cd352 O362 2.297 . S
Cd352 O363 2.439 . S
O353 Cd352 2.240 . S
O353 C358 1.279 . S
O354 Cd351 2.297 . S
O354 C356 1.247 . S
O355 Cd351 2.439 . S
O355 C356 1.208 . S
C356 O354 1.247 . S
C356 O355 1.208 . S
C357 O362 1.247 . S
C357 O363 1.208 . S
C358 O350 1.315 . S
C358 O353 1.279 . S
C359 O360 1.315 . S
C359 O361 1.279 . S
O360 Cd352 2.223 . S
O360 C359 1.315 . S
O361 Cd351 2.240 . S
O361 C359 1.279 . S
O362 Cd352 2.297 . S
O362 C357 1.247 . S
O363 Cd352 2.439 . S
O363 C357 1.208 . S
O364 Cd365 2.223 . S
O364 C372 1.315 . S
Cd365 O364 2.223 . S
Cd365 O368 2.297 . S
Cd365 O369 2.439 . S
Cd365 O375 2.240 . S
Cd366 O367 2.240 . S
Cd366 O374 2.223 . S
Cd366 O376 2.297 1_554 S
Cd366 O377 2.439 1_554 S
O367 Cd366 2.240 . S
O367 C372 1.279 . S
O368 Cd365 2.297 . S
O368 C370 1.247 . S
O369 Cd365 2.439 . S
O369 C370 1.208 . S
C370 O368 1.247 . S
C370 O369 1.208 . S
C371 O376 1.247 . S
C371 O377 1.208 . S
C372 O364 1.315 . S
C372 O367 1.279 . S
C373 O374 1.315 . S
C373 O375 1.279 . S
O374 Cd366 2.223 . S
O374 C373 1.315 . S
O375 Cd365 2.240 . S
O375 C373 1.279 . S
O376 Cd366 2.297 1_556 S
O376 C371 1.247 . S
O377 Cd366 2.439 1_556 S
O377 C371 1.208 . S
O378 Cd379 2.223 1_554 S
O378 C386 1.315 . S
Cd379 O378 2.223 1_556 S
Cd379 O382 2.297 1_556 S
Cd379 O383 2.439 . S
Cd379 O389 2.240 . S
Cd380 O381 2.240 . S
Cd380 O388 2.223 . S
Cd380 O390 2.297 . S
Cd380 O391 2.439 . S
O381 Cd380 2.240 . S
O381 C386 1.279 1_556 S
O382 Cd379 2.297 1_554 S
O382 C384 1.247 1_554 S
O383 Cd379 2.439 . S
O383 C384 1.208 . S
C384 O382 1.247 1_556 S
C384 O383 1.208 . S
C385 O390 1.247 . S
C385 O391 1.208 . S
C386 O378 1.315 . S
C386 O381 1.279 1_554 S
C387 O388 1.315 . S
C387 O389 1.279 . S
O388 Cd380 2.223 . S
O388 C387 1.315 . S
O389 Cd379 2.240 . S
O389 C387 1.279 . S
O390 Cd380 2.297 . S
O390 C385 1.247 . S
O391 Cd380 2.439 . S
O391 C385 1.208 . S
O392 Cd393 2.223 . S
O392 C400 1.315 . S
Cd393 O392 2.223 . S
Cd393 O396 2.297 . S
Cd393 O397 2.439 . S
Cd393 O403 2.240 . S
Cd394 O395 2.240 . S
Cd394 O402 2.223 . S
Cd394 O404 2.297 . S
Cd394 O405 2.439 . S
O395 Cd394 2.240 . S
O395 C400 1.279 . S
O396 Cd393 2.297 . S
O396 C398 1.247 . S
O397 Cd393 2.439 . S
O397 C398 1.208 . S
C398 O396 1.247 . S
C398 O397 1.208 . S
C399 O404 1.247 . S
C399 O405 1.208 . S
C400 O392 1.315 . S
C400 O395 1.279 . S
C401 O402 1.315 . S
C401 O403 1.279 . S
O402 Cd394 2.223 . S
O402 C401 1.315 . S
O403 Cd393 2.240 . S
O403 C401 1.279 . S
O404 Cd394 2.297 . S
O404 C399 1.247 . S
O405 Cd394 2.439 . S
O405 C399 1.208 . S
O406 Cd407 2.223 . S
O406 C414 1.315 . S
Cd407 O406 2.223 . S
Cd407 O410 2.297 . S
Cd407 O411 2.439 . S
Cd407 O417 2.240 . S
Cd408 O409 2.240 . S
Cd408 O416 2.223 . S
Cd408 O418 2.297 . S
Cd408 O419 2.439 . S
O409 Cd408 2.240 . S
O409 C414 1.279 . S
O410 Cd407 2.297 . S
O410 C412 1.247 . S
O411 Cd407 2.439 . S
O411 C412 1.208 . S
C412 O410 1.247 . S
C412 O411 1.208 . S
C413 O418 1.247 . S
C413 O419 1.208 . S
C414 O406 1.315 . S
C414 O409 1.279 . S
C415 O416 1.315 . S
C415 O417 1.279 . S
O416 Cd408 2.223 . S
O416 C415 1.315 . S
O417 Cd407 2.240 . S
O417 C415 1.279 . S
O418 Cd408 2.297 . S
O418 C413 1.247 . S
O419 Cd408 2.439 . S
O419 C413 1.208 . S
O420 Cd421 2.223 . S
O420 C428 1.315 . S
Cd421 O420 2.223 . S
Cd421 O424 2.297 . S
Cd421 O425 2.439 1_556 S
Cd421 O431 2.240 1_556 S
Cd422 O423 2.240 1_554 S
Cd422 O430 2.223 . S
Cd422 O432 2.297 . S
Cd422 O433 2.439 . S
O423 Cd422 2.240 1_556 S
O423 C428 1.279 . S
O424 Cd421 2.297 . S
O424 C426 1.247 . S
O425 Cd421 2.439 1_554 S
O425 C426 1.208 1_554 S
C426 O424 1.247 . S
C426 O425 1.208 1_556 S
C427 O432 1.247 . S
C427 O433 1.208 . S
C428 O420 1.315 . S
C428 O423 1.279 . S
C429 O430 1.315 . S
C429 O431 1.279 . S
O430 Cd422 2.223 . S
O430 C429 1.315 . S
O431 Cd421 2.240 1_554 S
O431 C429 1.279 . S
O432 Cd422 2.297 . S
O432 C427 1.247 . S
O433 Cd422 2.439 . S
O433 C427 1.208 . S
O434 Cd435 2.223 . S
O434 C442 1.315 . S
Cd435 O434 2.223 . S
Cd435 O438 2.297 . S
Cd435 O439 2.439 . S
Cd435 O445 2.240 . S
Cd436 O437 2.240 . S
Cd436 O444 2.223 . S
Cd436 O446 2.297 1_556 S
Cd436 O447 2.446 . S
O437 Cd436 2.240 . S
O437 C442 1.279 . S
O438 Cd435 2.297 . S
O438 C440 1.247 . S
O439 Cd435 2.439 . S
O439 C440 1.208 . S
C440 O438 1.247 . S
C440 O439 1.208 . S
C441 O446 1.247 . S
C441 O447 1.202 1_554 S
C442 O434 1.315 . S
C442 O437 1.279 . S
C443 O444 1.315 . S
C443 O445 1.279 . S
O444 Cd436 2.223 . S
O444 C443 1.315 . S
O445 Cd435 2.240 . S
O445 C443 1.279 . S
O446 Cd436 2.297 1_554 S
O446 C441 1.247 . S
O447 Cd436 2.446 . S
O447 C441 1.202 1_556 S
C104 C6 1.397 . S
C20 C62 1.398 . S
C76 C34 1.397 . S
C48 C90 1.398 . S
C118 C216 1.398 . S
C132 C174 1.397 . S
C146 C188 1.398 . S
C160 C202 1.397 . S
C230 C328 1.397 . S
C244 C286 1.398 . S
C300 C258 1.397 . S
C314 C272 1.398 . S
C342 C440 1.398 . S
C398 C356 1.397 . S
C412 C370 1.398 . S
C384 C426 1.397 . S
C8 C92 1.155 . S
C22 C106 1.155 1_565 S
C64 C36 1.155 . S
C50 C78 1.155 1_545 S
C120 C204 1.155 . S
C134 C218 1.155 1_545 S
C176 C148 1.155 . S
C190 C162 1.155 1_545 S
C232 C316 1.155 . S
C330 C246 1.155 . S
C288 C260 1.155 . S
C274 C302 1.155 . S
C344 C428 1.155 . S
C358 C442 1.155 . S
C400 C372 1.155 . S
C414 C386 1.155 . S
C9 C429 1.490 . S
C23 C219 1.490 1_455 S
C37 C401 1.490 . S
C51 C191 1.490 . S
C65 C373 1.490 . S
C79 C163 1.490 . S
C93 C345 1.490 . S
C135 C107 1.490 1_655 S
C317 C121 1.490 . S
C149 C289 1.490 . S
C261 C177 1.490 . S
C233 C205 1.490 . S
C247 C443 1.490 . S
C275 C415 1.490 1_655 S
C303 C387 1.490 1_655 S
C359 C331 1.491 . S
C7 C91 1.531 . S
C21 C105 1.528 1_545 S
C63 C35 1.531 . S
C49 C77 1.529 1_565 S
C119 C203 1.531 . S
C133 C217 1.528 1_565 S
C175 C147 1.531 . S
C161 C189 1.529 1_545 S
C315 C231 1.531 . S
C329 C245 1.531 . S
C287 C259 1.531 . S
C301 C273 1.531 . S
C427 C343 1.531 . S
C441 C357 1.531 . S
C371 C399 1.531 . S
C413 C385 1.531 . S
