# Generated by pormake.
# Topology irl, (4)-cn, num edge types: 1
# Building blocks:
#     Node 0, Type 0, BuildingBlock: KUFVIS_clean_sbu_0, # of connection points: 4
#     Node 1, Type 0, BuildingBlock: KUFVIS_clean_sbu_0, # of connection points: 4
#     Node 2, Type 0, BuildingBlock: KUFVIS_clean_sbu_0, # of connection points: 4
#     Node 3, Type 0, BuildingBlock: KUFVIS_clean_sbu_0, # of connection points: 4
#     Node 4, Type 0, BuildingBlock: KUFVIS_clean_sbu_0, # of connection points: 4
#     Node 5, Type 0, BuildingBlock: KUFVIS_clean_sbu_0, # of connection points: 4
#     Node 6, Type 0, BuildingBlock: KUFVIS_clean_sbu_0, # of connection points: 4
#     Node 7, Type 0, BuildingBlock: KUFVIS_clean_sbu_0, # of connection points: 4
#     Edge 8, Type (0, 0), BuildingBlock: EZIPEK_clean_linker_0, # of connection points: 2
#     Edge 9, Type (0, 0), BuildingBlock: EZIPEK_clean_linker_0, # of connection points: 2
#     Edge 10, Type (0, 0), BuildingBlock: EZIPEK_clean_linker_0, # of connection points: 2
#     Edge 11, Type (0, 0), BuildingBlock: EZIPEK_clean_linker_0, # of connection points: 2
#     Edge 12, Type (0, 0), BuildingBlock: EZIPEK_clean_linker_0, # of connection points: 2
#     Edge 13, Type (0, 0), BuildingBlock: EZIPEK_clean_linker_0, # of connection points: 2
#     Edge 14, Type (0, 0), BuildingBlock: EZIPEK_clean_linker_0, # of connection points: 2
#     Edge 15, Type (0, 0), BuildingBlock: EZIPEK_clean_linker_0, # of connection points: 2
#     Edge 16, Type (0, 0), BuildingBlock: EZIPEK_clean_linker_0, # of connection points: 2
#     Edge 17, Type (0, 0), BuildingBlock: EZIPEK_clean_linker_0, # of connection points: 2
#     Edge 18, Type (0, 0), BuildingBlock: EZIPEK_clean_linker_0, # of connection points: 2
#     Edge 19, Type (0, 0), BuildingBlock: EZIPEK_clean_linker_0, # of connection points: 2
#     Edge 20, Type (0, 0), BuildingBlock: EZIPEK_clean_linker_0, # of connection points: 2
#     Edge 21, Type (0, 0), BuildingBlock: EZIPEK_clean_linker_0, # of connection points: 2
#     Edge 22, Type (0, 0), BuildingBlock: EZIPEK_clean_linker_0, # of connection points: 2
#     Edge 23, Type (0, 0), BuildingBlock: EZIPEK_clean_linker_0, # of connection points: 2
# Relax obj value: 0.099
# Max RMSD: 0.149
# Mean RMSD: 0.149
data_MOF--net-irl--node1-KUFVIS_clean_sbu_0--edge1-EZIPEK_clean_linker_0
_symmetry_space_group_name_H-M    P1
_symmetry_Int_Tables_number       1
_symmetry_cell_setting            triclinic
loop_
_symmetry_equiv_pos_as_xyz
'x, y, z'
_cell_length_a     25.068221
_cell_length_b     33.238159
_cell_length_c     19.793183
_cell_angle_alpha  90.013102
_cell_angle_beta   90.037339
_cell_angle_gamma 90.068784
loop_
_atom_site_label
_atom_site_type_symbol
_atom_site_fract_x
_atom_site_fract_y
_atom_site_fract_z
_atom_type_partial_charge
Mn0 Mn 0.06729 0.15363 0.01564 0.0
Mn1 Mn 0.03013 0.25045 0.00331 0.0
C2 C 0.05319 0.19143 0.11424 0.0
C3 C 0.04366 0.08545 0.01811 0.0
C4 C 0.14413 0.22177 0.97984 0.0
O5 O 0.04193 0.15846 0.91742 0.0
O6 O 0.00982 0.22096 0.91984 0.0
C7 C 0.91395 0.23307 0.01148 0.0
N8 N 0.95715 0.25533 0.03011 0.0
C9 C 0.90292 0.29832 0.09917 0.0
C10 C 0.85733 0.27761 0.07719 0.0
C11 C 0.86302 0.24418 0.03437 0.0
C12 C 0.9526 0.28496 0.07619 0.0
H13 H 0.91877 0.20618 0.98153 0.0
C14 C 0.01496 0.18688 0.89066 0.0
O15 O 0.09117 0.09699 0.00059 0.0
O16 O 0.00994 0.11345 0.0341 0.0
N17 N 0.04543 0.28423 0.07902 0.0
C18 C 0.09359 0.29923 0.09875 0.0
C19 C 0.09548 0.33241 0.14248 0.0
C20 C 0.04788 0.35056 0.1639 0.0
C21 C 0.9987 0.33423 0.14409 0.0
C22 C 0.99938 0.30093 0.10096 0.0
H23 H 0.13033 0.28689 0.07949 0.0
O24 O 0.08137 0.15872 0.11546 0.0
O25 O 0.03435 0.20078 0.05524 0.0
O26 O 0.13579 0.18483 0.99392 0.0
O27 O 0.10709 0.24827 0.97783 0.0
C28 C 0.94898 0.35048 0.16333 0.0
C29 C 0.90117 0.33174 0.14274 0.0
H30 H 0.81799 0.28648 0.09416 0.0
H31 H 0.82834 0.22693 0.01934 0.0
H32 H 0.13354 0.34485 0.15772 0.0
H33 H 0.04973 0.3774 0.19471 0.0
H34 H 0.94682 0.3773 0.19414 0.0
H35 H 0.86331 0.34362 0.15991 0.0
Mn36 Mn 0.943 0.85246 0.02545 0.0
Mn37 Mn 0.96983 0.75421 -0.00099 0.0
C38 C 0.96329 0.81148 0.11819 0.0
C39 C 0.97268 0.91907 0.027 0.0
C40 C 0.85697 0.78885 -0.00083 0.0
O41 O 0.9566 0.84984 0.92397 0.0
O42 O 0.98046 0.78498 0.91376 0.0
C43 C 0.08549 0.76184 0.97097 0.0
N44 N 0.04496 0.74588 0.00821 0.0
C45 C 0.10639 0.70547 0.07208 0.0
C46 C 0.14883 0.72201 0.03527 0.0
C47 C 0.13831 0.75048 0.98464 0.0
C48 C 0.05473 0.71917 0.05801 0.0
H49 H 0.0776 0.78292 0.93096 0.0
C50 C 0.97401 0.82027 0.88962 0.0
O51 O 0.92279 0.91034 0.01719 0.0
O52 O 0.00527 0.88933 0.03656 0.0
N53 N 0.96281 0.71949 0.07547 0.0
C54 C 0.91714 0.70286 0.10029 0.0
C55 C 0.92023 0.67089 0.14628 0.0
C56 C 0.97018 0.65533 0.16446 0.0
C57 C 0.01674 0.6726 0.13818 0.0
C58 C 0.01116 0.70448 0.09253 0.0
H59 H 0.87848 0.71314 0.08371 0.0
O60 O 0.9386 0.8455 0.12546 0.0
O61 O 0.97612 0.80254 0.05601 0.0
O62 O 0.86991 0.82504 0.0135 0.0
O63 O 0.89097 0.76051 0.99082 0.0
C64 C 0.06827 0.65786 0.15234 0.0
C65 C 0.11316 0.67495 0.12056 0.0
H66 H 0.18953 0.71262 0.0447 0.0
H67 H 0.17075 0.76314 0.95548 0.0
H68 H 0.88412 0.65734 0.16582 0.0
H69 H 0.97218 0.62912 0.19668 0.0
H70 H 0.07392 0.63284 0.18656 0.0
H71 H 0.15253 0.66337 0.13195 0.0
Mn72 Mn 0.06355 0.8551 0.4729 0.0
Mn73 Mn 0.02937 0.75791 0.4966 0.0
C74 C 0.04301 0.81539 0.37922 0.0
C75 C 0.03726 0.92216 0.47141 0.0
C76 C 0.14395 0.7881 0.50094 0.0
O77 O 0.0487 0.85263 0.57355 0.0
O78 O 0.01861 0.78904 0.5823 0.0
C79 C 0.91332 0.76672 0.52078 0.0
N80 N 0.95417 0.75127 0.48381 0.0
C81 C 0.89301 0.71275 0.4159 0.0
C82 C 0.85025 0.72924 0.45206 0.0
C83 C 0.86049 0.7564 0.50477 0.0
C84 C 0.94474 0.72523 0.43282 0.0
H85 H 0.92109 0.78625 0.56263 0.0
C86 C 0.02883 0.82381 0.60736 0.0
O87 O 0.08661 0.91228 0.48254 0.0
O88 O 0.00345 0.89337 0.46054 0.0
N89 N 0.03693 0.72418 0.41895 0.0
C90 C 0.08268 0.70899 0.39198 0.0
C91 C 0.07964 0.67879 0.34268 0.0
C92 C 0.02967 0.66391 0.32276 0.0
C93 C 0.98307 0.68031 0.35029 0.0
C94 C 0.98859 0.71035 0.39928 0.0
H95 H 0.12134 0.71907 0.4091 0.0
O96 O 0.06968 0.84865 0.37304 0.0
O97 O 0.02809 0.80666 0.44071 0.0
O98 O 0.13423 0.82495 0.48728 0.0
O99 O 0.10766 0.7614 0.50831 0.0
C100 C 0.93145 0.66676 0.33333 0.0
C101 C 0.88641 0.68356 0.36509 0.0
H102 H 0.80951 0.72072 0.44059 0.0
H103 H 0.82782 0.7688 0.53378 0.0
H104 H 0.11574 0.66613 0.32161 0.0
H105 H 0.02769 0.63898 0.288 0.0
H106 H 0.92576 0.64296 0.29682 0.0
H107 H 0.84697 0.67297 0.35143 0.0
Mn108 Mn 0.94182 0.1552 0.46873 0.0
Mn109 Mn 0.97928 0.25158 0.49016 0.0
C110 C 0.96845 0.19251 0.37504 0.0
C111 C 0.96638 0.08773 0.4717 0.0
C112 C 0.86269 0.22394 0.48791 0.0
O113 O 0.95075 0.15994 0.57051 0.0
O114 O 0.98585 0.22192 0.57637 0.0
C115 C 0.09334 0.23634 0.51979 0.0
N116 N 0.05511 0.25499 0.48216 0.0
C117 C 0.12137 0.29091 0.41843 0.0
C118 C 0.16149 0.27198 0.45618 0.0
C119 C 0.14738 0.24437 0.50682 0.0
C120 C 0.06826 0.28066 0.4321 0.0
H121 H 0.08271 0.21533 0.55917 0.0
C122 C 0.97166 0.1888 0.60349 0.0
O123 O 0.91686 0.09843 0.47893 0.0
O124 O 1.00136 0.11599 0.46343 0.0
N125 N 0.97682 0.28499 0.41183 0.0
C126 C 0.93326 0.3031 0.38416 0.0
C127 C 0.94027 0.33461 0.33796 0.0
C128 C 0.99195 0.3476 0.32166 0.0
C129 C 0.03623 0.32802 0.34932 0.0
C130 C 0.02679 0.29728 0.39599 0.0
H131 H 0.8934 0.29467 0.39918 0.0
O132 O 0.94124 0.15955 0.36828 0.0
O133 O 0.98038 0.20216 0.43698 0.0
O134 O 0.87167 0.18686 0.47506 0.0
O135 O 0.89971 0.2501 0.49727 0.0
C136 C 0.08931 0.33939 0.33539 0.0
C137 C 0.13191 0.32019 0.36882 0.0
H138 H 0.20319 0.27865 0.44709 0.0
H139 H 0.17807 0.22964 0.53625 0.0
H140 H 0.90593 0.34982 0.31691 0.0
H141 H 0.99721 0.37372 0.29002 0.0
H142 H 0.09788 0.3632 0.29972 0.0
H143 H 0.17253 0.32904 0.35749 0.0
Mn144 Mn 0.56359 0.6549 0.0287 0.0
Mn145 Mn 0.52972 0.75218 0.00555 0.0
C146 C 0.54318 0.69443 0.12261 0.0
C147 C 0.53689 0.58776 0.02903 0.0
C148 C 0.64417 0.7219 0.00071 0.0
O149 O 0.54885 0.65778 0.92796 0.0
O150 O 0.51825 0.72122 0.91982 0.0
C151 C 0.41344 0.74374 0.98236 0.0
N152 N 0.45466 0.75905 0.01898 0.0
C153 C 0.39428 0.79784 0.08729 0.0
C154 C 0.35115 0.78153 0.05144 0.0
C155 C 0.36081 0.75429 -0.00129 0.0
C156 C 0.44579 0.78516 0.06999 0.0
H157 H 0.42078 0.72412 0.94055 0.0
C158 C 0.52868 0.68659 0.89443 0.0
O159 O 0.58632 0.59766 0.01837 0.0
O160 O 0.50331 0.61657 0.04041 0.0
N161 N 0.53805 0.78575 0.0833 0.0
C162 C 0.5841 0.80058 0.11023 0.0
C163 C 0.58163 0.83062 0.15985 0.0
C164 C 0.53194 0.84572 0.18012 0.0
C165 C 0.48502 0.82973 0.15254 0.0
C166 C 0.48997 0.7998 0.10329 0.0
H167 H 0.62255 0.79032 0.0929 0.0
O168 O 0.56955 0.66107 0.12872 0.0
O169 O 0.5284 0.7033 0.06112 0.0
O170 O 0.63443 0.68509 0.01478 0.0
O171 O 0.60789 0.74853 0.99314 0.0
C172 C 0.43365 0.84354 0.16979 0.0
C173 C 0.38827 0.82702 0.1382 0.0
H174 H 0.31056 0.79022 0.06319 0.0
H175 H 0.32785 0.74201 0.96996 0.0
H176 H 0.61798 0.84297 0.18093 0.0
H177 H 0.53042 0.87049 0.21522 0.0
H178 H 0.42841 0.86731 0.20641 0.0
H179 H 0.34902 0.83779 0.15213 0.0
Mn180 Mn 0.43828 0.3546 0.01484 0.0
Mn181 Mn 0.47195 0.25717 0.00228 0.0
C182 C 0.45336 0.31701 0.1137 0.0
C183 C 0.46422 0.42213 0.01742 0.0
C184 C 0.35858 0.2877 0.98135 0.0
O185 O 0.46233 0.34975 0.91606 0.0
O186 O 0.48957 0.28628 0.91814 0.0
C187 C 0.58902 0.27022 0.99639 0.0
N188 N 0.54587 0.25132 0.02379 0.0
C189 C 0.602 0.2092 0.09198 0.0
C190 C 0.64711 0.22763 0.0637 0.0
C191 C 0.64054 0.25872 0.0164 0.0
C192 C 0.55171 0.22313 0.07216 0.0
H193 H 0.58409 0.29413 0.95999 0.0
C194 C 0.48675 0.32025 0.88877 0.0
O195 O 0.41609 0.41165 0.00056 0.0
O196 O 0.49718 0.39346 0.03245 0.0
N197 N 0.45898 0.22423 0.07958 0.0
C198 C 0.41139 0.20962 0.10201 0.0
C199 C 0.41072 0.17722 0.14735 0.0
C200 C 0.45889 0.15944 0.1676 0.0
C201 C 0.5075 0.17543 0.14504 0.0
C202 C 0.50566 0.20805 0.1005 0.0
H203 H 0.37416 0.22162 0.08362 0.0
O204 O 0.42541 0.34982 0.11484 0.0
O205 O 0.47082 0.30703 0.05422 0.0
O206 O 0.36836 0.32464 0.99414 0.0
O207 O 0.39443 0.26033 0.9811 0.0
C208 C 0.55766 0.15919 0.16245 0.0
C209 C 0.60489 0.17688 0.13769 0.0
H210 H 0.6869 0.21819 0.07795 0.0
H211 H 0.67509 0.27345 0.99484 0.0
H212 H 0.3731 0.16501 0.16468 0.0
H213 H 0.45789 0.13302 0.19944 0.0
H214 H 0.56059 0.13294 0.1945 0.0
H215 H 0.64315 0.16468 0.15272 0.0
Mn216 Mn 0.56899 0.35986 0.46825 0.0
Mn217 Mn 0.5334 0.26295 0.48916 0.0
C218 C 0.54253 0.32201 0.37415 0.0
C219 C 0.54451 0.4275 0.47085 0.0
C220 C 0.64943 0.29156 0.4869 0.0
O221 O 0.55927 0.35538 0.5705 0.0
O222 O 0.5282 0.2922 0.57568 0.0
C223 C 0.41981 0.27817 0.52133 0.0
N224 N 0.45748 0.25942 0.48298 0.0
C225 C 0.39034 0.22305 0.4214 0.0
C226 C 0.35077 0.24202 0.45997 0.0
C227 C 0.3656 0.26994 0.50985 0.0
C228 C 0.44361 0.2336 0.43345 0.0
H229 H 0.43101 0.29936 0.56021 0.0
C230 C 0.53998 0.32574 0.60322 0.0
O231 O 0.59391 0.41666 0.47847 0.0
O232 O 0.50948 0.39927 0.46211 0.0
N233 N 0.53471 0.22957 0.41076 0.0
C234 C 0.57791 0.21134 0.38247 0.0
C235 C 0.57032 0.17947 0.33709 0.0
C236 C 0.51846 0.16618 0.3224 0.0
C237 C 0.47452 0.18584 0.35069 0.0
C238 C 0.48455 0.217 0.39641 0.0
H239 H 0.61795 0.21992 0.39652 0.0
O240 O 0.56968 0.35499 0.36738 0.0
O241 O 0.53091 0.3125 0.43623 0.0
O242 O 0.63961 0.32865 0.47533 0.0
O243 O 0.61303 0.26475 0.49456 0.0
C244 C 0.4213 0.17409 0.33854 0.0
C245 C 0.37914 0.19338 0.37267 0.0
H246 H 0.30897 0.23515 0.45211 0.0
H247 H 0.33535 0.28471 0.5399 0.0
H248 H 0.60439 0.16415 0.31559 0.0
H249 H 0.51286 0.13971 0.29173 0.0
H250 H 0.41226 0.14989 0.30381 0.0
H251 H 0.3384 0.18424 0.36267 0.0
Mn252 Mn 0.44374 0.65963 0.47588 0.0
Mn253 Mn 0.47052 0.75781 0.503 0.0
C254 C 0.46378 0.70083 0.38342 0.0
C255 C 0.47333 0.59321 0.47324 0.0
C256 C 0.35769 0.72304 0.50229 0.0
O257 O 0.45757 0.66184 0.57724 0.0
O258 O 0.48052 0.72687 0.58822 0.0
C259 C 0.58598 0.74977 0.532 0.0
N260 N 0.54575 0.76601 0.49462 0.0
C261 C 0.60779 0.80635 0.43149 0.0
C262 C 0.64993 0.78958 0.46854 0.0
C263 C 0.63896 0.761 0.51885 0.0
C264 C 0.55596 0.79279 0.44506 0.0
H265 H 0.57776 0.72851 0.57168 0.0
C266 C 0.47437 0.69146 0.612 0.0
O267 O 0.42347 0.60176 0.48345 0.0
O268 O 0.50598 0.623 0.46417 0.0
N269 N 0.46412 0.79273 0.42673 0.0
C270 C 0.41869 0.80956 0.40167 0.0
C271 C 0.42225 0.84164 0.35592 0.0
C272 C 0.47241 0.85707 0.33821 0.0
C273 C 0.5187 0.83961 0.36479 0.0
C274 C 0.51266 0.80766 0.41021 0.0
H275 H 0.37988 0.79935 0.41786 0.0
O276 O 0.43892 0.66685 0.37606 0.0
O277 O 0.47686 0.70965 0.44562 0.0
O278 O 0.37071 0.68685 0.48832 0.0
O279 O 0.3916 0.75153 0.51034 0.0
C280 C 0.57042 0.85421 0.3511 0.0
C281 C 0.61503 0.83693 0.3832 0.0
H282 H 0.69075 0.79886 0.45949 0.0
H283 H 0.67118 0.74812 0.54812 0.0
H284 H 0.38633 0.85533 0.33615 0.0
H285 H 0.47479 0.88329 0.30602 0.0
H286 H 0.57642 0.87923 0.31696 0.0
H287 H 0.65455 0.84839 0.37218 0.0
C288 C 0.02207 0.97502 0.96901 0.0
C289 C 0.99206 0.96128 0.02526 0.0
C290 C 0.00345 0.02686 0.08052 0.0
C291 C 0.02841 0.04208 0.02127 0.0
N292 N 0.05611 0.03177 0.90553 0.0
N293 N 0.94906 0.97472 0.13177 0.0
C294 C 0.03678 0.01637 0.96472 0.0
C295 C 0.98102 0.98747 0.08005 0.0
N296 N 0.03652 0.94851 0.91943 0.0
N297 N 0.00388 0.04918 0.1386 0.0
H298 H 0.93423 0.94545 0.13511 0.0
H299 H 0.93423 0.99383 0.16896 0.0
H300 H 0.02226 0.07726 0.14221 0.0
H301 H 0.99104 0.03828 0.18513 0.0
H302 H 0.0641 0.95522 0.88176 0.0
H303 H 0.02354 0.91872 0.91821 0.0
H304 H 0.05654 0.01591 0.86018 0.0
H305 H 0.06809 0.06154 0.8998 0.0
C306 C 0.99027 0.97953 0.52802 0.0
C307 C 0.01961 0.96462 0.47202 0.0
C308 C 0.00833 0.02893 0.41312 0.0
C309 C 0.98287 0.04493 0.47132 0.0
N310 N 0.95713 0.038 0.58813 0.0
N311 N 0.06229 0.97572 0.36451 0.0
C312 C 0.97556 0.02087 0.5298 0.0
C313 C 0.03054 0.98959 0.41562 0.0
N314 N 0.97623 0.95413 0.57939 0.0
N315 N 0.00905 0.05069 0.35444 0.0
H316 H 0.0773 0.94647 0.36308 0.0
H317 H 0.07686 0.99388 0.32585 0.0
H318 H 0.99216 0.07923 0.3501 0.0
H319 H 0.02208 0.03923 0.30839 0.0
H320 H 0.94955 0.96189 0.61751 0.0
H321 H 0.98855 0.9242 0.58174 0.0
H322 H 0.95675 0.02329 0.63455 0.0
H323 H 0.94623 0.06819 0.59163 0.0
C324 C 0.48799 0.53223 0.96953 0.0
C325 C 0.51868 0.54538 0.02567 0.0
C326 C 0.50705 0.47961 0.07984 0.0
C327 C 0.48105 0.46506 0.02078 0.0
N328 N 0.45351 0.47598 0.90514 0.0
N329 N 0.56314 0.53084 0.13085 0.0
C330 C 0.47296 0.49102 0.96458 0.0
C331 C 0.5302 0.51873 0.07962 0.0
N332 N 0.47301 0.55918 0.92087 0.0
N333 N 0.50689 0.45696 0.13756 0.0
H334 H 0.57878 0.55987 0.13417 0.0
H335 H 0.57809 0.51136 0.16744 0.0
H336 H 0.48798 0.42909 0.1411 0.0
H337 H 0.52063 0.46743 0.18398 0.0
H338 H 0.44506 0.55272 0.88345 0.0
H339 H 0.48578 0.58904 0.92026 0.0
H340 H 0.45301 0.49216 0.86011 0.0
H341 H 0.44187 0.44615 0.89881 0.0
C342 C 0.53447 0.49393 0.53036 0.0
C343 C 0.52836 0.47043 0.47093 0.0
C344 C 0.48325 0.52678 0.41452 0.0
C345 C 0.49241 0.55103 0.47238 0.0
N346 N 0.53228 0.56009 0.58225 0.0
N347 N 0.50546 0.46597 0.35282 0.0
C348 C 0.51991 0.53534 0.52929 0.0
C349 C 0.5049 0.48723 0.41201 0.0
N350 N 0.55165 0.47616 0.58878 0.0
N351 N 0.45352 0.54151 0.36212 0.0
H352 H 0.52169 0.43719 0.34869 0.0
H353 H 0.49412 0.47796 0.30644 0.0
H354 H 0.43916 0.57094 0.36069 0.0
H355 H 0.44004 0.52394 0.32203 0.0
H356 H 0.55103 0.49031 0.63569 0.0
H357 H 0.56272 0.44598 0.59164 0.0
H358 H 0.55763 0.55188 0.62157 0.0
H359 H 0.51993 0.58999 0.58489 0.0
C360 C 0.97565 0.2065 0.19223 0.0
C361 C 0.03132 0.20739 0.17906 0.0
C362 C 0.04786 0.20921 0.30095 0.0
C363 C 0.99208 0.21078 0.31323 0.0
N364 N 0.90617 0.22807 0.26825 0.0
N365 N 0.11818 0.22491 0.22171 0.0
C366 C 0.9574 0.21627 0.25775 0.0
C367 C 0.06664 0.21441 0.23381 0.0
N368 N 0.94044 0.19135 0.14624 0.0
N369 N 0.08266 0.19872 0.35089 0.0
H370 H 0.13125 0.23079 0.17288 0.0
H371 H 0.14476 0.23274 0.26011 0.0
H372 H 0.07057 0.19177 0.39976 0.0
H373 H 0.12307 0.19364 0.3419 0.0
H374 H 0.90005 0.18742 0.1571 0.0
H375 H 0.95219 0.17824 0.10092 0.0
H376 H 0.8799 0.23428 0.22869 0.0
H377 H 0.89325 0.23623 0.31628 0.0
C378 C 0.96699 0.79457 0.30201 0.0
C379 C 0.02246 0.79591 0.31624 0.0
C380 C 0.04126 0.79329 0.19443 0.0
C381 C 0.98565 0.79213 0.18051 0.0
N382 N 0.8994 0.7737 0.22245 0.0
N383 N 0.11101 0.7813 0.2769 0.0
C384 C 0.95006 0.78609 0.2351 0.0
C385 C 0.05899 0.78947 0.26255 0.0
N386 N 0.93029 0.80537 0.34955 0.0
N387 N 0.07698 0.80199 0.14455 0.0
H388 H 0.1241 0.77805 0.32655 0.0
H389 H 0.1388 0.77334 0.2401 0.0
H390 H 0.06594 0.80664 0.09455 0.0
H391 H 0.11725 0.80747 0.15391 0.0
H392 H 0.88982 0.80855 0.33861 0.0
H393 H 0.94037 0.81441 0.3982 0.0
H394 H 0.87241 0.76614 0.26049 0.0
H395 H 0.88793 0.76616 0.17366 0.0
C396 C 0.96128 0.83018 0.69913 0.0
C397 C 0.01536 0.83093 0.67943 0.0
C398 C 0.04084 0.83679 0.79876 0.0
C399 C 0.98781 0.82666 0.81753 0.0
N400 N 0.89952 0.80636 0.78316 0.0
N401 N 0.10821 0.83536 0.71066 0.0
C402 C 0.9484 0.82149 0.76706 0.0
C403 C 0.05578 0.83479 0.72929 0.0
N404 N 0.92238 0.83959 0.6537 0.0
N405 N 0.07649 0.84877 0.84693 0.0
H406 H 0.12034 0.83559 0.66028 0.0
H407 H 0.13953 0.83338 0.74511 0.0
H408 H 0.06636 0.851 0.89792 0.0
H409 H 0.11428 0.85993 0.83564 0.0
H410 H 0.8823 0.84218 0.66707 0.0
H411 H 0.93151 0.84948 0.60496 0.0
H412 H 0.87075 0.79941 0.74689 0.0
H413 H 0.89078 0.79625 0.83165 0.0
C414 C 0.96085 0.21368 0.79075 0.0
C415 C 0.99198 0.18231 0.82012 0.0
C416 C 1.00165 0.15144 0.70801 0.0
C417 C 0.97675 0.18544 0.67804 0.0
N418 N 0.93213 0.24964 0.69151 0.0
N419 N 0.01015 0.11135 0.80907 0.0
C420 C 0.95625 0.2167 0.71959 0.0
C421 C 0.00343 0.1481 0.77961 0.0
N422 N 0.92975 0.23752 0.83066 0.0
N423 N 0.02641 0.12335 0.66857 0.0
H424 H 1.00127 0.10639 0.85981 0.0
H425 H 0.01483 0.08486 0.78158 0.0
H426 H 0.02819 0.12523 0.61606 0.0
H427 H 0.04989 0.10036 0.68849 0.0
H428 H 0.90244 0.25847 0.81257 0.0
H429 H 0.92406 0.23164 0.8813 0.0
H430 H 0.92626 0.27649 0.71761 0.0
H431 H 0.9198 0.25129 0.64143 0.0
C432 C 0.46769 0.7162 0.19969 0.0
C433 C 0.5231 0.71421 0.18551 0.0
C434 C 0.54206 0.71806 0.30723 0.0
C435 C 0.48648 0.71989 0.32107 0.0
N436 N 0.40061 0.73873 0.27845 0.0
N437 N 0.612 0.72831 0.22442 0.0
C438 C 0.451 0.72568 0.26626 0.0
C439 C 0.55983 0.72085 0.239 0.0
N440 N 0.43075 0.70513 0.15251 0.0
N441 N 0.57766 0.70969 0.35744 0.0
H442 H 0.62512 0.73086 0.17469 0.0
H443 H 0.64 0.73642 0.26094 0.0
H444 H 0.5666 0.70591 0.40761 0.0
H445 H 0.6178 0.70367 0.34832 0.0
H446 H 0.39023 0.70248 0.16354 0.0
H447 H 0.44064 0.69535 0.10422 0.0
H448 H 0.37376 0.74608 0.24012 0.0
H449 H 0.38928 0.74695 0.32696 0.0
C450 C 0.55218 0.29644 0.25669 0.0
C451 C 0.51824 0.30352 0.31247 0.0
C452 C 0.44245 0.29708 0.23505 0.0
C453 C 0.47678 0.30216 0.17872 0.0
N454 N 0.56754 0.31462 0.14098 0.0
N455 N 0.42813 0.31571 0.35139 0.0
C456 C 0.53279 0.30302 0.19032 0.0
C457 C 0.46228 0.30437 0.30129 0.0
N458 N 0.60356 0.28504 0.26738 0.0
N459 N 0.39071 0.28621 0.22515 0.0
H460 H 0.44081 0.32367 0.39962 0.0
H461 H 0.38753 0.32038 0.34309 0.0
H462 H 0.37678 0.27889 0.17721 0.0
H463 H 0.36477 0.2795 0.26476 0.0
H464 H 0.62929 0.27701 0.22824 0.0
H465 H 0.61707 0.27872 0.31591 0.0
H466 H 0.60816 0.31877 0.15002 0.0
H467 H 0.55557 0.32447 0.09354 0.0
C468 C 0.50768 0.36132 0.78276 0.0
C469 C 0.51182 0.32443 0.81916 0.0
C470 C 0.55283 0.29484 0.71716 0.0
C471 C 0.53441 0.32775 0.67806 0.0
N472 N 0.48791 0.39144 0.6746 0.0
N473 N 0.54736 0.2557 0.81801 0.0
C474 C 0.51021 0.36089 0.711 0.0
C475 C 0.53708 0.29114 0.7857 0.0
N476 N 0.50596 0.3972 0.81613 0.0
N477 N 0.58816 0.2679 0.69009 0.0
H478 H 0.55584 0.25337 0.86909 0.0
H479 H 0.55194 0.22862 0.79199 0.0
H480 H 0.60227 0.26962 0.64076 0.0
H481 H 0.60802 0.24621 0.71858 0.0
H482 H 0.50609 0.4248 0.79107 0.0
H483 H 0.51398 0.39953 0.86765 0.0
H484 H 0.46588 0.41439 0.69721 0.0
H485 H 0.48676 0.39178 0.62198 0.0
C486 C 0.55554 0.67535 0.77249 0.0
C487 C 0.51517 0.67969 0.82225 0.0
C488 C 0.4487 0.69063 0.73445 0.0
C489 C 0.48798 0.68491 0.68409 0.0
N490 N 0.57595 0.66138 0.65479 0.0
N491 N 0.42191 0.67226 0.84734 0.0
C492 C 0.54062 0.67379 0.70295 0.0
C493 C 0.46117 0.68139 0.80229 0.0
N494 N 0.60792 0.67397 0.79126 0.0
N495 N 0.40037 0.70669 0.71836 0.0
H496 H 0.43069 0.66177 0.89583 0.0
H497 H 0.38178 0.6704 0.83374 0.0
H498 H 0.392 0.71718 0.66997 0.0
H499 H 0.3718 0.71396 0.75464 0.0
H500 H 0.63931 0.67556 0.7569 0.0
H501 H 0.62004 0.67351 0.84165 0.0
H502 H 0.61333 0.64951 0.66616 0.0
H503 H 0.56589 0.65956 0.60372 0.0
C504 C 0.27709 0.26486 0.91483 0.0
C505 C 0.30189 0.27434 0.97743 0.0
C506 C 0.22906 0.24134 0.03755 0.0
C507 C 0.20046 0.23625 0.97636 0.0
N508 N 0.19501 0.24665 0.85614 0.0
N509 N 0.29149 0.28329 0.09747 0.0
C510 C 0.22373 0.24925 0.9146 0.0
C511 C 0.27475 0.26623 0.03848 0.0
N512 N 0.30455 0.27052 0.85605 0.0
N513 N 0.21388 0.22154 0.09475 0.0
H514 H 0.32248 0.30416 0.09911 0.0
H515 H 0.2703 0.2807 0.14258 0.0
H516 H 0.18268 0.20089 0.09556 0.0
H517 H 0.23642 0.22197 0.13905 0.0
H518 H 0.29092 0.26061 0.80921 0.0
H519 H 0.34257 0.28335 0.85495 0.0
H520 H 0.20754 0.25915 0.8106 0.0
H521 H 0.15707 0.23371 0.85427 0.0
C522 C 0.71908 0.75585 0.93734 0.0
C523 C 0.70044 0.73624 0.99692 0.0
C524 C 0.77666 0.76313 0.05951 0.0
C525 C 0.79934 0.77751 -0.00091 0.0
N526 N 0.78874 0.7958 0.8831 0.0
N527 N 0.71831 0.7148 0.11176 0.0
C528 C 0.76958 0.77603 0.93835 0.0
C529 C 0.73141 0.73771 0.05698 0.0
N530 N 0.68829 0.75513 0.88029 0.0
N531 N 0.79571 0.77671 0.11982 0.0
H532 H 0.68636 0.69483 0.11237 0.0
H533 H 0.74275 0.71252 0.15423 0.0
H534 H 0.82421 0.79956 0.12206 0.0
H535 H 0.77801 0.76993 0.16609 0.0
H536 H 0.69735 0.77028 0.83583 0.0
H537 H 0.65264 0.73905 0.87731 0.0
H538 H 0.77277 0.79377 0.83474 0.0
H539 H 0.82023 0.81615 0.88739 0.0
C540 C 0.23126 0.77302 0.44443 0.0
C541 C 0.20025 0.77393 0.50447 0.0
C542 C 0.27015 0.73494 0.56298 0.0
C543 C 0.30002 0.73408 0.50233 0.0
N544 N 0.29689 0.73545 0.38157 0.0
N545 N 0.18835 0.75449 0.62089 0.0
C546 C 0.27719 0.74838 0.44191 0.0
C547 C 0.21923 0.75439 0.56395 0.0
N548 N 0.21749 0.7957 0.38963 0.0
N549 N 0.28973 0.71541 0.61823 0.0
H550 H 0.15236 0.77007 0.62394 0.0
H551 H 0.19761 0.73924 0.66518 0.0
H552 H 0.32183 0.69566 0.61413 0.0
H553 H 0.27367 0.71714 0.66654 0.0
H554 H 0.24193 0.79856 0.3473 0.0
H555 H 0.18479 0.8149 0.38877 0.0
H556 H 0.2792 0.7421 0.33523 0.0
H557 H 0.3261 0.71318 0.3792 0.0
C558 C 0.73224 0.27052 0.55102 0.0
C559 C 0.70622 0.27801 0.48857 0.0
C560 C 0.77883 0.24473 0.42781 0.0
C561 C 0.80628 0.23833 0.48946 0.0
N562 N 0.80589 0.23832 0.61078 0.0
N563 N 0.71483 0.28582 0.36839 0.0
C564 C 0.78218 0.24963 0.55159 0.0
C565 C 0.73237 0.26897 0.42715 0.0
N566 N 0.71049 0.28561 0.60896 0.0
N567 N 0.79558 0.22612 0.37017 0.0
H568 H 0.68473 0.30739 0.3678 0.0
H569 H 0.73486 0.28292 0.32254 0.0
H570 H 0.82672 0.20544 0.36994 0.0
H571 H 0.77435 0.22711 0.32492 0.0
H572 H 0.72776 0.28332 0.65655 0.0
H573 H 0.67671 0.3039 0.60824 0.0
H574 H 0.78994 0.24339 0.65848 0.0
H575 H 0.84013 0.22054 0.61177 0.0
loop_
_geom_bond_atom_site_label_1
_geom_bond_atom_site_label_2
_geom_bond_distance
_geom_bond_site_symmetry_2
_ccdc_geom_bond_type
Mn0 O5 2.095 1_554 S
Mn0 O15 2.162 . S
Mn0 O16 2.297 1_455 S
Mn0 O24 2.385 . S
Mn0 O25 2.209 . S
Mn0 O26 2.094 . S
Mn1 O6 2.121 1_454 S
Mn1 N8 2.257 1_455 S
Mn1 N17 2.282 . S
Mn1 O25 2.215 . S
Mn1 O27 2.117 . S
C2 O24 1.234 . S
C2 O25 1.283 . S
C3 O15 1.281 . S
C3 O16 1.236 1_455 S
C4 O26 1.240 . S
C4 O27 1.264 . S
O5 Mn0 2.095 1_556 S
O5 C14 1.250 . S
O6 Mn1 2.121 1_656 S
O6 C14 1.258 1_655 S
C7 N8 1.326 1_556 S
C7 C11 1.460 1_556 S
C7 H13 0.929 . S
N8 Mn1 2.257 1_655 S
N8 C7 1.326 1_554 S
N8 C12 1.362 . S
C9 C10 1.258 . S
C9 C12 1.431 . S
C9 C29 1.449 . S
C10 C9 1.258 . S
C10 C11 1.477 . S
C10 H30 0.931 . S
C11 C7 1.460 1_554 S
C11 C10 1.477 . S
C11 H31 0.930 1_554 S
C12 N8 1.362 . S
C12 C9 1.431 . S
C12 C22 1.476 . S
H13 C7 0.929 . S
C14 O5 1.250 . S
C14 O6 1.258 1_455 S
O15 Mn0 2.162 . S
O15 C3 1.281 . S
O16 Mn0 2.297 1_655 S
O16 C3 1.236 1_655 S
N17 Mn1 2.282 . S
N17 C18 1.328 . S
N17 C22 1.318 1_455 S
C18 N17 1.328 . S
C18 C19 1.457 . S
C18 H23 0.929 . S
C19 C18 1.457 . S
C19 C20 1.291 . S
C19 H32 0.931 . S
C20 C19 1.291 . S
C20 C21 1.373 1_455 S
C20 H33 0.929 . S
C21 C20 1.373 1_655 S
C21 C22 1.396 . S
C21 C28 1.403 . S
C22 C12 1.476 . S
C22 N17 1.318 1_655 S
C22 C21 1.396 . S
H23 C18 0.929 . S
O24 Mn0 2.385 . S
O24 C2 1.234 . S
O25 Mn0 2.209 . S
O25 Mn1 2.215 . S
O25 C2 1.283 . S
O26 Mn0 2.094 . S
O26 C4 1.240 . S
O27 Mn1 2.117 . S
O27 C4 1.264 . S
C28 C21 1.403 . S
C28 C29 1.399 . S
C28 H34 0.929 . S
C29 C9 1.449 . S
C29 C28 1.399 . S
C29 H35 0.930 . S
H30 C10 0.931 . S
H31 C11 0.930 1_556 S
H32 C19 0.931 . S
H33 C20 0.929 . S
H34 C28 0.929 . S
H35 C29 0.930 . S
Mn36 O41 2.095 1_554 S
Mn36 O51 2.162 . S
Mn36 O52 2.297 1_655 S
Mn36 O60 2.385 . S
Mn36 O61 2.209 . S
Mn36 O62 2.094 . S
Mn37 O42 2.121 1_654 S
Mn37 N44 2.257 1_655 S
Mn37 N53 2.282 . S
Mn37 O61 2.215 . S
Mn37 O63 2.117 . S
C38 O60 1.234 . S
C38 O61 1.283 . S
C39 O51 1.281 . S
C39 O52 1.236 1_655 S
C40 O62 1.240 . S
C40 O63 1.264 . S
O41 Mn36 2.095 1_556 S
O41 C50 1.250 . S
O42 Mn37 2.121 1_456 S
O42 C50 1.258 1_455 S
C43 N44 1.326 1_556 S
C43 C47 1.460 1_556 S
C43 H49 0.929 . S
N44 Mn37 2.257 1_455 S
N44 C43 1.326 1_554 S
N44 C48 1.362 . S
C45 C46 1.258 . S
C45 C48 1.431 . S
C45 C65 1.449 . S
C46 C45 1.258 . S
C46 C47 1.477 . S
C46 H66 0.931 . S
C47 C43 1.460 1_554 S
C47 C46 1.477 . S
C47 H67 0.930 1_554 S
C48 N44 1.362 . S
C48 C45 1.431 . S
C48 C58 1.476 . S
H49 C43 0.929 . S
C50 O41 1.250 . S
C50 O42 1.258 1_655 S
O51 Mn36 2.162 . S
O51 C39 1.281 . S
O52 Mn36 2.297 1_455 S
O52 C39 1.236 1_455 S
N53 Mn37 2.282 . S
N53 C54 1.328 . S
N53 C58 1.318 1_655 S
C54 N53 1.328 . S
C54 C55 1.457 . S
C54 H59 0.929 . S
C55 C54 1.457 . S
C55 C56 1.291 . S
C55 H68 0.931 . S
C56 C55 1.291 . S
C56 C57 1.373 1_655 S
C56 H69 0.929 . S
C57 C56 1.373 1_455 S
C57 C58 1.396 . S
C57 C64 1.403 . S
C58 C48 1.476 . S
C58 N53 1.318 1_455 S
C58 C57 1.396 . S
H59 C54 0.929 . S
O60 Mn36 2.385 . S
O60 C38 1.234 . S
O61 Mn36 2.209 . S
O61 Mn37 2.215 . S
O61 C38 1.283 . S
O62 Mn36 2.094 . S
O62 C40 1.240 . S
O63 Mn37 2.117 . S
O63 C40 1.264 . S
C64 C57 1.403 . S
C64 C65 1.399 . S
C64 H70 0.929 . S
C65 C45 1.449 . S
C65 C64 1.399 . S
C65 H71 0.930 . S
H66 C46 0.931 . S
H67 C47 0.930 1_556 S
H68 C55 0.931 . S
H69 C56 0.929 . S
H70 C64 0.929 . S
H71 C65 0.930 . S
Mn72 O77 2.095 . S
Mn72 O87 2.162 . S
Mn72 O88 2.297 1_455 S
Mn72 O96 2.385 . S
Mn72 O97 2.209 . S
Mn72 O98 2.094 . S
Mn73 O78 2.121 1_455 S
Mn73 N80 2.257 1_455 S
Mn73 N89 2.282 . S
Mn73 O97 2.215 . S
Mn73 O99 2.117 . S
C74 O96 1.234 . S
C74 O97 1.283 . S
C75 O87 1.281 . S
C75 O88 1.236 1_455 S
C76 O98 1.240 . S
C76 O99 1.264 . S
O77 Mn72 2.095 . S
O77 C86 1.250 . S
O78 Mn73 2.121 1_655 S
O78 C86 1.258 1_655 S
C79 N80 1.326 . S
C79 C83 1.460 . S
C79 H85 0.929 . S
N80 Mn73 2.257 1_655 S
N80 C79 1.326 . S
N80 C84 1.362 . S
C81 C82 1.258 . S
C81 C84 1.431 . S
C81 C101 1.449 . S
C82 C81 1.258 . S
C82 C83 1.477 . S
C82 H102 0.931 . S
C83 C79 1.460 . S
C83 C82 1.477 . S
C83 H103 0.930 . S
C84 N80 1.362 . S
C84 C81 1.431 . S
C84 C94 1.476 . S
H85 C79 0.929 . S
C86 O77 1.250 . S
C86 O78 1.258 1_455 S
O87 Mn72 2.162 . S
O87 C75 1.281 . S
O88 Mn72 2.297 1_655 S
O88 C75 1.236 1_655 S
N89 Mn73 2.282 . S
N89 C90 1.328 . S
N89 C94 1.318 1_455 S
C90 N89 1.328 . S
C90 C91 1.457 . S
C90 H95 0.929 . S
C91 C90 1.457 . S
C91 C92 1.291 . S
C91 H104 0.931 . S
C92 C91 1.291 . S
C92 C93 1.373 1_455 S
C92 H105 0.929 . S
C93 C92 1.373 1_655 S
C93 C94 1.396 . S
C93 C100 1.403 . S
C94 C84 1.476 . S
C94 N89 1.318 1_655 S
C94 C93 1.396 . S
H95 C90 0.929 . S
O96 Mn72 2.385 . S
O96 C74 1.234 . S
O97 Mn72 2.209 . S
O97 Mn73 2.215 . S
O97 C74 1.283 . S
O98 Mn72 2.094 . S
O98 C76 1.240 . S
O99 Mn73 2.117 . S
O99 C76 1.264 . S
C100 C93 1.403 . S
C100 C101 1.399 . S
C100 H106 0.929 . S
C101 C81 1.449 . S
C101 C100 1.399 . S
C101 H107 0.930 . S
H102 C82 0.931 . S
H103 C83 0.930 . S
H104 C91 0.931 . S
H105 C92 0.929 . S
H106 C100 0.929 . S
H107 C101 0.930 . S
Mn108 O113 2.095 . S
Mn108 O123 2.162 . S
Mn108 O124 2.297 1_655 S
Mn108 O132 2.385 . S
Mn108 O133 2.209 . S
Mn108 O134 2.094 . S
Mn109 O114 2.121 1_655 S
Mn109 N116 2.257 1_655 S
Mn109 N125 2.282 . S
Mn109 O133 2.215 . S
Mn109 O135 2.117 . S
C110 O132 1.234 . S
C110 O133 1.283 . S
C111 O123 1.281 . S
C111 O124 1.236 1_655 S
C112 O134 1.240 . S
C112 O135 1.264 . S
O113 Mn108 2.095 . S
O113 C122 1.250 . S
O114 Mn109 2.121 1_455 S
O114 C122 1.258 1_455 S
C115 N116 1.326 . S
C115 C119 1.460 . S
C115 H121 0.929 . S
N116 Mn109 2.257 1_455 S
N116 C115 1.326 . S
N116 C120 1.362 . S
C117 C118 1.258 . S
C117 C120 1.431 . S
C117 C137 1.449 . S
C118 C117 1.258 . S
C118 C119 1.477 . S
C118 H138 0.931 . S
C119 C115 1.460 . S
C119 C118 1.477 . S
C119 H139 0.930 . S
C120 N116 1.362 . S
C120 C117 1.431 . S
C120 C130 1.476 . S
H121 C115 0.929 . S
C122 O113 1.250 . S
C122 O114 1.258 1_655 S
O123 Mn108 2.162 . S
O123 C111 1.281 . S
O124 Mn108 2.297 1_455 S
O124 C111 1.236 1_455 S
N125 Mn109 2.282 . S
N125 C126 1.328 . S
N125 C130 1.318 1_655 S
C126 N125 1.328 . S
C126 C127 1.457 . S
C126 H131 0.929 . S
C127 C126 1.457 . S
C127 C128 1.291 . S
C127 H140 0.931 . S
C128 C127 1.291 . S
C128 C129 1.373 1_655 S
C128 H141 0.929 . S
C129 C128 1.373 1_455 S
C129 C130 1.396 . S
C129 C136 1.403 . S
C130 C120 1.476 . S
C130 N125 1.318 1_455 S
C130 C129 1.396 . S
H131 C126 0.929 . S
O132 Mn108 2.385 . S
O132 C110 1.234 . S
O133 Mn108 2.209 . S
O133 Mn109 2.215 . S
O133 C110 1.283 . S
O134 Mn108 2.094 . S
O134 C112 1.240 . S
O135 Mn109 2.117 . S
O135 C112 1.264 . S
C136 C129 1.403 . S
C136 C137 1.399 . S
C136 H142 0.929 . S
C137 C117 1.449 . S
C137 C136 1.399 . S
C137 H143 0.930 . S
H138 C118 0.931 . S
H139 C119 0.930 . S
H140 C127 0.931 . S
H141 C128 0.929 . S
H142 C136 0.929 . S
H143 C137 0.930 . S
Mn144 O149 2.095 1_554 S
Mn144 O159 2.162 . S
Mn144 O160 2.297 . S
Mn144 O168 2.385 . S
Mn144 O169 2.209 . S
Mn144 O170 2.094 . S
Mn145 O150 2.121 1_554 S
Mn145 N152 2.257 . S
Mn145 N161 2.282 . S
Mn145 O169 2.215 . S
Mn145 O171 2.117 . S
C146 O168 1.234 . S
C146 O169 1.283 . S
C147 O159 1.281 . S
C147 O160 1.236 . S
C148 O170 1.240 . S
C148 O171 1.264 . S
O149 Mn144 2.095 1_556 S
O149 C158 1.250 . S
O150 Mn145 2.121 1_556 S
O150 C158 1.258 . S
C151 N152 1.326 1_556 S
C151 C155 1.460 1_556 S
C151 H157 0.929 . S
N152 Mn145 2.257 . S
N152 C151 1.326 1_554 S
N152 C156 1.362 . S
C153 C154 1.258 . S
C153 C156 1.431 . S
C153 C173 1.449 . S
C154 C153 1.258 . S
C154 C155 1.477 . S
C154 H174 0.931 . S
C155 C151 1.460 1_554 S
C155 C154 1.477 . S
C155 H175 0.930 1_554 S
C156 N152 1.362 . S
C156 C153 1.431 . S
C156 C166 1.476 . S
H157 C151 0.929 . S
C158 O149 1.250 . S
C158 O150 1.258 . S
O159 Mn144 2.162 . S
O159 C147 1.281 . S
O160 Mn144 2.297 . S
O160 C147 1.236 . S
N161 Mn145 2.282 . S
N161 C162 1.328 . S
N161 C166 1.318 . S
C162 N161 1.328 . S
C162 C163 1.457 . S
C162 H167 0.929 . S
C163 C162 1.457 . S
C163 C164 1.291 . S
C163 H176 0.931 . S
C164 C163 1.291 . S
C164 C165 1.373 . S
C164 H177 0.929 . S
C165 C164 1.373 . S
C165 C166 1.396 . S
C165 C172 1.403 . S
C166 C156 1.476 . S
C166 N161 1.318 . S
C166 C165 1.396 . S
H167 C162 0.929 . S
O168 Mn144 2.385 . S
O168 C146 1.234 . S
O169 Mn144 2.209 . S
O169 Mn145 2.215 . S
O169 C146 1.283 . S
O170 Mn144 2.094 . S
O170 C148 1.240 . S
O171 Mn145 2.117 . S
O171 C148 1.264 . S
C172 C165 1.403 . S
C172 C173 1.399 . S
C172 H178 0.929 . S
C173 C153 1.449 . S
C173 C172 1.399 . S
C173 H179 0.930 . S
H174 C154 0.931 . S
H175 C155 0.930 1_556 S
H176 C163 0.931 . S
H177 C164 0.929 . S
H178 C172 0.929 . S
H179 C173 0.930 . S
Mn180 O185 2.095 1_554 S
Mn180 O195 2.162 . S
Mn180 O196 2.297 . S
Mn180 O204 2.385 . S
Mn180 O205 2.209 . S
Mn180 O206 2.094 . S
Mn181 O186 2.121 1_554 S
Mn181 N188 2.257 . S
Mn181 N197 2.282 . S
Mn181 O205 2.215 . S
Mn181 O207 2.117 . S
C182 O204 1.234 . S
C182 O205 1.283 . S
C183 O195 1.281 . S
C183 O196 1.236 . S
C184 O206 1.240 . S
C184 O207 1.264 . S
O185 Mn180 2.095 1_556 S
O185 C194 1.250 . S
O186 Mn181 2.121 1_556 S
O186 C194 1.258 . S
C187 N188 1.326 1_556 S
C187 C191 1.460 1_556 S
C187 H193 0.929 . S
N188 Mn181 2.257 . S
N188 C187 1.326 1_554 S
N188 C192 1.362 . S
C189 C190 1.258 . S
C189 C192 1.431 . S
C189 C209 1.449 . S
C190 C189 1.258 . S
C190 C191 1.477 . S
C190 H210 0.931 . S
C191 C187 1.460 1_554 S
C191 C190 1.477 . S
C191 H211 0.930 1_554 S
C192 N188 1.362 . S
C192 C189 1.431 . S
C192 C202 1.476 . S
H193 C187 0.929 . S
C194 O185 1.250 . S
C194 O186 1.258 . S
O195 Mn180 2.162 . S
O195 C183 1.281 . S
O196 Mn180 2.297 . S
O196 C183 1.236 . S
N197 Mn181 2.282 . S
N197 C198 1.328 . S
N197 C202 1.318 . S
C198 N197 1.328 . S
C198 C199 1.457 . S
C198 H203 0.929 . S
C199 C198 1.457 . S
C199 C200 1.291 . S
C199 H212 0.931 . S
C200 C199 1.291 . S
C200 C201 1.373 . S
C200 H213 0.929 . S
C201 C200 1.373 . S
C201 C202 1.396 . S
C201 C208 1.403 . S
C202 C192 1.476 . S
C202 N197 1.318 . S
C202 C201 1.396 . S
H203 C198 0.929 . S
O204 Mn180 2.385 . S
O204 C182 1.234 . S
O205 Mn180 2.209 . S
O205 Mn181 2.215 . S
O205 C182 1.283 . S
O206 Mn180 2.094 . S
O206 C184 1.240 . S
O207 Mn181 2.117 . S
O207 C184 1.264 . S
C208 C201 1.403 . S
C208 C209 1.399 . S
C208 H214 0.929 . S
C209 C189 1.449 . S
C209 C208 1.399 . S
C209 H215 0.930 . S
H210 C190 0.931 . S
H211 C191 0.930 1_556 S
H212 C199 0.931 . S
H213 C200 0.929 . S
H214 C208 0.929 . S
H215 C209 0.930 . S
Mn216 O221 2.095 . S
Mn216 O231 2.162 . S
Mn216 O232 2.297 . S
Mn216 O240 2.385 . S
Mn216 O241 2.209 . S
Mn216 O242 2.094 . S
Mn217 O222 2.121 . S
Mn217 N224 2.257 . S
Mn217 N233 2.282 . S
Mn217 O241 2.215 . S
Mn217 O243 2.117 . S
C218 O240 1.234 . S
C218 O241 1.283 . S
C219 O231 1.281 . S
C219 O232 1.236 . S
C220 O242 1.240 . S
C220 O243 1.264 . S
O221 Mn216 2.095 . S
O221 C230 1.250 . S
O222 Mn217 2.121 . S
O222 C230 1.258 . S
C223 N224 1.326 . S
C223 C227 1.460 . S
C223 H229 0.929 . S
N224 Mn217 2.257 . S
N224 C223 1.326 . S
N224 C228 1.362 . S
C225 C226 1.258 . S
C225 C228 1.431 . S
C225 C245 1.449 . S
C226 C225 1.258 . S
C226 C227 1.477 . S
C226 H246 0.931 . S
C227 C223 1.460 . S
C227 C226 1.477 . S
C227 H247 0.930 . S
C228 N224 1.362 . S
C228 C225 1.431 . S
C228 C238 1.476 . S
H229 C223 0.929 . S
C230 O221 1.250 . S
C230 O222 1.258 . S
O231 Mn216 2.162 . S
O231 C219 1.281 . S
O232 Mn216 2.297 . S
O232 C219 1.236 . S
N233 Mn217 2.282 . S
N233 C234 1.328 . S
N233 C238 1.318 . S
C234 N233 1.328 . S
C234 C235 1.457 . S
C234 H239 0.929 . S
C235 C234 1.457 . S
C235 C236 1.291 . S
C235 H248 0.931 . S
C236 C235 1.291 . S
C236 C237 1.373 . S
C236 H249 0.929 . S
C237 C236 1.373 . S
C237 C238 1.396 . S
C237 C244 1.403 . S
C238 C228 1.476 . S
C238 N233 1.318 . S
C238 C237 1.396 . S
H239 C234 0.929 . S
O240 Mn216 2.385 . S
O240 C218 1.234 . S
O241 Mn216 2.209 . S
O241 Mn217 2.215 . S
O241 C218 1.283 . S
O242 Mn216 2.094 . S
O242 C220 1.240 . S
O243 Mn217 2.117 . S
O243 C220 1.264 . S
C244 C237 1.403 . S
C244 C245 1.399 . S
C244 H250 0.929 . S
C245 C225 1.449 . S
C245 C244 1.399 . S
C245 H251 0.930 . S
H246 C226 0.931 . S
H247 C227 0.930 . S
H248 C235 0.931 . S
H249 C236 0.929 . S
H250 C244 0.929 . S
H251 C245 0.930 . S
Mn252 O257 2.095 . S
Mn252 O267 2.162 . S
Mn252 O268 2.297 . S
Mn252 O276 2.385 . S
Mn252 O277 2.209 . S
Mn252 O278 2.094 . S
Mn253 O258 2.121 . S
Mn253 N260 2.257 . S
Mn253 N269 2.282 . S
Mn253 O277 2.215 . S
Mn253 O279 2.117 . S
C254 O276 1.234 . S
C254 O277 1.283 . S
C255 O267 1.281 . S
C255 O268 1.236 . S
C256 O278 1.240 . S
C256 O279 1.264 . S
O257 Mn252 2.095 . S
O257 C266 1.250 . S
O258 Mn253 2.121 . S
O258 C266 1.258 . S
C259 N260 1.326 . S
C259 C263 1.460 . S
C259 H265 0.929 . S
N260 Mn253 2.257 . S
N260 C259 1.326 . S
N260 C264 1.362 . S
C261 C262 1.258 . S
C261 C264 1.431 . S
C261 C281 1.449 . S
C262 C261 1.258 . S
C262 C263 1.477 . S
C262 H282 0.931 . S
C263 C259 1.460 . S
C263 C262 1.477 . S
C263 H283 0.930 . S
C264 N260 1.362 . S
C264 C261 1.431 . S
C264 C274 1.476 . S
H265 C259 0.929 . S
C266 O257 1.250 . S
C266 O258 1.258 . S
O267 Mn252 2.162 . S
O267 C255 1.281 . S
O268 Mn252 2.297 . S
O268 C255 1.236 . S
N269 Mn253 2.282 . S
N269 C270 1.328 . S
N269 C274 1.318 . S
C270 N269 1.328 . S
C270 C271 1.457 . S
C270 H275 0.929 . S
C271 C270 1.457 . S
C271 C272 1.291 . S
C271 H284 0.931 . S
C272 C271 1.291 . S
C272 C273 1.373 . S
C272 H285 0.929 . S
C273 C272 1.373 . S
C273 C274 1.396 . S
C273 C280 1.403 . S
C274 C264 1.476 . S
C274 N269 1.318 . S
C274 C273 1.396 . S
H275 C270 0.929 . S
O276 Mn252 2.385 . S
O276 C254 1.234 . S
O277 Mn252 2.209 . S
O277 Mn253 2.215 . S
O277 C254 1.283 . S
O278 Mn252 2.094 . S
O278 C256 1.240 . S
O279 Mn253 2.117 . S
O279 C256 1.264 . S
C280 C273 1.403 . S
C280 C281 1.399 . S
C280 H286 0.929 . S
C281 C261 1.449 . S
C281 C280 1.399 . S
C281 H287 0.930 . S
H282 C262 0.931 . S
H283 C263 0.930 . S
H284 C271 0.931 . S
H285 C272 0.929 . S
H286 C280 0.929 . S
H287 C281 0.930 . S
C288 C289 1.363 1_456 S
C288 C294 1.379 1_565 S
C288 N296 1.356 . S
C289 C288 1.363 1_654 S
C289 C295 1.363 . S
C290 C291 1.363 1_655 S
C290 C295 1.379 1_545 S
C290 N297 1.356 . S
C291 C290 1.363 1_455 S
C291 C294 1.363 1_554 S
N292 C294 1.356 . S
N292 H304 0.984 . S
N292 H305 0.985 . S
N293 C295 1.356 . S
N293 H298 0.984 . S
N293 H299 0.985 . S
C294 C288 1.379 1_545 S
C294 C291 1.363 1_556 S
C294 N292 1.356 . S
C295 C289 1.363 . S
C295 C290 1.379 1_565 S
C295 N293 1.356 . S
N296 C288 1.356 . S
N296 H302 0.984 . S
N296 H303 0.984 . S
N297 C290 1.356 . S
N297 H300 0.984 . S
N297 H301 0.985 . S
H298 N293 0.984 . S
H299 N293 0.985 . S
H300 N297 0.984 . S
H301 N297 0.985 . S
H302 N296 0.984 . S
H303 N296 0.984 . S
H304 N292 0.984 . S
H305 N292 0.985 . S
C306 C307 1.363 1_655 S
C306 C312 1.379 1_565 S
C306 N314 1.356 . S
C307 C306 1.363 1_455 S
C307 C313 1.363 . S
C308 C309 1.363 1_455 S
C308 C313 1.379 1_545 S
C308 N315 1.356 . S
C309 C308 1.363 1_655 S
C309 C312 1.363 . S
N310 C312 1.356 . S
N310 H322 0.984 . S
N310 H323 0.985 . S
N311 C313 1.356 . S
N311 H316 0.984 . S
N311 H317 0.985 . S
C312 C306 1.379 1_545 S
C312 C309 1.363 . S
C312 N310 1.356 . S
C313 C307 1.363 . S
C313 C308 1.379 1_565 S
C313 N311 1.356 . S
N314 C306 1.356 . S
N314 H320 0.984 . S
N314 H321 0.984 . S
N315 C308 1.356 . S
N315 H318 0.984 . S
N315 H319 0.985 . S
H316 N311 0.984 . S
H317 N311 0.985 . S
H318 N315 0.984 . S
H319 N315 0.985 . S
H320 N314 0.984 . S
H321 N314 0.984 . S
H322 N310 0.984 . S
H323 N310 0.985 . S
C324 C325 1.363 1_556 S
C324 C330 1.379 . S
C324 N332 1.356 . S
C325 C324 1.363 1_554 S
C325 C331 1.363 . S
C326 C327 1.363 . S
C326 C331 1.379 . S
C326 N333 1.356 . S
C327 C326 1.363 . S
C327 C330 1.363 1_554 S
N328 C330 1.356 . S
N328 H340 0.984 . S
N328 H341 0.985 . S
N329 C331 1.356 . S
N329 H334 0.984 . S
N329 H335 0.985 . S
C330 C324 1.379 . S
C330 C327 1.363 1_556 S
C330 N328 1.356 . S
C331 C325 1.363 . S
C331 C326 1.379 . S
C331 N329 1.356 . S
N332 C324 1.356 . S
N332 H338 0.984 . S
N332 H339 0.984 . S
N333 C326 1.356 . S
N333 H336 0.984 . S
N333 H337 0.985 . S
H334 N329 0.984 . S
H335 N329 0.985 . S
H336 N333 0.984 . S
H337 N333 0.985 . S
H338 N332 0.984 . S
H339 N332 0.984 . S
H340 N328 0.984 . S
H341 N328 0.985 . S
C342 C343 1.363 . S
C342 C348 1.379 . S
C342 N350 1.356 . S
C343 C342 1.363 . S
C343 C349 1.363 . S
C344 C345 1.363 . S
C344 C349 1.379 . S
C344 N351 1.356 . S
C345 C344 1.363 . S
C345 C348 1.363 . S
N346 C348 1.356 . S
N346 H358 0.984 . S
N346 H359 0.985 . S
N347 C349 1.356 . S
N347 H352 0.984 . S
N347 H353 0.985 . S
C348 C342 1.379 . S
C348 C345 1.363 . S
C348 N346 1.356 . S
C349 C343 1.363 . S
C349 C344 1.379 . S
C349 N347 1.356 . S
N350 C342 1.356 . S
N350 H356 0.984 . S
N350 H357 0.984 . S
N351 C344 1.356 . S
N351 H354 0.984 . S
N351 H355 0.985 . S
H352 N347 0.984 . S
H353 N347 0.985 . S
H354 N351 0.984 . S
H355 N351 0.985 . S
H356 N350 0.984 . S
H357 N350 0.984 . S
H358 N346 0.984 . S
H359 N346 0.985 . S
C360 C361 1.363 . S
C360 C366 1.379 . S
C360 N368 1.356 . S
C361 C360 1.363 . S
C361 C367 1.363 1_655 S
C362 C363 1.363 . S
C362 C367 1.379 . S
C362 N369 1.356 . S
C363 C362 1.363 . S
C363 C366 1.363 1_455 S
N364 C366 1.356 . S
N364 H376 0.984 . S
N364 H377 0.985 . S
N365 C367 1.356 . S
N365 H370 0.984 . S
N365 H371 0.985 . S
C366 C360 1.379 . S
C366 C363 1.363 1_655 S
C366 N364 1.356 . S
C367 C361 1.363 1_455 S
C367 C362 1.379 . S
C367 N365 1.356 . S
N368 C360 1.356 . S
N368 H374 0.984 . S
N368 H375 0.984 . S
N369 C362 1.356 . S
N369 H372 0.984 . S
N369 H373 0.985 . S
H370 N365 0.984 . S
H371 N365 0.985 . S
H372 N369 0.984 . S
H373 N369 0.985 . S
H374 N368 0.984 . S
H375 N368 0.984 . S
H376 N364 0.984 . S
H377 N364 0.985 . S
C378 C379 1.363 . S
C378 C384 1.379 . S
C378 N386 1.356 . S
C379 C378 1.363 . S
C379 C385 1.363 1_655 S
C380 C381 1.363 . S
C380 C385 1.379 . S
C380 N387 1.356 . S
C381 C380 1.363 . S
C381 C384 1.363 1_455 S
N382 C384 1.356 . S
N382 H394 0.984 . S
N382 H395 0.985 . S
N383 C385 1.356 . S
N383 H388 0.984 . S
N383 H389 0.985 . S
C384 C378 1.379 . S
C384 C381 1.363 1_655 S
C384 N382 1.356 . S
C385 C379 1.363 1_455 S
C385 C380 1.379 . S
C385 N383 1.356 . S
N386 C378 1.356 . S
N386 H392 0.984 . S
N386 H393 0.984 . S
N387 C380 1.356 . S
N387 H390 0.984 . S
N387 H391 0.985 . S
H388 N383 0.984 . S
H389 N383 0.985 . S
H390 N387 0.984 . S
H391 N387 0.985 . S
H392 N386 0.984 . S
H393 N386 0.984 . S
H394 N382 0.984 . S
H395 N382 0.985 . S
C396 C397 1.363 . S
C396 C402 1.379 . S
C396 N404 1.356 . S
C397 C396 1.363 . S
C397 C403 1.363 1_655 S
C398 C399 1.363 . S
C398 C403 1.379 . S
C398 N405 1.356 . S
C399 C398 1.363 . S
C399 C402 1.363 1_455 S
N400 C402 1.356 . S
N400 H412 0.984 . S
N400 H413 0.985 . S
N401 C403 1.356 . S
N401 H406 0.984 . S
N401 H407 0.985 . S
C402 C396 1.379 . S
C402 C399 1.363 1_655 S
C402 N400 1.356 . S
C403 C397 1.363 1_455 S
C403 C398 1.379 . S
C403 N401 1.356 . S
N404 C396 1.356 . S
N404 H410 0.984 . S
N404 H411 0.984 . S
N405 C398 1.356 . S
N405 H408 0.984 . S
N405 H409 0.985 . S
H406 N401 0.984 . S
H407 N401 0.985 . S
H408 N405 0.984 . S
H409 N405 0.985 . S
H410 N404 0.984 . S
H411 N404 0.984 . S
H412 N400 0.984 . S
H413 N400 0.985 . S
C414 C415 1.363 . S
C414 C420 1.379 . S
C414 N422 1.356 . S
C415 C414 1.363 . S
C415 C421 1.363 1_655 S
C416 C417 1.363 . S
C416 C421 1.379 . S
C416 N423 1.356 . S
C417 C416 1.363 . S
C417 C420 1.363 1_455 S
N418 C420 1.356 . S
N418 H430 0.984 . S
N418 H431 0.985 . S
N419 C421 1.356 . S
N419 H424 0.984 . S
N419 H425 0.985 . S
C420 C414 1.379 . S
C420 C417 1.363 1_655 S
C420 N418 1.356 . S
C421 C415 1.363 1_455 S
C421 C416 1.379 . S
C421 N419 1.356 . S
N422 C414 1.356 . S
N422 H428 0.984 . S
N422 H429 0.984 . S
N423 C416 1.356 . S
N423 H426 0.984 . S
N423 H427 0.985 . S
H424 N419 0.984 . S
H425 N419 0.985 . S
H426 N423 0.984 . S
H427 N423 0.985 . S
H428 N422 0.984 . S
H429 N422 0.984 . S
H430 N418 0.984 . S
H431 N418 0.985 . S
C432 C433 1.363 . S
C432 C438 1.379 . S
C432 N440 1.356 . S
C433 C432 1.363 . S
C433 C439 1.363 . S
C434 C435 1.363 . S
C434 C439 1.379 . S
C434 N441 1.356 . S
C435 C434 1.363 . S
C435 C438 1.363 . S
N436 C438 1.356 . S
N436 H448 0.984 . S
N436 H449 0.985 . S
N437 C439 1.356 . S
N437 H442 0.984 . S
N437 H443 0.985 . S
C438 C432 1.379 . S
C438 C435 1.363 . S
C438 N436 1.356 . S
C439 C433 1.363 . S
C439 C434 1.379 . S
C439 N437 1.356 . S
N440 C432 1.356 . S
N440 H446 0.984 . S
N440 H447 0.984 . S
N441 C434 1.356 . S
N441 H444 0.984 . S
N441 H445 0.985 . S
H442 N437 0.984 . S
H443 N437 0.985 . S
H444 N441 0.984 . S
H445 N441 0.985 . S
H446 N440 0.984 . S
H447 N440 0.984 . S
H448 N436 0.984 . S
H449 N436 0.985 . S
C450 C451 1.363 . S
C450 C456 1.379 . S
C450 N458 1.356 . S
C451 C450 1.363 . S
C451 C457 1.363 . S
C452 C453 1.363 . S
C452 C457 1.379 . S
C452 N459 1.356 . S
C453 C452 1.363 . S
C453 C456 1.363 . S
N454 C456 1.356 . S
N454 H466 0.984 . S
N454 H467 0.985 . S
N455 C457 1.356 . S
N455 H460 0.984 . S
N455 H461 0.985 . S
C456 C450 1.379 . S
C456 C453 1.363 . S
C456 N454 1.356 . S
C457 C451 1.363 . S
C457 C452 1.379 . S
C457 N455 1.356 . S
N458 C450 1.356 . S
N458 H464 0.984 . S
N458 H465 0.984 . S
N459 C452 1.356 . S
N459 H462 0.984 . S
N459 H463 0.985 . S
H460 N455 0.984 . S
H461 N455 0.985 . S
H462 N459 0.984 . S
H463 N459 0.985 . S
H464 N458 0.984 . S
H465 N458 0.984 . S
H466 N454 0.984 . S
H467 N454 0.985 . S
C468 C469 1.363 . S
C468 C474 1.379 . S
C468 N476 1.356 . S
C469 C468 1.363 . S
C469 C475 1.363 . S
C470 C471 1.363 . S
C470 C475 1.379 . S
C470 N477 1.356 . S
C471 C470 1.363 . S
C471 C474 1.363 . S
N472 C474 1.356 . S
N472 H484 0.984 . S
N472 H485 0.985 . S
N473 C475 1.356 . S
N473 H478 0.984 . S
N473 H479 0.985 . S
C474 C468 1.379 . S
C474 C471 1.363 . S
C474 N472 1.356 . S
C475 C469 1.363 . S
C475 C470 1.379 . S
C475 N473 1.356 . S
N476 C468 1.356 . S
N476 H482 0.984 . S
N476 H483 0.984 . S
N477 C470 1.356 . S
N477 H480 0.984 . S
N477 H481 0.985 . S
H478 N473 0.984 . S
H479 N473 0.985 . S
H480 N477 0.984 . S
H481 N477 0.985 . S
H482 N476 0.984 . S
H483 N476 0.984 . S
H484 N472 0.984 . S
H485 N472 0.985 . S
C486 C487 1.363 . S
C486 C492 1.379 . S
C486 N494 1.356 . S
C487 C486 1.363 . S
C487 C493 1.363 . S
C488 C489 1.363 . S
C488 C493 1.379 . S
C488 N495 1.356 . S
C489 C488 1.363 . S
C489 C492 1.363 . S
N490 C492 1.356 . S
N490 H502 0.984 . S
N490 H503 0.985 . S
N491 C493 1.356 . S
N491 H496 0.984 . S
N491 H497 0.985 . S
C492 C486 1.379 . S
C492 C489 1.363 . S
C492 N490 1.356 . S
C493 C487 1.363 . S
C493 C488 1.379 . S
C493 N491 1.356 . S
N494 C486 1.356 . S
N494 H500 0.984 . S
N494 H501 0.984 . S
N495 C488 1.356 . S
N495 H498 0.984 . S
N495 H499 0.985 . S
H496 N491 0.984 . S
H497 N491 0.985 . S
H498 N495 0.984 . S
H499 N495 0.985 . S
H500 N494 0.984 . S
H501 N494 0.984 . S
H502 N490 0.984 . S
H503 N490 0.985 . S
C504 C505 1.363 1_556 S
C504 C510 1.379 . S
C504 N512 1.356 . S
C505 C504 1.363 1_554 S
C505 C511 1.363 . S
C506 C507 1.363 . S
C506 C511 1.379 . S
C506 N513 1.356 . S
C507 C506 1.363 . S
C507 C510 1.363 1_554 S
N508 C510 1.356 . S
N508 H520 0.984 . S
N508 H521 0.985 . S
N509 C511 1.356 . S
N509 H514 0.984 . S
N509 H515 0.985 . S
C510 C504 1.379 . S
C510 C507 1.363 1_556 S
C510 N508 1.356 . S
C511 C505 1.363 . S
C511 C506 1.379 . S
C511 N509 1.356 . S
N512 C504 1.356 . S
N512 H518 0.984 . S
N512 H519 0.984 . S
N513 C506 1.356 . S
N513 H516 0.984 . S
N513 H517 0.985 . S
H514 N509 0.984 . S
H515 N509 0.985 . S
H516 N513 0.984 . S
H517 N513 0.985 . S
H518 N512 0.984 . S
H519 N512 0.984 . S
H520 N508 0.984 . S
H521 N508 0.985 . S
C522 C523 1.363 1_556 S
C522 C528 1.379 . S
C522 N530 1.356 . S
C523 C522 1.363 1_554 S
C523 C529 1.363 . S
C524 C525 1.363 . S
C524 C529 1.379 . S
C524 N531 1.356 . S
C525 C524 1.363 . S
C525 C528 1.363 1_554 S
N526 C528 1.356 . S
N526 H538 0.984 . S
N526 H539 0.985 . S
N527 C529 1.356 . S
N527 H532 0.984 . S
N527 H533 0.985 . S
C528 C522 1.379 . S
C528 C525 1.363 1_556 S
C528 N526 1.356 . S
C529 C523 1.363 . S
C529 C524 1.379 . S
C529 N527 1.356 . S
N530 C522 1.356 . S
N530 H536 0.984 . S
N530 H537 0.984 . S
N531 C524 1.356 . S
N531 H534 0.984 . S
N531 H535 0.985 . S
H532 N527 0.984 . S
H533 N527 0.985 . S
H534 N531 0.984 . S
H535 N531 0.985 . S
H536 N530 0.984 . S
H537 N530 0.984 . S
H538 N526 0.984 . S
H539 N526 0.985 . S
C540 C541 1.363 . S
C540 C546 1.379 . S
C540 N548 1.356 . S
C541 C540 1.363 . S
C541 C547 1.363 . S
C542 C543 1.363 . S
C542 C547 1.379 . S
C542 N549 1.356 . S
C543 C542 1.363 . S
C543 C546 1.363 . S
N544 C546 1.356 . S
N544 H556 0.984 . S
N544 H557 0.985 . S
N545 C547 1.356 . S
N545 H550 0.984 . S
N545 H551 0.985 . S
C546 C540 1.379 . S
C546 C543 1.363 . S
C546 N544 1.356 . S
C547 C541 1.363 . S
C547 C542 1.379 . S
C547 N545 1.356 . S
N548 C540 1.356 . S
N548 H554 0.984 . S
N548 H555 0.984 . S
N549 C542 1.356 . S
N549 H552 0.984 . S
N549 H553 0.985 . S
H550 N545 0.984 . S
H551 N545 0.985 . S
H552 N549 0.984 . S
H553 N549 0.985 . S
H554 N548 0.984 . S
H555 N548 0.984 . S
H556 N544 0.984 . S
H557 N544 0.985 . S
C558 C559 1.363 . S
C558 C564 1.379 . S
C558 N566 1.356 . S
C559 C558 1.363 . S
C559 C565 1.363 . S
C560 C561 1.363 . S
C560 C565 1.379 . S
C560 N567 1.356 . S
C561 C560 1.363 . S
C561 C564 1.363 . S
N562 C564 1.356 . S
N562 H574 0.984 . S
N562 H575 0.985 . S
N563 C565 1.356 . S
N563 H568 0.984 . S
N563 H569 0.985 . S
C564 C558 1.379 . S
C564 C561 1.363 . S
C564 N562 1.356 . S
C565 C559 1.363 . S
C565 C560 1.379 . S
C565 N563 1.356 . S
N566 C558 1.356 . S
N566 H572 0.984 . S
N566 H573 0.984 . S
N567 C560 1.356 . S
N567 H570 0.984 . S
N567 H571 0.985 . S
H568 N563 0.984 . S
H569 N563 0.985 . S
H570 N567 0.984 . S
H571 N567 0.985 . S
H572 N566 0.984 . S
H573 N566 0.984 . S
H574 N562 0.984 . S
H575 N562 0.985 . S
C289 C39 1.510 . S
C291 C3 1.510 . S
C307 C75 1.510 . S
C309 C111 1.510 . S
C325 C147 1.510 . S
C327 C183 1.510 . S
C343 C219 1.510 . S
C345 C255 1.510 . S
C361 C2 1.295 1_655 S
C363 C110 1.295 1_455 S
C379 C74 1.295 1_655 S
C381 C38 1.295 1_455 S
C397 C86 1.396 1_655 S
C399 C50 1.396 1_455 S
C415 C14 1.396 1_655 S
C417 C122 1.396 1_455 S
C433 C146 1.295 . S
C435 C254 1.295 . S
C451 C218 1.295 . S
C453 C182 1.295 . S
C469 C194 1.396 . S
C471 C230 1.396 . S
C487 C158 1.396 . S
C489 C266 1.396 . S
C505 C184 1.516 . S
C507 C4 1.516 . S
C523 C148 1.516 . S
C525 C40 1.516 . S
C541 C76 1.516 . S
C543 C256 1.516 . S
C559 C220 1.516 . S
C561 C112 1.516 . S
