# Generated by pormake.
# Topology wiq, (6)-cn, num edge types: 1
# Building blocks:
#     Node 0, Type 0, BuildingBlock: OJICUG_clean_sbu_0, # of connection points: 6
#     Node 1, Type 0, BuildingBlock: OJICUG_clean_sbu_0, # of connection points: 6
#     Node 2, Type 0, BuildingBlock: OJICUG_clean_sbu_0, # of connection points: 6
#     Node 3, Type 0, BuildingBlock: OJICUG_clean_sbu_0, # of connection points: 6
#     Node 4, Type 0, BuildingBlock: OJICUG_clean_sbu_0, # of connection points: 6
#     Node 5, Type 0, BuildingBlock: OJICUG_clean_sbu_0, # of connection points: 6
#     Node 6, Type 0, BuildingBlock: OJICUG_clean_sbu_0, # of connection points: 6
#     Node 7, Type 0, BuildingBlock: OJICUG_clean_sbu_0, # of connection points: 6
#     Node 8, Type 0, BuildingBlock: OJICUG_clean_sbu_0, # of connection points: 6
#     Node 9, Type 0, BuildingBlock: OJICUG_clean_sbu_0, # of connection points: 6
#     Node 10, Type 0, BuildingBlock: OJICUG_clean_sbu_0, # of connection points: 6
#     Node 11, Type 0, BuildingBlock: OJICUG_clean_sbu_0, # of connection points: 6
#     Node 12, Type 0, BuildingBlock: OJICUG_clean_sbu_0, # of connection points: 6
#     Node 13, Type 0, BuildingBlock: OJICUG_clean_sbu_0, # of connection points: 6
#     Node 14, Type 0, BuildingBlock: OJICUG_clean_sbu_0, # of connection points: 6
#     Node 15, Type 0, BuildingBlock: OJICUG_clean_sbu_0, # of connection points: 6
#     Node 16, Type 0, BuildingBlock: OJICUG_clean_sbu_0, # of connection points: 6
#     Node 17, Type 0, BuildingBlock: OJICUG_clean_sbu_0, # of connection points: 6
#     Node 18, Type 0, BuildingBlock: OJICUG_clean_sbu_0, # of connection points: 6
#     Node 19, Type 0, BuildingBlock: OJICUG_clean_sbu_0, # of connection points: 6
#     Node 20, Type 0, BuildingBlock: OJICUG_clean_sbu_0, # of connection points: 6
#     Node 21, Type 0, BuildingBlock: OJICUG_clean_sbu_0, # of connection points: 6
#     Node 22, Type 0, BuildingBlock: OJICUG_clean_sbu_0, # of connection points: 6
#     Node 23, Type 0, BuildingBlock: OJICUG_clean_sbu_0, # of connection points: 6
#     Node 24, Type 0, BuildingBlock: OJICUG_clean_sbu_0, # of connection points: 6
#     Node 25, Type 0, BuildingBlock: OJICUG_clean_sbu_0, # of connection points: 6
#     Node 26, Type 0, BuildingBlock: OJICUG_clean_sbu_0, # of connection points: 6
#     Node 27, Type 0, BuildingBlock: OJICUG_clean_sbu_0, # of connection points: 6
#     Node 28, Type 0, BuildingBlock: OJICUG_clean_sbu_0, # of connection points: 6
#     Node 29, Type 0, BuildingBlock: OJICUG_clean_sbu_0, # of connection points: 6
#     Node 30, Type 0, BuildingBlock: OJICUG_clean_sbu_0, # of connection points: 6
#     Node 31, Type 0, BuildingBlock: OJICUG_clean_sbu_0, # of connection points: 6
#     Edge 32, Type (0, 0), BuildingBlock: KIFKEQ_clean_linker_1, # of connection points: 2
#     Edge 33, Type (0, 0), BuildingBlock: KIFKEQ_clean_linker_1, # of connection points: 2
#     Edge 34, Type (0, 0), BuildingBlock: KIFKEQ_clean_linker_1, # of connection points: 2
#     Edge 35, Type (0, 0), BuildingBlock: KIFKEQ_clean_linker_1, # of connection points: 2
#     Edge 36, Type (0, 0), BuildingBlock: KIFKEQ_clean_linker_1, # of connection points: 2
#     Edge 37, Type (0, 0), BuildingBlock: KIFKEQ_clean_linker_1, # of connection points: 2
#     Edge 38, Type (0, 0), BuildingBlock: KIFKEQ_clean_linker_1, # of connection points: 2
#     Edge 39, Type (0, 0), BuildingBlock: KIFKEQ_clean_linker_1, # of connection points: 2
#     Edge 40, Type (0, 0), BuildingBlock: KIFKEQ_clean_linker_1, # of connection points: 2
#     Edge 41, Type (0, 0), BuildingBlock: KIFKEQ_clean_linker_1, # of connection points: 2
#     Edge 42, Type (0, 0), BuildingBlock: KIFKEQ_clean_linker_1, # of connection points: 2
#     Edge 43, Type (0, 0), BuildingBlock: KIFKEQ_clean_linker_1, # of connection points: 2
#     Edge 44, Type (0, 0), BuildingBlock: KIFKEQ_clean_linker_1, # of connection points: 2
#     Edge 45, Type (0, 0), BuildingBlock: KIFKEQ_clean_linker_1, # of connection points: 2
#     Edge 46, Type (0, 0), BuildingBlock: KIFKEQ_clean_linker_1, # of connection points: 2
#     Edge 47, Type (0, 0), BuildingBlock: KIFKEQ_clean_linker_1, # of connection points: 2
#     Edge 48, Type (0, 0), BuildingBlock: KIFKEQ_clean_linker_1, # of connection points: 2
#     Edge 49, Type (0, 0), BuildingBlock: KIFKEQ_clean_linker_1, # of connection points: 2
#     Edge 50, Type (0, 0), BuildingBlock: KIFKEQ_clean_linker_1, # of connection points: 2
#     Edge 51, Type (0, 0), BuildingBlock: KIFKEQ_clean_linker_1, # of connection points: 2
#     Edge 52, Type (0, 0), BuildingBlock: KIFKEQ_clean_linker_1, # of connection points: 2
#     Edge 53, Type (0, 0), BuildingBlock: KIFKEQ_clean_linker_1, # of connection points: 2
#     Edge 54, Type (0, 0), BuildingBlock: KIFKEQ_clean_linker_1, # of connection points: 2
#     Edge 55, Type (0, 0), BuildingBlock: KIFKEQ_clean_linker_1, # of connection points: 2
#     Edge 56, Type (0, 0), BuildingBlock: KIFKEQ_clean_linker_1, # of connection points: 2
#     Edge 57, Type (0, 0), BuildingBlock: KIFKEQ_clean_linker_1, # of connection points: 2
#     Edge 58, Type (0, 0), BuildingBlock: KIFKEQ_clean_linker_1, # of connection points: 2
#     Edge 59, Type (0, 0), BuildingBlock: KIFKEQ_clean_linker_1, # of connection points: 2
#     Edge 60, Type (0, 0), BuildingBlock: KIFKEQ_clean_linker_1, # of connection points: 2
#     Edge 61, Type (0, 0), BuildingBlock: KIFKEQ_clean_linker_1, # of connection points: 2
#     Edge 62, Type (0, 0), BuildingBlock: KIFKEQ_clean_linker_1, # of connection points: 2
#     Edge 63, Type (0, 0), BuildingBlock: KIFKEQ_clean_linker_1, # of connection points: 2
#     Edge 64, Type (0, 0), BuildingBlock: KIFKEQ_clean_linker_1, # of connection points: 2
#     Edge 65, Type (0, 0), BuildingBlock: KIFKEQ_clean_linker_1, # of connection points: 2
#     Edge 66, Type (0, 0), BuildingBlock: KIFKEQ_clean_linker_1, # of connection points: 2
#     Edge 67, Type (0, 0), BuildingBlock: KIFKEQ_clean_linker_1, # of connection points: 2
#     Edge 68, Type (0, 0), BuildingBlock: KIFKEQ_clean_linker_1, # of connection points: 2
#     Edge 69, Type (0, 0), BuildingBlock: KIFKEQ_clean_linker_1, # of connection points: 2
#     Edge 70, Type (0, 0), BuildingBlock: KIFKEQ_clean_linker_1, # of connection points: 2
#     Edge 71, Type (0, 0), BuildingBlock: KIFKEQ_clean_linker_1, # of connection points: 2
#     Edge 72, Type (0, 0), BuildingBlock: KIFKEQ_clean_linker_1, # of connection points: 2
#     Edge 73, Type (0, 0), BuildingBlock: KIFKEQ_clean_linker_1, # of connection points: 2
#     Edge 74, Type (0, 0), BuildingBlock: KIFKEQ_clean_linker_1, # of connection points: 2
#     Edge 75, Type (0, 0), BuildingBlock: KIFKEQ_clean_linker_1, # of connection points: 2
#     Edge 76, Type (0, 0), BuildingBlock: KIFKEQ_clean_linker_1, # of connection points: 2
#     Edge 77, Type (0, 0), BuildingBlock: KIFKEQ_clean_linker_1, # of connection points: 2
#     Edge 78, Type (0, 0), BuildingBlock: KIFKEQ_clean_linker_1, # of connection points: 2
#     Edge 79, Type (0, 0), BuildingBlock: KIFKEQ_clean_linker_1, # of connection points: 2
#     Edge 80, Type (0, 0), BuildingBlock: KIFKEQ_clean_linker_1, # of connection points: 2
#     Edge 81, Type (0, 0), BuildingBlock: KIFKEQ_clean_linker_1, # of connection points: 2
#     Edge 82, Type (0, 0), BuildingBlock: KIFKEQ_clean_linker_1, # of connection points: 2
#     Edge 83, Type (0, 0), BuildingBlock: KIFKEQ_clean_linker_1, # of connection points: 2
#     Edge 84, Type (0, 0), BuildingBlock: KIFKEQ_clean_linker_1, # of connection points: 2
#     Edge 85, Type (0, 0), BuildingBlock: KIFKEQ_clean_linker_1, # of connection points: 2
#     Edge 86, Type (0, 0), BuildingBlock: KIFKEQ_clean_linker_1, # of connection points: 2
#     Edge 87, Type (0, 0), BuildingBlock: KIFKEQ_clean_linker_1, # of connection points: 2
#     Edge 88, Type (0, 0), BuildingBlock: KIFKEQ_clean_linker_1, # of connection points: 2
#     Edge 89, Type (0, 0), BuildingBlock: KIFKEQ_clean_linker_1, # of connection points: 2
#     Edge 90, Type (0, 0), BuildingBlock: KIFKEQ_clean_linker_1, # of connection points: 2
#     Edge 91, Type (0, 0), BuildingBlock: KIFKEQ_clean_linker_1, # of connection points: 2
#     Edge 92, Type (0, 0), BuildingBlock: KIFKEQ_clean_linker_1, # of connection points: 2
#     Edge 93, Type (0, 0), BuildingBlock: KIFKEQ_clean_linker_1, # of connection points: 2
#     Edge 94, Type (0, 0), BuildingBlock: KIFKEQ_clean_linker_1, # of connection points: 2
#     Edge 95, Type (0, 0), BuildingBlock: KIFKEQ_clean_linker_1, # of connection points: 2
#     Edge 96, Type (0, 0), BuildingBlock: KIFKEQ_clean_linker_1, # of connection points: 2
#     Edge 97, Type (0, 0), BuildingBlock: KIFKEQ_clean_linker_1, # of connection points: 2
#     Edge 98, Type (0, 0), BuildingBlock: KIFKEQ_clean_linker_1, # of connection points: 2
#     Edge 99, Type (0, 0), BuildingBlock: KIFKEQ_clean_linker_1, # of connection points: 2
#     Edge 100, Type (0, 0), BuildingBlock: KIFKEQ_clean_linker_1, # of connection points: 2
#     Edge 101, Type (0, 0), BuildingBlock: KIFKEQ_clean_linker_1, # of connection points: 2
#     Edge 102, Type (0, 0), BuildingBlock: KIFKEQ_clean_linker_1, # of connection points: 2
#     Edge 103, Type (0, 0), BuildingBlock: KIFKEQ_clean_linker_1, # of connection points: 2
#     Edge 104, Type (0, 0), BuildingBlock: KIFKEQ_clean_linker_1, # of connection points: 2
#     Edge 105, Type (0, 0), BuildingBlock: KIFKEQ_clean_linker_1, # of connection points: 2
#     Edge 106, Type (0, 0), BuildingBlock: KIFKEQ_clean_linker_1, # of connection points: 2
#     Edge 107, Type (0, 0), BuildingBlock: KIFKEQ_clean_linker_1, # of connection points: 2
#     Edge 108, Type (0, 0), BuildingBlock: KIFKEQ_clean_linker_1, # of connection points: 2
#     Edge 109, Type (0, 0), BuildingBlock: KIFKEQ_clean_linker_1, # of connection points: 2
#     Edge 110, Type (0, 0), BuildingBlock: KIFKEQ_clean_linker_1, # of connection points: 2
#     Edge 111, Type (0, 0), BuildingBlock: KIFKEQ_clean_linker_1, # of connection points: 2
#     Edge 112, Type (0, 0), BuildingBlock: KIFKEQ_clean_linker_1, # of connection points: 2
#     Edge 113, Type (0, 0), BuildingBlock: KIFKEQ_clean_linker_1, # of connection points: 2
#     Edge 114, Type (0, 0), BuildingBlock: KIFKEQ_clean_linker_1, # of connection points: 2
#     Edge 115, Type (0, 0), BuildingBlock: KIFKEQ_clean_linker_1, # of connection points: 2
#     Edge 116, Type (0, 0), BuildingBlock: KIFKEQ_clean_linker_1, # of connection points: 2
#     Edge 117, Type (0, 0), BuildingBlock: KIFKEQ_clean_linker_1, # of connection points: 2
#     Edge 118, Type (0, 0), BuildingBlock: KIFKEQ_clean_linker_1, # of connection points: 2
#     Edge 119, Type (0, 0), BuildingBlock: KIFKEQ_clean_linker_1, # of connection points: 2
#     Edge 120, Type (0, 0), BuildingBlock: KIFKEQ_clean_linker_1, # of connection points: 2
#     Edge 121, Type (0, 0), BuildingBlock: KIFKEQ_clean_linker_1, # of connection points: 2
#     Edge 122, Type (0, 0), BuildingBlock: KIFKEQ_clean_linker_1, # of connection points: 2
#     Edge 123, Type (0, 0), BuildingBlock: KIFKEQ_clean_linker_1, # of connection points: 2
#     Edge 124, Type (0, 0), BuildingBlock: KIFKEQ_clean_linker_1, # of connection points: 2
#     Edge 125, Type (0, 0), BuildingBlock: KIFKEQ_clean_linker_1, # of connection points: 2
#     Edge 126, Type (0, 0), BuildingBlock: KIFKEQ_clean_linker_1, # of connection points: 2
#     Edge 127, Type (0, 0), BuildingBlock: KIFKEQ_clean_linker_1, # of connection points: 2
# Relax obj value: 0.240
# Max RMSD: 0.192
# Mean RMSD: 0.192
data_MOF--net-wiq--node1-OJICUG_clean_sbu_0--edge1-KIFKEQ_clean_linker_1
_symmetry_space_group_name_H-M    P1
_symmetry_Int_Tables_number       1
_symmetry_cell_setting            triclinic
loop_
_symmetry_equiv_pos_as_xyz
'x, y, z'
_cell_length_a     51.071574
_cell_length_b     51.04102
_cell_length_c     56.532967
_cell_angle_alpha  90.026217
_cell_angle_beta   89.99623
_cell_angle_gamma 90.015723
loop_
_atom_site_label
_atom_site_type_symbol
_atom_site_fract_x
_atom_site_fract_y
_atom_site_fract_z
_atom_type_partial_charge
Sc0 Sc 0.14046 0.18761 0.25559 0.0
Sc1 Sc 0.14891 0.14505 0.30266 0.0
Sc2 Sc 0.09811 0.13548 0.26278 0.0
O3 O 0.12862 0.15634 0.27377 0.0
C4 C 0.07993 0.1948 0.25358 0.0
C5 C 0.1432 0.20478 0.31064 0.0
C6 C 0.09037 0.13029 0.31678 0.0
C7 C 0.19306 0.17214 0.2714 0.0
C8 C 0.12392 0.14851 0.21385 0.0
C9 C 0.14128 0.09212 0.27678 0.0
O10 O 0.10255 0.20478 0.25597 0.0
O11 O 0.13929 0.18181 0.31887 0.0
O12 O 0.08107 0.13752 0.29707 0.0
O13 O 0.17808 0.16992 0.25387 0.0
O14 O 0.11273 0.13219 0.22743 0.0
O15 O 0.15809 0.10788 0.28572 0.0
O16 O 0.13307 0.17024 0.22124 0.0
O17 O 0.18539 0.16417 0.29155 0.0
O18 O 0.11809 0.09916 0.27109 0.0
O19 O 0.14815 0.20901 0.28871 0.0
O20 O 0.07573 0.17015 0.25373 0.0
O21 O 0.11491 0.1273 0.32003 0.0
Sc22 Sc 0.11416 0.8493 0.50845 0.0
Sc23 Sc 0.10151 0.90132 0.54755 0.0
Sc24 Sc 0.06053 0.88893 0.5 0.0
O25 O 0.09162 0.87884 0.51917 0.0
C26 C 0.09928 0.87195 0.45852 0.0
C27 C 0.15472 0.89593 0.52004 0.0
C28 C 0.07369 0.94181 0.51359 0.0
C29 C 0.11942 0.84383 0.56343 0.0
C30 C 0.05535 0.82821 0.5008 0.0
C31 C 0.04196 0.8944 0.5547 0.0
O32 O 0.11583 0.86155 0.4723 0.0
O33 O 0.13878 0.91096 0.53108 0.0
O34 O 0.07937 0.92569 0.49774 0.0
O35 O 0.11487 0.83382 0.54333 0.0
O36 O 0.04447 0.85061 0.50137 0.0
O37 O 0.06477 0.89168 0.56356 0.0
O38 O 0.08014 0.82481 0.50173 0.0
O39 O 0.11935 0.86856 0.56685 0.0
O40 O 0.03816 0.89759 0.53246 0.0
O41 O 0.14914 0.87246 0.51393 0.0
O42 O 0.0776 0.881 0.46583 0.0
O43 O 0.08139 0.93694 0.53452 0.0
Sc44 Sc 0.39757 0.86586 0.76428 0.0
Sc45 Sc 0.34692 0.85302 0.80415 0.0
Sc46 Sc 0.35847 0.81109 0.75689 0.0
O47 O 0.36821 0.84313 0.77524 0.0
C48 C 0.37368 0.85014 0.71491 0.0
C49 C 0.35047 0.90573 0.77587 0.0
C50 C 0.30448 0.82372 0.7721 0.0
C51 C 0.40403 0.87246 0.81886 0.0
C52 C 0.41974 0.80777 0.75642 0.0
C53 C 0.35578 0.79364 0.81197 0.0
O54 O 0.38471 0.86664 0.72837 0.0
O55 O 0.33579 0.8897 0.78718 0.0
O56 O 0.31963 0.82579 0.75468 0.0
O57 O 0.41374 0.86712 0.79885 0.0
O58 O 0.39751 0.7966 0.75721 0.0
O59 O 0.35819 0.81674 0.8204 0.0
O60 O 0.42277 0.83255 0.75766 0.0
O61 O 0.37938 0.87255 0.82246 0.0
O62 O 0.35185 0.78927 0.78991 0.0
O63 O 0.37397 0.90052 0.76971 0.0
O64 O 0.36459 0.8285 0.72245 0.0
O65 O 0.3117 0.83191 0.79235 0.0
Sc66 Sc 0.3854 0.14647 0.01064 0.0
Sc67 Sc 0.39549 0.09668 0.052 0.0
Sc68 Sc 0.43845 0.10477 0.00518 0.0
O69 O 0.40667 0.11664 0.02275 0.0
C70 C 0.40132 0.12063 0.96205 0.0
C71 C 0.34369 0.10101 0.02268 0.0
C72 C 0.42321 0.0522 0.02149 0.0
C73 C 0.37733 0.15476 0.0649 0.0
C74 C 0.44471 0.16575 0.00399 0.0
C75 C 0.45482 0.10375 0.06052 0.0
O76 O 0.38507 0.13268 0.97501 0.0
O77 O 0.35891 0.08634 0.03486 0.0
O78 O 0.42127 0.06687 0.00375 0.0
O79 O 0.38352 0.16388 0.04485 0.0
O80 O 0.45476 0.14303 0.00524 0.0
O81 O 0.43172 0.10749 0.06844 0.0
O82 O 0.42006 0.16999 0.00433 0.0
O83 O 0.37673 0.13023 0.06901 0.0
O84 O 0.45937 0.09825 0.03875 0.0
O85 O 0.34985 0.12407 0.01578 0.0
O86 O 0.42234 0.11078 0.97016 0.0
O87 O 0.41544 0.06037 0.04155 0.0
Sc88 Sc 0.14 0.81159 0.24174 0.0
Sc89 Sc 0.15329 0.85439 0.19556 0.0
Sc90 Sc 0.09993 0.86551 0.23294 0.0
O91 O 0.13051 0.8436 0.2232 0.0
C92 C 0.07897 0.80663 0.23972 0.0
C93 C 0.14671 0.79479 0.18685 0.0
C94 C 0.09626 0.87251 0.17848 0.0
C95 C 0.19464 0.82617 0.22935 0.0
C96 C 0.12204 0.85027 0.28313 0.0
C97 C 0.14544 0.90755 0.22184 0.0
O98 O 0.10147 0.79606 0.23939 0.0
O99 O 0.14464 0.81792 0.17852 0.0
O100 O 0.08523 0.86655 0.19781 0.0
O101 O 0.17836 0.82717 0.246 0.0
O102 O 0.11161 0.86684 0.26931 0.0
O103 O 0.16199 0.89157 0.21283 0.0
O104 O 0.13148 0.82868 0.27585 0.0
O105 O 0.18848 0.83477 0.20898 0.0
O106 O 0.12201 0.90111 0.22721 0.0
O107 O 0.14889 0.79011 0.20904 0.0
O108 O 0.07544 0.83138 0.23897 0.0
O109 O 0.12106 0.8724 0.17587 0.0
Sc110 Sc 0.43517 0.88606 0.49778 0.0
Sc111 Sc 0.39414 0.89936 0.4503 0.0
Sc112 Sc 0.37886 0.84878 0.49003 0.0
O113 O 0.40283 0.87747 0.47919 0.0
C114 C 0.43612 0.82441 0.49707 0.0
C115 C 0.4535 0.88891 0.44294 0.0
C116 C 0.37131 0.84342 0.43514 0.0
C117 C 0.42374 0.94096 0.48306 0.0
C118 C 0.39604 0.87141 0.53974 0.0
C119 C 0.34084 0.89752 0.47853 0.0
O120 O 0.44784 0.84638 0.49727 0.0
O121 O 0.43043 0.88754 0.43435 0.0
O122 O 0.37473 0.83319 0.45529 0.0
O123 O 0.42223 0.92556 0.50036 0.0
O124 O 0.37955 0.86045 0.52627 0.0
O125 O 0.35711 0.91106 0.46633 0.0
O126 O 0.41758 0.88059 0.53218 0.0
O127 O 0.41536 0.93404 0.46281 0.0
O128 O 0.34551 0.87434 0.48591 0.0
O129 O 0.45778 0.89218 0.46508 0.0
O130 O 0.41131 0.82199 0.49522 0.0
O131 O 0.37482 0.86772 0.43124 0.0
Sc132 Sc 0.36107 0.18649 0.74696 0.0
Sc133 Sc 0.34452 0.14471 0.70101 0.0
Sc134 Sc 0.39877 0.13174 0.73643 0.0
O135 O 0.36834 0.15439 0.72805 0.0
C136 C 0.42151 0.18956 0.74381 0.0
C137 C 0.35142 0.20465 0.693 0.0
C138 C 0.40127 0.12914 0.68174 0.0
C139 C 0.30499 0.17152 0.73798 0.0
C140 C 0.37927 0.14574 0.78698 0.0
C141 C 0.35298 0.09051 0.72493 0.0
O142 O 0.39956 0.20093 0.74184 0.0
O143 O 0.35281 0.18162 0.68433 0.0
O144 O 0.41253 0.13434 0.70115 0.0
O145 O 0.32273 0.17232 0.75347 0.0
O146 O 0.38687 0.12831 0.77251 0.0
O147 O 0.33615 0.10719 0.71765 0.0
O148 O 0.37195 0.16846 0.78035 0.0
O149 O 0.30986 0.16347 0.71705 0.0
O150 O 0.37689 0.09637 0.72882 0.0
O151 O 0.34994 0.20882 0.71531 0.0
O152 O 0.42394 0.16473 0.74481 0.0
O153 O 0.37639 0.12719 0.67994 0.0
Sc154 Sc 0.06388 0.10832 0.99664 0.0
Sc155 Sc 0.10574 0.0969 0.94918 0.0
Sc156 Sc 0.11787 0.14878 0.98843 0.0
O157 O 0.0957 0.11855 0.97792 0.0
C158 C 0.05913 0.16982 0.99429 0.0
C159 C 0.04601 0.10393 0.9419 0.0
C160 C 0.12543 0.15379 0.93331 0.0
C161 C 0.07792 0.05416 0.98201 0.0
C162 C 0.10173 0.12601 0.03853 0.0
C163 C 0.15843 0.10182 0.97798 0.0
O164 O 0.04883 0.14719 0.99559 0.0
O165 O 0.06894 0.10637 0.93322 0.0
O166 O 0.12162 0.16391 0.95345 0.0
O167 O 0.07899 0.06959 0.99934 0.0
O168 O 0.11736 0.13808 0.02499 0.0
O169 O 0.14312 0.0875 0.96553 0.0
O170 O 0.08103 0.11507 0.03099 0.0
O171 O 0.08644 0.06129 0.96187 0.0
O172 O 0.15255 0.12482 0.98518 0.0
O173 O 0.04187 0.10074 0.96405 0.0
O174 O 0.08377 0.17368 0.99242 0.0
O175 O 0.12326 0.1293 0.92961 0.0
Sc176 Sc 0.89834 0.86027 0.73146 0.0
Sc177 Sc 0.84222 0.85526 0.69605 0.0
Sc178 Sc 0.85426 0.81028 0.74076 0.0
O179 O 0.86549 0.84172 0.72245 0.0
C180 C 0.91384 0.79937 0.73427 0.0
C181 C 0.89973 0.86752 0.67638 0.0
C182 C 0.84243 0.79567 0.68636 0.0
C183 C 0.85548 0.90594 0.72511 0.0
C184 C 0.87897 0.84468 0.78232 0.0
C185 C 0.80093 0.83155 0.73281 0.0
O186 O 0.91966 0.82372 0.73468 0.0
O187 O 0.87498 0.87062 0.67471 0.0
O188 O 0.84025 0.79105 0.70852 0.0
O189 O 0.87867 0.89769 0.72919 0.0
O190 O 0.86727 0.82437 0.77479 0.0
O191 O 0.80606 0.83891 0.71175 0.0
O192 O 0.88962 0.86107 0.76851 0.0
O193 O 0.83804 0.89237 0.71443 0.0
O194 O 0.81891 0.83048 0.74796 0.0
O195 O 0.91068 0.86108 0.69561 0.0
O196 O 0.89046 0.79091 0.73494 0.0
O197 O 0.84645 0.81856 0.67811 0.0
Sc198 Sc 0.88022 0.1495 0.49093 0.0
Sc199 Sc 0.89261 0.09661 0.45219 0.0
Sc200 Sc 0.93732 0.11252 0.49708 0.0
O201 O 0.90332 0.11962 0.48 0.0
C202 C 0.93758 0.17413 0.49258 0.0
C203 C 0.87205 0.15317 0.43531 0.0
C204 C 0.95279 0.1037 0.44246 0.0
C205 C 0.84012 0.10216 0.48197 0.0
C206 C 0.9009 0.12912 0.54043 0.0
C207 C 0.92011 0.0553 0.48747 0.0
O208 O 0.91275 0.17668 0.49264 0.0
O209 O 0.87719 0.12915 0.43132 0.0
O210 O 0.95829 0.10491 0.46441 0.0
O211 O 0.84643 0.12448 0.49031 0.0
O212 O 0.92173 0.11929 0.53202 0.0
O213 O 0.90874 0.06101 0.46804 0.0
O214 O 0.88373 0.13992 0.52756 0.0
O215 O 0.85471 0.08892 0.46808 0.0
O216 O 0.92765 0.07251 0.50205 0.0
O217 O 0.87328 0.16313 0.4558 0.0
O218 O 0.94909 0.15216 0.4936 0.0
O219 O 0.9294 0.10283 0.43477 0.0
Sc220 Sc 0.59848 0.13349 0.23965 0.0
Sc221 Sc 0.65246 0.14461 0.20224 0.0
Sc222 Sc 0.639 0.18705 0.24852 0.0
O223 O 0.62943 0.15508 0.22989 0.0
C224 C 0.57836 0.19294 0.24244 0.0
C225 C 0.59584 0.12547 0.1843 0.0
C226 C 0.64779 0.20437 0.19435 0.0
C227 C 0.64496 0.09196 0.23081 0.0
C228 C 0.61782 0.15087 0.29036 0.0
C229 C 0.69369 0.16987 0.23852 0.0
O230 O 0.574 0.16825 0.24224 0.0
O231 O 0.62043 0.12803 0.18121 0.0
O232 O 0.65054 0.20836 0.21654 0.0
O233 O 0.62198 0.09839 0.23764 0.0
O234 O 0.62859 0.17163 0.28279 0.0
O235 O 0.68803 0.16245 0.21757 0.0
O236 O 0.60743 0.13429 0.27661 0.0
O237 O 0.65991 0.10692 0.21865 0.0
O238 O 0.67639 0.17038 0.25437 0.0
O239 O 0.58504 0.12916 0.20419 0.0
O240 O 0.60109 0.20291 0.24386 0.0
O241 O 0.64482 0.18152 0.18571 0.0
Sc242 Sc 0.6163 0.85069 0.9866 0.0
Sc243 Sc 0.60423 0.90519 0.9497 0.0
Sc244 Sc 0.56141 0.88953 0.9955 0.0
O245 O 0.59399 0.88141 0.97703 0.0
C246 C 0.55758 0.82867 0.98878 0.0
C247 C 0.62366 0.84887 0.93093 0.0
C248 C 0.54416 0.9006 0.94161 0.0
C249 C 0.65716 0.89774 0.97831 0.0
C250 C 0.59769 0.86864 0.0374 0.0
C251 C 0.57921 0.94551 0.98713 0.0
O252 O 0.58235 0.8251 0.98839 0.0
O253 O 0.61971 0.87329 0.92779 0.0
O254 O 0.53982 0.90085 0.96384 0.0
O255 O 0.65087 0.8749 0.98553 0.0
O256 O 0.57692 0.87918 0.02967 0.0
O257 O 0.58758 0.94047 0.96634 0.0
O258 O 0.61468 0.85875 0.02377 0.0
O259 O 0.64222 0.91214 0.96566 0.0
O260 O 0.57586 0.92765 0.00225 0.0
O261 O 0.62156 0.83808 0.951 0.0
O262 O 0.54699 0.8511 0.99034 0.0
O263 O 0.56711 0.89908 0.93295 0.0
Sc264 Sc 0.90136 0.13731 0.76697 0.0
Sc265 Sc 0.84626 0.14503 0.8025 0.0
Sc266 Sc 0.85879 0.18832 0.75675 0.0
O267 O 0.86926 0.15712 0.77559 0.0
C268 C 0.9187 0.19723 0.75996 0.0
C269 C 0.90384 0.13337 0.82163 0.0
C270 C 0.84857 0.20493 0.81098 0.0
C271 C 0.85878 0.09236 0.77753 0.0
C272 C 0.88076 0.15034 0.71633 0.0
C273 C 0.80487 0.16896 0.76614 0.0
O274 O 0.92334 0.17268 0.75978 0.0
O275 O 0.87922 0.12928 0.82319 0.0
O276 O 0.84593 0.20913 0.78876 0.0
O277 O 0.8821 0.10028 0.7736 0.0
O278 O 0.87101 0.17195 0.72327 0.0
O279 O 0.81025 0.16184 0.78719 0.0
O280 O 0.89032 0.13364 0.73055 0.0
O281 O 0.84069 0.10742 0.78525 0.0
O282 O 0.82251 0.16932 0.75062 0.0
O283 O 0.91469 0.14011 0.80243 0.0
O284 O 0.89577 0.20674 0.76118 0.0
O285 O 0.85219 0.18206 0.81944 0.0
Sc286 Sc 0.56058 0.10479 0.50832 0.0
Sc287 Sc 0.60297 0.09259 0.55491 0.0
Sc288 Sc 0.61324 0.1464 0.51706 0.0
O289 O 0.59219 0.11519 0.52704 0.0
C290 C 0.59627 0.12653 0.4664 0.0
C291 C 0.57922 0.05054 0.51862 0.0
C292 C 0.65541 0.10067 0.52613 0.0
C293 C 0.54311 0.09595 0.56241 0.0
C294 C 0.55344 0.16537 0.514 0.0
C295 C 0.62106 0.14985 0.57241 0.0
O296 O 0.5758 0.1153 0.47403 0.0
O297 O 0.58612 0.05651 0.53963 0.0
O298 O 0.64866 0.12349 0.51911 0.0
O299 O 0.53933 0.09305 0.54021 0.0
O300 O 0.57804 0.17013 0.51439 0.0
O301 O 0.6187 0.12526 0.57583 0.0
O302 O 0.54388 0.14244 0.51264 0.0
O303 O 0.56579 0.09943 0.57121 0.0
O304 O 0.61741 0.16026 0.55237 0.0
O305 O 0.57822 0.06778 0.50273 0.0
O306 O 0.61262 0.13731 0.4801 0.0
O307 O 0.64077 0.08574 0.5386 0.0
Sc308 Sc 0.63851 0.80934 0.25574 0.0
Sc309 Sc 0.65307 0.85278 0.3014 0.0
Sc310 Sc 0.59839 0.86337 0.26444 0.0
O311 O 0.62961 0.84184 0.27408 0.0
C312 C 0.61715 0.8452 0.21374 0.0
C313 C 0.694 0.82793 0.26435 0.0
C314 C 0.64445 0.90541 0.27268 0.0
C315 C 0.64945 0.79274 0.30979 0.0
C316 C 0.57782 0.80408 0.2626 0.0
C317 C 0.5963 0.87107 0.32004 0.0
O318 O 0.62798 0.82455 0.22146 0.0
O319 O 0.68871 0.83636 0.28508 0.0
O320 O 0.62171 0.89858 0.26561 0.0
O321 O 0.65013 0.78822 0.28759 0.0
O322 O 0.57363 0.82878 0.26262 0.0
O323 O 0.62085 0.86798 0.32313 0.0
O324 O 0.60046 0.79401 0.261 0.0
O325 O 0.6474 0.81572 0.31831 0.0
O326 O 0.58552 0.86831 0.30002 0.0
O327 O 0.67631 0.82464 0.24908 0.0
O328 O 0.6068 0.86192 0.22737 0.0
O329 O 0.65933 0.8908 0.28519 0.0
Sc330 Sc 0.93818 0.88062 0.00143 0.0
Sc331 Sc 0.89574 0.90018 0.04645 0.0
Sc332 Sc 0.87916 0.84759 0.00874 0.0
O333 O 0.90422 0.87599 0.01896 0.0
C334 C 0.90025 0.8647 0.95874 0.0
C335 C 0.92509 0.93851 0.00958 0.0
C336 C 0.84228 0.89748 0.01808 0.0
C337 C 0.95523 0.8902 0.05545 0.0
C338 C 0.93506 0.8196 0.00703 0.0
C339 C 0.8722 0.84522 0.06444 0.0
O340 O 0.9222 0.8721 0.96689 0.0
O341 O 0.91485 0.93416 0.02984 0.0
O342 O 0.84681 0.87443 0.01047 0.0
O343 O 0.96015 0.88986 0.03335 0.0
O344 O 0.91013 0.81867 0.00588 0.0
O345 O 0.87799 0.86922 0.06784 0.0
O346 O 0.94806 0.84079 0.00697 0.0
O347 O 0.93203 0.89087 0.06355 0.0
O348 O 0.87311 0.8346 0.04418 0.0
O349 O 0.92917 0.92039 0.99478 0.0
O350 O 0.8818 0.85699 0.97197 0.0
O351 O 0.85831 0.9105 0.03083 0.0
Sc352 Sc 0.6382 0.68729 0.75392 0.0
Sc353 Sc 0.6499 0.6459 0.80155 0.0
Sc354 Sc 0.59944 0.63218 0.76164 0.0
O355 O 0.62864 0.65528 0.7725 0.0
C356 C 0.57683 0.69009 0.75376 0.0
C357 C 0.64091 0.70547 0.8088 0.0
C358 C 0.59288 0.62605 0.81639 0.0
C359 C 0.69242 0.6747 0.76913 0.0
C360 C 0.62327 0.64782 0.71221 0.0
C361 C 0.64667 0.5926 0.77377 0.0
O362 O 0.59899 0.70141 0.75424 0.0
O363 O 0.63867 0.68244 0.81738 0.0
O364 O 0.58317 0.63055 0.79621 0.0
O365 O 0.67721 0.67293 0.75172 0.0
O366 O 0.61223 0.63145 0.72576 0.0
O367 O 0.66098 0.60875 0.78537 0.0
O368 O 0.63225 0.66957 0.71959 0.0
O369 O 0.68516 0.66662 0.7894 0.0
O370 O 0.62339 0.59779 0.76697 0.0
O371 O 0.64474 0.70963 0.7867 0.0
O372 O 0.57396 0.6653 0.75517 0.0
O373 O 0.61746 0.62693 0.82018 0.0
Sc374 Sc 0.61905 0.34853 0.01862 0.0
Sc375 Sc 0.60149 0.4013 0.05569 0.0
Sc376 Sc 0.56229 0.38337 0.00854 0.0
O377 O 0.59404 0.37676 0.02814 0.0
C378 C 0.60197 0.36679 0.96768 0.0
C379 C 0.65521 0.39915 0.02824 0.0
C380 C 0.57121 0.43815 0.01966 0.0
C381 C 0.62584 0.34687 0.07377 0.0
C382 C 0.56219 0.32241 0.0129 0.0
C383 C 0.54255 0.39043 0.06264 0.0
O384 O 0.6191 0.35812 0.9818 0.0
O385 O 0.63826 0.41302 0.0393 0.0
O386 O 0.5773 0.42163 0.00423 0.0
O387 O 0.62277 0.33532 0.05413 0.0
O388 O 0.54978 0.34398 0.012 0.0
O389 O 0.56533 0.38957 0.07188 0.0
O390 O 0.58716 0.32073 0.01394 0.0
O391 O 0.62162 0.3713 0.07655 0.0
O392 O 0.53905 0.39233 0.04027 0.0
O393 O 0.65153 0.3753 0.02221 0.0
O394 O 0.57988 0.37502 0.97472 0.0
O395 O 0.57898 0.43448 0.0408 0.0
Sc396 Sc 0.8983 0.36945 0.26463 0.0
Sc397 Sc 0.84713 0.35544 0.30376 0.0
Sc398 Sc 0.86149 0.31284 0.258 0.0
O399 O 0.86944 0.34585 0.2756 0.0
C400 C 0.87669 0.35123 0.21541 0.0
C401 C 0.85105 0.40885 0.27696 0.0
C402 C 0.80621 0.3254 0.27039 0.0
C403 C 0.90368 0.37681 0.31916 0.0
C404 C 0.92252 0.31182 0.25897 0.0
C405 C 0.85611 0.2963 0.31282 0.0
O406 O 0.88515 0.36945 0.22863 0.0
O407 O 0.83596 0.39203 0.28675 0.0
O408 O 0.82224 0.32588 0.25346 0.0
O409 O 0.91425 0.37186 0.29936 0.0
O410 O 0.90083 0.2999 0.26119 0.0
O411 O 0.85817 0.31954 0.32088 0.0
O412 O 0.92447 0.33673 0.25784 0.0
O413 O 0.87906 0.375 0.32259 0.0
O414 O 0.85304 0.29152 0.29078 0.0
O415 O 0.87456 0.40385 0.27077 0.0
O416 O 0.86949 0.32913 0.2235 0.0
O417 O 0.81262 0.33432 0.29064 0.0
Sc418 Sc 0.8801 0.64853 0.50901 0.0
Sc419 Sc 0.89301 0.59858 0.54979 0.0
Sc420 Sc 0.93492 0.60935 0.50247 0.0
O421 O 0.90281 0.61937 0.52057 0.0
C422 C 0.89645 0.62436 0.46 0.0
C423 C 0.84012 0.60175 0.52146 0.0
C424 C 0.92152 0.55545 0.5178 0.0
C425 C 0.87331 0.656 0.56364 0.0
C426 C 0.93829 0.67058 0.50198 0.0
C427 C 0.95259 0.60673 0.5574 0.0
O428 O 0.8796 0.63511 0.47326 0.0
O429 O 0.85604 0.58754 0.53338 0.0
O430 O 0.92004 0.5705 0.50023 0.0
O431 O 0.87828 0.66541 0.54341 0.0
O432 O 0.94941 0.64837 0.50333 0.0
O433 O 0.9296 0.60958 0.56595 0.0
O434 O 0.91349 0.67364 0.50224 0.0
O435 O 0.87395 0.63146 0.56775 0.0
O436 O 0.95666 0.60253 0.53537 0.0
O437 O 0.84549 0.62493 0.51445 0.0
O438 O 0.91808 0.61562 0.46784 0.0
O439 O 0.91341 0.56304 0.53797 0.0
Sc440 Sc 0.64057 0.3105 0.74898 0.0
Sc441 Sc 0.65057 0.35338 0.70223 0.0
Sc442 Sc 0.60055 0.36497 0.74325 0.0
O443 O 0.63006 0.34286 0.73138 0.0
C444 C 0.5794 0.30623 0.74938 0.0
C445 C 0.64311 0.29373 0.69391 0.0
C446 C 0.5928 0.37197 0.68854 0.0
C447 C 0.69428 0.3253 0.73385 0.0
C448 C 0.62508 0.34806 0.79202 0.0
C449 C 0.64653 0.40606 0.73104 0.0
O450 O 0.60177 0.29547 0.74796 0.0
O451 O 0.64006 0.31687 0.68582 0.0
O452 O 0.58354 0.36722 0.70887 0.0
O453 O 0.67917 0.3259 0.75143 0.0
O454 O 0.61402 0.36497 0.77903 0.0
O455 O 0.66089 0.39055 0.7188 0.0
O456 O 0.63411 0.32669 0.78385 0.0
O457 O 0.68654 0.33364 0.71382 0.0
O458 O 0.6236 0.40008 0.7383 0.0
O459 O 0.64772 0.28924 0.71581 0.0
O460 O 0.576 0.33102 0.74945 0.0
O461 O 0.61731 0.37157 0.68436 0.0
Sc462 Sc 0.93446 0.38496 0.9965 0.0
Sc463 Sc 0.89106 0.40169 0.95169 0.0
Sc464 Sc 0.87849 0.34738 0.9885 0.0
O465 O 0.90137 0.37752 0.97865 0.0
C466 C 0.93662 0.32374 0.99106 0.0
C467 C 0.9505 0.39425 0.9419 0.0
C468 C 0.86912 0.34621 0.93338 0.0
C469 C 0.91925 0.44129 0.98774 0.0
C470 C 0.89788 0.36595 0.03889 0.0
C471 C 0.83879 0.39582 0.98137 0.0
O472 O 0.94778 0.34596 0.99197 0.0
O473 O 0.9272 0.39323 0.9339 0.0
O474 O 0.87265 0.33474 0.95298 0.0
O475 O 0.9212 0.42354 0.0031 0.0
O476 O 0.8807 0.35604 0.02546 0.0
O477 O 0.85408 0.41037 0.96914 0.0
O478 O 0.91895 0.37578 0.03098 0.0
O479 O 0.91037 0.43636 0.96713 0.0
O480 O 0.84444 0.37242 0.98754 0.0
O481 O 0.95551 0.39522 0.96405 0.0
O482 O 0.91177 0.3208 0.99053 0.0
O483 O 0.87285 0.3707 0.93061 0.0
Sc484 Sc 0.86103 0.6858 0.24266 0.0
Sc485 Sc 0.84646 0.64421 0.19587 0.0
Sc486 Sc 0.89822 0.62958 0.23445 0.0
O487 O 0.86919 0.65333 0.22412 0.0
C488 C 0.92265 0.68706 0.24045 0.0
C489 C 0.85673 0.70329 0.18768 0.0
C490 C 0.90184 0.62099 0.17963 0.0
C491 C 0.80592 0.67457 0.22912 0.0
C492 C 0.87692 0.64714 0.28456 0.0
C493 C 0.84893 0.59158 0.22481 0.0
O494 O 0.90063 0.69865 0.2412 0.0
O495 O 0.85806 0.68013 0.17924 0.0
O496 O 0.91267 0.62519 0.1994 0.0
O497 O 0.82166 0.67278 0.24614 0.0
O498 O 0.88768 0.63062 0.27098 0.0
O499 O 0.83494 0.60778 0.21299 0.0
O500 O 0.86739 0.66855 0.27705 0.0
O501 O 0.81231 0.66604 0.20878 0.0
O502 O 0.87249 0.59613 0.23125 0.0
O503 O 0.85403 0.70782 0.20985 0.0
O504 O 0.92513 0.66222 0.23867 0.0
O505 O 0.87739 0.62411 0.17632 0.0
Sc506 Sc 0.56056 0.60706 0.49647 0.0
Sc507 Sc 0.60172 0.5966 0.44847 0.0
Sc508 Sc 0.61392 0.64779 0.48802 0.0
O509 O 0.59182 0.61777 0.47749 0.0
C510 C 0.55532 0.66832 0.49638 0.0
C511 C 0.542 0.60382 0.44171 0.0
C512 C 0.61999 0.65394 0.43334 0.0
C513 C 0.57393 0.55365 0.48078 0.0
C514 C 0.59977 0.62368 0.53777 0.0
C515 C 0.65468 0.60141 0.47631 0.0
O516 O 0.54489 0.64571 0.49641 0.0
O517 O 0.56479 0.60687 0.43278 0.0
O518 O 0.61465 0.66374 0.45332 0.0
O519 O 0.57666 0.56873 0.49818 0.0
O520 O 0.61541 0.63548 0.52405 0.0
O521 O 0.6389 0.5865 0.46492 0.0
O522 O 0.57845 0.61358 0.5306 0.0
O523 O 0.58171 0.56094 0.46046 0.0
O524 O 0.649 0.62478 0.48264 0.0
O525 O 0.5383 0.5999 0.46386 0.0
O526 O 0.57995 0.67211 0.49452 0.0
O527 O 0.62026 0.62929 0.42984 0.0
Sc528 Sc 0.39625 0.36931 0.23733 0.0
Sc529 Sc 0.34183 0.35295 0.20121 0.0
Sc530 Sc 0.36463 0.30914 0.24474 0.0
O531 O 0.36748 0.34388 0.22773 0.0
C532 C 0.42566 0.31451 0.23694 0.0
C533 C 0.39592 0.37653 0.18125 0.0
C534 C 0.35242 0.2927 0.19098 0.0
C535 C 0.34632 0.40633 0.23057 0.0
C536 C 0.38072 0.34654 0.28771 0.0
C537 C 0.30508 0.32354 0.23917 0.0
O538 O 0.42627 0.33943 0.23649 0.0
O539 O 0.37268 0.36807 0.17807 0.0
O540 O 0.35795 0.28753 0.21241 0.0
O541 O 0.36871 0.40089 0.2391 0.0
O542 O 0.37106 0.32548 0.27952 0.0
O543 O 0.30798 0.33706 0.22032 0.0
O544 O 0.39022 0.3642 0.27452 0.0
O545 O 0.33407 0.3914 0.21625 0.0
O546 O 0.32411 0.31408 0.25068 0.0
O547 O 0.4063 0.3781 0.20156 0.0
O548 O 0.40491 0.30133 0.23986 0.0
O549 O 0.34714 0.31575 0.18388 0.0
Sc550 Sc 0.38096 0.64778 0.98967 0.0
Sc551 Sc 0.39464 0.59407 0.95202 0.0
Sc552 Sc 0.43881 0.61217 0.99728 0.0
O553 O 0.40477 0.61792 0.97961 0.0
C554 C 0.43691 0.67414 0.99293 0.0
C555 C 0.37382 0.64978 0.93356 0.0
C556 C 0.45569 0.60288 0.9432 0.0
C557 C 0.34132 0.6003 0.98131 0.0
C558 C 0.40165 0.62811 0.0399 0.0
C559 C 0.4218 0.55362 0.9879 0.0
O560 O 0.41241 0.67599 0.98924 0.0
O561 O 0.38168 0.62648 0.92971 0.0
O562 O 0.46075 0.60796 0.96478 0.0
O563 O 0.34807 0.62179 0.99094 0.0
O564 O 0.4213 0.61585 0.03176 0.0
O565 O 0.40786 0.55845 0.9697 0.0
O566 O 0.38601 0.6408 0.02679 0.0
O567 O 0.35549 0.5881 0.9663 0.0
O568 O 0.43287 0.57127 0.99998 0.0
O569 O 0.37233 0.65935 0.9542 0.0
O570 O 0.44844 0.65258 0.99667 0.0
O571 O 0.43267 0.59795 0.93577 0.0
Sc572 Sc 0.09832 0.62496 0.73387 0.0
Sc573 Sc 0.15175 0.64511 0.69822 0.0
Sc574 Sc 0.12721 0.68614 0.7435 0.0
O575 O 0.12585 0.65207 0.72512 0.0
C576 C 0.06579 0.67708 0.73936 0.0
C577 C 0.09828 0.6207 0.67754 0.0
C578 C 0.13681 0.70551 0.69035 0.0
C579 C 0.14941 0.59021 0.72552 0.0
C580 C 0.1158 0.64559 0.78481 0.0
C581 C 0.18787 0.67563 0.73547 0.0
O582 O 0.06666 0.65292 0.73403 0.0
O583 O 0.12085 0.63091 0.67452 0.0
O584 O 0.12872 0.70933 0.71141 0.0
O585 O 0.12728 0.59478 0.73488 0.0
O586 O 0.12606 0.66675 0.77739 0.0
O587 O 0.18562 0.66021 0.7178 0.0
O588 O 0.10441 0.62946 0.77117 0.0
O589 O 0.16072 0.60582 0.71117 0.0
O590 O 0.16845 0.68569 0.74592 0.0
O591 O 0.08859 0.6169 0.69789 0.0
O592 O 0.08595 0.69069 0.74366 0.0
O593 O 0.14565 0.68352 0.68326 0.0
Sc594 Sc 0.11689 0.35123 0.48823 0.0
Sc595 Sc 0.10475 0.4043 0.45013 0.0
Sc596 Sc 0.06188 0.39001 0.4959 0.0
O597 O 0.09447 0.38133 0.47786 0.0
C598 C 0.05822 0.32904 0.49134 0.0
C599 C 0.12497 0.34767 0.43305 0.0
C600 C 0.04533 0.39784 0.44139 0.0
C601 C 0.15719 0.39865 0.4791 0.0
C602 C 0.09876 0.37151 0.53831 0.0
C603 C 0.07799 0.44535 0.48571 0.0
O604 O 0.08303 0.32568 0.49175 0.0
O605 O 0.12231 0.37224 0.42973 0.0
O606 O 0.04074 0.40046 0.4635 0.0
O607 O 0.15143 0.37541 0.48568 0.0
O608 O 0.07738 0.38076 0.53048 0.0
O609 O 0.08594 0.43964 0.46494 0.0
O610 O 0.11589 0.3616 0.52484 0.0
O611 O 0.14187 0.41317 0.46693 0.0
O612 O 0.07689 0.42814 0.50163 0.0
O613 O 0.12122 0.33704 0.45301 0.0
O614 O 0.04737 0.35142 0.49155 0.0
O615 O 0.06841 0.39548 0.43318 0.0
Sc616 Sc 0.3971 0.62635 0.26673 0.0
Sc617 Sc 0.34296 0.64254 0.30269 0.0
Sc618 Sc 0.3644 0.68537 0.25888 0.0
O619 O 0.36833 0.65126 0.27621 0.0
C620 C 0.42485 0.68246 0.26764 0.0
C621 C 0.39693 0.61823 0.32226 0.0
C622 C 0.35238 0.70177 0.31261 0.0
C623 C 0.34657 0.5896 0.27347 0.0
C624 C 0.3827 0.64828 0.21642 0.0
C625 C 0.30651 0.67226 0.26445 0.0
O626 O 0.42606 0.65755 0.26583 0.0
O627 O 0.37288 0.62422 0.32504 0.0
O628 O 0.35309 0.70685 0.29055 0.0
O629 O 0.36999 0.5941 0.2668 0.0
O630 O 0.37504 0.67015 0.22454 0.0
O631 O 0.30987 0.66231 0.285 0.0
O632 O 0.38959 0.6296 0.22972 0.0
O633 O 0.33315 0.60546 0.28607 0.0
O634 O 0.3253 0.67572 0.25025 0.0
O635 O 0.40831 0.61943 0.3024 0.0
O636 O 0.40366 0.69538 0.26664 0.0
O637 O 0.35185 0.67849 0.32053 0.0
Sc638 Sc 0.06073 0.60279 0.00285 0.0
Sc639 Sc 0.10313 0.59517 0.05018 0.0
Sc640 Sc 0.11301 0.64534 0.0092 0.0
O641 O 0.0921 0.61503 0.02084 0.0
C642 C 0.09811 0.61985 0.96023 0.0
C643 C 0.07642 0.55034 0.01906 0.0
C644 C 0.15521 0.6005 0.02163 0.0
C645 C 0.04369 0.60088 0.05786 0.0
C646 C 0.05348 0.66366 0.00201 0.0
C647 C 0.1198 0.6535 0.06374 0.0
O648 O 0.0772 0.60957 0.96815 0.0
O649 O 0.08397 0.55858 0.03918 0.0
O650 O 0.14884 0.62351 0.01475 0.0
O651 O 0.03958 0.59541 0.03604 0.0
O652 O 0.07806 0.66829 0.00257 0.0
O653 O 0.12107 0.62897 0.06773 0.0
O654 O 0.04378 0.64077 0.00309 0.0
O655 O 0.06653 0.60524 0.0661 0.0
O656 O 0.11384 0.66253 0.04359 0.0
O657 O 0.0783 0.56507 0.00132 0.0
O658 O 0.11416 0.63191 0.97341 0.0
O659 O 0.14001 0.58554 0.03352 0.0
Sc660 Sc 0.13533 0.31551 0.7561 0.0
Sc661 Sc 0.14923 0.35559 0.80387 0.0
Sc662 Sc 0.09967 0.37294 0.76412 0.0
O663 O 0.12759 0.34796 0.77477 0.0
C664 C 0.12203 0.35589 0.71448 0.0
C665 C 0.19051 0.32552 0.77083 0.0
C666 C 0.14836 0.40982 0.77806 0.0
C667 C 0.13812 0.29655 0.81057 0.0
C668 C 0.07403 0.31642 0.75571 0.0
C669 C 0.0931 0.37831 0.81898 0.0
O670 O 0.1295 0.33367 0.72205 0.0
O671 O 0.18355 0.33389 0.79111 0.0
O672 O 0.12491 0.40611 0.77099 0.0
O673 O 0.1416 0.29244 0.78844 0.0
O674 O 0.0725 0.34135 0.75679 0.0
O675 O 0.1175 0.37526 0.82291 0.0
O676 O 0.09544 0.30382 0.7569 0.0
O677 O 0.13646 0.31951 0.81928 0.0
O678 O 0.08311 0.37514 0.79867 0.0
O679 O 0.17523 0.32712 0.75341 0.0
O680 O 0.1128 0.37342 0.72805 0.0
O681 O 0.16214 0.3923 0.78836 0.0
Sc682 Sc 0.438 0.37972 0.50716 0.0
Sc683 Sc 0.3947 0.40219 0.5515 0.0
Sc684 Sc 0.37782 0.34832 0.51493 0.0
O685 O 0.40349 0.37683 0.5246 0.0
C686 C 0.39993 0.36616 0.46451 0.0
C687 C 0.42452 0.43977 0.51506 0.0
C688 C 0.34103 0.39811 0.52245 0.0
C689 C 0.4552 0.38958 0.56094 0.0
C690 C 0.43142 0.31803 0.51124 0.0
C691 C 0.3711 0.34805 0.57118 0.0
O692 O 0.42014 0.37757 0.47265 0.0
O693 O 0.40903 0.43675 0.53255 0.0
O694 O 0.34676 0.3763 0.51291 0.0
O695 O 0.45997 0.38217 0.53985 0.0
O696 O 0.40706 0.31784 0.51583 0.0
O697 O 0.38075 0.37078 0.57459 0.0
O698 O 0.4443 0.33875 0.50727 0.0
O699 O 0.43269 0.39738 0.56762 0.0
O700 O 0.36836 0.3383 0.55069 0.0
O701 O 0.43561 0.42087 0.50467 0.0
O702 O 0.38369 0.35426 0.47767 0.0
O703 O 0.35564 0.40957 0.53756 0.0
H704 H 0.18832 0.07063 0.26202 0.0
H705 H 0.10885 0.05079 0.28096 0.0
H706 H 0.19489 0.0256 0.24713 0.0
H707 H 0.1154 0.00654 0.26646 0.0
H708 H 0.11765 0.94943 0.2082 0.0
H709 H 0.12179 0.99421 0.22244 0.0
H710 H 0.19207 0.97331 0.26039 0.0
H711 H 0.18805 0.92792 0.24561 0.0
C712 C 0.17256 0.05653 0.26357 0.0
C713 C 0.14795 0.0643 0.27232 0.0
C714 C 0.17629 0.03087 0.255 0.0
C715 C 0.15544 0.01283 0.25514 0.0
C716 C 0.13162 0.0202 0.26559 0.0
C717 C 0.12791 0.04555 0.27398 0.0
C718 C 0.1344 0.95452 0.21906 0.0
C719 C 0.15243 0.93526 0.22593 0.0
C720 C 0.1367 0.9801 0.22732 0.0
C721 C 0.15692 0.98707 0.24293 0.0
C722 C 0.17627 0.96839 0.2484 0.0
C723 C 0.17404 0.94254 0.23991 0.0
H724 H 0.31822 0.89604 0.52161 0.0
H725 H 0.30512 0.92256 0.45015 0.0
H726 H 0.27252 0.90452 0.53129 0.0
H727 H 0.2589 0.93084 0.45977 0.0
H728 H 0.17959 0.88634 0.47881 0.0
H729 H 0.22479 0.8961 0.46849 0.0
H730 H 0.23471 0.93669 0.53493 0.0
H731 H 0.18887 0.92708 0.54519 0.0
C732 C 0.30563 0.90441 0.50815 0.0
C733 C 0.31509 0.90852 0.4851 0.0
C734 C 0.27948 0.90941 0.51374 0.0
C735 C 0.26204 0.9182 0.49627 0.0
C736 C 0.2719 0.92397 0.47357 0.0
C737 C 0.29832 0.91939 0.46808 0.0
C738 C 0.19126 0.8978 0.49105 0.0
C739 C 0.18085 0.90569 0.51294 0.0
C740 C 0.2171 0.90363 0.48501 0.0
C741 C 0.23336 0.91715 0.50088 0.0
C742 C 0.22261 0.9262 0.52235 0.0
C743 C 0.19643 0.92078 0.52822 0.0
H744 H 0.38131 0.04784 0.71361 0.0
H745 H 0.30847 0.07091 0.74619 0.0
H746 H 0.37342 0.00261 0.72477 0.0
H747 H 0.30051 0.02497 0.75778 0.0
H748 H 0.32986 0.94694 0.80135 0.0
H749 H 0.32401 0.99201 0.78667 0.0
H750 H 0.3427 0.96589 0.71601 0.0
H751 H 0.34898 0.92148 0.73069 0.0
C752 C 0.36334 0.0431 0.72286 0.0
C753 C 0.34546 0.06286 0.72893 0.0
C754 C 0.35875 0.01713 0.72921 0.0
C755 C 0.33627 0.01015 0.7421 0.0
C756 C 0.31799 0.02979 0.74785 0.0
C757 C 0.32241 0.05596 0.74105 0.0
C758 C 0.3318 0.95081 0.7826 0.0
C759 C 0.34001 0.9309 0.76714 0.0
C760 C 0.32847 0.97655 0.77418 0.0
C761 C 0.33332 0.98254 0.75023 0.0
C762 C 0.33924 0.962 0.73459 0.0
C763 C 0.34271 0.93656 0.74297 0.0
H764 H 0.30804 0.07269 0.04861 0.0
H765 H 0.32066 0.10804 0.98021 0.0
H766 H 0.26219 0.06397 0.03782 0.0
H767 H 0.2754 0.09911 0.96938 0.0
H768 H 0.19399 0.07387 0.95165 0.0
H769 H 0.23978 0.06481 0.96236 0.0
H770 H 0.22647 0.09833 0.03147 0.0
H771 H 0.18125 0.10761 0.02071 0.0
C772 C 0.3012 0.07792 0.0311 0.0
C773 C 0.31768 0.09133 0.01536 0.0
C774 C 0.27503 0.073 0.02494 0.0
C775 C 0.26523 0.0809 0.00276 0.0
C776 C 0.28239 0.09253 0.98647 0.0
C777 C 0.30824 0.09788 0.99277 0.0
C778 C 0.20079 0.07865 0.96929 0.0
C779 C 0.1843 0.09172 0.98526 0.0
C780 C 0.22692 0.07354 0.97541 0.0
C781 C 0.23669 0.08092 0.99775 0.0
C782 C 0.2195 0.09216 0.01425 0.0
C783 C 0.19368 0.0977 0.008 0.0
H784 H 0.86974 0.92433 0.76773 0.0
H785 H 0.82614 0.94576 0.70527 0.0
H786 H 0.8651 0.96853 0.78307 0.0
H787 H 0.82212 0.99086 0.72046 0.0
H788 H 0.81216 0.06853 0.76486 0.0
H789 H 0.80593 0.02223 0.75369 0.0
H790 H 0.88768 0.00748 0.76802 0.0
H791 H 0.89374 0.05278 0.77917 0.0
C792 C 0.85897 0.93856 0.75734 0.0
C793 C 0.84879 0.93184 0.73508 0.0
C794 C 0.8563 0.96387 0.76614 0.0
C795 C 0.84375 0.98333 0.75275 0.0
C796 C 0.83188 0.97625 0.73117 0.0
C797 C 0.83427 0.95055 0.72243 0.0
C798 C 0.82859 0.05518 0.76592 0.0
C799 C 0.85343 0.06429 0.77289 0.0
C800 C 0.82509 0.02881 0.75935 0.0
C801 C 0.84627 0.01119 0.76011 0.0
C802 C 0.87084 0.02038 0.76757 0.0
C803 C 0.87436 0.04648 0.77383 0.0
H804 H 0.81747 0.10635 0.525 0.0
H805 H 0.80481 0.07487 0.45503 0.0
H806 H 0.77227 0.09659 0.53545 0.0
H807 H 0.75909 0.06534 0.46546 0.0
H808 H 0.67908 0.10982 0.48421 0.0
H809 H 0.72423 0.10057 0.47335 0.0
H810 H 0.73616 0.06182 0.54038 0.0
H811 H 0.69042 0.07084 0.5512 0.0
C812 C 0.80509 0.09682 0.51202 0.0
C813 C 0.81442 0.09169 0.48911 0.0
C814 C 0.77929 0.09098 0.51809 0.0
C815 C 0.76218 0.0803 0.50124 0.0
C816 C 0.77195 0.07361 0.47875 0.0
C817 C 0.79802 0.07902 0.4728 0.0
C818 C 0.69119 0.09887 0.49646 0.0
C819 C 0.68147 0.09138 0.51869 0.0
C820 C 0.71695 0.0933 0.49011 0.0
C821 C 0.73368 0.08049 0.50603 0.0
C822 C 0.7236 0.07172 0.5278 0.0
C823 C 0.69753 0.07687 0.53399 0.0
H824 H 0.67273 0.0566 0.20433 0.0
H825 H 0.63749 0.06816 0.27295 0.0
H826 H 0.68085 0.01041 0.21425 0.0
H827 H 0.64601 0.02251 0.28297 0.0
H828 H 0.67329 0.9405 0.29858 0.0
H829 H 0.68179 0.98658 0.28853 0.0
H830 H 0.64454 0.97519 0.22075 0.0
H831 H 0.63567 0.92964 0.23089 0.0
C832 C 0.66742 0.04944 0.22172 0.0
C833 C 0.65423 0.06573 0.23778 0.0
C834 C 0.67201 0.0231 0.22737 0.0
C835 C 0.66405 0.01296 0.24938 0.0
C836 C 0.6526 0.02985 0.26601 0.0
C837 C 0.64752 0.05589 0.26018 0.0
C838 C 0.66748 0.94779 0.28137 0.0
C839 C 0.65354 0.93171 0.26563 0.0
C840 C 0.6723 0.97406 0.27564 0.0
C841 C 0.66383 0.98437 0.25386 0.0
C842 C 0.65154 0.96771 0.23753 0.0
C843 C 0.64624 0.94172 0.24344 0.0
H844 H 0.81896 0.89538 0.97532 0.0
H845 H 0.8081 0.92451 0.04632 0.0
H846 H 0.77343 0.90518 0.96613 0.0
H847 H 0.76203 0.93407 0.0372 0.0
H848 H 0.68227 0.88846 0.0196 0.0
H849 H 0.7275 0.89863 0.02951 0.0
H850 H 0.73648 0.93898 0.96288 0.0
H851 H 0.69071 0.92899 0.953 0.0
C852 C 0.80691 0.90456 0.98876 0.0
C853 C 0.81683 0.90896 0.01158 0.0
C854 C 0.78091 0.91037 0.98344 0.0
C855 C 0.76417 0.92025 0.00098 0.0
C856 C 0.77457 0.9264 0.02338 0.0
C857 C 0.80085 0.92103 0.02858 0.0
C858 C 0.69374 0.89995 0.00725 0.0
C859 C 0.68318 0.9076 0.98537 0.0
C860 C 0.71955 0.90605 0.01306 0.0
C861 C 0.73551 0.91957 0.99696 0.0
C862 C 0.72455 0.92852 0.9756 0.0
C863 C 0.69844 0.92282 0.96995 0.0
H864 H 0.67379 0.55692 0.80082 0.0
H865 H 0.64188 0.56949 0.73109 0.0
H866 H 0.68231 0.51083 0.79063 0.0
H867 H 0.65056 0.52398 0.72085 0.0
H868 H 0.67469 0.44155 0.70458 0.0
H869 H 0.68346 0.48757 0.71488 0.0
H870 H 0.64885 0.47517 0.78366 0.0
H871 H 0.63995 0.42975 0.77334 0.0
C872 C 0.66935 0.55003 0.78315 0.0
C873 C 0.65698 0.56663 0.76682 0.0
C874 C 0.6741 0.52369 0.77732 0.0
C875 C 0.66702 0.51373 0.75494 0.0
C876 C 0.6565 0.531 0.73812 0.0
C877 C 0.65134 0.55704 0.74406 0.0
C878 C 0.6696 0.4486 0.72206 0.0
C879 C 0.65639 0.43222 0.73805 0.0
C880 C 0.67451 0.4749 0.72795 0.0
C881 C 0.66679 0.48503 0.75009 0.0
C882 C 0.65531 0.468 0.76659 0.0
C883 C 0.64999 0.44201 0.76058 0.0
H884 H 0.81523 0.38605 0.02327 0.0
H885 H 0.80467 0.42842 0.95791 0.0
H886 H 0.77071 0.39677 0.03508 0.0
H887 H 0.75955 0.43903 0.9697 0.0
H888 H 0.67595 0.39897 0.98449 0.0
H889 H 0.72135 0.40743 0.97367 0.0
H890 H 0.73763 0.43195 0.04531 0.0
H891 H 0.69169 0.42369 0.05604 0.0
C892 C 0.80346 0.39807 0.01159 0.0
C893 C 0.81326 0.40611 0.98952 0.0
C894 C 0.77803 0.40446 0.01849 0.0
C895 C 0.76159 0.41873 0.00333 0.0
C896 C 0.7718 0.42798 0.98173 0.0
C897 C 0.79757 0.42196 0.97499 0.0
C898 C 0.68905 0.40704 0.9977 0.0
C899 C 0.68047 0.41064 0.02108 0.0
C900 C 0.71502 0.41202 0.99149 0.0
C901 C 0.73312 0.42021 0.00866 0.0
C902 C 0.72409 0.42556 0.03173 0.0
C903 C 0.69785 0.42101 0.03786 0.0
H904 H 0.87544 0.4522 0.29212 0.0
H905 H 0.80788 0.42658 0.25265 0.0
H906 H 0.86682 0.49729 0.28085 0.0
H907 H 0.79913 0.47231 0.24093 0.0
H908 H 0.83062 0.54975 0.19912 0.0
H909 H 0.82369 0.50517 0.21442 0.0
H910 H 0.83561 0.5336 0.28558 0.0
H911 H 0.84317 0.57758 0.27023 0.0
C912 C 0.85831 0.45642 0.28146 0.0
C913 C 0.84219 0.43606 0.27342 0.0
C914 C 0.85329 0.48227 0.27502 0.0
C915 C 0.8322 0.48846 0.26005 0.0
C916 C 0.81551 0.46813 0.2525 0.0
C917 C 0.82033 0.44208 0.25935 0.0
C918 C 0.83079 0.54648 0.21805 0.0
C919 C 0.83749 0.56691 0.23354 0.0
C920 C 0.82683 0.52103 0.22684 0.0
C921 C 0.82953 0.51581 0.2512 0.0
C922 C 0.83383 0.53689 0.26672 0.0
C923 C 0.838 0.56208 0.25796 0.0
H924 H 0.67768 0.60886 0.51871 0.0
H925 H 0.69035 0.57247 0.45076 0.0
H926 H 0.72284 0.59992 0.52978 0.0
H927 H 0.73613 0.56369 0.4618 0.0
H928 H 0.81775 0.60589 0.47845 0.0
H929 H 0.77246 0.59692 0.46771 0.0
H930 H 0.75818 0.56624 0.53771 0.0
H931 H 0.80406 0.57504 0.54841 0.0
C932 C 0.69009 0.59846 0.5063 0.0
C933 C 0.68065 0.5916 0.48377 0.0
C934 C 0.71591 0.59311 0.51275 0.0
C935 C 0.73311 0.58115 0.49667 0.0
C936 C 0.72331 0.57299 0.47453 0.0
C937 C 0.69716 0.57793 0.46823 0.0
C938 C 0.8051 0.59661 0.49137 0.0
C939 C 0.81428 0.59136 0.51433 0.0
C940 C 0.7792 0.59127 0.48515 0.0
C941 C 0.76169 0.58097 0.50187 0.0
C942 C 0.77125 0.57427 0.52448 0.0
C943 C 0.79746 0.57919 0.53059 0.0
H944 H 0.31769 0.4405 0.20354 0.0
H945 H 0.34953 0.42934 0.27355 0.0
H946 H 0.30713 0.4861 0.21358 0.0
H947 H 0.33888 0.47443 0.2836 0.0
H948 H 0.31584 0.55601 0.29918 0.0
H949 H 0.30515 0.51052 0.2887 0.0
H950 H 0.34118 0.52154 0.22029 0.0
H951 H 0.35198 0.56647 0.23082 0.0
C952 C 0.32165 0.44755 0.22126 0.0
C953 C 0.33478 0.43163 0.23766 0.0
C954 C 0.31568 0.47359 0.22699 0.0
C955 C 0.3223 0.48383 0.24934 0.0
C956 C 0.3333 0.46709 0.26634 0.0
C957 C 0.33965 0.44134 0.26049 0.0
C958 C 0.32072 0.54883 0.28169 0.0
C959 C 0.33505 0.56448 0.26592 0.0
C960 C 0.31468 0.52286 0.27571 0.0
C961 C 0.32243 0.51248 0.25371 0.0
C962 C 0.3347 0.529 0.23726 0.0
C963 C 0.34113 0.55466 0.24337 0.0
H964 H 0.31794 0.60311 0.02419 0.0
H965 H 0.30602 0.57453 0.95311 0.0
H966 H 0.27233 0.59404 0.03361 0.0
H967 H 0.25994 0.5656 0.96253 0.0
H968 H 0.18022 0.6102 0.98048 0.0
H969 H 0.22556 0.60068 0.9705 0.0
H970 H 0.23524 0.56059 0.03719 0.0
H971 H 0.18932 0.56995 0.04713 0.0
C972 C 0.30564 0.59432 0.01073 0.0
C973 C 0.31535 0.58986 0.98782 0.0
C974 C 0.27958 0.58889 0.0162 0.0
C975 C 0.26256 0.57925 0.99877 0.0
C976 C 0.27268 0.57312 0.97627 0.0
C977 C 0.29899 0.57815 0.97089 0.0
C978 C 0.19189 0.59894 0.99285 0.0
C979 C 0.18145 0.59114 0.01474 0.0
C980 C 0.21776 0.59322 0.987 0.0
C981 C 0.23393 0.57992 0.00307 0.0
C982 C 0.22315 0.5709 0.0245 0.0
C983 C 0.19696 0.57622 0.03018 0.0
H984 H 0.16258 0.54768 0.69856 0.0
H985 H 0.16357 0.5777 0.76983 0.0
H986 H 0.17105 0.50343 0.71371 0.0
H987 H 0.17281 0.53395 0.78498 0.0
H988 H 0.13098 0.45404 0.79828 0.0
H989 H 0.14056 0.49877 0.7863 0.0
H990 H 0.19772 0.47017 0.73616 0.0
H991 H 0.18793 0.42495 0.74853 0.0
C992 C 0.16582 0.54494 0.71733 0.0
C993 C 0.16239 0.5659 0.73309 0.0
C994 C 0.17066 0.51966 0.72605 0.0
C995 C 0.17214 0.51512 0.75061 0.0
C996 C 0.1713 0.53671 0.76603 0.0
C997 C 0.16622 0.56177 0.75737 0.0
C998 C 0.14624 0.45742 0.78531 0.0
C999 C 0.159 0.43627 0.77455 0.0
C1000 C 0.1518 0.48303 0.77841 0.0
C1001 C 0.16999 0.48809 0.76028 0.0
C1002 C 0.18362 0.46688 0.75015 0.0
C1003 C 0.17825 0.44111 0.75736 0.0
H1004 H 0.1911 0.43041 0.45461 0.0
H1005 H 0.18112 0.38958 0.52087 0.0
H1006 H 0.23657 0.44061 0.46553 0.0
H1007 H 0.22599 0.39986 0.53179 0.0
H1008 H 0.30596 0.4242 0.55061 0.0
H1009 H 0.26027 0.43428 0.54066 0.0
H1010 H 0.27365 0.40778 0.4691 0.0
H1011 H 0.31886 0.39763 0.47905 0.0
C1012 C 0.19842 0.42423 0.4717 0.0
C1013 C 0.18286 0.40884 0.48673 0.0
C1014 C 0.22435 0.43004 0.47795 0.0
C1015 C 0.23481 0.421 0.49951 0.0
C1016 C 0.21847 0.40736 0.51521 0.0
C1017 C 0.19286 0.40119 0.50882 0.0
C1018 C 0.29926 0.42134 0.53261 0.0
C1019 C 0.31571 0.40978 0.51569 0.0
C1020 C 0.27317 0.42702 0.52693 0.0
C1021 C 0.26338 0.42164 0.50414 0.0
C1022 C 0.28062 0.41235 0.48673 0.0
C1023 C 0.30645 0.4063 0.49249 0.0
H1024 H 0.28731 0.3135 0.28334 0.0
H1025 H 0.2662 0.30665 0.20972 0.0
H1026 H 0.25934 0.27677 0.29295 0.0
H1027 H 0.23661 0.27071 0.21944 0.0
H1028 H 0.22461 0.18484 0.23457 0.0
H1029 H 0.24588 0.22682 0.22779 0.0
H1030 H 0.22158 0.25269 0.29731 0.0
H1031 H 0.20204 0.21002 0.30454 0.0
C1032 C 0.27548 0.30502 0.26938 0.0
C1033 C 0.27939 0.31254 0.24571 0.0
C1034 C 0.25948 0.28372 0.27487 0.0
C1035 C 0.24654 0.26988 0.25682 0.0
C1036 C 0.24726 0.28014 0.23365 0.0
C1037 C 0.26364 0.30127 0.22811 0.0
C1038 C 0.22465 0.19924 0.24865 0.0
C1039 C 0.21191 0.19402 0.27013 0.0
C1040 C 0.23621 0.22362 0.24458 0.0
C1041 C 0.23481 0.24364 0.26169 0.0
C1042 C 0.22315 0.23789 0.28367 0.0
C1043 C 0.21213 0.21325 0.28794 0.0
H1044 H 0.92739 0.02857 0.52864 0.0
H1045 H 0.94262 0.02541 0.45365 0.0
H1046 H 0.96298 0.9977 0.53572 0.0
H1047 H 0.97889 0.99599 0.46054 0.0
H1048 H 0.04016 0.93772 0.47644 0.0
H1049 H 0.99795 0.95758 0.47143 0.0
H1050 H 0.00883 0.00111 0.53636 0.0
H1051 H 0.05092 0.97919 0.54246 0.0
C1052 C 0.93772 0.02043 0.5136 0.0
C1053 C 0.93229 0.02939 0.4906 0.0
C1054 C 0.95854 0.00325 0.51768 0.0
C1055 C 0.97452 0.99496 0.49885 0.0
C1056 C 0.96715 0.00177 0.4756 0.0
C1057 C 0.94604 0.01854 0.47152 0.0
C1058 C 0.03381 0.9516 0.48976 0.0
C1059 C 0.04925 0.95702 0.50985 0.0
C1060 C 0.00937 0.9631 0.48677 0.0
C1061 C -0.00023 0.98114 0.50334 0.0
C1062 C 0.01528 0.98691 0.52339 0.0
C1063 C 0.03965 0.97474 0.52673 0.0
H1064 H 0.29474 0.78469 0.80379 0.0
H1065 H 0.27195 0.81393 0.73523 0.0
H1066 H 0.27298 0.74326 0.79537 0.0
H1067 H 0.24889 0.77313 0.72717 0.0
H1068 H 0.22668 0.69373 0.70654 0.0
H1069 H 0.25674 0.72906 0.71722 0.0
H1070 H 0.23354 0.72133 0.79046 0.0
H1071 H 0.20486 0.6854 0.77983 0.0
C1072 C 0.2841 0.78265 0.78731 0.0
C1073 C 0.28474 0.80269 0.77027 0.0
C1074 C 0.27186 0.75873 0.78232 0.0
C1075 C 0.25961 0.75444 0.76031 0.0
C1076 C 0.25888 0.77523 0.74395 0.0
C1077 C 0.2715 0.79892 0.74878 0.0
C1078 C 0.22919 0.69865 0.72505 0.0
C1079 C 0.21333 0.68696 0.74233 0.0
C1080 C 0.24586 0.7194 0.73116 0.0
C1081 C 0.2468 0.72888 0.75461 0.0
C1082 C 0.23333 0.71489 0.77222 0.0
C1083 C 0.21696 0.69406 0.76615 0.0
H1084 H 0.43325 0.01742 0.98638 0.0
H1085 H 0.463 0.04594 0.05299 0.0
H1086 H 0.47512 0.99651 0.97831 0.0
H1087 H 0.50555 0.02731 0.04418 0.0
H1088 H 0.5705 0.96701 0.03026 0.0
H1089 H 0.5321 0.99213 0.04041 0.0
H1090 H 0.51718 0.0058 0.96607 0.0
H1091 H 0.55469 0.97854 0.95599 0.0
C1092 C 0.44866 0.01871 0.99951 0.0
C1093 C 0.44479 0.03308 0.02037 0.0
C1094 C 0.47296 0.00742 0.99461 0.0
C1095 C 0.49426 0.01087 0.01016 0.0
C1096 C 0.48982 0.02404 0.03171 0.0
C1097 C 0.46525 0.03463 0.03691 0.0
C1098 C 0.5595 0.9761 0.01607 0.0
C1099 C 0.56523 0.97019 0.99232 0.0
C1100 C 0.53725 0.99053 0.0219 0.0
C1101 C 0.52064 0.00015 0.00408 0.0
C1102 C 0.52872 0.99759 0.98031 0.0
C1103 C 0.55074 0.98258 0.97446 0.0
H1104 H 0.20513 0.78772 0.19758 0.0
H1105 H 0.22661 0.81627 0.26672 0.0
H1106 H 0.22594 0.74611 0.20608 0.0
H1107 H 0.24958 0.77541 0.27473 0.0
H1108 H 0.27118 0.69507 0.29472 0.0
H1109 H 0.24314 0.73213 0.28479 0.0
H1110 H 0.2626 0.72206 0.21083 0.0
H1111 H 0.28851 0.68412 0.22065 0.0
C1112 C 0.21542 0.7855 0.21422 0.0
C1113 C 0.21451 0.80535 0.2314 0.0
C1114 C 0.22725 0.76145 0.21925 0.0
C1115 C 0.23917 0.7569 0.24136 0.0
C1116 C 0.23984 0.77762 0.25785 0.0
C1117 C 0.22733 0.80139 0.25306 0.0
C1118 C 0.26835 0.70003 0.27627 0.0
C1119 C 0.28237 0.68689 0.25852 0.0
C1120 C 0.25285 0.72179 0.27056 0.0
C1121 C 0.25137 0.73101 0.24705 0.0
C1122 C 0.26315 0.71595 0.22914 0.0
C1123 C 0.2781 0.69398 0.23479 0.0
H1124 H 0.43167 0.97646 0.51818 0.0
H1125 H 0.46443 0.94734 0.45298 0.0
H1126 H 0.47259 -0.00093 0.52685 0.0
H1127 H 0.506 0.96765 0.46239 0.0
H1128 H 0.56966 0.02856 0.47588 0.0
H1129 H 0.53129 0.00348 0.46575 0.0
H1130 H 0.51457 0.99246 0.54016 0.0
H1131 H 0.5521 0.01981 0.55016 0.0
C1132 C 0.44752 0.97545 0.50546 0.0
C1133 C 0.44473 0.96064 0.48471 0.0
C1134 C 0.47128 0.98774 0.51071 0.0
C1135 C 0.49313 0.98476 0.49569 0.0
C1136 C 0.4898 0.97081 0.47438 0.0
C1137 C 0.46578 0.95925 0.4688 0.0
C1138 C 0.55818 0.0202 0.49013 0.0
C1139 C 0.56363 0.02669 0.51381 0.0
C1140 C 0.53597 0.00572 0.4843 0.0
C1141 C 0.519 0.99656 0.50206 0.0
C1142 C 0.52642 0.00017 0.5259 0.0
C1143 C 0.54842 0.01526 0.53173 0.0
H1144 H 0.22478 0.3171 0.73476 0.0
H1145 H 0.19938 0.28613 0.80191 0.0
H1146 H 0.24911 0.27691 0.72704 0.0
H1147 H 0.22177 0.24525 0.79365 0.0
H1148 H 0.28575 0.18441 0.78119 0.0
H1149 H 0.25958 0.2224 0.79036 0.0
H1150 H 0.24404 0.23363 0.7158 0.0
H1151 H 0.27223 0.19644 0.70658 0.0
C1152 C 0.22492 0.30184 0.74809 0.0
C1153 C 0.2107 0.30496 0.76914 0.0
C1154 C 0.23828 0.27848 0.74344 0.0
C1155 C 0.23708 0.25733 0.75943 0.0
C1156 C 0.22359 0.26099 0.78094 0.0
C1157 C 0.21085 0.28462 0.78584 0.0
C1158 C 0.27626 0.1946 0.76672 0.0
C1159 C 0.2815 0.18761 0.74311 0.0
C1160 C 0.26112 0.21656 0.77201 0.0
C1161 C 0.25016 0.23183 0.75384 0.0
C1162 C 0.25299 0.22306 0.73029 0.0
C1163 C 0.26863 0.20127 0.72496 0.0
H1164 H 0.94567 0.97344 0.04148 0.0
H1165 H 0.93805 0.95834 0.96666 0.0
H1166 H 0.98232 0.00275 0.03351 0.0
H1167 H 0.97561 0.98557 0.95877 0.0
H1168 H 0.06694 0.02104 0.01837 0.0
H1169 H 0.02612 0.99731 0.0246 0.0
H1170 H -0.00116 0.02306 0.95593 0.0
H1171 H 0.0404 0.04463 0.94915 0.0
C1172 C 0.95126 0.97702 0.02328 0.0
C1173 C 0.93923 0.96323 0.00475 0.0
C1174 C 0.97279 0.99327 0.0187 0.0
C1175 C 0.98285 0.99576 0.99555 0.0
C1176 C 0.96881 0.98424 0.97685 0.0
C1177 C 0.94707 0.96851 0.98138 0.0
C1178 C 0.05251 0.02067 0.00432 0.0
C1179 C 0.05704 0.03425 0.98314 0.0
C1180 C 0.02877 0.0077 0.00809 0.0
C1181 C 0.00865 0.00867 0.99105 0.0
C1182 C 0.01374 0.02148 0.96946 0.0
C1183 C 0.03777 0.03376 0.96543 0.0
H1184 H 0.69968 0.7152 0.79951 0.0
H1185 H 0.72732 0.68288 0.7336 0.0
H1186 H 0.72025 0.75672 0.79018 0.0
H1187 H 0.75003 0.72375 0.72493 0.0
H1188 H 0.76985 0.80397 0.7018 0.0
H1189 H 0.74319 0.766 0.71206 0.0
H1190 H 0.75639 0.78178 0.78634 0.0
H1191 H 0.78091 0.82052 0.77602 0.0
C1192 C 0.71128 0.71661 0.78352 0.0
C1193 C 0.71217 0.69569 0.7674 0.0
C1194 C 0.72299 0.74061 0.77799 0.0
C1195 C 0.73655 0.74407 0.75649 0.0
C1196 C 0.73903 0.72235 0.74124 0.0
C1197 C 0.72665 0.69861 0.74647 0.0
C1198 C 0.76596 0.79997 0.72029 0.0
C1199 C 0.77774 0.81513 0.73808 0.0
C1200 C 0.75126 0.77772 0.72625 0.0
C1201 C 0.74834 0.76999 0.75009 0.0
C1202 C 0.75805 0.78675 0.76779 0.0
C1203 C 0.7722 0.80916 0.76185 0.0
H1204 H 0.7252 0.19564 0.20657 0.0
H1205 H 0.71385 0.18265 0.28133 0.0
H1206 H 0.75282 0.23334 0.21548 0.0
H1207 H 0.73908 0.22123 0.29025 0.0
H1208 H 0.79708 0.28652 0.30177 0.0
H1209 H 0.77548 0.24534 0.29354 0.0
H1210 H 0.74811 0.27626 0.22663 0.0
H1211 H 0.7721 0.31669 0.23422 0.0
C1212 C 0.72914 0.2004 0.2249 0.0
C1213 C 0.71704 0.1863 0.24321 0.0
C1214 C 0.74441 0.22251 0.23007 0.0
C1215 C 0.74754 0.2312 0.25363 0.0
C1216 C 0.73736 0.21552 0.27189 0.0
C1217 C 0.72273 0.19319 0.26675 0.0
C1218 C 0.78579 0.28476 0.28562 0.0
C1219 C 0.78594 0.30495 0.26877 0.0
C1220 C 0.77345 0.26094 0.28074 0.0
C1221 C 0.76018 0.25696 0.25916 0.0
C1222 C 0.75882 0.27802 0.24307 0.0
C1223 C 0.77193 0.30155 0.24765 0.0
H1224 H 0.7736 0.19561 0.79765 0.0
H1225 H 0.78528 0.18155 0.72307 0.0
H1226 H 0.74681 0.23372 0.78825 0.0
H1227 H 0.76067 0.22047 0.71366 0.0
H1228 H 0.70261 0.28629 0.70223 0.0
H1229 H 0.72411 0.24498 0.7104 0.0
H1230 H 0.75338 0.27646 0.77644 0.0
H1231 H 0.72972 0.31706 0.76893 0.0
C1232 C 0.76989 0.20022 0.77925 0.0
C1233 C 0.78186 0.18571 0.76113 0.0
C1234 C 0.7551 0.22254 0.7738 0.0
C1235 C 0.75229 0.23099 0.75016 0.0
C1236 C 0.76225 0.21492 0.73207 0.0
C1237 C 0.77647 0.19242 0.73749 0.0
C1238 C 0.71432 0.28464 0.71815 0.0
C1239 C 0.71473 0.30499 0.73486 0.0
C1240 C 0.72656 0.26076 0.723 0.0
C1241 C 0.74019 0.2569 0.74439 0.0
C1242 C 0.74231 0.27816 0.76019 0.0
C1243 C 0.72939 0.30177 0.75563 0.0
H1244 H 0.77189 0.68347 0.26519 0.0
H1245 H 0.79877 0.71496 0.19872 0.0
H1246 H 0.74937 0.72446 0.27372 0.0
H1247 H 0.77846 0.75666 0.2079 0.0
H1248 H 0.71572 0.81893 0.22139 0.0
H1249 H 0.74215 0.78136 0.21151 0.0
H1250 H 0.75558 0.76698 0.28598 0.0
H1251 H 0.727 0.80366 0.29578 0.0
C1252 C 0.77248 0.69907 0.2522 0.0
C1253 C 0.78658 0.69586 0.23111 0.0
C1254 C 0.76022 0.72289 0.25734 0.0
C1255 C 0.7625 0.74441 0.24184 0.0
C1256 C 0.77586 0.7407 0.22027 0.0
C1257 C 0.78741 0.71661 0.21484 0.0
C1258 C 0.72497 0.80822 0.23568 0.0
C1259 C 0.71877 0.81395 0.25937 0.0
C1260 C 0.7402 0.78645 0.23 0.0
C1261 C 0.75035 0.77024 0.2479 0.0
C1262 C 0.74711 0.7782 0.27165 0.0
C1263 C 0.73132 0.79975 0.27735 0.0
H1264 H 0.54913 0.47776 0.04642 0.0
H1265 H 0.53737 0.43182 0.98302 0.0
H1266 H 0.50736 0.49986 0.03921 0.0
H1267 H 0.49544 0.45205 0.97694 0.0
H1268 H 0.4418 0.52038 0.95556 0.0
H1269 H 0.47698 0.49003 0.96392 0.0
H1270 H 0.46151 0.49728 0.03891 0.0
H1271 H 0.42715 0.52903 0.03025 0.0
C1272 C 0.53769 0.47238 0.03103 0.0
C1273 C 0.54695 0.45338 0.01516 0.0
C1274 C 0.5135 0.48466 0.02706 0.0
C1275 C 0.4978 0.47775 0.00744 0.0
C1276 C 0.50703 0.45842 0.99191 0.0
C1277 C 0.5313 0.44675 0.99549 0.0
C1278 C 0.445 0.51443 0.97373 0.0
C1279 C 0.43185 0.52708 0.99224 0.0
C1280 C 0.4655 0.49717 0.97866 0.0
C1281 C 0.47279 0.49174 0.00223 0.0
C1282 C 0.45716 0.50174 0.0206 0.0
C1283 C 0.43698 0.51939 0.01565 0.0
H1284 H 0.05156 0.47593 0.45358 0.0
H1285 H 0.06675 0.46701 0.52825 0.0
H1286 H 0.01373 0.50327 0.46266 0.0
H1287 H 0.02808 0.49202 0.53744 0.0
H1288 H 0.96129 0.54839 0.54888 0.0
H1289 H 0.00293 0.52784 0.54038 0.0
H1290 H 0.9713 0.49729 0.47485 0.0
H1291 H 0.93037 0.52022 0.48261 0.0
C1292 C 0.04729 0.48042 0.4719 0.0
C1293 C 0.06196 0.469 0.49018 0.0
C1294 C 0.02511 0.4955 0.4772 0.0
C1295 C 0.01696 0.49911 0.50086 0.0
C1296 C 0.03334 0.48983 0.51901 0.0
C1297 C 0.05572 0.47537 0.51372 0.0
C1298 C 0.96303 0.53668 0.53297 0.0
C1299 C 0.94249 0.53568 0.5165 0.0
C1300 C 0.9871 0.52494 0.52794 0.0
C1301 C 0.99099 0.51112 0.50662 0.0
C1302 C 0.96961 0.5085 0.49102 0.0
C1303 C 0.94581 0.521 0.49573 0.0
H1304 H 0.03731 0.54265 0.05098 0.0
H1305 H 0.0663 0.516 0.98347 0.0
H1306 H 0.99528 0.52264 0.04289 0.0
H1307 H 0.025 0.49362 0.97609 0.0
H1308 H 0.94437 0.47325 0.95589 0.0
H1309 H 0.98229 0.50051 0.9649 0.0
H1310 H 0.96987 0.48688 0.03964 0.0
H1311 H 0.93111 0.46187 0.0306 0.0
C1312 C 0.03506 0.53146 0.03482 0.0
C1313 C 0.05516 0.53081 0.01788 0.0
C1314 C 0.01076 0.52002 0.03005 0.0
C1315 C 0.00622 0.50682 0.00852 0.0
C1316 C 0.02719 0.50443 0.99245 0.0
C1317 C 0.0512 0.51661 0.99692 0.0
C1318 C 0.94906 0.47721 0.97424 0.0
C1319 C 0.93495 0.46508 0.99251 0.0
C1320 C 0.9713 0.49225 0.97947 0.0
C1321 C 0.98005 0.49511 0.00303 0.0
C1322 C 0.96415 0.48524 0.02128 0.0
C1323 C 0.94172 0.47079 0.01607 0.0
H1324 H 0.56208 0.52222 0.51797 0.0
H1325 H 0.53522 0.54471 0.44852 0.0
H1326 H 0.52046 0.50053 0.52546 0.0
H1327 H 0.49294 0.52467 0.45644 0.0
H1328 H 0.43363 0.45774 0.47096 0.0
H1329 H 0.46973 0.48637 0.46098 0.0
H1330 H 0.47655 0.50889 0.5345 0.0
H1331 H 0.44118 0.47869 0.54453 0.0
C1332 C 0.54738 0.52208 0.50415 0.0
C1333 C 0.55206 0.53483 0.48257 0.0
C1334 C 0.52322 0.51027 0.50864 0.0
C1335 C 0.50286 0.51142 0.49185 0.0
C1336 C 0.50803 0.52324 0.46982 0.0
C1337 C 0.53244 0.53454 0.46514 0.0
C1338 C 0.44209 0.46974 0.48483 0.0
C1339 C 0.4349 0.4657 0.50856 0.0
C1340 C 0.46304 0.48609 0.47914 0.0
C1341 C 0.47692 0.4992 0.49705 0.0
C1342 C 0.46706 0.49819 0.52036 0.0
C1343 C 0.44624 0.48147 0.52609 0.0
H1344 H 0.12942 0.20392 0.35729 0.0
H1345 H 0.15439 0.25688 0.30206 0.0
H1346 H 0.12723 0.24013 0.3849 0.0
H1347 H 0.15254 0.29343 0.33017 0.0
H1348 H 0.11537 0.35357 0.38521 0.0
H1349 H 0.12137 0.32024 0.35426 0.0
H1350 H 0.15699 0.26866 0.40553 0.0
H1351 H 0.15054 0.30131 0.43614 0.0
C1352 C 0.13465 0.22327 0.35101 0.0
C1353 C 0.14222 0.22732 0.32738 0.0
C1354 C 0.13351 0.24412 0.36696 0.0
C1355 C 0.14001 0.26973 0.35988 0.0
C1356 C 0.14731 0.27398 0.33619 0.0
C1357 C 0.14846 0.25299 0.32012 0.0
C1358 C 0.12486 0.33526 0.38968 0.0
C1359 C 0.13211 0.32995 0.4132 0.0
C1360 C 0.1283 0.31616 0.37198 0.0
C1361 C 0.13915 0.29151 0.37752 0.0
C1362 C 0.14788 0.28707 0.40074 0.0
C1363 C 0.1443 0.30591 0.4183 0.0
H1364 H 0.0426 0.89588 0.60292 0.0
H1365 H 0.98931 0.89097 0.54369 0.0
H1366 H 0.00623 0.89073 0.63005 0.0
H1367 H 0.95258 0.88531 0.57125 0.0
H1368 H 0.89281 0.89787 0.63594 0.0
H1369 H 0.92567 0.90633 0.60485 0.0
H1370 H 0.97887 0.85282 0.63928 0.0
H1371 H 0.94686 0.84474 0.66987 0.0
C1372 C 0.02311 0.89375 0.59561 0.0
C1373 C 0.01905 0.89347 0.57102 0.0
C1374 C 0.00219 0.89071 0.61124 0.0
C1375 C 0.97651 0.88711 0.60284 0.0
C1376 C 0.97212 0.88803 0.57829 0.0
C1377 C 0.9932 0.89117 0.56252 0.0
C1378 C 0.91145 0.88779 0.63662 0.0
C1379 C 0.91736 0.87105 0.65566 0.0
C1380 C 0.93025 0.89262 0.61886 0.0
C1381 C 0.95515 0.88074 0.61993 0.0
C1382 C 0.96026 0.86295 0.63827 0.0
C1383 C 0.94176 0.85825 0.65582 0.0
H1384 H 0.35053 0.74095 0.80211 0.0
H1385 H 0.36453 0.79495 0.85967 0.0
H1386 H 0.35279 0.70423 0.8299 0.0
H1387 H 0.36708 0.75851 0.88708 0.0
H1388 H 0.34373 0.69364 0.93508 0.0
H1389 H 0.33792 0.72661 0.90465 0.0
H1390 H 0.38399 0.6802 0.85619 0.0
H1391 H 0.38953 0.64662 0.88686 0.0
C1392 C 0.35413 0.74504 0.82062 0.0
C1393 C 0.35721 0.77103 0.8286 0.0
C1394 C 0.35554 0.72396 0.83653 0.0
C1395 C 0.35988 0.72839 0.86077 0.0
C1396 C 0.36318 0.75435 0.86862 0.0
C1397 C 0.36185 0.77532 0.85281 0.0
C1398 C 0.35245 0.69022 0.91789 0.0
C1399 C 0.36739 0.66757 0.91355 0.0
C1400 C 0.34922 0.70927 0.90044 0.0
C1401 C 0.36094 0.70637 0.87812 0.0
C1402 C 0.37469 0.68305 0.87322 0.0
C1403 C 0.37787 0.6638 0.89078 0.0
H1404 H 0.54943 0.09999 0.18714 0.0
H1405 H 0.60229 0.13467 0.13642 0.0
H1406 H 0.51729 0.09293 0.15624 0.0
H1407 H 0.56945 0.12807 0.10516 0.0
H1408 H 0.50719 0.09324 0.05268 0.0
H1409 H 0.54328 0.09622 0.08116 0.0
H1410 H 0.4889 0.12203 0.13482 0.0
H1411 H 0.45314 0.11871 0.10686 0.0
C1412 C 0.55425 0.10604 0.16929 0.0
C1413 C 0.57832 0.11824 0.16433 0.0
C1414 C 0.53571 0.1021 0.15155 0.0
C1415 C 0.54047 0.11048 0.12828 0.0
C1416 C 0.56513 0.1214 0.12291 0.0
C1417 C 0.58394 0.1252 0.14079 0.0
C1418 C 0.50297 0.09952 0.07058 0.0
C1419 C 0.47712 0.10554 0.07745 0.0
C1420 C 0.52369 0.10134 0.08686 0.0
C1421 C 0.519 0.10909 0.11038 0.0
C1422 C 0.49322 0.11542 0.11704 0.0
C1423 C 0.47264 0.11362 0.10088 0.0
H1424 H 0.10931 0.70569 0.06324 0.0
H1425 H 0.14175 0.64515 0.1079 0.0
H1426 H 0.11755 0.73793 0.09359 0.0
H1427 H 0.15085 0.67808 0.13846 0.0
H1428 H 0.13562 0.74298 0.19582 0.0
H1429 H 0.13057 0.70759 0.16696 0.0
H1430 H 0.15274 0.76081 0.111 0.0
H1431 H 0.15679 0.79612 0.13953 0.0
C1432 C 0.11851 0.69923 0.07949 0.0
C1433 C 0.12508 0.67274 0.08295 0.0
C1434 C 0.12341 0.71788 0.09693 0.0
C1435 C 0.13532 0.71081 0.1184 0.0
C1436 C 0.1416 0.68424 0.12216 0.0
C1437 C 0.13648 0.66537 0.10462 0.0
C1438 C 0.1396 0.74702 0.17736 0.0
C1439 C 0.14621 0.7725 0.16995 0.0
C1440 C 0.13681 0.72669 0.16082 0.0
C1441 C 0.1408 0.73138 0.13654 0.0
C1442 C 0.14874 0.75658 0.12942 0.0
C1443 C 0.15121 0.77687 0.14584 0.0
H1444 H 0.50607 0.89688 0.45208 0.0
H1445 H 0.45233 0.87645 0.39596 0.0
H1446 H 0.5426 0.8946 0.424 0.0
H1447 H 0.48852 0.87378 0.36836 0.0
H1448 H 0.55048 0.89766 0.318 0.0
H1449 H 0.51793 0.90329 0.34878 0.0
H1450 H 0.56865 0.8642 0.39866 0.0
H1451 H 0.60191 0.85903 0.36753 0.0
C1452 C 0.50202 0.89179 0.43384 0.0
C1453 C 0.47612 0.88707 0.42632 0.0
C1454 C 0.523 0.8904 0.41777 0.0
C1455 C 0.51854 0.88433 0.39381 0.0
C1456 C 0.49271 0.87913 0.38651 0.0
C1457 C 0.47187 0.88055 0.40245 0.0
C1458 C 0.55492 0.89046 0.33557 0.0
C1459 C 0.57872 0.87759 0.3402 0.0
C1460 C 0.53611 0.89355 0.35324 0.0
C1461 C 0.54031 0.88364 0.37611 0.0
C1462 C 0.56473 0.87204 0.38122 0.0
C1463 C 0.58381 0.86909 0.36342 0.0
H1464 H 0.39019 0.34921 0.61689 0.0
H1465 H 0.33645 0.30763 0.57139 0.0
H1466 H 0.38367 0.31593 0.64765 0.0
H1467 H 0.32955 0.27502 0.602 0.0
H1468 H 0.35308 0.20352 0.64466 0.0
H1469 H 0.35578 0.24004 0.61738 0.0
H1470 H 0.35373 0.29435 0.67595 0.0
H1471 H 0.35148 0.25748 0.70358 0.0
C1472 C 0.37655 0.33335 0.61365 0.0
C1473 C 0.36411 0.33094 0.59155 0.0
C1474 C 0.37281 0.31425 0.63127 0.0
C1475 C 0.35648 0.29244 0.62716 0.0
C1476 C 0.34284 0.29108 0.60559 0.0
C1477 C 0.34668 0.30994 0.58805 0.0
C1478 C 0.35305 0.22319 0.65186 0.0
C1479 C 0.35195 0.2274 0.67643 0.0
C1480 C 0.35445 0.24425 0.63612 0.0
C1481 C 0.35475 0.27026 0.64438 0.0
C1482 C 0.35368 0.27459 0.66895 0.0
C1483 C 0.35222 0.25342 0.68479 0.0
H1484 H 0.89781 0.10096 0.86055 0.0
H1485 H 0.94965 0.15823 0.82934 0.0
H1486 H 0.93089 0.09201 0.89124 0.0
H1487 H 0.98196 0.14967 0.85967 0.0
H1488 H 0.04701 0.10576 0.89369 0.0
H1489 H 0.01055 0.1119 0.8668 0.0
H1490 H 0.95671 0.11199 0.92567 0.0
H1491 H 0.99343 0.10534 0.95292 0.0
C1492 C 0.91599 0.11189 0.86047 0.0
C1493 C 0.92133 0.12992 0.8423 0.0
C1494 C 0.9349 0.10677 0.87797 0.0
C1495 C 0.95929 0.11968 0.87749 0.0
C1496 C 0.96374 0.1388 0.86013 0.0
C1497 C 0.94511 0.14378 0.84278 0.0
C1498 C 0.02745 0.10691 0.90103 0.0
C1499 C 0.02328 0.10543 0.92556 0.0
C1500 C 0.00651 0.11054 0.88557 0.0
C1501 C 0.98079 0.11293 0.89415 0.0
C1502 C 0.97632 0.11025 0.91855 0.0
C1503 C 0.99739 0.10655 0.93414 0.0
H1504 H 0.8513 0.64637 0.60752 0.0
H1505 H 0.8809 0.70863 0.56314 0.0
H1506 H 0.83988 0.67876 0.63791 0.0
H1507 H 0.87039 0.74037 0.5933 0.0
H1508 H 0.83015 0.79689 0.63944 0.0
H1509 H 0.83427 0.76161 0.61077 0.0
H1510 H 0.85869 0.70889 0.66636 0.0
H1511 H 0.85345 0.74409 0.69527 0.0
C1512 C 0.85546 0.66686 0.60428 0.0
C1513 C 0.86678 0.67486 0.58277 0.0
C1514 C 0.84898 0.68542 0.62169 0.0
C1515 C 0.85381 0.71229 0.61794 0.0
C1516 C 0.86559 0.72003 0.59661 0.0
C1517 C 0.87184 0.70167 0.57929 0.0
C1518 C 0.83605 0.77768 0.6456 0.0
C1519 C 0.84172 0.77337 0.66958 0.0
C1520 C 0.83859 0.75745 0.62914 0.0
C1521 C 0.84739 0.73248 0.63613 0.0
C1522 C 0.85178 0.72779 0.66033 0.0
C1523 C 0.84885 0.74801 0.6769 0.0
H1524 H 0.95067 0.09088 0.39563 0.0
H1525 H 0.00403 0.11777 0.44981 0.0
H1526 H 0.98519 0.09485 0.36627 0.0
H1527 H 0.03849 0.12244 0.42015 0.0
H1528 H 0.03795 0.13963 0.31665 0.0
H1529 H 0.00643 0.13117 0.34757 0.0
H1530 H 0.06776 0.10011 0.3921 0.0
H1531 H 0.09991 0.10922 0.36096 0.0
C1532 C 0.96978 0.09763 0.4013 0.0
C1533 C 0.97447 0.10426 0.42504 0.0
C1534 C 0.98958 0.1 0.38443 0.0
C1535 C 0.01452 0.10934 0.39079 0.0
C1536 C 0.01956 0.11504 0.41469 0.0
C1537 C -0.00025 0.11247 0.43166 0.0
C1538 C 0.0449 0.13091 0.33295 0.0
C1539 C 0.07155 0.12496 0.3362 0.0
C1540 C 0.02668 0.12588 0.35068 0.0
C1541 C 0.03446 0.1146 0.37221 0.0
C1542 C 0.06115 0.10888 0.37571 0.0
C1543 C 0.07955 0.11401 0.35786 0.0
H1544 H 0.65916 0.30586 0.07209 0.0
H1545 H 0.61128 0.35024 0.12059 0.0
H1546 H 0.66763 0.27354 0.10265 0.0
H1547 H 0.61912 0.31717 0.15134 0.0
H1548 H 0.65216 0.2569 0.20508 0.0
H1549 H 0.65027 0.294 0.1777 0.0
H1550 H 0.64012 0.24028 0.11936 0.0
H1551 H 0.64252 0.20352 0.14631 0.0
C1552 C 0.65065 0.30882 0.08945 0.0
C1553 C 0.63431 0.3304 0.09389 0.0
C1554 C 0.65536 0.29019 0.10693 0.0
C1555 C 0.64354 0.29238 0.12928 0.0
C1556 C 0.62854 0.31489 0.1343 0.0
C1557 C 0.62404 0.33384 0.11674 0.0
C1558 C 0.64975 0.25303 0.18637 0.0
C1559 C 0.64765 0.22713 0.17794 0.0
C1560 C 0.64851 0.27432 0.17072 0.0
C1561 C 0.64527 0.27015 0.1463 0.0
C1562 C 0.64321 0.24426 0.13797 0.0
C1563 C 0.64443 0.22309 0.15352 0.0
H1564 H 0.39415 0.8929 0.86346 0.0
H1565 H 0.45663 0.86518 0.8183 0.0
H1566 H 0.42652 0.90324 0.89426 0.0
H1567 H 0.48821 0.87475 0.84873 0.0
H1568 H 0.54419 0.91504 0.89523 0.0
H1569 H 0.50857 0.91148 0.86692 0.0
H1570 H 0.4575 0.8826 0.92198 0.0
H1571 H 0.4931 0.88709 0.95064 0.0
C1572 C 0.41465 0.88898 0.8601 0.0
C1573 C 0.42273 0.8785 0.83826 0.0
C1574 C 0.43318 0.89483 0.87774 0.0
C1575 C 0.46005 0.89027 0.87382 0.0
C1576 C 0.46785 0.87931 0.85217 0.0
C1577 C 0.44956 0.87363 0.83468 0.0
C1578 C 0.52531 0.90818 0.90138 0.0
C1579 C 0.52161 0.90101 0.92512 0.0
C1580 C 0.50487 0.90603 0.88513 0.0
C1581 C 0.48028 0.89622 0.89205 0.0
C1582 C 0.47613 0.89029 0.91605 0.0
C1583 C 0.49658 0.89276 0.93245 0.0
H1584 H 0.83718 0.30402 0.93519 0.0
H1585 H 0.88249 0.35052 0.88632 0.0
H1586 H 0.82865 0.27206 0.90431 0.0
H1587 H 0.8747 0.31779 0.85525 0.0
H1588 H 0.84269 0.25759 0.80107 0.0
H1589 H 0.84404 0.29426 0.82903 0.0
H1590 H 0.85581 0.2397 0.88645 0.0
H1591 H 0.85388 0.20344 0.85898 0.0
C1592 C 0.84516 0.3075 0.91771 0.0
C1593 C 0.86077 0.32961 0.91324 0.0
C1594 C 0.84041 0.28907 0.90002 0.0
C1595 C 0.85151 0.29196 0.87742 0.0
C1596 C 0.86582 0.31494 0.87246 0.0
C1597 C 0.87031 0.33369 0.89022 0.0
C1598 C 0.84531 0.25345 0.81971 0.0
C1599 C 0.84805 0.22745 0.82772 0.0
C1600 C 0.84625 0.2745 0.8357 0.0
C1601 C 0.84983 0.26999 0.86005 0.0
C1602 C 0.85243 0.24399 0.86794 0.0
C1603 C 0.85149 0.22308 0.85207 0.0
H1604 H 0.54332 0.09395 0.61061 0.0
H1605 H 0.49086 0.09966 0.55082 0.0
H1606 H 0.50671 0.1006 0.63734 0.0
H1607 H 0.45404 0.10675 0.57787 0.0
H1608 H 0.39345 0.09792 0.64221 0.0
H1609 H 0.4263 0.08717 0.61174 0.0
H1610 H 0.48078 0.14059 0.64473 0.0
H1611 H 0.44866 0.15098 0.67475 0.0
C1612 C 0.52395 0.09643 0.60313 0.0
C1613 C 0.52015 0.09663 0.57852 0.0
C1614 C 0.50294 0.10034 0.61848 0.0
C1615 C 0.47757 0.10472 0.60968 0.0
C1616 C 0.47338 0.10345 0.58515 0.0
C1617 C 0.4945 0.09945 0.56969 0.0
C1618 C 0.41234 0.10756 0.64263 0.0
C1619 C 0.41864 0.12492 0.6611 0.0
C1620 C 0.43112 0.10138 0.62528 0.0
C1621 C 0.45635 0.11253 0.62625 0.0
C1622 C 0.46185 0.13104 0.64391 0.0
C1623 C 0.44333 0.13709 0.66107 0.0
H1624 H 0.63626 0.74153 0.30098 0.0
H1625 H 0.66335 0.79331 0.35629 0.0
H1626 H 0.6313 0.70626 0.32991 0.0
H1627 H 0.65927 0.75802 0.3849 0.0
H1628 H 0.61212 0.70652 0.4333 0.0
H1629 H 0.62206 0.73784 0.40269 0.0
H1630 H 0.65171 0.67571 0.3582 0.0
H1631 H 0.64104 0.64367 0.38915 0.0
C1632 C 0.64168 0.74522 0.31921 0.0
C1633 C 0.64982 0.77033 0.32643 0.0
C1634 C 0.63892 0.72498 0.33577 0.0
C1635 C 0.64444 0.72943 0.35981 0.0
C1636 C 0.65415 0.7541 0.36664 0.0
C1637 C 0.65661 0.77433 0.35022 0.0
C1638 C 0.62088 0.69932 0.4171 0.0
C1639 C 0.626 0.67248 0.41384 0.0
C1640 C 0.62677 0.71744 0.39952 0.0
C1641 C 0.63817 0.70942 0.37812 0.0
C1642 C 0.64294 0.68253 0.37452 0.0
C1643 C 0.63689 0.66419 0.39224 0.0
H1644 H 0.10195 0.86119 0.13122 0.0
H1645 H 0.0512 0.89995 0.18123 0.0
H1646 H 0.06882 0.86706 0.10023 0.0
H1647 H 0.01881 0.90681 0.15043 0.0
H1648 H 0.95291 0.88104 0.10291 0.0
H1649 H 0.98872 0.87907 0.13093 0.0
H1650 H 0.04377 0.89621 0.07497 0.0
H1651 H 0.00771 0.89737 0.04654 0.0
C1652 C 0.08402 0.87153 0.13539 0.0
C1653 C 0.07894 0.8798 0.15863 0.0
C1654 C 0.06504 0.87493 0.11769 0.0
C1655 C 0.04085 0.88691 0.12296 0.0
C1656 C 0.03678 0.89674 0.14589 0.0
C1657 C 0.05545 0.89301 0.16352 0.0
C1658 C 0.9726 0.88452 0.09651 0.0
C1659 C 0.97735 0.8895 0.07245 0.0
C1660 C 0.99321 0.88355 0.11265 0.0
C1661 C 0.01919 0.88783 0.10531 0.0
C1662 C 0.02404 0.89268 0.08122 0.0
C1663 C 0.00335 0.89346 0.06495 0.0
H1664 H 0.62975 0.70459 0.85605 0.0
H1665 H 0.64843 0.758 0.79917 0.0
H1666 H 0.62744 0.74106 0.88342 0.0
H1667 H 0.64645 0.79479 0.82699 0.0
H1668 H 0.61041 0.85385 0.88368 0.0
H1669 H 0.61568 0.82044 0.85267 0.0
H1670 H 0.65741 0.77122 0.90203 0.0
H1671 H 0.65175 0.80394 0.93271 0.0
C1672 C 0.63352 0.7241 0.84933 0.0
C1673 C 0.63943 0.72819 0.82533 0.0
C1674 C 0.63232 0.7451 0.86514 0.0
C1675 C 0.63708 0.77091 0.85752 0.0
C1676 C 0.6426 0.77519 0.83344 0.0
C1677 C 0.64383 0.75406 0.81753 0.0
C1678 C 0.6211 0.83607 0.88769 0.0
C1679 C 0.63032 0.8314 0.91075 0.0
C1680 C 0.6241 0.81692 0.86996 0.0
C1681 C 0.63646 0.79286 0.87501 0.0
C1682 C 0.64712 0.78913 0.89767 0.0
C1683 C 0.644 0.80802 0.91526 0.0
H1684 H 0.49023 0.39144 0.05055 0.0
H1685 H 0.54197 0.38763 0.11097 0.0
H1686 H 0.45236 0.39061 0.07711 0.0
H1687 H 0.50438 0.38649 0.1372 0.0
H1688 H 0.43652 0.41079 0.18075 0.0
H1689 H 0.47008 0.41575 0.15065 0.0
H1690 H 0.42878 0.36137 0.10554 0.0
H1691 H 0.39462 0.35669 0.13583 0.0
C1692 C 0.49359 0.39041 0.06945 0.0
C1693 C 0.51928 0.38975 0.07856 0.0
C1694 C 0.47184 0.38981 0.08465 0.0
C1695 C 0.47528 0.38875 0.10932 0.0
C1696 C 0.50095 0.38787 0.11833 0.0
C1697 C 0.52259 0.38836 0.10322 0.0
C1698 C 0.43429 0.40018 0.16426 0.0
C1699 C 0.41299 0.38312 0.16081 0.0
C1700 C 0.45368 0.40288 0.14705 0.0
C1701 C 0.45251 0.38848 0.12589 0.0
C1702 C 0.43031 0.37273 0.12167 0.0
C1703 C 0.41069 0.37009 0.13898 0.0
H1704 H 0.88492 0.14869 0.38807 0.0
H1705 H 0.8448 0.19877 0.43786 0.0
H1706 H 0.87978 0.18229 0.35741 0.0
H1707 H 0.83917 0.23176 0.4074 0.0
H1708 H 0.86615 0.29813 0.36031 0.0
H1709 H 0.868 0.26205 0.38817 0.0
H1710 H 0.84968 0.20752 0.33212 0.0
H1711 H 0.84827 0.2438 0.30389 0.0
C1712 C 0.87453 0.16658 0.39233 0.0
C1713 C 0.86557 0.17117 0.4155 0.0
C1714 C 0.87159 0.18585 0.37478 0.0
C1715 C 0.85952 0.20999 0.38005 0.0
C1716 C 0.84923 0.21377 0.40285 0.0
C1717 C 0.85232 0.19472 0.42032 0.0
C1718 C 0.86242 0.27851 0.35382 0.0
C1719 C 0.85697 0.274 0.32979 0.0
C1720 C 0.86334 0.25775 0.36989 0.0
C1721 C 0.85873 0.23182 0.36249 0.0
C1722 C 0.85348 0.2272 0.33842 0.0
C1723 C 0.85257 0.24804 0.32226 0.0
H1724 H 0.00507 0.60502 0.54623 0.0
H1725 H 0.95224 0.611 0.60572 0.0
H1726 H 0.04245 0.60651 0.57329 0.0
H1727 H 0.98945 0.61262 0.63251 0.0
H1728 H 0.05719 0.58691 0.67658 0.0
H1729 H 0.02365 0.58257 0.64644 0.0
H1730 H 0.06545 0.63701 0.60185 0.0
H1731 H 0.09951 0.64133 0.6323 0.0
C1732 C 0.00137 0.60666 0.56504 0.0
C1733 C 0.97551 0.60778 0.57374 0.0
C1734 C 0.02284 0.60764 0.58052 0.0
C1735 C 0.01899 0.60948 0.60509 0.0
C1736 C 0.99316 0.61076 0.61372 0.0
C1737 C 0.97176 0.60997 0.5983 0.0
C1738 C 0.05953 0.59776 0.66025 0.0
C1739 C 0.08098 0.61472 0.65703 0.0
C1740 C 0.04014 0.59538 0.643 0.0
C1741 C 0.04151 0.60987 0.62193 0.0
C1742 C 0.06378 0.62559 0.61792 0.0
C1743 C 0.08334 0.62802 0.63533 0.0
H1744 H 0.64669 0.19609 0.56878 0.0
H1745 H 0.61134 0.14477 0.6204 0.0
H1746 H 0.65362 0.22906 0.59898 0.0
H1747 H 0.6178 0.17848 0.65097 0.0
H1748 H 0.65248 0.24134 0.70255 0.0
H1749 H 0.64922 0.20476 0.67465 0.0
H1750 H 0.62549 0.2586 0.61978 0.0
H1751 H 0.62918 0.29491 0.64724 0.0
C1752 C 0.64045 0.19179 0.58669 0.0
C1753 C 0.62814 0.16787 0.59209 0.0
C1754 C 0.64429 0.21084 0.60402 0.0
C1755 C 0.63572 0.20677 0.62734 0.0
C1756 C 0.62463 0.18229 0.63317 0.0
C1757 C 0.62092 0.16297 0.61569 0.0
C1758 C 0.64662 0.24536 0.68451 0.0
C1759 C 0.64129 0.27121 0.67717 0.0
C1760 C 0.64462 0.22434 0.66855 0.0
C1761 C 0.63733 0.22868 0.64487 0.0
C1762 C 0.63172 0.2545 0.63771 0.0
C1763 C 0.63374 0.27541 0.65356 0.0
H1764 H 0.00299 0.40234 0.95051 0.0
H1765 H 0.94824 0.3851 0.89433 0.0
H1766 H 0.039 0.40131 0.92202 0.0
H1767 H 0.98402 0.38332 0.86623 0.0
H1768 H 0.04698 0.40443 0.81579 0.0
H1769 H 0.01409 0.41064 0.84626 0.0
H1770 H 0.06437 0.37227 0.89703 0.0
H1771 H 0.09792 0.36687 0.8664 0.0
C1772 C -0.0014 0.39829 0.93213 0.0
C1773 C 0.97261 0.39397 0.92475 0.0
C1774 C 0.01929 0.39756 0.9158 0.0
C1775 C 0.01449 0.39244 0.89173 0.0
C1776 C 0.9885 0.38796 0.88448 0.0
C1777 C 0.96789 0.38882 0.90069 0.0
C1778 C 0.05119 0.39757 0.83352 0.0
C1779 C 0.07498 0.38493 0.83861 0.0
C1780 C 0.0322 0.40095 0.85099 0.0
C1781 C 0.03623 0.39145 0.87405 0.0
C1782 C 0.06058 0.37991 0.8795 0.0
C1783 C 0.07983 0.37679 0.86196 0.0
H1784 H 0.88637 0.85023 0.11132 0.0
H1785 H 0.84318 0.80069 0.0632 0.0
H1786 H 0.8813 0.81716 0.1425 0.0
H1787 H 0.83771 0.76822 0.09416 0.0
H1788 H 0.86617 0.70167 0.14014 0.0
H1789 H 0.86768 0.73779 0.11237 0.0
H1790 H 0.85108 0.79231 0.16885 0.0
H1791 H 0.84992 0.7559 0.19704 0.0
C1792 C 0.87529 0.83262 0.10756 0.0
C1793 C 0.86548 0.82795 0.08469 0.0
C1794 C 0.87241 0.81365 0.1254 0.0
C1795 C 0.85958 0.78976 0.12068 0.0
C1796 C 0.84835 0.78603 0.09825 0.0
C1797 C 0.85135 0.80476 0.08051 0.0
C1798 C 0.86276 0.72129 0.14677 0.0
C1799 C 0.85781 0.72575 0.1709 0.0
C1800 C 0.86349 0.74207 0.13075 0.0
C1801 C 0.85919 0.76799 0.13828 0.0
C1802 C 0.85457 0.77261 0.16246 0.0
C1803 C 0.85383 0.75171 0.1786 0.0
H1804 H 0.48977 0.59905 0.45324 0.0
H1805 H 0.5417 0.60969 0.39361 0.0
H1806 H 0.45212 0.59964 0.42643 0.0
H1807 H 0.50429 0.61046 0.36715 0.0
H1808 H 0.43831 0.58514 0.32195 0.0
H1809 H 0.47153 0.57971 0.3523 0.0
H1810 H 0.42762 0.63014 0.39909 0.0
H1811 H 0.39382 0.63531 0.36849 0.0
C1812 C 0.49321 0.60154 0.43447 0.0
C1813 C 0.51889 0.60424 0.42563 0.0
C1814 C 0.47159 0.60197 0.41914 0.0
C1815 C 0.47517 0.60485 0.39463 0.0
C1816 C 0.50081 0.6077 0.38588 0.0
C1817 C 0.52233 0.60741 0.40113 0.0
C1818 C 0.43543 0.59472 0.33886 0.0
C1819 C 0.41355 0.61088 0.34273 0.0
C1820 C 0.4546 0.59175 0.35621 0.0
C1821 C 0.45258 0.605 0.37791 0.0
C1822 C 0.42978 0.6197 0.38252 0.0
C1823 C 0.41038 0.6226 0.36506 0.0
H1824 H 0.37914 0.20802 0.06226 0.0
H1825 H 0.36177 0.14496 0.11086 0.0
H1826 H 0.37103 0.23972 0.09314 0.0
H1827 H 0.35288 0.17718 0.14195 0.0
H1828 H 0.37203 0.24305 0.19655 0.0
H1829 H 0.3757 0.20874 0.16672 0.0
H1830 H 0.33687 0.25876 0.11604 0.0
H1831 H 0.33389 0.29329 0.14557 0.0
C1832 C 0.37329 0.20084 0.07949 0.0
C1833 C 0.37111 0.1738 0.08399 0.0
C1834 C 0.36843 0.21916 0.09723 0.0
C1835 C 0.36109 0.21109 0.12003 0.0
C1836 C 0.3587 0.18407 0.12462 0.0
C1837 C 0.36366 0.1656 0.10677 0.0
C1838 C 0.3641 0.24667 0.17909 0.0
C1839 C 0.35291 0.27108 0.17341 0.0
C1840 C 0.36607 0.2269 0.16201 0.0
C1841 C 0.3568 0.23103 0.13889 0.0
C1842 C 0.34473 0.25508 0.13352 0.0
C1843 C 0.34292 0.27489 0.1505 0.0
H1844 H 0.50462 0.62439 0.94841 0.0
H1845 H 0.45624 0.58194 0.89874 0.0
H1846 H 0.53913 0.62764 0.91868 0.0
H1847 H 0.49095 0.58438 0.86942 0.0
H1848 H 0.53968 0.62551 0.81403 0.0
H1849 H 0.50852 0.61796 0.8453 0.0
H1850 H 0.5718 0.60522 0.8947 0.0
H1851 H 0.60358 0.61365 0.86307 0.0
C1852 C 0.50148 0.61543 0.93127 0.0
C1853 C 0.47749 0.60322 0.92585 0.0
C1854 C 0.52136 0.61715 0.91427 0.0
C1855 C 0.51776 0.60654 0.89154 0.0
C1856 C 0.49419 0.59334 0.88655 0.0
C1857 C 0.47427 0.59186 0.9034 0.0
C1858 C 0.54719 0.62096 0.83147 0.0
C1859 C 0.5743 0.62015 0.83593 0.0
C1860 C 0.52916 0.61641 0.84946 0.0
C1861 C 0.53755 0.61068 0.87253 0.0
C1862 C 0.56466 0.60973 0.87714 0.0
C1863 C 0.58287 0.61442 0.859 0.0
H1864 H 0.16203 0.70865 0.64793 0.0
H1865 H 0.11094 0.7527 0.69412 0.0
H1866 H 0.16053 0.74381 0.61912 0.0
H1867 H 0.1088 0.78781 0.66471 0.0
H1868 H 0.12298 0.79076 0.5608 0.0
H1869 H 0.12827 0.75954 0.59237 0.0
H1870 H 0.13261 0.82262 0.64319 0.0
H1871 H 0.12648 0.85451 0.61112 0.0
C1872 C 0.15034 0.72579 0.65192 0.0
C1873 C 0.1363 0.72762 0.67325 0.0
C1874 C 0.14944 0.746 0.63534 0.0
C1875 C 0.13424 0.76853 0.63941 0.0
C1876 C 0.12083 0.77082 0.66105 0.0
C1877 C 0.1219 0.75059 0.67783 0.0
C1878 C 0.12518 0.79825 0.57862 0.0
C1879 C 0.12434 0.82534 0.5833 0.0
C1880 C 0.12843 0.78019 0.59681 0.0
C1881 C 0.13115 0.78849 0.62035 0.0
C1882 C 0.13045 0.81556 0.62523 0.0
C1883 C 0.12713 0.83384 0.60685 0.0
H1884 H 0.94905 0.40389 0.31551 0.0
H1885 H 0.8983 0.3672 0.3668 0.0
H1886 H 0.98146 0.41195 0.34606 0.0
H1887 H 0.93142 0.37442 0.39756 0.0
H1888 H 0.99298 0.40692 0.45013 0.0
H1889 H 0.95676 0.40508 0.42181 0.0
H1890 H 0.01127 0.38436 0.36642 0.0
H1891 H 0.04717 0.38686 0.39423 0.0
C1892 C 0.94479 0.39763 0.33342 0.0
C1893 C 0.92129 0.38462 0.33872 0.0
C1894 C 0.96346 0.40211 0.35093 0.0
C1895 C 0.95937 0.39328 0.37419 0.0
C1896 C 0.9352 0.38151 0.37984 0.0
C1897 C 0.91624 0.37733 0.36225 0.0
C1898 C 0.9972 0.40212 0.43186 0.0
C1899 C 0.02307 0.39723 0.42447 0.0
C1900 C 0.97641 0.40094 0.41566 0.0
C1901 C 0.98108 0.39484 0.39176 0.0
C1902 C 0.00694 0.38978 0.38453 0.0
C1903 C 0.02761 0.39106 0.40059 0.0
H1904 H 0.38348 0.84771 0.388 0.0
H1905 H 0.34271 0.79884 0.43828 0.0
H1906 H 0.37693 0.81439 0.3574 0.0
H1907 H 0.33523 0.7662 0.40775 0.0
H1908 H 0.35972 0.69914 0.36035 0.0
H1909 H 0.36181 0.73494 0.38845 0.0
H1910 H 0.34731 0.79036 0.33217 0.0
H1911 H 0.34605 0.75435 0.30371 0.0
C1912 C 0.37258 0.83015 0.39233 0.0
C1913 C 0.3639 0.8257 0.41556 0.0
C1914 C 0.36878 0.81105 0.37482 0.0
C1915 C 0.35597 0.78734 0.38021 0.0
C1916 C 0.34587 0.78382 0.40312 0.0
C1917 C 0.34998 0.80264 0.4206 0.0
C1918 C 0.35681 0.71891 0.3539 0.0
C1919 C 0.35264 0.7238 0.32974 0.0
C1920 C 0.35785 0.73951 0.37009 0.0
C1921 C 0.35447 0.7656 0.36266 0.0
C1922 C 0.3502 0.77055 0.33849 0.0
C1923 C 0.34935 0.74987 0.3222 0.0
H1924 H 0.89583 0.63016 0.13189 0.0
H1925 H 0.94719 0.59383 0.18293 0.0
H1926 H 0.92888 0.62314 0.10096 0.0
H1927 H 0.97959 0.58634 0.15227 0.0
H1928 H 0.04447 0.61483 0.10442 0.0
H1929 H 0.00821 0.61679 0.13193 0.0
H1930 H 0.95525 0.59096 0.07712 0.0
H1931 H 0.99183 0.58928 0.0491 0.0
C1932 C 0.91386 0.62014 0.13636 0.0
C1933 C 0.91911 0.61293 0.15989 0.0
C1934 C 0.93276 0.61612 0.11868 0.0
C1935 C 0.95709 0.6047 0.12429 0.0
C1936 C 0.96138 0.59585 0.14749 0.0
C1937 C 0.94273 0.60004 0.16505 0.0
C1938 C 0.02519 0.60943 0.0981 0.0
C1939 C 0.02119 0.60178 0.07449 0.0
C1940 C 0.00434 0.61043 0.11398 0.0
C1941 C 0.97886 0.60372 0.10681 0.0
C1942 C 0.97465 0.59632 0.08315 0.0
C1943 C 0.99563 0.59528 0.06715 0.0
H1944 H 0.12258 0.29706 0.85667 0.0
H1945 H 0.15042 0.24476 0.80203 0.0
H1946 H 0.12153 0.26102 0.8845 0.0
H1947 H 0.1498 0.20841 0.83035 0.0
H1948 H 0.11632 0.14704 0.8856 0.0
H1949 H 0.12035 0.18035 0.85451 0.0
H1950 H 0.15259 0.23451 0.90553 0.0
H1951 H 0.14799 0.20179 0.93636 0.0
C1952 C 0.12862 0.27787 0.85057 0.0
C1953 C 0.13676 0.27393 0.82709 0.0
C1954 C 0.12815 0.25715 0.86663 0.0
C1955 C 0.13598 0.23184 0.8598 0.0
C1956 C 0.14359 0.22764 0.83618 0.0
C1957 C 0.14399 0.24849 0.81997 0.0
C1958 C 0.12465 0.16594 0.89001 0.0
C1959 C 0.13149 0.1719 0.91351 0.0
C1960 C 0.12695 0.18503 0.87222 0.0
C1961 C 0.13626 0.21031 0.87763 0.0
C1962 C 0.14461 0.21553 0.90085 0.0
C1963 C 0.14213 0.19668 0.91853 0.0
H1964 H 0.60282 0.38148 0.64127 0.0
H1965 H 0.53959 0.37375 0.69166 0.0
H1966 H 0.57073 0.38783 0.60958 0.0
H1967 H 0.508 0.37926 0.66027 0.0
H1968 H 0.45594 0.41256 0.60459 0.0
H1969 H 0.49041 0.41105 0.63413 0.0
H1970 H 0.53773 0.36375 0.58732 0.0
H1971 H 0.50342 0.36594 0.55731 0.0
C1972 C 0.58217 0.38124 0.64564 0.0
C1973 C 0.57389 0.37718 0.66909 0.0
C1974 C 0.56377 0.38468 0.62745 0.0
C1975 C 0.53673 0.38417 0.63235 0.0
C1976 C 0.5286 0.38031 0.65583 0.0
C1977 C 0.54685 0.37696 0.6739 0.0
C1978 C 0.47369 0.40187 0.6005 0.0
C1979 C 0.47674 0.38915 0.57861 0.0
C1980 C 0.49348 0.40093 0.61752 0.0
C1981 C 0.51679 0.38703 0.61326 0.0
C1982 C 0.52016 0.37483 0.59114 0.0
C1983 C 0.50038 0.37594 0.57398 0.0
H1984 H 0.03001 0.18294 0.23991 0.0
H1985 H 0.07915 0.24726 0.26265 0.0
H1986 H 0.99242 0.21224 0.23905 0.0
H1987 H 0.04145 0.27624 0.2625 0.0
H1988 H 0.97075 0.32601 0.24205 0.0
H1989 H 0.00929 0.29802 0.23796 0.0
H1990 H 0.96633 0.23351 0.26879 0.0
H1991 H 0.92789 0.26102 0.27224 0.0
C1992 C 0.03279 0.2033 0.2447 0.0
C1993 C 0.05747 0.21273 0.25152 0.0
C1994 C 0.01126 0.22006 0.24429 0.0
C1995 C 0.01397 0.24646 0.25094 0.0
C1996 C 0.03881 0.25607 0.25705 0.0
C1997 C 0.06037 0.23939 0.25725 0.0
C1998 C 0.96964 0.30586 0.24796 0.0
C1999 C 0.94631 0.29567 0.25734 0.0
C2000 C 0.99166 0.28986 0.24564 0.0
C2001 C 0.99071 0.26351 0.25282 0.0
C2002 C 0.96747 0.25353 0.26253 0.0
C2003 C 0.9455 0.26939 0.26467 0.0
H2004 H 0.06838 0.77862 0.48695 0.0
H2005 H 0.00351 0.82586 0.51146 0.0
H2006 H 0.03963 0.74055 0.48502 0.0
H2007 H 0.97514 0.78776 0.51033 0.0
H2008 H 0.92519 0.71961 0.48654 0.0
H2009 H 0.95378 0.7578 0.484 0.0
H2010 H 0.01783 0.71204 0.51221 0.0
H2011 H 0.98967 0.67385 0.51395 0.0
C2012 C 0.04805 0.78082 0.49202 0.0
C2013 C 0.03819 0.80515 0.49937 0.0
C2014 C 0.03161 0.75905 0.49098 0.0
C2015 C 0.00514 0.76119 0.49755 0.0
C2016 C 0.99531 0.78559 0.50475 0.0
C2017 C 0.01163 0.80738 0.50554 0.0
C2018 C 0.9454 0.71777 0.49212 0.0
C2019 C 0.95522 0.6938 0.5004 0.0
C2020 C 0.96173 0.7396 0.49074 0.0
C2021 C 0.98806 0.73787 0.49787 0.0
C2022 C 0.9978 0.71386 0.50613 0.0
C2023 C 0.9816 0.69203 0.50727 0.0
H2024 H 0.42132 0.75731 0.74103 0.0
H2025 H 0.4705 0.82019 0.7667 0.0
H2026 H 0.45926 0.72875 0.73847 0.0
H2027 H 0.5084 0.79128 0.76485 0.0
H2028 H 0.57451 0.74052 0.73837 0.0
H2029 H 0.53645 0.76904 0.73723 0.0
H2030 H 0.48849 0.70626 0.76482 0.0
H2031 H 0.52647 0.67741 0.76525 0.0
C2032 C 0.44024 0.765 0.74622 0.0
C2033 C 0.44297 0.79095 0.75414 0.0
C2034 C 0.46193 0.74859 0.74485 0.0
C2035 C 0.48675 0.75772 0.75158 0.0
C2036 C 0.48955 0.78379 0.75923 0.0
C2037 C 0.46786 0.80032 0.76038 0.0
C2038 C 0.55581 0.73276 0.74409 0.0
C2039 C 0.55344 0.70676 0.75198 0.0
C2040 C 0.53406 0.74915 0.74355 0.0
C2041 C 0.50955 0.73995 0.75109 0.0
C2042 C 0.50708 0.71381 0.75861 0.0
C2043 C 0.52882 0.69731 0.75893 0.0
H2044 H 0.49668 0.16576 0.01457 0.0
H2045 H 0.43352 0.21634 0.99187 0.0
H2046 H 0.52597 0.20313 0.01631 0.0
H2047 H 0.4632 0.25369 0.99288 0.0
H2048 H 0.51193 0.317 0.02713 0.0
H2049 H 0.48423 0.27863 0.02358 0.0
H2050 H 0.54863 0.23547 0.99276 0.0
H2051 H 0.57678 0.27395 0.99703 0.0
C2052 C 0.48914 0.18481 0.00958 0.0
C2053 C 0.46273 0.18819 0.00324 0.0
C2054 C 0.506 0.20618 0.01048 0.0
C2055 C 0.49683 0.23131 0.00488 0.0
C2056 C 0.47065 0.23457 0.99775 0.0
C2057 C 0.45369 0.21321 0.99707 0.0
C2058 C 0.52022 0.29929 0.01965 0.0
C2059 C 0.54643 0.2984 0.01221 0.0
C2060 C 0.50428 0.2774 0.01744 0.0
C2061 C 0.51415 0.25423 0.00753 0.0
C2062 C 0.54057 0.25309 1.00056 0.0
C2063 C 0.55666 0.27503 0.00301 0.0
H2064 H 0.92586 0.73672 0.25739 0.0
H2065 H 0.97253 0.67495 0.22634 0.0
H2066 H 0.9638 0.76527 0.25804 0.0
H2067 H 0.01055 0.704 0.22632 0.0
H2068 H 0.07837 0.75487 0.25147 0.0
H2069 H 0.04094 0.72553 0.25252 0.0
H2070 H 0.9905 0.78905 0.2306 0.0
H2071 H 0.02788 0.8187 0.23025 0.0
C2072 C 0.94423 0.72927 0.25057 0.0
C2073 C 0.94621 0.70363 0.24167 0.0
C2074 C 0.96594 0.74572 0.25083 0.0
C2075 C 0.99008 0.737 0.242 0.0
C2076 C 0.99223 0.71119 0.23346 0.0
C2077 C 0.97049 0.69458 0.2334 0.0
C2078 C 0.05928 0.76262 0.24691 0.0
C2079 C 0.05605 0.78914 0.2408 0.0
C2080 C 0.03787 0.74574 0.24738 0.0
C2081 C 0.01281 0.75494 0.24159 0.0
C2082 C 0.00955 0.78147 0.2355 0.0
C2083 C 0.03095 0.79844 0.23522 0.0
H2084 H 0.50401 0.66867 0.50968 0.0
H2085 H 0.56694 0.71945 0.48678 0.0
H2086 H 0.47457 0.70605 0.51137 0.0
H2087 H 0.53724 0.75669 0.48786 0.0
H2088 H 0.48549 0.82139 0.51458 0.0
H2089 H 0.51388 0.78334 0.51593 0.0
H2090 H 0.45263 0.73613 0.48474 0.0
H2091 H 0.42376 0.77425 0.48401 0.0
C2092 C 0.51155 0.6878 0.50494 0.0
C2093 C 0.53781 0.69115 0.49811 0.0
C2094 C 0.49462 0.70916 0.50579 0.0
C2095 C 0.50359 0.73424 0.49971 0.0
C2096 C 0.52988 0.73762 0.493 0.0
C2097 C 0.54687 0.71629 0.49231 0.0
C2098 C 0.47801 0.80288 0.50806 0.0
C2099 C 0.45247 0.8008 0.499 0.0
C2100 C 0.49434 0.78112 0.50874 0.0
C2101 C 0.48559 0.75686 0.50019 0.0
C2102 C 0.45982 0.75457 0.49164 0.0
C2103 C 0.44333 0.77637 0.49115 0.0
H2104 H 0.47001 0.17609 0.76025 0.0
H2105 H 0.42586 0.24059 0.73076 0.0
H2106 H 0.50827 0.20446 0.76373 0.0
H2107 H 0.46414 0.26854 0.73354 0.0
H2108 H 0.52928 0.31905 0.76191 0.0
H2109 H 0.49121 0.29024 0.76229 0.0
H2110 H 0.53951 0.22587 0.73845 0.0
H2111 H 0.57757 0.25426 0.7388 0.0
C2112 C 0.46856 0.19623 0.75435 0.0
C2113 C 0.44498 0.20615 0.7453 0.0
C2114 C 0.49043 0.21245 0.75631 0.0
C2115 C 0.48912 0.23875 0.74902 0.0
C2116 C 0.46558 0.24853 0.73978 0.0
C2117 C 0.44371 0.23244 0.73804 0.0
C2118 C 0.53175 0.29872 0.75687 0.0
C2119 C 0.55637 0.28894 0.75031 0.0
C2120 C 0.50996 0.28226 0.757 0.0
C2121 C 0.5124 0.25583 0.75033 0.0
C2122 C 0.53709 0.24602 0.74405 0.0
C2123 C 0.55887 0.26237 0.74412 0.0
H2124 H 0.98772 0.32232 0.00397 0.0
H2125 H 0.9246 0.27294 0.97908 0.0
H2126 H 0.01685 0.28505 0.00461 0.0
H2127 H 0.95436 0.23536 0.97909 0.0
H2128 H 0.00802 0.17079 0.00805 0.0
H2129 H 0.9779 0.2076 0.00666 0.0
H2130 H 0.03925 0.25644 0.97782 0.0
H2131 H 0.06968 0.2198 0.97985 0.0
C2132 C 0.98009 0.30351 0.99838 0.0
C2133 C 0.95383 0.30059 0.99135 0.0
C2134 C 0.9969 0.28215 0.99864 0.0
C2135 C 0.98799 0.25735 0.99168 0.0
C2136 C 0.9617 0.25427 0.98474 0.0
C2137 C 0.9447 0.27573 0.98466 0.0
C2138 C 0.01513 0.18941 0.00146 0.0
C2139 C 0.04129 0.19247 0.99417 0.0
C2140 C 0.99777 0.21042 1.00049 0.0
C2141 C 0.00617 0.23486 0.99208 0.0
C2142 C 0.03231 0.2379 0.98471 0.0
C2143 C 0.04975 0.21694 0.98587 0.0
H2144 H 0.0537 0.71733 0.76805 0.0
H2145 H 0.02156 0.66799 0.71307 0.0
H2146 H 0.01552 0.74546 0.76599 0.0
H2147 H 0.98302 0.69669 0.71081 0.0
H2148 H 0.90923 0.74599 0.73338 0.0
H2149 H 0.94442 0.71381 0.73486 0.0
H2150 H 0.00144 0.77632 0.73428 0.0
H2151 H 0.96647 0.8086 0.73319 0.0
C2152 C 0.03829 0.71241 0.75564 0.0
C2153 C 0.04064 0.69081 0.74043 0.0
C2154 C 0.01655 0.72858 0.75439 0.0
C2155 C 0.99678 0.72355 0.73783 0.0
C2156 C 0.99819 0.70097 0.72363 0.0
C2157 C 0.02008 0.68458 0.72496 0.0
C2158 C 0.92928 0.75291 0.73349 0.0
C2159 C 0.93508 0.7799 0.73354 0.0
C2160 C 0.94935 0.73445 0.73418 0.0
C2161 C 0.97548 0.74267 0.735 0.0
C2162 C 0.98133 0.76955 0.73414 0.0
C2163 C 0.96133 0.78801 0.73343 0.0
H2164 H 0.00718 0.32819 0.47792 0.0
H2165 H 0.0698 0.27832 0.50295 0.0
H2166 H 0.9776 0.29101 0.47745 0.0
H2167 H 0.03981 0.2411 0.5031 0.0
H2168 H 0.98746 0.17612 0.4765 0.0
H2169 H 0.01652 0.21366 0.4755 0.0
H2170 H 0.95512 0.26224 0.50467 0.0
H2171 H 0.92557 0.22456 0.50504 0.0
C2172 C 0.01459 0.30929 0.48348 0.0
C2173 C 0.0408 0.30613 0.49057 0.0
C2174 C 0.99757 0.28804 0.48332 0.0
C2175 C 0.00635 0.26324 0.49036 0.0
C2176 C 0.03261 0.25999 0.4973 0.0
C2177 C 0.04975 0.28126 0.49728 0.0
C2178 C 0.98012 0.19482 0.48271 0.0
C2179 C 0.95432 0.19745 0.49105 0.0
C2180 C 0.99684 0.21627 0.48224 0.0
C2181 C 0.9882 0.24076 0.49027 0.0
C2182 C 0.96223 0.24357 0.4982 0.0
C2183 C 0.94534 0.22207 0.49847 0.0
H2184 H 0.43031 0.26807 0.21483 0.0
H2185 H 0.47487 0.32682 0.25241 0.0
H2186 H 0.46809 0.2392 0.21455 0.0
H2187 H 0.5128 0.29747 0.25273 0.0
H2188 H 0.58094 0.24475 0.23157 0.0
H2189 H 0.54502 0.27551 0.22779 0.0
H2190 H 0.49013 0.21391 0.24499 0.0
H2191 H 0.52613 0.18275 0.24824 0.0
C2192 C 0.44834 0.27481 0.22292 0.0
C2193 C 0.44976 0.29944 0.23393 0.0
C2194 C 0.46985 0.25824 0.2229 0.0
C2195 C 0.49312 0.26589 0.23406 0.0
C2196 C 0.49504 0.29113 0.24396 0.0
C2197 C 0.47346 0.30791 0.24378 0.0
C2198 C 0.56122 0.2377 0.23463 0.0
C2199 C 0.55632 0.2113 0.24031 0.0
C2200 C 0.5407 0.2554 0.23251 0.0
C2201 C 0.51488 0.2471 0.2361 0.0
C2202 C 0.5099 0.22072 0.24177 0.0
C2203 C 0.53046 0.20292 0.24375 0.0
H2204 H 0.57006 0.77724 0.9804 0.0
H2205 H 0.50471 0.82895 0.9946 0.0
H2206 H 0.54003 0.74004 0.97964 0.0
H2207 H 0.47518 0.79191 0.99443 0.0
H2208 H 0.4262 0.72138 0.97211 0.0
H2209 H 0.45584 0.75884 0.96876 0.0
H2210 H 0.51421 0.71704 0.00928 0.0
H2211 H 0.48512 0.67972 0.01219 0.0
C2212 C 0.54939 0.78067 0.98339 0.0
C2213 C 0.53983 0.80599 0.98771 0.0
C2214 C 0.53223 0.75942 0.98299 0.0
C2215 C 0.50532 0.76318 0.98704 0.0
C2216 C 0.49575 0.78851 0.99092 0.0
C2217 C 0.5128 0.80969 0.9912 0.0
C2218 C 0.4453 0.72036 0.98039 0.0
C2219 C 0.45341 0.69767 0.9923 0.0
C2220 C 0.46226 0.74169 0.97844 0.0
C2221 C 0.48742 0.74063 0.98852 0.0
C2222 C 0.49521 0.71813 0.00083 0.0
C2223 C 0.47842 0.69687 0.00266 0.0
H2224 H 0.91709 0.24931 0.7492 0.0
H2225 H 0.97028 0.18651 0.76737 0.0
H2226 H 0.9539 0.27942 0.74603 0.0
H2227 H 0.0069 0.21677 0.76491 0.0
H2228 H 0.06919 0.26849 0.73575 0.0
H2229 H 0.03069 0.2406 0.73522 0.0
H2230 H 0.98627 0.30111 0.77069 0.0
H2231 H 0.02481 0.3295 0.77049 0.0
C2232 C 0.93662 0.24198 0.75267 0.0
C2233 C 0.94086 0.21552 0.75843 0.0
C2234 C 0.95765 0.25925 0.75093 0.0
C2235 C 0.98324 0.2504 0.75508 0.0
C2236 C 0.98741 0.22402 0.76111 0.0
C2237 C 0.96644 0.20671 0.76265 0.0
C2238 C 0.05113 0.27591 0.74327 0.0
C2239 C 0.04996 0.30098 0.75341 0.0
C2240 C 0.02915 0.2599 0.74307 0.0
C2241 C 0.00565 0.26851 0.75329 0.0
C2242 C 0.00413 0.29403 0.76258 0.0
C2243 C 0.02614 0.31024 0.76252 0.0
H2244 H 0.47367 0.30815 0.48429 0.0
H2245 H 0.42274 0.27303 0.5365 0.0
H2246 H 0.50249 0.27053 0.48623 0.0
H2247 H 0.45216 0.23507 0.53871 0.0
H2248 H 0.50013 0.16232 0.51431 0.0
H2249 H 0.46901 0.19822 0.51398 0.0
H2250 H 0.53285 0.25371 0.51659 0.0
H2251 H 0.56427 0.21782 0.5164 0.0
C2252 C 0.46863 0.29226 0.49615 0.0
C2253 C 0.44623 0.29352 0.5105 0.0
C2254 C 0.48523 0.27085 0.49737 0.0
C2255 C 0.47983 0.25031 0.51303 0.0
C2256 C 0.45672 0.25083 0.52657 0.0
C2257 C 0.43991 0.27238 0.52526 0.0
C2258 C 0.50764 0.18216 0.51485 0.0
C2259 C 0.53475 0.18726 0.51503 0.0
C2260 C 0.48973 0.20266 0.51487 0.0
C2261 C 0.49858 0.2286 0.51507 0.0
C2262 C 0.5256 0.23377 0.51603 0.0
C2263 C 0.54356 0.21326 0.51599 0.0
H2264 H 0.47383 0.67104 0.25109 0.0
H2265 H 0.42974 0.72849 0.2907 0.0
H2266 H 0.5117 0.70041 0.25112 0.0
H2267 H 0.46751 0.75739 0.29126 0.0
H2268 H 0.52551 0.81471 0.25804 0.0
H2269 H 0.48939 0.78366 0.26125 0.0
H2270 H 0.54422 0.7214 0.27647 0.0
H2271 H 0.58025 0.75207 0.27277 0.0
C2272 C 0.47248 0.68967 0.2602 0.0
C2273 C 0.4489 0.69775 0.27056 0.0
C2274 C 0.49405 0.70646 0.26023 0.0
C2275 C 0.49229 0.73135 0.27084 0.0
C2276 C 0.46915 0.73864 0.2824 0.0
C2277 C 0.44763 0.72204 0.28219 0.0
C2278 C 0.52981 0.79443 0.26211 0.0
C2279 C 0.55568 0.78584 0.26498 0.0
C2280 C 0.50917 0.77668 0.26407 0.0
C2281 C 0.5141 0.75014 0.26911 0.0
C2282 C 0.53993 0.74165 0.27223 0.0
C2283 C 0.56052 0.7593 0.27016 0.0
H2284 H 0.92154 0.77155 0.98935 0.0
H2285 H 0.98285 0.81298 0.02654 0.0
H2286 H 0.94979 0.73291 0.98675 0.0
H2287 H 0.01059 0.7745 0.0245 0.0
H2288 H 0.06461 0.71498 0.99267 0.0
H2289 H 0.03436 0.75181 0.99357 0.0
H2290 H 0.9708 0.69931 0.01099 0.0
H2291 H 0.00075 0.66241 0.00946 0.0
C2292 C 0.94083 0.7722 0.99728 0.0
C2293 C 0.9502 0.79523 0.00786 0.0
C2294 C 0.95698 0.75019 0.99578 0.0
C2295 C 0.98254 0.75096 0.00503 0.0
C2296 C 0.99129 0.77363 0.0166 0.0
C2297 C 0.97533 0.79557 0.01791 0.0
C2298 C 0.04417 0.71129 0.99654 0.0
C2299 C 0.03512 0.68584 0.00112 0.0
C2300 C 0.02688 0.73236 0.99717 0.0
C2301 C 0.00031 0.72838 0.00261 0.0
C2302 C 0.99112 0.70289 0.00656 0.0
C2303 C 0.00835 0.6818 0.00577 0.0
H2304 H 0.07049 0.10834 0.07459 0.0
H2305 H 0.1461 0.14327 0.06067 0.0
H2306 H 0.07864 0.11169 0.11694 0.0
H2307 H 0.15436 0.14614 0.10297 0.0
H2308 H 0.14083 0.18028 0.17789 0.0
H2309 H 0.13749 0.17229 0.13556 0.0
H2310 H 0.10566 0.09535 0.14925 0.0
H2311 H 0.10849 0.10343 0.1916 0.0
C2312 C 0.08898 0.11641 0.08052 0.0
C2313 C 0.1075 0.12579 0.0642 0.0
C2314 C 0.09371 0.1182 0.10481 0.0
C2315 C 0.11709 0.12934 0.1133 0.0
C2316 C 0.13598 0.13787 0.09698 0.0
C2317 C 0.13125 0.13612 0.07272 0.0
C2318 C 0.13339 0.16154 0.17192 0.0
C2319 C 0.1247 0.14263 0.18819 0.0
C2320 C 0.13159 0.15691 0.14762 0.0
C2321 C 0.12113 0.13325 0.13906 0.0
C2322 C 0.11338 0.11394 0.15531 0.0
C2323 C 0.11515 0.11857 0.17959 0.0
H2324 H 0.06741 0.88855 0.42258 0.0
H2325 H 0.14413 0.85602 0.43625 0.0
H2326 H 0.0754 0.88536 0.38024 0.0
H2327 H 0.15221 0.85331 0.39388 0.0
H2328 H 0.1391 0.81863 0.31908 0.0
H2329 H 0.1356 0.82647 0.36142 0.0
H2330 H 0.10187 0.9026 0.34784 0.0
H2331 H 0.10488 0.89467 0.30547 0.0
C2332 C 0.0861 0.88103 0.41659 0.0
C2333 C 0.10501 0.87229 0.43284 0.0
C2334 C 0.09074 0.87935 0.3923 0.0
C2335 C 0.11439 0.86894 0.38372 0.0
C2336 C 0.13364 0.86103 0.39995 0.0
C2337 C 0.12902 0.8627 0.42424 0.0
C2338 C 0.13114 0.83715 0.32507 0.0
C2339 C 0.12205 0.8559 0.30883 0.0
C2340 C 0.12928 0.8417 0.34937 0.0
C2341 C 0.11833 0.86511 0.35796 0.0
C2342 C 0.11002 0.88421 0.34175 0.0
C2343 C 0.11187 0.87967 0.31745 0.0
H2344 H 0.35666 0.81826 0.67903 0.0
H2345 H 0.38929 0.89504 0.69261 0.0
H2346 H 0.36001 0.82618 0.63665 0.0
H2347 H 0.39229 0.90295 0.65027 0.0
H2348 H 0.42789 0.88835 0.5757 0.0
H2349 H 0.41967 0.88538 0.61808 0.0
H2350 H 0.34287 0.85337 0.60425 0.0
H2351 H 0.35108 0.85597 0.56195 0.0
C2352 C 0.3642 0.83694 0.67302 0.0
C2353 C 0.37297 0.85587 0.68925 0.0
C2354 C 0.36601 0.84152 0.64873 0.0
C2355 C 0.37661 0.86512 0.64016 0.0
C2356 C 0.38445 0.88442 0.65636 0.0
C2357 C 0.3826 0.87988 0.68063 0.0
C2358 C 0.40915 0.88093 0.58166 0.0
C2359 C 0.39029 0.87214 0.5654 0.0
C2360 C 0.40439 0.87935 0.60596 0.0
C2361 C 0.38068 0.86896 0.61446 0.0
C2362 C 0.36148 0.86106 0.59821 0.0
C2363 C 0.36619 0.86267 0.57396 0.0
H2364 H 0.36356 0.17679 0.82385 0.0
H2365 H 0.39705 0.1009 0.80817 0.0
H2366 H 0.36748 0.16773 0.86597 0.0
H2367 H 0.40062 0.09182 0.85035 0.0
H2368 H 0.43415 0.10432 0.92651 0.0
H2369 H 0.42702 0.10828 0.88397 0.0
H2370 H 0.3495 0.13895 0.89683 0.0
H2371 H 0.35659 0.13532 0.9392 0.0
C2372 C 0.37154 0.15809 0.82934 0.0
C2373 C 0.38009 0.13965 0.81258 0.0
C2374 C 0.37364 0.15284 0.8535 0.0
C2375 C 0.38438 0.12906 0.86144 0.0
C2376 C 0.39252 0.11042 0.84473 0.0
C2377 C 0.39033 0.11562 0.82056 0.0
C2378 C 0.41547 0.11158 0.92027 0.0
C2379 C 0.3961 0.11981 0.9363 0.0
C2380 C 0.41135 0.11378 0.89589 0.0
C2381 C 0.38781 0.12423 0.8871 0.0
C2382 C 0.36803 0.13131 0.9031 0.0
C2383 C 0.3721 0.12911 0.9274 0.0
H2384 H 0.85561 0.85157 0.93476 0.0
H2385 H 0.93565 0.87654 0.92386 0.0
H2386 H 0.84949 0.84843 0.89219 0.0
H2387 H 0.92954 0.87293 0.88123 0.0
H2388 H 0.90186 0.88599 0.80538 0.0
H2389 H 0.90596 0.89259 0.8479 0.0
H2390 H 0.86474 0.81998 0.86034 0.0
H2391 H 0.86021 0.8135 0.81789 0.0
C2392 C 0.87192 0.85643 0.92332 0.0
C2393 C 0.8962 0.86416 0.93279 0.0
C2394 C 0.86841 0.85449 0.8989 0.0
C2395 C 0.88907 0.86025 0.88335 0.0
C2396 C 0.91316 0.86858 0.89275 0.0
C2397 C 0.9167 0.87052 0.9172 0.0
C2398 C 0.89358 0.87145 0.81716 0.0
C2399 C 0.88077 0.84915 0.80817 0.0
C2400 C 0.89605 0.8752 0.84153 0.0
C2401 C 0.88574 0.85679 0.85747 0.0
C2402 C 0.87263 0.83469 0.84851 0.0
C2403 C 0.87017 0.83091 0.82415 0.0
H2404 H 0.93549 0.11474 0.5752 0.0
H2405 H 0.85649 0.14279 0.5643 0.0
H2406 H 0.92921 0.11781 0.61789 0.0
H2407 H 0.85017 0.14535 0.60684 0.0
H2408 H 0.86276 0.18117 0.68034 0.0
H2409 H 0.86672 0.17359 0.63809 0.0
H2410 H 0.90484 0.09954 0.65158 0.0
H2411 H 0.90137 0.10728 0.69403 0.0
C2412 C 0.91671 0.12126 0.58188 0.0
C2413 C 0.89662 0.12883 0.56632 0.0
C2414 C 0.91307 0.12288 0.60634 0.0
C2415 C 0.88926 0.13205 0.6157 0.0
C2416 C 0.86889 0.13869 0.60014 0.0
C2417 C 0.87253 0.13713 0.57575 0.0
C2418 C 0.87187 0.16319 0.67438 0.0
C2419 C 0.88184 0.1449 0.69063 0.0
C2420 C 0.87399 0.15877 0.65012 0.0
C2421 C 0.88608 0.13596 0.64151 0.0
C2422 C 0.89569 0.11744 0.6577 0.0
C2423 C 0.89356 0.12184 0.68202 0.0
H2424 H 0.63927 0.14601 0.44347 0.0
H2425 H 0.56369 0.11049 0.43069 0.0
H2426 H 0.64596 0.15047 0.40104 0.0
H2427 H 0.57021 0.1155 0.38826 0.0
H2428 H 0.59993 0.10702 0.31303 0.0
H2429 H 0.59625 0.09964 0.35541 0.0
H2430 H 0.62871 0.17644 0.36867 0.0
H2431 H 0.63294 0.18368 0.32626 0.0
C2432 C 0.62406 0.13913 0.43164 0.0
C2433 C 0.60087 0.12799 0.44054 0.0
C2434 C 0.62786 0.14184 0.4073 0.0
C2435 C 0.60857 0.13349 0.39127 0.0
C2436 C 0.5856 0.12188 0.40013 0.0
C2437 C 0.58181 0.11912 0.42448 0.0
C2438 C 0.60639 0.12233 0.32495 0.0
C2439 C 0.61663 0.14602 0.31619 0.0
C2440 C 0.60415 0.11812 0.34927 0.0
C2441 C 0.61205 0.13749 0.36543 0.0
C2442 C 0.62272 0.16098 0.3567 0.0
C2443 C 0.62502 0.16519 0.33236 0.0
H2444 H 0.63306 0.81231 0.17819 0.0
H2445 H 0.59874 0.88854 0.19064 0.0
H2446 H 0.62932 0.81921 0.1357 0.0
H2447 H 0.59555 0.89557 0.14818 0.0
H2448 H 0.64062 0.84968 0.06085 0.0
H2449 H 0.6467 0.84533 0.10339 0.0
H2450 H 0.57019 0.87898 0.11517 0.0
H2451 H 0.56425 0.88387 0.0727 0.0
C2452 C 0.62492 0.83062 0.1719 0.0
C2453 C 0.61604 0.84978 0.18788 0.0
C2454 C 0.62292 0.83463 0.14752 0.0
C2455 C 0.61205 0.85791 0.13855 0.0
C2456 C 0.60362 0.87726 0.15451 0.0
C2457 C 0.60558 0.87324 0.17888 0.0
C2458 C 0.62512 0.85628 0.07249 0.0
C2459 C 0.60189 0.86704 0.0633 0.0
C2460 C 0.62857 0.85364 0.09689 0.0
C2461 C 0.6089 0.86169 0.11267 0.0
C2462 C 0.58587 0.87286 0.10351 0.0
C2463 C 0.58241 0.87554 0.07913 0.0
H2464 H 0.64465 0.64073 0.55914 0.0
H2465 H 0.56935 0.60566 0.57423 0.0
H2466 H 0.65351 0.64403 0.60131 0.0
H2467 H 0.5782 0.60932 0.61644 0.0
H2468 H 0.6095 0.60198 0.69059 0.0
H2469 H 0.60666 0.59324 0.64838 0.0
H2470 H 0.63576 0.67102 0.63364 0.0
H2471 H 0.63897 0.67978 0.67592 0.0
C2472 C 0.63003 0.63357 0.57141 0.0
C2473 C 0.60613 0.62317 0.56329 0.0
C2474 C 0.63511 0.63557 0.59558 0.0
C2475 C 0.61648 0.62715 0.61214 0.0
C2476 C 0.59304 0.61578 0.60406 0.0
C2477 C 0.58792 0.61379 0.57987 0.0
C2478 C 0.61553 0.61719 0.67839 0.0
C2479 C 0.6242 0.64172 0.68665 0.0
C2480 C 0.6138 0.61216 0.6542 0.0
C2481 C 0.62075 0.63151 0.63774 0.0
C2482 C 0.63045 0.65564 0.64594 0.0
C2483 C 0.63218 0.6607 0.67017 0.0
H2484 H 0.64147 0.31466 0.82701 0.0
H2485 H 0.61025 0.39241 0.81557 0.0
H2486 H 0.63798 0.32111 0.86962 0.0
H2487 H 0.60715 0.39887 0.8581 0.0
H2488 H 0.57058 0.38358 0.93149 0.0
H2489 H 0.57904 0.38066 0.88921 0.0
H2490 H 0.65491 0.34668 0.90331 0.0
H2491 H 0.64639 0.34922 0.94565 0.0
C2492 C 0.63423 0.33325 0.83354 0.0
C2493 C 0.62586 0.35288 0.81784 0.0
C2494 C 0.63233 0.33698 0.85797 0.0
C2495 C 0.62204 0.36041 0.86718 0.0
C2496 C 0.61471 0.38043 0.85151 0.0
C2497 C 0.61661 0.37673 0.82713 0.0
C2498 C 0.58914 0.37562 0.92563 0.0
C2499 C 0.60771 0.36648 0.942 0.0
C2500 C 0.59405 0.3741 0.90138 0.0
C2501 C 0.61764 0.3634 0.89295 0.0
C2502 C 0.63644 0.35474 0.90929 0.0
C2503 C 0.63156 0.35631 0.93355 0.0
H2504 H 0.8546 0.34799 0.06234 0.0
H2505 H 0.93043 0.38348 0.07405 0.0
H2506 H 0.84732 0.34641 0.10484 0.0
H2507 H 0.92322 0.38145 0.1166 0.0
H2508 H 0.89259 0.39476 0.19096 0.0
H2509 H 0.89598 0.39997 0.14824 0.0
H2510 H 0.86495 0.32198 0.1384 0.0
H2511 H 0.8611 0.31683 0.18102 0.0
C2512 C 0.86974 0.35546 0.07394 0.0
C2513 C 0.8932 0.36573 0.06474 0.0
C2514 C 0.86557 0.35445 0.09832 0.0
C2515 C 0.88471 0.36372 0.11406 0.0
C2516 C 0.90796 0.37443 0.1049 0.0
C2517 C 0.91216 0.37543 0.0805 0.0
C2518 C 0.88624 0.37879 0.17971 0.0
C2519 C 0.8767 0.3553 0.18948 0.0
C2520 C 0.88835 0.38175 0.15523 0.0
C2521 C 0.88091 0.36133 0.13997 0.0
C2522 C 0.87063 0.33817 0.14968 0.0
C2523 C 0.86855 0.33519 0.17415 0.0
H2524 H 0.85181 0.63944 0.43706 0.0
H2525 H 0.92924 0.60799 0.42457 0.0
H2526 H 0.84471 0.64263 0.39462 0.0
H2527 H 0.92214 0.61154 0.38207 0.0
H2528 H 0.85961 0.67875 0.32054 0.0
H2529 H 0.86242 0.67048 0.36291 0.0
H2530 H 0.89591 0.59428 0.34909 0.0
H2531 H 0.89348 0.60257 0.30679 0.0
C2532 C 0.86728 0.63304 0.4253 0.0
C2533 C 0.89123 0.62368 0.43426 0.0
C2534 C 0.86321 0.635 0.40097 0.0
C2535 C 0.88294 0.62758 0.38504 0.0
C2536 C 0.90648 0.61724 0.39393 0.0
C2537 C 0.91059 0.6153 0.41829 0.0
C2538 C 0.86737 0.66015 0.3265 0.0
C2539 C 0.87655 0.64146 0.31024 0.0
C2540 C 0.86886 0.65535 0.35079 0.0
C2541 C 0.87953 0.63178 0.3593 0.0
C2542 C 0.88797 0.61278 0.34305 0.0
C2543 C 0.88646 0.61754 0.3188 0.0
H2544 H 0.35766 0.34645 0.44067 0.0
H2545 H 0.43234 0.38445 0.42951 0.0
H2546 H 0.3516 0.34299 0.3981 0.0
H2547 H 0.42643 0.38048 0.38691 0.0
H2548 H 0.39706 0.3902 0.31162 0.0
H2549 H 0.40018 0.39646 0.35416 0.0
H2550 H 0.3701 0.31832 0.36534 0.0
H2551 H 0.36644 0.31216 0.32272 0.0
C2552 C 0.37279 0.35412 0.42917 0.0
C2553 C 0.39557 0.36563 0.43858 0.0
C2554 C 0.36936 0.35197 0.40474 0.0
C2555 C 0.3886 0.36128 0.38911 0.0
C2556 C 0.4111 0.37334 0.39847 0.0
C2557 C 0.41454 0.37552 0.42292 0.0
C2558 C 0.391 0.37434 0.3231 0.0
C2559 C 0.3816 0.3506 0.31368 0.0
C2560 C 0.39293 0.37792 0.34752 0.0
C2561 C 0.38553 0.35786 0.36315 0.0
C2562 C 0.3757 0.33429 0.35379 0.0
C2563 C 0.37373 0.3307 0.32933 0.0
H2564 H 0.39622 0.60364 0.19258 0.0
H2565 H 0.37221 0.68398 0.18147 0.0
H2566 H 0.39936 0.59734 0.15003 0.0
H2567 H 0.37585 0.67769 0.13888 0.0
H2568 H 0.36072 0.65035 0.06377 0.0
H2569 H 0.35497 0.65409 0.10634 0.0
H2570 H 0.42717 0.61175 0.11738 0.0
H2571 H 0.43279 0.60754 0.07476 0.0
C2572 C 0.39164 0.62 0.1811 0.0
C2573 C 0.38403 0.64438 0.19049 0.0
C2574 C 0.39357 0.61637 0.1567 0.0
C2575 C 0.38792 0.63701 0.14111 0.0
C2576 C 0.38003 0.6613 0.15044 0.0
C2577 C 0.37809 0.66494 0.17487 0.0
C2578 C 0.37533 0.64167 0.07523 0.0
C2579 C 0.39732 0.62875 0.0658 0.0
C2580 C 0.37208 0.64397 0.09965 0.0
C2581 C 0.39071 0.6334 0.11521 0.0
C2582 C 0.41235 0.61991 0.10584 0.0
C2583 C 0.41562 0.61758 0.08139 0.0
H2584 H 0.0656 0.60286 0.92483 0.0
H2585 H 0.14215 0.63648 0.93717 0.0
H2586 H 0.07215 0.60732 0.88236 0.0
H2587 H 0.14879 0.64048 0.8947 0.0
H2588 H 0.13309 0.67688 0.82106 0.0
H2589 H 0.13076 0.66796 0.86334 0.0
H2590 H 0.09775 0.59168 0.84886 0.0
H2591 H 0.0996 0.60067 0.80667 0.0
C2592 C 0.08399 0.6108 0.91851 0.0
C2593 C 0.10322 0.61955 0.93445 0.0
C2594 C 0.08778 0.61328 0.89415 0.0
C2595 C 0.11091 0.62447 0.88519 0.0
C2596 C 0.13057 0.63223 0.90108 0.0
C2597 C 0.12678 0.62978 0.92542 0.0
C2598 C 0.12551 0.65813 0.82686 0.0
C2599 C 0.1163 0.63962 0.81044 0.0
C2600 C 0.12431 0.65296 0.85111 0.0
C2601 C 0.11394 0.62915 0.85944 0.0
C2602 C 0.10545 0.61036 0.84301 0.0
C2603 C 0.10662 0.61552 0.8188 0.0
H2604 H 0.06611 0.38793 0.57391 0.0
H2605 H 0.14324 0.35587 0.56122 0.0
H2606 H 0.07411 0.38623 0.6164 0.0
H2607 H 0.15128 0.35464 0.60359 0.0
H2608 H 0.13956 0.32326 0.67947 0.0
H2609 H 0.13531 0.3291 0.63697 0.0
H2610 H 0.10075 0.40534 0.64818 0.0
H2611 H 0.10455 0.39939 0.69082 0.0
C2612 C 0.08483 0.38073 0.58013 0.0
C2613 C 0.10391 0.3718 0.56411 0.0
C2614 C 0.08948 0.37993 0.60449 0.0
C2615 C 0.1133 0.3702 0.61335 0.0
C2616 C 0.13259 0.36187 0.59733 0.0
C2617 C 0.12796 0.36267 0.57301 0.0
C2618 C 0.1313 0.34141 0.67294 0.0
C2619 C 0.12223 0.36076 0.68864 0.0
C2620 C 0.12897 0.3448 0.64853 0.0
C2621 C 0.11754 0.36762 0.63922 0.0
C2622 C 0.10928 0.38737 0.65484 0.0
C2623 C 0.11164 0.38401 0.67928 0.0
loop_
_geom_bond_atom_site_label_1
_geom_bond_atom_site_label_2
_geom_bond_distance
_geom_bond_site_symmetry_2
_ccdc_geom_bond_type
Sc0 O3 2.025 . S
Sc0 O10 2.105 . S
Sc0 O13 2.105 . S
Sc0 O16 2.105 . S
Sc0 O19 2.105 . S
Sc1 O3 2.025 . S
Sc1 O11 2.105 . S
Sc1 O15 2.105 . S
Sc1 O17 2.105 . S
Sc1 O21 2.105 . S
Sc2 O3 2.025 . S
Sc2 O12 2.105 . S
Sc2 O14 2.105 . S
Sc2 O18 2.105 . S
Sc2 O20 2.105 . S
O3 Sc0 2.025 . S
O3 Sc1 2.025 . S
O3 Sc2 2.025 . S
C4 O10 1.268 . S
C4 O20 1.268 . S
C5 O11 1.268 . S
C5 O19 1.268 . S
C6 O12 1.268 . S
C6 O21 1.268 . S
C7 O13 1.268 . S
C7 O17 1.268 . S
C8 O14 1.268 . S
C8 O16 1.268 . S
C9 O15 1.268 . S
C9 O18 1.268 . S
O10 Sc0 2.105 . S
O10 C4 1.268 . S
O11 Sc1 2.105 . S
O11 C5 1.268 . S
O12 Sc2 2.105 . S
O12 C6 1.268 . S
O13 Sc0 2.105 . S
O13 C7 1.268 . S
O14 Sc2 2.105 . S
O14 C8 1.268 . S
O15 Sc1 2.105 . S
O15 C9 1.268 . S
O16 Sc0 2.105 . S
O16 C8 1.268 . S
O17 Sc1 2.105 . S
O17 C7 1.268 . S
O18 Sc2 2.105 . S
O18 C9 1.268 . S
O19 Sc0 2.105 . S
O19 C5 1.268 . S
O20 Sc2 2.105 . S
O20 C4 1.268 . S
O21 Sc1 2.105 . S
O21 C6 1.268 . S
Sc22 O25 2.025 . S
Sc22 O32 2.105 . S
Sc22 O35 2.105 . S
Sc22 O38 2.105 . S
Sc22 O41 2.105 . S
Sc23 O25 2.025 . S
Sc23 O33 2.105 . S
Sc23 O37 2.105 . S
Sc23 O39 2.105 . S
Sc23 O43 2.105 . S
Sc24 O25 2.025 . S
Sc24 O34 2.105 . S
Sc24 O36 2.105 . S
Sc24 O40 2.105 . S
Sc24 O42 2.105 . S
O25 Sc22 2.025 . S
O25 Sc23 2.025 . S
O25 Sc24 2.025 . S
C26 O32 1.268 . S
C26 O42 1.268 . S
C27 O33 1.268 . S
C27 O41 1.268 . S
C28 O34 1.268 . S
C28 O43 1.268 . S
C29 O35 1.268 . S
C29 O39 1.268 . S
C30 O36 1.268 . S
C30 O38 1.268 . S
C31 O37 1.268 . S
C31 O40 1.268 . S
O32 Sc22 2.105 . S
O32 C26 1.268 . S
O33 Sc23 2.105 . S
O33 C27 1.268 . S
O34 Sc24 2.105 . S
O34 C28 1.268 . S
O35 Sc22 2.105 . S
O35 C29 1.268 . S
O36 Sc24 2.105 . S
O36 C30 1.268 . S
O37 Sc23 2.105 . S
O37 C31 1.268 . S
O38 Sc22 2.105 . S
O38 C30 1.268 . S
O39 Sc23 2.105 . S
O39 C29 1.268 . S
O40 Sc24 2.105 . S
O40 C31 1.268 . S
O41 Sc22 2.105 . S
O41 C27 1.268 . S
O42 Sc24 2.105 . S
O42 C26 1.268 . S
O43 Sc23 2.105 . S
O43 C28 1.268 . S
Sc44 O47 2.025 . S
Sc44 O54 2.105 . S
Sc44 O57 2.105 . S
Sc44 O60 2.105 . S
Sc44 O63 2.105 . S
Sc45 O47 2.025 . S
Sc45 O55 2.105 . S
Sc45 O59 2.105 . S
Sc45 O61 2.105 . S
Sc45 O65 2.105 . S
Sc46 O47 2.025 . S
Sc46 O56 2.105 . S
Sc46 O58 2.105 . S
Sc46 O62 2.105 . S
Sc46 O64 2.105 . S
O47 Sc44 2.025 . S
O47 Sc45 2.025 . S
O47 Sc46 2.025 . S
C48 O54 1.268 . S
C48 O64 1.268 . S
C49 O55 1.268 . S
C49 O63 1.268 . S
C50 O56 1.268 . S
C50 O65 1.268 . S
C51 O57 1.268 . S
C51 O61 1.268 . S
C52 O58 1.268 . S
C52 O60 1.268 . S
C53 O59 1.268 . S
C53 O62 1.268 . S
O54 Sc44 2.105 . S
O54 C48 1.268 . S
O55 Sc45 2.105 . S
O55 C49 1.268 . S
O56 Sc46 2.105 . S
O56 C50 1.268 . S
O57 Sc44 2.105 . S
O57 C51 1.268 . S
O58 Sc46 2.105 . S
O58 C52 1.268 . S
O59 Sc45 2.105 . S
O59 C53 1.268 . S
O60 Sc44 2.105 . S
O60 C52 1.268 . S
O61 Sc45 2.105 . S
O61 C51 1.268 . S
O62 Sc46 2.105 . S
O62 C53 1.268 . S
O63 Sc44 2.105 . S
O63 C49 1.268 . S
O64 Sc46 2.105 . S
O64 C48 1.268 . S
O65 Sc45 2.105 . S
O65 C50 1.268 . S
Sc66 O69 2.025 . S
Sc66 O76 2.105 1_554 S
Sc66 O79 2.105 . S
Sc66 O82 2.105 . S
Sc66 O85 2.105 . S
Sc67 O69 2.025 . S
Sc67 O77 2.105 . S
Sc67 O81 2.105 . S
Sc67 O83 2.105 . S
Sc67 O87 2.105 . S
Sc68 O69 2.025 . S
Sc68 O78 2.105 . S
Sc68 O80 2.105 . S
Sc68 O84 2.105 . S
Sc68 O86 2.105 1_554 S
O69 Sc66 2.025 . S
O69 Sc67 2.025 . S
O69 Sc68 2.025 . S
C70 O76 1.268 . S
C70 O86 1.268 . S
C71 O77 1.268 . S
C71 O85 1.268 . S
C72 O78 1.268 . S
C72 O87 1.268 . S
C73 O79 1.268 . S
C73 O83 1.268 . S
C74 O80 1.268 . S
C74 O82 1.268 . S
C75 O81 1.268 . S
C75 O84 1.268 . S
O76 Sc66 2.105 1_556 S
O76 C70 1.268 . S
O77 Sc67 2.105 . S
O77 C71 1.268 . S
O78 Sc68 2.105 . S
O78 C72 1.268 . S
O79 Sc66 2.105 . S
O79 C73 1.268 . S
O80 Sc68 2.105 . S
O80 C74 1.268 . S
O81 Sc67 2.105 . S
O81 C75 1.268 . S
O82 Sc66 2.105 . S
O82 C74 1.268 . S
O83 Sc67 2.105 . S
O83 C73 1.268 . S
O84 Sc68 2.105 . S
O84 C75 1.268 . S
O85 Sc66 2.105 . S
O85 C71 1.268 . S
O86 Sc68 2.105 1_556 S
O86 C70 1.268 . S
O87 Sc67 2.105 . S
O87 C72 1.268 . S
Sc88 O91 2.025 . S
Sc88 O98 2.105 . S
Sc88 O101 2.105 . S
Sc88 O104 2.105 . S
Sc88 O107 2.105 . S
Sc89 O91 2.025 . S
Sc89 O99 2.105 . S
Sc89 O103 2.105 . S
Sc89 O105 2.105 . S
Sc89 O109 2.105 . S
Sc90 O91 2.025 . S
Sc90 O100 2.105 . S
Sc90 O102 2.105 . S
Sc90 O106 2.105 . S
Sc90 O108 2.105 . S
O91 Sc88 2.025 . S
O91 Sc89 2.025 . S
O91 Sc90 2.025 . S
C92 O98 1.268 . S
C92 O108 1.268 . S
C93 O99 1.268 . S
C93 O107 1.268 . S
C94 O100 1.268 . S
C94 O109 1.268 . S
C95 O101 1.268 . S
C95 O105 1.268 . S
C96 O102 1.268 . S
C96 O104 1.268 . S
C97 O103 1.268 . S
C97 O106 1.268 . S
O98 Sc88 2.105 . S
O98 C92 1.268 . S
O99 Sc89 2.105 . S
O99 C93 1.268 . S
O100 Sc90 2.105 . S
O100 C94 1.268 . S
O101 Sc88 2.105 . S
O101 C95 1.268 . S
O102 Sc90 2.105 . S
O102 C96 1.268 . S
O103 Sc89 2.105 . S
O103 C97 1.268 . S
O104 Sc88 2.105 . S
O104 C96 1.268 . S
O105 Sc89 2.105 . S
O105 C95 1.268 . S
O106 Sc90 2.105 . S
O106 C97 1.268 . S
O107 Sc88 2.105 . S
O107 C93 1.268 . S
O108 Sc90 2.105 . S
O108 C92 1.268 . S
O109 Sc89 2.105 . S
O109 C94 1.268 . S
Sc110 O113 2.025 . S
Sc110 O120 2.105 . S
Sc110 O123 2.105 . S
Sc110 O126 2.105 . S
Sc110 O129 2.105 . S
Sc111 O113 2.025 . S
Sc111 O121 2.105 . S
Sc111 O125 2.105 . S
Sc111 O127 2.105 . S
Sc111 O131 2.105 . S
Sc112 O113 2.025 . S
Sc112 O122 2.105 . S
Sc112 O124 2.105 . S
Sc112 O128 2.105 . S
Sc112 O130 2.105 . S
O113 Sc110 2.025 . S
O113 Sc111 2.025 . S
O113 Sc112 2.025 . S
C114 O120 1.268 . S
C114 O130 1.268 . S
C115 O121 1.268 . S
C115 O129 1.268 . S
C116 O122 1.268 . S
C116 O131 1.268 . S
C117 O123 1.268 . S
C117 O127 1.268 . S
C118 O124 1.268 . S
C118 O126 1.268 . S
C119 O125 1.268 . S
C119 O128 1.268 . S
O120 Sc110 2.105 . S
O120 C114 1.268 . S
O121 Sc111 2.105 . S
O121 C115 1.268 . S
O122 Sc112 2.105 . S
O122 C116 1.268 . S
O123 Sc110 2.105 . S
O123 C117 1.268 . S
O124 Sc112 2.105 . S
O124 C118 1.268 . S
O125 Sc111 2.105 . S
O125 C119 1.268 . S
O126 Sc110 2.105 . S
O126 C118 1.268 . S
O127 Sc111 2.105 . S
O127 C117 1.268 . S
O128 Sc112 2.105 . S
O128 C119 1.268 . S
O129 Sc110 2.105 . S
O129 C115 1.268 . S
O130 Sc112 2.105 . S
O130 C114 1.268 . S
O131 Sc111 2.105 . S
O131 C116 1.268 . S
Sc132 O135 2.025 . S
Sc132 O142 2.105 . S
Sc132 O145 2.105 . S
Sc132 O148 2.105 . S
Sc132 O151 2.105 . S
Sc133 O135 2.025 . S
Sc133 O143 2.105 . S
Sc133 O147 2.105 . S
Sc133 O149 2.105 . S
Sc133 O153 2.105 . S
Sc134 O135 2.025 . S
Sc134 O144 2.105 . S
Sc134 O146 2.105 . S
Sc134 O150 2.105 . S
Sc134 O152 2.105 . S
O135 Sc132 2.025 . S
O135 Sc133 2.025 . S
O135 Sc134 2.025 . S
C136 O142 1.268 . S
C136 O152 1.268 . S
C137 O143 1.268 . S
C137 O151 1.268 . S
C138 O144 1.268 . S
C138 O153 1.268 . S
C139 O145 1.268 . S
C139 O149 1.268 . S
C140 O146 1.268 . S
C140 O148 1.268 . S
C141 O147 1.268 . S
C141 O150 1.268 . S
O142 Sc132 2.105 . S
O142 C136 1.268 . S
O143 Sc133 2.105 . S
O143 C137 1.268 . S
O144 Sc134 2.105 . S
O144 C138 1.268 . S
O145 Sc132 2.105 . S
O145 C139 1.268 . S
O146 Sc134 2.105 . S
O146 C140 1.268 . S
O147 Sc133 2.105 . S
O147 C141 1.268 . S
O148 Sc132 2.105 . S
O148 C140 1.268 . S
O149 Sc133 2.105 . S
O149 C139 1.268 . S
O150 Sc134 2.105 . S
O150 C141 1.268 . S
O151 Sc132 2.105 . S
O151 C137 1.268 . S
O152 Sc134 2.105 . S
O152 C136 1.268 . S
O153 Sc133 2.105 . S
O153 C138 1.268 . S
Sc154 O157 2.025 . S
Sc154 O164 2.105 . S
Sc154 O167 2.105 . S
Sc154 O170 2.105 1_556 S
Sc154 O173 2.105 . S
Sc155 O157 2.025 . S
Sc155 O165 2.105 . S
Sc155 O169 2.105 . S
Sc155 O171 2.105 . S
Sc155 O175 2.105 . S
Sc156 O157 2.025 . S
Sc156 O166 2.105 . S
Sc156 O168 2.105 1_556 S
Sc156 O172 2.105 . S
Sc156 O174 2.105 . S
O157 Sc154 2.025 . S
O157 Sc155 2.025 . S
O157 Sc156 2.025 . S
C158 O164 1.268 . S
C158 O174 1.268 . S
C159 O165 1.268 . S
C159 O173 1.268 . S
C160 O166 1.268 . S
C160 O175 1.268 . S
C161 O167 1.268 . S
C161 O171 1.268 . S
C162 O168 1.268 . S
C162 O170 1.268 . S
C163 O169 1.268 . S
C163 O172 1.268 . S
O164 Sc154 2.105 . S
O164 C158 1.268 . S
O165 Sc155 2.105 . S
O165 C159 1.268 . S
O166 Sc156 2.105 . S
O166 C160 1.268 . S
O167 Sc154 2.105 . S
O167 C161 1.268 . S
O168 Sc156 2.105 1_554 S
O168 C162 1.268 . S
O169 Sc155 2.105 . S
O169 C163 1.268 . S
O170 Sc154 2.105 1_554 S
O170 C162 1.268 . S
O171 Sc155 2.105 . S
O171 C161 1.268 . S
O172 Sc156 2.105 . S
O172 C163 1.268 . S
O173 Sc154 2.105 . S
O173 C159 1.268 . S
O174 Sc156 2.105 . S
O174 C158 1.268 . S
O175 Sc155 2.105 . S
O175 C160 1.268 . S
Sc176 O179 2.025 . S
Sc176 O186 2.105 . S
Sc176 O189 2.105 . S
Sc176 O192 2.105 . S
Sc176 O195 2.105 . S
Sc177 O179 2.025 . S
Sc177 O187 2.105 . S
Sc177 O191 2.105 . S
Sc177 O193 2.105 . S
Sc177 O197 2.105 . S
Sc178 O179 2.025 . S
Sc178 O188 2.105 . S
Sc178 O190 2.105 . S
Sc178 O194 2.105 . S
Sc178 O196 2.105 . S
O179 Sc176 2.025 . S
O179 Sc177 2.025 . S
O179 Sc178 2.025 . S
C180 O186 1.268 . S
C180 O196 1.268 . S
C181 O187 1.268 . S
C181 O195 1.268 . S
C182 O188 1.268 . S
C182 O197 1.268 . S
C183 O189 1.268 . S
C183 O193 1.268 . S
C184 O190 1.268 . S
C184 O192 1.268 . S
C185 O191 1.268 . S
C185 O194 1.268 . S
O186 Sc176 2.105 . S
O186 C180 1.268 . S
O187 Sc177 2.105 . S
O187 C181 1.268 . S
O188 Sc178 2.105 . S
O188 C182 1.268 . S
O189 Sc176 2.105 . S
O189 C183 1.268 . S
O190 Sc178 2.105 . S
O190 C184 1.268 . S
O191 Sc177 2.105 . S
O191 C185 1.268 . S
O192 Sc176 2.105 . S
O192 C184 1.268 . S
O193 Sc177 2.105 . S
O193 C183 1.268 . S
O194 Sc178 2.105 . S
O194 C185 1.268 . S
O195 Sc176 2.105 . S
O195 C181 1.268 . S
O196 Sc178 2.105 . S
O196 C180 1.268 . S
O197 Sc177 2.105 . S
O197 C182 1.268 . S
Sc198 O201 2.025 . S
Sc198 O208 2.105 . S
Sc198 O211 2.105 . S
Sc198 O214 2.105 . S
Sc198 O217 2.105 . S
Sc199 O201 2.025 . S
Sc199 O209 2.105 . S
Sc199 O213 2.105 . S
Sc199 O215 2.105 . S
Sc199 O219 2.105 . S
Sc200 O201 2.025 . S
Sc200 O210 2.105 . S
Sc200 O212 2.105 . S
Sc200 O216 2.105 . S
Sc200 O218 2.105 . S
O201 Sc198 2.025 . S
O201 Sc199 2.025 . S
O201 Sc200 2.025 . S
C202 O208 1.268 . S
C202 O218 1.268 . S
C203 O209 1.268 . S
C203 O217 1.268 . S
C204 O210 1.268 . S
C204 O219 1.268 . S
C205 O211 1.268 . S
C205 O215 1.268 . S
C206 O212 1.268 . S
C206 O214 1.268 . S
C207 O213 1.268 . S
C207 O216 1.268 . S
O208 Sc198 2.105 . S
O208 C202 1.268 . S
O209 Sc199 2.105 . S
O209 C203 1.268 . S
O210 Sc200 2.105 . S
O210 C204 1.268 . S
O211 Sc198 2.105 . S
O211 C205 1.268 . S
O212 Sc200 2.105 . S
O212 C206 1.268 . S
O213 Sc199 2.105 . S
O213 C207 1.268 . S
O214 Sc198 2.105 . S
O214 C206 1.268 . S
O215 Sc199 2.105 . S
O215 C205 1.268 . S
O216 Sc200 2.105 . S
O216 C207 1.268 . S
O217 Sc198 2.105 . S
O217 C203 1.268 . S
O218 Sc200 2.105 . S
O218 C202 1.268 . S
O219 Sc199 2.105 . S
O219 C204 1.268 . S
Sc220 O223 2.025 . S
Sc220 O230 2.105 . S
Sc220 O233 2.105 . S
Sc220 O236 2.105 . S
Sc220 O239 2.105 . S
Sc221 O223 2.025 . S
Sc221 O231 2.105 . S
Sc221 O235 2.105 . S
Sc221 O237 2.105 . S
Sc221 O241 2.105 . S
Sc222 O223 2.025 . S
Sc222 O232 2.105 . S
Sc222 O234 2.105 . S
Sc222 O238 2.105 . S
Sc222 O240 2.105 . S
O223 Sc220 2.025 . S
O223 Sc221 2.025 . S
O223 Sc222 2.025 . S
C224 O230 1.268 . S
C224 O240 1.268 . S
C225 O231 1.268 . S
C225 O239 1.268 . S
C226 O232 1.268 . S
C226 O241 1.268 . S
C227 O233 1.268 . S
C227 O237 1.268 . S
C228 O234 1.268 . S
C228 O236 1.268 . S
C229 O235 1.268 . S
C229 O238 1.268 . S
O230 Sc220 2.105 . S
O230 C224 1.268 . S
O231 Sc221 2.105 . S
O231 C225 1.268 . S
O232 Sc222 2.105 . S
O232 C226 1.268 . S
O233 Sc220 2.105 . S
O233 C227 1.268 . S
O234 Sc222 2.105 . S
O234 C228 1.268 . S
O235 Sc221 2.105 . S
O235 C229 1.268 . S
O236 Sc220 2.105 . S
O236 C228 1.268 . S
O237 Sc221 2.105 . S
O237 C227 1.268 . S
O238 Sc222 2.105 . S
O238 C229 1.268 . S
O239 Sc220 2.105 . S
O239 C225 1.268 . S
O240 Sc222 2.105 . S
O240 C224 1.268 . S
O241 Sc221 2.105 . S
O241 C226 1.268 . S
Sc242 O245 2.025 . S
Sc242 O252 2.105 . S
Sc242 O255 2.105 . S
Sc242 O258 2.105 1_556 S
Sc242 O261 2.105 . S
Sc243 O245 2.025 . S
Sc243 O253 2.105 . S
Sc243 O257 2.105 . S
Sc243 O259 2.105 . S
Sc243 O263 2.105 . S
Sc244 O245 2.025 . S
Sc244 O254 2.105 . S
Sc244 O256 2.105 1_556 S
Sc244 O260 2.105 . S
Sc244 O262 2.105 . S
O245 Sc242 2.025 . S
O245 Sc243 2.025 . S
O245 Sc244 2.025 . S
C246 O252 1.268 . S
C246 O262 1.268 . S
C247 O253 1.268 . S
C247 O261 1.268 . S
C248 O254 1.268 . S
C248 O263 1.268 . S
C249 O255 1.268 . S
C249 O259 1.268 . S
C250 O256 1.268 . S
C250 O258 1.268 . S
C251 O257 1.268 . S
C251 O260 1.268 . S
O252 Sc242 2.105 . S
O252 C246 1.268 . S
O253 Sc243 2.105 . S
O253 C247 1.268 . S
O254 Sc244 2.105 . S
O254 C248 1.268 . S
O255 Sc242 2.105 . S
O255 C249 1.268 . S
O256 Sc244 2.105 1_554 S
O256 C250 1.268 . S
O257 Sc243 2.105 . S
O257 C251 1.268 . S
O258 Sc242 2.105 1_554 S
O258 C250 1.268 . S
O259 Sc243 2.105 . S
O259 C249 1.268 . S
O260 Sc244 2.105 . S
O260 C251 1.268 . S
O261 Sc242 2.105 . S
O261 C247 1.268 . S
O262 Sc244 2.105 . S
O262 C246 1.268 . S
O263 Sc243 2.105 . S
O263 C248 1.268 . S
Sc264 O267 2.025 . S
Sc264 O274 2.105 . S
Sc264 O277 2.105 . S
Sc264 O280 2.105 . S
Sc264 O283 2.105 . S
Sc265 O267 2.025 . S
Sc265 O275 2.105 . S
Sc265 O279 2.105 . S
Sc265 O281 2.105 . S
Sc265 O285 2.105 . S
Sc266 O267 2.025 . S
Sc266 O276 2.105 . S
Sc266 O278 2.105 . S
Sc266 O282 2.105 . S
Sc266 O284 2.105 . S
O267 Sc264 2.025 . S
O267 Sc265 2.025 . S
O267 Sc266 2.025 . S
C268 O274 1.268 . S
C268 O284 1.268 . S
C269 O275 1.268 . S
C269 O283 1.268 . S
C270 O276 1.268 . S
C270 O285 1.268 . S
C271 O277 1.268 . S
C271 O281 1.268 . S
C272 O278 1.268 . S
C272 O280 1.268 . S
C273 O279 1.268 . S
C273 O282 1.268 . S
O274 Sc264 2.105 . S
O274 C268 1.268 . S
O275 Sc265 2.105 . S
O275 C269 1.268 . S
O276 Sc266 2.105 . S
O276 C270 1.268 . S
O277 Sc264 2.105 . S
O277 C271 1.268 . S
O278 Sc266 2.105 . S
O278 C272 1.268 . S
O279 Sc265 2.105 . S
O279 C273 1.268 . S
O280 Sc264 2.105 . S
O280 C272 1.268 . S
O281 Sc265 2.105 . S
O281 C271 1.268 . S
O282 Sc266 2.105 . S
O282 C273 1.268 . S
O283 Sc264 2.105 . S
O283 C269 1.268 . S
O284 Sc266 2.105 . S
O284 C268 1.268 . S
O285 Sc265 2.105 . S
O285 C270 1.268 . S
Sc286 O289 2.025 . S
Sc286 O296 2.105 . S
Sc286 O299 2.105 . S
Sc286 O302 2.105 . S
Sc286 O305 2.105 . S
Sc287 O289 2.025 . S
Sc287 O297 2.105 . S
Sc287 O301 2.105 . S
Sc287 O303 2.105 . S
Sc287 O307 2.105 . S
Sc288 O289 2.025 . S
Sc288 O298 2.105 . S
Sc288 O300 2.105 . S
Sc288 O304 2.105 . S
Sc288 O306 2.105 . S
O289 Sc286 2.025 . S
O289 Sc287 2.025 . S
O289 Sc288 2.025 . S
C290 O296 1.268 . S
C290 O306 1.268 . S
C291 O297 1.268 . S
C291 O305 1.268 . S
C292 O298 1.268 . S
C292 O307 1.268 . S
C293 O299 1.268 . S
C293 O303 1.268 . S
C294 O300 1.268 . S
C294 O302 1.268 . S
C295 O301 1.268 . S
C295 O304 1.268 . S
O296 Sc286 2.105 . S
O296 C290 1.268 . S
O297 Sc287 2.105 . S
O297 C291 1.268 . S
O298 Sc288 2.105 . S
O298 C292 1.268 . S
O299 Sc286 2.105 . S
O299 C293 1.268 . S
O300 Sc288 2.105 . S
O300 C294 1.268 . S
O301 Sc287 2.105 . S
O301 C295 1.268 . S
O302 Sc286 2.105 . S
O302 C294 1.268 . S
O303 Sc287 2.105 . S
O303 C293 1.268 . S
O304 Sc288 2.105 . S
O304 C295 1.268 . S
O305 Sc286 2.105 . S
O305 C291 1.268 . S
O306 Sc288 2.105 . S
O306 C290 1.268 . S
O307 Sc287 2.105 . S
O307 C292 1.268 . S
Sc308 O311 2.025 . S
Sc308 O318 2.105 . S
Sc308 O321 2.105 . S
Sc308 O324 2.105 . S
Sc308 O327 2.105 . S
Sc309 O311 2.025 . S
Sc309 O319 2.105 . S
Sc309 O323 2.105 . S
Sc309 O325 2.105 . S
Sc309 O329 2.105 . S
Sc310 O311 2.025 . S
Sc310 O320 2.105 . S
Sc310 O322 2.105 . S
Sc310 O326 2.105 . S
Sc310 O328 2.105 . S
O311 Sc308 2.025 . S
O311 Sc309 2.025 . S
O311 Sc310 2.025 . S
C312 O318 1.268 . S
C312 O328 1.268 . S
C313 O319 1.268 . S
C313 O327 1.268 . S
C314 O320 1.268 . S
C314 O329 1.268 . S
C315 O321 1.268 . S
C315 O325 1.268 . S
C316 O322 1.268 . S
C316 O324 1.268 . S
C317 O323 1.268 . S
C317 O326 1.268 . S
O318 Sc308 2.105 . S
O318 C312 1.268 . S
O319 Sc309 2.105 . S
O319 C313 1.268 . S
O320 Sc310 2.105 . S
O320 C314 1.268 . S
O321 Sc308 2.105 . S
O321 C315 1.268 . S
O322 Sc310 2.105 . S
O322 C316 1.268 . S
O323 Sc309 2.105 . S
O323 C317 1.268 . S
O324 Sc308 2.105 . S
O324 C316 1.268 . S
O325 Sc309 2.105 . S
O325 C315 1.268 . S
O326 Sc310 2.105 . S
O326 C317 1.268 . S
O327 Sc308 2.105 . S
O327 C313 1.268 . S
O328 Sc310 2.105 . S
O328 C312 1.268 . S
O329 Sc309 2.105 . S
O329 C314 1.268 . S
Sc330 O333 2.025 . S
Sc330 O340 2.105 1_554 S
Sc330 O343 2.105 . S
Sc330 O346 2.105 . S
Sc330 O349 2.105 . S
Sc331 O333 2.025 . S
Sc331 O341 2.105 . S
Sc331 O345 2.105 . S
Sc331 O347 2.105 . S
Sc331 O351 2.105 . S
Sc332 O333 2.025 . S
Sc332 O342 2.105 . S
Sc332 O344 2.105 . S
Sc332 O348 2.105 . S
Sc332 O350 2.105 1_554 S
O333 Sc330 2.025 . S
O333 Sc331 2.025 . S
O333 Sc332 2.025 . S
C334 O340 1.268 . S
C334 O350 1.268 . S
C335 O341 1.268 . S
C335 O349 1.268 . S
C336 O342 1.268 . S
C336 O351 1.268 . S
C337 O343 1.268 . S
C337 O347 1.268 . S
C338 O344 1.268 . S
C338 O346 1.268 . S
C339 O345 1.268 . S
C339 O348 1.268 . S
O340 Sc330 2.105 1_556 S
O340 C334 1.268 . S
O341 Sc331 2.105 . S
O341 C335 1.268 . S
O342 Sc332 2.105 . S
O342 C336 1.268 . S
O343 Sc330 2.105 . S
O343 C337 1.268 . S
O344 Sc332 2.105 . S
O344 C338 1.268 . S
O345 Sc331 2.105 . S
O345 C339 1.268 . S
O346 Sc330 2.105 . S
O346 C338 1.268 . S
O347 Sc331 2.105 . S
O347 C337 1.268 . S
O348 Sc332 2.105 . S
O348 C339 1.268 . S
O349 Sc330 2.105 . S
O349 C335 1.268 . S
O350 Sc332 2.105 1_556 S
O350 C334 1.268 . S
O351 Sc331 2.105 . S
O351 C336 1.268 . S
Sc352 O355 2.025 . S
Sc352 O362 2.105 . S
Sc352 O365 2.105 . S
Sc352 O368 2.105 . S
Sc352 O371 2.105 . S
Sc353 O355 2.025 . S
Sc353 O363 2.105 . S
Sc353 O367 2.105 . S
Sc353 O369 2.105 . S
Sc353 O373 2.105 . S
Sc354 O355 2.025 . S
Sc354 O364 2.105 . S
Sc354 O366 2.105 . S
Sc354 O370 2.105 . S
Sc354 O372 2.105 . S
O355 Sc352 2.025 . S
O355 Sc353 2.025 . S
O355 Sc354 2.025 . S
C356 O362 1.268 . S
C356 O372 1.268 . S
C357 O363 1.268 . S
C357 O371 1.268 . S
C358 O364 1.268 . S
C358 O373 1.268 . S
C359 O365 1.268 . S
C359 O369 1.268 . S
C360 O366 1.268 . S
C360 O368 1.268 . S
C361 O367 1.268 . S
C361 O370 1.268 . S
O362 Sc352 2.105 . S
O362 C356 1.268 . S
O363 Sc353 2.105 . S
O363 C357 1.268 . S
O364 Sc354 2.105 . S
O364 C358 1.268 . S
O365 Sc352 2.105 . S
O365 C359 1.268 . S
O366 Sc354 2.105 . S
O366 C360 1.268 . S
O367 Sc353 2.105 . S
O367 C361 1.268 . S
O368 Sc352 2.105 . S
O368 C360 1.268 . S
O369 Sc353 2.105 . S
O369 C359 1.268 . S
O370 Sc354 2.105 . S
O370 C361 1.268 . S
O371 Sc352 2.105 . S
O371 C357 1.268 . S
O372 Sc354 2.105 . S
O372 C356 1.268 . S
O373 Sc353 2.105 . S
O373 C358 1.268 . S
Sc374 O377 2.025 . S
Sc374 O384 2.105 1_554 S
Sc374 O387 2.105 . S
Sc374 O390 2.105 . S
Sc374 O393 2.105 . S
Sc375 O377 2.025 . S
Sc375 O385 2.105 . S
Sc375 O389 2.105 . S
Sc375 O391 2.105 . S
Sc375 O395 2.105 . S
Sc376 O377 2.025 . S
Sc376 O386 2.105 . S
Sc376 O388 2.105 . S
Sc376 O392 2.105 . S
Sc376 O394 2.105 1_554 S
O377 Sc374 2.025 . S
O377 Sc375 2.025 . S
O377 Sc376 2.025 . S
C378 O384 1.268 . S
C378 O394 1.268 . S
C379 O385 1.268 . S
C379 O393 1.268 . S
C380 O386 1.268 . S
C380 O395 1.268 . S
C381 O387 1.268 . S
C381 O391 1.268 . S
C382 O388 1.268 . S
C382 O390 1.268 . S
C383 O389 1.268 . S
C383 O392 1.268 . S
O384 Sc374 2.105 1_556 S
O384 C378 1.268 . S
O385 Sc375 2.105 . S
O385 C379 1.268 . S
O386 Sc376 2.105 . S
O386 C380 1.268 . S
O387 Sc374 2.105 . S
O387 C381 1.268 . S
O388 Sc376 2.105 . S
O388 C382 1.268 . S
O389 Sc375 2.105 . S
O389 C383 1.268 . S
O390 Sc374 2.105 . S
O390 C382 1.268 . S
O391 Sc375 2.105 . S
O391 C381 1.268 . S
O392 Sc376 2.105 . S
O392 C383 1.268 . S
O393 Sc374 2.105 . S
O393 C379 1.268 . S
O394 Sc376 2.105 1_556 S
O394 C378 1.268 . S
O395 Sc375 2.105 . S
O395 C380 1.268 . S
Sc396 O399 2.025 . S
Sc396 O406 2.105 . S
Sc396 O409 2.105 . S
Sc396 O412 2.105 . S
Sc396 O415 2.105 . S
Sc397 O399 2.025 . S
Sc397 O407 2.105 . S
Sc397 O411 2.105 . S
Sc397 O413 2.105 . S
Sc397 O417 2.105 . S
Sc398 O399 2.025 . S
Sc398 O408 2.105 . S
Sc398 O410 2.105 . S
Sc398 O414 2.105 . S
Sc398 O416 2.105 . S
O399 Sc396 2.025 . S
O399 Sc397 2.025 . S
O399 Sc398 2.025 . S
C400 O406 1.268 . S
C400 O416 1.268 . S
C401 O407 1.268 . S
C401 O415 1.268 . S
C402 O408 1.268 . S
C402 O417 1.268 . S
C403 O409 1.268 . S
C403 O413 1.268 . S
C404 O410 1.268 . S
C404 O412 1.268 . S
C405 O411 1.268 . S
C405 O414 1.268 . S
O406 Sc396 2.105 . S
O406 C400 1.268 . S
O407 Sc397 2.105 . S
O407 C401 1.268 . S
O408 Sc398 2.105 . S
O408 C402 1.268 . S
O409 Sc396 2.105 . S
O409 C403 1.268 . S
O410 Sc398 2.105 . S
O410 C404 1.268 . S
O411 Sc397 2.105 . S
O411 C405 1.268 . S
O412 Sc396 2.105 . S
O412 C404 1.268 . S
O413 Sc397 2.105 . S
O413 C403 1.268 . S
O414 Sc398 2.105 . S
O414 C405 1.268 . S
O415 Sc396 2.105 . S
O415 C401 1.268 . S
O416 Sc398 2.105 . S
O416 C400 1.268 . S
O417 Sc397 2.105 . S
O417 C402 1.268 . S
Sc418 O421 2.025 . S
Sc418 O428 2.105 . S
Sc418 O431 2.105 . S
Sc418 O434 2.105 . S
Sc418 O437 2.105 . S
Sc419 O421 2.025 . S
Sc419 O429 2.105 . S
Sc419 O433 2.105 . S
Sc419 O435 2.105 . S
Sc419 O439 2.105 . S
Sc420 O421 2.025 . S
Sc420 O430 2.105 . S
Sc420 O432 2.105 . S
Sc420 O436 2.105 . S
Sc420 O438 2.105 . S
O421 Sc418 2.025 . S
O421 Sc419 2.025 . S
O421 Sc420 2.025 . S
C422 O428 1.268 . S
C422 O438 1.268 . S
C423 O429 1.268 . S
C423 O437 1.268 . S
C424 O430 1.268 . S
C424 O439 1.268 . S
C425 O431 1.268 . S
C425 O435 1.268 . S
C426 O432 1.268 . S
C426 O434 1.268 . S
C427 O433 1.268 . S
C427 O436 1.268 . S
O428 Sc418 2.105 . S
O428 C422 1.268 . S
O429 Sc419 2.105 . S
O429 C423 1.268 . S
O430 Sc420 2.105 . S
O430 C424 1.268 . S
O431 Sc418 2.105 . S
O431 C425 1.268 . S
O432 Sc420 2.105 . S
O432 C426 1.268 . S
O433 Sc419 2.105 . S
O433 C427 1.268 . S
O434 Sc418 2.105 . S
O434 C426 1.268 . S
O435 Sc419 2.105 . S
O435 C425 1.268 . S
O436 Sc420 2.105 . S
O436 C427 1.268 . S
O437 Sc418 2.105 . S
O437 C423 1.268 . S
O438 Sc420 2.105 . S
O438 C422 1.268 . S
O439 Sc419 2.105 . S
O439 C424 1.268 . S
Sc440 O443 2.025 . S
Sc440 O450 2.105 . S
Sc440 O453 2.105 . S
Sc440 O456 2.105 . S
Sc440 O459 2.105 . S
Sc441 O443 2.025 . S
Sc441 O451 2.105 . S
Sc441 O455 2.105 . S
Sc441 O457 2.105 . S
Sc441 O461 2.105 . S
Sc442 O443 2.025 . S
Sc442 O452 2.105 . S
Sc442 O454 2.105 . S
Sc442 O458 2.105 . S
Sc442 O460 2.105 . S
O443 Sc440 2.025 . S
O443 Sc441 2.025 . S
O443 Sc442 2.025 . S
C444 O450 1.268 . S
C444 O460 1.268 . S
C445 O451 1.268 . S
C445 O459 1.268 . S
C446 O452 1.268 . S
C446 O461 1.268 . S
C447 O453 1.268 . S
C447 O457 1.268 . S
C448 O454 1.268 . S
C448 O456 1.268 . S
C449 O455 1.268 . S
C449 O458 1.268 . S
O450 Sc440 2.105 . S
O450 C444 1.268 . S
O451 Sc441 2.105 . S
O451 C445 1.268 . S
O452 Sc442 2.105 . S
O452 C446 1.268 . S
O453 Sc440 2.105 . S
O453 C447 1.268 . S
O454 Sc442 2.105 . S
O454 C448 1.268 . S
O455 Sc441 2.105 . S
O455 C449 1.268 . S
O456 Sc440 2.105 . S
O456 C448 1.268 . S
O457 Sc441 2.105 . S
O457 C447 1.268 . S
O458 Sc442 2.105 . S
O458 C449 1.268 . S
O459 Sc440 2.105 . S
O459 C445 1.268 . S
O460 Sc442 2.105 . S
O460 C444 1.268 . S
O461 Sc441 2.105 . S
O461 C446 1.268 . S
Sc462 O465 2.025 . S
Sc462 O472 2.105 . S
Sc462 O475 2.105 . S
Sc462 O478 2.105 1_556 S
Sc462 O481 2.105 . S
Sc463 O465 2.025 . S
Sc463 O473 2.105 . S
Sc463 O477 2.105 . S
Sc463 O479 2.105 . S
Sc463 O483 2.105 . S
Sc464 O465 2.025 . S
Sc464 O474 2.105 . S
Sc464 O476 2.105 1_556 S
Sc464 O480 2.105 . S
Sc464 O482 2.105 . S
O465 Sc462 2.025 . S
O465 Sc463 2.025 . S
O465 Sc464 2.025 . S
C466 O472 1.268 . S
C466 O482 1.268 . S
C467 O473 1.268 . S
C467 O481 1.268 . S
C468 O474 1.268 . S
C468 O483 1.268 . S
C469 O475 1.268 . S
C469 O479 1.268 . S
C470 O476 1.268 . S
C470 O478 1.268 . S
C471 O477 1.268 . S
C471 O480 1.268 . S
O472 Sc462 2.105 . S
O472 C466 1.268 . S
O473 Sc463 2.105 . S
O473 C467 1.268 . S
O474 Sc464 2.105 . S
O474 C468 1.268 . S
O475 Sc462 2.105 . S
O475 C469 1.268 . S
O476 Sc464 2.105 1_554 S
O476 C470 1.268 . S
O477 Sc463 2.105 . S
O477 C471 1.268 . S
O478 Sc462 2.105 1_554 S
O478 C470 1.268 . S
O479 Sc463 2.105 . S
O479 C469 1.268 . S
O480 Sc464 2.105 . S
O480 C471 1.268 . S
O481 Sc462 2.105 . S
O481 C467 1.268 . S
O482 Sc464 2.105 . S
O482 C466 1.268 . S
O483 Sc463 2.105 . S
O483 C468 1.268 . S
Sc484 O487 2.025 . S
Sc484 O494 2.105 . S
Sc484 O497 2.105 . S
Sc484 O500 2.105 . S
Sc484 O503 2.105 . S
Sc485 O487 2.025 . S
Sc485 O495 2.105 . S
Sc485 O499 2.105 . S
Sc485 O501 2.105 . S
Sc485 O505 2.105 . S
Sc486 O487 2.025 . S
Sc486 O496 2.105 . S
Sc486 O498 2.105 . S
Sc486 O502 2.105 . S
Sc486 O504 2.105 . S
O487 Sc484 2.025 . S
O487 Sc485 2.025 . S
O487 Sc486 2.025 . S
C488 O494 1.268 . S
C488 O504 1.268 . S
C489 O495 1.268 . S
C489 O503 1.268 . S
C490 O496 1.268 . S
C490 O505 1.268 . S
C491 O497 1.268 . S
C491 O501 1.268 . S
C492 O498 1.268 . S
C492 O500 1.268 . S
C493 O499 1.268 . S
C493 O502 1.268 . S
O494 Sc484 2.105 . S
O494 C488 1.268 . S
O495 Sc485 2.105 . S
O495 C489 1.268 . S
O496 Sc486 2.105 . S
O496 C490 1.268 . S
O497 Sc484 2.105 . S
O497 C491 1.268 . S
O498 Sc486 2.105 . S
O498 C492 1.268 . S
O499 Sc485 2.105 . S
O499 C493 1.268 . S
O500 Sc484 2.105 . S
O500 C492 1.268 . S
O501 Sc485 2.105 . S
O501 C491 1.268 . S
O502 Sc486 2.105 . S
O502 C493 1.268 . S
O503 Sc484 2.105 . S
O503 C489 1.268 . S
O504 Sc486 2.105 . S
O504 C488 1.268 . S
O505 Sc485 2.105 . S
O505 C490 1.268 . S
Sc506 O509 2.025 . S
Sc506 O516 2.105 . S
Sc506 O519 2.105 . S
Sc506 O522 2.105 . S
Sc506 O525 2.105 . S
Sc507 O509 2.025 . S
Sc507 O517 2.105 . S
Sc507 O521 2.105 . S
Sc507 O523 2.105 . S
Sc507 O527 2.105 . S
Sc508 O509 2.025 . S
Sc508 O518 2.105 . S
Sc508 O520 2.105 . S
Sc508 O524 2.105 . S
Sc508 O526 2.105 . S
O509 Sc506 2.025 . S
O509 Sc507 2.025 . S
O509 Sc508 2.025 . S
C510 O516 1.268 . S
C510 O526 1.268 . S
C511 O517 1.268 . S
C511 O525 1.268 . S
C512 O518 1.268 . S
C512 O527 1.268 . S
C513 O519 1.268 . S
C513 O523 1.268 . S
C514 O520 1.268 . S
C514 O522 1.268 . S
C515 O521 1.268 . S
C515 O524 1.268 . S
O516 Sc506 2.105 . S
O516 C510 1.268 . S
O517 Sc507 2.105 . S
O517 C511 1.268 . S
O518 Sc508 2.105 . S
O518 C512 1.268 . S
O519 Sc506 2.105 . S
O519 C513 1.268 . S
O520 Sc508 2.105 . S
O520 C514 1.268 . S
O521 Sc507 2.105 . S
O521 C515 1.268 . S
O522 Sc506 2.105 . S
O522 C514 1.268 . S
O523 Sc507 2.105 . S
O523 C513 1.268 . S
O524 Sc508 2.105 . S
O524 C515 1.268 . S
O525 Sc506 2.105 . S
O525 C511 1.268 . S
O526 Sc508 2.105 . S
O526 C510 1.268 . S
O527 Sc507 2.105 . S
O527 C512 1.268 . S
Sc528 O531 2.025 . S
Sc528 O538 2.105 . S
Sc528 O541 2.105 . S
Sc528 O544 2.105 . S
Sc528 O547 2.105 . S
Sc529 O531 2.025 . S
Sc529 O539 2.105 . S
Sc529 O543 2.105 . S
Sc529 O545 2.105 . S
Sc529 O549 2.105 . S
Sc530 O531 2.025 . S
Sc530 O540 2.105 . S
Sc530 O542 2.105 . S
Sc530 O546 2.105 . S
Sc530 O548 2.105 . S
O531 Sc528 2.025 . S
O531 Sc529 2.025 . S
O531 Sc530 2.025 . S
C532 O538 1.268 . S
C532 O548 1.268 . S
C533 O539 1.268 . S
C533 O547 1.268 . S
C534 O540 1.268 . S
C534 O549 1.268 . S
C535 O541 1.268 . S
C535 O545 1.268 . S
C536 O542 1.268 . S
C536 O544 1.268 . S
C537 O543 1.268 . S
C537 O546 1.268 . S
O538 Sc528 2.105 . S
O538 C532 1.268 . S
O539 Sc529 2.105 . S
O539 C533 1.268 . S
O540 Sc530 2.105 . S
O540 C534 1.268 . S
O541 Sc528 2.105 . S
O541 C535 1.268 . S
O542 Sc530 2.105 . S
O542 C536 1.268 . S
O543 Sc529 2.105 . S
O543 C537 1.268 . S
O544 Sc528 2.105 . S
O544 C536 1.268 . S
O545 Sc529 2.105 . S
O545 C535 1.268 . S
O546 Sc530 2.105 . S
O546 C537 1.268 . S
O547 Sc528 2.105 . S
O547 C533 1.268 . S
O548 Sc530 2.105 . S
O548 C532 1.268 . S
O549 Sc529 2.105 . S
O549 C534 1.268 . S
Sc550 O553 2.025 . S
Sc550 O560 2.105 . S
Sc550 O563 2.105 . S
Sc550 O566 2.105 1_556 S
Sc550 O569 2.105 . S
Sc551 O553 2.025 . S
Sc551 O561 2.105 . S
Sc551 O565 2.105 . S
Sc551 O567 2.105 . S
Sc551 O571 2.105 . S
Sc552 O553 2.025 . S
Sc552 O562 2.105 . S
Sc552 O564 2.105 1_556 S
Sc552 O568 2.105 . S
Sc552 O570 2.105 . S
O553 Sc550 2.025 . S
O553 Sc551 2.025 . S
O553 Sc552 2.025 . S
C554 O560 1.268 . S
C554 O570 1.268 . S
C555 O561 1.268 . S
C555 O569 1.268 . S
C556 O562 1.268 . S
C556 O571 1.268 . S
C557 O563 1.268 . S
C557 O567 1.268 . S
C558 O564 1.268 . S
C558 O566 1.268 . S
C559 O565 1.268 . S
C559 O568 1.268 . S
O560 Sc550 2.105 . S
O560 C554 1.268 . S
O561 Sc551 2.105 . S
O561 C555 1.268 . S
O562 Sc552 2.105 . S
O562 C556 1.268 . S
O563 Sc550 2.105 . S
O563 C557 1.268 . S
O564 Sc552 2.105 1_554 S
O564 C558 1.268 . S
O565 Sc551 2.105 . S
O565 C559 1.268 . S
O566 Sc550 2.105 1_554 S
O566 C558 1.268 . S
O567 Sc551 2.105 . S
O567 C557 1.268 . S
O568 Sc552 2.105 . S
O568 C559 1.268 . S
O569 Sc550 2.105 . S
O569 C555 1.268 . S
O570 Sc552 2.105 . S
O570 C554 1.268 . S
O571 Sc551 2.105 . S
O571 C556 1.268 . S
Sc572 O575 2.025 . S
Sc572 O582 2.105 . S
Sc572 O585 2.105 . S
Sc572 O588 2.105 . S
Sc572 O591 2.105 . S
Sc573 O575 2.025 . S
Sc573 O583 2.105 . S
Sc573 O587 2.105 . S
Sc573 O589 2.105 . S
Sc573 O593 2.105 . S
Sc574 O575 2.025 . S
Sc574 O584 2.105 . S
Sc574 O586 2.105 . S
Sc574 O590 2.105 . S
Sc574 O592 2.105 . S
O575 Sc572 2.025 . S
O575 Sc573 2.025 . S
O575 Sc574 2.025 . S
C576 O582 1.268 . S
C576 O592 1.268 . S
C577 O583 1.268 . S
C577 O591 1.268 . S
C578 O584 1.268 . S
C578 O593 1.268 . S
C579 O585 1.268 . S
C579 O589 1.268 . S
C580 O586 1.268 . S
C580 O588 1.268 . S
C581 O587 1.268 . S
C581 O590 1.268 . S
O582 Sc572 2.105 . S
O582 C576 1.268 . S
O583 Sc573 2.105 . S
O583 C577 1.268 . S
O584 Sc574 2.105 . S
O584 C578 1.268 . S
O585 Sc572 2.105 . S
O585 C579 1.268 . S
O586 Sc574 2.105 . S
O586 C580 1.268 . S
O587 Sc573 2.105 . S
O587 C581 1.268 . S
O588 Sc572 2.105 . S
O588 C580 1.268 . S
O589 Sc573 2.105 . S
O589 C579 1.268 . S
O590 Sc574 2.105 . S
O590 C581 1.268 . S
O591 Sc572 2.105 . S
O591 C577 1.268 . S
O592 Sc574 2.105 . S
O592 C576 1.268 . S
O593 Sc573 2.105 . S
O593 C578 1.268 . S
Sc594 O597 2.025 . S
Sc594 O604 2.105 . S
Sc594 O607 2.105 . S
Sc594 O610 2.105 . S
Sc594 O613 2.105 . S
Sc595 O597 2.025 . S
Sc595 O605 2.105 . S
Sc595 O609 2.105 . S
Sc595 O611 2.105 . S
Sc595 O615 2.105 . S
Sc596 O597 2.025 . S
Sc596 O606 2.105 . S
Sc596 O608 2.105 . S
Sc596 O612 2.105 . S
Sc596 O614 2.105 . S
O597 Sc594 2.025 . S
O597 Sc595 2.025 . S
O597 Sc596 2.025 . S
C598 O604 1.268 . S
C598 O614 1.268 . S
C599 O605 1.268 . S
C599 O613 1.268 . S
C600 O606 1.268 . S
C600 O615 1.268 . S
C601 O607 1.268 . S
C601 O611 1.268 . S
C602 O608 1.268 . S
C602 O610 1.268 . S
C603 O609 1.268 . S
C603 O612 1.268 . S
O604 Sc594 2.105 . S
O604 C598 1.268 . S
O605 Sc595 2.105 . S
O605 C599 1.268 . S
O606 Sc596 2.105 . S
O606 C600 1.268 . S
O607 Sc594 2.105 . S
O607 C601 1.268 . S
O608 Sc596 2.105 . S
O608 C602 1.268 . S
O609 Sc595 2.105 . S
O609 C603 1.268 . S
O610 Sc594 2.105 . S
O610 C602 1.268 . S
O611 Sc595 2.105 . S
O611 C601 1.268 . S
O612 Sc596 2.105 . S
O612 C603 1.268 . S
O613 Sc594 2.105 . S
O613 C599 1.268 . S
O614 Sc596 2.105 . S
O614 C598 1.268 . S
O615 Sc595 2.105 . S
O615 C600 1.268 . S
Sc616 O619 2.025 . S
Sc616 O626 2.105 . S
Sc616 O629 2.105 . S
Sc616 O632 2.105 . S
Sc616 O635 2.105 . S
Sc617 O619 2.025 . S
Sc617 O627 2.105 . S
Sc617 O631 2.105 . S
Sc617 O633 2.105 . S
Sc617 O637 2.105 . S
Sc618 O619 2.025 . S
Sc618 O628 2.105 . S
Sc618 O630 2.105 . S
Sc618 O634 2.105 . S
Sc618 O636 2.105 . S
O619 Sc616 2.025 . S
O619 Sc617 2.025 . S
O619 Sc618 2.025 . S
C620 O626 1.268 . S
C620 O636 1.268 . S
C621 O627 1.268 . S
C621 O635 1.268 . S
C622 O628 1.268 . S
C622 O637 1.268 . S
C623 O629 1.268 . S
C623 O633 1.268 . S
C624 O630 1.268 . S
C624 O632 1.268 . S
C625 O631 1.268 . S
C625 O634 1.268 . S
O626 Sc616 2.105 . S
O626 C620 1.268 . S
O627 Sc617 2.105 . S
O627 C621 1.268 . S
O628 Sc618 2.105 . S
O628 C622 1.268 . S
O629 Sc616 2.105 . S
O629 C623 1.268 . S
O630 Sc618 2.105 . S
O630 C624 1.268 . S
O631 Sc617 2.105 . S
O631 C625 1.268 . S
O632 Sc616 2.105 . S
O632 C624 1.268 . S
O633 Sc617 2.105 . S
O633 C623 1.268 . S
O634 Sc618 2.105 . S
O634 C625 1.268 . S
O635 Sc616 2.105 . S
O635 C621 1.268 . S
O636 Sc618 2.105 . S
O636 C620 1.268 . S
O637 Sc617 2.105 . S
O637 C622 1.268 . S
Sc638 O641 2.025 . S
Sc638 O648 2.105 1_554 S
Sc638 O651 2.105 . S
Sc638 O654 2.105 . S
Sc638 O657 2.105 . S
Sc639 O641 2.025 . S
Sc639 O649 2.105 . S
Sc639 O653 2.105 . S
Sc639 O655 2.105 . S
Sc639 O659 2.105 . S
Sc640 O641 2.025 . S
Sc640 O650 2.105 . S
Sc640 O652 2.105 . S
Sc640 O656 2.105 . S
Sc640 O658 2.105 1_554 S
O641 Sc638 2.025 . S
O641 Sc639 2.025 . S
O641 Sc640 2.025 . S
C642 O648 1.268 . S
C642 O658 1.268 . S
C643 O649 1.268 . S
C643 O657 1.268 . S
C644 O650 1.268 . S
C644 O659 1.268 . S
C645 O651 1.268 . S
C645 O655 1.268 . S
C646 O652 1.268 . S
C646 O654 1.268 . S
C647 O653 1.268 . S
C647 O656 1.268 . S
O648 Sc638 2.105 1_556 S
O648 C642 1.268 . S
O649 Sc639 2.105 . S
O649 C643 1.268 . S
O650 Sc640 2.105 . S
O650 C644 1.268 . S
O651 Sc638 2.105 . S
O651 C645 1.268 . S
O652 Sc640 2.105 . S
O652 C646 1.268 . S
O653 Sc639 2.105 . S
O653 C647 1.268 . S
O654 Sc638 2.105 . S
O654 C646 1.268 . S
O655 Sc639 2.105 . S
O655 C645 1.268 . S
O656 Sc640 2.105 . S
O656 C647 1.268 . S
O657 Sc638 2.105 . S
O657 C643 1.268 . S
O658 Sc640 2.105 1_556 S
O658 C642 1.268 . S
O659 Sc639 2.105 . S
O659 C644 1.268 . S
Sc660 O663 2.025 . S
Sc660 O670 2.105 . S
Sc660 O673 2.105 . S
Sc660 O676 2.105 . S
Sc660 O679 2.105 . S
Sc661 O663 2.025 . S
Sc661 O671 2.105 . S
Sc661 O675 2.105 . S
Sc661 O677 2.105 . S
Sc661 O681 2.105 . S
Sc662 O663 2.025 . S
Sc662 O672 2.105 . S
Sc662 O674 2.105 . S
Sc662 O678 2.105 . S
Sc662 O680 2.105 . S
O663 Sc660 2.025 . S
O663 Sc661 2.025 . S
O663 Sc662 2.025 . S
C664 O670 1.268 . S
C664 O680 1.268 . S
C665 O671 1.268 . S
C665 O679 1.268 . S
C666 O672 1.268 . S
C666 O681 1.268 . S
C667 O673 1.268 . S
C667 O677 1.268 . S
C668 O674 1.268 . S
C668 O676 1.268 . S
C669 O675 1.268 . S
C669 O678 1.268 . S
O670 Sc660 2.105 . S
O670 C664 1.268 . S
O671 Sc661 2.105 . S
O671 C665 1.268 . S
O672 Sc662 2.105 . S
O672 C666 1.268 . S
O673 Sc660 2.105 . S
O673 C667 1.268 . S
O674 Sc662 2.105 . S
O674 C668 1.268 . S
O675 Sc661 2.105 . S
O675 C669 1.268 . S
O676 Sc660 2.105 . S
O676 C668 1.268 . S
O677 Sc661 2.105 . S
O677 C667 1.268 . S
O678 Sc662 2.105 . S
O678 C669 1.268 . S
O679 Sc660 2.105 . S
O679 C665 1.268 . S
O680 Sc662 2.105 . S
O680 C664 1.268 . S
O681 Sc661 2.105 . S
O681 C666 1.268 . S
Sc682 O685 2.025 . S
Sc682 O692 2.105 . S
Sc682 O695 2.105 . S
Sc682 O698 2.105 . S
Sc682 O701 2.105 . S
Sc683 O685 2.025 . S
Sc683 O693 2.105 . S
Sc683 O697 2.105 . S
Sc683 O699 2.105 . S
Sc683 O703 2.105 . S
Sc684 O685 2.025 . S
Sc684 O694 2.105 . S
Sc684 O696 2.105 . S
Sc684 O700 2.105 . S
Sc684 O702 2.105 . S
O685 Sc682 2.025 . S
O685 Sc683 2.025 . S
O685 Sc684 2.025 . S
C686 O692 1.268 . S
C686 O702 1.268 . S
C687 O693 1.268 . S
C687 O701 1.268 . S
C688 O694 1.268 . S
C688 O703 1.268 . S
C689 O695 1.268 . S
C689 O699 1.268 . S
C690 O696 1.268 . S
C690 O698 1.268 . S
C691 O697 1.268 . S
C691 O700 1.268 . S
O692 Sc682 2.105 . S
O692 C686 1.268 . S
O693 Sc683 2.105 . S
O693 C687 1.268 . S
O694 Sc684 2.105 . S
O694 C688 1.268 . S
O695 Sc682 2.105 . S
O695 C689 1.268 . S
O696 Sc684 2.105 . S
O696 C690 1.268 . S
O697 Sc683 2.105 . S
O697 C691 1.268 . S
O698 Sc682 2.105 . S
O698 C690 1.268 . S
O699 Sc683 2.105 . S
O699 C689 1.268 . S
O700 Sc684 2.105 . S
O700 C691 1.268 . S
O701 Sc682 2.105 . S
O701 C687 1.268 . S
O702 Sc684 2.105 . S
O702 C686 1.268 . S
O703 Sc683 2.105 . S
O703 C688 1.268 . S
H704 C712 0.950 . S
H705 C717 0.950 . S
H706 C714 0.950 . S
H707 C716 0.950 . S
H708 C718 0.950 . S
H709 C720 0.950 . S
H710 C722 0.950 . S
H711 C723 0.950 . S
C712 H704 0.950 . S
C712 C713 1.386 . S
C712 C714 1.391 . S
C713 C712 1.386 . S
C713 C717 1.393 . S
C714 H706 0.950 . S
C714 C712 1.391 . S
C714 C715 1.400 . S
C715 C714 1.400 . S
C715 C716 1.398 . S
C715 C721 1.491 1_545 S
C716 H707 0.950 . S
C716 C715 1.398 . S
C716 C717 1.391 . S
C717 H705 0.950 . S
C717 C713 1.393 . S
C717 C716 1.391 . S
C718 H708 0.950 . S
C718 C719 1.386 . S
C718 C720 1.391 . S
C719 C718 1.386 . S
C719 C723 1.393 . S
C720 H709 0.950 . S
C720 C718 1.391 . S
C720 C721 1.400 . S
C721 C715 1.491 1_565 S
C721 C720 1.400 . S
C721 C722 1.398 . S
C722 H710 0.950 . S
C722 C721 1.398 . S
C722 C723 1.391 . S
C723 H711 0.950 . S
C723 C719 1.393 . S
C723 C722 1.391 . S
H724 C732 0.950 . S
H725 C737 0.950 . S
H726 C734 0.950 . S
H727 C736 0.950 . S
H728 C738 0.950 . S
H729 C740 0.950 . S
H730 C742 0.950 . S
H731 C743 0.950 . S
C732 H724 0.950 . S
C732 C733 1.386 . S
C732 C734 1.391 . S
C733 C732 1.386 . S
C733 C737 1.393 . S
C734 H726 0.950 . S
C734 C732 1.391 . S
C734 C735 1.400 . S
C735 C734 1.400 . S
C735 C736 1.398 . S
C735 C741 1.491 . S
C736 H727 0.950 . S
C736 C735 1.398 . S
C736 C737 1.391 . S
C737 H725 0.950 . S
C737 C733 1.393 . S
C737 C736 1.391 . S
C738 H728 0.950 . S
C738 C739 1.386 . S
C738 C740 1.391 . S
C739 C738 1.386 . S
C739 C743 1.393 . S
C740 H729 0.950 . S
C740 C738 1.391 . S
C740 C741 1.400 . S
C741 C735 1.491 . S
C741 C740 1.400 . S
C741 C742 1.398 . S
C742 H730 0.950 . S
C742 C741 1.398 . S
C742 C743 1.391 . S
C743 H731 0.950 . S
C743 C739 1.393 . S
C743 C742 1.391 . S
H744 C752 0.950 . S
H745 C757 0.950 . S
H746 C754 0.950 . S
H747 C756 0.950 . S
H748 C758 0.950 . S
H749 C760 0.950 . S
H750 C762 0.950 . S
H751 C763 0.950 . S
C752 H744 0.950 . S
C752 C753 1.386 . S
C752 C754 1.391 . S
C753 C752 1.386 . S
C753 C757 1.393 . S
C754 H746 0.950 . S
C754 C752 1.391 . S
C754 C755 1.400 . S
C755 C754 1.400 . S
C755 C756 1.398 . S
C755 C761 1.491 1_545 S
C756 H747 0.950 . S
C756 C755 1.398 . S
C756 C757 1.391 . S
C757 H745 0.950 . S
C757 C753 1.393 . S
C757 C756 1.391 . S
C758 H748 0.950 . S
C758 C759 1.386 . S
C758 C760 1.391 . S
C759 C758 1.386 . S
C759 C763 1.393 . S
C760 H749 0.950 . S
C760 C758 1.391 . S
C760 C761 1.400 . S
C761 C755 1.491 1_565 S
C761 C760 1.400 . S
C761 C762 1.398 . S
C762 H750 0.950 . S
C762 C761 1.398 . S
C762 C763 1.391 . S
C763 H751 0.950 . S
C763 C759 1.393 . S
C763 C762 1.391 . S
H764 C772 0.950 . S
H765 C777 0.950 . S
H766 C774 0.950 . S
H767 C776 0.950 . S
H768 C778 0.950 . S
H769 C780 0.950 . S
H770 C782 0.950 . S
H771 C783 0.950 . S
C772 H764 0.950 . S
C772 C773 1.386 . S
C772 C774 1.391 . S
C773 C772 1.386 . S
C773 C777 1.393 1_554 S
C774 H766 0.950 . S
C774 C772 1.391 . S
C774 C775 1.400 . S
C775 C774 1.400 . S
C775 C776 1.398 1_554 S
C775 C781 1.491 1_554 S
C776 H767 0.950 . S
C776 C775 1.398 1_556 S
C776 C777 1.391 . S
C777 H765 0.950 . S
C777 C773 1.393 1_556 S
C777 C776 1.391 . S
C778 H768 0.950 . S
C778 C779 1.386 . S
C778 C780 1.391 . S
C779 C778 1.386 . S
C779 C783 1.393 1_556 S
C780 H769 0.950 . S
C780 C778 1.391 . S
C780 C781 1.400 . S
C781 C775 1.491 1_556 S
C781 C780 1.400 . S
C781 C782 1.398 1_556 S
C782 H770 0.950 . S
C782 C781 1.398 1_554 S
C782 C783 1.391 . S
C783 H771 0.950 . S
C783 C779 1.393 1_554 S
C783 C782 1.391 . S
H784 C792 0.950 . S
H785 C797 0.950 . S
H786 C794 0.950 . S
H787 C796 0.950 . S
H788 C798 0.950 . S
H789 C800 0.950 . S
H790 C802 0.950 . S
H791 C803 0.950 . S
C792 H784 0.950 . S
C792 C793 1.386 . S
C792 C794 1.391 . S
C793 C792 1.386 . S
C793 C797 1.393 . S
C794 H786 0.950 . S
C794 C792 1.391 . S
C794 C795 1.400 . S
C795 C794 1.400 . S
C795 C796 1.398 . S
C795 C801 1.491 1_565 S
C796 H787 0.950 . S
C796 C795 1.398 . S
C796 C797 1.391 . S
C797 H785 0.950 . S
C797 C793 1.393 . S
C797 C796 1.391 . S
C798 H788 0.950 . S
C798 C799 1.386 . S
C798 C800 1.391 . S
C799 C798 1.386 . S
C799 C803 1.393 . S
C800 H789 0.950 . S
C800 C798 1.391 . S
C800 C801 1.400 . S
C801 C795 1.491 1_545 S
C801 C800 1.400 . S
C801 C802 1.398 . S
C802 H790 0.950 . S
C802 C801 1.398 . S
C802 C803 1.391 . S
C803 H791 0.950 . S
C803 C799 1.393 . S
C803 C802 1.391 . S
H804 C812 0.950 . S
H805 C817 0.950 . S
H806 C814 0.950 . S
H807 C816 0.950 . S
H808 C818 0.950 . S
H809 C820 0.950 . S
H810 C822 0.950 . S
H811 C823 0.950 . S
C812 H804 0.950 . S
C812 C813 1.386 . S
C812 C814 1.391 . S
C813 C812 1.386 . S
C813 C817 1.393 . S
C814 H806 0.950 . S
C814 C812 1.391 . S
C814 C815 1.400 . S
C815 C814 1.400 . S
C815 C816 1.398 . S
C815 C821 1.491 . S
C816 H807 0.950 . S
C816 C815 1.398 . S
C816 C817 1.391 . S
C817 H805 0.950 . S
C817 C813 1.393 . S
C817 C816 1.391 . S
C818 H808 0.950 . S
C818 C819 1.386 . S
C818 C820 1.391 . S
C819 C818 1.386 . S
C819 C823 1.393 . S
C820 H809 0.950 . S
C820 C818 1.391 . S
C820 C821 1.400 . S
C821 C815 1.491 . S
C821 C820 1.400 . S
C821 C822 1.398 . S
C822 H810 0.950 . S
C822 C821 1.398 . S
C822 C823 1.391 . S
C823 H811 0.950 . S
C823 C819 1.393 . S
C823 C822 1.391 . S
H824 C832 0.950 . S
H825 C837 0.950 . S
H826 C834 0.950 . S
H827 C836 0.950 . S
H828 C838 0.950 . S
H829 C840 0.950 . S
H830 C842 0.950 . S
H831 C843 0.950 . S
C832 H824 0.950 . S
C832 C833 1.386 . S
C832 C834 1.391 . S
C833 C832 1.386 . S
C833 C837 1.393 . S
C834 H826 0.950 . S
C834 C832 1.391 . S
C834 C835 1.400 . S
C835 C834 1.400 . S
C835 C836 1.398 . S
C835 C841 1.491 1_545 S
C836 H827 0.950 . S
C836 C835 1.398 . S
C836 C837 1.391 . S
C837 H825 0.950 . S
C837 C833 1.393 . S
C837 C836 1.391 . S
C838 H828 0.950 . S
C838 C839 1.386 . S
C838 C840 1.391 . S
C839 C838 1.386 . S
C839 C843 1.393 . S
C840 H829 0.950 . S
C840 C838 1.391 . S
C840 C841 1.400 . S
C841 C835 1.491 1_565 S
C841 C840 1.400 . S
C841 C842 1.398 . S
C842 H830 0.950 . S
C842 C841 1.398 . S
C842 C843 1.391 . S
C843 H831 0.950 . S
C843 C839 1.393 . S
C843 C842 1.391 . S
H844 C852 0.950 . S
H845 C857 0.950 . S
H846 C854 0.950 . S
H847 C856 0.950 . S
H848 C858 0.950 . S
H849 C860 0.950 . S
H850 C862 0.950 . S
H851 C863 0.950 . S
C852 H844 0.950 . S
C852 C853 1.386 1_556 S
C852 C854 1.391 . S
C853 C852 1.386 1_554 S
C853 C857 1.393 . S
C854 H846 0.950 . S
C854 C852 1.391 . S
C854 C855 1.400 1_556 S
C855 C854 1.400 1_554 S
C855 C856 1.398 . S
C855 C861 1.491 1_554 S
C856 H847 0.950 . S
C856 C855 1.398 . S
C856 C857 1.391 . S
C857 H845 0.950 . S
C857 C853 1.393 . S
C857 C856 1.391 . S
C858 H848 0.950 . S
C858 C859 1.386 1_554 S
C858 C860 1.391 . S
C859 C858 1.386 1_556 S
C859 C863 1.393 . S
C860 H849 0.950 . S
C860 C858 1.391 . S
C860 C861 1.400 1_554 S
C861 C855 1.491 1_556 S
C861 C860 1.400 1_556 S
C861 C862 1.398 . S
C862 H850 0.950 . S
C862 C861 1.398 . S
C862 C863 1.391 . S
C863 H851 0.950 . S
C863 C859 1.393 . S
C863 C862 1.391 . S
H864 C872 0.950 . S
H865 C877 0.950 . S
H866 C874 0.950 . S
H867 C876 0.950 . S
H868 C878 0.950 . S
H869 C880 0.950 . S
H870 C882 0.950 . S
H871 C883 0.950 . S
C872 H864 0.950 . S
C872 C873 1.386 . S
C872 C874 1.391 . S
C873 C872 1.386 . S
C873 C877 1.393 . S
C874 H866 0.950 . S
C874 C872 1.391 . S
C874 C875 1.400 . S
C875 C874 1.400 . S
C875 C876 1.398 . S
C875 C881 1.491 . S
C876 H867 0.950 . S
C876 C875 1.398 . S
C876 C877 1.391 . S
C877 H865 0.950 . S
C877 C873 1.393 . S
C877 C876 1.391 . S
C878 H868 0.950 . S
C878 C879 1.386 . S
C878 C880 1.391 . S
C879 C878 1.386 . S
C879 C883 1.393 . S
C880 H869 0.950 . S
C880 C878 1.391 . S
C880 C881 1.400 . S
C881 C875 1.491 . S
C881 C880 1.400 . S
C881 C882 1.398 . S
C882 H870 0.950 . S
C882 C881 1.398 . S
C882 C883 1.391 . S
C883 H871 0.950 . S
C883 C879 1.393 . S
C883 C882 1.391 . S
H884 C892 0.950 . S
H885 C897 0.950 . S
H886 C894 0.950 . S
H887 C896 0.950 . S
H888 C898 0.950 . S
H889 C900 0.950 . S
H890 C902 0.950 . S
H891 C903 0.950 . S
C892 H884 0.950 . S
C892 C893 1.386 1_554 S
C892 C894 1.391 . S
C893 C892 1.386 1_556 S
C893 C897 1.393 . S
C894 H886 0.950 . S
C894 C892 1.391 . S
C894 C895 1.400 1_554 S
C895 C894 1.400 1_556 S
C895 C896 1.398 . S
C895 C901 1.491 1_556 S
C896 H887 0.950 . S
C896 C895 1.398 . S
C896 C897 1.391 . S
C897 H885 0.950 . S
C897 C893 1.393 . S
C897 C896 1.391 . S
C898 H888 0.950 . S
C898 C899 1.386 1_556 S
C898 C900 1.391 . S
C899 C898 1.386 1_554 S
C899 C903 1.393 . S
C900 H889 0.950 . S
C900 C898 1.391 . S
C900 C901 1.400 1_556 S
C901 C895 1.491 1_554 S
C901 C900 1.400 1_554 S
C901 C902 1.398 . S
C902 H890 0.950 . S
C902 C901 1.398 . S
C902 C903 1.391 . S
C903 H891 0.950 . S
C903 C899 1.393 . S
C903 C902 1.391 . S
H904 C912 0.950 . S
H905 C917 0.950 . S
H906 C914 0.950 . S
H907 C916 0.950 . S
H908 C918 0.950 . S
H909 C920 0.950 . S
H910 C922 0.950 . S
H911 C923 0.950 . S
C912 H904 0.950 . S
C912 C913 1.386 . S
C912 C914 1.391 . S
C913 C912 1.386 . S
C913 C917 1.393 . S
C914 H906 0.950 . S
C914 C912 1.391 . S
C914 C915 1.400 . S
C915 C914 1.400 . S
C915 C916 1.398 . S
C915 C921 1.491 . S
C916 H907 0.950 . S
C916 C915 1.398 . S
C916 C917 1.391 . S
C917 H905 0.950 . S
C917 C913 1.393 . S
C917 C916 1.391 . S
C918 H908 0.950 . S
C918 C919 1.386 . S
C918 C920 1.391 . S
C919 C918 1.386 . S
C919 C923 1.393 . S
C920 H909 0.950 . S
C920 C918 1.391 . S
C920 C921 1.400 . S
C921 C915 1.491 . S
C921 C920 1.400 . S
C921 C922 1.398 . S
C922 H910 0.950 . S
C922 C921 1.398 . S
C922 C923 1.391 . S
C923 H911 0.950 . S
C923 C919 1.393 . S
C923 C922 1.391 . S
H924 C932 0.950 . S
H925 C937 0.950 . S
H926 C934 0.950 . S
H927 C936 0.950 . S
H928 C938 0.950 . S
H929 C940 0.950 . S
H930 C942 0.950 . S
H931 C943 0.950 . S
C932 H924 0.950 . S
C932 C933 1.386 . S
C932 C934 1.391 . S
C933 C932 1.386 . S
C933 C937 1.393 . S
C934 H926 0.950 . S
C934 C932 1.391 . S
C934 C935 1.400 . S
C935 C934 1.400 . S
C935 C936 1.398 . S
C935 C941 1.491 . S
C936 H927 0.950 . S
C936 C935 1.398 . S
C936 C937 1.391 . S
C937 H925 0.950 . S
C937 C933 1.393 . S
C937 C936 1.391 . S
C938 H928 0.950 . S
C938 C939 1.386 . S
C938 C940 1.391 . S
C939 C938 1.386 . S
C939 C943 1.393 . S
C940 H929 0.950 . S
C940 C938 1.391 . S
C940 C941 1.400 . S
C941 C935 1.491 . S
C941 C940 1.400 . S
C941 C942 1.398 . S
C942 H930 0.950 . S
C942 C941 1.398 . S
C942 C943 1.391 . S
C943 H931 0.950 . S
C943 C939 1.393 . S
C943 C942 1.391 . S
H944 C952 0.950 . S
H945 C957 0.950 . S
H946 C954 0.950 . S
H947 C956 0.950 . S
H948 C958 0.950 . S
H949 C960 0.950 . S
H950 C962 0.950 . S
H951 C963 0.950 . S
C952 H944 0.950 . S
C952 C953 1.386 . S
C952 C954 1.391 . S
C953 C952 1.386 . S
C953 C957 1.393 . S
C954 H946 0.950 . S
C954 C952 1.391 . S
C954 C955 1.400 . S
C955 C954 1.400 . S
C955 C956 1.398 . S
C955 C961 1.491 . S
C956 H947 0.950 . S
C956 C955 1.398 . S
C956 C957 1.391 . S
C957 H945 0.950 . S
C957 C953 1.393 . S
C957 C956 1.391 . S
C958 H948 0.950 . S
C958 C959 1.386 . S
C958 C960 1.391 . S
C959 C958 1.386 . S
C959 C963 1.393 . S
C960 H949 0.950 . S
C960 C958 1.391 . S
C960 C961 1.400 . S
C961 C955 1.491 . S
C961 C960 1.400 . S
C961 C962 1.398 . S
C962 H950 0.950 . S
C962 C961 1.398 . S
C962 C963 1.391 . S
C963 H951 0.950 . S
C963 C959 1.393 . S
C963 C962 1.391 . S
H964 C972 0.950 . S
H965 C977 0.950 . S
H966 C974 0.950 . S
H967 C976 0.950 . S
H968 C978 0.950 . S
H969 C980 0.950 . S
H970 C982 0.950 . S
H971 C983 0.950 . S
C972 H964 0.950 . S
C972 C973 1.386 1_554 S
C972 C974 1.391 . S
C973 C972 1.386 1_556 S
C973 C977 1.393 . S
C974 H966 0.950 . S
C974 C972 1.391 . S
C974 C975 1.400 1_554 S
C975 C974 1.400 1_556 S
C975 C976 1.398 . S
C975 C981 1.491 1_556 S
C976 H967 0.950 . S
C976 C975 1.398 . S
C976 C977 1.391 . S
C977 H965 0.950 . S
C977 C973 1.393 . S
C977 C976 1.391 . S
C978 H968 0.950 . S
C978 C979 1.386 1_556 S
C978 C980 1.391 . S
C979 C978 1.386 1_554 S
C979 C983 1.393 . S
C980 H969 0.950 . S
C980 C978 1.391 . S
C980 C981 1.400 1_556 S
C981 C975 1.491 1_554 S
C981 C980 1.400 1_554 S
C981 C982 1.398 . S
C982 H970 0.950 . S
C982 C981 1.398 . S
C982 C983 1.391 . S
C983 H971 0.950 . S
C983 C979 1.393 . S
C983 C982 1.391 . S
H984 C992 0.950 . S
H985 C997 0.950 . S
H986 C994 0.950 . S
H987 C996 0.950 . S
H988 C998 0.950 . S
H989 C1000 0.950 . S
H990 C1002 0.950 . S
H991 C1003 0.950 . S
C992 H984 0.950 . S
C992 C993 1.386 . S
C992 C994 1.391 . S
C993 C992 1.386 . S
C993 C997 1.393 . S
C994 H986 0.950 . S
C994 C992 1.391 . S
C994 C995 1.400 . S
C995 C994 1.400 . S
C995 C996 1.398 . S
C995 C1001 1.491 . S
C996 H987 0.950 . S
C996 C995 1.398 . S
C996 C997 1.391 . S
C997 H985 0.950 . S
C997 C993 1.393 . S
C997 C996 1.391 . S
C998 H988 0.950 . S
C998 C999 1.386 . S
C998 C1000 1.391 . S
C999 C998 1.386 . S
C999 C1003 1.393 . S
C1000 H989 0.950 . S
C1000 C998 1.391 . S
C1000 C1001 1.400 . S
C1001 C995 1.491 . S
C1001 C1000 1.400 . S
C1001 C1002 1.398 . S
C1002 H990 0.950 . S
C1002 C1001 1.398 . S
C1002 C1003 1.391 . S
C1003 H991 0.950 . S
C1003 C999 1.393 . S
C1003 C1002 1.391 . S
H1004 C1012 0.950 . S
H1005 C1017 0.950 . S
H1006 C1014 0.950 . S
H1007 C1016 0.950 . S
H1008 C1018 0.950 . S
H1009 C1020 0.950 . S
H1010 C1022 0.950 . S
H1011 C1023 0.950 . S
C1012 H1004 0.950 . S
C1012 C1013 1.386 . S
C1012 C1014 1.391 . S
C1013 C1012 1.386 . S
C1013 C1017 1.393 . S
C1014 H1006 0.950 . S
C1014 C1012 1.391 . S
C1014 C1015 1.400 . S
C1015 C1014 1.400 . S
C1015 C1016 1.398 . S
C1015 C1021 1.491 . S
C1016 H1007 0.950 . S
C1016 C1015 1.398 . S
C1016 C1017 1.391 . S
C1017 H1005 0.950 . S
C1017 C1013 1.393 . S
C1017 C1016 1.391 . S
C1018 H1008 0.950 . S
C1018 C1019 1.386 . S
C1018 C1020 1.391 . S
C1019 C1018 1.386 . S
C1019 C1023 1.393 . S
C1020 H1009 0.950 . S
C1020 C1018 1.391 . S
C1020 C1021 1.400 . S
C1021 C1015 1.491 . S
C1021 C1020 1.400 . S
C1021 C1022 1.398 . S
C1022 H1010 0.950 . S
C1022 C1021 1.398 . S
C1022 C1023 1.391 . S
C1023 H1011 0.950 . S
C1023 C1019 1.393 . S
C1023 C1022 1.391 . S
H1024 C1032 0.950 . S
H1025 C1037 0.950 . S
H1026 C1034 0.950 . S
H1027 C1036 0.950 . S
H1028 C1038 0.950 . S
H1029 C1040 0.950 . S
H1030 C1042 0.950 . S
H1031 C1043 0.950 . S
C1032 H1024 0.950 . S
C1032 C1033 1.386 . S
C1032 C1034 1.391 . S
C1033 C1032 1.386 . S
C1033 C1037 1.393 . S
C1034 H1026 0.950 . S
C1034 C1032 1.391 . S
C1034 C1035 1.400 . S
C1035 C1034 1.400 . S
C1035 C1036 1.398 . S
C1035 C1041 1.491 . S
C1036 H1027 0.950 . S
C1036 C1035 1.398 . S
C1036 C1037 1.391 . S
C1037 H1025 0.950 . S
C1037 C1033 1.393 . S
C1037 C1036 1.391 . S
C1038 H1028 0.950 . S
C1038 C1039 1.386 . S
C1038 C1040 1.391 . S
C1039 C1038 1.386 . S
C1039 C1043 1.393 . S
C1040 H1029 0.950 . S
C1040 C1038 1.391 . S
C1040 C1041 1.400 . S
C1041 C1035 1.491 . S
C1041 C1040 1.400 . S
C1041 C1042 1.398 . S
C1042 H1030 0.950 . S
C1042 C1041 1.398 . S
C1042 C1043 1.391 . S
C1043 H1031 0.950 . S
C1043 C1039 1.393 . S
C1043 C1042 1.391 . S
H1044 C1052 0.950 . S
H1045 C1057 0.950 . S
H1046 C1054 0.950 1_455 S
H1047 C1056 0.962 . S
H1048 C1058 0.950 . S
H1049 C1060 0.950 1_655 S
H1050 C1062 0.962 . S
H1051 C1063 0.950 . S
C1052 H1044 0.950 . S
C1052 C1053 1.386 . S
C1052 C1054 1.391 . S
C1053 C1052 1.386 . S
C1053 C1057 1.393 . S
C1054 H1046 0.950 1_655 S
C1054 C1052 1.391 . S
C1054 C1055 1.400 . S
C1055 C1054 1.400 . S
C1055 C1056 1.394 1_545 S
C1055 C1061 1.491 1_645 S
C1056 H1047 0.962 . S
C1056 C1055 1.394 1_565 S
C1056 C1057 1.383 1_565 S
C1057 H1045 0.950 . S
C1057 C1053 1.393 . S
C1057 C1056 1.383 1_545 S
C1058 H1048 0.950 . S
C1058 C1059 1.386 . S
C1058 C1060 1.391 . S
C1059 C1058 1.386 . S
C1059 C1063 1.393 . S
C1060 H1049 0.950 1_455 S
C1060 C1058 1.391 . S
C1060 C1061 1.400 . S
C1061 C1055 1.491 1_465 S
C1061 C1060 1.400 . S
C1061 C1062 1.394 1_565 S
C1062 H1050 0.962 . S
C1062 C1061 1.394 1_545 S
C1062 C1063 1.383 1_545 S
C1063 H1051 0.950 . S
C1063 C1059 1.393 . S
C1063 C1062 1.383 1_565 S
H1064 C1072 0.950 . S
H1065 C1077 0.950 . S
H1066 C1074 0.950 . S
H1067 C1076 0.950 . S
H1068 C1078 0.950 . S
H1069 C1080 0.950 . S
H1070 C1082 0.950 . S
H1071 C1083 0.950 . S
C1072 H1064 0.950 . S
C1072 C1073 1.386 . S
C1072 C1074 1.391 . S
C1073 C1072 1.386 . S
C1073 C1077 1.393 . S
C1074 H1066 0.950 . S
C1074 C1072 1.391 . S
C1074 C1075 1.400 . S
C1075 C1074 1.400 . S
C1075 C1076 1.398 . S
C1075 C1081 1.491 . S
C1076 H1067 0.950 . S
C1076 C1075 1.398 . S
C1076 C1077 1.391 . S
C1077 H1065 0.950 . S
C1077 C1073 1.393 . S
C1077 C1076 1.391 . S
C1078 H1068 0.950 . S
C1078 C1079 1.386 . S
C1078 C1080 1.391 . S
C1079 C1078 1.386 . S
C1079 C1083 1.393 . S
C1080 H1069 0.950 . S
C1080 C1078 1.391 . S
C1080 C1081 1.400 . S
C1081 C1075 1.491 . S
C1081 C1080 1.400 . S
C1081 C1082 1.398 . S
C1082 H1070 0.950 . S
C1082 C1081 1.398 . S
C1082 C1083 1.391 . S
C1083 H1071 0.950 . S
C1083 C1079 1.393 . S
C1083 C1082 1.391 . S
H1084 C1092 0.950 . S
H1085 C1097 0.950 . S
H1086 C1094 0.950 1_556 S
H1087 C1096 0.981 . S
H1088 C1098 0.950 . S
H1089 C1100 0.950 1_554 S
H1090 C1102 0.981 . S
H1091 C1103 0.950 . S
C1092 H1084 0.950 . S
C1092 C1093 1.386 . S
C1092 C1094 1.391 . S
C1093 C1092 1.386 . S
C1093 C1097 1.393 . S
C1094 H1086 0.950 1_554 S
C1094 C1092 1.391 . S
C1094 C1095 1.400 . S
C1095 C1094 1.400 . S
C1095 C1096 1.387 1_545 S
C1095 C1101 1.491 1_544 S
C1096 H1087 0.981 . S
C1096 C1095 1.387 1_565 S
C1096 C1097 1.371 1_565 S
C1097 H1085 0.950 . S
C1097 C1093 1.393 . S
C1097 C1096 1.371 1_545 S
C1098 H1088 0.950 . S
C1098 C1099 1.386 . S
C1098 C1100 1.391 . S
C1099 C1098 1.386 . S
C1099 C1103 1.393 . S
C1100 H1089 0.950 1_556 S
C1100 C1098 1.391 . S
C1100 C1101 1.400 . S
C1101 C1095 1.491 1_566 S
C1101 C1100 1.400 . S
C1101 C1102 1.387 1_565 S
C1102 H1090 0.981 . S
C1102 C1101 1.387 1_545 S
C1102 C1103 1.371 1_545 S
C1103 H1091 0.950 . S
C1103 C1099 1.393 . S
C1103 C1102 1.371 1_565 S
H1104 C1112 0.950 . S
H1105 C1117 0.950 . S
H1106 C1114 0.950 . S
H1107 C1116 0.950 . S
H1108 C1118 0.950 . S
H1109 C1120 0.950 . S
H1110 C1122 0.950 . S
H1111 C1123 0.950 . S
C1112 H1104 0.950 . S
C1112 C1113 1.386 . S
C1112 C1114 1.391 . S
C1113 C1112 1.386 . S
C1113 C1117 1.393 . S
C1114 H1106 0.950 . S
C1114 C1112 1.391 . S
C1114 C1115 1.400 . S
C1115 C1114 1.400 . S
C1115 C1116 1.398 . S
C1115 C1121 1.491 . S
C1116 H1107 0.950 . S
C1116 C1115 1.398 . S
C1116 C1117 1.391 . S
C1117 H1105 0.950 . S
C1117 C1113 1.393 . S
C1117 C1116 1.391 . S
C1118 H1108 0.950 . S
C1118 C1119 1.386 . S
C1118 C1120 1.391 . S
C1119 C1118 1.386 . S
C1119 C1123 1.393 . S
C1120 H1109 0.950 . S
C1120 C1118 1.391 . S
C1120 C1121 1.400 . S
C1121 C1115 1.491 . S
C1121 C1120 1.400 . S
C1121 C1122 1.398 . S
C1122 H1110 0.950 . S
C1122 C1121 1.398 . S
C1122 C1123 1.391 . S
C1123 H1111 0.950 . S
C1123 C1119 1.393 . S
C1123 C1122 1.391 . S
H1124 C1132 0.950 . S
H1125 C1137 0.950 . S
H1126 C1134 0.950 1_545 S
H1127 C1136 0.950 . S
H1128 C1138 0.950 . S
H1129 C1140 0.950 1_565 S
H1130 C1142 0.950 . S
H1131 C1143 0.950 . S
C1132 H1124 0.950 . S
C1132 C1133 1.386 . S
C1132 C1134 1.391 . S
C1133 C1132 1.386 . S
C1133 C1137 1.393 . S
C1134 H1126 0.950 1_565 S
C1134 C1132 1.391 . S
C1134 C1135 1.400 . S
C1135 C1134 1.400 . S
C1135 C1136 1.398 . S
C1135 C1141 1.491 1_565 S
C1136 H1127 0.950 . S
C1136 C1135 1.398 . S
C1136 C1137 1.391 . S
C1137 H1125 0.950 . S
C1137 C1133 1.393 . S
C1137 C1136 1.391 . S
C1138 H1128 0.950 . S
C1138 C1139 1.386 . S
C1138 C1140 1.391 . S
C1139 C1138 1.386 . S
C1139 C1143 1.393 . S
C1140 H1129 0.950 1_545 S
C1140 C1138 1.391 . S
C1140 C1141 1.400 . S
C1141 C1135 1.491 1_545 S
C1141 C1140 1.400 . S
C1141 C1142 1.398 . S
C1142 H1130 0.950 . S
C1142 C1141 1.398 . S
C1142 C1143 1.391 . S
C1143 H1131 0.950 . S
C1143 C1139 1.393 . S
C1143 C1142 1.391 . S
H1144 C1152 0.950 . S
H1145 C1157 0.950 . S
H1146 C1154 0.950 . S
H1147 C1156 0.950 . S
H1148 C1158 0.950 . S
H1149 C1160 0.950 . S
H1150 C1162 0.950 . S
H1151 C1163 0.950 . S
C1152 H1144 0.950 . S
C1152 C1153 1.386 . S
C1152 C1154 1.391 . S
C1153 C1152 1.386 . S
C1153 C1157 1.393 . S
C1154 H1146 0.950 . S
C1154 C1152 1.391 . S
C1154 C1155 1.400 . S
C1155 C1154 1.400 . S
C1155 C1156 1.398 . S
C1155 C1161 1.491 . S
C1156 H1147 0.950 . S
C1156 C1155 1.398 . S
C1156 C1157 1.391 . S
C1157 H1145 0.950 . S
C1157 C1153 1.393 . S
C1157 C1156 1.391 . S
C1158 H1148 0.950 . S
C1158 C1159 1.386 . S
C1158 C1160 1.391 . S
C1159 C1158 1.386 . S
C1159 C1163 1.393 . S
C1160 H1149 0.950 . S
C1160 C1158 1.391 . S
C1160 C1161 1.400 . S
C1161 C1155 1.491 . S
C1161 C1160 1.400 . S
C1161 C1162 1.398 . S
C1162 H1150 0.950 . S
C1162 C1161 1.398 . S
C1162 C1163 1.391 . S
C1163 H1151 0.950 . S
C1163 C1159 1.393 . S
C1163 C1162 1.391 . S
H1164 C1172 0.950 . S
H1165 C1177 0.950 . S
H1166 C1174 0.962 1_556 S
H1167 C1176 0.950 1_455 S
H1168 C1178 0.950 . S
H1169 C1180 0.962 1_554 S
H1170 C1182 0.950 1_655 S
H1171 C1183 0.950 . S
C1172 H1164 0.950 . S
C1172 C1173 1.386 . S
C1172 C1174 1.384 1_565 S
C1173 C1172 1.386 . S
C1173 C1177 1.393 . S
C1174 H1166 0.962 1_554 S
C1174 C1172 1.384 1_545 S
C1174 C1175 1.396 1_545 S
C1175 C1174 1.396 1_565 S
C1175 C1176 1.398 . S
C1175 C1181 1.491 1_664 S
C1176 H1167 0.950 1_655 S
C1176 C1175 1.398 . S
C1176 C1177 1.391 . S
C1177 H1165 0.950 . S
C1177 C1173 1.393 . S
C1177 C1176 1.391 . S
C1178 H1168 0.950 . S
C1178 C1179 1.386 . S
C1178 C1180 1.384 1_545 S
C1179 C1178 1.386 . S
C1179 C1183 1.393 . S
C1180 H1169 0.962 1_556 S
C1180 C1178 1.384 1_565 S
C1180 C1181 1.396 1_565 S
C1181 C1175 1.491 1_446 S
C1181 C1180 1.396 1_545 S
C1181 C1182 1.398 . S
C1182 H1170 0.950 1_455 S
C1182 C1181 1.398 . S
C1182 C1183 1.391 . S
C1183 H1171 0.950 . S
C1183 C1179 1.393 . S
C1183 C1182 1.391 . S
H1184 C1192 0.950 . S
H1185 C1197 0.950 . S
H1186 C1194 0.950 . S
H1187 C1196 0.950 . S
H1188 C1198 0.950 . S
H1189 C1200 0.950 . S
H1190 C1202 0.950 . S
H1191 C1203 0.950 . S
C1192 H1184 0.950 . S
C1192 C1193 1.386 . S
C1192 C1194 1.391 . S
C1193 C1192 1.386 . S
C1193 C1197 1.393 . S
C1194 H1186 0.950 . S
C1194 C1192 1.391 . S
C1194 C1195 1.400 . S
C1195 C1194 1.400 . S
C1195 C1196 1.398 . S
C1195 C1201 1.491 . S
C1196 H1187 0.950 . S
C1196 C1195 1.398 . S
C1196 C1197 1.391 . S
C1197 H1185 0.950 . S
C1197 C1193 1.393 . S
C1197 C1196 1.391 . S
C1198 H1188 0.950 . S
C1198 C1199 1.386 . S
C1198 C1200 1.391 . S
C1199 C1198 1.386 . S
C1199 C1203 1.393 . S
C1200 H1189 0.950 . S
C1200 C1198 1.391 . S
C1200 C1201 1.400 . S
C1201 C1195 1.491 . S
C1201 C1200 1.400 . S
C1201 C1202 1.398 . S
C1202 H1190 0.950 . S
C1202 C1201 1.398 . S
C1202 C1203 1.391 . S
C1203 H1191 0.950 . S
C1203 C1199 1.393 . S
C1203 C1202 1.391 . S
H1204 C1212 0.950 . S
H1205 C1217 0.950 . S
H1206 C1214 0.950 . S
H1207 C1216 0.950 . S
H1208 C1218 0.950 . S
H1209 C1220 0.950 . S
H1210 C1222 0.950 . S
H1211 C1223 0.950 . S
C1212 H1204 0.950 . S
C1212 C1213 1.386 . S
C1212 C1214 1.391 . S
C1213 C1212 1.386 . S
C1213 C1217 1.393 . S
C1214 H1206 0.950 . S
C1214 C1212 1.391 . S
C1214 C1215 1.400 . S
C1215 C1214 1.400 . S
C1215 C1216 1.398 . S
C1215 C1221 1.491 . S
C1216 H1207 0.950 . S
C1216 C1215 1.398 . S
C1216 C1217 1.391 . S
C1217 H1205 0.950 . S
C1217 C1213 1.393 . S
C1217 C1216 1.391 . S
C1218 H1208 0.950 . S
C1218 C1219 1.386 . S
C1218 C1220 1.391 . S
C1219 C1218 1.386 . S
C1219 C1223 1.393 . S
C1220 H1209 0.950 . S
C1220 C1218 1.391 . S
C1220 C1221 1.400 . S
C1221 C1215 1.491 . S
C1221 C1220 1.400 . S
C1221 C1222 1.398 . S
C1222 H1210 0.950 . S
C1222 C1221 1.398 . S
C1222 C1223 1.391 . S
C1223 H1211 0.950 . S
C1223 C1219 1.393 . S
C1223 C1222 1.391 . S
H1224 C1232 0.950 . S
H1225 C1237 0.950 . S
H1226 C1234 0.950 . S
H1227 C1236 0.950 . S
H1228 C1238 0.950 . S
H1229 C1240 0.950 . S
H1230 C1242 0.950 . S
H1231 C1243 0.950 . S
C1232 H1224 0.950 . S
C1232 C1233 1.386 . S
C1232 C1234 1.391 . S
C1233 C1232 1.386 . S
C1233 C1237 1.393 . S
C1234 H1226 0.950 . S
C1234 C1232 1.391 . S
C1234 C1235 1.400 . S
C1235 C1234 1.400 . S
C1235 C1236 1.398 . S
C1235 C1241 1.491 . S
C1236 H1227 0.950 . S
C1236 C1235 1.398 . S
C1236 C1237 1.391 . S
C1237 H1225 0.950 . S
C1237 C1233 1.393 . S
C1237 C1236 1.391 . S
C1238 H1228 0.950 . S
C1238 C1239 1.386 . S
C1238 C1240 1.391 . S
C1239 C1238 1.386 . S
C1239 C1243 1.393 . S
C1240 H1229 0.950 . S
C1240 C1238 1.391 . S
C1240 C1241 1.400 . S
C1241 C1235 1.491 . S
C1241 C1240 1.400 . S
C1241 C1242 1.398 . S
C1242 H1230 0.950 . S
C1242 C1241 1.398 . S
C1242 C1243 1.391 . S
C1243 H1231 0.950 . S
C1243 C1239 1.393 . S
C1243 C1242 1.391 . S
H1244 C1252 0.950 . S
H1245 C1257 0.950 . S
H1246 C1254 0.950 . S
H1247 C1256 0.950 . S
H1248 C1258 0.950 . S
H1249 C1260 0.950 . S
H1250 C1262 0.950 . S
H1251 C1263 0.950 . S
C1252 H1244 0.950 . S
C1252 C1253 1.386 . S
C1252 C1254 1.391 . S
C1253 C1252 1.386 . S
C1253 C1257 1.393 . S
C1254 H1246 0.950 . S
C1254 C1252 1.391 . S
C1254 C1255 1.400 . S
C1255 C1254 1.400 . S
C1255 C1256 1.398 . S
C1255 C1261 1.491 . S
C1256 H1247 0.950 . S
C1256 C1255 1.398 . S
C1256 C1257 1.391 . S
C1257 H1245 0.950 . S
C1257 C1253 1.393 . S
C1257 C1256 1.391 . S
C1258 H1248 0.950 . S
C1258 C1259 1.386 . S
C1258 C1260 1.391 . S
C1259 C1258 1.386 . S
C1259 C1263 1.393 . S
C1260 H1249 0.950 . S
C1260 C1258 1.391 . S
C1260 C1261 1.400 . S
C1261 C1255 1.491 . S
C1261 C1260 1.400 . S
C1261 C1262 1.398 . S
C1262 H1250 0.950 . S
C1262 C1261 1.398 . S
C1262 C1263 1.391 . S
C1263 H1251 0.950 . S
C1263 C1259 1.393 . S
C1263 C1262 1.391 . S
H1264 C1272 0.950 . S
H1265 C1277 0.950 . S
H1266 C1274 0.950 . S
H1267 C1276 0.950 . S
H1268 C1278 0.950 . S
H1269 C1280 0.950 . S
H1270 C1282 0.950 . S
H1271 C1283 0.950 . S
C1272 H1264 0.950 . S
C1272 C1273 1.386 . S
C1272 C1274 1.391 . S
C1273 C1272 1.386 . S
C1273 C1277 1.393 1_554 S
C1274 H1266 0.950 . S
C1274 C1272 1.391 . S
C1274 C1275 1.400 . S
C1275 C1274 1.400 . S
C1275 C1276 1.398 1_554 S
C1275 C1281 1.491 1_554 S
C1276 H1267 0.950 . S
C1276 C1275 1.398 1_556 S
C1276 C1277 1.391 . S
C1277 H1265 0.950 . S
C1277 C1273 1.393 1_556 S
C1277 C1276 1.391 . S
C1278 H1268 0.950 . S
C1278 C1279 1.386 . S
C1278 C1280 1.391 . S
C1279 C1278 1.386 . S
C1279 C1283 1.393 1_556 S
C1280 H1269 0.950 . S
C1280 C1278 1.391 . S
C1280 C1281 1.400 . S
C1281 C1275 1.491 1_556 S
C1281 C1280 1.400 . S
C1281 C1282 1.398 1_556 S
C1282 H1270 0.950 . S
C1282 C1281 1.398 1_554 S
C1282 C1283 1.391 . S
C1283 H1271 0.950 . S
C1283 C1279 1.393 1_554 S
C1283 C1282 1.391 . S
H1284 C1292 0.950 . S
H1285 C1297 0.950 . S
H1286 C1294 0.950 1_655 S
H1287 C1296 0.950 . S
H1288 C1298 0.950 . S
H1289 C1300 0.950 1_455 S
H1290 C1302 0.950 . S
H1291 C1303 0.950 . S
C1292 H1284 0.950 . S
C1292 C1293 1.386 . S
C1292 C1294 1.391 . S
C1293 C1292 1.386 . S
C1293 C1297 1.393 . S
C1294 H1286 0.950 1_455 S
C1294 C1292 1.391 . S
C1294 C1295 1.400 . S
C1295 C1294 1.400 . S
C1295 C1296 1.398 . S
C1295 C1301 1.491 1_455 S
C1296 H1287 0.950 . S
C1296 C1295 1.398 . S
C1296 C1297 1.391 . S
C1297 H1285 0.950 . S
C1297 C1293 1.393 . S
C1297 C1296 1.391 . S
C1298 H1288 0.950 . S
C1298 C1299 1.386 . S
C1298 C1300 1.391 . S
C1299 C1298 1.386 . S
C1299 C1303 1.393 . S
C1300 H1289 0.950 1_655 S
C1300 C1298 1.391 . S
C1300 C1301 1.400 . S
C1301 C1295 1.491 1_655 S
C1301 C1300 1.400 . S
C1301 C1302 1.398 . S
C1302 H1290 0.950 . S
C1302 C1301 1.398 . S
C1302 C1303 1.391 . S
C1303 H1291 0.950 . S
C1303 C1299 1.393 . S
C1303 C1302 1.391 . S
H1304 C1312 0.950 . S
H1305 C1317 0.946 1_556 S
H1306 C1314 0.950 . S
H1307 C1316 0.950 1_655 S
H1308 C1318 0.950 . S
H1309 C1320 0.950 . S
H1310 C1322 0.950 1_455 S
H1311 C1323 0.946 1_554 S
C1312 H1304 0.950 . S
C1312 C1313 1.386 . S
C1312 C1314 1.391 . S
C1313 C1312 1.386 . S
C1313 C1317 1.393 . S
C1314 H1306 0.950 . S
C1314 C1312 1.391 . S
C1314 C1315 1.400 . S
C1315 C1314 1.400 . S
C1315 C1316 1.398 1_554 S
C1315 C1321 1.491 1_454 S
C1316 H1307 0.950 1_455 S
C1316 C1315 1.398 1_556 S
C1316 C1317 1.391 1_556 S
C1317 H1305 0.946 1_554 S
C1317 C1313 1.393 . S
C1317 C1316 1.391 1_554 S
C1318 H1308 0.950 . S
C1318 C1319 1.386 . S
C1318 C1320 1.391 . S
C1319 C1318 1.386 . S
C1319 C1323 1.393 . S
C1320 H1309 0.950 . S
C1320 C1318 1.391 . S
C1320 C1321 1.400 . S
C1321 C1315 1.491 1_656 S
C1321 C1320 1.400 . S
C1321 C1322 1.398 1_556 S
C1322 H1310 0.950 1_655 S
C1322 C1321 1.398 1_554 S
C1322 C1323 1.391 1_554 S
C1323 H1311 0.946 1_556 S
C1323 C1319 1.393 . S
C1323 C1322 1.391 1_556 S
H1324 C1332 0.950 . S
H1325 C1337 0.950 . S
H1326 C1334 0.950 . S
H1327 C1336 0.950 . S
H1328 C1338 0.950 . S
H1329 C1340 0.950 . S
H1330 C1342 0.950 . S
H1331 C1343 0.950 . S
C1332 H1324 0.950 . S
C1332 C1333 1.386 . S
C1332 C1334 1.391 . S
C1333 C1332 1.386 . S
C1333 C1337 1.393 . S
C1334 H1326 0.950 . S
C1334 C1332 1.391 . S
C1334 C1335 1.400 . S
C1335 C1334 1.400 . S
C1335 C1336 1.398 . S
C1335 C1341 1.491 . S
C1336 H1327 0.950 . S
C1336 C1335 1.398 . S
C1336 C1337 1.391 . S
C1337 H1325 0.950 . S
C1337 C1333 1.393 . S
C1337 C1336 1.391 . S
C1338 H1328 0.950 . S
C1338 C1339 1.386 . S
C1338 C1340 1.391 . S
C1339 C1338 1.386 . S
C1339 C1343 1.393 . S
C1340 H1329 0.950 . S
C1340 C1338 1.391 . S
C1340 C1341 1.400 . S
C1341 C1335 1.491 . S
C1341 C1340 1.400 . S
C1341 C1342 1.398 . S
C1342 H1330 0.950 . S
C1342 C1341 1.398 . S
C1342 C1343 1.391 . S
C1343 H1331 0.950 . S
C1343 C1339 1.393 . S
C1343 C1342 1.391 . S
H1344 C1352 0.950 . S
H1345 C1357 0.950 . S
H1346 C1354 0.950 . S
H1347 C1356 0.950 . S
H1348 C1358 0.950 . S
H1349 C1360 0.950 . S
H1350 C1362 0.950 . S
H1351 C1363 0.950 . S
C1352 H1344 0.950 . S
C1352 C1353 1.386 . S
C1352 C1354 1.391 . S
C1353 C1352 1.386 . S
C1353 C1357 1.393 . S
C1354 H1346 0.950 . S
C1354 C1352 1.391 . S
C1354 C1355 1.400 . S
C1355 C1354 1.400 . S
C1355 C1356 1.398 . S
C1355 C1361 1.491 . S
C1356 H1347 0.950 . S
C1356 C1355 1.398 . S
C1356 C1357 1.391 . S
C1357 H1345 0.950 . S
C1357 C1353 1.393 . S
C1357 C1356 1.391 . S
C1358 H1348 0.950 . S
C1358 C1359 1.386 . S
C1358 C1360 1.391 . S
C1359 C1358 1.386 . S
C1359 C1363 1.393 . S
C1360 H1349 0.950 . S
C1360 C1358 1.391 . S
C1360 C1361 1.400 . S
C1361 C1355 1.491 . S
C1361 C1360 1.400 . S
C1361 C1362 1.398 . S
C1362 H1350 0.950 . S
C1362 C1361 1.398 . S
C1362 C1363 1.391 . S
C1363 H1351 0.950 . S
C1363 C1359 1.393 . S
C1363 C1362 1.391 . S
H1364 C1372 0.950 . S
H1365 C1377 0.950 . S
H1366 C1374 0.950 . S
H1367 C1376 0.950 . S
H1368 C1378 0.950 . S
H1369 C1380 0.950 . S
H1370 C1382 0.950 . S
H1371 C1383 0.950 . S
C1372 H1364 0.950 . S
C1372 C1373 1.386 . S
C1372 C1374 1.391 . S
C1373 C1372 1.386 . S
C1373 C1377 1.393 1_455 S
C1374 H1366 0.950 . S
C1374 C1372 1.391 . S
C1374 C1375 1.400 1_455 S
C1375 C1374 1.400 1_655 S
C1375 C1376 1.398 . S
C1375 C1381 1.491 . S
C1376 H1367 0.950 . S
C1376 C1375 1.398 . S
C1376 C1377 1.391 . S
C1377 H1365 0.950 . S
C1377 C1373 1.393 1_655 S
C1377 C1376 1.391 . S
C1378 H1368 0.950 . S
C1378 C1379 1.386 . S
C1378 C1380 1.391 . S
C1379 C1378 1.386 . S
C1379 C1383 1.393 . S
C1380 H1369 0.950 . S
C1380 C1378 1.391 . S
C1380 C1381 1.400 . S
C1381 C1375 1.491 . S
C1381 C1380 1.400 . S
C1381 C1382 1.398 . S
C1382 H1370 0.950 . S
C1382 C1381 1.398 . S
C1382 C1383 1.391 . S
C1383 H1371 0.950 . S
C1383 C1379 1.393 . S
C1383 C1382 1.391 . S
H1384 C1392 0.950 . S
H1385 C1397 0.950 . S
H1386 C1394 0.950 . S
H1387 C1396 0.950 . S
H1388 C1398 0.950 . S
H1389 C1400 0.950 . S
H1390 C1402 0.950 . S
H1391 C1403 0.950 . S
C1392 H1384 0.950 . S
C1392 C1393 1.386 . S
C1392 C1394 1.391 . S
C1393 C1392 1.386 . S
C1393 C1397 1.393 . S
C1394 H1386 0.950 . S
C1394 C1392 1.391 . S
C1394 C1395 1.400 . S
C1395 C1394 1.400 . S
C1395 C1396 1.398 . S
C1395 C1401 1.491 . S
C1396 H1387 0.950 . S
C1396 C1395 1.398 . S
C1396 C1397 1.391 . S
C1397 H1385 0.950 . S
C1397 C1393 1.393 . S
C1397 C1396 1.391 . S
C1398 H1388 0.950 . S
C1398 C1399 1.386 . S
C1398 C1400 1.391 . S
C1399 C1398 1.386 . S
C1399 C1403 1.393 . S
C1400 H1389 0.950 . S
C1400 C1398 1.391 . S
C1400 C1401 1.400 . S
C1401 C1395 1.491 . S
C1401 C1400 1.400 . S
C1401 C1402 1.398 . S
C1402 H1390 0.950 . S
C1402 C1401 1.398 . S
C1402 C1403 1.391 . S
C1403 H1391 0.950 . S
C1403 C1399 1.393 . S
C1403 C1402 1.391 . S
H1404 C1412 0.950 . S
H1405 C1417 0.950 . S
H1406 C1414 0.950 . S
H1407 C1416 0.950 . S
H1408 C1418 0.950 . S
H1409 C1420 0.950 . S
H1410 C1422 0.950 . S
H1411 C1423 0.950 . S
C1412 H1404 0.950 . S
C1412 C1413 1.386 . S
C1412 C1414 1.391 . S
C1413 C1412 1.386 . S
C1413 C1417 1.393 . S
C1414 H1406 0.950 . S
C1414 C1412 1.391 . S
C1414 C1415 1.400 . S
C1415 C1414 1.400 . S
C1415 C1416 1.398 . S
C1415 C1421 1.491 . S
C1416 H1407 0.950 . S
C1416 C1415 1.398 . S
C1416 C1417 1.391 . S
C1417 H1405 0.950 . S
C1417 C1413 1.393 . S
C1417 C1416 1.391 . S
C1418 H1408 0.950 . S
C1418 C1419 1.386 . S
C1418 C1420 1.391 . S
C1419 C1418 1.386 . S
C1419 C1423 1.393 . S
C1420 H1409 0.950 . S
C1420 C1418 1.391 . S
C1420 C1421 1.400 . S
C1421 C1415 1.491 . S
C1421 C1420 1.400 . S
C1421 C1422 1.398 . S
C1422 H1410 0.950 . S
C1422 C1421 1.398 . S
C1422 C1423 1.391 . S
C1423 H1411 0.950 . S
C1423 C1419 1.393 . S
C1423 C1422 1.391 . S
H1424 C1432 0.950 . S
H1425 C1437 0.950 . S
H1426 C1434 0.950 . S
H1427 C1436 0.950 . S
H1428 C1438 0.950 . S
H1429 C1440 0.950 . S
H1430 C1442 0.950 . S
H1431 C1443 0.950 . S
C1432 H1424 0.950 . S
C1432 C1433 1.386 . S
C1432 C1434 1.391 . S
C1433 C1432 1.386 . S
C1433 C1437 1.393 . S
C1434 H1426 0.950 . S
C1434 C1432 1.391 . S
C1434 C1435 1.400 . S
C1435 C1434 1.400 . S
C1435 C1436 1.398 . S
C1435 C1441 1.491 . S
C1436 H1427 0.950 . S
C1436 C1435 1.398 . S
C1436 C1437 1.391 . S
C1437 H1425 0.950 . S
C1437 C1433 1.393 . S
C1437 C1436 1.391 . S
C1438 H1428 0.950 . S
C1438 C1439 1.386 . S
C1438 C1440 1.391 . S
C1439 C1438 1.386 . S
C1439 C1443 1.393 . S
C1440 H1429 0.950 . S
C1440 C1438 1.391 . S
C1440 C1441 1.400 . S
C1441 C1435 1.491 . S
C1441 C1440 1.400 . S
C1441 C1442 1.398 . S
C1442 H1430 0.950 . S
C1442 C1441 1.398 . S
C1442 C1443 1.391 . S
C1443 H1431 0.950 . S
C1443 C1439 1.393 . S
C1443 C1442 1.391 . S
H1444 C1452 0.950 . S
H1445 C1457 0.950 . S
H1446 C1454 0.950 . S
H1447 C1456 0.950 . S
H1448 C1458 0.950 . S
H1449 C1460 0.950 . S
H1450 C1462 0.950 . S
H1451 C1463 0.950 . S
C1452 H1444 0.950 . S
C1452 C1453 1.386 . S
C1452 C1454 1.391 . S
C1453 C1452 1.386 . S
C1453 C1457 1.393 . S
C1454 H1446 0.950 . S
C1454 C1452 1.391 . S
C1454 C1455 1.400 . S
C1455 C1454 1.400 . S
C1455 C1456 1.398 . S
C1455 C1461 1.491 . S
C1456 H1447 0.950 . S
C1456 C1455 1.398 . S
C1456 C1457 1.391 . S
C1457 H1445 0.950 . S
C1457 C1453 1.393 . S
C1457 C1456 1.391 . S
C1458 H1448 0.950 . S
C1458 C1459 1.386 . S
C1458 C1460 1.391 . S
C1459 C1458 1.386 . S
C1459 C1463 1.393 . S
C1460 H1449 0.950 . S
C1460 C1458 1.391 . S
C1460 C1461 1.400 . S
C1461 C1455 1.491 . S
C1461 C1460 1.400 . S
C1461 C1462 1.398 . S
C1462 H1450 0.950 . S
C1462 C1461 1.398 . S
C1462 C1463 1.391 . S
C1463 H1451 0.950 . S
C1463 C1459 1.393 . S
C1463 C1462 1.391 . S
H1464 C1472 0.950 . S
H1465 C1477 0.950 . S
H1466 C1474 0.950 . S
H1467 C1476 0.950 . S
H1468 C1478 0.950 . S
H1469 C1480 0.950 . S
H1470 C1482 0.950 . S
H1471 C1483 0.950 . S
C1472 H1464 0.950 . S
C1472 C1473 1.386 . S
C1472 C1474 1.391 . S
C1473 C1472 1.386 . S
C1473 C1477 1.393 . S
C1474 H1466 0.950 . S
C1474 C1472 1.391 . S
C1474 C1475 1.400 . S
C1475 C1474 1.400 . S
C1475 C1476 1.398 . S
C1475 C1481 1.491 . S
C1476 H1467 0.950 . S
C1476 C1475 1.398 . S
C1476 C1477 1.391 . S
C1477 H1465 0.950 . S
C1477 C1473 1.393 . S
C1477 C1476 1.391 . S
C1478 H1468 0.950 . S
C1478 C1479 1.386 . S
C1478 C1480 1.391 . S
C1479 C1478 1.386 . S
C1479 C1483 1.393 . S
C1480 H1469 0.950 . S
C1480 C1478 1.391 . S
C1480 C1481 1.400 . S
C1481 C1475 1.491 . S
C1481 C1480 1.400 . S
C1481 C1482 1.398 . S
C1482 H1470 0.950 . S
C1482 C1481 1.398 . S
C1482 C1483 1.391 . S
C1483 H1471 0.950 . S
C1483 C1479 1.393 . S
C1483 C1482 1.391 . S
H1484 C1492 0.950 . S
H1485 C1497 0.950 . S
H1486 C1494 0.950 . S
H1487 C1496 0.950 . S
H1488 C1498 0.950 . S
H1489 C1500 0.950 . S
H1490 C1502 0.950 . S
H1491 C1503 0.950 . S
C1492 H1484 0.950 . S
C1492 C1493 1.386 . S
C1492 C1494 1.391 . S
C1493 C1492 1.386 . S
C1493 C1497 1.393 . S
C1494 H1486 0.950 . S
C1494 C1492 1.391 . S
C1494 C1495 1.400 . S
C1495 C1494 1.400 . S
C1495 C1496 1.398 . S
C1495 C1501 1.491 . S
C1496 H1487 0.950 . S
C1496 C1495 1.398 . S
C1496 C1497 1.391 . S
C1497 H1485 0.950 . S
C1497 C1493 1.393 . S
C1497 C1496 1.391 . S
C1498 H1488 0.950 . S
C1498 C1499 1.386 . S
C1498 C1500 1.391 1_455 S
C1499 C1498 1.386 . S
C1499 C1503 1.393 . S
C1500 H1489 0.950 . S
C1500 C1498 1.391 1_655 S
C1500 C1501 1.400 . S
C1501 C1495 1.491 . S
C1501 C1500 1.400 . S
C1501 C1502 1.398 . S
C1502 H1490 0.950 . S
C1502 C1501 1.398 . S
C1502 C1503 1.391 1_655 S
C1503 H1491 0.950 . S
C1503 C1499 1.393 . S
C1503 C1502 1.391 1_455 S
H1504 C1512 0.950 . S
H1505 C1517 0.950 . S
H1506 C1514 0.950 . S
H1507 C1516 0.950 . S
H1508 C1518 0.950 . S
H1509 C1520 0.950 . S
H1510 C1522 0.950 . S
H1511 C1523 0.950 . S
C1512 H1504 0.950 . S
C1512 C1513 1.386 . S
C1512 C1514 1.391 . S
C1513 C1512 1.386 . S
C1513 C1517 1.393 . S
C1514 H1506 0.950 . S
C1514 C1512 1.391 . S
C1514 C1515 1.400 . S
C1515 C1514 1.400 . S
C1515 C1516 1.398 . S
C1515 C1521 1.491 . S
C1516 H1507 0.950 . S
C1516 C1515 1.398 . S
C1516 C1517 1.391 . S
C1517 H1505 0.950 . S
C1517 C1513 1.393 . S
C1517 C1516 1.391 . S
C1518 H1508 0.950 . S
C1518 C1519 1.386 . S
C1518 C1520 1.391 . S
C1519 C1518 1.386 . S
C1519 C1523 1.393 . S
C1520 H1509 0.950 . S
C1520 C1518 1.391 . S
C1520 C1521 1.400 . S
C1521 C1515 1.491 . S
C1521 C1520 1.400 . S
C1521 C1522 1.398 . S
C1522 H1510 0.950 . S
C1522 C1521 1.398 . S
C1522 C1523 1.391 . S
C1523 H1511 0.950 . S
C1523 C1519 1.393 . S
C1523 C1522 1.391 . S
H1524 C1532 0.948 1_455 S
H1525 C1537 0.950 . S
H1526 C1534 0.950 . S
H1527 C1536 0.950 . S
H1528 C1538 0.950 . S
H1529 C1540 0.950 . S
H1530 C1542 0.950 . S
H1531 C1543 0.950 . S
C1532 H1524 0.948 1_655 S
C1532 C1533 1.386 . S
C1532 C1534 1.391 1_655 S
C1533 C1532 1.386 . S
C1533 C1537 1.393 . S
C1534 H1526 0.950 . S
C1534 C1532 1.391 1_455 S
C1534 C1535 1.400 . S
C1535 C1534 1.400 . S
C1535 C1536 1.398 1_455 S
C1535 C1541 1.491 . S
C1536 H1527 0.950 . S
C1536 C1535 1.398 1_655 S
C1536 C1537 1.391 . S
C1537 H1525 0.950 . S
C1537 C1533 1.393 . S
C1537 C1536 1.391 . S
C1538 H1528 0.950 . S
C1538 C1539 1.386 . S
C1538 C1540 1.391 . S
C1539 C1538 1.386 . S
C1539 C1543 1.393 . S
C1540 H1529 0.950 . S
C1540 C1538 1.391 . S
C1540 C1541 1.400 . S
C1541 C1535 1.491 . S
C1541 C1540 1.400 . S
C1541 C1542 1.398 . S
C1542 H1530 0.950 . S
C1542 C1541 1.398 . S
C1542 C1543 1.391 . S
C1543 H1531 0.950 . S
C1543 C1539 1.393 . S
C1543 C1542 1.391 . S
H1544 C1552 0.950 . S
H1545 C1557 0.950 . S
H1546 C1554 0.950 . S
H1547 C1556 0.950 . S
H1548 C1558 0.950 . S
H1549 C1560 0.950 . S
H1550 C1562 0.950 . S
H1551 C1563 0.950 . S
C1552 H1544 0.950 . S
C1552 C1553 1.386 . S
C1552 C1554 1.391 . S
C1553 C1552 1.386 . S
C1553 C1557 1.393 . S
C1554 H1546 0.950 . S
C1554 C1552 1.391 . S
C1554 C1555 1.400 . S
C1555 C1554 1.400 . S
C1555 C1556 1.398 . S
C1555 C1561 1.491 . S
C1556 H1547 0.950 . S
C1556 C1555 1.398 . S
C1556 C1557 1.391 . S
C1557 H1545 0.950 . S
C1557 C1553 1.393 . S
C1557 C1556 1.391 . S
C1558 H1548 0.950 . S
C1558 C1559 1.386 . S
C1558 C1560 1.391 . S
C1559 C1558 1.386 . S
C1559 C1563 1.393 . S
C1560 H1549 0.950 . S
C1560 C1558 1.391 . S
C1560 C1561 1.400 . S
C1561 C1555 1.491 . S
C1561 C1560 1.400 . S
C1561 C1562 1.398 . S
C1562 H1550 0.950 . S
C1562 C1561 1.398 . S
C1562 C1563 1.391 . S
C1563 H1551 0.950 . S
C1563 C1559 1.393 . S
C1563 C1562 1.391 . S
H1564 C1572 0.950 . S
H1565 C1577 0.950 . S
H1566 C1574 0.950 . S
H1567 C1576 0.950 . S
H1568 C1578 0.950 . S
H1569 C1580 0.950 . S
H1570 C1582 0.950 . S
H1571 C1583 0.950 . S
C1572 H1564 0.950 . S
C1572 C1573 1.386 . S
C1572 C1574 1.391 . S
C1573 C1572 1.386 . S
C1573 C1577 1.393 . S
C1574 H1566 0.950 . S
C1574 C1572 1.391 . S
C1574 C1575 1.400 . S
C1575 C1574 1.400 . S
C1575 C1576 1.398 . S
C1575 C1581 1.491 . S
C1576 H1567 0.950 . S
C1576 C1575 1.398 . S
C1576 C1577 1.391 . S
C1577 H1565 0.950 . S
C1577 C1573 1.393 . S
C1577 C1576 1.391 . S
C1578 H1568 0.950 . S
C1578 C1579 1.386 . S
C1578 C1580 1.391 . S
C1579 C1578 1.386 . S
C1579 C1583 1.393 . S
C1580 H1569 0.950 . S
C1580 C1578 1.391 . S
C1580 C1581 1.400 . S
C1581 C1575 1.491 . S
C1581 C1580 1.400 . S
C1581 C1582 1.398 . S
C1582 H1570 0.950 . S
C1582 C1581 1.398 . S
C1582 C1583 1.391 . S
C1583 H1571 0.950 . S
C1583 C1579 1.393 . S
C1583 C1582 1.391 . S
H1584 C1592 0.950 . S
H1585 C1597 0.950 . S
H1586 C1594 0.950 . S
H1587 C1596 0.950 . S
H1588 C1598 0.950 . S
H1589 C1600 0.950 . S
H1590 C1602 0.950 . S
H1591 C1603 0.950 . S
C1592 H1584 0.950 . S
C1592 C1593 1.386 . S
C1592 C1594 1.391 . S
C1593 C1592 1.386 . S
C1593 C1597 1.393 . S
C1594 H1586 0.950 . S
C1594 C1592 1.391 . S
C1594 C1595 1.400 . S
C1595 C1594 1.400 . S
C1595 C1596 1.398 . S
C1595 C1601 1.491 . S
C1596 H1587 0.950 . S
C1596 C1595 1.398 . S
C1596 C1597 1.391 . S
C1597 H1585 0.950 . S
C1597 C1593 1.393 . S
C1597 C1596 1.391 . S
C1598 H1588 0.950 . S
C1598 C1599 1.386 . S
C1598 C1600 1.391 . S
C1599 C1598 1.386 . S
C1599 C1603 1.393 . S
C1600 H1589 0.950 . S
C1600 C1598 1.391 . S
C1600 C1601 1.400 . S
C1601 C1595 1.491 . S
C1601 C1600 1.400 . S
C1601 C1602 1.398 . S
C1602 H1590 0.950 . S
C1602 C1601 1.398 . S
C1602 C1603 1.391 . S
C1603 H1591 0.950 . S
C1603 C1599 1.393 . S
C1603 C1602 1.391 . S
H1604 C1612 0.950 . S
H1605 C1617 0.950 . S
H1606 C1614 0.950 . S
H1607 C1616 0.950 . S
H1608 C1618 0.950 . S
H1609 C1620 0.950 . S
H1610 C1622 0.950 . S
H1611 C1623 0.950 . S
C1612 H1604 0.950 . S
C1612 C1613 1.386 . S
C1612 C1614 1.391 . S
C1613 C1612 1.386 . S
C1613 C1617 1.393 . S
C1614 H1606 0.950 . S
C1614 C1612 1.391 . S
C1614 C1615 1.400 . S
C1615 C1614 1.400 . S
C1615 C1616 1.398 . S
C1615 C1621 1.491 . S
C1616 H1607 0.950 . S
C1616 C1615 1.398 . S
C1616 C1617 1.391 . S
C1617 H1605 0.950 . S
C1617 C1613 1.393 . S
C1617 C1616 1.391 . S
C1618 H1608 0.950 . S
C1618 C1619 1.386 . S
C1618 C1620 1.391 . S
C1619 C1618 1.386 . S
C1619 C1623 1.393 . S
C1620 H1609 0.950 . S
C1620 C1618 1.391 . S
C1620 C1621 1.400 . S
C1621 C1615 1.491 . S
C1621 C1620 1.400 . S
C1621 C1622 1.398 . S
C1622 H1610 0.950 . S
C1622 C1621 1.398 . S
C1622 C1623 1.391 . S
C1623 H1611 0.950 . S
C1623 C1619 1.393 . S
C1623 C1622 1.391 . S
H1624 C1632 0.950 . S
H1625 C1637 0.950 . S
H1626 C1634 0.950 . S
H1627 C1636 0.950 . S
H1628 C1638 0.950 . S
H1629 C1640 0.950 . S
H1630 C1642 0.950 . S
H1631 C1643 0.950 . S
C1632 H1624 0.950 . S
C1632 C1633 1.386 . S
C1632 C1634 1.391 . S
C1633 C1632 1.386 . S
C1633 C1637 1.393 . S
C1634 H1626 0.950 . S
C1634 C1632 1.391 . S
C1634 C1635 1.400 . S
C1635 C1634 1.400 . S
C1635 C1636 1.398 . S
C1635 C1641 1.491 . S
C1636 H1627 0.950 . S
C1636 C1635 1.398 . S
C1636 C1637 1.391 . S
C1637 H1625 0.950 . S
C1637 C1633 1.393 . S
C1637 C1636 1.391 . S
C1638 H1628 0.950 . S
C1638 C1639 1.386 . S
C1638 C1640 1.391 . S
C1639 C1638 1.386 . S
C1639 C1643 1.393 . S
C1640 H1629 0.950 . S
C1640 C1638 1.391 . S
C1640 C1641 1.400 . S
C1641 C1635 1.491 . S
C1641 C1640 1.400 . S
C1641 C1642 1.398 . S
C1642 H1630 0.950 . S
C1642 C1641 1.398 . S
C1642 C1643 1.391 . S
C1643 H1631 0.950 . S
C1643 C1639 1.393 . S
C1643 C1642 1.391 . S
H1644 C1652 0.950 . S
H1645 C1657 0.950 . S
H1646 C1654 0.950 . S
H1647 C1656 0.950 . S
H1648 C1658 0.950 . S
H1649 C1660 0.950 . S
H1650 C1662 0.950 . S
H1651 C1663 0.950 . S
C1652 H1644 0.950 . S
C1652 C1653 1.386 . S
C1652 C1654 1.391 . S
C1653 C1652 1.386 . S
C1653 C1657 1.393 . S
C1654 H1646 0.950 . S
C1654 C1652 1.391 . S
C1654 C1655 1.400 . S
C1655 C1654 1.400 . S
C1655 C1656 1.398 . S
C1655 C1661 1.491 . S
C1656 H1647 0.950 . S
C1656 C1655 1.398 . S
C1656 C1657 1.391 . S
C1657 H1645 0.950 . S
C1657 C1653 1.393 . S
C1657 C1656 1.391 . S
C1658 H1648 0.950 . S
C1658 C1659 1.386 . S
C1658 C1660 1.391 . S
C1659 C1658 1.386 . S
C1659 C1663 1.393 1_655 S
C1660 H1649 0.950 . S
C1660 C1658 1.391 . S
C1660 C1661 1.400 1_655 S
C1661 C1655 1.491 . S
C1661 C1660 1.400 1_455 S
C1661 C1662 1.398 . S
C1662 H1650 0.950 . S
C1662 C1661 1.398 . S
C1662 C1663 1.391 . S
C1663 H1651 0.950 . S
C1663 C1659 1.393 1_455 S
C1663 C1662 1.391 . S
H1664 C1672 0.950 . S
H1665 C1677 0.950 . S
H1666 C1674 0.950 . S
H1667 C1676 0.950 . S
H1668 C1678 0.950 . S
H1669 C1680 0.950 . S
H1670 C1682 0.950 . S
H1671 C1683 0.950 . S
C1672 H1664 0.950 . S
C1672 C1673 1.386 . S
C1672 C1674 1.391 . S
C1673 C1672 1.386 . S
C1673 C1677 1.393 . S
C1674 H1666 0.950 . S
C1674 C1672 1.391 . S
C1674 C1675 1.400 . S
C1675 C1674 1.400 . S
C1675 C1676 1.398 . S
C1675 C1681 1.491 . S
C1676 H1667 0.950 . S
C1676 C1675 1.398 . S
C1676 C1677 1.391 . S
C1677 H1665 0.950 . S
C1677 C1673 1.393 . S
C1677 C1676 1.391 . S
C1678 H1668 0.950 . S
C1678 C1679 1.386 . S
C1678 C1680 1.391 . S
C1679 C1678 1.386 . S
C1679 C1683 1.393 . S
C1680 H1669 0.950 . S
C1680 C1678 1.391 . S
C1680 C1681 1.400 . S
C1681 C1675 1.491 . S
C1681 C1680 1.400 . S
C1681 C1682 1.398 . S
C1682 H1670 0.950 . S
C1682 C1681 1.398 . S
C1682 C1683 1.391 . S
C1683 H1671 0.950 . S
C1683 C1679 1.393 . S
C1683 C1682 1.391 . S
H1684 C1692 0.950 . S
H1685 C1697 0.950 . S
H1686 C1694 0.950 . S
H1687 C1696 0.950 . S
H1688 C1698 0.950 . S
H1689 C1700 0.950 . S
H1690 C1702 0.950 . S
H1691 C1703 0.950 . S
C1692 H1684 0.950 . S
C1692 C1693 1.386 . S
C1692 C1694 1.391 . S
C1693 C1692 1.386 . S
C1693 C1697 1.393 . S
C1694 H1686 0.950 . S
C1694 C1692 1.391 . S
C1694 C1695 1.400 . S
C1695 C1694 1.400 . S
C1695 C1696 1.398 . S
C1695 C1701 1.491 . S
C1696 H1687 0.950 . S
C1696 C1695 1.398 . S
C1696 C1697 1.391 . S
C1697 H1685 0.950 . S
C1697 C1693 1.393 . S
C1697 C1696 1.391 . S
C1698 H1688 0.950 . S
C1698 C1699 1.386 . S
C1698 C1700 1.391 . S
C1699 C1698 1.386 . S
C1699 C1703 1.393 . S
C1700 H1689 0.950 . S
C1700 C1698 1.391 . S
C1700 C1701 1.400 . S
C1701 C1695 1.491 . S
C1701 C1700 1.400 . S
C1701 C1702 1.398 . S
C1702 H1690 0.950 . S
C1702 C1701 1.398 . S
C1702 C1703 1.391 . S
C1703 H1691 0.950 . S
C1703 C1699 1.393 . S
C1703 C1702 1.391 . S
H1704 C1712 0.950 . S
H1705 C1717 0.950 . S
H1706 C1714 0.950 . S
H1707 C1716 0.950 . S
H1708 C1718 0.950 . S
H1709 C1720 0.950 . S
H1710 C1722 0.950 . S
H1711 C1723 0.950 . S
C1712 H1704 0.950 . S
C1712 C1713 1.386 . S
C1712 C1714 1.391 . S
C1713 C1712 1.386 . S
C1713 C1717 1.393 . S
C1714 H1706 0.950 . S
C1714 C1712 1.391 . S
C1714 C1715 1.400 . S
C1715 C1714 1.400 . S
C1715 C1716 1.398 . S
C1715 C1721 1.491 . S
C1716 H1707 0.950 . S
C1716 C1715 1.398 . S
C1716 C1717 1.391 . S
C1717 H1705 0.950 . S
C1717 C1713 1.393 . S
C1717 C1716 1.391 . S
C1718 H1708 0.950 . S
C1718 C1719 1.386 . S
C1718 C1720 1.391 . S
C1719 C1718 1.386 . S
C1719 C1723 1.393 . S
C1720 H1709 0.950 . S
C1720 C1718 1.391 . S
C1720 C1721 1.400 . S
C1721 C1715 1.491 . S
C1721 C1720 1.400 . S
C1721 C1722 1.398 . S
C1722 H1710 0.950 . S
C1722 C1721 1.398 . S
C1722 C1723 1.391 . S
C1723 H1711 0.950 . S
C1723 C1719 1.393 . S
C1723 C1722 1.391 . S
H1724 C1732 0.950 . S
H1725 C1737 0.950 . S
H1726 C1734 0.950 . S
H1727 C1736 0.950 . S
H1728 C1738 0.950 . S
H1729 C1740 0.950 . S
H1730 C1742 0.950 . S
H1731 C1743 0.950 . S
C1732 H1724 0.950 . S
C1732 C1733 1.386 1_455 S
C1732 C1734 1.391 . S
C1733 C1732 1.386 1_655 S
C1733 C1737 1.393 . S
C1734 H1726 0.950 . S
C1734 C1732 1.391 . S
C1734 C1735 1.400 . S
C1735 C1734 1.400 . S
C1735 C1736 1.398 1_455 S
C1735 C1741 1.491 . S
C1736 H1727 0.950 . S
C1736 C1735 1.398 1_655 S
C1736 C1737 1.391 . S
C1737 H1725 0.950 . S
C1737 C1733 1.393 . S
C1737 C1736 1.391 . S
C1738 H1728 0.950 . S
C1738 C1739 1.386 . S
C1738 C1740 1.391 . S
C1739 C1738 1.386 . S
C1739 C1743 1.393 . S
C1740 H1729 0.950 . S
C1740 C1738 1.391 . S
C1740 C1741 1.400 . S
C1741 C1735 1.491 . S
C1741 C1740 1.400 . S
C1741 C1742 1.398 . S
C1742 H1730 0.950 . S
C1742 C1741 1.398 . S
C1742 C1743 1.391 . S
C1743 H1731 0.950 . S
C1743 C1739 1.393 . S
C1743 C1742 1.391 . S
H1744 C1752 0.950 . S
H1745 C1757 0.950 . S
H1746 C1754 0.950 . S
H1747 C1756 0.950 . S
H1748 C1758 0.950 . S
H1749 C1760 0.950 . S
H1750 C1762 0.950 . S
H1751 C1763 0.950 . S
C1752 H1744 0.950 . S
C1752 C1753 1.386 . S
C1752 C1754 1.391 . S
C1753 C1752 1.386 . S
C1753 C1757 1.393 . S
C1754 H1746 0.950 . S
C1754 C1752 1.391 . S
C1754 C1755 1.400 . S
C1755 C1754 1.400 . S
C1755 C1756 1.398 . S
C1755 C1761 1.491 . S
C1756 H1747 0.950 . S
C1756 C1755 1.398 . S
C1756 C1757 1.391 . S
C1757 H1745 0.950 . S
C1757 C1753 1.393 . S
C1757 C1756 1.391 . S
C1758 H1748 0.950 . S
C1758 C1759 1.386 . S
C1758 C1760 1.391 . S
C1759 C1758 1.386 . S
C1759 C1763 1.393 . S
C1760 H1749 0.950 . S
C1760 C1758 1.391 . S
C1760 C1761 1.400 . S
C1761 C1755 1.491 . S
C1761 C1760 1.400 . S
C1761 C1762 1.398 . S
C1762 H1750 0.950 . S
C1762 C1761 1.398 . S
C1762 C1763 1.391 . S
C1763 H1751 0.950 . S
C1763 C1759 1.393 . S
C1763 C1762 1.391 . S
H1764 C1772 0.948 1_455 S
H1765 C1777 0.950 . S
H1766 C1774 0.950 . S
H1767 C1776 0.950 . S
H1768 C1778 0.950 . S
H1769 C1780 0.950 . S
H1770 C1782 0.950 . S
H1771 C1783 0.950 . S
C1772 H1764 0.948 1_655 S
C1772 C1773 1.386 . S
C1772 C1774 1.391 1_655 S
C1773 C1772 1.386 . S
C1773 C1777 1.393 . S
C1774 H1766 0.950 . S
C1774 C1772 1.391 1_455 S
C1774 C1775 1.400 . S
C1775 C1774 1.400 . S
C1775 C1776 1.398 1_455 S
C1775 C1781 1.491 . S
C1776 H1767 0.950 . S
C1776 C1775 1.398 1_655 S
C1776 C1777 1.391 . S
C1777 H1765 0.950 . S
C1777 C1773 1.393 . S
C1777 C1776 1.391 . S
C1778 H1768 0.950 . S
C1778 C1779 1.386 . S
C1778 C1780 1.391 . S
C1779 C1778 1.386 . S
C1779 C1783 1.393 . S
C1780 H1769 0.950 . S
C1780 C1778 1.391 . S
C1780 C1781 1.400 . S
C1781 C1775 1.491 . S
C1781 C1780 1.400 . S
C1781 C1782 1.398 . S
C1782 H1770 0.950 . S
C1782 C1781 1.398 . S
C1782 C1783 1.391 . S
C1783 H1771 0.950 . S
C1783 C1779 1.393 . S
C1783 C1782 1.391 . S
H1784 C1792 0.950 . S
H1785 C1797 0.950 . S
H1786 C1794 0.950 . S
H1787 C1796 0.950 . S
H1788 C1798 0.950 . S
H1789 C1800 0.950 . S
H1790 C1802 0.950 . S
H1791 C1803 0.950 . S
C1792 H1784 0.950 . S
C1792 C1793 1.386 . S
C1792 C1794 1.391 . S
C1793 C1792 1.386 . S
C1793 C1797 1.393 . S
C1794 H1786 0.950 . S
C1794 C1792 1.391 . S
C1794 C1795 1.400 . S
C1795 C1794 1.400 . S
C1795 C1796 1.398 . S
C1795 C1801 1.491 . S
C1796 H1787 0.950 . S
C1796 C1795 1.398 . S
C1796 C1797 1.391 . S
C1797 H1785 0.950 . S
C1797 C1793 1.393 . S
C1797 C1796 1.391 . S
C1798 H1788 0.950 . S
C1798 C1799 1.386 . S
C1798 C1800 1.391 . S
C1799 C1798 1.386 . S
C1799 C1803 1.393 . S
C1800 H1789 0.950 . S
C1800 C1798 1.391 . S
C1800 C1801 1.400 . S
C1801 C1795 1.491 . S
C1801 C1800 1.400 . S
C1801 C1802 1.398 . S
C1802 H1790 0.950 . S
C1802 C1801 1.398 . S
C1802 C1803 1.391 . S
C1803 H1791 0.950 . S
C1803 C1799 1.393 . S
C1803 C1802 1.391 . S
H1804 C1812 0.950 . S
H1805 C1817 0.950 . S
H1806 C1814 0.950 . S
H1807 C1816 0.950 . S
H1808 C1818 0.950 . S
H1809 C1820 0.950 . S
H1810 C1822 0.950 . S
H1811 C1823 0.950 . S
C1812 H1804 0.950 . S
C1812 C1813 1.386 . S
C1812 C1814 1.391 . S
C1813 C1812 1.386 . S
C1813 C1817 1.393 . S
C1814 H1806 0.950 . S
C1814 C1812 1.391 . S
C1814 C1815 1.400 . S
C1815 C1814 1.400 . S
C1815 C1816 1.398 . S
C1815 C1821 1.491 . S
C1816 H1807 0.950 . S
C1816 C1815 1.398 . S
C1816 C1817 1.391 . S
C1817 H1805 0.950 . S
C1817 C1813 1.393 . S
C1817 C1816 1.391 . S
C1818 H1808 0.950 . S
C1818 C1819 1.386 . S
C1818 C1820 1.391 . S
C1819 C1818 1.386 . S
C1819 C1823 1.393 . S
C1820 H1809 0.950 . S
C1820 C1818 1.391 . S
C1820 C1821 1.400 . S
C1821 C1815 1.491 . S
C1821 C1820 1.400 . S
C1821 C1822 1.398 . S
C1822 H1810 0.950 . S
C1822 C1821 1.398 . S
C1822 C1823 1.391 . S
C1823 H1811 0.950 . S
C1823 C1819 1.393 . S
C1823 C1822 1.391 . S
H1824 C1832 0.950 . S
H1825 C1837 0.950 . S
H1826 C1834 0.950 . S
H1827 C1836 0.950 . S
H1828 C1838 0.950 . S
H1829 C1840 0.950 . S
H1830 C1842 0.950 . S
H1831 C1843 0.950 . S
C1832 H1824 0.950 . S
C1832 C1833 1.386 . S
C1832 C1834 1.391 . S
C1833 C1832 1.386 . S
C1833 C1837 1.393 . S
C1834 H1826 0.950 . S
C1834 C1832 1.391 . S
C1834 C1835 1.400 . S
C1835 C1834 1.400 . S
C1835 C1836 1.398 . S
C1835 C1841 1.491 . S
C1836 H1827 0.950 . S
C1836 C1835 1.398 . S
C1836 C1837 1.391 . S
C1837 H1825 0.950 . S
C1837 C1833 1.393 . S
C1837 C1836 1.391 . S
C1838 H1828 0.950 . S
C1838 C1839 1.386 . S
C1838 C1840 1.391 . S
C1839 C1838 1.386 . S
C1839 C1843 1.393 . S
C1840 H1829 0.950 . S
C1840 C1838 1.391 . S
C1840 C1841 1.400 . S
C1841 C1835 1.491 . S
C1841 C1840 1.400 . S
C1841 C1842 1.398 . S
C1842 H1830 0.950 . S
C1842 C1841 1.398 . S
C1842 C1843 1.391 . S
C1843 H1831 0.950 . S
C1843 C1839 1.393 . S
C1843 C1842 1.391 . S
H1844 C1852 0.950 . S
H1845 C1857 0.950 . S
H1846 C1854 0.950 . S
H1847 C1856 0.950 . S
H1848 C1858 0.950 . S
H1849 C1860 0.950 . S
H1850 C1862 0.950 . S
H1851 C1863 0.950 . S
C1852 H1844 0.950 . S
C1852 C1853 1.386 . S
C1852 C1854 1.391 . S
C1853 C1852 1.386 . S
C1853 C1857 1.393 . S
C1854 H1846 0.950 . S
C1854 C1852 1.391 . S
C1854 C1855 1.400 . S
C1855 C1854 1.400 . S
C1855 C1856 1.398 . S
C1855 C1861 1.491 . S
C1856 H1847 0.950 . S
C1856 C1855 1.398 . S
C1856 C1857 1.391 . S
C1857 H1845 0.950 . S
C1857 C1853 1.393 . S
C1857 C1856 1.391 . S
C1858 H1848 0.950 . S
C1858 C1859 1.386 . S
C1858 C1860 1.391 . S
C1859 C1858 1.386 . S
C1859 C1863 1.393 . S
C1860 H1849 0.950 . S
C1860 C1858 1.391 . S
C1860 C1861 1.400 . S
C1861 C1855 1.491 . S
C1861 C1860 1.400 . S
C1861 C1862 1.398 . S
C1862 H1850 0.950 . S
C1862 C1861 1.398 . S
C1862 C1863 1.391 . S
C1863 H1851 0.950 . S
C1863 C1859 1.393 . S
C1863 C1862 1.391 . S
H1864 C1872 0.950 . S
H1865 C1877 0.950 . S
H1866 C1874 0.950 . S
H1867 C1876 0.950 . S
H1868 C1878 0.950 . S
H1869 C1880 0.950 . S
H1870 C1882 0.950 . S
H1871 C1883 0.950 . S
C1872 H1864 0.950 . S
C1872 C1873 1.386 . S
C1872 C1874 1.391 . S
C1873 C1872 1.386 . S
C1873 C1877 1.393 . S
C1874 H1866 0.950 . S
C1874 C1872 1.391 . S
C1874 C1875 1.400 . S
C1875 C1874 1.400 . S
C1875 C1876 1.398 . S
C1875 C1881 1.491 . S
C1876 H1867 0.950 . S
C1876 C1875 1.398 . S
C1876 C1877 1.391 . S
C1877 H1865 0.950 . S
C1877 C1873 1.393 . S
C1877 C1876 1.391 . S
C1878 H1868 0.950 . S
C1878 C1879 1.386 . S
C1878 C1880 1.391 . S
C1879 C1878 1.386 . S
C1879 C1883 1.393 . S
C1880 H1869 0.950 . S
C1880 C1878 1.391 . S
C1880 C1881 1.400 . S
C1881 C1875 1.491 . S
C1881 C1880 1.400 . S
C1881 C1882 1.398 . S
C1882 H1870 0.950 . S
C1882 C1881 1.398 . S
C1882 C1883 1.391 . S
C1883 H1871 0.950 . S
C1883 C1879 1.393 . S
C1883 C1882 1.391 . S
H1884 C1892 0.950 . S
H1885 C1897 0.950 . S
H1886 C1894 0.950 . S
H1887 C1896 0.950 . S
H1888 C1898 0.950 . S
H1889 C1900 0.950 . S
H1890 C1902 0.950 . S
H1891 C1903 0.950 . S
C1892 H1884 0.950 . S
C1892 C1893 1.386 . S
C1892 C1894 1.391 . S
C1893 C1892 1.386 . S
C1893 C1897 1.393 . S
C1894 H1886 0.950 . S
C1894 C1892 1.391 . S
C1894 C1895 1.400 . S
C1895 C1894 1.400 . S
C1895 C1896 1.398 . S
C1895 C1901 1.491 . S
C1896 H1887 0.950 . S
C1896 C1895 1.398 . S
C1896 C1897 1.391 . S
C1897 H1885 0.950 . S
C1897 C1893 1.393 . S
C1897 C1896 1.391 . S
C1898 H1888 0.950 . S
C1898 C1899 1.386 1_655 S
C1898 C1900 1.391 . S
C1899 C1898 1.386 1_455 S
C1899 C1903 1.393 . S
C1900 H1889 0.950 . S
C1900 C1898 1.391 . S
C1900 C1901 1.400 . S
C1901 C1895 1.491 . S
C1901 C1900 1.400 . S
C1901 C1902 1.398 1_655 S
C1902 H1890 0.950 . S
C1902 C1901 1.398 1_455 S
C1902 C1903 1.391 . S
C1903 H1891 0.950 . S
C1903 C1899 1.393 . S
C1903 C1902 1.391 . S
H1904 C1912 0.950 . S
H1905 C1917 0.950 . S
H1906 C1914 0.950 . S
H1907 C1916 0.950 . S
H1908 C1918 0.950 . S
H1909 C1920 0.950 . S
H1910 C1922 0.950 . S
H1911 C1923 0.950 . S
C1912 H1904 0.950 . S
C1912 C1913 1.386 . S
C1912 C1914 1.391 . S
C1913 C1912 1.386 . S
C1913 C1917 1.393 . S
C1914 H1906 0.950 . S
C1914 C1912 1.391 . S
C1914 C1915 1.400 . S
C1915 C1914 1.400 . S
C1915 C1916 1.398 . S
C1915 C1921 1.491 . S
C1916 H1907 0.950 . S
C1916 C1915 1.398 . S
C1916 C1917 1.391 . S
C1917 H1905 0.950 . S
C1917 C1913 1.393 . S
C1917 C1916 1.391 . S
C1918 H1908 0.950 . S
C1918 C1919 1.386 . S
C1918 C1920 1.391 . S
C1919 C1918 1.386 . S
C1919 C1923 1.393 . S
C1920 H1909 0.950 . S
C1920 C1918 1.391 . S
C1920 C1921 1.400 . S
C1921 C1915 1.491 . S
C1921 C1920 1.400 . S
C1921 C1922 1.398 . S
C1922 H1910 0.950 . S
C1922 C1921 1.398 . S
C1922 C1923 1.391 . S
C1923 H1911 0.950 . S
C1923 C1919 1.393 . S
C1923 C1922 1.391 . S
H1924 C1932 0.950 . S
H1925 C1937 0.950 . S
H1926 C1934 0.950 . S
H1927 C1936 0.950 . S
H1928 C1938 0.950 . S
H1929 C1940 0.950 . S
H1930 C1942 0.950 . S
H1931 C1943 0.947 1_655 S
C1932 H1924 0.950 . S
C1932 C1933 1.386 . S
C1932 C1934 1.391 . S
C1933 C1932 1.386 . S
C1933 C1937 1.393 . S
C1934 H1926 0.950 . S
C1934 C1932 1.391 . S
C1934 C1935 1.400 . S
C1935 C1934 1.400 . S
C1935 C1936 1.398 . S
C1935 C1941 1.491 . S
C1936 H1927 0.950 . S
C1936 C1935 1.398 . S
C1936 C1937 1.391 . S
C1937 H1925 0.950 . S
C1937 C1933 1.393 . S
C1937 C1936 1.391 . S
C1938 H1928 0.950 . S
C1938 C1939 1.386 . S
C1938 C1940 1.391 . S
C1939 C1938 1.386 . S
C1939 C1943 1.421 . S
C1940 H1929 0.950 . S
C1940 C1938 1.391 . S
C1940 C1941 1.400 1_455 S
C1941 C1935 1.491 . S
C1941 C1940 1.400 1_655 S
C1941 C1942 1.398 . S
C1942 H1930 0.950 . S
C1942 C1941 1.398 . S
C1942 C1943 1.367 1_655 S
C1943 H1931 0.947 1_455 S
C1943 C1939 1.421 . S
C1943 C1942 1.367 1_455 S
H1944 C1952 0.950 . S
H1945 C1957 0.950 . S
H1946 C1954 0.950 . S
H1947 C1956 0.950 . S
H1948 C1958 0.950 . S
H1949 C1960 0.950 . S
H1950 C1962 0.950 . S
H1951 C1963 0.950 . S
C1952 H1944 0.950 . S
C1952 C1953 1.386 . S
C1952 C1954 1.391 . S
C1953 C1952 1.386 . S
C1953 C1957 1.393 . S
C1954 H1946 0.950 . S
C1954 C1952 1.391 . S
C1954 C1955 1.400 . S
C1955 C1954 1.400 . S
C1955 C1956 1.398 . S
C1955 C1961 1.491 . S
C1956 H1947 0.950 . S
C1956 C1955 1.398 . S
C1956 C1957 1.391 . S
C1957 H1945 0.950 . S
C1957 C1953 1.393 . S
C1957 C1956 1.391 . S
C1958 H1948 0.950 . S
C1958 C1959 1.386 . S
C1958 C1960 1.391 . S
C1959 C1958 1.386 . S
C1959 C1963 1.393 . S
C1960 H1949 0.950 . S
C1960 C1958 1.391 . S
C1960 C1961 1.400 . S
C1961 C1955 1.491 . S
C1961 C1960 1.400 . S
C1961 C1962 1.398 . S
C1962 H1950 0.950 . S
C1962 C1961 1.398 . S
C1962 C1963 1.391 . S
C1963 H1951 0.950 . S
C1963 C1959 1.393 . S
C1963 C1962 1.391 . S
H1964 C1972 0.950 . S
H1965 C1977 0.950 . S
H1966 C1974 0.950 . S
H1967 C1976 0.950 . S
H1968 C1978 0.950 . S
H1969 C1980 0.950 . S
H1970 C1982 0.950 . S
H1971 C1983 0.950 . S
C1972 H1964 0.950 . S
C1972 C1973 1.386 . S
C1972 C1974 1.391 . S
C1973 C1972 1.386 . S
C1973 C1977 1.393 . S
C1974 H1966 0.950 . S
C1974 C1972 1.391 . S
C1974 C1975 1.400 . S
C1975 C1974 1.400 . S
C1975 C1976 1.398 . S
C1975 C1981 1.491 . S
C1976 H1967 0.950 . S
C1976 C1975 1.398 . S
C1976 C1977 1.391 . S
C1977 H1965 0.950 . S
C1977 C1973 1.393 . S
C1977 C1976 1.391 . S
C1978 H1968 0.950 . S
C1978 C1979 1.386 . S
C1978 C1980 1.391 . S
C1979 C1978 1.386 . S
C1979 C1983 1.393 . S
C1980 H1969 0.950 . S
C1980 C1978 1.391 . S
C1980 C1981 1.400 . S
C1981 C1975 1.491 . S
C1981 C1980 1.400 . S
C1981 C1982 1.398 . S
C1982 H1970 0.950 . S
C1982 C1981 1.398 . S
C1982 C1983 1.391 . S
C1983 H1971 0.950 . S
C1983 C1979 1.393 . S
C1983 C1982 1.391 . S
H1984 C1992 0.950 . S
H1985 C1997 0.950 . S
H1986 C1994 0.958 . S
H1987 C1996 0.950 . S
H1988 C1998 0.950 . S
H1989 C2000 0.958 . S
H1990 C2002 0.950 . S
H1991 C2003 0.950 . S
C1992 H1984 0.950 . S
C1992 C1993 1.386 . S
C1992 C1994 1.391 . S
C1993 C1992 1.386 . S
C1993 C1997 1.393 . S
C1994 H1986 0.958 . S
C1994 C1992 1.391 . S
C1994 C1995 1.400 . S
C1995 C1994 1.400 . S
C1995 C1996 1.398 . S
C1995 C2001 1.491 1_455 S
C1996 H1987 0.950 . S
C1996 C1995 1.398 . S
C1996 C1997 1.391 . S
C1997 H1985 0.950 . S
C1997 C1993 1.393 . S
C1997 C1996 1.391 . S
C1998 H1988 0.950 . S
C1998 C1999 1.386 . S
C1998 C2000 1.391 . S
C1999 C1998 1.386 . S
C1999 C2003 1.393 . S
C2000 H1989 0.958 . S
C2000 C1998 1.391 . S
C2000 C2001 1.400 . S
C2001 C1995 1.491 1_655 S
C2001 C2000 1.400 . S
C2001 C2002 1.398 . S
C2002 H1990 0.950 . S
C2002 C2001 1.398 . S
C2002 C2003 1.391 . S
C2003 H1991 0.950 . S
C2003 C1999 1.393 . S
C2003 C2002 1.391 . S
H2004 C2012 0.950 . S
H2005 C2017 0.950 . S
H2006 C2014 0.950 . S
H2007 C2016 0.945 . S
H2008 C2018 0.950 . S
H2009 C2020 0.950 . S
H2010 C2022 0.945 . S
H2011 C2023 0.950 . S
C2012 H2004 0.950 . S
C2012 C2013 1.386 . S
C2012 C2014 1.391 . S
C2013 C2012 1.386 . S
C2013 C2017 1.393 . S
C2014 H2006 0.950 . S
C2014 C2012 1.391 . S
C2014 C2015 1.400 . S
C2015 C2014 1.400 . S
C2015 C2016 1.400 1_455 S
C2015 C2021 1.491 1_455 S
C2016 H2007 0.945 . S
C2016 C2015 1.400 1_655 S
C2016 C2017 1.394 1_655 S
C2017 H2005 0.950 . S
C2017 C2013 1.393 . S
C2017 C2016 1.394 1_455 S
C2018 H2008 0.950 . S
C2018 C2019 1.386 . S
C2018 C2020 1.391 . S
C2019 C2018 1.386 . S
C2019 C2023 1.393 . S
C2020 H2009 0.950 . S
C2020 C2018 1.391 . S
C2020 C2021 1.400 . S
C2021 C2015 1.491 1_655 S
C2021 C2020 1.400 . S
C2021 C2022 1.400 1_655 S
C2022 H2010 0.945 . S
C2022 C2021 1.400 1_455 S
C2022 C2023 1.394 1_455 S
C2023 H2011 0.950 . S
C2023 C2019 1.393 . S
C2023 C2022 1.394 1_655 S
H2024 C2032 0.950 . S
H2025 C2037 0.950 . S
H2026 C2034 0.950 . S
H2027 C2036 0.950 . S
H2028 C2038 0.950 . S
H2029 C2040 0.950 . S
H2030 C2042 0.950 . S
H2031 C2043 0.950 . S
C2032 H2024 0.950 . S
C2032 C2033 1.386 . S
C2032 C2034 1.391 . S
C2033 C2032 1.386 . S
C2033 C2037 1.393 . S
C2034 H2026 0.950 . S
C2034 C2032 1.391 . S
C2034 C2035 1.400 . S
C2035 C2034 1.400 . S
C2035 C2036 1.398 . S
C2035 C2041 1.491 . S
C2036 H2027 0.950 . S
C2036 C2035 1.398 . S
C2036 C2037 1.391 . S
C2037 H2025 0.950 . S
C2037 C2033 1.393 . S
C2037 C2036 1.391 . S
C2038 H2028 0.950 . S
C2038 C2039 1.386 . S
C2038 C2040 1.391 . S
C2039 C2038 1.386 . S
C2039 C2043 1.393 . S
C2040 H2029 0.950 . S
C2040 C2038 1.391 . S
C2040 C2041 1.400 . S
C2041 C2035 1.491 . S
C2041 C2040 1.400 . S
C2041 C2042 1.398 . S
C2042 H2030 0.950 . S
C2042 C2041 1.398 . S
C2042 C2043 1.391 . S
C2043 H2031 0.950 . S
C2043 C2039 1.393 . S
C2043 C2042 1.391 . S
H2044 C2052 0.950 . S
H2045 C2057 0.950 1_556 S
H2046 C2054 0.950 . S
H2047 C2056 0.950 1_556 S
H2048 C2058 0.945 1_556 S
H2049 C2060 0.931 1_556 S
H2050 C2062 0.950 . S
H2051 C2063 0.950 . S
C2052 H2044 0.950 . S
C2052 C2053 1.386 . S
C2052 C2054 1.391 . S
C2053 C2052 1.386 . S
C2053 C2057 1.393 . S
C2054 H2046 0.950 . S
C2054 C2052 1.391 . S
C2054 C2055 1.400 . S
C2055 C2054 1.400 . S
C2055 C2056 1.398 . S
C2055 C2061 1.491 . S
C2056 H2047 0.950 1_554 S
C2056 C2055 1.398 . S
C2056 C2057 1.391 . S
C2057 H2045 0.950 1_554 S
C2057 C2053 1.393 . S
C2057 C2056 1.391 . S
C2058 H2048 0.945 1_554 S
C2058 C2059 1.386 . S
C2058 C2060 1.391 . S
C2059 C2058 1.386 . S
C2059 C2063 1.393 . S
C2060 H2049 0.931 1_554 S
C2060 C2058 1.391 . S
C2060 C2061 1.400 . S
C2061 C2055 1.491 . S
C2061 C2060 1.400 . S
C2061 C2062 1.398 . S
C2062 H2050 0.950 . S
C2062 C2061 1.398 . S
C2062 C2063 1.391 . S
C2063 H2051 0.950 . S
C2063 C2059 1.393 . S
C2063 C2062 1.391 . S
H2064 C2072 0.950 . S
H2065 C2077 0.950 . S
H2066 C2074 0.950 . S
H2067 C2076 0.950 1_455 S
H2068 C2078 0.950 . S
H2069 C2080 0.950 . S
H2070 C2082 0.950 1_655 S
H2071 C2083 0.950 . S
C2072 H2064 0.950 . S
C2072 C2073 1.386 . S
C2072 C2074 1.391 . S
C2073 C2072 1.386 . S
C2073 C2077 1.393 . S
C2074 H2066 0.950 . S
C2074 C2072 1.391 . S
C2074 C2075 1.400 . S
C2075 C2074 1.400 . S
C2075 C2076 1.398 . S
C2075 C2081 1.491 1_655 S
C2076 H2067 0.950 1_655 S
C2076 C2075 1.398 . S
C2076 C2077 1.391 . S
C2077 H2065 0.950 . S
C2077 C2073 1.393 . S
C2077 C2076 1.391 . S
C2078 H2068 0.950 . S
C2078 C2079 1.386 . S
C2078 C2080 1.391 . S
C2079 C2078 1.386 . S
C2079 C2083 1.393 . S
C2080 H2069 0.950 . S
C2080 C2078 1.391 . S
C2080 C2081 1.400 . S
C2081 C2075 1.491 1_455 S
C2081 C2080 1.400 . S
C2081 C2082 1.398 . S
C2082 H2070 0.950 1_455 S
C2082 C2081 1.398 . S
C2082 C2083 1.391 . S
C2083 H2071 0.950 . S
C2083 C2079 1.393 . S
C2083 C2082 1.391 . S
H2084 C2092 0.950 . S
H2085 C2097 0.950 . S
H2086 C2094 0.950 . S
H2087 C2096 0.950 . S
H2088 C2098 0.950 . S
H2089 C2100 0.950 . S
H2090 C2102 0.950 . S
H2091 C2103 0.950 . S
C2092 H2084 0.950 . S
C2092 C2093 1.386 . S
C2092 C2094 1.391 . S
C2093 C2092 1.386 . S
C2093 C2097 1.393 . S
C2094 H2086 0.950 . S
C2094 C2092 1.391 . S
C2094 C2095 1.400 . S
C2095 C2094 1.400 . S
C2095 C2096 1.398 . S
C2095 C2101 1.491 . S
C2096 H2087 0.950 . S
C2096 C2095 1.398 . S
C2096 C2097 1.391 . S
C2097 H2085 0.950 . S
C2097 C2093 1.393 . S
C2097 C2096 1.391 . S
C2098 H2088 0.950 . S
C2098 C2099 1.386 . S
C2098 C2100 1.391 . S
C2099 C2098 1.386 . S
C2099 C2103 1.393 . S
C2100 H2089 0.950 . S
C2100 C2098 1.391 . S
C2100 C2101 1.400 . S
C2101 C2095 1.491 . S
C2101 C2100 1.400 . S
C2101 C2102 1.398 . S
C2102 H2090 0.950 . S
C2102 C2101 1.398 . S
C2102 C2103 1.391 . S
C2103 H2091 0.950 . S
C2103 C2099 1.393 . S
C2103 C2102 1.391 . S
H2104 C2112 0.950 . S
H2105 C2117 0.950 . S
H2106 C2114 0.950 . S
H2107 C2116 0.950 . S
H2108 C2118 0.950 . S
H2109 C2120 0.950 . S
H2110 C2122 0.950 . S
H2111 C2123 0.950 . S
C2112 H2104 0.950 . S
C2112 C2113 1.386 . S
C2112 C2114 1.391 . S
C2113 C2112 1.386 . S
C2113 C2117 1.393 . S
C2114 H2106 0.950 . S
C2114 C2112 1.391 . S
C2114 C2115 1.400 . S
C2115 C2114 1.400 . S
C2115 C2116 1.398 . S
C2115 C2121 1.491 . S
C2116 H2107 0.950 . S
C2116 C2115 1.398 . S
C2116 C2117 1.391 . S
C2117 H2105 0.950 . S
C2117 C2113 1.393 . S
C2117 C2116 1.391 . S
C2118 H2108 0.950 . S
C2118 C2119 1.386 . S
C2118 C2120 1.391 . S
C2119 C2118 1.386 . S
C2119 C2123 1.393 . S
C2120 H2109 0.950 . S
C2120 C2118 1.391 . S
C2120 C2121 1.400 . S
C2121 C2115 1.491 . S
C2121 C2120 1.400 . S
C2121 C2122 1.398 . S
C2122 H2110 0.950 . S
C2122 C2121 1.398 . S
C2122 C2123 1.391 . S
C2123 H2111 0.950 . S
C2123 C2119 1.393 . S
C2123 C2122 1.391 . S
H2124 C2132 0.950 . S
H2125 C2137 0.950 . S
H2126 C2134 0.927 1_455 S
H2127 C2136 0.950 . S
H2128 C2138 0.950 . S
H2129 C2140 0.927 1_655 S
H2130 C2142 0.950 . S
H2131 C2143 0.950 . S
C2132 H2124 0.950 . S
C2132 C2133 1.386 . S
C2132 C2134 1.407 . S
C2133 C2132 1.386 . S
C2133 C2137 1.393 . S
C2134 H2126 0.927 1_655 S
C2134 C2132 1.407 . S
C2134 C2135 1.408 . S
C2135 C2134 1.408 . S
C2135 C2136 1.398 . S
C2135 C2141 1.491 1_655 S
C2136 H2127 0.950 . S
C2136 C2135 1.398 . S
C2136 C2137 1.391 . S
C2137 H2125 0.950 . S
C2137 C2133 1.393 . S
C2137 C2136 1.391 . S
C2138 H2128 0.950 . S
C2138 C2139 1.386 . S
C2138 C2140 1.407 . S
C2139 C2138 1.386 . S
C2139 C2143 1.393 . S
C2140 H2129 0.927 1_455 S
C2140 C2138 1.407 . S
C2140 C2141 1.408 . S
C2141 C2135 1.491 1_455 S
C2141 C2140 1.408 . S
C2141 C2142 1.398 . S
C2142 H2130 0.950 . S
C2142 C2141 1.398 . S
C2142 C2143 1.391 . S
C2143 H2131 0.950 . S
C2143 C2139 1.393 . S
C2143 C2142 1.391 . S
H2144 C2152 0.950 . S
H2145 C2157 0.950 . S
H2146 C2154 0.950 . S
H2147 C2156 0.947 . S
H2148 C2158 0.950 . S
H2149 C2160 0.950 . S
H2150 C2162 0.947 . S
H2151 C2163 0.950 . S
C2152 H2144 0.950 . S
C2152 C2153 1.386 . S
C2152 C2154 1.391 . S
C2153 C2152 1.386 . S
C2153 C2157 1.393 . S
C2154 H2146 0.950 . S
C2154 C2152 1.391 . S
C2154 C2155 1.400 . S
C2155 C2154 1.400 . S
C2155 C2156 1.398 . S
C2155 C2161 1.491 1_455 S
C2156 H2147 0.947 . S
C2156 C2155 1.398 . S
C2156 C2157 1.391 . S
C2157 H2145 0.950 . S
C2157 C2153 1.393 . S
C2157 C2156 1.391 . S
C2158 H2148 0.950 . S
C2158 C2159 1.386 . S
C2158 C2160 1.391 . S
C2159 C2158 1.386 . S
C2159 C2163 1.393 . S
C2160 H2149 0.950 . S
C2160 C2158 1.391 . S
C2160 C2161 1.400 . S
C2161 C2155 1.491 1_655 S
C2161 C2160 1.400 . S
C2161 C2162 1.398 . S
C2162 H2150 0.947 . S
C2162 C2161 1.398 . S
C2162 C2163 1.391 . S
C2163 H2151 0.950 . S
C2163 C2159 1.393 . S
C2163 C2162 1.391 . S
H2164 C2172 0.950 . S
H2165 C2177 0.950 . S
H2166 C2174 0.950 1_655 S
H2167 C2176 0.950 . S
H2168 C2178 0.950 . S
H2169 C2180 0.950 1_455 S
H2170 C2182 0.950 . S
H2171 C2183 0.950 . S
C2172 H2164 0.950 . S
C2172 C2173 1.386 . S
C2172 C2174 1.391 . S
C2173 C2172 1.386 . S
C2173 C2177 1.393 . S
C2174 H2166 0.950 1_455 S
C2174 C2172 1.391 . S
C2174 C2175 1.400 . S
C2175 C2174 1.400 . S
C2175 C2176 1.398 . S
C2175 C2181 1.491 1_455 S
C2176 H2167 0.950 . S
C2176 C2175 1.398 . S
C2176 C2177 1.391 . S
C2177 H2165 0.950 . S
C2177 C2173 1.393 . S
C2177 C2176 1.391 . S
C2178 H2168 0.950 . S
C2178 C2179 1.386 . S
C2178 C2180 1.391 . S
C2179 C2178 1.386 . S
C2179 C2183 1.393 . S
C2180 H2169 0.950 1_655 S
C2180 C2178 1.391 . S
C2180 C2181 1.400 . S
C2181 C2175 1.491 1_655 S
C2181 C2180 1.400 . S
C2181 C2182 1.398 . S
C2182 H2170 0.950 . S
C2182 C2181 1.398 . S
C2182 C2183 1.391 . S
C2183 H2171 0.950 . S
C2183 C2179 1.393 . S
C2183 C2182 1.391 . S
H2184 C2192 0.950 . S
H2185 C2197 0.950 . S
H2186 C2194 0.950 . S
H2187 C2196 0.950 . S
H2188 C2198 0.950 . S
H2189 C2200 0.950 . S
H2190 C2202 0.950 . S
H2191 C2203 0.950 . S
C2192 H2184 0.950 . S
C2192 C2193 1.386 . S
C2192 C2194 1.391 . S
C2193 C2192 1.386 . S
C2193 C2197 1.393 . S
C2194 H2186 0.950 . S
C2194 C2192 1.391 . S
C2194 C2195 1.400 . S
C2195 C2194 1.400 . S
C2195 C2196 1.398 . S
C2195 C2201 1.491 . S
C2196 H2187 0.950 . S
C2196 C2195 1.398 . S
C2196 C2197 1.391 . S
C2197 H2185 0.950 . S
C2197 C2193 1.393 . S
C2197 C2196 1.391 . S
C2198 H2188 0.950 . S
C2198 C2199 1.386 . S
C2198 C2200 1.391 . S
C2199 C2198 1.386 . S
C2199 C2203 1.393 . S
C2200 H2189 0.950 . S
C2200 C2198 1.391 . S
C2200 C2201 1.400 . S
C2201 C2195 1.491 . S
C2201 C2200 1.400 . S
C2201 C2202 1.398 . S
C2202 H2190 0.950 . S
C2202 C2201 1.398 . S
C2202 C2203 1.391 . S
C2203 H2191 0.950 . S
C2203 C2199 1.393 . S
C2203 C2202 1.391 . S
H2204 C2212 0.950 . S
H2205 C2217 0.950 . S
H2206 C2214 0.950 . S
H2207 C2216 0.950 . S
H2208 C2218 0.950 . S
H2209 C2220 0.950 . S
H2210 C2222 0.950 . S
H2211 C2223 0.950 . S
C2212 H2204 0.950 . S
C2212 C2213 1.386 . S
C2212 C2214 1.391 . S
C2213 C2212 1.386 . S
C2213 C2217 1.393 . S
C2214 H2206 0.950 . S
C2214 C2212 1.391 . S
C2214 C2215 1.400 . S
C2215 C2214 1.400 . S
C2215 C2216 1.398 . S
C2215 C2221 1.491 . S
C2216 H2207 0.950 . S
C2216 C2215 1.398 . S
C2216 C2217 1.391 . S
C2217 H2205 0.950 . S
C2217 C2213 1.393 . S
C2217 C2216 1.391 . S
C2218 H2208 0.950 . S
C2218 C2219 1.386 . S
C2218 C2220 1.391 . S
C2219 C2218 1.386 . S
C2219 C2223 1.393 . S
C2220 H2209 0.950 . S
C2220 C2218 1.391 . S
C2220 C2221 1.400 . S
C2221 C2215 1.491 . S
C2221 C2220 1.400 . S
C2221 C2222 1.398 . S
C2222 H2210 0.950 . S
C2222 C2221 1.398 . S
C2222 C2223 1.391 . S
C2223 H2211 0.950 . S
C2223 C2219 1.393 . S
C2223 C2222 1.391 . S
H2224 C2232 0.950 . S
H2225 C2237 0.950 . S
H2226 C2234 0.950 . S
H2227 C2236 0.950 1_455 S
H2228 C2238 0.950 . S
H2229 C2240 0.950 . S
H2230 C2242 0.950 1_655 S
H2231 C2243 0.950 . S
C2232 H2224 0.950 . S
C2232 C2233 1.386 . S
C2232 C2234 1.391 . S
C2233 C2232 1.386 . S
C2233 C2237 1.393 . S
C2234 H2226 0.950 . S
C2234 C2232 1.391 . S
C2234 C2235 1.400 . S
C2235 C2234 1.400 . S
C2235 C2236 1.398 . S
C2235 C2241 1.491 1_655 S
C2236 H2227 0.950 1_655 S
C2236 C2235 1.398 . S
C2236 C2237 1.391 . S
C2237 H2225 0.950 . S
C2237 C2233 1.393 . S
C2237 C2236 1.391 . S
C2238 H2228 0.950 . S
C2238 C2239 1.386 . S
C2238 C2240 1.391 . S
C2239 C2238 1.386 . S
C2239 C2243 1.393 . S
C2240 H2229 0.950 . S
C2240 C2238 1.391 . S
C2240 C2241 1.400 . S
C2241 C2235 1.491 1_455 S
C2241 C2240 1.400 . S
C2241 C2242 1.398 . S
C2242 H2230 0.950 1_455 S
C2242 C2241 1.398 . S
C2242 C2243 1.391 . S
C2243 H2231 0.950 . S
C2243 C2239 1.393 . S
C2243 C2242 1.391 . S
H2244 C2252 0.950 . S
H2245 C2257 0.950 . S
H2246 C2254 0.950 . S
H2247 C2256 0.950 . S
H2248 C2258 0.950 . S
H2249 C2260 0.950 . S
H2250 C2262 0.950 . S
H2251 C2263 0.950 . S
C2252 H2244 0.950 . S
C2252 C2253 1.386 . S
C2252 C2254 1.391 . S
C2253 C2252 1.386 . S
C2253 C2257 1.393 . S
C2254 H2246 0.950 . S
C2254 C2252 1.391 . S
C2254 C2255 1.400 . S
C2255 C2254 1.400 . S
C2255 C2256 1.398 . S
C2255 C2261 1.491 . S
C2256 H2247 0.950 . S
C2256 C2255 1.398 . S
C2256 C2257 1.391 . S
C2257 H2245 0.950 . S
C2257 C2253 1.393 . S
C2257 C2256 1.391 . S
C2258 H2248 0.950 . S
C2258 C2259 1.386 . S
C2258 C2260 1.391 . S
C2259 C2258 1.386 . S
C2259 C2263 1.393 . S
C2260 H2249 0.950 . S
C2260 C2258 1.391 . S
C2260 C2261 1.400 . S
C2261 C2255 1.491 . S
C2261 C2260 1.400 . S
C2261 C2262 1.398 . S
C2262 H2250 0.950 . S
C2262 C2261 1.398 . S
C2262 C2263 1.391 . S
C2263 H2251 0.950 . S
C2263 C2259 1.393 . S
C2263 C2262 1.391 . S
H2264 C2272 0.950 . S
H2265 C2277 0.950 . S
H2266 C2274 0.950 . S
H2267 C2276 0.950 . S
H2268 C2278 0.950 . S
H2269 C2280 0.950 . S
H2270 C2282 0.950 . S
H2271 C2283 0.950 . S
C2272 H2264 0.950 . S
C2272 C2273 1.386 . S
C2272 C2274 1.391 . S
C2273 C2272 1.386 . S
C2273 C2277 1.393 . S
C2274 H2266 0.950 . S
C2274 C2272 1.391 . S
C2274 C2275 1.400 . S
C2275 C2274 1.400 . S
C2275 C2276 1.398 . S
C2275 C2281 1.491 . S
C2276 H2267 0.950 . S
C2276 C2275 1.398 . S
C2276 C2277 1.391 . S
C2277 H2265 0.950 . S
C2277 C2273 1.393 . S
C2277 C2276 1.391 . S
C2278 H2268 0.950 . S
C2278 C2279 1.386 . S
C2278 C2280 1.391 . S
C2279 C2278 1.386 . S
C2279 C2283 1.393 . S
C2280 H2269 0.950 . S
C2280 C2278 1.391 . S
C2280 C2281 1.400 . S
C2281 C2275 1.491 . S
C2281 C2280 1.400 . S
C2281 C2282 1.398 . S
C2282 H2270 0.950 . S
C2282 C2281 1.398 . S
C2282 C2283 1.391 . S
C2283 H2271 0.950 . S
C2283 C2279 1.393 . S
C2283 C2282 1.391 . S
H2284 C2292 0.950 . S
H2285 C2297 0.950 . S
H2286 C2294 0.950 . S
H2287 C2296 0.991 . S
H2288 C2298 0.950 . S
H2289 C2300 0.950 . S
H2290 C2302 0.991 . S
H2291 C2303 0.950 . S
C2292 H2284 0.950 . S
C2292 C2293 1.386 . S
C2292 C2294 1.391 . S
C2293 C2292 1.386 . S
C2293 C2297 1.393 . S
C2294 H2286 0.950 . S
C2294 C2292 1.391 . S
C2294 C2295 1.400 . S
C2295 C2294 1.400 . S
C2295 C2296 1.384 1_655 S
C2295 C2301 1.491 1_655 S
C2296 H2287 0.991 . S
C2296 C2295 1.384 1_455 S
C2296 C2297 1.366 1_455 S
C2297 H2285 0.950 . S
C2297 C2293 1.393 . S
C2297 C2296 1.366 1_655 S
C2298 H2288 0.950 . S
C2298 C2299 1.386 . S
C2298 C2300 1.391 . S
C2299 C2298 1.386 . S
C2299 C2303 1.393 . S
C2300 H2289 0.950 . S
C2300 C2298 1.391 . S
C2300 C2301 1.400 . S
C2301 C2295 1.491 1_455 S
C2301 C2300 1.400 . S
C2301 C2302 1.384 1_455 S
C2302 H2290 0.991 . S
C2302 C2301 1.384 1_655 S
C2302 C2303 1.366 1_655 S
C2303 H2291 0.950 . S
C2303 C2299 1.393 . S
C2303 C2302 1.366 1_455 S
H2304 C2312 0.950 . S
H2305 C2317 0.950 . S
H2306 C2314 0.950 . S
H2307 C2316 0.950 . S
H2308 C2318 0.950 . S
H2309 C2320 0.950 . S
H2310 C2322 0.950 . S
H2311 C2323 0.950 . S
C2312 H2304 0.950 . S
C2312 C2313 1.386 . S
C2312 C2314 1.391 . S
C2313 C2312 1.386 . S
C2313 C2317 1.393 . S
C2314 H2306 0.950 . S
C2314 C2312 1.391 . S
C2314 C2315 1.400 . S
C2315 C2314 1.400 . S
C2315 C2316 1.398 . S
C2315 C2321 1.491 . S
C2316 H2307 0.950 . S
C2316 C2315 1.398 . S
C2316 C2317 1.391 . S
C2317 H2305 0.950 . S
C2317 C2313 1.393 . S
C2317 C2316 1.391 . S
C2318 H2308 0.950 . S
C2318 C2319 1.386 . S
C2318 C2320 1.391 . S
C2319 C2318 1.386 . S
C2319 C2323 1.393 . S
C2320 H2309 0.950 . S
C2320 C2318 1.391 . S
C2320 C2321 1.400 . S
C2321 C2315 1.491 . S
C2321 C2320 1.400 . S
C2321 C2322 1.398 . S
C2322 H2310 0.950 . S
C2322 C2321 1.398 . S
C2322 C2323 1.391 . S
C2323 H2311 0.950 . S
C2323 C2319 1.393 . S
C2323 C2322 1.391 . S
H2324 C2332 0.950 . S
H2325 C2337 0.950 . S
H2326 C2334 0.950 . S
H2327 C2336 0.950 . S
H2328 C2338 0.950 . S
H2329 C2340 0.950 . S
H2330 C2342 0.950 . S
H2331 C2343 0.950 . S
C2332 H2324 0.950 . S
C2332 C2333 1.386 . S
C2332 C2334 1.391 . S
C2333 C2332 1.386 . S
C2333 C2337 1.393 . S
C2334 H2326 0.950 . S
C2334 C2332 1.391 . S
C2334 C2335 1.400 . S
C2335 C2334 1.400 . S
C2335 C2336 1.398 . S
C2335 C2341 1.491 . S
C2336 H2327 0.950 . S
C2336 C2335 1.398 . S
C2336 C2337 1.391 . S
C2337 H2325 0.950 . S
C2337 C2333 1.393 . S
C2337 C2336 1.391 . S
C2338 H2328 0.950 . S
C2338 C2339 1.386 . S
C2338 C2340 1.391 . S
C2339 C2338 1.386 . S
C2339 C2343 1.393 . S
C2340 H2329 0.950 . S
C2340 C2338 1.391 . S
C2340 C2341 1.400 . S
C2341 C2335 1.491 . S
C2341 C2340 1.400 . S
C2341 C2342 1.398 . S
C2342 H2330 0.950 . S
C2342 C2341 1.398 . S
C2342 C2343 1.391 . S
C2343 H2331 0.950 . S
C2343 C2339 1.393 . S
C2343 C2342 1.391 . S
H2344 C2352 0.950 . S
H2345 C2357 0.950 . S
H2346 C2354 0.950 . S
H2347 C2356 0.950 . S
H2348 C2358 0.950 . S
H2349 C2360 0.950 . S
H2350 C2362 0.950 . S
H2351 C2363 0.950 . S
C2352 H2344 0.950 . S
C2352 C2353 1.386 . S
C2352 C2354 1.391 . S
C2353 C2352 1.386 . S
C2353 C2357 1.393 . S
C2354 H2346 0.950 . S
C2354 C2352 1.391 . S
C2354 C2355 1.400 . S
C2355 C2354 1.400 . S
C2355 C2356 1.398 . S
C2355 C2361 1.491 . S
C2356 H2347 0.950 . S
C2356 C2355 1.398 . S
C2356 C2357 1.391 . S
C2357 H2345 0.950 . S
C2357 C2353 1.393 . S
C2357 C2356 1.391 . S
C2358 H2348 0.950 . S
C2358 C2359 1.386 . S
C2358 C2360 1.391 . S
C2359 C2358 1.386 . S
C2359 C2363 1.393 . S
C2360 H2349 0.950 . S
C2360 C2358 1.391 . S
C2360 C2361 1.400 . S
C2361 C2355 1.491 . S
C2361 C2360 1.400 . S
C2361 C2362 1.398 . S
C2362 H2350 0.950 . S
C2362 C2361 1.398 . S
C2362 C2363 1.391 . S
C2363 H2351 0.950 . S
C2363 C2359 1.393 . S
C2363 C2362 1.391 . S
H2364 C2372 0.950 . S
H2365 C2377 0.950 . S
H2366 C2374 0.950 . S
H2367 C2376 0.950 . S
H2368 C2378 0.950 . S
H2369 C2380 0.950 . S
H2370 C2382 0.950 . S
H2371 C2383 0.950 . S
C2372 H2364 0.950 . S
C2372 C2373 1.386 . S
C2372 C2374 1.391 . S
C2373 C2372 1.386 . S
C2373 C2377 1.393 . S
C2374 H2366 0.950 . S
C2374 C2372 1.391 . S
C2374 C2375 1.400 . S
C2375 C2374 1.400 . S
C2375 C2376 1.398 . S
C2375 C2381 1.491 . S
C2376 H2367 0.950 . S
C2376 C2375 1.398 . S
C2376 C2377 1.391 . S
C2377 H2365 0.950 . S
C2377 C2373 1.393 . S
C2377 C2376 1.391 . S
C2378 H2368 0.950 . S
C2378 C2379 1.386 . S
C2378 C2380 1.391 . S
C2379 C2378 1.386 . S
C2379 C2383 1.393 . S
C2380 H2369 0.950 . S
C2380 C2378 1.391 . S
C2380 C2381 1.400 . S
C2381 C2375 1.491 . S
C2381 C2380 1.400 . S
C2381 C2382 1.398 . S
C2382 H2370 0.950 . S
C2382 C2381 1.398 . S
C2382 C2383 1.391 . S
C2383 H2371 0.950 . S
C2383 C2379 1.393 . S
C2383 C2382 1.391 . S
H2384 C2392 0.950 . S
H2385 C2397 0.950 . S
H2386 C2394 0.950 . S
H2387 C2396 0.950 . S
H2388 C2398 0.950 . S
H2389 C2400 0.950 . S
H2390 C2402 0.950 . S
H2391 C2403 0.950 . S
C2392 H2384 0.950 . S
C2392 C2393 1.386 . S
C2392 C2394 1.391 . S
C2393 C2392 1.386 . S
C2393 C2397 1.393 . S
C2394 H2386 0.950 . S
C2394 C2392 1.391 . S
C2394 C2395 1.400 . S
C2395 C2394 1.400 . S
C2395 C2396 1.398 . S
C2395 C2401 1.491 . S
C2396 H2387 0.950 . S
C2396 C2395 1.398 . S
C2396 C2397 1.391 . S
C2397 H2385 0.950 . S
C2397 C2393 1.393 . S
C2397 C2396 1.391 . S
C2398 H2388 0.950 . S
C2398 C2399 1.386 . S
C2398 C2400 1.391 . S
C2399 C2398 1.386 . S
C2399 C2403 1.393 . S
C2400 H2389 0.950 . S
C2400 C2398 1.391 . S
C2400 C2401 1.400 . S
C2401 C2395 1.491 . S
C2401 C2400 1.400 . S
C2401 C2402 1.398 . S
C2402 H2390 0.950 . S
C2402 C2401 1.398 . S
C2402 C2403 1.391 . S
C2403 H2391 0.950 . S
C2403 C2399 1.393 . S
C2403 C2402 1.391 . S
H2404 C2412 0.950 . S
H2405 C2417 0.950 . S
H2406 C2414 0.950 . S
H2407 C2416 0.950 . S
H2408 C2418 0.950 . S
H2409 C2420 0.950 . S
H2410 C2422 0.950 . S
H2411 C2423 0.950 . S
C2412 H2404 0.950 . S
C2412 C2413 1.386 . S
C2412 C2414 1.391 . S
C2413 C2412 1.386 . S
C2413 C2417 1.393 . S
C2414 H2406 0.950 . S
C2414 C2412 1.391 . S
C2414 C2415 1.400 . S
C2415 C2414 1.400 . S
C2415 C2416 1.398 . S
C2415 C2421 1.491 . S
C2416 H2407 0.950 . S
C2416 C2415 1.398 . S
C2416 C2417 1.391 . S
C2417 H2405 0.950 . S
C2417 C2413 1.393 . S
C2417 C2416 1.391 . S
C2418 H2408 0.950 . S
C2418 C2419 1.386 . S
C2418 C2420 1.391 . S
C2419 C2418 1.386 . S
C2419 C2423 1.393 . S
C2420 H2409 0.950 . S
C2420 C2418 1.391 . S
C2420 C2421 1.400 . S
C2421 C2415 1.491 . S
C2421 C2420 1.400 . S
C2421 C2422 1.398 . S
C2422 H2410 0.950 . S
C2422 C2421 1.398 . S
C2422 C2423 1.391 . S
C2423 H2411 0.950 . S
C2423 C2419 1.393 . S
C2423 C2422 1.391 . S
H2424 C2432 0.950 . S
H2425 C2437 0.950 . S
H2426 C2434 0.950 . S
H2427 C2436 0.950 . S
H2428 C2438 0.950 . S
H2429 C2440 0.950 . S
H2430 C2442 0.950 . S
H2431 C2443 0.950 . S
C2432 H2424 0.950 . S
C2432 C2433 1.386 . S
C2432 C2434 1.391 . S
C2433 C2432 1.386 . S
C2433 C2437 1.393 . S
C2434 H2426 0.950 . S
C2434 C2432 1.391 . S
C2434 C2435 1.400 . S
C2435 C2434 1.400 . S
C2435 C2436 1.398 . S
C2435 C2441 1.491 . S
C2436 H2427 0.950 . S
C2436 C2435 1.398 . S
C2436 C2437 1.391 . S
C2437 H2425 0.950 . S
C2437 C2433 1.393 . S
C2437 C2436 1.391 . S
C2438 H2428 0.950 . S
C2438 C2439 1.386 . S
C2438 C2440 1.391 . S
C2439 C2438 1.386 . S
C2439 C2443 1.393 . S
C2440 H2429 0.950 . S
C2440 C2438 1.391 . S
C2440 C2441 1.400 . S
C2441 C2435 1.491 . S
C2441 C2440 1.400 . S
C2441 C2442 1.398 . S
C2442 H2430 0.950 . S
C2442 C2441 1.398 . S
C2442 C2443 1.391 . S
C2443 H2431 0.950 . S
C2443 C2439 1.393 . S
C2443 C2442 1.391 . S
H2444 C2452 0.950 . S
H2445 C2457 0.950 . S
H2446 C2454 0.950 . S
H2447 C2456 0.950 . S
H2448 C2458 0.950 . S
H2449 C2460 0.950 . S
H2450 C2462 0.950 . S
H2451 C2463 0.950 . S
C2452 H2444 0.950 . S
C2452 C2453 1.386 . S
C2452 C2454 1.391 . S
C2453 C2452 1.386 . S
C2453 C2457 1.393 . S
C2454 H2446 0.950 . S
C2454 C2452 1.391 . S
C2454 C2455 1.400 . S
C2455 C2454 1.400 . S
C2455 C2456 1.398 . S
C2455 C2461 1.491 . S
C2456 H2447 0.950 . S
C2456 C2455 1.398 . S
C2456 C2457 1.391 . S
C2457 H2445 0.950 . S
C2457 C2453 1.393 . S
C2457 C2456 1.391 . S
C2458 H2448 0.950 . S
C2458 C2459 1.386 . S
C2458 C2460 1.391 . S
C2459 C2458 1.386 . S
C2459 C2463 1.393 . S
C2460 H2449 0.950 . S
C2460 C2458 1.391 . S
C2460 C2461 1.400 . S
C2461 C2455 1.491 . S
C2461 C2460 1.400 . S
C2461 C2462 1.398 . S
C2462 H2450 0.950 . S
C2462 C2461 1.398 . S
C2462 C2463 1.391 . S
C2463 H2451 0.950 . S
C2463 C2459 1.393 . S
C2463 C2462 1.391 . S
H2464 C2472 0.950 . S
H2465 C2477 0.950 . S
H2466 C2474 0.950 . S
H2467 C2476 0.950 . S
H2468 C2478 0.950 . S
H2469 C2480 0.950 . S
H2470 C2482 0.950 . S
H2471 C2483 0.950 . S
C2472 H2464 0.950 . S
C2472 C2473 1.386 . S
C2472 C2474 1.391 . S
C2473 C2472 1.386 . S
C2473 C2477 1.393 . S
C2474 H2466 0.950 . S
C2474 C2472 1.391 . S
C2474 C2475 1.400 . S
C2475 C2474 1.400 . S
C2475 C2476 1.398 . S
C2475 C2481 1.491 . S
C2476 H2467 0.950 . S
C2476 C2475 1.398 . S
C2476 C2477 1.391 . S
C2477 H2465 0.950 . S
C2477 C2473 1.393 . S
C2477 C2476 1.391 . S
C2478 H2468 0.950 . S
C2478 C2479 1.386 . S
C2478 C2480 1.391 . S
C2479 C2478 1.386 . S
C2479 C2483 1.393 . S
C2480 H2469 0.950 . S
C2480 C2478 1.391 . S
C2480 C2481 1.400 . S
C2481 C2475 1.491 . S
C2481 C2480 1.400 . S
C2481 C2482 1.398 . S
C2482 H2470 0.950 . S
C2482 C2481 1.398 . S
C2482 C2483 1.391 . S
C2483 H2471 0.950 . S
C2483 C2479 1.393 . S
C2483 C2482 1.391 . S
H2484 C2492 0.950 . S
H2485 C2497 0.950 . S
H2486 C2494 0.950 . S
H2487 C2496 0.950 . S
H2488 C2498 0.950 . S
H2489 C2500 0.950 . S
H2490 C2502 0.950 . S
H2491 C2503 0.950 . S
C2492 H2484 0.950 . S
C2492 C2493 1.386 . S
C2492 C2494 1.391 . S
C2493 C2492 1.386 . S
C2493 C2497 1.393 . S
C2494 H2486 0.950 . S
C2494 C2492 1.391 . S
C2494 C2495 1.400 . S
C2495 C2494 1.400 . S
C2495 C2496 1.398 . S
C2495 C2501 1.491 . S
C2496 H2487 0.950 . S
C2496 C2495 1.398 . S
C2496 C2497 1.391 . S
C2497 H2485 0.950 . S
C2497 C2493 1.393 . S
C2497 C2496 1.391 . S
C2498 H2488 0.950 . S
C2498 C2499 1.386 . S
C2498 C2500 1.391 . S
C2499 C2498 1.386 . S
C2499 C2503 1.393 . S
C2500 H2489 0.950 . S
C2500 C2498 1.391 . S
C2500 C2501 1.400 . S
C2501 C2495 1.491 . S
C2501 C2500 1.400 . S
C2501 C2502 1.398 . S
C2502 H2490 0.950 . S
C2502 C2501 1.398 . S
C2502 C2503 1.391 . S
C2503 H2491 0.950 . S
C2503 C2499 1.393 . S
C2503 C2502 1.391 . S
H2504 C2512 0.950 . S
H2505 C2517 0.950 . S
H2506 C2514 0.950 . S
H2507 C2516 0.950 . S
H2508 C2518 0.950 . S
H2509 C2520 0.950 . S
H2510 C2522 0.950 . S
H2511 C2523 0.950 . S
C2512 H2504 0.950 . S
C2512 C2513 1.386 . S
C2512 C2514 1.391 . S
C2513 C2512 1.386 . S
C2513 C2517 1.393 . S
C2514 H2506 0.950 . S
C2514 C2512 1.391 . S
C2514 C2515 1.400 . S
C2515 C2514 1.400 . S
C2515 C2516 1.398 . S
C2515 C2521 1.491 . S
C2516 H2507 0.950 . S
C2516 C2515 1.398 . S
C2516 C2517 1.391 . S
C2517 H2505 0.950 . S
C2517 C2513 1.393 . S
C2517 C2516 1.391 . S
C2518 H2508 0.950 . S
C2518 C2519 1.386 . S
C2518 C2520 1.391 . S
C2519 C2518 1.386 . S
C2519 C2523 1.393 . S
C2520 H2509 0.950 . S
C2520 C2518 1.391 . S
C2520 C2521 1.400 . S
C2521 C2515 1.491 . S
C2521 C2520 1.400 . S
C2521 C2522 1.398 . S
C2522 H2510 0.950 . S
C2522 C2521 1.398 . S
C2522 C2523 1.391 . S
C2523 H2511 0.950 . S
C2523 C2519 1.393 . S
C2523 C2522 1.391 . S
H2524 C2532 0.950 . S
H2525 C2537 0.950 . S
H2526 C2534 0.950 . S
H2527 C2536 0.950 . S
H2528 C2538 0.950 . S
H2529 C2540 0.950 . S
H2530 C2542 0.950 . S
H2531 C2543 0.950 . S
C2532 H2524 0.950 . S
C2532 C2533 1.386 . S
C2532 C2534 1.391 . S
C2533 C2532 1.386 . S
C2533 C2537 1.393 . S
C2534 H2526 0.950 . S
C2534 C2532 1.391 . S
C2534 C2535 1.400 . S
C2535 C2534 1.400 . S
C2535 C2536 1.398 . S
C2535 C2541 1.491 . S
C2536 H2527 0.950 . S
C2536 C2535 1.398 . S
C2536 C2537 1.391 . S
C2537 H2525 0.950 . S
C2537 C2533 1.393 . S
C2537 C2536 1.391 . S
C2538 H2528 0.950 . S
C2538 C2539 1.386 . S
C2538 C2540 1.391 . S
C2539 C2538 1.386 . S
C2539 C2543 1.393 . S
C2540 H2529 0.950 . S
C2540 C2538 1.391 . S
C2540 C2541 1.400 . S
C2541 C2535 1.491 . S
C2541 C2540 1.400 . S
C2541 C2542 1.398 . S
C2542 H2530 0.950 . S
C2542 C2541 1.398 . S
C2542 C2543 1.391 . S
C2543 H2531 0.950 . S
C2543 C2539 1.393 . S
C2543 C2542 1.391 . S
H2544 C2552 0.950 . S
H2545 C2557 0.950 . S
H2546 C2554 0.950 . S
H2547 C2556 0.950 . S
H2548 C2558 0.950 . S
H2549 C2560 0.950 . S
H2550 C2562 0.950 . S
H2551 C2563 0.950 . S
C2552 H2544 0.950 . S
C2552 C2553 1.386 . S
C2552 C2554 1.391 . S
C2553 C2552 1.386 . S
C2553 C2557 1.393 . S
C2554 H2546 0.950 . S
C2554 C2552 1.391 . S
C2554 C2555 1.400 . S
C2555 C2554 1.400 . S
C2555 C2556 1.398 . S
C2555 C2561 1.491 . S
C2556 H2547 0.950 . S
C2556 C2555 1.398 . S
C2556 C2557 1.391 . S
C2557 H2545 0.950 . S
C2557 C2553 1.393 . S
C2557 C2556 1.391 . S
C2558 H2548 0.950 . S
C2558 C2559 1.386 . S
C2558 C2560 1.391 . S
C2559 C2558 1.386 . S
C2559 C2563 1.393 . S
C2560 H2549 0.950 . S
C2560 C2558 1.391 . S
C2560 C2561 1.400 . S
C2561 C2555 1.491 . S
C2561 C2560 1.400 . S
C2561 C2562 1.398 . S
C2562 H2550 0.950 . S
C2562 C2561 1.398 . S
C2562 C2563 1.391 . S
C2563 H2551 0.950 . S
C2563 C2559 1.393 . S
C2563 C2562 1.391 . S
H2564 C2572 0.950 . S
H2565 C2577 0.950 . S
H2566 C2574 0.950 . S
H2567 C2576 0.950 . S
H2568 C2578 0.950 . S
H2569 C2580 0.950 . S
H2570 C2582 0.950 . S
H2571 C2583 0.950 . S
C2572 H2564 0.950 . S
C2572 C2573 1.386 . S
C2572 C2574 1.391 . S
C2573 C2572 1.386 . S
C2573 C2577 1.393 . S
C2574 H2566 0.950 . S
C2574 C2572 1.391 . S
C2574 C2575 1.400 . S
C2575 C2574 1.400 . S
C2575 C2576 1.398 . S
C2575 C2581 1.491 . S
C2576 H2567 0.950 . S
C2576 C2575 1.398 . S
C2576 C2577 1.391 . S
C2577 H2565 0.950 . S
C2577 C2573 1.393 . S
C2577 C2576 1.391 . S
C2578 H2568 0.950 . S
C2578 C2579 1.386 . S
C2578 C2580 1.391 . S
C2579 C2578 1.386 . S
C2579 C2583 1.393 . S
C2580 H2569 0.950 . S
C2580 C2578 1.391 . S
C2580 C2581 1.400 . S
C2581 C2575 1.491 . S
C2581 C2580 1.400 . S
C2581 C2582 1.398 . S
C2582 H2570 0.950 . S
C2582 C2581 1.398 . S
C2582 C2583 1.391 . S
C2583 H2571 0.950 . S
C2583 C2579 1.393 . S
C2583 C2582 1.391 . S
H2584 C2592 0.950 . S
H2585 C2597 0.950 . S
H2586 C2594 0.950 . S
H2587 C2596 0.950 . S
H2588 C2598 0.950 . S
H2589 C2600 0.950 . S
H2590 C2602 0.950 . S
H2591 C2603 0.950 . S
C2592 H2584 0.950 . S
C2592 C2593 1.386 . S
C2592 C2594 1.391 . S
C2593 C2592 1.386 . S
C2593 C2597 1.393 . S
C2594 H2586 0.950 . S
C2594 C2592 1.391 . S
C2594 C2595 1.400 . S
C2595 C2594 1.400 . S
C2595 C2596 1.398 . S
C2595 C2601 1.491 . S
C2596 H2587 0.950 . S
C2596 C2595 1.398 . S
C2596 C2597 1.391 . S
C2597 H2585 0.950 . S
C2597 C2593 1.393 . S
C2597 C2596 1.391 . S
C2598 H2588 0.950 . S
C2598 C2599 1.386 . S
C2598 C2600 1.391 . S
C2599 C2598 1.386 . S
C2599 C2603 1.393 . S
C2600 H2589 0.950 . S
C2600 C2598 1.391 . S
C2600 C2601 1.400 . S
C2601 C2595 1.491 . S
C2601 C2600 1.400 . S
C2601 C2602 1.398 . S
C2602 H2590 0.950 . S
C2602 C2601 1.398 . S
C2602 C2603 1.391 . S
C2603 H2591 0.950 . S
C2603 C2599 1.393 . S
C2603 C2602 1.391 . S
H2604 C2612 0.950 . S
H2605 C2617 0.950 . S
H2606 C2614 0.950 . S
H2607 C2616 0.950 . S
H2608 C2618 0.950 . S
H2609 C2620 0.950 . S
H2610 C2622 0.950 . S
H2611 C2623 0.950 . S
C2612 H2604 0.950 . S
C2612 C2613 1.386 . S
C2612 C2614 1.391 . S
C2613 C2612 1.386 . S
C2613 C2617 1.393 . S
C2614 H2606 0.950 . S
C2614 C2612 1.391 . S
C2614 C2615 1.400 . S
C2615 C2614 1.400 . S
C2615 C2616 1.398 . S
C2615 C2621 1.491 . S
C2616 H2607 0.950 . S
C2616 C2615 1.398 . S
C2616 C2617 1.391 . S
C2617 H2605 0.950 . S
C2617 C2613 1.393 . S
C2617 C2616 1.391 . S
C2618 H2608 0.950 . S
C2618 C2619 1.386 . S
C2618 C2620 1.391 . S
C2619 C2618 1.386 . S
C2619 C2623 1.393 . S
C2620 H2609 0.950 . S
C2620 C2618 1.391 . S
C2620 C2621 1.400 . S
C2621 C2615 1.491 . S
C2621 C2620 1.400 . S
C2621 C2622 1.398 . S
C2622 H2610 0.950 . S
C2622 C2621 1.398 . S
C2622 C2623 1.391 . S
C2623 H2611 0.950 . S
C2623 C2619 1.393 . S
C2623 C2622 1.391 . S
C713 C9 1.989 . S
C719 C97 1.988 . S
C733 C119 1.998 . S
C739 C27 1.983 . S
C753 C141 1.989 . S
C759 C49 2.001 . S
C773 C71 1.983 . S
C779 C163 2.000 . S
C793 C183 1.984 . S
C799 C271 1.995 . S
C813 C205 1.996 . S
C819 C292 1.996 . S
C833 C227 2.000 . S
C839 C314 1.983 . S
C853 C336 1.983 . S
C859 C249 2.000 . S
C873 C361 1.984 . S
C879 C449 1.995 . S
C893 C471 2.001 . S
C899 C379 1.984 . S
C913 C401 1.992 . S
C919 C493 1.999 . S
C933 C515 1.998 . S
C939 C423 1.983 . S
C953 C535 1.996 . S
C959 C623 1.996 . S
C973 C557 1.984 . S
C979 C644 1.995 . S
C993 C579 2.001 . S
C999 C666 1.986 . S
C1013 C601 2.001 . S
C1019 C688 1.987 . S
C1033 C537 1.536 . S
C1039 C7 1.536 . S
C1053 C207 1.544 . S
C1059 C28 1.544 . S
C1073 C50 1.545 . S
C1079 C581 1.545 . S
C1093 C72 1.519 . S
C1099 C251 1.519 . S
C1113 C95 1.541 . S
C1119 C625 1.541 . S
C1133 C117 1.524 . S
C1139 C291 1.524 . S
C1153 C665 1.544 . S
C1159 C139 1.544 . S
C1173 C335 1.519 . S
C1179 C161 1.519 . S
C1193 C359 1.543 . S
C1199 C185 1.543 . S
C1213 C229 1.512 . S
C1219 C402 1.512 . S
C1233 C273 1.512 . S
C1239 C447 1.512 . S
C1253 C491 1.525 . S
C1259 C313 1.525 . S
C1273 C380 1.541 . S
C1279 C559 1.541 . S
C1293 C603 1.524 . S
C1299 C424 1.524 . S
C1313 C643 1.513 . S
C1319 C469 1.513 . S
C1333 C513 1.508 . S
C1339 C687 1.508 . S
C1353 C5 0.990 . S
C1359 C599 0.993 . S
C1373 C31 0.989 . S
C1379 C181 0.991 . S
C1393 C53 0.992 . S
C1399 C555 0.993 . S
C1413 C225 0.994 . S
C1419 C75 0.991 . S
C1433 C647 0.993 . S
C1439 C93 0.989 . S
C1453 C115 0.992 . S
C1459 C317 0.991 . S
C1473 C691 0.990 . S
C1479 C137 0.993 . S
C1493 C269 0.989 . S
C1499 C159 0.990 . S
C1513 C425 0.989 . S
C1519 C182 0.990 . S
C1533 C204 0.991 . S
C1539 C6 0.994 . S
C1553 C381 0.991 . S
C1559 C226 0.992 . S
C1573 C51 0.989 . S
C1579 C248 0.990 . S
C1593 C468 0.992 . S
C1599 C270 0.992 . S
C1613 C293 0.991 . S
C1619 C138 0.988 . S
C1633 C315 0.990 . S
C1639 C512 0.994 . S
C1653 C94 0.991 . S
C1659 C337 0.989 . S
C1673 C357 0.990 . S
C1679 C247 0.994 . S
C1693 C383 0.993 . S
C1699 C533 0.989 . S
C1713 C203 0.988 . S
C1719 C405 0.992 . S
C1733 C427 0.993 . S
C1739 C577 0.989 . S
C1753 C295 0.993 . S
C1759 C445 0.992 . S
C1773 C467 0.993 . S
C1779 C669 0.991 . S
C1793 C339 0.989 . S
C1799 C489 0.993 . S
C1813 C511 0.992 . S
C1819 C621 0.992 . S
C1833 C73 0.988 . S
C1839 C534 0.992 . S
C1853 C556 0.991 . S
C1859 C358 0.989 . S
C1873 C578 0.991 . S
C1879 C29 0.994 . S
C1893 C403 0.988 . S
C1899 C600 0.992 . S
C1913 C116 0.990 . S
C1919 C622 0.990 . S
C1933 C490 0.994 . S
C1939 C645 0.990 . S
C1953 C667 0.992 . S
C1959 C160 0.992 . S
C1973 C446 0.992 . S
C1979 C689 0.989 . S
C1993 C4 0.511 . S
C1999 C404 0.495 . S
C2013 C30 0.517 . S
C2019 C426 0.492 . S
C2033 C52 0.497 . S
C2039 C356 0.523 . S
C2053 C74 0.492 . S
C2059 C382 0.519 . S
C2073 C488 0.500 . S
C2079 C92 0.523 . S
C2093 C510 0.503 . S
C2099 C114 0.522 . S
C2113 C136 0.513 . S
C2119 C444 0.494 . S
C2133 C466 0.499 . S
C2139 C158 0.523 . S
C2153 C576 0.520 . S
C2159 C180 0.507 . S
C2173 C598 0.516 . S
C2179 C202 0.493 . S
C2193 C532 0.523 . S
C2199 C224 0.494 . S
C2213 C246 0.494 . S
C2219 C554 0.522 . S
C2233 C268 0.523 . S
C2239 C668 0.500 . S
C2253 C690 0.523 . S
C2259 C294 0.500 . S
C2273 C620 0.494 . S
C2279 C316 0.513 . S
C2293 C338 0.493 . S
C2299 C646 0.522 . S
C2313 C162 1.764 . S
C2319 C8 1.751 . S
C2333 C26 1.759 . S
C2339 C96 1.747 . S
C2353 C48 1.762 . S
C2359 C118 1.748 . S
C2373 C140 1.758 . S
C2379 C70 1.747 . S
C2393 C334 1.764 . S
C2399 C184 1.750 . S
C2413 C206 1.747 . S
C2419 C272 1.761 . S
C2433 C290 1.760 . S
C2439 C228 1.747 . S
C2453 C312 1.751 . S
C2459 C250 1.749 . S
C2473 C514 1.747 . S
C2479 C360 1.758 . S
C2493 C448 1.763 . S
C2499 C378 1.750 . S
C2513 C470 1.750 . S
C2519 C400 1.764 . S
C2533 C422 1.748 . S
C2539 C492 1.752 . S
C2553 C686 1.764 . S
C2559 C536 1.754 . S
C2573 C624 1.757 . S
C2579 C558 1.747 . S
C2593 C642 1.747 . S
C2599 C580 1.756 . S
C2613 C602 1.748 . S
C2619 C664 1.762 . S
