# Generated by pormake.
# Topology noy, (5)-cn, num edge types: 1
# Building blocks:
#     Node 0, Type 0, BuildingBlock: BEQFEK_clean_sbu_0, # of connection points: 5
#     Node 1, Type 0, BuildingBlock: BEQFEK_clean_sbu_0, # of connection points: 5
#     Node 2, Type 0, BuildingBlock: BEQFEK_clean_sbu_0, # of connection points: 5
#     Node 3, Type 0, BuildingBlock: BEQFEK_clean_sbu_0, # of connection points: 5
#     Node 4, Type 0, BuildingBlock: BEQFEK_clean_sbu_0, # of connection points: 5
#     Node 5, Type 0, BuildingBlock: BEQFEK_clean_sbu_0, # of connection points: 5
#     Node 6, Type 0, BuildingBlock: BEQFEK_clean_sbu_0, # of connection points: 5
#     Node 7, Type 0, BuildingBlock: BEQFEK_clean_sbu_0, # of connection points: 5
#     Edge 8, Type (0, 0), BuildingBlock: CIFDUS_clean_linker_0, # of connection points: 2
#     Edge 9, Type (0, 0), BuildingBlock: CIFDUS_clean_linker_0, # of connection points: 2
#     Edge 10, Type (0, 0), BuildingBlock: CIFDUS_clean_linker_0, # of connection points: 2
#     Edge 11, Type (0, 0), BuildingBlock: CIFDUS_clean_linker_0, # of connection points: 2
#     Edge 12, Type (0, 0), BuildingBlock: CIFDUS_clean_linker_0, # of connection points: 2
#     Edge 13, Type (0, 0), BuildingBlock: CIFDUS_clean_linker_0, # of connection points: 2
#     Edge 14, Type (0, 0), BuildingBlock: CIFDUS_clean_linker_0, # of connection points: 2
#     Edge 15, Type (0, 0), BuildingBlock: CIFDUS_clean_linker_0, # of connection points: 2
#     Edge 16, Type (0, 0), BuildingBlock: CIFDUS_clean_linker_0, # of connection points: 2
#     Edge 17, Type (0, 0), BuildingBlock: CIFDUS_clean_linker_0, # of connection points: 2
#     Edge 18, Type (0, 0), BuildingBlock: CIFDUS_clean_linker_0, # of connection points: 2
#     Edge 19, Type (0, 0), BuildingBlock: CIFDUS_clean_linker_0, # of connection points: 2
#     Edge 20, Type (0, 0), BuildingBlock: CIFDUS_clean_linker_0, # of connection points: 2
#     Edge 21, Type (0, 0), BuildingBlock: CIFDUS_clean_linker_0, # of connection points: 2
#     Edge 22, Type (0, 0), BuildingBlock: CIFDUS_clean_linker_0, # of connection points: 2
#     Edge 23, Type (0, 0), BuildingBlock: CIFDUS_clean_linker_0, # of connection points: 2
#     Edge 24, Type (0, 0), BuildingBlock: CIFDUS_clean_linker_0, # of connection points: 2
#     Edge 25, Type (0, 0), BuildingBlock: CIFDUS_clean_linker_0, # of connection points: 2
#     Edge 26, Type (0, 0), BuildingBlock: CIFDUS_clean_linker_0, # of connection points: 2
#     Edge 27, Type (0, 0), BuildingBlock: CIFDUS_clean_linker_0, # of connection points: 2
# Relax obj value: 0.060
# Max RMSD: 0.089
# Mean RMSD: 0.089
data_MOF--net-noy--node1-BEQFEK_clean_sbu_0--edge1-CIFDUS_clean_linker_0
_symmetry_space_group_name_H-M    P1
_symmetry_Int_Tables_number       1
_symmetry_cell_setting            triclinic
loop_
_symmetry_equiv_pos_as_xyz
'x, y, z'
_cell_length_a     39.837719
_cell_length_b     41.729935
_cell_length_c     21.425108
_cell_angle_alpha  90.121517
_cell_angle_beta   89.455432
_cell_angle_gamma 90.06292
loop_
_atom_site_label
_atom_site_type_symbol
_atom_site_fract_x
_atom_site_fract_y
_atom_site_fract_z
_atom_type_partial_charge
Co0 Co 0.34558 0.41752 0.25777 0.0
Co1 Co 0.34751 0.36526 0.15197 0.0
C2 C 0.32998 0.43413 0.12506 0.0
O3 O 0.33343 0.44261 0.18188 0.0
O4 O 0.33414 0.40508 0.1083 0.0
C5 C 0.3236 0.46993 0.33888 0.0
O6 O 0.30674 0.4803 0.29057 0.0
C7 C 0.31959 0.32221 0.0561 0.0
C8 C 0.36311 0.29102 0.03549 0.0
C9 C 0.33027 0.29699 0.01844 0.0
N10 N 0.34498 0.33062 0.09374 0.0
N11 N 0.37085 0.31178 0.0813 0.0
C12 C 0.28684 0.33965 0.05318 0.0
H13 H 0.28825 0.36282 0.07844 0.0
H14 H 0.26687 0.32493 0.07536 0.0
H15 H 0.27979 0.34371 1.00382 0.0
C16 C 0.30166 0.36903 0.31703 0.0
N17 N 0.31923 0.37991 0.26741 0.0
N18 N 0.32047 0.3574 0.22429 0.0
C19 C 0.30379 0.33133 0.24551 0.0
C20 C 0.2913 0.3379 0.30496 0.0
C21 C 0.29607 0.38777 0.37584 0.0
H22 H 0.28574 0.41166 0.36417 0.0
H23 H 0.2784 0.37544 0.40815 0.0
H24 H 0.32046 0.39141 0.39945 0.0
O25 O 0.39362 0.40538 0.25267 0.0
O26 O 0.3954 0.36967 0.17557 0.0
H27 H 0.32836 0.29425 0.19291 0.0
H28 H 0.29551 0.28004 0.24485 0.0
C29 C 0.30319 0.29963 0.21279 0.0
H30 H 0.28508 0.30071 0.17393 0.0
H31 H 0.39403 0.31346 0.10334 0.0
O32 O 0.34104 0.44456 0.33373 0.0
C33 C 0.40994 0.38634 0.21719 0.0
Co34 Co 0.65993 0.60838 0.77435 0.0
Co35 Co 0.66289 0.65302 0.65642 0.0
C36 C 0.67499 0.58239 0.64553 0.0
O37 O 0.67059 0.57908 0.70408 0.0
O38 O 0.67292 0.60987 0.61997 0.0
C39 C 0.68748 0.56691 0.86884 0.0
O40 O 0.71561 0.56884 0.83655 0.0
C41 C 0.69234 0.68884 0.54901 0.0
C42 C 0.66387 0.73411 0.55565 0.0
C43 C 0.69039 0.71966 0.52409 0.0
N44 N 0.66894 0.68595 0.59455 0.0
N45 N 0.6516 0.71289 0.59717 0.0
C46 C 0.71577 0.66243 0.53021 0.0
H47 H 0.70317 0.63894 0.53509 0.0
H48 H 0.73791 0.6626 0.56125 0.0
H49 H 0.72424 0.66525 0.48105 0.0
C50 C 0.70601 0.65775 0.82363 0.0
N51 N 0.6888 0.64421 0.77659 0.0
N52 N 0.69122 0.66244 0.72663 0.0
C53 C 0.71117 0.6877 0.74003 0.0
C54 C 0.72096 0.68572 0.80203 0.0
C55 C 0.70421 0.64655 0.88995 0.0
H56 H 0.67929 0.63581 0.89997 0.0
H57 H 0.72379 0.62812 0.89745 0.0
H58 H 0.70848 0.66659 0.92307 0.0
O59 O 0.61383 0.624 0.76884 0.0
O60 O 0.61426 0.65444 0.68363 0.0
H61 H 0.69917 0.72866 0.68483 0.0
H62 H 0.74198 0.72812 0.71187 0.0
C63 C 0.72109 0.71313 0.6943 0.0
H64 H 0.72946 0.7018 0.65015 0.0
H65 H 0.63231 0.71731 0.62933 0.0
O66 O 0.66188 0.5824 0.85109 0.0
C67 C 0.59894 0.64203 0.73029 0.0
Co68 Co 0.33495 0.59955 0.75886 0.0
Co69 Co 0.3446 0.65336 0.85955 0.0
C70 C 0.3298 0.58427 0.89429 0.0
O71 O 0.32849 0.57509 0.83759 0.0
O72 O 0.33573 0.61345 0.90804 0.0
C73 C 0.34207 0.54535 0.67998 0.0
O74 O 0.36302 0.53675 0.72387 0.0
C75 C 0.31776 0.69468 0.95813 0.0
C76 C 0.35711 0.73159 0.96778 0.0
C77 C 0.32583 0.72251 0.99091 0.0
N78 N 0.34296 0.688 0.91798 0.0
N79 N 0.36654 0.70998 0.9243 0.0
C80 C 0.28588 0.67568 0.96064 0.0
H81 H 0.28336 0.66067 0.91812 0.0
H82 H 0.26386 0.69182 0.96507 0.0
H83 H 0.2864 0.65948 1.00161 0.0
C84 C 0.2844 0.64536 0.71354 0.0
N85 N 0.3069 0.63598 0.75626 0.0
N86 N 0.3121 0.65955 0.79596 0.0
C87 C 0.29367 0.68508 0.77852 0.0
C88 C 0.27523 0.67675 0.72626 0.0
C89 C 0.27507 0.62588 0.6576 0.0
H90 H 0.29751 0.62294 0.62703 0.0
H91 H 0.26687 0.60168 0.67277 0.0
H92 H 0.25479 0.63737 0.63051 0.0
O93 O 0.38243 0.61339 0.74937 0.0
O94 O 0.3902 0.65126 0.8209 0.0
H95 H 0.3217 0.72332 0.82033 0.0
H96 H 0.285 0.73635 0.77816 0.0
C97 C 0.29534 0.71742 0.80869 0.0
H98 H 0.28035 0.7171 0.8525 0.0
H99 H 0.38881 0.71051 0.89828 0.0
O100 O 0.32597 0.57143 0.68625 0.0
C101 C 0.4012 0.63389 0.77613 0.0
Co102 Co 0.66845 0.41775 0.26077 0.0
Co103 Co 0.66566 0.37327 0.37823 0.0
C104 C 0.68243 0.44275 0.39033 0.0
O105 O 0.67893 0.44642 0.3318 0.0
O106 O 0.67903 0.41524 0.41541 0.0
C107 C 0.70175 0.46034 0.17591 0.0
O108 O 0.7255 0.46012 0.21805 0.0
C109 C 0.69067 0.33278 0.48082 0.0
C110 C 0.6456 0.30389 0.50311 0.0
C111 C 0.67868 0.30875 0.5198 0.0
N112 N 0.66579 0.34155 0.44244 0.0
N113 N 0.63892 0.32424 0.45621 0.0
C114 C 0.72428 0.34874 0.48284 0.0
H115 H 0.72667 0.36689 0.44525 0.0
H116 H 0.74455 0.33073 0.47769 0.0
H117 H 0.72741 0.36049 0.52894 0.0
C118 C 0.71352 0.36638 0.21454 0.0
N119 N 0.69492 0.38004 0.26019 0.0
N120 N 0.69375 0.36082 0.30888 0.0
C121 C 0.71174 0.33418 0.29535 0.0
C122 C 0.72496 0.33695 0.23537 0.0
C123 C 0.71984 0.38123 0.15195 0.0
H124 H 0.69573 0.38911 0.13162 0.0
H125 H 0.73606 0.40259 0.15787 0.0
H126 H 0.73268 0.36461 0.11919 0.0
O127 O 0.62038 0.40597 0.26416 0.0
O128 O 0.61815 0.37696 0.35099 0.0
H129 H 0.68874 0.30057 0.35833 0.0
H130 H 0.72113 0.28364 0.3088 0.0
C131 C 0.71348 0.30513 0.336 0.0
H132 H 0.73229 0.30922 0.37291 0.0
H133 H 0.61597 0.32627 0.43351 0.0
O134 O 0.67564 0.44329 0.18426 0.0
C135 C 0.60384 0.38997 0.30457 0.0
Co136 Co 0.84806 0.91803 0.25468 0.0
Co137 Co 0.85113 0.86498 0.15032 0.0
C138 C 0.83168 0.93268 0.12032 0.0
O139 O 0.83545 0.94161 0.17688 0.0
O140 O 0.83616 0.90355 0.10418 0.0
C141 C 0.81908 0.96399 0.34527 0.0
O142 O 0.79122 0.96285 0.31303 0.0
C143 C 0.82579 0.81852 0.05775 0.0
C144 C 0.86772 0.78394 0.0539 0.0
C145 C 0.8359 0.78961 0.03062 0.0
N146 N 0.85038 0.82887 0.09544 0.0
N147 N 0.8755 0.8083 0.09224 0.0
C148 C 0.79264 0.83508 0.05249 0.0
H149 H 0.78899 0.8522 0.09171 0.0
H150 H 0.77185 0.81736 0.05228 0.0
H151 H 0.79209 0.84878 1.00819 0.0
C152 C 0.80194 0.8697 0.313 0.0
N153 N 0.82194 0.88002 0.26592 0.0
N154 N 0.82412 0.8573 0.22318 0.0
C155 C 0.80595 0.83173 0.24244 0.0
C156 C 0.79102 0.83899 0.29935 0.0
C157 C 0.7951 0.8878 0.37208 0.0
H158 H 0.81853 0.89912 0.38885 0.0
H159 H 0.77638 0.90679 0.3629 0.0
H160 H 0.7849 0.87184 0.40907 0.0
O161 O 0.89645 0.90648 0.25062 0.0
O162 O 0.89878 0.87111 0.17314 0.0
H163 H 0.82825 0.79342 0.18967 0.0
H164 H 0.79322 0.78131 0.23827 0.0
C165 C 0.80326 0.80064 0.20792 0.0
H166 H 0.78595 0.8036 0.16824 0.0
H167 H 0.89764 0.81046 0.11755 0.0
O168 O 0.84424 0.94735 0.32798 0.0
C169 C 0.91307 0.88787 0.21481 0.0
Co170 Co 0.16328 0.10712 0.7583 0.0
Co171 Co 0.15692 0.16015 0.6548 0.0
C172 C 0.17477 0.09137 0.62372 0.0
O173 O 0.17394 0.08255 0.68067 0.0
O174 O 0.16872 0.12029 0.60865 0.0
C175 C 0.19107 0.06079 0.84915 0.0
O176 O 0.21865 0.05931 0.81516 0.0
C177 C 0.18497 0.20314 0.55842 0.0
C178 C 0.14137 0.23369 0.53688 0.0
C179 C 0.17456 0.22808 0.52041 0.0
N180 N 0.15916 0.19458 0.59586 0.0
N181 N 0.13322 0.21302 0.58278 0.0
C182 C 0.21793 0.186 0.55591 0.0
H183 H 0.21675 0.16344 0.58314 0.0
H184 H 0.23776 0.20147 0.57589 0.0
H185 H 0.22499 0.1808 0.50667 0.0
C186 C 0.20729 0.15648 0.81408 0.0
N187 N 0.18942 0.14495 0.76589 0.0
N188 N 0.1863 0.1676 0.7235 0.0
C189 C 0.20217 0.19424 0.74368 0.0
C190 C 0.2161 0.18794 0.80145 0.0
C191 C 0.21353 0.13853 0.87325 0.0
H192 H 0.18931 0.13014 0.89329 0.0
H193 H 0.22925 0.11731 0.86262 0.0
H194 H 0.22676 0.15342 0.90822 0.0
O195 O 0.1157 0.12004 0.76016 0.0
O196 O 0.1097 0.15692 0.68635 0.0
H197 H 0.17421 0.23037 0.69569 0.0
H198 H 0.20702 0.24592 0.74521 0.0
C199 C 0.20003 0.2263 0.71278 0.0
H200 H 0.2175 0.22684 0.67225 0.0
H201 H 0.10975 0.21116 0.60452 0.0
O202 O 0.16716 0.07889 0.83249 0.0
C203 C 0.09762 0.13971 0.73021 0.0
Co204 Co 0.83366 0.10088 0.75705 0.0
Co205 Co 0.84176 0.15309 0.86218 0.0
C206 C 0.82573 0.08356 0.89146 0.0
O207 O 0.82523 0.07516 0.83424 0.0
O208 O 0.83161 0.11249 0.90686 0.0
C209 C 0.80206 0.0548 0.67295 0.0
O210 O 0.77798 0.0531 0.71515 0.0
C211 C 0.81038 0.19503 0.95531 0.0
C212 C 0.85182 0.22711 0.98275 0.0
C213 C 0.81804 0.22095 0.99339 0.0
N214 N 0.83814 0.18662 0.92307 0.0
N215 N 0.86291 0.20577 0.93997 0.0
C216 C 0.77773 0.17732 0.95163 0.0
H217 H 0.78186 0.15249 0.93475 0.0
H218 H 0.76099 0.18949 0.91815 0.0
H219 H 0.76501 0.17696 0.99795 0.0
C220 C 0.78899 0.1508 0.70574 0.0
N221 N 0.80701 0.13859 0.75303 0.0
N222 N 0.81171 0.16113 0.79523 0.0
C223 C 0.79731 0.18853 0.77543 0.0
C224 C 0.78222 0.18279 0.7184 0.0
C225 C 0.78073 0.13287 0.64729 0.0
H226 H 0.76651 0.11093 0.65965 0.0
H227 H 0.76524 0.14734 0.61518 0.0
H228 H 0.8043 0.12563 0.62315 0.0
O229 O 0.88134 0.11466 0.7527 0.0
O230 O 0.88831 0.15103 0.82781 0.0
H231 H 0.80047 0.24024 0.76917 0.0
H232 H 0.78472 0.22498 0.84198 0.0
C233 C 0.80329 0.22082 0.80402 0.0
H234 H 0.82887 0.22204 0.82376 0.0
H235 H 0.8873 0.20442 0.92199 0.0
O236 O 0.82693 0.07328 0.68218 0.0
C237 C 0.89977 0.13438 0.78237 0.0
Co238 Co 0.16962 0.92446 0.25913 0.0
Co239 Co 0.17154 0.87142 0.36363 0.0
C240 C 0.18399 0.94043 0.3941 0.0
O241 O 0.18021 0.94883 0.33736 0.0
O242 O 0.18176 0.91115 0.41016 0.0
C243 C 0.20196 0.96851 0.17483 0.0
O244 O 0.22781 0.9642 0.2115 0.0
C245 C 0.19816 0.82912 0.46305 0.0
C246 C 0.16738 0.78568 0.44912 0.0
C247 C 0.19365 0.79783 0.4839 0.0
N248 N 0.17614 0.83478 0.41702 0.0
N249 N 0.15758 0.8088 0.4096 0.0
C250 C 0.22251 0.85347 0.48708 0.0
H251 H 0.21135 0.87765 0.48577 0.0
H252 H 0.24533 0.85357 0.45699 0.0
H253 H 0.22977 0.84812 0.53582 0.0
C254 C 0.21564 0.87791 0.19689 0.0
N255 N 0.19766 0.88805 0.24681 0.0
N256 N 0.19983 0.8666 0.29156 0.0
C257 C 0.22038 0.84274 0.27225 0.0
C258 C 0.23104 0.84908 0.2115 0.0
C259 C 0.2144 0.89306 0.13364 0.0
H260 H 0.18959 0.90432 0.1262 0.0
H261 H 0.23424 0.91164 0.13 0.0
H262 H 0.21881 0.87508 0.09623 0.0
O263 O 0.12242 0.91008 0.26289 0.0
O264 O 0.12329 0.87376 0.33884 0.0
H265 H 0.20841 0.7984 0.31702 0.0
H266 H 0.25167 0.80145 0.29126 0.0
C267 C 0.23017 0.8148 0.31173 0.0
H268 H 0.23747 0.8234 0.35853 0.0
H269 H 0.1387 0.8066 0.37643 0.0
O270 O 0.17447 0.95429 0.18737 0.0
C271 C 0.10751 0.88987 0.29797 0.0
H272 H 0.44581 0.38907 0.32375 0.0
H273 H 0.45623 0.37901 0.1242 0.0
H274 H 0.51745 0.37942 0.13332 0.0
H275 H 0.56801 0.38451 0.1981 0.0
H276 H 0.55747 0.38968 0.39835 0.0
H277 H 0.4963 0.38916 0.38916 0.0
C278 C 0.46157 0.38687 0.28239 0.0
C279 C 0.44672 0.38437 0.22337 0.0
C280 C 0.49664 0.38629 0.28818 0.0
C281 C 0.46723 0.38097 0.17011 0.0
C282 C 0.50217 0.38131 0.17529 0.0
C283 C 0.55224 0.38542 0.23962 0.0
C284 C 0.56707 0.38748 0.29874 0.0
C285 C 0.51715 0.38426 0.23404 0.0
C286 C 0.54652 0.38809 0.35235 0.0
C287 C 0.51159 0.3879 0.34712 0.0
H288 H 0.54653 0.62802 0.65525 0.0
H289 H 0.57186 0.66909 0.83325 0.0
H290 H 0.51233 0.67288 0.86157 0.0
H291 H 0.45348 0.66014 0.83935 0.0
H292 H 0.42839 0.61449 0.66495 0.0
H293 H 0.4871 0.61677 0.63159 0.0
C294 C 0.53878 0.63841 0.69954 0.0
C295 C 0.5632 0.64867 0.7419 0.0
C296 C 0.50458 0.63921 0.71652 0.0
C297 C 0.55323 0.66136 0.79988 0.0
C298 C 0.51928 0.66334 0.81617 0.0
C299 C 0.4608 0.65098 0.7938 0.0
C300 C 0.43657 0.63705 0.7549 0.0
C301 C 0.49477 0.65165 0.77547 0.0
C302 C 0.44656 0.62511 0.69612 0.0
C303 C 0.48015 0.62646 0.67687 0.0
H304 H 0.07092 0.88981 0.19226 0.0
H305 H 0.06207 0.88208 0.39232 0.0
H306 H 1.00075 0.88131 0.3847 0.0
H307 H 0.94956 0.88499 0.32086 0.0
H308 H 0.95875 0.88738 0.12032 0.0
H309 H 0.02002 0.88805 0.12807 0.0
C310 C 0.05549 0.88775 0.23406 0.0
C311 C 0.0708 0.8863 0.29277 0.0
C312 C 0.02038 0.88653 0.22914 0.0
C313 C 0.05072 0.88316 0.34663 0.0
C314 C 0.01571 0.88288 0.3423 0.0
C315 C 0.9651 0.88557 0.27902 0.0
C316 C 0.9499 0.88654 0.22016 0.0
C317 C 1.00026 0.88493 0.28384 0.0
C318 C 0.97007 0.88669 0.16609 0.0
C319 C 1.00503 0.88714 0.17051 0.0
H320 H 0.0432 0.14041 0.65497 0.0
H321 H 0.07296 0.14519 0.84758 0.0
H322 H 0.0141 0.14684 0.88104 0.0
H323 H 0.95405 0.14381 0.85576 0.0
H324 H 0.9244 0.13277 0.66393 0.0
H325 H 0.98301 0.1367 0.62974 0.0
C326 C 0.03663 0.14219 0.70411 0.0
C327 C 0.06211 0.1429 0.74882 0.0
C328 C 1.00274 0.14176 0.7231 0.0
C329 C 0.05356 0.14462 0.81248 0.0
C330 C 0.01998 0.14553 0.8316 0.0
C331 C 0.96051 0.14256 0.80651 0.0
C332 C 0.9351 0.13809 0.76239 0.0
C333 C 0.99434 0.14365 0.7874 0.0
C334 C 0.94368 0.13604 0.69872 0.0
C335 C 0.97714 0.13835 0.67915 0.0
H336 H 0.31903 0.51984 0.8838 0.0
H337 H 0.33232 0.595 0.02027 0.0
H338 H 0.33088 0.55552 0.10403 0.0
H339 H 0.32971 0.49932 0.13827 0.0
H340 H 0.31719 0.42422 1.00141 0.0
H341 H 0.31413 0.46404 0.91864 0.0
C342 C 0.32134 0.52768 0.93186 0.0
C343 C 0.32609 0.56041 0.94537 0.0
C344 C 0.32072 0.50481 0.98001 0.0
C345 C 0.32886 0.57 1.00817 0.0
C346 C 0.32805 0.54741 0.05627 0.0
C347 C 0.32589 0.49164 0.09048 0.0
C348 C 0.32398 0.45871 0.0763 0.0
C349 C 0.32455 0.51469 0.0427 0.0
C350 C 0.31899 0.44933 0.01391 0.0
C351 C 0.31729 0.47211 0.96635 0.0
H352 H 0.68414 0.44607 0.5177 0.0
H353 H 0.69085 0.50477 0.35227 0.0
H354 H 0.69109 0.55303 0.4165 0.0
H355 H 0.68499 0.57889 0.51913 0.0
H356 H 0.67784 0.52012 0.68444 0.0
H357 H 0.68232 0.47189 0.62075 0.0
C358 C 0.6861 0.46937 0.49563 0.0
C359 C 0.68716 0.47162 0.43009 0.0
C360 C 0.68584 0.4972 0.53284 0.0
C361 C 0.68979 0.50216 0.40254 0.0
C362 C 0.68984 0.52988 0.43926 0.0
C363 C 0.68471 0.55557 0.54137 0.0
C364 C 0.68074 0.55332 0.60658 0.0
C365 C 0.68714 0.52773 0.50439 0.0
C366 C 0.68064 0.52276 0.63438 0.0
C367 C 0.68318 0.49504 0.59796 0.0
H368 H 0.73851 0.54548 0.94146 0.0
H369 H 0.63078 0.54284 0.92218 0.0
H370 H 0.62591 0.50895 0.01432 0.0
H371 H 0.65197 0.48034 0.10062 0.0
H372 H 0.75927 0.48495 0.12448 0.0
H373 H 0.76462 0.51777 0.03033 0.0
C374 C 0.71402 0.53738 0.95742 0.0
C375 C 0.68508 0.54656 0.92498 0.0
C376 C 0.71131 0.5183 0.01122 0.0
C377 C 0.65345 0.5362 0.94649 0.0
C378 C 0.65062 0.51676 0.99909 0.0
C379 C 0.67655 0.48842 0.08509 0.0
C380 C 0.70519 0.48013 0.11918 0.0
C381 C 0.67935 0.50769 0.03181 0.0
C382 C 0.73683 0.4911 0.099 0.0
C383 C 0.73991 0.50981 0.04516 0.0
H384 H 0.35227 0.45238 0.44816 0.0
H385 H 0.29192 0.52662 0.36542 0.0
H386 H 0.29099 0.55578 0.46448 0.0
H387 H 0.30875 0.56097 0.57371 0.0
H388 H 0.36986 0.48692 0.65529 0.0
H389 H 0.36882 0.45687 0.55756 0.0
C390 C 0.33887 0.47493 0.45167 0.0
C391 C 0.32234 0.48735 0.39923 0.0
C392 C 0.33852 0.49161 0.50863 0.0
C393 C 0.30493 0.51652 0.40492 0.0
C394 C 0.30438 0.53322 0.46159 0.0
C395 C 0.32165 0.53815 0.57029 0.0
C396 C 0.33943 0.52628 0.62182 0.0
C397 C 0.32126 0.52109 0.51365 0.0
C398 C 0.35606 0.4967 0.61641 0.0
C399 C 0.35552 0.47948 0.56047 0.0
H400 H 0.81907 0.01851 0.8789 0.0
H401 H 0.82398 0.09363 0.01752 0.0
H402 H 0.82369 0.05381 0.10046 0.0
H403 H 0.8263 0.99764 0.13385 0.0
H404 H 0.8221 0.92238 0.99549 0.0
H405 H 0.81754 0.96222 0.91292 0.0
C406 C 0.81971 0.02623 0.92724 0.0
C407 C 0.82186 0.05913 0.94158 0.0
C408 C 0.81984 1.00312 0.97508 0.0
C409 C 0.82255 0.06854 1.00473 0.0
C410 C 0.82243 0.04574 0.05242 0.0
C411 C 0.82399 0.98987 0.08575 0.0
C412 C 0.82486 0.95694 0.07119 0.0
C413 C 0.82173 0.01295 0.03815 0.0
C414 C 0.82173 0.94749 1.00836 0.0
C415 C 0.81918 0.9703 0.9609 0.0
H416 H 0.18569 0.02705 0.63607 0.0
H417 H 0.17733 0.10164 0.49768 0.0
H418 H 0.182 0.06191 0.41449 0.0
H419 H 0.18446 1.00562 0.38072 0.0
H420 H 0.19192 0.93109 0.51945 0.0
H421 H 0.19198 0.97115 0.60214 0.0
C422 C 0.18519 0.03471 0.58775 0.0
C423 C 0.18082 0.06735 0.57348 0.0
C424 C 0.18764 1.01168 0.53986 0.0
C425 C 0.18042 0.07671 0.51036 0.0
C426 C 0.18307 0.05397 0.46256 0.0
C427 C 0.18651 0.99811 0.42896 0.0
C428 C 0.188 0.96524 0.44348 0.0
C429 C 0.18609 0.02132 0.47673 0.0
C430 C 0.19068 0.95611 0.50649 0.0
C431 C 0.1906 0.97905 0.55408 0.0
H432 H 0.24137 0.0393 0.9237 0.0
H433 H 0.13352 0.04275 0.90821 0.0
H434 H 0.12737 0.01475 1.00749 0.0
H435 H 0.15242 0.98946 0.09897 0.0
H436 H 0.26016 0.98786 0.11762 0.0
H437 H 0.26653 0.01512 0.01734 0.0
C438 C 0.21656 0.03371 0.94195 0.0
C439 C 0.18796 0.0429 0.90846 0.0
C440 C 0.21316 0.01815 0.99989 0.0
C441 C 0.15595 0.03594 0.9331 0.0
C442 C 0.15238 0.01994 0.9899 0.0
C443 C 0.17731 0.99514 0.0812 0.0
C444 C 0.20575 0.9866 0.11576 0.0
C445 C 0.18079 1.01102 0.02378 0.0
C446 C 0.23781 0.99431 0.09217 0.0
C447 C 0.24149 1.00978 0.03465 0.0
H448 H 0.85227 0.04114 0.59069 0.0
H449 H 0.74583 0.02875 0.62094 0.0
H450 H 0.74128 1.00094 0.52074 0.0
H451 H 0.76777 0.97975 0.42447 0.0
H452 H 0.87477 0.98951 0.39811 0.0
H453 H 0.87886 0.01885 0.4965 0.0
C454 C 0.82806 0.03238 0.57535 0.0
C455 C 0.79943 0.03709 0.61317 0.0
C456 C 0.82572 0.01601 0.51819 0.0
C457 C 0.7683 0.02532 0.59286 0.0
C458 C 0.76565 1.00952 0.53544 0.0
C459 C 0.79189 0.98856 0.44013 0.0
C460 C 0.82088 0.98271 0.40386 0.0
C461 C 0.7942 1.00474 0.49765 0.0
C462 C 0.85209 0.99374 0.42519 0.0
C463 C 0.85446 1.0105 0.48145 0.0
H464 H 0.26584 0.27519 0.02201 0.0
H465 H 0.35439 0.27893 0.90507 0.0
H466 H 0.32606 0.24728 0.82502 0.0
H467 H 0.27681 0.21625 0.79045 0.0
H468 H 0.18939 0.21052 0.90958 0.0
H469 H 0.2161 0.24577 0.98621 0.0
C470 C 0.2786 0.26976 0.97839 0.0
C471 C 0.31192 0.2798 0.96891 0.0
C472 C 0.26235 0.25107 0.93316 0.0
C473 C 0.32865 0.2715 0.91318 0.0
C474 C 0.31248 0.25345 0.86744 0.0
C475 C 0.26367 0.2231 0.833 0.0
C476 C 0.23142 0.211 0.84494 0.0
C477 C 0.27947 0.24277 0.87721 0.0
C478 C 0.21438 0.21967 0.90002 0.0
C479 C 0.22963 0.23971 0.94368 0.0
H480 H 0.67526 0.76978 0.44961 0.0
H481 H 0.75835 0.71005 0.50401 0.0
H482 H 0.79586 0.74005 0.43582 0.0
H483 H 0.80607 0.7853 0.36398 0.0
H484 H 0.7246 0.84848 0.31839 0.0
H485 H 0.68566 0.81574 0.38065 0.0
C486 C 0.70153 0.76311 0.44617 0.0
C487 C 0.71341 0.73664 0.48008 0.0
C488 C 0.72344 0.78153 0.409 0.0
C489 C 0.74775 0.72891 0.47602 0.0
C490 C 0.76954 0.74658 0.43781 0.0
C491 C 0.77972 0.79163 0.36765 0.0
C492 C 0.7679 0.8189 0.33662 0.0
C493 C 0.75773 0.77304 0.40439 0.0
C494 C 0.73397 0.82741 0.34196 0.0
C495 C 0.7118 0.80871 0.3774 0.0
H496 H 0.22699 0.78469 0.19059 0.0
H497 H 0.28295 0.86909 0.13824 0.0
H498 H 0.31676 0.83747 0.06498 0.0
H499 H 0.32984 0.78609 0.01492 0.0
H500 H 0.27754 0.70069 0.07476 0.0
H501 H 0.24309 0.73234 0.14595 0.0
C502 C 0.24698 0.79601 0.16394 0.0
C503 C 0.2525 0.82917 0.16979 0.0
C504 C 0.26675 0.77755 0.12274 0.0
C505 C 0.27803 0.84365 0.13403 0.0
C506 C 0.29744 0.82557 0.09235 0.0
C507 C 0.311 0.77427 0.04362 0.0
C508 C 0.30556 0.74108 0.03721 0.0
C509 C 0.29191 0.79253 0.08612 0.0
C510 C 0.28131 0.7263 0.07572 0.0
C511 C 0.26184 0.74438 0.11746 0.0
H512 H 0.73662 0.27577 0.50364 0.0
H513 H 0.65963 0.29785 0.6395 0.0
H514 H 0.68587 0.26179 0.71478 0.0
H515 H 0.72926 0.22177 0.73978 0.0
H516 H 0.80465 0.19799 0.602 0.0
H517 H 0.78089 0.23706 0.52963 0.0
C518 C 0.7262 0.2733 0.55033 0.0
C519 C 0.69677 0.28987 0.56681 0.0
C520 C 0.74092 0.25191 0.59255 0.0
C521 C 0.68255 0.28551 0.62637 0.0
C522 C 0.69746 0.26486 0.66921 0.0
C523 C 0.74041 0.22536 0.69392 0.0
C524 C 0.76822 0.20691 0.67554 0.0
C525 C 0.72636 0.24757 0.6525 0.0
C526 C 0.7828 0.21166 0.61639 0.0
C527 C 0.76934 0.23405 0.57525 0.0
H528 H 0.77186 0.67429 0.88153 0.0
H529 H 0.71174 0.75056 0.80642 0.0
H530 H 0.74258 0.78985 0.86852 0.0
H531 H 0.78672 0.8023 0.94418 0.0
H532 H 0.8438 0.72517 0.02505 0.0
H533 H 0.81434 0.68655 0.96026 0.0
C534 C 0.76547 0.69952 0.87908 0.0
C535 C 0.73991 0.70959 0.83901 0.0
C536 C 0.78274 0.72181 0.91598 0.0
C537 C 0.73186 0.74232 0.83597 0.0
C538 C 0.7493 0.76475 0.87184 0.0
C539 C 0.79219 0.77707 0.94904 0.0
C540 C 0.81706 0.76679 0.99068 0.0
C541 C 0.77473 0.75476 0.91223 0.0
C542 C 0.82476 0.73391 0.99361 0.0
C543 C 0.80785 0.71169 0.95667 0.0
H544 H 0.23771 0.25266 0.52737 0.0
H545 H 0.15314 0.24367 0.40464 0.0
H546 H 0.18259 0.27523 0.32497 0.0
H547 H 0.23171 0.30742 0.29191 0.0
H548 H 0.31483 0.31867 0.41711 0.0
H549 H 0.28709 0.28386 0.49378 0.0
C550 C 0.22609 0.25699 0.48266 0.0
C551 C 0.19359 0.24541 0.47135 0.0
C552 C 0.2429 0.27574 0.4377 0.0
C553 C 0.17826 0.25226 0.41414 0.0
C554 C 0.19507 0.27028 0.36863 0.0
C555 C 0.2437 0.30193 0.33585 0.0
C556 C 0.27508 0.31547 0.34928 0.0
C557 C 0.22726 0.28244 0.38011 0.0
C558 C 0.29052 0.30852 0.40627 0.0
C559 C 0.27469 0.28866 0.44997 0.0
H560 H 0.83163 0.2456 0.10759 0.0
H561 H 0.75406 0.24043 0.96891 0.0
H562 H 0.71774 0.27432 0.03318 0.0
H563 H 0.70885 0.30759 0.12698 0.0
H564 H 0.78607 0.31325 0.26581 0.0
H565 H 0.82166 0.27694 0.20395 0.0
C566 C 0.80666 0.25175 0.0918 0.0
C567 C 0.79534 0.24004 0.03409 0.0
C568 C 0.78594 0.27146 0.12898 0.0
C569 C 0.76303 0.24827 0.01392 0.0
C570 C 0.74235 0.26798 0.05039 0.0
C571 C 0.73347 0.30071 0.14351 0.0
C572 C 0.74519 0.31322 0.20015 0.0
C573 C 0.75364 0.27992 0.10772 0.0
C574 C 0.77677 0.3039 0.22203 0.0
C575 C 0.79708 0.28328 0.18663 0.0
H576 H 0.17107 0.75144 0.56175 0.0
H577 H 0.2615 0.80077 0.50483 0.0
H578 H 0.29409 0.7692 0.57797 0.0
H579 H 0.29746 0.72592 0.65565 0.0
H580 H 0.20814 0.67386 0.7074 0.0
H581 H 0.17452 0.7077 0.63836 0.0
C582 C 0.19788 0.7554 0.5657 0.0
C583 C 0.21354 0.77931 0.5295 0.0
C584 C 0.21669 0.73642 0.6066 0.0
C585 C 0.24842 0.78372 0.53422 0.0
C586 C 0.26724 0.76528 0.57542 0.0
C587 C 0.27057 0.72233 0.652 0.0
C588 C 0.25499 0.69791 0.68659 0.0
C589 C 0.25167 0.74153 0.61171 0.0
C590 C 0.22036 0.69282 0.6812 0.0
C591 C 0.20126 0.71208 0.6418 0.0
loop_
_geom_bond_atom_site_label_1
_geom_bond_atom_site_label_2
_geom_bond_distance
_geom_bond_site_symmetry_2
_ccdc_geom_bond_type
Co0 O3 1.970 . S
Co0 N17 1.989 . S
Co0 O25 1.967 . S
Co0 O32 1.920 . S
Co1 O4 1.966 . S
Co1 N10 2.022 . S
Co1 N18 1.993 . S
Co1 O26 1.941 . S
C2 O3 1.258 . S
C2 O4 1.263 . S
O3 Co0 1.970 . S
O3 C2 1.258 . S
O4 Co1 1.966 . S
O4 C2 1.263 . S
C5 O6 1.235 . S
C5 O32 1.289 . S
O6 C5 1.235 . S
C7 C9 1.400 . S
C7 N10 1.351 . S
C7 C12 1.501 . S
C8 C9 1.387 . S
C8 N11 1.341 . S
C9 C7 1.400 . S
C9 C8 1.387 . S
N10 Co1 2.022 . S
N10 C7 1.351 . S
N10 N11 1.365 . S
N11 C8 1.341 . S
N11 N10 1.365 . S
N11 H31 0.862 . S
C12 C7 1.501 . S
C12 H13 0.961 . S
C12 H14 0.961 . S
C12 H15 0.960 1_554 S
H13 C12 0.961 . S
H14 C12 0.961 . S
H15 C12 0.960 1_556 S
C16 N17 1.342 . S
C16 C20 1.401 . S
C16 C21 1.499 . S
N17 Co0 1.989 . S
N17 C16 1.342 . S
N17 N18 1.388 . S
N18 Co1 1.993 . S
N18 N17 1.388 . S
N18 C19 1.346 . S
C19 N18 1.346 . S
C19 C20 1.396 . S
C19 C29 1.510 . S
C20 C16 1.401 . S
C20 C19 1.396 . S
C21 C16 1.499 . S
C21 H22 0.959 . S
C21 H23 0.960 . S
C21 H24 0.961 . S
H22 C21 0.959 . S
H23 C21 0.960 . S
H24 C21 0.961 . S
O25 Co0 1.967 . S
O25 C33 1.258 . S
O26 Co1 1.941 . S
O26 C33 1.266 . S
H27 C29 0.959 . S
H28 C29 0.961 . S
C29 C19 1.510 . S
C29 H27 0.959 . S
C29 H28 0.961 . S
C29 H30 0.960 . S
H30 C29 0.960 . S
H31 N11 0.862 . S
O32 Co0 1.920 . S
O32 C5 1.289 . S
C33 O25 1.258 . S
C33 O26 1.266 . S
Co34 O37 1.970 . S
Co34 N51 1.989 . S
Co34 O59 1.967 . S
Co34 O66 1.920 . S
Co35 O38 1.966 . S
Co35 N44 2.022 . S
Co35 N52 1.993 . S
Co35 O60 1.941 . S
C36 O37 1.258 . S
C36 O38 1.263 . S
O37 Co34 1.970 . S
O37 C36 1.258 . S
O38 Co35 1.966 . S
O38 C36 1.263 . S
C39 O40 1.235 . S
C39 O66 1.289 . S
O40 C39 1.235 . S
C41 C43 1.400 . S
C41 N44 1.351 . S
C41 C46 1.501 . S
C42 C43 1.387 . S
C42 N45 1.341 . S
C43 C41 1.400 . S
C43 C42 1.387 . S
N44 Co35 2.022 . S
N44 C41 1.351 . S
N44 N45 1.365 . S
N45 C42 1.341 . S
N45 N44 1.365 . S
N45 H65 0.862 . S
C46 C41 1.501 . S
C46 H47 0.961 . S
C46 H48 0.961 . S
C46 H49 0.960 . S
H47 C46 0.961 . S
H48 C46 0.961 . S
H49 C46 0.960 . S
C50 N51 1.342 . S
C50 C54 1.401 . S
C50 C55 1.499 . S
N51 Co34 1.989 . S
N51 C50 1.342 . S
N51 N52 1.388 . S
N52 Co35 1.993 . S
N52 N51 1.388 . S
N52 C53 1.346 . S
C53 N52 1.346 . S
C53 C54 1.396 . S
C53 C63 1.510 . S
C54 C50 1.401 . S
C54 C53 1.396 . S
C55 C50 1.499 . S
C55 H56 0.959 . S
C55 H57 0.960 . S
C55 H58 0.961 . S
H56 C55 0.959 . S
H57 C55 0.960 . S
H58 C55 0.961 . S
O59 Co34 1.967 . S
O59 C67 1.258 . S
O60 Co35 1.941 . S
O60 C67 1.266 . S
H61 C63 0.959 . S
H62 C63 0.961 . S
C63 C53 1.510 . S
C63 H61 0.959 . S
C63 H62 0.961 . S
C63 H64 0.960 . S
H64 C63 0.960 . S
H65 N45 0.862 . S
O66 Co34 1.920 . S
O66 C39 1.289 . S
C67 O59 1.258 . S
C67 O60 1.266 . S
Co68 O71 1.970 . S
Co68 N85 1.989 . S
Co68 O93 1.967 . S
Co68 O100 1.920 . S
Co69 O72 1.966 . S
Co69 N78 2.022 . S
Co69 N86 1.993 . S
Co69 O94 1.941 . S
C70 O71 1.258 . S
C70 O72 1.263 . S
O71 Co68 1.970 . S
O71 C70 1.258 . S
O72 Co69 1.966 . S
O72 C70 1.263 . S
C73 O74 1.235 . S
C73 O100 1.289 . S
O74 C73 1.235 . S
C75 C77 1.400 . S
C75 N78 1.351 . S
C75 C80 1.501 . S
C76 C77 1.387 . S
C76 N79 1.341 . S
C77 C75 1.400 . S
C77 C76 1.387 . S
N78 Co69 2.022 . S
N78 C75 1.351 . S
N78 N79 1.365 . S
N79 C76 1.341 . S
N79 N78 1.365 . S
N79 H99 0.862 . S
C80 C75 1.501 . S
C80 H81 0.961 . S
C80 H82 0.961 . S
C80 H83 0.960 1_556 S
H81 C80 0.961 . S
H82 C80 0.961 . S
H83 C80 0.960 1_554 S
C84 N85 1.342 . S
C84 C88 1.401 . S
C84 C89 1.499 . S
N85 Co68 1.989 . S
N85 C84 1.342 . S
N85 N86 1.388 . S
N86 Co69 1.993 . S
N86 N85 1.388 . S
N86 C87 1.346 . S
C87 N86 1.346 . S
C87 C88 1.396 . S
C87 C97 1.510 . S
C88 C84 1.401 . S
C88 C87 1.396 . S
C89 C84 1.499 . S
C89 H90 0.959 . S
C89 H91 0.960 . S
C89 H92 0.961 . S
H90 C89 0.959 . S
H91 C89 0.960 . S
H92 C89 0.961 . S
O93 Co68 1.967 . S
O93 C101 1.258 . S
O94 Co69 1.941 . S
O94 C101 1.266 . S
H95 C97 0.959 . S
H96 C97 0.961 . S
C97 C87 1.510 . S
C97 H95 0.959 . S
C97 H96 0.961 . S
C97 H98 0.960 . S
H98 C97 0.960 . S
H99 N79 0.862 . S
O100 Co68 1.920 . S
O100 C73 1.289 . S
C101 O93 1.258 . S
C101 O94 1.266 . S
Co102 O105 1.970 . S
Co102 N119 1.989 . S
Co102 O127 1.967 . S
Co102 O134 1.920 . S
Co103 O106 1.966 . S
Co103 N112 2.022 . S
Co103 N120 1.993 . S
Co103 O128 1.941 . S
C104 O105 1.258 . S
C104 O106 1.263 . S
O105 Co102 1.970 . S
O105 C104 1.258 . S
O106 Co103 1.966 . S
O106 C104 1.263 . S
C107 O108 1.235 . S
C107 O134 1.289 . S
O108 C107 1.235 . S
C109 C111 1.400 . S
C109 N112 1.351 . S
C109 C114 1.501 . S
C110 C111 1.387 . S
C110 N113 1.341 . S
C111 C109 1.400 . S
C111 C110 1.387 . S
N112 Co103 2.022 . S
N112 C109 1.351 . S
N112 N113 1.365 . S
N113 C110 1.341 . S
N113 N112 1.365 . S
N113 H133 0.862 . S
C114 C109 1.501 . S
C114 H115 0.961 . S
C114 H116 0.961 . S
C114 H117 0.960 . S
H115 C114 0.961 . S
H116 C114 0.961 . S
H117 C114 0.960 . S
C118 N119 1.342 . S
C118 C122 1.401 . S
C118 C123 1.499 . S
N119 Co102 1.989 . S
N119 C118 1.342 . S
N119 N120 1.388 . S
N120 Co103 1.993 . S
N120 N119 1.388 . S
N120 C121 1.346 . S
C121 N120 1.346 . S
C121 C122 1.396 . S
C121 C131 1.510 . S
C122 C118 1.401 . S
C122 C121 1.396 . S
C123 C118 1.499 . S
C123 H124 0.959 . S
C123 H125 0.960 . S
C123 H126 0.961 . S
H124 C123 0.959 . S
H125 C123 0.960 . S
H126 C123 0.961 . S
O127 Co102 1.967 . S
O127 C135 1.258 . S
O128 Co103 1.941 . S
O128 C135 1.266 . S
H129 C131 0.959 . S
H130 C131 0.961 . S
C131 C121 1.510 . S
C131 H129 0.959 . S
C131 H130 0.961 . S
C131 H132 0.960 . S
H132 C131 0.960 . S
H133 N113 0.862 . S
O134 Co102 1.920 . S
O134 C107 1.289 . S
C135 O127 1.258 . S
C135 O128 1.266 . S
Co136 O139 1.970 . S
Co136 N153 1.989 . S
Co136 O161 1.967 . S
Co136 O168 1.920 . S
Co137 O140 1.966 . S
Co137 N146 2.022 . S
Co137 N154 1.993 . S
Co137 O162 1.941 . S
C138 O139 1.258 . S
C138 O140 1.263 . S
O139 Co136 1.970 . S
O139 C138 1.258 . S
O140 Co137 1.966 . S
O140 C138 1.263 . S
C141 O142 1.235 . S
C141 O168 1.289 . S
O142 C141 1.235 . S
C143 C145 1.400 . S
C143 N146 1.351 . S
C143 C148 1.501 . S
C144 C145 1.387 . S
C144 N147 1.341 . S
C145 C143 1.400 . S
C145 C144 1.387 . S
N146 Co137 2.022 . S
N146 C143 1.351 . S
N146 N147 1.365 . S
N147 C144 1.341 . S
N147 N146 1.365 . S
N147 H167 0.862 . S
C148 C143 1.501 . S
C148 H149 0.961 . S
C148 H150 0.961 . S
C148 H151 0.960 1_554 S
H149 C148 0.961 . S
H150 C148 0.961 . S
H151 C148 0.960 1_556 S
C152 N153 1.342 . S
C152 C156 1.401 . S
C152 C157 1.499 . S
N153 Co136 1.989 . S
N153 C152 1.342 . S
N153 N154 1.388 . S
N154 Co137 1.993 . S
N154 N153 1.388 . S
N154 C155 1.346 . S
C155 N154 1.346 . S
C155 C156 1.396 . S
C155 C165 1.510 . S
C156 C152 1.401 . S
C156 C155 1.396 . S
C157 C152 1.499 . S
C157 H158 0.959 . S
C157 H159 0.960 . S
C157 H160 0.961 . S
H158 C157 0.959 . S
H159 C157 0.960 . S
H160 C157 0.961 . S
O161 Co136 1.967 . S
O161 C169 1.258 . S
O162 Co137 1.941 . S
O162 C169 1.266 . S
H163 C165 0.959 . S
H164 C165 0.961 . S
C165 C155 1.510 . S
C165 H163 0.959 . S
C165 H164 0.961 . S
C165 H166 0.960 . S
H166 C165 0.960 . S
H167 N147 0.862 . S
O168 Co136 1.920 . S
O168 C141 1.289 . S
C169 O161 1.258 . S
C169 O162 1.266 . S
Co170 O173 1.970 . S
Co170 N187 1.989 . S
Co170 O195 1.967 . S
Co170 O202 1.920 . S
Co171 O174 1.966 . S
Co171 N180 2.022 . S
Co171 N188 1.993 . S
Co171 O196 1.941 . S
C172 O173 1.258 . S
C172 O174 1.263 . S
O173 Co170 1.970 . S
O173 C172 1.258 . S
O174 Co171 1.966 . S
O174 C172 1.263 . S
C175 O176 1.235 . S
C175 O202 1.289 . S
O176 C175 1.235 . S
C177 C179 1.400 . S
C177 N180 1.351 . S
C177 C182 1.501 . S
C178 C179 1.387 . S
C178 N181 1.341 . S
C179 C177 1.400 . S
C179 C178 1.387 . S
N180 Co171 2.022 . S
N180 C177 1.351 . S
N180 N181 1.365 . S
N181 C178 1.341 . S
N181 N180 1.365 . S
N181 H201 0.862 . S
C182 C177 1.501 . S
C182 H183 0.961 . S
C182 H184 0.961 . S
C182 H185 0.960 . S
H183 C182 0.961 . S
H184 C182 0.961 . S
H185 C182 0.960 . S
C186 N187 1.342 . S
C186 C190 1.401 . S
C186 C191 1.499 . S
N187 Co170 1.989 . S
N187 C186 1.342 . S
N187 N188 1.388 . S
N188 Co171 1.993 . S
N188 N187 1.388 . S
N188 C189 1.346 . S
C189 N188 1.346 . S
C189 C190 1.396 . S
C189 C199 1.510 . S
C190 C186 1.401 . S
C190 C189 1.396 . S
C191 C186 1.499 . S
C191 H192 0.959 . S
C191 H193 0.960 . S
C191 H194 0.961 . S
H192 C191 0.959 . S
H193 C191 0.960 . S
H194 C191 0.961 . S
O195 Co170 1.967 . S
O195 C203 1.258 . S
O196 Co171 1.941 . S
O196 C203 1.266 . S
H197 C199 0.959 . S
H198 C199 0.961 . S
C199 C189 1.510 . S
C199 H197 0.959 . S
C199 H198 0.961 . S
C199 H200 0.960 . S
H200 C199 0.960 . S
H201 N181 0.862 . S
O202 Co170 1.920 . S
O202 C175 1.289 . S
C203 O195 1.258 . S
C203 O196 1.266 . S
Co204 O207 1.970 . S
Co204 N221 1.989 . S
Co204 O229 1.967 . S
Co204 O236 1.920 . S
Co205 O208 1.966 . S
Co205 N214 2.022 . S
Co205 N222 1.993 . S
Co205 O230 1.941 . S
C206 O207 1.258 . S
C206 O208 1.263 . S
O207 Co204 1.970 . S
O207 C206 1.258 . S
O208 Co205 1.966 . S
O208 C206 1.263 . S
C209 O210 1.235 . S
C209 O236 1.289 . S
O210 C209 1.235 . S
C211 C213 1.400 . S
C211 N214 1.351 . S
C211 C216 1.501 . S
C212 C213 1.387 . S
C212 N215 1.341 . S
C213 C211 1.400 . S
C213 C212 1.387 . S
N214 Co205 2.022 . S
N214 C211 1.351 . S
N214 N215 1.365 . S
N215 C212 1.341 . S
N215 N214 1.365 . S
N215 H235 0.862 . S
C216 C211 1.501 . S
C216 H217 0.961 . S
C216 H218 0.961 . S
C216 H219 0.960 1_556 S
H217 C216 0.961 . S
H218 C216 0.961 . S
H219 C216 0.960 1_554 S
C220 N221 1.342 . S
C220 C224 1.401 . S
C220 C225 1.499 . S
N221 Co204 1.989 . S
N221 C220 1.342 . S
N221 N222 1.388 . S
N222 Co205 1.993 . S
N222 N221 1.388 . S
N222 C223 1.346 . S
C223 N222 1.346 . S
C223 C224 1.396 . S
C223 C233 1.510 . S
C224 C220 1.401 . S
C224 C223 1.396 . S
C225 C220 1.499 . S
C225 H226 0.959 . S
C225 H227 0.960 . S
C225 H228 0.961 . S
H226 C225 0.959 . S
H227 C225 0.960 . S
H228 C225 0.961 . S
O229 Co204 1.967 . S
O229 C237 1.258 . S
O230 Co205 1.941 . S
O230 C237 1.266 . S
H231 C233 0.959 . S
H232 C233 0.961 . S
C233 C223 1.510 . S
C233 H231 0.959 . S
C233 H232 0.961 . S
C233 H234 0.960 . S
H234 C233 0.960 . S
H235 N215 0.862 . S
O236 Co204 1.920 . S
O236 C209 1.289 . S
C237 O229 1.258 . S
C237 O230 1.266 . S
Co238 O241 1.970 . S
Co238 N255 1.989 . S
Co238 O263 1.967 . S
Co238 O270 1.920 . S
Co239 O242 1.966 . S
Co239 N248 2.022 . S
Co239 N256 1.993 . S
Co239 O264 1.941 . S
C240 O241 1.258 . S
C240 O242 1.263 . S
O241 Co238 1.970 . S
O241 C240 1.258 . S
O242 Co239 1.966 . S
O242 C240 1.263 . S
C243 O244 1.235 . S
C243 O270 1.289 . S
O244 C243 1.235 . S
C245 C247 1.400 . S
C245 N248 1.351 . S
C245 C250 1.501 . S
C246 C247 1.387 . S
C246 N249 1.341 . S
C247 C245 1.400 . S
C247 C246 1.387 . S
N248 Co239 2.022 . S
N248 C245 1.351 . S
N248 N249 1.365 . S
N249 C246 1.341 . S
N249 N248 1.365 . S
N249 H269 0.862 . S
C250 C245 1.501 . S
C250 H251 0.961 . S
C250 H252 0.961 . S
C250 H253 0.960 . S
H251 C250 0.961 . S
H252 C250 0.961 . S
H253 C250 0.960 . S
C254 N255 1.342 . S
C254 C258 1.401 . S
C254 C259 1.499 . S
N255 Co238 1.989 . S
N255 C254 1.342 . S
N255 N256 1.388 . S
N256 Co239 1.993 . S
N256 N255 1.388 . S
N256 C257 1.346 . S
C257 N256 1.346 . S
C257 C258 1.396 . S
C257 C267 1.510 . S
C258 C254 1.401 . S
C258 C257 1.396 . S
C259 C254 1.499 . S
C259 H260 0.959 . S
C259 H261 0.960 . S
C259 H262 0.961 . S
H260 C259 0.959 . S
H261 C259 0.960 . S
H262 C259 0.961 . S
O263 Co238 1.967 . S
O263 C271 1.258 . S
O264 Co239 1.941 . S
O264 C271 1.266 . S
H265 C267 0.959 . S
H266 C267 0.961 . S
C267 C257 1.510 . S
C267 H265 0.959 . S
C267 H266 0.961 . S
C267 H268 0.960 . S
H268 C267 0.960 . S
H269 N249 0.862 . S
O270 Co238 1.920 . S
O270 C243 1.289 . S
C271 O263 1.258 . S
C271 O264 1.266 . S
H272 C278 0.930 . S
H273 C281 0.930 . S
H274 C282 0.930 . S
H275 C283 0.930 . S
H276 C286 0.930 . S
H277 C287 0.930 . S
C278 H272 0.930 . S
C278 C279 1.355 . S
C278 C280 1.415 . S
C279 C278 1.355 . S
C279 C281 1.419 . S
C280 C278 1.415 . S
C280 C285 1.425 . S
C280 C287 1.409 . S
C281 H273 0.930 . S
C281 C279 1.419 . S
C281 C282 1.362 . S
C282 H274 0.930 . S
C282 C281 1.362 . S
C282 C285 1.409 . S
C283 H275 0.930 . S
C283 C284 1.355 . S
C283 C285 1.415 . S
C284 C283 1.355 . S
C284 C286 1.419 . S
C285 C280 1.425 . S
C285 C282 1.409 . S
C285 C283 1.415 . S
C286 H276 0.930 . S
C286 C284 1.419 . S
C286 C287 1.362 . S
C287 H277 0.930 . S
C287 C280 1.409 . S
C287 C286 1.362 . S
H288 C294 0.930 . S
H289 C297 0.930 . S
H290 C298 0.930 . S
H291 C299 0.930 . S
H292 C302 0.930 . S
H293 C303 0.930 . S
C294 H288 0.930 . S
C294 C295 1.355 . S
C294 C296 1.415 . S
C295 C294 1.355 . S
C295 C297 1.419 . S
C296 C294 1.415 . S
C296 C301 1.425 . S
C296 C303 1.409 . S
C297 H289 0.930 . S
C297 C295 1.419 . S
C297 C298 1.362 . S
C298 H290 0.930 . S
C298 C297 1.362 . S
C298 C301 1.409 . S
C299 H291 0.930 . S
C299 C300 1.355 . S
C299 C301 1.415 . S
C300 C299 1.355 . S
C300 C302 1.419 . S
C301 C296 1.425 . S
C301 C298 1.409 . S
C301 C299 1.415 . S
C302 H292 0.930 . S
C302 C300 1.419 . S
C302 C303 1.362 . S
C303 H293 0.930 . S
C303 C296 1.409 . S
C303 C302 1.362 . S
H304 C310 0.930 . S
H305 C313 0.930 . S
H306 C314 0.930 1_655 S
H307 C315 0.930 . S
H308 C318 0.930 . S
H309 C319 0.930 1_455 S
C310 H304 0.930 . S
C310 C311 1.355 . S
C310 C312 1.415 . S
C311 C310 1.355 . S
C311 C313 1.419 . S
C312 C310 1.415 . S
C312 C317 1.425 1_455 S
C312 C319 1.409 1_455 S
C313 H305 0.930 . S
C313 C311 1.419 . S
C313 C314 1.362 . S
C314 H306 0.930 1_455 S
C314 C313 1.362 . S
C314 C317 1.409 1_455 S
C315 H307 0.930 . S
C315 C316 1.355 . S
C315 C317 1.415 . S
C316 C315 1.355 . S
C316 C318 1.419 . S
C317 C312 1.425 1_655 S
C317 C314 1.409 1_655 S
C317 C315 1.415 . S
C318 H308 0.930 . S
C318 C316 1.419 . S
C318 C319 1.362 . S
C319 H309 0.930 1_655 S
C319 C312 1.409 1_655 S
C319 C318 1.362 . S
H320 C326 0.930 . S
H321 C329 0.930 . S
H322 C330 0.930 . S
H323 C331 0.930 . S
H324 C334 0.930 . S
H325 C335 0.930 . S
C326 H320 0.930 . S
C326 C327 1.355 . S
C326 C328 1.415 . S
C327 C326 1.355 . S
C327 C329 1.419 . S
C328 C326 1.415 . S
C328 C333 1.425 1_455 S
C328 C335 1.409 1_455 S
C329 H321 0.930 . S
C329 C327 1.419 . S
C329 C330 1.362 . S
C330 H322 0.930 . S
C330 C329 1.362 . S
C330 C333 1.409 1_455 S
C331 H323 0.930 . S
C331 C332 1.355 . S
C331 C333 1.415 . S
C332 C331 1.355 . S
C332 C334 1.419 . S
C333 C328 1.425 1_655 S
C333 C330 1.409 1_655 S
C333 C331 1.415 . S
C334 H324 0.930 . S
C334 C332 1.419 . S
C334 C335 1.362 . S
C335 H325 0.930 . S
C335 C328 1.409 1_655 S
C335 C334 1.362 . S
H336 C342 0.930 . S
H337 C345 0.930 . S
H338 C346 0.930 . S
H339 C347 0.930 . S
H340 C350 0.930 . S
H341 C351 0.930 . S
C342 H336 0.930 . S
C342 C343 1.355 . S
C342 C344 1.415 . S
C343 C342 1.355 . S
C343 C345 1.419 . S
C344 C342 1.415 . S
C344 C349 1.425 1_556 S
C344 C351 1.409 . S
C345 H337 0.930 . S
C345 C343 1.419 . S
C345 C346 1.362 1_556 S
C346 H338 0.930 . S
C346 C345 1.362 1_554 S
C346 C349 1.409 . S
C347 H339 0.930 . S
C347 C348 1.355 . S
C347 C349 1.415 . S
C348 C347 1.355 . S
C348 C350 1.419 . S
C349 C344 1.425 1_554 S
C349 C346 1.409 . S
C349 C347 1.415 . S
C350 H340 0.930 . S
C350 C348 1.419 . S
C350 C351 1.362 1_554 S
C351 H341 0.930 . S
C351 C344 1.409 . S
C351 C350 1.362 1_556 S
H352 C358 0.930 . S
H353 C361 0.930 . S
H354 C362 0.930 . S
H355 C363 0.930 . S
H356 C366 0.930 . S
H357 C367 0.930 . S
C358 H352 0.930 . S
C358 C359 1.355 . S
C358 C360 1.415 . S
C359 C358 1.355 . S
C359 C361 1.419 . S
C360 C358 1.415 . S
C360 C365 1.425 . S
C360 C367 1.409 . S
C361 H353 0.930 . S
C361 C359 1.419 . S
C361 C362 1.362 . S
C362 H354 0.930 . S
C362 C361 1.362 . S
C362 C365 1.409 . S
C363 H355 0.930 . S
C363 C364 1.355 . S
C363 C365 1.415 . S
C364 C363 1.355 . S
C364 C366 1.419 . S
C365 C360 1.425 . S
C365 C362 1.409 . S
C365 C363 1.415 . S
C366 H356 0.930 . S
C366 C364 1.419 . S
C366 C367 1.362 . S
C367 H357 0.930 . S
C367 C360 1.409 . S
C367 C366 1.362 . S
H368 C374 0.930 . S
H369 C377 0.930 . S
H370 C378 0.930 . S
H371 C379 0.930 . S
H372 C382 0.930 . S
H373 C383 0.930 . S
C374 H368 0.930 . S
C374 C375 1.355 . S
C374 C376 1.415 1_556 S
C375 C374 1.355 . S
C375 C377 1.419 . S
C376 C374 1.415 1_554 S
C376 C381 1.425 1_554 S
C376 C383 1.409 . S
C377 H369 0.930 . S
C377 C375 1.419 . S
C377 C378 1.362 . S
C378 H370 0.930 . S
C378 C377 1.362 . S
C378 C381 1.409 . S
C379 H371 0.930 . S
C379 C380 1.355 . S
C379 C381 1.415 1_554 S
C380 C379 1.355 . S
C380 C382 1.419 . S
C381 C376 1.425 1_556 S
C381 C378 1.409 . S
C381 C379 1.415 1_556 S
C382 H372 0.930 . S
C382 C380 1.419 . S
C382 C383 1.362 . S
C383 H373 0.930 . S
C383 C376 1.409 . S
C383 C382 1.362 . S
H384 C390 0.930 . S
H385 C393 0.930 . S
H386 C394 0.930 . S
H387 C395 0.930 . S
H388 C398 0.930 . S
H389 C399 0.930 . S
C390 H384 0.930 . S
C390 C391 1.355 . S
C390 C392 1.415 . S
C391 C390 1.355 . S
C391 C393 1.419 . S
C392 C390 1.415 . S
C392 C397 1.425 . S
C392 C399 1.409 . S
C393 H385 0.930 . S
C393 C391 1.419 . S
C393 C394 1.362 . S
C394 H386 0.930 . S
C394 C393 1.362 . S
C394 C397 1.409 . S
C395 H387 0.930 . S
C395 C396 1.355 . S
C395 C397 1.415 . S
C396 C395 1.355 . S
C396 C398 1.419 . S
C397 C392 1.425 . S
C397 C394 1.409 . S
C397 C395 1.415 . S
C398 H388 0.930 . S
C398 C396 1.419 . S
C398 C399 1.362 . S
C399 H389 0.930 . S
C399 C392 1.409 . S
C399 C398 1.362 . S
H400 C406 0.930 . S
H401 C409 0.930 . S
H402 C410 0.930 . S
H403 C411 0.930 . S
H404 C414 0.930 . S
H405 C415 0.930 . S
C406 H400 0.930 . S
C406 C407 1.355 . S
C406 C408 1.415 . S
C407 C406 1.355 . S
C407 C409 1.419 . S
C408 C406 1.415 . S
C408 C413 1.425 1_546 S
C408 C415 1.409 1_546 S
C409 H401 0.930 . S
C409 C407 1.419 . S
C409 C410 1.362 . S
C410 H402 0.930 . S
C410 C409 1.362 . S
C410 C413 1.409 1_546 S
C411 H403 0.930 . S
C411 C412 1.355 . S
C411 C413 1.415 . S
C412 C411 1.355 . S
C412 C414 1.419 . S
C413 C408 1.425 1_564 S
C413 C410 1.409 1_564 S
C413 C411 1.415 . S
C414 H404 0.930 . S
C414 C412 1.419 . S
C414 C415 1.362 . S
C415 H405 0.930 . S
C415 C408 1.409 1_564 S
C415 C414 1.362 . S
H416 C422 0.930 . S
H417 C425 0.930 . S
H418 C426 0.930 . S
H419 C427 0.930 . S
H420 C430 0.930 . S
H421 C431 0.930 . S
C422 H416 0.930 . S
C422 C423 1.355 . S
C422 C424 1.415 . S
C423 C422 1.355 . S
C423 C425 1.419 . S
C424 C422 1.415 . S
C424 C429 1.425 1_545 S
C424 C431 1.409 1_545 S
C425 H417 0.930 . S
C425 C423 1.419 . S
C425 C426 1.362 . S
C426 H418 0.930 . S
C426 C425 1.362 . S
C426 C429 1.409 1_545 S
C427 H419 0.930 . S
C427 C428 1.355 . S
C427 C429 1.415 . S
C428 C427 1.355 . S
C428 C430 1.419 . S
C429 C424 1.425 1_565 S
C429 C426 1.409 1_565 S
C429 C427 1.415 . S
C430 H420 0.930 . S
C430 C428 1.419 . S
C430 C431 1.362 . S
C431 H421 0.930 . S
C431 C424 1.409 1_565 S
C431 C430 1.362 . S
H432 C438 0.930 . S
H433 C441 0.930 . S
H434 C442 0.930 . S
H435 C443 0.930 . S
H436 C446 0.930 . S
H437 C447 0.930 . S
C438 H432 0.930 . S
C438 C439 1.355 . S
C438 C440 1.415 1_556 S
C439 C438 1.355 . S
C439 C441 1.419 . S
C440 C438 1.415 1_554 S
C440 C445 1.425 1_544 S
C440 C447 1.409 . S
C441 H433 0.930 . S
C441 C439 1.419 . S
C441 C442 1.362 1_545 S
C442 H434 0.930 . S
C442 C441 1.362 1_565 S
C442 C445 1.409 . S
C443 H435 0.930 . S
C443 C444 1.355 . S
C443 C445 1.415 1_554 S
C444 C443 1.355 . S
C444 C446 1.419 . S
C445 C440 1.425 1_566 S
C445 C442 1.409 . S
C445 C443 1.415 1_556 S
C446 H436 0.930 . S
C446 C444 1.419 . S
C446 C447 1.362 1_565 S
C447 H437 0.930 . S
C447 C440 1.409 . S
C447 C446 1.362 1_545 S
H448 C454 0.930 . S
H449 C457 0.930 . S
H450 C458 0.930 . S
H451 C459 0.930 . S
H452 C462 0.930 . S
H453 C463 0.930 . S
C454 H448 0.930 . S
C454 C455 1.355 . S
C454 C456 1.415 . S
C455 C454 1.355 . S
C455 C457 1.419 . S
C456 C454 1.415 . S
C456 C461 1.425 1_545 S
C456 C463 1.409 . S
C457 H449 0.930 . S
C457 C455 1.419 . S
C457 C458 1.362 1_545 S
C458 H450 0.930 . S
C458 C457 1.362 1_565 S
C458 C461 1.409 . S
C459 H451 0.930 . S
C459 C460 1.355 . S
C459 C461 1.415 . S
C460 C459 1.355 . S
C460 C462 1.419 . S
C461 C456 1.425 1_565 S
C461 C458 1.409 . S
C461 C459 1.415 . S
C462 H452 0.930 . S
C462 C460 1.419 . S
C462 C463 1.362 1_565 S
C463 H453 0.930 . S
C463 C456 1.409 . S
C463 C462 1.362 1_545 S
H464 C470 0.930 1_554 S
H465 C473 0.930 . S
H466 C474 0.930 . S
H467 C475 0.930 . S
H468 C478 0.930 . S
H469 C479 0.930 . S
C470 H464 0.930 1_556 S
C470 C471 1.355 . S
C470 C472 1.415 . S
C471 C470 1.355 . S
C471 C473 1.419 . S
C472 C470 1.415 . S
C472 C477 1.425 . S
C472 C479 1.409 . S
C473 H465 0.930 . S
C473 C471 1.419 . S
C473 C474 1.362 . S
C474 H466 0.930 . S
C474 C473 1.362 . S
C474 C477 1.409 . S
C475 H467 0.930 . S
C475 C476 1.355 . S
C475 C477 1.415 . S
C476 C475 1.355 . S
C476 C478 1.419 . S
C477 C472 1.425 . S
C477 C474 1.409 . S
C477 C475 1.415 . S
C478 H468 0.930 . S
C478 C476 1.419 . S
C478 C479 1.362 . S
C479 H469 0.930 . S
C479 C472 1.409 . S
C479 C478 1.362 . S
H480 C486 0.930 . S
H481 C489 0.930 . S
H482 C490 0.930 . S
H483 C491 0.930 . S
H484 C494 0.930 . S
H485 C495 0.930 . S
C486 H480 0.930 . S
C486 C487 1.355 . S
C486 C488 1.415 . S
C487 C486 1.355 . S
C487 C489 1.419 . S
C488 C486 1.415 . S
C488 C493 1.425 . S
C488 C495 1.409 . S
C489 H481 0.930 . S
C489 C487 1.419 . S
C489 C490 1.362 . S
C490 H482 0.930 . S
C490 C489 1.362 . S
C490 C493 1.409 . S
C491 H483 0.930 . S
C491 C492 1.355 . S
C491 C493 1.415 . S
C492 C491 1.355 . S
C492 C494 1.419 . S
C493 C488 1.425 . S
C493 C490 1.409 . S
C493 C491 1.415 . S
C494 H484 0.930 . S
C494 C492 1.419 . S
C494 C495 1.362 . S
C495 H485 0.930 . S
C495 C488 1.409 . S
C495 C494 1.362 . S
H496 C502 0.930 . S
H497 C505 0.930 . S
H498 C506 0.930 . S
H499 C507 0.930 1_556 S
H500 C510 0.930 . S
H501 C511 0.930 . S
C502 H496 0.930 . S
C502 C503 1.355 . S
C502 C504 1.415 . S
C503 C502 1.355 . S
C503 C505 1.419 . S
C504 C502 1.415 . S
C504 C509 1.425 . S
C504 C511 1.409 . S
C505 H497 0.930 . S
C505 C503 1.419 . S
C505 C506 1.362 . S
C506 H498 0.930 . S
C506 C505 1.362 . S
C506 C509 1.409 . S
C507 H499 0.930 1_554 S
C507 C508 1.355 . S
C507 C509 1.415 . S
C508 C507 1.355 . S
C508 C510 1.419 . S
C509 C504 1.425 . S
C509 C506 1.409 . S
C509 C507 1.415 . S
C510 H500 0.930 . S
C510 C508 1.419 . S
C510 C511 1.362 . S
C511 H501 0.930 . S
C511 C504 1.409 . S
C511 C510 1.362 . S
H512 C518 0.930 . S
H513 C521 0.930 . S
H514 C522 0.930 . S
H515 C523 0.930 . S
H516 C526 0.930 . S
H517 C527 0.930 . S
C518 H512 0.930 . S
C518 C519 1.355 . S
C518 C520 1.415 . S
C519 C518 1.355 . S
C519 C521 1.419 . S
C520 C518 1.415 . S
C520 C525 1.425 . S
C520 C527 1.409 . S
C521 H513 0.930 . S
C521 C519 1.419 . S
C521 C522 1.362 . S
C522 H514 0.930 . S
C522 C521 1.362 . S
C522 C525 1.409 . S
C523 H515 0.930 . S
C523 C524 1.355 . S
C523 C525 1.415 . S
C524 C523 1.355 . S
C524 C526 1.419 . S
C525 C520 1.425 . S
C525 C522 1.409 . S
C525 C523 1.415 . S
C526 H516 0.930 . S
C526 C524 1.419 . S
C526 C527 1.362 . S
C527 H517 0.930 . S
C527 C520 1.409 . S
C527 C526 1.362 . S
H528 C534 0.930 . S
H529 C537 0.930 . S
H530 C538 0.930 . S
H531 C539 0.930 . S
H532 C542 0.930 . S
H533 C543 0.932 . S
C534 H528 0.930 . S
C534 C535 1.355 . S
C534 C536 1.415 . S
C535 C534 1.355 . S
C535 C537 1.419 . S
C536 C534 1.415 . S
C536 C541 1.425 . S
C536 C543 1.409 . S
C537 H529 0.930 . S
C537 C535 1.419 . S
C537 C538 1.362 . S
C538 H530 0.930 . S
C538 C537 1.362 . S
C538 C541 1.409 . S
C539 H531 0.930 . S
C539 C540 1.355 . S
C539 C541 1.415 . S
C540 C539 1.355 . S
C540 C542 1.419 1_556 S
C541 C536 1.425 . S
C541 C538 1.409 . S
C541 C539 1.415 . S
C542 H532 0.930 . S
C542 C540 1.419 1_554 S
C542 C543 1.362 1_554 S
C543 H533 0.932 . S
C543 C536 1.409 . S
C543 C542 1.362 1_556 S
H544 C550 0.930 . S
H545 C553 0.930 . S
H546 C554 0.930 . S
H547 C555 0.930 . S
H548 C558 0.930 . S
H549 C559 0.930 . S
C550 H544 0.930 . S
C550 C551 1.355 . S
C550 C552 1.415 . S
C551 C550 1.355 . S
C551 C553 1.419 . S
C552 C550 1.415 . S
C552 C557 1.425 . S
C552 C559 1.409 . S
C553 H545 0.930 . S
C553 C551 1.419 . S
C553 C554 1.362 . S
C554 H546 0.930 . S
C554 C553 1.362 . S
C554 C557 1.409 . S
C555 H547 0.930 . S
C555 C556 1.355 . S
C555 C557 1.415 . S
C556 C555 1.355 . S
C556 C558 1.419 . S
C557 C552 1.425 . S
C557 C554 1.409 . S
C557 C555 1.415 . S
C558 H548 0.930 . S
C558 C556 1.419 . S
C558 C559 1.362 . S
C559 H549 0.930 . S
C559 C552 1.409 . S
C559 C558 1.362 . S
H560 C566 0.930 . S
H561 C569 0.930 . S
H562 C570 0.930 . S
H563 C571 0.930 . S
H564 C574 0.930 . S
H565 C575 0.930 . S
C566 H560 0.930 . S
C566 C567 1.355 . S
C566 C568 1.415 . S
C567 C566 1.355 . S
C567 C569 1.419 1_554 S
C568 C566 1.415 . S
C568 C573 1.425 . S
C568 C575 1.409 . S
C569 H561 0.930 . S
C569 C567 1.419 1_556 S
C569 C570 1.362 1_556 S
C570 H562 0.930 . S
C570 C569 1.362 1_554 S
C570 C573 1.409 . S
C571 H563 0.930 . S
C571 C572 1.355 . S
C571 C573 1.415 . S
C572 C571 1.355 . S
C572 C574 1.419 . S
C573 C568 1.425 . S
C573 C570 1.409 . S
C573 C571 1.415 . S
C574 H564 0.930 . S
C574 C572 1.419 . S
C574 C575 1.362 . S
C575 H565 0.930 . S
C575 C568 1.409 . S
C575 C574 1.362 . S
H576 C582 0.930 . S
H577 C585 0.930 . S
H578 C586 0.930 . S
H579 C587 0.930 . S
H580 C590 0.930 . S
H581 C591 0.930 . S
C582 H576 0.930 . S
C582 C583 1.355 . S
C582 C584 1.415 . S
C583 C582 1.355 . S
C583 C585 1.419 . S
C584 C582 1.415 . S
C584 C589 1.425 . S
C584 C591 1.409 . S
C585 H577 0.930 . S
C585 C583 1.419 . S
C585 C586 1.362 . S
C586 H578 0.930 . S
C586 C585 1.362 . S
C586 C589 1.409 . S
C587 H579 0.930 . S
C587 C588 1.355 . S
C587 C589 1.415 . S
C588 C587 1.355 . S
C588 C590 1.419 . S
C589 C584 1.425 . S
C589 C586 1.409 . S
C589 C587 1.415 . S
C590 H580 0.930 . S
C590 C588 1.419 . S
C590 C591 1.362 . S
C591 H581 0.930 . S
C591 C584 1.409 . S
C591 C590 1.362 . S
C279 C33 1.563 . S
C284 C135 1.565 . S
C295 C67 1.541 . S
C300 C101 1.539 . S
C311 C271 1.565 . S
C316 C169 1.566 . S
C327 C203 1.538 . S
C332 C237 1.539 . S
C343 C70 2.049 . S
C348 C2 2.057 . S
C359 C104 2.046 . S
C364 C36 2.057 . S
C375 C39 1.349 . S
C380 C107 1.350 . S
C391 C5 1.339 . S
C396 C73 1.359 . S
C407 C206 2.056 . S
C412 C138 2.045 . S
C423 C172 2.047 . S
C428 C240 2.057 . S
C439 C175 1.360 . S
C444 C243 1.337 . S
C455 C209 1.327 . S
C460 C141 1.366 . S
C471 C9 1.288 1_556 S
C476 C190 1.359 . S
C487 C43 1.349 . S
C492 C156 1.361 . S
C503 C258 1.362 . S
C508 C77 1.356 1_554 S
C519 C111 1.323 . S
C524 C224 1.360 . S
C535 C54 1.359 . S
C540 C145 1.284 1_556 S
C551 C179 1.309 . S
C556 C20 1.360 . S
C567 C213 1.348 1_554 S
C572 C122 1.361 . S
C583 C247 1.351 . S
C588 C88 1.361 . S
