# Generated by pormake.
# Topology wfa, (4)-cn, num edge types: 1
# Building blocks:
#     Node 0, Type 0, BuildingBlock: QUQFOY_clean_sbu_1, # of connection points: 4
#     Node 1, Type 0, BuildingBlock: QUQFOY_clean_sbu_1, # of connection points: 4
#     Node 2, Type 0, BuildingBlock: QUQFOY_clean_sbu_1, # of connection points: 4
#     Node 3, Type 0, BuildingBlock: QUQFOY_clean_sbu_1, # of connection points: 4
#     Node 4, Type 0, BuildingBlock: QUQFOY_clean_sbu_1, # of connection points: 4
#     Node 5, Type 0, BuildingBlock: QUQFOY_clean_sbu_1, # of connection points: 4
#     Node 6, Type 0, BuildingBlock: QUQFOY_clean_sbu_1, # of connection points: 4
#     Node 7, Type 0, BuildingBlock: QUQFOY_clean_sbu_1, # of connection points: 4
#     Node 8, Type 0, BuildingBlock: QUQFOY_clean_sbu_1, # of connection points: 4
#     Node 9, Type 0, BuildingBlock: QUQFOY_clean_sbu_1, # of connection points: 4
#     Node 10, Type 0, BuildingBlock: QUQFOY_clean_sbu_1, # of connection points: 4
#     Node 11, Type 0, BuildingBlock: QUQFOY_clean_sbu_1, # of connection points: 4
#     Node 12, Type 0, BuildingBlock: QUQFOY_clean_sbu_1, # of connection points: 4
#     Node 13, Type 0, BuildingBlock: QUQFOY_clean_sbu_1, # of connection points: 4
#     Node 14, Type 0, BuildingBlock: QUQFOY_clean_sbu_1, # of connection points: 4
#     Node 15, Type 0, BuildingBlock: QUQFOY_clean_sbu_1, # of connection points: 4
#     Edge 16, Type (0, 0), BuildingBlock: MIFKUJ_clean_linker_0, # of connection points: 2
#     Edge 17, Type (0, 0), BuildingBlock: MIFKUJ_clean_linker_0, # of connection points: 2
#     Edge 18, Type (0, 0), BuildingBlock: MIFKUJ_clean_linker_0, # of connection points: 2
#     Edge 19, Type (0, 0), BuildingBlock: MIFKUJ_clean_linker_0, # of connection points: 2
#     Edge 20, Type (0, 0), BuildingBlock: MIFKUJ_clean_linker_0, # of connection points: 2
#     Edge 21, Type (0, 0), BuildingBlock: MIFKUJ_clean_linker_0, # of connection points: 2
#     Edge 22, Type (0, 0), BuildingBlock: MIFKUJ_clean_linker_0, # of connection points: 2
#     Edge 23, Type (0, 0), BuildingBlock: MIFKUJ_clean_linker_0, # of connection points: 2
#     Edge 24, Type (0, 0), BuildingBlock: MIFKUJ_clean_linker_0, # of connection points: 2
#     Edge 25, Type (0, 0), BuildingBlock: MIFKUJ_clean_linker_0, # of connection points: 2
#     Edge 26, Type (0, 0), BuildingBlock: MIFKUJ_clean_linker_0, # of connection points: 2
#     Edge 27, Type (0, 0), BuildingBlock: MIFKUJ_clean_linker_0, # of connection points: 2
#     Edge 28, Type (0, 0), BuildingBlock: MIFKUJ_clean_linker_0, # of connection points: 2
#     Edge 29, Type (0, 0), BuildingBlock: MIFKUJ_clean_linker_0, # of connection points: 2
#     Edge 30, Type (0, 0), BuildingBlock: MIFKUJ_clean_linker_0, # of connection points: 2
#     Edge 31, Type (0, 0), BuildingBlock: MIFKUJ_clean_linker_0, # of connection points: 2
#     Edge 32, Type (0, 0), BuildingBlock: MIFKUJ_clean_linker_0, # of connection points: 2
#     Edge 33, Type (0, 0), BuildingBlock: MIFKUJ_clean_linker_0, # of connection points: 2
#     Edge 34, Type (0, 0), BuildingBlock: MIFKUJ_clean_linker_0, # of connection points: 2
#     Edge 35, Type (0, 0), BuildingBlock: MIFKUJ_clean_linker_0, # of connection points: 2
#     Edge 36, Type (0, 0), BuildingBlock: MIFKUJ_clean_linker_0, # of connection points: 2
#     Edge 37, Type (0, 0), BuildingBlock: MIFKUJ_clean_linker_0, # of connection points: 2
#     Edge 38, Type (0, 0), BuildingBlock: MIFKUJ_clean_linker_0, # of connection points: 2
#     Edge 39, Type (0, 0), BuildingBlock: MIFKUJ_clean_linker_0, # of connection points: 2
#     Edge 40, Type (0, 0), BuildingBlock: MIFKUJ_clean_linker_0, # of connection points: 2
#     Edge 41, Type (0, 0), BuildingBlock: MIFKUJ_clean_linker_0, # of connection points: 2
#     Edge 42, Type (0, 0), BuildingBlock: MIFKUJ_clean_linker_0, # of connection points: 2
#     Edge 43, Type (0, 0), BuildingBlock: MIFKUJ_clean_linker_0, # of connection points: 2
#     Edge 44, Type (0, 0), BuildingBlock: MIFKUJ_clean_linker_0, # of connection points: 2
#     Edge 45, Type (0, 0), BuildingBlock: MIFKUJ_clean_linker_0, # of connection points: 2
#     Edge 46, Type (0, 0), BuildingBlock: MIFKUJ_clean_linker_0, # of connection points: 2
#     Edge 47, Type (0, 0), BuildingBlock: MIFKUJ_clean_linker_0, # of connection points: 2
# Relax obj value: 0.088
# Max RMSD: 0.152
# Mean RMSD: 0.152
data_MOF--net-wfa--node1-QUQFOY_clean_sbu_1--edge1-MIFKUJ_clean_linker_0
_symmetry_space_group_name_H-M    P1
_symmetry_Int_Tables_number       1
_symmetry_cell_setting            triclinic
loop_
_symmetry_equiv_pos_as_xyz
'x, y, z'
_cell_length_a     66.140526
_cell_length_b     66.173239
_cell_length_c     30.992756
_cell_angle_alpha  90.028087
_cell_angle_beta   89.991759
_cell_angle_gamma 89.957636
loop_
_atom_site_label
_atom_site_type_symbol
_atom_site_fract_x
_atom_site_fract_y
_atom_site_fract_z
_atom_type_partial_charge
O0 O 0.69306 0.01961 0.08141 0.0
Cd1 Cd 0.67601 0.03655 0.03943 0.0
Cd2 Cd 0.64717 0.01559 0.08264 0.0
O3 O 0.67057 0.99806 0.10687 0.0
O4 O 0.69681 0.0469 0.99833 0.0
O5 O 0.67251 0.02599 0.97859 0.0
C6 C 0.68875 0.03581 0.96883 0.0
C7 C 0.61534 0.00422 0.0591 0.0
C8 C 0.6887 0.00451 0.10496 0.0
C9 C 0.65295 0.06026 0.10201 0.0
O10 O 0.64602 0.04309 0.11276 0.0
O11 O 0.66366 0.0621 0.06814 0.0
O12 O 0.62064 1.00319 0.09907 0.0
O13 O 0.62874 0.01033 0.03168 0.0
O14 O 0.48963 0.689 0.09431 0.0
Cd15 Cd 0.47083 0.68118 0.04459 0.0
Cd16 Cd 0.47832 0.64215 0.08237 0.0
O17 O 0.49434 0.65958 0.12658 0.0
O18 O 0.4687 0.70758 0.01378 0.0
O19 O 0.48112 0.68023 0.98297 0.0
C20 C 0.47696 0.69926 0.98066 0.0
C21 C 0.48925 0.60927 0.06412 0.0
C22 C 0.49687 0.67865 0.12514 0.0
C23 C 0.43536 0.65898 0.08125 0.0
O24 O 0.44748 0.64446 0.08845 0.0
O25 O 0.44148 0.67527 0.06389 0.0
O26 O 0.48282 0.61368 0.10215 0.0
O27 O 0.4904 0.62381 0.03646 0.0
O28 O 0.81678 0.48738 0.096 0.0
Cd29 Cd 0.82522 0.46786 0.04804 0.0
Cd30 Cd 0.86425 0.47829 0.08579 0.0
O31 O 0.8459 0.49527 0.12672 0.0
O32 O 0.79851 0.46341 0.01959 0.0
O33 O 0.82441 0.47691 0.98545 0.0
C34 C 0.80564 0.47156 0.98515 0.0
C35 C 0.89678 0.48948 0.06565 0.0
C36 C 0.82669 0.4965 0.12517 0.0
C37 C 0.84941 0.43455 0.08865 0.0
O38 O 0.86303 0.44762 0.09605 0.0
O39 O 0.83305 0.43931 0.06967 0.0
O40 O 0.8925 0.48472 0.10485 0.0
O41 O 0.88226 0.4889 0.0378 0.0
O42 O 0.02341 0.81639 0.0852 0.0
Cd43 Cd 0.03973 0.832 0.03996 0.0
Cd44 Cd 0.01845 0.86309 0.08049 0.0
O45 O 1.00295 0.83982 0.11142 0.0
O46 O 0.0497 0.81019 1.00081 0.0
O47 O 0.02797 0.83359 0.97989 0.0
C48 C 0.03789 0.81724 0.97139 0.0
C49 C 0.00504 0.89424 0.05751 0.0
C50 C 0.00909 0.82155 0.11023 0.0
C51 C 0.06415 0.85948 0.09339 0.0
O52 O 0.04711 0.86691 0.10364 0.0
O53 O 0.0654 0.84587 0.0645 0.0
O54 O 0.00567 0.88936 0.09773 0.0
O55 O 0.0103 0.88063 0.02975 0.0
O56 O 0.18728 0.98338 0.42109 0.0
Cd57 Cd 0.17805 0.96798 0.47511 0.0
Cd58 Cd 0.13921 0.98092 0.43523 0.0
O59 O 0.159 0.9952 0.39239 0.0
O60 O 0.20476 0.96298 0.50329 0.0
O61 O 0.18066 0.9808 0.53441 0.0
C62 C 0.19891 0.97386 0.53537 0.0
C63 C 0.10651 0.99346 0.45091 0.0
C64 C 0.17819 0.99323 0.39176 0.0
C65 C 0.15038 0.93568 0.44328 0.0
O66 O 0.13888 0.94996 0.43105 0.0
O67 O 0.16682 0.93933 0.46308 0.0
O68 O 0.1114 0.98733 0.41289 0.0
O69 O 0.12063 0.99386 0.47968 0.0
O70 O 0.51646 0.18811 0.4111 0.0
Cd71 Cd 0.53441 0.17995 0.46204 0.0
Cd72 Cd 0.52513 0.14074 0.42506 0.0
O73 O 0.50914 0.15859 0.38157 0.0
O74 O 0.53822 0.20684 0.49001 0.0
O75 O 0.52379 0.18127 0.52349 0.0
C76 C 0.52929 0.19999 0.52381 0.0
C77 C 0.5136 0.10834 0.44514 0.0
C78 C 0.50811 0.17781 0.3815 0.0
C79 C 0.5688 0.15571 0.426 0.0
O80 O 0.55594 0.14203 0.41737 0.0
O81 O 0.56351 0.17203 0.44453 0.0
O82 O 0.51902 0.11239 0.40622 0.0
O83 O 0.51375 0.12299 0.47268 0.0
O84 O 0.31623 0.52231 0.41184 0.0
Cd85 Cd 0.32444 0.54112 0.46128 0.0
Cd86 Cd 0.36392 0.53062 0.42552 0.0
O87 O 0.34574 0.51452 0.38264 0.0
O88 O 0.29769 0.5452 0.48996 0.0
O89 O 0.32364 0.53129 0.52325 0.0
C90 C 0.30486 0.5366 0.52389 0.0
C91 C 0.39634 0.51858 0.44488 0.0
C92 C 0.3265 0.5135 0.38276 0.0
C93 C 0.34952 0.57461 0.4241 0.0
O94 O 0.36318 0.56147 0.41728 0.0
O95 O 0.33278 0.5698 0.44147 0.0
O96 O 0.39219 0.52432 0.40622 0.0
O97 O 0.38176 0.51872 0.47259 0.0
O98 O 0.98939 0.32014 0.41488 0.0
Cd99 Cd 0.9708 0.32708 0.46583 0.0
Cd100 Cd 0.97813 0.36752 0.42923 0.0
O101 O 0.99336 0.34998 0.38366 0.0
O102 O 0.96799 0.29983 0.49323 0.0
O103 O 0.9809 0.32588 0.52777 0.0
C104 C 0.97621 0.30695 0.52762 0.0
C105 C 0.98907 0.40063 0.44665 0.0
C106 C 0.99606 0.3309 0.38407 0.0
C107 C 0.9352 0.35062 0.43177 0.0
O108 O 0.94725 0.36524 0.42508 0.0
O109 O 0.94146 0.33402 0.44759 0.0
O110 O 0.98244 0.39604 0.4089 0.0
O111 O 0.9905 0.38617 0.47443 0.0
O112 O 0.32332 0.99311 0.91567 0.0
Cd113 Cd 0.32991 0.97454 0.96669 0.0
Cd114 Cd 0.37025 0.98103 0.92951 0.0
O115 O 0.35319 0.99723 0.88476 0.0
O116 O 0.30242 0.97262 0.99315 0.0
O117 O 0.32861 0.9846 0.02873 0.0
C118 C 0.30952 0.9806 0.02778 0.0
C119 C 0.40382 0.99055 0.94652 0.0
C120 C 0.33411 0.99995 0.88511 0.0
C121 C 0.35214 0.93851 0.9314 0.0
O122 O 0.36691 0.95029 0.92404 0.0
O123 O 0.33589 0.94503 0.9484 0.0
O124 O 0.39878 0.98451 0.90859 0.0
O125 O 0.38957 0.99223 0.97478 0.0
O126 O 0.51738 0.32058 0.91048 0.0
Cd127 Cd 0.53693 0.32736 0.95959 0.0
Cd128 Cd 0.52934 0.36755 0.92486 0.0
O129 O 0.51293 0.35056 0.88042 0.0
O130 O 0.53978 0.30013 0.98663 0.0
O131 O 0.52774 0.32638 0.02206 0.0
C132 C 0.53208 0.30736 0.02146 0.0
C133 C 0.5185 0.40039 0.94397 0.0
C134 C 0.51006 0.33152 0.88068 0.0
C135 C 0.57221 0.35049 0.92361 0.0
O136 O 0.56023 0.36529 0.91823 0.0
O137 O 0.56601 0.33384 0.93918 0.0
O138 O 0.52486 0.39616 0.9058 0.0
O139 O 0.51742 0.38572 0.97133 0.0
O140 O 0.18591 0.51524 0.90869 0.0
Cd141 Cd 0.17723 0.53399 0.95803 0.0
Cd142 Cd 0.13869 0.52275 0.92229 0.0
O143 O 0.15663 0.50569 0.88103 0.0
O144 O 0.2039 0.53838 0.98666 0.0
O145 O 0.17807 0.52444 0.02027 0.0
C146 C 0.1968 0.52992 0.02079 0.0
C147 C 0.10632 0.51163 0.94393 0.0
C148 C 0.17589 0.50555 0.88054 0.0
C149 C 0.15282 0.56673 0.91679 0.0
O150 O 0.13969 0.55316 0.90928 0.0
O151 O 0.16888 0.56259 0.93756 0.0
O152 O 0.11036 0.51596 0.9044 0.0
O153 O 0.12098 0.51264 0.97136 0.0
O154 O 0.9916 0.18679 0.91396 0.0
Cd155 Cd 0.9732 0.17802 0.96387 0.0
Cd156 Cd 0.98571 0.13903 0.92783 0.0
O157 O 1.00251 0.15769 0.88733 0.0
O158 O 0.96811 0.20442 0.99353 0.0
O159 O 0.98353 0.17899 0.02552 0.0
C160 C 0.9773 0.19747 0.02698 0.0
C161 C 0.99625 0.10602 0.94691 0.0
C162 C 1.00185 0.17695 0.88636 0.0
C163 C 0.94128 0.15254 0.92285 0.0
O164 O 0.95534 0.13998 0.915 0.0
O165 O 0.94478 0.16867 0.94392 0.0
O166 O 0.99234 0.11092 0.90763 0.0
O167 O 0.99547 0.1202 0.97547 0.0
O168 O 0.81547 0.02904 0.58083 0.0
Cd169 Cd 0.83013 0.04396 0.53209 0.0
Cd170 Cd 0.86363 0.02887 0.57838 0.0
O171 O 0.84114 0.01473 0.615 0.0
O172 O 0.8083 0.05019 0.48946 0.0
O173 O 0.83352 0.02928 0.47533 0.0
C174 C 0.8168 0.03765 0.46333 0.0
C175 C 0.89515 0.01457 0.55995 0.0
C176 C 0.8222 0.01799 0.61115 0.0
C177 C 0.85621 0.07433 0.57592 0.0
O178 O 0.86615 0.05928 0.58993 0.0
O179 O 0.84145 0.0719 0.55016 0.0
O180 O 0.89048 0.0187 0.59935 0.0
O181 O 0.88127 0.01704 0.53108 0.0
O182 O 0.4854 0.81872 0.59219 0.0
Cd183 Cd 0.46621 0.8282 0.54452 0.0
Cd184 Cd 0.47764 0.86635 0.58282 0.0
O185 O 0.49451 0.84747 0.62288 0.0
O186 O 0.46166 0.80218 0.51347 0.0
O187 O 0.47585 0.82858 0.48244 0.0
C188 C 0.47035 0.80989 0.4802 0.0
C189 C 0.48949 0.89849 0.56184 0.0
C190 C 0.49507 0.82824 0.62112 0.0
C191 C 0.43349 0.85278 0.58593 0.0
O192 O 0.447 0.86589 0.59402 0.0
O193 O 0.43775 0.83652 0.56604 0.0
O194 O 0.48512 0.8944 0.60136 0.0
O195 O 0.48815 0.88397 0.53412 0.0
O196 O 0.68526 0.48714 0.59593 0.0
Cd197 Cd 0.6776 0.46898 0.54494 0.0
Cd198 Cd 0.63821 0.4765 0.5817 0.0
O199 O 0.65552 0.49223 0.62665 0.0
O200 O 0.70426 0.46692 0.51503 0.0
O201 O 0.67724 0.47973 0.48365 0.0
C202 C 0.69627 0.47546 0.48189 0.0
C203 C 0.60542 0.4877 0.56305 0.0
C204 C 0.67466 0.49438 0.6264 0.0
C205 C 0.6548 0.43343 0.57972 0.0
O206 O 0.64039 0.44564 0.58729 0.0
O207 O 0.67117 0.43952 0.56259 0.0
O208 O 0.60967 0.48125 0.60113 0.0
O209 O 0.62005 0.48868 0.53555 0.0
O210 O 0.03644 0.68894 0.58183 0.0
Cd211 Cd 0.04916 0.6749 0.52961 0.0
Cd212 Cd 0.03424 0.64163 0.57666 0.0
O213 O 0.02103 0.66389 0.61546 0.0
O214 O 0.0547 0.69822 0.49049 0.0
O215 O 0.03373 0.67362 0.47319 0.0
C216 C 0.04188 0.69077 0.46361 0.0
C217 C 0.01906 0.61047 0.55897 0.0
C218 C 0.0256 0.68258 0.61278 0.0
C219 C 0.07994 0.64826 0.56876 0.0
O220 O 0.06497 0.63889 0.58487 0.0
O221 O 0.07727 0.66286 0.54273 0.0
O222 O 0.02432 0.61477 0.59793 0.0
O223 O 0.02104 0.62449 0.53025 0.0
H224 H 0.59114 0.18541 0.38825 0.0
H225 H 0.61749 0.17995 0.33382 0.0
H226 H 0.61753 0.11624 0.3632 0.0
H227 H 0.59107 0.12157 0.41684 0.0
H228 H 0.65586 0.13094 0.33585 0.0
H229 H 0.5836 0.13278 0.29424 0.0
H230 H 0.55088 0.1506 0.28951 0.0
H231 H 0.57894 0.19854 0.21795 0.0
H232 H 0.61191 0.18106 0.22273 0.0
H233 H 0.64338 0.05717 0.18647 0.0
H234 H 0.64087 0.08375 0.23984 0.0
H235 H 0.65481 0.12839 0.143 0.0
H236 H 0.65784 0.10135 0.08839 0.0
H237 H 0.61958 0.13662 0.19618 0.0
H238 H 0.68863 0.123 0.21405 0.0
H239 H 0.72011 0.10332 0.22065 0.0
H240 H 0.69835 0.07643 0.33776 0.0
H241 H 0.66648 0.09544 0.33131 0.0
C242 C 0.59748 0.17042 0.38452 0.0
C243 C 0.58899 0.15385 0.40637 0.0
C244 C 0.61246 0.16731 0.35326 0.0
C245 C 0.61922 0.14766 0.34411 0.0
C246 C 0.61252 0.13153 0.36978 0.0
C247 C 0.59738 0.13457 0.4004 0.0
C248 C 0.62981 0.1429 0.30326 0.0
C249 C 0.6482 0.13241 0.30507 0.0
C250 C 0.62003 0.14546 0.26297 0.0
C251 C 0.60021 0.15576 0.25927 0.0
C252 C 0.58279 0.14716 0.27766 0.0
C253 C 0.56421 0.15718 0.27495 0.0
C254 C 0.56285 0.1757 0.25349 0.0
C255 C 0.58004 0.1842 0.23456 0.0
C256 C 0.59867 0.17425 0.23728 0.0
C257 C 0.64587 0.07261 0.1761 0.0
C258 C 0.65061 0.07716 0.13294 0.0
C259 C 0.64466 0.08778 0.20693 0.0
C260 C 0.64797 0.10798 0.19554 0.0
C261 C 0.65244 0.11282 0.15242 0.0
C262 C 0.65405 0.09742 0.12134 0.0
C263 C 0.64514 0.12363 0.22913 0.0
C264 C 0.62802 0.13606 0.22618 0.0
C265 C 0.65606 0.12269 0.26841 0.0
C266 C 0.67509 0.11078 0.2722 0.0
C267 C 0.69044 0.11277 0.24104 0.0
C268 C 0.70839 0.10173 0.24479 0.0
C269 C 0.71128 0.08874 0.27975 0.0
C270 C 0.69616 0.08664 0.31088 0.0
C271 C 0.67812 0.09752 0.30714 0.0
H272 H 0.72518 0.0802 0.28259 0.0
H273 H 0.54846 0.18342 0.2515 0.0
H274 H 0.38209 0.59957 0.42722 0.0
H275 H 0.39059 0.62514 0.37335 0.0
H276 H 0.33198 0.61711 0.31436 0.0
H277 H 0.32302 0.5928 0.37021 0.0
H278 H 0.39655 0.61433 0.29875 0.0
H279 H 0.32145 0.65154 0.23804 0.0
H280 H 0.29091 0.66735 0.26882 0.0
H281 H 0.32328 0.68095 0.38533 0.0
H282 H 0.35409 0.66548 0.35507 0.0
H283 H 0.41019 0.62674 0.08773 0.0
H284 H 0.38696 0.62112 0.1477 0.0
H285 H 0.3943 0.68308 0.18772 0.0
H286 H 0.41703 0.68898 0.12672 0.0
H287 H 0.35668 0.66493 0.21674 0.0
H288 H 0.4285 0.65416 0.22106 0.0
H289 H 0.46096 0.64133 0.19296 0.0
H290 H 0.43853 0.58052 0.1995 0.0
H291 H 0.40578 0.59305 0.22685 0.0
C292 C 0.37068 0.60416 0.40412 0.0
C293 C 0.35192 0.59433 0.40282 0.0
C294 C 0.37557 0.61862 0.37304 0.0
C295 C 0.36208 0.62295 0.33916 0.0
C296 C 0.34261 0.61443 0.34029 0.0
C297 C 0.33747 0.60045 0.37231 0.0
C298 C 0.36965 0.63288 0.2991 0.0
C299 C 0.38783 0.62561 0.28148 0.0
C300 C 0.3585 0.6477 0.27603 0.0
C301 C 0.34006 0.6572 0.29435 0.0
C302 C 0.32209 0.65799 0.27014 0.0
C303 C 0.30472 0.66688 0.28752 0.0
C304 C 0.30514 0.6751 0.32904 0.0
C305 C 0.32295 0.6745 0.35323 0.0
C306 C 0.34037 0.66564 0.336 0.0
C307 C 0.4059 0.63946 0.10777 0.0
C308 C 0.41557 0.6582 0.10301 0.0
C309 C 0.39267 0.63624 0.14213 0.0
C310 C 0.3894 0.65154 0.17276 0.0
C311 C 0.39669 0.67107 0.16452 0.0
C312 C 0.40967 0.67442 0.12953 0.0
C313 C 0.38302 0.64587 0.21697 0.0
C314 C 0.36527 0.65388 0.23493 0.0
C315 C 0.39483 0.63219 0.24136 0.0
C316 C 0.41465 0.62455 0.22569 0.0
C317 C 0.43045 0.63807 0.21625 0.0
C318 C 0.4489 0.63085 0.20047 0.0
C319 C 0.4518 0.61012 0.19444 0.0
C320 C 0.43625 0.59657 0.20418 0.0
C321 C 0.41775 0.60372 0.21983 0.0
H322 H 0.4661 0.60454 0.18239 0.0
H323 H 0.29167 0.68197 0.34244 0.0
H324 H 0.88128 0.40871 0.08596 0.0
H325 H 0.88933 0.38341 0.14076 0.0
H326 H 0.83115 0.39355 0.20035 0.0
H327 H 0.82263 0.41763 0.14364 0.0
H328 H 0.89566 0.39513 0.21486 0.0
H329 H 0.82024 0.35982 0.27823 0.0
H330 H 0.78928 0.3444 0.24858 0.0
H331 H 0.82093 0.3292 0.13202 0.0
H332 H 0.85215 0.34426 0.16116 0.0
H333 H 0.91056 0.38337 0.4259 0.0
H334 H 0.88698 0.38932 0.36669 0.0
H335 H 0.89265 0.32706 0.3275 0.0
H336 H 0.91576 0.32085 0.38767 0.0
H337 H 0.85538 0.34579 0.29929 0.0
H338 H 0.92737 0.35541 0.29326 0.0
H339 H 0.9602 0.36798 0.3198 0.0
H340 H 0.93861 0.42906 0.31133 0.0
H341 H 0.90549 0.41681 0.28562 0.0
C342 C 0.86984 0.40463 0.10942 0.0
C343 C 0.85134 0.41497 0.11064 0.0
C344 C 0.87447 0.39033 0.14101 0.0
C345 C 0.861 0.38669 0.17529 0.0
C346 C 0.84175 0.39572 0.17413 0.0
C347 C 0.83685 0.40955 0.14163 0.0
C348 C 0.8685 0.37701 0.21566 0.0
C349 C 0.88684 0.38413 0.23271 0.0
C350 C 0.8572 0.36259 0.23944 0.0
C351 C 0.83852 0.35332 0.22181 0.0
C352 C 0.82063 0.35309 0.24636 0.0
C353 C 0.80302 0.34444 0.22961 0.0
C354 C 0.80312 0.33587 0.1884 0.0
C355 C 0.82085 0.3359 0.16388 0.0
C356 C 0.8385 0.34453 0.18047 0.0
C357 C 0.90585 0.37068 0.40622 0.0
C358 C 0.91521 0.35176 0.41086 0.0
C359 C 0.89242 0.37409 0.3723 0.0
C360 C 0.88859 0.35876 0.34204 0.0
C361 C 0.89551 0.3391 0.35038 0.0
C362 C 0.9087 0.33558 0.3849 0.0
C363 C 0.88202 0.3644 0.29794 0.0
C364 C 0.86406 0.35658 0.28059 0.0
C365 C 0.89391 0.37774 0.2729 0.0
C366 C 0.9139 0.38518 0.28787 0.0
C367 C 0.92958 0.37151 0.29736 0.0
C368 C 0.94824 0.37858 0.31223 0.0
C369 C 0.95148 0.39931 0.31724 0.0
C370 C 0.93606 0.41301 0.30745 0.0
C371 C 0.91735 0.40602 0.29274 0.0
H372 H 0.96596 0.40477 0.32855 0.0
H373 H 0.78947 0.32919 0.17549 0.0
H374 H 0.09976 0.83851 0.10659 0.0
H375 H 0.12416 0.84462 0.165 0.0
H376 H 0.09109 0.89834 0.20125 0.0
H377 H 0.06786 0.89303 0.14233 0.0
H378 H 0.12671 0.90549 0.21615 0.0
H379 H 0.08329 0.84778 0.24638 0.0
H380 H 0.06984 0.81355 0.23305 0.0
H381 H 0.12956 0.7887 0.2453 0.0
H382 H 0.14337 0.82285 0.25826 0.0
H383 H 0.11364 0.91921 0.42705 0.0
H384 H 0.10714 0.89549 0.36865 0.0
H385 H 0.17094 0.88326 0.35823 0.0
H386 H 0.17762 0.90711 0.4169 0.0
H387 H 0.13083 0.85106 0.32596 0.0
H388 H 0.16774 0.91794 0.31197 0.0
H389 H 0.16994 0.9536 0.33493 0.0
H390 H 0.10771 0.96259 0.30048 0.0
H391 H 0.10513 0.92696 0.27787 0.0
C392 C 0.09823 0.85199 0.12616 0.0
C393 C 0.08173 0.86515 0.12025 0.0
C394 C 0.112 0.85532 0.15991 0.0
C395 C 0.10924 0.87166 0.18841 0.0
C396 C 0.09368 0.88557 0.18005 0.0
C397 C 0.08025 0.88246 0.14626 0.0
C398 C 0.12109 0.87397 0.229 0.0
C399 C 0.12792 0.89341 0.23969 0.0
C400 C 0.12266 0.85833 0.26023 0.0
C401 C 0.11439 0.83785 0.25262 0.0
C402 C 0.09355 0.83501 0.24596 0.0
C403 C 0.08587 0.81564 0.23851 0.0
C404 C 0.09886 0.79898 0.23811 0.0
C405 C 0.11954 0.80164 0.24544 0.0
C406 C 0.1273 0.82099 0.25282 0.0
C407 C 0.12619 0.91061 0.41409 0.0
C408 C 0.14617 0.9154 0.42561 0.0
C409 C 0.12244 0.89696 0.38079 0.0
C410 C 0.13861 0.88803 0.35862 0.0
C411 C 0.15828 0.89005 0.37504 0.0
C412 C 0.16207 0.90373 0.40862 0.0
C413 C 0.13549 0.88262 0.31284 0.0
C414 C 0.13042 0.86276 0.30147 0.0
C415 C 0.13423 0.89812 0.28153 0.0
C416 C 0.13627 0.91977 0.29336 0.0
C417 C 0.15454 0.92752 0.30947 0.0
C418 C 0.15585 0.94773 0.32238 0.0
C419 C 0.13895 0.96033 0.3192 0.0
C420 C 0.12078 0.95281 0.30287 0.0
C421 C 0.11942 0.93264 0.28991 0.0
H422 H 0.13985 0.97591 0.32938 0.0
H423 H 0.0929 0.78401 0.23216 0.0
H424 H 0.38415 0.913 0.92421 0.0
H425 H 0.3892 0.8897 0.86412 0.0
H426 H 0.32695 0.8974 0.82634 0.0
H427 H 0.32163 0.92022 0.88741 0.0
H428 H 0.34468 0.85979 0.79638 0.0
H429 H 0.3558 0.9315 0.79215 0.0
H430 H 0.36905 0.96396 0.81921 0.0
H431 H 0.42971 0.94119 0.81011 0.0
H432 H 0.41678 0.90844 0.7838 0.0
H433 H 0.40854 0.88535 0.58392 0.0
H434 H 0.38327 0.89376 0.63862 0.0
H435 H 0.39169 0.83503 0.69672 0.0
H436 H 0.41569 0.82619 0.64004 0.0
H437 H 0.39484 0.89946 0.71282 0.0
H438 H 0.35765 0.82451 0.77408 0.0
H439 H 0.34138 0.7942 0.74351 0.0
H440 H 0.32705 0.82699 0.62797 0.0
H441 H 0.34298 0.85758 0.65804 0.0
C442 C 0.37125 0.90878 0.90466 0.0
C443 C 0.3526 0.91862 0.90999 0.0
C444 C 0.37415 0.89551 0.87022 0.0
C445 C 0.35859 0.89234 0.84013 0.0
C446 C 0.33916 0.89974 0.84909 0.0
C447 C 0.33614 0.91277 0.88413 0.0
C448 C 0.3639 0.88598 0.79569 0.0
C449 C 0.35564 0.86834 0.77785 0.0
C450 C 0.37745 0.89774 0.77088 0.0
C451 C 0.38531 0.91748 0.78634 0.0
C452 C 0.37195 0.93337 0.79623 0.0
C453 C 0.3794 0.95182 0.8114 0.0
C454 C 0.40021 0.95463 0.81635 0.0
C455 C 0.4136 0.93898 0.80625 0.0
C456 C 0.40622 0.92047 0.79121 0.0
C457 C 0.40409 0.8739 0.60701 0.0
C458 C 0.41392 0.85514 0.60783 0.0
C459 C 0.3898 0.87874 0.63855 0.0
C460 C 0.38569 0.86518 0.67242 0.0
C461 C 0.39421 0.84571 0.67083 0.0
C462 C 0.40801 0.84063 0.63836 0.0
C463 C 0.37612 0.87271 0.71293 0.0
C464 C 0.38366 0.89078 0.73046 0.0
C465 C 0.36143 0.86162 0.73644 0.0
C466 C 0.35167 0.84332 0.71825 0.0
C467 C 0.35094 0.8253 0.74225 0.0
C468 C 0.3418 0.80805 0.72497 0.0
C469 C 0.33324 0.80866 0.68378 0.0
C470 C 0.33376 0.82652 0.65981 0.0
C471 C 0.34288 0.84381 0.67693 0.0
H472 H 0.32617 0.79529 0.67047 0.0
H473 H 0.40598 0.96895 0.82783 0.0
H474 H 0.62184 0.40937 0.58907 0.0
H475 H 0.61687 0.38594 0.64887 0.0
H476 H 0.68007 0.39044 0.68142 0.0
H477 H 0.68527 0.41347 0.6207 0.0
H478 H 0.65995 0.35293 0.71153 0.0
H479 H 0.65539 0.42531 0.72028 0.0
H480 H 0.64476 0.45886 0.6941 0.0
H481 H 0.58245 0.44142 0.70526 0.0
H482 H 0.59275 0.40758 0.73061 0.0
H483 H 0.59976 0.38093 0.92791 0.0
H484 H 0.62559 0.38806 0.87361 0.0
H485 H 0.6125 0.33106 0.81167 0.0
H486 H 0.58801 0.32333 0.86791 0.0
H487 H 0.6147 0.39597 0.80035 0.0
H488 H 0.64449 0.31876 0.73263 0.0
H489 H 0.65838 0.28676 0.76056 0.0
H490 H 0.67654 0.31659 0.87733 0.0
H491 H 0.66302 0.34884 0.8499 0.0
C492 C 0.63491 0.40443 0.60737 0.0
C493 C 0.65385 0.41348 0.60078 0.0
C494 C 0.63206 0.39106 0.64159 0.0
C495 C 0.64801 0.38693 0.67016 0.0
C496 C 0.66757 0.3935 0.65979 0.0
C497 C 0.67051 0.40667 0.62498 0.0
C498 C 0.64317 0.38072 0.7149 0.0
C499 C 0.65009 0.36221 0.73126 0.0
C500 C 0.63114 0.39338 0.74122 0.0
C501 C 0.62484 0.41388 0.72702 0.0
C502 C 0.63942 0.42859 0.7169 0.0
C503 C 0.63346 0.44766 0.70222 0.0
C504 C 0.61294 0.45227 0.69803 0.0
C505 C 0.59834 0.43782 0.70852 0.0
C506 C 0.60423 0.4187 0.72305 0.0
C507 C 0.60329 0.36949 0.90404 0.0
C508 C 0.59199 0.3516 0.90202 0.0
C509 C 0.61791 0.37361 0.87272 0.0
C510 C 0.6209 0.36028 0.83788 0.0
C511 C 0.61089 0.34153 0.8383 0.0
C512 C 0.59679 0.33709 0.87056 0.0
C513 C 0.63089 0.3676 0.79766 0.0
C514 C 0.62486 0.38654 0.78165 0.0
C515 C 0.64427 0.35555 0.77268 0.0
C516 C 0.6526 0.33622 0.78926 0.0
C517 C 0.65155 0.31854 0.76416 0.0
C518 C 0.65933 0.30033 0.77994 0.0
C519 C 0.66829 0.29963 0.82073 0.0
C520 C 0.66953 0.31714 0.8458 0.0
C521 C 0.66177 0.33538 0.83018 0.0
H522 H 0.67431 0.28552 0.83289 0.0
H523 H 0.60834 0.46706 0.68679 0.0
H524 H 0.09606 0.61222 0.5921 0.0
H525 H 0.12089 0.60756 0.6494 0.0
H526 H 0.13239 0.67169 0.65085 0.0
H527 H 0.10774 0.67638 0.59273 0.0
H528 H 0.1606 0.61739 0.6776 0.0
H529 H 0.12307 0.68483 0.75796 0.0
H530 H 0.09327 0.70701 0.7493 0.0
H531 H 0.0599 0.65794 0.69325 0.0
H532 H 0.08935 0.63541 0.70245 0.0
H533 H 0.18282 0.59329 0.89351 0.0
H534 H 0.18048 0.61827 0.83536 0.0
H535 H 0.11622 0.60772 0.82686 0.0
H536 H 0.11836 0.58346 0.88537 0.0
H537 H 0.12357 0.64483 0.80409 0.0
H538 H 0.15364 0.57766 0.76986 0.0
H539 H 0.18068 0.55217 0.77839 0.0
H540 H 0.22511 0.5961 0.7411 0.0
H541 H 0.19833 0.6218 0.73237 0.0
C542 C 0.10469 0.62516 0.603 0.0
C543 C 0.09988 0.64465 0.58837 0.0
C544 C 0.1189 0.6225 0.63575 0.0
C545 C 0.12818 0.63934 0.65487 0.0
C546 C 0.12532 0.65853 0.63656 0.0
C547 C 0.11131 0.66117 0.60319 0.0
C548 C 0.13665 0.63707 0.69882 0.0
C549 C 0.1529 0.6238 0.70534 0.0
C550 C 0.12645 0.6453 0.735 0.0
C551 C 0.1085 0.65857 0.73027 0.0
C552 C 0.10935 0.67879 0.74391 0.0
C553 C 0.09252 0.6914 0.73896 0.0
C554 C 0.07473 0.68391 0.72056 0.0
C555 C 0.0737 0.66374 0.70737 0.0
C556 C 0.09045 0.65105 0.71248 0.0
C557 C 0.16808 0.59697 0.8805 0.0
C558 C 0.15081 0.58611 0.89341 0.0
C559 C 0.1668 0.61112 0.84693 0.0
C560 C 0.14828 0.61442 0.82579 0.0
C561 C 0.13073 0.60535 0.84229 0.0
C562 C 0.13197 0.59138 0.87579 0.0
C563 C 0.14713 0.62458 0.78307 0.0
C564 C 0.13209 0.63926 0.77663 0.0
C565 C 0.15815 0.61729 0.74695 0.0
C566 C 0.17407 0.60167 0.75105 0.0
C567 C 0.16919 0.58184 0.76354 0.0
C568 C 0.18445 0.56738 0.76839 0.0
C569 C 0.20461 0.57257 0.76056 0.0
C570 C 0.20951 0.59214 0.74734 0.0
C571 C 0.1943 0.60664 0.74236 0.0
H572 H 0.21644 0.56144 0.76469 0.0
H573 H 0.06175 0.69371 0.71665 0.0
H574 H 0.92545 0.11717 0.8948 0.0
H575 H 0.90141 0.11318 0.83641 0.0
H576 H 0.8891 0.17726 0.83874 0.0
H577 H 0.91403 0.18144 0.89666 0.0
H578 H 0.86488 0.11821 0.81384 0.0
H579 H 0.88373 0.19291 0.73263 0.0
H580 H 0.90877 0.22052 0.73616 0.0
H581 H 0.95416 0.17864 0.77893 0.0
H582 H 0.92938 0.15075 0.77532 0.0
H583 H 0.82796 0.10035 0.60711 0.0
H584 H 0.83374 0.12461 0.66559 0.0
H585 H 0.89809 0.11586 0.65301 0.0
H586 H 0.89235 0.09131 0.59546 0.0
H587 H 0.8877 0.15511 0.68325 0.0
H588 H 0.87592 0.0842 0.71126 0.0
H589 H 0.85687 0.05224 0.70725 0.0
H590 H 0.80634 0.08036 0.77042 0.0
H591 H 0.82497 0.11266 0.77373 0.0
C592 C 0.9172 0.13036 0.88385 0.0
C593 C 0.92194 0.14966 0.89972 0.0
C594 C 0.90336 0.12807 0.85038 0.0
C595 C 0.89383 0.14501 0.83218 0.0
C596 C 0.89664 0.16403 0.85154 0.0
C597 C 0.91071 0.16637 0.88505 0.0
C598 C 0.88335 0.14259 0.79 0.0
C599 C 0.86946 0.12669 0.78551 0.0
C600 C 0.8895 0.15339 0.75265 0.0
C601 C 0.90463 0.16987 0.75437 0.0
C602 C 0.89906 0.18961 0.74275 0.0
C603 C 0.91319 0.20529 0.74477 0.0
C604 C 0.93299 0.20135 0.75804 0.0
C605 C 0.93877 0.18168 0.7689 0.0
C606 C 0.92469 0.16594 0.7669 0.0
C607 C 0.84335 0.10442 0.61531 0.0
C608 C 0.85974 0.09394 0.59705 0.0
C609 C 0.84663 0.11821 0.64887 0.0
C610 C 0.86633 0.12182 0.66392 0.0
C611 C 0.88278 0.11333 0.6418 0.0
C612 C 0.8795 0.09929 0.60893 0.0
C613 C 0.86979 0.13046 0.70741 0.0
C614 C 0.88234 0.14739 0.71193 0.0
C615 C 0.86312 0.12012 0.74475 0.0
C616 C 0.85168 0.1009 0.74207 0.0
C617 C 0.86064 0.08364 0.72371 0.0
C618 C 0.84994 0.06546 0.72162 0.0
C619 C 0.8304 0.06428 0.73846 0.0
C620 C 0.82146 0.08131 0.75722 0.0
C621 C 0.83206 0.09958 0.75911 0.0
H622 H 0.82228 0.05012 0.7372 0.0
H623 H 0.94382 0.21356 0.75987 0.0
H624 H 0.68313 0.00578 0.90892 0.0
H625 H 0.70382 0.99905 0.84471 0.0
H626 H 0.73872 0.05276 0.87034 0.0
H627 H 0.71827 0.0595 0.93435 0.0
H628 H 0.72997 0.04864 0.78442 0.0
H629 H 0.75653 0.00816 0.90098 0.0
H630 H 0.7545 0.98266 0.95881 0.0
H631 H 0.73726 0.93754 0.86625 0.0
H632 H 0.73892 0.96287 0.80793 0.0
H633 H 0.83 0.00963 0.69633 0.0
H634 H 0.80503 0.00831 0.75478 0.0
H635 H 0.75677 0.01159 0.66153 0.0
H636 H 0.78152 0.01311 0.60322 0.0
H637 H 0.77117 0.98591 0.78 0.0
H638 H 0.72348 0.04748 0.69632 0.0
H639 H 0.72768 0.0744 0.6419 0.0
H640 H 0.79055 0.07961 0.67484 0.0
H641 H 0.78651 0.05292 0.72979 0.0
C642 C 0.69498 0.01633 0.90041 0.0
C643 C 0.69908 0.03316 0.92676 0.0
C644 C 0.70688 0.01239 0.86391 0.0
C645 C 0.72296 0.02529 0.85301 0.0
C646 C 0.72643 0.04258 0.87816 0.0
C647 C 0.71472 0.0464 0.91478 0.0
C648 C 0.73674 0.02058 0.81646 0.0
C649 C 0.73879 0.03481 0.78324 0.0
C650 C 0.74853 1.0027 0.81523 0.0
C651 C 0.74763 0.98746 0.8502 0.0
C652 C 0.75215 0.99284 0.89302 0.0
C653 C 0.75109 0.97841 0.92587 0.0
C654 C 0.7457 0.9585 0.91623 0.0
C655 C 0.7414 0.95297 0.87368 0.0
C656 C 0.74241 0.96736 0.84072 0.0
C657 C 0.81408 0.00935 0.6882 0.0
C658 C 0.80775 0.01168 0.64516 0.0
C659 C 0.79981 0.00866 0.72167 0.0
C660 C 0.77904 0.01026 0.71255 0.0
C661 C 0.77271 0.01067 0.66937 0.0
C662 C 0.7869 0.01148 0.63605 0.0
C663 C 0.76422 0.01389 0.74782 0.0
C664 C 0.76204 0.99953 0.78079 0.0
C665 C 0.75244 0.03179 0.74921 0.0
C666 C 0.7548 0.04808 0.71673 0.0
C667 C 0.73817 0.05443 0.692 0.0
C668 C 0.74051 0.06964 0.66106 0.0
C669 C 0.75938 0.07866 0.65478 0.0
C670 C 0.77594 0.07257 0.67957 0.0
C671 C 0.77365 0.05741 0.71056 0.0
H672 H 0.76117 0.0904 0.63079 0.0
H673 H 0.74489 0.94735 0.9417 0.0
H674 H 0.4989 0.83914 0.70584 0.0
H675 H 0.50282 0.81599 0.76668 0.0
H676 H 0.51398 0.7668 0.67835 0.0
H677 H 0.5095 0.78977 0.6175 0.0
H678 H 0.48417 0.7575 0.7285 0.0
H679 H 0.55028 0.78349 0.75268 0.0
H680 H 0.57658 0.80944 0.76286 0.0
H681 H 0.5464 0.83073 0.87683 0.0
H682 H 0.51975 0.80508 0.86703 0.0
H683 H 0.49159 0.68638 0.90228 0.0
H684 H 0.5008 0.70738 0.84003 0.0
H685 H 0.48373 0.7609 0.91065 0.0
H686 H 0.47448 0.74016 0.97262 0.0
H687 H 0.52014 0.76562 0.86776 0.0
H688 H 0.45238 0.74224 0.83761 0.0
H689 H 0.42586 0.71655 0.82695 0.0
H690 H 0.4599 0.69041 0.72293 0.0
H691 H 0.48677 0.71581 0.73338 0.0
C692 C 0.50298 0.82357 0.69944 0.0
C693 C 0.50375 0.81624 0.6569 0.0
C694 C 0.50518 0.81028 0.73431 0.0
C695 C 0.50856 0.78955 0.72719 0.0
C696 C 0.51119 0.78266 0.68472 0.0
C697 C 0.50876 0.79584 0.64994 0.0
C698 C 0.50657 0.77476 0.76314 0.0
C699 C 0.49244 0.75904 0.75854 0.0
C700 C 0.51692 0.77698 0.80285 0.0
C701 C 0.53292 0.79244 0.80891 0.0
C702 C 0.54916 0.7938 0.77973 0.0
C703 C 0.56415 0.80844 0.78547 0.0
C704 C 0.56314 0.82175 0.82042 0.0
C705 C 0.54716 0.82042 0.84976 0.0
C706 C 0.53212 0.80581 0.84416 0.0
C707 C 0.48976 0.70261 0.90446 0.0
C708 C 0.48218 0.71158 0.9423 0.0
C709 C 0.49505 0.71459 0.86893 0.0
C710 C 0.49294 0.73571 0.87074 0.0
C711 C 0.48558 0.74466 0.90862 0.0
C712 C 0.48016 0.73273 0.94392 0.0
C713 C 0.49775 0.74859 0.83287 0.0
C714 C 0.51225 0.76395 0.83729 0.0
C715 C 0.4878 0.74605 0.79288 0.0
C716 C 0.47169 0.73075 0.78664 0.0
C717 C 0.45429 0.7309 0.81274 0.0
C718 C 0.43918 0.71641 0.80668 0.0
C719 C 0.44122 0.70181 0.77438 0.0
C720 C 0.45836 0.7017 0.748 0.0
C721 C 0.47353 0.71614 0.75397 0.0
H722 H 0.4295 0.69062 0.76972 0.0
H723 H 0.57476 0.83307 0.82481 0.0
H724 H 0.76502 0.4654 0.98051 0.0
H725 H 0.74227 0.47342 0.92126 0.0
H726 H 0.7927 0.49472 0.8456 0.0
H727 H 0.81567 0.48719 0.90572 0.0
H728 H 0.76158 0.51984 0.83732 0.0
H729 H 0.77034 0.44848 0.82587 0.0
H730 H 0.77115 0.41303 0.85023 0.0
H731 H 0.70807 0.41612 0.8824 0.0
H732 H 0.70695 0.45171 0.85881 0.0
H733 H 0.713 0.5093 0.63142 0.0
H734 H 0.73407 0.51062 0.696 0.0
H735 H 0.68242 0.49543 0.77443 0.0
H736 H 0.66117 0.49417 0.70984 0.0
H737 H 0.71376 0.46826 0.782 0.0
H738 H 0.70553 0.54014 0.788 0.0
H739 H 0.70576 0.5749 0.75943 0.0
H740 H 0.76921 0.56987 0.73211 0.0
H741 H 0.76931 0.53496 0.75996 0.0
C742 C 0.77137 0.47167 0.95122 0.0
C743 C 0.79222 0.47551 0.94776 0.0
C744 C 0.7583 0.47622 0.91725 0.0
C745 C 0.76576 0.48442 0.87865 0.0
C746 C 0.78658 0.48836 0.87504 0.0
C747 C 0.79971 0.48394 0.9093 0.0
C748 C 0.7517 0.4889 0.84237 0.0
C749 C 0.7513 0.50849 0.82484 0.0
C750 C 0.73799 0.47422 0.82656 0.0
C751 C 0.73862 0.45284 0.84099 0.0
C752 C 0.75668 0.44166 0.8385 0.0
C753 C 0.75719 0.42153 0.85211 0.0
C754 C 0.73969 0.41235 0.86797 0.0
C755 C 0.72163 0.42327 0.87018 0.0
C756 C 0.72105 0.44342 0.85667 0.0
C757 C 0.70595 0.50697 0.66258 0.0
C758 C 0.68544 0.50147 0.66546 0.0
C759 C 0.71804 0.50773 0.69951 0.0
C760 C 0.70986 0.50297 0.74002 0.0
C761 C 0.68903 0.49911 0.74344 0.0
C762 C 0.67686 0.49856 0.7065 0.0
C763 C 0.7235 0.49922 0.77725 0.0
C764 C 0.72392 0.47967 0.79475 0.0
C765 C 0.73738 0.51384 0.79245 0.0
C766 C 0.73738 0.53485 0.77575 0.0
C767 C 0.7195 0.54637 0.77556 0.0
C768 C 0.71958 0.56612 0.75957 0.0
C769 C 0.73748 0.57457 0.74387 0.0
C770 C 0.75535 0.5633 0.74424 0.0
C771 C 0.75535 0.54354 0.76019 0.0
H772 H 0.73751 0.58986 0.73151 0.0
H773 H 0.74011 0.39675 0.87846 0.0
H774 H 0.00519 0.81878 0.91736 0.0
H775 H 0.99752 0.79587 0.85745 0.0
H776 H 0.05552 0.76695 0.87412 0.0
H777 H 0.06276 0.78912 0.93513 0.0
H778 H 0.011 0.78786 0.7832 0.0
H779 H 0.05459 0.71796 0.8516 0.0
H780 H 0.06285 0.70311 0.92242 0.0
H781 H 0.01202 0.73349 0.97931 0.0
H782 H 1.00326 0.74828 0.90874 0.0
H783 H 0.03769 0.72168 0.61938 0.0
H784 H 0.03421 0.74434 0.68001 0.0
H785 H 0.99871 0.69973 0.74753 0.0
H786 H 1.00311 0.67617 0.6869 0.0
H787 H 0.02382 0.71443 0.80061 0.0
H788 H 0.97775 0.7458 0.70599 0.0
H789 H 0.96458 0.75987 0.6379 0.0
H790 H 0.01113 0.80504 0.63857 0.0
H791 H 0.02477 0.79109 0.70633 0.0
C792 C 0.01637 0.80766 0.9079 0.0
C793 C 0.03452 0.80566 0.93112 0.0
C794 C 0.01195 0.79451 0.87372 0.0
C795 C 0.02569 0.77925 0.86183 0.0
C796 C 0.04433 0.77809 0.88346 0.0
C797 C 0.04858 0.79094 0.91809 0.0
C798 C 0.02063 0.76451 0.827 0.0
C799 C 0.01371 0.7718 0.78711 0.0
C800 C 0.02332 0.74339 0.83238 0.0
C801 C 0.02838 0.73436 0.8749 0.0
C802 C 0.04511 0.72139 0.87917 0.0
C803 C 0.04989 0.713 0.91929 0.0
C804 C 0.038 0.7174 0.95536 0.0
C805 C 0.02126 0.73014 0.95137 0.0
C806 C 0.01639 0.73855 0.91133 0.0
C807 C 0.02885 0.71664 0.64667 0.0
C808 C 0.0206 0.69702 0.64798 0.0
C809 C 0.02673 0.72979 0.68147 0.0
C810 C 0.01583 0.72403 0.71826 0.0
C811 C 0.00711 0.70462 0.71944 0.0
C812 C 0.00952 0.69121 0.68465 0.0
C813 C 0.015 0.73788 0.75625 0.0
C814 C 0.02082 0.73044 0.79681 0.0
C815 C 0.01053 0.75876 0.75192 0.0
C816 C 1.00234 0.76732 0.71121 0.0
C817 C 0.98525 0.75866 0.6915 0.0
C818 C 0.97769 0.76663 0.65296 0.0
C819 C 0.98703 0.78332 0.6339 0.0
C820 C 0.00392 0.79212 0.65338 0.0
C821 C 0.01155 0.78421 0.69191 0.0
H822 H 0.98115 0.78946 0.60406 0.0
H823 H 0.04174 0.7109 0.98639 0.0
H824 H 0.23959 0.96782 0.53642 0.0
H825 H 0.26362 0.97693 0.59261 0.0
H826 H 0.21491 1.00016 0.67091 0.0
H827 H 0.19071 0.99171 0.61364 0.0
H828 H 0.24599 0.02466 0.67626 0.0
H829 H 0.23777 0.95318 0.69044 0.0
H830 H 0.23689 0.9176 0.66684 0.0
H831 H 0.29937 0.92102 0.62985 0.0
H832 H 0.30054 0.95672 0.65267 0.0
H833 H 0.29619 0.01593 0.88 0.0
H834 H 0.27487 0.01696 0.81584 0.0
H835 H 0.32586 0.99978 0.73718 0.0
H836 H 0.34732 0.99863 0.80147 0.0
H837 H 0.29459 0.97345 0.73015 0.0
H838 H 0.30256 0.04527 0.72266 0.0
H839 H 0.30249 0.08017 0.75056 0.0
H840 H 0.23929 0.07525 0.78038 0.0
H841 H 0.23903 0.04022 0.75322 0.0
C842 C 0.23391 0.97477 0.56566 0.0
C843 C 0.21317 0.97885 0.57072 0.0
C844 C 0.24772 0.97995 0.5979 0.0
C845 C 0.24111 0.98891 0.63647 0.0
C846 C 0.2204 0.9932 0.64152 0.0
C847 C 0.20656 0.98827 0.60888 0.0
C848 C 0.25587 0.99371 0.67137 0.0
C849 C 0.25646 0.0134 0.6884 0.0
C850 C 0.26986 0.97916 0.68673 0.0
C851 C 0.26918 0.95769 0.67284 0.0
C852 C 0.25128 0.94639 0.67694 0.0
C853 C 0.25073 0.92619 0.66375 0.0
C854 C 0.26805 0.91707 0.64673 0.0
C855 C 0.28596 0.92811 0.64296 0.0
C856 C 0.28657 0.94833 0.65604 0.0
C857 C 0.30307 0.01311 0.84884 0.0
C858 C 0.32343 0.00707 0.84591 0.0
C859 C 0.29083 0.01371 0.81211 0.0
C860 C 0.29871 0.00832 0.77167 0.0
C861 C 0.31945 0.00396 0.76809 0.0
C862 C 0.33176 1.0035 0.80485 0.0
C863 C 0.2848 0.00442 0.73487 0.0
C864 C 0.28427 0.9848 0.71768 0.0
C865 C 0.27073 0.01894 0.71995 0.0
C866 C 0.27082 0.04004 0.73619 0.0
C867 C 0.28868 0.05157 0.73549 0.0
C868 C 0.28869 0.07139 0.75111 0.0
C869 C 0.27091 0.07991 0.76732 0.0
C870 C 0.25306 0.06863 0.76784 0.0
C871 C 0.25296 0.0488 0.75227 0.0
H872 H 0.27095 0.09526 0.7794 0.0
H873 H 0.2676 0.90143 0.63657 0.0
H874 H 0.53551 0.24057 0.52778 0.0
H875 H 0.52749 0.26357 0.5866 0.0
H876 H 0.50516 0.21366 0.66236 0.0
H877 H 0.51271 0.19043 0.60265 0.0
H878 H 0.48064 0.24551 0.67044 0.0
H879 H 0.55169 0.23467 0.68242 0.0
H880 H 0.58717 0.23274 0.65838 0.0
H881 H 0.58605 0.29578 0.62571 0.0
H882 H 0.55045 0.29802 0.64898 0.0
H883 H 0.49352 0.29384 0.8764 0.0
H884 H 0.49088 0.27285 0.81185 0.0
H885 H 0.50709 0.32396 0.73287 0.0
H886 H 0.50971 0.34511 0.79741 0.0
H887 H 0.53356 0.29183 0.72578 0.0
H888 H 0.46192 0.30216 0.71975 0.0
H889 H 0.42713 0.30293 0.74828 0.0
H890 H 0.43031 0.2394 0.77555 0.0
H891 H 0.46523 0.23829 0.74773 0.0
C892 C 0.52897 0.23439 0.55697 0.0
C893 C 0.52491 0.2136 0.56064 0.0
C894 C 0.52442 0.2476 0.59068 0.0
C895 C 0.51599 0.24034 0.62922 0.0
C896 C 0.5117 0.21961 0.63294 0.0
C897 C 0.51612 0.20634 0.59893 0.0
C898 C 0.51186 0.2545 0.66546 0.0
C899 C 0.49227 0.25547 0.68292 0.0
C900 C 0.52693 0.26777 0.6813 0.0
C901 C 0.54832 0.26646 0.66702 0.0
C902 C 0.55895 0.24808 0.66974 0.0
C903 C 0.5791 0.24694 0.65632 0.0
C904 C 0.58884 0.26411 0.64041 0.0
C905 C 0.57847 0.28248 0.63797 0.0
C906 C 0.55831 0.2837 0.6513 0.0
C907 C 0.49577 0.30082 0.84515 0.0
C908 C 0.50201 0.3211 0.84205 0.0
C909 C 0.49424 0.28878 0.80824 0.0
C910 C 0.49896 0.2968 0.76758 0.0
C911 C 0.50343 0.31748 0.764 0.0
C912 C 0.50476 0.3296 0.80091 0.0
C913 C 0.5023 0.28303 0.73041 0.0
C914 C 0.52186 0.28202 0.71301 0.0
C915 C 0.48729 0.26957 0.71526 0.0
C916 C 0.46628 0.27018 0.73198 0.0
C917 C 0.45527 0.28838 0.73218 0.0
C918 C 0.43551 0.28887 0.74815 0.0
C919 C 0.42653 0.27124 0.76381 0.0
C920 C 0.43729 0.25305 0.76344 0.0
C921 C 0.45706 0.25248 0.74752 0.0
H922 H 0.41123 0.27165 0.77615 0.0
H923 H 0.60445 0.2632 0.63008 0.0
H924 H 0.26386 0.53993 0.52701 0.0
H925 H 0.24126 0.5303 0.58544 0.0
H926 H 0.29257 0.51338 0.66352 0.0
H927 H 0.31536 0.52233 0.60411 0.0
H928 H 0.26509 0.48608 0.6719 0.0
H929 H 0.26403 0.55789 0.68018 0.0
H930 H 0.26007 0.59331 0.65707 0.0
H931 H 0.19797 0.58215 0.62464 0.0
H932 H 0.20165 0.54655 0.64674 0.0
H933 H 0.21541 0.4941 0.87617 0.0
H934 H 0.23616 0.49332 0.81113 0.0
H935 H 0.18276 0.50082 0.73292 0.0
H936 H 0.16186 0.50164 0.79803 0.0
H937 H 0.20987 0.531 0.72194 0.0
H938 H 0.21193 0.45897 0.72189 0.0
H939 H 0.21683 0.42502 0.75286 0.0
H940 H 0.27896 0.43894 0.77977 0.0
H941 H 0.27437 0.47309 0.74952 0.0
C942 C 0.27041 0.53432 0.55672 0.0
C943 C 0.29145 0.532 0.56096 0.0
C944 C 0.25742 0.52888 0.59027 0.0
C945 C 0.26515 0.52137 0.6293 0.0
C946 C 0.2862 0.51915 0.63377 0.0
C947 C 0.29924 0.52436 0.59989 0.0
C948 C 0.25118 0.51538 0.66482 0.0
C949 C 0.25323 0.49607 0.68332 0.0
C950 C 0.23533 0.52816 0.67916 0.0
C951 C 0.23323 0.54943 0.66447 0.0
C952 C 0.24962 0.5629 0.66751 0.0
C953 C 0.2474 0.58303 0.65467 0.0
C954 C 0.22882 0.58995 0.63912 0.0
C955 C 0.21239 0.57674 0.63641 0.0
C956 C 0.21454 0.55658 0.64906 0.0
C957 C 0.20798 0.49476 0.84505 0.0
C958 C 0.18701 0.49808 0.84227 0.0
C959 C 0.21988 0.49429 0.80782 0.0
C960 C 0.21104 0.49714 0.76713 0.0
C961 C 0.18989 0.4986 0.76402 0.0
C962 C 0.17793 0.49889 0.80129 0.0
C963 C 0.224 0.50196 0.72938 0.0
C964 C 0.22175 0.52107 0.71044 0.0
C965 C 0.23992 0.48923 0.71557 0.0
C966 C 0.24275 0.46867 0.7337 0.0
C967 C 0.2266 0.45486 0.73473 0.0
C968 C 0.22933 0.43556 0.75209 0.0
C969 C 0.24818 0.42984 0.76835 0.0
C970 C 0.26436 0.44339 0.76719 0.0
C971 C 0.2617 0.46272 0.74987 0.0
H972 H 0.25027 0.41488 0.78178 0.0
H973 H 0.22711 0.60556 0.62943 0.0
H974 H 0.97241 0.26598 0.53068 0.0
H975 H 0.98097 0.2433 0.58975 0.0
H976 H 0.99862 0.29432 0.66787 0.0
H977 H 0.99062 0.31719 0.60797 0.0
H978 H 0.02506 0.26559 0.67789 0.0
H979 H 0.9532 0.26799 0.68338 0.0
H980 H 0.91785 0.26565 0.65875 0.0
H981 H 0.92645 0.20304 0.62734 0.0
H982 H 0.96198 0.20508 0.6511 0.0
H983 H 0.01347 0.2164 0.8826 0.0
H984 H 0.01491 0.23733 0.81781 0.0
H985 H 0.00672 0.18434 0.73871 0.0
H986 H 0.0054 0.16325 0.80354 0.0
H987 H 0.97714 0.2129 0.72732 0.0
H988 H 0.04929 0.21146 0.7294 0.0
H989 H 0.08321 0.21483 0.76157 0.0
H990 H 0.07189 0.27755 0.78772 0.0
H991 H 0.03778 0.2745 0.75626 0.0
C992 C 0.978 0.27245 0.56048 0.0
C993 C 0.98071 0.29345 0.56465 0.0
C994 C 0.98283 0.25942 0.5944 0.0
C995 C 0.99017 0.26705 0.63367 0.0
C996 C 0.99295 0.28803 0.63795 0.0
C997 C 0.98829 0.30111 0.60376 0.0
C998 C 0.99522 0.25304 0.6698 0.0
C999 C 0.01443 0.25428 0.68911 0.0
C1000 C 0.98158 0.23792 0.684 0.0
C1001 C 0.96037 0.23678 0.6684 0.0
C1002 C 0.94765 0.2538 0.67065 0.0
C1003 C 0.92756 0.25251 0.65696 0.0
C1004 C 0.91994 0.23424 0.64125 0.0
C1005 C 0.9324 0.21721 0.63926 0.0
C1006 C 0.95252 0.21843 0.65284 0.0
C1007 C 0.01279 0.20909 0.85134 0.0
C1008 C 0.00927 0.18817 0.8482 0.0
C1009 C 0.01361 0.22109 0.81429 0.0
C1010 C 0.01082 0.21242 0.7734 0.0
C1011 C 0.00893 0.19133 0.76997 0.0
C1012 C 0.00836 0.17926 0.80706 0.0
C1013 C 0.00679 0.22558 0.7355 0.0
C1014 C 0.98773 0.2242 0.71592 0.0
C1015 C 0.02036 0.2408 0.72189 0.0
C1016 C 0.04089 0.2427 0.74076 0.0
C1017 C 0.05396 0.22593 0.74234 0.0
C1018 C 0.07324 0.22779 0.76038 0.0
C1019 C 0.07968 0.24638 0.77676 0.0
C1020 C 0.06687 0.26316 0.77504 0.0
C1021 C 0.04757 0.26138 0.75705 0.0
H1022 H 0.09462 0.24779 0.79071 0.0
H1023 H 0.90436 0.23325 0.63084 0.0
H1024 H 0.16511 1.00054 0.30889 0.0
H1025 H 0.18634 1.00303 0.24425 0.0
H1026 H 0.2398 1.00247 0.32386 0.0
H1027 H 0.21879 0.99977 0.38829 0.0
H1028 H 0.2439 0.02843 0.25522 0.0
H1029 H 0.22439 0.9584 0.27883 0.0
H1030 H 0.20192 0.9289 0.28638 0.0
H1031 H 0.1734 0.94337 0.16579 0.0
H1032 H 0.1959 0.97287 0.15737 0.0
H1033 H 0.31953 0.99072 0.11123 0.0
H1034 H 0.2963 0.99783 0.17106 0.0
H1035 H 0.24546 0.98947 0.08561 0.0
H1036 H 0.26845 0.98164 0.02658 0.0
H1037 H 0.23847 0.97032 0.15481 0.0
H1038 H 0.26114 0.03742 0.1254 0.0
H1039 H 0.28593 0.06471 0.11409 0.0
H1040 H 0.30841 0.05651 0.24287 0.0
H1041 H 0.28392 0.02896 0.25477 0.0
C1042 C 0.18135 1.0014 0.3127 0.0
C1043 C 0.19024 0.99969 0.35377 0.0
C1044 C 0.19348 1.00269 0.27569 0.0
C1045 C 0.21469 1.00257 0.27918 0.0
C1046 C 0.2235 1.00248 0.32032 0.0
C1047 C 0.21143 1.00094 0.35717 0.0
C1048 C 0.2278 1.00103 0.24032 0.0
C1049 C 0.24278 0.01571 0.23325 0.0
C1050 C 0.22613 0.98467 0.21116 0.0
C1051 C 0.21164 0.96792 0.21774 0.0
C1052 C 0.21315 0.95543 0.25423 0.0
C1053 C 0.2005 0.93864 0.2585 0.0
C1054 C 0.18623 0.93427 0.22655 0.0
C1055 C 0.18447 0.94677 0.19046 0.0
C1056 C 0.19719 0.96348 0.18588 0.0
C1057 C 0.30339 0.99046 0.10529 0.0
C1058 C 0.29584 0.98547 0.06425 0.0
C1059 C 0.29011 0.9947 0.13941 0.0
C1060 C 0.26904 0.99443 0.13288 0.0
C1061 C 0.26159 0.98974 0.09166 0.0
C1062 C 0.27479 0.98524 0.05787 0.0
C1063 C 0.25464 0.99776 0.16924 0.0
C1064 C 0.23945 0.98331 0.1761 0.0
C1065 C 0.25607 0.01443 0.19783 0.0
C1066 C 0.27081 0.031 0.19083 0.0
C1067 C 0.27147 0.04133 0.1512 0.0
C1068 C 0.28545 0.05686 0.1447 0.0
C1069 C 0.29877 0.06231 0.1777 0.0
C1070 C 0.2981 0.05226 0.21732 0.0
C1071 C 0.28415 0.0367 0.22397 0.0
H1072 H 0.30958 0.07434 0.17261 0.0
H1073 H 0.17658 0.92114 0.22962 0.0
H1074 H 0.49548 0.21694 0.37695 0.0
H1075 H 0.49406 0.23776 0.31216 0.0
H1076 H 0.50422 0.18492 0.23349 0.0
H1077 H 0.50588 0.16397 0.29843 0.0
H1078 H 0.53242 0.21349 0.22029 0.0
H1079 H 0.4601 0.21224 0.22583 0.0
H1080 H 0.42656 0.21577 0.25974 0.0
H1081 H 0.43845 0.27839 0.28565 0.0
H1082 H 0.47218 0.27518 0.25243 0.0
H1083 H 0.53441 0.26631 0.02319 0.0
H1084 H 0.52594 0.24364 0.0823 0.0
H1085 H 0.51133 0.29482 0.16282 0.0
H1086 H 0.51923 0.31773 0.10291 0.0
H1087 H 0.48399 0.26631 0.17346 0.0
H1088 H 0.55632 0.26769 0.17348 0.0
H1089 H 0.59086 0.26468 0.14423 0.0
H1090 H 0.58006 0.2024 0.11293 0.0
H1091 H 0.54534 0.20512 0.14137 0.0
C1092 C 0.4967 0.20962 0.34578 0.0
C1093 C 0.5009 0.18881 0.34286 0.0
C1094 C 0.49584 0.22156 0.30868 0.0
C1095 C 0.49911 0.21294 0.26791 0.0
C1096 C 0.50165 0.1919 0.26465 0.0
C1097 C 0.50241 0.1799 0.3018 0.0
C1098 C 0.50278 0.22615 0.22996 0.0
C1099 C 0.52162 0.22471 0.20937 0.0
C1100 C 0.48908 0.24142 0.21704 0.0
C1101 C 0.46875 0.24342 0.2369 0.0
C1102 C 0.45563 0.22673 0.23905 0.0
C1103 C 0.43657 0.22868 0.2581 0.0
C1104 C 0.43039 0.24728 0.27492 0.0
C1105 C 0.44325 0.26399 0.27263 0.0
C1106 C 0.46234 0.26212 0.25363 0.0
C1107 C 0.5295 0.27282 0.05352 0.0
C1108 C 0.52764 0.29387 0.05844 0.0
C1109 C 0.52471 0.25979 0.0874 0.0
C1110 C 0.51829 0.26748 0.12733 0.0
C1111 C 0.51629 0.28851 0.13234 0.0
C1112 C 0.52091 0.3016 0.09818 0.0
C1113 C 0.5136 0.2535 0.16358 0.0
C1114 C 0.49467 0.2549 0.18403 0.0
C1115 C 0.52733 0.23827 0.17682 0.0
C1116 C 0.54812 0.23669 0.15905 0.0
C1117 C 0.56123 0.25342 0.15992 0.0
C1118 C 0.58086 0.25175 0.14357 0.0
C1119 C 0.58762 0.23339 0.12658 0.0
C1120 C 0.57478 0.21664 0.12594 0.0
C1121 C 0.55512 0.21824 0.14217 0.0
H1122 H 0.60284 0.23212 0.11402 0.0
H1123 H 0.41563 0.24876 0.28965 0.0
H1124 H 0.28731 0.50088 0.37965 0.0
H1125 H 0.26641 0.49787 0.31515 0.0
H1126 H 0.31914 0.50619 0.23526 0.0
H1127 H 0.34022 0.5093 0.29988 0.0
H1128 H 0.28989 0.53445 0.22041 0.0
H1129 H 0.29276 0.46228 0.23134 0.0
H1130 H 0.28992 0.42932 0.26788 0.0
H1131 H 0.22701 0.4404 0.29267 0.0
H1132 H 0.22952 0.47357 0.2568 0.0
H1133 H 0.23777 0.53283 0.02322 0.0
H1134 H 0.26035 0.52523 0.08303 0.0
H1135 H 0.20909 0.51039 0.16309 0.0
H1136 H 0.18629 0.51731 0.10235 0.0
H1137 H 0.23828 0.48409 0.17675 0.0
H1138 H 0.23496 0.5562 0.17271 0.0
H1139 H 0.23673 0.59021 0.14046 0.0
H1140 H 0.29913 0.58058 0.10815 0.0
H1141 H 0.29766 0.54639 0.13971 0.0
C1142 C 0.2946 0.50137 0.34835 0.0
C1143 C 0.31541 0.5055 0.3449 0.0
C1144 C 0.28261 0.49961 0.31145 0.0
C1145 C 0.29118 0.50193 0.27035 0.0
C1146 C 0.31222 0.50439 0.26671 0.0
C1147 C 0.32428 0.506 0.30368 0.0
C1148 C 0.2779 0.50471 0.23213 0.0
C1149 C 0.27891 0.52324 0.21023 0.0
C1150 C 0.26295 0.49048 0.22018 0.0
C1151 C 0.26138 0.4705 0.24165 0.0
C1152 C 0.27835 0.45777 0.24488 0.0
C1153 C 0.27679 0.43903 0.26542 0.0
C1154 C 0.25831 0.43279 0.28266 0.0
C1155 C 0.24132 0.44526 0.27932 0.0
C1156 C 0.2428 0.46402 0.25883 0.0
C1157 C 0.23123 0.52805 0.05358 0.0
C1158 C 0.21019 0.52588 0.05815 0.0
C1159 C 0.2442 0.52374 0.08786 0.0
C1160 C 0.23646 0.51758 0.12793 0.0
C1161 C 0.21544 0.51518 0.13254 0.0
C1162 C 0.20241 0.51924 0.09791 0.0
C1163 C 0.2504 0.51379 0.1648 0.0
C1164 C 0.24941 0.4952 0.18663 0.0
C1165 C 0.26521 0.5281 0.17729 0.0
C1166 C 0.26614 0.54865 0.15818 0.0
C1167 C 0.24901 0.56127 0.15842 0.0
C1168 C 0.24997 0.58059 0.14031 0.0
C1169 C 0.26801 0.58753 0.12216 0.0
C1170 C 0.28515 0.57517 0.12216 0.0
C1171 C 0.28427 0.55583 0.14018 0.0
H1172 H 0.26873 0.6025 0.10818 0.0
H1173 H 0.25713 0.41828 0.29855 0.0
H1174 H 0.99844 0.18861 0.10098 0.0
H1175 H 0.00651 0.21157 0.16067 0.0
H1176 H 0.97356 0.25939 0.09742 0.0
H1177 H 0.96566 0.23671 0.03768 0.0
H1178 H 0.00914 0.27307 0.12768 0.0
H1179 H 0.95345 0.23365 0.1832 0.0
H1180 H 0.93572 0.20219 0.20289 0.0
H1181 H 0.98382 0.18664 0.28982 0.0
H1182 H 1.00196 0.2179 0.27022 0.0
H1183 H 0.98989 0.34159 0.30019 0.0
H1184 H 0.99187 0.31916 0.23784 0.0
H1185 H 0.01964 0.2732 0.31698 0.0
H1186 H 0.01667 0.2953 0.37989 0.0
H1187 H 0.98986 0.25741 0.27855 0.0
H1188 H 0.04445 0.2984 0.228 0.0
H1189 H 0.06206 0.32996 0.20867 0.0
H1190 H 0.01689 0.34271 0.11296 0.0
H1191 H 0.99886 0.31135 0.13208 0.0
C1192 C 0.9928 0.20398 0.09995 0.0
C1193 C 0.98133 0.21078 0.06461 0.0
C1194 C 0.99744 0.21709 0.13408 0.0
C1195 C 0.99058 0.23722 0.13365 0.0
C1196 C 0.97909 0.24398 0.09844 0.0
C1197 C 0.97448 0.23092 0.06439 0.0
C1198 C 0.9952 0.25131 0.16984 0.0
C1199 C 0.00482 0.26974 0.16068 0.0
C1200 C 0.99007 0.24675 0.21306 0.0
C1201 C 0.97916 0.22798 0.22489 0.0
C1202 C 0.96032 0.22344 0.20625 0.0
C1203 C 0.95018 0.20566 0.21745 0.0
C1204 C 0.95867 0.19239 0.24748 0.0
C1205 C 0.97728 0.19691 0.26649 0.0
C1206 C 0.98749 0.21465 0.25538 0.0
C1207 C 0.99711 0.327 0.30395 0.0
C1208 C 1.00315 0.32021 0.34493 0.0
C1209 C 0.99823 0.3141 0.26817 0.0
C1210 C 0.00591 0.29436 0.27243 0.0
C1211 C 0.01349 0.28825 0.31275 0.0
C1212 C 0.01198 0.30096 0.34866 0.0
C1213 C 0.00384 0.27937 0.23664 0.0
C1214 C 0.99455 0.26074 0.24577 0.0
C1215 C 0.00935 0.28376 0.19346 0.0
C1216 C 0.02022 0.30258 0.18171 0.0
C1217 C 0.0382 0.308 0.20303 0.0
C1218 C 0.04826 0.32584 0.19207 0.0
C1219 C 0.04057 0.33835 0.15967 0.0
C1220 C 0.02282 0.33301 0.13807 0.0
C1221 C 0.01269 0.31518 0.1489 0.0
H1222 H 0.04839 0.35216 0.15125 0.0
H1223 H 0.95079 0.17864 0.25611 0.0
H1224 H 0.68291 0.98555 0.1828 0.0
H1225 H 0.70702 0.98522 0.24278 0.0
H1226 H 0.75319 0.0093 0.15903 0.0
H1227 H 0.72946 0.00914 0.09901 0.0
H1228 H 0.77049 0.98723 0.21817 0.0
H1229 H 0.722 0.04031 0.21404 0.0
H1230 H 0.68774 0.0549 0.21048 0.0
H1231 H 0.67323 0.02821 0.33285 0.0
H1232 H 0.70729 0.01301 0.33663 0.0
H1233 H 0.79335 0.06163 0.41253 0.0
H1234 H 0.77403 0.0518 0.34869 0.0
H1235 H 0.7962 0.99066 0.36137 0.0
H1236 H 0.81671 1.00095 0.42324 0.0
H1237 H 0.74458 0.03013 0.3373 0.0
H1238 H 0.79393 0.96448 0.26926 0.0
H1239 H 0.82995 0.95524 0.26272 0.0
H1240 H 0.84664 0.01783 0.2707 0.0
H1241 H 0.81072 0.02745 0.27674 0.0
C1242 C 0.69843 0.98994 0.17672 0.0
C1243 C 0.70418 0.9977 0.13633 0.0
C1244 C 0.71216 0.98994 0.21117 0.0
C1245 C 0.73175 0.99783 0.20573 0.0
C1246 C 0.73813 1.00333 0.16422 0.0
C1247 C 0.72449 1.00326 0.12986 0.0
C1248 C 0.74462 1.00299 0.24357 0.0
C1249 C 0.7648 0.99643 0.24451 0.0
C1250 C 0.73748 0.01579 0.27694 0.0
C1251 C 0.71711 0.02525 0.27531 0.0
C1252 C 0.71144 0.03736 0.23999 0.0
C1253 C 0.69204 0.0457 0.23785 0.0
C1254 C 0.67826 0.04234 0.27124 0.0
C1255 C 0.68389 0.0307 0.30689 0.0
C1256 C 0.70324 0.02219 0.30902 0.0
C1257 C 0.7944 0.0462 0.40103 0.0
C1258 C 0.8067 0.03211 0.42245 0.0
C1259 C 0.78321 0.04051 0.36472 0.0
C1260 C 0.78362 0.02045 0.34963 0.0
C1261 C 0.79594 0.00635 0.37127 0.0
C1262 C 0.80765 0.01221 0.4068 0.0
C1263 C 0.77063 0.01428 0.31236 0.0
C1264 C 0.75035 0.02072 0.31141 0.0
C1265 C 0.77801 1.00228 0.2778 0.0
C1266 C 0.79965 0.99665 0.27397 0.0
C1267 C 0.80529 0.97627 0.2695 0.0
C1268 C 0.82569 0.97096 0.2659 0.0
C1269 C 0.84058 0.98593 0.26646 0.0
C1270 C 0.8351 0.00624 0.27046 0.0
C1271 C 0.81473 0.01163 0.27403 0.0
H1272 H 0.85636 0.98179 0.26369 0.0
H1273 H 0.66329 0.04892 0.26966 0.0
H1274 H 0.46564 0.76916 0.473 0.0
H1275 H 0.47545 0.74741 0.413 0.0
H1276 H 0.49558 0.79947 0.34132 0.0
H1277 H 0.48593 0.82151 0.40175 0.0
H1278 H 0.47163 0.77177 0.29299 0.0
H1279 H 0.53006 0.77099 0.38484 0.0
H1280 H 0.54823 0.76711 0.4538 0.0
H1281 H 0.52834 0.7055 0.46268 0.0
H1282 H 0.50979 0.7091 0.39406 0.0
H1283 H 0.5137 0.71616 0.12671 0.0
H1284 H 0.51511 0.73868 0.18902 0.0
H1285 H 0.49695 0.68966 0.27202 0.0
H1286 H 0.49577 0.6669 0.20976 0.0
H1287 H 0.52216 0.7171 0.31404 0.0
H1288 H 0.46151 0.71775 0.22936 0.0
H1289 H 0.44186 0.72018 0.16196 0.0
H1290 H 0.46374 0.78055 0.14206 0.0
H1291 H 0.48381 0.77834 0.20905 0.0
C1292 C 0.47204 0.77608 0.44444 0.0
C1293 C 0.47502 0.7971 0.44219 0.0
C1294 C 0.47776 0.76357 0.41026 0.0
C1295 C 0.48648 0.77179 0.37298 0.0
C1296 C 0.48897 0.79283 0.36997 0.0
C1297 C 0.48344 0.80539 0.40446 0.0
C1298 C 0.4928 0.75829 0.33719 0.0
C1299 C 0.48298 0.76009 0.29731 0.0
C1300 C 0.50714 0.74264 0.34333 0.0
C1301 C 0.51839 0.74038 0.38447 0.0
C1302 C 0.52942 0.75666 0.40166 0.0
C1303 C 0.53981 0.75451 0.44066 0.0
C1304 C 0.5394 0.73608 0.46265 0.0
C1305 C 0.52863 0.71976 0.44563 0.0
C1306 C 0.51819 0.72185 0.40665 0.0
C1307 C 0.51075 0.70997 0.15845 0.0
C1308 C 0.50437 0.68982 0.16326 0.0
C1309 C 0.51146 0.72289 0.19401 0.0
C1310 C 0.50559 0.71597 0.23491 0.0
C1311 C 0.50141 0.69534 0.24065 0.0
C1312 C 0.50084 0.68231 0.20503 0.0
C1313 C 0.50107 0.73067 0.26983 0.0
C1314 C 0.51106 0.72898 0.30957 0.0
C1315 C 0.48664 0.74628 0.26386 0.0
C1316 C 0.47434 0.7478 0.22394 0.0
C1317 C 0.46224 0.73149 0.21045 0.0
C1318 C 0.45102 0.73283 0.17234 0.0
C1319 C 0.45159 0.75049 0.14768 0.0
C1320 C 0.46334 0.76687 0.16116 0.0
C1321 C 0.47464 0.76558 0.1992 0.0
H1322 H 0.4429 0.7515 0.11817 0.0
H1323 H 0.54746 0.73444 0.49285 0.0
H1324 H 0.73735 0.47504 0.47703 0.0
H1325 H 0.75865 0.48471 0.41619 0.0
H1326 H 0.70556 0.49777 0.34044 0.0
H1327 H 0.68397 0.48828 0.40171 0.0
H1328 H 0.735 0.4737 0.29764 0.0
H1329 H 0.73147 0.53595 0.37643 0.0
H1330 H 0.73382 0.55762 0.44095 0.0
H1331 H 0.79669 0.54266 0.45424 0.0
H1332 H 0.79465 0.52064 0.39014 0.0
H1333 H 0.78826 0.51113 0.12345 0.0
H1334 H 0.76558 0.51416 0.18522 0.0
H1335 H 0.81545 0.5028 0.27148 0.0
H1336 H 0.83837 0.5 0.20964 0.0
H1337 H 0.78622 0.52833 0.30795 0.0
H1338 H 0.78983 0.46401 0.237 0.0
H1339 H 0.78895 0.44107 0.17431 0.0
H1340 H 0.72737 0.45802 0.14927 0.0
H1341 H 0.72802 0.48135 0.21145 0.0
C1342 C 0.73014 0.47995 0.44746 0.0
C1343 C 0.70894 0.48087 0.44419 0.0
C1344 C 0.74237 0.48559 0.4128 0.0
C1345 C 0.73369 0.49216 0.37399 0.0
C1346 C 0.71253 0.49284 0.37025 0.0
C1347 C 0.70024 0.48742 0.40522 0.0
C1348 C 0.74687 0.49769 0.33708 0.0
C1349 C 0.74589 0.48592 0.29954 0.0
C1350 C 0.76154 0.51321 0.3402 0.0
C1351 C 0.76285 0.52651 0.37867 0.0
C1352 C 0.74576 0.53714 0.39331 0.0
C1353 C 0.74704 0.54952 0.42977 0.0
C1354 C 0.76538 0.55148 0.45174 0.0
C1355 C 0.78249 0.54111 0.43721 0.0
C1356 C 0.78128 0.5287 0.40078 0.0
C1357 C 0.79457 0.51002 0.15562 0.0
C1358 C 0.81505 0.50503 0.16166 0.0
C1359 C 0.78156 0.51167 0.1909 0.0
C1360 C 0.78874 0.50815 0.23282 0.0
C1361 C 0.80958 0.50544 0.23933 0.0
C1362 C 0.82269 0.50392 0.20394 0.0
C1363 C 0.77423 0.50441 0.2685 0.0
C1364 C 0.77509 0.51634 0.30586 0.0
C1365 C 0.7596 0.48882 0.26558 0.0
C1366 C 0.75905 0.4746 0.22856 0.0
C1367 C 0.77615 0.46296 0.21793 0.0
C1368 C 0.7757 0.44988 0.18251 0.0
C1369 C 0.75813 0.44814 0.15775 0.0
C1370 C 0.74098 0.45942 0.16844 0.0
C1371 C 0.74138 0.47257 0.20377 0.0
H1372 H 0.7578 0.438 0.13033 0.0
H1373 H 0.76635 0.56107 0.47996 0.0
H1374 H 0.00916 0.78076 0.10171 0.0
H1375 H 0.00869 0.75609 0.1601 0.0
H1376 H 0.9948 0.8034 0.25115 0.0
H1377 H 0.99517 0.8283 0.19248 0.0
H1378 H 0.03702 0.75937 0.2231 0.0
H1379 H 0.97279 0.77957 0.34169 0.0
H1380 H 0.93792 0.79281 0.34 0.0
H1381 H 0.92993 0.76907 0.21218 0.0
H1382 H 0.96463 0.75544 0.21333 0.0
H1383 H 0.0583 0.72594 0.43432 0.0
H1384 H 0.04774 0.74614 0.37252 0.0
H1385 H 1.00158 0.70236 0.34248 0.0
H1386 H 0.012 0.68199 0.40487 0.0
H1387 H 0.98749 0.74219 0.33751 0.0
H1388 H 0.04391 0.70322 0.28332 0.0
H1389 H 0.07883 0.69011 0.28425 0.0
H1390 H 0.10195 0.7507 0.28022 0.0
H1391 H 0.06715 0.76417 0.27988 0.0
C1392 C 0.00531 0.78585 0.13392 0.0
C1393 C 1.00238 0.80651 0.14256 0.0
C1394 C 0.00515 0.77172 0.16731 0.0
C1395 C 1.00197 0.77792 0.21005 0.0
C1396 C 0.99719 0.79826 0.21835 0.0
C1397 C 0.99731 0.81248 0.18476 0.0
C1398 C 0.00653 0.7637 0.24586 0.0
C1399 C 0.02611 0.75556 0.24796 0.0
C1400 C 0.99237 0.75875 0.27837 0.0
C1401 C 0.97139 0.76666 0.27748 0.0
C1402 C 0.96356 0.77711 0.31329 0.0
C1403 C 0.94383 0.78469 0.31242 0.0
C1404 C 0.93174 0.78184 0.27596 0.0
C1405 C 0.93934 0.77134 0.24034 0.0
C1406 C 0.95905 0.76372 0.24106 0.0
C1407 C 0.04597 0.72049 0.41451 0.0
C1408 C 0.03608 0.70226 0.42441 0.0
C1409 C 0.03994 0.73209 0.37916 0.0
C1410 C 0.02395 0.72572 0.35272 0.0
C1411 C 0.01395 0.70757 0.3625 0.0
C1412 C 0.02003 0.69587 0.39794 0.0
C1413 C 0.01797 0.73798 0.31463 0.0
C1414 C 0.99826 0.74589 0.31234 0.0
C1415 C 0.03201 0.74279 0.28177 0.0
C1416 C 0.05293 0.73469 0.28182 0.0
C1417 C 0.05644 0.71374 0.28291 0.0
C1418 C 0.07621 0.70625 0.28329 0.0
C1419 C 0.0926 0.71956 0.28235 0.0
C1420 C 0.08925 0.7404 0.28095 0.0
C1421 C 0.06951 0.74797 0.2806 0.0
H1422 H 0.10789 0.71373 0.28265 0.0
H1423 H 0.91647 0.78773 0.27533 0.0
H1424 H 0.42062 0.99751 0.02626 0.0
H1425 H 0.45657 0.99992 0.04431 0.0
H1426 H 0.47193 0.99383 0.90963 0.0
H1427 H 0.43612 0.99089 0.89159 0.0
H1428 H 0.49549 0.9705 0.95419 0.0
H1429 H 0.4759 0.03978 0.96575 0.0
H1430 H 0.45571 0.06888 0.99061 0.0
H1431 H 0.47222 0.05619 0.12182 0.0
H1432 H 0.49231 0.02683 0.09779 0.0
H1433 H 0.59933 1.00228 0.97724 0.0
H1434 H 0.56352 0.99956 0.95725 0.0
H1435 H 0.54723 0.99576 0.09168 0.0
H1436 H 0.58285 0.99821 0.11187 0.0
H1437 H 0.52457 0.02445 0.04628 0.0
H1438 H 0.5444 0.95478 0.03224 0.0
H1439 H 0.56505 0.92645 0.00512 0.0
H1440 H 0.54858 0.94134 0.87494 0.0
H1441 H 0.52804 0.96995 0.90127 0.0
C1442 C 0.43164 0.99693 1.00044 0.0
C1443 C 0.42544 0.99407 0.95747 0.0
C1444 C 0.45224 0.99835 0.01078 0.0
C1445 C 0.4671 0.99721 0.97833 0.0
C1446 C 0.46086 0.9947 0.93534 0.0
C1447 C 0.44031 0.99313 0.92503 0.0
C1448 C 0.48912 0.99796 0.98917 0.0
C1449 C 0.50185 0.9825 0.9738 0.0
C1450 C 0.49753 0.01336 0.0154 0.0
C1451 C 0.48544 0.03098 0.03 0.0
C1452 C 0.47509 0.04309 0.99994 0.0
C1453 C 0.4637 0.05965 0.01387 0.0
C1454 C 0.46264 0.06435 0.05777 0.0
C1455 C 0.47303 0.05252 0.08783 0.0
C1456 C 0.48444 0.03592 0.07407 0.0
C1457 C 0.58815 1.00058 0.00251 0.0
C1458 C 0.59401 1.00041 0.04616 0.0
C1459 C 0.56768 0.99904 0.99104 0.0
C1460 C 0.55266 0.9975 0.02299 0.0
C1461 C 0.55852 0.99701 0.06648 0.0
C1462 C 0.57894 0.99828 0.07793 0.0
C1463 C 0.53079 0.99703 0.01134 0.0
C1464 C 0.51814 0.01252 0.02657 0.0
C1465 C 0.5225 0.98181 0.9846 0.0
C1466 C 0.53487 0.96465 0.9687 0.0
C1467 C 0.54534 0.95213 0.9978 0.0
C1468 C 0.55699 0.936 0.98258 0.0
C1469 C 0.55818 0.93214 0.93833 0.0
C1470 C 0.54767 0.94437 0.90921 0.0
C1471 C 0.53602 0.96054 0.92427 0.0
H1472 H 0.56719 0.91963 0.9266 0.0
H1473 H 0.45381 0.07718 0.06849 0.0
H1474 H 0.50501 0.41498 0.022 0.0
H1475 H 0.49982 0.45041 0.04253 0.0
H1476 H 0.51659 0.46923 0.91424 0.0
H1477 H 0.52187 0.43403 0.8936 0.0
H1478 H 0.53589 0.49145 0.97428 0.0
H1479 H 0.46768 0.47066 0.94655 0.0
H1480 H 0.4373 0.44937 0.9541 0.0
H1481 H 0.43444 0.46338 0.08926 0.0
H1482 H 0.46499 0.48454 0.08263 0.0
H1483 H 0.50293 0.59436 0.98658 0.0
H1484 H 0.5081 0.55886 0.96672 0.0
H1485 H 0.49088 0.54054 0.09508 0.0
H1486 H 0.48558 0.57584 0.11504 0.0
H1487 H 0.47187 0.51801 0.03545 0.0
H1488 H 0.54 0.5389 0.06317 0.0
H1489 H 0.57037 0.56019 0.05564 0.0
H1490 H 0.57342 0.54597 0.9206 0.0
H1491 H 0.54287 0.5248 0.92721 0.0
C1492 C 0.50741 0.42665 0.99807 0.0
C1493 C 0.51383 0.42162 0.95614 0.0
C1494 C 0.50441 0.44691 0.00982 0.0
C1495 C 0.50776 0.46253 0.97988 0.0
C1496 C 0.51396 0.45749 0.93794 0.0
C1497 C 0.51688 0.4373 0.92615 0.0
C1498 C 0.5053 0.48415 0.99236 0.0
C1499 C 0.5218 0.4973 0.98714 0.0
C1500 C 0.48709 0.49175 0.01006 0.0
C1501 C 0.46875 0.47901 0.01418 0.0
C1502 C 0.46068 0.46906 0.97796 0.0
C1503 C 0.44341 0.45704 0.98206 0.0
C1504 C 0.43398 0.45498 0.02216 0.0
C1505 C 0.44178 0.46497 0.05823 0.0
C1506 C 0.45906 0.47698 0.05432 0.0
C1507 C 0.50044 0.58279 0.01068 0.0
C1508 C 0.4939 0.58798 0.05243 0.0
C1509 C 0.50342 0.56248 0.99931 0.0
C1510 C 0.49996 0.54698 0.02946 0.0
C1511 C 0.49361 0.55218 0.07122 0.0
C1512 C 0.49069 0.57242 0.08263 0.0
C1513 C 0.50245 0.52531 0.01733 0.0
C1514 C 0.48597 0.51215 0.02262 0.0
C1515 C 0.52067 0.5177 0.9997 0.0
C1516 C 0.53902 0.53044 0.9956 0.0
C1517 C 0.54704 0.54046 0.03179 0.0
C1518 C 0.5643 0.55247 0.0277 0.0
C1519 C 0.57378 0.55448 0.98764 0.0
C1520 C 0.56604 0.54443 0.9516 0.0
C1521 C 0.54876 0.53241 0.9555 0.0
H1522 H 0.58716 0.56378 0.98455 0.0
H1523 H 0.42061 0.44568 0.02526 0.0
H1524 H 0.91239 0.49399 0.98406 0.0
H1525 H 0.94805 0.49756 0.96384 0.0
H1526 H 0.96473 0.49876 0.09835 0.0
H1527 H 0.92931 0.49479 0.11869 0.0
H1528 H 0.9767 0.52519 0.97751 0.0
H1529 H 0.00967 0.4752 0.11336 0.0
H1530 H 0.99941 0.4465 0.15918 0.0
H1531 H 0.95748 0.427 0.06197 0.0
H1532 H 0.96768 0.45542 0.01535 0.0
H1533 H 0.09119 0.50756 0.02609 0.0
H1534 H 0.05563 0.50398 0.0473 0.0
H1535 H 0.03825 0.50193 0.91326 0.0
H1536 H 0.07353 0.50586 0.89192 0.0
H1537 H 0.02673 0.47605 0.03443 0.0
H1538 H 0.99368 0.52607 0.89867 0.0
H1539 H 0.00398 0.55473 0.85277 0.0
H1540 H 0.04612 0.57407 0.94971 0.0
H1541 H 0.03587 0.54572 0.99642 0.0
C1542 C 0.92364 0.4952 0.00932 0.0
C1543 C 0.91798 0.49396 0.05299 0.0
C1544 C 0.94404 0.49723 0.99772 0.0
C1545 C 0.95918 0.49802 0.02952 0.0
C1546 C 0.95343 0.4977 0.07315 0.0
C1547 C 0.93311 0.49556 0.08474 0.0
C1548 C 0.98098 0.49885 0.0172 0.0
C1549 C 0.98757 0.51427 0.98951 0.0
C1550 C 0.99534 0.4849 0.03359 0.0
C1551 C 0.9893 0.46757 0.06108 0.0
C1552 C 0.99832 0.46474 0.10171 0.0
C1553 C 0.99251 0.44853 0.12783 0.0
C1554 C 0.97776 0.43498 0.11356 0.0
C1555 C 0.96885 0.43756 0.07305 0.0
C1556 C 0.97462 0.45373 0.04679 0.0
C1557 C 0.0798 0.50615 1.00116 0.0
C1558 C 0.08522 0.50715 0.95731 0.0
C1559 C 0.05947 0.50411 0.01332 0.0
C1560 C 0.04417 0.50308 0.9819 0.0
C1561 C 0.04968 0.50316 0.93814 0.0
C1562 C 0.06993 0.50529 0.92599 0.0
C1563 C 0.02243 0.50236 0.99468 0.0
C1564 C 0.01586 0.48696 0.02246 0.0
C1565 C 0.00808 0.51633 0.97836 0.0
C1566 C 0.01414 0.53364 0.95083 0.0
C1567 C 0.00508 0.53649 0.91026 0.0
C1568 C 0.01092 0.55267 0.88409 0.0
C1569 C 0.02574 0.56617 0.89825 0.0
C1570 C 0.0347 0.56357 0.93871 0.0
C1571 C 0.02889 0.54743 0.96502 0.0
H1572 H 0.03026 0.57867 0.87793 0.0
H1573 H 0.97326 0.42245 0.13385 0.0
H1574 H 1.00166 0.07394 0.89257 0.0
H1575 H 1.0032 0.03812 0.91106 0.0
H1576 H 0.99926 0.05314 0.04622 0.0
H1577 H 0.99814 0.08918 0.02791 0.0
H1578 H 0.02515 0.02276 0.03471 0.0
H1579 H 0.95751 0.03691 0.98838 0.0
H1580 H 0.93113 0.04966 0.93919 0.0
H1581 H 0.95057 0.00798 0.84136 0.0
H1582 H 0.97728 0.99518 0.88978 0.0
H1583 H 0.9962 0.92629 0.10987 0.0
H1584 H 0.99448 0.96198 0.09028 0.0
H1585 H 1.00333 0.94647 0.9565 0.0
H1586 H 0.00506 0.91056 0.97586 0.0
H1587 H 0.97493 0.9769 0.96714 0.0
H1588 H 0.04251 0.96267 0.01475 0.0
H1589 H 0.06844 0.94987 0.06496 0.0
H1590 H 0.04845 0.99181 0.16177 0.0
H1591 H 0.02217 0.00465 0.11234 0.0
C1592 C 1.00136 0.06969 0.92631 0.0
C1593 C 0.99967 0.08448 0.95875 0.0
C1594 C 1.00209 0.04913 0.93683 0.0
C1595 C 1.00088 0.04281 0.98002 0.0
C1596 C 1.0001 0.05758 0.01263 0.0
C1597 C 0.99948 0.07821 0.00212 0.0
C1598 C 0.99994 0.02083 0.99096 0.0
C1599 C 0.01399 0.01282 0.02034 0.0
C1600 C 0.98564 0.00764 0.97166 0.0
C1601 C 0.96952 0.01522 0.94256 0.0
C1602 C 0.95626 0.03057 0.95627 0.0
C1603 C 0.94123 0.03779 0.92854 0.0
C1604 C 0.93921 0.02967 0.88714 0.0
C1605 C 0.95217 0.01427 0.87342 0.0
C1606 C 0.96725 0.00702 0.901 0.0
C1607 C 0.99748 0.93037 0.07614 0.0
C1608 C 1.00085 0.91549 0.04446 0.0
C1609 C 0.99662 0.95086 0.06504 0.0
C1610 C 0.99914 0.95699 0.02201 0.0
C1611 C 1.00145 0.94213 0.98995 0.0
C1612 C 1.0024 0.92158 1.00107 0.0
C1613 C 1.00011 0.97891 0.01087 0.0
C1614 C 0.98608 0.98688 0.98147 0.0
C1615 C 0.01436 0.99207 0.03029 0.0
C1616 C 0.03024 0.98448 0.05998 0.0
C1617 C 0.04354 0.96906 0.04687 0.0
C1618 C 0.05832 0.96181 0.07517 0.0
C1619 C 0.06006 0.96999 0.11657 0.0
C1620 C 0.04706 0.98547 0.12971 0.0
C1621 C 0.03223 0.99275 0.10156 0.0
H1622 H 0.07151 0.96436 0.13844 0.0
H1623 H 0.92756 0.03528 0.86572 0.0
H1624 H 0.07424 0.99489 0.39587 0.0
H1625 H 0.03849 0.99836 0.41407 0.0
H1626 H 0.05401 0.00522 0.54841 0.0
H1627 H 0.08994 1.00156 0.53042 0.0
H1628 H 0.02372 0.97827 0.53815 0.0
H1629 H 0.03741 0.04552 0.48809 0.0
H1630 H 0.04966 0.07133 0.43706 0.0
H1631 H 0.00749 0.05046 0.34164 0.0
H1632 H 0.99517 0.02433 0.39192 0.0
H1633 H 0.92757 0.0104 0.61391 0.0
H1634 H 0.96303 0.00621 0.59446 0.0
H1635 H 0.94661 1.00278 0.45997 0.0
H1636 H 0.91097 0.00746 0.47925 0.0
H1637 H 0.97735 0.02759 0.46939 0.0
H1638 H 0.96336 0.96061 0.51838 0.0
H1639 H 0.9511 0.93433 0.56828 0.0
H1640 H 0.99367 0.9539 0.66414 0.0
H1641 H 0.00602 0.98049 0.615 0.0
C1642 C 0.07012 0.99743 0.42926 0.0
C1643 C 0.08503 0.99801 0.46166 0.0
C1644 C 0.04961 0.99944 0.43963 0.0
C1645 C 0.04346 1.00217 0.48263 0.0
C1646 C 0.05833 1.00312 0.51499 0.0
C1647 C 0.0789 1.00116 0.50462 0.0
C1648 C 0.02151 1.00323 0.49388 0.0
C1649 C 0.01364 0.98926 0.5236 0.0
C1650 C 0.00815 0.01712 0.47391 0.0
C1651 C 0.01551 0.03284 0.44365 0.0
C1652 C 0.03086 0.04632 0.45611 0.0
C1653 C 0.0378 0.06104 0.42734 0.0
C1654 C 0.02939 0.0625 0.38609 0.0
C1655 C 0.014 0.04929 0.37357 0.0
C1656 C 0.00702 0.03454 0.40221 0.0
C1657 C 0.9314 0.00845 0.58019 0.0
C1658 C 0.91633 0.00922 0.54817 0.0
C1659 C 0.95178 0.00599 0.56909 0.0
C1660 C 0.95763 0.004 0.5257 0.0
C1661 C 0.94255 0.00428 0.49369 0.0
C1662 C 0.92213 0.00682 0.50478 0.0
C1663 C 0.97952 1.00265 0.5138 0.0
C1664 C 0.98739 0.01657 0.48394 0.0
C1665 C 0.99287 0.98864 0.53348 0.0
C1666 C 0.98548 0.97267 0.56313 0.0
C1667 C 0.97 0.95942 0.55022 0.0
C1668 C 0.96305 0.94444 0.57835 0.0
C1669 C 0.97156 0.94248 0.6194 0.0
C1670 C 0.98708 0.95545 0.63236 0.0
C1671 C 0.99407 0.97047 0.60436 0.0
H1672 H 0.96617 0.93087 0.64112 0.0
H1673 H 0.03478 0.0739 0.36387 0.0
H1674 H 0.49085 0.91443 0.48012 0.0
H1675 H 0.495 0.94996 0.46003 0.0
H1676 H 0.50325 0.96569 0.59399 0.0
H1677 H 0.49853 0.93037 0.61427 0.0
H1678 H 0.47795 0.99096 0.55918 0.0
H1679 H 0.54317 0.96508 0.51776 0.0
H1680 H 0.56681 0.94232 0.47992 0.0
H1681 H 0.54258 0.96116 0.35784 0.0
H1682 H 0.51862 0.98385 0.395 0.0
H1683 H 0.51172 0.09231 0.52667 0.0
H1684 H 0.50772 0.05673 0.54646 0.0
H1685 H 0.50061 0.04107 0.41214 0.0
H1686 H 0.50533 0.07645 0.39219 0.0
H1687 H 0.52527 0.01571 0.44701 0.0
H1688 H 0.46005 0.04151 0.48805 0.0
H1689 H 0.43627 0.06423 0.52562 0.0
H1690 H 0.46026 0.04548 0.64797 0.0
H1691 H 0.48436 0.02283 0.61109 0.0
C1692 C 0.49384 0.92542 0.50522 0.0
C1693 C 0.49438 0.91953 0.5488 0.0
C1694 C 0.49624 0.94577 0.49369 0.0
C1695 C 0.49958 0.96062 0.52544 0.0
C1696 C 0.50062 0.95462 0.56886 0.0
C1697 C 0.49802 0.93436 0.5804 0.0
C1698 C 0.50117 0.98247 0.51386 0.0
C1699 C 0.48852 0.99639 0.53505 0.0
C1700 C 0.51453 0.98961 0.48157 0.0
C1701 C 0.52897 0.97602 0.45919 0.0
C1702 C 0.54278 0.96426 0.48287 0.0
C1703 C 0.55626 0.95139 0.46153 0.0
C1704 C 0.55616 0.95026 0.41651 0.0
C1705 C 0.54262 0.96203 0.39272 0.0
C1706 C 0.52911 0.97492 0.41389 0.0
C1707 C 0.50902 0.08132 0.50143 0.0
C1708 C 0.5088 0.08724 0.45786 0.0
C1709 C 0.50669 0.06094 0.51277 0.0
C1710 C 0.50368 0.0461 0.48085 0.0
C1711 C 0.50298 0.05213 0.43742 0.0
C1712 C 0.50558 0.07242 0.42606 0.0
C1713 C 0.50206 0.02422 0.49233 0.0
C1714 C 0.5147 0.0103 0.47112 0.0
C1715 C 0.48866 0.01706 0.52456 0.0
C1716 C 0.47413 0.03062 0.54678 0.0
C1717 C 0.46034 0.04234 0.52295 0.0
C1718 C 0.44679 0.05518 0.54413 0.0
C1719 C 0.44679 0.05633 0.58915 0.0
C1720 C 0.4603 0.04459 0.6131 0.0
C1721 C 0.47389 0.03173 0.59208 0.0
H1722 H 0.43629 0.06629 0.60548 0.0
H1723 H 0.5666 0.94028 0.40006 0.0
H1724 H 0.59024 0.49763 0.48324 0.0
H1725 H 0.55476 0.50286 0.46345 0.0
H1726 H 0.53711 0.49396 0.59608 0.0
H1727 H 0.57239 0.48836 0.61587 0.0
H1728 H 0.51306 0.47308 0.54524 0.0
H1729 H 0.53717 0.54142 0.54783 0.0
H1730 H 0.5596 0.56978 0.52868 0.0
H1731 H 0.5437 0.56301 0.39513 0.0
H1732 H 0.52137 0.53442 0.41342 0.0
H1733 H 0.41124 0.50908 0.52521 0.0
H1734 H 0.44665 0.50357 0.54546 0.0
H1735 H 0.46459 0.51105 0.41263 0.0
H1736 H 0.42941 0.51679 0.39232 0.0
H1737 H 0.48841 0.53272 0.46391 0.0
H1738 H 0.46426 0.46429 0.46171 0.0
H1739 H 0.44178 0.43603 0.48124 0.0
H1740 H 0.45768 0.44317 0.6147 0.0
H1741 H 0.48007 0.47167 0.59602 0.0
C1742 C 0.57883 0.497 0.50826 0.0
C1743 C 0.5842 0.49262 0.55115 0.0
C1744 C 0.55852 0.50003 0.49692 0.0
C1745 C 0.54318 0.49894 0.52831 0.0
C1746 C 0.54859 0.49484 0.57122 0.0
C1747 C 0.56883 0.49173 0.58252 0.0
C1748 C 0.52144 0.50149 0.51642 0.0
C1749 C 0.50765 0.48627 0.52797 0.0
C1750 C 0.51434 0.51846 0.49303 0.0
C1751 C 0.52776 0.53565 0.48195 0.0
C1752 C 0.53858 0.54587 0.51433 0.0
C1753 C 0.55125 0.56201 0.50365 0.0
C1754 C 0.55312 0.56816 0.46071 0.0
C1755 C 0.54227 0.55821 0.42837 0.0
C1756 C 0.52959 0.54205 0.43889 0.0
C1757 C 0.4227 0.50932 0.50025 0.0
C1758 C 0.41745 0.51336 0.45713 0.0
C1759 C 0.44296 0.50614 0.51186 0.0
C1760 C 0.45836 0.50681 0.48055 0.0
C1761 C 0.45306 0.51052 0.43743 0.0
C1762 C 0.43287 0.5137 0.42583 0.0
C1763 C 0.48005 0.5043 0.4927 0.0
C1764 C 0.49384 0.51953 0.4812 0.0
C1765 C 0.48713 0.48737 0.51621 0.0
C1766 C 0.47368 0.47025 0.52751 0.0
C1767 C 0.46283 0.45995 0.49527 0.0
C1768 C 0.45013 0.44386 0.50617 0.0
C1769 C 0.44826 0.43784 0.54919 0.0
C1770 C 0.45912 0.44787 0.58139 0.0
C1771 C 0.47183 0.46398 0.57066 0.0
H1772 H 0.43842 0.42539 0.55757 0.0
H1773 H 0.56294 0.58066 0.4525 0.0
H1774 H 0.00954 0.59537 0.47881 0.0
H1775 H 1.00307 0.56005 0.45931 0.0
H1776 H 0.00923 0.54275 0.59283 0.0
H1777 H 0.01523 0.57791 0.61256 0.0
H1778 H 0.02698 0.52826 0.46544 0.0
H1779 H 0.98206 0.50087 0.61525 0.0
H1780 H 0.95718 0.51411 0.66744 0.0
H1781 H 0.93725 0.55798 0.57468 0.0
H1782 H 0.9618 0.54484 0.52175 0.0
H1783 H 0.99884 0.41649 0.526 0.0
H1784 H 1.00364 0.45219 0.5448 0.0
H1785 H 0.99361 0.46891 0.41205 0.0
H1786 H 0.98895 0.4334 0.39305 0.0
H1787 H 0.97733 0.48368 0.53831 0.0
H1788 H 0.02124 0.511 0.388 0.0
H1789 H 0.04571 0.49785 0.33484 0.0
H1790 H 0.06692 0.45438 0.42719 0.0
H1791 H 0.04278 0.46744 0.48106 0.0
C1792 C 0.00915 0.58409 0.50412 0.0
C1793 C 0.01282 0.58955 0.5473 0.0
C1794 C 0.00558 0.56386 0.49288 0.0
C1795 C 0.00551 0.54863 0.52456 0.0
C1796 C 0.00882 0.55415 0.56778 0.0
C1797 C 0.01231 0.57434 0.57902 0.0
C1798 C 1.00299 0.52691 0.51237 0.0
C1799 C 0.01587 0.51863 0.48091 0.0
C1800 C 0.98888 0.51408 0.53322 0.0
C1801 C 0.97393 0.52199 0.5647 0.0
C1802 C 0.97232 0.51329 0.60594 0.0
C1803 C 0.95828 0.52079 0.63566 0.0
C1804 C 0.94569 0.53692 0.62443 0.0
C1805 C 0.94707 0.54555 0.5834 0.0
C1806 C 0.96107 0.5381 0.55355 0.0
C1807 C 0.9979 0.42775 0.50073 0.0
C1808 C 0.9936 0.42203 0.45797 0.0
C1809 C 1.00053 0.44818 0.51157 0.0
C1810 C 0.99912 0.4633 0.47984 0.0
C1811 C 0.99506 0.45757 0.43706 0.0
C1812 C 0.99236 0.43721 0.42626 0.0
C1813 C 1.00133 0.48509 0.49149 0.0
C1814 C 0.9884 0.49336 0.52283 0.0
C1815 C 0.01532 0.49794 0.47039 0.0
C1816 C 0.03004 0.49007 0.43839 0.0
C1817 C 0.03117 0.49868 0.39699 0.0
C1818 C 0.04498 0.49123 0.36674 0.0
C1819 C 0.05781 0.47524 0.37758 0.0
C1820 C 0.05691 0.46671 0.41876 0.0
C1821 C 0.04315 0.47411 0.44915 0.0
H1822 H 0.06848 0.46949 0.3541 0.0
H1823 H 0.93485 0.54271 0.64749 0.0
loop_
_geom_bond_atom_site_label_1
_geom_bond_atom_site_label_2
_geom_bond_distance
_geom_bond_site_symmetry_2
_ccdc_geom_bond_type
O0 Cd1 2.223 . S
O0 C8 1.315 . S
Cd1 O0 2.223 . S
Cd1 O4 2.297 . S
Cd1 O5 2.439 1_554 S
Cd1 O11 2.240 . S
Cd2 O3 2.240 . S
Cd2 O10 2.223 . S
Cd2 O12 2.297 . S
Cd2 O13 2.439 . S
O3 Cd2 2.240 . S
O3 C8 1.279 . S
O4 Cd1 2.297 . S
O4 C6 1.247 1_554 S
O5 Cd1 2.439 1_556 S
O5 C6 1.208 . S
C6 O4 1.247 1_556 S
C6 O5 1.208 . S
C7 O12 1.247 . S
C7 O13 1.208 . S
C8 O0 1.315 . S
C8 O3 1.279 . S
C9 O10 1.315 . S
C9 O11 1.279 . S
O10 Cd2 2.223 . S
O10 C9 1.315 . S
O11 Cd1 2.240 . S
O11 C9 1.279 . S
O12 Cd2 2.297 . S
O12 C7 1.247 . S
O13 Cd2 2.439 . S
O13 C7 1.208 . S
O14 Cd15 2.223 . S
O14 C22 1.315 . S
Cd15 O14 2.223 . S
Cd15 O18 2.297 . S
Cd15 O19 2.439 1_554 S
Cd15 O25 2.240 . S
Cd16 O17 2.240 . S
Cd16 O24 2.223 . S
Cd16 O26 2.297 . S
Cd16 O27 2.439 . S
O17 Cd16 2.240 . S
O17 C22 1.279 . S
O18 Cd15 2.297 . S
O18 C20 1.247 1_554 S
O19 Cd15 2.439 1_556 S
O19 C20 1.208 . S
C20 O18 1.247 1_556 S
C20 O19 1.208 . S
C21 O26 1.247 . S
C21 O27 1.208 . S
C22 O14 1.315 . S
C22 O17 1.279 . S
C23 O24 1.315 . S
C23 O25 1.279 . S
O24 Cd16 2.223 . S
O24 C23 1.315 . S
O25 Cd15 2.240 . S
O25 C23 1.279 . S
O26 Cd16 2.297 . S
O26 C21 1.247 . S
O27 Cd16 2.439 . S
O27 C21 1.208 . S
O28 Cd29 2.223 . S
O28 C36 1.315 . S
Cd29 O28 2.223 . S
Cd29 O32 2.297 . S
Cd29 O33 2.439 1_554 S
Cd29 O39 2.240 . S
Cd30 O31 2.240 . S
Cd30 O38 2.223 . S
Cd30 O40 2.297 . S
Cd30 O41 2.439 . S
O31 Cd30 2.240 . S
O31 C36 1.279 . S
O32 Cd29 2.297 . S
O32 C34 1.247 1_554 S
O33 Cd29 2.439 1_556 S
O33 C34 1.208 . S
C34 O32 1.247 1_556 S
C34 O33 1.208 . S
C35 O40 1.247 . S
C35 O41 1.208 . S
C36 O28 1.315 . S
C36 O31 1.279 . S
C37 O38 1.315 . S
C37 O39 1.279 . S
O38 Cd30 2.223 . S
O38 C37 1.315 . S
O39 Cd29 2.240 . S
O39 C37 1.279 . S
O40 Cd30 2.297 . S
O40 C35 1.247 . S
O41 Cd30 2.439 . S
O41 C35 1.208 . S
O42 Cd43 2.223 . S
O42 C50 1.315 . S
Cd43 O42 2.223 . S
Cd43 O46 2.297 . S
Cd43 O47 2.439 1_554 S
Cd43 O53 2.240 . S
Cd44 O45 2.240 . S
Cd44 O52 2.223 . S
Cd44 O54 2.297 . S
Cd44 O55 2.439 . S
O45 Cd44 2.240 . S
O45 C50 1.279 . S
O46 Cd43 2.297 . S
O46 C48 1.247 1_554 S
O47 Cd43 2.439 1_556 S
O47 C48 1.208 . S
C48 O46 1.247 1_556 S
C48 O47 1.208 . S
C49 O54 1.247 . S
C49 O55 1.208 . S
C50 O42 1.315 . S
C50 O45 1.279 . S
C51 O52 1.315 . S
C51 O53 1.279 . S
O52 Cd44 2.223 . S
O52 C51 1.315 . S
O53 Cd43 2.240 . S
O53 C51 1.279 . S
O54 Cd44 2.297 . S
O54 C49 1.247 . S
O55 Cd44 2.439 . S
O55 C49 1.208 . S
O56 Cd57 2.223 . S
O56 C64 1.315 . S
Cd57 O56 2.223 . S
Cd57 O60 2.297 . S
Cd57 O61 2.439 . S
Cd57 O67 2.240 . S
Cd58 O59 2.240 . S
Cd58 O66 2.223 . S
Cd58 O68 2.297 . S
Cd58 O69 2.439 . S
O59 Cd58 2.240 . S
O59 C64 1.279 . S
O60 Cd57 2.297 . S
O60 C62 1.247 . S
O61 Cd57 2.439 . S
O61 C62 1.208 . S
C62 O60 1.247 . S
C62 O61 1.208 . S
C63 O68 1.247 . S
C63 O69 1.208 . S
C64 O56 1.315 . S
C64 O59 1.279 . S
C65 O66 1.315 . S
C65 O67 1.279 . S
O66 Cd58 2.223 . S
O66 C65 1.315 . S
O67 Cd57 2.240 . S
O67 C65 1.279 . S
O68 Cd58 2.297 . S
O68 C63 1.247 . S
O69 Cd58 2.439 . S
O69 C63 1.208 . S
O70 Cd71 2.223 . S
O70 C78 1.315 . S
Cd71 O70 2.223 . S
Cd71 O74 2.297 . S
Cd71 O75 2.439 . S
Cd71 O81 2.240 . S
Cd72 O73 2.240 . S
Cd72 O80 2.223 . S
Cd72 O82 2.297 . S
Cd72 O83 2.439 . S
O73 Cd72 2.240 . S
O73 C78 1.279 . S
O74 Cd71 2.297 . S
O74 C76 1.247 . S
O75 Cd71 2.439 . S
O75 C76 1.208 . S
C76 O74 1.247 . S
C76 O75 1.208 . S
C77 O82 1.247 . S
C77 O83 1.208 . S
C78 O70 1.315 . S
C78 O73 1.279 . S
C79 O80 1.315 . S
C79 O81 1.279 . S
O80 Cd72 2.223 . S
O80 C79 1.315 . S
O81 Cd71 2.240 . S
O81 C79 1.279 . S
O82 Cd72 2.297 . S
O82 C77 1.247 . S
O83 Cd72 2.439 . S
O83 C77 1.208 . S
O84 Cd85 2.223 . S
O84 C92 1.315 . S
Cd85 O84 2.223 . S
Cd85 O88 2.297 . S
Cd85 O89 2.439 . S
Cd85 O95 2.240 . S
Cd86 O87 2.240 . S
Cd86 O94 2.223 . S
Cd86 O96 2.297 . S
Cd86 O97 2.439 . S
O87 Cd86 2.240 . S
O87 C92 1.279 . S
O88 Cd85 2.297 . S
O88 C90 1.247 . S
O89 Cd85 2.439 . S
O89 C90 1.208 . S
C90 O88 1.247 . S
C90 O89 1.208 . S
C91 O96 1.247 . S
C91 O97 1.208 . S
C92 O84 1.315 . S
C92 O87 1.279 . S
C93 O94 1.315 . S
C93 O95 1.279 . S
O94 Cd86 2.223 . S
O94 C93 1.315 . S
O95 Cd85 2.240 . S
O95 C93 1.279 . S
O96 Cd86 2.297 . S
O96 C91 1.247 . S
O97 Cd86 2.439 . S
O97 C91 1.208 . S
O98 Cd99 2.223 . S
O98 C106 1.315 . S
Cd99 O98 2.223 . S
Cd99 O102 2.297 . S
Cd99 O103 2.439 . S
Cd99 O109 2.240 . S
Cd100 O101 2.240 . S
Cd100 O108 2.223 . S
Cd100 O110 2.297 . S
Cd100 O111 2.439 . S
O101 Cd100 2.240 . S
O101 C106 1.279 . S
O102 Cd99 2.297 . S
O102 C104 1.247 . S
O103 Cd99 2.439 . S
O103 C104 1.208 . S
C104 O102 1.247 . S
C104 O103 1.208 . S
C105 O110 1.247 . S
C105 O111 1.208 . S
C106 O98 1.315 . S
C106 O101 1.279 . S
C107 O108 1.315 . S
C107 O109 1.279 . S
O108 Cd100 2.223 . S
O108 C107 1.315 . S
O109 Cd99 2.240 . S
O109 C107 1.279 . S
O110 Cd100 2.297 . S
O110 C105 1.247 . S
O111 Cd100 2.439 . S
O111 C105 1.208 . S
O112 Cd113 2.223 . S
O112 C120 1.315 . S
Cd113 O112 2.223 . S
Cd113 O116 2.297 . S
Cd113 O117 2.439 1_556 S
Cd113 O123 2.240 . S
Cd114 O115 2.240 . S
Cd114 O122 2.223 . S
Cd114 O124 2.297 . S
Cd114 O125 2.439 . S
O115 Cd114 2.240 . S
O115 C120 1.279 . S
O116 Cd113 2.297 . S
O116 C118 1.247 1_556 S
O117 Cd113 2.439 1_554 S
O117 C118 1.208 . S
C118 O116 1.247 1_554 S
C118 O117 1.208 . S
C119 O124 1.247 . S
C119 O125 1.208 . S
C120 O112 1.315 . S
C120 O115 1.279 . S
C121 O122 1.315 . S
C121 O123 1.279 . S
O122 Cd114 2.223 . S
O122 C121 1.315 . S
O123 Cd113 2.240 . S
O123 C121 1.279 . S
O124 Cd114 2.297 . S
O124 C119 1.247 . S
O125 Cd114 2.439 . S
O125 C119 1.208 . S
O126 Cd127 2.223 . S
O126 C134 1.315 . S
Cd127 O126 2.223 . S
Cd127 O130 2.297 . S
Cd127 O131 2.439 1_556 S
Cd127 O137 2.240 . S
Cd128 O129 2.240 . S
Cd128 O136 2.223 . S
Cd128 O138 2.297 . S
Cd128 O139 2.439 . S
O129 Cd128 2.240 . S
O129 C134 1.279 . S
O130 Cd127 2.297 . S
O130 C132 1.247 1_556 S
O131 Cd127 2.439 1_554 S
O131 C132 1.208 . S
C132 O130 1.247 1_554 S
C132 O131 1.208 . S
C133 O138 1.247 . S
C133 O139 1.208 . S
C134 O126 1.315 . S
C134 O129 1.279 . S
C135 O136 1.315 . S
C135 O137 1.279 . S
O136 Cd128 2.223 . S
O136 C135 1.315 . S
O137 Cd127 2.240 . S
O137 C135 1.279 . S
O138 Cd128 2.297 . S
O138 C133 1.247 . S
O139 Cd128 2.439 . S
O139 C133 1.208 . S
O140 Cd141 2.223 . S
O140 C148 1.315 . S
Cd141 O140 2.223 . S
Cd141 O144 2.297 . S
Cd141 O145 2.439 1_556 S
Cd141 O151 2.240 . S
Cd142 O143 2.240 . S
Cd142 O150 2.223 . S
Cd142 O152 2.297 . S
Cd142 O153 2.439 . S
O143 Cd142 2.240 . S
O143 C148 1.279 . S
O144 Cd141 2.297 . S
O144 C146 1.247 1_556 S
O145 Cd141 2.439 1_554 S
O145 C146 1.208 . S
C146 O144 1.247 1_554 S
C146 O145 1.208 . S
C147 O152 1.247 . S
C147 O153 1.208 . S
C148 O140 1.315 . S
C148 O143 1.279 . S
C149 O150 1.315 . S
C149 O151 1.279 . S
O150 Cd142 2.223 . S
O150 C149 1.315 . S
O151 Cd141 2.240 . S
O151 C149 1.279 . S
O152 Cd142 2.297 . S
O152 C147 1.247 . S
O153 Cd142 2.439 . S
O153 C147 1.208 . S
O154 Cd155 2.223 . S
O154 C162 1.315 . S
Cd155 O154 2.223 . S
Cd155 O158 2.297 . S
Cd155 O159 2.439 1_556 S
Cd155 O165 2.240 . S
Cd156 O157 2.240 . S
Cd156 O164 2.223 . S
Cd156 O166 2.297 . S
Cd156 O167 2.439 . S
O157 Cd156 2.240 . S
O157 C162 1.279 . S
O158 Cd155 2.297 . S
O158 C160 1.247 1_556 S
O159 Cd155 2.439 1_554 S
O159 C160 1.208 . S
C160 O158 1.247 1_554 S
C160 O159 1.208 . S
C161 O166 1.247 . S
C161 O167 1.208 . S
C162 O154 1.315 . S
C162 O157 1.279 . S
C163 O164 1.315 . S
C163 O165 1.279 . S
O164 Cd156 2.223 . S
O164 C163 1.315 . S
O165 Cd155 2.240 . S
O165 C163 1.279 . S
O166 Cd156 2.297 . S
O166 C161 1.247 . S
O167 Cd156 2.439 . S
O167 C161 1.208 . S
O168 Cd169 2.223 . S
O168 C176 1.315 . S
Cd169 O168 2.223 . S
Cd169 O172 2.297 . S
Cd169 O173 2.439 . S
Cd169 O179 2.240 . S
Cd170 O171 2.240 . S
Cd170 O178 2.223 . S
Cd170 O180 2.297 . S
Cd170 O181 2.439 . S
O171 Cd170 2.240 . S
O171 C176 1.279 . S
O172 Cd169 2.297 . S
O172 C174 1.247 . S
O173 Cd169 2.439 . S
O173 C174 1.208 . S
C174 O172 1.247 . S
C174 O173 1.208 . S
C175 O180 1.247 . S
C175 O181 1.208 . S
C176 O168 1.315 . S
C176 O171 1.279 . S
C177 O178 1.315 . S
C177 O179 1.279 . S
O178 Cd170 2.223 . S
O178 C177 1.315 . S
O179 Cd169 2.240 . S
O179 C177 1.279 . S
O180 Cd170 2.297 . S
O180 C175 1.247 . S
O181 Cd170 2.439 . S
O181 C175 1.208 . S
O182 Cd183 2.223 . S
O182 C190 1.315 . S
Cd183 O182 2.223 . S
Cd183 O186 2.297 . S
Cd183 O187 2.439 . S
Cd183 O193 2.240 . S
Cd184 O185 2.240 . S
Cd184 O192 2.223 . S
Cd184 O194 2.297 . S
Cd184 O195 2.439 . S
O185 Cd184 2.240 . S
O185 C190 1.279 . S
O186 Cd183 2.297 . S
O186 C188 1.247 . S
O187 Cd183 2.439 . S
O187 C188 1.208 . S
C188 O186 1.247 . S
C188 O187 1.208 . S
C189 O194 1.247 . S
C189 O195 1.208 . S
C190 O182 1.315 . S
C190 O185 1.279 . S
C191 O192 1.315 . S
C191 O193 1.279 . S
O192 Cd184 2.223 . S
O192 C191 1.315 . S
O193 Cd183 2.240 . S
O193 C191 1.279 . S
O194 Cd184 2.297 . S
O194 C189 1.247 . S
O195 Cd184 2.439 . S
O195 C189 1.208 . S
O196 Cd197 2.223 . S
O196 C204 1.315 . S
Cd197 O196 2.223 . S
Cd197 O200 2.297 . S
Cd197 O201 2.439 . S
Cd197 O207 2.240 . S
Cd198 O199 2.240 . S
Cd198 O206 2.223 . S
Cd198 O208 2.297 . S
Cd198 O209 2.439 . S
O199 Cd198 2.240 . S
O199 C204 1.279 . S
O200 Cd197 2.297 . S
O200 C202 1.247 . S
O201 Cd197 2.439 . S
O201 C202 1.208 . S
C202 O200 1.247 . S
C202 O201 1.208 . S
C203 O208 1.247 . S
C203 O209 1.208 . S
C204 O196 1.315 . S
C204 O199 1.279 . S
C205 O206 1.315 . S
C205 O207 1.279 . S
O206 Cd198 2.223 . S
O206 C205 1.315 . S
O207 Cd197 2.240 . S
O207 C205 1.279 . S
O208 Cd198 2.297 . S
O208 C203 1.247 . S
O209 Cd198 2.439 . S
O209 C203 1.208 . S
O210 Cd211 2.223 . S
O210 C218 1.315 . S
Cd211 O210 2.223 . S
Cd211 O214 2.297 . S
Cd211 O215 2.439 . S
Cd211 O221 2.240 . S
Cd212 O213 2.240 . S
Cd212 O220 2.223 . S
Cd212 O222 2.297 . S
Cd212 O223 2.439 . S
O213 Cd212 2.240 . S
O213 C218 1.279 . S
O214 Cd211 2.297 . S
O214 C216 1.247 . S
O215 Cd211 2.439 . S
O215 C216 1.208 . S
C216 O214 1.247 . S
C216 O215 1.208 . S
C217 O222 1.247 . S
C217 O223 1.208 . S
C218 O210 1.315 . S
C218 O213 1.279 . S
C219 O220 1.315 . S
C219 O221 1.279 . S
O220 Cd212 2.223 . S
O220 C219 1.315 . S
O221 Cd211 2.240 . S
O221 C219 1.279 . S
O222 Cd212 2.297 . S
O222 C217 1.247 . S
O223 Cd212 2.439 . S
O223 C217 1.208 . S
H224 C242 0.951 . S
H225 C244 0.951 . S
H226 C246 0.950 . S
H227 C247 0.950 . S
H228 C249 0.950 . S
H229 C252 0.950 . S
H230 C253 0.950 . S
H231 C255 0.950 . S
H232 C256 0.950 . S
H233 C257 0.951 . S
H234 C259 0.951 . S
H235 C261 0.950 . S
H236 C262 0.950 . S
H237 C264 0.950 . S
H238 C267 0.950 . S
H239 C268 0.950 . S
H240 C270 0.950 . S
H241 C271 0.950 . S
C242 H224 0.951 . S
C242 C243 1.366 . S
C242 C244 1.388 . S
C243 C242 1.366 . S
C243 C247 1.385 . S
C244 H225 0.951 . S
C244 C242 1.388 . S
C244 C245 1.366 . S
C245 C244 1.366 . S
C245 C246 1.414 . S
C245 C248 1.499 . S
C246 H226 0.950 . S
C246 C245 1.414 . S
C246 C247 1.374 . S
C247 H227 0.950 . S
C247 C243 1.385 . S
C247 C246 1.374 . S
C248 C245 1.499 . S
C248 C249 1.373 . S
C248 C250 1.389 . S
C249 H228 0.950 . S
C249 C248 1.373 . S
C249 C265 1.377 . S
C250 C248 1.389 . S
C250 C251 1.524 . S
C250 C264 1.377 . S
C251 C250 1.524 . S
C251 C252 1.397 . S
C251 C256 1.363 . S
C252 H229 0.950 . S
C252 C251 1.397 . S
C252 C253 1.334 . S
C253 H230 0.950 . S
C253 C252 1.334 . S
C253 C254 1.287 . S
C254 C253 1.287 . S
C254 C255 1.524 . S
C254 H273 0.913 . S
C255 H231 0.950 . S
C255 C254 1.524 . S
C255 C256 1.415 . S
C256 H232 0.950 . S
C256 C251 1.363 . S
C256 C255 1.415 . S
C257 H233 0.951 . S
C257 C258 1.366 . S
C257 C259 1.388 . S
C258 C257 1.366 . S
C258 C262 1.385 . S
C259 H234 0.951 . S
C259 C257 1.388 . S
C259 C260 1.366 . S
C260 C259 1.366 . S
C260 C261 1.414 . S
C260 C263 1.499 . S
C261 H235 0.950 . S
C261 C260 1.414 . S
C261 C262 1.374 . S
C262 H236 0.950 . S
C262 C258 1.385 . S
C262 C261 1.374 . S
C263 C260 1.499 . S
C263 C264 1.373 . S
C263 C265 1.389 . S
C264 H237 0.950 . S
C264 C250 1.377 . S
C264 C263 1.373 . S
C265 C249 1.377 . S
C265 C263 1.389 . S
C265 C266 1.524 . S
C266 C265 1.524 . S
C266 C267 1.397 . S
C266 C271 1.363 . S
C267 H238 0.950 . S
C267 C266 1.397 . S
C267 C268 1.334 . S
C268 H239 0.950 . S
C268 C267 1.334 . S
C268 C269 1.287 . S
C269 C268 1.287 . S
C269 C270 1.524 . S
C269 H272 0.999 . S
C270 H240 0.950 . S
C270 C269 1.524 . S
C270 C271 1.415 . S
C271 H241 0.950 . S
C271 C266 1.363 . S
C271 C270 1.415 . S
H272 C269 0.999 . S
H273 C254 0.913 . S
H274 C292 0.951 . S
H275 C294 0.951 . S
H276 C296 0.950 . S
H277 C297 0.950 . S
H278 C299 0.950 . S
H279 C302 0.950 . S
H280 C303 0.950 . S
H281 C305 0.950 . S
H282 C306 0.950 . S
H283 C307 0.951 . S
H284 C309 0.951 . S
H285 C311 0.950 . S
H286 C312 0.950 . S
H287 C314 0.950 . S
H288 C317 0.950 . S
H289 C318 0.950 . S
H290 C320 0.950 . S
H291 C321 0.950 . S
C292 H274 0.951 . S
C292 C293 1.366 . S
C292 C294 1.388 . S
C293 C292 1.366 . S
C293 C297 1.385 . S
C294 H275 0.951 . S
C294 C292 1.388 . S
C294 C295 1.366 . S
C295 C294 1.366 . S
C295 C296 1.414 . S
C295 C298 1.499 . S
C296 H276 0.950 . S
C296 C295 1.414 . S
C296 C297 1.374 . S
C297 H277 0.950 . S
C297 C293 1.385 . S
C297 C296 1.374 . S
C298 C295 1.499 . S
C298 C299 1.373 . S
C298 C300 1.389 . S
C299 H278 0.950 . S
C299 C298 1.373 . S
C299 C315 1.377 . S
C300 C298 1.389 . S
C300 C301 1.524 . S
C300 C314 1.377 . S
C301 C300 1.524 . S
C301 C302 1.397 . S
C301 C306 1.363 . S
C302 H279 0.950 . S
C302 C301 1.397 . S
C302 C303 1.334 . S
C303 H280 0.950 . S
C303 C302 1.334 . S
C303 C304 1.287 . S
C304 C303 1.287 . S
C304 C305 1.524 . S
C304 H323 0.913 . S
C305 H281 0.950 . S
C305 C304 1.524 . S
C305 C306 1.415 . S
C306 H282 0.950 . S
C306 C301 1.363 . S
C306 C305 1.415 . S
C307 H283 0.951 . S
C307 C308 1.366 . S
C307 C309 1.388 . S
C308 C307 1.366 . S
C308 C312 1.385 . S
C309 H284 0.951 . S
C309 C307 1.388 . S
C309 C310 1.366 . S
C310 C309 1.366 . S
C310 C311 1.414 . S
C310 C313 1.499 . S
C311 H285 0.950 . S
C311 C310 1.414 . S
C311 C312 1.374 . S
C312 H286 0.950 . S
C312 C308 1.385 . S
C312 C311 1.374 . S
C313 C310 1.499 . S
C313 C314 1.373 . S
C313 C315 1.389 . S
C314 H287 0.950 . S
C314 C300 1.377 . S
C314 C313 1.373 . S
C315 C299 1.377 . S
C315 C313 1.389 . S
C315 C316 1.524 . S
C316 C315 1.524 . S
C316 C317 1.397 . S
C316 C321 1.363 . S
C317 H288 0.950 . S
C317 C316 1.397 . S
C317 C318 1.334 . S
C318 H289 0.950 . S
C318 C317 1.334 . S
C318 C319 1.287 . S
C319 C318 1.287 . S
C319 C320 1.524 . S
C319 H322 0.999 . S
C320 H290 0.950 . S
C320 C319 1.524 . S
C320 C321 1.415 . S
C321 H291 0.950 . S
C321 C316 1.363 . S
C321 C320 1.415 . S
H322 C319 0.999 . S
H323 C304 0.913 . S
H324 C342 0.951 . S
H325 C344 0.951 . S
H326 C346 0.950 . S
H327 C347 0.950 . S
H328 C349 0.950 . S
H329 C352 0.950 . S
H330 C353 0.950 . S
H331 C355 0.950 . S
H332 C356 0.950 . S
H333 C357 0.951 . S
H334 C359 0.951 . S
H335 C361 0.950 . S
H336 C362 0.950 . S
H337 C364 0.950 . S
H338 C367 0.950 . S
H339 C368 0.950 . S
H340 C370 0.950 . S
H341 C371 0.950 . S
C342 H324 0.951 . S
C342 C343 1.366 . S
C342 C344 1.388 . S
C343 C342 1.366 . S
C343 C347 1.385 . S
C344 H325 0.951 . S
C344 C342 1.388 . S
C344 C345 1.366 . S
C345 C344 1.366 . S
C345 C346 1.414 . S
C345 C348 1.499 . S
C346 H326 0.950 . S
C346 C345 1.414 . S
C346 C347 1.374 . S
C347 H327 0.950 . S
C347 C343 1.385 . S
C347 C346 1.374 . S
C348 C345 1.499 . S
C348 C349 1.373 . S
C348 C350 1.389 . S
C349 H328 0.950 . S
C349 C348 1.373 . S
C349 C365 1.377 . S
C350 C348 1.389 . S
C350 C351 1.524 . S
C350 C364 1.377 . S
C351 C350 1.524 . S
C351 C352 1.397 . S
C351 C356 1.363 . S
C352 H329 0.950 . S
C352 C351 1.397 . S
C352 C353 1.334 . S
C353 H330 0.950 . S
C353 C352 1.334 . S
C353 C354 1.287 . S
C354 C353 1.287 . S
C354 C355 1.524 . S
C354 H373 0.913 . S
C355 H331 0.950 . S
C355 C354 1.524 . S
C355 C356 1.415 . S
C356 H332 0.950 . S
C356 C351 1.363 . S
C356 C355 1.415 . S
C357 H333 0.951 . S
C357 C358 1.366 . S
C357 C359 1.388 . S
C358 C357 1.366 . S
C358 C362 1.385 . S
C359 H334 0.951 . S
C359 C357 1.388 . S
C359 C360 1.366 . S
C360 C359 1.366 . S
C360 C361 1.414 . S
C360 C363 1.499 . S
C361 H335 0.950 . S
C361 C360 1.414 . S
C361 C362 1.374 . S
C362 H336 0.950 . S
C362 C358 1.385 . S
C362 C361 1.374 . S
C363 C360 1.499 . S
C363 C364 1.373 . S
C363 C365 1.389 . S
C364 H337 0.950 . S
C364 C350 1.377 . S
C364 C363 1.373 . S
C365 C349 1.377 . S
C365 C363 1.389 . S
C365 C366 1.524 . S
C366 C365 1.524 . S
C366 C367 1.397 . S
C366 C371 1.363 . S
C367 H338 0.950 . S
C367 C366 1.397 . S
C367 C368 1.334 . S
C368 H339 0.950 . S
C368 C367 1.334 . S
C368 C369 1.287 . S
C369 C368 1.287 . S
C369 C370 1.524 . S
C369 H372 0.999 . S
C370 H340 0.950 . S
C370 C369 1.524 . S
C370 C371 1.415 . S
C371 H341 0.950 . S
C371 C366 1.363 . S
C371 C370 1.415 . S
H372 C369 0.999 . S
H373 C354 0.913 . S
H374 C392 0.951 . S
H375 C394 0.951 . S
H376 C396 0.950 . S
H377 C397 0.950 . S
H378 C399 0.950 . S
H379 C402 0.950 . S
H380 C403 0.950 . S
H381 C405 0.950 . S
H382 C406 0.950 . S
H383 C407 0.951 . S
H384 C409 0.951 . S
H385 C411 0.950 . S
H386 C412 0.950 . S
H387 C414 0.950 . S
H388 C417 0.950 . S
H389 C418 0.950 . S
H390 C420 0.950 . S
H391 C421 0.950 . S
C392 H374 0.951 . S
C392 C393 1.366 . S
C392 C394 1.388 . S
C393 C392 1.366 . S
C393 C397 1.385 . S
C394 H375 0.951 . S
C394 C392 1.388 . S
C394 C395 1.366 . S
C395 C394 1.366 . S
C395 C396 1.414 . S
C395 C398 1.499 . S
C396 H376 0.950 . S
C396 C395 1.414 . S
C396 C397 1.374 . S
C397 H377 0.950 . S
C397 C393 1.385 . S
C397 C396 1.374 . S
C398 C395 1.499 . S
C398 C399 1.373 . S
C398 C400 1.389 . S
C399 H378 0.950 . S
C399 C398 1.373 . S
C399 C415 1.377 . S
C400 C398 1.389 . S
C400 C401 1.524 . S
C400 C414 1.377 . S
C401 C400 1.524 . S
C401 C402 1.397 . S
C401 C406 1.363 . S
C402 H379 0.950 . S
C402 C401 1.397 . S
C402 C403 1.334 . S
C403 H380 0.950 . S
C403 C402 1.334 . S
C403 C404 1.287 . S
C404 C403 1.287 . S
C404 C405 1.524 . S
C404 H423 0.913 . S
C405 H381 0.950 . S
C405 C404 1.524 . S
C405 C406 1.415 . S
C406 H382 0.950 . S
C406 C401 1.363 . S
C406 C405 1.415 . S
C407 H383 0.951 . S
C407 C408 1.366 . S
C407 C409 1.388 . S
C408 C407 1.366 . S
C408 C412 1.385 . S
C409 H384 0.951 . S
C409 C407 1.388 . S
C409 C410 1.366 . S
C410 C409 1.366 . S
C410 C411 1.414 . S
C410 C413 1.499 . S
C411 H385 0.950 . S
C411 C410 1.414 . S
C411 C412 1.374 . S
C412 H386 0.950 . S
C412 C408 1.385 . S
C412 C411 1.374 . S
C413 C410 1.499 . S
C413 C414 1.373 . S
C413 C415 1.389 . S
C414 H387 0.950 . S
C414 C400 1.377 . S
C414 C413 1.373 . S
C415 C399 1.377 . S
C415 C413 1.389 . S
C415 C416 1.524 . S
C416 C415 1.524 . S
C416 C417 1.397 . S
C416 C421 1.363 . S
C417 H388 0.950 . S
C417 C416 1.397 . S
C417 C418 1.334 . S
C418 H389 0.950 . S
C418 C417 1.334 . S
C418 C419 1.287 . S
C419 C418 1.287 . S
C419 C420 1.524 . S
C419 H422 0.974 1_565 S
C420 H390 0.950 . S
C420 C419 1.524 . S
C420 C421 1.415 . S
C421 H391 0.950 . S
C421 C416 1.363 . S
C421 C420 1.415 . S
H422 C419 0.974 1_545 S
H423 C404 0.913 . S
H424 C442 0.951 . S
H425 C444 0.951 . S
H426 C446 0.950 . S
H427 C447 0.950 . S
H428 C449 0.950 . S
H429 C452 0.950 . S
H430 C453 0.950 . S
H431 C455 0.950 . S
H432 C456 0.950 . S
H433 C457 0.951 . S
H434 C459 0.951 . S
H435 C461 0.950 . S
H436 C462 0.950 . S
H437 C464 0.950 . S
H438 C467 0.950 . S
H439 C468 0.950 . S
H440 C470 0.950 . S
H441 C471 0.950 . S
C442 H424 0.951 . S
C442 C443 1.366 . S
C442 C444 1.388 . S
C443 C442 1.366 . S
C443 C447 1.385 . S
C444 H425 0.951 . S
C444 C442 1.388 . S
C444 C445 1.366 . S
C445 C444 1.366 . S
C445 C446 1.414 . S
C445 C448 1.499 . S
C446 H426 0.950 . S
C446 C445 1.414 . S
C446 C447 1.374 . S
C447 H427 0.950 . S
C447 C443 1.385 . S
C447 C446 1.374 . S
C448 C445 1.499 . S
C448 C449 1.373 . S
C448 C450 1.389 . S
C449 H428 0.950 . S
C449 C448 1.373 . S
C449 C465 1.377 . S
C450 C448 1.389 . S
C450 C451 1.524 . S
C450 C464 1.377 . S
C451 C450 1.524 . S
C451 C452 1.397 . S
C451 C456 1.363 . S
C452 H429 0.950 . S
C452 C451 1.397 . S
C452 C453 1.334 . S
C453 H430 0.950 . S
C453 C452 1.334 . S
C453 C454 1.287 . S
C454 C453 1.287 . S
C454 C455 1.524 . S
C454 H473 0.913 . S
C455 H431 0.950 . S
C455 C454 1.524 . S
C455 C456 1.415 . S
C456 H432 0.950 . S
C456 C451 1.363 . S
C456 C455 1.415 . S
C457 H433 0.951 . S
C457 C458 1.366 . S
C457 C459 1.388 . S
C458 C457 1.366 . S
C458 C462 1.385 . S
C459 H434 0.951 . S
C459 C457 1.388 . S
C459 C460 1.366 . S
C460 C459 1.366 . S
C460 C461 1.414 . S
C460 C463 1.499 . S
C461 H435 0.950 . S
C461 C460 1.414 . S
C461 C462 1.374 . S
C462 H436 0.950 . S
C462 C458 1.385 . S
C462 C461 1.374 . S
C463 C460 1.499 . S
C463 C464 1.373 . S
C463 C465 1.389 . S
C464 H437 0.950 . S
C464 C450 1.377 . S
C464 C463 1.373 . S
C465 C449 1.377 . S
C465 C463 1.389 . S
C465 C466 1.524 . S
C466 C465 1.524 . S
C466 C467 1.397 . S
C466 C471 1.363 . S
C467 H438 0.950 . S
C467 C466 1.397 . S
C467 C468 1.334 . S
C468 H439 0.950 . S
C468 C467 1.334 . S
C468 C469 1.287 . S
C469 C468 1.287 . S
C469 C470 1.524 . S
C469 H472 0.999 . S
C470 H440 0.950 . S
C470 C469 1.524 . S
C470 C471 1.415 . S
C471 H441 0.950 . S
C471 C466 1.363 . S
C471 C470 1.415 . S
H472 C469 0.999 . S
H473 C454 0.913 . S
H474 C492 0.951 . S
H475 C494 0.951 . S
H476 C496 0.950 . S
H477 C497 0.950 . S
H478 C499 0.950 . S
H479 C502 0.950 . S
H480 C503 0.950 . S
H481 C505 0.950 . S
H482 C506 0.950 . S
H483 C507 0.951 . S
H484 C509 0.951 . S
H485 C511 0.950 . S
H486 C512 0.950 . S
H487 C514 0.950 . S
H488 C517 0.950 . S
H489 C518 0.950 . S
H490 C520 0.950 . S
H491 C521 0.950 . S
C492 H474 0.951 . S
C492 C493 1.366 . S
C492 C494 1.388 . S
C493 C492 1.366 . S
C493 C497 1.385 . S
C494 H475 0.951 . S
C494 C492 1.388 . S
C494 C495 1.366 . S
C495 C494 1.366 . S
C495 C496 1.414 . S
C495 C498 1.499 . S
C496 H476 0.950 . S
C496 C495 1.414 . S
C496 C497 1.374 . S
C497 H477 0.950 . S
C497 C493 1.385 . S
C497 C496 1.374 . S
C498 C495 1.499 . S
C498 C499 1.373 . S
C498 C500 1.389 . S
C499 H478 0.950 . S
C499 C498 1.373 . S
C499 C515 1.377 . S
C500 C498 1.389 . S
C500 C501 1.524 . S
C500 C514 1.377 . S
C501 C500 1.524 . S
C501 C502 1.397 . S
C501 C506 1.363 . S
C502 H479 0.950 . S
C502 C501 1.397 . S
C502 C503 1.334 . S
C503 H480 0.950 . S
C503 C502 1.334 . S
C503 C504 1.287 . S
C504 C503 1.287 . S
C504 C505 1.524 . S
C504 H523 0.913 . S
C505 H481 0.950 . S
C505 C504 1.524 . S
C505 C506 1.415 . S
C506 H482 0.950 . S
C506 C501 1.363 . S
C506 C505 1.415 . S
C507 H483 0.951 . S
C507 C508 1.366 . S
C507 C509 1.388 . S
C508 C507 1.366 . S
C508 C512 1.385 . S
C509 H484 0.951 . S
C509 C507 1.388 . S
C509 C510 1.366 . S
C510 C509 1.366 . S
C510 C511 1.414 . S
C510 C513 1.499 . S
C511 H485 0.950 . S
C511 C510 1.414 . S
C511 C512 1.374 . S
C512 H486 0.950 . S
C512 C508 1.385 . S
C512 C511 1.374 . S
C513 C510 1.499 . S
C513 C514 1.373 . S
C513 C515 1.389 . S
C514 H487 0.950 . S
C514 C500 1.377 . S
C514 C513 1.373 . S
C515 C499 1.377 . S
C515 C513 1.389 . S
C515 C516 1.524 . S
C516 C515 1.524 . S
C516 C517 1.397 . S
C516 C521 1.363 . S
C517 H488 0.950 . S
C517 C516 1.397 . S
C517 C518 1.334 . S
C518 H489 0.950 . S
C518 C517 1.334 . S
C518 C519 1.287 . S
C519 C518 1.287 . S
C519 C520 1.524 . S
C519 H522 0.999 . S
C520 H490 0.950 . S
C520 C519 1.524 . S
C520 C521 1.415 . S
C521 H491 0.950 . S
C521 C516 1.363 . S
C521 C520 1.415 . S
H522 C519 0.999 . S
H523 C504 0.913 . S
H524 C542 0.951 . S
H525 C544 0.951 . S
H526 C546 0.950 . S
H527 C547 0.950 . S
H528 C549 0.950 . S
H529 C552 0.950 . S
H530 C553 0.950 . S
H531 C555 0.950 . S
H532 C556 0.950 . S
H533 C557 0.951 . S
H534 C559 0.951 . S
H535 C561 0.950 . S
H536 C562 0.950 . S
H537 C564 0.950 . S
H538 C567 0.950 . S
H539 C568 0.950 . S
H540 C570 0.950 . S
H541 C571 0.950 . S
C542 H524 0.951 . S
C542 C543 1.366 . S
C542 C544 1.388 . S
C543 C542 1.366 . S
C543 C547 1.385 . S
C544 H525 0.951 . S
C544 C542 1.388 . S
C544 C545 1.366 . S
C545 C544 1.366 . S
C545 C546 1.414 . S
C545 C548 1.499 . S
C546 H526 0.950 . S
C546 C545 1.414 . S
C546 C547 1.374 . S
C547 H527 0.950 . S
C547 C543 1.385 . S
C547 C546 1.374 . S
C548 C545 1.499 . S
C548 C549 1.373 . S
C548 C550 1.389 . S
C549 H528 0.950 . S
C549 C548 1.373 . S
C549 C565 1.377 . S
C550 C548 1.389 . S
C550 C551 1.524 . S
C550 C564 1.377 . S
C551 C550 1.524 . S
C551 C552 1.397 . S
C551 C556 1.363 . S
C552 H529 0.950 . S
C552 C551 1.397 . S
C552 C553 1.334 . S
C553 H530 0.950 . S
C553 C552 1.334 . S
C553 C554 1.287 . S
C554 C553 1.287 . S
C554 C555 1.524 . S
C554 H573 0.936 . S
C555 H531 0.950 . S
C555 C554 1.524 . S
C555 C556 1.415 . S
C556 H532 0.950 . S
C556 C551 1.363 . S
C556 C555 1.415 . S
C557 H533 0.951 . S
C557 C558 1.366 . S
C557 C559 1.388 . S
C558 C557 1.366 . S
C558 C562 1.385 . S
C559 H534 0.951 . S
C559 C557 1.388 . S
C559 C560 1.366 . S
C560 C559 1.366 . S
C560 C561 1.414 . S
C560 C563 1.499 . S
C561 H535 0.950 . S
C561 C560 1.414 . S
C561 C562 1.374 . S
C562 H536 0.950 . S
C562 C558 1.385 . S
C562 C561 1.374 . S
C563 C560 1.499 . S
C563 C564 1.373 . S
C563 C565 1.389 . S
C564 H537 0.950 . S
C564 C550 1.377 . S
C564 C563 1.373 . S
C565 C549 1.377 . S
C565 C563 1.389 . S
C565 C566 1.524 . S
C566 C565 1.524 . S
C566 C567 1.397 . S
C566 C571 1.363 . S
C567 H538 0.950 . S
C567 C566 1.397 . S
C567 C568 1.334 . S
C568 H539 0.950 . S
C568 C567 1.334 . S
C568 C569 1.287 . S
C569 C568 1.287 . S
C569 C570 1.524 . S
C569 H572 0.999 . S
C570 H540 0.950 . S
C570 C569 1.524 . S
C570 C571 1.415 . S
C571 H541 0.950 . S
C571 C566 1.363 . S
C571 C570 1.415 . S
H572 C569 0.999 . S
H573 C554 0.936 . S
H574 C592 0.951 . S
H575 C594 0.951 . S
H576 C596 0.950 . S
H577 C597 0.950 . S
H578 C599 0.950 . S
H579 C602 0.950 . S
H580 C603 0.950 . S
H581 C605 0.950 . S
H582 C606 0.950 . S
H583 C607 0.951 . S
H584 C609 0.951 . S
H585 C611 0.950 . S
H586 C612 0.950 . S
H587 C614 0.950 . S
H588 C617 0.950 . S
H589 C618 0.950 . S
H590 C620 0.950 . S
H591 C621 0.950 . S
C592 H574 0.951 . S
C592 C593 1.366 . S
C592 C594 1.388 . S
C593 C592 1.366 . S
C593 C597 1.385 . S
C594 H575 0.951 . S
C594 C592 1.388 . S
C594 C595 1.366 . S
C595 C594 1.366 . S
C595 C596 1.414 . S
C595 C598 1.499 . S
C596 H576 0.950 . S
C596 C595 1.414 . S
C596 C597 1.374 . S
C597 H577 0.950 . S
C597 C593 1.385 . S
C597 C596 1.374 . S
C598 C595 1.499 . S
C598 C599 1.373 . S
C598 C600 1.389 . S
C599 H578 0.950 . S
C599 C598 1.373 . S
C599 C615 1.377 . S
C600 C598 1.389 . S
C600 C601 1.524 . S
C600 C614 1.377 . S
C601 C600 1.524 . S
C601 C602 1.397 . S
C601 C606 1.363 . S
C602 H579 0.950 . S
C602 C601 1.397 . S
C602 C603 1.334 . S
C603 H580 0.950 . S
C603 C602 1.334 . S
C603 C604 1.287 . S
C604 C603 1.287 . S
C604 C605 1.524 . S
C604 H623 0.913 . S
C605 H581 0.950 . S
C605 C604 1.524 . S
C605 C606 1.415 . S
C606 H582 0.950 . S
C606 C601 1.363 . S
C606 C605 1.415 . S
C607 H583 0.951 . S
C607 C608 1.366 . S
C607 C609 1.388 . S
C608 C607 1.366 . S
C608 C612 1.385 . S
C609 H584 0.951 . S
C609 C607 1.388 . S
C609 C610 1.366 . S
C610 C609 1.366 . S
C610 C611 1.414 . S
C610 C613 1.499 . S
C611 H585 0.950 . S
C611 C610 1.414 . S
C611 C612 1.374 . S
C612 H586 0.950 . S
C612 C608 1.385 . S
C612 C611 1.374 . S
C613 C610 1.499 . S
C613 C614 1.373 . S
C613 C615 1.389 . S
C614 H587 0.950 . S
C614 C600 1.377 . S
C614 C613 1.373 . S
C615 C599 1.377 . S
C615 C613 1.389 . S
C615 C616 1.524 . S
C616 C615 1.524 . S
C616 C617 1.397 . S
C616 C621 1.363 . S
C617 H588 0.950 . S
C617 C616 1.397 . S
C617 C618 1.334 . S
C618 H589 0.950 . S
C618 C617 1.334 . S
C618 C619 1.287 . S
C619 C618 1.287 . S
C619 C620 1.524 . S
C619 H622 0.999 . S
C620 H590 0.950 . S
C620 C619 1.524 . S
C620 C621 1.415 . S
C621 H591 0.950 . S
C621 C616 1.363 . S
C621 C620 1.415 . S
H622 C619 0.999 . S
H623 C604 0.913 . S
H624 C642 0.951 . S
H625 C644 0.951 . S
H626 C646 0.950 . S
H627 C647 0.950 . S
H628 C649 0.950 . S
H629 C652 0.950 1_545 S
H630 C653 0.950 . S
H631 C655 0.950 . S
H632 C656 0.950 . S
H633 C657 0.951 . S
H634 C659 0.951 . S
H635 C661 0.968 . S
H636 C662 0.950 1_565 S
H637 C664 0.950 1_565 S
H638 C667 0.950 . S
H639 C668 0.950 . S
H640 C670 0.950 . S
H641 C671 0.950 . S
C642 H624 0.951 . S
C642 C643 1.366 . S
C642 C644 1.388 . S
C643 C642 1.366 . S
C643 C647 1.385 . S
C644 H625 0.951 . S
C644 C642 1.388 . S
C644 C645 1.366 . S
C645 C644 1.366 . S
C645 C646 1.414 . S
C645 C648 1.499 . S
C646 H626 0.950 . S
C646 C645 1.414 . S
C646 C647 1.374 . S
C647 H627 0.950 . S
C647 C643 1.385 . S
C647 C646 1.374 . S
C648 C645 1.499 . S
C648 C649 1.373 . S
C648 C650 1.389 . S
C649 H628 0.950 . S
C649 C648 1.373 . S
C649 C665 1.377 . S
C650 C648 1.389 . S
C650 C651 1.524 1_545 S
C650 C664 1.377 . S
C651 C650 1.524 1_565 S
C651 C652 1.397 . S
C651 C656 1.363 . S
C652 H629 0.950 1_565 S
C652 C651 1.397 . S
C652 C653 1.334 . S
C653 H630 0.950 . S
C653 C652 1.334 . S
C653 C654 1.287 . S
C654 C653 1.287 . S
C654 C655 1.524 . S
C654 H673 0.913 . S
C655 H631 0.950 . S
C655 C654 1.524 . S
C655 C656 1.415 . S
C656 H632 0.950 . S
C656 C651 1.363 . S
C656 C655 1.415 . S
C657 H633 0.951 . S
C657 C658 1.366 . S
C657 C659 1.388 . S
C658 C657 1.366 . S
C658 C662 1.385 . S
C659 H634 0.951 . S
C659 C657 1.388 . S
C659 C660 1.366 . S
C660 C659 1.366 . S
C660 C661 1.414 . S
C660 C663 1.499 . S
C661 H635 0.968 . S
C661 C660 1.414 . S
C661 C662 1.374 . S
C662 H636 0.950 1_545 S
C662 C658 1.385 . S
C662 C661 1.374 . S
C663 C660 1.499 . S
C663 C664 1.373 . S
C663 C665 1.389 . S
C664 H637 0.950 1_545 S
C664 C650 1.377 . S
C664 C663 1.373 . S
C665 C649 1.377 . S
C665 C663 1.389 . S
C665 C666 1.524 . S
C666 C665 1.524 . S
C666 C667 1.397 . S
C666 C671 1.363 . S
C667 H638 0.950 . S
C667 C666 1.397 . S
C667 C668 1.334 . S
C668 H639 0.950 . S
C668 C667 1.334 . S
C668 C669 1.287 . S
C669 C668 1.287 . S
C669 C670 1.524 . S
C669 H672 0.999 . S
C670 H640 0.950 . S
C670 C669 1.524 . S
C670 C671 1.415 . S
C671 H641 0.950 . S
C671 C666 1.363 . S
C671 C670 1.415 . S
H672 C669 0.999 . S
H673 C654 0.913 . S
H674 C692 0.951 . S
H675 C694 0.951 . S
H676 C696 0.950 . S
H677 C697 0.950 . S
H678 C699 0.950 . S
H679 C702 0.950 . S
H680 C703 0.950 . S
H681 C705 0.950 . S
H682 C706 0.950 . S
H683 C707 0.951 . S
H684 C709 0.951 . S
H685 C711 0.950 . S
H686 C712 0.950 . S
H687 C714 0.950 . S
H688 C717 0.950 . S
H689 C718 0.950 . S
H690 C720 0.950 . S
H691 C721 0.950 . S
C692 H674 0.951 . S
C692 C693 1.366 . S
C692 C694 1.388 . S
C693 C692 1.366 . S
C693 C697 1.385 . S
C694 H675 0.951 . S
C694 C692 1.388 . S
C694 C695 1.366 . S
C695 C694 1.366 . S
C695 C696 1.414 . S
C695 C698 1.499 . S
C696 H676 0.950 . S
C696 C695 1.414 . S
C696 C697 1.374 . S
C697 H677 0.950 . S
C697 C693 1.385 . S
C697 C696 1.374 . S
C698 C695 1.499 . S
C698 C699 1.373 . S
C698 C700 1.389 . S
C699 H678 0.950 . S
C699 C698 1.373 . S
C699 C715 1.377 . S
C700 C698 1.389 . S
C700 C701 1.524 . S
C700 C714 1.377 . S
C701 C700 1.524 . S
C701 C702 1.397 . S
C701 C706 1.363 . S
C702 H679 0.950 . S
C702 C701 1.397 . S
C702 C703 1.334 . S
C703 H680 0.950 . S
C703 C702 1.334 . S
C703 C704 1.287 . S
C704 C703 1.287 . S
C704 C705 1.524 . S
C704 H723 0.913 . S
C705 H681 0.950 . S
C705 C704 1.524 . S
C705 C706 1.415 . S
C706 H682 0.950 . S
C706 C701 1.363 . S
C706 C705 1.415 . S
C707 H683 0.951 . S
C707 C708 1.366 . S
C707 C709 1.388 . S
C708 C707 1.366 . S
C708 C712 1.385 . S
C709 H684 0.951 . S
C709 C707 1.388 . S
C709 C710 1.366 . S
C710 C709 1.366 . S
C710 C711 1.414 . S
C710 C713 1.499 . S
C711 H685 0.950 . S
C711 C710 1.414 . S
C711 C712 1.374 . S
C712 H686 0.950 . S
C712 C708 1.385 . S
C712 C711 1.374 . S
C713 C710 1.499 . S
C713 C714 1.373 . S
C713 C715 1.389 . S
C714 H687 0.950 . S
C714 C700 1.377 . S
C714 C713 1.373 . S
C715 C699 1.377 . S
C715 C713 1.389 . S
C715 C716 1.524 . S
C716 C715 1.524 . S
C716 C717 1.397 . S
C716 C721 1.363 . S
C717 H688 0.950 . S
C717 C716 1.397 . S
C717 C718 1.334 . S
C718 H689 0.950 . S
C718 C717 1.334 . S
C718 C719 1.287 . S
C719 C718 1.287 . S
C719 C720 1.524 . S
C719 H722 0.999 . S
C720 H690 0.950 . S
C720 C719 1.524 . S
C720 C721 1.415 . S
C721 H691 0.950 . S
C721 C716 1.363 . S
C721 C720 1.415 . S
H722 C719 0.999 . S
H723 C704 0.913 . S
H724 C742 0.951 . S
H725 C744 0.951 . S
H726 C746 0.950 . S
H727 C747 0.950 . S
H728 C749 0.950 . S
H729 C752 0.950 . S
H730 C753 0.950 . S
H731 C755 0.950 . S
H732 C756 0.950 . S
H733 C757 0.951 . S
H734 C759 0.951 . S
H735 C761 0.950 . S
H736 C762 0.950 . S
H737 C764 0.950 . S
H738 C767 0.950 . S
H739 C768 0.950 . S
H740 C770 0.950 . S
H741 C771 0.950 . S
C742 H724 0.951 . S
C742 C743 1.366 . S
C742 C744 1.388 . S
C743 C742 1.366 . S
C743 C747 1.385 . S
C744 H725 0.951 . S
C744 C742 1.388 . S
C744 C745 1.366 . S
C745 C744 1.366 . S
C745 C746 1.414 . S
C745 C748 1.499 . S
C746 H726 0.950 . S
C746 C745 1.414 . S
C746 C747 1.374 . S
C747 H727 0.950 . S
C747 C743 1.385 . S
C747 C746 1.374 . S
C748 C745 1.499 . S
C748 C749 1.373 . S
C748 C750 1.389 . S
C749 H728 0.950 . S
C749 C748 1.373 . S
C749 C765 1.377 . S
C750 C748 1.389 . S
C750 C751 1.524 . S
C750 C764 1.377 . S
C751 C750 1.524 . S
C751 C752 1.397 . S
C751 C756 1.363 . S
C752 H729 0.950 . S
C752 C751 1.397 . S
C752 C753 1.334 . S
C753 H730 0.950 . S
C753 C752 1.334 . S
C753 C754 1.287 . S
C754 C753 1.287 . S
C754 C755 1.524 . S
C754 H773 0.913 . S
C755 H731 0.950 . S
C755 C754 1.524 . S
C755 C756 1.415 . S
C756 H732 0.950 . S
C756 C751 1.363 . S
C756 C755 1.415 . S
C757 H733 0.951 . S
C757 C758 1.366 . S
C757 C759 1.388 . S
C758 C757 1.366 . S
C758 C762 1.385 . S
C759 H734 0.951 . S
C759 C757 1.388 . S
C759 C760 1.366 . S
C760 C759 1.366 . S
C760 C761 1.414 . S
C760 C763 1.499 . S
C761 H735 0.950 . S
C761 C760 1.414 . S
C761 C762 1.374 . S
C762 H736 0.950 . S
C762 C758 1.385 . S
C762 C761 1.374 . S
C763 C760 1.499 . S
C763 C764 1.373 . S
C763 C765 1.389 . S
C764 H737 0.950 . S
C764 C750 1.377 . S
C764 C763 1.373 . S
C765 C749 1.377 . S
C765 C763 1.389 . S
C765 C766 1.524 . S
C766 C765 1.524 . S
C766 C767 1.397 . S
C766 C771 1.363 . S
C767 H738 0.950 . S
C767 C766 1.397 . S
C767 C768 1.334 . S
C768 H739 0.950 . S
C768 C767 1.334 . S
C768 C769 1.287 . S
C769 C768 1.287 . S
C769 C770 1.524 . S
C769 H772 0.999 . S
C770 H740 0.950 . S
C770 C769 1.524 . S
C770 C771 1.415 . S
C771 H741 0.950 . S
C771 C766 1.363 . S
C771 C770 1.415 . S
H772 C769 0.999 . S
H773 C754 0.913 . S
H774 C792 0.951 . S
H775 C794 0.951 . S
H776 C796 0.950 . S
H777 C797 0.950 . S
H778 C799 0.950 . S
H779 C802 0.950 . S
H780 C803 0.950 . S
H781 C805 0.950 1_655 S
H782 C806 0.950 1_655 S
H783 C807 0.951 . S
H784 C809 0.951 . S
H785 C811 0.950 1_655 S
H786 C812 0.950 1_655 S
H787 C814 0.950 . S
H788 C817 0.950 . S
H789 C818 0.950 . S
H790 C820 0.950 . S
H791 C821 0.950 . S
C792 H774 0.951 . S
C792 C793 1.366 . S
C792 C794 1.388 . S
C793 C792 1.366 . S
C793 C797 1.385 . S
C794 H775 0.951 . S
C794 C792 1.388 . S
C794 C795 1.366 . S
C795 C794 1.366 . S
C795 C796 1.414 . S
C795 C798 1.499 . S
C796 H776 0.950 . S
C796 C795 1.414 . S
C796 C797 1.374 . S
C797 H777 0.950 . S
C797 C793 1.385 . S
C797 C796 1.374 . S
C798 C795 1.499 . S
C798 C799 1.373 . S
C798 C800 1.389 . S
C799 H778 0.950 . S
C799 C798 1.373 . S
C799 C815 1.377 . S
C800 C798 1.389 . S
C800 C801 1.524 . S
C800 C814 1.377 . S
C801 C800 1.524 . S
C801 C802 1.397 . S
C801 C806 1.363 . S
C802 H779 0.950 . S
C802 C801 1.397 . S
C802 C803 1.334 . S
C803 H780 0.950 . S
C803 C802 1.334 . S
C803 C804 1.287 . S
C804 C803 1.287 . S
C804 C805 1.524 . S
C804 H823 0.913 . S
C805 H781 0.950 1_455 S
C805 C804 1.524 . S
C805 C806 1.415 . S
C806 H782 0.950 1_455 S
C806 C801 1.363 . S
C806 C805 1.415 . S
C807 H783 0.951 . S
C807 C808 1.366 . S
C807 C809 1.388 . S
C808 C807 1.366 . S
C808 C812 1.385 . S
C809 H784 0.951 . S
C809 C807 1.388 . S
C809 C810 1.366 . S
C810 C809 1.366 . S
C810 C811 1.414 . S
C810 C813 1.499 . S
C811 H785 0.950 1_455 S
C811 C810 1.414 . S
C811 C812 1.374 . S
C812 H786 0.950 1_455 S
C812 C808 1.385 . S
C812 C811 1.374 . S
C813 C810 1.499 . S
C813 C814 1.373 . S
C813 C815 1.389 . S
C814 H787 0.950 . S
C814 C800 1.377 . S
C814 C813 1.373 . S
C815 C799 1.377 . S
C815 C813 1.389 . S
C815 C816 1.524 . S
C816 C815 1.524 . S
C816 C817 1.397 . S
C816 C821 1.363 . S
C817 H788 0.950 . S
C817 C816 1.397 . S
C817 C818 1.334 . S
C818 H789 0.950 . S
C818 C817 1.334 . S
C818 C819 1.287 . S
C819 C818 1.287 . S
C819 C820 1.524 . S
C819 H822 0.999 . S
C820 H790 0.950 . S
C820 C819 1.524 . S
C820 C821 1.415 . S
C821 H791 0.950 . S
C821 C816 1.363 . S
C821 C820 1.415 . S
H822 C819 0.999 . S
H823 C804 0.913 . S
H824 C842 0.951 . S
H825 C844 0.951 . S
H826 C846 0.950 . S
H827 C847 0.950 . S
H828 C849 0.950 . S
H829 C852 0.950 . S
H830 C853 0.950 . S
H831 C855 0.950 . S
H832 C856 0.950 . S
H833 C857 0.951 . S
H834 C859 0.951 . S
H835 C861 0.950 . S
H836 C862 0.950 . S
H837 C864 0.950 . S
H838 C867 0.950 . S
H839 C868 0.950 . S
H840 C870 0.950 . S
H841 C871 0.950 1_565 S
C842 H824 0.951 . S
C842 C843 1.366 . S
C842 C844 1.388 . S
C843 C842 1.366 . S
C843 C847 1.385 . S
C844 H825 0.951 . S
C844 C842 1.388 . S
C844 C845 1.366 . S
C845 C844 1.366 . S
C845 C846 1.414 . S
C845 C848 1.499 . S
C846 H826 0.950 . S
C846 C845 1.414 . S
C846 C847 1.374 . S
C847 H827 0.950 . S
C847 C843 1.385 . S
C847 C846 1.374 . S
C848 C845 1.499 . S
C848 C849 1.373 . S
C848 C850 1.389 . S
C849 H828 0.950 . S
C849 C848 1.373 . S
C849 C865 1.377 . S
C850 C848 1.389 . S
C850 C851 1.524 . S
C850 C864 1.377 . S
C851 C850 1.524 . S
C851 C852 1.397 . S
C851 C856 1.363 . S
C852 H829 0.950 . S
C852 C851 1.397 . S
C852 C853 1.334 . S
C853 H830 0.950 . S
C853 C852 1.334 . S
C853 C854 1.287 . S
C854 C853 1.287 . S
C854 C855 1.524 . S
C854 H873 0.913 . S
C855 H831 0.950 . S
C855 C854 1.524 . S
C855 C856 1.415 . S
C856 H832 0.950 . S
C856 C851 1.363 . S
C856 C855 1.415 . S
C857 H833 0.951 . S
C857 C858 1.366 . S
C857 C859 1.388 . S
C858 C857 1.366 . S
C858 C862 1.385 . S
C859 H834 0.951 . S
C859 C857 1.388 . S
C859 C860 1.366 . S
C860 C859 1.366 . S
C860 C861 1.414 . S
C860 C863 1.499 . S
C861 H835 0.950 . S
C861 C860 1.414 . S
C861 C862 1.374 . S
C862 H836 0.950 . S
C862 C858 1.385 . S
C862 C861 1.374 . S
C863 C860 1.499 . S
C863 C864 1.373 . S
C863 C865 1.389 . S
C864 H837 0.950 . S
C864 C850 1.377 . S
C864 C863 1.373 . S
C865 C849 1.377 . S
C865 C863 1.389 . S
C865 C866 1.524 1_565 S
C866 C865 1.524 1_545 S
C866 C867 1.397 . S
C866 C871 1.363 . S
C867 H838 0.950 . S
C867 C866 1.397 . S
C867 C868 1.334 . S
C868 H839 0.950 . S
C868 C867 1.334 . S
C868 C869 1.287 . S
C869 C868 1.287 . S
C869 C870 1.524 . S
C869 H872 0.999 . S
C870 H840 0.950 . S
C870 C869 1.524 . S
C870 C871 1.415 . S
C871 H841 0.950 1_545 S
C871 C866 1.363 . S
C871 C870 1.415 . S
H872 C869 0.999 . S
H873 C854 0.913 . S
H874 C892 0.951 . S
H875 C894 0.951 . S
H876 C896 0.950 . S
H877 C897 0.950 . S
H878 C899 0.950 . S
H879 C902 0.950 . S
H880 C903 0.950 . S
H881 C905 0.950 . S
H882 C906 0.950 . S
H883 C907 0.951 . S
H884 C909 0.951 . S
H885 C911 0.950 . S
H886 C912 0.950 . S
H887 C914 0.950 . S
H888 C917 0.950 . S
H889 C918 0.950 . S
H890 C920 0.950 . S
H891 C921 0.950 . S
C892 H874 0.951 . S
C892 C893 1.366 . S
C892 C894 1.388 . S
C893 C892 1.366 . S
C893 C897 1.385 . S
C894 H875 0.951 . S
C894 C892 1.388 . S
C894 C895 1.366 . S
C895 C894 1.366 . S
C895 C896 1.414 . S
C895 C898 1.499 . S
C896 H876 0.950 . S
C896 C895 1.414 . S
C896 C897 1.374 . S
C897 H877 0.950 . S
C897 C893 1.385 . S
C897 C896 1.374 . S
C898 C895 1.499 . S
C898 C899 1.373 . S
C898 C900 1.389 . S
C899 H878 0.950 . S
C899 C898 1.373 . S
C899 C915 1.377 . S
C900 C898 1.389 . S
C900 C901 1.524 . S
C900 C914 1.377 . S
C901 C900 1.524 . S
C901 C902 1.397 . S
C901 C906 1.363 . S
C902 H879 0.950 . S
C902 C901 1.397 . S
C902 C903 1.334 . S
C903 H880 0.950 . S
C903 C902 1.334 . S
C903 C904 1.287 . S
C904 C903 1.287 . S
C904 C905 1.524 . S
C904 H923 0.913 . S
C905 H881 0.950 . S
C905 C904 1.524 . S
C905 C906 1.415 . S
C906 H882 0.950 . S
C906 C901 1.363 . S
C906 C905 1.415 . S
C907 H883 0.951 . S
C907 C908 1.366 . S
C907 C909 1.388 . S
C908 C907 1.366 . S
C908 C912 1.385 . S
C909 H884 0.951 . S
C909 C907 1.388 . S
C909 C910 1.366 . S
C910 C909 1.366 . S
C910 C911 1.414 . S
C910 C913 1.499 . S
C911 H885 0.950 . S
C911 C910 1.414 . S
C911 C912 1.374 . S
C912 H886 0.950 . S
C912 C908 1.385 . S
C912 C911 1.374 . S
C913 C910 1.499 . S
C913 C914 1.373 . S
C913 C915 1.389 . S
C914 H887 0.950 . S
C914 C900 1.377 . S
C914 C913 1.373 . S
C915 C899 1.377 . S
C915 C913 1.389 . S
C915 C916 1.524 . S
C916 C915 1.524 . S
C916 C917 1.397 . S
C916 C921 1.363 . S
C917 H888 0.950 . S
C917 C916 1.397 . S
C917 C918 1.334 . S
C918 H889 0.950 . S
C918 C917 1.334 . S
C918 C919 1.287 . S
C919 C918 1.287 . S
C919 C920 1.524 . S
C919 H922 0.999 . S
C920 H890 0.950 . S
C920 C919 1.524 . S
C920 C921 1.415 . S
C921 H891 0.950 . S
C921 C916 1.363 . S
C921 C920 1.415 . S
H922 C919 0.999 . S
H923 C904 0.913 . S
H924 C942 0.951 . S
H925 C944 0.951 . S
H926 C946 0.950 . S
H927 C947 0.950 . S
H928 C949 0.950 . S
H929 C952 0.950 . S
H930 C953 0.950 . S
H931 C955 0.950 . S
H932 C956 0.950 . S
H933 C957 0.951 . S
H934 C959 0.951 . S
H935 C961 0.950 . S
H936 C962 0.950 . S
H937 C964 0.950 . S
H938 C967 0.950 . S
H939 C968 0.950 . S
H940 C970 0.950 . S
H941 C971 0.950 . S
C942 H924 0.951 . S
C942 C943 1.366 . S
C942 C944 1.388 . S
C943 C942 1.366 . S
C943 C947 1.385 . S
C944 H925 0.951 . S
C944 C942 1.388 . S
C944 C945 1.366 . S
C945 C944 1.366 . S
C945 C946 1.414 . S
C945 C948 1.499 . S
C946 H926 0.950 . S
C946 C945 1.414 . S
C946 C947 1.374 . S
C947 H927 0.950 . S
C947 C943 1.385 . S
C947 C946 1.374 . S
C948 C945 1.499 . S
C948 C949 1.373 . S
C948 C950 1.389 . S
C949 H928 0.950 . S
C949 C948 1.373 . S
C949 C965 1.377 . S
C950 C948 1.389 . S
C950 C951 1.524 . S
C950 C964 1.377 . S
C951 C950 1.524 . S
C951 C952 1.397 . S
C951 C956 1.363 . S
C952 H929 0.950 . S
C952 C951 1.397 . S
C952 C953 1.334 . S
C953 H930 0.950 . S
C953 C952 1.334 . S
C953 C954 1.287 . S
C954 C953 1.287 . S
C954 C955 1.524 . S
C954 H973 0.913 . S
C955 H931 0.950 . S
C955 C954 1.524 . S
C955 C956 1.415 . S
C956 H932 0.950 . S
C956 C951 1.363 . S
C956 C955 1.415 . S
C957 H933 0.951 . S
C957 C958 1.366 . S
C957 C959 1.388 . S
C958 C957 1.366 . S
C958 C962 1.385 . S
C959 H934 0.951 . S
C959 C957 1.388 . S
C959 C960 1.366 . S
C960 C959 1.366 . S
C960 C961 1.414 . S
C960 C963 1.499 . S
C961 H935 0.950 . S
C961 C960 1.414 . S
C961 C962 1.374 . S
C962 H936 0.950 . S
C962 C958 1.385 . S
C962 C961 1.374 . S
C963 C960 1.499 . S
C963 C964 1.373 . S
C963 C965 1.389 . S
C964 H937 0.950 . S
C964 C950 1.377 . S
C964 C963 1.373 . S
C965 C949 1.377 . S
C965 C963 1.389 . S
C965 C966 1.524 . S
C966 C965 1.524 . S
C966 C967 1.397 . S
C966 C971 1.363 . S
C967 H938 0.950 . S
C967 C966 1.397 . S
C967 C968 1.334 . S
C968 H939 0.950 . S
C968 C967 1.334 . S
C968 C969 1.287 . S
C969 C968 1.287 . S
C969 C970 1.524 . S
C969 H972 0.999 . S
C970 H940 0.950 . S
C970 C969 1.524 . S
C970 C971 1.415 . S
C971 H941 0.950 . S
C971 C966 1.363 . S
C971 C970 1.415 . S
H972 C969 0.999 . S
H973 C954 0.913 . S
H974 C992 0.951 . S
H975 C994 0.951 . S
H976 C996 0.950 . S
H977 C997 0.950 . S
H978 C999 0.943 1_455 S
H979 C1002 0.950 . S
H980 C1003 0.950 . S
H981 C1005 0.950 . S
H982 C1006 0.950 . S
H983 C1007 0.951 . S
H984 C1009 0.951 . S
H985 C1011 0.950 . S
H986 C1012 0.950 . S
H987 C1014 0.950 . S
H988 C1017 0.950 . S
H989 C1018 0.950 . S
H990 C1020 0.950 . S
H991 C1021 0.950 . S
C992 H974 0.951 . S
C992 C993 1.366 . S
C992 C994 1.388 . S
C993 C992 1.366 . S
C993 C997 1.385 . S
C994 H975 0.951 . S
C994 C992 1.388 . S
C994 C995 1.366 . S
C995 C994 1.366 . S
C995 C996 1.414 . S
C995 C998 1.499 . S
C996 H976 0.950 . S
C996 C995 1.414 . S
C996 C997 1.374 . S
C997 H977 0.950 . S
C997 C993 1.385 . S
C997 C996 1.374 . S
C998 C995 1.499 . S
C998 C999 1.373 . S
C998 C1000 1.389 . S
C999 H978 0.943 1_655 S
C999 C998 1.373 . S
C999 C1015 1.377 . S
C1000 C998 1.389 . S
C1000 C1001 1.524 . S
C1000 C1014 1.377 . S
C1001 C1000 1.524 . S
C1001 C1002 1.397 . S
C1001 C1006 1.363 . S
C1002 H979 0.950 . S
C1002 C1001 1.397 . S
C1002 C1003 1.334 . S
C1003 H980 0.950 . S
C1003 C1002 1.334 . S
C1003 C1004 1.287 . S
C1004 C1003 1.287 . S
C1004 C1005 1.524 . S
C1004 H1023 0.913 . S
C1005 H981 0.950 . S
C1005 C1004 1.524 . S
C1005 C1006 1.415 . S
C1006 H982 0.950 . S
C1006 C1001 1.363 . S
C1006 C1005 1.415 . S
C1007 H983 0.951 . S
C1007 C1008 1.366 . S
C1007 C1009 1.388 . S
C1008 C1007 1.366 . S
C1008 C1012 1.385 . S
C1009 H984 0.951 . S
C1009 C1007 1.388 . S
C1009 C1010 1.366 . S
C1010 C1009 1.366 . S
C1010 C1011 1.414 . S
C1010 C1013 1.499 . S
C1011 H985 0.950 . S
C1011 C1010 1.414 . S
C1011 C1012 1.374 . S
C1012 H986 0.950 . S
C1012 C1008 1.385 . S
C1012 C1011 1.374 . S
C1013 C1010 1.499 . S
C1013 C1014 1.373 . S
C1013 C1015 1.389 . S
C1014 H987 0.950 . S
C1014 C1000 1.377 . S
C1014 C1013 1.373 . S
C1015 C999 1.377 . S
C1015 C1013 1.389 . S
C1015 C1016 1.524 1_655 S
C1016 C1015 1.524 1_455 S
C1016 C1017 1.397 . S
C1016 C1021 1.363 . S
C1017 H988 0.950 . S
C1017 C1016 1.397 . S
C1017 C1018 1.334 . S
C1018 H989 0.950 . S
C1018 C1017 1.334 . S
C1018 C1019 1.287 . S
C1019 C1018 1.287 . S
C1019 C1020 1.524 . S
C1019 H1022 0.999 . S
C1020 H990 0.950 . S
C1020 C1019 1.524 . S
C1020 C1021 1.415 . S
C1021 H991 0.950 . S
C1021 C1016 1.363 . S
C1021 C1020 1.415 . S
H1022 C1019 0.999 . S
H1023 C1004 0.913 . S
H1024 C1042 0.951 . S
H1025 C1044 0.951 . S
H1026 C1046 0.950 . S
H1027 C1047 0.950 . S
H1028 C1049 0.950 . S
H1029 C1052 0.950 . S
H1030 C1053 0.950 . S
H1031 C1055 0.950 . S
H1032 C1056 0.950 . S
H1033 C1057 0.951 . S
H1034 C1059 0.951 . S
H1035 C1061 0.950 . S
H1036 C1062 0.950 . S
H1037 C1064 0.950 . S
H1038 C1067 0.950 . S
H1039 C1068 0.950 . S
H1040 C1070 0.950 . S
H1041 C1071 0.950 . S
C1042 H1024 0.951 . S
C1042 C1043 1.366 . S
C1042 C1044 1.388 . S
C1043 C1042 1.366 . S
C1043 C1047 1.385 . S
C1044 H1025 0.951 . S
C1044 C1042 1.388 . S
C1044 C1045 1.366 . S
C1045 C1044 1.366 . S
C1045 C1046 1.414 . S
C1045 C1048 1.499 . S
C1046 H1026 0.950 . S
C1046 C1045 1.414 . S
C1046 C1047 1.374 . S
C1047 H1027 0.950 . S
C1047 C1043 1.385 . S
C1047 C1046 1.374 . S
C1048 C1045 1.499 . S
C1048 C1049 1.373 . S
C1048 C1050 1.389 . S
C1049 H1028 0.950 . S
C1049 C1048 1.373 . S
C1049 C1065 1.377 . S
C1050 C1048 1.389 . S
C1050 C1051 1.524 . S
C1050 C1064 1.377 . S
C1051 C1050 1.524 . S
C1051 C1052 1.397 . S
C1051 C1056 1.363 . S
C1052 H1029 0.950 . S
C1052 C1051 1.397 . S
C1052 C1053 1.334 . S
C1053 H1030 0.950 . S
C1053 C1052 1.334 . S
C1053 C1054 1.287 . S
C1054 C1053 1.287 . S
C1054 C1055 1.524 . S
C1054 H1073 0.913 . S
C1055 H1031 0.950 . S
C1055 C1054 1.524 . S
C1055 C1056 1.415 . S
C1056 H1032 0.950 . S
C1056 C1051 1.363 . S
C1056 C1055 1.415 . S
C1057 H1033 0.951 . S
C1057 C1058 1.366 . S
C1057 C1059 1.388 . S
C1058 C1057 1.366 . S
C1058 C1062 1.385 . S
C1059 H1034 0.951 . S
C1059 C1057 1.388 . S
C1059 C1060 1.366 . S
C1060 C1059 1.366 . S
C1060 C1061 1.414 . S
C1060 C1063 1.499 . S
C1061 H1035 0.950 . S
C1061 C1060 1.414 . S
C1061 C1062 1.374 . S
C1062 H1036 0.950 . S
C1062 C1058 1.385 . S
C1062 C1061 1.374 . S
C1063 C1060 1.499 . S
C1063 C1064 1.373 . S
C1063 C1065 1.389 . S
C1064 H1037 0.950 . S
C1064 C1050 1.377 . S
C1064 C1063 1.373 . S
C1065 C1049 1.377 . S
C1065 C1063 1.389 . S
C1065 C1066 1.524 1_565 S
C1066 C1065 1.524 1_545 S
C1066 C1067 1.397 . S
C1066 C1071 1.363 . S
C1067 H1038 0.950 . S
C1067 C1066 1.397 . S
C1067 C1068 1.334 . S
C1068 H1039 0.950 . S
C1068 C1067 1.334 . S
C1068 C1069 1.287 . S
C1069 C1068 1.287 . S
C1069 C1070 1.524 . S
C1069 H1072 0.999 . S
C1070 H1040 0.950 . S
C1070 C1069 1.524 . S
C1070 C1071 1.415 . S
C1071 H1041 0.950 . S
C1071 C1066 1.363 . S
C1071 C1070 1.415 . S
H1072 C1069 0.999 . S
H1073 C1054 0.913 . S
H1074 C1092 0.951 . S
H1075 C1094 0.951 . S
H1076 C1096 0.950 . S
H1077 C1097 0.950 . S
H1078 C1099 0.950 . S
H1079 C1102 0.950 . S
H1080 C1103 0.950 . S
H1081 C1105 0.950 . S
H1082 C1106 0.950 . S
H1083 C1107 0.951 . S
H1084 C1109 0.951 . S
H1085 C1111 0.950 . S
H1086 C1112 0.950 . S
H1087 C1114 0.950 . S
H1088 C1117 0.950 . S
H1089 C1118 0.950 . S
H1090 C1120 0.950 . S
H1091 C1121 0.950 . S
C1092 H1074 0.951 . S
C1092 C1093 1.366 . S
C1092 C1094 1.388 . S
C1093 C1092 1.366 . S
C1093 C1097 1.385 . S
C1094 H1075 0.951 . S
C1094 C1092 1.388 . S
C1094 C1095 1.366 . S
C1095 C1094 1.366 . S
C1095 C1096 1.414 . S
C1095 C1098 1.499 . S
C1096 H1076 0.950 . S
C1096 C1095 1.414 . S
C1096 C1097 1.374 . S
C1097 H1077 0.950 . S
C1097 C1093 1.385 . S
C1097 C1096 1.374 . S
C1098 C1095 1.499 . S
C1098 C1099 1.373 . S
C1098 C1100 1.389 . S
C1099 H1078 0.950 . S
C1099 C1098 1.373 . S
C1099 C1115 1.377 . S
C1100 C1098 1.389 . S
C1100 C1101 1.524 . S
C1100 C1114 1.377 . S
C1101 C1100 1.524 . S
C1101 C1102 1.397 . S
C1101 C1106 1.363 . S
C1102 H1079 0.950 . S
C1102 C1101 1.397 . S
C1102 C1103 1.334 . S
C1103 H1080 0.950 . S
C1103 C1102 1.334 . S
C1103 C1104 1.287 . S
C1104 C1103 1.287 . S
C1104 C1105 1.524 . S
C1104 H1123 0.913 . S
C1105 H1081 0.950 . S
C1105 C1104 1.524 . S
C1105 C1106 1.415 . S
C1106 H1082 0.950 . S
C1106 C1101 1.363 . S
C1106 C1105 1.415 . S
C1107 H1083 0.951 . S
C1107 C1108 1.366 . S
C1107 C1109 1.388 . S
C1108 C1107 1.366 . S
C1108 C1112 1.385 . S
C1109 H1084 0.951 . S
C1109 C1107 1.388 . S
C1109 C1110 1.366 . S
C1110 C1109 1.366 . S
C1110 C1111 1.414 . S
C1110 C1113 1.499 . S
C1111 H1085 0.950 . S
C1111 C1110 1.414 . S
C1111 C1112 1.374 . S
C1112 H1086 0.950 . S
C1112 C1108 1.385 . S
C1112 C1111 1.374 . S
C1113 C1110 1.499 . S
C1113 C1114 1.373 . S
C1113 C1115 1.389 . S
C1114 H1087 0.950 . S
C1114 C1100 1.377 . S
C1114 C1113 1.373 . S
C1115 C1099 1.377 . S
C1115 C1113 1.389 . S
C1115 C1116 1.524 . S
C1116 C1115 1.524 . S
C1116 C1117 1.397 . S
C1116 C1121 1.363 . S
C1117 H1088 0.950 . S
C1117 C1116 1.397 . S
C1117 C1118 1.334 . S
C1118 H1089 0.950 . S
C1118 C1117 1.334 . S
C1118 C1119 1.287 . S
C1119 C1118 1.287 . S
C1119 C1120 1.524 . S
C1119 H1122 0.999 . S
C1120 H1090 0.950 . S
C1120 C1119 1.524 . S
C1120 C1121 1.415 . S
C1121 H1091 0.950 . S
C1121 C1116 1.363 . S
C1121 C1120 1.415 . S
H1122 C1119 0.999 . S
H1123 C1104 0.913 . S
H1124 C1142 0.951 . S
H1125 C1144 0.951 . S
H1126 C1146 0.950 . S
H1127 C1147 0.950 . S
H1128 C1149 0.950 . S
H1129 C1152 0.950 . S
H1130 C1153 0.950 . S
H1131 C1155 0.950 . S
H1132 C1156 0.950 . S
H1133 C1157 0.951 . S
H1134 C1159 0.951 . S
H1135 C1161 0.950 . S
H1136 C1162 0.950 . S
H1137 C1164 0.950 . S
H1138 C1167 0.950 . S
H1139 C1168 0.950 . S
H1140 C1170 0.950 . S
H1141 C1171 0.950 . S
C1142 H1124 0.951 . S
C1142 C1143 1.366 . S
C1142 C1144 1.388 . S
C1143 C1142 1.366 . S
C1143 C1147 1.385 . S
C1144 H1125 0.951 . S
C1144 C1142 1.388 . S
C1144 C1145 1.366 . S
C1145 C1144 1.366 . S
C1145 C1146 1.414 . S
C1145 C1148 1.499 . S
C1146 H1126 0.950 . S
C1146 C1145 1.414 . S
C1146 C1147 1.374 . S
C1147 H1127 0.950 . S
C1147 C1143 1.385 . S
C1147 C1146 1.374 . S
C1148 C1145 1.499 . S
C1148 C1149 1.373 . S
C1148 C1150 1.389 . S
C1149 H1128 0.950 . S
C1149 C1148 1.373 . S
C1149 C1165 1.377 . S
C1150 C1148 1.389 . S
C1150 C1151 1.524 . S
C1150 C1164 1.377 . S
C1151 C1150 1.524 . S
C1151 C1152 1.397 . S
C1151 C1156 1.363 . S
C1152 H1129 0.950 . S
C1152 C1151 1.397 . S
C1152 C1153 1.334 . S
C1153 H1130 0.950 . S
C1153 C1152 1.334 . S
C1153 C1154 1.287 . S
C1154 C1153 1.287 . S
C1154 C1155 1.524 . S
C1154 H1173 0.913 . S
C1155 H1131 0.950 . S
C1155 C1154 1.524 . S
C1155 C1156 1.415 . S
C1156 H1132 0.950 . S
C1156 C1151 1.363 . S
C1156 C1155 1.415 . S
C1157 H1133 0.951 . S
C1157 C1158 1.366 . S
C1157 C1159 1.388 . S
C1158 C1157 1.366 . S
C1158 C1162 1.385 . S
C1159 H1134 0.951 . S
C1159 C1157 1.388 . S
C1159 C1160 1.366 . S
C1160 C1159 1.366 . S
C1160 C1161 1.414 . S
C1160 C1163 1.499 . S
C1161 H1135 0.950 . S
C1161 C1160 1.414 . S
C1161 C1162 1.374 . S
C1162 H1136 0.950 . S
C1162 C1158 1.385 . S
C1162 C1161 1.374 . S
C1163 C1160 1.499 . S
C1163 C1164 1.373 . S
C1163 C1165 1.389 . S
C1164 H1137 0.950 . S
C1164 C1150 1.377 . S
C1164 C1163 1.373 . S
C1165 C1149 1.377 . S
C1165 C1163 1.389 . S
C1165 C1166 1.524 . S
C1166 C1165 1.524 . S
C1166 C1167 1.397 . S
C1166 C1171 1.363 . S
C1167 H1138 0.950 . S
C1167 C1166 1.397 . S
C1167 C1168 1.334 . S
C1168 H1139 0.950 . S
C1168 C1167 1.334 . S
C1168 C1169 1.287 . S
C1169 C1168 1.287 . S
C1169 C1170 1.524 . S
C1169 H1172 0.999 . S
C1170 H1140 0.950 . S
C1170 C1169 1.524 . S
C1170 C1171 1.415 . S
C1171 H1141 0.950 . S
C1171 C1166 1.363 . S
C1171 C1170 1.415 . S
H1172 C1169 0.999 . S
H1173 C1154 0.913 . S
H1174 C1192 0.951 . S
H1175 C1194 0.951 . S
H1176 C1196 0.950 . S
H1177 C1197 0.950 . S
H1178 C1199 0.950 . S
H1179 C1202 0.950 . S
H1180 C1203 0.950 . S
H1181 C1205 0.994 . S
H1182 C1206 0.950 1_455 S
H1183 C1207 0.951 . S
H1184 C1209 0.951 . S
H1185 C1211 0.950 1_455 S
H1186 C1212 0.950 1_455 S
H1187 C1214 0.950 . S
H1188 C1217 0.950 . S
H1189 C1218 0.950 . S
H1190 C1220 0.950 . S
H1191 C1221 0.950 . S
C1192 H1174 0.951 . S
C1192 C1193 1.366 . S
C1192 C1194 1.388 . S
C1193 C1192 1.366 . S
C1193 C1197 1.385 . S
C1194 H1175 0.951 . S
C1194 C1192 1.388 . S
C1194 C1195 1.366 . S
C1195 C1194 1.366 . S
C1195 C1196 1.414 . S
C1195 C1198 1.499 . S
C1196 H1176 0.950 . S
C1196 C1195 1.414 . S
C1196 C1197 1.374 . S
C1197 H1177 0.950 . S
C1197 C1193 1.385 . S
C1197 C1196 1.374 . S
C1198 C1195 1.499 . S
C1198 C1199 1.373 . S
C1198 C1200 1.389 . S
C1199 H1178 0.950 . S
C1199 C1198 1.373 . S
C1199 C1215 1.377 . S
C1200 C1198 1.389 . S
C1200 C1201 1.524 . S
C1200 C1214 1.377 . S
C1201 C1200 1.524 . S
C1201 C1202 1.397 . S
C1201 C1206 1.363 . S
C1202 H1179 0.950 . S
C1202 C1201 1.397 . S
C1202 C1203 1.334 . S
C1203 H1180 0.950 . S
C1203 C1202 1.334 . S
C1203 C1204 1.287 . S
C1204 C1203 1.287 . S
C1204 C1205 1.482 1_655 S
C1204 H1223 0.913 . S
C1205 H1181 0.994 . S
C1205 C1204 1.482 1_455 S
C1205 C1206 1.408 1_455 S
C1206 H1182 0.950 1_655 S
C1206 C1201 1.363 . S
C1206 C1205 1.408 1_655 S
C1207 H1183 0.951 . S
C1207 C1208 1.366 . S
C1207 C1209 1.388 . S
C1208 C1207 1.366 . S
C1208 C1212 1.385 . S
C1209 H1184 0.951 . S
C1209 C1207 1.388 . S
C1209 C1210 1.366 . S
C1210 C1209 1.366 . S
C1210 C1211 1.414 . S
C1210 C1213 1.499 . S
C1211 H1185 0.950 1_655 S
C1211 C1210 1.414 . S
C1211 C1212 1.374 . S
C1212 H1186 0.950 1_655 S
C1212 C1208 1.385 . S
C1212 C1211 1.374 . S
C1213 C1210 1.499 . S
C1213 C1214 1.373 . S
C1213 C1215 1.389 . S
C1214 H1187 0.950 . S
C1214 C1200 1.377 . S
C1214 C1213 1.373 . S
C1215 C1199 1.377 . S
C1215 C1213 1.389 . S
C1215 C1216 1.524 . S
C1216 C1215 1.524 . S
C1216 C1217 1.397 . S
C1216 C1221 1.363 . S
C1217 H1188 0.950 . S
C1217 C1216 1.397 . S
C1217 C1218 1.334 . S
C1218 H1189 0.950 . S
C1218 C1217 1.334 . S
C1218 C1219 1.287 . S
C1219 C1218 1.287 . S
C1219 C1220 1.524 . S
C1219 H1222 0.999 . S
C1220 H1190 0.950 . S
C1220 C1219 1.524 . S
C1220 C1221 1.415 . S
C1221 H1191 0.950 . S
C1221 C1216 1.363 . S
C1221 C1220 1.415 . S
H1222 C1219 0.999 . S
H1223 C1204 0.913 . S
H1224 C1242 0.988 . S
H1225 C1244 0.951 . S
H1226 C1246 0.950 . S
H1227 C1247 0.950 . S
H1228 C1249 0.950 . S
H1229 C1252 0.950 . S
H1230 C1253 0.950 . S
H1231 C1255 0.950 . S
H1232 C1256 0.950 . S
H1233 C1257 0.951 . S
H1234 C1259 0.951 . S
H1235 C1261 0.950 . S
H1236 C1262 0.950 . S
H1237 C1264 0.950 . S
H1238 C1267 0.950 . S
H1239 C1268 0.950 1_565 S
H1240 C1270 0.950 . S
H1241 C1271 0.950 . S
C1242 H1224 0.988 . S
C1242 C1243 1.366 . S
C1242 C1244 1.388 . S
C1243 C1242 1.366 . S
C1243 C1247 1.385 . S
C1244 H1225 0.951 . S
C1244 C1242 1.388 . S
C1244 C1245 1.366 . S
C1245 C1244 1.366 . S
C1245 C1246 1.414 . S
C1245 C1248 1.499 . S
C1246 H1226 0.950 . S
C1246 C1245 1.414 . S
C1246 C1247 1.374 . S
C1247 H1227 0.950 . S
C1247 C1243 1.385 . S
C1247 C1246 1.374 . S
C1248 C1245 1.499 . S
C1248 C1249 1.373 . S
C1248 C1250 1.389 . S
C1249 H1228 0.950 . S
C1249 C1248 1.373 . S
C1249 C1265 1.377 . S
C1250 C1248 1.389 . S
C1250 C1251 1.524 . S
C1250 C1264 1.377 . S
C1251 C1250 1.524 . S
C1251 C1252 1.397 . S
C1251 C1256 1.363 . S
C1252 H1229 0.950 . S
C1252 C1251 1.397 . S
C1252 C1253 1.334 . S
C1253 H1230 0.950 . S
C1253 C1252 1.334 . S
C1253 C1254 1.287 . S
C1254 C1253 1.287 . S
C1254 C1255 1.524 . S
C1254 H1273 0.913 . S
C1255 H1231 0.950 . S
C1255 C1254 1.524 . S
C1255 C1256 1.415 . S
C1256 H1232 0.950 . S
C1256 C1251 1.363 . S
C1256 C1255 1.415 . S
C1257 H1233 0.951 . S
C1257 C1258 1.366 . S
C1257 C1259 1.388 . S
C1258 C1257 1.366 . S
C1258 C1262 1.385 . S
C1259 H1234 0.951 . S
C1259 C1257 1.388 . S
C1259 C1260 1.366 . S
C1260 C1259 1.366 . S
C1260 C1261 1.414 . S
C1260 C1263 1.499 . S
C1261 H1235 0.950 . S
C1261 C1260 1.414 . S
C1261 C1262 1.374 . S
C1262 H1236 0.950 . S
C1262 C1258 1.385 . S
C1262 C1261 1.374 . S
C1263 C1260 1.499 . S
C1263 C1264 1.373 . S
C1263 C1265 1.389 . S
C1264 H1237 0.950 . S
C1264 C1250 1.377 . S
C1264 C1263 1.373 . S
C1265 C1249 1.377 . S
C1265 C1263 1.389 . S
C1265 C1266 1.524 . S
C1266 C1265 1.524 . S
C1266 C1267 1.397 . S
C1266 C1271 1.363 . S
C1267 H1238 0.950 . S
C1267 C1266 1.397 . S
C1267 C1268 1.334 . S
C1268 H1239 0.950 1_545 S
C1268 C1267 1.334 . S
C1268 C1269 1.287 . S
C1269 C1268 1.287 . S
C1269 C1270 1.524 . S
C1269 H1272 0.999 . S
C1270 H1240 0.950 . S
C1270 C1269 1.524 . S
C1270 C1271 1.415 . S
C1271 H1241 0.950 . S
C1271 C1266 1.363 . S
C1271 C1270 1.415 . S
H1272 C1269 0.999 . S
H1273 C1254 0.913 . S
H1274 C1292 0.951 . S
H1275 C1294 0.951 . S
H1276 C1296 0.950 . S
H1277 C1297 0.950 . S
H1278 C1299 0.950 . S
H1279 C1302 0.950 . S
H1280 C1303 0.950 . S
H1281 C1305 0.950 . S
H1282 C1306 0.950 . S
H1283 C1307 0.951 . S
H1284 C1309 0.951 . S
H1285 C1311 0.950 . S
H1286 C1312 0.950 . S
H1287 C1314 0.950 . S
H1288 C1317 0.950 . S
H1289 C1318 0.950 . S
H1290 C1320 0.950 . S
H1291 C1321 0.950 . S
C1292 H1274 0.951 . S
C1292 C1293 1.366 . S
C1292 C1294 1.388 . S
C1293 C1292 1.366 . S
C1293 C1297 1.385 . S
C1294 H1275 0.951 . S
C1294 C1292 1.388 . S
C1294 C1295 1.366 . S
C1295 C1294 1.366 . S
C1295 C1296 1.414 . S
C1295 C1298 1.499 . S
C1296 H1276 0.950 . S
C1296 C1295 1.414 . S
C1296 C1297 1.374 . S
C1297 H1277 0.950 . S
C1297 C1293 1.385 . S
C1297 C1296 1.374 . S
C1298 C1295 1.499 . S
C1298 C1299 1.373 . S
C1298 C1300 1.389 . S
C1299 H1278 0.950 . S
C1299 C1298 1.373 . S
C1299 C1315 1.377 . S
C1300 C1298 1.389 . S
C1300 C1301 1.524 . S
C1300 C1314 1.377 . S
C1301 C1300 1.524 . S
C1301 C1302 1.397 . S
C1301 C1306 1.363 . S
C1302 H1279 0.950 . S
C1302 C1301 1.397 . S
C1302 C1303 1.334 . S
C1303 H1280 0.950 . S
C1303 C1302 1.334 . S
C1303 C1304 1.287 . S
C1304 C1303 1.287 . S
C1304 C1305 1.524 . S
C1304 H1323 0.913 . S
C1305 H1281 0.950 . S
C1305 C1304 1.524 . S
C1305 C1306 1.415 . S
C1306 H1282 0.950 . S
C1306 C1301 1.363 . S
C1306 C1305 1.415 . S
C1307 H1283 0.951 . S
C1307 C1308 1.366 . S
C1307 C1309 1.388 . S
C1308 C1307 1.366 . S
C1308 C1312 1.385 . S
C1309 H1284 0.951 . S
C1309 C1307 1.388 . S
C1309 C1310 1.366 . S
C1310 C1309 1.366 . S
C1310 C1311 1.414 . S
C1310 C1313 1.499 . S
C1311 H1285 0.950 . S
C1311 C1310 1.414 . S
C1311 C1312 1.374 . S
C1312 H1286 0.950 . S
C1312 C1308 1.385 . S
C1312 C1311 1.374 . S
C1313 C1310 1.499 . S
C1313 C1314 1.373 . S
C1313 C1315 1.389 . S
C1314 H1287 0.950 . S
C1314 C1300 1.377 . S
C1314 C1313 1.373 . S
C1315 C1299 1.377 . S
C1315 C1313 1.389 . S
C1315 C1316 1.524 . S
C1316 C1315 1.524 . S
C1316 C1317 1.397 . S
C1316 C1321 1.363 . S
C1317 H1288 0.950 . S
C1317 C1316 1.397 . S
C1317 C1318 1.334 . S
C1318 H1289 0.950 . S
C1318 C1317 1.334 . S
C1318 C1319 1.287 . S
C1319 C1318 1.287 . S
C1319 C1320 1.524 . S
C1319 H1322 0.999 . S
C1320 H1290 0.950 . S
C1320 C1319 1.524 . S
C1320 C1321 1.415 . S
C1321 H1291 0.950 . S
C1321 C1316 1.363 . S
C1321 C1320 1.415 . S
H1322 C1319 0.999 . S
H1323 C1304 0.913 . S
H1324 C1342 0.951 . S
H1325 C1344 0.951 . S
H1326 C1346 0.950 . S
H1327 C1347 0.950 . S
H1328 C1349 0.950 . S
H1329 C1352 0.950 . S
H1330 C1353 0.950 . S
H1331 C1355 0.950 . S
H1332 C1356 0.950 . S
H1333 C1357 0.951 . S
H1334 C1359 0.951 . S
H1335 C1361 0.950 . S
H1336 C1362 0.950 . S
H1337 C1364 0.950 . S
H1338 C1367 0.950 . S
H1339 C1368 0.950 . S
H1340 C1370 0.950 . S
H1341 C1371 0.950 . S
C1342 H1324 0.951 . S
C1342 C1343 1.366 . S
C1342 C1344 1.388 . S
C1343 C1342 1.366 . S
C1343 C1347 1.385 . S
C1344 H1325 0.951 . S
C1344 C1342 1.388 . S
C1344 C1345 1.366 . S
C1345 C1344 1.366 . S
C1345 C1346 1.414 . S
C1345 C1348 1.499 . S
C1346 H1326 0.950 . S
C1346 C1345 1.414 . S
C1346 C1347 1.374 . S
C1347 H1327 0.950 . S
C1347 C1343 1.385 . S
C1347 C1346 1.374 . S
C1348 C1345 1.499 . S
C1348 C1349 1.373 . S
C1348 C1350 1.389 . S
C1349 H1328 0.950 . S
C1349 C1348 1.373 . S
C1349 C1365 1.377 . S
C1350 C1348 1.389 . S
C1350 C1351 1.524 . S
C1350 C1364 1.377 . S
C1351 C1350 1.524 . S
C1351 C1352 1.397 . S
C1351 C1356 1.363 . S
C1352 H1329 0.950 . S
C1352 C1351 1.397 . S
C1352 C1353 1.334 . S
C1353 H1330 0.950 . S
C1353 C1352 1.334 . S
C1353 C1354 1.287 . S
C1354 C1353 1.287 . S
C1354 C1355 1.524 . S
C1354 H1373 0.913 . S
C1355 H1331 0.950 . S
C1355 C1354 1.524 . S
C1355 C1356 1.415 . S
C1356 H1332 0.950 . S
C1356 C1351 1.363 . S
C1356 C1355 1.415 . S
C1357 H1333 0.951 . S
C1357 C1358 1.366 . S
C1357 C1359 1.388 . S
C1358 C1357 1.366 . S
C1358 C1362 1.385 . S
C1359 H1334 0.951 . S
C1359 C1357 1.388 . S
C1359 C1360 1.366 . S
C1360 C1359 1.366 . S
C1360 C1361 1.414 . S
C1360 C1363 1.499 . S
C1361 H1335 0.950 . S
C1361 C1360 1.414 . S
C1361 C1362 1.374 . S
C1362 H1336 0.950 . S
C1362 C1358 1.385 . S
C1362 C1361 1.374 . S
C1363 C1360 1.499 . S
C1363 C1364 1.373 . S
C1363 C1365 1.389 . S
C1364 H1337 0.950 . S
C1364 C1350 1.377 . S
C1364 C1363 1.373 . S
C1365 C1349 1.377 . S
C1365 C1363 1.389 . S
C1365 C1366 1.524 . S
C1366 C1365 1.524 . S
C1366 C1367 1.397 . S
C1366 C1371 1.363 . S
C1367 H1338 0.950 . S
C1367 C1366 1.397 . S
C1367 C1368 1.334 . S
C1368 H1339 0.950 . S
C1368 C1367 1.334 . S
C1368 C1369 1.287 . S
C1369 C1368 1.287 . S
C1369 C1370 1.524 . S
C1369 H1372 0.999 . S
C1370 H1340 0.950 . S
C1370 C1369 1.524 . S
C1370 C1371 1.415 . S
C1371 H1341 0.950 . S
C1371 C1366 1.363 . S
C1371 C1370 1.415 . S
H1372 C1369 0.999 . S
H1373 C1354 0.913 . S
H1374 C1392 0.951 1_655 S
H1375 C1394 0.927 1_655 S
H1376 C1396 0.950 . S
H1377 C1397 0.950 . S
H1378 C1399 0.950 . S
H1379 C1402 0.950 1_455 S
H1380 C1403 0.950 . S
H1381 C1405 0.950 . S
H1382 C1406 0.950 . S
H1383 C1407 0.951 . S
H1384 C1409 0.951 . S
H1385 C1411 0.950 . S
H1386 C1412 0.950 . S
H1387 C1414 0.969 . S
H1388 C1417 0.950 . S
H1389 C1418 0.950 . S
H1390 C1420 0.950 . S
H1391 C1421 0.950 . S
C1392 H1374 0.951 1_455 S
C1392 C1393 1.366 . S
C1392 C1394 1.388 . S
C1393 C1392 1.366 . S
C1393 C1397 1.385 . S
C1394 H1375 0.927 1_455 S
C1394 C1392 1.388 . S
C1394 C1395 1.366 . S
C1395 C1394 1.366 . S
C1395 C1396 1.414 . S
C1395 C1398 1.499 . S
C1396 H1376 0.950 . S
C1396 C1395 1.414 . S
C1396 C1397 1.374 . S
C1397 H1377 0.950 . S
C1397 C1393 1.385 . S
C1397 C1396 1.374 . S
C1398 C1395 1.499 . S
C1398 C1399 1.373 . S
C1398 C1400 1.389 . S
C1399 H1378 0.950 . S
C1399 C1398 1.373 . S
C1399 C1415 1.377 . S
C1400 C1398 1.389 . S
C1400 C1401 1.524 1_455 S
C1400 C1414 1.377 . S
C1401 C1400 1.524 1_655 S
C1401 C1402 1.397 . S
C1401 C1406 1.363 . S
C1402 H1379 0.950 1_655 S
C1402 C1401 1.397 . S
C1402 C1403 1.334 . S
C1403 H1380 0.950 . S
C1403 C1402 1.334 . S
C1403 C1404 1.287 . S
C1404 C1403 1.287 . S
C1404 C1405 1.524 . S
C1404 H1423 0.913 . S
C1405 H1381 0.950 . S
C1405 C1404 1.524 . S
C1405 C1406 1.415 . S
C1406 H1382 0.950 . S
C1406 C1401 1.363 . S
C1406 C1405 1.415 . S
C1407 H1383 0.951 . S
C1407 C1408 1.366 . S
C1407 C1409 1.388 . S
C1408 C1407 1.366 . S
C1408 C1412 1.385 . S
C1409 H1384 0.951 . S
C1409 C1407 1.388 . S
C1409 C1410 1.366 . S
C1410 C1409 1.366 . S
C1410 C1411 1.414 . S
C1410 C1413 1.499 . S
C1411 H1385 0.950 . S
C1411 C1410 1.414 . S
C1411 C1412 1.374 . S
C1412 H1386 0.950 . S
C1412 C1408 1.385 . S
C1412 C1411 1.374 . S
C1413 C1410 1.499 . S
C1413 C1414 1.373 . S
C1413 C1415 1.389 . S
C1414 H1387 0.969 . S
C1414 C1400 1.377 . S
C1414 C1413 1.373 . S
C1415 C1399 1.377 . S
C1415 C1413 1.389 . S
C1415 C1416 1.524 . S
C1416 C1415 1.524 . S
C1416 C1417 1.397 . S
C1416 C1421 1.363 . S
C1417 H1388 0.950 . S
C1417 C1416 1.397 . S
C1417 C1418 1.334 . S
C1418 H1389 0.950 . S
C1418 C1417 1.334 . S
C1418 C1419 1.287 . S
C1419 C1418 1.287 . S
C1419 C1420 1.524 . S
C1419 H1422 0.999 . S
C1420 H1390 0.950 . S
C1420 C1419 1.524 . S
C1420 C1421 1.415 . S
C1421 H1391 0.950 . S
C1421 C1416 1.363 . S
C1421 C1420 1.415 . S
H1422 C1419 0.999 . S
H1423 C1404 0.913 . S
H1424 C1442 0.951 . S
H1425 C1444 0.951 . S
H1426 C1446 0.950 . S
H1427 C1447 0.950 . S
H1428 C1449 0.950 . S
H1429 C1452 0.950 . S
H1430 C1453 0.950 . S
H1431 C1455 0.950 1_554 S
H1432 C1456 0.950 . S
H1433 C1457 0.951 . S
H1434 C1459 0.951 . S
H1435 C1461 0.950 . S
H1436 C1462 0.950 . S
H1437 C1464 0.950 . S
H1438 C1467 0.950 . S
H1439 C1468 0.950 . S
H1440 C1470 0.950 1_556 S
H1441 C1471 0.950 . S
C1442 H1424 0.951 . S
C1442 C1443 1.366 1_544 S
C1442 C1444 1.388 . S
C1443 C1442 1.366 1_566 S
C1443 C1447 1.385 . S
C1444 H1425 0.951 . S
C1444 C1442 1.388 . S
C1444 C1445 1.366 1_544 S
C1445 C1444 1.366 1_566 S
C1445 C1446 1.414 . S
C1445 C1448 1.501 . S
C1446 H1426 0.950 . S
C1446 C1445 1.414 . S
C1446 C1447 1.374 . S
C1447 H1427 0.950 . S
C1447 C1443 1.385 . S
C1447 C1446 1.374 . S
C1448 C1445 1.501 . S
C1448 C1449 1.417 . S
C1448 C1450 1.346 1_565 S
C1449 H1428 0.950 . S
C1449 C1448 1.417 . S
C1449 C1465 1.375 1_556 S
C1450 C1448 1.346 1_545 S
C1450 C1451 1.524 . S
C1450 C1464 1.375 1_556 S
C1451 C1450 1.524 . S
C1451 C1452 1.397 . S
C1451 C1456 1.363 1_556 S
C1452 H1429 0.950 . S
C1452 C1451 1.397 . S
C1452 C1453 1.334 . S
C1453 H1430 0.950 . S
C1453 C1452 1.334 . S
C1453 C1454 1.287 . S
C1454 C1453 1.287 . S
C1454 C1455 1.524 . S
C1454 H1473 0.913 . S
C1455 H1431 0.950 1_556 S
C1455 C1454 1.524 . S
C1455 C1456 1.415 1_556 S
C1456 H1432 0.950 . S
C1456 C1451 1.363 1_554 S
C1456 C1455 1.415 1_554 S
C1457 H1433 0.951 . S
C1457 C1458 1.366 1_566 S
C1457 C1459 1.388 . S
C1458 C1457 1.366 1_544 S
C1458 C1462 1.385 . S
C1459 H1434 0.951 . S
C1459 C1457 1.388 . S
C1459 C1460 1.366 1_566 S
C1460 C1459 1.366 1_544 S
C1460 C1461 1.414 . S
C1460 C1463 1.501 . S
C1461 H1435 0.950 . S
C1461 C1460 1.414 . S
C1461 C1462 1.374 . S
C1462 H1436 0.950 . S
C1462 C1458 1.385 . S
C1462 C1461 1.374 . S
C1463 C1460 1.501 . S
C1463 C1464 1.417 . S
C1463 C1465 1.346 1_545 S
C1464 H1437 0.950 . S
C1464 C1450 1.375 1_554 S
C1464 C1463 1.417 . S
C1465 C1449 1.375 1_554 S
C1465 C1463 1.346 1_565 S
C1465 C1466 1.524 . S
C1466 C1465 1.524 . S
C1466 C1467 1.397 . S
C1466 C1471 1.363 1_554 S
C1467 H1438 0.950 . S
C1467 C1466 1.397 . S
C1467 C1468 1.334 . S
C1468 H1439 0.950 . S
C1468 C1467 1.334 . S
C1468 C1469 1.287 . S
C1469 C1468 1.287 . S
C1469 C1470 1.524 . S
C1469 H1472 0.999 . S
C1470 H1440 0.950 1_554 S
C1470 C1469 1.524 . S
C1470 C1471 1.415 1_554 S
C1471 H1441 0.950 . S
C1471 C1466 1.363 1_556 S
C1471 C1470 1.415 1_556 S
H1472 C1469 0.999 . S
H1473 C1454 0.913 . S
H1474 C1492 0.951 1_554 S
H1475 C1494 0.948 1_554 S
H1476 C1496 0.950 . S
H1477 C1497 0.950 . S
H1478 C1499 0.950 . S
H1479 C1502 0.950 . S
H1480 C1503 0.950 . S
H1481 C1505 0.950 . S
H1482 C1506 0.950 . S
H1483 C1507 0.951 1_556 S
H1484 C1509 0.948 1_556 S
H1485 C1511 0.950 . S
H1486 C1512 0.950 . S
H1487 C1514 0.950 . S
H1488 C1517 0.950 . S
H1489 C1518 0.950 . S
H1490 C1520 0.950 . S
H1491 C1521 0.950 . S
C1492 H1474 0.951 1_556 S
C1492 C1493 1.366 . S
C1492 C1494 1.388 . S
C1493 C1492 1.366 . S
C1493 C1497 1.385 . S
C1494 H1475 0.948 1_556 S
C1494 C1492 1.388 . S
C1494 C1495 1.368 . S
C1495 C1494 1.368 . S
C1495 C1496 1.414 . S
C1495 C1498 1.499 . S
C1496 H1476 0.950 . S
C1496 C1495 1.414 . S
C1496 C1497 1.374 . S
C1497 H1477 0.950 . S
C1497 C1493 1.385 . S
C1497 C1496 1.374 . S
C1498 C1495 1.499 . S
C1498 C1499 1.373 1_556 S
C1498 C1500 1.389 . S
C1499 H1478 0.950 . S
C1499 C1498 1.373 1_554 S
C1499 C1515 1.377 . S
C1500 C1498 1.389 . S
C1500 C1501 1.524 . S
C1500 C1514 1.377 . S
C1501 C1500 1.524 . S
C1501 C1502 1.397 . S
C1501 C1506 1.363 . S
C1502 H1479 0.950 . S
C1502 C1501 1.397 . S
C1502 C1503 1.334 . S
C1503 H1480 0.950 . S
C1503 C1502 1.334 . S
C1503 C1504 1.287 . S
C1504 C1503 1.287 . S
C1504 C1505 1.524 . S
C1504 H1523 0.913 . S
C1505 H1481 0.950 . S
C1505 C1504 1.524 . S
C1505 C1506 1.415 . S
C1506 H1482 0.950 . S
C1506 C1501 1.363 . S
C1506 C1505 1.415 . S
C1507 H1483 0.951 1_554 S
C1507 C1508 1.366 . S
C1507 C1509 1.388 . S
C1508 C1507 1.366 . S
C1508 C1512 1.385 . S
C1509 H1484 0.948 1_554 S
C1509 C1507 1.388 . S
C1509 C1510 1.368 . S
C1510 C1509 1.368 . S
C1510 C1511 1.414 . S
C1510 C1513 1.499 . S
C1511 H1485 0.950 . S
C1511 C1510 1.414 . S
C1511 C1512 1.374 . S
C1512 H1486 0.950 . S
C1512 C1508 1.385 . S
C1512 C1511 1.374 . S
C1513 C1510 1.499 . S
C1513 C1514 1.373 1_554 S
C1513 C1515 1.389 . S
C1514 H1487 0.950 . S
C1514 C1500 1.377 . S
C1514 C1513 1.373 1_556 S
C1515 C1499 1.377 . S
C1515 C1513 1.389 . S
C1515 C1516 1.524 . S
C1516 C1515 1.524 . S
C1516 C1517 1.397 . S
C1516 C1521 1.363 . S
C1517 H1488 0.950 . S
C1517 C1516 1.397 . S
C1517 C1518 1.334 . S
C1518 H1489 0.950 . S
C1518 C1517 1.334 . S
C1518 C1519 1.287 . S
C1519 C1518 1.287 . S
C1519 C1520 1.524 . S
C1519 H1522 0.999 . S
C1520 H1490 0.950 . S
C1520 C1519 1.524 . S
C1520 C1521 1.415 . S
C1521 H1491 0.950 . S
C1521 C1516 1.363 . S
C1521 C1520 1.415 . S
H1522 C1519 0.999 . S
H1523 C1504 0.913 . S
H1524 C1542 0.951 . S
H1525 C1544 0.951 . S
H1526 C1546 0.950 . S
H1527 C1547 0.950 . S
H1528 C1549 0.950 . S
H1529 C1552 0.950 . S
H1530 C1553 0.950 . S
H1531 C1555 0.950 . S
H1532 C1556 0.924 1_455 S
H1533 C1557 0.951 . S
H1534 C1559 0.951 . S
H1535 C1561 0.950 . S
H1536 C1562 0.950 . S
H1537 C1564 0.950 . S
H1538 C1567 0.950 . S
H1539 C1568 0.950 . S
H1540 C1570 0.950 . S
H1541 C1571 0.924 1_655 S
C1542 H1524 0.951 . S
C1542 C1543 1.366 . S
C1542 C1544 1.388 . S
C1543 C1542 1.366 . S
C1543 C1547 1.385 . S
C1544 H1525 0.951 . S
C1544 C1542 1.388 . S
C1544 C1545 1.366 . S
C1545 C1544 1.366 . S
C1545 C1546 1.414 . S
C1545 C1548 1.499 . S
C1546 H1526 0.950 . S
C1546 C1545 1.414 . S
C1546 C1547 1.374 . S
C1547 H1527 0.950 . S
C1547 C1543 1.385 . S
C1547 C1546 1.374 . S
C1548 C1545 1.499 . S
C1548 C1549 1.373 1_554 S
C1548 C1550 1.389 . S
C1549 H1528 0.950 . S
C1549 C1548 1.373 1_556 S
C1549 C1565 1.377 1_655 S
C1550 C1548 1.389 . S
C1550 C1551 1.524 . S
C1550 C1564 1.377 1_655 S
C1551 C1550 1.524 . S
C1551 C1552 1.397 . S
C1551 C1556 1.363 . S
C1552 H1529 0.950 . S
C1552 C1551 1.397 . S
C1552 C1553 1.334 . S
C1553 H1530 0.950 . S
C1553 C1552 1.334 . S
C1553 C1554 1.287 . S
C1554 C1553 1.287 . S
C1554 C1555 1.524 . S
C1554 H1573 0.913 . S
C1555 H1531 0.950 . S
C1555 C1554 1.524 . S
C1555 C1556 1.415 . S
C1556 H1532 0.924 1_655 S
C1556 C1551 1.363 . S
C1556 C1555 1.415 . S
C1557 H1533 0.951 . S
C1557 C1558 1.366 . S
C1557 C1559 1.388 . S
C1558 C1557 1.366 . S
C1558 C1562 1.385 . S
C1559 H1534 0.951 . S
C1559 C1557 1.388 . S
C1559 C1560 1.366 . S
C1560 C1559 1.366 . S
C1560 C1561 1.414 . S
C1560 C1563 1.499 . S
C1561 H1535 0.950 . S
C1561 C1560 1.414 . S
C1561 C1562 1.374 . S
C1562 H1536 0.950 . S
C1562 C1558 1.385 . S
C1562 C1561 1.374 . S
C1563 C1560 1.499 . S
C1563 C1564 1.373 1_556 S
C1563 C1565 1.389 . S
C1564 H1537 0.950 . S
C1564 C1550 1.377 1_455 S
C1564 C1563 1.373 1_554 S
C1565 C1549 1.377 1_455 S
C1565 C1563 1.389 . S
C1565 C1566 1.524 . S
C1566 C1565 1.524 . S
C1566 C1567 1.397 . S
C1566 C1571 1.363 . S
C1567 H1538 0.950 . S
C1567 C1566 1.397 . S
C1567 C1568 1.334 . S
C1568 H1539 0.950 . S
C1568 C1567 1.334 . S
C1568 C1569 1.287 . S
C1569 C1568 1.287 . S
C1569 C1570 1.524 . S
C1569 H1572 0.999 . S
C1570 H1540 0.950 . S
C1570 C1569 1.524 . S
C1570 C1571 1.415 . S
C1571 H1541 0.924 1_455 S
C1571 C1566 1.363 . S
C1571 C1570 1.415 . S
H1572 C1569 0.999 . S
H1573 C1554 0.913 . S
H1574 C1592 0.951 . S
H1575 C1594 0.951 . S
H1576 C1596 0.950 1_455 S
H1577 C1597 0.950 . S
H1578 C1599 0.950 . S
H1579 C1602 0.950 1_554 S
H1580 C1603 0.950 . S
H1581 C1605 0.950 . S
H1582 C1606 0.950 1_565 S
H1583 C1607 0.951 . S
H1584 C1609 0.951 . S
H1585 C1611 0.950 1_655 S
H1586 C1612 0.950 . S
H1587 C1614 0.950 . S
H1588 C1617 0.950 1_556 S
H1589 C1618 0.950 . S
H1590 C1620 0.950 . S
H1591 C1621 0.950 1_545 S
C1592 H1574 0.951 . S
C1592 C1593 1.366 . S
C1592 C1594 1.388 . S
C1593 C1592 1.366 . S
C1593 C1597 1.385 1_556 S
C1594 H1575 0.951 . S
C1594 C1592 1.388 . S
C1594 C1595 1.366 . S
C1595 C1594 1.366 . S
C1595 C1596 1.414 1_556 S
C1595 C1598 1.499 . S
C1596 H1576 0.950 1_655 S
C1596 C1595 1.414 1_554 S
C1596 C1597 1.374 . S
C1597 H1577 0.950 . S
C1597 C1593 1.385 1_554 S
C1597 C1596 1.374 . S
C1598 C1595 1.499 . S
C1598 C1599 1.373 1_656 S
C1598 C1600 1.389 . S
C1599 H1578 0.950 . S
C1599 C1598 1.373 1_454 S
C1599 C1615 1.377 1_545 S
C1600 C1598 1.389 . S
C1600 C1601 1.524 . S
C1600 C1614 1.377 1_545 S
C1601 C1600 1.524 . S
C1601 C1602 1.397 . S
C1601 C1606 1.363 . S
C1602 H1579 0.950 1_556 S
C1602 C1601 1.397 . S
C1602 C1603 1.334 . S
C1603 H1580 0.950 . S
C1603 C1602 1.334 . S
C1603 C1604 1.287 . S
C1604 C1603 1.287 . S
C1604 C1605 1.524 . S
C1604 H1623 0.913 . S
C1605 H1581 0.950 . S
C1605 C1604 1.524 . S
C1605 C1606 1.415 . S
C1606 H1582 0.950 1_545 S
C1606 C1601 1.363 . S
C1606 C1605 1.415 . S
C1607 H1583 0.951 . S
C1607 C1608 1.366 . S
C1607 C1609 1.388 . S
C1608 C1607 1.366 . S
C1608 C1612 1.385 1_554 S
C1609 H1584 0.951 . S
C1609 C1607 1.388 . S
C1609 C1610 1.366 . S
C1610 C1609 1.366 . S
C1610 C1611 1.414 1_554 S
C1610 C1613 1.499 . S
C1611 H1585 0.950 1_455 S
C1611 C1610 1.414 1_556 S
C1611 C1612 1.374 . S
C1612 H1586 0.950 . S
C1612 C1608 1.385 1_556 S
C1612 C1611 1.374 . S
C1613 C1610 1.499 . S
C1613 C1614 1.373 1_454 S
C1613 C1615 1.389 . S
C1614 H1587 0.950 . S
C1614 C1600 1.377 1_565 S
C1614 C1613 1.373 1_656 S
C1615 C1599 1.377 1_565 S
C1615 C1613 1.389 . S
C1615 C1616 1.524 . S
C1616 C1615 1.524 . S
C1616 C1617 1.397 . S
C1616 C1621 1.363 . S
C1617 H1588 0.950 1_554 S
C1617 C1616 1.397 . S
C1617 C1618 1.334 . S
C1618 H1589 0.950 . S
C1618 C1617 1.334 . S
C1618 C1619 1.287 . S
C1619 C1618 1.287 . S
C1619 C1620 1.524 . S
C1619 H1622 0.999 . S
C1620 H1590 0.950 . S
C1620 C1619 1.524 . S
C1620 C1621 1.415 . S
C1621 H1591 0.950 1_565 S
C1621 C1616 1.363 . S
C1621 C1620 1.415 . S
H1622 C1619 0.999 . S
H1623 C1604 0.913 . S
H1624 C1642 0.951 . S
H1625 C1644 0.951 . S
H1626 C1646 0.950 . S
H1627 C1647 0.950 . S
H1628 C1649 0.950 . S
H1629 C1652 0.950 . S
H1630 C1653 0.950 . S
H1631 C1655 0.950 . S
H1632 C1656 0.920 1_655 S
H1633 C1657 0.951 . S
H1634 C1659 0.951 . S
H1635 C1661 0.950 . S
H1636 C1662 0.950 . S
H1637 C1664 0.950 . S
H1638 C1667 0.950 . S
H1639 C1668 0.950 . S
H1640 C1670 0.950 . S
H1641 C1671 0.920 1_455 S
C1642 H1624 0.951 . S
C1642 C1643 1.366 . S
C1642 C1644 1.388 . S
C1643 C1642 1.366 . S
C1643 C1647 1.385 1_565 S
C1644 H1625 0.951 . S
C1644 C1642 1.388 . S
C1644 C1645 1.366 . S
C1645 C1644 1.366 . S
C1645 C1646 1.414 1_565 S
C1645 C1648 1.498 1_565 S
C1646 H1626 0.950 . S
C1646 C1645 1.414 1_545 S
C1646 C1647 1.374 . S
C1647 H1627 0.950 . S
C1647 C1643 1.385 1_545 S
C1647 C1646 1.374 . S
C1648 C1645 1.498 1_545 S
C1648 C1649 1.372 1_545 S
C1648 C1650 1.391 . S
C1649 H1628 0.950 . S
C1649 C1648 1.372 1_565 S
C1649 C1665 1.377 1_455 S
C1650 C1648 1.391 . S
C1650 C1651 1.524 . S
C1650 C1664 1.377 1_455 S
C1651 C1650 1.524 . S
C1651 C1652 1.397 . S
C1651 C1656 1.363 . S
C1652 H1629 0.950 . S
C1652 C1651 1.397 . S
C1652 C1653 1.334 . S
C1653 H1630 0.950 . S
C1653 C1652 1.334 . S
C1653 C1654 1.287 . S
C1654 C1653 1.287 . S
C1654 C1655 1.524 . S
C1654 H1673 0.913 . S
C1655 H1631 0.950 . S
C1655 C1654 1.524 . S
C1655 C1656 1.415 . S
C1656 H1632 0.920 1_455 S
C1656 C1651 1.363 . S
C1656 C1655 1.415 . S
C1657 H1633 0.951 . S
C1657 C1658 1.366 . S
C1657 C1659 1.388 . S
C1658 C1657 1.366 . S
C1658 C1662 1.385 1_545 S
C1659 H1634 0.951 . S
C1659 C1657 1.388 . S
C1659 C1660 1.366 . S
C1660 C1659 1.366 . S
C1660 C1661 1.414 1_545 S
C1660 C1663 1.498 1_545 S
C1661 H1635 0.950 . S
C1661 C1660 1.414 1_565 S
C1661 C1662 1.374 . S
C1662 H1636 0.950 . S
C1662 C1658 1.385 1_565 S
C1662 C1661 1.374 . S
C1663 C1660 1.498 1_565 S
C1663 C1664 1.372 1_565 S
C1663 C1665 1.391 . S
C1664 H1637 0.950 . S
C1664 C1650 1.377 1_655 S
C1664 C1663 1.372 1_545 S
C1665 C1649 1.377 1_655 S
C1665 C1663 1.391 . S
C1665 C1666 1.524 . S
C1666 C1665 1.524 . S
C1666 C1667 1.397 . S
C1666 C1671 1.363 . S
C1667 H1638 0.950 . S
C1667 C1666 1.397 . S
C1667 C1668 1.334 . S
C1668 H1639 0.950 . S
C1668 C1667 1.334 . S
C1668 C1669 1.287 . S
C1669 C1668 1.287 . S
C1669 C1670 1.524 . S
C1669 H1672 0.999 . S
C1670 H1640 0.950 . S
C1670 C1669 1.524 . S
C1670 C1671 1.415 . S
C1671 H1641 0.920 1_655 S
C1671 C1666 1.363 . S
C1671 C1670 1.415 . S
H1672 C1669 0.999 . S
H1673 C1654 0.913 . S
H1674 C1692 0.951 . S
H1675 C1694 0.951 . S
H1676 C1696 0.950 . S
H1677 C1697 0.950 . S
H1678 C1699 0.950 . S
H1679 C1702 0.950 . S
H1680 C1703 0.950 . S
H1681 C1705 0.950 . S
H1682 C1706 0.950 . S
H1683 C1707 0.951 . S
H1684 C1709 0.951 . S
H1685 C1711 0.950 . S
H1686 C1712 0.950 . S
H1687 C1714 0.950 . S
H1688 C1717 0.950 . S
H1689 C1718 0.950 . S
H1690 C1720 0.950 . S
H1691 C1721 0.950 . S
C1692 H1674 0.951 . S
C1692 C1693 1.366 . S
C1692 C1694 1.388 . S
C1693 C1692 1.366 . S
C1693 C1697 1.385 . S
C1694 H1675 0.951 . S
C1694 C1692 1.388 . S
C1694 C1695 1.366 . S
C1695 C1694 1.366 . S
C1695 C1696 1.414 . S
C1695 C1698 1.499 . S
C1696 H1676 0.950 . S
C1696 C1695 1.414 . S
C1696 C1697 1.374 . S
C1697 H1677 0.950 . S
C1697 C1693 1.385 . S
C1697 C1696 1.374 . S
C1698 C1695 1.499 . S
C1698 C1699 1.373 . S
C1698 C1700 1.389 . S
C1699 H1678 0.950 . S
C1699 C1698 1.373 . S
C1699 C1715 1.377 1_565 S
C1700 C1698 1.389 . S
C1700 C1701 1.524 . S
C1700 C1714 1.377 1_565 S
C1701 C1700 1.524 . S
C1701 C1702 1.397 . S
C1701 C1706 1.363 . S
C1702 H1679 0.950 . S
C1702 C1701 1.397 . S
C1702 C1703 1.334 . S
C1703 H1680 0.950 . S
C1703 C1702 1.334 . S
C1703 C1704 1.287 . S
C1704 C1703 1.287 . S
C1704 C1705 1.524 . S
C1704 H1723 0.913 . S
C1705 H1681 0.950 . S
C1705 C1704 1.524 . S
C1705 C1706 1.415 . S
C1706 H1682 0.950 . S
C1706 C1701 1.363 . S
C1706 C1705 1.415 . S
C1707 H1683 0.951 . S
C1707 C1708 1.366 . S
C1707 C1709 1.388 . S
C1708 C1707 1.366 . S
C1708 C1712 1.385 . S
C1709 H1684 0.951 . S
C1709 C1707 1.388 . S
C1709 C1710 1.366 . S
C1710 C1709 1.366 . S
C1710 C1711 1.414 . S
C1710 C1713 1.499 . S
C1711 H1685 0.950 . S
C1711 C1710 1.414 . S
C1711 C1712 1.374 . S
C1712 H1686 0.950 . S
C1712 C1708 1.385 . S
C1712 C1711 1.374 . S
C1713 C1710 1.499 . S
C1713 C1714 1.373 . S
C1713 C1715 1.389 . S
C1714 H1687 0.950 . S
C1714 C1700 1.377 1_545 S
C1714 C1713 1.373 . S
C1715 C1699 1.377 1_545 S
C1715 C1713 1.389 . S
C1715 C1716 1.524 . S
C1716 C1715 1.524 . S
C1716 C1717 1.397 . S
C1716 C1721 1.363 . S
C1717 H1688 0.950 . S
C1717 C1716 1.397 . S
C1717 C1718 1.334 . S
C1718 H1689 0.950 . S
C1718 C1717 1.334 . S
C1718 C1719 1.287 . S
C1719 C1718 1.287 . S
C1719 C1720 1.524 . S
C1719 H1722 0.999 . S
C1720 H1690 0.950 . S
C1720 C1719 1.524 . S
C1720 C1721 1.415 . S
C1721 H1691 0.950 . S
C1721 C1716 1.363 . S
C1721 C1720 1.415 . S
H1722 C1719 0.999 . S
H1723 C1704 0.913 . S
H1724 C1742 0.951 . S
H1725 C1744 0.951 . S
H1726 C1746 0.950 . S
H1727 C1747 0.950 . S
H1728 C1749 0.950 . S
H1729 C1752 0.950 . S
H1730 C1753 0.950 . S
H1731 C1755 0.950 . S
H1732 C1756 0.950 . S
H1733 C1757 0.951 . S
H1734 C1759 0.951 . S
H1735 C1761 0.950 . S
H1736 C1762 0.950 . S
H1737 C1764 0.950 . S
H1738 C1767 0.950 . S
H1739 C1768 0.950 . S
H1740 C1770 0.950 . S
H1741 C1771 0.950 . S
C1742 H1724 0.951 . S
C1742 C1743 1.366 . S
C1742 C1744 1.388 . S
C1743 C1742 1.366 . S
C1743 C1747 1.385 . S
C1744 H1725 0.951 . S
C1744 C1742 1.388 . S
C1744 C1745 1.366 . S
C1745 C1744 1.366 . S
C1745 C1746 1.414 . S
C1745 C1748 1.499 . S
C1746 H1726 0.950 . S
C1746 C1745 1.414 . S
C1746 C1747 1.374 . S
C1747 H1727 0.950 . S
C1747 C1743 1.385 . S
C1747 C1746 1.374 . S
C1748 C1745 1.499 . S
C1748 C1749 1.373 . S
C1748 C1750 1.389 . S
C1749 H1728 0.950 . S
C1749 C1748 1.373 . S
C1749 C1765 1.377 . S
C1750 C1748 1.389 . S
C1750 C1751 1.524 . S
C1750 C1764 1.377 . S
C1751 C1750 1.524 . S
C1751 C1752 1.397 . S
C1751 C1756 1.363 . S
C1752 H1729 0.950 . S
C1752 C1751 1.397 . S
C1752 C1753 1.334 . S
C1753 H1730 0.950 . S
C1753 C1752 1.334 . S
C1753 C1754 1.287 . S
C1754 C1753 1.287 . S
C1754 C1755 1.524 . S
C1754 H1773 0.913 . S
C1755 H1731 0.950 . S
C1755 C1754 1.524 . S
C1755 C1756 1.415 . S
C1756 H1732 0.950 . S
C1756 C1751 1.363 . S
C1756 C1755 1.415 . S
C1757 H1733 0.951 . S
C1757 C1758 1.366 . S
C1757 C1759 1.388 . S
C1758 C1757 1.366 . S
C1758 C1762 1.385 . S
C1759 H1734 0.951 . S
C1759 C1757 1.388 . S
C1759 C1760 1.366 . S
C1760 C1759 1.366 . S
C1760 C1761 1.414 . S
C1760 C1763 1.499 . S
C1761 H1735 0.950 . S
C1761 C1760 1.414 . S
C1761 C1762 1.374 . S
C1762 H1736 0.950 . S
C1762 C1758 1.385 . S
C1762 C1761 1.374 . S
C1763 C1760 1.499 . S
C1763 C1764 1.373 . S
C1763 C1765 1.389 . S
C1764 H1737 0.950 . S
C1764 C1750 1.377 . S
C1764 C1763 1.373 . S
C1765 C1749 1.377 . S
C1765 C1763 1.389 . S
C1765 C1766 1.524 . S
C1766 C1765 1.524 . S
C1766 C1767 1.397 . S
C1766 C1771 1.363 . S
C1767 H1738 0.950 . S
C1767 C1766 1.397 . S
C1767 C1768 1.334 . S
C1768 H1739 0.950 . S
C1768 C1767 1.334 . S
C1768 C1769 1.287 . S
C1769 C1768 1.287 . S
C1769 C1770 1.524 . S
C1769 H1772 0.999 . S
C1770 H1740 0.950 . S
C1770 C1769 1.524 . S
C1770 C1771 1.415 . S
C1771 H1741 0.950 . S
C1771 C1766 1.363 . S
C1771 C1770 1.415 . S
H1772 C1769 0.999 . S
H1773 C1754 0.913 . S
H1774 C1792 0.951 . S
H1775 C1794 0.951 . S
H1776 C1796 0.950 . S
H1777 C1797 0.950 . S
H1778 C1799 0.950 . S
H1779 C1802 0.950 . S
H1780 C1803 0.950 . S
H1781 C1805 0.950 . S
H1782 C1806 0.950 . S
H1783 C1807 0.951 . S
H1784 C1809 0.951 . S
H1785 C1811 0.950 . S
H1786 C1812 0.950 . S
H1787 C1814 0.950 . S
H1788 C1817 0.950 . S
H1789 C1818 0.950 . S
H1790 C1820 0.950 . S
H1791 C1821 0.950 . S
C1792 H1774 0.951 . S
C1792 C1793 1.366 1_655 S
C1792 C1794 1.388 . S
C1793 C1792 1.366 1_455 S
C1793 C1797 1.385 . S
C1794 H1775 0.951 . S
C1794 C1792 1.388 . S
C1794 C1795 1.366 1_655 S
C1795 C1794 1.366 1_455 S
C1795 C1796 1.414 . S
C1795 C1798 1.499 . S
C1796 H1776 0.950 . S
C1796 C1795 1.414 . S
C1796 C1797 1.374 . S
C1797 H1777 0.950 . S
C1797 C1793 1.385 . S
C1797 C1796 1.374 . S
C1798 C1795 1.499 . S
C1798 C1799 1.373 . S
C1798 C1800 1.389 1_455 S
C1799 H1778 0.950 . S
C1799 C1798 1.373 . S
C1799 C1815 1.377 . S
C1800 C1798 1.389 1_655 S
C1800 C1801 1.524 . S
C1800 C1814 1.377 . S
C1801 C1800 1.524 . S
C1801 C1802 1.397 . S
C1801 C1806 1.363 . S
C1802 H1779 0.950 . S
C1802 C1801 1.397 . S
C1802 C1803 1.334 . S
C1803 H1780 0.950 . S
C1803 C1802 1.334 . S
C1803 C1804 1.287 . S
C1804 C1803 1.287 . S
C1804 C1805 1.524 . S
C1804 H1823 0.913 . S
C1805 H1781 0.950 . S
C1805 C1804 1.524 . S
C1805 C1806 1.415 . S
C1806 H1782 0.950 . S
C1806 C1801 1.363 . S
C1806 C1805 1.415 . S
C1807 H1783 0.951 . S
C1807 C1808 1.366 1_455 S
C1807 C1809 1.388 . S
C1808 C1807 1.366 1_655 S
C1808 C1812 1.385 . S
C1809 H1784 0.951 . S
C1809 C1807 1.388 . S
C1809 C1810 1.366 1_455 S
C1810 C1809 1.366 1_655 S
C1810 C1811 1.414 . S
C1810 C1813 1.499 . S
C1811 H1785 0.950 . S
C1811 C1810 1.414 . S
C1811 C1812 1.374 . S
C1812 H1786 0.950 . S
C1812 C1808 1.385 . S
C1812 C1811 1.374 . S
C1813 C1810 1.499 . S
C1813 C1814 1.373 . S
C1813 C1815 1.389 1_655 S
C1814 H1787 0.950 . S
C1814 C1800 1.377 . S
C1814 C1813 1.373 . S
C1815 C1799 1.377 . S
C1815 C1813 1.389 1_455 S
C1815 C1816 1.524 . S
C1816 C1815 1.524 . S
C1816 C1817 1.397 . S
C1816 C1821 1.363 . S
C1817 H1788 0.950 . S
C1817 C1816 1.397 . S
C1817 C1818 1.334 . S
C1818 H1789 0.950 . S
C1818 C1817 1.334 . S
C1818 C1819 1.287 . S
C1819 C1818 1.287 . S
C1819 C1820 1.524 . S
C1819 H1822 0.999 . S
C1820 H1790 0.950 . S
C1820 C1819 1.524 . S
C1820 C1821 1.415 . S
C1821 H1791 0.950 . S
C1821 C1816 1.363 . S
C1821 C1820 1.415 . S
H1822 C1819 0.999 . S
H1823 C1804 0.913 . S
C243 C79 0.404 . S
C258 C9 0.401 . S
C293 C93 0.400 . S
C308 C23 0.404 . S
C343 C37 0.400 . S
C358 C107 0.404 . S
C393 C51 0.401 . S
C408 C65 0.404 . S
C443 C121 0.404 . S
C458 C191 0.400 . S
C493 C205 0.404 . S
C508 C135 0.400 . S
C543 C219 0.404 . S
C558 C149 0.401 . S
C593 C163 0.403 . S
C608 C177 0.403 . S
C643 C6 1.595 . S
C658 C176 1.558 . S
C693 C190 1.557 . S
C708 C20 1.595 . S
C743 C34 1.596 . S
C758 C204 1.557 . S
C793 C48 1.595 . S
C808 C218 1.558 . S
C843 C62 1.596 . S
C858 C120 1.557 . S
C893 C76 1.596 . S
C908 C134 1.557 . S
C943 C90 1.595 . S
C958 C148 1.557 . S
C993 C104 1.595 . S
C1008 C162 1.557 . S
C1043 C64 1.558 . S
C1058 C118 1.595 . S
C1093 C78 1.557 . S
C1108 C132 1.595 . S
C1143 C92 1.557 . S
C1158 C146 1.596 . S
C1193 C160 1.595 . S
C1208 C106 1.557 . S
C1243 C8 1.558 . S
C1258 C174 1.595 . S
C1293 C188 1.595 . S
C1308 C22 1.558 . S
C1343 C202 1.595 . S
C1358 C36 1.558 . S
C1393 C50 1.557 . S
C1408 C216 1.595 . S
C1443 C119 1.480 . S
C1458 C7 1.480 . S
C1493 C133 1.480 . S
C1508 C21 1.480 . S
C1543 C35 1.480 . S
C1558 C147 1.480 . S
C1593 C161 1.480 . S
C1608 C49 1.480 . S
C1643 C63 1.480 . S
C1658 C175 1.480 . S
C1693 C189 1.479 . S
C1708 C77 1.479 . S
C1743 C203 1.479 . S
C1758 C91 1.479 . S
C1793 C217 1.480 . S
C1808 C105 1.480 . S
