# Generated by pormake.
# Topology uof, (4)-cn, num edge types: 1
# Building blocks:
#     Node 0, Type 0, BuildingBlock: KUFVIS_clean_sbu_0, # of connection points: 4
#     Node 1, Type 0, BuildingBlock: KUFVIS_clean_sbu_0, # of connection points: 4
#     Node 2, Type 0, BuildingBlock: KUFVIS_clean_sbu_0, # of connection points: 4
#     Node 3, Type 0, BuildingBlock: KUFVIS_clean_sbu_0, # of connection points: 4
#     Node 4, Type 0, BuildingBlock: KUFVIS_clean_sbu_0, # of connection points: 4
#     Node 5, Type 0, BuildingBlock: KUFVIS_clean_sbu_0, # of connection points: 4
#     Node 6, Type 0, BuildingBlock: KUFVIS_clean_sbu_0, # of connection points: 4
#     Node 7, Type 0, BuildingBlock: KUFVIS_clean_sbu_0, # of connection points: 4
#     Node 8, Type 0, BuildingBlock: KUFVIS_clean_sbu_0, # of connection points: 4
#     Node 9, Type 0, BuildingBlock: KUFVIS_clean_sbu_0, # of connection points: 4
#     Node 10, Type 0, BuildingBlock: KUFVIS_clean_sbu_0, # of connection points: 4
#     Node 11, Type 0, BuildingBlock: KUFVIS_clean_sbu_0, # of connection points: 4
#     Edge 12, Type (0, 0), BuildingBlock: ZUJKAS_clean_linker_0, # of connection points: 2
#     Edge 13, Type (0, 0), BuildingBlock: ZUJKAS_clean_linker_0, # of connection points: 2
#     Edge 14, Type (0, 0), BuildingBlock: ZUJKAS_clean_linker_0, # of connection points: 2
#     Edge 15, Type (0, 0), BuildingBlock: ZUJKAS_clean_linker_0, # of connection points: 2
#     Edge 16, Type (0, 0), BuildingBlock: ZUJKAS_clean_linker_0, # of connection points: 2
#     Edge 17, Type (0, 0), BuildingBlock: ZUJKAS_clean_linker_0, # of connection points: 2
#     Edge 18, Type (0, 0), BuildingBlock: ZUJKAS_clean_linker_0, # of connection points: 2
#     Edge 19, Type (0, 0), BuildingBlock: ZUJKAS_clean_linker_0, # of connection points: 2
#     Edge 20, Type (0, 0), BuildingBlock: ZUJKAS_clean_linker_0, # of connection points: 2
#     Edge 21, Type (0, 0), BuildingBlock: ZUJKAS_clean_linker_0, # of connection points: 2
#     Edge 22, Type (0, 0), BuildingBlock: ZUJKAS_clean_linker_0, # of connection points: 2
#     Edge 23, Type (0, 0), BuildingBlock: ZUJKAS_clean_linker_0, # of connection points: 2
#     Edge 24, Type (0, 0), BuildingBlock: ZUJKAS_clean_linker_0, # of connection points: 2
#     Edge 25, Type (0, 0), BuildingBlock: ZUJKAS_clean_linker_0, # of connection points: 2
#     Edge 26, Type (0, 0), BuildingBlock: ZUJKAS_clean_linker_0, # of connection points: 2
#     Edge 27, Type (0, 0), BuildingBlock: ZUJKAS_clean_linker_0, # of connection points: 2
#     Edge 28, Type (0, 0), BuildingBlock: ZUJKAS_clean_linker_0, # of connection points: 2
#     Edge 29, Type (0, 0), BuildingBlock: ZUJKAS_clean_linker_0, # of connection points: 2
#     Edge 30, Type (0, 0), BuildingBlock: ZUJKAS_clean_linker_0, # of connection points: 2
#     Edge 31, Type (0, 0), BuildingBlock: ZUJKAS_clean_linker_0, # of connection points: 2
#     Edge 32, Type (0, 0), BuildingBlock: ZUJKAS_clean_linker_0, # of connection points: 2
#     Edge 33, Type (0, 0), BuildingBlock: ZUJKAS_clean_linker_0, # of connection points: 2
#     Edge 34, Type (0, 0), BuildingBlock: ZUJKAS_clean_linker_0, # of connection points: 2
#     Edge 35, Type (0, 0), BuildingBlock: ZUJKAS_clean_linker_0, # of connection points: 2
# Relax obj value: 0.186
# Max RMSD: 0.140
# Mean RMSD: 0.140
data_MOF--net-uof--node1-KUFVIS_clean_sbu_0--edge1-ZUJKAS_clean_linker_0
_symmetry_space_group_name_H-M    P1
_symmetry_Int_Tables_number       1
_symmetry_cell_setting            triclinic
loop_
_symmetry_equiv_pos_as_xyz
'x, y, z'
_cell_length_a     41.913957
_cell_length_b     41.943116
_cell_length_c     80.730717
_cell_angle_alpha  90.012963
_cell_angle_beta   90.003015
_cell_angle_gamma 120.03096
loop_
_atom_site_label
_atom_site_type_symbol
_atom_site_fract_x
_atom_site_fract_y
_atom_site_fract_z
_atom_type_partial_charge
Mn0 Mn 0.23348 0.317 0.21981 0.0
Mn1 Mn 0.28698 0.28462 0.23531 0.0
C2 C 0.24989 0.28188 0.20369 0.0
C3 C 0.17408 0.30694 0.21367 0.0
C4 C 0.31696 0.36421 0.22513 0.0
O5 O 0.22926 0.32179 0.24503 0.0
O6 O 0.26288 0.29601 0.25338 0.0
C7 C 0.22921 0.21444 0.24981 0.0
N8 N 0.25815 0.23287 0.23927 0.0
C9 C 0.25703 0.17684 0.23167 0.0
C10 C 0.22717 0.15724 0.24243 0.0
C11 C 0.21316 0.17612 0.2515 0.0
C12 C 0.27178 0.21497 0.23045 0.0
H13 H 0.21853 0.22889 0.25689 0.0
C14 C 0.24276 0.31033 0.25625 0.0
O15 O 0.20258 0.34 0.21398 0.0
O16 O 0.17982 0.28061 0.2181 0.0
N17 N 0.31176 0.27217 0.21886 0.0
C18 C 0.33974 0.29497 0.20858 0.0
C19 C 0.35665 0.28038 0.19852 0.0
C20 C 0.34493 0.24263 0.19927 0.0
C21 C 0.31608 0.21971 0.20995 0.0
C22 C 0.30033 0.23582 0.21971 0.0
H23 H 0.34919 0.32409 0.20812 0.0
O24 O 0.24 0.30342 0.19673 0.0
O25 O 0.25025 0.28186 0.2197 0.0
O26 O 0.28693 0.36139 0.21968 0.0
O27 O 0.3192 0.33754 0.23146 0.0
C28 C 0.30224 0.18149 0.21127 0.0
C29 C 0.27256 0.16003 0.22203 0.0
H30 H 0.21474 0.12769 0.24378 0.0
H31 H 0.19014 0.1612 0.25984 0.0
H32 H 0.37886 0.29823 0.19029 0.0
H33 H 0.35824 0.23157 0.19157 0.0
H34 H 0.31398 0.16825 0.20395 0.0
H35 H 0.26183 0.13061 0.22274 0.0
Mn36 Mn 0.92603 0.23463 0.55223 0.0
Mn37 Mn 0.00836 0.29304 0.56999 0.0
C38 C 0.98066 0.25589 0.53762 0.0
C39 C 0.88026 0.17415 0.54498 0.0
C40 C 0.95458 0.31669 0.55839 0.0
O41 O 0.91397 0.22808 0.57723 0.0
O42 O 0.97172 0.26499 0.58713 0.0
C43 C 0.02682 0.23966 0.58477 0.0
N44 N 0.03562 0.26872 0.57454 0.0
C45 C 0.09472 0.27513 0.56835 0.0
C46 C 0.08627 0.24522 0.5788 0.0
C47 C 0.05213 0.22736 0.58701 0.0
C48 C 0.06835 0.28604 0.56655 0.0
H49 H 1.00071 0.22603 0.59117 0.0
C50 C 0.93737 0.24226 0.5891 0.0
O51 O 0.87337 0.20112 0.54516 0.0
O52 O 0.91264 0.18188 0.55009 0.0
N53 N 0.04643 0.32169 0.55441 0.0
C54 C 0.04954 0.34897 0.5442 0.0
C55 C 0.08208 0.36968 0.53511 0.0
C56 C 0.11111 0.36228 0.53668 0.0
C57 C 0.10706 0.33369 0.54708 0.0
C58 C 0.07414 0.31423 0.55596 0.0
H59 H 0.02755 0.35518 0.54315 0.0
O60 O 0.94978 0.24413 0.52976 0.0
O61 O 0.97864 0.25561 0.55361 0.0
O62 O 0.9303 0.28606 0.55207 0.0
O63 O 0.98345 0.32124 0.56574 0.0
C64 C 0.13433 0.32367 0.54895 0.0
C65 C 0.12806 0.29424 0.55949 0.0
H66 H 0.10571 0.23564 0.58056 0.0
H67 H 0.0454 0.20426 0.5951 0.0
H68 H 0.08492 0.39153 0.52702 0.0
H69 H 0.13629 0.37854 0.52973 0.0
H70 H 0.16007 0.33815 0.54221 0.0
H71 H 0.149 0.28645 0.56063 0.0
Mn72 Mn 0.6946 0.91854 0.88601 0.0
Mn73 Mn 0.72604 1.00417 0.90161 0.0
C74 C 0.72982 0.97035 0.87005 0.0
C75 C 0.70578 0.86987 0.87994 0.0
C76 C 0.64662 0.95404 0.89114 0.0
O77 O 0.68936 0.90931 0.91122 0.0
O78 O 0.71458 0.96862 0.91965 0.0
C79 C 0.79623 0.01694 0.91627 0.0
N80 N 0.77779 0.02744 0.90575 0.0
C81 C 0.83379 0.08261 0.89831 0.0
C82 C 0.8534 0.07241 0.90908 0.0
C83 C 0.83454 0.03936 0.91805 0.0
C84 C 0.79568 0.05906 0.89698 0.0
H85 H 0.7818 0.99167 0.92325 0.0
C86 C 0.70048 0.93418 0.92248 0.0
O87 O 0.67248 0.86472 0.88005 0.0
O88 O 0.73163 0.90207 0.88452 0.0
N89 N 0.73857 0.04143 0.88517 0.0
C90 C 0.71585 0.04632 0.87471 0.0
C91 C 0.7305 0.07776 0.86461 0.0
C92 C 0.7682 0.10402 0.86551 0.0
C93 C 0.79102 0.09842 0.87639 0.0
C94 C 0.77487 0.06657 0.88614 0.0
H95 H 0.68677 0.02645 0.87413 0.0
O96 O 0.70861 0.93895 0.86299 0.0
O97 O 0.72934 0.97051 0.88605 0.0
O98 O 0.64979 0.92702 0.8857 0.0
O99 O 0.67307 0.98304 0.89755 0.0
C100 C 0.82918 0.12308 0.87788 0.0
C101 C 0.8506 0.11503 0.88873 0.0
H102 H 0.88295 0.08965 0.91051 0.0
H103 H 0.84948 0.03127 0.92637 0.0
H104 H 0.71273 0.08187 0.85622 0.0
H105 H 0.77933 0.12832 0.85774 0.0
H106 H 0.84243 0.14813 0.87061 0.0
H107 H 0.88001 0.13388 0.88954 0.0
Mn108 Mn 0.7755 0.69225 0.21894 0.0
Mn109 Mn 0.71701 0.71544 0.2371 0.0
C110 C 0.75443 0.72617 0.2047 0.0
C111 C 0.83614 0.70744 0.21178 0.0
C112 C 0.69338 0.63847 0.22481 0.0
O113 O 0.78161 0.68547 0.24384 0.0
O114 O 0.74494 0.70621 0.25408 0.0
C115 C 0.77044 0.78675 0.25234 0.0
N116 N 0.74138 0.76686 0.24204 0.0
C117 C 0.73515 0.81979 0.23632 0.0
C118 C 0.76506 0.84088 0.24685 0.0
C119 C 0.78283 0.8243 0.25486 0.0
C120 C 0.72413 0.78255 0.23424 0.0
H121 H 0.78402 0.77405 0.25858 0.0
C122 C 0.76747 0.69432 0.25585 0.0
O123 O 0.80918 0.67354 0.21161 0.0
O124 O 0.82827 0.73178 0.21716 0.0
N125 N 0.68846 0.72541 0.22171 0.0
C126 C 0.66119 0.7016 0.21138 0.0
C127 C 0.64055 0.71375 0.20245 0.0
C128 C 0.64802 0.75013 0.20432 0.0
C129 C 0.6766 0.77431 0.21484 0.0
C130 C 0.69596 0.76052 0.22354 0.0
H131 H 0.65493 0.67343 0.2101 0.0
O132 O 0.76635 0.70746 0.19664 0.0
O133 O 0.75455 0.72381 0.22068 0.0
O134 O 0.72403 0.64509 0.21841 0.0
O135 O 0.68882 0.66248 0.23245 0.0
C136 C 0.6867 0.81154 0.21699 0.0
C137 C 0.71613 0.83433 0.22763 0.0
H138 H 0.77471 0.86985 0.24882 0.0
H139 H 0.80595 0.84041 0.263 0.0
H140 H 0.61871 0.69502 0.19427 0.0
H141 H 0.63181 0.75929 0.1975 0.0
H142 H 0.67231 0.82305 0.21038 0.0
H143 H 0.72399 0.86304 0.22899 0.0
Mn144 Mn 0.09059 0.7759 0.55025 0.0
Mn145 Mn 1.00211 0.72138 0.5621 0.0
C146 C 0.04225 0.76135 0.53208 0.0
C147 C 0.14052 0.83601 0.54597 0.0
C148 C 0.05451 0.69274 0.5552 0.0
O149 O 0.09395 0.77751 0.5758 0.0
O150 O 0.03275 0.74571 0.58165 0.0
C151 C 0.98396 0.77714 0.57407 0.0
N152 N 0.97719 0.74892 0.56365 0.0
C153 C 0.9228 0.74725 0.55296 0.0
C154 C 0.92913 0.77628 0.56359 0.0
C155 C 0.96002 0.79149 0.57409 0.0
C156 C 0.94803 0.73465 0.55323 0.0
H157 H 0.00731 0.78842 0.58237 0.0
C158 C 0.06662 0.76482 0.58592 0.0
O159 O 0.14544 0.80777 0.54657 0.0
O160 O 0.10761 0.82955 0.54921 0.0
N161 N 0.96983 0.6966 0.54389 0.0
C162 C 0.96839 0.6696 0.53399 0.0
C163 C 0.93998 0.65255 0.52227 0.0
C164 C 0.91301 0.66298 0.52104 0.0
C165 C 0.91484 0.69054 0.5315 0.0
C166 C 0.94409 0.70691 0.54278 0.0
H167 H 0.98869 0.66105 0.53504 0.0
O168 O 0.07492 0.77178 0.52639 0.0
O169 O 0.03912 0.75898 0.54798 0.0
O170 O 0.08198 0.72272 0.54991 0.0
O171 O 0.02476 0.69028 0.56059 0.0
C172 C 0.8887 0.70228 0.53124 0.0
C173 C 0.89242 0.73027 0.54211 0.0
H174 H 0.91053 0.78718 0.56375 0.0
H175 H 0.96512 0.81393 0.58232 0.0
H176 H 0.93869 0.6312 0.51428 0.0
H177 H 0.89101 0.64961 0.51206 0.0
H178 H 0.86563 0.68999 0.52273 0.0
H179 H 0.87207 0.73897 0.54184 0.0
Mn180 Mn 0.31972 0.08756 0.88591 0.0
Mn181 Mn 0.29071 1.00269 0.90193 0.0
C182 C 0.28489 0.03504 0.87032 0.0
C183 C 0.30745 0.13536 0.87952 0.0
C184 C 0.36935 0.05372 0.89084 0.0
O185 O 0.32506 0.09754 0.91104 0.0
O186 O 0.3026 0.03878 0.91979 0.0
C187 C 0.22105 0.98893 0.91757 0.0
N188 N 0.23917 0.9788 0.90667 0.0
C189 C 0.18317 0.92313 0.89972 0.0
C190 C 0.16389 0.933 0.91085 0.0
C191 C 0.18292 0.96608 0.9198 0.0
C192 C 0.22113 0.94704 0.89801 0.0
H193 H 0.23559 0.01419 0.92455 0.0
C194 C 0.31554 0.07314 0.92245 0.0
O195 O 0.34095 0.14105 0.87963 0.0
O196 O 0.28198 0.10311 0.88429 0.0
N197 N 0.27782 0.96503 0.88564 0.0
C198 C 0.30021 0.96031 0.87491 0.0
C199 C 0.28535 0.92881 0.86483 0.0
C200 C 0.24775 0.90234 0.86602 0.0
C201 C 0.22527 0.90776 0.87719 0.0
C202 C 0.24163 0.93967 0.88691 0.0
H203 H 0.3292 0.9804 0.87407 0.0
O204 O 0.30556 0.06629 0.86304 0.0
O205 O 0.28579 0.03538 0.88633 0.0
O206 O 0.3653 0.08032 0.88558 0.0
O207 O 0.3435 0.02441 0.8973 0.0
C208 C 0.18723 0.88288 0.87898 0.0
C209 C 0.16616 0.89067 0.89016 0.0
H210 H 0.13448 0.91545 0.9126 0.0
H211 H 0.16827 0.97387 0.92843 0.0
H212 H 0.30285 0.92485 0.85622 0.0
H213 H 0.23644 0.87804 0.85825 0.0
H214 H 0.17382 0.85783 0.87171 0.0
H215 H 0.13685 0.87158 0.89124 0.0
Mn216 Mn 0.69575 0.77369 0.44899 0.0
Mn217 Mn 0.72473 0.7164 0.43505 0.0
C218 C 0.73169 0.75842 0.46532 0.0
C219 C 0.70828 0.83439 0.45397 0.0
C220 C 0.64577 0.69025 0.44518 0.0
O221 O 0.69016 0.7752 0.42363 0.0
O222 O 0.71472 0.73976 0.41619 0.0
C223 C 0.79602 0.77004 0.41987 0.0
N224 N 0.77664 0.74293 0.43112 0.0
C225 C 0.83107 0.74153 0.43939 0.0
C226 C 0.85165 0.76941 0.42788 0.0
C227 C 0.83408 0.7839 0.41816 0.0
C228 C 0.7934 0.72928 0.44075 0.0
H229 H 0.78249 0.78081 0.4122 0.0
C230 C 0.7011 0.76032 0.41279 0.0
O231 O 0.67475 0.80666 0.45421 0.0
O232 O 0.73358 0.82711 0.4495 0.0
N233 N 0.73567 0.69268 0.45259 0.0
C234 C 0.71218 0.66701 0.46359 0.0
C235 C 0.72573 0.65093 0.47475 0.0
C236 C 0.76313 0.66101 0.47432 0.0
C237 C 0.78669 0.68727 0.46278 0.0
C238 C 0.77171 0.70268 0.45212 0.0
H239 H 0.68332 0.65883 0.46384 0.0
O240 O 0.71099 0.76949 0.47219 0.0
O241 O 0.72944 0.75548 0.44942 0.0
O242 O 0.65015 0.72111 0.45029 0.0
O243 O 0.67149 0.6863 0.43893 0.0
C244 C 0.82441 0.69865 0.46142 0.0
C245 C 0.84646 0.7254 0.44957 0.0
H246 H 0.88095 0.77998 0.42644 0.0
H247 H 0.84977 0.80545 0.40926 0.0
H248 H 0.70735 0.63063 0.48358 0.0
H249 H 0.77345 0.64842 0.48288 0.0
H250 H 0.83676 0.68706 0.46942 0.0
H251 H 0.87542 0.73388 0.44862 0.0
Mn252 Mn 0.92406 0.69013 0.7812 0.0
Mn253 Mn 0.00704 0.7174 0.76341 0.0
C254 C 0.97823 0.7241 0.79606 0.0
C255 C 0.87709 0.70308 0.78845 0.0
C256 C 0.95491 0.6389 0.77438 0.0
O257 O 0.91216 0.6847 0.75619 0.0
O258 O 0.97033 0.70882 0.74629 0.0
C259 C 0.02367 0.78959 0.74971 0.0
N260 N 0.03321 0.76926 0.75951 0.0
C261 C 0.09161 0.82249 0.76613 0.0
C262 C 0.08241 0.84403 0.75613 0.0
C263 C 0.04825 0.82752 0.74792 0.0
C264 C 0.06594 0.78488 0.7675 0.0
H265 H 0.99753 0.77693 0.74332 0.0
C266 C 0.93572 0.69563 0.74434 0.0
O267 O 0.87108 0.66951 0.78817 0.0
O268 O 0.90927 0.72839 0.78348 0.0
N269 N 0.04528 0.72684 0.7789 0.0
C270 C 0.0492 0.70244 0.7886 0.0
C271 C 0.08199 0.71439 0.79752 0.0
C272 C 0.11042 0.75118 0.7963 0.0
C273 C 0.1055 0.77596 0.78646 0.0
C274 C 0.07243 0.76234 0.77768 0.0
H275 H 0.02772 0.67396 0.78936 0.0
O276 O 0.94731 0.70416 0.80376 0.0
O277 O 0.97651 0.72309 0.78005 0.0
O278 O 0.93012 0.644 0.78107 0.0
O279 O 0.98322 0.6641 0.76702 0.0
C280 C 0.13206 0.8136 0.78504 0.0
C281 C 0.12501 0.83691 0.77497 0.0
H282 H 0.10128 0.8733 0.75471 0.0
H283 H 0.04094 0.84398 0.74019 0.0
H284 H 0.08549 0.69519 0.80519 0.0
H285 H 0.13581 0.76018 0.80309 0.0
H286 H 0.15784 0.82499 0.79176 0.0
H287 H 0.14542 0.86589 0.77416 0.0
Mn288 Mn 0.23787 0.92441 0.11402 0.0
Mn289 Mn 0.29663 0.00661 0.09632 0.0
C290 C 0.25926 0.97899 0.12865 0.0
C291 C 0.17722 0.87893 0.12115 0.0
C292 C 0.31997 0.95267 0.10801 0.0
O293 O 0.2314 0.91231 0.08904 0.0
O294 O 0.26863 0.96995 0.07916 0.0
C295 C 0.24354 0.02521 0.0813 0.0
N296 N 0.27241 0.03392 0.09166 0.0
C297 C 0.27869 0.09292 0.09786 0.0
C298 C 0.24895 0.08455 0.08729 0.0
C299 C 0.23126 0.05051 0.079 0.0
C300 C 0.28962 0.06658 0.09969 0.0
H301 H 0.23004 0.99919 0.07484 0.0
C302 C 0.24577 0.93565 0.07718 0.0
O303 O 0.20408 0.87185 0.12107 0.0
O304 O 0.18518 0.91134 0.11604 0.0
N305 N 0.32517 0.04465 0.11193 0.0
C306 C 0.35229 0.04769 0.12224 0.0
C307 C 0.37284 0.08014 0.13142 0.0
C308 C 0.36542 0.10914 0.12982 0.0
C309 C 0.33698 0.10515 0.11932 0.0
C310 C 0.3177 0.07233 0.11036 0.0
H311 H 0.35848 0.0257 0.12333 0.0
O312 O 0.24734 0.9481 0.13649 0.0
O313 O 0.25903 0.97703 0.11266 0.0
O314 O 0.28922 0.92842 0.11425 0.0
O315 O 0.32472 0.98162 0.10069 0.0
C316 C 0.32691 0.13237 0.11744 0.0
C317 C 0.29763 0.12616 0.1068 0.0
H318 H 0.23937 0.10398 0.08549 0.0
H319 H 0.2083 0.04386 0.07082 0.0
H320 H 0.39456 0.08293 0.13959 0.0
H321 H 0.38157 0.13425 0.13683 0.0
H322 H 0.34124 0.15802 0.12425 0.0
H323 H 0.28982 0.14707 0.10563 0.0
Mn324 Mn 0.32014 0.23032 0.44796 0.0
Mn325 Mn 0.28761 0.28363 0.43243 0.0
C326 C 0.28515 0.24691 0.4641 0.0
C327 C 0.30993 0.17089 0.45417 0.0
C328 C 0.36743 0.31369 0.44242 0.0
O329 O 0.32476 0.22594 0.42273 0.0
O330 O 0.29851 0.25913 0.41438 0.0
C331 C 0.21696 0.22555 0.41839 0.0
N332 N 0.23573 0.25487 0.42869 0.0
C333 C 0.17994 0.25419 0.4364 0.0
C334 C 0.16 0.22401 0.42586 0.0
C335 C 0.17859 0.20955 0.41686 0.0
C336 C 0.2181 0.26884 0.43749 0.0
H337 H 0.23119 0.21452 0.41139 0.0
C338 C 0.31289 0.23906 0.41151 0.0
O339 O 0.34305 0.19932 0.45383 0.0
O340 O 0.28363 0.17669 0.44973 0.0
N341 N 0.27559 0.30878 0.44886 0.0
C342 C 0.29865 0.33683 0.45906 0.0
C343 C 0.28434 0.35401 0.46912 0.0
C344 C 0.24661 0.34251 0.46844 0.0
C345 C 0.22342 0.31361 0.45783 0.0
C346 C 0.23925 0.29755 0.4481 0.0
H347 H 0.32776 0.34612 0.45946 0.0
O348 O 0.30669 0.23701 0.47106 0.0
O349 O 0.28508 0.24716 0.44809 0.0
O350 O 0.3646 0.28376 0.44801 0.0
O351 O 0.34071 0.31581 0.43606 0.0
C352 C 0.1852 0.29999 0.45659 0.0
C353 C 0.16343 0.27011 0.44599 0.0
H354 H 0.1304 0.21162 0.42463 0.0
H355 H 0.16339 0.18622 0.40872 0.0
H356 H 0.3024 0.37626 0.47728 0.0
H357 H 0.23575 0.35601 0.47615 0.0
H358 H 0.17219 0.31204 0.46386 0.0
H359 H 0.13399 0.25949 0.44536 0.0
Mn360 Mn 0.08893 0.3144 0.78022 0.0
Mn361 Mn 1.00547 0.28846 0.76322 0.0
C362 C 0.0352 0.28126 0.79548 0.0
C363 C 0.13551 0.3007 0.78717 0.0
C364 C 0.05912 0.36673 0.7739 0.0
O365 O 0.09974 0.31904 0.75509 0.0
O366 O 0.04129 0.29637 0.74578 0.0
C367 C 0.98709 0.2159 0.7493 0.0
N368 N 0.97845 0.23659 0.75933 0.0
C369 C 0.91989 0.18396 0.7663 0.0
C370 C 0.92818 0.16205 0.75606 0.0
C371 C 0.96197 0.17808 0.74757 0.0
C372 C 0.94609 0.22143 0.76761 0.0
H373 H 0.01293 0.22818 0.74269 0.0
C374 C 0.07564 0.30858 0.74347 0.0
O375 O 0.14203 0.33443 0.78679 0.0
O376 O 0.10301 0.27559 0.78242 0.0
N377 N 0.96809 0.27963 0.77909 0.0
C378 C 0.96512 0.3043 0.78901 0.0
C379 C 0.93285 0.29282 0.79827 0.0
C380 C 0.90395 0.25621 0.79716 0.0
C381 C 0.90789 0.23116 0.78707 0.0
C382 C 0.94051 0.2443 0.77799 0.0
H383 H 0.98697 0.33264 0.78969 0.0
O384 O 0.06646 0.30099 0.80296 0.0
O385 O 0.03634 0.28217 0.77946 0.0
O386 O 0.08391 0.36111 0.78018 0.0
O387 O 0.03014 0.34181 0.76683 0.0
C388 C 0.88079 0.19367 0.7857 0.0
C389 C 0.88691 0.17003 0.77542 0.0
H390 H 0.90888 0.13287 0.75469 0.0
H391 H 0.96857 0.16134 0.73966 0.0
H392 H 0.9301 0.31223 0.80612 0.0
H393 H 0.87898 0.24757 0.80423 0.0
H394 H 0.85532 0.18265 0.79263 0.0
H395 H 0.86611 0.14116 0.77466 0.0
Mn396 Mn 0.78004 0.09052 0.11465 0.0
Mn397 Mn 0.72594 1.00443 0.09945 0.0
C398 C 0.76339 0.03919 0.13095 0.0
C399 C 0.83962 0.1397 0.12067 0.0
C400 C 0.69654 0.05461 0.10945 0.0
O401 O 0.78419 0.0991 0.08942 0.0
O402 O 0.74994 0.0396 0.08126 0.0
C403 C 0.78334 0.99148 0.08493 0.0
N404 N 0.75453 0.98124 0.09552 0.0
C405 C 0.75548 0.92633 0.10327 0.0
C406 C 0.78519 0.9363 0.09246 0.0
C407 C 0.79923 0.96906 0.08328 0.0
C408 C 0.74089 0.94985 0.10445 0.0
H409 H 0.79403 0.01649 0.07778 0.0
C410 C 0.77032 0.07396 0.07827 0.0
O411 O 0.81126 0.14449 0.1203 0.0
O412 O 0.83363 0.10747 0.11636 0.0
N413 N 0.70123 0.9675 0.11603 0.0
C414 C 0.67347 0.96265 0.12637 0.0
C415 C 0.65659 0.93133 0.13655 0.0
C416 C 0.66812 0.90516 0.13584 0.0
C417 C 0.69676 0.91076 0.1251 0.0
C418 C 0.7125 0.94246 0.11524 0.0
H419 H 0.66417 0.98244 0.1268 0.0
O420 O 0.7735 0.07078 0.1378 0.0
O421 O 0.76292 0.03854 0.11494 0.0
O422 O 0.72674 0.08185 0.11474 0.0
O423 O 0.69394 0.02542 0.10328 0.0
C424 C 0.71041 0.88622 0.12382 0.0
C425 C 0.73993 0.89414 0.11302 0.0
H426 H 0.79749 0.91906 0.09114 0.0
H427 H 0.82214 0.97693 0.07491 0.0
H428 H 0.63455 0.92724 0.14483 0.0
H429 H 0.65482 0.88092 0.14363 0.0
H430 H 0.69866 0.86135 0.13122 0.0
H431 H 0.75053 0.87534 0.11234 0.0
H432 H 0.90347 0.13744 0.12029 0.0
H433 H 0.95972 0.17555 0.13602 0.0
H434 H 0.91472 0.24194 0.1536 0.0
H435 H 0.85775 0.20334 0.13797 0.0
H436 H 0.0118 0.24964 0.13644 0.0
H437 H 0.93803 0.20634 0.19669 0.0
H438 H 0.91687 0.18383 0.17744 0.0
H439 H 0.92146 0.22767 0.18244 0.0
C440 C 0.90561 0.16046 0.1273 0.0
C441 C 0.87588 0.16714 0.1279 0.0
C442 C 0.93791 0.18228 0.13632 0.0
C443 C 0.94136 0.21127 0.1463 0.0
C444 C 0.91251 0.2193 0.14628 0.0
H445 H 0.15656 0.35239 0.19596 0.0
H446 H 0.09972 0.33408 0.18024 0.0
C447 C 0.88007 0.19743 0.13718 0.0
C448 C 0.97454 0.23161 0.15715 0.0
H449 H 1.00219 0.24589 0.19771 0.0
C450 C 0.00969 0.24924 0.14983 0.0
C451 C 0.97191 0.23069 0.17467 0.0
C452 C 0.93512 0.2109 0.18335 0.0
C453 C 0.04209 0.26521 0.15947 0.0
C454 C 0.03946 0.2641 0.17699 0.0
C455 C 1.00431 0.24714 0.18431 0.0
C456 C 0.07259 0.27696 0.18787 0.0
C457 C 0.07886 0.28157 0.1508 0.0
C458 C 0.07573 0.25154 0.19806 0.0
C459 C 0.10796 0.26199 0.20713 0.0
C460 C 0.13792 0.29825 0.20637 0.0
C461 C 0.13405 0.32427 0.19688 0.0
C462 C 0.10168 0.31372 0.18773 0.0
H463 H 0.07587 0.27369 0.13752 0.0
H464 H 0.09284 0.31205 0.15153 0.0
H465 H 0.09687 0.27263 0.15686 0.0
H466 H 0.05373 0.22309 0.1985 0.0
H467 H 0.10985 0.24117 0.2143 0.0
H468 H 0.88751 0.11292 0.54442 0.0
H469 H 0.85083 0.05592 0.52889 0.0
H470 H 0.77871 0.09512 0.51247 0.0
H471 H 0.81563 0.15263 0.52793 0.0
H472 H 0.77651 1.00127 0.52977 0.0
H473 H 0.81349 0.0722 0.46878 0.0
H474 H 0.83724 0.09456 0.48766 0.0
H475 H 0.7926 0.08874 0.48331 0.0
C476 C 0.8636 0.10935 0.53768 0.0
C477 C 0.85468 0.13756 0.53741 0.0
C478 C 0.84261 0.07664 0.52877 0.0
C479 C 0.8123 0.07131 0.51922 0.0
C480 C 0.80235 0.09876 0.51946 0.0
H481 H 0.66583 0.85473 0.47232 0.0
H482 H 0.68714 0.91258 0.48764 0.0
C483 C 0.82331 0.13154 0.52845 0.0
C484 C 0.79212 0.03749 0.50873 0.0
H485 H 0.77403 0.00786 0.46848 0.0
C486 C 0.77564 1.00273 0.51638 0.0
C487 C 0.79135 0.03925 0.49121 0.0
C488 C 0.80983 0.07562 0.48217 0.0
C489 C 0.75885 0.96989 0.50704 0.0
C490 C 0.75804 0.97165 0.48952 0.0
C491 C 0.7742 0.0064 0.48188 0.0
C492 C 0.74345 0.93791 0.47892 0.0
C493 C 0.74342 0.93356 0.516 0.0
C494 C 0.7674 0.93338 0.46828 0.0
C495 C 0.75525 0.90051 0.45946 0.0
C496 C 0.71867 0.87133 0.46091 0.0
C497 C 0.69411 0.87662 0.47085 0.0
C498 C 0.70639 0.90957 0.47977 0.0
H499 H 0.7527 0.93717 0.5291 0.0
H500 H 0.71288 0.91954 0.51591 0.0
H501 H 0.75174 0.9153 0.50971 0.0
H502 H 0.79603 0.95478 0.4673 0.0
H503 H 0.77499 0.89749 0.45195 0.0
H504 H 0.77179 0.87208 0.88163 0.0
H505 H 0.79163 0.83512 0.86612 0.0
H506 H 0.68226 0.77009 0.84598 0.0
H507 H 0.66217 0.80749 0.86144 0.0
H508 H 0.76916 0.76064 0.86495 0.0
H509 H 0.74657 0.80908 0.80433 0.0
H510 H 0.74596 0.83027 0.82369 0.0
H511 H 0.707 0.78704 0.81766 0.0
C512 C 0.75169 0.84958 0.8741 0.0
C513 C 0.71535 0.84293 0.87276 0.0
C514 C 0.76315 0.82842 0.8652 0.0
C515 C 0.73873 0.80018 0.85459 0.0
C516 C 0.70188 0.79217 0.85382 0.0
H517 H 0.81279 0.6588 0.80556 0.0
H518 H 0.77487 0.67823 0.821 0.0
C519 C 0.69029 0.81333 0.86282 0.0
C520 C 0.75273 0.78056 0.84394 0.0
H521 H 0.77056 0.76899 0.80365 0.0
C522 C 0.76906 0.76208 0.85154 0.0
C523 C 0.75316 0.78285 0.82641 0.0
C524 C 0.73754 0.80359 0.81747 0.0
C525 C 0.7862 0.74643 0.84218 0.0
C526 C 0.78672 0.74881 0.82466 0.0
C527 C 0.76989 0.76679 0.81705 0.0
C528 C 0.80731 0.7357 0.81414 0.0
C529 C 0.80506 0.7289 0.85119 0.0
C530 C 0.83725 0.76106 0.80453 0.0
C531 C 0.85876 0.74999 0.79563 0.0
C532 C 0.85078 0.71315 0.79598 0.0
C533 C 0.81975 0.68736 0.80499 0.0
C534 C 0.79823 0.69853 0.81396 0.0
H535 H 0.80876 0.73601 0.86458 0.0
H536 H 0.78808 0.69851 0.85008 0.0
H537 H 0.83249 0.73762 0.84568 0.0
H538 H 0.84481 0.78983 0.80435 0.0
H539 H 0.88239 0.77066 0.78884 0.0
H540 H 0.89756 0.7758 0.21236 0.0
H541 H 0.95495 0.79735 0.19698 0.0
H542 H 0.9158 0.68748 0.17852 0.0
H543 H 0.8579 0.66566 0.19385 0.0
H544 H 0.00945 0.77709 0.19714 0.0
H545 H 0.93967 0.74941 0.13595 0.0
H546 H 0.91708 0.7493 0.155 0.0
H547 H 0.92257 0.7107 0.14978 0.0
C548 C 0.90123 0.75602 0.2052 0.0
C549 C 0.87292 0.71896 0.20432 0.0
C550 C 0.93416 0.76845 0.19638 0.0
C551 C 0.93961 0.74426 0.18632 0.0
C552 C 0.91206 0.70688 0.18594 0.0
H553 H 0.15566 0.81527 0.13894 0.0
H554 H 0.09781 0.77893 0.15427 0.0
C555 C 0.87906 0.69434 0.19485 0.0
C556 C 0.97362 0.75877 0.17591 0.0
H557 H 1.00402 0.77416 0.13575 0.0
C558 C 0.00825 0.77612 0.18372 0.0
C559 C 0.97218 0.758 0.15837 0.0
C560 C 0.93596 0.74115 0.1492 0.0
C561 C 0.04128 0.7929 0.17452 0.0
C562 C 0.03984 0.7921 0.15698 0.0
C563 C 1.00522 0.77448 0.14917 0.0
C564 C 0.07383 0.8118 0.14658 0.0
C565 C 0.07749 0.81262 0.18367 0.0
C566 C 0.07917 0.8415 0.13659 0.0
C567 C 0.11209 0.86218 0.12778 0.0
C568 C 0.14047 0.85352 0.12859 0.0
C569 C 0.13443 0.8227 0.13799 0.0
C570 C 0.10146 0.80209 0.1469 0.0
H571 H 0.07373 0.81704 0.19693 0.0
H572 H 0.09124 0.79589 0.18305 0.0
H573 H 0.0961 0.83975 0.17788 0.0
H574 H 0.0583 0.8495 0.13605 0.0
H575 H 0.11569 0.88567 0.12069 0.0
H576 H 0.35461 0.15383 0.47273 0.0
H577 H 0.33599 0.09672 0.48826 0.0
H578 H 0.22618 0.04985 0.46832 0.0
H579 H 0.24454 0.10631 0.4528 0.0
H580 H 0.28208 0.06702 0.51258 0.0
H581 H 0.24675 0.96564 0.4621 0.0
H582 H 0.27385 0.01469 0.45866 0.0
H583 H 0.22437 0.99232 0.45975 0.0
C584 C 0.32678 0.131 0.47133 0.0
C585 C 0.30118 0.13467 0.46141 0.0
C586 C 0.31607 0.09841 0.48031 0.0
C587 C 0.27971 0.06864 0.47938 0.0
C588 C 0.25455 0.07195 0.46905 0.0
H589 H 0.13902 0.90018 0.54715 0.0
H590 H 0.17805 0.95713 0.5321 0.0
C591 C 0.26512 0.10445 0.46019 0.0
C592 C 0.26699 0.03525 0.49006 0.0
H593 H 0.22098 0.94102 0.48887 0.0
C594 C 0.26922 0.03951 0.50737 0.0
C595 C 0.25053 0.9992 0.48337 0.0
C596 C 0.24904 0.99262 0.46495 0.0
C597 C 0.25391 0.00885 0.51809 0.0
C598 C 0.2354 0.97278 0.51138 0.0
C599 C 0.23482 0.96855 0.49409 0.0
C600 C 0.21431 0.93927 0.52196 0.0
C601 C 0.25745 0.01545 0.53653 0.0
C602 C 0.2215 0.9099 0.52141 0.0
C603 C 0.19909 0.87704 0.53013 0.0
C604 C 0.16869 0.87269 0.53938 0.0
C605 C 0.16233 0.90258 0.54029 0.0
C606 C 0.18478 0.93536 0.53169 0.0
H607 H 0.28166 0.04266 0.53961 0.0
H608 H 0.23245 0.01527 0.5412 0.0
H609 H 0.26011 0.99366 0.54312 0.0
H610 H 0.24394 0.91207 0.51393 0.0
H611 H 0.20453 0.85447 0.52897 0.0
H612 H 0.24087 0.13207 0.88094 0.0
H613 H 0.22047 0.16834 0.86522 0.0
H614 H 0.32981 0.23419 0.8452 0.0
H615 H 0.35048 0.19756 0.86088 0.0
H616 H 0.2428 0.24324 0.8639 0.0
H617 H 0.26519 0.19366 0.80353 0.0
H618 H 0.26577 0.17277 0.82298 0.0
H619 H 0.30474 0.21589 0.81688 0.0
C620 C 0.26084 0.15461 0.8734 0.0
C621 C 0.29735 0.16174 0.87216 0.0
C622 C 0.24905 0.17536 0.86438 0.0
C623 C 0.27332 0.20364 0.85375 0.0
C624 C 0.31032 0.21208 0.85306 0.0
H625 H 0.20029 0.34479 0.80396 0.0
H626 H 0.23787 0.32511 0.81949 0.0
C627 C 0.32223 0.19136 0.86218 0.0
C628 C 0.2591 0.22289 0.843 0.0
H629 H 0.24112 0.23369 0.80264 0.0
C630 C 0.24283 0.24152 0.8505 0.0
C631 C 0.25859 0.22024 0.82548 0.0
C632 C 0.2742 0.19935 0.81667 0.0
C633 C 0.22573 0.25707 0.84105 0.0
C634 C 0.22514 0.25435 0.82353 0.0
C635 C 0.24184 0.23614 0.81602 0.0
C636 C 0.20474 0.26752 0.81293 0.0
C637 C 0.20703 0.27491 0.84994 0.0
C638 C 0.1745 0.24213 0.80346 0.0
C639 C 0.15316 0.25334 0.79451 0.0
C640 C 0.16163 0.29034 0.79467 0.0
C641 C 0.19296 0.31611 0.80353 0.0
C642 C 0.21429 0.30481 0.81255 0.0
H643 H 0.20341 0.26812 0.86336 0.0
H644 H 0.22408 0.30526 0.84869 0.0
H645 H 0.17958 0.26614 0.84443 0.0
H646 H 0.16659 0.21327 0.80344 0.0
H647 H 0.12928 0.23269 0.78785 0.0
H648 H 0.66365 0.60221 0.19576 0.0
H649 H 0.59926 0.55299 0.19168 0.0
H650 H 0.58197 0.54678 0.24449 0.0
H651 H 0.64572 0.59601 0.24855 0.0
H652 H 0.549 0.4746 0.22453 0.0
H653 H 0.51452 0.57985 0.20262 0.0
H654 H 0.55345 0.57883 0.19372 0.0
H655 H 0.55518 0.59241 0.21489 0.0
C656 C 0.64644 0.58925 0.20649 0.0
C657 C 0.65968 0.60246 0.22249 0.0
C658 C 0.6096 0.56157 0.20414 0.0
C659 C 0.58581 0.5466 0.21779 0.0
C660 C 0.59985 0.55801 0.23381 0.0
H661 H 0.36696 0.3995 0.24923 0.0
H662 H 0.43194 0.44552 0.24555 0.0
C663 C 0.63631 0.58589 0.23612 0.0
C664 C 0.54566 0.52114 0.21563 0.0
H665 H 0.46503 0.52018 0.20758 0.0
C666 C 0.53066 0.48438 0.22059 0.0
C667 C 0.52181 0.53399 0.21044 0.0
C668 C 0.53677 0.57343 0.20514 0.0
C669 C 0.49236 0.46034 0.22093 0.0
C670 C 0.46835 0.47372 0.21668 0.0
C671 C 0.4834 0.51006 0.21098 0.0
C672 C 0.42779 0.45079 0.21909 0.0
C673 C 0.47796 0.42083 0.22602 0.0
C674 C 0.40322 0.44054 0.20565 0.0
C675 C 0.36565 0.41473 0.20783 0.0
C676 C 0.35234 0.39897 0.22348 0.0
C677 C 0.37651 0.41141 0.23707 0.0
C678 C 0.41373 0.43732 0.23493 0.0
H679 H 0.49876 0.41223 0.22384 0.0
H680 H 0.47154 0.41791 0.23945 0.0
H681 H 0.45242 0.40187 0.21915 0.0
H682 H 0.41344 0.45085 0.19333 0.0
H683 H 0.34771 0.40505 0.19711 0.0
H684 H 0.06636 0.66058 0.52818 0.0
H685 H 0.04714 0.59484 0.52554 0.0
H686 H 0.02121 0.57965 0.57766 0.0
H687 H 0.03943 0.64465 0.58019 0.0
H688 H 0.06467 0.54474 0.54101 0.0
H689 H 0.9221 0.51073 0.55581 0.0
H690 H 0.958 0.55691 0.55086 0.0
H691 H 0.95448 0.53884 0.57143 0.0
C692 C 0.05782 0.64339 0.53914 0.0
C693 C 0.05456 0.65761 0.55441 0.0
C694 C 0.04645 0.6058 0.5376 0.0
C695 C 0.03171 0.58211 0.55131 0.0
C696 C 0.03154 0.59715 0.56682 0.0
H697 H 0.96177 0.3651 0.58217 0.0
H698 H 0.97628 0.42879 0.57804 0.0
C699 C 0.04245 0.63439 0.56831 0.0
C700 C 0.01442 0.54146 0.54946 0.0
H701 H 0.93458 0.46086 0.55737 0.0
C702 C 0.03608 0.5264 0.5443 0.0
C703 C 0.9769 0.51744 0.55357 0.0
C704 C 0.9514 0.53178 0.55806 0.0
C705 C 0.02178 0.48803 0.5441 0.0
C706 C 0.98491 0.46424 0.54909 0.0
C707 C 0.96284 0.4792 0.55358 0.0
C708 C 0.97026 0.42418 0.55141 0.0
C709 C 0.04653 0.47305 0.53928 0.0
C710 C 0.96036 0.40003 0.53785 0.0
C711 C 0.95122 0.36324 0.54024 0.0
C712 C 0.95229 0.35042 0.5562 0.0
C713 C 0.96019 0.37417 0.56978 0.0
C714 C 0.96877 0.4106 0.56742 0.0
H715 H 0.07507 0.49525 0.53648 0.0
H716 H 0.04751 0.4557 0.54944 0.0
H717 H 0.03514 0.45526 0.52817 0.0
H718 H 0.96131 0.41006 0.5254 0.0
H719 H 0.94611 0.34573 0.52954 0.0
H720 H 0.40956 0.06428 0.86254 0.0
H721 H 0.45882 0.049 0.8588 0.0
H722 H 0.45618 0.02716 0.91109 0.0
H723 H 0.40692 0.04174 0.9148 0.0
H724 H 0.53243 0.07226 0.89245 0.0
H725 H 0.4307 0.93433 0.86724 0.0
H726 H 0.4309 0.975 0.85981 0.0
H727 H 0.4164 0.9595 0.88058 0.0
C728 C 0.42049 0.05748 0.87328 0.0
C729 C 0.40488 0.05466 0.889 0.0
C730 C 0.44823 0.04832 0.87111 0.0
C731 C 0.46086 0.03664 0.88466 0.0
C732 C 0.4468 0.03605 0.90048 0.0
H733 H 0.61012 0.96646 0.91545 0.0
H734 H 0.56343 0.98461 0.9121 0.0
C735 C 0.41888 0.04464 0.9026 0.0
C736 C 0.48701 0.02277 0.88252 0.0
H737 H 0.49011 0.94474 0.87327 0.0
C738 C 0.52337 0.04459 0.88803 0.0
C739 C 0.47512 0.9867 0.87671 0.0
C740 C 0.43615 0.96224 0.87074 0.0
C741 C 0.54796 0.03099 0.88828 0.0
C742 C 0.53551 0.99412 0.88338 0.0
C743 C 0.49955 0.97282 0.87718 0.0
C744 C 0.55901 0.97702 0.88552 0.0
C745 C 0.58706 0.05627 0.89393 0.0
C746 C 0.57001 0.96394 0.87187 0.0
C747 C 0.5962 0.95259 0.87386 0.0
C748 C 0.61159 0.9542 0.88951 0.0
C749 C 0.59848 0.96472 0.90327 0.0
C750 C 0.57219 0.9756 0.90133 0.0
H751 H 0.59524 0.08567 0.89221 0.0
H752 H 0.5893 0.05177 0.90732 0.0
H753 H 0.60678 0.05077 0.88707 0.0
H754 H 0.55996 0.96447 0.85957 0.0
H755 H 0.60639 0.9453 0.86301 0.0
H756 H 0.60669 0.65916 0.47353 0.0
H757 H 0.55706 0.59461 0.47673 0.0
H758 H 0.55688 0.57901 0.42395 0.0
H759 H 0.60655 0.64289 0.42078 0.0
H760 H 0.48176 0.54668 0.44326 0.0
H761 H 0.58411 0.50869 0.4658 0.0
H762 H 0.58411 0.54846 0.47432 0.0
H763 H 0.598 0.54925 0.45328 0.0
C764 C 0.59502 0.64224 0.4626 0.0
C765 C 0.60993 0.65603 0.44688 0.0
C766 C 0.56708 0.60534 0.46445 0.0
C767 C 0.55358 0.58202 0.45057 0.0
C768 C 0.56693 0.59652 0.4348 0.0
H769 H 0.40202 0.36403 0.41835 0.0
H770 H 0.44876 0.42876 0.42199 0.0
C771 C 0.59506 0.63305 0.43299 0.0
C772 C 0.52742 0.54191 0.45232 0.0
H773 H 0.52428 0.46018 0.46006 0.0
C774 C 0.49088 0.52777 0.44714 0.0
C775 C 0.53938 0.51734 0.45745 0.0
C776 C 0.57854 0.5314 0.46302 0.0
C777 C 0.46615 0.48962 0.4466 0.0
C778 C 0.47864 0.46486 0.45082 0.0
C779 C 0.51481 0.47908 0.45667 0.0
C780 C 0.45491 0.42437 0.44837 0.0
C781 C 0.42685 0.47623 0.44141 0.0
C782 C 0.44489 0.39965 0.46174 0.0
C783 C 0.4187 0.36219 0.45957 0.0
C784 C 0.40227 0.3491 0.444 0.0
C785 C 0.41438 0.3734 0.43047 0.0
C786 C 0.44071 0.4105 0.43259 0.0
H787 H 0.41885 0.49741 0.44374 0.0
H788 H 0.42404 0.47032 0.42792 0.0
H789 H 0.40734 0.45063 0.44808 0.0
H790 H 0.45577 0.40966 0.47401 0.0
H791 H 0.40935 0.34416 0.47025 0.0
H792 H 0.94905 0.60115 0.80289 0.0
H793 H 0.969 0.55538 0.80631 0.0
H794 H 0.98184 0.55336 0.75339 0.0
H795 H 0.96279 0.59935 0.75002 0.0
H796 H 0.94849 0.48378 0.79308 0.0
H797 H 0.08647 0.5909 0.77151 0.0
H798 H 0.05114 0.60128 0.77747 0.0
H799 H 0.05047 0.58305 0.75721 0.0
C800 C 0.9547 0.58974 0.79199 0.0
C801 C 0.95417 0.60352 0.77618 0.0
C802 C 0.96652 0.56397 0.79395 0.0
C803 C 0.97788 0.55175 0.78013 0.0
C804 C 0.97405 0.56305 0.76426 0.0
H805 H 0.04941 0.40598 0.74996 0.0
H806 H 0.03431 0.45477 0.75393 0.0
C807 C 0.96267 0.58892 0.76232 0.0
C808 C 0.99629 0.52948 0.78213 0.0
H809 H 0.07528 0.52899 0.77198 0.0
C810 C 0.97642 0.49383 0.78875 0.0
C811 C 0.03296 0.54283 0.77666 0.0
C812 C 0.05667 0.58175 0.77047 0.0
C813 C 0.99149 0.47042 0.78909 0.0
C814 C 0.02737 0.48315 0.78276 0.0
C815 C 0.04779 0.5193 0.77681 0.0
C816 C 0.0423 0.45797 0.78046 0.0
C817 C 0.9684 0.4316 0.79546 0.0
C818 C 0.05356 0.44487 0.79399 0.0
C819 C 0.06302 0.41743 0.79168 0.0
C820 C 0.06094 0.4026 0.77584 0.0
C821 C 0.05173 0.41734 0.76225 0.0
C822 C 0.04282 0.44498 0.76452 0.0
H823 H 0.94002 0.42502 0.79877 0.0
H824 H 0.9667 0.41163 0.78597 0.0
H825 H 0.98164 0.42787 0.80663 0.0
H826 H 0.05348 0.45471 0.80639 0.0
H827 H 0.0692 0.40592 0.80239 0.0
H828 H 0.36692 0.95755 0.08399 0.0
H829 H 0.43046 0.9713 0.08766 0.0
H830 H 0.41445 0.96041 0.14056 0.0
H831 H 0.35024 0.94607 0.13685 0.0
H832 H 0.47612 0.03036 0.12855 0.0
H833 H 0.47807 0.90928 0.10222 0.0
H834 H 0.45436 0.92617 0.08962 0.0
H835 H 0.43639 0.90713 0.1097 0.0
C836 C 0.37651 0.95659 0.09635 0.0
C837 C 0.35353 0.95001 0.11011 0.0
C838 C 0.41287 0.96464 0.09845 0.0
C839 C 0.42719 0.96674 0.11438 0.0
C840 C 0.40385 0.95865 0.12816 0.0
H841 H 0.66381 0.0604 0.13766 0.0
H842 H 0.5982 0.04095 0.14077 0.0
C843 C 0.3671 0.95 0.12602 0.0
C844 C 0.46732 0.98089 0.11643 0.0
H845 H 0.53606 0.96479 0.10443 0.0
C846 C 0.48931 0.01584 0.12354 0.0
C847 C 0.4844 0.96198 0.10981 0.0
C848 C 0.46212 0.92391 0.10253 0.0
C849 C 0.52807 0.0332 0.12342 0.0
C850 C 0.54522 0.01478 0.11625 0.0
C851 C 0.52303 0.97916 0.10977 0.0
C852 C 0.58599 0.03216 0.11453 0.0
C853 C 0.55028 0.07174 0.13022 0.0
C854 C 0.60125 0.03447 0.09879 0.0
C855 C 0.63846 0.04528 0.09706 0.0
C856 C 0.66143 0.05451 0.111 0.0
C857 C 0.6469 0.0545 0.12668 0.0
C858 C 0.60935 0.04317 0.12845 0.0
H859 H 0.53338 0.08524 0.13156 0.0
H860 H 0.56096 0.07059 0.14265 0.0
H861 H 0.57419 0.08907 0.12211 0.0
H862 H 0.58392 0.02621 0.08786 0.0
H863 H 0.64888 0.04443 0.08487 0.0
H864 H 0.22451 0.01402 0.11814 0.0
H865 H 0.22465 0.06679 0.13049 0.0
H866 H 0.2875 0.0621 0.17191 0.0
H867 H 0.29061 0.01106 0.15839 0.0
H868 H 0.19618 0.07334 0.15637 0.0
H869 H 0.34679 0.16782 0.16217 0.0
H870 H 0.32808 0.12239 0.15361 0.0
H871 H 0.33061 0.12873 0.17564 0.0
C872 C 0.23954 0.02516 0.12958 0.0
C873 C 0.25941 0.01016 0.13687 0.0
C874 C 0.23903 0.05488 0.13681 0.0
C875 C 0.25686 0.06915 0.15197 0.0
C876 C 0.27477 0.05253 0.1599 0.0
H877 H 0.20835 0.2102 0.21076 0.0
H878 H 0.20856 0.15865 0.19697 0.0
C879 C 0.27629 0.02329 0.1523 0.0
C880 C 0.25526 0.10066 0.15933 0.0
H881 H 0.30791 0.18849 0.17347 0.0
C882 C 0.22073 0.09853 0.16009 0.0
C883 C 0.28719 0.13367 0.16417 0.0
C884 C 0.32528 0.13845 0.16373 0.0
C885 C 0.21728 0.12846 0.16531 0.0
C886 C 0.2491 0.16105 0.17043 0.0
C887 C 0.28357 0.16337 0.16961 0.0
C888 C 0.24707 0.19211 0.17783 0.0
C889 C 0.17967 0.12503 0.16488 0.0
C890 C 0.26917 0.22814 0.17181 0.0
C891 C 0.26971 0.2578 0.17997 0.0
C892 C 0.24872 0.25154 0.19435 0.0
C893 C 0.22546 0.21549 0.19989 0.0
C894 C 0.22508 0.18603 0.19186 0.0
H895 H 0.16185 0.10498 0.15529 0.0
H896 H 0.16599 0.11475 0.17704 0.0
H897 H 0.18153 0.15192 0.16233 0.0
H898 H 0.28642 0.23331 0.16101 0.0
H899 H 0.28734 0.28553 0.17543 0.0
H900 H 0.01509 0.22065 0.54818 0.0
H901 H 0.06816 0.2209 0.53613 0.0
H902 H 0.06461 0.28426 0.49469 0.0
H903 H 0.01329 0.28734 0.50796 0.0
H904 H 0.07569 0.1929 0.51051 0.0
H905 H 0.17003 0.34347 0.50488 0.0
H906 H 0.12417 0.32471 0.51297 0.0
H907 H 0.13153 0.32715 0.49101 0.0
C908 C 0.02652 0.2358 0.5368 0.0
C909 C 0.0118 0.25584 0.52946 0.0
C910 C 0.05643 0.23535 0.52973 0.0
C911 C 0.07115 0.2534 0.51467 0.0
C912 C 0.05472 0.27138 0.50664 0.0
H913 H 0.21351 0.20502 0.45704 0.0
H914 H 0.16179 0.20521 0.47066 0.0
C915 C 0.02531 0.27288 0.5141 0.0
C916 C 0.10295 0.25193 0.50754 0.0
H917 H 0.19129 0.30475 0.49396 0.0
C918 C 0.10097 0.21748 0.50691 0.0
C919 C 0.13609 0.2839 0.50285 0.0
C920 C 0.14073 0.32191 0.50309 0.0
C921 C 0.13115 0.21414 0.502 0.0
C922 C 0.16387 0.24598 0.49702 0.0
C923 C 0.16607 0.28039 0.49772 0.0
C924 C 0.19508 0.24398 0.48976 0.0
C925 C 0.12783 0.17661 0.50261 0.0
C926 C 0.2311 0.26626 0.4958 0.0
C927 C 0.26087 0.26683 0.48772 0.0
C928 C 0.25474 0.24567 0.47341 0.0
C929 C 0.21871 0.22224 0.46786 0.0
C930 C 0.18915 0.22184 0.4758 0.0
H931 H 0.10772 0.15894 0.5122 0.0
H932 H 0.11762 0.16272 0.49048 0.0
H933 H 0.15475 0.17857 0.50526 0.0
H934 H 0.23616 0.28364 0.50654 0.0
H935 H 0.2886 0.28461 0.49226 0.0
H936 H 1.0006 0.21094 0.78579 0.0
H937 H 0.94812 0.15879 0.79856 0.0
H938 H 0.95349 0.22802 0.83937 0.0
H939 H 1.00411 0.28169 0.82535 0.0
H940 H 0.94099 0.12438 0.82449 0.0
H941 H 0.84796 0.18226 0.82984 0.0
H942 H 0.89379 0.20882 0.82166 0.0
H943 H 0.88664 0.20426 0.84363 0.0
C944 C 0.98968 0.21528 0.79718 0.0
C945 C 1.00462 0.25047 0.80412 0.0
C946 C 0.96014 0.18532 0.80467 0.0
C947 C 0.94604 0.1895 0.81975 0.0
C948 C 0.96287 0.22435 0.82741 0.0
H949 H 0.8011 0.99975 0.87776 0.0
H950 H 0.85359 0.0515 0.86445 0.0
C951 C 0.99187 0.25485 0.81952 0.0
C952 C 0.91427 0.15671 0.82722 0.0
H953 H 0.82603 0.12226 0.84077 0.0
C954 C 0.91587 0.12405 0.82805 0.0
C955 C 0.88136 0.15604 0.8319 0.0
C956 C 0.87718 0.18968 0.83159 0.0
C957 C 0.88546 0.09077 0.83304 0.0
C958 C 0.85288 0.09035 0.83788 0.0
C959 C 0.85113 0.12279 0.83708 0.0
C960 C 0.82124 0.05731 0.845 0.0
C961 C 0.88834 0.05631 0.83264 0.0
C962 C 0.78551 0.04383 0.83864 0.0
C963 C 0.7553 0.01471 0.84653 0.0
C964 C 0.7607 0.99953 0.86096 0.0
C965 C 0.79645 0.0119 0.86684 0.0
C966 C 0.82646 0.04098 0.85909 0.0
H967 H 0.90869 0.05847 0.82323 0.0
H968 H 0.89795 0.05247 0.84489 0.0
H969 H 0.86136 0.03154 0.82984 0.0
H970 H 0.78102 0.05626 0.82779 0.0
H971 H 0.7278 0.00493 0.84173 0.0
H972 H 0.72629 0.00588 0.15935 0.0
H973 H 0.7273 0.95475 0.17389 0.0
H974 H 0.80466 0.95732 0.13782 0.0
H975 H 0.80476 0.00887 0.1239 0.0
H976 H 0.70553 0.88827 0.16152 0.0
H977 H 0.85165 0.95055 0.17945 0.0
H978 H 0.83202 0.97789 0.17246 0.0
H979 H 0.84748 0.95623 0.15772 0.0
C980 C 0.74383 0.99568 0.15481 0.0
C981 C 0.76463 0.01016 0.14037 0.0
C982 C 0.74444 0.96667 0.16304 0.0
C983 C 0.76643 0.95261 0.15702 0.0
C984 C 0.78825 0.96829 0.14293 0.0
H985 H 0.72282 0.72781 0.1752 0.0
H986 H 0.72582 0.78237 0.16219 0.0
C987 C 0.78779 0.99725 0.13483 0.0
C988 C 0.76437 0.91954 0.16445 0.0
H989 H 0.81733 0.8845 0.17813 0.0
C990 C 0.72987 0.88741 0.16529 0.0
C991 C 0.7962 0.91868 0.16946 0.0
C992 C 0.83383 0.95284 0.16989 0.0
C993 C 0.72627 0.85399 0.17055 0.0
C994 C 0.75823 0.8528 0.17522 0.0
C995 C 0.79276 0.88522 0.17452 0.0
C996 C 0.75668 0.81946 0.18228 0.0
C997 C 0.68817 0.82069 0.17094 0.0
C998 C 0.7747 0.82257 0.19733 0.0
C999 C 0.77425 0.79211 0.20427 0.0
C1000 C 0.75428 0.75747 0.19678 0.0
C1001 C 0.73723 0.75418 0.18144 0.0
C1002 C 0.73869 0.78517 0.17413 0.0
H1003 H 0.68264 0.80607 0.1589 0.0
H1004 H 0.68547 0.80145 0.18086 0.0
H1005 H 0.66673 0.82855 0.17278 0.0
H1006 H 0.78917 0.84866 0.20381 0.0
H1007 H 0.7894 0.79564 0.21563 0.0
H1008 H 0.74189 0.72462 0.4922 0.0
H1009 H 0.80159 0.73642 0.50313 0.0
H1010 H 0.85782 0.82455 0.46771 0.0
H1011 H 0.79863 0.81092 0.45616 0.0
H1012 H 0.88811 0.78676 0.46702 0.0
H1013 H 0.87544 0.81309 0.53277 0.0
H1014 H 0.83725 0.76942 0.52692 0.0
H1015 H 0.84329 0.81088 0.51731 0.0
C1016 C 0.76715 0.74659 0.48695 0.0
C1017 C 0.76616 0.76653 0.47328 0.0
C1018 C 0.80115 0.75368 0.49327 0.0
C1019 C 0.83422 0.78183 0.4864 0.0
C1020 C 0.83278 0.80272 0.47319 0.0
H1021 H 0.03162 0.81786 0.53763 0.0
H1022 H 0.98761 0.83123 0.5242 0.0
C1023 C 0.79905 0.79495 0.46663 0.0
C1024 C 0.87028 0.78756 0.49199 0.0
H1025 H 0.92075 0.79613 0.52633 0.0
C1026 C 0.8947 0.78772 0.48003 0.0
C1027 C 0.88062 0.79231 0.50883 0.0
C1028 C 0.85795 0.79692 0.52214 0.0
C1029 C 0.92725 0.78842 0.48455 0.0
C1030 C 0.93561 0.78917 0.50154 0.0
C1031 C 0.91323 0.79317 0.51336 0.0
C1032 C 0.96639 0.78451 0.50752 0.0
C1033 C 0.95234 0.78883 0.47105 0.0
C1034 C 0.9701 0.7545 0.50224 0.0
C1035 C 0.99636 0.74768 0.50954 0.0
C1036 C 0.01768 0.76974 0.52269 0.0
C1037 C 0.01485 0.80026 0.5276 0.0
C1038 C 0.98972 0.80785 0.51997 0.0
H1039 H 0.9502 0.80282 0.45976 0.0
H1040 H 0.98157 0.80291 0.47509 0.0
H1041 H 0.94378 0.76006 0.46753 0.0
H1042 H 0.95168 0.73539 0.49304 0.0
H1043 H 0.99851 0.72415 0.5056 0.0
H1044 H 0.28622 1.00033 0.84191 0.0
H1045 H 0.23274 0.94858 0.8283 0.0
H1046 H 0.16114 0.95265 0.86567 0.0
H1047 H 0.21384 0.00478 0.87869 0.0
H1048 H 0.18806 0.88218 0.84146 0.0
H1049 H 0.10511 0.94628 0.82474 0.0
H1050 H 0.15263 0.9731 0.8311 0.0
H1051 H 0.11651 0.95202 0.84634 0.0
C1052 C 0.25887 0.99028 0.84696 0.0
C1053 C 0.25383 0.00542 0.86149 0.0
C1054 C 0.22851 0.96091 0.83926 0.0
C1055 C 0.19299 0.94715 0.8459 0.0
C1056 C 0.18811 0.96336 0.86011 0.0
H1057 H 0.01014 0.72313 0.82557 0.0
H1058 H 0.061 0.7765 0.83964 0.0
C1059 C 0.21824 0.99268 0.86768 0.0
C1060 C 0.16121 0.91416 0.83882 0.0
H1061 H 0.07309 0.88044 0.8255 0.0
C1062 C 0.16297 0.88174 0.83782 0.0
C1063 C 0.12863 0.91385 0.83409 0.0
C1064 C 0.12573 0.94831 0.83397 0.0
C1065 C 0.1328 0.84866 0.83242 0.0
C1066 C 0.09988 0.84809 0.82785 0.0
C1067 C 0.09823 0.8807 0.82896 0.0
C1068 C 0.06804 0.81544 0.8203 0.0
C1069 C 0.13709 0.81511 0.83172 0.0
C1070 C 0.05359 0.81992 0.80538 0.0
C1071 C 0.02388 0.79009 0.79788 0.0
C1072 C 0.00913 0.75476 0.80463 0.0
C1073 C 0.02226 0.75008 0.81987 0.0
C1074 C 0.05141 0.78042 0.82778 0.0
H1075 H 0.16634 0.82269 0.82994 0.0
H1076 H 0.12757 0.79997 0.84362 0.0
H1077 H 0.1206 0.79644 0.82162 0.0
H1078 H 0.06543 0.84658 0.79941 0.0
H1079 H 0.01265 0.79465 0.78663 0.0
H1080 H 0.36492 0.28244 0.38954 0.0
H1081 H 0.34864 0.29106 0.36146 0.0
H1082 H 0.24409 0.19086 0.36593 0.0
H1083 H 0.26051 0.18207 0.39399 0.0
H1084 H 0.28032 0.21355 0.33118 0.0
H1085 H 0.26277 0.31813 0.36609 0.0
H1086 H 0.3065 0.32029 0.36839 0.0
H1087 H 0.2655 0.28118 0.3762 0.0
C1088 C 0.33966 0.26086 0.38408 0.0
C1089 C 0.31409 0.23145 0.39387 0.0
C1090 C 0.33005 0.26619 0.36815 0.0
C1091 C 0.29482 0.24206 0.36183 0.0
C1092 C 0.27136 0.20986 0.37064 0.0
H1093 H 0.18438 0.25902 0.27347 0.0
H1094 H 0.19126 0.24173 0.30166 0.0
C1095 C 0.28104 0.20452 0.38657 0.0
C1096 C 0.28031 0.25365 0.34773 0.0
H1097 H 0.25404 0.31609 0.33708 0.0
C1098 C 0.27431 0.23575 0.33244 0.0
C1099 C 0.27218 0.28244 0.34954 0.0
C1100 C 0.27673 0.30154 0.36595 0.0
C1101 C 0.26168 0.24687 0.31868 0.0
C1102 C 0.25412 0.27613 0.32042 0.0
C1103 C 0.25954 0.29354 0.33582 0.0
C1104 C 0.2438 0.29092 0.30596 0.0
C1105 C 0.25787 0.22816 0.30222 0.0
C1106 C 0.26908 0.32591 0.29979 0.0
C1107 C 0.26473 0.33612 0.28382 0.0
C1108 C 0.23508 0.31146 0.27388 0.0
C1109 C 0.2071 0.27883 0.281 0.0
C1110 C 0.21146 0.26856 0.29697 0.0
H1111 H 0.27147 0.21122 0.30225 0.0
H1112 H 0.22822 0.20975 0.29942 0.0
H1113 H 0.26998 0.24877 0.2921 0.0
H1114 H 0.29408 0.34374 0.30659 0.0
H1115 H 0.28708 0.36103 0.27849 0.0
H1116 H 0.9315 0.18256 0.60452 0.0
H1117 H 0.95354 0.186 0.63289 0.0
H1118 H 0.94943 0.28561 0.64069 0.0
H1119 H 0.92704 0.28177 0.61252 0.0
H1120 H 0.02061 0.24352 0.63973 0.0
H1121 H 0.92247 0.24103 0.68605 0.0
H1122 H 0.9085 0.22396 0.66523 0.0
H1123 H 0.92925 0.27246 0.66959 0.0
C1124 C 0.93261 0.20355 0.61272 0.0
C1125 C 0.92707 0.23162 0.60642 0.0
C1126 C 0.946 0.20598 0.62884 0.0
C1127 C 0.95349 0.23624 0.63894 0.0
C1128 C 0.94339 0.26166 0.63332 0.0
H1129 H 0.08651 0.35935 0.72043 0.0
H1130 H 0.06168 0.34109 0.69246 0.0
C1131 C 0.93005 0.2592 0.61723 0.0
C1132 C 0.9776 0.24507 0.65377 0.0
H1133 H 0.98666 0.27314 0.69405 0.0
C1134 C 0.0129 0.24932 0.65171 0.0
C1135 C 0.96777 0.25291 0.66937 0.0
C1136 C 0.92977 0.24698 0.67274 0.0
C1137 C 0.03899 0.26256 0.6646 0.0
C1138 C 0.02959 0.27188 0.67991 0.0
C1139 C 0.99401 0.26657 0.68216 0.0
C1140 C 0.05582 0.28696 0.69397 0.0
C1141 C 0.07683 0.26776 0.66169 0.0
C1142 C 0.06352 0.26369 0.70354 0.0
C1143 C 0.07841 0.27445 0.71946 0.0
C1144 C 0.08524 0.30833 0.72603 0.0
C1145 C 0.08232 0.33346 0.71554 0.0
C1146 C 0.06741 0.32274 0.69966 0.0
H1147 H 0.08128 0.26332 0.64852 0.0
H1148 H 0.09827 0.29595 0.66544 0.0
H1149 H 0.08045 0.24796 0.66945 0.0
H1150 H 0.05452 0.23586 0.69943 0.0
H1151 H 0.07948 0.2542 0.72742 0.0
H1152 H 0.726 0.08028 0.05603 0.0
H1153 H 0.71901 0.05622 0.02788 0.0
H1154 H 0.82156 0.05649 0.03278 0.0
H1155 H 0.82843 0.08046 0.06102 0.0
H1156 H 0.75945 0.06911 0.99742 0.0
H1157 H 0.74089 0.94587 0.03178 0.0
H1158 H 0.74247 0.98481 0.04207 0.0
H1159 H 0.78421 0.98749 0.03479 0.0
C1160 C 0.74828 0.07763 0.05068 0.0
C1161 C 0.77789 0.08248 0.06062 0.0
C1162 C 0.74395 0.06321 0.03469 0.0
C1163 C 0.76918 0.05347 0.02848 0.0
C1164 C 0.80142 0.06318 0.0375 0.0
H1165 H 0.75231 0.92878 0.94006 0.0
H1166 H 0.76862 0.95354 0.9682 0.0
C1167 C 0.80577 0.07768 0.05349 0.0
C1168 C 0.75888 0.0286 0.01392 0.0
H1169 H 0.73225 0.93989 0.00283 0.0
C1170 C 0.75375 0.04097 0.99857 0.0
C1171 C 0.75108 0.99168 0.01553 0.0
C1172 C 0.75461 0.97641 0.03193 0.0
C1173 C 0.74114 0.01748 0.98475 0.0
C1174 C 0.73273 0.98045 0.98643 0.0
C1175 C 0.73847 0.96819 0.00167 0.0
C1176 C 0.71818 0.95461 0.97224 0.0
C1177 C 0.73692 0.03244 0.9684 0.0
C1178 C 0.68311 0.94399 0.96585 0.0
C1179 C 0.67358 0.92933 0.94987 0.0
C1180 C 0.69905 0.92526 0.94011 0.0
C1181 C 0.73187 0.93088 0.94745 0.0
C1182 C 0.74148 0.94564 0.96344 0.0
H1183 H 0.75118 0.06302 0.96837 0.0
H1184 H 0.74804 0.02328 0.95811 0.0
H1185 H 0.70722 0.02177 0.96594 0.0
H1186 H 0.66464 0.95043 0.97254 0.0
H1187 H 0.6485 0.92602 0.94438 0.0
H1188 H 0.82632 0.7473 0.27214 0.0
H1189 H 0.82195 0.76295 0.30093 0.0
H1190 H 0.72283 0.65786 0.30699 0.0
H1191 H 0.72758 0.64224 0.27839 0.0
H1192 H 0.76327 0.77055 0.30819 0.0
H1193 H 0.76686 0.672 0.35247 0.0
H1194 H 0.78457 0.67741 0.33164 0.0
H1195 H 0.736 0.64864 0.33563 0.0
C1196 C 0.80524 0.72649 0.28001 0.0
C1197 C 0.77759 0.69333 0.27314 0.0
C1198 C 0.8023 0.73576 0.29639 0.0
C1199 C 0.7719 0.71174 0.30614 0.0
C1200 C 0.74687 0.67668 0.29988 0.0
H1201 H 0.65099 0.71469 0.39067 0.0
H1202 H 0.66789 0.70741 0.36251 0.0
C1203 C 0.74985 0.66749 0.28353 0.0
C1204 C 0.76246 0.72538 0.32134 0.0
H1205 H 0.73464 0.70309 0.36148 0.0
C1206 C 0.75762 0.75617 0.31994 0.0
C1207 C 0.75477 0.70651 0.33662 0.0
C1208 C 0.76118 0.67454 0.33924 0.0
C1209 C 0.74404 0.76767 0.3332 0.0
C1210 C 0.73515 0.74795 0.34825 0.0
C1211 C 0.7409 0.71783 0.34981 0.0
C1212 C 0.72036 0.75809 0.36278 0.0
C1213 C 0.73813 0.80003 0.3309 0.0
C1214 C 0.74303 0.79031 0.37178 0.0
C1215 C 0.73298 0.79481 0.38779 0.0
C1216 C 0.70035 0.76701 0.39501 0.0
C1217 C 0.67577 0.737 0.38522 0.0
C1218 C 0.68577 0.73248 0.36925 0.0
H1219 H 0.7398 0.80798 0.31766 0.0
H1220 H 0.71087 0.79363 0.33589 0.0
H1221 H 0.75961 0.82401 0.33785 0.0
H1222 H 0.77002 0.81021 0.36712 0.0
H1223 H 0.75292 0.81759 0.39525 0.0
H1224 H 0.06647 0.81933 0.60358 0.0
H1225 H 0.04195 0.81069 0.63177 0.0
H1226 H 0.0478 0.71134 0.63629 0.0
H1227 H 0.07227 0.72001 0.60809 0.0
H1228 H 0.97471 0.7031 0.63824 0.0
H1229 H 0.07441 0.81165 0.68084 0.0
H1230 H 0.06855 0.82646 0.66072 0.0
H1231 H 0.08889 0.7978 0.66243 0.0
C1232 C 0.06492 0.79709 0.61102 0.0
C1233 C 0.07208 0.77081 0.60383 0.0
C1234 C 0.0504 0.79187 0.62706 0.0
C1235 C 0.04287 0.76026 0.63609 0.0
C1236 C 0.05351 0.73597 0.62954 0.0
H1237 H 0.92462 0.64386 0.72184 0.0
H1238 H 0.94421 0.65916 0.69313 0.0
C1239 C 0.06815 0.74129 0.61354 0.0
C1240 C 0.01874 0.74945 0.65093 0.0
H1241 H 0.01436 0.77272 0.691 0.0
C1242 C 0.98336 0.71828 0.6498 0.0
C1243 C 0.02978 0.76971 0.66584 0.0
C1244 C 0.06754 0.80317 0.66768 0.0
C1245 C 0.95883 0.70659 0.66327 0.0
C1246 C 0.97025 0.72612 0.6784 0.0
C1247 C 1.00541 0.75781 0.67938 0.0
C1248 C 0.94796 0.71256 0.69383 0.0
C1249 C 0.92085 0.6736 0.66107 0.0
C1250 C 0.94142 0.73644 0.70361 0.0
C1251 C 0.92982 0.72742 0.72006 0.0
C1252 C 0.92486 0.69454 0.727 0.0
C1253 C 0.92709 0.66883 0.71665 0.0
C1254 C 0.93877 0.67784 0.70023 0.0
H1255 H 0.91185 0.6704 0.64793 0.0
H1256 H 0.92141 0.64835 0.66466 0.0
H1257 H 0.90019 0.67571 0.66889 0.0
H1258 H 0.94832 0.76338 0.69897 0.0
H1259 H 0.92937 0.74817 0.72791 0.0
H1260 H 0.28439 0.92346 0.05389 0.0
H1261 H 0.28992 0.94749 0.02582 0.0
H1262 H 0.19258 0.95569 0.03352 0.0
H1263 H 0.18683 0.93131 0.06159 0.0
H1264 H 0.21545 0.93943 0.99675 0.0
H1265 H 0.31526 0.06285 0.03267 0.0
H1266 H 0.31635 0.02089 0.0358 0.0
H1267 H 0.27686 0.02355 0.04234 0.0
C1268 C 0.26257 0.92766 0.04916 0.0
C1269 C 0.23508 0.92535 0.05987 0.0
C1270 C 0.26614 0.94206 0.03321 0.0
C1271 C 0.24208 0.95402 0.02778 0.0
C1272 C 0.21142 0.94662 0.03752 0.0
H1273 H 0.26393 0.08162 0.9386 0.0
H1274 H 0.24446 0.05793 0.96673 0.0
C1275 C 0.20779 0.93205 0.05347 0.0
C1276 C 0.25309 0.98031 0.0138 0.0
H1277 H 0.31441 0.06972 0.00365 0.0
C1278 C 0.23673 0.968 0.99824 0.0
C1279 C 0.28075 0.01761 0.0159 0.0
C1280 C 0.29831 0.03231 0.03258 0.0
C1281 C 0.24842 0.99182 0.98449 0.0
C1282 C 0.27681 0.02897 0.9865 0.0
C1283 C 0.29251 0.04139 0.00218 0.0
C1284 C 0.29288 0.05389 0.97206 0.0
C1285 C 0.23143 0.9767 0.96776 0.0
C1286 C 0.32805 0.06281 0.96643 0.0
C1287 C 0.33941 0.07687 0.95047 0.0
C1288 C 0.31577 0.08225 0.93999 0.0
C1289 C 0.283 0.07844 0.94655 0.0
C1290 C 0.27149 0.06413 0.96249 0.0
H1291 H 0.2142 0.94619 0.96783 0.0
H1292 H 0.21369 0.98821 0.96412 0.0
H1293 H 0.25317 0.9849 0.95818 0.0
H1294 H 0.3451 0.05534 0.97367 0.0
H1295 H 0.36441 0.0788 0.94558 0.0
loop_
_geom_bond_atom_site_label_1
_geom_bond_atom_site_label_2
_geom_bond_distance
_geom_bond_site_symmetry_2
_ccdc_geom_bond_type
Mn0 O5 2.095 . S
Mn0 O15 2.162 . S
Mn0 O16 2.297 . S
Mn0 O24 2.385 . S
Mn0 O25 2.209 . S
Mn0 O26 2.094 . S
Mn1 O6 2.121 . S
Mn1 N8 2.257 . S
Mn1 N17 2.282 . S
Mn1 O25 2.215 . S
Mn1 O27 2.117 . S
C2 O24 1.234 . S
C2 O25 1.283 . S
C3 O15 1.281 . S
C3 O16 1.236 . S
C4 O26 1.240 . S
C4 O27 1.264 . S
O5 Mn0 2.095 . S
O5 C14 1.250 . S
O6 Mn1 2.121 . S
O6 C14 1.258 . S
C7 N8 1.326 . S
C7 C11 1.460 . S
C7 H13 0.929 . S
N8 Mn1 2.257 . S
N8 C7 1.326 . S
N8 C12 1.362 . S
C9 C10 1.258 . S
C9 C12 1.431 . S
C9 C29 1.449 . S
C10 C9 1.258 . S
C10 C11 1.477 . S
C10 H30 0.931 . S
C11 C7 1.460 . S
C11 C10 1.477 . S
C11 H31 0.930 . S
C12 N8 1.362 . S
C12 C9 1.431 . S
C12 C22 1.476 . S
H13 C7 0.929 . S
C14 O5 1.250 . S
C14 O6 1.258 . S
O15 Mn0 2.162 . S
O15 C3 1.281 . S
O16 Mn0 2.297 . S
O16 C3 1.236 . S
N17 Mn1 2.282 . S
N17 C18 1.328 . S
N17 C22 1.318 . S
C18 N17 1.328 . S
C18 C19 1.457 . S
C18 H23 0.929 . S
C19 C18 1.457 . S
C19 C20 1.291 . S
C19 H32 0.931 . S
C20 C19 1.291 . S
C20 C21 1.373 . S
C20 H33 0.929 . S
C21 C20 1.373 . S
C21 C22 1.396 . S
C21 C28 1.403 . S
C22 C12 1.476 . S
C22 N17 1.318 . S
C22 C21 1.396 . S
H23 C18 0.929 . S
O24 Mn0 2.385 . S
O24 C2 1.234 . S
O25 Mn0 2.209 . S
O25 Mn1 2.215 . S
O25 C2 1.283 . S
O26 Mn0 2.094 . S
O26 C4 1.240 . S
O27 Mn1 2.117 . S
O27 C4 1.264 . S
C28 C21 1.403 . S
C28 C29 1.399 . S
C28 H34 0.929 . S
C29 C9 1.449 . S
C29 C28 1.399 . S
C29 H35 0.930 . S
H30 C10 0.931 . S
H31 C11 0.930 . S
H32 C19 0.931 . S
H33 C20 0.929 . S
H34 C28 0.929 . S
H35 C29 0.930 . S
Mn36 O41 2.095 . S
Mn36 O51 2.162 . S
Mn36 O52 2.297 . S
Mn36 O60 2.385 . S
Mn36 O61 2.209 1_655 S
Mn36 O62 2.094 . S
Mn37 O42 2.121 1_455 S
Mn37 N44 2.257 . S
Mn37 N53 2.282 . S
Mn37 O61 2.215 . S
Mn37 O63 2.117 1_455 S
C38 O60 1.234 1_455 S
C38 O61 1.283 . S
C39 O51 1.281 . S
C39 O52 1.236 . S
C40 O62 1.240 . S
C40 O63 1.264 . S
O41 Mn36 2.095 . S
O41 C50 1.250 . S
O42 Mn37 2.121 1_655 S
O42 C50 1.258 . S
C43 N44 1.326 . S
C43 C47 1.460 . S
C43 H49 0.929 . S
N44 Mn37 2.257 . S
N44 C43 1.326 . S
N44 C48 1.362 . S
C45 C46 1.258 . S
C45 C48 1.431 . S
C45 C65 1.449 . S
C46 C45 1.258 . S
C46 C47 1.477 . S
C46 H66 0.931 . S
C47 C43 1.460 . S
C47 C46 1.477 . S
C47 H67 0.930 . S
C48 N44 1.362 . S
C48 C45 1.431 . S
C48 C58 1.476 . S
H49 C43 0.929 . S
C50 O41 1.250 . S
C50 O42 1.258 . S
O51 Mn36 2.162 . S
O51 C39 1.281 . S
O52 Mn36 2.297 . S
O52 C39 1.236 . S
N53 Mn37 2.282 . S
N53 C54 1.328 . S
N53 C58 1.318 . S
C54 N53 1.328 . S
C54 C55 1.457 . S
C54 H59 0.929 . S
C55 C54 1.457 . S
C55 C56 1.291 . S
C55 H68 0.931 . S
C56 C55 1.291 . S
C56 C57 1.373 . S
C56 H69 0.929 . S
C57 C56 1.373 . S
C57 C58 1.396 . S
C57 C64 1.403 . S
C58 C48 1.476 . S
C58 N53 1.318 . S
C58 C57 1.396 . S
H59 C54 0.929 . S
O60 Mn36 2.385 . S
O60 C38 1.234 1_655 S
O61 Mn36 2.209 1_455 S
O61 Mn37 2.215 . S
O61 C38 1.283 . S
O62 Mn36 2.094 . S
O62 C40 1.240 . S
O63 Mn37 2.117 1_655 S
O63 C40 1.264 . S
C64 C57 1.403 . S
C64 C65 1.399 . S
C64 H70 0.929 . S
C65 C45 1.449 . S
C65 C64 1.399 . S
C65 H71 0.930 . S
H66 C46 0.931 . S
H67 C47 0.930 . S
H68 C55 0.931 . S
H69 C56 0.929 . S
H70 C64 0.929 . S
H71 C65 0.930 . S
Mn72 O77 2.095 . S
Mn72 O87 2.162 . S
Mn72 O88 2.297 . S
Mn72 O96 2.385 . S
Mn72 O97 2.209 1_565 S
Mn72 O98 2.094 . S
Mn73 O78 2.121 1_545 S
Mn73 N80 2.257 . S
Mn73 N89 2.282 . S
Mn73 O97 2.215 . S
Mn73 O99 2.117 1_545 S
C74 O96 1.234 1_545 S
C74 O97 1.283 . S
C75 O87 1.281 . S
C75 O88 1.236 . S
C76 O98 1.240 . S
C76 O99 1.264 . S
O77 Mn72 2.095 . S
O77 C86 1.250 . S
O78 Mn73 2.121 1_565 S
O78 C86 1.258 . S
C79 N80 1.326 . S
C79 C83 1.460 . S
C79 H85 0.929 . S
N80 Mn73 2.257 . S
N80 C79 1.326 . S
N80 C84 1.362 . S
C81 C82 1.258 . S
C81 C84 1.431 . S
C81 C101 1.449 . S
C82 C81 1.258 . S
C82 C83 1.477 . S
C82 H102 0.931 . S
C83 C79 1.460 . S
C83 C82 1.477 . S
C83 H103 0.930 . S
C84 N80 1.362 . S
C84 C81 1.431 . S
C84 C94 1.476 . S
H85 C79 0.929 . S
C86 O77 1.250 . S
C86 O78 1.258 . S
O87 Mn72 2.162 . S
O87 C75 1.281 . S
O88 Mn72 2.297 . S
O88 C75 1.236 . S
N89 Mn73 2.282 . S
N89 C90 1.328 . S
N89 C94 1.318 . S
C90 N89 1.328 . S
C90 C91 1.457 . S
C90 H95 0.929 . S
C91 C90 1.457 . S
C91 C92 1.291 . S
C91 H104 0.931 . S
C92 C91 1.291 . S
C92 C93 1.373 . S
C92 H105 0.929 . S
C93 C92 1.373 . S
C93 C94 1.396 . S
C93 C100 1.403 . S
C94 C84 1.476 . S
C94 N89 1.318 . S
C94 C93 1.396 . S
H95 C90 0.929 . S
O96 Mn72 2.385 . S
O96 C74 1.234 1_565 S
O97 Mn72 2.209 1_545 S
O97 Mn73 2.215 . S
O97 C74 1.283 . S
O98 Mn72 2.094 . S
O98 C76 1.240 . S
O99 Mn73 2.117 1_565 S
O99 C76 1.264 . S
C100 C93 1.403 . S
C100 C101 1.399 . S
C100 H106 0.929 . S
C101 C81 1.449 . S
C101 C100 1.399 . S
C101 H107 0.930 . S
H102 C82 0.931 . S
H103 C83 0.930 . S
H104 C91 0.931 . S
H105 C92 0.929 . S
H106 C100 0.929 . S
H107 C101 0.930 . S
Mn108 O113 2.095 . S
Mn108 O123 2.162 . S
Mn108 O124 2.297 . S
Mn108 O132 2.385 . S
Mn108 O133 2.209 . S
Mn108 O134 2.094 . S
Mn109 O114 2.121 . S
Mn109 N116 2.257 . S
Mn109 N125 2.282 . S
Mn109 O133 2.215 . S
Mn109 O135 2.117 . S
C110 O132 1.234 . S
C110 O133 1.283 . S
C111 O123 1.281 . S
C111 O124 1.236 . S
C112 O134 1.240 . S
C112 O135 1.264 . S
O113 Mn108 2.095 . S
O113 C122 1.250 . S
O114 Mn109 2.121 . S
O114 C122 1.258 . S
C115 N116 1.326 . S
C115 C119 1.460 . S
C115 H121 0.929 . S
N116 Mn109 2.257 . S
N116 C115 1.326 . S
N116 C120 1.362 . S
C117 C118 1.258 . S
C117 C120 1.431 . S
C117 C137 1.449 . S
C118 C117 1.258 . S
C118 C119 1.477 . S
C118 H138 0.931 . S
C119 C115 1.460 . S
C119 C118 1.477 . S
C119 H139 0.930 . S
C120 N116 1.362 . S
C120 C117 1.431 . S
C120 C130 1.476 . S
H121 C115 0.929 . S
C122 O113 1.250 . S
C122 O114 1.258 . S
O123 Mn108 2.162 . S
O123 C111 1.281 . S
O124 Mn108 2.297 . S
O124 C111 1.236 . S
N125 Mn109 2.282 . S
N125 C126 1.328 . S
N125 C130 1.318 . S
C126 N125 1.328 . S
C126 C127 1.457 . S
C126 H131 0.929 . S
C127 C126 1.457 . S
C127 C128 1.291 . S
C127 H140 0.931 . S
C128 C127 1.291 . S
C128 C129 1.373 . S
C128 H141 0.929 . S
C129 C128 1.373 . S
C129 C130 1.396 . S
C129 C136 1.403 . S
C130 C120 1.476 . S
C130 N125 1.318 . S
C130 C129 1.396 . S
H131 C126 0.929 . S
O132 Mn108 2.385 . S
O132 C110 1.234 . S
O133 Mn108 2.209 . S
O133 Mn109 2.215 . S
O133 C110 1.283 . S
O134 Mn108 2.094 . S
O134 C112 1.240 . S
O135 Mn109 2.117 . S
O135 C112 1.264 . S
C136 C129 1.403 . S
C136 C137 1.399 . S
C136 H142 0.929 . S
C137 C117 1.449 . S
C137 C136 1.399 . S
C137 H143 0.930 . S
H138 C118 0.931 . S
H139 C119 0.930 . S
H140 C127 0.931 . S
H141 C128 0.929 . S
H142 C136 0.929 . S
H143 C137 0.930 . S
Mn144 O149 2.095 . S
Mn144 O159 2.162 . S
Mn144 O160 2.297 . S
Mn144 O168 2.385 . S
Mn144 O169 2.209 1_455 S
Mn144 O170 2.094 . S
Mn145 O150 2.121 1_655 S
Mn145 N152 2.257 . S
Mn145 N161 2.282 . S
Mn145 O169 2.215 . S
Mn145 O171 2.117 1_655 S
C146 O168 1.234 1_655 S
C146 O169 1.283 . S
C147 O159 1.281 . S
C147 O160 1.236 . S
C148 O170 1.240 . S
C148 O171 1.264 . S
O149 Mn144 2.095 . S
O149 C158 1.250 . S
O150 Mn145 2.121 1_455 S
O150 C158 1.258 . S
C151 N152 1.326 . S
C151 C155 1.460 . S
C151 H157 0.929 . S
N152 Mn145 2.257 . S
N152 C151 1.326 . S
N152 C156 1.362 . S
C153 C154 1.258 . S
C153 C156 1.431 . S
C153 C173 1.449 . S
C154 C153 1.258 . S
C154 C155 1.477 . S
C154 H174 0.931 . S
C155 C151 1.460 . S
C155 C154 1.477 . S
C155 H175 0.930 . S
C156 N152 1.362 . S
C156 C153 1.431 . S
C156 C166 1.476 . S
H157 C151 0.929 . S
C158 O149 1.250 . S
C158 O150 1.258 . S
O159 Mn144 2.162 . S
O159 C147 1.281 . S
O160 Mn144 2.297 . S
O160 C147 1.236 . S
N161 Mn145 2.282 . S
N161 C162 1.328 . S
N161 C166 1.318 . S
C162 N161 1.328 . S
C162 C163 1.457 . S
C162 H167 0.929 . S
C163 C162 1.457 . S
C163 C164 1.291 . S
C163 H176 0.931 . S
C164 C163 1.291 . S
C164 C165 1.373 . S
C164 H177 0.929 . S
C165 C164 1.373 . S
C165 C166 1.396 . S
C165 C172 1.403 . S
C166 C156 1.476 . S
C166 N161 1.318 . S
C166 C165 1.396 . S
H167 C162 0.929 . S
O168 Mn144 2.385 . S
O168 C146 1.234 1_455 S
O169 Mn144 2.209 1_655 S
O169 Mn145 2.215 . S
O169 C146 1.283 . S
O170 Mn144 2.094 . S
O170 C148 1.240 . S
O171 Mn145 2.117 1_455 S
O171 C148 1.264 . S
C172 C165 1.403 . S
C172 C173 1.399 . S
C172 H178 0.929 . S
C173 C153 1.449 . S
C173 C172 1.399 . S
C173 H179 0.930 . S
H174 C154 0.931 . S
H175 C155 0.930 . S
H176 C163 0.931 . S
H177 C164 0.929 . S
H178 C172 0.929 . S
H179 C173 0.930 . S
Mn180 O185 2.095 . S
Mn180 O195 2.162 . S
Mn180 O196 2.297 . S
Mn180 O204 2.385 . S
Mn180 O205 2.209 1_545 S
Mn180 O206 2.094 . S
Mn181 O186 2.121 1_565 S
Mn181 N188 2.257 . S
Mn181 N197 2.282 . S
Mn181 O205 2.215 . S
Mn181 O207 2.117 1_565 S
C182 O204 1.234 1_565 S
C182 O205 1.283 . S
C183 O195 1.281 . S
C183 O196 1.236 . S
C184 O206 1.240 . S
C184 O207 1.264 . S
O185 Mn180 2.095 . S
O185 C194 1.250 . S
O186 Mn181 2.121 1_545 S
O186 C194 1.258 . S
C187 N188 1.326 . S
C187 C191 1.460 . S
C187 H193 0.929 . S
N188 Mn181 2.257 . S
N188 C187 1.326 . S
N188 C192 1.362 . S
C189 C190 1.258 . S
C189 C192 1.431 . S
C189 C209 1.449 . S
C190 C189 1.258 . S
C190 C191 1.477 . S
C190 H210 0.931 . S
C191 C187 1.460 . S
C191 C190 1.477 . S
C191 H211 0.930 . S
C192 N188 1.362 . S
C192 C189 1.431 . S
C192 C202 1.476 . S
H193 C187 0.929 . S
C194 O185 1.250 . S
C194 O186 1.258 . S
O195 Mn180 2.162 . S
O195 C183 1.281 . S
O196 Mn180 2.297 . S
O196 C183 1.236 . S
N197 Mn181 2.282 . S
N197 C198 1.328 . S
N197 C202 1.318 . S
C198 N197 1.328 . S
C198 C199 1.457 . S
C198 H203 0.929 . S
C199 C198 1.457 . S
C199 C200 1.291 . S
C199 H212 0.931 . S
C200 C199 1.291 . S
C200 C201 1.373 . S
C200 H213 0.929 . S
C201 C200 1.373 . S
C201 C202 1.396 . S
C201 C208 1.403 . S
C202 C192 1.476 . S
C202 N197 1.318 . S
C202 C201 1.396 . S
H203 C198 0.929 . S
O204 Mn180 2.385 . S
O204 C182 1.234 1_545 S
O205 Mn180 2.209 1_565 S
O205 Mn181 2.215 . S
O205 C182 1.283 . S
O206 Mn180 2.094 . S
O206 C184 1.240 . S
O207 Mn181 2.117 1_545 S
O207 C184 1.264 . S
C208 C201 1.403 . S
C208 C209 1.399 . S
C208 H214 0.929 . S
C209 C189 1.449 . S
C209 C208 1.399 . S
C209 H215 0.930 . S
H210 C190 0.931 . S
H211 C191 0.930 . S
H212 C199 0.931 . S
H213 C200 0.929 . S
H214 C208 0.929 . S
H215 C209 0.930 . S
Mn216 O221 2.095 . S
Mn216 O231 2.162 . S
Mn216 O232 2.297 . S
Mn216 O240 2.385 . S
Mn216 O241 2.209 . S
Mn216 O242 2.094 . S
Mn217 O222 2.121 . S
Mn217 N224 2.257 . S
Mn217 N233 2.282 . S
Mn217 O241 2.215 . S
Mn217 O243 2.117 . S
C218 O240 1.234 . S
C218 O241 1.283 . S
C219 O231 1.281 . S
C219 O232 1.236 . S
C220 O242 1.240 . S
C220 O243 1.264 . S
O221 Mn216 2.095 . S
O221 C230 1.250 . S
O222 Mn217 2.121 . S
O222 C230 1.258 . S
C223 N224 1.326 . S
C223 C227 1.460 . S
C223 H229 0.929 . S
N224 Mn217 2.257 . S
N224 C223 1.326 . S
N224 C228 1.362 . S
C225 C226 1.258 . S
C225 C228 1.431 . S
C225 C245 1.449 . S
C226 C225 1.258 . S
C226 C227 1.477 . S
C226 H246 0.931 . S
C227 C223 1.460 . S
C227 C226 1.477 . S
C227 H247 0.930 . S
C228 N224 1.362 . S
C228 C225 1.431 . S
C228 C238 1.476 . S
H229 C223 0.929 . S
C230 O221 1.250 . S
C230 O222 1.258 . S
O231 Mn216 2.162 . S
O231 C219 1.281 . S
O232 Mn216 2.297 . S
O232 C219 1.236 . S
N233 Mn217 2.282 . S
N233 C234 1.328 . S
N233 C238 1.318 . S
C234 N233 1.328 . S
C234 C235 1.457 . S
C234 H239 0.929 . S
C235 C234 1.457 . S
C235 C236 1.291 . S
C235 H248 0.931 . S
C236 C235 1.291 . S
C236 C237 1.373 . S
C236 H249 0.929 . S
C237 C236 1.373 . S
C237 C238 1.396 . S
C237 C244 1.403 . S
C238 C228 1.476 . S
C238 N233 1.318 . S
C238 C237 1.396 . S
H239 C234 0.929 . S
O240 Mn216 2.385 . S
O240 C218 1.234 . S
O241 Mn216 2.209 . S
O241 Mn217 2.215 . S
O241 C218 1.283 . S
O242 Mn216 2.094 . S
O242 C220 1.240 . S
O243 Mn217 2.117 . S
O243 C220 1.264 . S
C244 C237 1.403 . S
C244 C245 1.399 . S
C244 H250 0.929 . S
C245 C225 1.449 . S
C245 C244 1.399 . S
C245 H251 0.930 . S
H246 C226 0.931 . S
H247 C227 0.930 . S
H248 C235 0.931 . S
H249 C236 0.929 . S
H250 C244 0.929 . S
H251 C245 0.930 . S
Mn252 O257 2.095 . S
Mn252 O267 2.162 . S
Mn252 O268 2.297 . S
Mn252 O276 2.385 . S
Mn252 O277 2.209 1_655 S
Mn252 O278 2.094 . S
Mn253 O258 2.121 1_455 S
Mn253 N260 2.257 . S
Mn253 N269 2.282 . S
Mn253 O277 2.215 . S
Mn253 O279 2.117 1_455 S
C254 O276 1.234 1_455 S
C254 O277 1.283 . S
C255 O267 1.281 . S
C255 O268 1.236 . S
C256 O278 1.240 . S
C256 O279 1.264 . S
O257 Mn252 2.095 . S
O257 C266 1.250 . S
O258 Mn253 2.121 1_655 S
O258 C266 1.258 . S
C259 N260 1.326 . S
C259 C263 1.460 . S
C259 H265 0.929 . S
N260 Mn253 2.257 . S
N260 C259 1.326 . S
N260 C264 1.362 . S
C261 C262 1.258 . S
C261 C264 1.431 . S
C261 C281 1.449 . S
C262 C261 1.258 . S
C262 C263 1.477 . S
C262 H282 0.931 . S
C263 C259 1.460 . S
C263 C262 1.477 . S
C263 H283 0.930 . S
C264 N260 1.362 . S
C264 C261 1.431 . S
C264 C274 1.476 . S
H265 C259 0.929 . S
C266 O257 1.250 . S
C266 O258 1.258 . S
O267 Mn252 2.162 . S
O267 C255 1.281 . S
O268 Mn252 2.297 . S
O268 C255 1.236 . S
N269 Mn253 2.282 . S
N269 C270 1.328 . S
N269 C274 1.318 . S
C270 N269 1.328 . S
C270 C271 1.457 . S
C270 H275 0.929 . S
C271 C270 1.457 . S
C271 C272 1.291 . S
C271 H284 0.931 . S
C272 C271 1.291 . S
C272 C273 1.373 . S
C272 H285 0.929 . S
C273 C272 1.373 . S
C273 C274 1.396 . S
C273 C280 1.403 . S
C274 C264 1.476 . S
C274 N269 1.318 . S
C274 C273 1.396 . S
H275 C270 0.929 . S
O276 Mn252 2.385 . S
O276 C254 1.234 1_655 S
O277 Mn252 2.209 1_455 S
O277 Mn253 2.215 . S
O277 C254 1.283 . S
O278 Mn252 2.094 . S
O278 C256 1.240 . S
O279 Mn253 2.117 1_655 S
O279 C256 1.264 . S
C280 C273 1.403 . S
C280 C281 1.399 . S
C280 H286 0.929 . S
C281 C261 1.449 . S
C281 C280 1.399 . S
C281 H287 0.930 . S
H282 C262 0.931 . S
H283 C263 0.930 . S
H284 C271 0.931 . S
H285 C272 0.929 . S
H286 C280 0.929 . S
H287 C281 0.930 . S
Mn288 O293 2.095 . S
Mn288 O303 2.162 . S
Mn288 O304 2.297 . S
Mn288 O312 2.385 . S
Mn288 O313 2.209 1_565 S
Mn288 O314 2.094 . S
Mn289 O294 2.121 1_545 S
Mn289 N296 2.257 . S
Mn289 N305 2.282 . S
Mn289 O313 2.215 . S
Mn289 O315 2.117 1_545 S
C290 O312 1.234 1_545 S
C290 O313 1.283 . S
C291 O303 1.281 . S
C291 O304 1.236 . S
C292 O314 1.240 . S
C292 O315 1.264 . S
O293 Mn288 2.095 . S
O293 C302 1.250 . S
O294 Mn289 2.121 1_565 S
O294 C302 1.258 . S
C295 N296 1.326 . S
C295 C299 1.460 . S
C295 H301 0.929 . S
N296 Mn289 2.257 . S
N296 C295 1.326 . S
N296 C300 1.362 . S
C297 C298 1.258 . S
C297 C300 1.431 . S
C297 C317 1.449 . S
C298 C297 1.258 . S
C298 C299 1.477 . S
C298 H318 0.931 . S
C299 C295 1.460 . S
C299 C298 1.477 . S
C299 H319 0.930 . S
C300 N296 1.362 . S
C300 C297 1.431 . S
C300 C310 1.476 . S
H301 C295 0.929 . S
C302 O293 1.250 . S
C302 O294 1.258 . S
O303 Mn288 2.162 . S
O303 C291 1.281 . S
O304 Mn288 2.297 . S
O304 C291 1.236 . S
N305 Mn289 2.282 . S
N305 C306 1.328 . S
N305 C310 1.318 . S
C306 N305 1.328 . S
C306 C307 1.457 . S
C306 H311 0.929 . S
C307 C306 1.457 . S
C307 C308 1.291 . S
C307 H320 0.931 . S
C308 C307 1.291 . S
C308 C309 1.373 . S
C308 H321 0.929 . S
C309 C308 1.373 . S
C309 C310 1.396 . S
C309 C316 1.403 . S
C310 C300 1.476 . S
C310 N305 1.318 . S
C310 C309 1.396 . S
H311 C306 0.929 . S
O312 Mn288 2.385 . S
O312 C290 1.234 1_565 S
O313 Mn288 2.209 1_545 S
O313 Mn289 2.215 . S
O313 C290 1.283 . S
O314 Mn288 2.094 . S
O314 C292 1.240 . S
O315 Mn289 2.117 1_565 S
O315 C292 1.264 . S
C316 C309 1.403 . S
C316 C317 1.399 . S
C316 H322 0.929 . S
C317 C297 1.449 . S
C317 C316 1.399 . S
C317 H323 0.930 . S
H318 C298 0.931 . S
H319 C299 0.930 . S
H320 C307 0.931 . S
H321 C308 0.929 . S
H322 C316 0.929 . S
H323 C317 0.930 . S
Mn324 O329 2.095 . S
Mn324 O339 2.162 . S
Mn324 O340 2.297 . S
Mn324 O348 2.385 . S
Mn324 O349 2.209 . S
Mn324 O350 2.094 . S
Mn325 O330 2.121 . S
Mn325 N332 2.257 . S
Mn325 N341 2.282 . S
Mn325 O349 2.215 . S
Mn325 O351 2.117 . S
C326 O348 1.234 . S
C326 O349 1.283 . S
C327 O339 1.281 . S
C327 O340 1.236 . S
C328 O350 1.240 . S
C328 O351 1.264 . S
O329 Mn324 2.095 . S
O329 C338 1.250 . S
O330 Mn325 2.121 . S
O330 C338 1.258 . S
C331 N332 1.326 . S
C331 C335 1.460 . S
C331 H337 0.929 . S
N332 Mn325 2.257 . S
N332 C331 1.326 . S
N332 C336 1.362 . S
C333 C334 1.258 . S
C333 C336 1.431 . S
C333 C353 1.449 . S
C334 C333 1.258 . S
C334 C335 1.477 . S
C334 H354 0.931 . S
C335 C331 1.460 . S
C335 C334 1.477 . S
C335 H355 0.930 . S
C336 N332 1.362 . S
C336 C333 1.431 . S
C336 C346 1.476 . S
H337 C331 0.929 . S
C338 O329 1.250 . S
C338 O330 1.258 . S
O339 Mn324 2.162 . S
O339 C327 1.281 . S
O340 Mn324 2.297 . S
O340 C327 1.236 . S
N341 Mn325 2.282 . S
N341 C342 1.328 . S
N341 C346 1.318 . S
C342 N341 1.328 . S
C342 C343 1.457 . S
C342 H347 0.929 . S
C343 C342 1.457 . S
C343 C344 1.291 . S
C343 H356 0.931 . S
C344 C343 1.291 . S
C344 C345 1.373 . S
C344 H357 0.929 . S
C345 C344 1.373 . S
C345 C346 1.396 . S
C345 C352 1.403 . S
C346 C336 1.476 . S
C346 N341 1.318 . S
C346 C345 1.396 . S
H347 C342 0.929 . S
O348 Mn324 2.385 . S
O348 C326 1.234 . S
O349 Mn324 2.209 . S
O349 Mn325 2.215 . S
O349 C326 1.283 . S
O350 Mn324 2.094 . S
O350 C328 1.240 . S
O351 Mn325 2.117 . S
O351 C328 1.264 . S
C352 C345 1.403 . S
C352 C353 1.399 . S
C352 H358 0.929 . S
C353 C333 1.449 . S
C353 C352 1.399 . S
C353 H359 0.930 . S
H354 C334 0.931 . S
H355 C335 0.930 . S
H356 C343 0.931 . S
H357 C344 0.929 . S
H358 C352 0.929 . S
H359 C353 0.930 . S
Mn360 O365 2.095 . S
Mn360 O375 2.162 . S
Mn360 O376 2.297 . S
Mn360 O384 2.385 . S
Mn360 O385 2.209 1_455 S
Mn360 O386 2.094 . S
Mn361 O366 2.121 1_655 S
Mn361 N368 2.257 . S
Mn361 N377 2.282 . S
Mn361 O385 2.215 . S
Mn361 O387 2.117 1_655 S
C362 O384 1.234 1_655 S
C362 O385 1.283 . S
C363 O375 1.281 . S
C363 O376 1.236 . S
C364 O386 1.240 . S
C364 O387 1.264 . S
O365 Mn360 2.095 . S
O365 C374 1.250 . S
O366 Mn361 2.121 1_455 S
O366 C374 1.258 . S
C367 N368 1.326 . S
C367 C371 1.460 . S
C367 H373 0.929 . S
N368 Mn361 2.257 . S
N368 C367 1.326 . S
N368 C372 1.362 . S
C369 C370 1.258 . S
C369 C372 1.431 . S
C369 C389 1.449 . S
C370 C369 1.258 . S
C370 C371 1.477 . S
C370 H390 0.931 . S
C371 C367 1.460 . S
C371 C370 1.477 . S
C371 H391 0.930 . S
C372 N368 1.362 . S
C372 C369 1.431 . S
C372 C382 1.476 . S
H373 C367 0.929 . S
C374 O365 1.250 . S
C374 O366 1.258 . S
O375 Mn360 2.162 . S
O375 C363 1.281 . S
O376 Mn360 2.297 . S
O376 C363 1.236 . S
N377 Mn361 2.282 . S
N377 C378 1.328 . S
N377 C382 1.318 . S
C378 N377 1.328 . S
C378 C379 1.457 . S
C378 H383 0.929 . S
C379 C378 1.457 . S
C379 C380 1.291 . S
C379 H392 0.931 . S
C380 C379 1.291 . S
C380 C381 1.373 . S
C380 H393 0.929 . S
C381 C380 1.373 . S
C381 C382 1.396 . S
C381 C388 1.403 . S
C382 C372 1.476 . S
C382 N377 1.318 . S
C382 C381 1.396 . S
H383 C378 0.929 . S
O384 Mn360 2.385 . S
O384 C362 1.234 1_455 S
O385 Mn360 2.209 1_655 S
O385 Mn361 2.215 . S
O385 C362 1.283 . S
O386 Mn360 2.094 . S
O386 C364 1.240 . S
O387 Mn361 2.117 1_455 S
O387 C364 1.264 . S
C388 C381 1.403 . S
C388 C389 1.399 . S
C388 H394 0.929 . S
C389 C369 1.449 . S
C389 C388 1.399 . S
C389 H395 0.930 . S
H390 C370 0.931 . S
H391 C371 0.930 . S
H392 C379 0.931 . S
H393 C380 0.929 . S
H394 C388 0.929 . S
H395 C389 0.930 . S
Mn396 O401 2.095 . S
Mn396 O411 2.162 . S
Mn396 O412 2.297 . S
Mn396 O420 2.385 . S
Mn396 O421 2.209 1_545 S
Mn396 O422 2.094 . S
Mn397 O402 2.121 1_565 S
Mn397 N404 2.257 . S
Mn397 N413 2.282 . S
Mn397 O421 2.215 . S
Mn397 O423 2.117 1_565 S
C398 O420 1.234 1_565 S
C398 O421 1.283 . S
C399 O411 1.281 . S
C399 O412 1.236 . S
C400 O422 1.240 . S
C400 O423 1.264 . S
O401 Mn396 2.095 . S
O401 C410 1.250 . S
O402 Mn397 2.121 1_545 S
O402 C410 1.258 . S
C403 N404 1.326 . S
C403 C407 1.460 . S
C403 H409 0.929 . S
N404 Mn397 2.257 . S
N404 C403 1.326 . S
N404 C408 1.362 . S
C405 C406 1.258 . S
C405 C408 1.431 . S
C405 C425 1.449 . S
C406 C405 1.258 . S
C406 C407 1.477 . S
C406 H426 0.931 . S
C407 C403 1.460 . S
C407 C406 1.477 . S
C407 H427 0.930 . S
C408 N404 1.362 . S
C408 C405 1.431 . S
C408 C418 1.476 . S
H409 C403 0.929 . S
C410 O401 1.250 . S
C410 O402 1.258 . S
O411 Mn396 2.162 . S
O411 C399 1.281 . S
O412 Mn396 2.297 . S
O412 C399 1.236 . S
N413 Mn397 2.282 . S
N413 C414 1.328 . S
N413 C418 1.318 . S
C414 N413 1.328 . S
C414 C415 1.457 . S
C414 H419 0.929 . S
C415 C414 1.457 . S
C415 C416 1.291 . S
C415 H428 0.931 . S
C416 C415 1.291 . S
C416 C417 1.373 . S
C416 H429 0.929 . S
C417 C416 1.373 . S
C417 C418 1.396 . S
C417 C424 1.403 . S
C418 C408 1.476 . S
C418 N413 1.318 . S
C418 C417 1.396 . S
H419 C414 0.929 . S
O420 Mn396 2.385 . S
O420 C398 1.234 1_545 S
O421 Mn396 2.209 1_565 S
O421 Mn397 2.215 . S
O421 C398 1.283 . S
O422 Mn396 2.094 . S
O422 C400 1.240 . S
O423 Mn397 2.117 1_545 S
O423 C400 1.264 . S
C424 C417 1.403 . S
C424 C425 1.399 . S
C424 H430 0.929 . S
C425 C405 1.449 . S
C425 C424 1.399 . S
C425 H431 0.930 . S
H426 C406 0.931 . S
H427 C407 0.930 . S
H428 C415 0.931 . S
H429 C416 0.929 . S
H430 C424 0.929 . S
H431 C425 0.930 . S
H432 C440 0.929 . S
H433 C442 0.930 . S
H434 C444 0.930 . S
H435 C447 0.929 . S
H436 C450 0.930 . S
H437 C452 0.960 . S
H438 C452 0.960 . S
H439 C452 0.960 . S
C440 H432 0.929 . S
C440 C441 1.377 . S
C440 C442 1.384 . S
C441 C440 1.377 . S
C441 C447 1.390 . S
C442 H433 0.930 . S
C442 C440 1.384 . S
C442 C443 1.372 . S
C443 C442 1.372 . S
C443 C444 1.400 . S
C443 C448 1.490 . S
C444 H434 0.930 . S
C444 C443 1.400 . S
C444 C447 1.386 . S
H445 C461 0.930 . S
H446 C462 0.931 . S
C447 H435 0.929 . S
C447 C441 1.390 . S
C447 C444 1.386 . S
C448 C443 1.490 . S
C448 C450 1.395 . S
C448 C451 1.403 . S
H449 C455 0.930 . S
C450 H436 0.930 . S
C450 C448 1.395 . S
C450 C453 1.403 1_655 S
C451 C448 1.403 . S
C451 C452 1.524 . S
C451 C455 1.400 1_655 S
C452 H437 0.960 . S
C452 H438 0.960 . S
C452 H439 0.960 . S
C452 C451 1.524 . S
C453 C450 1.403 1_455 S
C453 C454 1.392 . S
C453 C457 1.495 . S
C454 C453 1.392 . S
C454 C455 1.385 . S
C454 C456 1.478 . S
C455 H449 0.930 . S
C455 C451 1.400 1_455 S
C455 C454 1.385 . S
C456 C454 1.478 . S
C456 C458 1.381 . S
C456 C462 1.383 . S
C457 C453 1.495 . S
C457 H463 0.959 . S
C457 H464 0.961 . S
C457 H465 0.960 . S
C458 C456 1.381 . S
C458 C459 1.394 . S
C458 H466 0.930 . S
C459 C458 1.394 . S
C459 C460 1.383 . S
C459 H467 0.929 . S
C460 C459 1.383 . S
C460 C461 1.377 . S
C461 H445 0.930 . S
C461 C460 1.377 . S
C461 C462 1.379 . S
C462 H446 0.931 . S
C462 C456 1.383 . S
C462 C461 1.379 . S
H463 C457 0.959 . S
H464 C457 0.961 . S
H465 C457 0.960 . S
H466 C458 0.930 . S
H467 C459 0.929 . S
H468 C476 0.929 . S
H469 C478 0.930 . S
H470 C480 0.930 . S
H471 C483 0.929 . S
H472 C486 0.930 . S
H473 C488 0.960 . S
H474 C488 0.960 . S
H475 C488 0.960 . S
C476 H468 0.929 . S
C476 C477 1.377 . S
C476 C478 1.384 . S
C477 C476 1.377 . S
C477 C483 1.390 . S
C478 H469 0.930 . S
C478 C476 1.384 . S
C478 C479 1.372 . S
C479 C478 1.372 . S
C479 C480 1.400 . S
C479 C484 1.490 . S
C480 H470 0.930 . S
C480 C479 1.400 . S
C480 C483 1.386 . S
H481 C497 0.930 . S
H482 C498 0.931 . S
C483 H471 0.929 . S
C483 C477 1.390 . S
C483 C480 1.386 . S
C484 C479 1.490 . S
C484 C486 1.395 . S
C484 C487 1.403 . S
H485 C491 0.930 . S
C486 H472 0.930 . S
C486 C484 1.395 . S
C486 C489 1.403 1_545 S
C487 C484 1.403 . S
C487 C488 1.524 . S
C487 C491 1.400 1_545 S
C488 H473 0.960 . S
C488 H474 0.960 . S
C488 H475 0.960 . S
C488 C487 1.524 . S
C489 C486 1.403 1_565 S
C489 C490 1.392 . S
C489 C493 1.495 . S
C490 C489 1.392 . S
C490 C491 1.385 . S
C490 C492 1.478 . S
C491 H485 0.930 . S
C491 C487 1.400 1_565 S
C491 C490 1.385 . S
C492 C490 1.478 . S
C492 C494 1.381 . S
C492 C498 1.383 . S
C493 C489 1.495 . S
C493 H499 0.959 . S
C493 H500 0.961 . S
C493 H501 0.960 . S
C494 C492 1.381 . S
C494 C495 1.394 . S
C494 H502 0.930 . S
C495 C494 1.394 . S
C495 C496 1.383 . S
C495 H503 0.929 . S
C496 C495 1.383 . S
C496 C497 1.377 . S
C497 H481 0.930 . S
C497 C496 1.377 . S
C497 C498 1.379 . S
C498 H482 0.931 . S
C498 C492 1.383 . S
C498 C497 1.379 . S
H499 C493 0.959 . S
H500 C493 0.961 . S
H501 C493 0.960 . S
H502 C494 0.930 . S
H503 C495 0.929 . S
H504 C512 0.929 . S
H505 C514 0.930 . S
H506 C516 0.930 . S
H507 C519 0.929 . S
H508 C522 0.930 . S
H509 C524 0.960 . S
H510 C524 0.960 . S
H511 C524 0.960 . S
C512 H504 0.929 . S
C512 C513 1.377 . S
C512 C514 1.384 . S
C513 C512 1.377 . S
C513 C519 1.390 . S
C514 H505 0.930 . S
C514 C512 1.384 . S
C514 C515 1.372 . S
C515 C514 1.372 . S
C515 C516 1.400 . S
C515 C520 1.490 . S
C516 H506 0.930 . S
C516 C515 1.400 . S
C516 C519 1.386 . S
H517 C533 0.930 . S
H518 C534 0.931 . S
C519 H507 0.929 . S
C519 C513 1.390 . S
C519 C516 1.386 . S
C520 C515 1.490 . S
C520 C522 1.395 . S
C520 C523 1.403 . S
H521 C527 0.930 . S
C522 H508 0.930 . S
C522 C520 1.395 . S
C522 C525 1.403 . S
C523 C520 1.403 . S
C523 C524 1.524 . S
C523 C527 1.400 . S
C524 H509 0.960 . S
C524 H510 0.960 . S
C524 H511 0.960 . S
C524 C523 1.524 . S
C525 C522 1.403 . S
C525 C526 1.392 . S
C525 C529 1.495 . S
C526 C525 1.392 . S
C526 C527 1.385 . S
C526 C528 1.478 . S
C527 H521 0.930 . S
C527 C523 1.400 . S
C527 C526 1.385 . S
C528 C526 1.478 . S
C528 C530 1.381 . S
C528 C534 1.383 . S
C529 C525 1.495 . S
C529 H535 0.959 . S
C529 H536 0.961 . S
C529 H537 0.960 . S
C530 C528 1.381 . S
C530 C531 1.394 . S
C530 H538 0.930 . S
C531 C530 1.394 . S
C531 C532 1.383 . S
C531 H539 0.929 . S
C532 C531 1.383 . S
C532 C533 1.377 . S
C533 H517 0.930 . S
C533 C532 1.377 . S
C533 C534 1.379 . S
C534 H518 0.931 . S
C534 C528 1.383 . S
C534 C533 1.379 . S
H535 C529 0.959 . S
H536 C529 0.961 . S
H537 C529 0.960 . S
H538 C530 0.930 . S
H539 C531 0.929 . S
H540 C548 0.929 . S
H541 C550 0.930 . S
H542 C552 0.930 . S
H543 C555 0.929 . S
H544 C558 0.930 . S
H545 C560 0.960 . S
H546 C560 0.960 . S
H547 C560 0.960 . S
C548 H540 0.929 . S
C548 C549 1.377 . S
C548 C550 1.384 . S
C549 C548 1.377 . S
C549 C555 1.390 . S
C550 H541 0.930 . S
C550 C548 1.384 . S
C550 C551 1.372 . S
C551 C550 1.372 . S
C551 C552 1.400 . S
C551 C556 1.490 . S
C552 H542 0.930 . S
C552 C551 1.400 . S
C552 C555 1.386 . S
H553 C569 0.930 . S
H554 C570 0.931 . S
C555 H543 0.929 . S
C555 C549 1.390 . S
C555 C552 1.386 . S
C556 C551 1.490 . S
C556 C558 1.395 . S
C556 C559 1.403 . S
H557 C563 0.930 . S
C558 H544 0.930 . S
C558 C556 1.395 . S
C558 C561 1.403 1_655 S
C559 C556 1.403 . S
C559 C560 1.524 . S
C559 C563 1.400 1_655 S
C560 H545 0.960 . S
C560 H546 0.960 . S
C560 H547 0.960 . S
C560 C559 1.524 . S
C561 C558 1.403 1_455 S
C561 C562 1.392 . S
C561 C565 1.495 . S
C562 C561 1.392 . S
C562 C563 1.385 . S
C562 C564 1.478 . S
C563 H557 0.930 . S
C563 C559 1.400 1_455 S
C563 C562 1.385 . S
C564 C562 1.478 . S
C564 C566 1.381 . S
C564 C570 1.383 . S
C565 C561 1.495 . S
C565 H571 0.959 . S
C565 H572 0.961 . S
C565 H573 0.960 . S
C566 C564 1.381 . S
C566 C567 1.394 . S
C566 H574 0.930 . S
C567 C566 1.394 . S
C567 C568 1.383 . S
C567 H575 0.929 . S
C568 C567 1.383 . S
C568 C569 1.377 . S
C569 H553 0.930 . S
C569 C568 1.377 . S
C569 C570 1.379 . S
C570 H554 0.931 . S
C570 C564 1.383 . S
C570 C569 1.379 . S
H571 C565 0.959 . S
H572 C565 0.961 . S
H573 C565 0.960 . S
H574 C566 0.930 . S
H575 C567 0.929 . S
H576 C584 0.929 . S
H577 C586 0.930 . S
H578 C588 0.930 . S
H579 C591 0.929 . S
H580 C594 0.930 . S
H581 C596 0.963 . S
H582 C596 0.960 . S
H583 C596 0.960 . S
C584 H576 0.929 . S
C584 C585 1.377 . S
C584 C586 1.384 . S
C585 C584 1.377 . S
C585 C591 1.390 . S
C586 H577 0.930 . S
C586 C584 1.384 . S
C586 C587 1.372 . S
C587 C586 1.372 . S
C587 C588 1.400 . S
C587 C592 1.490 . S
C588 H578 0.930 . S
C588 C587 1.400 . S
C588 C591 1.386 . S
H589 C605 0.930 . S
H590 C606 0.931 . S
C591 H579 0.929 . S
C591 C585 1.390 . S
C591 C588 1.386 . S
C592 C587 1.490 . S
C592 C594 1.395 . S
C592 C595 1.403 . S
H593 C599 0.930 . S
C594 H580 0.930 . S
C594 C592 1.395 . S
C594 C597 1.403 1_545 S
C595 C592 1.403 . S
C595 C596 1.524 . S
C595 C599 1.400 1_545 S
C596 H581 0.963 . S
C596 H582 0.960 . S
C596 H583 0.960 . S
C596 C595 1.524 . S
C597 C594 1.403 1_565 S
C597 C598 1.392 . S
C597 C601 1.495 . S
C598 C597 1.392 . S
C598 C599 1.385 . S
C598 C600 1.478 . S
C599 H593 0.930 . S
C599 C595 1.400 1_565 S
C599 C598 1.385 . S
C600 C598 1.478 . S
C600 C602 1.381 . S
C600 C606 1.383 . S
C601 C597 1.495 . S
C601 H607 0.959 . S
C601 H608 0.961 . S
C601 H609 0.960 . S
C602 C600 1.381 . S
C602 C603 1.394 . S
C602 H610 0.930 . S
C603 C602 1.394 . S
C603 C604 1.383 . S
C603 H611 0.929 . S
C604 C603 1.383 . S
C604 C605 1.377 . S
C605 H589 0.930 . S
C605 C604 1.377 . S
C605 C606 1.379 . S
C606 H590 0.931 . S
C606 C600 1.383 . S
C606 C605 1.379 . S
H607 C601 0.959 . S
H608 C601 0.961 . S
H609 C601 0.960 . S
H610 C602 0.930 . S
H611 C603 0.929 . S
H612 C620 0.929 . S
H613 C622 0.930 . S
H614 C624 0.930 . S
H615 C627 0.929 . S
H616 C630 0.930 . S
H617 C632 0.960 . S
H618 C632 0.960 . S
H619 C632 0.960 . S
C620 H612 0.929 . S
C620 C621 1.377 . S
C620 C622 1.384 . S
C621 C620 1.377 . S
C621 C627 1.390 . S
C622 H613 0.930 . S
C622 C620 1.384 . S
C622 C623 1.372 . S
C623 C622 1.372 . S
C623 C624 1.400 . S
C623 C628 1.490 . S
C624 H614 0.930 . S
C624 C623 1.400 . S
C624 C627 1.386 . S
H625 C641 0.930 . S
H626 C642 0.931 . S
C627 H615 0.929 . S
C627 C621 1.390 . S
C627 C624 1.386 . S
C628 C623 1.490 . S
C628 C630 1.395 . S
C628 C631 1.403 . S
H629 C635 0.930 . S
C630 H616 0.930 . S
C630 C628 1.395 . S
C630 C633 1.403 . S
C631 C628 1.403 . S
C631 C632 1.524 . S
C631 C635 1.400 . S
C632 H617 0.960 . S
C632 H618 0.960 . S
C632 H619 0.960 . S
C632 C631 1.524 . S
C633 C630 1.403 . S
C633 C634 1.392 . S
C633 C637 1.495 . S
C634 C633 1.392 . S
C634 C635 1.385 . S
C634 C636 1.478 . S
C635 H629 0.930 . S
C635 C631 1.400 . S
C635 C634 1.385 . S
C636 C634 1.478 . S
C636 C638 1.381 . S
C636 C642 1.383 . S
C637 C633 1.495 . S
C637 H643 0.959 . S
C637 H644 0.961 . S
C637 H645 0.960 . S
C638 C636 1.381 . S
C638 C639 1.394 . S
C638 H646 0.930 . S
C639 C638 1.394 . S
C639 C640 1.383 . S
C639 H647 0.929 . S
C640 C639 1.383 . S
C640 C641 1.377 . S
C641 H625 0.930 . S
C641 C640 1.377 . S
C641 C642 1.379 . S
C642 H626 0.931 . S
C642 C636 1.383 . S
C642 C641 1.379 . S
H643 C637 0.959 . S
H644 C637 0.961 . S
H645 C637 0.960 . S
H646 C638 0.930 . S
H647 C639 0.929 . S
H648 C656 0.929 . S
H649 C658 0.930 . S
H650 C660 0.930 . S
H651 C663 0.929 . S
H652 C666 0.930 . S
H653 C668 0.960 . S
H654 C668 0.960 . S
H655 C668 0.960 . S
C656 H648 0.929 . S
C656 C657 1.377 . S
C656 C658 1.384 . S
C657 C656 1.377 . S
C657 C663 1.390 . S
C658 H649 0.930 . S
C658 C656 1.384 . S
C658 C659 1.372 . S
C659 C658 1.372 . S
C659 C660 1.400 . S
C659 C664 1.490 . S
C660 H650 0.930 . S
C660 C659 1.400 . S
C660 C663 1.386 . S
H661 C677 0.930 . S
H662 C678 0.931 . S
C663 H651 0.929 . S
C663 C657 1.390 . S
C663 C660 1.386 . S
C664 C659 1.490 . S
C664 C666 1.395 . S
C664 C667 1.403 . S
H665 C671 0.930 . S
C666 H652 0.930 . S
C666 C664 1.395 . S
C666 C669 1.403 . S
C667 C664 1.403 . S
C667 C668 1.524 . S
C667 C671 1.400 . S
C668 H653 0.960 . S
C668 H654 0.960 . S
C668 H655 0.960 . S
C668 C667 1.524 . S
C669 C666 1.403 . S
C669 C670 1.392 . S
C669 C673 1.495 . S
C670 C669 1.392 . S
C670 C671 1.385 . S
C670 C672 1.478 . S
C671 H665 0.930 . S
C671 C667 1.400 . S
C671 C670 1.385 . S
C672 C670 1.478 . S
C672 C674 1.381 . S
C672 C678 1.383 . S
C673 C669 1.495 . S
C673 H679 0.959 . S
C673 H680 0.961 . S
C673 H681 0.960 . S
C674 C672 1.381 . S
C674 C675 1.394 . S
C674 H682 0.930 . S
C675 C674 1.394 . S
C675 C676 1.383 . S
C675 H683 0.929 . S
C676 C675 1.383 . S
C676 C677 1.377 . S
C677 H661 0.930 . S
C677 C676 1.377 . S
C677 C678 1.379 . S
C678 H662 0.931 . S
C678 C672 1.383 . S
C678 C677 1.379 . S
H679 C673 0.959 . S
H680 C673 0.961 . S
H681 C673 0.960 . S
H682 C674 0.930 . S
H683 C675 0.929 . S
H684 C692 0.929 . S
H685 C694 0.930 . S
H686 C696 0.930 . S
H687 C699 0.929 . S
H688 C702 0.930 . S
H689 C704 0.960 . S
H690 C704 0.960 . S
H691 C704 0.960 . S
C692 H684 0.929 . S
C692 C693 1.377 . S
C692 C694 1.384 . S
C693 C692 1.377 . S
C693 C699 1.390 . S
C694 H685 0.930 . S
C694 C692 1.384 . S
C694 C695 1.372 . S
C695 C694 1.372 . S
C695 C696 1.400 . S
C695 C700 1.490 . S
C696 H686 0.930 . S
C696 C695 1.400 . S
C696 C699 1.386 . S
H697 C713 0.930 . S
H698 C714 0.931 . S
C699 H687 0.929 . S
C699 C693 1.390 . S
C699 C696 1.386 . S
C700 C695 1.490 . S
C700 C702 1.395 . S
C700 C703 1.403 1_455 S
H701 C707 0.930 . S
C702 H688 0.930 . S
C702 C700 1.395 . S
C702 C705 1.403 . S
C703 C700 1.403 1_655 S
C703 C704 1.524 . S
C703 C707 1.400 . S
C704 H689 0.960 . S
C704 H690 0.960 . S
C704 H691 0.960 . S
C704 C703 1.524 . S
C705 C702 1.403 . S
C705 C706 1.392 1_455 S
C705 C709 1.495 . S
C706 C705 1.392 1_655 S
C706 C707 1.385 . S
C706 C708 1.478 . S
C707 H701 0.930 . S
C707 C703 1.400 . S
C707 C706 1.385 . S
C708 C706 1.478 . S
C708 C710 1.381 . S
C708 C714 1.383 . S
C709 C705 1.495 . S
C709 H715 0.959 . S
C709 H716 0.961 . S
C709 H717 0.960 . S
C710 C708 1.381 . S
C710 C711 1.394 . S
C710 H718 0.930 . S
C711 C710 1.394 . S
C711 C712 1.383 . S
C711 H719 0.929 . S
C712 C711 1.383 . S
C712 C713 1.377 . S
C713 H697 0.930 . S
C713 C712 1.377 . S
C713 C714 1.379 . S
C714 H698 0.931 . S
C714 C708 1.383 . S
C714 C713 1.379 . S
H715 C709 0.959 . S
H716 C709 0.961 . S
H717 C709 0.960 . S
H718 C710 0.930 . S
H719 C711 0.929 . S
H720 C728 0.929 . S
H721 C730 0.930 . S
H722 C732 0.930 1_565 S
H723 C735 0.929 . S
H724 C738 0.930 . S
H725 C740 0.960 . S
H726 C740 0.960 . S
H727 C740 0.960 . S
C728 H720 0.929 . S
C728 C729 1.377 . S
C728 C730 1.384 . S
C729 C728 1.377 . S
C729 C735 1.390 . S
C730 H721 0.930 . S
C730 C728 1.384 . S
C730 C731 1.372 . S
C731 C730 1.372 . S
C731 C732 1.400 . S
C731 C736 1.490 . S
C732 H722 0.930 1_545 S
C732 C731 1.400 . S
C732 C735 1.386 . S
H733 C749 0.930 . S
H734 C750 0.931 . S
C735 H723 0.929 . S
C735 C729 1.390 . S
C735 C732 1.386 . S
C736 C731 1.490 . S
C736 C738 1.395 . S
C736 C739 1.403 1_545 S
H737 C743 0.930 . S
C738 H724 0.930 . S
C738 C736 1.395 . S
C738 C741 1.403 . S
C739 C736 1.403 1_565 S
C739 C740 1.524 . S
C739 C743 1.400 . S
C740 H725 0.960 . S
C740 H726 0.960 . S
C740 H727 0.960 . S
C740 C739 1.524 . S
C741 C738 1.403 . S
C741 C742 1.392 1_545 S
C741 C745 1.495 . S
C742 C741 1.392 1_565 S
C742 C743 1.385 . S
C742 C744 1.478 . S
C743 H737 0.930 . S
C743 C739 1.400 . S
C743 C742 1.385 . S
C744 C742 1.478 . S
C744 C746 1.381 . S
C744 C750 1.383 . S
C745 C741 1.495 . S
C745 H751 0.959 . S
C745 H752 0.961 . S
C745 H753 0.960 . S
C746 C744 1.381 . S
C746 C747 1.394 . S
C746 H754 0.930 1_565 S
C747 C746 1.394 . S
C747 C748 1.383 . S
C747 H755 0.929 . S
C748 C747 1.383 . S
C748 C749 1.377 . S
C749 H733 0.930 . S
C749 C748 1.377 . S
C749 C750 1.379 . S
C750 H734 0.931 . S
C750 C744 1.383 . S
C750 C749 1.379 . S
H751 C745 0.959 . S
H752 C745 0.961 . S
H753 C745 0.960 . S
H754 C746 0.930 1_545 S
H755 C747 0.929 . S
H756 C764 0.929 . S
H757 C766 0.930 . S
H758 C768 0.930 . S
H759 C771 0.929 . S
H760 C774 0.930 . S
H761 C776 0.960 . S
H762 C776 0.960 . S
H763 C776 0.960 . S
C764 H756 0.929 . S
C764 C765 1.377 . S
C764 C766 1.384 . S
C765 C764 1.377 . S
C765 C771 1.390 . S
C766 H757 0.930 . S
C766 C764 1.384 . S
C766 C767 1.372 . S
C767 C766 1.372 . S
C767 C768 1.400 . S
C767 C772 1.490 . S
C768 H758 0.930 . S
C768 C767 1.400 . S
C768 C771 1.386 . S
H769 C785 0.930 . S
H770 C786 0.931 . S
C771 H759 0.929 . S
C771 C765 1.390 . S
C771 C768 1.386 . S
C772 C767 1.490 . S
C772 C774 1.395 . S
C772 C775 1.403 . S
H773 C779 0.930 . S
C774 H760 0.930 . S
C774 C772 1.395 . S
C774 C777 1.403 . S
C775 C772 1.403 . S
C775 C776 1.524 . S
C775 C779 1.400 . S
C776 H761 0.960 . S
C776 H762 0.960 . S
C776 H763 0.960 . S
C776 C775 1.524 . S
C777 C774 1.403 . S
C777 C778 1.392 . S
C777 C781 1.495 . S
C778 C777 1.392 . S
C778 C779 1.385 . S
C778 C780 1.478 . S
C779 H773 0.930 . S
C779 C775 1.400 . S
C779 C778 1.385 . S
C780 C778 1.478 . S
C780 C782 1.381 . S
C780 C786 1.383 . S
C781 C777 1.495 . S
C781 H787 0.959 . S
C781 H788 0.961 . S
C781 H789 0.960 . S
C782 C780 1.381 . S
C782 C783 1.394 . S
C782 H790 0.930 . S
C783 C782 1.394 . S
C783 C784 1.383 . S
C783 H791 0.929 . S
C784 C783 1.383 . S
C784 C785 1.377 . S
C785 H769 0.930 . S
C785 C784 1.377 . S
C785 C786 1.379 . S
C786 H770 0.931 . S
C786 C780 1.383 . S
C786 C785 1.379 . S
H787 C781 0.959 . S
H788 C781 0.961 . S
H789 C781 0.960 . S
H790 C782 0.930 . S
H791 C783 0.929 . S
H792 C800 0.929 1_455 S
H793 C802 0.930 . S
H794 C804 0.930 . S
H795 C807 0.929 . S
H796 C810 0.930 . S
H797 C812 0.960 . S
H798 C812 0.960 . S
H799 C812 0.960 . S
C800 H792 0.929 1_655 S
C800 C801 1.377 . S
C800 C802 1.384 1_655 S
C801 C800 1.377 . S
C801 C807 1.390 . S
C802 H793 0.930 . S
C802 C800 1.384 1_455 S
C802 C803 1.372 1_455 S
C803 C802 1.372 1_655 S
C803 C804 1.400 . S
C803 C808 1.490 . S
C804 H794 0.930 . S
C804 C803 1.400 . S
C804 C807 1.386 . S
H805 C821 0.930 1_655 S
H806 C822 0.931 . S
C807 H795 0.929 . S
C807 C801 1.390 . S
C807 C804 1.386 . S
C808 C803 1.490 . S
C808 C810 1.395 1_655 S
C808 C811 1.403 . S
H809 C815 0.944 1_655 S
C810 H796 0.930 . S
C810 C808 1.395 1_455 S
C810 C813 1.403 . S
C811 C808 1.403 . S
C811 C812 1.524 . S
C811 C815 1.380 1_655 S
C812 H797 0.960 . S
C812 H798 0.960 . S
C812 H799 0.960 . S
C812 C811 1.524 . S
C813 C810 1.403 . S
C813 C814 1.392 . S
C813 C817 1.495 . S
C814 C813 1.392 . S
C814 C815 1.398 . S
C814 C816 1.478 . S
C815 H809 0.944 1_455 S
C815 C811 1.380 1_455 S
C815 C814 1.398 . S
C816 C814 1.478 . S
C816 C818 1.381 . S
C816 C822 1.383 1_455 S
C817 C813 1.495 . S
C817 H823 0.959 . S
C817 H824 0.961 . S
C817 H825 0.960 . S
C818 C816 1.381 . S
C818 C819 1.394 . S
C818 H826 0.930 . S
C819 C818 1.394 . S
C819 C820 1.383 . S
C819 H827 0.929 . S
C820 C819 1.383 . S
C820 C821 1.377 . S
C821 H805 0.930 1_455 S
C821 C820 1.377 . S
C821 C822 1.379 1_455 S
C822 H806 0.931 . S
C822 C816 1.383 1_655 S
C822 C821 1.379 1_655 S
H823 C817 0.959 . S
H824 C817 0.961 . S
H825 C817 0.960 . S
H826 C818 0.930 . S
H827 C819 0.929 . S
H828 C836 0.929 1_545 S
H829 C838 0.930 . S
H830 C840 0.930 . S
H831 C843 0.929 . S
H832 C846 0.930 . S
H833 C848 0.960 . S
H834 C848 0.960 . S
H835 C848 0.960 . S
C836 H828 0.929 1_565 S
C836 C837 1.377 . S
C836 C838 1.384 1_565 S
C837 C836 1.377 . S
C837 C843 1.390 . S
C838 H829 0.930 . S
C838 C836 1.384 1_545 S
C838 C839 1.372 1_545 S
C839 C838 1.372 1_565 S
C839 C840 1.400 . S
C839 C844 1.490 . S
C840 H830 0.930 . S
C840 C839 1.400 . S
C840 C843 1.386 . S
H841 C857 0.930 1_565 S
H842 C858 0.931 . S
C843 H831 0.929 . S
C843 C837 1.390 . S
C843 C840 1.386 . S
C844 C839 1.490 . S
C844 C846 1.395 1_565 S
C844 C847 1.403 . S
H845 C851 0.930 . S
C846 H832 0.930 . S
C846 C844 1.395 1_545 S
C846 C849 1.403 . S
C847 C844 1.403 . S
C847 C848 1.524 . S
C847 C851 1.400 . S
C848 H833 0.960 . S
C848 H834 0.960 . S
C848 H835 0.960 . S
C848 C847 1.524 . S
C849 C846 1.403 . S
C849 C850 1.392 . S
C849 C853 1.495 . S
C850 C849 1.392 . S
C850 C851 1.385 1_545 S
C850 C852 1.478 . S
C851 H845 0.930 . S
C851 C847 1.400 . S
C851 C850 1.385 1_565 S
C852 C850 1.478 . S
C852 C854 1.381 . S
C852 C858 1.383 1_545 S
C853 C849 1.495 . S
C853 H859 0.959 . S
C853 H860 0.961 . S
C853 H861 0.960 . S
C854 C852 1.381 . S
C854 C855 1.394 . S
C854 H862 0.930 . S
C855 C854 1.394 . S
C855 C856 1.383 . S
C855 H863 0.929 . S
C856 C855 1.383 . S
C856 C857 1.377 . S
C857 H841 0.930 1_545 S
C857 C856 1.377 . S
C857 C858 1.379 1_545 S
C858 H842 0.931 . S
C858 C852 1.383 1_565 S
C858 C857 1.379 1_565 S
H859 C853 0.959 . S
H860 C853 0.961 . S
H861 C853 0.960 . S
H862 C854 0.930 . S
H863 C855 0.929 . S
H864 C872 0.929 . S
H865 C874 0.930 . S
H866 C876 0.930 . S
H867 C879 0.929 . S
H868 C882 0.930 . S
H869 C884 0.960 . S
H870 C884 0.960 . S
H871 C884 0.960 . S
C872 H864 0.929 . S
C872 C873 1.377 . S
C872 C874 1.384 . S
C873 C872 1.377 . S
C873 C879 1.390 . S
C874 H865 0.930 . S
C874 C872 1.384 . S
C874 C875 1.372 . S
C875 C874 1.372 . S
C875 C876 1.400 . S
C875 C880 1.490 . S
C876 H866 0.930 . S
C876 C875 1.400 . S
C876 C879 1.386 . S
H877 C893 0.930 . S
H878 C894 0.931 . S
C879 H867 0.929 . S
C879 C873 1.390 . S
C879 C876 1.386 . S
C880 C875 1.490 . S
C880 C882 1.395 . S
C880 C883 1.403 . S
H881 C887 0.930 . S
C882 H868 0.930 . S
C882 C880 1.395 . S
C882 C885 1.403 . S
C883 C880 1.403 . S
C883 C884 1.524 . S
C883 C887 1.400 . S
C884 H869 0.960 . S
C884 H870 0.960 . S
C884 H871 0.960 . S
C884 C883 1.524 . S
C885 C882 1.403 . S
C885 C886 1.392 . S
C885 C889 1.495 . S
C886 C885 1.392 . S
C886 C887 1.385 . S
C886 C888 1.478 . S
C887 H881 0.930 . S
C887 C883 1.400 . S
C887 C886 1.385 . S
C888 C886 1.478 . S
C888 C890 1.381 . S
C888 C894 1.383 . S
C889 C885 1.495 . S
C889 H895 0.959 . S
C889 H896 0.961 . S
C889 H897 0.960 . S
C890 C888 1.381 . S
C890 C891 1.394 . S
C890 H898 0.930 . S
C891 C890 1.394 . S
C891 C892 1.383 . S
C891 H899 0.929 . S
C892 C891 1.383 . S
C892 C893 1.377 . S
C893 H877 0.930 . S
C893 C892 1.377 . S
C893 C894 1.379 . S
C894 H878 0.931 . S
C894 C888 1.383 . S
C894 C893 1.379 . S
H895 C889 0.959 . S
H896 C889 0.961 . S
H897 C889 0.960 . S
H898 C890 0.930 . S
H899 C891 0.929 . S
H900 C908 0.929 . S
H901 C910 0.930 . S
H902 C912 0.930 . S
H903 C915 0.929 1_655 S
H904 C918 0.930 . S
H905 C920 0.960 . S
H906 C920 0.960 . S
H907 C920 0.960 . S
C908 H900 0.929 . S
C908 C909 1.377 . S
C908 C910 1.384 . S
C909 C908 1.377 . S
C909 C915 1.390 . S
C910 H901 0.930 . S
C910 C908 1.384 . S
C910 C911 1.372 . S
C911 C910 1.372 . S
C911 C912 1.400 . S
C911 C916 1.490 . S
C912 H902 0.930 . S
C912 C911 1.400 . S
C912 C915 1.386 . S
H913 C929 0.930 . S
H914 C930 0.931 . S
C915 H903 0.929 1_455 S
C915 C909 1.390 . S
C915 C912 1.386 . S
C916 C911 1.490 . S
C916 C918 1.395 . S
C916 C919 1.403 . S
H917 C923 0.930 . S
C918 H904 0.930 . S
C918 C916 1.395 . S
C918 C921 1.403 . S
C919 C916 1.403 . S
C919 C920 1.524 . S
C919 C923 1.400 . S
C920 H905 0.960 . S
C920 H906 0.960 . S
C920 H907 0.960 . S
C920 C919 1.524 . S
C921 C918 1.403 . S
C921 C922 1.392 . S
C921 C925 1.495 . S
C922 C921 1.392 . S
C922 C923 1.385 . S
C922 C924 1.478 . S
C923 H917 0.930 . S
C923 C919 1.400 . S
C923 C922 1.385 . S
C924 C922 1.478 . S
C924 C926 1.381 . S
C924 C930 1.383 . S
C925 C921 1.495 . S
C925 H931 0.959 . S
C925 H932 0.961 . S
C925 H933 0.960 . S
C926 C924 1.381 . S
C926 C927 1.394 . S
C926 H934 0.930 . S
C927 C926 1.394 . S
C927 C928 1.383 . S
C927 H935 0.929 . S
C928 C927 1.383 . S
C928 C929 1.377 . S
C929 H913 0.930 . S
C929 C928 1.377 . S
C929 C930 1.379 . S
C930 H914 0.931 . S
C930 C924 1.383 . S
C930 C929 1.379 . S
H931 C925 0.959 . S
H932 C925 0.961 . S
H933 C925 0.960 . S
H934 C926 0.930 . S
H935 C927 0.929 . S
H936 C944 0.929 . S
H937 C946 0.930 . S
H938 C948 0.930 . S
H939 C951 0.929 . S
H940 C954 0.930 . S
H941 C956 0.960 . S
H942 C956 0.960 . S
H943 C956 0.960 . S
C944 H936 0.929 . S
C944 C945 1.377 . S
C944 C946 1.384 . S
C945 C944 1.377 . S
C945 C951 1.390 . S
C946 H937 0.930 . S
C946 C944 1.384 . S
C946 C947 1.372 . S
C947 C946 1.372 . S
C947 C948 1.400 . S
C947 C952 1.490 . S
C948 H938 0.930 . S
C948 C947 1.400 . S
C948 C951 1.386 . S
H949 C965 0.930 . S
H950 C966 0.931 . S
C951 H939 0.929 . S
C951 C945 1.390 . S
C951 C948 1.386 . S
C952 C947 1.490 . S
C952 C954 1.395 . S
C952 C955 1.403 . S
H953 C959 0.930 . S
C954 H940 0.930 . S
C954 C952 1.395 . S
C954 C957 1.403 . S
C955 C952 1.403 . S
C955 C956 1.524 . S
C955 C959 1.400 . S
C956 H941 0.960 . S
C956 H942 0.960 . S
C956 H943 0.960 . S
C956 C955 1.524 . S
C957 C954 1.403 . S
C957 C958 1.392 . S
C957 C961 1.495 . S
C958 C957 1.392 . S
C958 C959 1.385 . S
C958 C960 1.478 . S
C959 H953 0.930 . S
C959 C955 1.400 . S
C959 C958 1.385 . S
C960 C958 1.478 . S
C960 C962 1.381 . S
C960 C966 1.383 . S
C961 C957 1.495 . S
C961 H967 0.959 . S
C961 H968 0.961 . S
C961 H969 0.960 . S
C962 C960 1.381 . S
C962 C963 1.394 . S
C962 H970 0.930 . S
C963 C962 1.394 . S
C963 C964 1.383 . S
C963 H971 0.929 1_545 S
C964 C963 1.383 . S
C964 C965 1.377 . S
C965 H949 0.930 . S
C965 C964 1.377 . S
C965 C966 1.379 . S
C966 H950 0.931 . S
C966 C960 1.383 . S
C966 C965 1.379 . S
H967 C961 0.959 . S
H968 C961 0.961 . S
H969 C961 0.960 . S
H970 C962 0.930 . S
H971 C963 0.929 1_565 S
H972 C980 0.929 1_545 S
H973 C982 0.930 . S
H974 C984 0.930 . S
H975 C987 0.929 . S
H976 C990 0.930 . S
H977 C992 0.960 . S
H978 C992 0.960 . S
H979 C992 0.960 . S
C980 H972 0.929 1_565 S
C980 C981 1.377 . S
C980 C982 1.384 . S
C981 C980 1.377 . S
C981 C987 1.390 . S
C982 H973 0.930 . S
C982 C980 1.384 . S
C982 C983 1.372 . S
C983 C982 1.372 . S
C983 C984 1.400 . S
C983 C988 1.490 . S
C984 H974 0.930 . S
C984 C983 1.400 . S
C984 C987 1.386 . S
H985 C1001 0.930 . S
H986 C1002 0.931 . S
C987 H975 0.929 . S
C987 C981 1.390 . S
C987 C984 1.386 . S
C988 C983 1.490 . S
C988 C990 1.395 . S
C988 C991 1.403 . S
H989 C995 0.930 . S
C990 H976 0.930 . S
C990 C988 1.395 . S
C990 C993 1.403 . S
C991 C988 1.403 . S
C991 C992 1.524 . S
C991 C995 1.400 . S
C992 H977 0.960 . S
C992 H978 0.960 . S
C992 H979 0.960 . S
C992 C991 1.524 . S
C993 C990 1.403 . S
C993 C994 1.392 . S
C993 C997 1.495 . S
C994 C993 1.392 . S
C994 C995 1.385 . S
C994 C996 1.478 . S
C995 H989 0.930 . S
C995 C991 1.400 . S
C995 C994 1.385 . S
C996 C994 1.478 . S
C996 C998 1.381 . S
C996 C1002 1.383 . S
C997 C993 1.495 . S
C997 H1003 0.959 . S
C997 H1004 0.961 . S
C997 H1005 0.960 . S
C998 C996 1.381 . S
C998 C999 1.394 . S
C998 H1006 0.930 . S
C999 C998 1.394 . S
C999 C1000 1.383 . S
C999 H1007 0.929 . S
C1000 C999 1.383 . S
C1000 C1001 1.377 . S
C1001 H985 0.930 . S
C1001 C1000 1.377 . S
C1001 C1002 1.379 . S
C1002 H986 0.931 . S
C1002 C996 1.383 . S
C1002 C1001 1.379 . S
H1003 C997 0.959 . S
H1004 C997 0.961 . S
H1005 C997 0.960 . S
H1006 C998 0.930 . S
H1007 C999 0.929 . S
H1008 C1016 0.929 . S
H1009 C1018 0.930 . S
H1010 C1020 0.930 . S
H1011 C1023 0.929 . S
H1012 C1026 0.930 . S
H1013 C1028 0.960 . S
H1014 C1028 0.960 . S
H1015 C1028 0.960 . S
C1016 H1008 0.929 . S
C1016 C1017 1.377 . S
C1016 C1018 1.384 . S
C1017 C1016 1.377 . S
C1017 C1023 1.390 . S
C1018 H1009 0.930 . S
C1018 C1016 1.384 . S
C1018 C1019 1.372 . S
C1019 C1018 1.372 . S
C1019 C1020 1.400 . S
C1019 C1024 1.490 . S
C1020 H1010 0.930 . S
C1020 C1019 1.400 . S
C1020 C1023 1.386 . S
H1021 C1037 0.930 1_455 S
H1022 C1038 0.931 . S
C1023 H1011 0.929 . S
C1023 C1017 1.390 . S
C1023 C1020 1.386 . S
C1024 C1019 1.490 . S
C1024 C1026 1.395 . S
C1024 C1027 1.403 . S
H1025 C1031 0.930 . S
C1026 H1012 0.930 . S
C1026 C1024 1.395 . S
C1026 C1029 1.403 . S
C1027 C1024 1.403 . S
C1027 C1028 1.524 . S
C1027 C1031 1.400 . S
C1028 H1013 0.960 . S
C1028 H1014 0.960 . S
C1028 H1015 0.960 . S
C1028 C1027 1.524 . S
C1029 C1026 1.403 . S
C1029 C1030 1.392 . S
C1029 C1033 1.495 . S
C1030 C1029 1.392 . S
C1030 C1031 1.385 . S
C1030 C1032 1.478 . S
C1031 H1025 0.930 . S
C1031 C1027 1.400 . S
C1031 C1030 1.385 . S
C1032 C1030 1.478 . S
C1032 C1034 1.381 . S
C1032 C1038 1.383 . S
C1033 C1029 1.495 . S
C1033 H1039 0.959 . S
C1033 H1040 0.961 . S
C1033 H1041 0.960 . S
C1034 C1032 1.381 . S
C1034 C1035 1.394 . S
C1034 H1042 0.930 . S
C1035 C1034 1.394 . S
C1035 C1036 1.383 . S
C1035 H1043 0.929 . S
C1036 C1035 1.383 . S
C1036 C1037 1.377 . S
C1037 H1021 0.930 1_655 S
C1037 C1036 1.377 . S
C1037 C1038 1.379 . S
C1038 H1022 0.931 . S
C1038 C1032 1.383 . S
C1038 C1037 1.379 . S
H1039 C1033 0.959 . S
H1040 C1033 0.961 . S
H1041 C1033 0.960 . S
H1042 C1034 0.930 . S
H1043 C1035 0.929 . S
H1044 C1052 0.929 1_545 S
H1045 C1054 0.930 . S
H1046 C1056 0.930 . S
H1047 C1059 0.929 . S
H1048 C1062 0.930 . S
H1049 C1064 0.960 . S
H1050 C1064 0.960 . S
H1051 C1064 0.960 . S
C1052 H1044 0.929 1_565 S
C1052 C1053 1.377 . S
C1052 C1054 1.384 . S
C1053 C1052 1.377 . S
C1053 C1059 1.390 . S
C1054 H1045 0.930 . S
C1054 C1052 1.384 . S
C1054 C1055 1.372 . S
C1055 C1054 1.372 . S
C1055 C1056 1.400 . S
C1055 C1060 1.490 . S
C1056 H1046 0.930 . S
C1056 C1055 1.400 . S
C1056 C1059 1.386 . S
H1057 C1073 0.930 . S
H1058 C1074 0.931 . S
C1059 H1047 0.929 . S
C1059 C1053 1.390 . S
C1059 C1056 1.386 . S
C1060 C1055 1.490 . S
C1060 C1062 1.395 . S
C1060 C1063 1.403 . S
H1061 C1067 0.930 . S
C1062 H1048 0.930 . S
C1062 C1060 1.395 . S
C1062 C1065 1.403 . S
C1063 C1060 1.403 . S
C1063 C1064 1.524 . S
C1063 C1067 1.400 . S
C1064 H1049 0.960 . S
C1064 H1050 0.960 . S
C1064 H1051 0.960 . S
C1064 C1063 1.524 . S
C1065 C1062 1.403 . S
C1065 C1066 1.392 . S
C1065 C1069 1.495 . S
C1066 C1065 1.392 . S
C1066 C1067 1.385 . S
C1066 C1068 1.478 . S
C1067 H1061 0.930 . S
C1067 C1063 1.400 . S
C1067 C1066 1.385 . S
C1068 C1066 1.478 . S
C1068 C1070 1.381 . S
C1068 C1074 1.383 . S
C1069 C1065 1.495 . S
C1069 H1075 0.959 . S
C1069 H1076 0.961 . S
C1069 H1077 0.960 . S
C1070 C1068 1.381 . S
C1070 C1071 1.394 . S
C1070 H1078 0.930 . S
C1071 C1070 1.394 . S
C1071 C1072 1.383 . S
C1071 H1079 0.929 . S
C1072 C1071 1.383 . S
C1072 C1073 1.377 . S
C1073 H1057 0.930 . S
C1073 C1072 1.377 . S
C1073 C1074 1.379 . S
C1074 H1058 0.931 . S
C1074 C1068 1.383 . S
C1074 C1073 1.379 . S
H1075 C1069 0.959 . S
H1076 C1069 0.961 . S
H1077 C1069 0.960 . S
H1078 C1070 0.930 . S
H1079 C1071 0.929 . S
H1080 C1088 0.929 . S
H1081 C1090 0.930 . S
H1082 C1092 0.930 . S
H1083 C1095 0.929 . S
H1084 C1098 0.930 . S
H1085 C1100 0.960 . S
H1086 C1100 0.960 . S
H1087 C1100 0.960 . S
C1088 H1080 0.929 . S
C1088 C1089 1.377 . S
C1088 C1090 1.384 . S
C1089 C1088 1.377 . S
C1089 C1095 1.390 . S
C1090 H1081 0.930 . S
C1090 C1088 1.384 . S
C1090 C1091 1.372 . S
C1091 C1090 1.372 . S
C1091 C1092 1.400 . S
C1091 C1096 1.490 . S
C1092 H1082 0.930 . S
C1092 C1091 1.400 . S
C1092 C1095 1.386 . S
H1093 C1109 0.930 . S
H1094 C1110 0.931 . S
C1095 H1083 0.929 . S
C1095 C1089 1.390 . S
C1095 C1092 1.386 . S
C1096 C1091 1.490 . S
C1096 C1098 1.395 . S
C1096 C1099 1.403 . S
H1097 C1103 0.930 . S
C1098 H1084 0.930 . S
C1098 C1096 1.395 . S
C1098 C1101 1.403 . S
C1099 C1096 1.403 . S
C1099 C1100 1.524 . S
C1099 C1103 1.400 . S
C1100 H1085 0.960 . S
C1100 H1086 0.960 . S
C1100 H1087 0.960 . S
C1100 C1099 1.524 . S
C1101 C1098 1.403 . S
C1101 C1102 1.392 . S
C1101 C1105 1.495 . S
C1102 C1101 1.392 . S
C1102 C1103 1.385 . S
C1102 C1104 1.478 . S
C1103 H1097 0.930 . S
C1103 C1099 1.400 . S
C1103 C1102 1.385 . S
C1104 C1102 1.478 . S
C1104 C1106 1.381 . S
C1104 C1110 1.383 . S
C1105 C1101 1.495 . S
C1105 H1111 0.959 . S
C1105 H1112 0.961 . S
C1105 H1113 0.960 . S
C1106 C1104 1.381 . S
C1106 C1107 1.394 . S
C1106 H1114 0.930 . S
C1107 C1106 1.394 . S
C1107 C1108 1.383 . S
C1107 H1115 0.929 . S
C1108 C1107 1.383 . S
C1108 C1109 1.377 . S
C1109 H1093 0.930 . S
C1109 C1108 1.377 . S
C1109 C1110 1.379 . S
C1110 H1094 0.931 . S
C1110 C1104 1.383 . S
C1110 C1109 1.379 . S
H1111 C1105 0.959 . S
H1112 C1105 0.961 . S
H1113 C1105 0.960 . S
H1114 C1106 0.930 . S
H1115 C1107 0.929 . S
H1116 C1124 0.929 . S
H1117 C1126 0.930 . S
H1118 C1128 0.930 . S
H1119 C1131 0.929 . S
H1120 C1134 0.930 . S
H1121 C1136 0.960 . S
H1122 C1136 0.960 . S
H1123 C1136 0.960 . S
C1124 H1116 0.929 . S
C1124 C1125 1.377 . S
C1124 C1126 1.384 . S
C1125 C1124 1.377 . S
C1125 C1131 1.390 . S
C1126 H1117 0.930 . S
C1126 C1124 1.384 . S
C1126 C1127 1.372 . S
C1127 C1126 1.372 . S
C1127 C1128 1.400 . S
C1127 C1132 1.490 . S
C1128 H1118 0.930 . S
C1128 C1127 1.400 . S
C1128 C1131 1.386 . S
H1129 C1145 0.930 . S
H1130 C1146 0.931 . S
C1131 H1119 0.929 . S
C1131 C1125 1.390 . S
C1131 C1128 1.386 . S
C1132 C1127 1.490 . S
C1132 C1134 1.395 1_655 S
C1132 C1135 1.403 . S
H1133 C1139 0.930 . S
C1134 H1120 0.930 . S
C1134 C1132 1.395 1_455 S
C1134 C1137 1.403 . S
C1135 C1132 1.403 . S
C1135 C1136 1.524 . S
C1135 C1139 1.400 . S
C1136 H1121 0.960 . S
C1136 H1122 0.960 . S
C1136 H1123 0.960 . S
C1136 C1135 1.524 . S
C1137 C1134 1.403 . S
C1137 C1138 1.392 . S
C1137 C1141 1.495 . S
C1138 C1137 1.392 . S
C1138 C1139 1.385 1_455 S
C1138 C1140 1.478 . S
C1139 H1133 0.930 . S
C1139 C1135 1.400 . S
C1139 C1138 1.385 1_655 S
C1140 C1138 1.478 . S
C1140 C1142 1.381 . S
C1140 C1146 1.383 . S
C1141 C1137 1.495 . S
C1141 H1147 0.959 . S
C1141 H1148 0.961 . S
C1141 H1149 0.960 . S
C1142 C1140 1.381 . S
C1142 C1143 1.394 . S
C1142 H1150 0.930 . S
C1143 C1142 1.394 . S
C1143 C1144 1.383 . S
C1143 H1151 0.929 . S
C1144 C1143 1.383 . S
C1144 C1145 1.377 . S
C1145 H1129 0.930 . S
C1145 C1144 1.377 . S
C1145 C1146 1.379 . S
C1146 H1130 0.931 . S
C1146 C1140 1.383 . S
C1146 C1145 1.379 . S
H1147 C1141 0.959 . S
H1148 C1141 0.961 . S
H1149 C1141 0.960 . S
H1150 C1142 0.930 . S
H1151 C1143 0.929 . S
H1152 C1160 0.929 1_565 S
H1153 C1162 0.930 1_565 S
H1154 C1164 0.930 . S
H1155 C1167 0.929 . S
H1156 C1170 0.930 . S
H1157 C1172 0.960 . S
H1158 C1172 0.960 . S
H1159 C1172 0.960 1_545 S
C1160 H1152 0.929 1_545 S
C1160 C1161 1.377 . S
C1160 C1162 1.384 . S
C1161 C1160 1.377 . S
C1161 C1167 1.390 . S
C1162 H1153 0.930 1_545 S
C1162 C1160 1.384 . S
C1162 C1163 1.372 . S
C1163 C1162 1.372 . S
C1163 C1164 1.400 . S
C1163 C1168 1.490 . S
C1164 H1154 0.930 . S
C1164 C1163 1.400 . S
C1164 C1167 1.386 . S
H1165 C1181 0.930 1_545 S
H1166 C1182 0.931 . S
C1167 H1155 0.929 . S
C1167 C1161 1.390 . S
C1167 C1164 1.386 . S
C1168 C1163 1.490 . S
C1168 C1170 1.395 . S
C1168 C1171 1.403 1_545 S
H1169 C1175 0.930 . S
C1170 H1156 0.930 . S
C1170 C1168 1.395 . S
C1170 C1173 1.403 1_554 S
C1171 C1168 1.403 1_565 S
C1171 C1172 1.524 . S
C1171 C1175 1.400 1_554 S
C1172 H1157 0.960 . S
C1172 H1158 0.960 . S
C1172 H1159 0.960 1_565 S
C1172 C1171 1.524 . S
C1173 C1170 1.403 1_556 S
C1173 C1174 1.392 1_545 S
C1173 C1177 1.495 . S
C1174 C1173 1.392 1_565 S
C1174 C1175 1.385 . S
C1174 C1176 1.478 . S
C1175 H1169 0.930 . S
C1175 C1171 1.400 1_556 S
C1175 C1174 1.385 . S
C1176 C1174 1.478 . S
C1176 C1178 1.381 . S
C1176 C1182 1.383 1_565 S
C1177 C1173 1.495 . S
C1177 H1183 0.959 . S
C1177 H1184 0.961 . S
C1177 H1185 0.960 1_545 S
C1178 C1176 1.381 . S
C1178 C1179 1.394 . S
C1178 H1186 0.930 . S
C1179 C1178 1.394 . S
C1179 C1180 1.383 . S
C1179 H1187 0.929 . S
C1180 C1179 1.383 . S
C1180 C1181 1.377 . S
C1181 H1165 0.930 1_565 S
C1181 C1180 1.377 . S
C1181 C1182 1.379 1_565 S
C1182 H1166 0.931 . S
C1182 C1176 1.383 1_545 S
C1182 C1181 1.379 1_545 S
H1183 C1177 0.959 . S
H1184 C1177 0.961 . S
H1185 C1177 0.960 1_565 S
H1186 C1178 0.930 . S
H1187 C1179 0.929 . S
H1188 C1196 0.929 . S
H1189 C1198 0.930 . S
H1190 C1200 0.930 . S
H1191 C1203 0.929 . S
H1192 C1206 0.930 . S
H1193 C1208 0.960 . S
H1194 C1208 0.960 . S
H1195 C1208 0.960 . S
C1196 H1188 0.929 . S
C1196 C1197 1.377 . S
C1196 C1198 1.384 . S
C1197 C1196 1.377 . S
C1197 C1203 1.390 . S
C1198 H1189 0.930 . S
C1198 C1196 1.384 . S
C1198 C1199 1.372 . S
C1199 C1198 1.372 . S
C1199 C1200 1.400 . S
C1199 C1204 1.490 . S
C1200 H1190 0.930 . S
C1200 C1199 1.400 . S
C1200 C1203 1.386 . S
H1201 C1217 0.930 . S
H1202 C1218 0.931 . S
C1203 H1191 0.929 . S
C1203 C1197 1.390 . S
C1203 C1200 1.386 . S
C1204 C1199 1.490 . S
C1204 C1206 1.395 . S
C1204 C1207 1.403 . S
H1205 C1211 0.930 . S
C1206 H1192 0.930 . S
C1206 C1204 1.395 . S
C1206 C1209 1.403 . S
C1207 C1204 1.403 . S
C1207 C1208 1.524 . S
C1207 C1211 1.400 . S
C1208 H1193 0.960 . S
C1208 H1194 0.960 . S
C1208 H1195 0.960 . S
C1208 C1207 1.524 . S
C1209 C1206 1.403 . S
C1209 C1210 1.392 . S
C1209 C1213 1.495 . S
C1210 C1209 1.392 . S
C1210 C1211 1.385 . S
C1210 C1212 1.478 . S
C1211 H1205 0.930 . S
C1211 C1207 1.400 . S
C1211 C1210 1.385 . S
C1212 C1210 1.478 . S
C1212 C1214 1.381 . S
C1212 C1218 1.383 . S
C1213 C1209 1.495 . S
C1213 H1219 0.959 . S
C1213 H1220 0.961 . S
C1213 H1221 0.960 . S
C1214 C1212 1.381 . S
C1214 C1215 1.394 . S
C1214 H1222 0.930 . S
C1215 C1214 1.394 . S
C1215 C1216 1.383 . S
C1215 H1223 0.929 . S
C1216 C1215 1.383 . S
C1216 C1217 1.377 . S
C1217 H1201 0.930 . S
C1217 C1216 1.377 . S
C1217 C1218 1.379 . S
C1218 H1202 0.931 . S
C1218 C1212 1.383 . S
C1218 C1217 1.379 . S
H1219 C1213 0.959 . S
H1220 C1213 0.961 . S
H1221 C1213 0.960 . S
H1222 C1214 0.930 . S
H1223 C1215 0.929 . S
H1224 C1232 0.929 1_655 S
H1225 C1234 0.930 . S
H1226 C1236 0.930 . S
H1227 C1239 0.929 . S
H1228 C1242 0.930 . S
H1229 C1244 0.960 . S
H1230 C1244 0.960 . S
H1231 C1244 0.960 . S
C1232 H1224 0.929 1_455 S
C1232 C1233 1.377 . S
C1232 C1234 1.384 1_455 S
C1233 C1232 1.377 . S
C1233 C1239 1.390 . S
C1234 H1225 0.930 . S
C1234 C1232 1.384 1_655 S
C1234 C1235 1.372 1_655 S
C1235 C1234 1.372 1_455 S
C1235 C1236 1.400 . S
C1235 C1240 1.490 . S
C1236 H1226 0.930 . S
C1236 C1235 1.400 . S
C1236 C1239 1.386 . S
H1237 C1253 0.930 1_455 S
H1238 C1254 0.931 . S
C1239 H1227 0.929 . S
C1239 C1233 1.390 . S
C1239 C1236 1.386 . S
C1240 C1235 1.490 . S
C1240 C1242 1.395 1_455 S
C1240 C1243 1.403 . S
H1241 C1247 0.930 . S
C1242 H1228 0.930 . S
C1242 C1240 1.395 1_655 S
C1242 C1245 1.403 . S
C1243 C1240 1.403 . S
C1243 C1244 1.524 . S
C1243 C1247 1.400 . S
C1244 H1229 0.960 . S
C1244 H1230 0.960 . S
C1244 H1231 0.960 . S
C1244 C1243 1.524 . S
C1245 C1242 1.403 . S
C1245 C1246 1.392 . S
C1245 C1249 1.495 . S
C1246 C1245 1.392 . S
C1246 C1247 1.385 1_655 S
C1246 C1248 1.478 . S
C1247 H1241 0.930 . S
C1247 C1243 1.400 . S
C1247 C1246 1.385 1_455 S
C1248 C1246 1.478 . S
C1248 C1250 1.381 . S
C1248 C1254 1.383 1_655 S
C1249 C1245 1.495 . S
C1249 H1255 0.959 . S
C1249 H1256 0.961 . S
C1249 H1257 0.960 . S
C1250 C1248 1.381 . S
C1250 C1251 1.394 . S
C1250 H1258 0.930 . S
C1251 C1250 1.394 . S
C1251 C1252 1.383 . S
C1251 H1259 0.929 . S
C1252 C1251 1.383 . S
C1252 C1253 1.377 . S
C1253 H1237 0.930 1_655 S
C1253 C1252 1.377 . S
C1253 C1254 1.379 1_655 S
C1254 H1238 0.931 . S
C1254 C1248 1.383 1_455 S
C1254 C1253 1.379 1_455 S
H1255 C1249 0.959 . S
H1256 C1249 0.961 . S
H1257 C1249 0.960 . S
H1258 C1250 0.930 . S
H1259 C1251 0.929 . S
H1260 C1268 0.929 . S
H1261 C1270 0.930 . S
H1262 C1272 0.930 1_545 S
H1263 C1275 0.929 . S
H1264 C1278 0.930 . S
H1265 C1280 0.960 . S
H1266 C1280 0.960 . S
H1267 C1280 0.960 . S
C1268 H1260 0.929 . S
C1268 C1269 1.377 . S
C1268 C1270 1.384 . S
C1269 C1268 1.377 . S
C1269 C1275 1.390 . S
C1270 H1261 0.930 . S
C1270 C1268 1.384 . S
C1270 C1271 1.372 . S
C1271 C1270 1.372 . S
C1271 C1272 1.400 . S
C1271 C1276 1.490 . S
C1272 H1262 0.930 1_565 S
C1272 C1271 1.400 . S
C1272 C1275 1.386 . S
H1273 C1289 0.930 . S
H1274 C1290 0.931 . S
C1275 H1263 0.929 . S
C1275 C1269 1.390 . S
C1275 C1272 1.386 . S
C1276 C1271 1.490 . S
C1276 C1278 1.395 . S
C1276 C1279 1.403 1_565 S
H1277 C1283 0.930 . S
C1278 H1264 0.930 . S
C1278 C1276 1.395 . S
C1278 C1281 1.403 1_554 S
C1279 C1276 1.403 1_545 S
C1279 C1280 1.524 . S
C1279 C1283 1.400 1_554 S
C1280 H1265 0.960 . S
C1280 H1266 0.960 . S
C1280 H1267 0.960 . S
C1280 C1279 1.524 . S
C1281 C1278 1.403 1_556 S
C1281 C1282 1.392 1_565 S
C1281 C1285 1.495 . S
C1282 C1281 1.392 1_545 S
C1282 C1283 1.385 . S
C1282 C1284 1.478 . S
C1283 H1277 0.930 . S
C1283 C1279 1.400 1_556 S
C1283 C1282 1.385 . S
C1284 C1282 1.478 . S
C1284 C1286 1.381 . S
C1284 C1290 1.383 . S
C1285 C1281 1.495 . S
C1285 H1291 0.959 . S
C1285 H1292 0.961 . S
C1285 H1293 0.960 . S
C1286 C1284 1.381 . S
C1286 C1287 1.394 . S
C1286 H1294 0.930 1_545 S
C1287 C1286 1.394 . S
C1287 C1288 1.383 . S
C1287 H1295 0.929 . S
C1288 C1287 1.383 . S
C1288 C1289 1.377 . S
C1289 H1273 0.930 . S
C1289 C1288 1.377 . S
C1289 C1290 1.379 . S
C1290 H1274 0.931 . S
C1290 C1284 1.383 . S
C1290 C1289 1.379 . S
H1291 C1285 0.959 . S
H1292 C1285 0.961 . S
H1293 C1285 0.960 . S
H1294 C1286 0.930 1_565 S
H1295 C1287 0.929 . S
C441 C399 1.616 . S
C460 C3 1.602 . S
C477 C39 1.616 . S
C496 C219 1.604 . S
C513 C75 1.615 . S
C532 C255 1.603 . S
C549 C111 1.616 . S
C568 C291 1.604 . S
C585 C327 1.617 . S
C604 C147 1.624 . S
C621 C183 1.615 . S
C640 C363 1.613 . S
C657 C112 1.122 . S
C676 C4 1.087 . S
C693 C148 1.118 . S
C712 C40 1.091 . S
C729 C184 1.119 . S
C748 C76 1.088 . S
C765 C220 1.122 . S
C784 C328 1.088 . S
C801 C256 1.113 . S
C820 C364 1.132 . S
C837 C292 1.114 . S
C856 C400 1.140 . S
C873 C290 0.179 . S
C892 C2 0.153 . S
C909 C38 0.181 . S
C928 C326 0.149 . S
C945 C362 0.178 . S
C964 C74 0.158 . S
C981 C398 0.161 . S
C1000 C110 0.229 . S
C1017 C218 0.171 . S
C1036 C146 0.201 . S
C1053 C182 0.161 . S
C1072 C254 0.233 . S
C1089 C338 1.505 . S
C1108 C14 1.486 . S
C1125 C50 1.516 . S
C1144 C374 1.540 . S
C1161 C410 1.503 . S
C1180 C86 1.479 . S
C1197 C122 1.515 . S
C1216 C230 1.535 . S
C1233 C158 1.507 . S
C1252 C266 1.497 . S
C1269 C302 1.504 . S
C1288 C194 1.483 . S
