# Generated by pormake.
# Topology ume, (4)-cn, num edge types: 1
# Building blocks:
#     Node 0, Type 0, BuildingBlock: QUQFOY_clean_sbu_3, # of connection points: 4
#     Node 1, Type 0, BuildingBlock: QUQFOY_clean_sbu_3, # of connection points: 4
#     Node 2, Type 0, BuildingBlock: QUQFOY_clean_sbu_3, # of connection points: 4
#     Node 3, Type 0, BuildingBlock: QUQFOY_clean_sbu_3, # of connection points: 4
#     Node 4, Type 0, BuildingBlock: QUQFOY_clean_sbu_3, # of connection points: 4
#     Node 5, Type 0, BuildingBlock: QUQFOY_clean_sbu_3, # of connection points: 4
#     Node 6, Type 0, BuildingBlock: QUQFOY_clean_sbu_3, # of connection points: 4
#     Node 7, Type 0, BuildingBlock: QUQFOY_clean_sbu_3, # of connection points: 4
#     Node 8, Type 0, BuildingBlock: QUQFOY_clean_sbu_3, # of connection points: 4
#     Node 9, Type 0, BuildingBlock: QUQFOY_clean_sbu_3, # of connection points: 4
#     Node 10, Type 0, BuildingBlock: QUQFOY_clean_sbu_3, # of connection points: 4
#     Node 11, Type 0, BuildingBlock: QUQFOY_clean_sbu_3, # of connection points: 4
#     Node 12, Type 0, BuildingBlock: QUQFOY_clean_sbu_3, # of connection points: 4
#     Node 13, Type 0, BuildingBlock: QUQFOY_clean_sbu_3, # of connection points: 4
#     Node 14, Type 0, BuildingBlock: QUQFOY_clean_sbu_3, # of connection points: 4
#     Node 15, Type 0, BuildingBlock: QUQFOY_clean_sbu_3, # of connection points: 4
#     Edge 16, Type (0, 0), BuildingBlock: TEMPAE_clean_linker_10, # of connection points: 2
#     Edge 17, Type (0, 0), BuildingBlock: TEMPAE_clean_linker_10, # of connection points: 2
#     Edge 18, Type (0, 0), BuildingBlock: TEMPAE_clean_linker_10, # of connection points: 2
#     Edge 19, Type (0, 0), BuildingBlock: TEMPAE_clean_linker_10, # of connection points: 2
#     Edge 20, Type (0, 0), BuildingBlock: TEMPAE_clean_linker_10, # of connection points: 2
#     Edge 21, Type (0, 0), BuildingBlock: TEMPAE_clean_linker_10, # of connection points: 2
#     Edge 22, Type (0, 0), BuildingBlock: TEMPAE_clean_linker_10, # of connection points: 2
#     Edge 23, Type (0, 0), BuildingBlock: TEMPAE_clean_linker_10, # of connection points: 2
#     Edge 24, Type (0, 0), BuildingBlock: TEMPAE_clean_linker_10, # of connection points: 2
#     Edge 25, Type (0, 0), BuildingBlock: TEMPAE_clean_linker_10, # of connection points: 2
#     Edge 26, Type (0, 0), BuildingBlock: TEMPAE_clean_linker_10, # of connection points: 2
#     Edge 27, Type (0, 0), BuildingBlock: TEMPAE_clean_linker_10, # of connection points: 2
#     Edge 28, Type (0, 0), BuildingBlock: TEMPAE_clean_linker_10, # of connection points: 2
#     Edge 29, Type (0, 0), BuildingBlock: TEMPAE_clean_linker_10, # of connection points: 2
#     Edge 30, Type (0, 0), BuildingBlock: TEMPAE_clean_linker_10, # of connection points: 2
#     Edge 31, Type (0, 0), BuildingBlock: TEMPAE_clean_linker_10, # of connection points: 2
#     Edge 32, Type (0, 0), BuildingBlock: TEMPAE_clean_linker_10, # of connection points: 2
#     Edge 33, Type (0, 0), BuildingBlock: TEMPAE_clean_linker_10, # of connection points: 2
#     Edge 34, Type (0, 0), BuildingBlock: TEMPAE_clean_linker_10, # of connection points: 2
#     Edge 35, Type (0, 0), BuildingBlock: TEMPAE_clean_linker_10, # of connection points: 2
#     Edge 36, Type (0, 0), BuildingBlock: TEMPAE_clean_linker_10, # of connection points: 2
#     Edge 37, Type (0, 0), BuildingBlock: TEMPAE_clean_linker_10, # of connection points: 2
#     Edge 38, Type (0, 0), BuildingBlock: TEMPAE_clean_linker_10, # of connection points: 2
#     Edge 39, Type (0, 0), BuildingBlock: TEMPAE_clean_linker_10, # of connection points: 2
#     Edge 40, Type (0, 0), BuildingBlock: TEMPAE_clean_linker_10, # of connection points: 2
#     Edge 41, Type (0, 0), BuildingBlock: TEMPAE_clean_linker_10, # of connection points: 2
#     Edge 42, Type (0, 0), BuildingBlock: TEMPAE_clean_linker_10, # of connection points: 2
#     Edge 43, Type (0, 0), BuildingBlock: TEMPAE_clean_linker_10, # of connection points: 2
#     Edge 44, Type (0, 0), BuildingBlock: TEMPAE_clean_linker_10, # of connection points: 2
#     Edge 45, Type (0, 0), BuildingBlock: TEMPAE_clean_linker_10, # of connection points: 2
#     Edge 46, Type (0, 0), BuildingBlock: TEMPAE_clean_linker_10, # of connection points: 2
#     Edge 47, Type (0, 0), BuildingBlock: TEMPAE_clean_linker_10, # of connection points: 2
# Relax obj value: 0.095
# Max RMSD: 0.141
# Mean RMSD: 0.141
data_MOF--net-ume--node1-QUQFOY_clean_sbu_3--edge1-TEMPAE_clean_linker_10
_symmetry_space_group_name_H-M    P1
_symmetry_Int_Tables_number       1
_symmetry_cell_setting            triclinic
loop_
_symmetry_equiv_pos_as_xyz
'x, y, z'
_cell_length_a     28.279396
_cell_length_b     28.319713
_cell_length_c     115.03289
_cell_angle_alpha  90.040836
_cell_angle_beta   89.953925
_cell_angle_gamma 89.953211
loop_
_atom_site_label
_atom_site_type_symbol
_atom_site_fract_x
_atom_site_fract_y
_atom_site_fract_z
_atom_type_partial_charge
C0 C 0.18924 0.21955 0.28408 0.0
O1 O 0.21853 0.23906 0.29095 0.0
Cd2 Cd 0.22385 0.22979 0.31163 0.0
O3 O 0.15711 0.19194 0.28786 0.0
Cd4 Cd 0.1292 0.15731 0.30644 0.0
C5 C 0.24001 0.10898 0.30958 0.0
O6 O 0.14572 0.22476 0.3185 0.0
O7 O 0.12389 0.163 0.32777 0.0
O8 O 0.04798 0.16337 0.29911 0.0
C9 C 0.13985 0.20476 0.32823 0.0
O10 O 0.25468 0.14982 0.31255 0.0
C11 C 0.03693 0.12111 0.30167 0.0
O12 O 0.19746 0.10229 0.30621 0.0
O13 O 0.06893 0.09579 0.30631 0.0
C14 C 0.77932 0.74547 0.52138 0.0
O15 O 0.74869 0.77002 0.52672 0.0
Cd16 Cd 0.76983 0.79598 0.54605 0.0
O17 O 0.81718 0.73345 0.52649 0.0
Cd18 Cd 0.8602 0.73477 0.54461 0.0
C19 C 0.8763 0.8508 0.54038 0.0
O20 O 0.79356 0.73075 0.55832 0.0
O21 O 0.8611 0.75515 0.56486 0.0
O22 O 0.87088 0.65227 0.5396 0.0
C23 C 0.81899 0.74241 0.56696 0.0
O24 O 0.83323 0.85458 0.54354 0.0
C25 C 0.91421 0.64987 0.54236 0.0
O26 O 0.89535 0.81031 0.53915 0.0
O27 O 0.93316 0.6872 0.54636 0.0
C28 C 0.26212 0.28855 0.77734 0.0
O29 O 0.2381 0.2666 0.78495 0.0
Cd30 Cd 0.21996 0.29903 0.8038 0.0
O31 O 0.28124 0.32814 0.77965 0.0
Cd32 Cd 0.2934 0.38383 0.79573 0.0
C33 C 0.17532 0.40861 0.79575 0.0
O34 O 0.29266 0.32677 0.81138 0.0
O35 O 0.29145 0.40003 0.81656 0.0
O36 O 0.37824 0.386 0.79271 0.0
C37 C 0.29179 0.3569 0.81953 0.0
O38 O 0.16947 0.36773 0.80016 0.0
C39 C 0.3805 0.42965 0.79029 0.0
O40 O 0.21634 0.42292 0.79272 0.0
O41 O 0.34171 0.45238 0.79003 0.0
C42 C 0.73127 0.75242 0.031 0.0
O43 O 0.75314 0.72296 0.03734 0.0
Cd44 Cd 0.72698 0.70289 0.05663 0.0
O45 O 0.69408 0.77284 0.03464 0.0
Cd46 Cd 0.64302 0.77681 0.05172 0.0
C47 C 0.61662 0.66083 0.04917 0.0
O48 O 0.70345 0.77224 0.06702 0.0
O49 O 0.63056 0.76089 0.07193 0.0
O50 O 0.63936 0.86102 0.04749 0.0
C51 C 0.67341 0.76449 0.075 0.0
O52 O 0.65741 0.6536 0.05353 0.0
C53 C 0.59495 0.86472 0.04879 0.0
O54 O 0.60306 0.70246 0.04651 0.0
O55 O 0.57246 0.8273 0.05136 0.0
C56 C 0.25369 0.27272 0.94364 0.0
O57 O 0.28171 0.25553 0.93609 0.0
Cd58 Cd 0.28904 0.28423 0.91637 0.0
O59 O 0.22833 0.30872 0.94142 0.0
Cd60 Cd 0.21216 0.36564 0.92594 0.0
C61 C 0.32976 0.39509 0.92355 0.0
O62 O 0.21148 0.3069 0.91058 0.0
O63 O 0.19782 0.3786 0.90534 0.0
O64 O 0.13355 0.36862 0.9347 0.0
C65 C 0.20362 0.33589 0.90243 0.0
O66 O 0.33636 0.35522 0.91867 0.0
C67 C 0.12929 0.41313 0.93384 0.0
O68 O 0.2893 0.40653 0.92762 0.0
O69 O 0.16421 0.43564 0.92964 0.0
C70 C 0.71143 0.70576 0.20394 0.0
O71 O 0.74208 0.72964 0.19843 0.0
Cd72 Cd 0.72555 0.75362 0.1787 0.0
O73 O 0.67487 0.69063 0.19874 0.0
Cd74 Cd 0.63623 0.68521 0.17999 0.0
C75 C 0.61389 0.80113 0.18324 0.0
O76 O 0.70375 0.68838 0.16655 0.0
O77 O 0.63452 0.7077 0.16001 0.0
O78 O 0.63035 0.60106 0.18385 0.0
C79 C 0.678 0.70054 0.15802 0.0
O80 O 0.65719 0.80677 0.18045 0.0
C81 C 0.58678 0.59751 0.18136 0.0
O82 O 0.59664 0.75989 0.18467 0.0
O83 O 0.56574 0.63496 0.17811 0.0
C84 C 0.31085 0.23007 0.43834 0.0
O85 O 0.2815 0.24767 0.43118 0.0
Cd86 Cd 0.27648 0.23443 0.41066 0.0
O87 O 0.34338 0.20191 0.43499 0.0
Cd88 Cd 0.37116 0.16345 0.41678 0.0
C89 C 0.26075 0.11411 0.41396 0.0
O90 O 0.35495 0.22896 0.40407 0.0
O91 O 0.37642 0.16568 0.39537 0.0
O92 O 0.45266 0.16998 0.42395 0.0
C93 C 0.36089 0.20753 0.39452 0.0
O94 O 0.24598 0.15428 0.41051 0.0
C95 C 0.4634 0.1273 0.42172 0.0
O96 O 0.30319 0.10828 0.41751 0.0
O97 O 0.43108 0.10157 0.41738 0.0
C98 C 0.76334 0.70237 0.6957 0.0
O99 O 0.73899 0.66998 0.69102 0.0
Cd100 Cd 0.76319 0.6411 0.67218 0.0
O101 O 0.80068 0.71738 0.69086 0.0
Cd102 Cd 0.84896 0.7061 0.67361 0.0
C103 C 0.87033 0.59132 0.67853 0.0
O104 O 0.78413 0.70524 0.65927 0.0
O105 O 0.85351 0.68286 0.65354 0.0
O106 O 0.85822 0.7899 0.6772 0.0
C107 C 0.81133 0.69367 0.65096 0.0
O108 O 0.82832 0.58546 0.67483 0.0
C109 C 0.90184 0.79202 0.67475 0.0
O110 O 0.88658 0.6327 0.68024 0.0
O111 O 0.92173 0.75385 0.67159 0.0
C112 C 0.79545 0.74968 0.77813 0.0
O113 O 0.82757 0.76797 0.78437 0.0
Cd114 Cd 0.84707 0.73459 0.80316 0.0
O115 O 0.77529 0.71161 0.78115 0.0
Cd116 Cd 0.77605 0.65251 0.79639 0.0
C117 C 0.89438 0.62812 0.79533 0.0
O118 O 0.7766 0.70776 0.81284 0.0
O119 O 0.78191 0.63262 0.81653 0.0
O120 O 0.69077 0.64496 0.79569 0.0
C121 C 0.77793 0.67456 0.82026 0.0
O122 O 0.90023 0.66861 0.79991 0.0
C123 C 0.68992 0.60324 0.79171 0.0
O124 O 0.85325 0.6142 0.79231 0.0
O125 O 0.72959 0.58383 0.78963 0.0
C126 C 0.28835 0.27991 0.02862 0.0
O127 O 0.26568 0.30923 0.03483 0.0
Cd128 Cd 0.29255 0.32823 0.05408 0.0
O129 O 0.32639 0.26138 0.03231 0.0
Cd130 Cd 0.37682 0.26471 0.04961 0.0
C131 C 0.39744 0.38109 0.04745 0.0
O132 O 0.31522 0.25828 0.0647 0.0
O133 O 0.38458 0.28145 0.07013 0.0
O134 O 0.3884 0.18196 0.04463 0.0
C135 C 0.3437 0.2672 0.07293 0.0
O136 O 0.35664 0.38522 0.05203 0.0
C137 C 0.43223 0.18081 0.04691 0.0
O138 O 0.41299 0.34067 0.04441 0.0
O139 O 0.45106 0.21911 0.05031 0.0
C140 C 0.63971 0.80121 0.28387 0.0
O141 O 0.62237 0.77619 0.29195 0.0
Cd142 Cd 0.59991 0.81189 0.30991 0.0
O143 O 0.64737 0.84511 0.28533 0.0
Cd144 Cd 0.64456 0.9048 0.30092 0.0
C145 C 0.52621 0.90413 0.30227 0.0
O146 O 0.67067 0.85079 0.31607 0.0
O147 O 0.64259 0.91764 0.32188 0.0
O148 O 0.7207 0.92562 0.29241 0.0
C149 C 0.66505 0.88015 0.32424 0.0
O150 O 0.53153 0.86434 0.30727 0.0
C151 C 0.71839 0.96939 0.29463 0.0
O152 O 0.56178 0.92613 0.29817 0.0
O153 O 0.68023 0.98417 0.2992 0.0
C154 C 0.22014 0.21857 0.52204 0.0
O155 O 0.23681 0.18838 0.52908 0.0
Cd156 Cd 0.20285 0.17264 0.54779 0.0
O157 O 0.18283 0.24166 0.5245 0.0
Cd158 Cd 0.12518 0.24559 0.54063 0.0
C159 C 0.09437 0.13111 0.53917 0.0
O160 O 0.17955 0.24391 0.5574 0.0
O161 O 0.10601 0.22787 0.56053 0.0
O162 O 0.12153 0.33073 0.53707 0.0
C163 C 0.14672 0.23578 0.56465 0.0
O164 O 0.13314 0.12426 0.54454 0.0
C165 C 0.07686 0.33378 0.53776 0.0
O166 O 0.08374 0.17194 0.53527 0.0
O167 O 0.05433 0.29557 0.53937 0.0
C168 C 0.85992 0.81048 0.44085 0.0
O169 O 0.87724 0.78359 0.43313 0.0
Cd170 Cd 0.90183 0.81659 0.41502 0.0
O171 O 0.85311 0.85415 0.43888 0.0
Cd172 Cd 0.85714 0.91133 0.42285 0.0
C173 C 0.97548 0.90952 0.42221 0.0
O174 O 0.83204 0.85523 0.40805 0.0
O175 O 0.86064 0.92119 0.40183 0.0
O176 O 0.78072 0.93276 0.43107 0.0
C177 C 0.83839 0.8834 0.39966 0.0
O178 O 0.97039 0.86893 0.41759 0.0
C179 C 0.7827 0.97626 0.42856 0.0
O180 O 0.93968 0.93252 0.42585 0.0
O181 O 0.82075 0.99072 0.42388 0.0
C182 C 0.20228 0.21708 0.6946 0.0
O183 O 0.22834 0.2386 0.68736 0.0
Cd184 Cd 0.19642 0.26259 0.66896 0.0
O185 O 0.16141 0.20273 0.69165 0.0
Cd186 Cd 0.11181 0.19674 0.6742 0.0
C187 C 0.0893 0.31145 0.67748 0.0
O188 O 0.1692 0.19613 0.6581 0.0
O189 O 0.09825 0.22032 0.65439 0.0
O190 O 0.10708 0.11229 0.67797 0.0
C191 C 0.13879 0.20888 0.65062 0.0
O192 O 0.13016 0.31661 0.67295 0.0
C193 C 0.06273 0.10915 0.6765 0.0
O194 O 0.07365 0.27049 0.67998 0.0
O195 O 0.04063 0.14713 0.67421 0.0
C196 C 0.71031 0.72346 0.94655 0.0
O197 O 0.6824 0.74327 0.93942 0.0
Cd198 Cd 0.6702 0.71244 0.9201 0.0
O199 O 0.7304 0.68449 0.94416 0.0
Cd200 Cd 0.73505 0.62522 0.92878 0.0
C201 C 0.61575 0.60766 0.92667 0.0
O202 O 0.74664 0.68577 0.91383 0.0
O203 O 0.74772 0.61284 0.90825 0.0
O204 O 0.81155 0.61255 0.93809 0.0
C205 C 0.75199 0.65607 0.9057 0.0
O206 O 0.6136 0.64817 0.9219 0.0
C207 C 0.81278 0.5684 0.93624 0.0
O208 O 0.65474 0.59202 0.9307 0.0
O209 O 0.77695 0.55023 0.93132 0.0
C210 C 0.27557 0.17765 0.20065 0.0
O211 O 0.25696 0.14657 0.19417 0.0
Cd212 Cd 0.28869 0.13013 0.17523 0.0
O213 O 0.31298 0.19902 0.19751 0.0
Cd214 Cd 0.36803 0.1971 0.18087 0.0
C215 C 0.39468 0.0818 0.18256 0.0
O216 O 0.30901 0.20188 0.16512 0.0
O217 O 0.37992 0.18113 0.16038 0.0
O218 O 0.37745 0.28077 0.18559 0.0
C219 C 0.33921 0.19442 0.15718 0.0
O220 O 0.35526 0.0763 0.17741 0.0
C221 C 0.42156 0.28235 0.18367 0.0
O222 O 0.40709 0.12241 0.18623 0.0
O223 O 0.44143 0.24391 0.18074 0.0
C224 C 0.76647 0.03936 0.30054 0.0
C225 C 0.76053 -0.00013 0.29333 0.0
C226 C 0.81011 0.06297 0.3011 0.0
C227 C 0.84829 0.04726 0.29411 0.0
C228 C 0.84127 0.00963 0.28618 0.0
C229 C 0.79765 0.98601 0.28599 0.0
C230 C 0.81628 0.10249 0.30978 0.0
C231 C 0.88065 0.99255 0.27836 0.0
C232 C 0.95802 0.1247 0.29176 0.0
C233 C 0.98879 0.10237 0.29959 0.0
C234 C 0.91228 0.10699 0.28977 0.0
C235 C 0.89667 0.06667 0.29595 0.0
C236 C 0.9275 0.04434 0.30395 0.0
C237 C 0.97331 0.06214 0.30557 0.0
C238 C 0.88083 0.13111 0.281 0.0
C239 C 0.91201 0.00173 0.31087 0.0
H240 H 0.73799 0.04999 0.30629 0.0
H241 H 0.79311 0.95564 0.28036 0.0
H242 H 0.84026 0.09068 0.31684 0.0
H243 H 0.83289 0.13361 0.3056 0.0
H244 H 0.78214 0.11355 0.31373 0.0
H245 H 0.86774 0.9675 0.27164 0.0
H246 H 0.898 0.02281 0.27397 0.0
H247 H 0.90796 0.97442 0.28365 0.0
H248 H 0.96993 0.15568 0.28708 0.0
H249 H 0.99681 0.04493 0.31169 0.0
H250 H 0.84794 0.14362 0.28526 0.0
H251 H 0.87026 0.10559 0.27415 0.0
H252 H 0.89847 0.16171 0.2768 0.0
H253 H 0.87959 0.01022 0.3159 0.0
H254 H 0.93971 0.98944 0.31701 0.0
H255 H 0.90316 0.97225 0.3049 0.0
C256 C 0.97758 0.59367 0.54857 0.0
C257 C 0.94075 0.60531 0.54096 0.0
C258 C 0.0005 0.54972 0.54778 0.0
C259 C 0.9872 0.51747 0.53893 0.0
C260 C 0.95124 0.52999 0.53095 0.0
C261 C 0.92791 0.57344 0.53219 0.0
C262 C 0.03785 0.53718 0.55662 0.0
C263 C 0.93703 0.49729 0.52119 0.0
C264 C 0.07368 0.41863 0.53182 0.0
C265 C 0.05269 0.38005 0.53744 0.0
C266 C 0.05224 0.46339 0.53201 0.0
C267 C 0.00962 0.46995 0.53828 0.0
C268 C 0.98833 0.43105 0.54397 0.0
C269 C 0.00977 0.38639 0.54333 0.0
C270 C 0.07521 0.50364 0.52552 0.0
C271 C 0.94347 0.4368 0.55096 0.0
H272 H 0.98729 0.61821 0.5554 0.0
H273 H 0.89969 0.58265 0.52623 0.0
H274 H 0.02676 0.50532 0.56153 0.0
H275 H 0.07161 0.52848 0.5522 0.0
H276 H 0.04434 0.56629 0.5629 0.0
H277 H 0.91105 0.51384 0.5152 0.0
H278 H 0.96865 0.48663 0.5161 0.0
H279 H 0.92118 0.46465 0.52481 0.0
H280 H 0.10681 0.41373 0.52722 0.0
H281 H 0.99373 0.35672 0.54779 0.0
H282 H 0.0858 0.53174 0.53171 0.0
H283 H 0.04959 0.51953 0.51935 0.0
H284 H 0.107 0.49214 0.52059 0.0
H285 H 0.94885 0.46364 0.55787 0.0
H286 H 0.93204 0.40325 0.55509 0.0
H287 H 0.9145 0.44971 0.5453 0.0
C288 C 0.63948 0.54318 0.78163 0.0
C289 C 0.64466 0.57814 0.79015 0.0
C290 C 0.59632 0.51916 0.78028 0.0
C291 C 0.55829 0.52925 0.78792 0.0
C292 C 0.56355 0.56455 0.79654 0.0
C293 C 0.60641 0.58909 0.79741 0.0
C294 C 0.59147 0.48287 0.77074 0.0
C295 C 0.52445 0.57543 0.80509 0.0
C296 C 0.43046 0.49491 0.78222 0.0
C297 C 0.42661 0.45325 0.78871 0.0
C298 C 0.47391 0.51873 0.78132 0.0
C299 C 0.5138 0.50131 0.78742 0.0
C300 C 0.51013 0.45884 0.79384 0.0
C301 C 0.46677 0.43495 0.79425 0.0
C302 C 0.47686 0.56306 0.77408 0.0
C303 C 0.55135 0.43981 0.80075 0.0
H304 H 0.66896 0.53505 0.77594 0.0
H305 H 0.6105 0.61594 0.80406 0.0
H306 H 0.58688 0.44727 0.77458 0.0
H307 H 0.55951 0.49034 0.76545 0.0
H308 H 0.6228 0.48214 0.76491 0.0
H309 H 0.53435 0.60378 0.81131 0.0
H310 H 0.49206 0.58652 0.8004 0.0
H311 H 0.51549 0.54317 0.81011 0.0
H312 H 0.3995 0.50888 0.77786 0.0
H313 H 0.4638 0.4029 0.79935 0.0
H314 H 0.5079 0.56141 0.76819 0.0
H315 H 0.48176 0.59412 0.77984 0.0
H316 H 0.4445 0.5687 0.76879 0.0
H317 H 0.58254 0.43476 0.79504 0.0
H318 H 0.54304 0.40564 0.80503 0.0
H319 H 0.56147 0.4657 0.80756 0.0
C320 C 0.44448 0.10063 0.03847 0.0
C321 C 0.45914 0.13625 0.04612 0.0
C322 C 0.46763 0.0568 0.03815 0.0
C323 C 0.50533 0.04795 0.04594 0.0
C324 C 0.5206 0.08404 0.0536 0.0
C325 C 0.49773 0.12808 0.05347 0.0
C326 C 0.45127 0.01976 0.02961 0.0
C327 C 0.55994 0.07559 0.06222 0.0
C328 C 0.5294 0.91999 0.0539 0.0
C329 C 0.57097 0.91081 0.04767 0.0
C330 C 0.50787 0.96464 0.05348 0.0
C331 C 0.52764 0.00039 0.04637 0.0
C332 C 0.56889 0.9908 0.0398 0.0
C333 C 0.59051 0.9463 0.04068 0.0
C334 C 0.46455 0.97385 0.06083 0.0
C335 C 0.59017 0.0275 0.03185 0.0
H336 H 0.4148 0.10705 0.03272 0.0
H337 H 0.50882 0.15549 0.05946 0.0
H338 H 0.48171 0.00643 0.02447 0.0
H339 H 0.43613 0.98925 0.03436 0.0
H340 H 0.42406 0.03354 0.02352 0.0
H341 H 0.56795 0.10749 0.06749 0.0
H342 H 0.54994 0.04646 0.06819 0.0
H343 H 0.5926 0.0645 0.05763 0.0
H344 H 0.51449 0.89268 0.05939 0.0
H345 H 0.62252 0.9391 0.03579 0.0
H346 H 0.43434 0.98394 0.05521 0.0
H347 H 0.47128 0.00386 0.06681 0.0
H348 H 0.45418 0.94257 0.06607 0.0
H349 H 0.56314 0.0402 0.0256 0.0
H350 H 0.62091 0.01362 0.02689 0.0
H351 H 0.60191 0.05846 0.03699 0.0
C352 C 0.05154 0.41616 0.9442 0.0
C353 C 0.08427 0.43703 0.93662 0.0
C354 C 0.00676 0.43644 0.94598 0.0
C355 C 0.99406 0.4776 0.93973 0.0
C356 C 0.02752 0.49943 0.93231 0.0
C357 C 0.07247 0.47923 0.93098 0.0
C358 C 0.97263 0.41312 0.95427 0.0
C359 C 0.0151 0.54282 0.92531 0.0
C360 C 0.86626 0.50101 0.93171 0.0
C361 C 0.85601 0.54071 0.93854 0.0
C362 C 0.9106 0.47894 0.93234 0.0
C363 C 0.94492 0.49622 0.94023 0.0
C364 C 0.93346 0.53417 0.94774 0.0
C365 C 0.88934 0.55653 0.94667 0.0
C366 C 0.92171 0.43917 0.92402 0.0
C367 C 0.96851 0.55251 0.95654 0.0
H368 H 0.06077 0.38368 0.94864 0.0
H369 H 0.09762 0.49529 0.92507 0.0
H370 H 0.95693 0.43972 0.96022 0.0
H371 H 0.94319 0.3969 0.94932 0.0
H372 H 0.98992 0.38516 0.95954 0.0
H373 H 0.04548 0.55601 0.92012 0.0
H374 H 0.98556 0.53458 0.9193 0.0
H375 H 0.00291 0.57155 0.93115 0.0
H376 H 0.84065 0.48889 0.92537 0.0
H377 H 0.88131 0.58703 0.95202 0.0
H378 H 0.9352 0.40801 0.92881 0.0
H379 H 0.94994 0.45049 0.91792 0.0
H380 H 0.89035 0.42826 0.91887 0.0
H381 H 0.98486 0.52282 0.96138 0.0
H382 H 0.95177 0.57707 0.96286 0.0
H383 H 0.99734 0.5716 0.952 0.0
C384 C 0.43095 0.36468 0.19109 0.0
C385 C 0.44774 0.32743 0.1842 0.0
C386 C 0.45388 0.40864 0.19117 0.0
C387 C 0.49365 0.41589 0.1839 0.0
C388 C 0.51083 0.37828 0.17695 0.0
C389 C 0.48805 0.33425 0.17731 0.0
C390 C 0.43536 0.4474 0.19896 0.0
C391 C 0.55247 0.38492 0.16889 0.0
C392 C 0.52247 0.54227 0.17527 0.0
C393 C 0.56209 0.55168 0.18219 0.0
C394 C 0.50006 0.49804 0.17566 0.0
C395 C 0.51688 0.46301 0.18343 0.0
C396 C 0.55617 0.47285 0.19065 0.0
C397 C 0.57874 0.51684 0.18981 0.0
C398 C 0.45896 0.4885 0.16763 0.0
C399 C 0.57431 0.43697 0.19927 0.0
H400 H 0.39989 0.35939 0.19647 0.0
H401 H 0.5008 0.30563 0.17189 0.0
H402 H 0.4642 0.46097 0.20458 0.0
H403 H 0.42262 0.4774 0.19362 0.0
H404 H 0.40585 0.4352 0.20459 0.0
H405 H 0.56125 0.35222 0.164 0.0
H406 H 0.54463 0.41345 0.16257 0.0
H407 H 0.58405 0.39598 0.1739 0.0
H408 H 0.50975 0.56908 0.16931 0.0
H409 H 0.60916 0.52421 0.19525 0.0
H410 H 0.42695 0.47973 0.17277 0.0
H411 H 0.46696 0.45752 0.16205 0.0
H412 H 0.45079 0.51916 0.16196 0.0
H413 H 0.54528 0.4258 0.20515 0.0
H414 H 0.60384 0.45096 0.20462 0.0
H415 H 0.58685 0.405 0.19462 0.0
C416 C 0.5429 0.13174 0.43132 0.0
C417 C 0.51158 0.10857 0.42378 0.0
C418 C 0.58877 0.11414 0.43323 0.0
C419 C 0.60392 0.07307 0.42726 0.0
C420 C 0.5725 0.04984 0.41957 0.0
C421 C 0.5266 0.06757 0.41802 0.0
C422 C 0.62086 0.13921 0.4417 0.0
C423 C 0.58748 0.00639 0.41288 0.0
C424 C 0.73385 0.04524 0.42229 0.0
C425 C 0.74043 0.00668 0.42975 0.0
C426 C 0.69009 0.0687 0.42174 0.0
C427 C 0.65247 0.05384 0.42901 0.0
C428 C 0.66013 0.01717 0.43716 0.0
C429 C 0.70384 0.99364 0.43733 0.0
C430 C 0.68319 0.10715 0.41282 0.0
C431 C 0.62137 0.00101 0.44526 0.0
H432 H 0.53136 0.16333 0.43583 0.0
H433 H 0.50266 0.0497 0.41213 0.0
H434 H 0.63204 0.11446 0.44865 0.0
H435 H 0.65336 0.15127 0.4372 0.0
H436 H 0.60348 0.17025 0.44579 0.0
H437 H 0.55931 0.9934 0.40696 0.0
H438 H 0.61949 0.01422 0.40764 0.0
H439 H 0.59682 0.97764 0.41901 0.0
H440 H 0.76192 0.05521 0.41636 0.0
H441 H 0.70888 0.964 0.44316 0.0
H442 H 0.66696 0.13881 0.41686 0.0
H443 H 0.65859 0.09455 0.40598 0.0
H444 H 0.71698 0.11763 0.40862 0.0
H445 H 0.6043 0.03176 0.44953 0.0
H446 H 0.63481 0.97673 0.45209 0.0
H447 H 0.5937 0.98229 0.44022 0.0
C448 C 0.05803 0.02573 0.68338 0.0
C449 C 0.03859 0.06298 0.67694 0.0
C450 C 0.0366 0.98104 0.68349 0.0
C451 C 0.9956 0.97313 0.67671 0.0
C452 C 0.97593 0.01064 0.67016 0.0
C453 C 0.9973 0.05535 0.67049 0.0
C454 C 0.05776 0.94236 0.69088 0.0
C455 C 0.93285 0.00331 0.66262 0.0
C456 C 0.96586 0.84676 0.6682 0.0
C457 C 0.92763 0.83716 0.67557 0.0
C458 C 0.98833 0.891 0.66845 0.0
C459 C 0.97304 0.9257 0.67651 0.0
C460 C 0.93545 0.91544 0.68424 0.0
C461 C 0.91271 0.87155 0.68354 0.0
C462 C 0.02753 0.90106 0.65989 0.0
C463 C 0.91906 0.95089 0.69319 0.0
H464 H 0.08988 0.03166 0.68841 0.0
H465 H 0.9825 0.084 0.66541 0.0
H466 H 0.0307 0.92838 0.69696 0.0
H467 H 0.0693 0.91259 0.68528 0.0
H468 H 0.0886 0.95482 0.696 0.0
H469 H 0.92273 0.03578 0.65781 0.0
H470 H 0.9397 0.97467 0.65625 0.0
H471 H 0.90243 0.99209 0.66804 0.0
H472 H 0.97716 0.82026 0.66199 0.0
H473 H 0.88337 0.86396 0.68932 0.0
H474 H 0.06038 0.91067 0.66458 0.0
H475 H 0.01771 0.93167 0.65437 0.0
H476 H 0.03511 0.87037 0.65416 0.0
H477 H 0.94941 0.96265 0.69858 0.0
H478 H 0.89138 0.93628 0.69903 0.0
H479 H 0.90458 0.9826 0.6888 0.0
C480 C 0.44178 0.9083 0.30883 0.0
C481 C 0.47881 0.92658 0.30205 0.0
C482 C 0.39854 0.93236 0.30985 0.0
C483 C 0.39203 0.97551 0.30387 0.0
C484 C 0.42822 0.99272 0.29649 0.0
C485 C 0.47125 0.96819 0.29571 0.0
C486 C 0.3609 0.91295 0.31784 0.0
C487 C 0.42241 0.03833 0.28985 0.0
C488 C 0.27137 0.03394 0.30094 0.0
C489 C 0.27491 0.07013 0.30922 0.0
C490 C 0.3086 0.0016 0.29932 0.0
C491 C 0.3498 0.00535 0.30627 0.0
C492 C 0.35215 0.04008 0.3151 0.0
C493 C 0.31484 0.0722 0.31641 0.0
C494 C 0.30492 0.96517 0.28979 0.0
C495 C 0.39503 0.04478 0.32284 0.0
H496 H 0.44718 0.87611 0.31375 0.0
H497 H 0.49943 0.98235 0.29036 0.0
H498 H 0.35776 0.93596 0.32562 0.0
H499 H 0.32599 0.91286 0.31346 0.0
H500 H 0.3691 0.87649 0.32078 0.0
H501 H 0.45174 0.04434 0.28359 0.0
H502 H 0.38848 0.03832 0.28501 0.0
H503 H 0.42136 0.0684 0.29603 0.0
H504 H 0.24067 0.03241 0.29532 0.0
H505 H 0.31749 0.09985 0.32291 0.0
H506 H 0.31467 0.92971 0.29311 0.0
H507 H 0.33016 0.97401 0.28273 0.0
H508 H 0.26877 0.96345 0.28604 0.0
H509 H 0.40386 0.01024 0.32684 0.0
H510 H 0.38962 0.07108 0.32989 0.0
H511 H 0.42596 0.05588 0.31757 0.0
C512 C 0.89137 0.93673 0.54376 0.0
C513 C 0.90484 0.894 0.53853 0.0
C514 C 0.91998 0.97706 0.5429 0.0
C515 C 0.96263 0.97488 0.53646 0.0
C516 C 0.97516 0.93253 0.53067 0.0
C517 C 0.9464 0.89242 0.53188 0.0
C518 C 0.90578 0.02123 0.54939 0.0
C519 C 0.01985 0.92908 0.52353 0.0
C520 C 0.02546 0.09065 0.52957 0.0
C521 C 0.06068 0.09129 0.53814 0.0
C522 C 0.99362 0.05258 0.52875 0.0
C523 C 0.99651 0.01506 0.53686 0.0
C524 C 0.03174 0.01591 0.54559 0.0
C525 C 0.0636 0.05367 0.54604 0.0
C526 C 0.95708 0.05238 0.51919 0.0
C527 C 0.03547 0.97715 0.55457 0.0
H528 H 0.85932 0.9382 0.54892 0.0
H529 H 0.9567 0.85967 0.5277 0.0
H530 H 0.93146 0.02803 0.55649 0.0
H531 H 0.90659 0.05225 0.54352 0.0
H532 H 0.86987 0.01837 0.55325 0.0
H533 H 0.02162 0.89572 0.51846 0.0
H534 H 0.02235 0.95932 0.51743 0.0
H535 H 0.05108 0.9307 0.52934 0.0
H536 H 0.02316 0.11956 0.52342 0.0
H537 H 0.09038 0.05414 0.55277 0.0
H538 H 0.92105 0.05214 0.52301 0.0
H539 H 0.9607 0.01979 0.5139 0.0
H540 H 0.96035 0.08349 0.51337 0.0
H541 H 0.00161 0.97393 0.55938 0.0
H542 H 0.06428 0.98365 0.56093 0.0
H543 H 0.04215 0.94278 0.55023 0.0
C544 C 0.13429 0.47828 0.78673 0.0
C545 C 0.13367 0.44004 0.79447 0.0
C546 C 0.09499 0.50848 0.78568 0.0
C547 C 0.05464 0.50084 0.79275 0.0
C548 C 0.05373 0.46204 0.80049 0.0
C549 C 0.093 0.43191 0.80117 0.0
C550 C 0.0969 0.54894 0.77716 0.0
C551 C 0.01185 0.4532 0.80835 0.0
C552 C 0.9766 0.60491 0.80075 0.0
C553 C 0.93593 0.5965 0.79408 0.0
C554 C 0.01567 0.57449 0.80023 0.0
C555 C 0.01459 0.53506 0.79268 0.0
C556 C 0.97427 0.52708 0.78564 0.0
C557 C 0.93513 0.55763 0.78652 0.0
C558 C 0.05753 0.58379 0.80806 0.0
C559 C 0.97223 0.48594 0.77731 0.0
H560 H 0.16543 0.48452 0.78144 0.0
H561 H 0.09229 0.40258 0.80722 0.0
H562 H 0.06527 0.54838 0.77146 0.0
H563 H 0.09648 0.58298 0.78194 0.0
H564 H 0.12911 0.54774 0.77163 0.0
H565 H 0.01617 0.42073 0.81366 0.0
H566 H 0.00696 0.48367 0.81431 0.0
H567 H 0.97907 0.44984 0.80314 0.0
H568 H 0.97748 0.6347 0.80667 0.0
H569 H 0.90398 0.55112 0.78127 0.0
H570 H 0.09034 0.58678 0.80283 0.0
H571 H 0.06236 0.5537 0.81412 0.0
H572 H 0.05324 0.61661 0.81326 0.0
H573 H 0.00385 0.48597 0.77159 0.0
H574 H 0.94001 0.48676 0.77179 0.0
H575 H 0.97261 0.45229 0.78224 0.0
C576 C 0.54628 0.62214 0.03984 0.0
C577 C 0.58436 0.62014 0.04763 0.0
C578 C 0.51535 0.5836 0.03858 0.0
C579 C 0.5221 0.5427 0.04548 0.0
C580 C 0.56063 0.5405 0.0533 0.0
C581 C 0.59151 0.57899 0.05419 0.0
C582 C 0.47522 0.58678 0.02997 0.0
C583 C 0.56855 0.49796 0.06098 0.0
C584 C 0.41816 0.46382 0.05293 0.0
C585 C 0.42759 0.42354 0.0462 0.0
C586 C 0.44796 0.50332 0.05253 0.0
C587 C 0.4877 0.503 0.04505 0.0
C588 C 0.49636 0.46324 0.03787 0.0
C589 C 0.46649 0.42371 0.03863 0.0
C590 C 0.43799 0.5446 0.06049 0.0
C591 C 0.53782 0.46203 0.0296 0.0
H592 H 0.54082 0.6537 0.03469 0.0
H593 H 0.62069 0.57727 0.06028 0.0
H594 H 0.47593 0.55586 0.02404 0.0
H595 H 0.44091 0.58598 0.03465 0.0
H596 H 0.47683 0.61955 0.02469 0.0
H597 H 0.60055 0.50162 0.0665 0.0
H598 H 0.53744 0.4927 0.06672 0.0
H599 H 0.57236 0.46569 0.05559 0.0
H600 H 0.38828 0.46392 0.05884 0.0
H601 H 0.4737 0.39287 0.03333 0.0
H602 H 0.43583 0.57781 0.05542 0.0
H603 H 0.46744 0.54866 0.06679 0.0
H604 H 0.40452 0.54017 0.06543 0.0
H605 H 0.53832 0.4944 0.02417 0.0
H606 H 0.5369 0.43068 0.0238 0.0
H607 H 0.57133 0.46126 0.03461 0.0
C608 C 0.37006 0.46512 0.9326 0.0
C609 C 0.37035 0.42796 0.92453 0.0
C610 C 0.40933 0.49522 0.93375 0.0
C611 C 0.44938 0.48842 0.92653 0.0
C612 C 0.44961 0.45125 0.91831 0.0
C613 C 0.41031 0.42134 0.91746 0.0
C614 C 0.40808 0.53414 0.94272 0.0
C615 C 0.49128 0.44326 0.91031 0.0
C616 C 0.53292 0.59019 0.92041 0.0
C617 C 0.57242 0.57821 0.92718 0.0
C618 C 0.49229 0.56183 0.92032 0.0
C619 C 0.49075 0.52074 0.92729 0.0
C620 C 0.52991 0.5091 0.93442 0.0
C621 C 0.57046 0.53779 0.93421 0.0
C622 C 0.45158 0.57508 0.91247 0.0
C623 C 0.52931 0.46586 0.94208 0.0
H624 H 0.33947 0.47023 0.93814 0.0
H625 H 0.41076 0.3929 0.91115 0.0
H626 H 0.43843 0.5304 0.94875 0.0
H627 H 0.4116 0.56897 0.9384 0.0
H628 H 0.37482 0.53397 0.94787 0.0
H629 H 0.48578 0.41286 0.90435 0.0
H630 H 0.4977 0.47534 0.905 0.0
H631 H 0.52369 0.43672 0.91549 0.0
H632 H 0.53409 0.62126 0.91492 0.0
H633 H 0.60065 0.52846 0.93953 0.0
H634 H 0.41838 0.57771 0.91757 0.0
H635 H 0.44632 0.54711 0.90584 0.0
H636 H 0.45757 0.60918 0.90794 0.0
H637 H 0.4973 0.46602 0.94767 0.0
H638 H 0.56108 0.46364 0.94773 0.0
H639 H 0.52773 0.43361 0.93662 0.0
C640 C 0.59513 0.88531 0.17873 0.0
C641 C 0.58315 0.84322 0.18444 0.0
C642 C 0.56531 0.92487 0.17918 0.0
C643 C 0.52292 0.92269 0.18571 0.0
C644 C 0.51149 0.8809 0.19187 0.0
C645 C 0.54146 0.84142 0.19104 0.0
C646 C 0.57831 0.96837 0.1723 0.0
C647 C 0.46714 0.8776 0.19913 0.0
C648 C 0.46241 0.03998 0.19225 0.0
C649 C 0.42681 0.04076 0.18377 0.0
C650 C 0.49321 0.00115 0.19323 0.0
C651 C 0.48897 0.96288 0.18536 0.0
C652 C 0.45312 0.96361 0.17678 0.0
C653 C 0.4222 0.00223 0.17618 0.0
C654 C 0.53038 0.00114 0.20264 0.0
C655 C 0.44804 0.92404 0.16805 0.0
H656 H 0.6272 0.88688 0.17358 0.0
H657 H 0.53229 0.80914 0.19557 0.0
H658 H 0.55125 0.97481 0.1655 0.0
H659 H 0.57882 -0.00015 0.17804 0.0
H660 H 0.61339 0.96503 0.16802 0.0
H661 H 0.46561 0.84435 0.20424 0.0
H662 H 0.46499 0.90798 0.20521 0.0
H663 H 0.43561 0.87924 0.19342 0.0
H664 H 0.46593 0.06954 0.19817 0.0
H665 H 0.39502 0.00275 0.16954 0.0
H666 H 0.56613 0.00121 0.19867 0.0
H667 H 0.52746 0.96854 0.20793 0.0
H668 H 0.52728 0.03225 0.20848 0.0
H669 H 0.48119 0.92037 0.16296 0.0
H670 H 0.41831 0.93005 0.16192 0.0
H671 H 0.44207 0.89007 0.17261 0.0
C672 C 0.0302 0.97408 0.42854 0.0
C673 C 0.02296 0.93173 0.42248 0.0
C674 C 0.07323 -0.00152 0.42771 0.0
C675 C 0.10977 0.98035 0.42055 0.0
C676 C 0.10363 0.9364 0.4149 0.0
C677 C 0.06036 0.9125 0.41597 0.0
C678 C 0.07864 0.04495 0.43402 0.0
C679 C 0.14166 0.91598 0.40716 0.0
C680 C 0.18639 0.0758 0.40735 0.0
C681 C 0.22613 0.0751 0.41462 0.0
C682 C 0.14939 0.04355 0.40886 0.0
C683 C 0.15184 0.01009 0.41797 0.0
C684 C 0.19287 0.00768 0.42501 0.0
C685 C 0.2298 0.04012 0.4232 0.0
C686 C 0.10668 0.04679 0.40101 0.0
C687 C 0.19667 0.97261 0.43484 0.0
H688 H 0.00173 0.98896 0.43369 0.0
H689 H 0.0552 0.87972 0.41127 0.0
H690 H 0.11246 0.04573 0.4389 0.0
H691 H 0.07962 0.07421 0.42761 0.0
H692 H 0.04914 0.05162 0.44019 0.0
H693 H 0.13386 0.87899 0.40458 0.0
H694 H 0.14476 0.93767 0.39917 0.0
H695 H 0.17647 0.91689 0.41159 0.0
H696 H 0.18365 0.10248 0.40063 0.0
H697 H 0.26037 0.03963 0.42888 0.0
H698 H 0.07549 0.05834 0.40614 0.0
H699 H 0.09832 0.01164 0.39729 0.0
H700 H 0.11202 0.07214 0.39376 0.0
H701 H 0.1713 0.98232 0.44181 0.0
H702 H 0.23279 0.97158 0.43862 0.0
H703 H 0.18717 0.93666 0.4318 0.0
C704 C 0.06572 0.39363 0.6723 0.0
C705 C 0.05893 0.35346 0.67921 0.0
C706 C 0.03533 0.43262 0.67314 0.0
C707 C 0.99788 0.43196 0.68131 0.0
C708 C 0.99199 0.39229 0.68867 0.0
C709 C 0.02221 0.35316 0.68741 0.0
C710 C 0.04219 0.47373 0.66495 0.0
C711 C 0.95324 0.39082 0.69769 0.0
C712 C 0.9414 0.55159 0.68721 0.0
C713 C 0.90127 0.54958 0.68008 0.0
C714 C 0.97213 0.51271 0.68814 0.0
C715 C 0.96313 0.47146 0.68153 0.0
C716 C 0.92225 0.46905 0.67447 0.0
C717 C 0.89156 0.50788 0.67394 0.0
C718 C 0.0147 0.5161 0.69601 0.0
C719 C 0.91187 0.42616 0.66708 0.0
H720 H 0.09386 0.39394 0.66589 0.0
H721 H 0.01709 0.32234 0.69285 0.0
H722 H 0.01054 0.47763 0.65933 0.0
H723 H 0.0461 0.50703 0.66993 0.0
H724 H 0.07374 0.46925 0.65929 0.0
H725 H 0.95632 0.35958 0.70348 0.0
H726 H 0.9541 0.42328 0.7031 0.0
H727 H 0.91827 0.38968 0.69334 0.0
H728 H 0.94886 0.5836 0.69205 0.0
H729 H 0.86076 0.50617 0.66835 0.0
H730 H 0.04748 0.51619 0.69071 0.0
H731 H 0.0164 0.48489 0.70182 0.0
H732 H 0.01412 0.54859 0.70142 0.0
H733 H 0.94079 0.42091 0.66068 0.0
H734 H 0.87794 0.42942 0.66229 0.0
H735 H 0.91037 0.39404 0.67258 0.0
C736 C 0.16158 0.1953 0.34911 0.0
C737 C 0.16614 0.22043 0.33868 0.0
C738 C 0.19351 0.20218 0.35827 0.0
C739 C 0.23121 0.23461 0.35691 0.0
C740 C 0.23379 0.26276 0.34677 0.0
C741 C 0.20083 0.25569 0.33781 0.0
C742 C 0.18877 0.1723 0.36909 0.0
C743 C 0.27341 0.29769 0.34498 0.0
C744 C 0.30097 0.25814 0.38446 0.0
C745 C 0.33495 0.22203 0.38393 0.0
C746 C 0.26824 0.26458 0.37542 0.0
C747 C 0.27034 0.23487 0.36554 0.0
C748 C 0.30738 0.20143 0.36449 0.0
C749 C 0.33909 0.19523 0.37373 0.0
C750 C 0.22933 0.30061 0.37687 0.0
C751 C 0.31159 0.16984 0.35395 0.0
H752 H 0.13444 0.16847 0.34991 0.0
H753 H 0.20419 0.27581 0.32985 0.0
H754 H 0.21796 0.14612 0.36938 0.0
H755 H 0.19158 0.19459 0.37699 0.0
H756 H 0.15463 0.15293 0.36936 0.0
H757 H 0.26627 0.32191 0.33759 0.0
H758 H 0.27932 0.31901 0.35294 0.0
H759 H 0.30666 0.27822 0.34314 0.0
H760 H 0.29793 0.2795 0.39224 0.0
H761 H 0.36568 0.16771 0.37319 0.0
H762 H 0.19569 0.28216 0.37888 0.0
H763 H 0.22388 0.32081 0.36873 0.0
H764 H 0.23692 0.32579 0.38404 0.0
H765 H 0.28191 0.14423 0.35387 0.0
H766 H 0.34535 0.14975 0.35385 0.0
H767 H 0.30921 0.19096 0.34585 0.0
C768 C 0.82487 0.76629 0.58761 0.0
C769 C 0.80174 0.74003 0.57902 0.0
C770 C 0.81481 0.75932 0.59938 0.0
C771 C 0.7812 0.72473 0.60262 0.0
C772 C 0.75501 0.70073 0.59395 0.0
C773 C 0.76549 0.70885 0.58218 0.0
C774 C 0.84301 0.78632 0.60834 0.0
C775 C 0.71866 0.6639 0.59709 0.0
C776 C 0.82172 0.66887 0.63048 0.0
C777 C 0.79619 0.69481 0.63873 0.0
C778 C 0.81384 0.6752 0.61859 0.0
C779 C 0.78001 0.70882 0.61489 0.0
C780 C 0.75136 0.73229 0.62318 0.0
C781 C 0.75969 0.72482 0.63508 0.0
C782 C 0.84463 0.64878 0.61003 0.0
C783 C 0.7147 0.76807 0.61954 0.0
H784 H 0.85231 0.7911 0.58515 0.0
H785 H 0.74737 0.68872 0.57552 0.0
H786 H 0.81935 0.80092 0.61514 0.0
H787 H 0.8683 0.76205 0.61266 0.0
H788 H 0.86337 0.81583 0.60441 0.0
H789 H 0.69471 0.65612 0.58968 0.0
H790 H 0.73695 0.63072 0.59956 0.0
H791 H 0.69714 0.67538 0.60465 0.0
H792 H 0.84937 0.64495 0.63331 0.0
H793 H 0.7397 0.74469 0.64147 0.0
H794 H 0.87031 0.67357 0.60604 0.0
H795 H 0.8229 0.63367 0.60293 0.0
H796 H 0.86473 0.61972 0.61424 0.0
H797 H 0.73254 0.80171 0.61727 0.0
H798 H 0.68896 0.77529 0.62663 0.0
H799 H 0.69519 0.75592 0.61173 0.0
C800 C 0.25732 0.30232 0.83427 0.0
C801 C 0.28328 0.34313 0.83167 0.0
C802 C 0.2435 0.29246 0.84573 0.0
C803 C 0.25709 0.32359 0.85476 0.0
C804 C 0.28587 0.36319 0.85223 0.0
C805 C 0.29803 0.37286 0.84067 0.0
C806 C 0.21205 0.25049 0.84807 0.0
C807 C 0.30208 0.39662 0.86166 0.0
C808 C 0.18462 0.34731 0.88164 0.0
C809 C 0.211 0.32385 0.89014 0.0
C810 C 0.19701 0.34409 0.86989 0.0
C811 C 0.23769 0.31801 0.86666 0.0
C812 C 0.26277 0.29188 0.87515 0.0
C813 C 0.24867 0.29465 0.88684 0.0
C814 C 0.16851 0.37137 0.86105 0.0
C815 C 0.30675 0.26435 0.87207 0.0
H816 H 0.24567 0.27947 0.82727 0.0
H817 H 0.31846 0.40419 0.83865 0.0
H818 H 0.22534 0.22987 0.85558 0.0
H819 H 0.17602 0.26305 0.85033 0.0
H820 H 0.20937 0.22673 0.84041 0.0
H821 H 0.32853 0.42247 0.85843 0.0
H822 H 0.27128 0.41644 0.86512 0.0
H823 H 0.31785 0.37662 0.86899 0.0
H824 H 0.15532 0.3697 0.88425 0.0
H825 H 0.26929 0.27685 0.89346 0.0
H826 H 0.16119 0.34919 0.8533 0.0
H827 H 0.18903 0.40251 0.85809 0.0
H828 H 0.13435 0.38401 0.86468 0.0
H829 H 0.30121 0.24312 0.86409 0.0
H830 H 0.31784 0.24044 0.87922 0.0
H831 H 0.33606 0.28937 0.87029 0.0
C832 C 0.73078 0.76825 0.0916 0.0
C833 C 0.68746 0.75313 0.087 0.0
C834 C 0.74205 0.75988 0.10333 0.0
C835 C 0.70934 0.73548 0.11045 0.0
C836 C 0.66686 0.71786 0.10561 0.0
C837 C 0.65634 0.72723 0.09399 0.0
C838 C 0.78759 0.77925 0.10819 0.0
C839 C 0.63119 0.69105 0.11285 0.0
C840 C 0.72552 0.68297 0.14028 0.0
C841 C 0.69792 0.71438 0.14677 0.0
C842 C 0.73437 0.69172 0.12845 0.0
C843 C 0.71551 0.73296 0.12323 0.0
C844 C 0.69256 0.76725 0.13019 0.0
C845 C 0.6835 0.7572 0.14187 0.0
C846 C 0.75937 0.65458 0.12133 0.0
C847 C 0.67278 0.81217 0.12505 0.0
H848 H 0.75502 0.78804 0.08616 0.0
H849 H 0.62321 0.71466 0.0904 0.0
H850 H 0.77992 0.81174 0.11325 0.0
H851 H 0.80437 0.75358 0.1142 0.0
H852 H 0.81314 0.78833 0.1012 0.0
H853 H 0.60212 0.67612 0.1075 0.0
H854 H 0.64868 0.66172 0.11757 0.0
H855 H 0.61542 0.71501 0.11943 0.0
H856 H 0.73678 0.64995 0.14417 0.0
H857 H 0.66276 0.78176 0.14702 0.0
H858 H 0.7827 0.67097 0.11471 0.0
H859 H 0.7327 0.63299 0.11666 0.0
H860 H 0.78079 0.63066 0.12688 0.0
H861 H 0.69844 0.8284 0.11896 0.0
H862 H 0.66359 0.83842 0.13187 0.0
H863 H 0.64024 0.80386 0.12007 0.0
C864 C 0.7994 0.71715 0.83843 0.0
C865 C 0.77185 0.68338 0.8327 0.0
C866 C 0.79798 0.72094 0.8506 0.0
C867 C 0.76719 0.69123 0.85698 0.0
C868 C 0.73697 0.65943 0.85107 0.0
C869 C 0.74037 0.65528 0.839 0.0
C870 C 0.83152 0.75433 0.85663 0.0
C871 C 0.70264 0.6281 0.85753 0.0
C872 C 0.7925 0.64391 0.8869 0.0
C873 C 0.76138 0.67057 0.8937 0.0
C874 C 0.79779 0.65325 0.87504 0.0
C875 C 0.76984 0.68891 0.86983 0.0
C876 C 0.73995 0.71745 0.87679 0.0
C877 C 0.73662 0.70833 0.88875 0.0
C878 C 0.83114 0.62297 0.86797 0.0
C879 C 0.70882 0.755 0.87149 0.0
H880 H 0.82389 0.73862 0.83346 0.0
H881 H 0.71879 0.62953 0.83446 0.0
H882 H 0.81288 0.77491 0.86344 0.0
H883 H 0.85969 0.73363 0.86101 0.0
H884 H 0.84847 0.77924 0.85045 0.0
H885 H 0.6776 0.61002 0.85157 0.0
H886 H 0.72246 0.60076 0.86243 0.0
H887 H 0.68201 0.64904 0.86393 0.0
H888 H 0.812 0.61505 0.89083 0.0
H889 H 0.7124 0.72872 0.89408 0.0
H890 H 0.85276 0.6452 0.86207 0.0
H891 H 0.81045 0.59824 0.86248 0.0
H892 H 0.85523 0.60191 0.87356 0.0
H893 H 0.72902 0.77689 0.86523 0.0
H894 H 0.69303 0.77845 0.8782 0.0
H895 H 0.67971 0.73782 0.8666 0.0
C896 C 0.29251 0.23215 0.14124 0.0
C897 C 0.32834 0.20109 0.14477 0.0
C898 C 0.28652 0.24337 0.12944 0.0
C899 C 0.31661 0.22237 0.12106 0.0
C900 C 0.35069 0.18862 0.12455 0.0
C901 C 0.35643 0.17874 0.13638 0.0
C902 C 0.25011 0.27982 0.12604 0.0
C903 C 0.38294 0.1648 0.11585 0.0
C904 C 0.29653 0.2276 0.0885 0.0
C905 C 0.33094 0.26061 0.08523 0.0
C906 C 0.28941 0.21633 0.10026 0.0
C907 C 0.31684 0.23931 0.10886 0.0
C908 C 0.34917 0.27508 0.10561 0.0
C909 C 0.35615 0.28495 0.09382 0.0
C910 C 0.25493 0.17775 0.1034 0.0
C911 C 0.37849 0.30104 0.11453 0.0
H912 H 0.27079 0.24948 0.14774 0.0
H913 H 0.38376 0.15423 0.13908 0.0
H914 H 0.26828 0.31297 0.12351 0.0
H915 H 0.22945 0.2677 0.11842 0.0
H916 H 0.22533 0.28784 0.13328 0.0
H917 H 0.40378 0.13572 0.11982 0.0
H918 H 0.36213 0.15026 0.10851 0.0
H919 H 0.40795 0.19111 0.11221 0.0
H920 H 0.27703 0.20874 0.08184 0.0
H921 H 0.38234 0.31097 0.0913 0.0
H922 H 0.23257 0.18856 0.11087 0.0
H923 H 0.27481 0.14576 0.10608 0.0
H924 H 0.23164 0.16825 0.09599 0.0
H925 H 0.35576 0.3141 0.12171 0.0
H926 H 0.39773 0.33149 0.11071 0.0
H927 H 0.40482 0.27651 0.11837 0.0
C928 C 0.72341 0.83944 0.33692 0.0
C929 C 0.68741 0.87309 0.33564 0.0
C930 C 0.74895 0.83607 0.34731 0.0
C931 C 0.73755 0.86663 0.35662 0.0
C932 C 0.6997 0.89907 0.35557 0.0
C933 C 0.67526 0.90217 0.34502 0.0
C934 C 0.78943 0.80141 0.34813 0.0
C935 C 0.6861 0.93163 0.36543 0.0
C936 C 0.78017 0.84174 0.38714 0.0
C937 C 0.81654 0.87504 0.38826 0.0
C938 C 0.75485 0.83756 0.37674 0.0
C939 C 0.76687 0.86688 0.36725 0.0
C940 C 0.8052 0.89878 0.36814 0.0
C941 C 0.82941 0.90274 0.3787 0.0
C942 C 0.71386 0.8035 0.3761 0.0
C943 C 0.81948 0.92998 0.35809 0.0
H944 H 0.73296 0.81698 0.32965 0.0
H945 H 0.64719 0.92797 0.34406 0.0
H946 H 0.82327 0.82097 0.34889 0.0
H947 H 0.78583 0.77931 0.35603 0.0
H948 H 0.79148 0.77787 0.34042 0.0
H949 H 0.65355 0.95216 0.3635 0.0
H950 H 0.68031 0.91106 0.37351 0.0
H951 H 0.71532 0.95681 0.36715 0.0
H952 H 0.77008 0.82034 0.39455 0.0
H953 H 0.85778 0.92824 0.37954 0.0
H954 H 0.71706 0.78066 0.3683 0.0
H955 H 0.68031 0.82356 0.37526 0.0
H956 H 0.71149 0.78068 0.38393 0.0
H957 H 0.8248 0.90847 0.35013 0.0
H958 H 0.85248 0.94993 0.3599 0.0
H959 H 0.79081 0.95565 0.35623 0.0
C960 C 0.18491 0.18726 0.63286 0.0
C961 C 0.15093 0.21568 0.63831 0.0
C962 C 0.19246 0.19042 0.62082 0.0
C963 C 0.16606 0.22346 0.61423 0.0
C964 C 0.13414 0.2544 0.61988 0.0
C965 C 0.12654 0.24971 0.63183 0.0
C966 C 0.22629 0.15646 0.61505 0.0
C967 C 0.10597 0.29075 0.61322 0.0
C968 C 0.19219 0.25389 0.58275 0.0
C969 C 0.15589 0.22924 0.57713 0.0
C970 C 0.19757 0.25089 0.59487 0.0
C971 C 0.16649 0.22183 0.60136 0.0
C972 C 0.13171 0.19472 0.59557 0.0
C973 C 0.12651 0.19919 0.58354 0.0
C974 C 0.23459 0.28077 0.60079 0.0
C975 C 0.09841 0.16263 0.60214 0.0
H976 H 0.20382 0.16101 0.63791 0.0
H977 H 0.10083 0.27228 0.6361 0.0
H978 H 0.2059 0.12986 0.61005 0.0
H979 H 0.24951 0.17524 0.60881 0.0
H980 H 0.24872 0.13763 0.62148 0.0
H981 H 0.08735 0.31586 0.61907 0.0
H982 H 0.12939 0.31111 0.60733 0.0
H983 H 0.07919 0.27272 0.60775 0.0
H984 H 0.21493 0.27707 0.57775 0.0
H985 H 0.09889 0.17949 0.57916 0.0
H986 H 0.25484 0.25951 0.60717 0.0
H987 H 0.21701 0.30972 0.60566 0.0
H988 H 0.25969 0.29664 0.59447 0.0
H989 H 0.11847 0.13941 0.60813 0.0
H990 H 0.07702 0.14015 0.59622 0.0
H991 H 0.07389 0.18421 0.60749 0.0
C992 C 0.24367 0.22376 0.26722 0.0
C993 C 0.19722 0.22297 0.27145 0.0
C994 C 0.25294 0.2193 0.25531 0.0
C995 C 0.21472 0.21578 0.24742 0.0
C996 C 0.16763 0.21795 0.25159 0.0
C997 C 0.1594 0.22049 0.26362 0.0
C998 C 0.30368 0.21567 0.25127 0.0
C999 C 0.12604 0.21624 0.24339 0.0
C1000 C 0.25186 0.23441 0.21611 0.0
C1001 C 0.25518 0.18778 0.21214 0.0
C1002 C 0.23556 0.24432 0.22737 0.0
C1003 C 0.22452 0.20652 0.23494 0.0
C1004 C 0.22707 0.15935 0.23086 0.0
C1005 C 0.24151 0.15062 0.2194 0.0
C1006 C 0.23147 0.29508 0.23126 0.0
C1007 C 0.21716 0.118 0.23878 0.0
H1008 H 0.27297 0.22504 0.27329 0.0
H1009 H 0.12347 0.22002 0.26691 0.0
H1010 H 0.30959 0.18087 0.24706 0.0
H1011 H 0.31131 0.24319 0.24468 0.0
H1012 H 0.32927 0.21956 0.25853 0.0
H1013 H 0.09223 0.22479 0.24784 0.0
H1014 H 0.13127 0.24141 0.23611 0.0
H1015 H 0.12305 0.18042 0.23956 0.0
H1016 H 0.2621 0.2631 0.2104 0.0
H1017 H 0.24448 0.11457 0.2163 0.0
H1018 H 0.2596 0.30311 0.23768 0.0
H1019 H 0.19697 0.30115 0.23562 0.0
H1020 H 0.23488 0.32014 0.22388 0.0
H1021 H 0.24292 0.11791 0.24606 0.0
H1022 H 0.21958 0.08362 0.23417 0.0
H1023 H 0.18138 0.12123 0.24265 0.0
C1024 C 0.81659 0.75012 0.45237 0.0
C1025 C 0.84438 0.79101 0.45201 0.0
C1026 C 0.79744 0.73416 0.46292 0.0
C1027 C 0.80774 0.7591 0.47327 0.0
C1028 C 0.8369 0.79978 0.47292 0.0
C1029 C 0.85413 0.81572 0.46223 0.0
C1030 C 0.76504 0.69183 0.46292 0.0
C1031 C 0.85001 0.82657 0.48382 0.0
C1032 C 0.74388 0.76227 0.50188 0.0
C1033 C 0.77582 0.73679 0.50876 0.0
C1034 C 0.75029 0.76509 0.4898 0.0
C1035 C 0.78989 0.7426 0.48467 0.0
C1036 C 0.81837 0.71197 0.49137 0.0
C1037 C 0.81056 0.70898 0.50334 0.0
C1038 C 0.71781 0.79622 0.48278 0.0
C1039 C 0.86087 0.68718 0.48624 0.0
H1040 H 0.80836 0.73174 0.44435 0.0
H1041 H 0.87555 0.84744 0.46185 0.0
H1042 H 0.77501 0.66656 0.46986 0.0
H1043 H 0.72836 0.70364 0.46476 0.0
H1044 H 0.7653 0.67307 0.45443 0.0
H1045 H 0.87485 0.85607 0.48205 0.0
H1046 H 0.81774 0.84133 0.48794 0.0
H1047 H 0.86672 0.80236 0.49019 0.0
H1048 H 0.71631 0.78306 0.50599 0.0
H1049 H 0.83458 0.68804 0.50857 0.0
H1050 H 0.71077 0.78042 0.47412 0.0
H1051 H 0.73493 0.83099 0.48136 0.0
H1052 H 0.68361 0.80225 0.4873 0.0
H1053 H 0.8524 0.67153 0.47766 0.0
H1054 H 0.87431 0.65884 0.49204 0.0
H1055 H 0.88964 0.71328 0.48491 0.0
C1056 C 0.182 0.21479 0.71556 0.0
C1057 C 0.21673 0.21392 0.70687 0.0
C1058 C 0.19432 0.22032 0.72726 0.0
C1059 C 0.24265 0.22348 0.73035 0.0
C1060 C 0.27801 0.21842 0.72172 0.0
C1061 C 0.2646 0.21463 0.71001 0.0
C1062 C 0.15545 0.22671 0.73615 0.0
C1063 C 0.32988 0.21957 0.72477 0.0
C1064 C 0.26466 0.30297 0.75612 0.0
C1065 C 0.26377 0.27069 0.76533 0.0
C1066 C 0.25966 0.28774 0.74462 0.0
C1067 C 0.25534 0.23885 0.74227 0.0
C1068 C 0.2579 0.20581 0.75147 0.0
C1069 C 0.26109 0.22222 0.76297 0.0
C1070 C 0.25587 0.32426 0.73509 0.0
C1071 C 0.2554 0.15336 0.74923 0.0
H1072 H 0.14494 0.21437 0.71316 0.0
H1073 H 0.29151 0.21334 0.7033 0.0
H1074 H 0.16063 0.20231 0.74357 0.0
H1075 H 0.15661 0.26324 0.73964 0.0
H1076 H 0.11977 0.22043 0.73242 0.0
H1077 H 0.35222 0.20577 0.71758 0.0
H1078 H 0.34076 0.25645 0.72659 0.0
H1079 H 0.33685 0.19851 0.73272 0.0
H1080 H 0.26649 0.34049 0.75794 0.0
H1081 H 0.26096 0.19723 0.7701 0.0
H1082 H 0.22036 0.32227 0.73101 0.0
H1083 H 0.28233 0.31717 0.72819 0.0
H1084 H 0.26132 0.36076 0.73836 0.0
H1085 H 0.2185 0.14327 0.74713 0.0
H1086 H 0.26694 0.13258 0.75691 0.0
H1087 H 0.27777 0.14355 0.74167 0.0
C1088 C 0.67998 0.7445 0.96598 0.0
C1089 C 0.7176 0.74336 0.95813 0.0
C1090 C 0.68816 0.75291 0.97781 0.0
C1091 C 0.73491 0.76185 0.98169 0.0
C1092 C 0.77235 0.76474 0.97356 0.0
C1093 C 0.76339 0.75426 0.96186 0.0
C1094 C 0.64741 0.74851 0.98624 0.0
C1095 C 0.82219 0.77623 0.97729 0.0
C1096 C 0.73601 0.80098 0.01305 0.0
C1097 C 0.74393 0.75787 0.01869 0.0
C1098 C 0.73739 0.80393 0.00089 0.0
C1099 C 0.74488 0.76237 -0.00567 0.0
C1100 C 0.75602 0.71944 3e-05 0.0
C1101 C 0.75622 0.71794 0.01219 0.0
C1102 C 0.72771 0.85076 -0.00489 0.0
C1103 C 0.7634 0.6741 -0.00667 0.0
H1104 H 0.64475 0.7354 0.96301 0.0
H1105 H 0.79236 0.75319 0.95568 0.0
H1106 H 0.65362 0.71804 -0.00789 0.0
H1107 H 0.64482 0.78054 -0.00826 0.0
H1108 H 0.61305 0.74325 0.98175 0.0
H1109 H 0.84457 0.78686 0.96979 0.0
H1110 H 0.8223 0.80508 0.98382 0.0
H1111 H 0.83846 0.74473 0.98138 0.0
H1112 H 0.72684 0.83195 0.01813 0.0
H1113 H 0.76196 0.68455 0.01658 0.0
H1114 H 0.69076 0.85147 -0.00812 0.0
H1115 H 0.75139 0.85594 -0.01248 0.0
H1116 H 0.73244 0.88075 0.00123 0.0
H1117 H 0.72997 0.66405 -0.01107 0.0
H1118 H 0.77449 0.64447 -0.00096 0.0
H1119 H 0.79059 0.67896 0.9865 0.0
C1120 C 0.26097 0.30785 0.00938 0.0
C1121 C 0.27351 0.27031 0.01663 0.0
C1122 C 0.25461 0.30069 -0.00257 0.0
C1123 C 0.25905 0.25452 -0.00722 0.0
C1124 C 0.26829 0.21595 0.00025 0.0
C1125 C 0.27661 0.2245 0.01209 0.0
C1126 C 0.24601 0.34299 -0.01029 0.0
C1127 C 0.27105 0.16602 -0.0043 0.0
C1128 C 0.21324 0.25047 0.96198 0.0
C1129 C 0.25525 0.25604 0.95569 0.0
C1130 C 0.21417 0.24511 0.9741 0.0
C1131 C 0.25797 0.24785 0.98 0.0
C1132 C 0.30066 0.25071 0.97357 0.0
C1133 C 0.29875 0.25387 0.96143 0.0
C1134 C 0.16814 0.23972 0.98061 0.0
C1135 C 0.34803 0.25498 0.97954 0.0
H1136 H 0.25909 0.34329 0.01293 0.0
H1137 H 0.2861 0.19549 0.01778 0.0
H1138 H 0.27532 0.34639 0.98334 0.0
H1139 H 0.21288 0.33827 0.9847 0.0
H1140 H 0.24338 0.37642 -0.00527 0.0
H1141 H 0.26995 0.13964 0.00284 0.0
H1142 H 0.24148 0.15887 -0.01039 0.0
H1143 H 0.30451 0.16109 -0.00918 0.0
H1144 H 0.17961 0.25209 0.95747 0.0
H1145 H 0.33112 0.2588 0.95651 0.0
H1146 H 0.15811 0.274 0.98457 0.0
H1147 H 0.17181 0.21362 -0.01226 0.0
H1148 H 0.13899 0.22836 0.97477 0.0
H1149 H 0.34966 0.28902 0.98431 0.0
H1150 H 0.37796 0.25365 0.97328 0.0
H1151 H 0.3527 0.22635 0.986 0.0
C1152 C 0.64693 0.80326 0.26244 0.0
C1153 C 0.65394 0.77911 0.27288 0.0
C1154 C 0.66179 0.78371 0.25189 0.0
C1155 C 0.68577 0.73972 0.25187 0.0
C1156 C 0.69377 0.71557 0.26245 0.0
C1157 C 0.67696 0.73528 0.27286 0.0
C1158 C 0.65135 0.80995 0.24074 0.0
C1159 C 0.72075 0.66957 0.26278 0.0
C1160 C 0.67487 0.68178 0.22267 0.0
C1161 C 0.71308 0.70239 0.21675 0.0
C1162 C 0.66764 0.69017 0.23451 0.0
C1163 C 0.70018 0.71874 0.24062 0.0
C1164 C 0.74213 0.73418 0.23508 0.0
C1165 C 0.74793 0.7262 0.22313 0.0
C1166 C 0.62228 0.67321 0.24006 0.0
C1167 C 0.7786 0.76304 0.24149 0.0
H1168 H 0.62915 0.83721 0.26253 0.0
H1169 H 0.6831 0.71717 0.28103 0.0
H1170 H 0.68487 0.81927 0.23629 0.0
H1171 H 0.63084 0.78706 0.23475 0.0
H1172 H 0.63094 0.84292 0.24227 0.0
H1173 H 0.72309 0.65481 0.27171 0.0
H1174 H 0.70373 0.64308 0.25705 0.0
H1175 H 0.75711 0.6752 0.25943 0.0
H1176 H 0.64822 0.66239 0.21787 0.0
H1177 H 0.77806 0.74144 0.21867 0.0
H1178 H 0.59763 0.7035 0.24101 0.0
H1179 H 0.62888 0.65884 0.24887 0.0
H1180 H 0.6046 0.64561 0.23475 0.0
H1181 H 0.76611 0.80008 0.24222 0.0
H1182 H 0.81311 0.76315 0.23686 0.0
H1183 H 0.78396 0.74935 0.25043 0.0
C1184 C 0.25619 0.23854 0.45505 0.0
C1185 C 0.3027 0.23693 0.45087 0.0
C1186 C 0.24677 0.2385 0.46699 0.0
C1187 C 0.2849 0.23867 0.47496 0.0
C1188 C 0.33204 0.23975 0.47079 0.0
C1189 C 0.34044 0.23779 0.45875 0.0
C1190 C 0.19601 0.2358 0.47106 0.0
C1191 C 0.37348 0.24185 0.47903 0.0
C1192 C 0.24547 0.26947 0.50552 0.0
C1193 C 0.24212 0.2246 0.51055 0.0
C1194 C 0.2628 0.275 0.49416 0.0
C1195 C 0.27491 0.23447 0.48759 0.0
C1196 C 0.27259 0.18916 0.49277 0.0
C1197 C 0.25706 0.1849 0.50429 0.0
C1198 C 0.2666 0.32398 0.48908 0.0
C1199 C 0.2836 0.14493 0.48593 0.0
H1200 H 0.22697 0.23724 0.44895 0.0
H1201 H 0.37642 0.23671 0.4555 0.0
H1202 H 0.19062 0.20302 0.47618 0.0
H1203 H 0.18773 0.26601 0.47685 0.0
H1204 H 0.17051 0.23596 0.46372 0.0
H1205 H 0.40731 0.2487 0.47441 0.0
H1206 H 0.36788 0.26996 0.48562 0.0
H1207 H 0.3767 0.2079 0.48376 0.0
H1208 H 0.23427 0.30018 0.51044 0.0
H1209 H 0.25408 0.15019 0.5082 0.0
H1210 H 0.23845 0.32925 0.4825 0.0
H1211 H 0.3011 0.32852 0.48462 0.0
H1212 H 0.2629 0.35182 0.49584 0.0
H1213 H 0.25793 0.14122 0.47869 0.0
H1214 H 0.28188 0.11262 0.49139 0.0
H1215 H 0.31934 0.14725 0.48202 0.0
C1216 C 0.75659 0.76824 0.7098 0.0
C1217 C 0.75216 0.71996 0.70737 0.0
C1218 C 0.75647 0.78467 0.7213 0.0
C1219 C 0.75421 0.75162 0.73048 0.0
C1220 C 0.74691 0.70306 0.72801 0.0
C1221 C 0.74509 0.68793 0.71642 0.0
C1222 C 0.76182 0.83689 0.72355 0.0
C1223 C 0.74507 0.6665 0.73756 0.0
C1224 C 0.82295 0.76654 0.75827 0.0
C1225 C 0.78614 0.76691 0.76637 0.0
C1226 C 0.81313 0.7653 0.74634 0.0
C1227 C 0.76543 0.76611 0.74255 0.0
C1228 C 0.72861 0.77282 0.75071 0.0
C1229 C 0.73934 0.77195 0.7626 0.0
C1230 C 0.85346 0.75764 0.73792 0.0
C1231 C 0.67763 0.77663 0.74697 0.0
H1232 H 0.76188 0.79296 0.70272 0.0
H1233 H 0.74215 0.65057 0.71447 0.0
H1234 H 0.74121 0.84795 0.7313 0.0
H1235 H 0.79954 0.84515 0.72521 0.0
H1236 H 0.75011 0.8581 0.71595 0.0
H1237 H 0.73784 0.63049 0.73417 0.0
H1238 H 0.77934 0.66585 0.74226 0.0
H1239 H 0.71724 0.67566 0.74397 0.0
H1240 H 0.85905 0.76206 0.76126 0.0
H1241 H 0.71094 0.77223 0.76894 0.0
H1242 H 0.85128 0.78298 0.73061 0.0
H1243 H 0.85105 0.72154 0.7342 0.0
H1244 H 0.88852 0.76156 0.74216 0.0
H1245 H 0.6744 0.79782 0.73889 0.0
H1246 H 0.6554 0.79296 0.75385 0.0
H1247 H 0.6635 0.74087 0.74514 0.0
loop_
_geom_bond_atom_site_label_1
_geom_bond_atom_site_label_2
_geom_bond_distance
_geom_bond_site_symmetry_2
_ccdc_geom_bond_type
C0 O1 1.306 . S
C0 O3 1.160 . S
O1 C0 1.306 . S
O1 Cd2 2.228 . S
Cd2 O1 2.228 . S
Cd2 O6 2.273 . S
Cd2 O10 2.277 . S
O3 C0 1.160 . S
O3 Cd4 2.203 . S
Cd4 O3 2.203 . S
Cd4 O6 2.411 . S
Cd4 O7 2.333 . S
Cd4 O8 2.352 . S
Cd4 O12 2.277 . S
Cd4 O13 2.356 . S
C5 O10 1.209 . S
C5 O12 1.226 . S
O6 Cd2 2.273 . S
O6 Cd4 2.411 . S
O6 C9 1.320 . S
O7 Cd4 2.333 . S
O7 C9 1.214 . S
O8 Cd4 2.352 . S
O8 C11 1.258 . S
C9 O6 1.320 . S
C9 O7 1.214 . S
O10 Cd2 2.277 . S
O10 C5 1.209 . S
C11 O8 1.258 . S
C11 O13 1.282 . S
O12 Cd4 2.277 . S
O12 C5 1.226 . S
O13 Cd4 2.356 . S
O13 C11 1.282 . S
C14 O15 1.306 . S
C14 O17 1.160 . S
O15 C14 1.306 . S
O15 Cd16 2.228 . S
Cd16 O15 2.228 . S
Cd16 O20 2.273 . S
Cd16 O24 2.277 . S
O17 C14 1.160 . S
O17 Cd18 2.203 . S
Cd18 O17 2.203 . S
Cd18 O20 2.411 . S
Cd18 O21 2.333 . S
Cd18 O22 2.352 . S
Cd18 O26 2.277 . S
Cd18 O27 2.356 . S
C19 O24 1.209 . S
C19 O26 1.226 . S
O20 Cd16 2.273 . S
O20 Cd18 2.411 . S
O20 C23 1.320 . S
O21 Cd18 2.333 . S
O21 C23 1.214 . S
O22 Cd18 2.352 . S
O22 C25 1.258 . S
C23 O20 1.320 . S
C23 O21 1.214 . S
O24 Cd16 2.277 . S
O24 C19 1.209 . S
C25 O22 1.258 . S
C25 O27 1.282 . S
O26 Cd18 2.277 . S
O26 C19 1.226 . S
O27 Cd18 2.356 . S
O27 C25 1.282 . S
C28 O29 1.306 . S
C28 O31 1.160 . S
O29 C28 1.306 . S
O29 Cd30 2.228 . S
Cd30 O29 2.228 . S
Cd30 O34 2.273 . S
Cd30 O38 2.277 . S
O31 C28 1.160 . S
O31 Cd32 2.203 . S
Cd32 O31 2.203 . S
Cd32 O34 2.411 . S
Cd32 O35 2.333 . S
Cd32 O36 2.352 . S
Cd32 O40 2.277 . S
Cd32 O41 2.356 . S
C33 O38 1.209 . S
C33 O40 1.226 . S
O34 Cd30 2.273 . S
O34 Cd32 2.411 . S
O34 C37 1.320 . S
O35 Cd32 2.333 . S
O35 C37 1.214 . S
O36 Cd32 2.352 . S
O36 C39 1.258 . S
C37 O34 1.320 . S
C37 O35 1.214 . S
O38 Cd30 2.277 . S
O38 C33 1.209 . S
C39 O36 1.258 . S
C39 O41 1.282 . S
O40 Cd32 2.277 . S
O40 C33 1.226 . S
O41 Cd32 2.356 . S
O41 C39 1.282 . S
C42 O43 1.306 . S
C42 O45 1.160 . S
O43 C42 1.306 . S
O43 Cd44 2.228 . S
Cd44 O43 2.228 . S
Cd44 O48 2.273 . S
Cd44 O52 2.277 . S
O45 C42 1.160 . S
O45 Cd46 2.203 . S
Cd46 O45 2.203 . S
Cd46 O48 2.411 . S
Cd46 O49 2.333 . S
Cd46 O50 2.352 . S
Cd46 O54 2.277 . S
Cd46 O55 2.356 . S
C47 O52 1.209 . S
C47 O54 1.226 . S
O48 Cd44 2.273 . S
O48 Cd46 2.411 . S
O48 C51 1.320 . S
O49 Cd46 2.333 . S
O49 C51 1.214 . S
O50 Cd46 2.352 . S
O50 C53 1.258 . S
C51 O48 1.320 . S
C51 O49 1.214 . S
O52 Cd44 2.277 . S
O52 C47 1.209 . S
C53 O50 1.258 . S
C53 O55 1.282 . S
O54 Cd46 2.277 . S
O54 C47 1.226 . S
O55 Cd46 2.356 . S
O55 C53 1.282 . S
C56 O57 1.306 . S
C56 O59 1.160 . S
O57 C56 1.306 . S
O57 Cd58 2.228 . S
Cd58 O57 2.228 . S
Cd58 O62 2.273 . S
Cd58 O66 2.277 . S
O59 C56 1.160 . S
O59 Cd60 2.203 . S
Cd60 O59 2.203 . S
Cd60 O62 2.411 . S
Cd60 O63 2.333 . S
Cd60 O64 2.352 . S
Cd60 O68 2.277 . S
Cd60 O69 2.356 . S
C61 O66 1.209 . S
C61 O68 1.226 . S
O62 Cd58 2.273 . S
O62 Cd60 2.411 . S
O62 C65 1.320 . S
O63 Cd60 2.333 . S
O63 C65 1.214 . S
O64 Cd60 2.352 . S
O64 C67 1.258 . S
C65 O62 1.320 . S
C65 O63 1.214 . S
O66 Cd58 2.277 . S
O66 C61 1.209 . S
C67 O64 1.258 . S
C67 O69 1.282 . S
O68 Cd60 2.277 . S
O68 C61 1.226 . S
O69 Cd60 2.356 . S
O69 C67 1.282 . S
C70 O71 1.306 . S
C70 O73 1.160 . S
O71 C70 1.306 . S
O71 Cd72 2.228 . S
Cd72 O71 2.228 . S
Cd72 O76 2.273 . S
Cd72 O80 2.277 . S
O73 C70 1.160 . S
O73 Cd74 2.203 . S
Cd74 O73 2.203 . S
Cd74 O76 2.411 . S
Cd74 O77 2.333 . S
Cd74 O78 2.352 . S
Cd74 O82 2.277 . S
Cd74 O83 2.356 . S
C75 O80 1.209 . S
C75 O82 1.226 . S
O76 Cd72 2.273 . S
O76 Cd74 2.411 . S
O76 C79 1.320 . S
O77 Cd74 2.333 . S
O77 C79 1.214 . S
O78 Cd74 2.352 . S
O78 C81 1.258 . S
C79 O76 1.320 . S
C79 O77 1.214 . S
O80 Cd72 2.277 . S
O80 C75 1.209 . S
C81 O78 1.258 . S
C81 O83 1.282 . S
O82 Cd74 2.277 . S
O82 C75 1.226 . S
O83 Cd74 2.356 . S
O83 C81 1.282 . S
C84 O85 1.306 . S
C84 O87 1.160 . S
O85 C84 1.306 . S
O85 Cd86 2.228 . S
Cd86 O85 2.228 . S
Cd86 O90 2.273 . S
Cd86 O94 2.277 . S
O87 C84 1.160 . S
O87 Cd88 2.203 . S
Cd88 O87 2.203 . S
Cd88 O90 2.411 . S
Cd88 O91 2.333 . S
Cd88 O92 2.352 . S
Cd88 O96 2.277 . S
Cd88 O97 2.356 . S
C89 O94 1.209 . S
C89 O96 1.226 . S
O90 Cd86 2.273 . S
O90 Cd88 2.411 . S
O90 C93 1.320 . S
O91 Cd88 2.333 . S
O91 C93 1.214 . S
O92 Cd88 2.352 . S
O92 C95 1.258 . S
C93 O90 1.320 . S
C93 O91 1.214 . S
O94 Cd86 2.277 . S
O94 C89 1.209 . S
C95 O92 1.258 . S
C95 O97 1.282 . S
O96 Cd88 2.277 . S
O96 C89 1.226 . S
O97 Cd88 2.356 . S
O97 C95 1.282 . S
C98 O99 1.306 . S
C98 O101 1.160 . S
O99 C98 1.306 . S
O99 Cd100 2.228 . S
Cd100 O99 2.228 . S
Cd100 O104 2.273 . S
Cd100 O108 2.277 . S
O101 C98 1.160 . S
O101 Cd102 2.203 . S
Cd102 O101 2.203 . S
Cd102 O104 2.411 . S
Cd102 O105 2.333 . S
Cd102 O106 2.352 . S
Cd102 O110 2.277 . S
Cd102 O111 2.356 . S
C103 O108 1.209 . S
C103 O110 1.226 . S
O104 Cd100 2.273 . S
O104 Cd102 2.411 . S
O104 C107 1.320 . S
O105 Cd102 2.333 . S
O105 C107 1.214 . S
O106 Cd102 2.352 . S
O106 C109 1.258 . S
C107 O104 1.320 . S
C107 O105 1.214 . S
O108 Cd100 2.277 . S
O108 C103 1.209 . S
C109 O106 1.258 . S
C109 O111 1.282 . S
O110 Cd102 2.277 . S
O110 C103 1.226 . S
O111 Cd102 2.356 . S
O111 C109 1.282 . S
C112 O113 1.306 . S
C112 O115 1.160 . S
O113 C112 1.306 . S
O113 Cd114 2.228 . S
Cd114 O113 2.228 . S
Cd114 O118 2.273 . S
Cd114 O122 2.277 . S
O115 C112 1.160 . S
O115 Cd116 2.203 . S
Cd116 O115 2.203 . S
Cd116 O118 2.411 . S
Cd116 O119 2.333 . S
Cd116 O120 2.352 . S
Cd116 O124 2.277 . S
Cd116 O125 2.356 . S
C117 O122 1.209 . S
C117 O124 1.226 . S
O118 Cd114 2.273 . S
O118 Cd116 2.411 . S
O118 C121 1.320 . S
O119 Cd116 2.333 . S
O119 C121 1.214 . S
O120 Cd116 2.352 . S
O120 C123 1.258 . S
C121 O118 1.320 . S
C121 O119 1.214 . S
O122 Cd114 2.277 . S
O122 C117 1.209 . S
C123 O120 1.258 . S
C123 O125 1.282 . S
O124 Cd116 2.277 . S
O124 C117 1.226 . S
O125 Cd116 2.356 . S
O125 C123 1.282 . S
C126 O127 1.306 . S
C126 O129 1.160 . S
O127 C126 1.306 . S
O127 Cd128 2.228 . S
Cd128 O127 2.228 . S
Cd128 O132 2.273 . S
Cd128 O136 2.277 . S
O129 C126 1.160 . S
O129 Cd130 2.203 . S
Cd130 O129 2.203 . S
Cd130 O132 2.411 . S
Cd130 O133 2.333 . S
Cd130 O134 2.352 . S
Cd130 O138 2.277 . S
Cd130 O139 2.356 . S
C131 O136 1.209 . S
C131 O138 1.226 . S
O132 Cd128 2.273 . S
O132 Cd130 2.411 . S
O132 C135 1.320 . S
O133 Cd130 2.333 . S
O133 C135 1.214 . S
O134 Cd130 2.352 . S
O134 C137 1.258 . S
C135 O132 1.320 . S
C135 O133 1.214 . S
O136 Cd128 2.277 . S
O136 C131 1.209 . S
C137 O134 1.258 . S
C137 O139 1.282 . S
O138 Cd130 2.277 . S
O138 C131 1.226 . S
O139 Cd130 2.356 . S
O139 C137 1.282 . S
C140 O141 1.306 . S
C140 O143 1.160 . S
O141 C140 1.306 . S
O141 Cd142 2.228 . S
Cd142 O141 2.228 . S
Cd142 O146 2.273 . S
Cd142 O150 2.277 . S
O143 C140 1.160 . S
O143 Cd144 2.203 . S
Cd144 O143 2.203 . S
Cd144 O146 2.411 . S
Cd144 O147 2.333 . S
Cd144 O148 2.352 . S
Cd144 O152 2.277 . S
Cd144 O153 2.356 . S
C145 O150 1.209 . S
C145 O152 1.226 . S
O146 Cd142 2.273 . S
O146 Cd144 2.411 . S
O146 C149 1.320 . S
O147 Cd144 2.333 . S
O147 C149 1.214 . S
O148 Cd144 2.352 . S
O148 C151 1.258 . S
C149 O146 1.320 . S
C149 O147 1.214 . S
O150 Cd142 2.277 . S
O150 C145 1.209 . S
C151 O148 1.258 . S
C151 O153 1.282 . S
O152 Cd144 2.277 . S
O152 C145 1.226 . S
O153 Cd144 2.356 . S
O153 C151 1.282 . S
C154 O155 1.306 . S
C154 O157 1.160 . S
O155 C154 1.306 . S
O155 Cd156 2.228 . S
Cd156 O155 2.228 . S
Cd156 O160 2.273 . S
Cd156 O164 2.277 . S
O157 C154 1.160 . S
O157 Cd158 2.203 . S
Cd158 O157 2.203 . S
Cd158 O160 2.411 . S
Cd158 O161 2.333 . S
Cd158 O162 2.352 . S
Cd158 O166 2.277 . S
Cd158 O167 2.356 . S
C159 O164 1.209 . S
C159 O166 1.226 . S
O160 Cd156 2.273 . S
O160 Cd158 2.411 . S
O160 C163 1.320 . S
O161 Cd158 2.333 . S
O161 C163 1.214 . S
O162 Cd158 2.352 . S
O162 C165 1.258 . S
C163 O160 1.320 . S
C163 O161 1.214 . S
O164 Cd156 2.277 . S
O164 C159 1.209 . S
C165 O162 1.258 . S
C165 O167 1.282 . S
O166 Cd158 2.277 . S
O166 C159 1.226 . S
O167 Cd158 2.356 . S
O167 C165 1.282 . S
C168 O169 1.306 . S
C168 O171 1.160 . S
O169 C168 1.306 . S
O169 Cd170 2.228 . S
Cd170 O169 2.228 . S
Cd170 O174 2.273 . S
Cd170 O178 2.277 . S
O171 C168 1.160 . S
O171 Cd172 2.203 . S
Cd172 O171 2.203 . S
Cd172 O174 2.411 . S
Cd172 O175 2.333 . S
Cd172 O176 2.352 . S
Cd172 O180 2.277 . S
Cd172 O181 2.356 . S
C173 O178 1.209 . S
C173 O180 1.226 . S
O174 Cd170 2.273 . S
O174 Cd172 2.411 . S
O174 C177 1.320 . S
O175 Cd172 2.333 . S
O175 C177 1.214 . S
O176 Cd172 2.352 . S
O176 C179 1.258 . S
C177 O174 1.320 . S
C177 O175 1.214 . S
O178 Cd170 2.277 . S
O178 C173 1.209 . S
C179 O176 1.258 . S
C179 O181 1.282 . S
O180 Cd172 2.277 . S
O180 C173 1.226 . S
O181 Cd172 2.356 . S
O181 C179 1.282 . S
C182 O183 1.306 . S
C182 O185 1.160 . S
O183 C182 1.306 . S
O183 Cd184 2.228 . S
Cd184 O183 2.228 . S
Cd184 O188 2.273 . S
Cd184 O192 2.277 . S
O185 C182 1.160 . S
O185 Cd186 2.203 . S
Cd186 O185 2.203 . S
Cd186 O188 2.411 . S
Cd186 O189 2.333 . S
Cd186 O190 2.352 . S
Cd186 O194 2.277 . S
Cd186 O195 2.356 . S
C187 O192 1.209 . S
C187 O194 1.226 . S
O188 Cd184 2.273 . S
O188 Cd186 2.411 . S
O188 C191 1.320 . S
O189 Cd186 2.333 . S
O189 C191 1.214 . S
O190 Cd186 2.352 . S
O190 C193 1.258 . S
C191 O188 1.320 . S
C191 O189 1.214 . S
O192 Cd184 2.277 . S
O192 C187 1.209 . S
C193 O190 1.258 . S
C193 O195 1.282 . S
O194 Cd186 2.277 . S
O194 C187 1.226 . S
O195 Cd186 2.356 . S
O195 C193 1.282 . S
C196 O197 1.306 . S
C196 O199 1.160 . S
O197 C196 1.306 . S
O197 Cd198 2.228 . S
Cd198 O197 2.228 . S
Cd198 O202 2.273 . S
Cd198 O206 2.277 . S
O199 C196 1.160 . S
O199 Cd200 2.203 . S
Cd200 O199 2.203 . S
Cd200 O202 2.411 . S
Cd200 O203 2.333 . S
Cd200 O204 2.352 . S
Cd200 O208 2.277 . S
Cd200 O209 2.356 . S
C201 O206 1.209 . S
C201 O208 1.226 . S
O202 Cd198 2.273 . S
O202 Cd200 2.411 . S
O202 C205 1.320 . S
O203 Cd200 2.333 . S
O203 C205 1.214 . S
O204 Cd200 2.352 . S
O204 C207 1.258 . S
C205 O202 1.320 . S
C205 O203 1.214 . S
O206 Cd198 2.277 . S
O206 C201 1.209 . S
C207 O204 1.258 . S
C207 O209 1.282 . S
O208 Cd200 2.277 . S
O208 C201 1.226 . S
O209 Cd200 2.356 . S
O209 C207 1.282 . S
C210 O211 1.306 . S
C210 O213 1.160 . S
O211 C210 1.306 . S
O211 Cd212 2.228 . S
Cd212 O211 2.228 . S
Cd212 O216 2.273 . S
Cd212 O220 2.277 . S
O213 C210 1.160 . S
O213 Cd214 2.203 . S
Cd214 O213 2.203 . S
Cd214 O216 2.411 . S
Cd214 O217 2.333 . S
Cd214 O218 2.352 . S
Cd214 O222 2.277 . S
Cd214 O223 2.356 . S
C215 O220 1.209 . S
C215 O222 1.226 . S
O216 Cd212 2.273 . S
O216 Cd214 2.411 . S
O216 C219 1.320 . S
O217 Cd214 2.333 . S
O217 C219 1.214 . S
O218 Cd214 2.352 . S
O218 C221 1.258 . S
C219 O216 1.320 . S
C219 O217 1.214 . S
O220 Cd212 2.277 . S
O220 C215 1.209 . S
C221 O218 1.258 . S
C221 O223 1.282 . S
O222 Cd214 2.277 . S
O222 C215 1.226 . S
O223 Cd214 2.356 . S
O223 C221 1.282 . S
C224 C225 1.391 . S
C224 C226 1.394 . S
C224 H240 0.931 . S
C225 C224 1.391 . S
C225 C229 1.376 . S
C226 C224 1.394 . S
C226 C227 1.369 . S
C226 C230 1.531 . S
C227 C226 1.369 . S
C227 C228 1.410 . S
C227 C235 1.503 1_665 S
C228 C227 1.410 . S
C228 C229 1.392 . S
C228 C231 1.511 . S
C229 C225 1.376 . S
C229 C228 1.392 . S
C229 H241 0.929 . S
C230 C226 1.531 . S
C230 H242 0.960 1_655 S
C230 H243 0.962 1_565 S
C230 H244 0.960 . S
C231 C228 1.511 . S
C231 H245 0.961 . S
C231 H246 0.961 1_665 S
C231 H247 0.961 1_655 S
C232 C233 1.370 . S
C232 C234 1.363 . S
C232 H248 0.931 . S
C233 C232 1.370 . S
C233 C237 1.408 . S
C234 C232 1.363 . S
C234 C235 1.370 . S
C234 C238 1.524 1_455 S
C235 C227 1.503 1_445 S
C235 C234 1.370 . S
C235 C236 1.403 1_545 S
C236 C235 1.403 1_565 S
C236 C237 1.404 1_565 S
C236 C239 1.539 . S
C237 C233 1.408 . S
C237 C236 1.404 1_545 S
C237 H249 0.930 1_545 S
C238 C234 1.524 1_655 S
C238 H250 0.956 . S
C238 H251 0.961 . S
C238 H252 0.961 . S
C239 C236 1.539 . S
C239 H253 0.958 . S
C239 H254 0.961 . S
C239 H255 0.960 . S
H240 C224 0.931 . S
H241 C229 0.929 . S
H242 C230 0.960 1_455 S
H243 C230 0.962 1_545 S
H244 C230 0.960 . S
H245 C231 0.961 . S
H246 C231 0.961 1_445 S
H247 C231 0.961 1_455 S
H248 C232 0.931 . S
H249 C237 0.930 1_565 S
H250 C238 0.956 . S
H251 C238 0.961 . S
H252 C238 0.961 . S
H253 C239 0.958 . S
H254 C239 0.961 . S
H255 C239 0.960 . S
C256 C257 1.391 . S
C256 C258 1.394 . S
C256 H272 0.931 . S
C257 C256 1.391 . S
C257 C261 1.376 . S
C258 C256 1.394 . S
C258 C259 1.369 . S
C258 C262 1.531 1_655 S
C259 C258 1.369 . S
C259 C260 1.410 . S
C259 C267 1.503 1_655 S
C260 C259 1.410 . S
C260 C261 1.392 . S
C260 C263 1.511 . S
C261 C257 1.376 . S
C261 C260 1.392 . S
C261 H273 0.929 . S
C262 C258 1.531 1_455 S
C262 H274 0.960 . S
C262 H275 0.962 . S
C262 H276 0.960 . S
C263 C260 1.511 . S
C263 H277 0.961 . S
C263 H278 0.961 . S
C263 H279 0.961 . S
C264 C265 1.370 . S
C264 C266 1.363 . S
C264 H280 0.931 . S
C265 C264 1.370 . S
C265 C269 1.408 . S
C266 C264 1.363 . S
C266 C267 1.370 . S
C266 C270 1.524 . S
C267 C259 1.503 1_455 S
C267 C266 1.370 . S
C267 C268 1.403 1_455 S
C268 C267 1.403 1_655 S
C268 C269 1.404 1_655 S
C268 C271 1.539 . S
C269 C265 1.408 . S
C269 C268 1.404 1_455 S
C269 H281 0.930 . S
C270 C266 1.524 . S
C270 H282 0.956 . S
C270 H283 0.961 . S
C270 H284 0.961 . S
C271 C268 1.539 . S
C271 H285 0.958 . S
C271 H286 0.961 . S
C271 H287 0.960 . S
H272 C256 0.931 . S
H273 C261 0.929 . S
H274 C262 0.960 . S
H275 C262 0.962 . S
H276 C262 0.960 . S
H277 C263 0.961 . S
H278 C263 0.961 . S
H279 C263 0.961 . S
H280 C264 0.931 . S
H281 C269 0.930 . S
H282 C270 0.956 . S
H283 C270 0.961 . S
H284 C270 0.961 . S
H285 C271 0.958 . S
H286 C271 0.961 . S
H287 C271 0.960 . S
C288 C289 1.391 . S
C288 C290 1.394 . S
C288 H304 0.931 . S
C289 C288 1.391 . S
C289 C293 1.376 . S
C290 C288 1.394 . S
C290 C291 1.369 . S
C290 C294 1.531 . S
C291 C290 1.369 . S
C291 C292 1.410 . S
C291 C299 1.503 . S
C292 C291 1.410 . S
C292 C293 1.392 . S
C292 C295 1.511 . S
C293 C289 1.376 . S
C293 C292 1.392 . S
C293 H305 0.929 . S
C294 C290 1.531 . S
C294 H306 0.960 . S
C294 H307 0.962 . S
C294 H308 0.960 . S
C295 C292 1.511 . S
C295 H309 0.961 . S
C295 H310 0.961 . S
C295 H311 0.961 . S
C296 C297 1.370 . S
C296 C298 1.363 . S
C296 H312 0.931 . S
C297 C296 1.370 . S
C297 C301 1.408 . S
C298 C296 1.363 . S
C298 C299 1.370 . S
C298 C302 1.524 . S
C299 C291 1.503 . S
C299 C298 1.370 . S
C299 C300 1.403 . S
C300 C299 1.403 . S
C300 C301 1.404 . S
C300 C303 1.539 . S
C301 C297 1.408 . S
C301 C300 1.404 . S
C301 H313 0.930 . S
C302 C298 1.524 . S
C302 H314 0.956 . S
C302 H315 0.961 . S
C302 H316 0.961 . S
C303 C300 1.539 . S
C303 H317 0.958 . S
C303 H318 0.961 . S
C303 H319 0.960 . S
H304 C288 0.931 . S
H305 C293 0.929 . S
H306 C294 0.960 . S
H307 C294 0.962 . S
H308 C294 0.960 . S
H309 C295 0.961 . S
H310 C295 0.961 . S
H311 C295 0.961 . S
H312 C296 0.931 . S
H313 C301 0.930 . S
H314 C302 0.956 . S
H315 C302 0.961 . S
H316 C302 0.961 . S
H317 C303 0.958 . S
H318 C303 0.961 . S
H319 C303 0.960 . S
C320 C321 1.391 . S
C320 C322 1.394 . S
C320 H336 0.931 . S
C321 C320 1.391 . S
C321 C325 1.376 . S
C322 C320 1.394 . S
C322 C323 1.369 . S
C322 C326 1.531 1_545 S
C323 C322 1.369 . S
C323 C324 1.410 . S
C323 C331 1.503 1_545 S
C324 C323 1.410 . S
C324 C325 1.392 . S
C324 C327 1.511 . S
C325 C321 1.376 . S
C325 C324 1.392 . S
C325 H337 0.929 . S
C326 C322 1.531 1_565 S
C326 H338 0.960 . S
C326 H339 0.962 . S
C326 H340 0.960 . S
C327 C324 1.511 . S
C327 H341 0.961 . S
C327 H342 0.961 . S
C327 H343 0.961 . S
C328 C329 1.370 . S
C328 C330 1.363 . S
C328 H344 0.931 . S
C329 C328 1.370 . S
C329 C333 1.408 . S
C330 C328 1.363 . S
C330 C331 1.370 . S
C330 C334 1.524 . S
C331 C323 1.503 1_565 S
C331 C330 1.370 . S
C331 C332 1.403 . S
C332 C331 1.403 . S
C332 C333 1.404 . S
C332 C335 1.539 . S
C333 C329 1.408 . S
C333 C332 1.404 . S
C333 H345 0.930 . S
C334 C330 1.524 . S
C334 H346 0.956 . S
C334 H347 0.961 . S
C334 H348 0.961 . S
C335 C332 1.539 . S
C335 H349 0.958 . S
C335 H350 0.961 . S
C335 H351 0.960 1_565 S
H336 C320 0.931 . S
H337 C325 0.929 . S
H338 C326 0.960 . S
H339 C326 0.962 . S
H340 C326 0.960 . S
H341 C327 0.961 . S
H342 C327 0.961 . S
H343 C327 0.961 . S
H344 C328 0.931 . S
H345 C333 0.930 . S
H346 C334 0.956 . S
H347 C334 0.961 . S
H348 C334 0.961 . S
H349 C335 0.958 . S
H350 C335 0.961 . S
H351 C335 0.960 1_545 S
C352 C353 1.391 . S
C352 C354 1.394 . S
C352 H368 0.931 . S
C353 C352 1.391 . S
C353 C357 1.376 . S
C354 C352 1.394 . S
C354 C355 1.369 . S
C354 C358 1.531 1_455 S
C355 C354 1.369 . S
C355 C356 1.410 . S
C355 C363 1.503 1_455 S
C356 C355 1.410 . S
C356 C357 1.392 . S
C356 C359 1.511 . S
C357 C353 1.376 . S
C357 C356 1.392 . S
C357 H369 0.929 . S
C358 C354 1.531 1_655 S
C358 H370 0.960 . S
C358 H371 0.962 . S
C358 H372 0.960 . S
C359 C356 1.511 . S
C359 H373 0.961 . S
C359 H374 0.961 . S
C359 H375 0.961 . S
C360 C361 1.370 . S
C360 C362 1.363 . S
C360 H376 0.931 . S
C361 C360 1.370 . S
C361 C365 1.408 . S
C362 C360 1.363 . S
C362 C363 1.370 . S
C362 C366 1.524 . S
C363 C355 1.503 1_655 S
C363 C362 1.370 . S
C363 C364 1.403 . S
C364 C363 1.403 . S
C364 C365 1.404 . S
C364 C367 1.539 . S
C365 C361 1.408 . S
C365 C364 1.404 . S
C365 H377 0.930 . S
C366 C362 1.524 . S
C366 H378 0.956 . S
C366 H379 0.976 . S
C366 H380 0.961 . S
C367 C364 1.539 . S
C367 H381 0.958 . S
C367 H382 0.961 . S
C367 H383 0.960 1_655 S
H368 C352 0.931 . S
H369 C357 0.929 . S
H370 C358 0.960 . S
H371 C358 0.962 . S
H372 C358 0.960 . S
H373 C359 0.961 . S
H374 C359 0.961 . S
H375 C359 0.961 . S
H376 C360 0.931 . S
H377 C365 0.930 . S
H378 C366 0.956 . S
H379 C366 0.976 . S
H380 C366 0.961 . S
H381 C367 0.958 . S
H382 C367 0.961 . S
H383 C367 0.960 1_455 S
C384 C385 1.391 . S
C384 C386 1.394 . S
C384 H400 0.931 . S
C385 C384 1.391 . S
C385 C389 1.376 . S
C386 C384 1.394 . S
C386 C387 1.369 . S
C386 C390 1.531 . S
C387 C386 1.369 . S
C387 C388 1.410 . S
C387 C395 1.503 . S
C388 C387 1.410 . S
C388 C389 1.392 . S
C388 C391 1.511 . S
C389 C385 1.376 . S
C389 C388 1.392 . S
C389 H401 0.929 . S
C390 C386 1.531 . S
C390 H402 0.960 . S
C390 H403 0.962 . S
C390 H404 0.960 . S
C391 C388 1.511 . S
C391 H405 0.961 . S
C391 H406 0.961 . S
C391 H407 0.961 . S
C392 C393 1.370 . S
C392 C394 1.363 . S
C392 H408 0.931 . S
C393 C392 1.370 . S
C393 C397 1.408 . S
C394 C392 1.363 . S
C394 C395 1.370 . S
C394 C398 1.524 . S
C395 C387 1.503 . S
C395 C394 1.370 . S
C395 C396 1.403 . S
C396 C395 1.403 . S
C396 C397 1.404 . S
C396 C399 1.539 . S
C397 C393 1.408 . S
C397 C396 1.404 . S
C397 H409 0.930 . S
C398 C394 1.524 . S
C398 H410 0.956 . S
C398 H411 0.961 . S
C398 H412 0.961 . S
C399 C396 1.539 . S
C399 H413 0.958 . S
C399 H414 0.961 . S
C399 H415 0.960 . S
H400 C384 0.931 . S
H401 C389 0.929 . S
H402 C390 0.960 . S
H403 C390 0.962 . S
H404 C390 0.960 . S
H405 C391 0.961 . S
H406 C391 0.961 . S
H407 C391 0.961 . S
H408 C392 0.931 . S
H409 C397 0.930 . S
H410 C398 0.956 . S
H411 C398 0.961 . S
H412 C398 0.961 . S
H413 C399 0.958 . S
H414 C399 0.961 . S
H415 C399 0.960 . S
C416 C417 1.391 . S
C416 C418 1.394 . S
C416 H432 0.931 . S
C417 C416 1.391 . S
C417 C421 1.376 . S
C418 C416 1.394 . S
C418 C419 1.369 . S
C418 C422 1.531 . S
C419 C418 1.369 . S
C419 C420 1.410 1_545 S
C419 C427 1.503 1_545 S
C420 C419 1.410 1_565 S
C420 C421 1.392 1_565 S
C420 C423 1.511 . S
C421 C417 1.376 . S
C421 C420 1.392 1_545 S
C421 H433 0.937 . S
C422 C418 1.531 . S
C422 H434 0.960 . S
C422 H435 0.962 . S
C422 H436 0.960 . S
C423 C420 1.511 . S
C423 H437 0.961 . S
C423 H438 0.961 . S
C423 H439 0.961 . S
C424 C425 1.370 . S
C424 C426 1.363 . S
C424 H440 0.931 . S
C425 C424 1.370 . S
C425 C429 1.408 . S
C426 C424 1.363 . S
C426 C427 1.370 . S
C426 C430 1.524 1_565 S
C427 C419 1.503 1_565 S
C427 C426 1.370 . S
C427 C428 1.403 . S
C428 C427 1.403 . S
C428 C429 1.404 . S
C428 C431 1.539 . S
C429 C425 1.408 . S
C429 C428 1.404 . S
C429 H441 0.930 . S
C430 C426 1.524 1_545 S
C430 H442 0.956 . S
C430 H443 0.961 . S
C430 H444 0.961 . S
C431 C428 1.539 . S
C431 H445 0.958 . S
C431 H446 0.961 . S
C431 H447 0.960 . S
H432 C416 0.931 . S
H433 C421 0.937 . S
H434 C422 0.960 . S
H435 C422 0.962 . S
H436 C422 0.960 . S
H437 C423 0.961 . S
H438 C423 0.961 . S
H439 C423 0.961 . S
H440 C424 0.931 . S
H441 C429 0.930 . S
H442 C430 0.956 . S
H443 C430 0.961 . S
H444 C430 0.961 . S
H445 C431 0.958 . S
H446 C431 0.961 . S
H447 C431 0.960 . S
C448 C449 1.391 . S
C448 C450 1.394 . S
C448 H464 0.931 . S
C449 C448 1.391 . S
C449 C453 1.376 . S
C450 C448 1.394 . S
C450 C451 1.369 . S
C450 C454 1.531 1_545 S
C451 C450 1.369 . S
C451 C452 1.410 1_455 S
C451 C459 1.503 1_445 S
C452 C451 1.410 1_655 S
C452 C453 1.392 1_655 S
C452 C455 1.511 . S
C453 C449 1.376 . S
C453 C452 1.392 1_455 S
C453 H465 0.929 . S
C454 C450 1.531 1_565 S
C454 H466 0.960 . S
C454 H467 0.962 . S
C454 H468 0.960 . S
C455 C452 1.511 . S
C455 H469 0.961 . S
C455 H470 0.961 . S
C455 H471 0.961 . S
C456 C457 1.370 . S
C456 C458 1.363 . S
C456 H472 0.931 . S
C457 C456 1.370 . S
C457 C461 1.408 . S
C458 C456 1.363 . S
C458 C459 1.370 . S
C458 C462 1.524 1_655 S
C459 C451 1.503 1_665 S
C459 C458 1.370 . S
C459 C460 1.403 . S
C460 C459 1.403 . S
C460 C461 1.404 . S
C460 C463 1.539 . S
C461 C457 1.408 . S
C461 C460 1.404 . S
C461 H473 0.930 . S
C462 C458 1.524 1_455 S
C462 H474 0.956 . S
C462 H475 0.961 . S
C462 H476 0.961 . S
C463 C460 1.539 . S
C463 H477 0.958 . S
C463 H478 0.961 . S
C463 H479 0.960 1_565 S
H464 C448 0.931 . S
H465 C453 0.929 . S
H466 C454 0.960 . S
H467 C454 0.962 . S
H468 C454 0.960 . S
H469 C455 0.961 . S
H470 C455 0.961 . S
H471 C455 0.961 . S
H472 C456 0.931 . S
H473 C461 0.930 . S
H474 C462 0.956 . S
H475 C462 0.961 . S
H476 C462 0.961 . S
H477 C463 0.958 . S
H478 C463 0.961 . S
H479 C463 0.960 1_545 S
C480 C481 1.391 . S
C480 C482 1.394 . S
C480 H496 0.931 . S
C481 C480 1.391 . S
C481 C485 1.376 . S
C482 C480 1.394 . S
C482 C483 1.369 . S
C482 C486 1.531 . S
C483 C482 1.369 . S
C483 C484 1.410 1_565 S
C483 C491 1.503 1_565 S
C484 C483 1.410 1_545 S
C484 C485 1.392 1_545 S
C484 C487 1.511 . S
C485 C481 1.376 . S
C485 C484 1.392 1_565 S
C485 H497 0.929 . S
C486 C482 1.531 . S
C486 H498 0.960 . S
C486 H499 0.962 . S
C486 H500 0.960 . S
C487 C484 1.511 . S
C487 H501 0.961 . S
C487 H502 0.961 . S
C487 H503 0.961 . S
C488 C489 1.370 . S
C488 C490 1.363 . S
C488 H504 0.931 . S
C489 C488 1.370 . S
C489 C493 1.408 . S
C490 C488 1.363 . S
C490 C491 1.370 . S
C490 C494 1.524 . S
C491 C483 1.503 1_545 S
C491 C490 1.370 . S
C491 C492 1.404 . S
C492 C491 1.404 . S
C492 C493 1.409 . S
C492 C495 1.533 1_545 S
C493 C489 1.408 . S
C493 C492 1.409 . S
C493 H505 0.930 . S
C494 C490 1.524 . S
C494 H506 0.956 . S
C494 H507 0.961 . S
C494 H508 0.961 . S
C495 C492 1.533 1_565 S
C495 H509 0.958 . S
C495 H510 0.961 . S
C495 H511 0.960 . S
H496 C480 0.931 . S
H497 C485 0.929 . S
H498 C486 0.960 . S
H499 C486 0.962 . S
H500 C486 0.960 . S
H501 C487 0.961 . S
H502 C487 0.961 . S
H503 C487 0.961 . S
H504 C488 0.931 . S
H505 C493 0.930 . S
H506 C494 0.956 . S
H507 C494 0.961 . S
H508 C494 0.961 . S
H509 C495 0.958 . S
H510 C495 0.961 . S
H511 C495 0.960 . S
C512 C513 1.391 . S
C512 C514 1.394 . S
C512 H528 0.931 . S
C513 C512 1.391 . S
C513 C517 1.376 . S
C514 C512 1.394 . S
C514 C515 1.369 . S
C514 C518 1.531 1_565 S
C515 C514 1.369 . S
C515 C516 1.410 1_655 S
C515 C523 1.503 1_665 S
C516 C515 1.410 1_455 S
C516 C517 1.392 1_455 S
C516 C519 1.511 . S
C517 C513 1.376 . S
C517 C516 1.392 1_655 S
C517 H529 0.929 . S
C518 C514 1.531 1_545 S
C518 H530 0.960 . S
C518 H531 0.962 . S
C518 H532 0.960 1_545 S
C519 C516 1.511 . S
C519 H533 0.961 . S
C519 H534 0.961 . S
C519 H535 0.961 . S
C520 C521 1.370 . S
C520 C522 1.363 1_455 S
C520 H536 0.931 . S
C521 C520 1.370 . S
C521 C525 1.408 . S
C522 C520 1.363 1_655 S
C522 C523 1.370 1_655 S
C522 C526 1.524 . S
C523 C515 1.503 1_445 S
C523 C522 1.370 1_455 S
C523 C524 1.403 . S
C524 C523 1.403 . S
C524 C525 1.404 . S
C524 C527 1.539 1_545 S
C525 C521 1.408 . S
C525 C524 1.404 . S
C525 H537 0.930 . S
C526 C522 1.524 . S
C526 H538 0.956 . S
C526 H539 0.961 . S
C526 H540 0.961 . S
C527 C524 1.539 1_565 S
C527 H541 0.958 . S
C527 H542 0.961 . S
C527 H543 0.960 . S
H528 C512 0.931 . S
H529 C517 0.929 . S
H530 C518 0.960 . S
H531 C518 0.962 . S
H532 C518 0.960 1_565 S
H533 C519 0.961 . S
H534 C519 0.961 . S
H535 C519 0.961 . S
H536 C520 0.931 . S
H537 C525 0.930 . S
H538 C526 0.956 . S
H539 C526 0.961 . S
H540 C526 0.961 . S
H541 C527 0.958 . S
H542 C527 0.961 . S
H543 C527 0.960 . S
C544 C545 1.391 . S
C544 C546 1.394 . S
C544 H560 0.931 . S
C545 C544 1.391 . S
C545 C549 1.376 . S
C546 C544 1.394 . S
C546 C547 1.369 . S
C546 C550 1.531 . S
C547 C546 1.369 . S
C547 C548 1.410 . S
C547 C555 1.503 1_455 S
C548 C547 1.410 . S
C548 C549 1.392 . S
C548 C551 1.511 1_455 S
C549 C545 1.376 . S
C549 C548 1.392 . S
C549 H561 0.929 . S
C550 C546 1.531 . S
C550 H562 0.960 . S
C550 H563 0.962 . S
C550 H564 0.960 . S
C551 C548 1.511 1_655 S
C551 H565 0.961 . S
C551 H566 0.961 . S
C551 H567 0.961 . S
C552 C553 1.370 . S
C552 C554 1.363 . S
C552 H568 0.931 . S
C553 C552 1.370 . S
C553 C557 1.408 . S
C554 C552 1.363 . S
C554 C555 1.370 . S
C554 C558 1.524 . S
C555 C547 1.503 1_655 S
C555 C554 1.370 . S
C555 C556 1.403 . S
C556 C555 1.403 . S
C556 C557 1.404 . S
C556 C559 1.539 . S
C557 C553 1.408 . S
C557 C556 1.404 . S
C557 H569 0.930 . S
C558 C554 1.524 . S
C558 H570 0.956 1_655 S
C558 H571 0.961 . S
C558 H572 0.961 . S
C559 C556 1.539 . S
C559 H573 0.958 . S
C559 H574 0.961 . S
C559 H575 0.960 . S
H560 C544 0.931 . S
H561 C549 0.929 . S
H562 C550 0.960 . S
H563 C550 0.962 . S
H564 C550 0.960 . S
H565 C551 0.961 . S
H566 C551 0.961 . S
H567 C551 0.961 . S
H568 C552 0.931 . S
H569 C557 0.930 . S
H570 C558 0.956 1_455 S
H571 C558 0.961 . S
H572 C558 0.961 . S
H573 C559 0.958 . S
H574 C559 0.961 . S
H575 C559 0.960 . S
C576 C577 1.391 . S
C576 C578 1.394 . S
C576 H592 0.931 . S
C577 C576 1.391 . S
C577 C581 1.376 . S
C578 C576 1.394 . S
C578 C579 1.369 . S
C578 C582 1.531 . S
C579 C578 1.369 . S
C579 C580 1.410 . S
C579 C587 1.503 . S
C580 C579 1.410 . S
C580 C581 1.392 . S
C580 C583 1.511 . S
C581 C577 1.376 . S
C581 C580 1.392 . S
C581 H593 0.929 . S
C582 C578 1.531 . S
C582 H594 0.960 . S
C582 H595 0.962 . S
C582 H596 0.960 . S
C583 C580 1.511 . S
C583 H597 0.961 . S
C583 H598 0.961 . S
C583 H599 0.961 . S
C584 C585 1.370 . S
C584 C586 1.363 . S
C584 H600 0.931 . S
C585 C584 1.370 . S
C585 C589 1.408 . S
C586 C584 1.363 . S
C586 C587 1.370 . S
C586 C590 1.524 . S
C587 C579 1.503 . S
C587 C586 1.370 . S
C587 C588 1.403 . S
C588 C587 1.403 . S
C588 C589 1.404 . S
C588 C591 1.539 . S
C589 C585 1.408 . S
C589 C588 1.404 . S
C589 H601 0.930 . S
C590 C586 1.524 . S
C590 H602 0.956 . S
C590 H603 0.961 . S
C590 H604 0.961 . S
C591 C588 1.539 . S
C591 H605 0.958 . S
C591 H606 0.961 . S
C591 H607 0.960 . S
H592 C576 0.931 . S
H593 C581 0.929 . S
H594 C582 0.960 . S
H595 C582 0.962 . S
H596 C582 0.960 . S
H597 C583 0.961 . S
H598 C583 0.961 . S
H599 C583 0.961 . S
H600 C584 0.931 . S
H601 C589 0.930 . S
H602 C590 0.956 . S
H603 C590 0.961 . S
H604 C590 0.961 . S
H605 C591 0.958 . S
H606 C591 0.961 . S
H607 C591 0.960 . S
C608 C609 1.391 . S
C608 C610 1.394 . S
C608 H624 0.931 . S
C609 C608 1.391 . S
C609 C613 1.376 . S
C610 C608 1.394 . S
C610 C611 1.369 . S
C610 C614 1.531 . S
C611 C610 1.369 . S
C611 C612 1.410 . S
C611 C619 1.503 . S
C612 C611 1.410 . S
C612 C613 1.392 . S
C612 C615 1.511 . S
C613 C609 1.376 . S
C613 C612 1.392 . S
C613 H625 0.929 . S
C614 C610 1.531 . S
C614 H626 0.960 . S
C614 H627 0.962 . S
C614 H628 0.960 . S
C615 C612 1.511 . S
C615 H629 0.961 . S
C615 H630 0.961 . S
C615 H631 0.961 . S
C616 C617 1.370 . S
C616 C618 1.363 . S
C616 H632 0.931 . S
C617 C616 1.370 . S
C617 C621 1.408 . S
C618 C616 1.363 . S
C618 C619 1.370 . S
C618 C622 1.524 . S
C619 C611 1.503 . S
C619 C618 1.370 . S
C619 C620 1.403 . S
C620 C619 1.403 . S
C620 C621 1.404 . S
C620 C623 1.539 . S
C621 C617 1.408 . S
C621 C620 1.404 . S
C621 H633 0.930 . S
C622 C618 1.524 . S
C622 H634 0.956 . S
C622 H635 0.961 . S
C622 H636 0.961 . S
C623 C620 1.539 . S
C623 H637 0.958 . S
C623 H638 0.961 . S
C623 H639 0.960 . S
H624 C608 0.931 . S
H625 C613 0.929 . S
H626 C614 0.960 . S
H627 C614 0.962 . S
H628 C614 0.960 . S
H629 C615 0.961 . S
H630 C615 0.961 . S
H631 C615 0.961 . S
H632 C616 0.931 . S
H633 C621 0.930 . S
H634 C622 0.956 . S
H635 C622 0.961 . S
H636 C622 0.961 . S
H637 C623 0.958 . S
H638 C623 0.961 . S
H639 C623 0.960 . S
C640 C641 1.391 . S
C640 C642 1.394 . S
C640 H656 0.931 . S
C641 C640 1.391 . S
C641 C645 1.376 . S
C642 C640 1.394 . S
C642 C643 1.369 . S
C642 C646 1.531 1_565 S
C643 C642 1.369 . S
C643 C644 1.410 . S
C643 C651 1.503 1_565 S
C644 C643 1.410 . S
C644 C645 1.392 . S
C644 C647 1.511 . S
C645 C641 1.376 . S
C645 C644 1.392 . S
C645 H657 0.929 . S
C646 C642 1.531 1_545 S
C646 H658 0.960 . S
C646 H659 0.962 . S
C646 H660 0.960 . S
C647 C644 1.511 . S
C647 H661 0.961 . S
C647 H662 0.961 . S
C647 H663 0.961 . S
C648 C649 1.370 . S
C648 C650 1.363 . S
C648 H664 0.931 . S
C649 C648 1.370 . S
C649 C653 1.408 . S
C650 C648 1.363 . S
C650 C651 1.370 . S
C650 C654 1.524 . S
C651 C643 1.503 1_545 S
C651 C650 1.370 . S
C651 C652 1.403 . S
C652 C651 1.403 . S
C652 C653 1.404 . S
C652 C655 1.539 . S
C653 C649 1.408 . S
C653 C652 1.404 . S
C653 H665 0.930 . S
C654 C650 1.524 . S
C654 H666 0.956 . S
C654 H667 0.946 1_545 S
C654 H668 0.961 . S
C655 C652 1.539 . S
C655 H669 0.958 . S
C655 H670 0.961 . S
C655 H671 0.960 1_545 S
H656 C640 0.931 . S
H657 C645 0.929 . S
H658 C646 0.960 . S
H659 C646 0.962 . S
H660 C646 0.960 . S
H661 C647 0.961 . S
H662 C647 0.961 . S
H663 C647 0.961 . S
H664 C648 0.931 . S
H665 C653 0.930 . S
H666 C654 0.956 . S
H667 C654 0.946 1_565 S
H668 C654 0.961 . S
H669 C655 0.958 . S
H670 C655 0.961 . S
H671 C655 0.960 1_565 S
C672 C673 1.391 . S
C672 C674 1.394 . S
C672 H688 0.931 . S
C673 C672 1.391 . S
C673 C677 1.376 . S
C674 C672 1.394 . S
C674 C675 1.369 . S
C674 C678 1.531 1_565 S
C675 C674 1.369 . S
C675 C676 1.410 . S
C675 C683 1.503 1_665 S
C676 C675 1.410 . S
C676 C677 1.392 . S
C676 C679 1.511 1_655 S
C677 C673 1.376 . S
C677 C676 1.392 . S
C677 H689 0.929 . S
C678 C674 1.531 1_545 S
C678 H690 0.960 . S
C678 H691 0.962 . S
C678 H692 0.960 . S
C679 C676 1.511 1_455 S
C679 H693 0.961 . S
C679 H694 0.961 . S
C679 H695 0.961 . S
C680 C681 1.370 . S
C680 C682 1.363 . S
C680 H696 0.931 . S
C681 C680 1.370 . S
C681 C685 1.408 . S
C682 C680 1.363 . S
C682 C683 1.370 . S
C682 C686 1.524 1_455 S
C683 C675 1.503 1_445 S
C683 C682 1.370 . S
C683 C684 1.403 1_545 S
C684 C683 1.403 1_565 S
C684 C685 1.404 1_565 S
C684 C687 1.539 . S
C685 C681 1.408 . S
C685 C684 1.404 1_545 S
C685 H697 0.930 . S
C686 C682 1.524 1_655 S
C686 H698 0.956 . S
C686 H699 0.961 . S
C686 H700 0.961 1_655 S
C687 C684 1.539 . S
C687 H701 0.958 . S
C687 H702 0.961 . S
C687 H703 0.960 . S
H688 C672 0.931 . S
H689 C677 0.929 . S
H690 C678 0.960 . S
H691 C678 0.962 . S
H692 C678 0.960 . S
H693 C679 0.961 . S
H694 C679 0.961 . S
H695 C679 0.961 . S
H696 C680 0.931 . S
H697 C685 0.930 . S
H698 C686 0.956 . S
H699 C686 0.961 . S
H700 C686 0.961 1_455 S
H701 C687 0.958 . S
H702 C687 0.961 . S
H703 C687 0.960 . S
C704 C705 1.391 . S
C704 C706 1.394 . S
C704 H720 0.931 . S
C705 C704 1.391 . S
C705 C709 1.376 . S
C706 C704 1.394 . S
C706 C707 1.369 . S
C706 C710 1.531 1_455 S
C707 C706 1.369 . S
C707 C708 1.410 . S
C707 C715 1.503 1_455 S
C708 C707 1.410 . S
C708 C709 1.392 . S
C708 C711 1.511 . S
C709 C705 1.376 . S
C709 C708 1.392 . S
C709 H721 0.929 . S
C710 C706 1.531 1_655 S
C710 H722 0.960 . S
C710 H723 0.962 . S
C710 H724 0.960 . S
C711 C708 1.511 . S
C711 H725 0.961 . S
C711 H726 0.961 . S
C711 H727 0.961 . S
C712 C713 1.370 . S
C712 C714 1.363 1_655 S
C712 H728 0.931 1_655 S
C713 C712 1.370 . S
C713 C717 1.408 . S
C714 C712 1.363 1_455 S
C714 C715 1.370 1_455 S
C714 C718 1.524 . S
C715 C707 1.503 1_655 S
C715 C714 1.370 1_655 S
C715 C716 1.403 . S
C716 C715 1.403 . S
C716 C717 1.404 . S
C716 C719 1.539 . S
C717 C713 1.408 . S
C717 C716 1.404 . S
C717 H729 0.930 . S
C718 C714 1.524 . S
C718 H730 0.956 . S
C718 H731 0.961 . S
C718 H732 0.961 . S
C719 C716 1.539 . S
C719 H733 0.958 . S
C719 H734 0.961 . S
C719 H735 0.960 . S
H720 C704 0.931 . S
H721 C709 0.929 . S
H722 C710 0.960 . S
H723 C710 0.962 . S
H724 C710 0.960 . S
H725 C711 0.961 . S
H726 C711 0.961 . S
H727 C711 0.961 . S
H728 C712 0.931 1_455 S
H729 C717 0.930 . S
H730 C718 0.956 . S
H731 C718 0.961 . S
H732 C718 0.961 . S
H733 C719 0.958 . S
H734 C719 0.961 . S
H735 C719 0.960 . S
C736 C737 1.391 . S
C736 C738 1.394 . S
C736 H752 0.931 . S
C737 C736 1.391 . S
C737 C741 1.376 . S
C738 C736 1.394 . S
C738 C739 1.369 . S
C738 C742 1.531 . S
C739 C738 1.369 . S
C739 C740 1.410 . S
C739 C747 1.503 . S
C740 C739 1.410 . S
C740 C741 1.392 . S
C740 C743 1.511 . S
C741 C737 1.376 . S
C741 C740 1.392 . S
C741 H753 0.929 . S
C742 C738 1.531 . S
C742 H754 0.960 . S
C742 H755 0.962 . S
C742 H756 0.960 . S
C743 C740 1.511 . S
C743 H757 0.961 . S
C743 H758 0.961 . S
C743 H759 0.961 . S
C744 C745 1.370 . S
C744 C746 1.363 . S
C744 H760 0.931 . S
C745 C744 1.370 . S
C745 C749 1.408 . S
C746 C744 1.363 . S
C746 C747 1.370 . S
C746 C750 1.524 . S
C747 C739 1.503 . S
C747 C746 1.370 . S
C747 C748 1.403 . S
C748 C747 1.403 . S
C748 C749 1.404 . S
C748 C751 1.539 . S
C749 C745 1.408 . S
C749 C748 1.404 . S
C749 H761 0.930 . S
C750 C746 1.524 . S
C750 H762 0.956 . S
C750 H763 0.961 . S
C750 H764 0.961 . S
C751 C748 1.539 . S
C751 H765 0.958 . S
C751 H766 0.961 . S
C751 H767 0.960 . S
H752 C736 0.931 . S
H753 C741 0.929 . S
H754 C742 0.960 . S
H755 C742 0.962 . S
H756 C742 0.960 . S
H757 C743 0.961 . S
H758 C743 0.961 . S
H759 C743 0.961 . S
H760 C744 0.931 . S
H761 C749 0.930 . S
H762 C750 0.956 . S
H763 C750 0.961 . S
H764 C750 0.961 . S
H765 C751 0.958 . S
H766 C751 0.961 . S
H767 C751 0.960 . S
C768 C769 1.391 . S
C768 C770 1.394 . S
C768 H784 0.931 . S
C769 C768 1.391 . S
C769 C773 1.376 . S
C770 C768 1.394 . S
C770 C771 1.369 . S
C770 C774 1.531 . S
C771 C770 1.369 . S
C771 C772 1.410 . S
C771 C779 1.503 . S
C772 C771 1.410 . S
C772 C773 1.392 . S
C772 C775 1.511 . S
C773 C769 1.376 . S
C773 C772 1.392 . S
C773 H785 0.929 . S
C774 C770 1.531 . S
C774 H786 0.960 . S
C774 H787 0.962 . S
C774 H788 0.960 . S
C775 C772 1.511 . S
C775 H789 0.961 . S
C775 H790 0.961 . S
C775 H791 0.961 . S
C776 C777 1.370 . S
C776 C778 1.363 . S
C776 H792 0.931 . S
C777 C776 1.370 . S
C777 C781 1.408 . S
C778 C776 1.363 . S
C778 C779 1.370 . S
C778 C782 1.524 . S
C779 C771 1.503 . S
C779 C778 1.370 . S
C779 C780 1.403 . S
C780 C779 1.403 . S
C780 C781 1.404 . S
C780 C783 1.539 . S
C781 C777 1.408 . S
C781 C780 1.404 . S
C781 H793 0.930 . S
C782 C778 1.524 . S
C782 H794 0.956 . S
C782 H795 0.961 . S
C782 H796 0.961 . S
C783 C780 1.539 . S
C783 H797 0.958 . S
C783 H798 0.961 . S
C783 H799 0.960 . S
H784 C768 0.931 . S
H785 C773 0.929 . S
H786 C774 0.960 . S
H787 C774 0.962 . S
H788 C774 0.960 . S
H789 C775 0.961 . S
H790 C775 0.961 . S
H791 C775 0.961 . S
H792 C776 0.931 . S
H793 C781 0.930 . S
H794 C782 0.956 . S
H795 C782 0.961 . S
H796 C782 0.961 . S
H797 C783 0.958 . S
H798 C783 0.961 . S
H799 C783 0.960 . S
C800 C801 1.391 . S
C800 C802 1.394 . S
C800 H816 0.931 . S
C801 C800 1.391 . S
C801 C805 1.376 . S
C802 C800 1.394 . S
C802 C803 1.369 . S
C802 C806 1.531 . S
C803 C802 1.369 . S
C803 C804 1.410 . S
C803 C811 1.503 . S
C804 C803 1.410 . S
C804 C805 1.392 . S
C804 C807 1.511 . S
C805 C801 1.376 . S
C805 C804 1.392 . S
C805 H817 0.929 . S
C806 C802 1.531 . S
C806 H818 0.960 . S
C806 H819 0.962 . S
C806 H820 0.960 . S
C807 C804 1.511 . S
C807 H821 0.961 . S
C807 H822 0.961 . S
C807 H823 0.961 . S
C808 C809 1.370 . S
C808 C810 1.363 . S
C808 H824 0.931 . S
C809 C808 1.370 . S
C809 C813 1.408 . S
C810 C808 1.363 . S
C810 C811 1.370 . S
C810 C814 1.524 . S
C811 C803 1.503 . S
C811 C810 1.370 . S
C811 C812 1.403 . S
C812 C811 1.403 . S
C812 C813 1.404 . S
C812 C815 1.539 . S
C813 C809 1.408 . S
C813 C812 1.404 . S
C813 H825 0.930 . S
C814 C810 1.524 . S
C814 H826 0.956 . S
C814 H827 0.961 . S
C814 H828 0.961 . S
C815 C812 1.539 . S
C815 H829 0.958 . S
C815 H830 0.961 . S
C815 H831 0.960 . S
H816 C800 0.931 . S
H817 C805 0.929 . S
H818 C806 0.960 . S
H819 C806 0.962 . S
H820 C806 0.960 . S
H821 C807 0.961 . S
H822 C807 0.961 . S
H823 C807 0.961 . S
H824 C808 0.931 . S
H825 C813 0.930 . S
H826 C814 0.956 . S
H827 C814 0.961 . S
H828 C814 0.961 . S
H829 C815 0.958 . S
H830 C815 0.961 . S
H831 C815 0.960 . S
C832 C833 1.391 . S
C832 C834 1.394 . S
C832 H848 0.931 . S
C833 C832 1.391 . S
C833 C837 1.376 . S
C834 C832 1.394 . S
C834 C835 1.369 . S
C834 C838 1.531 . S
C835 C834 1.369 . S
C835 C836 1.410 . S
C835 C843 1.503 . S
C836 C835 1.410 . S
C836 C837 1.392 . S
C836 C839 1.511 . S
C837 C833 1.376 . S
C837 C836 1.392 . S
C837 H849 0.929 . S
C838 C834 1.531 . S
C838 H850 0.960 . S
C838 H851 0.962 . S
C838 H852 0.960 . S
C839 C836 1.511 . S
C839 H853 0.961 . S
C839 H854 0.961 . S
C839 H855 0.961 . S
C840 C841 1.370 . S
C840 C842 1.363 . S
C840 H856 0.931 . S
C841 C840 1.370 . S
C841 C845 1.408 . S
C842 C840 1.363 . S
C842 C843 1.370 . S
C842 C846 1.524 . S
C843 C835 1.503 . S
C843 C842 1.370 . S
C843 C844 1.403 . S
C844 C843 1.403 . S
C844 C845 1.404 . S
C844 C847 1.539 . S
C845 C841 1.408 . S
C845 C844 1.404 . S
C845 H857 0.930 . S
C846 C842 1.524 . S
C846 H858 0.956 . S
C846 H859 0.961 . S
C846 H860 0.961 . S
C847 C844 1.539 . S
C847 H861 0.958 . S
C847 H862 0.961 . S
C847 H863 0.960 . S
H848 C832 0.931 . S
H849 C837 0.929 . S
H850 C838 0.960 . S
H851 C838 0.962 . S
H852 C838 0.960 . S
H853 C839 0.961 . S
H854 C839 0.961 . S
H855 C839 0.961 . S
H856 C840 0.931 . S
H857 C845 0.930 . S
H858 C846 0.956 . S
H859 C846 0.961 . S
H860 C846 0.961 . S
H861 C847 0.958 . S
H862 C847 0.961 . S
H863 C847 0.960 . S
C864 C865 1.391 . S
C864 C866 1.394 . S
C864 H880 0.931 . S
C865 C864 1.391 . S
C865 C869 1.376 . S
C866 C864 1.394 . S
C866 C867 1.369 . S
C866 C870 1.531 . S
C867 C866 1.369 . S
C867 C868 1.410 . S
C867 C875 1.503 . S
C868 C867 1.410 . S
C868 C869 1.392 . S
C868 C871 1.511 . S
C869 C865 1.376 . S
C869 C868 1.392 . S
C869 H881 0.929 . S
C870 C866 1.531 . S
C870 H882 0.960 . S
C870 H883 0.962 . S
C870 H884 0.960 . S
C871 C868 1.511 . S
C871 H885 0.961 . S
C871 H886 0.961 . S
C871 H887 0.961 . S
C872 C873 1.370 . S
C872 C874 1.363 . S
C872 H888 0.931 . S
C873 C872 1.370 . S
C873 C877 1.408 . S
C874 C872 1.363 . S
C874 C875 1.370 . S
C874 C878 1.524 . S
C875 C867 1.503 . S
C875 C874 1.370 . S
C875 C876 1.403 . S
C876 C875 1.403 . S
C876 C877 1.404 . S
C876 C879 1.539 . S
C877 C873 1.408 . S
C877 C876 1.404 . S
C877 H889 0.930 . S
C878 C874 1.524 . S
C878 H890 0.956 . S
C878 H891 0.961 . S
C878 H892 0.961 . S
C879 C876 1.539 . S
C879 H893 0.958 . S
C879 H894 0.961 . S
C879 H895 0.960 . S
H880 C864 0.931 . S
H881 C869 0.929 . S
H882 C870 0.960 . S
H883 C870 0.962 . S
H884 C870 0.960 . S
H885 C871 0.961 . S
H886 C871 0.961 . S
H887 C871 0.961 . S
H888 C872 0.931 . S
H889 C877 0.930 . S
H890 C878 0.956 . S
H891 C878 0.961 . S
H892 C878 0.961 . S
H893 C879 0.958 . S
H894 C879 0.961 . S
H895 C879 0.960 . S
C896 C897 1.391 . S
C896 C898 1.394 . S
C896 H912 0.931 . S
C897 C896 1.391 . S
C897 C901 1.376 . S
C898 C896 1.394 . S
C898 C899 1.369 . S
C898 C902 1.531 . S
C899 C898 1.369 . S
C899 C900 1.410 . S
C899 C907 1.503 . S
C900 C899 1.410 . S
C900 C901 1.392 . S
C900 C903 1.511 . S
C901 C897 1.376 . S
C901 C900 1.392 . S
C901 H913 0.929 . S
C902 C898 1.531 . S
C902 H914 0.960 . S
C902 H915 0.962 . S
C902 H916 0.960 . S
C903 C900 1.511 . S
C903 H917 0.961 . S
C903 H918 0.961 . S
C903 H919 0.961 . S
C904 C905 1.370 . S
C904 C906 1.363 . S
C904 H920 0.931 . S
C905 C904 1.370 . S
C905 C909 1.408 . S
C906 C904 1.363 . S
C906 C907 1.370 . S
C906 C910 1.524 . S
C907 C899 1.503 . S
C907 C906 1.370 . S
C907 C908 1.403 . S
C908 C907 1.403 . S
C908 C909 1.404 . S
C908 C911 1.539 . S
C909 C905 1.408 . S
C909 C908 1.404 . S
C909 H921 0.930 . S
C910 C906 1.524 . S
C910 H922 0.956 . S
C910 H923 0.961 . S
C910 H924 0.961 . S
C911 C908 1.539 . S
C911 H925 0.958 . S
C911 H926 0.961 . S
C911 H927 0.960 . S
H912 C896 0.931 . S
H913 C901 0.929 . S
H914 C902 0.960 . S
H915 C902 0.962 . S
H916 C902 0.960 . S
H917 C903 0.961 . S
H918 C903 0.961 . S
H919 C903 0.961 . S
H920 C904 0.931 . S
H921 C909 0.930 . S
H922 C910 0.956 . S
H923 C910 0.961 . S
H924 C910 0.961 . S
H925 C911 0.958 . S
H926 C911 0.961 . S
H927 C911 0.960 . S
C928 C929 1.391 . S
C928 C930 1.394 . S
C928 H944 0.931 . S
C929 C928 1.391 . S
C929 C933 1.376 . S
C930 C928 1.394 . S
C930 C931 1.369 . S
C930 C934 1.531 . S
C931 C930 1.369 . S
C931 C932 1.410 . S
C931 C939 1.503 . S
C932 C931 1.410 . S
C932 C933 1.392 . S
C932 C935 1.511 . S
C933 C929 1.376 . S
C933 C932 1.392 . S
C933 H945 0.929 . S
C934 C930 1.531 . S
C934 H946 0.960 . S
C934 H947 0.962 . S
C934 H948 0.960 . S
C935 C932 1.511 . S
C935 H949 0.961 . S
C935 H950 0.961 . S
C935 H951 0.961 . S
C936 C937 1.370 . S
C936 C938 1.363 . S
C936 H952 0.931 . S
C937 C936 1.370 . S
C937 C941 1.408 . S
C938 C936 1.363 . S
C938 C939 1.370 . S
C938 C942 1.524 . S
C939 C931 1.503 . S
C939 C938 1.370 . S
C939 C940 1.403 . S
C940 C939 1.403 . S
C940 C941 1.404 . S
C940 C943 1.539 . S
C941 C937 1.408 . S
C941 C940 1.404 . S
C941 H953 0.930 . S
C942 C938 1.524 . S
C942 H954 0.956 . S
C942 H955 0.961 . S
C942 H956 0.961 . S
C943 C940 1.539 . S
C943 H957 0.958 . S
C943 H958 0.961 . S
C943 H959 0.960 . S
H944 C928 0.931 . S
H945 C933 0.929 . S
H946 C934 0.960 . S
H947 C934 0.962 . S
H948 C934 0.960 . S
H949 C935 0.961 . S
H950 C935 0.961 . S
H951 C935 0.961 . S
H952 C936 0.931 . S
H953 C941 0.930 . S
H954 C942 0.956 . S
H955 C942 0.961 . S
H956 C942 0.961 . S
H957 C943 0.958 . S
H958 C943 0.961 . S
H959 C943 0.960 . S
C960 C961 1.391 . S
C960 C962 1.394 . S
C960 H976 0.931 . S
C961 C960 1.391 . S
C961 C965 1.376 . S
C962 C960 1.394 . S
C962 C963 1.369 . S
C962 C966 1.531 . S
C963 C962 1.369 . S
C963 C964 1.410 . S
C963 C971 1.503 . S
C964 C963 1.410 . S
C964 C965 1.392 . S
C964 C967 1.511 . S
C965 C961 1.376 . S
C965 C964 1.392 . S
C965 H977 0.929 . S
C966 C962 1.531 . S
C966 H978 0.960 . S
C966 H979 0.962 . S
C966 H980 0.960 . S
C967 C964 1.511 . S
C967 H981 0.961 . S
C967 H982 0.961 . S
C967 H983 0.961 . S
C968 C969 1.370 . S
C968 C970 1.363 . S
C968 H984 0.931 . S
C969 C968 1.370 . S
C969 C973 1.408 . S
C970 C968 1.363 . S
C970 C971 1.370 . S
C970 C974 1.524 . S
C971 C963 1.503 . S
C971 C970 1.370 . S
C971 C972 1.403 . S
C972 C971 1.403 . S
C972 C973 1.404 . S
C972 C975 1.539 . S
C973 C969 1.408 . S
C973 C972 1.404 . S
C973 H985 0.930 . S
C974 C970 1.524 . S
C974 H986 0.956 . S
C974 H987 0.961 . S
C974 H988 0.961 . S
C975 C972 1.539 . S
C975 H989 0.958 . S
C975 H990 0.961 . S
C975 H991 0.960 . S
H976 C960 0.931 . S
H977 C965 0.929 . S
H978 C966 0.960 . S
H979 C966 0.962 . S
H980 C966 0.960 . S
H981 C967 0.961 . S
H982 C967 0.961 . S
H983 C967 0.961 . S
H984 C968 0.931 . S
H985 C973 0.930 . S
H986 C974 0.956 . S
H987 C974 0.961 . S
H988 C974 0.961 . S
H989 C975 0.958 . S
H990 C975 0.961 . S
H991 C975 0.960 . S
C992 C993 1.391 . S
C992 C994 1.394 . S
C992 H1008 0.931 . S
C993 C992 1.391 . S
C993 C997 1.376 . S
C994 C992 1.394 . S
C994 C995 1.369 . S
C994 C998 1.531 . S
C995 C994 1.369 . S
C995 C996 1.410 . S
C995 C1003 1.503 . S
C996 C995 1.410 . S
C996 C997 1.392 . S
C996 C999 1.511 . S
C997 C993 1.376 . S
C997 C996 1.392 . S
C997 H1009 0.929 . S
C998 C994 1.531 . S
C998 H1010 0.960 . S
C998 H1011 0.962 . S
C998 H1012 0.960 . S
C999 C996 1.511 . S
C999 H1013 0.961 . S
C999 H1014 0.961 . S
C999 H1015 0.961 . S
C1000 C1001 1.370 . S
C1000 C1002 1.363 . S
C1000 H1016 0.931 . S
C1001 C1000 1.370 . S
C1001 C1005 1.408 . S
C1002 C1000 1.363 . S
C1002 C1003 1.370 . S
C1002 C1006 1.524 . S
C1003 C995 1.503 . S
C1003 C1002 1.370 . S
C1003 C1004 1.403 . S
C1004 C1003 1.403 . S
C1004 C1005 1.404 . S
C1004 C1007 1.539 . S
C1005 C1001 1.408 . S
C1005 C1004 1.404 . S
C1005 H1017 0.930 . S
C1006 C1002 1.524 . S
C1006 H1018 0.956 . S
C1006 H1019 0.961 . S
C1006 H1020 0.961 . S
C1007 C1004 1.539 . S
C1007 H1021 0.958 . S
C1007 H1022 0.961 . S
C1007 H1023 0.960 . S
H1008 C992 0.931 . S
H1009 C997 0.929 . S
H1010 C998 0.960 . S
H1011 C998 0.962 . S
H1012 C998 0.960 . S
H1013 C999 0.961 . S
H1014 C999 0.961 . S
H1015 C999 0.961 . S
H1016 C1000 0.931 . S
H1017 C1005 0.930 . S
H1018 C1006 0.956 . S
H1019 C1006 0.961 . S
H1020 C1006 0.961 . S
H1021 C1007 0.958 . S
H1022 C1007 0.961 . S
H1023 C1007 0.960 . S
C1024 C1025 1.391 . S
C1024 C1026 1.394 . S
C1024 H1040 0.931 . S
C1025 C1024 1.391 . S
C1025 C1029 1.376 . S
C1026 C1024 1.394 . S
C1026 C1027 1.369 . S
C1026 C1030 1.531 . S
C1027 C1026 1.369 . S
C1027 C1028 1.410 . S
C1027 C1035 1.503 . S
C1028 C1027 1.410 . S
C1028 C1029 1.392 . S
C1028 C1031 1.511 . S
C1029 C1025 1.376 . S
C1029 C1028 1.392 . S
C1029 H1041 0.929 . S
C1030 C1026 1.531 . S
C1030 H1042 0.960 . S
C1030 H1043 0.962 . S
C1030 H1044 0.960 . S
C1031 C1028 1.511 . S
C1031 H1045 0.961 . S
C1031 H1046 0.961 . S
C1031 H1047 0.961 . S
C1032 C1033 1.370 . S
C1032 C1034 1.363 . S
C1032 H1048 0.931 . S
C1033 C1032 1.370 . S
C1033 C1037 1.408 . S
C1034 C1032 1.363 . S
C1034 C1035 1.370 . S
C1034 C1038 1.524 . S
C1035 C1027 1.503 . S
C1035 C1034 1.370 . S
C1035 C1036 1.403 . S
C1036 C1035 1.403 . S
C1036 C1037 1.404 . S
C1036 C1039 1.539 . S
C1037 C1033 1.408 . S
C1037 C1036 1.404 . S
C1037 H1049 0.930 . S
C1038 C1034 1.524 . S
C1038 H1050 0.956 . S
C1038 H1051 0.961 . S
C1038 H1052 0.961 . S
C1039 C1036 1.539 . S
C1039 H1053 0.958 . S
C1039 H1054 0.961 . S
C1039 H1055 0.960 . S
H1040 C1024 0.931 . S
H1041 C1029 0.929 . S
H1042 C1030 0.960 . S
H1043 C1030 0.962 . S
H1044 C1030 0.960 . S
H1045 C1031 0.961 . S
H1046 C1031 0.961 . S
H1047 C1031 0.961 . S
H1048 C1032 0.931 . S
H1049 C1037 0.930 . S
H1050 C1038 0.956 . S
H1051 C1038 0.961 . S
H1052 C1038 0.961 . S
H1053 C1039 0.958 . S
H1054 C1039 0.961 . S
H1055 C1039 0.960 . S
C1056 C1057 1.391 . S
C1056 C1058 1.394 . S
C1056 H1072 0.931 . S
C1057 C1056 1.391 . S
C1057 C1061 1.376 . S
C1058 C1056 1.394 . S
C1058 C1059 1.369 . S
C1058 C1062 1.531 . S
C1059 C1058 1.369 . S
C1059 C1060 1.410 . S
C1059 C1067 1.503 . S
C1060 C1059 1.410 . S
C1060 C1061 1.392 . S
C1060 C1063 1.511 . S
C1061 C1057 1.376 . S
C1061 C1060 1.392 . S
C1061 H1073 0.929 . S
C1062 C1058 1.531 . S
C1062 H1074 0.960 . S
C1062 H1075 0.962 . S
C1062 H1076 0.960 . S
C1063 C1060 1.511 . S
C1063 H1077 0.961 . S
C1063 H1078 0.961 . S
C1063 H1079 0.961 . S
C1064 C1065 1.370 . S
C1064 C1066 1.363 . S
C1064 H1080 0.931 . S
C1065 C1064 1.370 . S
C1065 C1069 1.408 . S
C1066 C1064 1.363 . S
C1066 C1067 1.370 . S
C1066 C1070 1.524 . S
C1067 C1059 1.503 . S
C1067 C1066 1.370 . S
C1067 C1068 1.403 . S
C1068 C1067 1.403 . S
C1068 C1069 1.404 . S
C1068 C1071 1.539 . S
C1069 C1065 1.408 . S
C1069 C1068 1.404 . S
C1069 H1081 0.930 . S
C1070 C1066 1.524 . S
C1070 H1082 0.956 . S
C1070 H1083 0.961 . S
C1070 H1084 0.961 . S
C1071 C1068 1.539 . S
C1071 H1085 0.958 . S
C1071 H1086 0.961 . S
C1071 H1087 0.960 . S
H1072 C1056 0.931 . S
H1073 C1061 0.929 . S
H1074 C1062 0.960 . S
H1075 C1062 0.962 . S
H1076 C1062 0.960 . S
H1077 C1063 0.961 . S
H1078 C1063 0.961 . S
H1079 C1063 0.961 . S
H1080 C1064 0.931 . S
H1081 C1069 0.930 . S
H1082 C1070 0.956 . S
H1083 C1070 0.961 . S
H1084 C1070 0.961 . S
H1085 C1071 0.958 . S
H1086 C1071 0.961 . S
H1087 C1071 0.960 . S
C1088 C1089 1.391 . S
C1088 C1090 1.394 . S
C1088 H1104 0.931 . S
C1089 C1088 1.391 . S
C1089 C1093 1.376 . S
C1090 C1088 1.394 . S
C1090 C1091 1.369 . S
C1090 C1094 1.531 . S
C1091 C1090 1.369 . S
C1091 C1092 1.410 . S
C1091 C1099 1.503 1_556 S
C1092 C1091 1.410 . S
C1092 C1093 1.392 . S
C1092 C1095 1.511 . S
C1093 C1089 1.376 . S
C1093 C1092 1.392 . S
C1093 H1105 0.929 . S
C1094 C1090 1.531 . S
C1094 H1106 0.959 1_556 S
C1094 H1107 0.962 . S
C1094 H1108 0.960 . S
C1095 C1092 1.511 . S
C1095 H1109 0.961 . S
C1095 H1110 0.961 1_556 S
C1095 H1111 0.972 . S
C1096 C1097 1.370 . S
C1096 C1098 1.363 . S
C1096 H1112 0.931 . S
C1097 C1096 1.370 . S
C1097 C1101 1.408 . S
C1098 C1096 1.363 . S
C1098 C1099 1.370 . S
C1098 C1102 1.524 . S
C1099 C1091 1.503 1_554 S
C1099 C1098 1.370 . S
C1099 C1100 1.403 . S
C1100 C1099 1.403 . S
C1100 C1101 1.404 . S
C1100 C1103 1.539 . S
C1101 C1097 1.408 . S
C1101 C1100 1.404 . S
C1101 H1113 0.930 . S
C1102 C1098 1.524 . S
C1102 H1114 0.956 1_554 S
C1102 H1115 0.961 1_554 S
C1102 H1116 0.961 . S
C1103 C1100 1.539 . S
C1103 H1117 0.958 . S
C1103 H1118 0.961 . S
C1103 H1119 0.960 . S
H1104 C1088 0.931 . S
H1105 C1093 0.929 . S
H1106 C1094 0.959 1_554 S
H1107 C1094 0.962 . S
H1108 C1094 0.960 . S
H1109 C1095 0.961 . S
H1110 C1095 0.961 1_554 S
H1111 C1095 0.972 . S
H1112 C1096 0.931 . S
H1113 C1101 0.930 . S
H1114 C1102 0.956 1_556 S
H1115 C1102 0.961 1_556 S
H1116 C1102 0.961 . S
H1117 C1103 0.958 . S
H1118 C1103 0.961 . S
H1119 C1103 0.960 . S
C1120 C1121 1.391 . S
C1120 C1122 1.394 . S
C1120 H1136 0.931 . S
C1121 C1120 1.391 . S
C1121 C1125 1.376 . S
C1122 C1120 1.394 . S
C1122 C1123 1.369 . S
C1122 C1126 1.531 . S
C1123 C1122 1.369 . S
C1123 C1124 1.410 . S
C1123 C1131 1.503 1_554 S
C1124 C1123 1.410 . S
C1124 C1125 1.392 . S
C1124 C1127 1.511 . S
C1125 C1121 1.376 . S
C1125 C1124 1.392 . S
C1125 H1137 0.929 . S
C1126 C1122 1.531 . S
C1126 H1138 0.960 . S
C1126 H1139 0.962 . S
C1126 H1140 0.960 . S
C1127 C1124 1.511 . S
C1127 H1141 0.961 . S
C1127 H1142 0.961 1_554 S
C1127 H1143 0.960 . S
C1128 C1129 1.370 . S
C1128 C1130 1.363 . S
C1128 H1144 0.931 . S
C1129 C1128 1.370 . S
C1129 C1133 1.408 . S
C1130 C1128 1.363 . S
C1130 C1131 1.370 . S
C1130 C1134 1.524 . S
C1131 C1123 1.503 1_556 S
C1131 C1130 1.370 . S
C1131 C1132 1.403 . S
C1132 C1131 1.403 . S
C1132 C1133 1.404 . S
C1132 C1135 1.539 . S
C1133 C1129 1.408 . S
C1133 C1132 1.404 . S
C1133 H1145 0.930 . S
C1134 C1130 1.524 . S
C1134 H1146 0.910 1_556 S
C1134 H1147 1.010 . S
C1134 H1148 0.961 . S
C1135 C1132 1.539 . S
C1135 H1149 0.958 . S
C1135 H1150 0.961 . S
C1135 H1151 1.018 . S
H1136 C1120 0.931 . S
H1137 C1125 0.929 . S
H1138 C1126 0.960 . S
H1139 C1126 0.962 . S
H1140 C1126 0.960 . S
H1141 C1127 0.961 . S
H1142 C1127 0.961 1_556 S
H1143 C1127 0.960 . S
H1144 C1128 0.931 . S
H1145 C1133 0.930 . S
H1146 C1134 0.910 1_554 S
H1147 C1134 1.010 . S
H1148 C1134 0.961 . S
H1149 C1135 0.958 . S
H1150 C1135 0.961 . S
H1151 C1135 1.018 . S
C1152 C1153 1.391 . S
C1152 C1154 1.394 . S
C1152 H1168 0.931 . S
C1153 C1152 1.391 . S
C1153 C1157 1.376 . S
C1154 C1152 1.394 . S
C1154 C1155 1.369 . S
C1154 C1158 1.531 . S
C1155 C1154 1.369 . S
C1155 C1156 1.410 . S
C1155 C1163 1.503 . S
C1156 C1155 1.410 . S
C1156 C1157 1.392 . S
C1156 C1159 1.511 . S
C1157 C1153 1.376 . S
C1157 C1156 1.392 . S
C1157 H1169 0.929 . S
C1158 C1154 1.531 . S
C1158 H1170 0.960 . S
C1158 H1171 0.962 . S
C1158 H1172 0.960 . S
C1159 C1156 1.511 . S
C1159 H1173 0.961 . S
C1159 H1174 0.961 . S
C1159 H1175 0.961 . S
C1160 C1161 1.370 . S
C1160 C1162 1.363 . S
C1160 H1176 0.931 . S
C1161 C1160 1.370 . S
C1161 C1165 1.408 . S
C1162 C1160 1.363 . S
C1162 C1163 1.370 . S
C1162 C1166 1.524 . S
C1163 C1155 1.503 . S
C1163 C1162 1.370 . S
C1163 C1164 1.403 . S
C1164 C1163 1.403 . S
C1164 C1165 1.404 . S
C1164 C1167 1.539 . S
C1165 C1161 1.408 . S
C1165 C1164 1.404 . S
C1165 H1177 0.930 . S
C1166 C1162 1.524 . S
C1166 H1178 0.956 . S
C1166 H1179 0.961 . S
C1166 H1180 0.961 . S
C1167 C1164 1.539 . S
C1167 H1181 0.958 . S
C1167 H1182 0.961 . S
C1167 H1183 0.960 . S
H1168 C1152 0.931 . S
H1169 C1157 0.929 . S
H1170 C1158 0.960 . S
H1171 C1158 0.962 . S
H1172 C1158 0.960 . S
H1173 C1159 0.961 . S
H1174 C1159 0.961 . S
H1175 C1159 0.961 . S
H1176 C1160 0.931 . S
H1177 C1165 0.930 . S
H1178 C1166 0.956 . S
H1179 C1166 0.961 . S
H1180 C1166 0.961 . S
H1181 C1167 0.958 . S
H1182 C1167 0.961 . S
H1183 C1167 0.960 . S
C1184 C1185 1.391 . S
C1184 C1186 1.394 . S
C1184 H1200 0.931 . S
C1185 C1184 1.391 . S
C1185 C1189 1.376 . S
C1186 C1184 1.394 . S
C1186 C1187 1.369 . S
C1186 C1190 1.531 . S
C1187 C1186 1.369 . S
C1187 C1188 1.410 . S
C1187 C1195 1.503 . S
C1188 C1187 1.410 . S
C1188 C1189 1.392 . S
C1188 C1191 1.511 . S
C1189 C1185 1.376 . S
C1189 C1188 1.392 . S
C1189 H1201 0.929 . S
C1190 C1186 1.531 . S
C1190 H1202 0.960 . S
C1190 H1203 0.962 . S
C1190 H1204 0.960 . S
C1191 C1188 1.511 . S
C1191 H1205 0.961 . S
C1191 H1206 0.961 . S
C1191 H1207 0.961 . S
C1192 C1193 1.370 . S
C1192 C1194 1.363 . S
C1192 H1208 0.931 . S
C1193 C1192 1.370 . S
C1193 C1197 1.408 . S
C1194 C1192 1.363 . S
C1194 C1195 1.370 . S
C1194 C1198 1.524 . S
C1195 C1187 1.503 . S
C1195 C1194 1.370 . S
C1195 C1196 1.403 . S
C1196 C1195 1.403 . S
C1196 C1197 1.404 . S
C1196 C1199 1.539 . S
C1197 C1193 1.408 . S
C1197 C1196 1.404 . S
C1197 H1209 0.930 . S
C1198 C1194 1.524 . S
C1198 H1210 0.956 . S
C1198 H1211 0.961 . S
C1198 H1212 0.961 . S
C1199 C1196 1.539 . S
C1199 H1213 0.958 . S
C1199 H1214 0.961 . S
C1199 H1215 0.960 . S
H1200 C1184 0.931 . S
H1201 C1189 0.929 . S
H1202 C1190 0.960 . S
H1203 C1190 0.962 . S
H1204 C1190 0.960 . S
H1205 C1191 0.961 . S
H1206 C1191 0.961 . S
H1207 C1191 0.961 . S
H1208 C1192 0.931 . S
H1209 C1197 0.930 . S
H1210 C1198 0.956 . S
H1211 C1198 0.961 . S
H1212 C1198 0.961 . S
H1213 C1199 0.958 . S
H1214 C1199 0.961 . S
H1215 C1199 0.960 . S
C1216 C1217 1.391 . S
C1216 C1218 1.394 . S
C1216 H1232 0.931 . S
C1217 C1216 1.391 . S
C1217 C1221 1.376 . S
C1218 C1216 1.394 . S
C1218 C1219 1.369 . S
C1218 C1222 1.531 . S
C1219 C1218 1.369 . S
C1219 C1220 1.410 . S
C1219 C1227 1.503 . S
C1220 C1219 1.410 . S
C1220 C1221 1.392 . S
C1220 C1223 1.511 . S
C1221 C1217 1.376 . S
C1221 C1220 1.392 . S
C1221 H1233 0.929 . S
C1222 C1218 1.531 . S
C1222 H1234 0.960 . S
C1222 H1235 0.962 . S
C1222 H1236 0.960 . S
C1223 C1220 1.511 . S
C1223 H1237 0.961 . S
C1223 H1238 0.961 . S
C1223 H1239 0.961 . S
C1224 C1225 1.370 . S
C1224 C1226 1.363 . S
C1224 H1240 0.931 . S
C1225 C1224 1.370 . S
C1225 C1229 1.408 . S
C1226 C1224 1.363 . S
C1226 C1227 1.370 . S
C1226 C1230 1.524 . S
C1227 C1219 1.503 . S
C1227 C1226 1.370 . S
C1227 C1228 1.403 . S
C1228 C1227 1.403 . S
C1228 C1229 1.404 . S
C1228 C1231 1.539 . S
C1229 C1225 1.408 . S
C1229 C1228 1.404 . S
C1229 H1241 0.930 . S
C1230 C1226 1.524 . S
C1230 H1242 0.956 . S
C1230 H1243 0.961 . S
C1230 H1244 0.961 . S
C1231 C1228 1.539 . S
C1231 H1245 0.958 . S
C1231 H1246 0.961 . S
C1231 H1247 0.960 . S
H1232 C1216 0.931 . S
H1233 C1221 0.929 . S
H1234 C1222 0.960 . S
H1235 C1222 0.962 . S
H1236 C1222 0.960 . S
H1237 C1223 0.961 . S
H1238 C1223 0.961 . S
H1239 C1223 0.961 . S
H1240 C1224 0.931 . S
H1241 C1229 0.930 . S
H1242 C1230 0.956 . S
H1243 C1230 0.961 . S
H1244 C1230 0.961 . S
H1245 C1231 0.958 . S
H1246 C1231 0.961 . S
H1247 C1231 0.960 . S
C225 C151 1.527 . S
C233 C11 1.511 . S
C257 C25 1.518 . S
C265 C165 1.510 . S
C289 C123 1.498 . S
C297 C39 1.516 . S
C321 C137 1.513 . S
C329 C53 1.523 . S
C353 C67 1.514 . S
C361 C207 1.522 . S
C385 C221 1.514 . S
C393 C81 1.523 . S
C417 C95 1.514 . S
C425 C179 1.522 . S
C449 C193 1.514 . S
C457 C109 1.523 . S
C481 C145 1.554 . S
C489 C5 1.558 . S
C513 C19 1.554 . S
C521 C159 1.558 . S
C545 C33 1.554 . S
C553 C117 1.558 . S
C577 C47 1.554 . S
C585 C131 1.558 . S
C609 C61 1.554 . S
C617 C201 1.558 . S
C641 C75 1.554 . S
C649 C215 1.558 . S
C673 C173 1.554 . S
C681 C89 1.558 . S
C705 C187 1.554 . S
C713 C103 1.558 . S
C737 C9 1.211 . S
C745 C93 1.229 . S
C769 C23 1.263 . S
C777 C107 1.250 . S
C801 C37 1.242 . S
C809 C65 1.246 . S
C833 C51 1.213 . S
C841 C79 1.233 . S
C865 C121 1.262 . S
C873 C205 1.253 . S
C897 C219 1.212 . S
C905 C135 1.233 . S
C929 C149 1.215 . S
C937 C177 1.234 . S
C961 C191 1.210 . S
C969 C163 1.231 . S
C993 C0 1.213 . S
C1001 C210 1.234 . S
C1025 C168 1.254 . S
C1033 C14 1.242 . S
C1057 C182 1.253 . S
C1065 C28 1.253 . S
C1089 C196 1.221 . S
C1097 C42 1.242 . S
C1121 C126 1.215 . S
C1129 C56 1.233 . S
C1153 C140 1.240 . S
C1161 C70 1.250 . S
C1185 C84 1.226 . S
C1193 C154 1.244 . S
C1217 C98 1.263 . S
C1225 C112 1.253 . S
