# Generated by pormake.
# Topology wjg, (4)-cn, num edge types: 1
# Building blocks:
#     Node 0, Type 0, BuildingBlock: NAHDIM_clean_sbu_0, # of connection points: 4
#     Node 1, Type 0, BuildingBlock: NAHDIM_clean_sbu_0, # of connection points: 4
#     Node 2, Type 0, BuildingBlock: NAHDIM_clean_sbu_0, # of connection points: 4
#     Node 3, Type 0, BuildingBlock: NAHDIM_clean_sbu_0, # of connection points: 4
#     Node 4, Type 0, BuildingBlock: NAHDIM_clean_sbu_0, # of connection points: 4
#     Node 5, Type 0, BuildingBlock: NAHDIM_clean_sbu_0, # of connection points: 4
#     Node 6, Type 0, BuildingBlock: NAHDIM_clean_sbu_0, # of connection points: 4
#     Node 7, Type 0, BuildingBlock: NAHDIM_clean_sbu_0, # of connection points: 4
#     Node 8, Type 0, BuildingBlock: NAHDIM_clean_sbu_0, # of connection points: 4
#     Node 9, Type 0, BuildingBlock: NAHDIM_clean_sbu_0, # of connection points: 4
#     Node 10, Type 0, BuildingBlock: NAHDIM_clean_sbu_0, # of connection points: 4
#     Node 11, Type 0, BuildingBlock: NAHDIM_clean_sbu_0, # of connection points: 4
#     Edge 12, Type (0, 0), BuildingBlock: KIFKEQ_clean_linker_1, # of connection points: 2
#     Edge 13, Type (0, 0), BuildingBlock: KIFKEQ_clean_linker_1, # of connection points: 2
#     Edge 14, Type (0, 0), BuildingBlock: KIFKEQ_clean_linker_1, # of connection points: 2
#     Edge 15, Type (0, 0), BuildingBlock: KIFKEQ_clean_linker_1, # of connection points: 2
#     Edge 16, Type (0, 0), BuildingBlock: KIFKEQ_clean_linker_1, # of connection points: 2
#     Edge 17, Type (0, 0), BuildingBlock: KIFKEQ_clean_linker_1, # of connection points: 2
#     Edge 18, Type (0, 0), BuildingBlock: KIFKEQ_clean_linker_1, # of connection points: 2
#     Edge 19, Type (0, 0), BuildingBlock: KIFKEQ_clean_linker_1, # of connection points: 2
#     Edge 20, Type (0, 0), BuildingBlock: KIFKEQ_clean_linker_1, # of connection points: 2
#     Edge 21, Type (0, 0), BuildingBlock: KIFKEQ_clean_linker_1, # of connection points: 2
#     Edge 22, Type (0, 0), BuildingBlock: KIFKEQ_clean_linker_1, # of connection points: 2
#     Edge 23, Type (0, 0), BuildingBlock: KIFKEQ_clean_linker_1, # of connection points: 2
#     Edge 24, Type (0, 0), BuildingBlock: KIFKEQ_clean_linker_1, # of connection points: 2
#     Edge 25, Type (0, 0), BuildingBlock: KIFKEQ_clean_linker_1, # of connection points: 2
#     Edge 26, Type (0, 0), BuildingBlock: KIFKEQ_clean_linker_1, # of connection points: 2
#     Edge 27, Type (0, 0), BuildingBlock: KIFKEQ_clean_linker_1, # of connection points: 2
#     Edge 28, Type (0, 0), BuildingBlock: KIFKEQ_clean_linker_1, # of connection points: 2
#     Edge 29, Type (0, 0), BuildingBlock: KIFKEQ_clean_linker_1, # of connection points: 2
#     Edge 30, Type (0, 0), BuildingBlock: KIFKEQ_clean_linker_1, # of connection points: 2
#     Edge 31, Type (0, 0), BuildingBlock: KIFKEQ_clean_linker_1, # of connection points: 2
#     Edge 32, Type (0, 0), BuildingBlock: KIFKEQ_clean_linker_1, # of connection points: 2
#     Edge 33, Type (0, 0), BuildingBlock: KIFKEQ_clean_linker_1, # of connection points: 2
#     Edge 34, Type (0, 0), BuildingBlock: KIFKEQ_clean_linker_1, # of connection points: 2
#     Edge 35, Type (0, 0), BuildingBlock: KIFKEQ_clean_linker_1, # of connection points: 2
# Relax obj value: 0.294
# Max RMSD: 0.131
# Mean RMSD: 0.129
data_MOF--net-wjg--node1-NAHDIM_clean_sbu_0--edge1-KIFKEQ_clean_linker_1
_symmetry_space_group_name_H-M    P1
_symmetry_Int_Tables_number       1
_symmetry_cell_setting            triclinic
loop_
_symmetry_equiv_pos_as_xyz
'x, y, z'
_cell_length_a     34.88171
_cell_length_b     34.734051
_cell_length_c     39.40952
_cell_angle_alpha  90.095109
_cell_angle_beta   90.030035
_cell_angle_gamma 119.9991
loop_
_atom_site_label
_atom_site_type_symbol
_atom_site_fract_x
_atom_site_fract_y
_atom_site_fract_z
_atom_type_partial_charge
C0 C 0.11381 0.39443 0.24466 0.0
O1 O 0.15408 0.4007 0.24218 0.0
O2 O 0.19415 0.47478 0.30881 0.0
Zn3 Zn 0.14348 0.41197 0.31188 0.0
O4 O 0.16905 0.37152 0.30953 0.0
C5 C 0.13054 0.43938 0.37677 0.0
O6 O 0.14522 0.47747 0.36099 0.0
O7 O 0.09975 0.39762 0.27371 0.0
C8 C 0.19163 0.37158 0.33488 0.0
O9 O 0.19729 0.39788 0.36071 0.0
C10 C 0.2306 0.48669 0.29382 0.0
O11 O 0.23578 0.4574 0.27632 0.0
O12 O 0.11883 0.40447 0.35922 0.0
C13 C 0.69029 0.11769 0.58372 0.0
O14 O 0.70314 0.15931 0.5765 0.0
O15 O 0.7583 0.21806 0.62579 0.0
Zn16 Zn 0.75322 0.15933 0.63733 0.0
O17 O 0.81167 0.1633 0.62839 0.0
C18 C 0.72639 0.17445 0.70168 0.0
O19 O 0.70625 0.18979 0.68246 0.0
O20 O 0.70581 0.10908 0.60999 0.0
C21 C 0.82467 0.14242 0.64726 0.0
O22 O 0.79826 0.11629 0.67114 0.0
C23 C 0.79101 0.25294 0.63798 0.0
O24 O 0.8225 0.24964 0.65366 0.0
O25 O 0.74375 0.15375 0.68788 0.0
C26 C 0.61763 0.72518 0.92089 0.0
O27 O 0.6102 0.75776 0.91349 0.0
O28 O 0.54903 0.73742 -0.00586 0.0
Zn29 Zn 0.61233 0.75366 0.98727 0.0
O30 O 0.64613 0.8187 0.9758 0.0
C31 C 0.60617 0.72586 0.05527 0.0
O32 O 0.56804 0.69303 0.04462 0.0
O33 O 0.6198 0.71633 0.95186 0.0
C34 C 0.64413 0.84307 -0.00095 0.0
O35 O 0.61978 0.82395 0.02597 0.0
C36 C 0.51446 0.71378 0.97668 0.0
O37 O 0.51722 0.69576 0.94813 0.0
O38 O 0.63472 0.75005 0.03333 0.0
C39 C 0.8686 0.59976 0.24034 0.0
O40 O 0.82982 0.59369 0.23089 0.0
O41 O 0.77866 0.52869 0.30667 0.0
Zn42 Zn 0.82916 0.59175 0.30464 0.0
O43 O 0.80271 0.62929 0.29169 0.0
C44 C 0.84635 0.58014 0.37401 0.0
O45 O 0.84019 0.54179 0.36283 0.0
O46 O 0.8766 0.59974 0.27181 0.0
C47 C 0.81907 0.66863 0.30313 0.0
O48 O 0.85632 0.68612 0.32035 0.0
C49 C 0.74989 0.52356 0.32875 0.0
O50 O 0.75493 0.55843 0.34567 0.0
O51 O 0.85043 0.60924 0.35261 0.0
C52 C 0.2728 0.86685 0.58181 0.0
O53 O 0.2387 0.82807 0.5737 0.0
O54 O 0.2363 0.76926 0.63604 0.0
Zn55 Zn 0.24086 0.8285 0.64487 0.0
O56 O 0.18005 0.8192 0.63725 0.0
C57 C 0.27625 0.82359 0.70809 0.0
O58 O 0.29641 0.80869 0.68843 0.0
O59 O 0.28291 0.87569 0.61296 0.0
C60 C 0.16061 0.83231 0.65752 0.0
O61 O 0.18206 0.85633 0.68411 0.0
C62 C 0.205 0.73721 0.6521 0.0
O63 O 0.17811 0.74498 0.67041 0.0
O64 O 0.25529 0.84075 0.69448 0.0
C65 C 0.36495 0.25202 0.91268 0.0
O66 O 0.36541 0.21513 0.90627 0.0
O67 O 0.44473 0.24987 0.98418 0.0
Zn68 Zn 0.3807 0.23197 0.97961 0.0
O69 O 0.34642 0.16603 0.97139 0.0
C70 C 0.39107 0.2657 0.0468 0.0
O71 O 0.42921 0.29675 0.03475 0.0
O72 O 0.37058 0.26631 0.94304 0.0
C73 C 0.3501 0.14378 -0.00451 0.0
O74 O 0.37652 0.16526 0.02101 0.0
C75 C 0.47128 0.25197 0.96132 0.0
O76 O 0.45783 0.24333 0.92966 0.0
O77 O 0.36168 0.23936 0.02608 0.0
C78 C 0.57518 0.88956 0.39878 0.0
O79 O 0.54573 0.84759 0.4038 0.0
O80 O 0.52314 0.80563 0.33305 0.0
Zn81 Zn 0.58644 0.85532 0.33528 0.0
O82 O 0.62495 0.82815 0.34257 0.0
C83 C 0.57512 0.86914 0.26546 0.0
O84 O 0.53356 0.85291 0.27434 0.0
O85 O 0.59652 0.90094 0.371 0.0
C86 C 0.62136 0.80207 0.31851 0.0
O87 O 0.59187 0.79347 0.29461 0.0
C88 C 0.5088 0.77016 0.3502 0.0
O89 O 0.53488 0.76661 0.37249 0.0
O90 O 0.60429 0.88138 0.2886 0.0
C91 C 0.71651 0.59799 0.73431 0.0
O92 O 0.75028 0.59223 0.74065 0.0
O93 O 0.74161 0.53359 0.67002 0.0
Zn94 Zn 0.7433 0.59229 0.66807 0.0
O95 O 0.80656 0.64098 0.67436 0.0
C96 C 0.70929 0.56564 0.60084 0.0
O97 O 0.68947 0.52581 0.61444 0.0
O98 O 0.70525 0.59803 0.70364 0.0
C99 C 0.8315 0.64977 0.64862 0.0
O100 O 0.81533 0.62631 0.62077 0.0
C101 C 0.77142 0.52813 0.68392 0.0
O102 O 0.80345 0.56105 0.70094 0.0
O103 O 0.72734 0.59934 0.6203 0.0
C104 C 0.11462 0.69943 0.06936 0.0
O105 O 0.155 0.72812 0.07938 0.0
O106 O 0.20751 0.70434 0.02161 0.0
Zn107 Zn 0.16227 0.72185 0.00916 0.0
O108 O 0.18908 0.78755 0.0163 0.0
C109 C 0.17139 0.69714 0.94148 0.0
O110 O 0.18959 0.67719 0.95752 0.0
O111 O 0.1078 0.68947 0.03803 0.0
C112 C 0.17298 0.8088 0.00155 0.0
O113 O 0.13668 0.7868 0.98344 0.0
C114 C 0.2448 0.73158 0.03451 0.0
O115 O 0.25244 0.77107 0.044 0.0
O116 O 0.15207 0.71358 0.95857 0.0
C117 C 0.38193 0.10926 0.4074 0.0
O118 O 0.39065 0.14893 0.4174 0.0
O119 O 0.4591 0.20215 0.351 0.0
Zn120 Zn 0.39612 0.15272 0.34444 0.0
O121 O 0.35587 0.17779 0.35277 0.0
C122 C 0.41836 0.1527 0.27421 0.0
O123 O 0.45901 0.17235 0.28607 0.0
O124 O 0.3819 0.10174 0.37582 0.0
C125 C 0.36031 0.2068 0.33106 0.0
O126 O 0.39039 0.21816 0.30724 0.0
C127 C 0.46814 0.23615 0.36887 0.0
O128 O 0.43624 0.2375 0.38554 0.0
O129 O 0.38628 0.13565 0.29501 0.0
C130 C 0.2622 0.38005 0.72966 0.0
O131 O 0.23113 0.3889 0.73861 0.0
O132 O 0.22161 0.43793 0.68195 0.0
Zn133 Zn 0.22578 0.38428 0.66844 0.0
O134 O 0.16568 0.33047 0.67428 0.0
C135 C 0.25462 0.42947 0.60511 0.0
O136 O 0.27325 0.46449 0.62506 0.0
O137 O 0.26885 0.37748 0.69822 0.0
C138 C 0.15126 0.29849 0.6532 0.0
O139 O 0.17715 0.29973 0.62851 0.0
C140 C 0.18951 0.44078 0.66947 0.0
O141 O 0.15929 0.40725 0.6517 0.0
O142 O 0.2385 0.39101 0.61817 0.0
C143 C 0.91363 0.288 0.03983 0.0
O144 O 0.91149 0.25484 0.02223 0.0
O145 O 0.78835 0.28212 0.00644 0.0
Zn146 Zn 0.83643 0.26704 0.00033 0.0
O147 O 0.80902 0.20102 0.00715 0.0
C148 C 0.84236 0.30128 0.93342 0.0
O149 O 0.82882 0.32581 0.94896 0.0
O150 O 0.88579 0.30058 0.03383 0.0
C151 C 0.82009 0.17797 0.98886 0.0
O152 O 0.85191 0.19798 0.96646 0.0
C153 C 0.75318 0.25862 0.02322 0.0
O154 O 0.7491 0.22467 0.04081 0.0
O155 O 0.85404 0.27828 0.95107 0.0
H156 H 0.30629 0.53118 0.25642 0.0
H157 H 0.24098 0.54295 0.34576 0.0
H158 H 0.37174 0.60285 0.26989 0.0
H159 H 0.30664 0.61397 0.35937 0.0
H160 H 0.45827 0.69868 0.39053 0.0
H161 H 0.38821 0.63224 0.37573 0.0
H162 H 0.39152 0.68746 0.27703 0.0
H163 H 0.46108 0.75429 0.29192 0.0
C164 C 0.30579 0.54922 0.2787 0.0
C165 C 0.26859 0.53153 0.3 0.0
C166 C 0.34309 0.59018 0.28632 0.0
C167 C 0.34405 0.6136 0.31569 0.0
C168 C 0.30664 0.59633 0.33667 0.0
C169 C 0.26906 0.55586 0.32873 0.0
C170 C 0.44377 0.69681 0.36584 0.0
C171 C 0.46501 0.7316 0.34241 0.0
C172 C 0.40372 0.65896 0.35744 0.0
C173 C 0.38476 0.65493 0.32525 0.0
C174 C 0.40569 0.68986 0.30195 0.0
C175 C 0.44527 0.7281 0.31058 0.0
H176 H 0.85829 0.33562 0.65476 0.0
H177 H 0.71966 0.26383 0.62778 0.0
H178 H 0.85357 0.40235 0.66488 0.0
H179 H 0.7143 0.32968 0.63936 0.0
H180 H 0.72711 0.46597 0.63491 0.0
H181 H 0.73355 0.40127 0.62106 0.0
H182 H 0.82455 0.43176 0.70481 0.0
H183 H 0.8196 0.49783 0.71761 0.0
C184 C 0.82686 0.33419 0.65084 0.0
C185 C 0.78941 0.29454 0.64039 0.0
C186 C 0.82399 0.37229 0.65701 0.0
C187 C 0.78343 0.37141 0.65332 0.0
C188 C 0.74624 0.33191 0.64206 0.0
C189 C 0.74927 0.29402 0.63545 0.0
C190 C 0.74828 0.4587 0.65052 0.0
C191 C 0.77281 0.48695 0.67741 0.0
C192 C 0.75191 0.42147 0.64261 0.0
C193 C 0.77967 0.4112 0.66172 0.0
C194 C 0.80357 0.4391 0.68907 0.0
C195 C 0.80041 0.47674 0.69666 0.0
H196 H 0.49631 0.73491 0.03885 0.0
H197 H 0.43647 0.6809 0.94137 0.0
H198 H 0.42876 0.73261 0.05735 0.0
H199 H 0.36893 0.67958 0.95972 0.0
H200 H 0.24282 0.65708 0.00932 0.0
H201 H 0.30588 0.64663 -0.00147 0.0
H202 H 0.39319 0.77491 0.04353 0.0
H203 H 0.3303 0.785 0.0549 0.0
C204 C 0.46865 0.72241 0.02135 0.0
C205 C 0.4719 0.70858 0.98844 0.0
C206 C 0.42996 0.72122 0.03198 0.0
C207 C 0.39364 0.70637 0.00992 0.0
C208 C 0.39621 0.69084 0.97745 0.0
C209 C 0.43497 0.69183 0.96684 0.0
C210 C 0.27539 0.6827 0.01746 0.0
C211 C 0.2816 0.72205 0.03277 0.0
C212 C 0.31153 0.67683 0.01102 0.0
C213 C 0.35457 0.71008 0.01986 0.0
C214 C 0.36043 0.74842 0.03667 0.0
C215 C 0.32435 0.7543 0.04309 0.0
H216 H 0.54323 0.24363 0.34053 0.0
H217 H 0.49331 0.31903 0.39277 0.0
H218 H 0.61462 0.31127 0.33332 0.0
H219 H 0.5636 0.38657 0.38442 0.0
H220 H 0.70289 0.49798 0.38721 0.0
H221 H 0.63857 0.42642 0.40021 0.0
H222 H 0.64659 0.37793 0.30081 0.0
H223 H 0.71246 0.44929 0.2885 0.0
C224 C 0.54758 0.27459 0.35062 0.0
C225 C 0.51263 0.276 0.3672 0.0
C226 C 0.58836 0.31342 0.34625 0.0
C227 C 0.5949 0.35449 0.35812 0.0
C228 C 0.56015 0.35551 0.37542 0.0
C229 C 0.51963 0.31672 0.38008 0.0
C230 C 0.69098 0.47195 0.36818 0.0
C231 C 0.71224 0.47928 0.33666 0.0
C232 C 0.654 0.43094 0.37558 0.0
C233 C 0.63693 0.3965 0.35142 0.0
C234 C 0.65906 0.4035 0.32018 0.0
C235 C 0.6966 0.44445 0.31298 0.0
H236 H 0.26523 0.71401 0.63034 0.0
H237 H 0.13656 0.66066 0.67715 0.0
H238 H 0.26058 0.64172 0.63614 0.0
H239 H 0.13211 0.58869 0.68299 0.0
H240 H 0.12324 0.45607 0.65013 0.0
H241 H 0.12645 0.52765 0.64539 0.0
H242 H 0.26002 0.5937 0.68457 0.0
H243 H 0.25698 0.52214 0.68929 0.0
C244 C 0.23586 0.68681 0.6416 0.0
C245 C 0.20125 0.69298 0.65324 0.0
C246 C 0.23339 0.6456 0.6452 0.0
C247 C 0.19609 0.60973 0.66019 0.0
C248 C 0.16113 0.61569 0.67118 0.0
C249 C 0.16377 0.65694 0.66789 0.0
C250 C 0.15314 0.4858 0.65807 0.0
C251 C 0.18985 0.48346 0.67009 0.0
C252 C 0.15493 0.52674 0.65538 0.0
C253 C 0.19361 0.56619 0.66436 0.0
C254 C 0.23 0.56381 0.67705 0.0
C255 C 0.22807 0.52281 0.68006 0.0
H256 H 0.67272 0.21528 0.05484 0.0
H257 H 0.74648 0.31603 0.97959 0.0
H258 H 0.60654 0.21908 0.04083 0.0
H259 H 0.68034 0.31978 0.96577 0.0
H260 H 0.53789 0.2595 0.92006 0.0
H261 H 0.60844 0.26674 0.93746 0.0
H262 H 0.57518 0.26989 0.04258 0.0
H263 H 0.50476 0.2625 0.02539 0.0
C264 C 0.67501 0.23869 0.03571 0.0
C265 C 0.71478 0.26511 0.01821 0.0
C266 C 0.63715 0.24096 0.02776 0.0
C267 C 0.63828 0.26948 0.00201 0.0
C268 C 0.67842 0.2971 0.98541 0.0
C269 C 0.71635 0.29511 -0.00646 0.0
C270 C 0.54582 0.26217 0.94684 0.0
C271 C 0.5156 0.26013 0.9713 0.0
C272 C 0.58629 0.26654 0.9568 0.0
C273 C 0.59714 0.26866 0.9914 0.0
C274 C 0.56744 0.26781 0.01578 0.0
C275 C 0.5272 0.26377 0.00585 0.0
H276 H 0.19475 0.32081 0.28306 0.0
H277 H 0.23531 0.3588 0.38719 0.0
H278 H 0.23201 0.27719 0.2828 0.0
H279 H 0.27286 0.31552 0.38672 0.0
H280 H 0.30303 0.20097 0.38113 0.0
H281 H 0.25836 0.23735 0.38247 0.0
H282 H 0.3107 0.2964 0.28475 0.0
H283 H 0.35482 0.26006 0.28322 0.0
C284 C 0.21142 0.31969 0.30592 0.0
C285 C 0.21236 0.34349 0.33507 0.0
C286 C 0.23287 0.29486 0.30572 0.0
C287 C 0.25547 0.29313 0.3347 0.0
C288 C 0.25538 0.31593 0.36413 0.0
C289 C 0.23415 0.34098 0.36428 0.0
C290 C 0.30479 0.22158 0.35991 0.0
C291 C 0.33252 0.22777 0.33214 0.0
C292 C 0.27939 0.24249 0.36074 0.0
C293 C 0.28099 0.26957 0.33366 0.0
C294 C 0.30833 0.27525 0.30577 0.0
C295 C 0.33388 0.25469 0.30506 0.0
H296 H 0.88451 0.18587 0.59688 0.0
H297 H 0.87002 0.12298 0.69428 0.0
H298 H 0.96389 0.21331 0.59844 0.0
H299 H 0.94963 0.15067 0.69578 0.0
H300 H 0.09204 0.27928 0.70452 0.0
H301 H 0.01202 0.23061 0.70191 0.0
H302 H 0.02342 0.19147 0.60005 0.0
H303 H 0.10368 0.24012 0.60259 0.0
C304 C 0.89814 0.1772 0.61831 0.0
C305 C 0.87113 0.15273 0.64563 0.0
C306 C 0.94355 0.19266 0.61908 0.0
C307 C 0.96285 0.18429 0.64734 0.0
C308 C 0.93554 0.15781 0.67383 0.0
C309 C 0.89 0.14188 0.67287 0.0
C310 C 0.07759 0.25965 0.68181 0.0
C311 C 0.10405 0.26388 0.65363 0.0
C312 C 0.03181 0.23155 0.68041 0.0
C313 C 0.0116 0.2075 0.65069 0.0
C314 C 0.03824 0.20993 0.62315 0.0
C315 C 0.08413 0.23764 0.62469 0.0
H316 H 0.84076 0.11947 0.95928 0.0
H317 H 0.74338 0.12568 0.02323 0.0
H318 H 0.79879 0.03852 0.96165 0.0
H319 H 0.70067 0.04493 0.02464 0.0
H320 H 0.65852 0.90213 0.04959 0.0
H321 H 0.70224 0.98265 0.04752 0.0
H322 H 0.73148 0.97576 0.94182 0.0
H323 H 0.68876 0.89467 0.94429 0.0
C324 C 0.81034 0.10354 0.97378 0.0
C325 C 0.79548 0.12896 0.99118 0.0
C326 C 0.78609 0.05713 0.97492 0.0
C327 C 0.74628 0.03514 -0.00672 0.0
C328 C 0.73154 0.0607 0.01071 0.0
C329 C 0.75596 0.10705 0.00981 0.0
C330 C 0.67417 0.91774 0.02585 0.0
C331 C 0.67008 0.89205 -0.00295 0.0
C332 C 0.69911 0.964 0.02462 0.0
C333 C 0.72025 0.98579 -0.00553 0.0
C334 C 0.71612 0.96005 0.96559 0.0
C335 C 0.69142 0.91361 0.96692 0.0
H336 H 0.68059 0.80496 0.36571 0.0
H337 H 0.63078 0.75879 0.26451 0.0
H338 H 0.73036 0.77485 0.36005 0.0
H339 H 0.68111 0.73001 0.25852 0.0
H340 H 0.7365 0.63708 0.2764 0.0
H341 H 0.68992 0.67055 0.28 0.0
H342 H 0.79573 0.7855 0.33002 0.0
H343 H 0.84211 0.75135 0.32727 0.0
C344 C 0.68039 0.78855 0.34227 0.0
C345 C 0.65149 0.78388 0.31572 0.0
C346 C 0.70913 0.77163 0.33889 0.0
C347 C 0.70966 0.74996 0.30883 0.0
C348 C 0.68104 0.74582 0.28221 0.0
C349 C 0.65221 0.76243 0.28566 0.0
C350 C 0.75008 0.66971 0.28784 0.0
C351 C 0.79299 0.6915 0.30163 0.0
C352 C 0.72337 0.68899 0.28982 0.0
C353 C 0.73902 0.73063 0.30546 0.0
C354 C 0.78244 0.75305 0.31834 0.0
C355 C 0.80915 0.73367 0.31646 0.0
H356 H 0.10586 0.84725 0.69858 0.0
H357 H 0.10652 0.77699 0.60813 0.0
H358 H 0.02517 0.81054 0.69565 0.0
H359 H 0.02657 0.73948 0.6059 0.0
H360 H 0.88445 0.69327 0.59524 0.0
H361 H 0.96346 0.74625 0.59602 0.0
H362 H 0.96392 0.7369 0.70542 0.0
H363 H 0.88419 0.68523 0.70459 0.0
C364 C 0.08887 0.82438 0.6779 0.0
C365 C 0.11257 0.81483 0.65372 0.0
C366 C 0.04265 0.80311 0.67637 0.0
C367 C 0.01933 0.77188 0.65066 0.0
C368 C 0.04333 0.76381 0.62577 0.0
C369 C 0.08934 0.78516 0.62719 0.0
C370 C 0.90138 0.70293 0.61948 0.0
C371 C 0.87842 0.68475 0.64983 0.0
C372 C 0.94668 0.73318 0.61993 0.0
C373 C 0.97022 0.74533 0.65073 0.0
C374 C 0.94679 0.72861 0.68126 0.0
C375 C 0.90119 0.69878 0.68082 0.0
H376 H 0.34177 0.08929 0.04786 0.0
H377 H 0.29811 0.08746 0.94491 0.0
H378 H 0.2972 0.00884 0.0502 0.0
H379 H 0.25431 0.00637 0.94689 0.0
H380 H 0.14734 0.86484 0.97428 0.0
H381 H 0.18928 0.94592 0.97297 0.0
H382 H 0.29609 0.94456 0.02757 0.0
H383 H 0.25378 0.8639 0.02978 0.0
C384 C 0.32295 0.07166 0.02557 0.0
C385 C 0.32362 0.09474 -0.00387 0.0
C386 C 0.29749 0.02544 0.02689 0.0
C387 C 0.27231 0.00108 -0.0013 0.0
C388 C 0.27289 0.02417 0.96921 0.0
C389 C 0.29822 0.07058 0.96797 0.0
C390 C 0.17963 0.88191 0.98623 0.0
C391 C 0.19717 0.85794 0.00221 0.0
C392 C 0.20382 0.92836 0.98522 0.0
C393 C 0.2461 0.95176 8e-05 0.0
C394 C 0.26338 0.92768 0.01631 0.0
C395 C 0.23915 0.88135 0.01746 0.0
H396 H 0.922 0.35189 0.08495 0.0
H397 H 0.97662 0.26796 0.05947 0.0
H398 H 0.97135 0.38053 0.13398 0.0
H399 H 0.02527 0.29603 0.10862 0.0
H400 H 0.13579 0.38579 0.17995 0.0
H401 H 0.08913 0.36372 0.12968 0.0
H402 H 0.98068 0.35337 0.18956 0.0
H403 H 0.02778 0.37626 0.24008 0.0
C404 C 0.94466 0.33972 0.08968 0.0
C405 C 0.94539 0.30763 0.06828 0.0
C406 C 0.97268 0.35589 0.11791 0.0
C407 C 0.00213 0.34048 0.12523 0.0
C408 C 0.00334 0.30898 0.10347 0.0
C409 C 0.9753 0.29275 0.07534 0.0
C410 C 0.10205 0.37901 0.18248 0.0
C411 C 0.08542 0.38255 0.2141 0.0
C412 C 0.07525 0.36614 0.15364 0.0
C413 C 0.03113 0.3565 0.15566 0.0
C414 C 0.01467 0.36094 0.18713 0.0
C415 C 0.04155 0.3738 0.21609 0.0
H416 H 0.6576 0.12621 0.52298 0.0
H417 H 0.66314 0.02906 0.58811 0.0
H418 H 0.62301 0.07015 0.47864 0.0
H419 H 0.62904 0.97323 0.54355 0.0
H420 H 0.54155 0.8748 0.46312 0.0
H421 H 0.56173 0.92888 0.50898 0.0
H422 H 0.65193 0.03306 0.44179 0.0
H423 H 0.6315 0.97928 0.39588 0.0
C424 C 0.65094 0.09278 0.52803 0.0
C425 C 0.6636 0.08222 0.55894 0.0
C426 C 0.63134 0.06075 0.50253 0.0
C427 C 0.6238 0.01747 0.50747 0.0
C428 C 0.63419 0.00624 0.53906 0.0
C429 C 0.65391 0.03831 0.56455 0.0
C430 C 0.56538 0.90932 0.45804 0.0
C431 C 0.58515 0.92272 0.42591 0.0
C432 C 0.57702 0.94022 0.48436 0.0
C433 C 0.60843 0.98517 0.47901 0.0
C434 C 0.6272 -0.00125 0.4466 0.0
C435 C 0.61573 0.96786 0.42035 0.0
H436 H 0.62936 0.65328 0.92707 0.0
H437 H 0.62343 0.74163 0.85287 0.0
H438 H 0.64645 0.6158 0.8822 0.0
H439 H 0.64169 0.70507 0.80825 0.0
H440 H 0.64675 0.61317 0.73033 0.0
H441 H 0.61647 0.6378 0.77578 0.0
H442 H 0.70888 0.6333 0.8465 0.0
H443 H 0.73818 0.60759 0.80147 0.0
C444 C 0.6316 0.66463 0.90119 0.0
C445 C 0.62538 0.70065 0.89357 0.0
C446 C 0.64156 0.64327 0.87549 0.0
C447 C 0.64568 0.65756 0.84163 0.0
C448 C 0.63819 0.69278 0.83395 0.0
C449 C 0.62805 0.714 0.85961 0.0
C450 C 0.66019 0.61692 0.75568 0.0
C451 C 0.69511 0.60877 0.76223 0.0
C452 C 0.64302 0.63127 0.78168 0.0
C453 C 0.66048 0.63787 0.81474 0.0
C454 C 0.69427 0.62809 0.82147 0.0
C455 C 0.71131 0.61362 0.79554 0.0
H456 H 0.02755 0.63684 0.05841 0.0
H457 H 0.11876 0.71966 0.13651 0.0
H458 H 0.96717 0.60784 0.09957 0.0
H459 H 0.05855 0.6918 0.17717 0.0
H460 H 0.94999 0.60814 0.25059 0.0
H461 H 0.00835 0.62734 0.2089 0.0
H462 H 0.9242 0.63281 0.13079 0.0
H463 H 0.86544 0.61233 0.17224 0.0
C464 C 0.03471 0.64884 0.08433 0.0
C465 C 0.07793 0.6806 0.09417 0.0
C466 C 0.0001 0.6324 0.10787 0.0
C467 C 0.00799 0.64747 0.14171 0.0
C468 C 0.05136 0.67886 0.15152 0.0
C469 C 0.08589 0.69511 0.12808 0.0
C470 C 0.94384 0.61311 0.22447 0.0
C471 C 0.90318 0.60898 0.21478 0.0
C472 C 0.97737 0.62434 0.20059 0.0
C473 C 0.97111 0.63196 0.16652 0.0
C474 C 0.93 0.62669 0.1567 0.0
C475 C 0.89638 0.61522 0.18055 0.0
H476 H 0.37305 0.11356 0.47579 0.0
H477 H 0.36698 0.02498 0.39615 0.0
H478 H 0.35204 0.05462 0.5172 0.0
H479 H 0.34712 0.96616 0.43788 0.0
H480 H 0.25295 0.86021 0.5144 0.0
H481 H 0.28397 0.91873 0.47208 0.0
H482 H 0.37562 0.00947 0.54668 0.0
H483 H 0.34355 0.95103 0.58946 0.0
C484 C 0.36771 0.08162 0.46716 0.0
C485 C 0.37134 0.07385 0.43263 0.0
C486 C 0.35602 0.04789 0.49099 0.0
C487 C 0.34789 0.00562 0.4809 0.0
C488 C 0.35257 -0.00183 0.44644 0.0
C489 C 0.36409 0.03191 0.42254 0.0
C490 C 0.28004 0.89249 0.52175 0.0
C491 C 0.29548 0.90109 0.5554 0.0
C492 C 0.29805 0.92603 0.49737 0.0
C493 C 0.3321 0.96892 0.50601 0.0
C494 C 0.34887 0.97699 0.53934 0.0
C495 C 0.33069 0.94344 0.56381 0.0
H496 H 0.3443 0.22603 0.84662 0.0
H497 H 0.36715 0.33181 0.91614 0.0
H498 H 0.32609 0.2625 0.80193 0.0
H499 H 0.35009 0.36897 0.8711 0.0
H500 H 0.25397 0.38252 0.79816 0.0
H501 H 0.2845 0.356 0.8415 0.0
H502 H 0.35386 0.326 0.76446 0.0
H503 H 0.32219 0.35163 0.7207 0.0
C504 C 0.34596 0.25736 0.85227 0.0
C505 C 0.3567 0.27577 0.88505 0.0
C506 C 0.33588 0.27849 0.82653 0.0
C507 C 0.33649 0.31862 0.83293 0.0
C508 C 0.34864 0.33774 0.86546 0.0
C509 C 0.35854 0.31651 0.89125 0.0
C510 C 0.27608 0.3707 0.79039 0.0
C511 C 0.2853 0.36879 0.75592 0.0
C512 C 0.29389 0.35577 0.81535 0.0
C513 C 0.32149 0.33866 0.80649 0.0
C514 C 0.33217 0.33838 0.77208 0.0
C515 C 0.31427 0.35333 0.74704 0.0
H516 H 0.18804 0.51045 0.41496 0.0
H517 H 0.10149 0.36814 0.41954 0.0
H518 H 0.21999 0.50905 0.46915 0.0
H519 H 0.13175 0.36689 0.47504 0.0
H520 H 0.22814 0.36931 0.55305 0.0
H521 H 0.19574 0.37255 0.49902 0.0
H522 H 0.21258 0.50056 0.52722 0.0
H523 H 0.24714 0.49828 0.57997 0.0
C524 C 0.17477 0.47896 0.42807 0.0
C525 C 0.14225 0.43935 0.41285 0.0
C526 C 0.19321 0.47813 0.45931 0.0
C527 C 0.17902 0.43775 0.4765 0.0
C528 C 0.1445 0.39846 0.46218 0.0
C529 C 0.12658 0.39921 0.43059 0.0
C530 C 0.22566 0.39847 0.54727 0.0
C531 C 0.24064 0.4337 0.57058 0.0
C532 C 0.20643 0.40009 0.51654 0.0
C533 C 0.20091 0.43661 0.50873 0.0
C534 C 0.21676 0.47218 0.53192 0.0
C535 C 0.23672 0.47092 0.56228 0.0
H536 H 0.87259 0.26001 0.89083 0.0
H537 H 0.7861 0.31553 0.89465 0.0
H538 H 0.84477 0.2305 0.83433 0.0
H539 H 0.75641 0.28401 0.83945 0.0
H540 H 0.7336 0.25013 0.72789 0.0
H541 H 0.76638 0.28528 0.78164 0.0
H542 H 0.78208 0.17309 0.8082 0.0
H543 H 0.7516 0.13928 0.75319 0.0
C544 C 0.84797 0.26628 0.87943 0.0
C545 C 0.83163 0.29015 0.89717 0.0
C546 C 0.83147 0.24879 0.84725 0.0
C547 C 0.79767 0.25409 0.83237 0.0
C548 C 0.78272 0.27956 0.8497 0.0
C549 C 0.79981 0.29772 0.88152 0.0
C550 C 0.74341 0.23263 0.74544 0.0
C551 C 0.7397 0.19175 0.73649 0.0
C552 C 0.76234 0.25286 0.77636 0.0
C553 C 0.77723 0.23229 0.79943 0.0
C554 C 0.77207 0.19056 0.79083 0.0
C555 C 0.75395 0.17075 0.75954 0.0
H556 H 0.6542 0.87967 0.2431 0.0
H557 H 0.51865 0.83081 0.21198 0.0
H558 H 0.66555 0.84399 0.19392 0.0
H559 H 0.53041 0.79589 0.16254 0.0
H560 H 0.54457 0.69165 0.10581 0.0
H561 H 0.54063 0.73091 0.1557 0.0
H562 H 0.66863 0.84307 0.13142 0.0
H563 H 0.6731 0.8036 0.08177 0.0
C564 C 0.62714 0.86236 0.22533 0.0
C565 C 0.5853 0.85768 0.23172 0.0
C566 C 0.63367 0.84175 0.1972 0.0
C567 C 0.59856 0.81622 0.17487 0.0
C568 C 0.55774 0.81429 0.1799 0.0
C569 C 0.55118 0.83484 0.20799 0.0
C570 C 0.57237 0.72425 0.11148 0.0
C571 C 0.60889 0.74464 0.08952 0.0
C572 C 0.56982 0.747 0.13983 0.0
C573 C 0.60378 0.79055 0.14692 0.0
C574 C 0.64184 0.80965 0.1265 0.0
C575 C 0.64441 0.78689 0.0981 0.0
H576 H 0.8348 0.64614 0.40119 0.0
H577 H 0.82658 0.52102 0.42594 0.0
H578 H 0.79816 0.64379 0.45416 0.0
H579 H 0.79131 0.51952 0.47962 0.0
H580 H 0.68505 0.50061 0.55282 0.0
H581 H 0.72064 0.50698 0.49836 0.0
H582 H 0.8038 0.64845 0.51418 0.0
H583 H 0.76702 0.6424 0.56786 0.0
C584 C 0.82622 0.61865 0.41832 0.0
C585 C 0.8334 0.58357 0.40917 0.0
C586 C 0.80507 0.61729 0.44874 0.0
C587 C 0.79097 0.58104 0.4709 0.0
C588 C 0.80057 0.54731 0.46268 0.0
C589 C 0.82143 0.5485 0.43212 0.0
C590 C 0.71021 0.53323 0.54433 0.0
C591 C 0.72347 0.57088 0.56492 0.0
C592 C 0.73112 0.5368 0.51332 0.0
C593 C 0.76592 0.57805 0.50227 0.0
C594 C 0.77718 0.61614 0.52185 0.0
C595 C 0.75598 0.61264 0.5527 0.0
H596 H 0.23566 0.69404 0.90458 0.0
H597 H 0.13519 0.73181 0.89797 0.0
H598 H 0.26409 0.72714 0.84968 0.0
H599 H 0.16207 0.76286 0.84175 0.0
H600 H 0.24711 0.85629 0.75891 0.0
H601 H 0.22101 0.82407 0.81496 0.0
H602 H 0.25297 0.72154 0.79176 0.0
H603 H 0.28123 0.75523 0.73694 0.0
C604 C 0.21883 0.70839 0.89097 0.0
C605 C 0.18315 0.71032 0.90567 0.0
C606 C 0.23518 0.72742 0.85931 0.0
C607 C 0.21573 0.74814 0.84118 0.0
C608 C 0.17868 0.74826 0.85528 0.0
C609 C 0.1628 0.72987 0.8873 0.0
C610 C 0.24937 0.82742 0.76621 0.0
C611 C 0.26658 0.80856 0.74367 0.0
C612 C 0.23378 0.80849 0.79812 0.0
C613 C 0.2343 0.76976 0.80791 0.0
C614 C 0.25257 0.75167 0.78551 0.0
C615 C 0.26889 0.77108 0.75395 0.0
H616 H 0.33991 0.1366 0.24599 0.0
H617 H 0.47889 0.19165 0.22342 0.0
H618 H 0.32981 0.16564 0.19259 0.0
H619 H 0.46849 0.21976 0.16969 0.0
H620 H 0.45076 0.30916 0.09756 0.0
H621 H 0.45457 0.27882 0.15231 0.0
H622 H 0.33031 0.15955 0.13129 0.0
H623 H 0.32587 0.19023 0.07693 0.0
C624 C 0.36812 0.15397 0.22929 0.0
C625 C 0.41032 0.16204 0.23909 0.0
C626 C 0.36231 0.17076 0.19871 0.0
C627 C 0.39852 0.19581 0.17722 0.0
C628 C 0.44016 0.20166 0.18614 0.0
C629 C 0.446 0.18502 0.21674 0.0
C630 C 0.42375 0.27689 0.10491 0.0
C631 C 0.38825 0.25201 0.08269 0.0
C632 C 0.42622 0.25924 0.13611 0.0
C633 C 0.39329 0.2163 0.14577 0.0
C634 C 0.35627 0.19267 0.1246 0.0
C635 C 0.35371 0.21039 0.09343 0.0
loop_
_geom_bond_atom_site_label_1
_geom_bond_atom_site_label_2
_geom_bond_distance
_geom_bond_site_symmetry_2
_ccdc_geom_bond_type
C0 O1 1.160 . S
C0 O7 1.185 . S
O1 C0 1.160 . S
O2 Zn3 1.899 . S
O2 C10 1.284 . S
Zn3 O2 1.899 . S
Zn3 O4 2.032 . S
Zn3 O7 2.086 . S
Zn3 O12 1.977 . S
O4 Zn3 2.032 . S
O4 C8 1.278 . S
C5 O6 1.203 . S
C5 O12 1.267 . S
O6 C5 1.203 . S
O7 C0 1.185 . S
O7 Zn3 2.086 . S
C8 O4 1.278 . S
C8 O9 1.211 . S
O9 C8 1.211 . S
C10 O2 1.284 . S
C10 O11 1.273 . S
O11 C10 1.273 . S
O12 Zn3 1.977 . S
O12 C5 1.267 . S
C13 O14 1.160 . S
C13 O20 1.185 . S
O14 C13 1.160 . S
O15 Zn16 1.899 . S
O15 C23 1.284 . S
Zn16 O15 1.899 . S
Zn16 O17 2.032 . S
Zn16 O20 2.086 . S
Zn16 O25 1.977 . S
O17 Zn16 2.032 . S
O17 C21 1.278 . S
C18 O19 1.203 . S
C18 O25 1.267 . S
O19 C18 1.203 . S
O20 C13 1.185 . S
O20 Zn16 2.086 . S
C21 O17 1.278 . S
C21 O22 1.211 . S
O22 C21 1.211 . S
C23 O15 1.284 . S
C23 O24 1.273 . S
O24 C23 1.273 . S
O25 Zn16 1.977 . S
O25 C18 1.267 . S
C26 O27 1.160 . S
C26 O33 1.185 . S
O27 C26 1.160 . S
O28 Zn29 1.904 . S
O28 C36 1.284 . S
Zn29 O28 1.904 . S
Zn29 O30 2.045 . S
Zn29 O33 2.103 . S
Zn29 O38 1.946 1_556 S
O30 Zn29 2.045 . S
O30 C34 1.278 . S
C31 O32 1.203 . S
C31 O38 1.267 . S
O32 C31 1.203 . S
O33 C26 1.185 . S
O33 Zn29 2.103 . S
C34 O30 1.278 . S
C34 O35 1.211 1_556 S
O35 C34 1.211 1_554 S
C36 O28 1.284 . S
C36 O37 1.273 . S
O37 C36 1.273 . S
O38 Zn29 1.946 1_554 S
O38 C31 1.267 . S
C39 O40 1.160 . S
C39 O46 1.185 . S
O40 C39 1.160 . S
O41 Zn42 1.899 . S
O41 C49 1.284 . S
Zn42 O41 1.899 . S
Zn42 O43 2.032 . S
Zn42 O46 2.086 . S
Zn42 O51 1.977 . S
O43 Zn42 2.032 . S
O43 C47 1.278 . S
C44 O45 1.203 . S
C44 O51 1.267 . S
O45 C44 1.203 . S
O46 C39 1.185 . S
O46 Zn42 2.086 . S
C47 O43 1.278 . S
C47 O48 1.211 . S
O48 C47 1.211 . S
C49 O41 1.284 . S
C49 O50 1.273 . S
O50 C49 1.273 . S
O51 Zn42 1.977 . S
O51 C44 1.267 . S
C52 O53 1.160 . S
C52 O59 1.185 . S
O53 C52 1.160 . S
O54 Zn55 1.899 . S
O54 C62 1.284 . S
Zn55 O54 1.899 . S
Zn55 O56 2.032 . S
Zn55 O59 2.086 . S
Zn55 O64 1.977 . S
O56 Zn55 2.032 . S
O56 C60 1.278 . S
C57 O58 1.203 . S
C57 O64 1.267 . S
O58 C57 1.203 . S
O59 C52 1.185 . S
O59 Zn55 2.086 . S
C60 O56 1.278 . S
C60 O61 1.211 . S
O61 C60 1.211 . S
C62 O54 1.284 . S
C62 O63 1.273 . S
O63 C62 1.273 . S
O64 Zn55 1.977 . S
O64 C57 1.267 . S
C65 O66 1.160 . S
C65 O72 1.185 . S
O66 C65 1.160 . S
O67 Zn68 1.904 . S
O67 C75 1.284 . S
Zn68 O67 1.904 . S
Zn68 O69 2.045 . S
Zn68 O72 2.103 . S
Zn68 O77 1.946 1_556 S
O69 Zn68 2.045 . S
O69 C73 1.278 . S
C70 O71 1.203 . S
C70 O77 1.267 . S
O71 C70 1.203 . S
O72 C65 1.185 . S
O72 Zn68 2.103 . S
C73 O69 1.278 . S
C73 O74 1.211 1_556 S
O74 C73 1.211 1_554 S
C75 O67 1.284 . S
C75 O76 1.273 . S
O76 C75 1.273 . S
O77 Zn68 1.946 1_554 S
O77 C70 1.267 . S
C78 O79 1.160 . S
C78 O85 1.185 . S
O79 C78 1.160 . S
O80 Zn81 1.899 . S
O80 C88 1.284 . S
Zn81 O80 1.899 . S
Zn81 O82 2.032 . S
Zn81 O85 2.086 . S
Zn81 O90 1.977 . S
O82 Zn81 2.032 . S
O82 C86 1.278 . S
C83 O84 1.203 . S
C83 O90 1.267 . S
O84 C83 1.203 . S
O85 C78 1.185 . S
O85 Zn81 2.086 . S
C86 O82 1.278 . S
C86 O87 1.211 . S
O87 C86 1.211 . S
C88 O80 1.284 . S
C88 O89 1.273 . S
O89 C88 1.273 . S
O90 Zn81 1.977 . S
O90 C83 1.267 . S
C91 O92 1.160 . S
C91 O98 1.185 . S
O92 C91 1.160 . S
O93 Zn94 1.899 . S
O93 C101 1.284 . S
Zn94 O93 1.899 . S
Zn94 O95 2.032 . S
Zn94 O98 2.086 . S
Zn94 O103 1.977 . S
O95 Zn94 2.032 . S
O95 C99 1.278 . S
C96 O97 1.203 . S
C96 O103 1.267 . S
O97 C96 1.203 . S
O98 C91 1.185 . S
O98 Zn94 2.086 . S
C99 O95 1.278 . S
C99 O100 1.211 . S
O100 C99 1.211 . S
C101 O93 1.284 . S
C101 O102 1.273 . S
O102 C101 1.273 . S
O103 Zn94 1.977 . S
O103 C96 1.267 . S
C104 O105 1.160 . S
C104 O111 1.185 . S
O105 C104 1.160 . S
O106 Zn107 1.904 . S
O106 C114 1.284 . S
Zn107 O106 1.904 . S
Zn107 O108 2.045 . S
Zn107 O111 2.103 . S
Zn107 O116 1.946 1_554 S
O108 Zn107 2.045 . S
O108 C112 1.278 . S
C109 O110 1.203 . S
C109 O116 1.267 . S
O110 C109 1.203 . S
O111 C104 1.185 . S
O111 Zn107 2.103 . S
C112 O108 1.278 . S
C112 O113 1.211 1_554 S
O113 C112 1.211 1_556 S
C114 O106 1.284 . S
C114 O115 1.273 . S
O115 C114 1.273 . S
O116 Zn107 1.946 1_556 S
O116 C109 1.267 . S
C117 O118 1.160 . S
C117 O124 1.185 . S
O118 C117 1.160 . S
O119 Zn120 1.899 . S
O119 C127 1.284 . S
Zn120 O119 1.899 . S
Zn120 O121 2.032 . S
Zn120 O124 2.086 . S
Zn120 O129 1.977 . S
O121 Zn120 2.032 . S
O121 C125 1.278 . S
C122 O123 1.203 . S
C122 O129 1.267 . S
O123 C122 1.203 . S
O124 C117 1.185 . S
O124 Zn120 2.086 . S
C125 O121 1.278 . S
C125 O126 1.211 . S
O126 C125 1.211 . S
C127 O119 1.284 . S
C127 O128 1.273 . S
O128 C127 1.273 . S
O129 Zn120 1.977 . S
O129 C122 1.267 . S
C130 O131 1.160 . S
C130 O137 1.185 . S
O131 C130 1.160 . S
O132 Zn133 1.899 . S
O132 C140 1.284 . S
Zn133 O132 1.899 . S
Zn133 O134 2.032 . S
Zn133 O137 2.086 . S
Zn133 O142 1.977 . S
O134 Zn133 2.032 . S
O134 C138 1.278 . S
C135 O136 1.203 . S
C135 O142 1.267 . S
O136 C135 1.203 . S
O137 C130 1.185 . S
O137 Zn133 2.086 . S
C138 O134 1.278 . S
C138 O139 1.211 . S
O139 C138 1.211 . S
C140 O132 1.284 . S
C140 O141 1.273 . S
O141 C140 1.273 . S
O142 Zn133 1.977 . S
O142 C135 1.267 . S
C143 O144 1.160 . S
C143 O150 1.185 . S
O144 C143 1.160 . S
O145 Zn146 1.904 . S
O145 C153 1.284 . S
Zn146 O145 1.904 . S
Zn146 O147 2.045 . S
Zn146 O150 2.103 . S
Zn146 O155 1.946 1_554 S
O147 Zn146 2.045 . S
O147 C151 1.278 . S
C148 O149 1.203 . S
C148 O155 1.267 . S
O149 C148 1.203 . S
O150 C143 1.185 . S
O150 Zn146 2.103 . S
C151 O147 1.278 . S
C151 O152 1.211 1_554 S
O152 C151 1.211 1_556 S
C153 O145 1.284 . S
C153 O154 1.273 . S
O154 C153 1.273 . S
O155 Zn146 1.946 1_556 S
O155 C148 1.267 . S
H156 C164 0.950 . S
H157 C169 0.950 . S
H158 C166 0.950 . S
H159 C168 0.950 . S
H160 C170 0.950 . S
H161 C172 0.950 . S
H162 C174 0.950 . S
H163 C175 0.950 . S
C164 H156 0.950 . S
C164 C165 1.386 . S
C164 C166 1.391 . S
C165 C164 1.386 . S
C165 C169 1.393 . S
C166 H158 0.950 . S
C166 C164 1.391 . S
C166 C167 1.400 . S
C167 C166 1.400 . S
C167 C168 1.398 . S
C167 C173 1.491 . S
C168 H159 0.950 . S
C168 C167 1.398 . S
C168 C169 1.391 . S
C169 H157 0.950 . S
C169 C165 1.393 . S
C169 C168 1.391 . S
C170 H160 0.950 . S
C170 C171 1.386 . S
C170 C172 1.391 . S
C171 C170 1.386 . S
C171 C175 1.393 . S
C172 H161 0.950 . S
C172 C170 1.391 . S
C172 C173 1.400 . S
C173 C167 1.491 . S
C173 C172 1.400 . S
C173 C174 1.398 . S
C174 H162 0.950 . S
C174 C173 1.398 . S
C174 C175 1.391 . S
C175 H163 0.950 . S
C175 C171 1.393 . S
C175 C174 1.391 . S
H176 C184 0.950 . S
H177 C189 0.950 . S
H178 C186 0.950 . S
H179 C188 0.950 . S
H180 C190 0.950 . S
H181 C192 0.950 . S
H182 C194 0.950 . S
H183 C195 0.950 . S
C184 H176 0.950 . S
C184 C185 1.386 . S
C184 C186 1.391 . S
C185 C184 1.386 . S
C185 C189 1.393 . S
C186 H178 0.950 . S
C186 C184 1.391 . S
C186 C187 1.400 . S
C187 C186 1.400 . S
C187 C188 1.398 . S
C187 C193 1.491 . S
C188 H179 0.950 . S
C188 C187 1.398 . S
C188 C189 1.391 . S
C189 H177 0.950 . S
C189 C185 1.393 . S
C189 C188 1.391 . S
C190 H180 0.950 . S
C190 C191 1.386 . S
C190 C192 1.391 . S
C191 C190 1.386 . S
C191 C195 1.393 . S
C192 H181 0.950 . S
C192 C190 1.391 . S
C192 C193 1.400 . S
C193 C187 1.491 . S
C193 C192 1.400 . S
C193 C194 1.398 . S
C194 H182 0.950 . S
C194 C193 1.398 . S
C194 C195 1.391 . S
C195 H183 0.950 . S
C195 C191 1.393 . S
C195 C194 1.391 . S
H196 C204 0.950 . S
H197 C209 0.950 . S
H198 C206 0.950 . S
H199 C208 0.950 . S
H200 C210 0.950 . S
H201 C212 0.950 . S
H202 C214 0.950 . S
H203 C215 0.950 . S
C204 H196 0.950 . S
C204 C205 1.386 1_554 S
C204 C206 1.391 . S
C205 C204 1.386 1_556 S
C205 C209 1.393 . S
C206 H198 0.950 . S
C206 C204 1.391 . S
C206 C207 1.400 1_554 S
C207 C206 1.400 1_556 S
C207 C208 1.398 . S
C207 C213 1.491 1_556 S
C208 H199 0.950 . S
C208 C207 1.398 . S
C208 C209 1.391 . S
C209 H197 0.950 . S
C209 C205 1.393 . S
C209 C208 1.391 . S
C210 H200 0.950 . S
C210 C211 1.386 1_556 S
C210 C212 1.391 . S
C211 C210 1.386 1_554 S
C211 C215 1.393 . S
C212 H201 0.950 . S
C212 C210 1.391 . S
C212 C213 1.400 1_556 S
C213 C207 1.491 1_554 S
C213 C212 1.400 1_554 S
C213 C214 1.398 . S
C214 H202 0.950 . S
C214 C213 1.398 . S
C214 C215 1.391 . S
C215 H203 0.950 . S
C215 C211 1.393 . S
C215 C214 1.391 . S
H216 C224 0.950 . S
H217 C229 0.950 . S
H218 C226 0.950 . S
H219 C228 0.950 . S
H220 C230 0.950 . S
H221 C232 0.950 . S
H222 C234 0.950 . S
H223 C235 0.950 . S
C224 H216 0.950 . S
C224 C225 1.386 . S
C224 C226 1.391 . S
C225 C224 1.386 . S
C225 C229 1.393 . S
C226 H218 0.950 . S
C226 C224 1.391 . S
C226 C227 1.400 . S
C227 C226 1.400 . S
C227 C228 1.398 . S
C227 C233 1.491 . S
C228 H219 0.950 . S
C228 C227 1.398 . S
C228 C229 1.391 . S
C229 H217 0.950 . S
C229 C225 1.393 . S
C229 C228 1.391 . S
C230 H220 0.950 . S
C230 C231 1.386 . S
C230 C232 1.391 . S
C231 C230 1.386 . S
C231 C235 1.393 . S
C232 H221 0.950 . S
C232 C230 1.391 . S
C232 C233 1.400 . S
C233 C227 1.491 . S
C233 C232 1.400 . S
C233 C234 1.398 . S
C234 H222 0.950 . S
C234 C233 1.398 . S
C234 C235 1.391 . S
C235 H223 0.950 . S
C235 C231 1.393 . S
C235 C234 1.391 . S
H236 C244 0.950 . S
H237 C249 0.950 . S
H238 C246 0.950 . S
H239 C248 0.950 . S
H240 C250 0.950 . S
H241 C252 0.950 . S
H242 C254 0.950 . S
H243 C255 0.950 . S
C244 H236 0.950 . S
C244 C245 1.386 . S
C244 C246 1.391 . S
C245 C244 1.386 . S
C245 C249 1.393 . S
C246 H238 0.950 . S
C246 C244 1.391 . S
C246 C247 1.400 . S
C247 C246 1.400 . S
C247 C248 1.398 . S
C247 C253 1.491 . S
C248 H239 0.950 . S
C248 C247 1.398 . S
C248 C249 1.391 . S
C249 H237 0.950 . S
C249 C245 1.393 . S
C249 C248 1.391 . S
C250 H240 0.950 . S
C250 C251 1.386 . S
C250 C252 1.391 . S
C251 C250 1.386 . S
C251 C255 1.393 . S
C252 H241 0.950 . S
C252 C250 1.391 . S
C252 C253 1.400 . S
C253 C247 1.491 . S
C253 C252 1.400 . S
C253 C254 1.398 . S
C254 H242 0.950 . S
C254 C253 1.398 . S
C254 C255 1.391 . S
C255 H243 0.950 . S
C255 C251 1.393 . S
C255 C254 1.391 . S
H256 C264 0.950 . S
H257 C269 0.950 . S
H258 C266 0.950 . S
H259 C268 0.950 . S
H260 C270 0.950 . S
H261 C272 0.950 . S
H262 C274 0.950 . S
H263 C275 0.950 . S
C264 H256 0.950 . S
C264 C265 1.386 . S
C264 C266 1.391 . S
C265 C264 1.386 . S
C265 C269 1.393 1_554 S
C266 H258 0.950 . S
C266 C264 1.391 . S
C266 C267 1.400 . S
C267 C266 1.400 . S
C267 C268 1.398 1_554 S
C267 C273 1.491 1_554 S
C268 H259 0.950 . S
C268 C267 1.398 1_556 S
C268 C269 1.391 . S
C269 H257 0.950 . S
C269 C265 1.393 1_556 S
C269 C268 1.391 . S
C270 H260 0.950 . S
C270 C271 1.386 . S
C270 C272 1.391 . S
C271 C270 1.386 . S
C271 C275 1.393 1_556 S
C272 H261 0.950 . S
C272 C270 1.391 . S
C272 C273 1.400 . S
C273 C267 1.491 1_556 S
C273 C272 1.400 . S
C273 C274 1.398 1_556 S
C274 H262 0.950 . S
C274 C273 1.398 1_554 S
C274 C275 1.391 . S
C275 H263 0.950 . S
C275 C271 1.393 1_554 S
C275 C274 1.391 . S
H276 C284 0.950 . S
H277 C289 0.950 . S
H278 C286 0.950 . S
H279 C288 0.950 . S
H280 C290 0.950 . S
H281 C292 0.950 . S
H282 C294 0.950 . S
H283 C295 0.950 . S
C284 H276 0.950 . S
C284 C285 1.386 . S
C284 C286 1.391 . S
C285 C284 1.386 . S
C285 C289 1.393 . S
C286 H278 0.950 . S
C286 C284 1.391 . S
C286 C287 1.400 . S
C287 C286 1.400 . S
C287 C288 1.398 . S
C287 C293 1.491 . S
C288 H279 0.950 . S
C288 C287 1.398 . S
C288 C289 1.391 . S
C289 H277 0.950 . S
C289 C285 1.393 . S
C289 C288 1.391 . S
C290 H280 0.950 . S
C290 C291 1.386 . S
C290 C292 1.391 . S
C291 C290 1.386 . S
C291 C295 1.393 . S
C292 H281 0.950 . S
C292 C290 1.391 . S
C292 C293 1.400 . S
C293 C287 1.491 . S
C293 C292 1.400 . S
C293 C294 1.398 . S
C294 H282 0.950 . S
C294 C293 1.398 . S
C294 C295 1.391 . S
C295 H283 0.950 . S
C295 C291 1.393 . S
C295 C294 1.391 . S
H296 C304 0.950 . S
H297 C309 0.950 . S
H298 C306 0.950 . S
H299 C308 0.950 . S
H300 C310 0.950 . S
H301 C312 0.950 . S
H302 C314 0.950 . S
H303 C315 0.950 . S
C304 H296 0.950 . S
C304 C305 1.386 . S
C304 C306 1.391 . S
C305 C304 1.386 . S
C305 C309 1.393 . S
C306 H298 0.950 . S
C306 C304 1.391 . S
C306 C307 1.400 . S
C307 C306 1.400 . S
C307 C308 1.398 . S
C307 C313 1.491 1_655 S
C308 H299 0.950 . S
C308 C307 1.398 . S
C308 C309 1.391 . S
C309 H297 0.950 . S
C309 C305 1.393 . S
C309 C308 1.391 . S
C310 H300 0.950 . S
C310 C311 1.386 . S
C310 C312 1.391 . S
C311 C310 1.386 . S
C311 C315 1.393 . S
C312 H301 0.950 . S
C312 C310 1.391 . S
C312 C313 1.400 . S
C313 C307 1.491 1_455 S
C313 C312 1.400 . S
C313 C314 1.398 . S
C314 H302 0.950 . S
C314 C313 1.398 . S
C314 C315 1.391 . S
C315 H303 0.950 . S
C315 C311 1.393 . S
C315 C314 1.391 . S
H316 C324 0.950 . S
H317 C329 0.950 . S
H318 C326 0.950 . S
H319 C328 0.950 . S
H320 C330 0.950 . S
H321 C332 0.950 . S
H322 C334 0.950 . S
H323 C335 0.950 . S
C324 H316 0.950 . S
C324 C325 1.386 1_556 S
C324 C326 1.391 . S
C325 C324 1.386 1_554 S
C325 C329 1.393 . S
C326 H318 0.950 . S
C326 C324 1.391 . S
C326 C327 1.400 1_556 S
C327 C326 1.400 1_554 S
C327 C328 1.398 . S
C327 C333 1.491 1_544 S
C328 H319 0.950 . S
C328 C327 1.398 . S
C328 C329 1.391 . S
C329 H317 0.950 . S
C329 C325 1.393 . S
C329 C328 1.391 . S
C330 H320 0.950 . S
C330 C331 1.386 1_554 S
C330 C332 1.391 . S
C331 C330 1.386 1_556 S
C331 C335 1.393 . S
C332 H321 0.950 . S
C332 C330 1.391 . S
C332 C333 1.400 1_554 S
C333 C327 1.491 1_566 S
C333 C332 1.400 1_556 S
C333 C334 1.398 . S
C334 H322 0.950 . S
C334 C333 1.398 . S
C334 C335 1.391 . S
C335 H323 0.950 . S
C335 C331 1.393 . S
C335 C334 1.391 . S
H336 C344 0.950 . S
H337 C349 0.950 . S
H338 C346 0.950 . S
H339 C348 0.950 . S
H340 C350 0.950 . S
H341 C352 0.950 . S
H342 C354 0.950 . S
H343 C355 0.950 . S
C344 H336 0.950 . S
C344 C345 1.386 . S
C344 C346 1.391 . S
C345 C344 1.386 . S
C345 C349 1.393 . S
C346 H338 0.950 . S
C346 C344 1.391 . S
C346 C347 1.400 . S
C347 C346 1.400 . S
C347 C348 1.398 . S
C347 C353 1.491 . S
C348 H339 0.950 . S
C348 C347 1.398 . S
C348 C349 1.391 . S
C349 H337 0.950 . S
C349 C345 1.393 . S
C349 C348 1.391 . S
C350 H340 0.950 . S
C350 C351 1.386 . S
C350 C352 1.391 . S
C351 C350 1.386 . S
C351 C355 1.393 . S
C352 H341 0.950 . S
C352 C350 1.391 . S
C352 C353 1.400 . S
C353 C347 1.491 . S
C353 C352 1.400 . S
C353 C354 1.398 . S
C354 H342 0.950 . S
C354 C353 1.398 . S
C354 C355 1.391 . S
C355 H343 0.950 . S
C355 C351 1.393 . S
C355 C354 1.391 . S
H356 C364 0.950 . S
H357 C369 0.950 . S
H358 C366 0.950 . S
H359 C368 0.950 . S
H360 C370 0.950 . S
H361 C372 0.950 . S
H362 C374 0.950 . S
H363 C375 0.950 . S
C364 H356 0.950 . S
C364 C365 1.386 . S
C364 C366 1.391 . S
C365 C364 1.386 . S
C365 C369 1.393 . S
C366 H358 0.950 . S
C366 C364 1.391 . S
C366 C367 1.400 . S
C367 C366 1.400 . S
C367 C368 1.398 . S
C367 C373 1.491 1_455 S
C368 H359 0.950 . S
C368 C367 1.398 . S
C368 C369 1.391 . S
C369 H357 0.950 . S
C369 C365 1.393 . S
C369 C368 1.391 . S
C370 H360 0.950 . S
C370 C371 1.386 . S
C370 C372 1.391 . S
C371 C370 1.386 . S
C371 C375 1.393 . S
C372 H361 0.950 . S
C372 C370 1.391 . S
C372 C373 1.400 . S
C373 C367 1.491 1_655 S
C373 C372 1.400 . S
C373 C374 1.398 . S
C374 H362 0.950 . S
C374 C373 1.398 . S
C374 C375 1.391 . S
C375 H363 0.950 . S
C375 C371 1.393 . S
C375 C374 1.391 . S
H376 C384 0.950 . S
H377 C389 0.950 . S
H378 C386 0.950 . S
H379 C388 0.950 . S
H380 C390 0.950 . S
H381 C392 0.950 . S
H382 C394 0.950 . S
H383 C395 0.950 . S
C384 H376 0.950 . S
C384 C385 1.386 1_554 S
C384 C386 1.391 . S
C385 C384 1.386 1_556 S
C385 C389 1.393 . S
C386 H378 0.950 . S
C386 C384 1.391 . S
C386 C387 1.400 1_554 S
C387 C386 1.400 1_556 S
C387 C388 1.398 . S
C387 C393 1.491 1_546 S
C388 H379 0.950 . S
C388 C387 1.398 . S
C388 C389 1.391 . S
C389 H377 0.950 . S
C389 C385 1.393 . S
C389 C388 1.391 . S
C390 H380 0.950 . S
C390 C391 1.386 1_556 S
C390 C392 1.391 . S
C391 C390 1.386 1_554 S
C391 C395 1.393 . S
C392 H381 0.950 . S
C392 C390 1.391 . S
C392 C393 1.400 1_556 S
C393 C387 1.491 1_564 S
C393 C392 1.400 1_554 S
C393 C394 1.398 . S
C394 H382 0.950 . S
C394 C393 1.398 . S
C394 C395 1.391 . S
C395 H383 0.950 . S
C395 C391 1.393 . S
C395 C394 1.391 . S
H396 C404 0.950 . S
H397 C409 0.950 . S
H398 C406 0.950 . S
H399 C408 0.950 . S
H400 C410 0.950 . S
H401 C412 0.950 . S
H402 C414 0.950 . S
H403 C415 0.950 . S
C404 H396 0.950 . S
C404 C405 1.386 . S
C404 C406 1.391 . S
C405 C404 1.386 . S
C405 C409 1.393 . S
C406 H398 0.950 . S
C406 C404 1.391 . S
C406 C407 1.400 . S
C407 C406 1.400 . S
C407 C408 1.398 . S
C407 C413 1.491 1_655 S
C408 H399 0.950 . S
C408 C407 1.398 . S
C408 C409 1.391 . S
C409 H397 0.950 . S
C409 C405 1.393 . S
C409 C408 1.391 . S
C410 H400 0.950 . S
C410 C411 1.386 . S
C410 C412 1.391 . S
C411 C410 1.386 . S
C411 C415 1.393 . S
C412 H401 0.950 . S
C412 C410 1.391 . S
C412 C413 1.400 . S
C413 C407 1.491 1_455 S
C413 C412 1.400 . S
C413 C414 1.398 . S
C414 H402 0.950 . S
C414 C413 1.398 . S
C414 C415 1.391 . S
C415 H403 0.950 . S
C415 C411 1.393 . S
C415 C414 1.391 . S
H416 C424 0.950 . S
H417 C429 0.950 . S
H418 C426 0.950 . S
H419 C428 0.950 . S
H420 C430 0.950 . S
H421 C432 0.950 . S
H422 C434 0.950 . S
H423 C435 0.950 . S
C424 H416 0.950 . S
C424 C425 1.386 . S
C424 C426 1.391 . S
C425 C424 1.386 . S
C425 C429 1.393 . S
C426 H418 0.950 . S
C426 C424 1.391 . S
C426 C427 1.400 . S
C427 C426 1.400 . S
C427 C428 1.398 1_545 S
C427 C433 1.491 1_545 S
C428 H419 0.950 . S
C428 C427 1.398 1_565 S
C428 C429 1.391 1_565 S
C429 H417 0.950 . S
C429 C425 1.393 . S
C429 C428 1.391 1_545 S
C430 H420 0.950 . S
C430 C431 1.386 . S
C430 C432 1.391 . S
C431 C430 1.386 . S
C431 C435 1.393 . S
C432 H421 0.950 . S
C432 C430 1.391 . S
C432 C433 1.400 . S
C433 C427 1.491 1_565 S
C433 C432 1.400 . S
C433 C434 1.398 1_565 S
C434 H422 0.950 . S
C434 C433 1.398 1_545 S
C434 C435 1.391 1_545 S
C435 H423 0.950 . S
C435 C431 1.393 . S
C435 C434 1.391 1_565 S
H436 C444 0.950 . S
H437 C449 0.950 . S
H438 C446 0.950 . S
H439 C448 0.950 . S
H440 C450 0.950 . S
H441 C452 0.950 . S
H442 C454 0.950 . S
H443 C455 0.950 . S
C444 H436 0.950 . S
C444 C445 1.386 . S
C444 C446 1.391 . S
C445 C444 1.386 . S
C445 C449 1.393 . S
C446 H438 0.950 . S
C446 C444 1.391 . S
C446 C447 1.400 . S
C447 C446 1.400 . S
C447 C448 1.398 . S
C447 C453 1.491 . S
C448 H439 0.950 . S
C448 C447 1.398 . S
C448 C449 1.391 . S
C449 H437 0.950 . S
C449 C445 1.393 . S
C449 C448 1.391 . S
C450 H440 0.950 . S
C450 C451 1.386 . S
C450 C452 1.391 . S
C451 C450 1.386 . S
C451 C455 1.393 . S
C452 H441 0.950 . S
C452 C450 1.391 . S
C452 C453 1.400 . S
C453 C447 1.491 . S
C453 C452 1.400 . S
C453 C454 1.398 . S
C454 H442 0.950 . S
C454 C453 1.398 . S
C454 C455 1.391 . S
C455 H443 0.950 . S
C455 C451 1.393 . S
C455 C454 1.391 . S
H456 C464 0.950 . S
H457 C469 0.950 . S
H458 C466 0.950 . S
H459 C468 0.950 . S
H460 C470 0.950 . S
H461 C472 0.950 . S
H462 C474 0.950 . S
H463 C475 0.950 . S
C464 H456 0.950 . S
C464 C465 1.386 . S
C464 C466 1.391 1_455 S
C465 C464 1.386 . S
C465 C469 1.393 . S
C466 H458 0.950 . S
C466 C464 1.391 1_655 S
C466 C467 1.400 1_655 S
C467 C466 1.400 1_455 S
C467 C468 1.398 . S
C467 C473 1.491 1_455 S
C468 H459 0.950 . S
C468 C467 1.398 . S
C468 C469 1.391 . S
C469 H457 0.950 . S
C469 C465 1.393 . S
C469 C468 1.391 . S
C470 H460 0.950 . S
C470 C471 1.386 . S
C470 C472 1.391 1_655 S
C471 C470 1.386 . S
C471 C475 1.393 . S
C472 H461 0.950 . S
C472 C470 1.391 1_455 S
C472 C473 1.400 1_455 S
C473 C467 1.491 1_655 S
C473 C472 1.400 1_655 S
C473 C474 1.398 . S
C474 H462 0.950 . S
C474 C473 1.398 . S
C474 C475 1.391 . S
C475 H463 0.950 . S
C475 C471 1.393 . S
C475 C474 1.391 . S
H476 C484 0.950 . S
H477 C489 0.959 . S
H478 C486 0.950 . S
H479 C488 0.950 . S
H480 C490 0.950 . S
H481 C492 0.950 . S
H482 C494 0.950 . S
H483 C495 0.959 . S
C484 H476 0.950 . S
C484 C485 1.386 . S
C484 C486 1.391 . S
C485 C484 1.386 . S
C485 C489 1.393 . S
C486 H478 0.950 . S
C486 C484 1.391 . S
C486 C487 1.400 . S
C487 C486 1.400 . S
C487 C488 1.398 1_545 S
C487 C493 1.491 1_545 S
C488 H479 0.950 . S
C488 C487 1.398 1_565 S
C488 C489 1.391 1_565 S
C489 H477 0.959 . S
C489 C485 1.393 . S
C489 C488 1.391 1_545 S
C490 H480 0.950 . S
C490 C491 1.386 . S
C490 C492 1.391 . S
C491 C490 1.386 . S
C491 C495 1.393 . S
C492 H481 0.950 . S
C492 C490 1.391 . S
C492 C493 1.400 . S
C493 C487 1.491 1_565 S
C493 C492 1.400 . S
C493 C494 1.398 1_565 S
C494 H482 0.950 . S
C494 C493 1.398 1_545 S
C494 C495 1.391 1_545 S
C495 H483 0.959 . S
C495 C491 1.393 . S
C495 C494 1.391 1_565 S
H496 C504 0.950 . S
H497 C509 0.950 . S
H498 C506 0.950 . S
H499 C508 0.950 . S
H500 C510 0.950 . S
H501 C512 0.950 . S
H502 C514 0.950 . S
H503 C515 0.950 . S
C504 H496 0.950 . S
C504 C505 1.386 . S
C504 C506 1.391 . S
C505 C504 1.386 . S
C505 C509 1.393 . S
C506 H498 0.950 . S
C506 C504 1.391 . S
C506 C507 1.400 . S
C507 C506 1.400 . S
C507 C508 1.398 . S
C507 C513 1.491 . S
C508 H499 0.950 . S
C508 C507 1.398 . S
C508 C509 1.391 . S
C509 H497 0.950 . S
C509 C505 1.393 . S
C509 C508 1.391 . S
C510 H500 0.950 . S
C510 C511 1.386 . S
C510 C512 1.391 . S
C511 C510 1.386 . S
C511 C515 1.393 . S
C512 H501 0.950 . S
C512 C510 1.391 . S
C512 C513 1.400 . S
C513 C507 1.491 . S
C513 C512 1.400 . S
C513 C514 1.398 . S
C514 H502 0.950 . S
C514 C513 1.398 . S
C514 C515 1.391 . S
C515 H503 0.950 . S
C515 C511 1.393 . S
C515 C514 1.391 . S
H516 C524 0.950 . S
H517 C529 0.950 . S
H518 C526 0.950 . S
H519 C528 0.950 . S
H520 C530 0.950 . S
H521 C532 0.950 . S
H522 C534 0.950 . S
H523 C535 0.950 . S
C524 H516 0.950 . S
C524 C525 1.386 . S
C524 C526 1.391 . S
C525 C524 1.386 . S
C525 C529 1.393 . S
C526 H518 0.950 . S
C526 C524 1.391 . S
C526 C527 1.400 . S
C527 C526 1.400 . S
C527 C528 1.398 . S
C527 C533 1.491 . S
C528 H519 0.950 . S
C528 C527 1.398 . S
C528 C529 1.391 . S
C529 H517 0.950 . S
C529 C525 1.393 . S
C529 C528 1.391 . S
C530 H520 0.950 . S
C530 C531 1.386 . S
C530 C532 1.391 . S
C531 C530 1.386 . S
C531 C535 1.393 . S
C532 H521 0.950 . S
C532 C530 1.391 . S
C532 C533 1.400 . S
C533 C527 1.491 . S
C533 C532 1.400 . S
C533 C534 1.398 . S
C534 H522 0.950 . S
C534 C533 1.398 . S
C534 C535 1.391 . S
C535 H523 0.950 . S
C535 C531 1.393 . S
C535 C534 1.391 . S
H536 C544 0.950 . S
H537 C549 0.950 . S
H538 C546 0.950 . S
H539 C548 0.950 . S
H540 C550 0.950 . S
H541 C552 0.950 . S
H542 C554 0.950 . S
H543 C555 0.950 . S
C544 H536 0.950 . S
C544 C545 1.386 . S
C544 C546 1.391 . S
C545 C544 1.386 . S
C545 C549 1.393 . S
C546 H538 0.950 . S
C546 C544 1.391 . S
C546 C547 1.400 . S
C547 C546 1.400 . S
C547 C548 1.398 . S
C547 C553 1.491 . S
C548 H539 0.950 . S
C548 C547 1.398 . S
C548 C549 1.391 . S
C549 H537 0.950 . S
C549 C545 1.393 . S
C549 C548 1.391 . S
C550 H540 0.950 . S
C550 C551 1.386 . S
C550 C552 1.391 . S
C551 C550 1.386 . S
C551 C555 1.393 . S
C552 H541 0.950 . S
C552 C550 1.391 . S
C552 C553 1.400 . S
C553 C547 1.491 . S
C553 C552 1.400 . S
C553 C554 1.398 . S
C554 H542 0.950 . S
C554 C553 1.398 . S
C554 C555 1.391 . S
C555 H543 0.950 . S
C555 C551 1.393 . S
C555 C554 1.391 . S
H556 C564 0.950 . S
H557 C569 0.950 . S
H558 C566 0.950 . S
H559 C568 0.950 . S
H560 C570 0.950 . S
H561 C572 0.950 . S
H562 C574 0.950 . S
H563 C575 0.950 . S
C564 H556 0.950 . S
C564 C565 1.386 . S
C564 C566 1.391 . S
C565 C564 1.386 . S
C565 C569 1.393 . S
C566 H558 0.950 . S
C566 C564 1.391 . S
C566 C567 1.400 . S
C567 C566 1.400 . S
C567 C568 1.398 . S
C567 C573 1.491 . S
C568 H559 0.950 . S
C568 C567 1.398 . S
C568 C569 1.391 . S
C569 H557 0.950 . S
C569 C565 1.393 . S
C569 C568 1.391 . S
C570 H560 0.950 . S
C570 C571 1.386 . S
C570 C572 1.391 . S
C571 C570 1.386 . S
C571 C575 1.393 . S
C572 H561 0.950 . S
C572 C570 1.391 . S
C572 C573 1.400 . S
C573 C567 1.491 . S
C573 C572 1.400 . S
C573 C574 1.398 . S
C574 H562 0.950 . S
C574 C573 1.398 . S
C574 C575 1.391 . S
C575 H563 0.950 . S
C575 C571 1.393 . S
C575 C574 1.391 . S
H576 C584 0.950 . S
H577 C589 0.950 . S
H578 C586 0.950 . S
H579 C588 0.950 . S
H580 C590 0.950 . S
H581 C592 0.950 . S
H582 C594 0.950 . S
H583 C595 0.950 . S
C584 H576 0.950 . S
C584 C585 1.386 . S
C584 C586 1.391 . S
C585 C584 1.386 . S
C585 C589 1.393 . S
C586 H578 0.950 . S
C586 C584 1.391 . S
C586 C587 1.400 . S
C587 C586 1.400 . S
C587 C588 1.398 . S
C587 C593 1.491 . S
C588 H579 0.950 . S
C588 C587 1.398 . S
C588 C589 1.391 . S
C589 H577 0.950 . S
C589 C585 1.393 . S
C589 C588 1.391 . S
C590 H580 0.950 . S
C590 C591 1.386 . S
C590 C592 1.391 . S
C591 C590 1.386 . S
C591 C595 1.393 . S
C592 H581 0.950 . S
C592 C590 1.391 . S
C592 C593 1.400 . S
C593 C587 1.491 . S
C593 C592 1.400 . S
C593 C594 1.398 . S
C594 H582 0.950 . S
C594 C593 1.398 . S
C594 C595 1.391 . S
C595 H583 0.950 . S
C595 C591 1.393 . S
C595 C594 1.391 . S
H596 C604 0.950 . S
H597 C609 0.950 . S
H598 C606 0.950 . S
H599 C608 0.950 . S
H600 C610 0.950 . S
H601 C612 0.950 . S
H602 C614 0.950 . S
H603 C615 0.950 . S
C604 H596 0.950 . S
C604 C605 1.386 . S
C604 C606 1.391 . S
C605 C604 1.386 . S
C605 C609 1.393 . S
C606 H598 0.950 . S
C606 C604 1.391 . S
C606 C607 1.400 . S
C607 C606 1.400 . S
C607 C608 1.398 . S
C607 C613 1.491 . S
C608 H599 0.950 . S
C608 C607 1.398 . S
C608 C609 1.391 . S
C609 H597 0.950 . S
C609 C605 1.393 . S
C609 C608 1.391 . S
C610 H600 0.950 . S
C610 C611 1.386 . S
C610 C612 1.391 . S
C611 C610 1.386 . S
C611 C615 1.393 . S
C612 H601 0.950 . S
C612 C610 1.391 . S
C612 C613 1.400 . S
C613 C607 1.491 . S
C613 C612 1.400 . S
C613 C614 1.398 . S
C614 H602 0.950 . S
C614 C613 1.398 . S
C614 C615 1.391 . S
C615 H603 0.950 . S
C615 C611 1.393 . S
C615 C614 1.391 . S
H616 C624 0.950 . S
H617 C629 0.950 . S
H618 C626 0.950 . S
H619 C628 0.950 . S
H620 C630 0.950 . S
H621 C632 0.950 . S
H622 C634 0.950 . S
H623 C635 0.950 . S
C624 H616 0.950 . S
C624 C625 1.386 . S
C624 C626 1.391 . S
C625 C624 1.386 . S
C625 C629 1.393 . S
C626 H618 0.950 . S
C626 C624 1.391 . S
C626 C627 1.400 . S
C627 C626 1.400 . S
C627 C628 1.398 . S
C627 C633 1.491 . S
C628 H619 0.950 . S
C628 C627 1.398 . S
C628 C629 1.391 . S
C629 H617 0.950 . S
C629 C625 1.393 . S
C629 C628 1.391 . S
C630 H620 0.950 . S
C630 C631 1.386 . S
C630 C632 1.391 . S
C631 C630 1.386 . S
C631 C635 1.393 . S
C632 H621 0.950 . S
C632 C630 1.391 . S
C632 C633 1.400 . S
C633 C627 1.491 . S
C633 C632 1.400 . S
C633 C634 1.398 . S
C634 H622 0.950 . S
C634 C633 1.398 . S
C634 C635 1.391 . S
C635 H623 0.950 . S
C635 C631 1.393 . S
C635 C634 1.391 . S
C165 C10 1.347 . S
C171 C88 1.325 . S
C185 C23 1.336 . S
C191 C101 1.347 . S
C205 C36 1.311 . S
C211 C114 1.333 . S
C225 C127 1.326 . S
C231 C49 1.344 . S
C245 C62 1.338 . S
C251 C140 1.329 . S
C265 C153 1.328 . S
C271 C75 1.306 . S
C285 C8 0.767 . S
C291 C125 0.772 . S
C305 C21 0.798 . S
C311 C138 0.809 . S
C325 C151 0.785 . S
C331 C34 0.770 . S
C345 C86 0.779 . S
C351 C47 0.790 . S
C365 C60 0.795 . S
C371 C99 0.784 . S
C385 C73 0.799 . S
C391 C112 0.785 . S
C405 C143 1.789 . S
C411 C0 1.783 . S
C425 C13 1.840 . S
C431 C78 1.834 . S
C445 C26 1.788 . S
C451 C91 1.790 . S
C465 C104 1.796 . S
C471 C39 1.799 . S
C485 C117 1.837 . S
C491 C52 1.829 . S
C505 C65 1.801 . S
C511 C130 1.789 . S
C525 C5 0.730 . S
C531 C135 0.700 . S
C545 C148 0.698 . S
C551 C18 0.730 . S
C565 C83 0.682 . S
C571 C31 0.685 . S
C585 C44 0.678 . S
C591 C96 0.664 . S
C605 C109 0.720 . S
C611 C57 0.752 . S
C625 C122 0.682 . S
C631 C70 0.705 . S
