# Generated by pormake.
# Topology bcu-f, (3)-cn, num edge types: 1
# Building blocks:
#     Node 0, Type 0, BuildingBlock: WUSLED_clean_sbu_0, # of connection points: 3
#     Node 1, Type 0, BuildingBlock: WUSLED_clean_sbu_0, # of connection points: 3
#     Node 2, Type 0, BuildingBlock: WUSLED_clean_sbu_0, # of connection points: 3
#     Node 3, Type 0, BuildingBlock: WUSLED_clean_sbu_0, # of connection points: 3
#     Node 4, Type 0, BuildingBlock: WUSLED_clean_sbu_0, # of connection points: 3
#     Node 5, Type 0, BuildingBlock: WUSLED_clean_sbu_0, # of connection points: 3
#     Node 6, Type 0, BuildingBlock: WUSLED_clean_sbu_0, # of connection points: 3
#     Node 7, Type 0, BuildingBlock: WUSLED_clean_sbu_0, # of connection points: 3
#     Node 8, Type 0, BuildingBlock: WUSLED_clean_sbu_0, # of connection points: 3
#     Node 9, Type 0, BuildingBlock: WUSLED_clean_sbu_0, # of connection points: 3
#     Node 10, Type 0, BuildingBlock: WUSLED_clean_sbu_0, # of connection points: 3
#     Node 11, Type 0, BuildingBlock: WUSLED_clean_sbu_0, # of connection points: 3
#     Node 12, Type 0, BuildingBlock: WUSLED_clean_sbu_0, # of connection points: 3
#     Node 13, Type 0, BuildingBlock: WUSLED_clean_sbu_0, # of connection points: 3
#     Node 14, Type 0, BuildingBlock: WUSLED_clean_sbu_0, # of connection points: 3
#     Node 15, Type 0, BuildingBlock: WUSLED_clean_sbu_0, # of connection points: 3
#     Edge 16, Type (0, 0), BuildingBlock: UVAHIK_clean_linker_0, # of connection points: 2
#     Edge 17, Type (0, 0), BuildingBlock: UVAHIK_clean_linker_0, # of connection points: 2
#     Edge 18, Type (0, 0), BuildingBlock: UVAHIK_clean_linker_0, # of connection points: 2
#     Edge 19, Type (0, 0), BuildingBlock: UVAHIK_clean_linker_0, # of connection points: 2
#     Edge 20, Type (0, 0), BuildingBlock: UVAHIK_clean_linker_0, # of connection points: 2
#     Edge 21, Type (0, 0), BuildingBlock: UVAHIK_clean_linker_0, # of connection points: 2
#     Edge 22, Type (0, 0), BuildingBlock: UVAHIK_clean_linker_0, # of connection points: 2
#     Edge 23, Type (0, 0), BuildingBlock: UVAHIK_clean_linker_0, # of connection points: 2
#     Edge 24, Type (0, 0), BuildingBlock: UVAHIK_clean_linker_0, # of connection points: 2
#     Edge 25, Type (0, 0), BuildingBlock: UVAHIK_clean_linker_0, # of connection points: 2
#     Edge 26, Type (0, 0), BuildingBlock: UVAHIK_clean_linker_0, # of connection points: 2
#     Edge 27, Type (0, 0), BuildingBlock: UVAHIK_clean_linker_0, # of connection points: 2
#     Edge 28, Type (0, 0), BuildingBlock: UVAHIK_clean_linker_0, # of connection points: 2
#     Edge 29, Type (0, 0), BuildingBlock: UVAHIK_clean_linker_0, # of connection points: 2
#     Edge 30, Type (0, 0), BuildingBlock: UVAHIK_clean_linker_0, # of connection points: 2
#     Edge 31, Type (0, 0), BuildingBlock: UVAHIK_clean_linker_0, # of connection points: 2
#     Edge 32, Type (0, 0), BuildingBlock: UVAHIK_clean_linker_0, # of connection points: 2
#     Edge 33, Type (0, 0), BuildingBlock: UVAHIK_clean_linker_0, # of connection points: 2
#     Edge 34, Type (0, 0), BuildingBlock: UVAHIK_clean_linker_0, # of connection points: 2
#     Edge 35, Type (0, 0), BuildingBlock: UVAHIK_clean_linker_0, # of connection points: 2
#     Edge 36, Type (0, 0), BuildingBlock: UVAHIK_clean_linker_0, # of connection points: 2
#     Edge 37, Type (0, 0), BuildingBlock: UVAHIK_clean_linker_0, # of connection points: 2
#     Edge 38, Type (0, 0), BuildingBlock: UVAHIK_clean_linker_0, # of connection points: 2
#     Edge 39, Type (0, 0), BuildingBlock: UVAHIK_clean_linker_0, # of connection points: 2
# Relax obj value: 0.004
# Max RMSD: 0.005
# Mean RMSD: 0.005
data_MOF--net-bcu-f--node1-WUSLED_clean_sbu_0--edge1-UVAHIK_clean_linker_0
_symmetry_space_group_name_H-M    P1
_symmetry_Int_Tables_number       1
_symmetry_cell_setting            triclinic
loop_
_symmetry_equiv_pos_as_xyz
'x, y, z'
_cell_length_a     93.821737
_cell_length_b     94.246549
_cell_length_c     76.167655
_cell_angle_alpha  90.105781
_cell_angle_beta   90.067623
_cell_angle_gamma 90.115169
loop_
_atom_site_label
_atom_site_type_symbol
_atom_site_fract_x
_atom_site_fract_y
_atom_site_fract_z
_atom_type_partial_charge
C0 C 0.3415 0.13591 0.14358 0.0
C1 C 0.33588 0.14846 0.15064 0.0
C2 C 0.3489 0.14453 0.17792 0.0
C3 C 0.33953 0.15273 0.16767 0.0
C4 C 0.35461 0.13202 0.17064 0.0
C5 C 0.35092 0.12776 0.15363 0.0
U6 U 0.3235 0.14261 0.09964 0.0
O7 O 0.32993 0.13671 0.07284 0.0
O8 O 0.30976 0.12875 0.08363 0.0
C9 C 0.31888 0.1283 0.07056 0.0
C10 C 0.33748 0.13115 0.12587 0.0
C11 C 0.32205 0.11406 0.06375 0.0
C12 C 0.33308 0.09087 0.06664 0.0
C13 C 0.33046 0.10449 0.07328 0.0
C14 C 0.31893 0.09635 0.0409 0.0
C15 C 0.32731 0.08663 0.05036 0.0
C16 C 0.31634 0.10993 0.04754 0.0
C17 C 0.30537 0.17797 0.091 0.0
C18 C 0.29025 0.1816 0.06549 0.0
C19 C 0.29611 0.20142 0.08451 0.0
C20 C 0.30423 0.19242 0.0951 0.0
C21 C 0.28894 0.1961 0.06964 0.0
C22 C 0.29843 0.17262 0.07605 0.0
C23 C 0.31368 0.16857 0.10246 0.0
O24 O 0.32373 0.12933 0.12332 0.0
O25 O 0.3438 0.13782 0.11288 0.0
O26 O 0.32664 0.16567 0.09702 0.0
O27 O 0.3068 0.15736 0.10828 0.0
H28 H 0.32858 0.15489 0.14304 0.0
H29 H 0.33481 0.16232 0.17291 0.0
H30 H 0.36202 0.12557 0.17803 0.0
H31 H 0.3554 0.11807 0.14834 0.0
H32 H 0.33969 0.08371 0.07418 0.0
H33 H 0.33495 0.10753 0.08585 0.0
H34 H 0.31411 0.09339 0.02849 0.0
H35 H 0.30976 0.11717 0.04007 0.0
H36 H 0.28502 0.17721 0.05402 0.0
H37 H 0.2952 0.2125 0.08816 0.0
H38 H 0.30953 0.19671 0.1066 0.0
H39 H 0.29929 0.16149 0.07263 0.0
C40 C 0.8966 0.33931 0.14457 0.0
C41 C 0.88213 0.33887 0.14915 0.0
C42 C 0.88789 0.347 0.17874 0.0
C43 C 0.8778 0.34271 0.16608 0.0
C44 C 0.9024 0.34732 0.17404 0.0
C45 C 0.90669 0.34352 0.1571 0.0
U46 U 0.8897 0.32166 0.10036 0.0
O47 O 0.8958 0.32833 0.07368 0.0
O48 O 0.90344 0.30805 0.08422 0.0
C49 C 0.90416 0.31732 0.07137 0.0
C50 C 0.90133 0.33525 0.12687 0.0
C51 C 0.91853 0.32045 0.06465 0.0
C52 C 0.94403 0.32348 0.06902 0.0
C53 C 0.93038 0.32125 0.07589 0.0
C54 C 0.93407 0.3246 0.0397 0.0
C55 C 0.94607 0.32503 0.0508 0.0
C56 C 0.92046 0.32229 0.04657 0.0
C57 C 0.85405 0.30389 0.09115 0.0
C58 C 0.8505 0.28882 0.06561 0.0
C59 C 0.83053 0.29453 0.08448 0.0
C60 C 0.83953 0.30268 0.09515 0.0
C61 C 0.83593 0.2874 0.06967 0.0
C62 C 0.85947 0.29703 0.07623 0.0
C63 C 0.8635 0.31206 0.1028 0.0
O64 O 0.90288 0.32155 0.12428 0.0
O65 O 0.89482 0.34168 0.11383 0.0
O66 O 0.86657 0.32498 0.09753 0.0
O67 O 0.87465 0.30511 0.10868 0.0
H68 H 0.87419 0.33559 0.13963 0.0
H69 H 0.86654 0.3425 0.16916 0.0
H70 H 0.91048 0.35033 0.18351 0.0
H71 H 0.91792 0.34382 0.15381 0.0
H72 H 0.95302 0.32362 0.07795 0.0
H73 H 0.92911 0.31991 0.08993 0.0
H74 H 0.93518 0.32602 0.02567 0.0
H75 H 0.91142 0.32181 0.03771 0.0
H76 H 0.85494 0.28362 0.05417 0.0
H77 H 0.8194 0.29355 0.08806 0.0
H78 H 0.83519 0.30791 0.10663 0.0
H79 H 0.87066 0.29793 0.0729 0.0
C80 C 0.69344 0.89481 0.14386 0.0
C81 C 0.6937 0.88042 0.14853 0.0
C82 C 0.68564 0.88634 0.17807 0.0
C83 C 0.6898 0.87621 0.16547 0.0
C84 C 0.68544 0.90076 0.17326 0.0
C85 C 0.6893 0.90494 0.15631 0.0
U86 U 0.7114 0.88751 0.1 0.0
O87 O 0.70537 0.89378 0.0732 0.0
O88 O 0.72577 0.90089 0.08432 0.0
C89 C 0.71677 0.90174 0.07114 0.0
C90 C 0.69778 0.89942 0.12623 0.0
C91 C 0.71427 0.91609 0.06433 0.0
C92 C 0.70388 0.93961 0.06683 0.0
C93 C 0.70581 0.92589 0.07346 0.0
C94 C 0.71881 0.93378 0.04191 0.0
C95 C 0.71046 0.94374 0.05103 0.0
C96 C 0.72069 0.9201 0.04851 0.0
C97 C 0.72842 0.85172 0.09103 0.0
C98 C 0.74341 0.84804 0.06546 0.0
C99 C 0.7377 0.82827 0.08451 0.0
C100 C 0.7296 0.83729 0.09514 0.0
C101 C 0.7448 0.83356 0.06963 0.0
C102 C 0.73526 0.85703 0.07604 0.0
C103 C 0.72029 0.86121 0.10259 0.0
O104 O 0.7116 0.90066 0.1239 0.0
O105 O 0.69128 0.89309 0.11306 0.0
O106 O 0.70747 0.86458 0.09703 0.0
O107 O 0.72748 0.87214 0.10873 0.0
H108 H 0.69693 0.87245 0.13907 0.0
H109 H 0.68991 0.86502 0.16863 0.0
H110 H 0.68254 0.90887 0.18268 0.0
H111 H 0.68915 0.9161 0.15296 0.0
H112 H 0.69749 0.94707 0.07424 0.0
H113 H 0.70081 0.92296 0.08576 0.0
H114 H 0.72385 0.93654 0.02959 0.0
H115 H 0.72722 0.91264 0.04127 0.0
H116 H 0.74859 0.8524 0.05396 0.0
H117 H 0.73867 0.81721 0.08817 0.0
H118 H 0.72439 0.83304 0.10668 0.0
H119 H 0.73439 0.86815 0.07263 0.0
C120 C 0.13864 0.6922 0.14548 0.0
C121 C 0.15309 0.6926 0.15027 0.0
C122 C 0.14709 0.6845 0.17975 0.0
C123 C 0.15728 0.68875 0.16724 0.0
C124 C 0.13261 0.68425 0.17485 0.0
C125 C 0.12845 0.68805 0.15787 0.0
U126 U 0.1458 0.70953 0.10117 0.0
O127 O 0.13975 0.70263 0.07452 0.0
O128 O 0.13212 0.72302 0.08482 0.0
C129 C 0.13141 0.71364 0.07206 0.0
C130 C 0.13405 0.69619 0.12771 0.0
C131 C 0.11704 0.71047 0.0653 0.0
C132 C 0.09155 0.70735 0.06965 0.0
C133 C 0.10521 0.70961 0.07653 0.0
C134 C 0.10146 0.70633 0.04032 0.0
C135 C 0.08949 0.70585 0.05142 0.0
C136 C 0.11508 0.70866 0.04721 0.0
C137 C 0.18146 0.72713 0.09194 0.0
C138 C 0.18534 0.74038 0.06504 0.0
C139 C 0.20452 0.73785 0.08614 0.0
C140 C 0.19556 0.72985 0.09697 0.0
C141 C 0.19949 0.74329 0.07009 0.0
C142 C 0.17641 0.73235 0.07587 0.0
C143 C 0.17201 0.71912 0.10368 0.0
O144 O 0.13257 0.70988 0.12502 0.0
O145 O 0.14059 0.68964 0.11478 0.0
O146 O 0.16891 0.70614 0.09858 0.0
O147 O 0.16085 0.72616 0.10938 0.0
H148 H 0.16111 0.69583 0.14086 0.0
H149 H 0.16852 0.68892 0.17048 0.0
H150 H 0.12445 0.68127 0.18419 0.0
H151 H 0.11724 0.68778 0.15442 0.0
H152 H 0.08258 0.70716 0.07857 0.0
H153 H 0.10651 0.71091 0.09058 0.0
H154 H 0.10033 0.70495 0.02627 0.0
H155 H 0.1241 0.70919 0.03835 0.0
H156 H 0.18119 0.74425 0.05268 0.0
H157 H 0.2153 0.74002 0.0905 0.0
H158 H 0.19961 0.72592 0.10937 0.0
H159 H 0.16553 0.73029 0.07177 0.0
C160 C 0.34122 0.89473 0.89035 0.0
C161 C 0.34074 0.88037 0.88553 0.0
C162 C 0.34886 0.88633 0.85604 0.0
C163 C 0.34456 0.87619 0.86854 0.0
C164 C 0.34927 0.90072 0.861 0.0
C165 C 0.34549 0.90487 0.878 0.0
U166 U 0.32338 0.88755 0.93434 0.0
O167 O 0.3297 0.89367 0.96111 0.0
O168 O 0.3094 0.90116 0.95025 0.0
C169 C 0.31856 0.90192 0.96328 0.0
C170 C 0.33702 0.89933 0.90805 0.0
C171 C 0.32157 0.91629 0.96982 0.0
C172 C 0.33383 0.93896 0.96759 0.0
C173 C 0.33127 0.92524 0.96122 0.0
C174 C 0.31698 0.9349 0.99114 0.0
C175 C 0.3267 0.94397 0.98263 0.0
C176 C 0.31447 0.9212 0.9848 0.0
C177 C 0.30598 0.85173 0.943 0.0
C178 C 0.29154 0.84757 0.96895 0.0
C179 C 0.29631 0.82828 0.94872 0.0
C180 C 0.30435 0.83746 0.93825 0.0
C181 C 0.28971 0.83324 0.96415 0.0
C182 C 0.29962 0.85672 0.95848 0.0
C183 C 0.31409 0.86135 0.93159 0.0
O184 O 0.32323 0.9007 0.91051 0.0
O185 O 0.3435 0.8929 0.92112 0.0
O186 O 0.32699 0.86457 0.93705 0.0
O187 O 0.30696 0.87238 0.92577 0.0
H188 H 0.33741 0.87239 0.89491 0.0
H189 H 0.34428 0.86501 0.86525 0.0
H190 H 0.35229 0.90884 0.85167 0.0
H191 H 0.34581 0.91602 0.88148 0.0
H192 H 0.34148 0.94559 0.96081 0.0
H193 H 0.33684 0.92161 0.9496 0.0
H194 H 0.3111 0.93846 1.00254 0.0
H195 H 0.30688 0.91445 0.99153 0.0
H196 H 0.28649 0.85179 0.98061 0.0
H197 H 0.29532 0.81728 0.94477 0.0
H198 H 0.30925 0.83343 0.92637 0.0
H199 H 0.30077 0.86774 0.96234 0.0
C200 C 0.13924 0.33903 0.88933 0.0
C201 C 0.15372 0.33865 0.88476 0.0
C202 C 0.14798 0.34679 0.85521 0.0
C203 C 0.15806 0.34253 0.86786 0.0
C204 C 0.13347 0.34705 0.8599 0.0
C205 C 0.12917 0.34321 0.8768 0.0
U206 U 0.14584 0.32139 0.93361 0.0
O207 O 0.13945 0.32805 0.96019 0.0
O208 O 0.13186 0.30777 0.94944 0.0
C209 C 0.13102 0.31704 0.96232 0.0
C210 C 0.13447 0.33493 0.90698 0.0
C211 C 0.11654 0.32023 0.9685 0.0
C212 C 0.09179 0.32624 0.9628 0.0
C213 C 0.10563 0.32379 0.95669 0.0
C214 C 0.09972 0.32196 0.99261 0.0
C215 C 0.08866 0.32527 0.98083 0.0
C216 C 0.11353 0.31945 0.98648 0.0
C217 C 0.18131 0.30366 0.94338 0.0
C218 C 0.18449 0.28862 0.96895 0.0
C219 C 0.20473 0.29437 0.95053 0.0
C220 C 0.19588 0.30249 0.9397 0.0
C221 C 0.19911 0.28725 0.9652 0.0
C222 C 0.17568 0.29679 0.95816 0.0
C223 C 0.17203 0.31181 0.93158 0.0
O224 O 0.1329 0.32123 0.90949 0.0
O225 O 0.14092 0.34139 0.9201 0.0
O226 O 0.16894 0.32474 0.93683 0.0
O227 O 0.16093 0.30485 0.92548 0.0
H228 H 0.16166 0.3354 0.89427 0.0
H229 H 0.16932 0.34236 0.86478 0.0
H230 H 0.1254 0.35003 0.85044 0.0
H231 H 0.11793 0.34346 0.88008 0.0
H232 H 0.08354 0.32893 0.95342 0.0
H233 H 0.1078 0.32454 0.94275 0.0
H234 H 0.09764 0.32096 1.00654 0.0
H235 H 0.12183 0.31671 0.99577 0.0
H236 H 0.17988 0.28342 0.98028 0.0
H237 H 0.21591 0.29343 0.94719 0.0
H238 H 0.20039 0.30772 0.92833 0.0
H239 H 0.16444 0.29765 0.96126 0.0
C240 C 0.69249 0.13629 0.89098 0.0
C241 C 0.69808 0.14892 0.88411 0.0
C242 C 0.68508 0.14508 0.85677 0.0
C243 C 0.69443 0.15327 0.86714 0.0
C244 C 0.67939 0.1325 0.86387 0.0
C245 C 0.68308 0.12815 0.88082 0.0
U246 U 0.71054 0.14277 0.935 0.0
O247 O 0.70421 0.13656 0.96171 0.0
O248 O 0.72439 0.12889 0.9507 0.0
C249 C 0.7153 0.12821 0.96377 0.0
C250 C 0.69655 0.13142 0.90861 0.0
C251 C 0.71224 0.11387 0.97031 0.0
C252 C 0.70023 0.09108 0.96782 0.0
C253 C 0.70272 0.10481 0.96151 0.0
C254 C 0.71674 0.0954 0.99174 0.0
C255 C 0.70724 0.08619 0.98301 0.0
C256 C 0.71919 0.1091 0.98545 0.0
C257 C 0.72861 0.17817 0.94417 0.0
C258 C 0.74383 0.18165 0.96964 0.0
C259 C 0.73789 0.2016 0.95101 0.0
C260 C 0.72973 0.19265 0.9403 0.0
C261 C 0.74512 0.19619 0.96573 0.0
C262 C 0.73561 0.17272 0.95898 0.0
C263 C 0.72028 0.16881 0.93259 0.0
O264 O 0.7103 0.12968 0.9111 0.0
O265 O 0.69023 0.13795 0.92173 0.0
O266 O 0.70734 0.16578 0.93805 0.0
O267 O 0.72716 0.1577 0.92653 0.0
H268 H 0.70538 0.15534 0.89181 0.0
H269 H 0.69914 0.16292 0.86204 0.0
H270 H 0.67199 0.12606 0.85638 0.0
H271 H 0.67862 0.1184 0.88597 0.0
H272 H 0.69276 0.08433 0.96087 0.0
H273 H 0.69728 0.10834 0.94975 0.0
H274 H 0.72253 0.09193 1.00326 0.0
H275 H 0.72663 0.11593 0.99233 0.0
H276 H 0.74912 0.17719 0.98101 0.0
H277 H 0.73877 0.21271 0.94755 0.0
H278 H 0.72438 0.19701 0.92892 0.0
H279 H 0.73478 0.16156 0.96222 0.0
C280 C 0.89609 0.69179 0.89 0.0
C281 C 0.88161 0.69221 0.88542 0.0
C282 C 0.8873 0.68415 0.8558 0.0
C283 C 0.87724 0.68839 0.86848 0.0
C284 C 0.90182 0.68386 0.86051 0.0
C285 C 0.90615 0.68763 0.87745 0.0
U286 U 0.88942 0.70915 0.93447 0.0
O287 O 0.89589 0.70242 0.96098 0.0
O288 O 0.90328 0.72282 0.95049 0.0
C289 C 0.90423 0.7135 0.96325 0.0
C290 C 0.90088 0.69583 0.9077 0.0
C291 C 0.91875 0.71039 0.96939 0.0
C292 C 0.94352 0.70452 0.9636 0.0
C293 C 0.92964 0.70692 0.95753 0.0
C294 C 0.93564 0.70869 0.99346 0.0
C295 C 0.94669 0.70547 0.98164 0.0
C296 C 0.92181 0.71115 0.98736 0.0
C297 C 0.85372 0.7265 0.94425 0.0
C298 C 0.85028 0.74157 0.9698 0.0
C299 C 0.83016 0.73548 0.95125 0.0
C300 C 0.83914 0.72745 0.94048 0.0
C301 C 0.83565 0.74274 0.96595 0.0
C302 C 0.85923 0.73348 0.95907 0.0
C303 C 0.86313 0.71848 0.93246 0.0
O304 O 0.90234 0.70954 0.91038 0.0
O305 O 0.89452 0.68926 0.92074 0.0
O306 O 0.86635 0.70557 0.93761 0.0
O307 O 0.87418 0.72558 0.92649 0.0
H308 H 0.87369 0.69545 0.89496 0.0
H309 H 0.86598 0.68859 0.86539 0.0
H310 H 0.90987 0.68089 0.85103 0.0
H311 H 0.91739 0.68736 0.88075 0.0
H312 H 0.95175 0.7019 0.95419 0.0
H313 H 0.92744 0.70619 0.94359 0.0
H314 H 0.93775 0.70966 1.00739 0.0
H315 H 0.91352 0.71382 0.99669 0.0
H316 H 0.85479 0.74688 0.98115 0.0
H317 H 0.81898 0.73627 0.94783 0.0
H318 H 0.83473 0.72213 0.92908 0.0
H319 H 0.87047 0.73279 0.96223 0.0
C320 C 0.83984 0.63593 0.64473 0.0
C321 C 0.83951 0.65033 0.64945 0.0
C322 C 0.84729 0.64442 0.67911 0.0
C323 C 0.84323 0.65454 0.66648 0.0
C324 C 0.84749 0.62999 0.67427 0.0
C325 C 0.84381 0.62581 0.65724 0.0
U326 U 0.82288 0.64285 0.60004 0.0
O327 O 0.82994 0.6365 0.5736 0.0
O328 O 0.80932 0.62913 0.58369 0.0
C329 C 0.81884 0.6282 0.5711 0.0
C330 C 0.83594 0.6313 0.62693 0.0
C331 C 0.82204 0.61375 0.56501 0.0
C332 C 0.82796 0.58913 0.57092 0.0
C333 C 0.8255 0.60295 0.57693 0.0
C334 C 0.82387 0.59686 0.54102 0.0
C335 C 0.82708 0.58591 0.5529 0.0
C336 C 0.82136 0.61065 0.54704 0.0
C337 C 0.80562 0.67845 0.59024 0.0
C338 C 0.79232 0.68232 0.56329 0.0
C339 C 0.79526 0.70152 0.5842 0.0
C340 C 0.80315 0.69256 0.59512 0.0
C341 C 0.78967 0.69648 0.5682 0.0
C342 C 0.80024 0.67339 0.57421 0.0
C343 C 0.81349 0.66902 0.60211 0.0
O344 O 0.8222 0.62989 0.62403 0.0
O345 O 0.8427 0.63769 0.61405 0.0
O346 O 0.82652 0.66582 0.59718 0.0
O347 O 0.80626 0.658 0.6078 0.0
H348 H 0.83642 0.65829 0.63995 0.0
H349 H 0.84311 0.66574 0.66968 0.0
H350 H 0.85031 0.62189 0.68371 0.0
H351 H 0.84402 0.61464 0.65384 0.0
H352 H 0.83058 0.58096 0.58038 0.0
H353 H 0.82617 0.60519 0.59086 0.0
H354 H 0.82295 0.59471 0.52709 0.0
H355 H 0.81869 0.61887 0.53767 0.0
H356 H 0.78832 0.67816 0.55096 0.0
H357 H 0.79328 0.7123 0.58847 0.0
H358 H 0.8072 0.69662 0.60749 0.0
H359 H 0.8021 0.6625 0.57022 0.0
C360 C 0.39682 0.83906 0.645 0.0
C361 C 0.38234 0.83881 0.64957 0.0
C362 C 0.38819 0.84678 0.67921 0.0
C363 C 0.37805 0.84267 0.66651 0.0
C364 C 0.4027 0.84691 0.67452 0.0
C365 C 0.40696 0.8431 0.65757 0.0
U366 U 0.38996 0.8216 0.60059 0.0
O367 O 0.39642 0.82826 0.57405 0.0
O368 O 0.40374 0.80788 0.58462 0.0
C369 C 0.40471 0.81718 0.57183 0.0
C370 C 0.40154 0.83498 0.62731 0.0
C371 C 0.41923 0.82026 0.56567 0.0
C372 C 0.44407 0.82596 0.57143 0.0
C373 C 0.4302 0.8236 0.57752 0.0
C374 C 0.43604 0.822 0.54156 0.0
C375 C 0.44717 0.82509 0.55337 0.0
C376 C 0.42221 0.81958 0.54768 0.0
C377 C 0.35417 0.80422 0.59088 0.0
C378 C 0.35061 0.78906 0.56542 0.0
C379 C 0.33055 0.79524 0.58392 0.0
C380 C 0.33959 0.8033 0.59464 0.0
C381 C 0.33598 0.78792 0.56927 0.0
C382 C 0.35962 0.79717 0.5761 0.0
C383 C 0.36364 0.81227 0.60263 0.0
O384 O 0.40293 0.82127 0.62468 0.0
O385 O 0.39517 0.84152 0.61425 0.0
O386 O 0.3669 0.82517 0.59743 0.0
O387 O 0.37467 0.80519 0.60863 0.0
H388 H 0.37436 0.83567 0.64002 0.0
H389 H 0.36679 0.8426 0.66959 0.0
H390 H 0.41082 0.84977 0.68401 0.0
H391 H 0.4182 0.84325 0.65429 0.0
H392 H 0.45237 0.82848 0.58083 0.0
H393 H 0.42806 0.82426 0.59148 0.0
H394 H 0.43809 0.82109 0.52762 0.0
H395 H 0.41386 0.81701 0.53836 0.0
H396 H 0.35508 0.7837 0.5541 0.0
H397 H 0.31938 0.79447 0.58733 0.0
H398 H 0.33522 0.80867 0.60601 0.0
H399 H 0.37086 0.79785 0.57294 0.0
C400 C 0.19472 0.39466 0.64411 0.0
C401 C 0.1951 0.38031 0.64892 0.0
C402 C 0.18737 0.38641 0.67855 0.0
C403 C 0.19142 0.37621 0.66598 0.0
C404 C 0.1871 0.4008 0.67361 0.0
C405 C 0.19073 0.40487 0.65654 0.0
U406 U 0.21182 0.38718 0.59975 0.0
O407 O 0.20497 0.39316 0.5731 0.0
O408 O 0.22559 0.40053 0.58332 0.0
C409 C 0.2162 0.40124 0.57052 0.0
C410 C 0.19866 0.39916 0.62629 0.0
C411 C 0.21334 0.41554 0.5637 0.0
C412 C 0.20848 0.4406 0.56824 0.0
C413 C 0.2103 0.42691 0.575 0.0
C414 C 0.21228 0.43155 0.53882 0.0
C415 C 0.20964 0.44311 0.55007 0.0
C416 C 0.21414 0.41791 0.54559 0.0
C417 C 0.22909 0.3515 0.59075 0.0
C418 C 0.24235 0.34739 0.56385 0.0
C419 C 0.23985 0.32852 0.58521 0.0
C420 C 0.23183 0.33752 0.59595 0.0
C421 C 0.2453 0.33338 0.56909 0.0
C422 C 0.2343 0.35636 0.57459 0.0
C423 C 0.22112 0.36103 0.60242 0.0
O424 O 0.21241 0.40052 0.62349 0.0
O425 O 0.19194 0.39264 0.61343 0.0
O426 O 0.20813 0.36418 0.59728 0.0
O427 O 0.22833 0.37211 0.60807 0.0
H428 H 0.1982 0.37228 0.63948 0.0
H429 H 0.19159 0.36503 0.66925 0.0
H430 H 0.18428 0.40896 0.68299 0.0
H431 H 0.19049 0.41601 0.65307 0.0
H432 H 0.20658 0.44926 0.57729 0.0
H433 H 0.20962 0.42525 0.58904 0.0
H434 H 0.21299 0.43305 0.52475 0.0
H435 H 0.21639 0.40923 0.53667 0.0
H436 H 0.24622 0.3514 0.55142 0.0
H437 H 0.24206 0.31785 0.58972 0.0
H438 H 0.22791 0.33362 0.60843 0.0
H439 H 0.23223 0.36714 0.57035 0.0
C440 C 0.63814 0.19237 0.64547 0.0
C441 C 0.65073 0.198 0.65261 0.0
C442 C 0.64647 0.18527 0.67996 0.0
C443 C 0.65485 0.19449 0.66972 0.0
C444 C 0.63391 0.1796 0.67262 0.0
C445 C 0.62979 0.18313 0.65553 0.0
U446 U 0.64536 0.20946 0.6011 0.0
O447 O 0.63973 0.20218 0.57444 0.0
O448 O 0.63164 0.22253 0.58431 0.0
C449 C 0.6312 0.213 0.57169 0.0
C450 C 0.63361 0.19604 0.62757 0.0
C451 C 0.61693 0.20952 0.56487 0.0
C452 C 0.59146 0.20614 0.56911 0.0
C453 C 0.60508 0.20856 0.57605 0.0
C454 C 0.60148 0.2051 0.53984 0.0
C455 C 0.58947 0.20455 0.55088 0.0
C456 C 0.61506 0.2076 0.54678 0.0
C457 C 0.6809 0.22774 0.59255 0.0
C458 C 0.68742 0.23656 0.5637 0.0
C459 C 0.70154 0.24305 0.58915 0.0
C460 C 0.69252 0.23501 0.59983 0.0
C461 C 0.6991 0.24396 0.57094 0.0
C462 C 0.67838 0.22856 0.57443 0.0
C463 C 0.6713 0.21967 0.60407 0.0
O464 O 0.63179 0.20965 0.62461 0.0
O465 O 0.6405 0.18953 0.6149 0.0
O466 O 0.66856 0.20656 0.59912 0.0
O467 O 0.65991 0.22656 0.60931 0.0
H468 H 0.65731 0.20515 0.64499 0.0
H469 H 0.6645 0.19918 0.67501 0.0
H470 H 0.62732 0.17229 0.68 0.0
H471 H 0.62008 0.17863 0.65016 0.0
H472 H 0.58247 0.20592 0.578 0.0
H473 H 0.60631 0.20996 0.59009 0.0
H474 H 0.6004 0.20365 0.5258 0.0
H475 H 0.62409 0.20821 0.53797 0.0
H476 H 0.68532 0.23687 0.54973 0.0
H477 H 0.71026 0.24878 0.59523 0.0
H478 H 0.69455 0.23457 0.61383 0.0
H479 H 0.6694 0.22305 0.56859 0.0
C480 C 0.8399 0.39509 0.38949 0.0
C481 C 0.83949 0.38073 0.38461 0.0
C482 C 0.84733 0.38684 0.35505 0.0
C483 C 0.84321 0.37663 0.36755 0.0
C484 C 0.84759 0.40123 0.36005 0.0
C485 C 0.84392 0.4053 0.37711 0.0
U486 U 0.82294 0.38765 0.43395 0.0
O487 O 0.83015 0.39345 0.46058 0.0
O488 O 0.80956 0.40112 0.45072 0.0
C489 C 0.81913 0.40175 0.46332 0.0
C490 C 0.83607 0.39957 0.40737 0.0
C491 C 0.82239 0.41603 0.47009 0.0
C492 C 0.82569 0.44137 0.46571 0.0
C493 C 0.82339 0.42777 0.45884 0.0
C494 C 0.8265 0.43156 0.49507 0.0
C495 C 0.82711 0.44346 0.48395 0.0
C496 C 0.82413 0.418 0.4882 0.0
C497 C 0.8053 0.35196 0.44269 0.0
C498 C 0.79648 0.34547 0.47157 0.0
C499 C 0.79016 0.33124 0.4462 0.0
C500 C 0.79815 0.34027 0.43547 0.0
C501 C 0.78918 0.33375 0.46439 0.0
C502 C 0.80443 0.35453 0.46081 0.0
C503 C 0.81322 0.36162 0.43112 0.0
O504 O 0.82235 0.40103 0.4103 0.0
O505 O 0.84279 0.39297 0.42012 0.0
O506 O 0.82633 0.36463 0.43601 0.0
O507 O 0.80606 0.37279 0.42584 0.0
H508 H 0.83636 0.3727 0.39402 0.0
H509 H 0.84304 0.36545 0.36425 0.0
H510 H 0.85046 0.40939 0.35071 0.0
H511 H 0.84419 0.41644 0.38064 0.0
H512 H 0.82597 0.45028 0.45676 0.0
H513 H 0.82214 0.42646 0.44479 0.0
H514 H 0.82782 0.43271 0.50913 0.0
H515 H 0.82349 0.40904 0.49707 0.0
H516 H 0.79612 0.34763 0.48554 0.0
H517 H 0.7845 0.32247 0.44016 0.0
H518 H 0.79862 0.3382 0.42149 0.0
H519 H 0.80984 0.36356 0.4666 0.0
C520 C 0.63828 0.83849 0.38899 0.0
C521 C 0.6527 0.83813 0.38416 0.0
C522 C 0.6466 0.84624 0.35471 0.0
C523 C 0.65683 0.842 0.36718 0.0
C524 C 0.63214 0.84648 0.35966 0.0
C525 C 0.62804 0.84265 0.37665 0.0
U526 U 0.64567 0.82096 0.43307 0.0
O527 O 0.63984 0.82767 0.45984 0.0
O528 O 0.63211 0.80732 0.44941 0.0
C529 C 0.63149 0.81663 0.46227 0.0
C530 C 0.63376 0.83442 0.40676 0.0
C531 C 0.61717 0.81973 0.46912 0.0
C532 C 0.59169 0.82298 0.46489 0.0
C533 C 0.60531 0.82074 0.45794 0.0
C534 C 0.60172 0.82367 0.49421 0.0
C535 C 0.5897 0.82432 0.48315 0.0
C536 C 0.61529 0.82136 0.48725 0.0
C537 C 0.68153 0.80344 0.44157 0.0
C538 C 0.68574 0.78914 0.46756 0.0
C539 C 0.70499 0.7936 0.44711 0.0
C540 C 0.6958 0.80166 0.43669 0.0
C541 C 0.70005 0.78714 0.46262 0.0
C542 C 0.67656 0.79723 0.45713 0.0
C543 C 0.67186 0.8115 0.43016 0.0
O544 O 0.63226 0.82072 0.40935 0.0
O545 O 0.64038 0.84092 0.4197 0.0
O546 O 0.66882 0.82441 0.43551 0.0
O547 O 0.66065 0.80445 0.42454 0.0
H548 H 0.66075 0.8349 0.39353 0.0
H549 H 0.66806 0.84185 0.3639 0.0
H550 H 0.62395 0.84944 0.35034 0.0
H551 H 0.61685 0.84289 0.38014 0.0
H552 H 0.58269 0.82329 0.45599 0.0
H553 H 0.60655 0.81958 0.44387 0.0
H554 H 0.60064 0.82493 0.50828 0.0
H555 H 0.62434 0.82072 0.49607 0.0
H556 H 0.68152 0.78419 0.47929 0.0
H557 H 0.71599 0.79248 0.44306 0.0
H558 H 0.69981 0.80644 0.42474 0.0
H559 H 0.66554 0.7985 0.46109 0.0
C560 C 0.19357 0.63573 0.3907 0.0
C561 C 0.19394 0.65012 0.38603 0.0
C562 C 0.18608 0.64419 0.35638 0.0
C563 C 0.1902 0.65432 0.36903 0.0
C564 C 0.1858 0.62977 0.36118 0.0
C565 C 0.1895 0.6256 0.37819 0.0
U566 U 0.21097 0.64299 0.435 0.0
O567 O 0.20436 0.63676 0.46165 0.0
O568 O 0.22492 0.62961 0.45114 0.0
C569 C 0.21565 0.62875 0.46403 0.0
C570 C 0.19763 0.63113 0.40844 0.0
C571 C 0.2129 0.61438 0.47074 0.0
C572 C 0.20805 0.58932 0.46603 0.0
C573 C 0.20978 0.60306 0.45937 0.0
C574 C 0.21212 0.59822 0.49548 0.0
C575 C 0.2094 0.58671 0.48416 0.0
C576 C 0.21388 0.61191 0.48882 0.0
C577 C 0.22821 0.67873 0.44429 0.0
C578 C 0.24309 0.68242 0.47002 0.0
C579 C 0.23756 0.70219 0.45089 0.0
C580 C 0.22947 0.69316 0.44019 0.0
C581 C 0.24457 0.69689 0.46585 0.0
C582 C 0.23495 0.67343 0.45935 0.0
C583 C 0.22015 0.66924 0.43259 0.0
O584 O 0.21141 0.62983 0.41112 0.0
O585 O 0.19099 0.63752 0.42143 0.0
O586 O 0.20722 0.66595 0.43785 0.0
O587 O 0.22732 0.65826 0.42667 0.0
H588 H 0.19711 0.6581 0.39554 0.0
H589 H 0.19038 0.66552 0.36587 0.0
H590 H 0.18292 0.62166 0.35173 0.0
H591 H 0.18926 0.61444 0.38155 0.0
H592 H 0.20608 0.5807 0.45693 0.0
H593 H 0.20896 0.6048 0.44535 0.0
H594 H 0.21297 0.59664 0.50953 0.0
H595 H 0.2162 0.62055 0.49778 0.0
H596 H 0.24819 0.67806 0.48157 0.0
H597 H 0.23859 0.71324 0.44723 0.0
H598 H 0.22434 0.69742 0.42858 0.0
H599 H 0.23401 0.66231 0.46276 0.0
C600 C 0.3965 0.1914 0.38942 0.0
C601 C 0.38384 0.19689 0.3824 0.0
C602 C 0.38797 0.18411 0.35502 0.0
C603 C 0.37961 0.1933 0.36534 0.0
C604 C 0.40059 0.17854 0.36226 0.0
C605 C 0.40481 0.18217 0.3793 0.0
U606 U 0.38971 0.20886 0.43374 0.0
O607 O 0.39583 0.20204 0.46035 0.0
O608 O 0.40357 0.22235 0.44999 0.0
C609 C 0.40431 0.213 0.46273 0.0
C610 C 0.40122 0.1953 0.4072 0.0
C611 C 0.41876 0.20969 0.46896 0.0
C612 C 0.44346 0.20351 0.46327 0.0
C613 C 0.42962 0.20602 0.45716 0.0
C614 C 0.43561 0.20796 0.49308 0.0
C615 C 0.44663 0.20455 0.4813 0.0
C616 C 0.4218 0.21053 0.48694 0.0
C617 C 0.35401 0.22668 0.44266 0.0
C618 C 0.34998 0.24124 0.46853 0.0
C619 C 0.33049 0.23627 0.44852 0.0
C620 C 0.33965 0.22821 0.43803 0.0
C621 C 0.33557 0.24298 0.46383 0.0
C622 C 0.35912 0.23314 0.45804 0.0
C623 C 0.36358 0.21856 0.43119 0.0
O624 O 0.40295 0.20896 0.40996 0.0
O625 O 0.39455 0.18884 0.42008 0.0
O626 O 0.36656 0.20562 0.43645 0.0
O627 O 0.37481 0.22553 0.42552 0.0
H628 H 0.37729 0.20404 0.39008 0.0
H629 H 0.36993 0.1979 0.36014 0.0
H630 H 0.40716 0.17127 0.35481 0.0
H631 H 0.41459 0.17779 0.38456 0.0
H632 H 0.45167 0.20074 0.4539 0.0
H633 H 0.42742 0.20523 0.44322 0.0
H634 H 0.43773 0.20901 0.507 0.0
H635 H 0.41354 0.21336 0.49623 0.0
H636 H 0.35429 0.24638 0.48011 0.0
H637 H 0.31942 0.23718 0.44466 0.0
H638 H 0.33552 0.22322 0.42623 0.0
H639 H 0.3702 0.23205 0.4618 0.0
C640 C 0.32956 0.96143 1.00742 0.0
C641 C 0.32909 0.95866 0.98928 0.0
C642 C 0.33098 0.97531 1.0137 0.0
C643 C 0.3251 1.0125 1.00022 0.0
H644 H 0.34669 0.02111 0.04238 0.0
C645 C 0.33193 0.06985 0.0253 0.0
C646 C 0.3297 0.07206 0.04336 0.0
C647 C 0.33323 0.05613 0.01851 0.0
C648 C 0.34055 0.01885 0.03065 0.0
H649 H 0.33005 0.96839 0.96351 0.0
H650 H 0.33293 0.99253 0.97445 0.0
H651 H 0.34666 0.99697 0.03068 0.0
H652 H 0.32736 0.06149 0.06847 0.0
H653 H 0.32972 0.03755 0.05663 0.0
H654 H 0.31895 0.03435 1.00022 0.0
C655 C 0.33194 0.98398 0.98385 0.0
C656 C 0.34051 1.00502 0.02395 0.0
C657 C 0.33047 0.9701 0.97757 0.0
C658 C 0.32923 0.0602 0.05453 0.0
C659 C 0.33058 0.04647 0.04774 0.0
C660 C 0.32519 0.02633 1.00687 0.0
C661 C 0.33203 0.98679 1.002 0.0
C662 C 0.33269 1.00164 1.00872 0.0
C663 C 0.33239 0.04427 0.02962 0.0
C664 C 0.33283 0.02965 0.02222 0.0
H665 H 0.32874 0.95286 1.01683 0.0
H666 H 0.33088 0.97705 0.02776 0.0
H667 H 0.31875 1.01026 0.98866 0.0
H668 H 0.33265 0.07875 1.01636 0.0
H669 H 0.33487 0.05481 1.00453 0.0
C670 C 0.96432 0.31974 0.02757 0.0
C671 C 0.96065 0.32664 0.04332 0.0
C672 C 0.97804 0.32099 0.02063 0.0
C673 C 1.01508 0.32878 0.03319 0.0
H674 H 0.02056 0.33322 0.98304 0.0
C675 C 0.0712 0.33481 1.0029 0.0
C676 C 0.07385 0.32723 0.98734 0.0
C677 C 0.05734 0.33602 1.00948 0.0
C678 C 0.01922 0.33185 0.99705 0.0
H679 H 0.96858 0.34048 0.06394 0.0
H680 H 0.99261 0.34253 0.05188 0.0
H681 H 0.99648 0.33293 0.99507 0.0
H682 H 0.06398 0.315 0.96646 0.0
H683 H 0.03986 0.317 0.97796 0.0
H684 H 0.03778 0.32742 0.03517 0.0
C685 C 0.98484 0.33606 0.045 0.0
C686 C 1.00542 0.33171 1.00395 0.0
C687 C 0.97108 0.33486 0.05193 0.0
C688 C 0.06229 0.32108 0.97835 0.0
C689 C 0.04844 0.32225 0.98495 0.0
C690 C 0.02888 0.32887 0.02629 0.0
C691 C 0.98848 0.32912 0.02928 0.0
C692 C 1.00318 0.33004 0.02207 0.0
C693 C 0.0458 0.32963 1.00068 0.0
C694 C 0.03113 0.33027 1.00811 0.0
H695 H 0.95668 0.31309 0.02076 0.0
H696 H 0.98056 0.31531 1.00866 0.0
H697 H 1.01371 0.3273 0.04718 0.0
H698 H 0.07985 0.33985 1.01 0.0
H699 H 0.05567 0.342 0.02146 0.0
C700 C 0.70408 0.05999 0.97776 0.0
C701 C 0.70504 0.07146 0.98955 0.0
C702 C 0.70301 0.04607 0.98396 0.0
C703 C 0.69522 0.02463 0.02388 0.0
H704 H 0.71838 0.99644 1.00028 0.0
C705 C 0.69558 0.96528 0.04431 0.0
C706 C 0.70887 0.95841 0.04413 0.0
C707 C 0.69412 0.97895 0.03734 0.0
C708 C 0.71191 1.00419 1.0071 0.0
H709 H 0.70497 0.07726 0.01713 0.0
H710 H 0.70352 0.05301 0.02791 0.0
H711 H 0.71738 0.02047 0.98879 0.0
H712 H 0.73113 0.9607 0.03704 0.0
H713 H 0.72863 0.98447 0.02507 0.0
H714 H 0.69019 1.00843 0.04257 0.0
C715 C 0.70345 0.05476 1.01387 0.0
C716 C 0.71117 0.01795 1.00035 0.0
C717 C 0.70448 0.06867 1.00767 0.0
C718 C 0.72068 0.96558 0.03707 0.0
C719 C 0.71924 0.97922 0.03017 0.0
C720 C 0.69599 1.01086 0.03066 0.0
C721 C 0.70291 0.04325 1.0021 0.0
C722 C 0.70293 0.02839 1.00874 0.0
C723 C 0.70593 0.98604 0.03009 0.0
C724 C 0.70449 1.00051 0.02246 0.0
H725 H 0.70457 0.06172 0.96372 0.0
H726 H 0.7024 0.03749 0.97451 0.0
H727 H 0.68863 0.03236 0.03056 0.0
H728 H 0.68624 0.95999 0.0495 0.0
H729 H 0.68369 0.98384 0.03734 0.0
C730 C 0.0645 0.69595 0.05246 0.0
C731 C 0.07489 0.70422 0.04392 0.0
C732 C 0.05073 0.69474 0.04554 0.0
C733 C 0.03002 0.69919 1.00456 0.0
H734 H 0.99775 0.70331 0.03588 0.0
C735 C 0.97304 0.70975 0.97916 0.0
C736 C 0.96153 0.70354 0.98811 0.0
C737 C 0.98691 0.70861 0.98572 0.0
C738 C 1.00662 0.70191 0.02696 0.0
H739 H 0.07879 0.71784 0.02148 0.0
H740 H 0.05487 0.71561 1.00938 0.0
H741 H 0.02185 0.70344 0.04785 0.0
H742 H 0.95563 0.69083 1.01067 0.0
H743 H 0.97985 0.68873 0.02206 0.0
H744 H 1.01482 0.69772 0.98366 0.0
C745 C 0.05744 0.70989 0.02129 0.0
C746 C 0.02045 0.702 0.03384 0.0
C747 C 0.07117 0.71115 0.02824 0.0
C748 C 0.96425 0.69592 1.0036 0.0
C749 C 0.97813 0.69473 1.01014 0.0
C750 C 1.0162 0.69904 0.99768 0.0
C751 C 0.04703 0.70173 0.02989 0.0
C752 C 0.03232 0.7008 0.02269 0.0
C753 C 0.98962 0.70118 1.00138 0.0
C754 C 1.00432 0.70056 1.00878 0.0
H755 H 0.06704 0.6903 0.06442 0.0
H756 H 0.04299 0.68824 0.05237 0.0
H757 H 0.03894 0.69802 0.99565 0.0
H758 H 0.97129 0.71587 0.96732 0.0
H759 H 0.99546 0.71391 0.97877 0.0
C760 C 0.82279 0.55968 0.55549 0.0
C761 C 0.82905 0.57112 0.5465 0.0
C762 C 0.82399 0.54585 0.54901 0.0
C763 C 0.83096 0.52604 0.50795 0.0
H764 H 0.83476 0.49403 0.53952 0.0
C765 C 0.83713 0.4683 0.48288 0.0
C766 C 0.82876 0.458 0.49141 0.0
C767 C 0.83831 0.48204 0.48973 0.0
C768 C 0.83361 0.50286 0.53054 0.0
H769 H 0.8419 0.5769 0.52398 0.0
H770 H 0.8441 0.55275 0.51274 0.0
H771 H 0.83496 0.5181 0.55134 0.0
H772 H 0.81496 0.45423 0.51378 0.0
H773 H 0.81715 0.47808 0.52576 0.0
H774 H 0.82955 0.51076 0.48716 0.0
C775 C 0.83802 0.5545 0.52462 0.0
C776 C 0.83371 0.51666 0.53731 0.0
C777 C 0.83677 0.56835 0.53107 0.0
C778 C 0.82172 0.46177 0.50703 0.0
C779 C 0.82296 0.47547 0.51391 0.0
C780 C 0.83092 0.51224 0.50117 0.0
C781 C 0.83152 0.54309 0.53342 0.0
C782 C 0.83222 0.52842 0.52613 0.0
C783 C 0.83121 0.48579 0.50531 0.0
C784 C 0.83209 0.50048 0.51241 0.0
H785 H 0.8166 0.56147 0.56728 0.0
H786 H 0.81866 0.53736 0.55599 0.0
H787 H 0.82958 0.53482 0.49896 0.0
H788 H 0.84287 0.46572 0.47098 0.0
H789 H 0.84489 0.48971 0.48291 0.0
C790 C 0.56481 0.83436 0.48229 0.0
C791 C 0.57515 0.82596 0.4907 0.0
C792 C 0.55107 0.83558 0.48927 0.0
C793 C 0.53048 0.83095 0.53026 0.0
H794 H 0.49804 0.82727 0.49899 0.0
C795 C 0.47348 0.82062 0.55574 0.0
C796 C 0.462 0.82696 0.54688 0.0
C797 C 0.48734 0.82171 0.54913 0.0
C798 C 0.50696 0.82855 0.5079 0.0
H799 H 0.57899 0.81214 0.51296 0.0
H800 H 0.55515 0.81441 0.52516 0.0
H801 H 0.5221 0.82707 0.48695 0.0
H802 H 0.45615 0.83984 0.52445 0.0
H803 H 0.48035 0.84186 0.513 0.0
H804 H 0.51538 0.83238 0.55122 0.0
C805 C 0.55772 0.8202 0.51331 0.0
C806 C 0.52076 0.82841 0.50098 0.0
C807 C 0.57142 0.81892 0.50631 0.0
C808 C 0.46474 0.83465 0.53144 0.0
C809 C 0.47861 0.83579 0.52487 0.0
C810 C 0.51668 0.83114 0.53717 0.0
C811 C 0.54737 0.8285 0.50485 0.0
C812 C 0.53269 0.82945 0.5121 0.0
C813 C 0.49007 0.82921 0.53354 0.0
C814 C 0.50474 0.82979 0.5261 0.0
H815 H 0.56736 0.84009 0.4704 0.0
H816 H 0.54337 0.84219 0.48254 0.0
H817 H 0.53944 0.832 0.53915 0.0
H818 H 0.47171 0.81445 0.56752 0.0
H819 H 0.49585 0.81632 0.55601 0.0
C820 C 0.19845 0.56225 0.48469 0.0
C821 C 0.20852 0.572 0.49121 0.0
C822 C 0.19795 0.54835 0.49113 0.0
C823 C 0.22033 0.52183 0.51377 0.0
H824 H 0.18444 0.5026 0.52239 0.0
C825 C 0.21804 0.46221 0.52958 0.0
C826 C 0.20869 0.45778 0.54291 0.0
C827 C 0.21749 0.47604 0.52309 0.0
C828 C 0.19455 0.50786 0.52016 0.0
H829 H 0.22602 0.57471 0.50958 0.0
H830 H 0.22495 0.55066 0.52102 0.0
H831 H 0.18442 0.52707 0.51181 0.0
H832 H 0.19124 0.46442 0.55964 0.0
H833 H 0.19046 0.48871 0.54851 0.0
H834 H 0.23049 0.50279 0.5224 0.0
C835 C 0.21752 0.55368 0.51081 0.0
C836 C 0.19454 0.52183 0.51391 0.0
C837 C 0.21801 0.56755 0.50439 0.0
C838 C 0.19868 0.46752 0.54949 0.0
C839 C 0.19813 0.4814 0.54297 0.0
C840 C 0.22034 0.5079 0.51998 0.0
C841 C 0.20755 0.54388 0.50419 0.0
C842 C 0.20744 0.52899 0.51068 0.0
C843 C 0.20761 0.48585 0.52978 0.0
C844 C 0.20747 0.50072 0.52323 0.0
H845 H 0.1909 0.56536 0.47465 0.0
H846 H 0.19022 0.54103 0.48565 0.0
H847 H 0.23046 0.52695 0.51123 0.0
H848 H 0.226 0.45505 0.52434 0.0
H849 H 0.22483 0.47905 0.51277 0.0
C850 C 0.57119 0.2097 0.52761 0.0
C851 C 0.5749 0.20283 0.54334 0.0
C852 C 0.55745 0.20844 0.52068 0.0
C853 C 0.52046 0.20078 0.53338 0.0
H854 H 0.51469 0.19632 0.48324 0.0
C855 C 0.46413 0.19502 0.50335 0.0
C856 C 0.46146 0.20257 0.48778 0.0
C857 C 0.47802 0.19376 0.50987 0.0
C858 C 0.5161 0.19769 0.49726 0.0
H859 H 0.56704 0.18899 0.56392 0.0
H860 H 0.54298 0.18693 0.55189 0.0
H861 H 0.53883 0.19651 0.49515 0.0
H862 H 0.47129 0.21469 0.46687 0.0
H863 H 0.49545 0.2126 0.47829 0.0
H864 H 0.49777 0.20226 0.53548 0.0
C865 C 0.55072 0.19339 0.54502 0.0
C866 C 0.52995 0.19778 0.50408 0.0
C867 C 0.56451 0.1946 0.55192 0.0
C868 C 0.47301 0.20863 0.47876 0.0
C869 C 0.48688 0.20742 0.48531 0.0
C870 C 0.50661 0.20075 0.52655 0.0
C871 C 0.54703 0.20033 0.52933 0.0
C872 C 0.53229 0.19946 0.5222 0.0
C873 C 0.48956 0.20006 0.50102 0.0
C874 C 0.50426 0.19934 0.50838 0.0
H875 H 0.5788 0.21636 0.52081 0.0
H876 H 0.55489 0.21412 0.50873 0.0
H877 H 0.5219 0.20227 0.54737 0.0
H878 H 0.45549 0.19005 0.51048 0.0
H879 H 0.4797 0.18781 0.52184 0.0
C880 C 0.26649 0.20103 0.05276 0.0
C881 C 0.27994 0.20558 0.0587 0.0
C882 C 0.25788 0.21003 0.04278 0.0
C883 C 0.25902 0.2416 1.01432 0.0
H884 H 0.21867 0.24386 0.02489 0.0
C885 C 0.22214 0.28273 0.98114 0.0
C886 C 0.2084 0.27819 0.97633 0.0
C887 C 0.23092 0.2741 0.99142 0.0
C888 C 0.22988 0.24324 0.02161 0.0
H889 H 0.29498 0.22308 0.05856 0.0
H890 H 0.27988 0.23884 0.04122 0.0
H891 H 0.23391 0.22828 0.04213 0.0
H892 H 0.19319 0.26093 0.97834 0.0
H893 H 0.20851 0.24582 0.99609 0.0
H894 H 0.25498 0.25644 0.99368 0.0
C895 C 0.27603 0.22828 0.04424 0.0
C896 C 0.23862 0.23431 0.03152 0.0
C897 C 0.28462 0.2193 0.05431 0.0
C898 C 0.20363 0.26483 0.98205 0.0
C899 C 0.21243 0.25618 0.99225 0.0
C900 C 0.25027 0.25049 1.00435 0.0
C901 C 0.26253 0.22377 0.03844 0.0
C902 C 0.25328 0.23336 0.02797 0.0
C903 C 0.22619 0.26069 0.99707 0.0
C904 C 0.23557 0.2514 1.00784 0.0
H905 H 0.26252 0.19057 0.05605 0.0
H906 H 0.24759 0.20618 0.03836 0.0
H907 H 0.27025 0.24097 1.01111 0.0
H908 H 0.22606 0.29305 0.97713 0.0
H909 H 0.24136 0.27802 0.99511 0.0
C910 C 0.7676 0.20107 0.98262 0.0
C911 C 0.75415 0.20561 0.9768 0.0
C912 C 0.77623 0.20999 0.99277 0.0
C913 C 0.78165 0.24782 1.00448 0.0
H914 H 0.80403 0.23209 0.04258 0.0
C915 C 0.81267 0.28276 0.05424 0.0
C916 C 0.82649 0.27828 0.05875 0.0
C917 C 0.80373 0.27403 0.04422 0.0
C918 C 0.79795 0.23662 0.03188 0.0
H919 H 0.73909 0.22303 0.97736 0.0
H920 H 0.75407 0.23857 0.99523 0.0
H921 H 0.78852 0.2166 0.02541 0.0
H922 H 0.84169 0.26109 0.05635 0.0
H923 H 0.82613 0.24593 0.03874 0.0
H924 H 0.79105 0.26787 1.01108 0.0
C925 C 0.75809 0.22819 0.99166 0.0
C926 C 0.78906 0.22774 0.02201 0.0
C927 C 0.74949 0.21928 0.98144 0.0
C928 C 0.83116 0.2649 0.05296 0.0
C929 C 0.82219 0.25615 0.04304 0.0
C930 C 0.7905 0.25671 1.01441 0.0
C931 C 0.77159 0.22368 0.99742 0.0
C932 C 0.78084 0.23321 1.00814 0.0
C933 C 0.80836 0.2606 0.03858 0.0
C934 C 0.7988 0.25121 0.02816 0.0
H935 H 0.7716 0.19068 0.97904 0.0
H936 H 0.78666 0.20625 0.9967 0.0
H937 H 0.77565 0.25236 0.99373 0.0
H938 H 0.8088 0.29305 0.05838 0.0
H939 H 0.79309 0.27772 0.04111 0.0
C940 C 0.74926 0.81033 0.05432 0.0
C941 C 0.75384 0.8241 0.05869 0.0
C942 C 0.75787 0.80141 0.04417 0.0
C943 C 0.78857 0.802 1.01349 0.0
H944 H 0.79106 0.762 0.02491 0.0
C945 C 0.8308 0.76524 0.98257 0.0
C946 C 0.82622 0.75176 0.97695 0.0
C947 C 0.82183 0.77391 0.99252 0.0
C948 C 0.79037 0.77312 0.02145 0.0
H949 H 0.77116 0.83921 0.05607 0.0
H950 H 0.78621 0.82366 0.03854 0.0
H951 H 0.77564 0.77744 0.04221 0.0
H952 H 0.80871 0.73673 0.97766 0.0
H953 H 0.79299 0.75193 0.99497 0.0
H954 H 0.80342 0.79769 0.99285 0.0
C955 C 0.77584 0.81982 0.04262 0.0
C956 C 0.78151 0.78197 0.03135 0.0
C957 C 0.76722 0.82875 0.05269 0.0
C958 C 0.8125 0.7471 0.98167 0.0
C959 C 0.80356 0.75575 0.99171 0.0
C960 C 0.79747 0.79316 1.00366 0.0
C961 C 0.77128 0.80604 0.03821 0.0
C962 C 0.78053 0.79654 0.02752 0.0
C963 C 0.80809 0.76929 0.99717 0.0
C964 C 0.7985 0.77863 1.00755 0.0
H965 H 0.73893 0.8065 0.05855 0.0
H966 H 0.75391 0.79095 0.0408 0.0
H967 H 0.78789 0.8131 1.00995 0.0
H968 H 0.84125 0.76919 0.97902 0.0
H969 H 0.8257 0.78422 0.99667 0.0
C970 C 0.20354 0.76443 0.05068 0.0
C971 C 0.20887 0.75217 0.05883 0.0
C972 C 0.2124 0.77293 0.04033 0.0
C973 C 0.25038 0.78125 0.03207 0.0
H974 H 0.2356 0.79799 0.98932 0.0
C975 C 0.28119 0.82427 0.99344 0.0
C976 C 0.28077 0.82358 0.97499 0.0
C977 C 0.2726 0.81533 1.00358 0.0
C978 C 0.23995 0.79331 1.00113 0.0
H979 H 0.22765 0.73907 0.0622 0.0
H980 H 0.24309 0.75385 0.04405 0.0
H981 H 0.22038 0.78257 1.00681 0.0
H982 H 0.27087 0.81296 0.9528 0.0
H983 H 0.25619 0.79717 0.97047 0.0
H984 H 0.27004 0.79176 0.02619 0.0
C985 C 0.23212 0.75704 0.04592 0.0
C986 C 0.23115 0.78459 1.01129 0.0
C987 C 0.22326 0.74856 0.05631 0.0
C988 C 0.2716 0.81367 0.96697 0.0
C989 C 0.26303 0.80473 0.97711 0.0
C990 C 0.25918 0.78995 0.0219 0.0
C991 C 0.2268 0.76935 0.03783 0.0
C992 C 0.23624 0.77848 0.0269 0.0
C993 C 0.26338 0.80548 0.99554 0.0
C994 C 0.25407 0.79611 1.00632 0.0
H995 H 0.19257 0.76764 0.05258 0.0
H996 H 0.208 0.78245 0.03454 0.0
H997 H 0.25461 0.77684 0.04411 0.0
H998 H 0.28823 0.83166 1.00006 0.0
H999 H 0.27305 0.81629 0.01774 0.0
C1000 C 0.78474 0.72013 0.55424 0.0
C1001 C 0.78088 0.70587 0.55687 0.0
C1002 C 0.77632 0.72902 0.54385 0.0
C1003 C 0.74836 0.72834 0.50944 0.0
H1004 H 0.74193 0.76717 0.52433 0.0
C1005 C 0.71944 0.76889 0.4653 0.0
C1006 C 0.70972 0.77815 0.4734 0.0
C1007 C 0.72837 0.76027 0.47537 0.0
C1008 C 0.74353 0.75633 0.52004 0.0
H1009 H 0.76503 0.68983 0.55077 0.0
H1010 H 0.75031 0.70531 0.53273 0.0
H1011 H 0.75681 0.75165 0.54214 0.0
H1012 H 0.70194 0.78573 0.49853 0.0
H1013 H 0.71727 0.77046 0.51609 0.0
H1014 H 0.7348 0.7329 0.48758 0.0
C1015 C 0.75999 0.70958 0.53844 0.0
C1016 C 0.75221 0.74747 0.53015 0.0
C1017 C 0.76843 0.70069 0.54879 0.0
C1018 C 0.70919 0.77862 0.49184 0.0
C1019 C 0.71811 0.76998 0.50192 0.0
C1020 C 0.73967 0.73719 0.49934 0.0
C1021 C 0.76381 0.72387 0.53586 0.0
C1022 C 0.75471 0.73336 0.52499 0.0
C1023 C 0.72779 0.76066 0.49381 0.0
C1024 C 0.73713 0.75129 0.50452 0.0
H1025 H 0.79438 0.7244 0.56007 0.0
H1026 H 0.7797 0.7399 0.54192 0.0
H1027 H 0.75018 0.71758 0.50496 0.0
H1028 H 0.72003 0.76813 0.45113 0.0
H1029 H 0.7358 0.75334 0.46868 0.0
C1030 C 0.24913 0.72014 0.48114 0.0
C1031 C 0.25363 0.70635 0.47684 0.0
C1032 C 0.25778 0.72907 0.49129 0.0
C1033 C 0.28851 0.72854 0.52203 0.0
H1034 H 0.2912 0.7685 0.51039 0.0
C1035 C 0.33099 0.76536 0.55277 0.0
C1036 C 0.32649 0.77886 0.55831 0.0
C1037 C 0.32195 0.75666 0.54287 0.0
C1038 C 0.29045 0.75739 0.51391 0.0
H1039 H 0.27086 0.69121 0.47958 0.0
H1040 H 0.28599 0.70679 0.49711 0.0
H1041 H 0.27568 0.75302 0.49316 0.0
H1042 H 0.30905 0.79391 0.55751 0.0
H1043 H 0.29323 0.77867 0.54028 0.0
H1044 H 0.30341 0.7329 0.54267 0.0
C1045 C 0.27564 0.71063 0.49299 0.0
C1046 C 0.28153 0.74851 0.50406 0.0
C1047 C 0.26698 0.70169 0.48291 0.0
C1048 C 0.31279 0.78352 0.55357 0.0
C1049 C 0.30378 0.77484 0.54356 0.0
C1050 C 0.29747 0.7374 0.53182 0.0
C1051 C 0.27117 0.72444 0.49731 0.0
C1052 C 0.28048 0.73396 0.50797 0.0
C1053 C 0.30823 0.76128 0.53819 0.0
C1054 C 0.29858 0.75192 0.52785 0.0
H1055 H 0.23883 0.72398 0.47684 0.0
H1056 H 0.25388 0.73955 0.4946 0.0
H1057 H 0.28777 0.71745 0.52563 0.0
H1058 H 0.34142 0.76141 0.55635 0.0
H1059 H 0.32576 0.74633 0.53878 0.0
C1060 C 0.26655 0.32926 0.54972 0.0
C1061 C 0.25424 0.32397 0.55795 0.0
C1062 C 0.2751 0.32039 0.53947 0.0
C1063 C 0.28357 0.28256 0.53165 0.0
H1064 H 0.30026 0.29695 0.48866 0.0
C1065 C 0.3267 0.25173 0.4931 0.0
C1066 C 0.32593 0.25196 0.47467 0.0
C1067 C 0.31776 0.26034 0.50322 0.0
C1068 C 0.29559 0.29271 0.50055 0.0
H1069 H 0.24115 0.30522 0.5616 0.0
H1070 H 0.25603 0.28975 0.54363 0.0
H1071 H 0.28476 0.31217 0.50603 0.0
H1072 H 0.31516 0.26156 0.45244 0.0
H1073 H 0.29937 0.27628 0.47006 0.0
H1074 H 0.29417 0.26299 0.52597 0.0
C1075 C 0.25921 0.30072 0.54535 0.0
C1076 C 0.28684 0.30151 0.51063 0.0
C1077 C 0.25066 0.30959 0.55563 0.0
C1078 C 0.31595 0.26098 0.46661 0.0
C1079 C 0.30701 0.26956 0.47672 0.0
C1080 C 0.29231 0.27375 0.52156 0.0
C1081 C 0.27155 0.306 0.53717 0.0
C1082 C 0.28073 0.29656 0.52633 0.0
C1083 C 0.30783 0.26939 0.49515 0.0
C1084 C 0.29845 0.27872 0.50588 0.0
H1085 H 0.26974 0.34023 0.55146 0.0
H1086 H 0.28466 0.32477 0.53361 0.0
H1087 H 0.27917 0.27844 0.54376 0.0
H1088 H 0.33416 0.24481 0.49975 0.0
H1089 H 0.31879 0.26004 0.51738 0.0
C1090 C 0.77207 0.32998 0.48937 0.0
C1091 C 0.78039 0.3243 0.47573 0.0
C1092 C 0.76354 0.32116 0.49974 0.0
C1093 C 0.75836 0.28355 0.51272 0.0
H1094 H 0.72091 0.29679 0.52653 0.0
C1095 C 0.72336 0.2532 0.56263 0.0
C1096 C 0.70857 0.25275 0.55963 0.0
C1097 C 0.73221 0.26173 0.55231 0.0
C1098 C 0.73128 0.29286 0.52266 0.0
H1099 H 0.78646 0.30479 0.46257 0.0
H1100 H 0.7713 0.28949 0.4803 0.0
H1101 H 0.73608 0.3119 0.50862 0.0
H1102 H 0.69153 0.26099 0.54332 0.0
H1103 H 0.70698 0.27552 0.525 0.0
H1104 H 0.75338 0.26434 0.52636 0.0
C1105 C 0.77149 0.30075 0.48315 0.0
C1106 C 0.74007 0.30162 0.51258 0.0
C1107 C 0.78005 0.30956 0.47282 0.0
C1108 C 0.70288 0.26094 0.5459 0.0
C1109 C 0.71173 0.26944 0.53554 0.0
C1110 C 0.74954 0.27476 0.52275 0.0
C1111 C 0.76308 0.30644 0.4967 0.0
C1112 C 0.75374 0.29709 0.50749 0.0
C1113 C 0.7265 0.27001 0.53866 0.0
C1114 C 0.73588 0.27931 0.52787 0.0
H1115 H 0.77193 0.34129 0.49189 0.0
H1116 H 0.75736 0.3259 0.51021 0.0
H1117 H 0.76887 0.27977 0.5092 0.0
H1118 H 0.72815 0.2469 0.57294 0.0
H1119 H 0.74351 0.262 0.55522 0.0
C1120 C 0.36924 0.17785 0.33257 0.0
C1121 C 0.38363 0.18042 0.33675 0.0
C1122 C 0.36521 0.17431 0.31543 0.0
C1123 C 0.37767 0.17592 0.26926 0.0
H1124 H 0.34888 0.14695 0.2618 0.0
C1125 C 0.355 0.16327 0.20033 0.0
C1126 C 0.35262 0.14891 0.19616 0.0
C1127 C 0.35849 0.16735 0.21747 0.0
C1128 C 0.35701 0.15499 0.26364 0.0
H1129 H 0.40501 0.18149 0.32601 0.0
H1130 H 0.39804 0.17499 0.29627 0.0
H1131 H 0.35572 0.15345 0.29162 0.0
H1132 H 0.35188 0.12762 0.20692 0.0
H1133 H 0.35832 0.13469 0.23665 0.0
H1134 H 0.37925 0.17717 0.24129 0.0
C1135 C 0.38983 0.17586 0.3062 0.0
C1136 C 0.3608 0.15885 0.28076 0.0
C1137 C 0.39386 0.17942 0.32333 0.0
C1138 C 0.3538 0.13875 0.20959 0.0
C1139 C 0.35731 0.14283 0.22671 0.0
C1140 C 0.37389 0.17204 0.25215 0.0
C1141 C 0.37546 0.17325 0.30202 0.0
C1142 C 0.37122 0.16933 0.28379 0.0
C1143 C 0.35971 0.15718 0.23088 0.0
C1144 C 0.36355 0.16149 0.24911 0.0
H1145 H 0.36109 0.1784 0.34261 0.0
H1146 H 0.35403 0.17253 0.31265 0.0
H1147 H 0.3856 0.18415 0.2711 0.0
H1148 H 0.35432 0.17136 0.19029 0.0
H1149 H 0.36011 0.17852 0.22024 0.0
C1150 C 0.84387 0.37168 0.32809 0.0
C1151 C 0.85135 0.38252 0.33689 0.0
C1152 C 0.8476 0.36774 0.31098 0.0
C1153 C 0.86599 0.38099 0.27148 0.0
H1154 H 0.86793 0.34123 0.25856 0.0
C1155 C 0.88991 0.36254 0.20553 0.0
C1156 C 0.88333 0.35112 0.19678 0.0
C1157 C 0.88577 0.36633 0.22252 0.0
C1158 C 0.86726 0.35239 0.26187 0.0
H1159 H 0.86887 0.39748 0.33465 0.0
H1160 H 0.87526 0.3907 0.3048 0.0
H1161 H 0.86113 0.34786 0.28837 0.0
H1162 H 0.86723 0.33468 0.19919 0.0
H1163 H 0.85974 0.34153 0.22863 0.0
H1164 H 0.87201 0.38556 0.24501 0.0
C1165 C 0.86638 0.38538 0.31106 0.0
C1166 C 0.86338 0.35618 0.27897 0.0
C1167 C 0.86269 0.38928 0.32817 0.0
C1168 C 0.87244 0.34363 0.20544 0.0
C1169 C 0.86826 0.34745 0.22243 0.0
C1170 C 0.8698 0.37721 0.25437 0.0
C1171 C 0.85886 0.37459 0.30225 0.0
C1172 C 0.86276 0.37053 0.284 0.0
C1173 C 0.87489 0.35884 0.2312 0.0
C1174 C 0.87055 0.36286 0.24935 0.0
H1175 H 0.83494 0.3664 0.33429 0.0
H1176 H 0.84149 0.35951 0.30448 0.0
H1177 H 0.86539 0.39215 0.27486 0.0
H1178 H 0.89822 0.36866 0.1992 0.0
H1179 H 0.89123 0.37505 0.22893 0.0
C1180 C 0.68914 0.8711 0.20486 0.0
C1181 C 0.68162 0.88193 0.19619 0.0
C1182 C 0.68549 0.86713 0.22197 0.0
C1183 C 0.66739 0.88032 0.26172 0.0
H1184 H 0.66564 0.84056 0.27453 0.0
C1185 C 0.64424 0.86177 0.32803 0.0
C1186 C 0.65094 0.85039 0.33661 0.0
C1187 C 0.64818 0.86558 0.31098 0.0
C1188 C 0.66626 0.85172 0.27125 0.0
H1189 H 0.66413 0.89683 0.19866 0.0
H1190 H 0.65788 0.88999 0.22852 0.0
H1191 H 0.67213 0.8472 0.24465 0.0
H1192 H 0.66704 0.83404 0.33385 0.0
H1193 H 0.67418 0.84093 0.30431 0.0
H1194 H 0.66163 0.88487 0.2883 0.0
C1195 C 0.66672 0.8847 0.22215 0.0
C1196 C 0.66996 0.85552 0.2541 0.0
C1197 C 0.67032 0.88863 0.20503 0.0
C1198 C 0.66175 0.84296 0.32773 0.0
C1199 C 0.66572 0.8468 0.31068 0.0
C1200 C 0.66375 0.87653 0.27887 0.0
C1201 C 0.67428 0.87393 0.23084 0.0
C1202 C 0.67051 0.86986 0.24912 0.0
C1203 C 0.65897 0.85814 0.30207 0.0
C1204 C 0.66308 0.86217 0.28386 0.0
H1205 H 0.69804 0.86586 0.19857 0.0
H1206 H 0.69164 0.85891 0.22838 0.0
H1207 H 0.66794 0.89147 0.25837 0.0
H1208 H 0.636 0.86785 0.33453 0.0
H1209 H 0.64263 0.87427 0.3047 0.0
C1210 C 0.18973 0.65945 0.32962 0.0
C1211 C 0.18216 0.6486 0.33823 0.0
C1212 C 0.18614 0.66344 0.3125 0.0
C1213 C 0.16806 0.6503 0.27261 0.0
H1214 H 0.1664 0.69008 0.2599 0.0
C1215 C 0.1448 0.66892 0.20639 0.0
C1216 C 0.15149 0.68033 0.19782 0.0
C1217 C 0.14879 0.66509 0.22342 0.0
C1218 C 0.167 0.67892 0.26315 0.0
H1219 H 0.16462 0.63369 0.3356 0.0
H1220 H 0.15847 0.64057 0.30572 0.0
H1221 H 0.17289 0.68339 0.28978 0.0
H1222 H 0.16765 0.69669 0.20058 0.0
H1223 H 0.17487 0.68977 0.23009 0.0
H1224 H 0.16227 0.64578 0.24601 0.0
C1225 C 0.16731 0.64585 0.31215 0.0
C1226 C 0.1707 0.67509 0.2803 0.0
C1227 C 0.17086 0.6419 0.32929 0.0
C1228 C 0.16236 0.68776 0.20669 0.0
C1229 C 0.16637 0.6839 0.22372 0.0
C1230 C 0.16442 0.65412 0.25546 0.0
C1231 C 0.17493 0.65664 0.30354 0.0
C1232 C 0.17121 0.66074 0.28525 0.0
C1233 C 0.15962 0.67253 0.23232 0.0
C1234 C 0.16378 0.66848 0.25052 0.0
H1235 H 0.19863 0.66469 0.33599 0.0
H1236 H 0.19233 0.67167 0.30615 0.0
H1237 H 0.16858 0.63914 0.27593 0.0
H1238 H 0.13652 0.66284 0.19989 0.0
H1239 H 0.14323 0.65639 0.22968 0.0
C1240 C 0.36424 0.88858 0.82914 0.0
C1241 C 0.35283 0.88196 0.83789 0.0
C1242 C 0.3678 0.8847 0.81198 0.0
C1243 C 0.36419 0.85574 0.77963 0.0
H1244 H 0.37302 0.88523 0.74589 0.0
C1245 C 0.37271 0.84353 0.70591 0.0
C1246 C 0.38369 0.8509 0.69726 0.0
C1247 C 0.36864 0.84731 0.72295 0.0
C1248 C 0.37076 0.87684 0.75518 0.0
H1249 H 0.33619 0.86606 0.83528 0.0
H1250 H 0.34253 0.8592 0.8054 0.0
H1251 H 0.36669 0.8917 0.77587 0.0
H1252 H 0.39882 0.86824 0.69975 0.0
H1253 H 0.39202 0.87456 0.72956 0.0
H1254 H 0.3684 0.84087 0.75903 0.0
C1255 C 0.34878 0.86732 0.81192 0.0
C1256 C 0.36711 0.88056 0.77237 0.0
C1257 C 0.34517 0.87124 0.82907 0.0
C1258 C 0.39045 0.8622 0.70607 0.0
C1259 C 0.38641 0.86595 0.72311 0.0
C1260 C 0.3679 0.85201 0.76245 0.0
C1261 C 0.3601 0.87406 0.80314 0.0
C1262 C 0.36382 0.87006 0.78482 0.0
C1263 C 0.37546 0.85855 0.73179 0.0
C1264 C 0.37127 0.86251 0.75001 0.0
H1265 H 0.37055 0.89668 0.83562 0.0
H1266 H 0.37673 0.88993 0.80569 0.0
H1267 H 0.36189 0.84739 0.78896 0.0
H1268 H 0.36737 0.83468 0.69961 0.0
H1269 H 0.36007 0.84148 0.72915 0.0
C1270 C 0.19104 0.37131 0.70544 0.0
C1271 C 0.18348 0.3821 0.69674 0.0
C1272 C 0.18747 0.36741 0.72259 0.0
C1273 C 0.16946 0.38071 0.76236 0.0
H1274 H 0.16763 0.34099 0.77532 0.0
C1275 C 0.14594 0.36235 0.82852 0.0
C1276 C 0.15254 0.35095 0.8372 0.0
C1277 C 0.15003 0.36613 0.81151 0.0
C1278 C 0.16828 0.35213 0.772 0.0
H1279 H 0.16599 0.397 0.69924 0.0
H1280 H 0.15987 0.39027 0.72917 0.0
H1281 H 0.17417 0.34754 0.74543 0.0
H1282 H 0.16862 0.33457 0.83466 0.0
H1283 H 0.17601 0.3414 0.80519 0.0
H1284 H 0.16367 0.38534 0.7889 0.0
C1285 C 0.16869 0.38497 0.72279 0.0
C1286 C 0.17201 0.35589 0.75485 0.0
C1287 C 0.17222 0.38883 0.70562 0.0
C1288 C 0.16341 0.34349 0.82846 0.0
C1289 C 0.16752 0.3473 0.81146 0.0
C1290 C 0.1658 0.37697 0.77952 0.0
C1291 C 0.17629 0.37423 0.73149 0.0
C1292 C 0.17257 0.37022 0.7498 0.0
C1293 C 0.16086 0.35865 0.80274 0.0
C1294 C 0.16509 0.36263 0.78455 0.0
H1295 H 0.19991 0.36605 0.69911 0.0
H1296 H 0.19364 0.35921 0.72901 0.0
H1297 H 0.17003 0.39185 0.75897 0.0
H1298 H 0.13766 0.36844 0.83491 0.0
H1299 H 0.14454 0.37482 0.80516 0.0
C1300 C 0.64049 0.18049 0.71159 0.0
C1301 C 0.65076 0.1816 0.69823 0.0
C1302 C 0.64446 0.1769 0.72871 0.0
C1303 C 0.67342 0.1599 0.75408 0.0
H1304 H 0.65483 0.17792 0.7937 0.0
C1305 C 0.68024 0.13945 0.82502 0.0
C1306 C 0.68138 0.14954 0.83858 0.0
C1307 C 0.67676 0.14361 0.80793 0.0
C1308 C 0.66023 0.17287 0.7828 0.0
H1309 H 0.67332 0.17972 0.69247 0.0
H1310 H 0.68029 0.17378 0.72241 0.0
H1311 H 0.64857 0.18503 0.76394 0.0
H1312 H 0.67965 0.17196 0.84473 0.0
H1313 H 0.67391 0.17924 0.81486 0.0
H1314 H 0.68529 0.14796 0.77294 0.0
C1315 C 0.66912 0.17552 0.71959 0.0
C1316 C 0.65651 0.17683 0.76571 0.0
C1317 C 0.66514 0.1791 0.70246 0.0
C1318 C 0.67899 0.16391 0.83459 0.0
C1319 C 0.67554 0.16807 0.81749 0.0
C1320 C 0.67716 0.15597 0.77117 0.0
C1321 C 0.65883 0.17435 0.73293 0.0
C1322 C 0.66301 0.17035 0.75113 0.0
C1323 C 0.67436 0.15797 0.80394 0.0
C1324 C 0.67057 0.16236 0.78575 0.0
H1325 H 0.62934 0.18251 0.70887 0.0
H1326 H 0.63623 0.17594 0.73859 0.0
H1327 H 0.67855 0.15459 0.74318 0.0
H1328 H 0.68217 0.12832 0.82755 0.0
H1329 H 0.67579 0.13551 0.79789 0.0
C1330 C 0.84379 0.65968 0.70595 0.0
C1331 C 0.85128 0.64883 0.69726 0.0
C1332 C 0.84743 0.66364 0.7231 0.0
C1333 C 0.86548 0.65034 0.76283 0.0
H1334 H 0.86748 0.69007 0.77592 0.0
C1335 C 0.88927 0.66865 0.829 0.0
C1336 C 0.88272 0.68005 0.83775 0.0
C1337 C 0.88513 0.6649 0.81197 0.0
C1338 C 0.86679 0.67892 0.77256 0.0
H1339 H 0.86875 0.6339 0.69974 0.0
H1340 H 0.87498 0.64072 0.72964 0.0
H1341 H 0.86083 0.68351 0.746 0.0
H1342 H 0.86666 0.69647 0.83533 0.0
H1343 H 0.85919 0.68969 0.80582 0.0
H1344 H 0.87134 0.64572 0.78935 0.0
C1345 C 0.86616 0.64603 0.72327 0.0
C1346 C 0.863 0.67517 0.75539 0.0
C1347 C 0.86256 0.64211 0.70612 0.0
C1348 C 0.87185 0.68754 0.82907 0.0
C1349 C 0.86768 0.68376 0.81204 0.0
C1350 C 0.86921 0.65409 0.77999 0.0
C1351 C 0.85861 0.65681 0.73199 0.0
C1352 C 0.86238 0.66084 0.7503 0.0
C1353 C 0.87429 0.67241 0.80326 0.0
C1354 C 0.86999 0.66843 0.78507 0.0
H1355 H 0.83491 0.66495 0.69964 0.0
H1356 H 0.8413 0.67188 0.72952 0.0
H1357 H 0.86487 0.6392 0.75941 0.0
H1358 H 0.89755 0.66252 0.83534 0.0
H1359 H 0.89058 0.6562 0.80556 0.0
loop_
_geom_bond_atom_site_label_1
_geom_bond_atom_site_label_2
_geom_bond_distance
_geom_bond_site_symmetry_2
_ccdc_geom_bond_type
C0 C1 1.264 . S
C0 C5 1.479 . S
C0 C10 1.465 . S
C1 C0 1.264 . S
C1 C3 1.339 . S
C1 H28 0.931 . S
C2 C3 1.395 . S
C2 C4 1.320 . S
C3 C1 1.339 . S
C3 C2 1.395 . S
C3 H29 0.929 . S
C4 C2 1.320 . S
C4 C5 1.405 . S
C4 H30 0.930 . S
C5 C0 1.479 . S
C5 C4 1.405 . S
C5 H31 0.931 . S
U6 O7 2.454 . S
U6 O8 2.458 . S
U6 C9 2.984 . S
U6 C10 2.847 . S
U6 C23 2.882 . S
U6 O24 2.441 . S
U6 O25 2.420 . S
U6 O26 2.455 . S
U6 O27 2.449 . S
O7 U6 2.454 . S
O7 C9 1.353 . S
O8 U6 2.458 . S
O8 C9 1.286 . S
C9 U6 2.984 . S
C9 O7 1.353 . S
C9 O8 1.286 . S
C9 C11 1.363 . S
C10 C0 1.465 . S
C10 U6 2.847 . S
C10 O24 1.249 . S
C10 O25 1.202 . S
C11 C9 1.363 . S
C11 C13 1.408 . S
C11 C16 1.342 . S
C12 C13 1.310 . S
C12 C15 1.461 . S
C12 H32 0.932 . S
C13 C11 1.408 . S
C13 C12 1.310 . S
C13 H33 0.930 . S
C14 C15 1.474 . S
C14 C16 1.285 . S
C14 H34 0.929 . S
C15 C12 1.461 . S
C15 C14 1.474 . S
C16 C11 1.342 . S
C16 C14 1.285 . S
C16 H35 0.930 . S
C17 C20 1.424 . S
C17 C22 1.245 . S
C17 C23 1.428 . S
C18 C21 1.260 . S
C18 C22 1.477 . S
C18 H36 0.932 . S
C19 C20 1.384 . S
C19 C21 1.479 . S
C19 H37 0.929 . S
C20 C17 1.424 . S
C20 C19 1.384 . S
C20 H38 0.928 . S
C21 C18 1.260 . S
C21 C19 1.479 . S
C22 C17 1.245 . S
C22 C18 1.477 . S
C22 H39 0.932 . S
C23 U6 2.882 . S
C23 C17 1.428 . S
C23 O26 1.301 . S
C23 O27 1.282 . S
O24 U6 2.441 . S
O24 C10 1.249 . S
O25 U6 2.420 . S
O25 C10 1.202 . S
O26 U6 2.455 . S
O26 C23 1.301 . S
O27 U6 2.449 . S
O27 C23 1.282 . S
H28 C1 0.931 . S
H29 C3 0.929 . S
H30 C4 0.930 . S
H31 C5 0.931 . S
H32 C12 0.932 . S
H33 C13 0.930 . S
H34 C14 0.929 . S
H35 C16 0.930 . S
H36 C18 0.932 . S
H37 C19 0.929 . S
H38 C20 0.928 . S
H39 C22 0.932 . S
C40 C41 1.264 . S
C40 C45 1.479 . S
C40 C50 1.465 . S
C41 C40 1.264 . S
C41 C43 1.339 . S
C41 H68 0.931 . S
C42 C43 1.395 . S
C42 C44 1.320 . S
C43 C41 1.339 . S
C43 C42 1.395 . S
C43 H69 0.929 . S
C44 C42 1.320 . S
C44 C45 1.405 . S
C44 H70 0.930 . S
C45 C40 1.479 . S
C45 C44 1.405 . S
C45 H71 0.931 . S
U46 O47 2.454 . S
U46 O48 2.458 . S
U46 C49 2.984 . S
U46 C50 2.847 . S
U46 C63 2.882 . S
U46 O64 2.441 . S
U46 O65 2.420 . S
U46 O66 2.455 . S
U46 O67 2.449 . S
O47 U46 2.454 . S
O47 C49 1.353 . S
O48 U46 2.458 . S
O48 C49 1.286 . S
C49 U46 2.984 . S
C49 O47 1.353 . S
C49 O48 1.286 . S
C49 C51 1.363 . S
C50 C40 1.465 . S
C50 U46 2.847 . S
C50 O64 1.249 . S
C50 O65 1.202 . S
C51 C49 1.363 . S
C51 C53 1.408 . S
C51 C56 1.342 . S
C52 C53 1.310 . S
C52 C55 1.461 . S
C52 H72 0.932 . S
C53 C51 1.408 . S
C53 C52 1.310 . S
C53 H73 0.930 . S
C54 C55 1.474 . S
C54 C56 1.285 . S
C54 H74 0.929 . S
C55 C52 1.461 . S
C55 C54 1.474 . S
C56 C51 1.342 . S
C56 C54 1.285 . S
C56 H75 0.930 . S
C57 C60 1.424 . S
C57 C62 1.245 . S
C57 C63 1.428 . S
C58 C61 1.260 . S
C58 C62 1.477 . S
C58 H76 0.932 . S
C59 C60 1.384 . S
C59 C61 1.479 . S
C59 H77 0.929 . S
C60 C57 1.424 . S
C60 C59 1.384 . S
C60 H78 0.928 . S
C61 C58 1.260 . S
C61 C59 1.479 . S
C62 C57 1.245 . S
C62 C58 1.477 . S
C62 H79 0.932 . S
C63 U46 2.882 . S
C63 C57 1.428 . S
C63 O66 1.301 . S
C63 O67 1.282 . S
O64 U46 2.441 . S
O64 C50 1.249 . S
O65 U46 2.420 . S
O65 C50 1.202 . S
O66 U46 2.455 . S
O66 C63 1.301 . S
O67 U46 2.449 . S
O67 C63 1.282 . S
H68 C41 0.931 . S
H69 C43 0.929 . S
H70 C44 0.930 . S
H71 C45 0.931 . S
H72 C52 0.932 . S
H73 C53 0.930 . S
H74 C54 0.929 . S
H75 C56 0.930 . S
H76 C58 0.932 . S
H77 C59 0.929 . S
H78 C60 0.928 . S
H79 C62 0.932 . S
C80 C81 1.264 . S
C80 C85 1.479 . S
C80 C90 1.465 . S
C81 C80 1.264 . S
C81 C83 1.339 . S
C81 H108 0.931 . S
C82 C83 1.395 . S
C82 C84 1.320 . S
C83 C81 1.339 . S
C83 C82 1.395 . S
C83 H109 0.929 . S
C84 C82 1.320 . S
C84 C85 1.405 . S
C84 H110 0.930 . S
C85 C80 1.479 . S
C85 C84 1.405 . S
C85 H111 0.931 . S
U86 O87 2.454 . S
U86 O88 2.458 . S
U86 C89 2.984 . S
U86 C90 2.847 . S
U86 C103 2.882 . S
U86 O104 2.441 . S
U86 O105 2.420 . S
U86 O106 2.455 . S
U86 O107 2.449 . S
O87 U86 2.454 . S
O87 C89 1.353 . S
O88 U86 2.458 . S
O88 C89 1.286 . S
C89 U86 2.984 . S
C89 O87 1.353 . S
C89 O88 1.286 . S
C89 C91 1.363 . S
C90 C80 1.465 . S
C90 U86 2.847 . S
C90 O104 1.249 . S
C90 O105 1.202 . S
C91 C89 1.363 . S
C91 C93 1.408 . S
C91 C96 1.342 . S
C92 C93 1.310 . S
C92 C95 1.461 . S
C92 H112 0.932 . S
C93 C91 1.408 . S
C93 C92 1.310 . S
C93 H113 0.930 . S
C94 C95 1.474 . S
C94 C96 1.285 . S
C94 H114 0.929 . S
C95 C92 1.461 . S
C95 C94 1.474 . S
C96 C91 1.342 . S
C96 C94 1.285 . S
C96 H115 0.930 . S
C97 C100 1.424 . S
C97 C102 1.245 . S
C97 C103 1.428 . S
C98 C101 1.260 . S
C98 C102 1.477 . S
C98 H116 0.932 . S
C99 C100 1.384 . S
C99 C101 1.479 . S
C99 H117 0.929 . S
C100 C97 1.424 . S
C100 C99 1.384 . S
C100 H118 0.928 . S
C101 C98 1.260 . S
C101 C99 1.479 . S
C102 C97 1.245 . S
C102 C98 1.477 . S
C102 H119 0.932 . S
C103 U86 2.882 . S
C103 C97 1.428 . S
C103 O106 1.301 . S
C103 O107 1.282 . S
O104 U86 2.441 . S
O104 C90 1.249 . S
O105 U86 2.420 . S
O105 C90 1.202 . S
O106 U86 2.455 . S
O106 C103 1.301 . S
O107 U86 2.449 . S
O107 C103 1.282 . S
H108 C81 0.931 . S
H109 C83 0.929 . S
H110 C84 0.930 . S
H111 C85 0.931 . S
H112 C92 0.932 . S
H113 C93 0.930 . S
H114 C94 0.929 . S
H115 C96 0.930 . S
H116 C98 0.932 . S
H117 C99 0.929 . S
H118 C100 0.928 . S
H119 C102 0.932 . S
C120 C121 1.264 . S
C120 C125 1.479 . S
C120 C130 1.465 . S
C121 C120 1.264 . S
C121 C123 1.339 . S
C121 H148 0.931 . S
C122 C123 1.395 . S
C122 C124 1.320 . S
C123 C121 1.339 . S
C123 C122 1.395 . S
C123 H149 0.929 . S
C124 C122 1.320 . S
C124 C125 1.405 . S
C124 H150 0.930 . S
C125 C120 1.479 . S
C125 C124 1.405 . S
C125 H151 0.931 . S
U126 O127 2.454 . S
U126 O128 2.458 . S
U126 C129 2.984 . S
U126 C130 2.847 . S
U126 C143 2.882 . S
U126 O144 2.441 . S
U126 O145 2.420 . S
U126 O146 2.455 . S
U126 O147 2.449 . S
O127 U126 2.454 . S
O127 C129 1.353 . S
O128 U126 2.458 . S
O128 C129 1.286 . S
C129 U126 2.984 . S
C129 O127 1.353 . S
C129 O128 1.286 . S
C129 C131 1.363 . S
C130 C120 1.465 . S
C130 U126 2.847 . S
C130 O144 1.249 . S
C130 O145 1.202 . S
C131 C129 1.363 . S
C131 C133 1.408 . S
C131 C136 1.342 . S
C132 C133 1.310 . S
C132 C135 1.461 . S
C132 H152 0.932 . S
C133 C131 1.408 . S
C133 C132 1.310 . S
C133 H153 0.930 . S
C134 C135 1.474 . S
C134 C136 1.285 . S
C134 H154 0.929 . S
C135 C132 1.461 . S
C135 C134 1.474 . S
C136 C131 1.342 . S
C136 C134 1.285 . S
C136 H155 0.930 . S
C137 C140 1.424 . S
C137 C142 1.245 . S
C137 C143 1.428 . S
C138 C141 1.260 . S
C138 C142 1.477 . S
C138 H156 0.932 . S
C139 C140 1.384 . S
C139 C141 1.479 . S
C139 H157 0.929 . S
C140 C137 1.424 . S
C140 C139 1.384 . S
C140 H158 0.928 . S
C141 C138 1.260 . S
C141 C139 1.479 . S
C142 C137 1.245 . S
C142 C138 1.477 . S
C142 H159 0.932 . S
C143 U126 2.882 . S
C143 C137 1.428 . S
C143 O146 1.301 . S
C143 O147 1.282 . S
O144 U126 2.441 . S
O144 C130 1.249 . S
O145 U126 2.420 . S
O145 C130 1.202 . S
O146 U126 2.455 . S
O146 C143 1.301 . S
O147 U126 2.449 . S
O147 C143 1.282 . S
H148 C121 0.931 . S
H149 C123 0.929 . S
H150 C124 0.930 . S
H151 C125 0.931 . S
H152 C132 0.932 . S
H153 C133 0.930 . S
H154 C134 0.929 . S
H155 C136 0.930 . S
H156 C138 0.932 . S
H157 C139 0.929 . S
H158 C140 0.928 . S
H159 C142 0.932 . S
C160 C161 1.264 . S
C160 C165 1.479 . S
C160 C170 1.465 . S
C161 C160 1.264 . S
C161 C163 1.339 . S
C161 H188 0.931 . S
C162 C163 1.395 . S
C162 C164 1.320 . S
C163 C161 1.339 . S
C163 C162 1.395 . S
C163 H189 0.929 . S
C164 C162 1.320 . S
C164 C165 1.405 . S
C164 H190 0.930 . S
C165 C160 1.479 . S
C165 C164 1.405 . S
C165 H191 0.931 . S
U166 O167 2.454 . S
U166 O168 2.458 . S
U166 C169 2.984 . S
U166 C170 2.847 . S
U166 C183 2.882 . S
U166 O184 2.441 . S
U166 O185 2.420 . S
U166 O186 2.455 . S
U166 O187 2.449 . S
O167 U166 2.454 . S
O167 C169 1.353 . S
O168 U166 2.458 . S
O168 C169 1.286 . S
C169 U166 2.984 . S
C169 O167 1.353 . S
C169 O168 1.286 . S
C169 C171 1.363 . S
C170 C160 1.465 . S
C170 U166 2.847 . S
C170 O184 1.249 . S
C170 O185 1.202 . S
C171 C169 1.363 . S
C171 C173 1.408 . S
C171 C176 1.342 . S
C172 C173 1.310 . S
C172 C175 1.461 . S
C172 H192 0.932 . S
C173 C171 1.408 . S
C173 C172 1.310 . S
C173 H193 0.930 . S
C174 C175 1.474 . S
C174 C176 1.285 . S
C174 H194 0.929 . S
C175 C172 1.461 . S
C175 C174 1.474 . S
C176 C171 1.342 . S
C176 C174 1.285 . S
C176 H195 0.930 . S
C177 C180 1.424 . S
C177 C182 1.245 . S
C177 C183 1.428 . S
C178 C181 1.260 . S
C178 C182 1.477 . S
C178 H196 0.932 . S
C179 C180 1.384 . S
C179 C181 1.479 . S
C179 H197 0.929 . S
C180 C177 1.424 . S
C180 C179 1.384 . S
C180 H198 0.928 . S
C181 C178 1.260 . S
C181 C179 1.479 . S
C182 C177 1.245 . S
C182 C178 1.477 . S
C182 H199 0.932 . S
C183 U166 2.882 . S
C183 C177 1.428 . S
C183 O186 1.301 . S
C183 O187 1.282 . S
O184 U166 2.441 . S
O184 C170 1.249 . S
O185 U166 2.420 . S
O185 C170 1.202 . S
O186 U166 2.455 . S
O186 C183 1.301 . S
O187 U166 2.449 . S
O187 C183 1.282 . S
H188 C161 0.931 . S
H189 C163 0.929 . S
H190 C164 0.930 . S
H191 C165 0.931 . S
H192 C172 0.932 . S
H193 C173 0.930 . S
H194 C174 0.929 . S
H195 C176 0.930 . S
H196 C178 0.932 . S
H197 C179 0.929 . S
H198 C180 0.928 . S
H199 C182 0.932 . S
C200 C201 1.264 . S
C200 C205 1.479 . S
C200 C210 1.465 . S
C201 C200 1.264 . S
C201 C203 1.339 . S
C201 H228 0.931 . S
C202 C203 1.395 . S
C202 C204 1.320 . S
C203 C201 1.339 . S
C203 C202 1.395 . S
C203 H229 0.929 . S
C204 C202 1.320 . S
C204 C205 1.405 . S
C204 H230 0.930 . S
C205 C200 1.479 . S
C205 C204 1.405 . S
C205 H231 0.931 . S
U206 O207 2.454 . S
U206 O208 2.458 . S
U206 C209 2.984 . S
U206 C210 2.847 . S
U206 C223 2.882 . S
U206 O224 2.441 . S
U206 O225 2.420 . S
U206 O226 2.455 . S
U206 O227 2.449 . S
O207 U206 2.454 . S
O207 C209 1.353 . S
O208 U206 2.458 . S
O208 C209 1.286 . S
C209 U206 2.984 . S
C209 O207 1.353 . S
C209 O208 1.286 . S
C209 C211 1.363 . S
C210 C200 1.465 . S
C210 U206 2.847 . S
C210 O224 1.249 . S
C210 O225 1.202 . S
C211 C209 1.363 . S
C211 C213 1.408 . S
C211 C216 1.342 . S
C212 C213 1.310 . S
C212 C215 1.461 . S
C212 H232 0.932 . S
C213 C211 1.408 . S
C213 C212 1.310 . S
C213 H233 0.930 . S
C214 C215 1.474 . S
C214 C216 1.285 . S
C214 H234 0.929 . S
C215 C212 1.461 . S
C215 C214 1.474 . S
C216 C211 1.342 . S
C216 C214 1.285 . S
C216 H235 0.930 . S
C217 C220 1.424 . S
C217 C222 1.245 . S
C217 C223 1.428 . S
C218 C221 1.260 . S
C218 C222 1.477 . S
C218 H236 0.932 . S
C219 C220 1.384 . S
C219 C221 1.479 . S
C219 H237 0.929 . S
C220 C217 1.424 . S
C220 C219 1.384 . S
C220 H238 0.928 . S
C221 C218 1.260 . S
C221 C219 1.479 . S
C222 C217 1.245 . S
C222 C218 1.477 . S
C222 H239 0.932 . S
C223 U206 2.882 . S
C223 C217 1.428 . S
C223 O226 1.301 . S
C223 O227 1.282 . S
O224 U206 2.441 . S
O224 C210 1.249 . S
O225 U206 2.420 . S
O225 C210 1.202 . S
O226 U206 2.455 . S
O226 C223 1.301 . S
O227 U206 2.449 . S
O227 C223 1.282 . S
H228 C201 0.931 . S
H229 C203 0.929 . S
H230 C204 0.930 . S
H231 C205 0.931 . S
H232 C212 0.932 . S
H233 C213 0.930 . S
H234 C214 0.929 . S
H235 C216 0.930 . S
H236 C218 0.932 . S
H237 C219 0.929 . S
H238 C220 0.928 . S
H239 C222 0.932 . S
C240 C241 1.264 . S
C240 C245 1.479 . S
C240 C250 1.465 . S
C241 C240 1.264 . S
C241 C243 1.339 . S
C241 H268 0.931 . S
C242 C243 1.395 . S
C242 C244 1.320 . S
C243 C241 1.339 . S
C243 C242 1.395 . S
C243 H269 0.929 . S
C244 C242 1.320 . S
C244 C245 1.405 . S
C244 H270 0.930 . S
C245 C240 1.479 . S
C245 C244 1.405 . S
C245 H271 0.931 . S
U246 O247 2.454 . S
U246 O248 2.458 . S
U246 C249 2.984 . S
U246 C250 2.847 . S
U246 C263 2.882 . S
U246 O264 2.441 . S
U246 O265 2.420 . S
U246 O266 2.455 . S
U246 O267 2.449 . S
O247 U246 2.454 . S
O247 C249 1.353 . S
O248 U246 2.458 . S
O248 C249 1.286 . S
C249 U246 2.984 . S
C249 O247 1.353 . S
C249 O248 1.286 . S
C249 C251 1.363 . S
C250 C240 1.465 . S
C250 U246 2.847 . S
C250 O264 1.249 . S
C250 O265 1.202 . S
C251 C249 1.363 . S
C251 C253 1.408 . S
C251 C256 1.342 . S
C252 C253 1.310 . S
C252 C255 1.461 . S
C252 H272 0.932 . S
C253 C251 1.408 . S
C253 C252 1.310 . S
C253 H273 0.930 . S
C254 C255 1.474 . S
C254 C256 1.285 . S
C254 H274 0.929 . S
C255 C252 1.461 . S
C255 C254 1.474 . S
C256 C251 1.342 . S
C256 C254 1.285 . S
C256 H275 0.930 . S
C257 C260 1.424 . S
C257 C262 1.245 . S
C257 C263 1.428 . S
C258 C261 1.260 . S
C258 C262 1.477 . S
C258 H276 0.932 . S
C259 C260 1.384 . S
C259 C261 1.479 . S
C259 H277 0.929 . S
C260 C257 1.424 . S
C260 C259 1.384 . S
C260 H278 0.928 . S
C261 C258 1.260 . S
C261 C259 1.479 . S
C262 C257 1.245 . S
C262 C258 1.477 . S
C262 H279 0.932 . S
C263 U246 2.882 . S
C263 C257 1.428 . S
C263 O266 1.301 . S
C263 O267 1.282 . S
O264 U246 2.441 . S
O264 C250 1.249 . S
O265 U246 2.420 . S
O265 C250 1.202 . S
O266 U246 2.455 . S
O266 C263 1.301 . S
O267 U246 2.449 . S
O267 C263 1.282 . S
H268 C241 0.931 . S
H269 C243 0.929 . S
H270 C244 0.930 . S
H271 C245 0.931 . S
H272 C252 0.932 . S
H273 C253 0.930 . S
H274 C254 0.929 . S
H275 C256 0.930 . S
H276 C258 0.932 . S
H277 C259 0.929 . S
H278 C260 0.928 . S
H279 C262 0.932 . S
C280 C281 1.264 . S
C280 C285 1.479 . S
C280 C290 1.465 . S
C281 C280 1.264 . S
C281 C283 1.339 . S
C281 H308 0.931 . S
C282 C283 1.395 . S
C282 C284 1.320 . S
C283 C281 1.339 . S
C283 C282 1.395 . S
C283 H309 0.929 . S
C284 C282 1.320 . S
C284 C285 1.405 . S
C284 H310 0.930 . S
C285 C280 1.479 . S
C285 C284 1.405 . S
C285 H311 0.931 . S
U286 O287 2.454 . S
U286 O288 2.458 . S
U286 C289 2.984 . S
U286 C290 2.847 . S
U286 C303 2.882 . S
U286 O304 2.441 . S
U286 O305 2.420 . S
U286 O306 2.455 . S
U286 O307 2.449 . S
O287 U286 2.454 . S
O287 C289 1.353 . S
O288 U286 2.458 . S
O288 C289 1.286 . S
C289 U286 2.984 . S
C289 O287 1.353 . S
C289 O288 1.286 . S
C289 C291 1.363 . S
C290 C280 1.465 . S
C290 U286 2.847 . S
C290 O304 1.249 . S
C290 O305 1.202 . S
C291 C289 1.363 . S
C291 C293 1.408 . S
C291 C296 1.342 . S
C292 C293 1.310 . S
C292 C295 1.461 . S
C292 H312 0.932 . S
C293 C291 1.408 . S
C293 C292 1.310 . S
C293 H313 0.930 . S
C294 C295 1.474 . S
C294 C296 1.285 . S
C294 H314 0.929 . S
C295 C292 1.461 . S
C295 C294 1.474 . S
C296 C291 1.342 . S
C296 C294 1.285 . S
C296 H315 0.930 . S
C297 C300 1.424 . S
C297 C302 1.245 . S
C297 C303 1.428 . S
C298 C301 1.260 . S
C298 C302 1.477 . S
C298 H316 0.932 . S
C299 C300 1.384 . S
C299 C301 1.479 . S
C299 H317 0.929 . S
C300 C297 1.424 . S
C300 C299 1.384 . S
C300 H318 0.928 . S
C301 C298 1.260 . S
C301 C299 1.479 . S
C302 C297 1.245 . S
C302 C298 1.477 . S
C302 H319 0.932 . S
C303 U286 2.882 . S
C303 C297 1.428 . S
C303 O306 1.301 . S
C303 O307 1.282 . S
O304 U286 2.441 . S
O304 C290 1.249 . S
O305 U286 2.420 . S
O305 C290 1.202 . S
O306 U286 2.455 . S
O306 C303 1.301 . S
O307 U286 2.449 . S
O307 C303 1.282 . S
H308 C281 0.931 . S
H309 C283 0.929 . S
H310 C284 0.930 . S
H311 C285 0.931 . S
H312 C292 0.932 . S
H313 C293 0.930 . S
H314 C294 0.929 . S
H315 C296 0.930 . S
H316 C298 0.932 . S
H317 C299 0.929 . S
H318 C300 0.928 . S
H319 C302 0.932 . S
C320 C321 1.264 . S
C320 C325 1.479 . S
C320 C330 1.465 . S
C321 C320 1.264 . S
C321 C323 1.339 . S
C321 H348 0.931 . S
C322 C323 1.395 . S
C322 C324 1.320 . S
C323 C321 1.339 . S
C323 C322 1.395 . S
C323 H349 0.929 . S
C324 C322 1.320 . S
C324 C325 1.405 . S
C324 H350 0.930 . S
C325 C320 1.479 . S
C325 C324 1.405 . S
C325 H351 0.931 . S
U326 O327 2.454 . S
U326 O328 2.458 . S
U326 C329 2.984 . S
U326 C330 2.847 . S
U326 C343 2.882 . S
U326 O344 2.441 . S
U326 O345 2.420 . S
U326 O346 2.455 . S
U326 O347 2.449 . S
O327 U326 2.454 . S
O327 C329 1.353 . S
O328 U326 2.458 . S
O328 C329 1.286 . S
C329 U326 2.984 . S
C329 O327 1.353 . S
C329 O328 1.286 . S
C329 C331 1.363 . S
C330 C320 1.465 . S
C330 U326 2.847 . S
C330 O344 1.249 . S
C330 O345 1.202 . S
C331 C329 1.363 . S
C331 C333 1.408 . S
C331 C336 1.342 . S
C332 C333 1.310 . S
C332 C335 1.461 . S
C332 H352 0.932 . S
C333 C331 1.408 . S
C333 C332 1.310 . S
C333 H353 0.930 . S
C334 C335 1.474 . S
C334 C336 1.285 . S
C334 H354 0.929 . S
C335 C332 1.461 . S
C335 C334 1.474 . S
C336 C331 1.342 . S
C336 C334 1.285 . S
C336 H355 0.930 . S
C337 C340 1.424 . S
C337 C342 1.245 . S
C337 C343 1.428 . S
C338 C341 1.260 . S
C338 C342 1.477 . S
C338 H356 0.932 . S
C339 C340 1.384 . S
C339 C341 1.479 . S
C339 H357 0.929 . S
C340 C337 1.424 . S
C340 C339 1.384 . S
C340 H358 0.928 . S
C341 C338 1.260 . S
C341 C339 1.479 . S
C342 C337 1.245 . S
C342 C338 1.477 . S
C342 H359 0.932 . S
C343 U326 2.882 . S
C343 C337 1.428 . S
C343 O346 1.301 . S
C343 O347 1.282 . S
O344 U326 2.441 . S
O344 C330 1.249 . S
O345 U326 2.420 . S
O345 C330 1.202 . S
O346 U326 2.455 . S
O346 C343 1.301 . S
O347 U326 2.449 . S
O347 C343 1.282 . S
H348 C321 0.931 . S
H349 C323 0.929 . S
H350 C324 0.930 . S
H351 C325 0.931 . S
H352 C332 0.932 . S
H353 C333 0.930 . S
H354 C334 0.929 . S
H355 C336 0.930 . S
H356 C338 0.932 . S
H357 C339 0.929 . S
H358 C340 0.928 . S
H359 C342 0.932 . S
C360 C361 1.264 . S
C360 C365 1.479 . S
C360 C370 1.465 . S
C361 C360 1.264 . S
C361 C363 1.339 . S
C361 H388 0.931 . S
C362 C363 1.395 . S
C362 C364 1.320 . S
C363 C361 1.339 . S
C363 C362 1.395 . S
C363 H389 0.929 . S
C364 C362 1.320 . S
C364 C365 1.405 . S
C364 H390 0.930 . S
C365 C360 1.479 . S
C365 C364 1.405 . S
C365 H391 0.931 . S
U366 O367 2.454 . S
U366 O368 2.458 . S
U366 C369 2.984 . S
U366 C370 2.847 . S
U366 C383 2.882 . S
U366 O384 2.441 . S
U366 O385 2.420 . S
U366 O386 2.455 . S
U366 O387 2.449 . S
O367 U366 2.454 . S
O367 C369 1.353 . S
O368 U366 2.458 . S
O368 C369 1.286 . S
C369 U366 2.984 . S
C369 O367 1.353 . S
C369 O368 1.286 . S
C369 C371 1.363 . S
C370 C360 1.465 . S
C370 U366 2.847 . S
C370 O384 1.249 . S
C370 O385 1.202 . S
C371 C369 1.363 . S
C371 C373 1.408 . S
C371 C376 1.342 . S
C372 C373 1.310 . S
C372 C375 1.461 . S
C372 H392 0.932 . S
C373 C371 1.408 . S
C373 C372 1.310 . S
C373 H393 0.930 . S
C374 C375 1.474 . S
C374 C376 1.285 . S
C374 H394 0.929 . S
C375 C372 1.461 . S
C375 C374 1.474 . S
C376 C371 1.342 . S
C376 C374 1.285 . S
C376 H395 0.930 . S
C377 C380 1.424 . S
C377 C382 1.245 . S
C377 C383 1.428 . S
C378 C381 1.260 . S
C378 C382 1.477 . S
C378 H396 0.932 . S
C379 C380 1.384 . S
C379 C381 1.479 . S
C379 H397 0.929 . S
C380 C377 1.424 . S
C380 C379 1.384 . S
C380 H398 0.928 . S
C381 C378 1.260 . S
C381 C379 1.479 . S
C382 C377 1.245 . S
C382 C378 1.477 . S
C382 H399 0.932 . S
C383 U366 2.882 . S
C383 C377 1.428 . S
C383 O386 1.301 . S
C383 O387 1.282 . S
O384 U366 2.441 . S
O384 C370 1.249 . S
O385 U366 2.420 . S
O385 C370 1.202 . S
O386 U366 2.455 . S
O386 C383 1.301 . S
O387 U366 2.449 . S
O387 C383 1.282 . S
H388 C361 0.931 . S
H389 C363 0.929 . S
H390 C364 0.930 . S
H391 C365 0.931 . S
H392 C372 0.932 . S
H393 C373 0.930 . S
H394 C374 0.929 . S
H395 C376 0.930 . S
H396 C378 0.932 . S
H397 C379 0.929 . S
H398 C380 0.928 . S
H399 C382 0.932 . S
C400 C401 1.264 . S
C400 C405 1.479 . S
C400 C410 1.465 . S
C401 C400 1.264 . S
C401 C403 1.339 . S
C401 H428 0.931 . S
C402 C403 1.395 . S
C402 C404 1.320 . S
C403 C401 1.339 . S
C403 C402 1.395 . S
C403 H429 0.929 . S
C404 C402 1.320 . S
C404 C405 1.405 . S
C404 H430 0.930 . S
C405 C400 1.479 . S
C405 C404 1.405 . S
C405 H431 0.931 . S
U406 O407 2.454 . S
U406 O408 2.458 . S
U406 C409 2.984 . S
U406 C410 2.847 . S
U406 C423 2.882 . S
U406 O424 2.441 . S
U406 O425 2.420 . S
U406 O426 2.455 . S
U406 O427 2.449 . S
O407 U406 2.454 . S
O407 C409 1.353 . S
O408 U406 2.458 . S
O408 C409 1.286 . S
C409 U406 2.984 . S
C409 O407 1.353 . S
C409 O408 1.286 . S
C409 C411 1.363 . S
C410 C400 1.465 . S
C410 U406 2.847 . S
C410 O424 1.249 . S
C410 O425 1.202 . S
C411 C409 1.363 . S
C411 C413 1.408 . S
C411 C416 1.342 . S
C412 C413 1.310 . S
C412 C415 1.461 . S
C412 H432 0.932 . S
C413 C411 1.408 . S
C413 C412 1.310 . S
C413 H433 0.930 . S
C414 C415 1.474 . S
C414 C416 1.285 . S
C414 H434 0.929 . S
C415 C412 1.461 . S
C415 C414 1.474 . S
C416 C411 1.342 . S
C416 C414 1.285 . S
C416 H435 0.930 . S
C417 C420 1.424 . S
C417 C422 1.245 . S
C417 C423 1.428 . S
C418 C421 1.260 . S
C418 C422 1.477 . S
C418 H436 0.932 . S
C419 C420 1.384 . S
C419 C421 1.479 . S
C419 H437 0.929 . S
C420 C417 1.424 . S
C420 C419 1.384 . S
C420 H438 0.928 . S
C421 C418 1.260 . S
C421 C419 1.479 . S
C422 C417 1.245 . S
C422 C418 1.477 . S
C422 H439 0.932 . S
C423 U406 2.882 . S
C423 C417 1.428 . S
C423 O426 1.301 . S
C423 O427 1.282 . S
O424 U406 2.441 . S
O424 C410 1.249 . S
O425 U406 2.420 . S
O425 C410 1.202 . S
O426 U406 2.455 . S
O426 C423 1.301 . S
O427 U406 2.449 . S
O427 C423 1.282 . S
H428 C401 0.931 . S
H429 C403 0.929 . S
H430 C404 0.930 . S
H431 C405 0.931 . S
H432 C412 0.932 . S
H433 C413 0.930 . S
H434 C414 0.929 . S
H435 C416 0.930 . S
H436 C418 0.932 . S
H437 C419 0.929 . S
H438 C420 0.928 . S
H439 C422 0.932 . S
C440 C441 1.264 . S
C440 C445 1.479 . S
C440 C450 1.465 . S
C441 C440 1.264 . S
C441 C443 1.339 . S
C441 H468 0.931 . S
C442 C443 1.395 . S
C442 C444 1.320 . S
C443 C441 1.339 . S
C443 C442 1.395 . S
C443 H469 0.929 . S
C444 C442 1.320 . S
C444 C445 1.405 . S
C444 H470 0.930 . S
C445 C440 1.479 . S
C445 C444 1.405 . S
C445 H471 0.931 . S
U446 O447 2.454 . S
U446 O448 2.458 . S
U446 C449 2.984 . S
U446 C450 2.847 . S
U446 C463 2.882 . S
U446 O464 2.441 . S
U446 O465 2.420 . S
U446 O466 2.455 . S
U446 O467 2.449 . S
O447 U446 2.454 . S
O447 C449 1.353 . S
O448 U446 2.458 . S
O448 C449 1.286 . S
C449 U446 2.984 . S
C449 O447 1.353 . S
C449 O448 1.286 . S
C449 C451 1.363 . S
C450 C440 1.465 . S
C450 U446 2.847 . S
C450 O464 1.249 . S
C450 O465 1.202 . S
C451 C449 1.363 . S
C451 C453 1.408 . S
C451 C456 1.342 . S
C452 C453 1.310 . S
C452 C455 1.461 . S
C452 H472 0.932 . S
C453 C451 1.408 . S
C453 C452 1.310 . S
C453 H473 0.930 . S
C454 C455 1.474 . S
C454 C456 1.285 . S
C454 H474 0.929 . S
C455 C452 1.461 . S
C455 C454 1.474 . S
C456 C451 1.342 . S
C456 C454 1.285 . S
C456 H475 0.930 . S
C457 C460 1.424 . S
C457 C462 1.245 . S
C457 C463 1.428 . S
C458 C461 1.260 . S
C458 C462 1.477 . S
C458 H476 0.932 . S
C459 C460 1.384 . S
C459 C461 1.479 . S
C459 H477 0.929 . S
C460 C457 1.424 . S
C460 C459 1.384 . S
C460 H478 0.928 . S
C461 C458 1.260 . S
C461 C459 1.479 . S
C462 C457 1.245 . S
C462 C458 1.477 . S
C462 H479 0.932 . S
C463 U446 2.882 . S
C463 C457 1.428 . S
C463 O466 1.301 . S
C463 O467 1.282 . S
O464 U446 2.441 . S
O464 C450 1.249 . S
O465 U446 2.420 . S
O465 C450 1.202 . S
O466 U446 2.455 . S
O466 C463 1.301 . S
O467 U446 2.449 . S
O467 C463 1.282 . S
H468 C441 0.931 . S
H469 C443 0.929 . S
H470 C444 0.930 . S
H471 C445 0.931 . S
H472 C452 0.932 . S
H473 C453 0.930 . S
H474 C454 0.929 . S
H475 C456 0.930 . S
H476 C458 0.932 . S
H477 C459 0.929 . S
H478 C460 0.928 . S
H479 C462 0.932 . S
C480 C481 1.264 . S
C480 C485 1.479 . S
C480 C490 1.465 . S
C481 C480 1.264 . S
C481 C483 1.339 . S
C481 H508 0.931 . S
C482 C483 1.395 . S
C482 C484 1.320 . S
C483 C481 1.339 . S
C483 C482 1.395 . S
C483 H509 0.929 . S
C484 C482 1.320 . S
C484 C485 1.405 . S
C484 H510 0.930 . S
C485 C480 1.479 . S
C485 C484 1.405 . S
C485 H511 0.931 . S
U486 O487 2.454 . S
U486 O488 2.458 . S
U486 C489 2.984 . S
U486 C490 2.847 . S
U486 C503 2.882 . S
U486 O504 2.441 . S
U486 O505 2.420 . S
U486 O506 2.455 . S
U486 O507 2.449 . S
O487 U486 2.454 . S
O487 C489 1.353 . S
O488 U486 2.458 . S
O488 C489 1.286 . S
C489 U486 2.984 . S
C489 O487 1.353 . S
C489 O488 1.286 . S
C489 C491 1.363 . S
C490 C480 1.465 . S
C490 U486 2.847 . S
C490 O504 1.249 . S
C490 O505 1.202 . S
C491 C489 1.363 . S
C491 C493 1.408 . S
C491 C496 1.342 . S
C492 C493 1.310 . S
C492 C495 1.461 . S
C492 H512 0.932 . S
C493 C491 1.408 . S
C493 C492 1.310 . S
C493 H513 0.930 . S
C494 C495 1.474 . S
C494 C496 1.285 . S
C494 H514 0.929 . S
C495 C492 1.461 . S
C495 C494 1.474 . S
C496 C491 1.342 . S
C496 C494 1.285 . S
C496 H515 0.930 . S
C497 C500 1.424 . S
C497 C502 1.245 . S
C497 C503 1.428 . S
C498 C501 1.260 . S
C498 C502 1.477 . S
C498 H516 0.932 . S
C499 C500 1.384 . S
C499 C501 1.479 . S
C499 H517 0.929 . S
C500 C497 1.424 . S
C500 C499 1.384 . S
C500 H518 0.928 . S
C501 C498 1.260 . S
C501 C499 1.479 . S
C502 C497 1.245 . S
C502 C498 1.477 . S
C502 H519 0.932 . S
C503 U486 2.882 . S
C503 C497 1.428 . S
C503 O506 1.301 . S
C503 O507 1.282 . S
O504 U486 2.441 . S
O504 C490 1.249 . S
O505 U486 2.420 . S
O505 C490 1.202 . S
O506 U486 2.455 . S
O506 C503 1.301 . S
O507 U486 2.449 . S
O507 C503 1.282 . S
H508 C481 0.931 . S
H509 C483 0.929 . S
H510 C484 0.930 . S
H511 C485 0.931 . S
H512 C492 0.932 . S
H513 C493 0.930 . S
H514 C494 0.929 . S
H515 C496 0.930 . S
H516 C498 0.932 . S
H517 C499 0.929 . S
H518 C500 0.928 . S
H519 C502 0.932 . S
C520 C521 1.264 . S
C520 C525 1.479 . S
C520 C530 1.465 . S
C521 C520 1.264 . S
C521 C523 1.339 . S
C521 H548 0.931 . S
C522 C523 1.395 . S
C522 C524 1.320 . S
C523 C521 1.339 . S
C523 C522 1.395 . S
C523 H549 0.929 . S
C524 C522 1.320 . S
C524 C525 1.405 . S
C524 H550 0.930 . S
C525 C520 1.479 . S
C525 C524 1.405 . S
C525 H551 0.931 . S
U526 O527 2.454 . S
U526 O528 2.458 . S
U526 C529 2.984 . S
U526 C530 2.847 . S
U526 C543 2.882 . S
U526 O544 2.441 . S
U526 O545 2.420 . S
U526 O546 2.455 . S
U526 O547 2.449 . S
O527 U526 2.454 . S
O527 C529 1.353 . S
O528 U526 2.458 . S
O528 C529 1.286 . S
C529 U526 2.984 . S
C529 O527 1.353 . S
C529 O528 1.286 . S
C529 C531 1.363 . S
C530 C520 1.465 . S
C530 U526 2.847 . S
C530 O544 1.249 . S
C530 O545 1.202 . S
C531 C529 1.363 . S
C531 C533 1.408 . S
C531 C536 1.342 . S
C532 C533 1.310 . S
C532 C535 1.461 . S
C532 H552 0.932 . S
C533 C531 1.408 . S
C533 C532 1.310 . S
C533 H553 0.930 . S
C534 C535 1.474 . S
C534 C536 1.285 . S
C534 H554 0.929 . S
C535 C532 1.461 . S
C535 C534 1.474 . S
C536 C531 1.342 . S
C536 C534 1.285 . S
C536 H555 0.930 . S
C537 C540 1.424 . S
C537 C542 1.245 . S
C537 C543 1.428 . S
C538 C541 1.260 . S
C538 C542 1.477 . S
C538 H556 0.932 . S
C539 C540 1.384 . S
C539 C541 1.479 . S
C539 H557 0.929 . S
C540 C537 1.424 . S
C540 C539 1.384 . S
C540 H558 0.928 . S
C541 C538 1.260 . S
C541 C539 1.479 . S
C542 C537 1.245 . S
C542 C538 1.477 . S
C542 H559 0.932 . S
C543 U526 2.882 . S
C543 C537 1.428 . S
C543 O546 1.301 . S
C543 O547 1.282 . S
O544 U526 2.441 . S
O544 C530 1.249 . S
O545 U526 2.420 . S
O545 C530 1.202 . S
O546 U526 2.455 . S
O546 C543 1.301 . S
O547 U526 2.449 . S
O547 C543 1.282 . S
H548 C521 0.931 . S
H549 C523 0.929 . S
H550 C524 0.930 . S
H551 C525 0.931 . S
H552 C532 0.932 . S
H553 C533 0.930 . S
H554 C534 0.929 . S
H555 C536 0.930 . S
H556 C538 0.932 . S
H557 C539 0.929 . S
H558 C540 0.928 . S
H559 C542 0.932 . S
C560 C561 1.264 . S
C560 C565 1.479 . S
C560 C570 1.465 . S
C561 C560 1.264 . S
C561 C563 1.339 . S
C561 H588 0.931 . S
C562 C563 1.395 . S
C562 C564 1.320 . S
C563 C561 1.339 . S
C563 C562 1.395 . S
C563 H589 0.929 . S
C564 C562 1.320 . S
C564 C565 1.405 . S
C564 H590 0.930 . S
C565 C560 1.479 . S
C565 C564 1.405 . S
C565 H591 0.931 . S
U566 O567 2.454 . S
U566 O568 2.458 . S
U566 C569 2.984 . S
U566 C570 2.847 . S
U566 C583 2.882 . S
U566 O584 2.441 . S
U566 O585 2.420 . S
U566 O586 2.455 . S
U566 O587 2.449 . S
O567 U566 2.454 . S
O567 C569 1.353 . S
O568 U566 2.458 . S
O568 C569 1.286 . S
C569 U566 2.984 . S
C569 O567 1.353 . S
C569 O568 1.286 . S
C569 C571 1.363 . S
C570 C560 1.465 . S
C570 U566 2.847 . S
C570 O584 1.249 . S
C570 O585 1.202 . S
C571 C569 1.363 . S
C571 C573 1.408 . S
C571 C576 1.342 . S
C572 C573 1.310 . S
C572 C575 1.461 . S
C572 H592 0.932 . S
C573 C571 1.408 . S
C573 C572 1.310 . S
C573 H593 0.930 . S
C574 C575 1.474 . S
C574 C576 1.285 . S
C574 H594 0.929 . S
C575 C572 1.461 . S
C575 C574 1.474 . S
C576 C571 1.342 . S
C576 C574 1.285 . S
C576 H595 0.930 . S
C577 C580 1.424 . S
C577 C582 1.245 . S
C577 C583 1.428 . S
C578 C581 1.260 . S
C578 C582 1.477 . S
C578 H596 0.932 . S
C579 C580 1.384 . S
C579 C581 1.479 . S
C579 H597 0.929 . S
C580 C577 1.424 . S
C580 C579 1.384 . S
C580 H598 0.928 . S
C581 C578 1.260 . S
C581 C579 1.479 . S
C582 C577 1.245 . S
C582 C578 1.477 . S
C582 H599 0.932 . S
C583 U566 2.882 . S
C583 C577 1.428 . S
C583 O586 1.301 . S
C583 O587 1.282 . S
O584 U566 2.441 . S
O584 C570 1.249 . S
O585 U566 2.420 . S
O585 C570 1.202 . S
O586 U566 2.455 . S
O586 C583 1.301 . S
O587 U566 2.449 . S
O587 C583 1.282 . S
H588 C561 0.931 . S
H589 C563 0.929 . S
H590 C564 0.930 . S
H591 C565 0.931 . S
H592 C572 0.932 . S
H593 C573 0.930 . S
H594 C574 0.929 . S
H595 C576 0.930 . S
H596 C578 0.932 . S
H597 C579 0.929 . S
H598 C580 0.928 . S
H599 C582 0.932 . S
C600 C601 1.264 . S
C600 C605 1.479 . S
C600 C610 1.465 . S
C601 C600 1.264 . S
C601 C603 1.339 . S
C601 H628 0.931 . S
C602 C603 1.395 . S
C602 C604 1.320 . S
C603 C601 1.339 . S
C603 C602 1.395 . S
C603 H629 0.929 . S
C604 C602 1.320 . S
C604 C605 1.405 . S
C604 H630 0.930 . S
C605 C600 1.479 . S
C605 C604 1.405 . S
C605 H631 0.931 . S
U606 O607 2.454 . S
U606 O608 2.458 . S
U606 C609 2.984 . S
U606 C610 2.847 . S
U606 C623 2.882 . S
U606 O624 2.441 . S
U606 O625 2.420 . S
U606 O626 2.455 . S
U606 O627 2.449 . S
O607 U606 2.454 . S
O607 C609 1.353 . S
O608 U606 2.458 . S
O608 C609 1.286 . S
C609 U606 2.984 . S
C609 O607 1.353 . S
C609 O608 1.286 . S
C609 C611 1.363 . S
C610 C600 1.465 . S
C610 U606 2.847 . S
C610 O624 1.249 . S
C610 O625 1.202 . S
C611 C609 1.363 . S
C611 C613 1.408 . S
C611 C616 1.342 . S
C612 C613 1.310 . S
C612 C615 1.461 . S
C612 H632 0.932 . S
C613 C611 1.408 . S
C613 C612 1.310 . S
C613 H633 0.930 . S
C614 C615 1.474 . S
C614 C616 1.285 . S
C614 H634 0.929 . S
C615 C612 1.461 . S
C615 C614 1.474 . S
C616 C611 1.342 . S
C616 C614 1.285 . S
C616 H635 0.930 . S
C617 C620 1.424 . S
C617 C622 1.245 . S
C617 C623 1.428 . S
C618 C621 1.260 . S
C618 C622 1.477 . S
C618 H636 0.932 . S
C619 C620 1.384 . S
C619 C621 1.479 . S
C619 H637 0.929 . S
C620 C617 1.424 . S
C620 C619 1.384 . S
C620 H638 0.928 . S
C621 C618 1.260 . S
C621 C619 1.479 . S
C622 C617 1.245 . S
C622 C618 1.477 . S
C622 H639 0.932 . S
C623 U606 2.882 . S
C623 C617 1.428 . S
C623 O626 1.301 . S
C623 O627 1.282 . S
O624 U606 2.441 . S
O624 C610 1.249 . S
O625 U606 2.420 . S
O625 C610 1.202 . S
O626 U606 2.455 . S
O626 C623 1.301 . S
O627 U606 2.449 . S
O627 C623 1.282 . S
H628 C601 0.931 . S
H629 C603 0.929 . S
H630 C604 0.930 . S
H631 C605 0.931 . S
H632 C612 0.932 . S
H633 C613 0.930 . S
H634 C614 0.929 . S
H635 C616 0.930 . S
H636 C618 0.932 . S
H637 C619 0.929 . S
H638 C620 0.928 . S
H639 C622 0.932 . S
C640 C641 1.349 . S
C640 C642 1.327 . S
C640 H665 0.950 . S
C641 C640 1.349 . S
C641 C657 1.349 . S
C642 C640 1.327 . S
C642 C661 1.429 . S
C642 H666 0.950 1_556 S
C643 C660 1.574 1_565 S
C643 C662 1.368 . S
C643 H667 0.949 . S
H644 C648 0.949 . S
C645 C646 1.349 . S
C645 C647 1.327 . S
C645 H668 0.950 . S
C646 C645 1.349 . S
C646 C658 1.349 . S
C647 C645 1.327 . S
C647 C663 1.429 . S
C647 H669 0.950 1_554 S
C648 H644 0.949 . S
C648 C656 1.574 1_545 S
C648 C664 1.368 . S
H649 C657 0.950 . S
H650 C655 0.950 . S
H651 C656 0.949 . S
H652 C658 0.950 . S
H653 C659 0.950 . S
H654 C660 0.949 . S
C655 H650 0.950 . S
C655 C657 1.327 . S
C655 C661 1.429 . S
C656 C648 1.574 1_565 S
C656 H651 0.949 . S
C656 C662 1.368 1_554 S
C657 C641 1.349 . S
C657 H649 0.950 . S
C657 C655 1.327 . S
C658 C646 1.349 . S
C658 H652 0.950 . S
C658 C659 1.327 . S
C659 H653 0.950 . S
C659 C658 1.327 . S
C659 C663 1.429 . S
C660 C643 1.574 1_545 S
C660 H654 0.949 . S
C660 C664 1.368 1_556 S
C661 C642 1.429 . S
C661 C655 1.429 . S
C661 C662 1.523 . S
C662 C643 1.368 . S
C662 C656 1.368 1_556 S
C662 C661 1.523 . S
C663 C647 1.429 . S
C663 C659 1.429 . S
C663 C664 1.523 . S
C664 C648 1.368 . S
C664 C660 1.368 1_554 S
C664 C663 1.523 . S
H665 C640 0.950 . S
H666 C642 0.950 1_554 S
H667 C643 0.949 . S
H668 C645 0.950 . S
H669 C647 0.950 1_556 S
C670 C671 1.349 . S
C670 C672 1.327 . S
C670 H695 0.950 . S
C671 C670 1.349 . S
C671 C687 1.349 . S
C672 C670 1.327 . S
C672 C691 1.429 . S
C672 H696 0.950 1_554 S
C673 C690 1.574 1_655 S
C673 C692 1.368 . S
C673 H697 0.949 . S
H674 C678 0.949 . S
C675 C676 1.349 . S
C675 C677 1.327 . S
C675 H698 0.950 . S
C676 C675 1.349 . S
C676 C688 1.349 . S
C677 C675 1.327 . S
C677 C693 1.429 . S
C677 H699 0.950 1_556 S
C678 H674 0.949 . S
C678 C686 1.574 1_455 S
C678 C694 1.368 . S
H679 C687 0.950 . S
H680 C685 0.950 . S
H681 C686 0.949 . S
H682 C688 0.950 . S
H683 C689 0.950 . S
H684 C690 0.949 . S
C685 H680 0.950 . S
C685 C687 1.327 . S
C685 C691 1.429 . S
C686 C678 1.574 1_655 S
C686 H681 0.949 . S
C686 C692 1.368 1_556 S
C687 C671 1.349 . S
C687 H679 0.950 . S
C687 C685 1.327 . S
C688 C676 1.349 . S
C688 H682 0.950 . S
C688 C689 1.327 . S
C689 H683 0.950 . S
C689 C688 1.327 . S
C689 C693 1.429 . S
C690 C673 1.574 1_455 S
C690 H684 0.949 . S
C690 C694 1.368 1_554 S
C691 C672 1.429 . S
C691 C685 1.429 . S
C691 C692 1.523 . S
C692 C673 1.368 . S
C692 C686 1.368 1_554 S
C692 C691 1.523 . S
C693 C677 1.429 . S
C693 C689 1.429 . S
C693 C694 1.523 . S
C694 C678 1.368 . S
C694 C690 1.368 1_556 S
C694 C693 1.523 . S
H695 C670 0.950 . S
H696 C672 0.950 1_556 S
H697 C673 0.949 . S
H698 C675 0.950 . S
H699 C677 0.950 1_554 S
C700 C701 1.349 . S
C700 C702 1.327 . S
C700 H725 0.950 . S
C701 C700 1.349 . S
C701 C717 1.349 . S
C702 C700 1.327 . S
C702 C721 1.429 . S
C702 H726 0.950 . S
C703 C720 1.574 1_545 S
C703 C722 1.368 1_554 S
C703 H727 0.949 . S
H704 C708 0.949 . S
C705 C706 1.349 . S
C705 C707 1.327 . S
C705 H728 0.950 . S
C706 C705 1.349 . S
C706 C718 1.349 . S
C707 C705 1.327 . S
C707 C723 1.429 . S
C707 H729 0.950 . S
C708 H704 0.949 . S
C708 C716 1.574 1_565 S
C708 C724 1.368 1_556 S
H709 C717 0.950 . S
H710 C715 0.950 1_554 S
H711 C716 0.949 . S
H712 C718 0.950 . S
H713 C719 0.950 1_556 S
H714 C720 0.949 . S
C715 H710 0.950 1_556 S
C715 C717 1.327 . S
C715 C721 1.429 . S
C716 C708 1.574 1_545 S
C716 H711 0.949 . S
C716 C722 1.368 . S
C717 C701 1.349 . S
C717 H709 0.950 . S
C717 C715 1.327 . S
C718 C706 1.349 . S
C718 H712 0.950 . S
C718 C719 1.327 . S
C719 H713 0.950 1_554 S
C719 C718 1.327 . S
C719 C723 1.429 . S
C720 C703 1.574 1_565 S
C720 H714 0.949 . S
C720 C724 1.368 . S
C721 C702 1.429 . S
C721 C715 1.429 . S
C721 C722 1.523 . S
C722 C703 1.368 1_556 S
C722 C716 1.368 . S
C722 C721 1.523 . S
C723 C707 1.429 . S
C723 C719 1.429 . S
C723 C724 1.523 . S
C724 C708 1.368 1_554 S
C724 C720 1.368 . S
C724 C723 1.523 . S
H725 C700 0.950 . S
H726 C702 0.950 . S
H727 C703 0.949 . S
H728 C705 0.950 . S
H729 C707 0.950 . S
C730 C731 1.349 . S
C730 C732 1.327 . S
C730 H755 0.950 . S
C731 C730 1.349 . S
C731 C747 1.349 . S
C732 C730 1.327 . S
C732 C751 1.429 . S
C732 H756 0.950 . S
C733 C750 1.574 1_455 S
C733 C752 1.368 1_556 S
C733 H757 0.949 . S
H734 C738 0.949 . S
C735 C736 1.349 . S
C735 C737 1.327 . S
C735 H758 0.950 . S
C736 C735 1.349 . S
C736 C748 1.349 . S
C737 C735 1.327 . S
C737 C753 1.429 . S
C737 H759 0.950 . S
C738 H734 0.949 . S
C738 C746 1.574 1_655 S
C738 C754 1.368 1_554 S
H739 C747 0.950 . S
H740 C745 0.950 1_556 S
H741 C746 0.949 . S
H742 C748 0.950 . S
H743 C749 0.950 1_554 S
H744 C750 0.949 . S
C745 H740 0.950 1_554 S
C745 C747 1.327 . S
C745 C751 1.429 . S
C746 C738 1.574 1_455 S
C746 H741 0.949 . S
C746 C752 1.368 . S
C747 C731 1.349 . S
C747 H739 0.950 . S
C747 C745 1.327 . S
C748 C736 1.349 . S
C748 H742 0.950 . S
C748 C749 1.327 . S
C749 H743 0.950 1_556 S
C749 C748 1.327 . S
C749 C753 1.429 . S
C750 C733 1.574 1_655 S
C750 H744 0.949 . S
C750 C754 1.368 . S
C751 C732 1.429 . S
C751 C745 1.429 . S
C751 C752 1.523 . S
C752 C733 1.368 1_554 S
C752 C746 1.368 . S
C752 C751 1.523 . S
C753 C737 1.429 . S
C753 C749 1.429 . S
C753 C754 1.523 . S
C754 C738 1.368 1_556 S
C754 C750 1.368 . S
C754 C753 1.523 . S
H755 C730 0.950 . S
H756 C732 0.950 . S
H757 C733 0.949 . S
H758 C735 0.950 . S
H759 C737 0.950 . S
C760 C761 1.349 . S
C760 C762 1.327 . S
C760 H785 0.950 . S
C761 C760 1.349 . S
C761 C777 1.349 . S
C762 C760 1.327 . S
C762 C781 1.429 . S
C762 H786 0.950 . S
C763 C780 1.574 . S
C763 C782 1.368 . S
C763 H787 0.949 . S
H764 C768 0.949 . S
C765 C766 1.349 . S
C765 C767 1.327 . S
C765 H788 0.950 . S
C766 C765 1.349 . S
C766 C778 1.349 . S
C767 C765 1.327 . S
C767 C783 1.429 . S
C767 H789 0.950 . S
C768 H764 0.949 . S
C768 C776 1.574 . S
C768 C784 1.368 . S
H769 C777 0.950 . S
H770 C775 0.950 . S
H771 C776 0.949 . S
H772 C778 0.950 . S
H773 C779 0.950 . S
H774 C780 0.949 . S
C775 H770 0.950 . S
C775 C777 1.327 . S
C775 C781 1.429 . S
C776 C768 1.574 . S
C776 H771 0.949 . S
C776 C782 1.368 . S
C777 C761 1.349 . S
C777 H769 0.950 . S
C777 C775 1.327 . S
C778 C766 1.349 . S
C778 H772 0.950 . S
C778 C779 1.327 . S
C779 H773 0.950 . S
C779 C778 1.327 . S
C779 C783 1.429 . S
C780 C763 1.574 . S
C780 H774 0.949 . S
C780 C784 1.368 . S
C781 C762 1.429 . S
C781 C775 1.429 . S
C781 C782 1.523 . S
C782 C763 1.368 . S
C782 C776 1.368 . S
C782 C781 1.523 . S
C783 C767 1.429 . S
C783 C779 1.429 . S
C783 C784 1.523 . S
C784 C768 1.368 . S
C784 C780 1.368 . S
C784 C783 1.523 . S
H785 C760 0.950 . S
H786 C762 0.950 . S
H787 C763 0.949 . S
H788 C765 0.950 . S
H789 C767 0.950 . S
C790 C791 1.349 . S
C790 C792 1.327 . S
C790 H815 0.950 . S
C791 C790 1.349 . S
C791 C807 1.349 . S
C792 C790 1.327 . S
C792 C811 1.429 . S
C792 H816 0.950 . S
C793 C810 1.574 . S
C793 C812 1.368 . S
C793 H817 0.949 . S
H794 C798 0.949 . S
C795 C796 1.349 . S
C795 C797 1.327 . S
C795 H818 0.950 . S
C796 C795 1.349 . S
C796 C808 1.349 . S
C797 C795 1.327 . S
C797 C813 1.429 . S
C797 H819 0.950 . S
C798 H794 0.949 . S
C798 C806 1.574 . S
C798 C814 1.368 . S
H799 C807 0.950 . S
H800 C805 0.950 . S
H801 C806 0.949 . S
H802 C808 0.950 . S
H803 C809 0.950 . S
H804 C810 0.949 . S
C805 H800 0.950 . S
C805 C807 1.327 . S
C805 C811 1.429 . S
C806 C798 1.574 . S
C806 H801 0.949 . S
C806 C812 1.368 . S
C807 C791 1.349 . S
C807 H799 0.950 . S
C807 C805 1.327 . S
C808 C796 1.349 . S
C808 H802 0.950 . S
C808 C809 1.327 . S
C809 H803 0.950 . S
C809 C808 1.327 . S
C809 C813 1.429 . S
C810 C793 1.574 . S
C810 H804 0.949 . S
C810 C814 1.368 . S
C811 C792 1.429 . S
C811 C805 1.429 . S
C811 C812 1.523 . S
C812 C793 1.368 . S
C812 C806 1.368 . S
C812 C811 1.523 . S
C813 C797 1.429 . S
C813 C809 1.429 . S
C813 C814 1.523 . S
C814 C798 1.368 . S
C814 C810 1.368 . S
C814 C813 1.523 . S
H815 C790 0.950 . S
H816 C792 0.950 . S
H817 C793 0.949 . S
H818 C795 0.950 . S
H819 C797 0.950 . S
C820 C821 1.349 . S
C820 C822 1.327 . S
C820 H845 0.950 . S
C821 C820 1.349 . S
C821 C837 1.349 . S
C822 C820 1.327 . S
C822 C841 1.429 . S
C822 H846 0.950 . S
C823 C840 1.574 . S
C823 C842 1.368 . S
C823 H847 0.949 . S
H824 C828 0.949 . S
C825 C826 1.349 . S
C825 C827 1.327 . S
C825 H848 0.950 . S
C826 C825 1.349 . S
C826 C838 1.349 . S
C827 C825 1.327 . S
C827 C843 1.429 . S
C827 H849 0.950 . S
C828 H824 0.949 . S
C828 C836 1.574 . S
C828 C844 1.368 . S
H829 C837 0.950 . S
H830 C835 0.950 . S
H831 C836 0.949 . S
H832 C838 0.950 . S
H833 C839 0.950 . S
H834 C840 0.949 . S
C835 H830 0.950 . S
C835 C837 1.327 . S
C835 C841 1.429 . S
C836 C828 1.574 . S
C836 H831 0.949 . S
C836 C842 1.368 . S
C837 C821 1.349 . S
C837 H829 0.950 . S
C837 C835 1.327 . S
C838 C826 1.349 . S
C838 H832 0.950 . S
C838 C839 1.327 . S
C839 H833 0.950 . S
C839 C838 1.327 . S
C839 C843 1.429 . S
C840 C823 1.574 . S
C840 H834 0.949 . S
C840 C844 1.368 . S
C841 C822 1.429 . S
C841 C835 1.429 . S
C841 C842 1.523 . S
C842 C823 1.368 . S
C842 C836 1.368 . S
C842 C841 1.523 . S
C843 C827 1.429 . S
C843 C839 1.429 . S
C843 C844 1.523 . S
C844 C828 1.368 . S
C844 C840 1.368 . S
C844 C843 1.523 . S
H845 C820 0.950 . S
H846 C822 0.950 . S
H847 C823 0.949 . S
H848 C825 0.950 . S
H849 C827 0.950 . S
C850 C851 1.349 . S
C850 C852 1.327 . S
C850 H875 0.950 . S
C851 C850 1.349 . S
C851 C867 1.349 . S
C852 C850 1.327 . S
C852 C871 1.429 . S
C852 H876 0.950 . S
C853 C870 1.574 . S
C853 C872 1.368 . S
C853 H877 0.949 . S
H854 C858 0.949 . S
C855 C856 1.349 . S
C855 C857 1.327 . S
C855 H878 0.950 . S
C856 C855 1.349 . S
C856 C868 1.349 . S
C857 C855 1.327 . S
C857 C873 1.429 . S
C857 H879 0.950 . S
C858 H854 0.949 . S
C858 C866 1.574 . S
C858 C874 1.368 . S
H859 C867 0.950 . S
H860 C865 0.950 . S
H861 C866 0.949 . S
H862 C868 0.950 . S
H863 C869 0.950 . S
H864 C870 0.949 . S
C865 H860 0.950 . S
C865 C867 1.327 . S
C865 C871 1.429 . S
C866 C858 1.574 . S
C866 H861 0.949 . S
C866 C872 1.368 . S
C867 C851 1.349 . S
C867 H859 0.950 . S
C867 C865 1.327 . S
C868 C856 1.349 . S
C868 H862 0.950 . S
C868 C869 1.327 . S
C869 H863 0.950 . S
C869 C868 1.327 . S
C869 C873 1.429 . S
C870 C853 1.574 . S
C870 H864 0.949 . S
C870 C874 1.368 . S
C871 C852 1.429 . S
C871 C865 1.429 . S
C871 C872 1.523 . S
C872 C853 1.368 . S
C872 C866 1.368 . S
C872 C871 1.523 . S
C873 C857 1.429 . S
C873 C869 1.429 . S
C873 C874 1.523 . S
C874 C858 1.368 . S
C874 C870 1.368 . S
C874 C873 1.523 . S
H875 C850 0.950 . S
H876 C852 0.950 . S
H877 C853 0.949 . S
H878 C855 0.950 . S
H879 C857 0.950 . S
C880 C881 1.349 . S
C880 C882 1.327 . S
C880 H905 0.950 . S
C881 C880 1.349 . S
C881 C897 1.349 . S
C882 C880 1.327 . S
C882 C901 1.429 . S
C882 H906 0.979 . S
C883 C900 1.574 . S
C883 C902 1.368 . S
C883 H907 0.949 . S
H884 C888 0.949 . S
C885 C886 1.349 . S
C885 C887 1.327 . S
C885 H908 0.950 . S
C886 C885 1.349 . S
C886 C898 1.349 . S
C887 C885 1.327 . S
C887 C903 1.429 . S
C887 H909 0.979 . S
C888 H884 0.949 . S
C888 C896 1.574 . S
C888 C904 1.368 . S
H889 C897 0.950 . S
H890 C895 0.950 . S
H891 C896 0.949 . S
H892 C898 0.950 . S
H893 C899 0.950 . S
H894 C900 0.949 . S
C895 H890 0.950 . S
C895 C897 1.327 . S
C895 C901 1.429 . S
C896 C888 1.574 . S
C896 H891 0.949 . S
C896 C902 1.368 1_556 S
C897 C881 1.349 . S
C897 H889 0.950 . S
C897 C895 1.327 . S
C898 C886 1.349 . S
C898 H892 0.950 . S
C898 C899 1.327 . S
C899 H893 0.950 . S
C899 C898 1.327 . S
C899 C903 1.429 . S
C900 C883 1.574 . S
C900 H894 0.949 . S
C900 C904 1.368 1_554 S
C901 C882 1.429 . S
C901 C895 1.429 . S
C901 C902 1.523 . S
C902 C883 1.368 . S
C902 C896 1.368 1_554 S
C902 C901 1.523 . S
C903 C887 1.429 . S
C903 C899 1.429 . S
C903 C904 1.523 . S
C904 C888 1.368 . S
C904 C900 1.368 1_556 S
C904 C903 1.523 . S
H905 C880 0.950 . S
H906 C882 0.979 . S
H907 C883 0.949 . S
H908 C885 0.950 . S
H909 C887 0.979 . S
C910 C911 1.349 . S
C910 C912 1.327 . S
C910 H935 0.950 . S
C911 C910 1.349 . S
C911 C927 1.349 . S
C912 C910 1.327 . S
C912 C931 1.429 . S
C912 H936 0.955 . S
C913 C930 1.574 . S
C913 C932 1.368 . S
C913 H937 0.949 . S
H914 C918 0.949 . S
C915 C916 1.349 . S
C915 C917 1.327 . S
C915 H938 0.950 . S
C916 C915 1.349 . S
C916 C928 1.349 . S
C917 C915 1.327 . S
C917 C933 1.429 . S
C917 H939 0.955 . S
C918 H914 0.949 . S
C918 C926 1.574 . S
C918 C934 1.368 . S
H919 C927 0.950 . S
H920 C925 0.950 . S
H921 C926 0.949 . S
H922 C928 0.950 . S
H923 C929 0.950 . S
H924 C930 0.949 . S
C925 H920 0.950 . S
C925 C927 1.327 . S
C925 C931 1.429 . S
C926 C918 1.574 . S
C926 H921 0.949 . S
C926 C932 1.368 1_554 S
C927 C911 1.349 . S
C927 H919 0.950 . S
C927 C925 1.327 . S
C928 C916 1.349 . S
C928 H922 0.950 . S
C928 C929 1.327 . S
C929 H923 0.950 . S
C929 C928 1.327 . S
C929 C933 1.429 . S
C930 C913 1.574 . S
C930 H924 0.949 . S
C930 C934 1.368 1_556 S
C931 C912 1.429 . S
C931 C925 1.429 . S
C931 C932 1.523 . S
C932 C913 1.368 . S
C932 C926 1.368 1_556 S
C932 C931 1.523 . S
C933 C917 1.429 . S
C933 C929 1.429 . S
C933 C934 1.523 . S
C934 C918 1.368 . S
C934 C930 1.368 1_554 S
C934 C933 1.523 . S
H935 C910 0.950 . S
H936 C912 0.955 . S
H937 C913 0.949 . S
H938 C915 0.950 . S
H939 C917 0.955 . S
C940 C941 1.349 . S
C940 C942 1.327 . S
C940 H965 0.950 . S
C941 C940 1.349 . S
C941 C957 1.349 . S
C942 C940 1.327 . S
C942 C961 1.429 . S
C942 H966 0.950 . S
C943 C960 1.574 . S
C943 C962 1.368 1_556 S
C943 H967 0.949 . S
H944 C948 0.949 . S
C945 C946 1.349 . S
C945 C947 1.327 . S
C945 H968 0.950 . S
C946 C945 1.349 . S
C946 C958 1.349 . S
C947 C945 1.327 . S
C947 C963 1.429 . S
C947 H969 0.950 . S
C948 H944 0.949 . S
C948 C956 1.574 . S
C948 C964 1.368 1_554 S
H949 C957 0.950 . S
H950 C955 0.950 . S
H951 C956 0.949 . S
H952 C958 0.950 . S
H953 C959 0.950 . S
H954 C960 0.949 . S
C955 H950 0.950 . S
C955 C957 1.327 . S
C955 C961 1.429 . S
C956 C948 1.574 . S
C956 H951 0.949 . S
C956 C962 1.368 . S
C957 C941 1.349 . S
C957 H949 0.950 . S
C957 C955 1.327 . S
C958 C946 1.349 . S
C958 H952 0.950 . S
C958 C959 1.327 . S
C959 H953 0.950 . S
C959 C958 1.327 . S
C959 C963 1.429 . S
C960 C943 1.574 . S
C960 H954 0.949 . S
C960 C964 1.368 . S
C961 C942 1.429 . S
C961 C955 1.429 . S
C961 C962 1.523 . S
C962 C943 1.368 1_554 S
C962 C956 1.368 . S
C962 C961 1.523 . S
C963 C947 1.429 . S
C963 C959 1.429 . S
C963 C964 1.523 . S
C964 C948 1.368 1_556 S
C964 C960 1.368 . S
C964 C963 1.523 . S
H965 C940 0.950 . S
H966 C942 0.950 . S
H967 C943 0.949 . S
H968 C945 0.950 . S
H969 C947 0.950 . S
C970 C971 1.349 . S
C970 C972 1.327 . S
C970 H995 0.950 . S
C971 C970 1.349 . S
C971 C987 1.349 . S
C972 C970 1.327 . S
C972 C991 1.429 . S
C972 H996 0.950 1_554 S
C973 C990 1.574 . S
C973 C992 1.368 . S
C973 H997 0.949 . S
H974 C978 0.949 . S
C975 C976 1.349 . S
C975 C977 1.327 . S
C975 H998 0.950 . S
C976 C975 1.349 . S
C976 C988 1.349 . S
C977 C975 1.327 . S
C977 C993 1.429 . S
C977 H999 0.950 1_556 S
C978 H974 0.949 . S
C978 C986 1.574 . S
C978 C994 1.368 . S
H979 C987 0.950 . S
H980 C985 0.950 . S
H981 C986 0.949 . S
H982 C988 0.950 . S
H983 C989 0.950 . S
H984 C990 0.949 . S
C985 H980 0.950 . S
C985 C987 1.327 . S
C985 C991 1.429 . S
C986 C978 1.574 . S
C986 H981 0.949 . S
C986 C992 1.368 1_556 S
C987 C971 1.349 . S
C987 H979 0.950 . S
C987 C985 1.327 . S
C988 C976 1.349 . S
C988 H982 0.950 . S
C988 C989 1.327 . S
C989 H983 0.950 . S
C989 C988 1.327 . S
C989 C993 1.429 . S
C990 C973 1.574 . S
C990 H984 0.949 . S
C990 C994 1.368 1_554 S
C991 C972 1.429 . S
C991 C985 1.429 . S
C991 C992 1.523 . S
C992 C973 1.368 . S
C992 C986 1.368 1_554 S
C992 C991 1.523 . S
C993 C977 1.429 . S
C993 C989 1.429 . S
C993 C994 1.523 . S
C994 C978 1.368 . S
C994 C990 1.368 1_556 S
C994 C993 1.523 . S
H995 C970 0.950 . S
H996 C972 0.950 1_556 S
H997 C973 0.949 . S
H998 C975 0.950 . S
H999 C977 0.950 1_554 S
C1000 C1001 1.349 . S
C1000 C1002 1.327 . S
C1000 H1025 0.950 . S
C1001 C1000 1.349 . S
C1001 C1017 1.349 . S
C1002 C1000 1.327 . S
C1002 C1021 1.429 . S
C1002 H1026 0.950 . S
C1003 C1020 1.574 . S
C1003 C1022 1.368 . S
C1003 H1027 0.949 . S
H1004 C1008 0.949 . S
C1005 C1006 1.349 . S
C1005 C1007 1.327 . S
C1005 H1028 0.950 . S
C1006 C1005 1.349 . S
C1006 C1018 1.349 . S
C1007 C1005 1.327 . S
C1007 C1023 1.429 . S
C1007 H1029 0.950 . S
C1008 H1004 0.949 . S
C1008 C1016 1.574 . S
C1008 C1024 1.368 . S
H1009 C1017 0.950 . S
H1010 C1015 0.950 . S
H1011 C1016 0.949 . S
H1012 C1018 0.950 . S
H1013 C1019 0.950 . S
H1014 C1020 0.949 . S
C1015 H1010 0.950 . S
C1015 C1017 1.327 . S
C1015 C1021 1.429 . S
C1016 C1008 1.574 . S
C1016 H1011 0.949 . S
C1016 C1022 1.368 . S
C1017 C1001 1.349 . S
C1017 H1009 0.950 . S
C1017 C1015 1.327 . S
C1018 C1006 1.349 . S
C1018 H1012 0.950 . S
C1018 C1019 1.327 . S
C1019 H1013 0.950 . S
C1019 C1018 1.327 . S
C1019 C1023 1.429 . S
C1020 C1003 1.574 . S
C1020 H1014 0.949 . S
C1020 C1024 1.368 . S
C1021 C1002 1.429 . S
C1021 C1015 1.429 . S
C1021 C1022 1.523 . S
C1022 C1003 1.368 . S
C1022 C1016 1.368 . S
C1022 C1021 1.523 . S
C1023 C1007 1.429 . S
C1023 C1019 1.429 . S
C1023 C1024 1.523 . S
C1024 C1008 1.368 . S
C1024 C1020 1.368 . S
C1024 C1023 1.523 . S
H1025 C1000 0.950 . S
H1026 C1002 0.950 . S
H1027 C1003 0.949 . S
H1028 C1005 0.950 . S
H1029 C1007 0.950 . S
C1030 C1031 1.349 . S
C1030 C1032 1.327 . S
C1030 H1055 0.950 . S
C1031 C1030 1.349 . S
C1031 C1047 1.349 . S
C1032 C1030 1.327 . S
C1032 C1051 1.429 . S
C1032 H1056 0.950 . S
C1033 C1050 1.574 . S
C1033 C1052 1.368 . S
C1033 H1057 0.949 . S
H1034 C1038 0.949 . S
C1035 C1036 1.349 . S
C1035 C1037 1.327 . S
C1035 H1058 0.950 . S
C1036 C1035 1.349 . S
C1036 C1048 1.349 . S
C1037 C1035 1.327 . S
C1037 C1053 1.429 . S
C1037 H1059 0.950 . S
C1038 H1034 0.949 . S
C1038 C1046 1.574 . S
C1038 C1054 1.368 . S
H1039 C1047 0.950 . S
H1040 C1045 0.950 . S
H1041 C1046 0.949 . S
H1042 C1048 0.950 . S
H1043 C1049 0.950 . S
H1044 C1050 0.949 . S
C1045 H1040 0.950 . S
C1045 C1047 1.327 . S
C1045 C1051 1.429 . S
C1046 C1038 1.574 . S
C1046 H1041 0.949 . S
C1046 C1052 1.368 . S
C1047 C1031 1.349 . S
C1047 H1039 0.950 . S
C1047 C1045 1.327 . S
C1048 C1036 1.349 . S
C1048 H1042 0.950 . S
C1048 C1049 1.327 . S
C1049 H1043 0.950 . S
C1049 C1048 1.327 . S
C1049 C1053 1.429 . S
C1050 C1033 1.574 . S
C1050 H1044 0.949 . S
C1050 C1054 1.368 . S
C1051 C1032 1.429 . S
C1051 C1045 1.429 . S
C1051 C1052 1.523 . S
C1052 C1033 1.368 . S
C1052 C1046 1.368 . S
C1052 C1051 1.523 . S
C1053 C1037 1.429 . S
C1053 C1049 1.429 . S
C1053 C1054 1.523 . S
C1054 C1038 1.368 . S
C1054 C1050 1.368 . S
C1054 C1053 1.523 . S
H1055 C1030 0.950 . S
H1056 C1032 0.950 . S
H1057 C1033 0.949 . S
H1058 C1035 0.950 . S
H1059 C1037 0.950 . S
C1060 C1061 1.349 . S
C1060 C1062 1.327 . S
C1060 H1085 0.950 . S
C1061 C1060 1.349 . S
C1061 C1077 1.349 . S
C1062 C1060 1.327 . S
C1062 C1081 1.429 . S
C1062 H1086 0.950 . S
C1063 C1080 1.574 . S
C1063 C1082 1.368 . S
C1063 H1087 0.949 . S
H1064 C1068 0.949 . S
C1065 C1066 1.349 . S
C1065 C1067 1.327 . S
C1065 H1088 0.950 . S
C1066 C1065 1.349 . S
C1066 C1078 1.349 . S
C1067 C1065 1.327 . S
C1067 C1083 1.429 . S
C1067 H1089 0.950 . S
C1068 H1064 0.949 . S
C1068 C1076 1.574 . S
C1068 C1084 1.368 . S
H1069 C1077 0.950 . S
H1070 C1075 0.950 . S
H1071 C1076 0.949 . S
H1072 C1078 0.950 . S
H1073 C1079 0.950 . S
H1074 C1080 0.949 . S
C1075 H1070 0.950 . S
C1075 C1077 1.327 . S
C1075 C1081 1.429 . S
C1076 C1068 1.574 . S
C1076 H1071 0.949 . S
C1076 C1082 1.368 . S
C1077 C1061 1.349 . S
C1077 H1069 0.950 . S
C1077 C1075 1.327 . S
C1078 C1066 1.349 . S
C1078 H1072 0.950 . S
C1078 C1079 1.327 . S
C1079 H1073 0.950 . S
C1079 C1078 1.327 . S
C1079 C1083 1.429 . S
C1080 C1063 1.574 . S
C1080 H1074 0.949 . S
C1080 C1084 1.368 . S
C1081 C1062 1.429 . S
C1081 C1075 1.429 . S
C1081 C1082 1.523 . S
C1082 C1063 1.368 . S
C1082 C1076 1.368 . S
C1082 C1081 1.523 . S
C1083 C1067 1.429 . S
C1083 C1079 1.429 . S
C1083 C1084 1.523 . S
C1084 C1068 1.368 . S
C1084 C1080 1.368 . S
C1084 C1083 1.523 . S
H1085 C1060 0.950 . S
H1086 C1062 0.950 . S
H1087 C1063 0.949 . S
H1088 C1065 0.950 . S
H1089 C1067 0.950 . S
C1090 C1091 1.349 . S
C1090 C1092 1.327 . S
C1090 H1115 0.950 . S
C1091 C1090 1.349 . S
C1091 C1107 1.349 . S
C1092 C1090 1.327 . S
C1092 C1111 1.429 . S
C1092 H1116 0.950 . S
C1093 C1110 1.574 . S
C1093 C1112 1.368 . S
C1093 H1117 0.949 . S
H1094 C1098 0.949 . S
C1095 C1096 1.349 . S
C1095 C1097 1.327 . S
C1095 H1118 0.950 . S
C1096 C1095 1.349 . S
C1096 C1108 1.349 . S
C1097 C1095 1.327 . S
C1097 C1113 1.429 . S
C1097 H1119 0.950 . S
C1098 H1094 0.949 . S
C1098 C1106 1.574 . S
C1098 C1114 1.368 . S
H1099 C1107 0.950 . S
H1100 C1105 0.950 . S
H1101 C1106 0.949 . S
H1102 C1108 0.950 . S
H1103 C1109 0.950 . S
H1104 C1110 0.949 . S
C1105 H1100 0.950 . S
C1105 C1107 1.327 . S
C1105 C1111 1.429 . S
C1106 C1098 1.574 . S
C1106 H1101 0.949 . S
C1106 C1112 1.368 . S
C1107 C1091 1.349 . S
C1107 H1099 0.950 . S
C1107 C1105 1.327 . S
C1108 C1096 1.349 . S
C1108 H1102 0.950 . S
C1108 C1109 1.327 . S
C1109 H1103 0.950 . S
C1109 C1108 1.327 . S
C1109 C1113 1.429 . S
C1110 C1093 1.574 . S
C1110 H1104 0.949 . S
C1110 C1114 1.368 . S
C1111 C1092 1.429 . S
C1111 C1105 1.429 . S
C1111 C1112 1.523 . S
C1112 C1093 1.368 . S
C1112 C1106 1.368 . S
C1112 C1111 1.523 . S
C1113 C1097 1.429 . S
C1113 C1109 1.429 . S
C1113 C1114 1.523 . S
C1114 C1098 1.368 . S
C1114 C1110 1.368 . S
C1114 C1113 1.523 . S
H1115 C1090 0.950 . S
H1116 C1092 0.950 . S
H1117 C1093 0.949 . S
H1118 C1095 0.950 . S
H1119 C1097 0.950 . S
C1120 C1121 1.349 . S
C1120 C1122 1.327 . S
C1120 H1145 0.950 . S
C1121 C1120 1.349 . S
C1121 C1137 1.349 . S
C1122 C1120 1.327 . S
C1122 C1141 1.429 . S
C1122 H1146 0.950 . S
C1123 C1140 1.574 . S
C1123 C1142 1.368 . S
C1123 H1147 0.949 . S
H1124 C1128 0.949 . S
C1125 C1126 1.349 . S
C1125 C1127 1.327 . S
C1125 H1148 0.950 . S
C1126 C1125 1.349 . S
C1126 C1138 1.349 . S
C1127 C1125 1.327 . S
C1127 C1143 1.429 . S
C1127 H1149 0.950 . S
C1128 H1124 0.949 . S
C1128 C1136 1.574 . S
C1128 C1144 1.368 . S
H1129 C1137 0.950 . S
H1130 C1135 0.950 . S
H1131 C1136 0.949 . S
H1132 C1138 0.950 . S
H1133 C1139 0.950 . S
H1134 C1140 0.949 . S
C1135 H1130 0.950 . S
C1135 C1137 1.327 . S
C1135 C1141 1.429 . S
C1136 C1128 1.574 . S
C1136 H1131 0.949 . S
C1136 C1142 1.368 . S
C1137 C1121 1.349 . S
C1137 H1129 0.950 . S
C1137 C1135 1.327 . S
C1138 C1126 1.349 . S
C1138 H1132 0.950 . S
C1138 C1139 1.327 . S
C1139 H1133 0.950 . S
C1139 C1138 1.327 . S
C1139 C1143 1.429 . S
C1140 C1123 1.574 . S
C1140 H1134 0.949 . S
C1140 C1144 1.368 . S
C1141 C1122 1.429 . S
C1141 C1135 1.429 . S
C1141 C1142 1.523 . S
C1142 C1123 1.368 . S
C1142 C1136 1.368 . S
C1142 C1141 1.523 . S
C1143 C1127 1.429 . S
C1143 C1139 1.429 . S
C1143 C1144 1.523 . S
C1144 C1128 1.368 . S
C1144 C1140 1.368 . S
C1144 C1143 1.523 . S
H1145 C1120 0.950 . S
H1146 C1122 0.950 . S
H1147 C1123 0.949 . S
H1148 C1125 0.950 . S
H1149 C1127 0.950 . S
C1150 C1151 1.349 . S
C1150 C1152 1.327 . S
C1150 H1175 0.950 . S
C1151 C1150 1.349 . S
C1151 C1167 1.349 . S
C1152 C1150 1.327 . S
C1152 C1171 1.429 . S
C1152 H1176 0.950 . S
C1153 C1170 1.574 . S
C1153 C1172 1.368 . S
C1153 H1177 0.949 . S
H1154 C1158 0.949 . S
C1155 C1156 1.349 . S
C1155 C1157 1.327 . S
C1155 H1178 0.950 . S
C1156 C1155 1.349 . S
C1156 C1168 1.349 . S
C1157 C1155 1.327 . S
C1157 C1173 1.429 . S
C1157 H1179 0.950 . S
C1158 H1154 0.949 . S
C1158 C1166 1.574 . S
C1158 C1174 1.368 . S
H1159 C1167 0.950 . S
H1160 C1165 0.950 . S
H1161 C1166 0.949 . S
H1162 C1168 0.950 . S
H1163 C1169 0.950 . S
H1164 C1170 0.949 . S
C1165 H1160 0.950 . S
C1165 C1167 1.327 . S
C1165 C1171 1.429 . S
C1166 C1158 1.574 . S
C1166 H1161 0.949 . S
C1166 C1172 1.368 . S
C1167 C1151 1.349 . S
C1167 H1159 0.950 . S
C1167 C1165 1.327 . S
C1168 C1156 1.349 . S
C1168 H1162 0.950 . S
C1168 C1169 1.327 . S
C1169 H1163 0.950 . S
C1169 C1168 1.327 . S
C1169 C1173 1.429 . S
C1170 C1153 1.574 . S
C1170 H1164 0.949 . S
C1170 C1174 1.368 . S
C1171 C1152 1.429 . S
C1171 C1165 1.429 . S
C1171 C1172 1.523 . S
C1172 C1153 1.368 . S
C1172 C1166 1.368 . S
C1172 C1171 1.523 . S
C1173 C1157 1.429 . S
C1173 C1169 1.429 . S
C1173 C1174 1.523 . S
C1174 C1158 1.368 . S
C1174 C1170 1.368 . S
C1174 C1173 1.523 . S
H1175 C1150 0.950 . S
H1176 C1152 0.950 . S
H1177 C1153 0.949 . S
H1178 C1155 0.950 . S
H1179 C1157 0.950 . S
C1180 C1181 1.349 . S
C1180 C1182 1.327 . S
C1180 H1205 0.950 . S
C1181 C1180 1.349 . S
C1181 C1197 1.349 . S
C1182 C1180 1.327 . S
C1182 C1201 1.429 . S
C1182 H1206 0.950 . S
C1183 C1200 1.574 . S
C1183 C1202 1.368 . S
C1183 H1207 0.949 . S
H1184 C1188 0.949 . S
C1185 C1186 1.349 . S
C1185 C1187 1.327 . S
C1185 H1208 0.950 . S
C1186 C1185 1.349 . S
C1186 C1198 1.349 . S
C1187 C1185 1.327 . S
C1187 C1203 1.429 . S
C1187 H1209 0.950 . S
C1188 H1184 0.949 . S
C1188 C1196 1.574 . S
C1188 C1204 1.368 . S
H1189 C1197 0.950 . S
H1190 C1195 0.950 . S
H1191 C1196 0.949 . S
H1192 C1198 0.950 . S
H1193 C1199 0.950 . S
H1194 C1200 0.949 . S
C1195 H1190 0.950 . S
C1195 C1197 1.327 . S
C1195 C1201 1.429 . S
C1196 C1188 1.574 . S
C1196 H1191 0.949 . S
C1196 C1202 1.368 . S
C1197 C1181 1.349 . S
C1197 H1189 0.950 . S
C1197 C1195 1.327 . S
C1198 C1186 1.349 . S
C1198 H1192 0.950 . S
C1198 C1199 1.327 . S
C1199 H1193 0.950 . S
C1199 C1198 1.327 . S
C1199 C1203 1.429 . S
C1200 C1183 1.574 . S
C1200 H1194 0.949 . S
C1200 C1204 1.368 . S
C1201 C1182 1.429 . S
C1201 C1195 1.429 . S
C1201 C1202 1.523 . S
C1202 C1183 1.368 . S
C1202 C1196 1.368 . S
C1202 C1201 1.523 . S
C1203 C1187 1.429 . S
C1203 C1199 1.429 . S
C1203 C1204 1.523 . S
C1204 C1188 1.368 . S
C1204 C1200 1.368 . S
C1204 C1203 1.523 . S
H1205 C1180 0.950 . S
H1206 C1182 0.950 . S
H1207 C1183 0.949 . S
H1208 C1185 0.950 . S
H1209 C1187 0.950 . S
C1210 C1211 1.349 . S
C1210 C1212 1.327 . S
C1210 H1235 0.950 . S
C1211 C1210 1.349 . S
C1211 C1227 1.349 . S
C1212 C1210 1.327 . S
C1212 C1231 1.429 . S
C1212 H1236 0.950 . S
C1213 C1230 1.574 . S
C1213 C1232 1.368 . S
C1213 H1237 0.949 . S
H1214 C1218 0.949 . S
C1215 C1216 1.349 . S
C1215 C1217 1.327 . S
C1215 H1238 0.950 . S
C1216 C1215 1.349 . S
C1216 C1228 1.349 . S
C1217 C1215 1.327 . S
C1217 C1233 1.429 . S
C1217 H1239 0.950 . S
C1218 H1214 0.949 . S
C1218 C1226 1.574 . S
C1218 C1234 1.368 . S
H1219 C1227 0.950 . S
H1220 C1225 0.950 . S
H1221 C1226 0.949 . S
H1222 C1228 0.950 . S
H1223 C1229 0.950 . S
H1224 C1230 0.949 . S
C1225 H1220 0.950 . S
C1225 C1227 1.327 . S
C1225 C1231 1.429 . S
C1226 C1218 1.574 . S
C1226 H1221 0.949 . S
C1226 C1232 1.368 . S
C1227 C1211 1.349 . S
C1227 H1219 0.950 . S
C1227 C1225 1.327 . S
C1228 C1216 1.349 . S
C1228 H1222 0.950 . S
C1228 C1229 1.327 . S
C1229 H1223 0.950 . S
C1229 C1228 1.327 . S
C1229 C1233 1.429 . S
C1230 C1213 1.574 . S
C1230 H1224 0.949 . S
C1230 C1234 1.368 . S
C1231 C1212 1.429 . S
C1231 C1225 1.429 . S
C1231 C1232 1.523 . S
C1232 C1213 1.368 . S
C1232 C1226 1.368 . S
C1232 C1231 1.523 . S
C1233 C1217 1.429 . S
C1233 C1229 1.429 . S
C1233 C1234 1.523 . S
C1234 C1218 1.368 . S
C1234 C1230 1.368 . S
C1234 C1233 1.523 . S
H1235 C1210 0.950 . S
H1236 C1212 0.950 . S
H1237 C1213 0.949 . S
H1238 C1215 0.950 . S
H1239 C1217 0.950 . S
C1240 C1241 1.349 . S
C1240 C1242 1.327 . S
C1240 H1265 0.950 . S
C1241 C1240 1.349 . S
C1241 C1257 1.349 . S
C1242 C1240 1.327 . S
C1242 C1261 1.429 . S
C1242 H1266 0.950 . S
C1243 C1260 1.574 . S
C1243 C1262 1.368 . S
C1243 H1267 0.949 . S
H1244 C1248 0.949 . S
C1245 C1246 1.349 . S
C1245 C1247 1.327 . S
C1245 H1268 0.950 . S
C1246 C1245 1.349 . S
C1246 C1258 1.349 . S
C1247 C1245 1.327 . S
C1247 C1263 1.429 . S
C1247 H1269 0.950 . S
C1248 H1244 0.949 . S
C1248 C1256 1.574 . S
C1248 C1264 1.368 . S
H1249 C1257 0.950 . S
H1250 C1255 0.950 . S
H1251 C1256 0.949 . S
H1252 C1258 0.950 . S
H1253 C1259 0.950 . S
H1254 C1260 0.949 . S
C1255 H1250 0.950 . S
C1255 C1257 1.327 . S
C1255 C1261 1.429 . S
C1256 C1248 1.574 . S
C1256 H1251 0.949 . S
C1256 C1262 1.368 . S
C1257 C1241 1.349 . S
C1257 H1249 0.950 . S
C1257 C1255 1.327 . S
C1258 C1246 1.349 . S
C1258 H1252 0.950 . S
C1258 C1259 1.327 . S
C1259 H1253 0.950 . S
C1259 C1258 1.327 . S
C1259 C1263 1.429 . S
C1260 C1243 1.574 . S
C1260 H1254 0.949 . S
C1260 C1264 1.368 . S
C1261 C1242 1.429 . S
C1261 C1255 1.429 . S
C1261 C1262 1.523 . S
C1262 C1243 1.368 . S
C1262 C1256 1.368 . S
C1262 C1261 1.523 . S
C1263 C1247 1.429 . S
C1263 C1259 1.429 . S
C1263 C1264 1.523 . S
C1264 C1248 1.368 . S
C1264 C1260 1.368 . S
C1264 C1263 1.523 . S
H1265 C1240 0.950 . S
H1266 C1242 0.950 . S
H1267 C1243 0.949 . S
H1268 C1245 0.950 . S
H1269 C1247 0.950 . S
C1270 C1271 1.349 . S
C1270 C1272 1.327 . S
C1270 H1295 0.950 . S
C1271 C1270 1.349 . S
C1271 C1287 1.349 . S
C1272 C1270 1.327 . S
C1272 C1291 1.429 . S
C1272 H1296 0.950 . S
C1273 C1290 1.574 . S
C1273 C1292 1.368 . S
C1273 H1297 0.949 . S
H1274 C1278 0.949 . S
C1275 C1276 1.349 . S
C1275 C1277 1.327 . S
C1275 H1298 0.950 . S
C1276 C1275 1.349 . S
C1276 C1288 1.349 . S
C1277 C1275 1.327 . S
C1277 C1293 1.429 . S
C1277 H1299 0.950 . S
C1278 H1274 0.949 . S
C1278 C1286 1.574 . S
C1278 C1294 1.368 . S
H1279 C1287 0.950 . S
H1280 C1285 0.950 . S
H1281 C1286 0.949 . S
H1282 C1288 0.950 . S
H1283 C1289 0.950 . S
H1284 C1290 0.949 . S
C1285 H1280 0.950 . S
C1285 C1287 1.327 . S
C1285 C1291 1.429 . S
C1286 C1278 1.574 . S
C1286 H1281 0.949 . S
C1286 C1292 1.368 . S
C1287 C1271 1.349 . S
C1287 H1279 0.950 . S
C1287 C1285 1.327 . S
C1288 C1276 1.349 . S
C1288 H1282 0.950 . S
C1288 C1289 1.327 . S
C1289 H1283 0.950 . S
C1289 C1288 1.327 . S
C1289 C1293 1.429 . S
C1290 C1273 1.574 . S
C1290 H1284 0.949 . S
C1290 C1294 1.368 . S
C1291 C1272 1.429 . S
C1291 C1285 1.429 . S
C1291 C1292 1.523 . S
C1292 C1273 1.368 . S
C1292 C1286 1.368 . S
C1292 C1291 1.523 . S
C1293 C1277 1.429 . S
C1293 C1289 1.429 . S
C1293 C1294 1.523 . S
C1294 C1278 1.368 . S
C1294 C1290 1.368 . S
C1294 C1293 1.523 . S
H1295 C1270 0.950 . S
H1296 C1272 0.950 . S
H1297 C1273 0.949 . S
H1298 C1275 0.950 . S
H1299 C1277 0.950 . S
C1300 C1301 1.349 . S
C1300 C1302 1.327 . S
C1300 H1325 0.950 . S
C1301 C1300 1.349 . S
C1301 C1317 1.349 . S
C1302 C1300 1.327 . S
C1302 C1321 1.429 . S
C1302 H1326 0.950 . S
C1303 C1320 1.574 . S
C1303 C1322 1.368 . S
C1303 H1327 0.949 . S
H1304 C1308 0.949 . S
C1305 C1306 1.349 . S
C1305 C1307 1.327 . S
C1305 H1328 0.950 . S
C1306 C1305 1.349 . S
C1306 C1318 1.349 . S
C1307 C1305 1.327 . S
C1307 C1323 1.429 . S
C1307 H1329 0.950 . S
C1308 H1304 0.949 . S
C1308 C1316 1.574 . S
C1308 C1324 1.368 . S
H1309 C1317 0.950 . S
H1310 C1315 0.950 . S
H1311 C1316 0.949 . S
H1312 C1318 0.950 . S
H1313 C1319 0.950 . S
H1314 C1320 0.949 . S
C1315 H1310 0.950 . S
C1315 C1317 1.327 . S
C1315 C1321 1.429 . S
C1316 C1308 1.574 . S
C1316 H1311 0.949 . S
C1316 C1322 1.368 . S
C1317 C1301 1.349 . S
C1317 H1309 0.950 . S
C1317 C1315 1.327 . S
C1318 C1306 1.349 . S
C1318 H1312 0.950 . S
C1318 C1319 1.327 . S
C1319 H1313 0.950 . S
C1319 C1318 1.327 . S
C1319 C1323 1.429 . S
C1320 C1303 1.574 . S
C1320 H1314 0.949 . S
C1320 C1324 1.368 . S
C1321 C1302 1.429 . S
C1321 C1315 1.429 . S
C1321 C1322 1.523 . S
C1322 C1303 1.368 . S
C1322 C1316 1.368 . S
C1322 C1321 1.523 . S
C1323 C1307 1.429 . S
C1323 C1319 1.429 . S
C1323 C1324 1.523 . S
C1324 C1308 1.368 . S
C1324 C1320 1.368 . S
C1324 C1323 1.523 . S
H1325 C1300 0.950 . S
H1326 C1302 0.950 . S
H1327 C1303 0.949 . S
H1328 C1305 0.950 . S
H1329 C1307 0.950 . S
C1330 C1331 1.349 . S
C1330 C1332 1.327 . S
C1330 H1355 0.950 . S
C1331 C1330 1.349 . S
C1331 C1347 1.349 . S
C1332 C1330 1.327 . S
C1332 C1351 1.429 . S
C1332 H1356 0.950 . S
C1333 C1350 1.574 . S
C1333 C1352 1.368 . S
C1333 H1357 0.949 . S
H1334 C1338 0.949 . S
C1335 C1336 1.349 . S
C1335 C1337 1.327 . S
C1335 H1358 0.950 . S
C1336 C1335 1.349 . S
C1336 C1348 1.349 . S
C1337 C1335 1.327 . S
C1337 C1353 1.429 . S
C1337 H1359 0.950 . S
C1338 H1334 0.949 . S
C1338 C1346 1.574 . S
C1338 C1354 1.368 . S
H1339 C1347 0.950 . S
H1340 C1345 0.950 . S
H1341 C1346 0.949 . S
H1342 C1348 0.950 . S
H1343 C1349 0.950 . S
H1344 C1350 0.949 . S
C1345 H1340 0.950 . S
C1345 C1347 1.327 . S
C1345 C1351 1.429 . S
C1346 C1338 1.574 . S
C1346 H1341 0.949 . S
C1346 C1352 1.368 . S
C1347 C1331 1.349 . S
C1347 H1339 0.950 . S
C1347 C1345 1.327 . S
C1348 C1336 1.349 . S
C1348 H1342 0.950 . S
C1348 C1349 1.327 . S
C1349 H1343 0.950 . S
C1349 C1348 1.327 . S
C1349 C1353 1.429 . S
C1350 C1333 1.574 . S
C1350 H1344 0.949 . S
C1350 C1354 1.368 . S
C1351 C1332 1.429 . S
C1351 C1345 1.429 . S
C1351 C1352 1.523 . S
C1352 C1333 1.368 . S
C1352 C1346 1.368 . S
C1352 C1351 1.523 . S
C1353 C1337 1.429 . S
C1353 C1349 1.429 . S
C1353 C1354 1.523 . S
C1354 C1338 1.368 . S
C1354 C1350 1.368 . S
C1354 C1353 1.523 . S
H1355 C1330 0.950 . S
H1356 C1332 0.950 . S
H1357 C1333 0.949 . S
H1358 C1335 0.950 . S
H1359 C1337 0.950 . S
C641 C175 1.786 . S
C646 C15 1.786 . S
C671 C55 1.786 . S
C676 C215 1.786 . S
C701 C255 1.786 . S
C706 C95 1.786 . S
C731 C135 1.786 . S
C736 C295 1.786 . S
C761 C335 1.786 . S
C766 C495 1.786 . S
C791 C535 1.786 . S
C796 C375 1.786 . S
C821 C575 1.786 . S
C826 C415 1.786 . S
C851 C455 1.786 . S
C856 C615 1.786 . S
C881 C21 1.811 . S
C886 C221 1.811 . S
C911 C261 1.811 . S
C916 C61 1.811 . S
C941 C101 1.811 . S
C946 C301 1.811 . S
C971 C141 1.811 . S
C976 C181 1.811 . S
C1001 C341 1.811 . S
C1006 C541 1.811 . S
C1031 C581 1.811 . S
C1036 C381 1.811 . S
C1061 C421 1.811 . S
C1066 C621 1.811 . S
C1091 C501 1.811 . S
C1096 C461 1.811 . S
C1121 C602 1.858 . S
C1126 C2 1.858 . S
C1151 C482 1.858 . S
C1156 C42 1.858 . S
C1181 C82 1.858 . S
C1186 C522 1.858 . S
C1211 C562 1.858 . S
C1216 C122 1.858 . S
C1241 C162 1.858 . S
C1246 C362 1.858 . S
C1271 C402 1.858 . S
C1276 C202 1.858 . S
C1301 C442 1.858 . S
C1306 C242 1.858 . S
C1331 C322 1.858 . S
C1336 C282 1.858 . S
