# Generated by pormake.
# Topology pcl, (4)-cn, num edge types: 1
# Building blocks:
#     Node 0, Type 0, BuildingBlock: GALJAG_clean_sbu_0, # of connection points: 4
#     Node 1, Type 0, BuildingBlock: GALJAG_clean_sbu_0, # of connection points: 4
#     Node 2, Type 0, BuildingBlock: GALJAG_clean_sbu_0, # of connection points: 4
#     Node 3, Type 0, BuildingBlock: GALJAG_clean_sbu_0, # of connection points: 4
#     Node 4, Type 0, BuildingBlock: GALJAG_clean_sbu_0, # of connection points: 4
#     Node 5, Type 0, BuildingBlock: GALJAG_clean_sbu_0, # of connection points: 4
#     Node 6, Type 0, BuildingBlock: GALJAG_clean_sbu_0, # of connection points: 4
#     Node 7, Type 0, BuildingBlock: GALJAG_clean_sbu_0, # of connection points: 4
#     Node 8, Type 0, BuildingBlock: GALJAG_clean_sbu_0, # of connection points: 4
#     Node 9, Type 0, BuildingBlock: GALJAG_clean_sbu_0, # of connection points: 4
#     Node 10, Type 0, BuildingBlock: GALJAG_clean_sbu_0, # of connection points: 4
#     Node 11, Type 0, BuildingBlock: GALJAG_clean_sbu_0, # of connection points: 4
#     Node 12, Type 0, BuildingBlock: GALJAG_clean_sbu_0, # of connection points: 4
#     Node 13, Type 0, BuildingBlock: GALJAG_clean_sbu_0, # of connection points: 4
#     Node 14, Type 0, BuildingBlock: GALJAG_clean_sbu_0, # of connection points: 4
#     Node 15, Type 0, BuildingBlock: GALJAG_clean_sbu_0, # of connection points: 4
#     Edge 16, Type (0, 0), BuildingBlock: CIFDUS_clean_linker_0, # of connection points: 2
#     Edge 17, Type (0, 0), BuildingBlock: CIFDUS_clean_linker_0, # of connection points: 2
#     Edge 18, Type (0, 0), BuildingBlock: CIFDUS_clean_linker_0, # of connection points: 2
#     Edge 19, Type (0, 0), BuildingBlock: CIFDUS_clean_linker_0, # of connection points: 2
#     Edge 20, Type (0, 0), BuildingBlock: CIFDUS_clean_linker_0, # of connection points: 2
#     Edge 21, Type (0, 0), BuildingBlock: CIFDUS_clean_linker_0, # of connection points: 2
#     Edge 22, Type (0, 0), BuildingBlock: CIFDUS_clean_linker_0, # of connection points: 2
#     Edge 23, Type (0, 0), BuildingBlock: CIFDUS_clean_linker_0, # of connection points: 2
#     Edge 24, Type (0, 0), BuildingBlock: CIFDUS_clean_linker_0, # of connection points: 2
#     Edge 25, Type (0, 0), BuildingBlock: CIFDUS_clean_linker_0, # of connection points: 2
#     Edge 26, Type (0, 0), BuildingBlock: CIFDUS_clean_linker_0, # of connection points: 2
#     Edge 27, Type (0, 0), BuildingBlock: CIFDUS_clean_linker_0, # of connection points: 2
#     Edge 28, Type (0, 0), BuildingBlock: CIFDUS_clean_linker_0, # of connection points: 2
#     Edge 29, Type (0, 0), BuildingBlock: CIFDUS_clean_linker_0, # of connection points: 2
#     Edge 30, Type (0, 0), BuildingBlock: CIFDUS_clean_linker_0, # of connection points: 2
#     Edge 31, Type (0, 0), BuildingBlock: CIFDUS_clean_linker_0, # of connection points: 2
#     Edge 32, Type (0, 0), BuildingBlock: CIFDUS_clean_linker_0, # of connection points: 2
#     Edge 33, Type (0, 0), BuildingBlock: CIFDUS_clean_linker_0, # of connection points: 2
#     Edge 34, Type (0, 0), BuildingBlock: CIFDUS_clean_linker_0, # of connection points: 2
#     Edge 35, Type (0, 0), BuildingBlock: CIFDUS_clean_linker_0, # of connection points: 2
#     Edge 36, Type (0, 0), BuildingBlock: CIFDUS_clean_linker_0, # of connection points: 2
#     Edge 37, Type (0, 0), BuildingBlock: CIFDUS_clean_linker_0, # of connection points: 2
#     Edge 38, Type (0, 0), BuildingBlock: CIFDUS_clean_linker_0, # of connection points: 2
#     Edge 39, Type (0, 0), BuildingBlock: CIFDUS_clean_linker_0, # of connection points: 2
#     Edge 40, Type (0, 0), BuildingBlock: CIFDUS_clean_linker_0, # of connection points: 2
#     Edge 41, Type (0, 0), BuildingBlock: CIFDUS_clean_linker_0, # of connection points: 2
#     Edge 42, Type (0, 0), BuildingBlock: CIFDUS_clean_linker_0, # of connection points: 2
#     Edge 43, Type (0, 0), BuildingBlock: CIFDUS_clean_linker_0, # of connection points: 2
#     Edge 44, Type (0, 0), BuildingBlock: CIFDUS_clean_linker_0, # of connection points: 2
#     Edge 45, Type (0, 0), BuildingBlock: CIFDUS_clean_linker_0, # of connection points: 2
#     Edge 46, Type (0, 0), BuildingBlock: CIFDUS_clean_linker_0, # of connection points: 2
#     Edge 47, Type (0, 0), BuildingBlock: CIFDUS_clean_linker_0, # of connection points: 2
# Relax obj value: 0.122
# Max RMSD: 0.108
# Mean RMSD: 0.092
data_MOF--net-pcl--node1-GALJAG_clean_sbu_0--edge1-CIFDUS_clean_linker_0
_symmetry_space_group_name_H-M    P1
_symmetry_Int_Tables_number       1
_symmetry_cell_setting            triclinic
loop_
_symmetry_equiv_pos_as_xyz
'x, y, z'
_cell_length_a     46.643988
_cell_length_b     35.192168
_cell_length_c     38.387757
_cell_angle_alpha  90.014727
_cell_angle_beta   90.041164
_cell_angle_gamma 89.918359
loop_
_atom_site_label
_atom_site_type_symbol
_atom_site_fract_x
_atom_site_fract_y
_atom_site_fract_z
_atom_type_partial_charge
In0 In 0.12631 0.33925 0.07984 0.0
O1 O 0.14501 0.29261 0.04456 0.0
O2 O 0.17283 0.335 0.06525 0.0
C3 C 0.06936 0.32786 0.08545 0.0
C4 C 0.14332 0.32647 0.14562 0.0
C5 C 0.12471 0.40508 0.04463 0.0
O6 O 0.08461 0.30726 0.0657 0.0
O7 O 0.08298 0.35295 0.10197 0.0
O8 O 0.13001 0.40355 0.07686 0.0
O9 O 0.12012 0.37341 0.03027 0.0
C10 C 0.17023 0.30586 0.04645 0.0
O11 O 0.14506 0.35866 0.13124 0.0
O12 O 0.13299 0.30046 0.12668 0.0
In13 In 0.87855 0.66026 0.57542 0.0
O14 O 0.86382 0.71384 0.54636 0.0
O15 O 0.83302 0.67119 0.55765 0.0
C16 C 0.93369 0.68501 0.57753 0.0
C17 C 0.8589 0.65161 0.64099 0.0
C18 C 0.87979 0.59472 0.53912 0.0
O19 O 0.92271 0.67025 0.55084 0.0
O20 O 0.91676 0.68817 0.60284 0.0
O21 O 0.88596 0.59608 0.57115 0.0
O22 O 0.87331 0.62626 0.5257 0.0
C23 C 0.83816 0.7028 0.54362 0.0
O24 O 0.86642 0.62381 0.62228 0.0
O25 O 0.86116 0.68368 0.62653 0.0
In26 In 0.12316 0.6796 0.93008 0.0
O27 O 0.14198 0.65672 0.87974 0.0
O28 O 0.12883 0.71458 0.88045 0.0
C29 C 0.12399 0.61454 0.96669 0.0
C30 C 0.16421 0.71938 0.9631 0.0
C31 C 0.06577 0.68951 0.92786 0.0
O32 O 0.12856 0.61567 0.93432 0.0
O33 O 0.11911 0.64632 0.9807 0.0
O34 O 0.08175 0.71138 0.9453 0.0
O35 O 0.07886 0.6638 0.91149 0.0
C36 C 0.13937 0.68744 0.86313 0.0
O37 O 0.13871 0.73137 0.96067 0.0
O38 O 0.16885 0.6879 0.94846 0.0
In39 In 0.87514 0.32341 0.41705 0.0
O40 O 0.85383 0.35194 0.37058 0.0
O41 O 0.86733 0.29474 0.36422 0.0
C42 C 0.87866 0.38739 0.45547 0.0
C43 C 0.83499 0.28145 0.44975 0.0
C44 C 0.93192 0.30862 0.41373 0.0
O45 O 0.87151 0.38739 0.42378 0.0
O46 O 0.8839 0.35498 0.468 0.0
O47 O 0.91532 0.28996 0.43322 0.0
O48 O 0.91971 0.33365 0.39553 0.0
C49 C 0.85583 0.32365 0.3506 0.0
O50 O 0.85867 0.26758 0.44016 0.0
O51 O 0.83156 0.31604 0.4424 0.0
In52 In 0.8389 0.65463 0.91358 0.0
O53 O 0.82444 0.7083 0.9419 0.0
O54 O 0.79254 0.66829 0.92682 0.0
C55 C 0.89658 0.66089 0.91379 0.0
C56 C 0.83313 0.5918 0.95306 0.0
C57 C 0.83021 0.66322 0.84456 0.0
O58 O 0.88085 0.68459 0.92955 0.0
O59 O 0.88317 0.63461 0.89867 0.0
O60 O 0.82742 0.63159 0.85971 0.0
O61 O 0.83624 0.69061 0.86444 0.0
C62 C 0.79818 0.69945 0.9416 0.0
O63 O 0.82681 0.59237 0.92106 0.0
O64 O 0.84197 0.623 0.96517 0.0
In65 In 0.15858 0.34015 0.41707 0.0
O66 O 0.17082 0.40073 0.43089 0.0
O67 O 0.14777 0.3688 0.46866 0.0
C68 C 0.17109 0.33879 0.34875 0.0
C69 C 0.19962 0.29625 0.44561 0.0
C70 C 0.10156 0.33195 0.40975 0.0
O71 O 0.17401 0.36823 0.36722 0.0
O72 O 0.1629 0.30963 0.36511 0.0
O73 O 0.11641 0.3079 0.42642 0.0
O74 O 0.11549 0.35956 0.39754 0.0
C75 C 0.15952 0.39989 0.46076 0.0
O76 O 0.17365 0.28599 0.44467 0.0
O77 O 0.20463 0.32797 0.43172 0.0
In78 In 0.84197 0.32113 0.07625 0.0
O79 O 0.83354 0.38502 0.07201 0.0
O80 O 0.84256 0.35434 0.02553 0.0
C81 C 0.83558 0.30936 0.14526 0.0
C82 C 0.79796 0.28167 0.04889 0.0
C83 C 0.89927 0.31136 0.07153 0.0
O84 O 0.83077 0.34117 0.13114 0.0
O85 O 0.84259 0.28326 0.12436 0.0
O86 O 0.882 0.28992 0.05547 0.0
O87 O 0.88755 0.33726 0.08917 0.0
C88 C 0.83666 0.38592 0.03933 0.0
O89 O 0.82367 0.27054 0.04639 0.0
O90 O 0.79454 0.31195 0.06599 0.0
In91 In 0.15835 0.66687 0.58981 0.0
O92 O 0.17761 0.6304 0.54733 0.0
O93 O 0.15088 0.60274 0.58425 0.0
C94 C 0.16438 0.66466 0.65951 0.0
C95 C 0.20089 0.71222 0.56744 0.0
C96 C 0.10347 0.68591 0.57389 0.0
O97 O 0.16505 0.63502 0.64095 0.0
O98 O 0.16133 0.69525 0.64277 0.0
O99 O 0.12091 0.67378 0.55147 0.0
O100 O 0.11392 0.68952 0.60392 0.0
C101 C 0.16624 0.59984 0.55727 0.0
O102 O 0.17478 0.72039 0.56279 0.0
O103 O 0.2053 0.68215 0.58445 0.0
In104 In 0.62525 0.83775 0.07074 0.0
O105 O 0.65217 0.85889 0.11606 0.0
O106 O 0.6325 0.80482 0.12148 0.0
C107 C 0.62074 0.90822 0.04342 0.0
C108 C 0.66365 0.79653 0.03398 0.0
C109 C 0.56857 0.82187 0.07371 0.0
O110 O 0.62463 0.90209 0.07541 0.0
O111 O 0.61928 0.87868 0.02487 0.0
O112 O 0.58413 0.81096 0.04874 0.0
O113 O 0.58174 0.83981 0.09718 0.0
C114 C 0.64796 0.83026 0.13509 0.0
O115 O 0.63965 0.78331 0.04309 0.0
O116 O 0.66807 0.83037 0.04322 0.0
In117 In 0.37623 0.16698 0.57404 0.0
O118 O 0.36207 0.21964 0.54348 0.0
O119 O 0.33174 0.17548 0.55231 0.0
C120 C 0.4332 0.17619 0.58282 0.0
C121 C 0.35591 0.17733 0.63877 0.0
C122 C 0.37722 0.10105 0.53876 0.0
O123 O 0.41988 0.19252 0.55833 0.0
O124 O 0.41773 0.15637 0.60255 0.0
O125 O 0.37141 0.10279 0.57082 0.0
O126 O 0.38249 0.13254 0.52451 0.0
C127 C 0.3368 0.20752 0.539 0.0
O128 O 0.35444 0.14582 0.6231 0.0
O129 O 0.36727 0.2039 0.62148 0.0
In130 In 0.61518 0.17539 0.91483 0.0
O131 O 0.63557 0.15208 0.86553 0.0
O132 O 0.62678 0.21148 0.8676 0.0
C133 C 0.61072 0.10376 0.9394 0.0
C134 C 0.65673 0.21084 0.95155 0.0
C135 C 0.55935 0.19734 0.91388 0.0
O136 O 0.60978 0.11123 0.90728 0.0
O137 O 0.61344 0.13236 0.95887 0.0
O138 O 0.57396 0.19194 0.8868 0.0
O139 O 0.573 0.19255 0.9419 0.0
C140 C 0.63641 0.1838 0.85015 0.0
O141 O 0.63207 0.22517 0.94778 0.0
O142 O 0.66022 0.17934 0.93661 0.0
In143 In 0.37739 0.82443 0.42839 0.0
O144 O 0.36391 0.77543 0.46416 0.0
O145 O 0.3331 0.81765 0.4504 0.0
C146 C 0.43397 0.8164 0.41712 0.0
C147 C 0.35637 0.81015 0.3646 0.0
C148 C 0.37924 0.89078 0.46275 0.0
O149 O 0.42101 0.79606 0.43926 0.0
O150 O 0.41834 0.83982 0.40111 0.0
O151 O 0.37193 0.88856 0.43113 0.0
O152 O 0.38576 0.85959 0.47688 0.0
C153 C 0.33852 0.78779 0.46729 0.0
O154 O 0.35338 0.84182 0.37965 0.0
O155 O 0.36962 0.78525 0.38206 0.0
In156 In 0.33653 0.16161 0.91124 0.0
O157 O 0.3495 0.09893 0.91138 0.0
O158 O 0.32645 0.12042 0.95486 0.0
C159 C 0.32884 0.15979 0.8419 0.0
C160 C 0.2897 0.19855 0.93504 0.0
C161 C 0.39005 0.18819 0.92485 0.0
O162 O 0.32826 0.1302 0.86051 0.0
O163 O 0.33268 0.1904 0.85845 0.0
O164 O 0.37879 0.18918 0.89507 0.0
O165 O 0.37392 0.17517 0.94827 0.0
C166 C 0.33849 0.09228 0.94076 0.0
O167 O 0.31481 0.2108 0.93996 0.0
O168 O 0.28829 0.16847 0.91737 0.0
In169 In 0.66119 0.82246 0.40746 0.0
O170 O 0.66708 0.88679 0.40419 0.0
O171 O 0.65932 0.86258 0.45397 0.0
C172 C 0.66863 0.80785 0.33898 0.0
C173 C 0.70361 0.78309 0.4388 0.0
C174 C 0.60453 0.81029 0.41588 0.0
O175 O 0.67625 0.83867 0.35297 0.0
O176 O 0.65834 0.78378 0.35982 0.0
O177 O 0.62306 0.79376 0.43448 0.0
O178 O 0.61466 0.83272 0.39347 0.0
C179 C 0.66374 0.89228 0.43641 0.0
O180 O 0.67816 0.77117 0.43717 0.0
O181 O 0.70785 0.81445 0.42381 0.0
In182 In 0.3416 0.84173 0.09544 0.0
O183 O 0.32994 0.90428 0.09272 0.0
O184 O 0.34851 0.87915 0.0477 0.0
C185 C 0.32846 0.83181 0.16303 0.0
C186 C 0.30105 0.80058 0.06258 0.0
C187 C 0.39914 0.83368 0.09767 0.0
O188 O 0.32408 0.86256 0.14702 0.0
O189 O 0.33883 0.80539 0.14462 0.0
O190 O 0.38386 0.81474 0.07671 0.0
O191 O 0.38536 0.85611 0.11703 0.0
C192 C 0.33827 0.9086 0.06174 0.0
O193 O 0.32672 0.7893 0.06479 0.0
O194 O 0.29608 0.83184 0.07734 0.0
In195 In 0.65984 0.1511 0.58043 0.0
O196 O 0.66274 0.08655 0.58291 0.0
O197 O 0.65886 0.1119 0.53295 0.0
C198 C 0.67027 0.15859 0.64925 0.0
C199 C 0.70217 0.193 0.55185 0.0
C200 C 0.6034 0.16703 0.57316 0.0
O201 O 0.67621 0.12879 0.63246 0.0
O202 O 0.66014 0.18526 0.631 0.0
O203 O 0.62174 0.17775 0.55112 0.0
O204 O 0.61356 0.14834 0.59826 0.0
C205 C 0.66116 0.0817 0.55043 0.0
O206 O 0.67741 0.2061 0.55739 0.0
O207 O 0.70572 0.15903 0.5613 0.0
H208 H 0.0321 0.28482 0.04633 0.0
H209 H 0.03578 0.36476 0.13162 0.0
H210 H 0.98384 0.36559 0.13515 0.0
H211 H 0.93742 0.34641 0.11284 0.0
H212 H 0.93178 0.26656 0.02794 0.0
H213 H 0.98434 0.26277 0.02549 0.0
C214 C 0.02146 0.30208 0.06584 0.0
C215 C 0.03783 0.32487 0.08851 0.0
C216 C 0.99126 0.30267 0.06769 0.0
C217 C 0.02376 0.34712 0.11368 0.0
C218 C 0.994 0.34769 0.11576 0.0
C219 C 0.94763 0.32808 0.09378 0.0
C220 C 0.93079 0.30707 0.07041 0.0
C221 C 0.97757 0.32606 0.09263 0.0
C222 C 0.94435 0.28312 0.04616 0.0
C223 C 0.97437 0.281 0.04475 0.0
H224 H 0.97437 0.67682 0.52746 0.0
H225 H 0.96218 0.71338 0.63375 0.0
H226 H 0.01391 0.7206 0.64087 0.0
H227 H 0.06264 0.71051 0.61875 0.0
H228 H 0.07504 0.67248 0.51296 0.0
H229 H 0.02319 0.6723 0.50364 0.0
C230 C 0.98303 0.68687 0.55202 0.0
C231 C 0.96452 0.6942 0.58014 0.0
C232 C 0.01282 0.69049 0.55608 0.0
C233 C 0.976 0.70736 0.61176 0.0
C234 C 0.00558 0.71141 0.61588 0.0
C235 C 0.05401 0.70271 0.5935 0.0
C236 C 0.07261 0.69119 0.56669 0.0
C237 C 0.02421 0.70214 0.58851 0.0
C238 C 0.06115 0.68134 0.53406 0.0
C239 C 0.0315 0.68109 0.52876 0.0
H240 H 0.93191 0.71214 0.94625 0.0
H241 H 0.93221 0.61438 0.87818 0.0
H242 H 0.98423 0.61592 0.87562 0.0
H243 H 0.02957 0.64352 0.89339 0.0
H244 H 0.03101 0.74042 0.96217 0.0
H245 H 0.97839 0.74093 0.96357 0.0
C246 C 0.94343 0.69129 0.93084 0.0
C247 C 0.92819 0.66312 0.91254 0.0
C248 C 0.97361 0.69218 0.92954 0.0
C249 C 0.94337 0.63629 0.89263 0.0
C250 C 0.97316 0.63713 0.89108 0.0
C251 C 0.01844 0.66494 0.9086 0.0
C252 C 0.03413 0.69187 0.92766 0.0
C253 C 0.98846 0.66476 0.90954 0.0
C254 C 0.01936 0.71938 0.94723 0.0
C255 C 0.98931 0.71961 0.94809 0.0
H256 H 0.06416 0.28286 0.4412 0.0
H257 H 0.06877 0.37462 0.36677 0.0
H258 H 0.01698 0.37334 0.35965 0.0
H259 H 0.97027 0.34893 0.37659 0.0
H260 H 0.9642 0.25879 0.45231 0.0
H261 H 0.01661 0.25636 0.45664 0.0
C262 C 0.05377 0.30233 0.42328 0.0
C263 C 0.07026 0.32894 0.40473 0.0
C264 C 0.02374 0.30179 0.41955 0.0
C265 C 0.05656 0.35404 0.38158 0.0
C266 C 0.02692 0.35333 0.37742 0.0
C267 C 0.98037 0.32847 0.39382 0.0
C268 C 0.96341 0.30417 0.41416 0.0
C269 C 0.0103 0.32772 0.39659 0.0
C270 C 0.97684 0.27783 0.43637 0.0
C271 C 0.00678 0.27653 0.43893 0.0
H272 H 0.43536 0.79821 0.05201 0.0
H273 H 0.43378 0.86373 0.14708 0.0
H274 H 0.48595 0.86365 0.14906 0.0
H275 H 0.53194 0.848 0.12258 0.0
H276 H 0.53464 0.78448 0.02653 0.0
H277 H 0.48219 0.78048 0.02626 0.0
C278 C 0.4465 0.81216 0.07326 0.0
C279 C 0.43073 0.83107 0.09927 0.0
C280 C 0.47668 0.81247 0.07403 0.0
C281 C 0.44541 0.84915 0.12662 0.0
C282 C 0.47526 0.84912 0.12781 0.0
C283 C 0.5211 0.83298 0.1017 0.0
C284 C 0.53713 0.81664 0.07458 0.0
C285 C 0.49109 0.83133 0.10146 0.0
C286 C 0.52275 0.79734 0.04771 0.0
C287 C 0.49277 0.79512 0.04751 0.0
H288 H 0.5628 0.15303 0.62126 0.0
H289 H 0.57459 0.19916 0.5182 0.0
H290 H 0.52271 0.20899 0.51277 0.0
H291 H 0.47364 0.20087 0.53646 0.0
H292 H 0.46316 0.15359 0.63943 0.0
H293 H 0.51489 0.14821 0.64586 0.0
C294 C 0.55407 0.16538 0.59762 0.0
C295 C 0.57242 0.17504 0.57006 0.0
C296 C 0.52442 0.17079 0.59471 0.0
C297 C 0.56082 0.19134 0.53974 0.0
C298 C 0.53119 0.19695 0.53664 0.0
C299 C 0.48277 0.1899 0.56043 0.0
C300 C 0.46461 0.17747 0.58735 0.0
C301 C 0.51272 0.18633 0.56383 0.0
C302 C 0.47667 0.16315 0.61823 0.0
C303 C 0.50626 0.15998 0.62195 0.0
H304 H 0.52053 0.19264 0.96676 0.0
H305 H 0.52827 0.21842 0.85728 0.0
H306 H 0.47624 0.22233 0.85205 0.0
H307 H 0.42867 0.21174 0.87695 0.0
H308 H 0.42035 0.18297 0.98569 0.0
H309 H 0.47236 0.1874 0.99297 0.0
C310 C 0.5108 0.19975 0.94193 0.0
C311 C 0.5282 0.20494 0.9124 0.0
C312 C 0.48075 0.20114 0.93891 0.0
C313 C 0.51533 0.21403 0.88035 0.0
C314 C 0.48557 0.21622 0.87731 0.0
C315 C 0.43818 0.20703 0.90238 0.0
C316 C 0.42072 0.19676 0.93066 0.0
C317 C 0.46807 0.2088 0.90617 0.0
C318 C 0.43336 0.19083 0.96347 0.0
C319 C 0.46311 0.1932 0.96761 0.0
H320 H 0.47502 0.77972 0.45553 0.0
H321 H 0.46284 0.85008 0.36456 0.0
H322 H 0.51437 0.85306 0.35564 0.0
H323 H 0.56283 0.83864 0.37493 0.0
H324 H 0.57644 0.76916 0.466 0.0
H325 H 0.52447 0.76277 0.4736 0.0
C326 C 0.48372 0.79534 0.43361 0.0
C327 C 0.46516 0.8148 0.41086 0.0
C328 C 0.51359 0.79733 0.42877 0.0
C329 C 0.47666 0.83503 0.38258 0.0
C330 C 0.50615 0.83681 0.37744 0.0
C331 C 0.55447 0.82197 0.39641 0.0
C332 C 0.57338 0.80463 0.42 0.0
C333 C 0.52479 0.81858 0.40062 0.0
C334 C 0.56223 0.78289 0.44754 0.0
C335 C 0.53255 0.77926 0.4519 0.0
H336 H 0.16808 0.37718 0.18923 0.0
H337 H 0.13635 0.26217 0.18444 0.0
H338 H 0.14526 0.25439 0.2468 0.0
H339 H 0.15794 0.28229 0.30341 0.0
H340 H 0.18835 0.39795 0.30819 0.0
H341 H 0.1845 0.40326 0.24495 0.0
C342 C 0.16336 0.35029 0.20177 0.0
C343 C 0.15129 0.32043 0.1824 0.0
C344 C 0.16828 0.34616 0.2376 0.0
C345 C 0.14552 0.28565 0.19888 0.0
C346 C 0.15057 0.2812 0.23453 0.0
C347 C 0.16418 0.30844 0.29054 0.0
C348 C 0.17321 0.33978 0.31043 0.0
C349 C 0.16137 0.31154 0.25426 0.0
C350 C 0.18123 0.37347 0.29344 0.0
C351 C 0.17892 0.37659 0.25731 0.0
H352 H 0.84633 0.70756 0.68715 0.0
H353 H 0.85091 0.5856 0.67693 0.0
H354 H 0.83934 0.5783 0.73865 0.0
H355 H 0.83164 0.60675 0.79641 0.0
H356 H 0.82931 0.72877 0.80695 0.0
H357 H 0.83588 0.73588 0.74416 0.0
C358 C 0.84453 0.67937 0.69836 0.0
C359 C 0.84965 0.64718 0.67758 0.0
C360 C 0.83829 0.67542 0.73394 0.0
C361 C 0.84721 0.61084 0.69244 0.0
C362 C 0.84059 0.60665 0.72773 0.0
C363 C 0.83209 0.63487 0.78486 0.0
C364 C 0.83006 0.66719 0.80626 0.0
C365 C 0.83659 0.63875 0.74886 0.0
C366 C 0.83089 0.70346 0.791 0.0
C367 C 0.83475 0.70755 0.75513 0.0
H368 H 0.15712 0.631 0.82025 0.0
H369 H 0.13739 0.75083 0.8223 0.0
H370 H 0.1457 0.75486 0.75954 0.0
H371 H 0.1555 0.72348 0.70372 0.0
H372 H 0.17333 0.60314 0.70136 0.0
H373 H 0.16907 0.6002 0.76477 0.0
C374 C 0.15489 0.65807 0.80701 0.0
C375 C 0.14653 0.69054 0.82581 0.0
C376 C 0.15927 0.66004 0.77091 0.0
C377 C 0.14371 0.72541 0.80834 0.0
C378 C 0.14843 0.72772 0.77248 0.0
C379 C 0.15877 0.69669 0.71713 0.0
C380 C 0.16462 0.66354 0.69793 0.0
C381 C 0.15577 0.6951 0.75345 0.0
C382 C 0.16873 0.62902 0.7156 0.0
C383 C 0.16624 0.62731 0.75182 0.0
H384 H 0.824 0.36204 0.19501 0.0
H385 H 0.84888 0.24487 0.18122 0.0
H386 H 0.85572 0.23814 0.24401 0.0
H387 H 0.85819 0.26698 0.30238 0.0
H388 H 0.8338 0.3844 0.31582 0.0
H389 H 0.82311 0.3895 0.25377 0.0
C390 C 0.83056 0.3349 0.2058 0.0
C391 C 0.83609 0.30409 0.18347 0.0
C392 C 0.83477 0.33134 0.24188 0.0
C393 C 0.84453 0.26907 0.19784 0.0
C394 C 0.84856 0.26522 0.23375 0.0
C395 C 0.85028 0.29356 0.29175 0.0
C396 C 0.84702 0.32533 0.31361 0.0
C397 C 0.84431 0.29639 0.25594 0.0
C398 C 0.83663 0.35954 0.29952 0.0
C399 C 0.83053 0.36253 0.26401 0.0
H400 H 0.68776 0.85675 0.28967 0.0
H401 H 0.64776 0.7472 0.30267 0.0
H402 H 0.63987 0.7429 0.23985 0.0
H403 H 0.64001 0.77326 0.18204 0.0
H404 H 0.67926 0.88341 0.16965 0.0
H405 H 0.6919 0.88434 0.2313 0.0
C406 C 0.67772 0.83166 0.2787 0.0
C407 C 0.66814 0.80251 0.3008 0.0
C408 C 0.67285 0.82965 0.24267 0.0
C409 C 0.65527 0.7701 0.2862 0.0
C410 C 0.65062 0.7677 0.2503 0.0
C411 C 0.65164 0.79722 0.19278 0.0
C412 C 0.65841 0.82838 0.1714 0.0
C413 C 0.65863 0.79776 0.2284 0.0
C414 C 0.67363 0.85916 0.1856 0.0
C415 C 0.68084 0.85977 0.22088 0.0
H416 H 0.33762 0.21787 0.79677 0.0
H417 H 0.31841 0.09803 0.80104 0.0
H418 H 0.3226 0.0937 0.73775 0.0
H419 H 0.3358 0.12274 0.682 0.0
H420 H 0.35696 0.24199 0.67794 0.0
H421 H 0.34769 0.24786 0.74036 0.0
C422 C 0.33397 0.19092 0.78379 0.0
C423 C 0.3279 0.15827 0.80352 0.0
C424 C 0.33695 0.18849 0.74749 0.0
C425 C 0.32324 0.12354 0.7864 0.0
C426 C 0.32569 0.12102 0.75023 0.0
C427 C 0.33805 0.15012 0.6947 0.0
C428 C 0.34724 0.18182 0.67549 0.0
C429 C 0.33317 0.15312 0.73063 0.0
C430 C 0.35003 0.21712 0.69224 0.0
C431 C 0.34479 0.22048 0.72792 0.0
H432 H 0.66263 0.13038 0.81047 0.0
H433 H 0.63121 0.24571 0.80786 0.0
H434 H 0.64173 0.2495 0.74559 0.0
H435 H 0.65563 0.21791 0.69098 0.0
H436 H 0.68663 0.10234 0.69375 0.0
H437 H 0.6809 0.10098 0.75693 0.0
C438 C 0.65838 0.15648 0.79634 0.0
C439 C 0.64586 0.18756 0.81361 0.0
C440 C 0.66434 0.15838 0.76056 0.0
C441 C 0.64073 0.22132 0.79509 0.0
C442 C 0.64668 0.22348 0.75947 0.0
C443 C 0.66157 0.19265 0.70549 0.0
C444 C 0.67128 0.16017 0.68769 0.0
C445 C 0.65788 0.19189 0.74179 0.0
C446 C 0.679 0.12769 0.70683 0.0
C447 C 0.67562 0.12681 0.74295 0.0
H448 H 0.34552 0.77382 0.205 0.0
H449 H 0.30464 0.88392 0.20653 0.0
H450 H 0.30683 0.88486 0.27 0.0
H451 H 0.32554 0.85806 0.32423 0.0
H452 H 0.36787 0.74898 0.32306 0.0
H453 H 0.35965 0.74376 0.26032 0.0
C454 C 0.33661 0.79766 0.21929 0.0
C455 C 0.32525 0.82894 0.20115 0.0
C456 C 0.33847 0.79837 0.25579 0.0
C457 C 0.31371 0.85962 0.21994 0.0
C458 C 0.31503 0.86025 0.25622 0.0
C459 C 0.3326 0.83289 0.31033 0.0
C460 C 0.3476 0.8042 0.32809 0.0
C461 C 0.3282 0.83037 0.2743 0.0
C462 C 0.35639 0.77157 0.30987 0.0
C463 C 0.35179 0.76863 0.27399 0.0
H464 H 0.28822 0.25798 0.97981 0.0
H465 H 0.2338 0.17782 0.92646 0.0
H466 H 0.19176 0.20367 0.95624 0.0
H467 H 0.17061 0.24819 0.9988 0.0
H468 H 0.22569 0.32776 0.05209 0.0
H469 H 0.26721 0.30287 0.02119 0.0
C470 C 0.26713 0.24638 0.97449 0.0
C471 C 0.26411 0.21611 0.95099 0.0
C472 C 0.24315 0.26106 0.99195 0.0
C473 C 0.23667 0.20122 0.94446 0.0
C474 C 0.21263 0.21588 0.96155 0.0
C475 C 0.19172 0.25996 0.00364 0.0
C476 C 0.19505 0.28965 0.02777 0.0
C477 C 0.21564 0.24558 0.98563 0.0
C478 C 0.22252 0.30482 0.03367 0.0
C479 C 0.24631 0.29067 0.01598 0.0
H480 H 0.78398 0.68004 0.53067 0.0
H481 H 0.84303 0.77196 0.51156 0.0
H482 H 0.80667 0.80469 0.47656 0.0
H483 H 0.7581 0.80681 0.4513 0.0
H484 H 0.69953 0.71433 0.47067 0.0
H485 H 0.7359 0.68196 0.50549 0.0
C486 C 0.78888 0.70733 0.51899 0.0
C487 C 0.81608 0.72366 0.52377 0.0
C488 C 0.76806 0.7257 0.49877 0.0
C489 C 0.82218 0.75891 0.50833 0.0
C490 C 0.80145 0.77755 0.48825 0.0
C491 C 0.75338 0.77948 0.46301 0.0
C492 C 0.7262 0.76292 0.45838 0.0
C493 C 0.77434 0.76112 0.4832 0.0
C494 C 0.72031 0.72761 0.47381 0.0
C495 C 0.74105 0.70913 0.49379 0.0
H496 H 0.24614 0.82275 0.0527 0.0
H497 H 0.30563 0.73239 0.02886 0.0
H498 H 0.26841 0.6995 0.99554 0.0
H499 H 0.21913 0.69676 0.9731 0.0
H500 H 0.15981 0.78734 0.99693 0.0
H501 H 0.19699 0.82004 0.03033 0.0
C502 C 0.25096 0.79579 0.0403 0.0
C503 C 0.27856 0.77995 0.04326 0.0
C504 C 0.22958 0.77725 0.02112 0.0
C505 C 0.28452 0.74509 0.02699 0.0
C506 C 0.26328 0.72634 0.00791 0.0
C507 C 0.21436 0.72371 0.98553 0.0
C508 C 0.1868 0.73968 0.98252 0.0
C509 C 0.23578 0.74223 0.00474 0.0
C510 C 0.18089 0.77453 0.99882 0.0
C511 C 0.20211 0.79319 0.01795 0.0
H512 H 0.75435 0.16789 0.53061 0.0
H513 H 0.70043 0.26762 0.53322 0.0
H514 H 0.73689 0.30371 0.50186 0.0
H515 H 0.78363 0.30666 0.47296 0.0
H516 H 0.83751 0.20695 0.46956 0.0
H517 H 0.80141 0.17099 0.50189 0.0
C518 C 0.75066 0.19758 0.52446 0.0
C519 C 0.72477 0.2151 0.53423 0.0
C520 C 0.7716 0.21805 0.50614 0.0
C521 C 0.7202 0.25351 0.52597 0.0
C522 C 0.74101 0.27414 0.508 0.0
C523 C 0.78747 0.27704 0.47926 0.0
C524 C 0.81314 0.25944 0.46884 0.0
C525 C 0.76669 0.25663 0.4978 0.0
C526 C 0.81786 0.22109 0.47724 0.0
C527 C 0.79727 0.20055 0.49576 0.0
H528 H 0.71831 0.81675 0.01921 0.0
H529 H 0.65731 0.72587 0.00567 0.0
H530 H 0.69337 0.68831 0.97474 0.0
H531 H 0.74252 0.68084 0.95269 0.0
H532 H 0.80389 0.77096 0.96801 0.0
H533 H 0.76734 0.80938 0.99705 0.0
C534 C 0.71288 0.78878 0.00938 0.0
C535 C 0.6852 0.77409 0.01468 0.0
C536 C 0.73378 0.76723 0.99199 0.0
C537 C 0.6785 0.73776 0.00194 0.0
C538 C 0.69909 0.71629 0.98426 0.0
C539 C 0.74784 0.70897 0.96224 0.0
C540 C 0.77584 0.72308 0.95819 0.0
C541 C 0.72683 0.73068 0.97929 0.0
C542 C 0.78249 0.75946 0.97086 0.0
C543 C 0.76161 0.78143 0.98746 0.0
H544 H 0.28195 0.18599 0.52772 0.0
H545 H 0.34189 0.27649 0.50688 0.0
H546 H 0.30472 0.31138 0.47515 0.0
H547 H 0.25513 0.31643 0.45426 0.0
H548 H 0.19507 0.22628 0.47586 0.0
H549 H 0.23255 0.19073 0.50635 0.0
C550 C 0.28691 0.21335 0.51621 0.0
C551 C 0.31459 0.22872 0.51967 0.0
C552 C 0.26548 0.23319 0.49816 0.0
C553 C 0.32071 0.26413 0.50461 0.0
C554 C 0.29949 0.28405 0.48647 0.0
C555 C 0.25026 0.28892 0.4655 0.0
C556 C 0.22238 0.27395 0.46283 0.0
C557 C 0.2718 0.26887 0.48319 0.0
C558 C 0.21637 0.23836 0.47759 0.0
C559 C 0.23776 0.21808 0.49504 0.0
H560 H 0.74308 0.30651 0.04288 0.0
H561 H 0.79909 0.21373 0.01478 0.0
H562 H 0.76006 0.18353 0.98257 0.0
H563 H 0.71059 0.18435 0.96118 0.0
H564 H 0.65464 0.27759 0.98805 0.0
H565 H 0.6932 0.30692 0.02195 0.0
C566 C 0.74668 0.27954 0.02991 0.0
C567 C 0.77391 0.26231 0.03124 0.0
C568 C 0.72426 0.26262 0.01108 0.0
C569 C 0.77831 0.22751 0.01416 0.0
C570 C 0.75604 0.21029 0.99568 0.0
C571 C 0.7068 0.2111 0.97447 0.0
C572 C 0.67983 0.22886 0.97205 0.0
C573 C 0.72903 0.22775 0.99374 0.0
C574 C 0.67525 0.26344 0.98944 0.0
C575 C 0.69726 0.28017 0.00885 0.0
H576 H 0.2567 0.69138 0.56338 0.0
H577 H 0.19759 0.7801 0.53355 0.0
H578 H 0.23551 0.81172 0.50063 0.0
H579 H 0.28446 0.81231 0.47803 0.0
H580 H 0.3435 0.7229 0.50622 0.0
H581 H 0.3064 0.69311 0.54212 0.0
C582 C 0.25222 0.71789 0.55002 0.0
C583 C 0.22442 0.73346 0.55086 0.0
C584 C 0.27395 0.73545 0.53061 0.0
C585 C 0.21884 0.76763 0.53327 0.0
C586 C 0.24046 0.78561 0.51436 0.0
C587 C 0.28927 0.78631 0.49206 0.0
C588 C 0.31659 0.76964 0.48934 0.0
C589 C 0.26791 0.76943 0.51242 0.0
C590 C 0.32255 0.73612 0.5078 0.0
C591 C 0.30139 0.71916 0.52834 0.0
H592 H 0.12382 0.54324 0.94054 0.0
H593 H 0.12426 0.6058 0.03722 0.0
H594 H 0.12476 0.54625 0.07004 0.0
H595 H 0.1252 0.47645 0.0711 0.0
H596 H 0.12305 0.41412 0.9743 0.0
H597 H 0.12304 0.47364 0.9416 0.0
C598 C 0.12408 0.54381 0.96879 0.0
C599 C 0.12414 0.57873 0.98649 0.0
C600 C 0.12402 0.50958 0.98741 0.0
C601 C 0.12421 0.57916 0.02307 0.0
C602 C 0.12452 0.54518 0.04182 0.0
C603 C 0.12475 0.47595 0.04285 0.0
C604 C 0.12424 0.44106 0.02509 0.0
C605 C 0.12445 0.51024 0.02425 0.0
C606 C 0.12343 0.44071 0.98852 0.0
C607 C 0.12347 0.47468 0.96981 0.0
H608 H 0.89069 0.52298 0.56227 0.0
H609 H 0.86792 0.58679 0.47026 0.0
H610 H 0.86581 0.5283 0.43635 0.0
H611 H 0.86967 0.45915 0.43284 0.0
H612 H 0.89229 0.39463 0.5244 0.0
H613 H 0.89522 0.45327 0.55849 0.0
C614 C 0.88536 0.52402 0.53478 0.0
C615 C 0.87944 0.55912 0.51882 0.0
C616 C 0.88408 0.49021 0.51538 0.0
C617 C 0.87255 0.56011 0.48318 0.0
C618 C 0.87131 0.52669 0.46375 0.0
C619 C 0.87526 0.4579 0.46026 0.0
C620 C 0.88068 0.42267 0.47612 0.0
C621 C 0.87689 0.4916 0.4796 0.0
C622 C 0.88797 0.42148 0.51163 0.0
C623 C 0.88965 0.45497 0.53111 0.0
H624 H 0.83564 0.45867 0.0631 0.0
H625 H 0.83165 0.39183 0.969 0.0
H626 H 0.82842 0.44967 0.93409 0.0
H627 H 0.82846 0.51926 0.9301 0.0
H628 H 0.83513 0.58634 0.02381 0.0
H629 H 0.83542 0.52849 0.05909 0.0
C630 C 0.83391 0.45683 0.03497 0.0
C631 C 0.83391 0.42109 0.01864 0.0
C632 C 0.83257 0.49024 0.015 0.0
C633 C 0.83183 0.41906 0.98216 0.0
C634 C 0.82994 0.4521 0.96218 0.0
C635 C 0.82973 0.52119 0.95826 0.0
C636 C 0.83171 0.55694 0.97436 0.0
C637 C 0.83053 0.48784 0.97829 0.0
C638 C 0.83363 0.55907 0.01083 0.0
C639 C 0.83382 0.52603 0.03101 0.0
H640 H 0.18718 0.46648 0.4512 0.0
H641 H 0.1316 0.4076 0.52287 0.0
H642 H 0.12965 0.46392 0.56017 0.0
H643 H 0.14225 0.53092 0.57102 0.0
H644 H 0.19793 0.58909 0.49885 0.0
H645 H 0.20145 0.53195 0.46328 0.0
C646 C 0.17472 0.46593 0.47505 0.0
C647 C 0.15942 0.43311 0.48418 0.0
C648 C 0.17369 0.49829 0.49626 0.0
C649 C 0.14353 0.43265 0.51526 0.0
C650 C 0.14238 0.46483 0.53657 0.0
C651 C 0.15529 0.53093 0.54764 0.0
C652 C 0.16966 0.5642 0.53749 0.0
C653 C 0.15715 0.49795 0.52714 0.0
C654 C 0.18656 0.56386 0.50718 0.0
C655 C 0.18857 0.53122 0.48677 0.0
H656 H 0.61537 0.08245 0.00679 0.0
H657 H 0.60514 0.03739 0.903 0.0
H658 H 0.60679 0.97258 0.92607 0.0
H659 H 0.61254 0.9288 0.97575 0.0
H660 H 0.62334 0.97471 0.07922 0.0
H661 H 0.6201 0.03913 0.05621 0.0
C662 C 0.61335 0.05846 0.98921 0.0
C663 C 0.61018 0.06465 0.95327 0.0
C664 C 0.61456 0.02144 0.00259 0.0
C665 C 0.60761 0.03331 0.93081 0.0
C666 C 0.60861 0.99628 0.94397 0.0
C667 C 0.61413 0.95294 0.99322 0.0
C668 C 0.61827 0.94701 0.0291 0.0
C669 C 0.61232 0.99001 0.9798 0.0
C670 C 0.62023 0.97851 0.05148 0.0
C671 C 0.61836 0.01537 0.03836 0.0
H672 H 0.37735 0.96178 0.43569 0.0
H673 H 0.38208 0.90058 0.53292 0.0
H674 H 0.38148 0.96045 0.56515 0.0
H675 H 0.3792 0.03009 0.56566 0.0
H676 H 0.37666 0.09146 0.46842 0.0
H677 H 0.37684 0.03157 0.43614 0.0
C678 C 0.37825 0.96162 0.46393 0.0
C679 C 0.37961 0.92696 0.48196 0.0
C680 C 0.37827 0.99609 0.48224 0.0
C681 C 0.38104 0.92701 0.51851 0.0
C682 C 0.38065 0.96118 0.53694 0.0
C683 C 0.37864 0.03029 0.5374 0.0
C684 C 0.37774 0.06497 0.51939 0.0
C685 C 0.37918 0.99586 0.51907 0.0
C686 C 0.37735 0.06499 0.48281 0.0
C687 C 0.37742 0.03081 0.46436 0.0
H688 H 0.35649 0.9253 0.99633 0.0
H689 H 0.3146 0.97399 0.08613 0.0
H690 H 0.31046 0.03486 0.05616 0.0
H691 H 0.31913 0.07435 0.00491 0.0
H692 H 0.36156 0.02656 0.91514 0.0
H693 H 0.36504 0.96506 0.94463 0.0
C694 C 0.34646 0.94926 0.00929 0.0
C695 C 0.33591 0.94523 0.04337 0.0
C696 C 0.34423 0.98423 0.99194 0.0
C697 C 0.32295 0.97644 0.05991 0.0
C698 C 0.32054 0.01123 0.04279 0.0
C699 C 0.32908 0.05045 0.99174 0.0
C700 C 0.34008 0.0549 0.95795 0.0
C701 C 0.33116 0.01544 0.00888 0.0
C702 C 0.35295 0.02376 0.94121 0.0
C703 C 0.35496 0.98865 0.95805 0.0
H704 H 0.66408 0.06475 0.48148 0.0
H705 H 0.66005 0.01327 0.58338 0.0
H706 H 0.66073 0.95011 0.55706 0.0
H707 H 0.66192 0.90952 0.50515 0.0
H708 H 0.66689 0.96068 0.40321 0.0
H709 H 0.66649 0.02398 0.42948 0.0
C710 C 0.66334 0.03969 0.49789 0.0
C711 C 0.6619 0.04364 0.53429 0.0
C712 C 0.66393 0.00344 0.48259 0.0
C713 C 0.66114 0.01095 0.55527 0.0
C714 C 0.66151 0.97483 0.54025 0.0
C715 C 0.66296 0.93453 0.48869 0.0
C716 C 0.66434 0.93047 0.45232 0.0
C717 C 0.66283 0.97075 0.50396 0.0
C718 C 0.66582 0.96309 0.43131 0.0
C719 C 0.66554 -0.00072 0.4463 0.0
loop_
_geom_bond_atom_site_label_1
_geom_bond_atom_site_label_2
_geom_bond_distance
_geom_bond_site_symmetry_2
_ccdc_geom_bond_type
In0 O1 2.294 . S
In0 O2 2.326 . S
In0 O6 2.266 . S
In0 O7 2.326 . S
In0 O8 2.266 . S
In0 O9 2.326 . S
In0 O11 2.294 . S
In0 O12 2.326 . S
O1 In0 2.294 . S
O1 C10 1.240 . S
O2 In0 2.326 . S
O2 C10 1.252 . S
C3 O6 1.252 . S
C3 O7 1.260 . S
C4 O11 1.240 . S
C4 O12 1.252 . S
C5 O8 1.252 . S
C5 O9 1.260 . S
O6 In0 2.266 . S
O6 C3 1.252 . S
O7 In0 2.326 . S
O7 C3 1.260 . S
O8 In0 2.266 . S
O8 C5 1.252 . S
O9 In0 2.326 . S
O9 C5 1.260 . S
C10 O1 1.240 . S
C10 O2 1.252 . S
O11 In0 2.294 . S
O11 C4 1.240 . S
O12 In0 2.326 . S
O12 C4 1.252 . S
In13 O14 2.294 . S
In13 O15 2.326 . S
In13 O19 2.266 . S
In13 O20 2.326 . S
In13 O21 2.266 . S
In13 O22 2.326 . S
In13 O24 2.294 . S
In13 O25 2.326 . S
O14 In13 2.294 . S
O14 C23 1.240 . S
O15 In13 2.326 . S
O15 C23 1.252 . S
C16 O19 1.252 . S
C16 O20 1.260 . S
C17 O24 1.240 . S
C17 O25 1.252 . S
C18 O21 1.252 . S
C18 O22 1.260 . S
O19 In13 2.266 . S
O19 C16 1.252 . S
O20 In13 2.326 . S
O20 C16 1.260 . S
O21 In13 2.266 . S
O21 C18 1.252 . S
O22 In13 2.326 . S
O22 C18 1.260 . S
C23 O14 1.240 . S
C23 O15 1.252 . S
O24 In13 2.294 . S
O24 C17 1.240 . S
O25 In13 2.326 . S
O25 C17 1.252 . S
In26 O27 2.294 . S
In26 O28 2.326 . S
In26 O32 2.266 . S
In26 O33 2.326 . S
In26 O34 2.266 . S
In26 O35 2.326 . S
In26 O37 2.294 . S
In26 O38 2.326 . S
O27 In26 2.294 . S
O27 C36 1.240 . S
O28 In26 2.326 . S
O28 C36 1.252 . S
C29 O32 1.252 . S
C29 O33 1.260 . S
C30 O37 1.240 . S
C30 O38 1.252 . S
C31 O34 1.252 . S
C31 O35 1.260 . S
O32 In26 2.266 . S
O32 C29 1.252 . S
O33 In26 2.326 . S
O33 C29 1.260 . S
O34 In26 2.266 . S
O34 C31 1.252 . S
O35 In26 2.326 . S
O35 C31 1.260 . S
C36 O27 1.240 . S
C36 O28 1.252 . S
O37 In26 2.294 . S
O37 C30 1.240 . S
O38 In26 2.326 . S
O38 C30 1.252 . S
In39 O40 2.294 . S
In39 O41 2.326 . S
In39 O45 2.266 . S
In39 O46 2.326 . S
In39 O47 2.266 . S
In39 O48 2.326 . S
In39 O50 2.294 . S
In39 O51 2.326 . S
O40 In39 2.294 . S
O40 C49 1.240 . S
O41 In39 2.326 . S
O41 C49 1.252 . S
C42 O45 1.252 . S
C42 O46 1.260 . S
C43 O50 1.240 . S
C43 O51 1.252 . S
C44 O47 1.252 . S
C44 O48 1.260 . S
O45 In39 2.266 . S
O45 C42 1.252 . S
O46 In39 2.326 . S
O46 C42 1.260 . S
O47 In39 2.266 . S
O47 C44 1.252 . S
O48 In39 2.326 . S
O48 C44 1.260 . S
C49 O40 1.240 . S
C49 O41 1.252 . S
O50 In39 2.294 . S
O50 C43 1.240 . S
O51 In39 2.326 . S
O51 C43 1.252 . S
In52 O53 2.294 . S
In52 O54 2.326 . S
In52 O58 2.266 . S
In52 O59 2.326 . S
In52 O60 2.266 . S
In52 O61 2.326 . S
In52 O63 2.294 . S
In52 O64 2.326 . S
O53 In52 2.294 . S
O53 C62 1.240 . S
O54 In52 2.326 . S
O54 C62 1.252 . S
C55 O58 1.252 . S
C55 O59 1.260 . S
C56 O63 1.240 . S
C56 O64 1.252 . S
C57 O60 1.252 . S
C57 O61 1.260 . S
O58 In52 2.266 . S
O58 C55 1.252 . S
O59 In52 2.326 . S
O59 C55 1.260 . S
O60 In52 2.266 . S
O60 C57 1.252 . S
O61 In52 2.326 . S
O61 C57 1.260 . S
C62 O53 1.240 . S
C62 O54 1.252 . S
O63 In52 2.294 . S
O63 C56 1.240 . S
O64 In52 2.326 . S
O64 C56 1.252 . S
In65 O66 2.294 . S
In65 O67 2.326 . S
In65 O71 2.266 . S
In65 O72 2.326 . S
In65 O73 2.266 . S
In65 O74 2.326 . S
In65 O76 2.294 . S
In65 O77 2.326 . S
O66 In65 2.294 . S
O66 C75 1.240 . S
O67 In65 2.326 . S
O67 C75 1.252 . S
C68 O71 1.252 . S
C68 O72 1.260 . S
C69 O76 1.240 . S
C69 O77 1.252 . S
C70 O73 1.252 . S
C70 O74 1.260 . S
O71 In65 2.266 . S
O71 C68 1.252 . S
O72 In65 2.326 . S
O72 C68 1.260 . S
O73 In65 2.266 . S
O73 C70 1.252 . S
O74 In65 2.326 . S
O74 C70 1.260 . S
C75 O66 1.240 . S
C75 O67 1.252 . S
O76 In65 2.294 . S
O76 C69 1.240 . S
O77 In65 2.326 . S
O77 C69 1.252 . S
In78 O79 2.294 . S
In78 O80 2.326 . S
In78 O84 2.266 . S
In78 O85 2.326 . S
In78 O86 2.266 . S
In78 O87 2.326 . S
In78 O89 2.294 . S
In78 O90 2.326 . S
O79 In78 2.294 . S
O79 C88 1.240 . S
O80 In78 2.326 . S
O80 C88 1.252 . S
C81 O84 1.252 . S
C81 O85 1.260 . S
C82 O89 1.240 . S
C82 O90 1.252 . S
C83 O86 1.252 . S
C83 O87 1.260 . S
O84 In78 2.266 . S
O84 C81 1.252 . S
O85 In78 2.326 . S
O85 C81 1.260 . S
O86 In78 2.266 . S
O86 C83 1.252 . S
O87 In78 2.326 . S
O87 C83 1.260 . S
C88 O79 1.240 . S
C88 O80 1.252 . S
O89 In78 2.294 . S
O89 C82 1.240 . S
O90 In78 2.326 . S
O90 C82 1.252 . S
In91 O92 2.294 . S
In91 O93 2.326 . S
In91 O97 2.266 . S
In91 O98 2.326 . S
In91 O99 2.266 . S
In91 O100 2.326 . S
In91 O102 2.294 . S
In91 O103 2.326 . S
O92 In91 2.294 . S
O92 C101 1.240 . S
O93 In91 2.326 . S
O93 C101 1.252 . S
C94 O97 1.252 . S
C94 O98 1.260 . S
C95 O102 1.240 . S
C95 O103 1.252 . S
C96 O99 1.252 . S
C96 O100 1.260 . S
O97 In91 2.266 . S
O97 C94 1.252 . S
O98 In91 2.326 . S
O98 C94 1.260 . S
O99 In91 2.266 . S
O99 C96 1.252 . S
O100 In91 2.326 . S
O100 C96 1.260 . S
C101 O92 1.240 . S
C101 O93 1.252 . S
O102 In91 2.294 . S
O102 C95 1.240 . S
O103 In91 2.326 . S
O103 C95 1.252 . S
In104 O105 2.294 . S
In104 O106 2.326 . S
In104 O110 2.266 . S
In104 O111 2.326 . S
In104 O112 2.266 . S
In104 O113 2.326 . S
In104 O115 2.294 . S
In104 O116 2.326 . S
O105 In104 2.294 . S
O105 C114 1.240 . S
O106 In104 2.326 . S
O106 C114 1.252 . S
C107 O110 1.252 . S
C107 O111 1.260 . S
C108 O115 1.240 . S
C108 O116 1.252 . S
C109 O112 1.252 . S
C109 O113 1.260 . S
O110 In104 2.266 . S
O110 C107 1.252 . S
O111 In104 2.326 . S
O111 C107 1.260 . S
O112 In104 2.266 . S
O112 C109 1.252 . S
O113 In104 2.326 . S
O113 C109 1.260 . S
C114 O105 1.240 . S
C114 O106 1.252 . S
O115 In104 2.294 . S
O115 C108 1.240 . S
O116 In104 2.326 . S
O116 C108 1.252 . S
In117 O118 2.294 . S
In117 O119 2.326 . S
In117 O123 2.266 . S
In117 O124 2.326 . S
In117 O125 2.266 . S
In117 O126 2.326 . S
In117 O128 2.294 . S
In117 O129 2.326 . S
O118 In117 2.294 . S
O118 C127 1.240 . S
O119 In117 2.326 . S
O119 C127 1.252 . S
C120 O123 1.252 . S
C120 O124 1.260 . S
C121 O128 1.240 . S
C121 O129 1.252 . S
C122 O125 1.252 . S
C122 O126 1.260 . S
O123 In117 2.266 . S
O123 C120 1.252 . S
O124 In117 2.326 . S
O124 C120 1.260 . S
O125 In117 2.266 . S
O125 C122 1.252 . S
O126 In117 2.326 . S
O126 C122 1.260 . S
C127 O118 1.240 . S
C127 O119 1.252 . S
O128 In117 2.294 . S
O128 C121 1.240 . S
O129 In117 2.326 . S
O129 C121 1.252 . S
In130 O131 2.294 . S
In130 O132 2.326 . S
In130 O136 2.266 . S
In130 O137 2.326 . S
In130 O138 2.266 . S
In130 O139 2.326 . S
In130 O141 2.294 . S
In130 O142 2.326 . S
O131 In130 2.294 . S
O131 C140 1.240 . S
O132 In130 2.326 . S
O132 C140 1.252 . S
C133 O136 1.252 . S
C133 O137 1.260 . S
C134 O141 1.240 . S
C134 O142 1.252 . S
C135 O138 1.252 . S
C135 O139 1.260 . S
O136 In130 2.266 . S
O136 C133 1.252 . S
O137 In130 2.326 . S
O137 C133 1.260 . S
O138 In130 2.266 . S
O138 C135 1.252 . S
O139 In130 2.326 . S
O139 C135 1.260 . S
C140 O131 1.240 . S
C140 O132 1.252 . S
O141 In130 2.294 . S
O141 C134 1.240 . S
O142 In130 2.326 . S
O142 C134 1.252 . S
In143 O144 2.294 . S
In143 O145 2.326 . S
In143 O149 2.266 . S
In143 O150 2.326 . S
In143 O151 2.266 . S
In143 O152 2.326 . S
In143 O154 2.294 . S
In143 O155 2.326 . S
O144 In143 2.294 . S
O144 C153 1.240 . S
O145 In143 2.326 . S
O145 C153 1.252 . S
C146 O149 1.252 . S
C146 O150 1.260 . S
C147 O154 1.240 . S
C147 O155 1.252 . S
C148 O151 1.252 . S
C148 O152 1.260 . S
O149 In143 2.266 . S
O149 C146 1.252 . S
O150 In143 2.326 . S
O150 C146 1.260 . S
O151 In143 2.266 . S
O151 C148 1.252 . S
O152 In143 2.326 . S
O152 C148 1.260 . S
C153 O144 1.240 . S
C153 O145 1.252 . S
O154 In143 2.294 . S
O154 C147 1.240 . S
O155 In143 2.326 . S
O155 C147 1.252 . S
In156 O157 2.294 . S
In156 O158 2.326 . S
In156 O162 2.266 . S
In156 O163 2.326 . S
In156 O164 2.266 . S
In156 O165 2.326 . S
In156 O167 2.294 . S
In156 O168 2.326 . S
O157 In156 2.294 . S
O157 C166 1.240 . S
O158 In156 2.326 . S
O158 C166 1.252 . S
C159 O162 1.252 . S
C159 O163 1.260 . S
C160 O167 1.240 . S
C160 O168 1.252 . S
C161 O164 1.252 . S
C161 O165 1.260 . S
O162 In156 2.266 . S
O162 C159 1.252 . S
O163 In156 2.326 . S
O163 C159 1.260 . S
O164 In156 2.266 . S
O164 C161 1.252 . S
O165 In156 2.326 . S
O165 C161 1.260 . S
C166 O157 1.240 . S
C166 O158 1.252 . S
O167 In156 2.294 . S
O167 C160 1.240 . S
O168 In156 2.326 . S
O168 C160 1.252 . S
In169 O170 2.294 . S
In169 O171 2.326 . S
In169 O175 2.266 . S
In169 O176 2.326 . S
In169 O177 2.266 . S
In169 O178 2.326 . S
In169 O180 2.294 . S
In169 O181 2.326 . S
O170 In169 2.294 . S
O170 C179 1.240 . S
O171 In169 2.326 . S
O171 C179 1.252 . S
C172 O175 1.252 . S
C172 O176 1.260 . S
C173 O180 1.240 . S
C173 O181 1.252 . S
C174 O177 1.252 . S
C174 O178 1.260 . S
O175 In169 2.266 . S
O175 C172 1.252 . S
O176 In169 2.326 . S
O176 C172 1.260 . S
O177 In169 2.266 . S
O177 C174 1.252 . S
O178 In169 2.326 . S
O178 C174 1.260 . S
C179 O170 1.240 . S
C179 O171 1.252 . S
O180 In169 2.294 . S
O180 C173 1.240 . S
O181 In169 2.326 . S
O181 C173 1.252 . S
In182 O183 2.294 . S
In182 O184 2.326 . S
In182 O188 2.266 . S
In182 O189 2.326 . S
In182 O190 2.266 . S
In182 O191 2.326 . S
In182 O193 2.294 . S
In182 O194 2.326 . S
O183 In182 2.294 . S
O183 C192 1.240 . S
O184 In182 2.326 . S
O184 C192 1.252 . S
C185 O188 1.252 . S
C185 O189 1.260 . S
C186 O193 1.240 . S
C186 O194 1.252 . S
C187 O190 1.252 . S
C187 O191 1.260 . S
O188 In182 2.266 . S
O188 C185 1.252 . S
O189 In182 2.326 . S
O189 C185 1.260 . S
O190 In182 2.266 . S
O190 C187 1.252 . S
O191 In182 2.326 . S
O191 C187 1.260 . S
C192 O183 1.240 . S
C192 O184 1.252 . S
O193 In182 2.294 . S
O193 C186 1.240 . S
O194 In182 2.326 . S
O194 C186 1.252 . S
In195 O196 2.294 . S
In195 O197 2.326 . S
In195 O201 2.266 . S
In195 O202 2.326 . S
In195 O203 2.266 . S
In195 O204 2.326 . S
In195 O206 2.294 . S
In195 O207 2.326 . S
O196 In195 2.294 . S
O196 C205 1.240 . S
O197 In195 2.326 . S
O197 C205 1.252 . S
C198 O201 1.252 . S
C198 O202 1.260 . S
C199 O206 1.240 . S
C199 O207 1.252 . S
C200 O203 1.252 . S
C200 O204 1.260 . S
O201 In195 2.266 . S
O201 C198 1.252 . S
O202 In195 2.326 . S
O202 C198 1.260 . S
O203 In195 2.266 . S
O203 C200 1.252 . S
O204 In195 2.326 . S
O204 C200 1.260 . S
C205 O196 1.240 . S
C205 O197 1.252 . S
O206 In195 2.294 . S
O206 C199 1.240 . S
O207 In195 2.326 . S
O207 C199 1.252 . S
H208 C214 0.930 . S
H209 C217 0.930 . S
H210 C218 0.930 . S
H211 C219 0.930 . S
H212 C222 0.930 . S
H213 C223 0.930 . S
C214 H208 0.930 . S
C214 C215 1.355 . S
C214 C216 1.415 1_455 S
C215 C214 1.355 . S
C215 C217 1.419 . S
C216 C214 1.415 1_655 S
C216 C221 1.425 . S
C216 C223 1.409 . S
C217 H209 0.930 . S
C217 C215 1.419 . S
C217 C218 1.362 1_455 S
C218 H210 0.930 . S
C218 C217 1.362 1_655 S
C218 C221 1.409 . S
C219 H211 0.930 . S
C219 C220 1.355 . S
C219 C221 1.415 . S
C220 C219 1.355 . S
C220 C222 1.419 . S
C221 C216 1.425 . S
C221 C218 1.409 . S
C221 C219 1.415 . S
C222 H212 0.930 . S
C222 C220 1.419 . S
C222 C223 1.362 . S
C223 H213 0.930 . S
C223 C216 1.409 . S
C223 C222 1.362 . S
H224 C230 0.930 . S
H225 C233 0.930 . S
H226 C234 0.930 . S
H227 C235 0.930 . S
H228 C238 0.930 . S
H229 C239 0.930 . S
C230 H224 0.930 . S
C230 C231 1.355 . S
C230 C232 1.415 1_655 S
C231 C230 1.355 . S
C231 C233 1.419 . S
C232 C230 1.415 1_455 S
C232 C237 1.425 . S
C232 C239 1.409 . S
C233 H225 0.930 . S
C233 C231 1.419 . S
C233 C234 1.362 1_655 S
C234 H226 0.930 . S
C234 C233 1.362 1_455 S
C234 C237 1.409 . S
C235 H227 0.930 . S
C235 C236 1.355 . S
C235 C237 1.415 . S
C236 C235 1.355 . S
C236 C238 1.419 . S
C237 C232 1.425 . S
C237 C234 1.409 . S
C237 C235 1.415 . S
C238 H228 0.930 . S
C238 C236 1.419 . S
C238 C239 1.362 . S
C239 H229 0.930 . S
C239 C232 1.409 . S
C239 C238 1.362 . S
H240 C246 0.930 . S
H241 C249 0.930 . S
H242 C250 0.930 . S
H243 C251 0.930 . S
H244 C254 0.930 . S
H245 C255 0.930 . S
C246 H240 0.930 . S
C246 C247 1.355 . S
C246 C248 1.415 . S
C247 C246 1.355 . S
C247 C249 1.419 . S
C248 C246 1.415 . S
C248 C253 1.425 . S
C248 C255 1.409 . S
C249 H241 0.930 . S
C249 C247 1.419 . S
C249 C250 1.362 . S
C250 H242 0.930 . S
C250 C249 1.362 . S
C250 C253 1.409 . S
C251 H243 0.930 . S
C251 C252 1.355 . S
C251 C253 1.415 1_455 S
C252 C251 1.355 . S
C252 C254 1.419 . S
C253 C248 1.425 . S
C253 C250 1.409 . S
C253 C251 1.415 1_655 S
C254 H244 0.930 . S
C254 C252 1.419 . S
C254 C255 1.362 1_455 S
C255 H245 0.930 . S
C255 C248 1.409 . S
C255 C254 1.362 1_655 S
H256 C262 0.930 . S
H257 C265 0.930 . S
H258 C266 0.930 . S
H259 C267 0.930 . S
H260 C270 0.930 . S
H261 C271 0.930 . S
C262 H256 0.930 . S
C262 C263 1.355 . S
C262 C264 1.415 . S
C263 C262 1.355 . S
C263 C265 1.419 . S
C264 C262 1.415 . S
C264 C269 1.425 . S
C264 C271 1.409 . S
C265 H257 0.930 . S
C265 C263 1.419 . S
C265 C266 1.362 . S
C266 H258 0.930 . S
C266 C265 1.362 . S
C266 C269 1.409 . S
C267 H259 0.930 . S
C267 C268 1.355 . S
C267 C269 1.415 1_655 S
C268 C267 1.355 . S
C268 C270 1.419 . S
C269 C264 1.425 . S
C269 C266 1.409 . S
C269 C267 1.415 1_455 S
C270 H260 0.930 . S
C270 C268 1.419 . S
C270 C271 1.362 1_655 S
C271 H261 0.930 . S
C271 C264 1.409 . S
C271 C270 1.362 1_455 S
H272 C278 0.930 . S
H273 C281 0.930 . S
H274 C282 0.930 . S
H275 C283 0.930 . S
H276 C286 0.930 . S
H277 C287 0.930 . S
C278 H272 0.930 . S
C278 C279 1.355 . S
C278 C280 1.415 . S
C279 C278 1.355 . S
C279 C281 1.419 . S
C280 C278 1.415 . S
C280 C285 1.425 . S
C280 C287 1.409 . S
C281 H273 0.930 . S
C281 C279 1.419 . S
C281 C282 1.362 . S
C282 H274 0.930 . S
C282 C281 1.362 . S
C282 C285 1.409 . S
C283 H275 0.930 . S
C283 C284 1.355 . S
C283 C285 1.415 . S
C284 C283 1.355 . S
C284 C286 1.419 . S
C285 C280 1.425 . S
C285 C282 1.409 . S
C285 C283 1.415 . S
C286 H276 0.930 . S
C286 C284 1.419 . S
C286 C287 1.362 . S
C287 H277 0.930 . S
C287 C280 1.409 . S
C287 C286 1.362 . S
H288 C294 0.930 . S
H289 C297 0.930 . S
H290 C298 0.930 . S
H291 C299 0.930 . S
H292 C302 0.930 . S
H293 C303 0.930 . S
C294 H288 0.930 . S
C294 C295 1.355 . S
C294 C296 1.415 . S
C295 C294 1.355 . S
C295 C297 1.419 . S
C296 C294 1.415 . S
C296 C301 1.425 . S
C296 C303 1.409 . S
C297 H289 0.930 . S
C297 C295 1.419 . S
C297 C298 1.362 . S
C298 H290 0.930 . S
C298 C297 1.362 . S
C298 C301 1.409 . S
C299 H291 0.930 . S
C299 C300 1.355 . S
C299 C301 1.415 . S
C300 C299 1.355 . S
C300 C302 1.419 . S
C301 C296 1.425 . S
C301 C298 1.409 . S
C301 C299 1.415 . S
C302 H292 0.930 . S
C302 C300 1.419 . S
C302 C303 1.362 . S
C303 H293 0.930 . S
C303 C296 1.409 . S
C303 C302 1.362 . S
H304 C310 0.930 . S
H305 C313 0.930 . S
H306 C314 0.930 . S
H307 C315 0.930 . S
H308 C318 0.930 . S
H309 C319 0.930 . S
C310 H304 0.930 . S
C310 C311 1.355 . S
C310 C312 1.415 . S
C311 C310 1.355 . S
C311 C313 1.419 . S
C312 C310 1.415 . S
C312 C317 1.425 . S
C312 C319 1.409 . S
C313 H305 0.930 . S
C313 C311 1.419 . S
C313 C314 1.362 . S
C314 H306 0.930 . S
C314 C313 1.362 . S
C314 C317 1.409 . S
C315 H307 0.930 . S
C315 C316 1.355 . S
C315 C317 1.415 . S
C316 C315 1.355 . S
C316 C318 1.419 . S
C317 C312 1.425 . S
C317 C314 1.409 . S
C317 C315 1.415 . S
C318 H308 0.930 . S
C318 C316 1.419 . S
C318 C319 1.362 . S
C319 H309 0.930 . S
C319 C312 1.409 . S
C319 C318 1.362 . S
H320 C326 0.930 . S
H321 C329 0.930 . S
H322 C330 0.930 . S
H323 C331 0.930 . S
H324 C334 0.930 . S
H325 C335 0.930 . S
C326 H320 0.930 . S
C326 C327 1.355 . S
C326 C328 1.415 . S
C327 C326 1.355 . S
C327 C329 1.419 . S
C328 C326 1.415 . S
C328 C333 1.425 . S
C328 C335 1.409 . S
C329 H321 0.930 . S
C329 C327 1.419 . S
C329 C330 1.362 . S
C330 H322 0.930 . S
C330 C329 1.362 . S
C330 C333 1.409 . S
C331 H323 0.930 . S
C331 C332 1.355 . S
C331 C333 1.415 . S
C332 C331 1.355 . S
C332 C334 1.419 . S
C333 C328 1.425 . S
C333 C330 1.409 . S
C333 C331 1.415 . S
C334 H324 0.930 . S
C334 C332 1.419 . S
C334 C335 1.362 . S
C335 H325 0.930 . S
C335 C328 1.409 . S
C335 C334 1.362 . S
H336 C342 0.930 . S
H337 C345 0.930 . S
H338 C346 0.930 . S
H339 C347 0.930 . S
H340 C350 0.930 . S
H341 C351 0.930 . S
C342 H336 0.930 . S
C342 C343 1.355 . S
C342 C344 1.415 . S
C343 C342 1.355 . S
C343 C345 1.419 . S
C344 C342 1.415 . S
C344 C349 1.425 . S
C344 C351 1.409 . S
C345 H337 0.930 . S
C345 C343 1.419 . S
C345 C346 1.362 . S
C346 H338 0.930 . S
C346 C345 1.362 . S
C346 C349 1.409 . S
C347 H339 0.930 . S
C347 C348 1.355 . S
C347 C349 1.415 . S
C348 C347 1.355 . S
C348 C350 1.419 . S
C349 C344 1.425 . S
C349 C346 1.409 . S
C349 C347 1.415 . S
C350 H340 0.930 . S
C350 C348 1.419 . S
C350 C351 1.362 . S
C351 H341 0.930 . S
C351 C344 1.409 . S
C351 C350 1.362 . S
H352 C358 0.930 . S
H353 C361 0.930 . S
H354 C362 0.930 . S
H355 C363 0.930 . S
H356 C366 0.930 . S
H357 C367 0.930 . S
C358 H352 0.930 . S
C358 C359 1.355 . S
C358 C360 1.415 . S
C359 C358 1.355 . S
C359 C361 1.419 . S
C360 C358 1.415 . S
C360 C365 1.425 . S
C360 C367 1.409 . S
C361 H353 0.930 . S
C361 C359 1.419 . S
C361 C362 1.362 . S
C362 H354 0.930 . S
C362 C361 1.362 . S
C362 C365 1.409 . S
C363 H355 0.930 . S
C363 C364 1.355 . S
C363 C365 1.415 . S
C364 C363 1.355 . S
C364 C366 1.419 . S
C365 C360 1.425 . S
C365 C362 1.409 . S
C365 C363 1.415 . S
C366 H356 0.930 . S
C366 C364 1.419 . S
C366 C367 1.362 . S
C367 H357 0.930 . S
C367 C360 1.409 . S
C367 C366 1.362 . S
H368 C374 0.930 . S
H369 C377 0.930 . S
H370 C378 0.930 . S
H371 C379 0.930 . S
H372 C382 0.930 . S
H373 C383 0.930 . S
C374 H368 0.930 . S
C374 C375 1.355 . S
C374 C376 1.415 . S
C375 C374 1.355 . S
C375 C377 1.419 . S
C376 C374 1.415 . S
C376 C381 1.425 . S
C376 C383 1.409 . S
C377 H369 0.930 . S
C377 C375 1.419 . S
C377 C378 1.362 . S
C378 H370 0.930 . S
C378 C377 1.362 . S
C378 C381 1.409 . S
C379 H371 0.930 . S
C379 C380 1.355 . S
C379 C381 1.415 . S
C380 C379 1.355 . S
C380 C382 1.419 . S
C381 C376 1.425 . S
C381 C378 1.409 . S
C381 C379 1.415 . S
C382 H372 0.930 . S
C382 C380 1.419 . S
C382 C383 1.362 . S
C383 H373 0.930 . S
C383 C376 1.409 . S
C383 C382 1.362 . S
H384 C390 0.930 . S
H385 C393 0.930 . S
H386 C394 0.930 . S
H387 C395 0.930 . S
H388 C398 0.930 . S
H389 C399 0.930 . S
C390 H384 0.930 . S
C390 C391 1.355 . S
C390 C392 1.415 . S
C391 C390 1.355 . S
C391 C393 1.419 . S
C392 C390 1.415 . S
C392 C397 1.425 . S
C392 C399 1.409 . S
C393 H385 0.930 . S
C393 C391 1.419 . S
C393 C394 1.362 . S
C394 H386 0.930 . S
C394 C393 1.362 . S
C394 C397 1.409 . S
C395 H387 0.930 . S
C395 C396 1.355 . S
C395 C397 1.415 . S
C396 C395 1.355 . S
C396 C398 1.419 . S
C397 C392 1.425 . S
C397 C394 1.409 . S
C397 C395 1.415 . S
C398 H388 0.930 . S
C398 C396 1.419 . S
C398 C399 1.362 . S
C399 H389 0.930 . S
C399 C392 1.409 . S
C399 C398 1.362 . S
H400 C406 0.930 . S
H401 C409 0.930 . S
H402 C410 0.930 . S
H403 C411 0.930 . S
H404 C414 0.930 . S
H405 C415 0.930 . S
C406 H400 0.930 . S
C406 C407 1.355 . S
C406 C408 1.415 . S
C407 C406 1.355 . S
C407 C409 1.419 . S
C408 C406 1.415 . S
C408 C413 1.425 . S
C408 C415 1.409 . S
C409 H401 0.930 . S
C409 C407 1.419 . S
C409 C410 1.362 . S
C410 H402 0.930 . S
C410 C409 1.362 . S
C410 C413 1.409 . S
C411 H403 0.930 . S
C411 C412 1.355 . S
C411 C413 1.415 . S
C412 C411 1.355 . S
C412 C414 1.419 . S
C413 C408 1.425 . S
C413 C410 1.409 . S
C413 C411 1.415 . S
C414 H404 0.930 . S
C414 C412 1.419 . S
C414 C415 1.362 . S
C415 H405 0.930 . S
C415 C408 1.409 . S
C415 C414 1.362 . S
H416 C422 0.930 . S
H417 C425 0.930 . S
H418 C426 0.930 . S
H419 C427 0.930 . S
H420 C430 0.930 . S
H421 C431 0.930 . S
C422 H416 0.930 . S
C422 C423 1.355 . S
C422 C424 1.415 . S
C423 C422 1.355 . S
C423 C425 1.419 . S
C424 C422 1.415 . S
C424 C429 1.425 . S
C424 C431 1.409 . S
C425 H417 0.930 . S
C425 C423 1.419 . S
C425 C426 1.362 . S
C426 H418 0.930 . S
C426 C425 1.362 . S
C426 C429 1.409 . S
C427 H419 0.930 . S
C427 C428 1.355 . S
C427 C429 1.415 . S
C428 C427 1.355 . S
C428 C430 1.419 . S
C429 C424 1.425 . S
C429 C426 1.409 . S
C429 C427 1.415 . S
C430 H420 0.930 . S
C430 C428 1.419 . S
C430 C431 1.362 . S
C431 H421 0.930 . S
C431 C424 1.409 . S
C431 C430 1.362 . S
H432 C438 0.930 . S
H433 C441 0.930 . S
H434 C442 0.930 . S
H435 C443 0.930 . S
H436 C446 0.930 . S
H437 C447 0.930 . S
C438 H432 0.930 . S
C438 C439 1.355 . S
C438 C440 1.415 . S
C439 C438 1.355 . S
C439 C441 1.419 . S
C440 C438 1.415 . S
C440 C445 1.425 . S
C440 C447 1.409 . S
C441 H433 0.930 . S
C441 C439 1.419 . S
C441 C442 1.362 . S
C442 H434 0.930 . S
C442 C441 1.362 . S
C442 C445 1.409 . S
C443 H435 0.930 . S
C443 C444 1.355 . S
C443 C445 1.415 . S
C444 C443 1.355 . S
C444 C446 1.419 . S
C445 C440 1.425 . S
C445 C442 1.409 . S
C445 C443 1.415 . S
C446 H436 0.930 . S
C446 C444 1.419 . S
C446 C447 1.362 . S
C447 H437 0.930 . S
C447 C440 1.409 . S
C447 C446 1.362 . S
H448 C454 0.930 . S
H449 C457 0.930 . S
H450 C458 0.930 . S
H451 C459 0.930 . S
H452 C462 0.930 . S
H453 C463 0.930 . S
C454 H448 0.930 . S
C454 C455 1.355 . S
C454 C456 1.415 . S
C455 C454 1.355 . S
C455 C457 1.419 . S
C456 C454 1.415 . S
C456 C461 1.425 . S
C456 C463 1.409 . S
C457 H449 0.930 . S
C457 C455 1.419 . S
C457 C458 1.362 . S
C458 H450 0.930 . S
C458 C457 1.362 . S
C458 C461 1.409 . S
C459 H451 0.930 . S
C459 C460 1.355 . S
C459 C461 1.415 . S
C460 C459 1.355 . S
C460 C462 1.419 . S
C461 C456 1.425 . S
C461 C458 1.409 . S
C461 C459 1.415 . S
C462 H452 0.930 . S
C462 C460 1.419 . S
C462 C463 1.362 . S
C463 H453 0.930 . S
C463 C456 1.409 . S
C463 C462 1.362 . S
H464 C470 0.930 1_554 S
H465 C473 0.930 . S
H466 C474 0.930 . S
H467 C475 0.930 1_556 S
H468 C478 0.930 . S
H469 C479 0.930 . S
C470 H464 0.930 1_556 S
C470 C471 1.355 . S
C470 C472 1.415 1_556 S
C471 C470 1.355 . S
C471 C473 1.419 . S
C472 C470 1.415 1_554 S
C472 C477 1.425 1_554 S
C472 C479 1.409 . S
C473 H465 0.930 . S
C473 C471 1.419 . S
C473 C474 1.362 . S
C474 H466 0.930 . S
C474 C473 1.362 . S
C474 C477 1.409 . S
C475 H467 0.930 1_554 S
C475 C476 1.355 . S
C475 C477 1.415 1_554 S
C476 C475 1.355 . S
C476 C478 1.419 . S
C477 C472 1.425 1_556 S
C477 C474 1.409 . S
C477 C475 1.415 1_556 S
C478 H468 0.930 . S
C478 C476 1.419 . S
C478 C479 1.362 . S
C479 H469 0.930 . S
C479 C472 1.409 . S
C479 C478 1.362 . S
H480 C486 0.930 . S
H481 C489 0.930 . S
H482 C490 0.930 . S
H483 C491 0.930 . S
H484 C494 0.930 . S
H485 C495 0.930 . S
C486 H480 0.930 . S
C486 C487 1.355 . S
C486 C488 1.415 . S
C487 C486 1.355 . S
C487 C489 1.419 . S
C488 C486 1.415 . S
C488 C493 1.425 . S
C488 C495 1.409 . S
C489 H481 0.930 . S
C489 C487 1.419 . S
C489 C490 1.362 . S
C490 H482 0.930 . S
C490 C489 1.362 . S
C490 C493 1.409 . S
C491 H483 0.930 . S
C491 C492 1.355 . S
C491 C493 1.415 . S
C492 C491 1.355 . S
C492 C494 1.419 . S
C493 C488 1.425 . S
C493 C490 1.409 . S
C493 C491 1.415 . S
C494 H484 0.930 . S
C494 C492 1.419 . S
C494 C495 1.362 . S
C495 H485 0.930 . S
C495 C488 1.409 . S
C495 C494 1.362 . S
H496 C502 0.930 . S
H497 C505 0.930 . S
H498 C506 0.942 . S
H499 C507 0.930 . S
H500 C510 0.930 . S
H501 C511 0.930 . S
C502 H496 0.930 . S
C502 C503 1.355 . S
C502 C504 1.415 . S
C503 C502 1.355 . S
C503 C505 1.419 . S
C504 C502 1.415 . S
C504 C509 1.425 1_554 S
C504 C511 1.409 . S
C505 H497 0.930 . S
C505 C503 1.419 . S
C505 C506 1.346 1_554 S
C506 H498 0.942 . S
C506 C505 1.346 1_556 S
C506 C509 1.414 . S
C507 H499 0.930 . S
C507 C508 1.355 . S
C507 C509 1.415 . S
C508 C507 1.355 . S
C508 C510 1.419 . S
C509 C504 1.425 1_556 S
C509 C506 1.414 . S
C509 C507 1.415 . S
C510 H500 0.930 . S
C510 C508 1.419 . S
C510 C511 1.362 1_556 S
C511 H501 0.930 . S
C511 C504 1.409 . S
C511 C510 1.362 1_554 S
H512 C518 0.930 . S
H513 C521 0.930 . S
H514 C522 0.930 . S
H515 C523 0.930 . S
H516 C526 0.930 . S
H517 C527 0.930 . S
C518 H512 0.930 . S
C518 C519 1.355 . S
C518 C520 1.415 . S
C519 C518 1.355 . S
C519 C521 1.419 . S
C520 C518 1.415 . S
C520 C525 1.425 . S
C520 C527 1.409 . S
C521 H513 0.930 . S
C521 C519 1.419 . S
C521 C522 1.362 . S
C522 H514 0.930 . S
C522 C521 1.362 . S
C522 C525 1.409 . S
C523 H515 0.930 . S
C523 C524 1.355 . S
C523 C525 1.415 . S
C524 C523 1.355 . S
C524 C526 1.419 . S
C525 C520 1.425 . S
C525 C522 1.409 . S
C525 C523 1.415 . S
C526 H516 0.930 . S
C526 C524 1.419 . S
C526 C527 1.362 . S
C527 H517 0.930 . S
C527 C520 1.409 . S
C527 C526 1.362 . S
H528 C534 0.930 . S
H529 C537 0.930 1_556 S
H530 C538 0.930 . S
H531 C539 0.930 . S
H532 C542 0.930 . S
H533 C543 0.930 . S
C534 H528 0.930 . S
C534 C535 1.355 . S
C534 C536 1.415 . S
C535 C534 1.355 . S
C535 C537 1.419 . S
C536 C534 1.415 . S
C536 C541 1.425 1_554 S
C536 C543 1.409 . S
C537 H529 0.930 1_554 S
C537 C535 1.419 . S
C537 C538 1.362 1_554 S
C538 H530 0.930 . S
C538 C537 1.362 1_556 S
C538 C541 1.409 . S
C539 H531 0.930 . S
C539 C540 1.355 . S
C539 C541 1.415 . S
C540 C539 1.355 . S
C540 C542 1.419 . S
C541 C536 1.425 1_556 S
C541 C538 1.409 . S
C541 C539 1.415 . S
C542 H532 0.930 . S
C542 C540 1.419 . S
C542 C543 1.362 1_556 S
C543 H533 0.930 . S
C543 C536 1.409 . S
C543 C542 1.362 1_554 S
H544 C550 0.930 . S
H545 C553 0.930 . S
H546 C554 0.930 . S
H547 C555 0.930 . S
H548 C558 0.930 . S
H549 C559 0.930 . S
C550 H544 0.930 . S
C550 C551 1.355 . S
C550 C552 1.415 . S
C551 C550 1.355 . S
C551 C553 1.419 . S
C552 C550 1.415 . S
C552 C557 1.425 . S
C552 C559 1.409 . S
C553 H545 0.930 . S
C553 C551 1.419 . S
C553 C554 1.362 . S
C554 H546 0.930 . S
C554 C553 1.362 . S
C554 C557 1.409 . S
C555 H547 0.930 . S
C555 C556 1.355 . S
C555 C557 1.415 . S
C556 C555 1.355 . S
C556 C558 1.419 . S
C557 C552 1.425 . S
C557 C554 1.409 . S
C557 C555 1.415 . S
C558 H548 0.930 . S
C558 C556 1.419 . S
C558 C559 1.362 . S
C559 H549 0.930 . S
C559 C552 1.409 . S
C559 C558 1.362 . S
H560 C566 0.930 . S
H561 C569 0.930 . S
H562 C570 0.934 . S
H563 C571 0.930 . S
H564 C574 0.930 . S
H565 C575 0.930 . S
C566 H560 0.930 . S
C566 C567 1.355 . S
C566 C568 1.415 . S
C567 C566 1.355 . S
C567 C569 1.419 . S
C568 C566 1.415 . S
C568 C573 1.425 1_554 S
C568 C575 1.409 . S
C569 H561 0.930 . S
C569 C567 1.419 . S
C569 C570 1.356 1_554 S
C570 H562 0.934 . S
C570 C569 1.356 1_556 S
C570 C573 1.411 . S
C571 H563 0.930 . S
C571 C572 1.355 . S
C571 C573 1.415 . S
C572 C571 1.355 . S
C572 C574 1.419 . S
C573 C568 1.425 1_556 S
C573 C570 1.411 . S
C573 C571 1.415 . S
C574 H564 0.930 . S
C574 C572 1.419 . S
C574 C575 1.362 1_556 S
C575 H565 0.930 . S
C575 C568 1.409 . S
C575 C574 1.362 1_554 S
H576 C582 0.930 . S
H577 C585 0.930 . S
H578 C586 0.930 . S
H579 C587 0.930 . S
H580 C590 0.930 . S
H581 C591 0.930 . S
C582 H576 0.930 . S
C582 C583 1.355 . S
C582 C584 1.415 . S
C583 C582 1.355 . S
C583 C585 1.419 . S
C584 C582 1.415 . S
C584 C589 1.425 . S
C584 C591 1.409 . S
C585 H577 0.930 . S
C585 C583 1.419 . S
C585 C586 1.362 . S
C586 H578 0.930 . S
C586 C585 1.362 . S
C586 C589 1.409 . S
C587 H579 0.930 . S
C587 C588 1.355 . S
C587 C589 1.415 . S
C588 C587 1.355 . S
C588 C590 1.419 . S
C589 C584 1.425 . S
C589 C586 1.409 . S
C589 C587 1.415 . S
C590 H580 0.930 . S
C590 C588 1.419 . S
C590 C591 1.362 . S
C591 H581 0.930 . S
C591 C584 1.409 . S
C591 C590 1.362 . S
H592 C598 0.930 . S
H593 C601 0.930 . S
H594 C602 0.930 . S
H595 C603 0.930 . S
H596 C606 0.930 . S
H597 C607 0.930 . S
C598 H592 0.930 . S
C598 C599 1.355 . S
C598 C600 1.415 . S
C599 C598 1.355 . S
C599 C601 1.419 1_556 S
C600 C598 1.415 . S
C600 C605 1.425 1_556 S
C600 C607 1.409 . S
C601 H593 0.930 . S
C601 C599 1.419 1_554 S
C601 C602 1.362 . S
C602 H594 0.930 . S
C602 C601 1.362 . S
C602 C605 1.409 . S
C603 H595 0.930 . S
C603 C604 1.355 . S
C603 C605 1.415 . S
C604 C603 1.355 . S
C604 C606 1.419 1_554 S
C605 C600 1.425 1_554 S
C605 C602 1.409 . S
C605 C603 1.415 . S
C606 H596 0.930 . S
C606 C604 1.419 1_556 S
C606 C607 1.362 . S
C607 H597 0.930 . S
C607 C600 1.409 . S
C607 C606 1.362 . S
H608 C614 0.930 . S
H609 C617 0.930 . S
H610 C618 0.930 . S
H611 C619 0.930 . S
H612 C622 0.930 . S
H613 C623 0.930 . S
C614 H608 0.930 . S
C614 C615 1.355 . S
C614 C616 1.415 . S
C615 C614 1.355 . S
C615 C617 1.419 . S
C616 C614 1.415 . S
C616 C621 1.425 . S
C616 C623 1.409 . S
C617 H609 0.930 . S
C617 C615 1.419 . S
C617 C618 1.362 . S
C618 H610 0.930 . S
C618 C617 1.362 . S
C618 C621 1.409 . S
C619 H611 0.930 . S
C619 C620 1.355 . S
C619 C621 1.415 . S
C620 C619 1.355 . S
C620 C622 1.419 . S
C621 C616 1.425 . S
C621 C618 1.409 . S
C621 C619 1.415 . S
C622 H612 0.930 . S
C622 C620 1.419 . S
C622 C623 1.362 . S
C623 H613 0.930 . S
C623 C616 1.409 . S
C623 C622 1.362 . S
H624 C630 0.930 . S
H625 C633 0.930 . S
H626 C634 0.930 . S
H627 C635 0.930 . S
H628 C638 0.930 . S
H629 C639 0.930 . S
C630 H624 0.930 . S
C630 C631 1.355 . S
C630 C632 1.415 . S
C631 C630 1.355 . S
C631 C633 1.419 1_554 S
C632 C630 1.415 . S
C632 C637 1.425 1_554 S
C632 C639 1.409 . S
C633 H625 0.930 . S
C633 C631 1.419 1_556 S
C633 C634 1.362 . S
C634 H626 0.930 . S
C634 C633 1.362 . S
C634 C637 1.409 . S
C635 H627 0.930 . S
C635 C636 1.355 . S
C635 C637 1.415 . S
C636 C635 1.355 . S
C636 C638 1.419 1_556 S
C637 C632 1.425 1_556 S
C637 C634 1.409 . S
C637 C635 1.415 . S
C638 H628 0.930 . S
C638 C636 1.419 1_554 S
C638 C639 1.362 . S
C639 H629 0.930 . S
C639 C632 1.409 . S
C639 C638 1.362 . S
H640 C646 0.930 . S
H641 C649 0.930 . S
H642 C650 0.930 . S
H643 C651 0.930 . S
H644 C654 0.930 . S
H645 C655 0.930 . S
C646 H640 0.930 . S
C646 C647 1.355 . S
C646 C648 1.415 . S
C647 C646 1.355 . S
C647 C649 1.419 . S
C648 C646 1.415 . S
C648 C653 1.425 . S
C648 C655 1.409 . S
C649 H641 0.930 . S
C649 C647 1.419 . S
C649 C650 1.362 . S
C650 H642 0.930 . S
C650 C649 1.362 . S
C650 C653 1.409 . S
C651 H643 0.930 . S
C651 C652 1.355 . S
C651 C653 1.415 . S
C652 C651 1.355 . S
C652 C654 1.419 . S
C653 C648 1.425 . S
C653 C650 1.409 . S
C653 C651 1.415 . S
C654 H644 0.930 . S
C654 C652 1.419 . S
C654 C655 1.362 . S
C655 H645 0.930 . S
C655 C648 1.409 . S
C655 C654 1.362 . S
H656 C662 0.930 . S
H657 C665 0.930 . S
H658 C666 0.930 1_565 S
H659 C667 0.930 . S
H660 C670 0.930 . S
H661 C671 0.930 1_545 S
C662 H656 0.930 . S
C662 C663 1.355 1_554 S
C662 C664 1.415 . S
C663 C662 1.355 1_556 S
C663 C665 1.419 . S
C664 C662 1.415 . S
C664 C669 1.425 1_544 S
C664 C671 1.409 1_545 S
C665 H657 0.930 . S
C665 C663 1.419 . S
C665 C666 1.362 . S
C666 H658 0.930 1_545 S
C666 C665 1.362 . S
C666 C669 1.409 1_545 S
C667 H659 0.930 . S
C667 C668 1.355 1_556 S
C667 C669 1.415 . S
C668 C667 1.355 1_554 S
C668 C670 1.419 . S
C669 C664 1.425 1_566 S
C669 C666 1.409 1_565 S
C669 C667 1.415 . S
C670 H660 0.930 . S
C670 C668 1.419 . S
C670 C671 1.362 . S
C671 H661 0.930 1_565 S
C671 C664 1.409 1_565 S
C671 C670 1.362 . S
H672 C678 0.930 . S
H673 C681 0.930 . S
H674 C682 0.930 . S
H675 C683 0.930 . S
H676 C686 0.930 . S
H677 C687 0.930 . S
C678 H672 0.930 . S
C678 C679 1.355 . S
C678 C680 1.415 . S
C679 C678 1.355 . S
C679 C681 1.419 . S
C680 C678 1.415 . S
C680 C685 1.425 1_565 S
C680 C687 1.409 1_565 S
C681 H673 0.930 . S
C681 C679 1.419 . S
C681 C682 1.362 . S
C682 H674 0.930 . S
C682 C681 1.362 . S
C682 C685 1.409 1_565 S
C683 H675 0.930 . S
C683 C684 1.355 . S
C683 C685 1.415 . S
C684 C683 1.355 . S
C684 C686 1.419 . S
C685 C680 1.425 1_545 S
C685 C682 1.409 1_545 S
C685 C683 1.415 . S
C686 H676 0.930 . S
C686 C684 1.419 . S
C686 C687 1.362 . S
C687 H677 0.930 . S
C687 C680 1.409 1_545 S
C687 C686 1.362 . S
H688 C694 0.930 . S
H689 C697 0.930 . S
H690 C698 0.922 1_545 S
H691 C699 0.930 . S
H692 C702 0.930 . S
H693 C703 0.922 1_565 S
C694 H688 0.930 . S
C694 C695 1.355 . S
C694 C696 1.415 1_554 S
C695 C694 1.355 . S
C695 C697 1.419 . S
C696 C694 1.415 1_556 S
C696 C701 1.425 1_566 S
C696 C703 1.409 1_565 S
C697 H689 0.930 . S
C697 C695 1.419 . S
C697 C698 1.362 . S
C698 H690 0.922 1_565 S
C698 C697 1.362 . S
C698 C701 1.409 1_565 S
C699 H691 0.930 . S
C699 C700 1.355 . S
C699 C701 1.415 1_556 S
C700 C699 1.355 . S
C700 C702 1.419 . S
C701 C696 1.425 1_544 S
C701 C698 1.409 1_545 S
C701 C699 1.415 1_554 S
C702 H692 0.930 . S
C702 C700 1.419 . S
C702 C703 1.362 . S
C703 H693 0.922 1_545 S
C703 C696 1.409 1_545 S
C703 C702 1.362 . S
H704 C710 0.930 . S
H705 C713 0.930 . S
H706 C714 0.926 1_565 S
H707 C715 0.930 . S
H708 C718 0.930 . S
H709 C719 0.926 1_545 S
C710 H704 0.930 . S
C710 C711 1.355 . S
C710 C712 1.415 . S
C711 C710 1.355 . S
C711 C713 1.419 . S
C712 C710 1.415 . S
C712 C717 1.425 1_545 S
C712 C719 1.407 1_545 S
C713 H705 0.930 . S
C713 C711 1.419 . S
C713 C714 1.369 . S
C714 H706 0.926 1_545 S
C714 C713 1.369 . S
C714 C717 1.407 1_545 S
C715 H707 0.930 . S
C715 C716 1.355 . S
C715 C717 1.415 . S
C716 C715 1.355 . S
C716 C718 1.419 . S
C717 C712 1.425 1_565 S
C717 C714 1.407 1_565 S
C717 C715 1.415 . S
C718 H708 0.930 . S
C718 C716 1.419 . S
C718 C719 1.369 . S
C719 H709 0.926 1_565 S
C719 C712 1.407 1_565 S
C719 C718 1.369 . S
C215 C3 1.456 . S
C220 C83 1.472 . S
C231 C16 1.458 . S
C236 C96 1.467 . S
C247 C55 1.452 . S
C252 C31 1.473 . S
C263 C70 1.453 . S
C268 C44 1.474 . S
C279 C187 1.458 . S
C284 C109 1.472 . S
C295 C200 1.472 . S
C300 C120 1.456 . S
C311 C135 1.464 . S
C316 C161 1.459 . S
C327 C146 1.456 . S
C332 C174 1.473 . S
C343 C4 1.565 . S
C348 C68 1.550 . S
C359 C17 1.560 . S
C364 C57 1.584 . S
C375 C36 1.565 . S
C380 C94 1.549 . S
C391 C81 1.559 . S
C396 C49 1.551 . S
C407 C172 1.566 . S
C412 C114 1.548 . S
C423 C159 1.555 . S
C428 C121 1.581 . S
C439 C140 1.582 . S
C444 C198 1.572 . S
C455 C185 1.553 . S
C460 C147 1.579 . S
C471 C160 1.493 . S
C476 C10 1.489 . S
C487 C23 1.472 . S
C492 C173 1.467 . S
C503 C186 1.489 . S
C508 C30 1.497 . S
C519 C199 1.502 . S
C524 C43 1.504 . S
C535 C108 1.477 . S
C540 C62 1.469 . S
C551 C127 1.478 . S
C556 C69 1.469 . S
C567 C82 1.490 . S
C572 C134 1.497 . S
C583 C95 1.480 . S
C588 C153 1.489 . S
C599 C29 1.718 . S
C604 C5 1.714 . S
C615 C18 1.724 . S
C620 C42 1.722 . S
C631 C88 1.411 . S
C636 C56 1.398 . S
C647 C75 1.388 . S
C652 C101 1.409 . S
C663 C133 1.697 . S
C668 C107 1.696 . S
C679 C148 1.720 . S
C684 C122 1.716 . S
C695 C192 1.382 . S
C700 C166 1.404 . S
C711 C205 1.383 . S
C716 C179 1.380 . S
