# Generated by pormake.
# Topology crb, (4)-cn, num edge types: 1
# Building blocks:
#     Node 0, Type 0, BuildingBlock: KUFVIS_clean_sbu_0, # of connection points: 4
#     Node 1, Type 0, BuildingBlock: KUFVIS_clean_sbu_0, # of connection points: 4
#     Node 2, Type 0, BuildingBlock: KUFVIS_clean_sbu_0, # of connection points: 4
#     Node 3, Type 0, BuildingBlock: KUFVIS_clean_sbu_0, # of connection points: 4
#     Node 4, Type 0, BuildingBlock: KUFVIS_clean_sbu_0, # of connection points: 4
#     Node 5, Type 0, BuildingBlock: KUFVIS_clean_sbu_0, # of connection points: 4
#     Node 6, Type 0, BuildingBlock: KUFVIS_clean_sbu_0, # of connection points: 4
#     Node 7, Type 0, BuildingBlock: KUFVIS_clean_sbu_0, # of connection points: 4
#     Edge 8, Type (0, 0), BuildingBlock: UVAHIK_clean_linker_0, # of connection points: 2
#     Edge 9, Type (0, 0), BuildingBlock: UVAHIK_clean_linker_0, # of connection points: 2
#     Edge 10, Type (0, 0), BuildingBlock: UVAHIK_clean_linker_0, # of connection points: 2
#     Edge 11, Type (0, 0), BuildingBlock: UVAHIK_clean_linker_0, # of connection points: 2
#     Edge 12, Type (0, 0), BuildingBlock: UVAHIK_clean_linker_0, # of connection points: 2
#     Edge 13, Type (0, 0), BuildingBlock: UVAHIK_clean_linker_0, # of connection points: 2
#     Edge 14, Type (0, 0), BuildingBlock: UVAHIK_clean_linker_0, # of connection points: 2
#     Edge 15, Type (0, 0), BuildingBlock: UVAHIK_clean_linker_0, # of connection points: 2
#     Edge 16, Type (0, 0), BuildingBlock: UVAHIK_clean_linker_0, # of connection points: 2
#     Edge 17, Type (0, 0), BuildingBlock: UVAHIK_clean_linker_0, # of connection points: 2
#     Edge 18, Type (0, 0), BuildingBlock: UVAHIK_clean_linker_0, # of connection points: 2
#     Edge 19, Type (0, 0), BuildingBlock: UVAHIK_clean_linker_0, # of connection points: 2
#     Edge 20, Type (0, 0), BuildingBlock: UVAHIK_clean_linker_0, # of connection points: 2
#     Edge 21, Type (0, 0), BuildingBlock: UVAHIK_clean_linker_0, # of connection points: 2
#     Edge 22, Type (0, 0), BuildingBlock: UVAHIK_clean_linker_0, # of connection points: 2
#     Edge 23, Type (0, 0), BuildingBlock: UVAHIK_clean_linker_0, # of connection points: 2
# Relax obj value: 0.084
# Max RMSD: 0.128
# Mean RMSD: 0.128
data_MOF--net-crb--node1-KUFVIS_clean_sbu_0--edge1-UVAHIK_clean_linker_0
_symmetry_space_group_name_H-M    P1
_symmetry_Int_Tables_number       1
_symmetry_cell_setting            triclinic
loop_
_symmetry_equiv_pos_as_xyz
'x, y, z'
_cell_length_a     53.642287
_cell_length_b     56.935539
_cell_length_c     30.186359
_cell_angle_alpha  90.001997
_cell_angle_beta   89.997209
_cell_angle_gamma 90.079275
loop_
_atom_site_label
_atom_site_type_symbol
_atom_site_fract_x
_atom_site_fract_y
_atom_site_fract_z
_atom_type_partial_charge
Mn0 Mn 0.32622 0.34621 0.03613 0.0
Mn1 Mn 0.35386 0.29468 0.01022 0.0
C2 C 0.36877 0.34128 0.04574 0.0
C3 C 0.31303 0.38449 0.02078 0.0
C4 C 0.32295 0.3015 0.09305 0.0
O5 O 0.30064 0.33095 0.99471 0.0
O6 O 0.32125 0.29733 0.97949 0.0
C7 C 0.36318 0.30338 0.91491 0.0
N8 N 0.37194 0.29798 0.95601 0.0
C9 C 0.41378 0.29383 0.92834 0.0
C10 C 0.40519 0.29924 0.88568 0.0
C11 C 0.3798 0.30411 0.87898 0.0
C12 C 0.39636 0.29338 0.96287 0.0
H13 H 0.34368 0.30709 0.90959 0.0
C14 C 0.30251 0.3111 0.97503 0.0
O15 O 0.30316 0.37215 0.05235 0.0
O16 O 0.32966 0.37412 0.99638 0.0
N17 N 0.38573 0.29013 0.03735 0.0
C18 C 0.39124 0.28661 0.08092 0.0
C19 C 0.41602 0.2823 0.09349 0.0
C20 C 0.43481 0.28141 0.06113 0.0
C21 C 0.42865 0.28487 0.01647 0.0
C22 C 0.40364 0.28912 1.00592 0.0
H23 H 0.37685 0.2872 0.10591 0.0
O24 O 0.35675 0.35679 0.06888 0.0
O25 O 0.3555 0.32884 0.01847 0.0
O26 O 0.31761 0.32293 0.08554 0.0
O27 O 0.33634 0.28921 0.06694 0.0
C28 C 0.44639 0.28458 0.98208 0.0
C29 C 0.43898 0.28916 0.93807 0.0
H30 H 0.41795 0.29986 0.85788 0.0
H31 H 0.37305 0.30838 0.84617 0.0
H32 H 0.42062 0.27966 0.12803 0.0
H33 H 0.45392 0.27819 0.07097 0.0
H34 H 0.46585 0.28124 0.98921 0.0
H35 H 0.45288 0.2893 0.91203 0.0
Mn36 Mn 0.67783 0.34822 0.01102 0.0
Mn37 Mn 0.64763 0.29787 0.03688 0.0
C38 C 0.63524 0.34502 1.00044 0.0
C39 C 0.69276 0.38588 0.02668 0.0
C40 C 0.6794 0.30329 0.95464 0.0
O41 O 0.70238 0.33202 0.05287 0.0
O42 O 0.68005 0.29941 0.06863 0.0
C43 C 0.63777 0.30744 0.13171 0.0
N44 N 0.62917 0.30214 0.09045 0.0
C45 C 0.58683 0.30035 0.1167 0.0
C46 C 0.59526 0.30567 0.15952 0.0
C47 C 0.62083 0.30927 0.16702 0.0
C48 C 0.60459 0.29866 0.08286 0.0
H49 H 0.6574 0.31027 0.13762 0.0
C50 C 0.69943 0.31244 0.07308 0.0
O51 O 0.70223 0.37317 0.99527 0.0
O52 O 0.67549 0.3762 0.05073 0.0
N53 N 0.61581 0.2944 0.00884 0.0
C54 C 0.61059 0.29073 0.9652 0.0
C55 C 0.58574 0.28744 0.95189 0.0
C56 C 0.56656 0.2878 0.98356 0.0
C57 C 0.57241 0.29142 0.02831 0.0
C58 C 0.59753 0.29443 0.03966 0.0
H59 H 0.62525 0.29043 0.94069 0.0
O60 O 0.64813 0.36004 0.97759 0.0
O61 O 0.64766 0.33206 0.02808 0.0
O62 O 0.68553 0.32456 0.96191 0.0
O63 O 0.66545 0.29151 0.98074 0.0
C64 C 0.55426 0.29263 0.06197 0.0
C65 C 0.56146 0.29713 0.10612 0.0
H66 H 0.58225 0.30722 0.1868 0.0
H67 H 0.62746 0.31349 0.19994 0.0
H68 H 0.58137 0.2847 0.91727 0.0
H69 H 0.5474 0.28546 0.97311 0.0
H70 H 0.53467 0.29051 0.05414 0.0
H71 H 0.5473 0.29837 0.13159 0.0
Mn72 Mn 0.67905 0.67411 0.03668 0.0
Mn73 Mn 0.6477 0.72405 0.01304 0.0
C74 C 0.6365 0.67652 0.04863 0.0
C75 C 0.69417 0.6367 0.01986 0.0
C76 C 0.68043 0.71872 0.09404 0.0
O77 O 0.7029 0.69093 0.9942 0.0
O78 O 0.67986 0.72331 0.98048 0.0
C79 C 0.63725 0.71498 0.91822 0.0
N80 N 0.62889 0.71981 0.95983 0.0
C81 C 0.58632 0.72097 0.9347 0.0
C82 C 0.5945 0.71613 0.89154 0.0
C83 C 0.62007 0.71308 0.8833 0.0
C84 C 0.60432 0.72276 0.96814 0.0
H85 H 0.65688 0.71258 0.91174 0.0
C86 C 0.69939 0.71067 0.97486 0.0
O87 O 0.70391 0.64938 0.0511 0.0
O88 O 0.67659 0.64633 0.99653 0.0
N89 N 0.61606 0.72672 0.04197 0.0
C90 C 0.61112 0.73 0.08582 0.0
C91 C 0.58633 0.73273 0.09983 0.0
C92 C 0.5669 0.73223 0.06864 0.0
C93 C 0.57246 0.72901 0.02366 0.0
C94 C 0.59753 0.72654 0.01161 0.0
H95 H 0.62597 0.7304 0.10995 0.0
O96 O 0.64986 0.66164 0.07088 0.0
O97 O 0.64846 0.68984 0.02095 0.0
O98 O 0.68698 0.69765 0.08597 0.0
O99 O 0.66586 0.73033 0.06884 0.0
C100 C 0.55406 0.72769 0.99044 0.0
C101 C 0.56098 0.72364 0.946 0.0
H102 H 0.5813 0.71453 0.86455 0.0
H103 H 0.62652 0.70924 0.85011 0.0
H104 H 0.58219 0.73516 0.13462 0.0
H105 H 0.54779 0.73415 0.07962 0.0
H106 H 0.5345 0.7294 0.9988 0.0
H107 H 0.54665 0.72232 0.92085 0.0
Mn108 Mn 0.32778 0.67447 0.01032 0.0
Mn109 Mn 0.35617 0.72577 0.03587 0.0
C110 C 0.37043 0.67896 1.00089 0.0
C111 C 0.3141 0.63633 0.02584 0.0
C112 C 0.32525 0.71909 0.95306 0.0
O113 O 0.30239 0.69004 0.05166 0.0
O114 O 0.32348 0.72352 0.06636 0.0
C115 C 0.36516 0.71725 0.13133 0.0
N116 N 0.37408 0.72243 0.09023 0.0
C117 C 0.41591 0.72628 0.11816 0.0
C118 C 0.40715 0.72109 0.16082 0.0
C119 C 0.38168 0.71649 0.16739 0.0
C120 C 0.39858 0.72676 0.0835 0.0
H121 H 0.34559 0.71376 0.13656 0.0
C122 C 0.30454 0.70996 0.07098 0.0
O123 O 0.3044 0.64872 0.9942 0.0
O124 O 0.33083 0.6466 0.05024 0.0
N125 N 0.38817 0.72991 0.00891 0.0
C126 C 0.39381 0.73329 0.96535 0.0
C127 C 0.41867 0.73734 0.95292 0.0
C128 C 0.43741 0.73814 0.9854 0.0
C129 C 0.4311 0.73483 0.03004 0.0
C130 C 0.40602 0.73083 0.04045 0.0
H131 H 0.37947 0.73277 0.94027 0.0
O132 O 0.35823 0.66355 0.97775 0.0
O133 O 0.35728 0.69158 0.02796 0.0
O134 O 0.31953 0.69776 0.96075 0.0
O135 O 0.33885 0.73128 0.97904 0.0
C136 C 0.44876 0.73508 0.06456 0.0
C137 C 0.44119 0.7307 0.10857 0.0
H138 H 0.41983 0.72045 0.18872 0.0
H139 H 0.37479 0.71239 0.2002 0.0
H140 H 0.42339 0.73986 0.91838 0.0
H141 H 0.45658 0.74117 0.97566 0.0
H142 H 0.46829 0.73823 0.05753 0.0
H143 H 0.45502 0.73053 0.13471 0.0
Mn144 Mn 0.82603 0.84961 0.53482 0.0
Mn145 Mn 0.8559 0.79884 0.51133 0.0
C146 C 0.86846 0.8461 0.5469 0.0
C147 C 0.81188 0.88738 0.51822 0.0
C148 C 0.82323 0.80505 0.59215 0.0
O149 O 0.80175 0.83337 0.49238 0.0
O150 O 0.82376 0.80036 0.47869 0.0
C151 C 0.86667 0.80762 0.41653 0.0
N152 N 0.87486 0.8026 0.45816 0.0
C153 C 0.91742 0.80049 0.43316 0.0
C154 C 0.9094 0.80551 0.38998 0.0
C155 C 0.88393 0.80913 0.38166 0.0
C156 C 0.89935 0.7991 0.46654 0.0
H157 H 0.84711 0.81047 0.40999 0.0
C158 C 0.80462 0.81353 0.47309 0.0
O159 O 0.80182 0.87485 0.54935 0.0
O160 O 0.82923 0.87741 0.49484 0.0
N161 N 0.88744 0.79541 0.54034 0.0
C162 C 0.89224 0.79203 0.5842 0.0
C163 C 0.91695 0.78875 0.5983 0.0
C164 C 0.93641 0.78883 0.56716 0.0
C165 C 0.93099 0.79216 0.52217 0.0
C166 C 0.90599 0.79516 0.51003 0.0
H167 H 0.87736 0.79196 0.60829 0.0
O168 O 0.85551 0.86132 0.56911 0.0
O169 O 0.85615 0.83309 0.51916 0.0
O170 O 0.81739 0.82627 0.58394 0.0
O171 O 0.83751 0.793 0.56713 0.0
C172 C 0.94944 0.79307 0.489 0.0
C173 C 0.94267 0.79727 0.44454 0.0
H174 H 0.92267 0.80682 0.36303 0.0
H175 H 0.87762 0.81312 0.34845 0.0
H176 H 0.92099 0.78624 0.63309 0.0
H177 H 0.95546 0.78649 0.57821 0.0
H178 H 0.96894 0.79094 0.49743 0.0
H179 H 0.95706 0.79828 0.41944 0.0
Mn180 Mn 0.17737 0.84616 0.51205 0.0
Mn181 Mn 0.14937 0.79458 0.53687 0.0
C182 C 0.13483 0.84142 0.50213 0.0
C183 C 0.19094 0.88428 0.52797 0.0
C184 C 0.1806 0.80169 0.45455 0.0
O185 O 0.20275 0.83062 0.55334 0.0
O186 O 0.18189 0.797 0.56804 0.0
C187 C 0.13974 0.80287 0.63221 0.0
N188 N 0.1311 0.79771 0.59091 0.0
C189 C 0.08911 0.79368 0.61797 0.0
C190 C 0.09758 0.79885 0.66083 0.0
C191 C 0.12299 0.80354 0.66794 0.0
C192 C 0.10667 0.79328 0.58367 0.0
H193 H 0.15926 0.80646 0.63783 0.0
C194 C 0.20071 0.81071 0.57277 0.0
O195 O 0.20071 0.87197 0.49631 0.0
O196 O 0.17412 0.87397 0.55214 0.0
N197 N 0.11757 0.79028 0.50928 0.0
C198 C 0.11222 0.78699 0.46559 0.0
C199 C 0.08745 0.78289 0.45263 0.0
C200 C 0.06851 0.78198 0.48472 0.0
C201 C 0.07452 0.78521 0.52951 0.0
C202 C 0.09952 0.78925 0.54045 0.0
H203 H 0.12671 0.78762 0.44079 0.0
O204 O 0.14698 0.857 0.4793 0.0
O205 O 0.14797 0.8288 0.52923 0.0
O206 O 0.1859 0.82309 0.46245 0.0
O207 O 0.16711 0.78925 0.48029 0.0
C208 C 0.05663 0.7849 0.56366 0.0
C209 C 0.0639 0.78922 0.60785 0.0
H210 H 0.08471 0.79943 0.68847 0.0
H211 H 0.12964 0.80763 0.70089 0.0
H212 H 0.08296 0.78044 0.41798 0.0
H213 H 0.04941 0.77892 0.47458 0.0
H214 H 0.03716 0.78173 0.55622 0.0
H215 H 0.0499 0.78934 0.6337 0.0
Mn216 Mn 0.17758 0.17367 0.53741 0.0
Mn217 Mn 0.14766 0.22413 0.51178 0.0
C218 C 0.13504 0.17709 0.54847 0.0
C219 C 0.19188 0.13581 0.52174 0.0
C220 C 0.17967 0.21864 0.59371 0.0
O221 O 0.20213 0.18971 0.49515 0.0
O222 O 0.18 0.22245 0.47984 0.0
C223 C 0.13754 0.21455 0.41703 0.0
N224 N 0.12906 0.2199 0.45834 0.0
C225 C 0.08668 0.22178 0.43239 0.0
C226 C 0.09498 0.21642 0.38953 0.0
C227 C 0.12051 0.21274 0.38185 0.0
C228 C 0.10452 0.22345 0.4661 0.0
H229 H 0.15714 0.21166 0.41099 0.0
C230 C 0.19926 0.20935 0.4751 0.0
O231 O 0.20171 0.14847 0.55293 0.0
O232 O 0.17472 0.14568 0.49782 0.0
N233 N 0.11593 0.22773 0.54004 0.0
C234 C 0.11083 0.23145 0.5837 0.0
C235 C 0.08603 0.23481 0.59718 0.0
C236 C 0.06678 0.23448 0.56565 0.0
C237 C 0.07251 0.23081 0.52086 0.0
C238 C 0.09759 0.22773 0.50934 0.0
H239 H 0.12554 0.23171 0.6081 0.0
O240 O 0.14789 0.16205 0.57126 0.0
O241 O 0.14748 0.18996 0.52066 0.0
O242 O 0.1857 0.19735 0.58638 0.0
O243 O 0.16565 0.23041 0.56777 0.0
C244 C 0.05427 0.22963 0.48734 0.0
C245 C 0.06135 0.22508 0.44315 0.0
H246 H 0.0819 0.21488 0.36234 0.0
H247 H 0.12705 0.20849 0.3489 0.0
H248 H 0.08175 0.23759 0.63182 0.0
H249 H 0.04766 0.23689 0.57622 0.0
H250 H 0.03472 0.23181 0.4953 0.0
H251 H 0.04713 0.22386 0.41778 0.0
Mn252 Mn 0.82606 0.17692 0.51217 0.0
Mn253 Mn 0.85395 0.22834 0.53845 0.0
C254 C 0.86865 0.18168 0.50297 0.0
C255 C 0.81241 0.13874 0.52716 0.0
C256 C 0.82326 0.22164 0.45535 0.0
O257 O 0.80048 0.19222 0.55335 0.0
O258 O 0.82124 0.22577 0.56894 0.0
C259 C 0.86297 0.21955 0.63382 0.0
N260 N 0.87187 0.22495 0.5928 0.0
C261 C 0.91366 0.22892 0.62081 0.0
C262 C 0.90493 0.22351 0.66339 0.0
C263 C 0.87948 0.21873 0.66988 0.0
C264 C 0.89633 0.22946 0.58615 0.0
H265 H 0.84342 0.2159 0.63898 0.0
C266 C 0.80241 0.21203 0.57317 0.0
O267 O 0.8028 0.15121 0.49556 0.0
O268 O 0.8291 0.14892 0.55179 0.0
N269 N 0.88593 0.23279 0.51159 0.0
C270 C 0.89157 0.23631 0.46807 0.0
C271 C 0.91641 0.24054 0.45571 0.0
C272 C 0.93513 0.24134 0.48822 0.0
C273 C 0.92883 0.23787 0.53282 0.0
C274 C 0.90376 0.23372 0.54316 0.0
H275 H 0.87725 0.23578 0.44296 0.0
O276 O 0.8566 0.16624 0.47968 0.0
O277 O 0.8554 0.19416 0.53017 0.0
O278 O 0.81779 0.20024 0.46281 0.0
O279 O 0.83662 0.23392 0.48158 0.0
C280 C 0.94648 0.23807 0.56735 0.0
C281 C 0.93893 0.23349 0.6113 0.0
H282 H 0.91761 0.22282 0.69129 0.0
H283 H 0.87262 0.21446 0.70262 0.0
H284 H 0.92113 0.24316 0.42121 0.0
H285 H 0.95429 0.24448 0.47854 0.0
H286 H 0.96599 0.24134 0.56038 0.0
H287 H 0.95275 0.23327 0.63744 0.0
C288 C 0.32091 0.42391 0.98608 0.0
C289 C 0.30771 0.40995 0.01652 0.0
C290 C 0.31833 0.44839 0.98637 0.0
C291 C 0.30142 0.49956 0.98182 0.0
H292 H 0.3014 0.52937 0.0974 0.0
C293 C 0.29185 0.6 1.00064 0.0
C294 C 0.30851 0.61091 0.03017 0.0
C295 C 0.2891 0.57556 1.00031 0.0
C296 C 0.30144 0.52134 0.06487 0.0
H297 H 0.28058 0.41072 0.06981 0.0
H298 H 0.27589 0.4533 0.06994 0.0
H299 H 0.30164 0.48662 0.09209 0.0
H300 H 0.3346 0.60472 0.08373 0.0
H301 H 0.3298 0.56208 0.08319 0.0
H302 H 0.30191 0.53428 0.95461 0.0
C303 C 0.28856 0.44539 0.04634 0.0
C304 C 0.3013 0.49681 0.0618 0.0
C305 C 0.2911 0.42094 0.04599 0.0
C306 C 0.32154 0.59689 0.06067 0.0
C307 C 0.31875 0.57243 0.0604 0.0
C308 C 0.30145 0.52409 0.9849 0.0
C309 C 0.30252 0.45947 0.01716 0.0
C310 C 0.30147 0.4856 0.02023 0.0
C311 C 0.3029 0.56142 0.02954 0.0
C312 C 0.30165 0.5353 0.02647 0.0
H313 H 0.33393 0.41602 0.96307 0.0
H314 H 0.3295 0.45869 0.96363 0.0
H315 H 0.30136 0.49153 0.9493 0.0
H316 H 0.28145 0.61027 0.97677 0.0
H317 H 0.27639 0.56771 0.97665 0.0
C318 C 0.40672 0.34509 0.99933 0.0
C319 C 0.39604 0.34285 0.04153 0.0
C320 C 0.43251 0.3469 0.99442 0.0
C321 C 0.49025 0.3622 0.05451 0.0
H322 H 0.52203 0.32606 0.96149 0.0
C323 C 0.59683 0.35007 0.0451 0.0
C324 C 0.60802 0.34743 1.00344 0.0
C325 C 0.57097 0.3516 0.04894 0.0
C326 C 0.51349 0.33661 0.98716 0.0
H327 H 0.40348 0.34229 0.1119 0.0
H328 H 0.4489 0.34509 0.10356 0.0
H329 H 0.47706 0.32463 0.9698 0.0
H330 H 0.60157 0.34676 0.93278 0.0
H331 H 0.55614 0.34972 0.93907 0.0
H332 H 0.52667 0.37472 0.07113 0.0
C333 C 0.43735 0.34531 0.07415 0.0
C334 C 0.48763 0.3356 0.9922 0.0
C335 C 0.41144 0.34357 0.07901 0.0
C336 C 0.59317 0.34811 0.96531 0.0
C337 C 0.56721 0.34966 0.96905 0.0
C338 C 0.51611 0.36346 0.04912 0.0
C339 C 0.44819 0.34681 0.03172 0.0
C340 C 0.4757 0.34821 0.02617 0.0
C341 C 0.55575 0.35092 0.01103 0.0
C342 C 0.5281 0.35055 0.01554 0.0
H343 H 0.39507 0.34544 0.97002 0.0
H344 H 0.44015 0.34855 0.96135 0.0
H345 H 0.48161 0.37249 0.08047 0.0
H346 H 0.6081 0.3504 0.07488 0.0
H347 H 0.56294 0.3524 0.08181 0.0
C348 C 0.68651 0.42549 0.06139 0.0
C349 C 0.69922 0.4111 0.03107 0.0
C350 C 0.69002 0.44987 0.06099 0.0
C351 C 0.70839 0.5006 0.0648 0.0
H352 H 0.70853 0.52978 0.94865 0.0
C353 C 0.7176 0.60096 0.04434 0.0
C354 C 0.70051 0.61149 0.01516 0.0
C355 C 0.72078 0.57658 0.04475 0.0
C356 C 0.7085 0.52192 0.98132 0.0
H357 H 0.72649 0.41092 0.97801 0.0
H358 H 0.73277 0.45334 0.97765 0.0
H359 H 0.7078 0.48706 0.95478 0.0
H360 H 0.67423 0.60473 0.96209 0.0
H361 H 0.6798 0.56222 0.96276 0.0
H362 H 0.7083 0.53546 0.09134 0.0
C363 C 0.71979 0.44585 1.00125 0.0
C364 C 0.70836 0.49741 0.98487 0.0
C365 C 0.71633 0.4215 1.00172 0.0
C366 C 0.6876 0.59719 0.9849 0.0
C367 C 0.69083 0.5728 0.98523 0.0
C368 C 0.70864 0.52511 0.06125 0.0
C369 C 0.70626 0.46039 0.03019 0.0
C370 C 0.70804 0.48645 0.02665 0.0
C371 C 0.70702 0.56214 0.01591 0.0
C372 C 0.70844 0.53608 0.01947 0.0
H373 H 0.67313 0.41805 0.08433 0.0
H374 H 0.67916 0.46054 0.08354 0.0
H375 H 0.70835 0.49274 0.09747 0.0
H376 H 0.7279 0.61145 0.06803 0.0
H377 H 0.73372 0.56898 0.06827 0.0
C378 C 0.40805 0.67472 0.04791 0.0
C379 C 0.39765 0.67705 1.00552 0.0
C380 C 0.43378 0.67271 0.0533 0.0
C381 C 0.49184 0.65743 0.99406 0.0
H382 H 0.52317 0.69329 0.08805 0.0
C383 C 0.59818 0.6708 1.00409 0.0
C384 C 0.60934 0.67345 0.04577 0.0
C385 C 0.57236 0.66881 1.00025 0.0
C386 C 0.51476 0.68281 0.06211 0.0
H387 H 0.40549 0.67758 0.9353 0.0
H388 H 0.45083 0.67449 0.94447 0.0
H389 H 0.47825 0.69458 0.07918 0.0
H390 H 0.60294 0.67364 0.11645 0.0
H391 H 0.55754 0.66989 0.11016 0.0
H392 H 0.52835 0.64517 0.97766 0.0
C393 C 0.43911 0.6743 0.97366 0.0
C394 C 0.48893 0.68374 0.05675 0.0
C395 C 0.41325 0.67621 0.96833 0.0
C396 C 0.59454 0.67228 0.08392 0.0
C397 C 0.56861 0.67027 0.08018 0.0
C398 C 0.51768 0.65626 0.99975 0.0
C399 C 0.44968 0.67272 0.0163 0.0
C400 C 0.47716 0.67128 0.02238 0.0
C401 C 0.55715 0.66903 0.03819 0.0
C402 C 0.52951 0.6691 0.03364 0.0
H403 H 0.39622 0.67449 0.07701 0.0
H404 H 0.4412 0.671 0.08651 0.0
H405 H 0.48333 0.64723 0.9678 0.0
H406 H 0.60943 0.67086 0.97426 0.0
H407 H 0.56434 0.66805 0.96738 0.0
C408 C 0.78903 0.92342 0.54279 0.0
C409 C 0.80607 0.91272 0.51374 0.0
C410 C 0.78626 0.94784 0.54344 0.0
C411 C 0.79933 1.00243 0.48056 0.0
H412 H 0.79902 0.03146 0.59685 0.0
C413 C 0.7899 0.10266 0.50162 0.0
C414 C 0.80669 0.11335 0.53119 0.0
C415 C 0.78702 0.07825 0.50088 0.0
C416 C 0.79913 0.02364 0.56414 0.0
H417 H 0.83274 0.91923 0.46117 0.0
H418 H 0.82786 0.96185 0.4622 0.0
H419 H 0.79918 0.98873 0.5905 0.0
H420 H 0.83286 0.1068 0.58448 0.0
H421 H 0.82782 0.06417 0.58325 0.0
H422 H 0.79997 0.03733 0.4542 0.0
C423 C 0.81656 0.95135 0.48441 0.0
C424 C 0.79895 0.99914 0.56047 0.0
C425 C 0.8194 0.92691 0.48385 0.0
C426 C 0.81971 0.09913 0.5614 0.0
C427 C 0.81678 0.07468 0.56072 0.0
C428 C 0.7994 0.02693 0.48423 0.0
C429 C 0.80039 0.96215 0.51495 0.0
C430 C 0.79924 0.98822 0.51863 0.0
C431 C 0.80082 0.06392 0.52975 0.0
C432 C 0.79949 0.03785 0.52607 0.0
H433 H 0.77842 0.91302 0.56618 0.0
H434 H 0.77332 0.95555 0.56681 0.0
H435 H 0.79939 0.99461 0.44785 0.0
H436 H 0.7795 0.11309 0.47799 0.0
H437 H 0.77423 0.07057 0.47716 0.0
C438 C 0.09217 0.84401 0.46892 0.0
C439 C 0.10758 0.84311 0.50637 0.0
C440 C 0.06628 0.84586 0.47384 0.0
C441 C 0.01595 0.83628 0.55586 0.0
H442 H 0.97724 0.87562 0.47701 0.0
C443 C 0.91045 0.84931 0.58241 0.0
C444 C 0.89569 0.84848 0.54417 0.0
C445 C 0.93643 0.85078 0.57882 0.0
C446 C 0.98771 0.86431 0.49901 0.0
H447 H 0.10861 0.84549 0.5779 0.0
H448 H 0.06357 0.84883 0.58668 0.0
H449 H 0.02228 0.87321 0.4677 0.0
H450 H 0.8958 0.8511 0.47267 0.0
H451 H 0.94097 0.85303 0.46606 0.0
H452 H 0.98147 0.8269 0.58657 0.0
C453 C 0.07117 0.84722 0.55358 0.0
C454 C 0.01356 0.86294 0.49363 0.0
C455 C 0.09694 0.84529 0.54861 0.0
C456 C 0.90699 0.8509 0.50255 0.0
C457 C 0.93286 0.85238 0.49888 0.0
C458 C 0.99011 0.83742 0.56092 0.0
C459 C 0.05548 0.84731 0.5163 0.0
C460 C 0.02799 0.84885 0.52191 0.0
C461 C 0.94798 0.85185 0.53691 0.0
C462 C 0.97562 0.85143 0.53255 0.0
H463 H 0.10011 0.84277 0.43601 0.0
H464 H 0.05471 0.84576 0.44445 0.0
H465 H 0.02644 0.82523 0.57822 0.0
H466 H 0.90196 0.84811 0.61489 0.0
H467 H 0.94745 0.85092 0.60886 0.0
C468 C 0.2142 0.09966 0.54751 0.0
C469 C 0.19769 0.11044 0.51762 0.0
C470 C 0.21695 0.07523 0.54815 0.0
C471 C 0.20417 0.02379 0.56387 0.0
H472 H 0.20456 0.98603 0.45704 0.0
C473 C 0.18335 0.92377 0.56258 0.0
C474 C 0.19664 0.90966 0.53257 0.0
C475 C 0.18633 0.94822 0.56239 0.0
C476 C 0.20473 0.9963 0.48724 0.0
H477 H 0.1719 0.10402 0.46363 0.0
H478 H 0.17672 0.06141 0.46465 0.0
H479 H 0.20528 0.02876 0.45134 0.0
H480 H 0.22438 0.91012 0.48026 0.0
H481 H 0.22975 0.95262 0.4803 0.0
H482 H 0.20357 0.99131 0.59977 0.0
C483 C 0.18765 0.07185 0.48753 0.0
C484 C 0.20488 0.02081 0.48393 0.0
C485 C 0.18485 0.0963 0.48699 0.0
C486 C 0.21376 0.92046 0.50371 0.0
C487 C 0.2167 0.94486 0.50347 0.0
C488 C 0.20391 0.99927 0.56718 0.0
C489 C 0.20331 0.06098 0.5188 0.0
C490 C 0.20444 0.03488 0.52219 0.0
C491 C 0.20263 0.95911 0.53212 0.0
C492 C 0.20405 0.9852 0.5289 0.0
H493 H 0.22443 0.11003 0.57152 0.0
H494 H 0.22949 0.06747 0.57214 0.0
H495 H 0.20353 0.03407 0.59404 0.0
H496 H 0.16995 0.91602 0.58512 0.0
H497 H 0.17508 0.95865 0.58473 0.0
C498 C 0.90651 0.17776 0.54957 0.0
C499 C 0.89591 0.18004 0.50733 0.0
C500 C 0.93228 0.17585 0.5546 0.0
C501 C 0.98995 0.16022 0.49478 0.0
H502 H 0.02196 0.19636 0.58766 0.0
C503 C 0.09657 0.17207 0.50398 0.0
C504 C 0.1078 0.17473 0.5456 0.0
C505 C 0.0707 0.1706 0.50022 0.0
C506 C 0.01335 0.18581 0.56203 0.0
H507 H 0.90345 0.18056 0.43699 0.0
H508 H 0.94884 0.17757 0.44553 0.0
H509 H 0.977 0.19795 0.5793 0.0
H510 H 0.10143 0.17549 0.61627 0.0
H511 H 0.05597 0.17264 0.61012 0.0
H512 H 0.02627 0.14754 0.47824 0.0
C513 C 0.93724 0.1774 0.47489 0.0
C514 C 0.98751 0.18691 0.55696 0.0
C515 C 0.91136 0.17925 0.46992 0.0
C516 C 0.09299 0.17412 0.58377 0.0
C517 C 0.06702 0.17262 0.58011 0.0
C518 C 0.01579 0.15887 0.5002 0.0
C519 C 0.94801 0.17585 0.51736 0.0
C520 C 0.9755 0.17433 0.52302 0.0
C521 C 0.05551 0.17135 0.53817 0.0
C522 C 0.02787 0.17178 0.53372 0.0
H523 H 0.89481 0.17746 0.57883 0.0
H524 H 0.93986 0.17417 0.5877 0.0
H525 H 0.98124 0.14994 0.46884 0.0
H526 H 0.1078 0.17168 0.47416 0.0
H527 H 0.06264 0.16977 0.46738 0.0
C528 C 0.21891 0.24112 0.42998 0.0
C529 C 0.21823 0.21735 0.4426 0.0
C530 C 0.23439 0.24868 0.39571 0.0
C531 C 0.26437 0.2276 0.29424 0.0
H532 H 0.29586 0.28894 0.29722 0.0
C533 C 0.31834 0.26671 0.14408 0.0
C534 C 0.3135 0.29048 0.13447 0.0
C535 C 0.30958 0.2565 0.18334 0.0
C536 C 0.28707 0.27182 0.29575 0.0
H537 H 0.234 0.18297 0.42985 0.0
H538 H 0.26126 0.19627 0.36954 0.0
H539 H 0.27673 0.27318 0.36416 0.0
H540 H 0.29555 0.32206 0.15905 0.0
H541 H 0.28023 0.30426 0.22702 0.0
H542 H 0.27429 0.22651 0.22547 0.0
C543 C 0.24959 0.20899 0.38629 0.0
C544 C 0.27615 0.26276 0.33416 0.0
C545 C 0.23416 0.20142 0.42105 0.0
C546 C 0.29971 0.30374 0.1652 0.0
C547 C 0.29106 0.29357 0.20445 0.0
C548 C 0.27534 0.23668 0.25573 0.0
C549 C 0.24961 0.23269 0.37286 0.0
C550 C 0.26415 0.24078 0.33366 0.0
C551 C 0.2959 0.26984 0.21408 0.0
C552 C 0.28631 0.25915 0.2558 0.0
H553 H 0.20697 0.25392 0.44591 0.0
H554 H 0.23366 0.26697 0.38598 0.0
H555 H 0.25508 0.21073 0.29256 0.0
H556 H 0.32895 0.25594 0.12131 0.0
H557 H 0.31378 0.23823 0.18988 0.0
C558 C 0.73465 0.32049 0.12635 0.0
C559 C 0.71843 0.30451 0.10551 0.0
C560 C 0.7502 0.31306 0.16102 0.0
C561 C 0.77661 0.2596 0.21392 0.0
H562 H 0.77534 0.29642 0.32195 0.0
C563 C 0.80004 0.21932 0.38324 0.0
C564 C 0.81396 0.23261 0.4138 0.0
C565 C 0.7915 0.22939 0.34388 0.0
C566 C 0.77624 0.2861 0.29186 0.0
H567 H 0.70674 0.26801 0.10336 0.0
H568 H 0.73367 0.2552 0.16314 0.0
H569 H 0.75597 0.31189 0.25477 0.0
H570 H 0.82976 0.26709 0.42653 0.0
H571 H 0.81477 0.28464 0.35768 0.0
H572 H 0.79631 0.23357 0.25111 0.0
C573 C 0.73452 0.27342 0.15291 0.0
C574 C 0.76518 0.29499 0.25331 0.0
C575 C 0.71892 0.28083 0.11874 0.0
C576 C 0.81904 0.25631 0.4039 0.0
C577 C 0.81039 0.26642 0.36448 0.0
C578 C 0.78763 0.25072 0.25236 0.0
C579 C 0.75004 0.28948 0.17505 0.0
C580 C 0.76473 0.28159 0.21417 0.0
C581 C 0.79659 0.25304 0.33392 0.0
C582 C 0.78707 0.2636 0.29208 0.0
H583 H 0.73466 0.33886 0.11708 0.0
H584 H 0.76209 0.32582 0.17723 0.0
H585 H 0.777 0.24901 0.18411 0.0
H586 H 0.79568 0.20106 0.38963 0.0
H587 H 0.78056 0.21868 0.32147 0.0
C588 C 0.78534 0.78151 0.42806 0.0
C589 C 0.78575 0.80529 0.4406 0.0
C590 C 0.76977 0.77372 0.39411 0.0
C591 C 0.73868 0.79425 0.29327 0.0
H592 H 0.7083 0.73243 0.2974 0.0
C593 C 0.68433 0.75372 0.14477 0.0
C594 C 0.68987 0.73008 0.13514 0.0
C595 C 0.6931 0.76423 0.18375 0.0
C596 C 0.71676 0.74969 0.29563 0.0
H597 H 0.76944 0.83946 0.42797 0.0
H598 H 0.74203 0.82576 0.36823 0.0
H599 H 0.72761 0.74864 0.36379 0.0
H600 H 0.70903 0.69906 0.15936 0.0
H601 H 0.7243 0.71738 0.22686 0.0
H602 H 0.72821 0.79504 0.22473 0.0
C603 C 0.75398 0.81321 0.38479 0.0
C604 C 0.72779 0.759 0.33371 0.0
C605 C 0.76951 0.82101 0.41922 0.0
C606 C 0.70434 0.71727 0.16554 0.0
C607 C 0.71296 0.72773 0.20451 0.0
C608 C 0.72757 0.78493 0.2551 0.0
C609 C 0.75418 0.78949 0.37151 0.0
C610 C 0.73944 0.78114 0.33275 0.0
C611 C 0.70744 0.75131 0.21417 0.0
C612 C 0.71702 0.76229 0.25559 0.0
H613 H 0.79751 0.76886 0.44385 0.0
H614 H 0.77069 0.75542 0.38445 0.0
H615 H 0.74768 0.81125 0.29125 0.0
H616 H 0.6732 0.76414 0.12224 0.0
H617 H 0.6884 0.78239 0.19034 0.0
C618 C 0.20419 0.80452 0.38299 0.0
C619 C 0.19064 0.79085 0.41343 0.0
C620 C 0.21418 0.79444 0.34476 0.0
C621 C 0.21035 0.74282 0.27006 0.0
H622 H 0.27641 0.76379 0.23599 0.0
C623 C 0.27163 0.70158 0.1286 0.0
C624 C 0.28541 0.71775 0.10322 0.0
C625 C 0.25743 0.70931 0.1649 0.0
C626 C 0.25784 0.7579 0.24476 0.0
H627 H 0.17659 0.75577 0.42674 0.0
H628 H 0.19442 0.73811 0.36012 0.0
H629 H 0.25741 0.77923 0.3029 0.0
H630 H 0.29333 0.75478 0.09356 0.0
H631 H 0.26848 0.76811 0.15585 0.0
H632 H 0.21115 0.72126 0.21159 0.0
C633 C 0.19707 0.75672 0.36579 0.0
C634 C 0.24692 0.76678 0.28315 0.0
C635 C 0.18698 0.76685 0.40414 0.0
C636 C 0.28326 0.74182 0.11284 0.0
C637 C 0.26912 0.74947 0.14873 0.0
C638 C 0.2214 0.73381 0.23149 0.0
C639 C 0.21103 0.77037 0.33587 0.0
C640 C 0.22287 0.7597 0.29599 0.0
C641 C 0.25681 0.73329 0.17621 0.0
C642 C 0.24511 0.7416 0.21806 0.0
H643 H 0.2072 0.82309 0.38863 0.0
H644 H 0.22435 0.80562 0.32201 0.0
H645 H 0.19177 0.73704 0.27892 0.0
H646 H 0.273 0.68292 0.12208 0.0
H647 H 0.24808 0.69643 0.18544 0.0
C648 C 0.22179 0.7792 0.61625 0.0
C649 C 0.22013 0.80306 0.60464 0.0
C650 C 0.23756 0.77185 0.65023 0.0
C651 C 0.26638 0.79304 0.7527 0.0
H652 H 0.29968 0.73266 0.74844 0.0
C653 C 0.32051 0.75407 0.9026 0.0
C654 C 0.31596 0.73017 0.91161 0.0
C655 C 0.31182 0.76438 0.86341 0.0
C656 C 0.2904 0.74952 0.75024 0.0
H657 H 0.23452 0.83786 0.61875 0.0
H658 H 0.26231 0.82494 0.67852 0.0
H659 H 0.28053 0.74848 0.6816 0.0
H660 H 0.2987 0.69844 0.88599 0.0
H661 H 0.28356 0.7164 0.81805 0.0
H662 H 0.27587 0.7938 0.82168 0.0
C663 C 0.25117 0.81197 0.66124 0.0
C664 C 0.27946 0.75861 0.7119 0.0
C665 C 0.23544 0.81934 0.62677 0.0
C666 C 0.3026 0.71687 0.88031 0.0
C667 C 0.29406 0.72713 0.8411 0.0
C668 C 0.2774 0.78395 0.79111 0.0
C669 C 0.2521 0.78816 0.67377 0.0
C670 C 0.26678 0.78021 0.71288 0.0
C671 C 0.29857 0.751 0.83212 0.0
C672 C 0.28901 0.76181 0.79055 0.0
H673 H 0.21035 0.76614 0.59982 0.0
H674 H 0.23752 0.75344 0.65926 0.0
H675 H 0.25655 0.80961 0.75475 0.0
H676 H 0.33078 0.76488 0.92583 0.0
H677 H 0.31574 0.78276 0.85736 0.0
C678 C 0.26818 0.32 0.92039 0.0
C679 C 0.28303 0.30361 0.94309 0.0
C680 C 0.25256 0.3127 0.88566 0.0
C681 C 0.22382 0.25944 0.83494 0.0
H682 H 0.22885 0.29413 0.72476 0.0
C683 C 0.20216 0.21698 0.66663 0.0
C684 C 0.18894 0.23007 0.63487 0.0
C685 C 0.21047 0.22748 0.7058 0.0
C686 C 0.22693 0.28442 0.75543 0.0
H687 H 0.29208 0.26658 0.94867 0.0
H688 H 0.26512 0.25401 0.88882 0.0
H689 H 0.24774 0.31007 0.79204 0.0
H690 H 0.17424 0.26466 0.61967 0.0
H691 H 0.18895 0.28298 0.68807 0.0
H692 H 0.20369 0.23348 0.79816 0.0
C693 C 0.26534 0.27245 0.89758 0.0
C694 C 0.23769 0.2936 0.79404 0.0
C695 C 0.28099 0.27972 0.93181 0.0
C696 C 0.18439 0.25402 0.64329 0.0
C697 C 0.19288 0.26457 0.68244 0.0
C698 C 0.21316 0.25026 0.7964 0.0
C699 C 0.25129 0.28885 0.87343 0.0
C700 C 0.23679 0.28093 0.83403 0.0
C701 C 0.2059 0.25137 0.71426 0.0
C702 C 0.21509 0.26236 0.75596 0.0
H703 H 0.26942 0.33854 0.92814 0.0
H704 H 0.24181 0.32575 0.86792 0.0
H705 H 0.22235 0.24944 0.86535 0.0
H706 H 0.20605 0.19853 0.66143 0.0
H707 H 0.2208 0.2169 0.72927 0.0
C708 C 0.70179 0.30503 0.88167 0.0
C709 C 0.6885 0.29191 0.91333 0.0
C710 C 0.71 0.29462 0.8424 0.0
C711 C 0.72613 0.23781 0.79225 0.0
H712 H 0.72206 0.27326 0.6828 0.0
C713 C 0.7678 0.20298 0.62715 0.0
C714 C 0.78289 0.21945 0.60504 0.0
C715 C 0.75207 0.21013 0.66179 0.0
C716 C 0.72338 0.26313 0.71308 0.0
H717 H 0.67354 0.25735 0.92824 0.0
H718 H 0.68807 0.23916 0.8596 0.0
H719 H 0.70322 0.28895 0.75003 0.0
H720 H 0.79229 0.25646 0.60042 0.0
H721 H 0.76509 0.26879 0.66012 0.0
H722 H 0.74697 0.2123 0.75546 0.0
C723 C 0.69214 0.25754 0.86541 0.0
C724 C 0.71262 0.27214 0.75162 0.0
C725 C 0.68375 0.26801 0.9047 0.0
C726 C 0.781 0.24327 0.61682 0.0
C727 C 0.76523 0.25039 0.65096 0.0
C728 C 0.73698 0.22879 0.75361 0.0
C729 C 0.70525 0.27077 0.83371 0.0
C730 C 0.71439 0.25989 0.79192 0.0
C731 C 0.75092 0.23391 0.67451 0.0
C732 C 0.73628 0.24164 0.71381 0.0
H733 H 0.70585 0.32346 0.88704 0.0
H734 H 0.72041 0.30523 0.81903 0.0
H735 H 0.72793 0.22798 0.8228 0.0
H736 H 0.76891 0.18448 0.61901 0.0
H737 H 0.74112 0.19702 0.67908 0.0
C738 C 0.71755 0.74309 0.92967 0.0
C739 C 0.71764 0.71923 0.94161 0.0
C740 C 0.7314 0.75104 0.89361 0.0
C741 C 0.78213 0.73746 0.81531 0.0
H742 H 0.74433 0.77883 0.73847 0.0
C743 C 0.81793 0.77033 0.64333 0.0
C744 C 0.81289 0.79395 0.63282 0.0
C745 C 0.80764 0.75997 0.68132 0.0
C746 C 0.75529 0.76751 0.75973 0.0
H747 H 0.73362 0.68521 0.92646 0.0
H748 H 0.75799 0.69922 0.86284 0.0
H749 H 0.72503 0.76313 0.80495 0.0
H750 H 0.79352 0.82529 0.65502 0.0
H751 H 0.77597 0.80741 0.72095 0.0
H752 H 0.81251 0.74209 0.76979 0.0
C753 C 0.74711 0.71172 0.88172 0.0
C754 C 0.7442 0.75849 0.79789 0.0
C755 C 0.73319 0.70371 0.91816 0.0
C756 C 0.79767 0.80702 0.66164 0.0
C757 C 0.78746 0.7967 0.69947 0.0
C758 C 0.79332 0.7466 0.77695 0.0
C759 C 0.74568 0.73536 0.86825 0.0
C760 C 0.75757 0.74369 0.82657 0.0
C761 C 0.79206 0.773 0.70959 0.0
C762 C 0.78012 0.76204 0.7491 0.0
H763 H 0.7061 0.75563 0.9474 0.0
H764 H 0.73041 0.76947 0.88486 0.0
H765 H 0.7929 0.7261 0.83677 0.0
H766 H 0.82963 0.75973 0.62202 0.0
H767 H 0.81146 0.74164 0.68802 0.0
loop_
_geom_bond_atom_site_label_1
_geom_bond_atom_site_label_2
_geom_bond_distance
_geom_bond_site_symmetry_2
_ccdc_geom_bond_type
Mn0 O5 2.095 1_554 S
Mn0 O15 2.162 . S
Mn0 O16 2.297 1_554 S
Mn0 O24 2.385 . S
Mn0 O25 2.209 . S
Mn0 O26 2.094 . S
Mn1 O6 2.121 1_554 S
Mn1 N8 2.257 1_554 S
Mn1 N17 2.282 . S
Mn1 O25 2.215 . S
Mn1 O27 2.117 . S
C2 O24 1.234 . S
C2 O25 1.283 . S
C3 O15 1.281 . S
C3 O16 1.236 1_554 S
C4 O26 1.240 . S
C4 O27 1.264 . S
O5 Mn0 2.095 1_556 S
O5 C14 1.250 . S
O6 Mn1 2.121 1_556 S
O6 C14 1.258 . S
C7 N8 1.326 . S
C7 C11 1.460 . S
C7 H13 0.929 . S
N8 Mn1 2.257 1_556 S
N8 C7 1.326 . S
N8 C12 1.362 . S
C9 C10 1.258 . S
C9 C12 1.431 . S
C9 C29 1.449 . S
C10 C9 1.258 . S
C10 C11 1.477 . S
C10 H30 0.931 . S
C11 C7 1.460 . S
C11 C10 1.477 . S
C11 H31 0.930 . S
C12 N8 1.362 . S
C12 C9 1.431 . S
C12 C22 1.476 1_556 S
H13 C7 0.929 . S
C14 O5 1.250 . S
C14 O6 1.258 . S
O15 Mn0 2.162 . S
O15 C3 1.281 . S
O16 Mn0 2.297 1_556 S
O16 C3 1.236 1_556 S
N17 Mn1 2.282 . S
N17 C18 1.328 . S
N17 C22 1.318 . S
C18 N17 1.328 . S
C18 C19 1.457 . S
C18 H23 0.929 . S
C19 C18 1.457 . S
C19 C20 1.291 . S
C19 H32 0.931 . S
C20 C19 1.291 . S
C20 C21 1.373 . S
C20 H33 0.929 . S
C21 C20 1.373 . S
C21 C22 1.396 . S
C21 C28 1.403 . S
C22 C12 1.476 1_554 S
C22 N17 1.318 . S
C22 C21 1.396 . S
H23 C18 0.929 . S
O24 Mn0 2.385 . S
O24 C2 1.234 . S
O25 Mn0 2.209 . S
O25 Mn1 2.215 . S
O25 C2 1.283 . S
O26 Mn0 2.094 . S
O26 C4 1.240 . S
O27 Mn1 2.117 . S
O27 C4 1.264 . S
C28 C21 1.403 . S
C28 C29 1.399 1_554 S
C28 H34 0.929 . S
C29 C9 1.449 . S
C29 C28 1.399 1_556 S
C29 H35 0.930 . S
H30 C10 0.931 . S
H31 C11 0.930 . S
H32 C19 0.931 . S
H33 C20 0.929 . S
H34 C28 0.929 . S
H35 C29 0.930 . S
Mn36 O41 2.095 1_556 S
Mn36 O51 2.162 . S
Mn36 O52 2.297 1_556 S
Mn36 O60 2.385 . S
Mn36 O61 2.209 1_556 S
Mn36 O62 2.094 . S
Mn37 O42 2.121 . S
Mn37 N44 2.257 . S
Mn37 N53 2.282 1_554 S
Mn37 O61 2.215 . S
Mn37 O63 2.117 1_554 S
C38 O60 1.234 . S
C38 O61 1.283 1_556 S
C39 O51 1.281 1_554 S
C39 O52 1.236 . S
C40 O62 1.240 . S
C40 O63 1.264 . S
O41 Mn36 2.095 1_554 S
O41 C50 1.250 . S
O42 Mn37 2.121 . S
O42 C50 1.258 . S
C43 N44 1.326 . S
C43 C47 1.460 . S
C43 H49 0.929 . S
N44 Mn37 2.257 . S
N44 C43 1.326 . S
N44 C48 1.362 . S
C45 C46 1.258 . S
C45 C48 1.431 . S
C45 C65 1.449 . S
C46 C45 1.258 . S
C46 C47 1.477 . S
C46 H66 0.931 . S
C47 C43 1.460 . S
C47 C46 1.477 . S
C47 H67 0.930 . S
C48 N44 1.362 . S
C48 C45 1.431 . S
C48 C58 1.476 1_554 S
H49 C43 0.929 . S
C50 O41 1.250 . S
C50 O42 1.258 . S
O51 Mn36 2.162 . S
O51 C39 1.281 1_556 S
O52 Mn36 2.297 1_554 S
O52 C39 1.236 . S
N53 Mn37 2.282 1_556 S
N53 C54 1.328 . S
N53 C58 1.318 . S
C54 N53 1.328 . S
C54 C55 1.457 . S
C54 H59 0.929 . S
C55 C54 1.457 . S
C55 C56 1.291 . S
C55 H68 0.931 . S
C56 C55 1.291 . S
C56 C57 1.373 . S
C56 H69 0.929 . S
C57 C56 1.373 . S
C57 C58 1.396 . S
C57 C64 1.403 1_556 S
C58 C48 1.476 1_556 S
C58 N53 1.318 . S
C58 C57 1.396 . S
H59 C54 0.929 . S
O60 Mn36 2.385 . S
O60 C38 1.234 . S
O61 Mn36 2.209 1_554 S
O61 Mn37 2.215 . S
O61 C38 1.283 1_554 S
O62 Mn36 2.094 . S
O62 C40 1.240 . S
O63 Mn37 2.117 1_556 S
O63 C40 1.264 . S
C64 C57 1.403 1_554 S
C64 C65 1.399 . S
C64 H70 0.929 1_554 S
C65 C45 1.449 . S
C65 C64 1.399 . S
C65 H71 0.930 . S
H66 C46 0.931 . S
H67 C47 0.930 . S
H68 C55 0.931 . S
H69 C56 0.929 . S
H70 C64 0.929 1_556 S
H71 C65 0.930 . S
Mn72 O77 2.095 1_554 S
Mn72 O87 2.162 . S
Mn72 O88 2.297 1_554 S
Mn72 O96 2.385 . S
Mn72 O97 2.209 . S
Mn72 O98 2.094 . S
Mn73 O78 2.121 1_554 S
Mn73 N80 2.257 1_554 S
Mn73 N89 2.282 . S
Mn73 O97 2.215 . S
Mn73 O99 2.117 . S
C74 O96 1.234 . S
C74 O97 1.283 . S
C75 O87 1.281 . S
C75 O88 1.236 1_554 S
C76 O98 1.240 . S
C76 O99 1.264 . S
O77 Mn72 2.095 1_556 S
O77 C86 1.250 . S
O78 Mn73 2.121 1_556 S
O78 C86 1.258 . S
C79 N80 1.326 . S
C79 C83 1.460 . S
C79 H85 0.929 . S
N80 Mn73 2.257 1_556 S
N80 C79 1.326 . S
N80 C84 1.362 . S
C81 C82 1.258 . S
C81 C84 1.431 . S
C81 C101 1.449 . S
C82 C81 1.258 . S
C82 C83 1.477 . S
C82 H102 0.931 . S
C83 C79 1.460 . S
C83 C82 1.477 . S
C83 H103 0.930 . S
C84 N80 1.362 . S
C84 C81 1.431 . S
C84 C94 1.476 1_556 S
H85 C79 0.929 . S
C86 O77 1.250 . S
C86 O78 1.258 . S
O87 Mn72 2.162 . S
O87 C75 1.281 . S
O88 Mn72 2.297 1_556 S
O88 C75 1.236 1_556 S
N89 Mn73 2.282 . S
N89 C90 1.328 . S
N89 C94 1.318 . S
C90 N89 1.328 . S
C90 C91 1.457 . S
C90 H95 0.929 . S
C91 C90 1.457 . S
C91 C92 1.291 . S
C91 H104 0.931 . S
C92 C91 1.291 . S
C92 C93 1.373 . S
C92 H105 0.929 . S
C93 C92 1.373 . S
C93 C94 1.396 . S
C93 C100 1.403 . S
C94 C84 1.476 1_554 S
C94 N89 1.318 . S
C94 C93 1.396 . S
H95 C90 0.929 . S
O96 Mn72 2.385 . S
O96 C74 1.234 . S
O97 Mn72 2.209 . S
O97 Mn73 2.215 . S
O97 C74 1.283 . S
O98 Mn72 2.094 . S
O98 C76 1.240 . S
O99 Mn73 2.117 . S
O99 C76 1.264 . S
C100 C93 1.403 . S
C100 C101 1.399 1_554 S
C100 H106 0.929 . S
C101 C81 1.449 . S
C101 C100 1.399 1_556 S
C101 H107 0.930 . S
H102 C82 0.931 . S
H103 C83 0.930 . S
H104 C91 0.931 . S
H105 C92 0.929 . S
H106 C100 0.929 . S
H107 C101 0.930 . S
Mn108 O113 2.095 1_556 S
Mn108 O123 2.162 . S
Mn108 O124 2.297 1_556 S
Mn108 O132 2.385 . S
Mn108 O133 2.209 1_556 S
Mn108 O134 2.094 . S
Mn109 O114 2.121 . S
Mn109 N116 2.257 . S
Mn109 N125 2.282 1_554 S
Mn109 O133 2.215 . S
Mn109 O135 2.117 1_554 S
C110 O132 1.234 . S
C110 O133 1.283 1_556 S
C111 O123 1.281 1_554 S
C111 O124 1.236 . S
C112 O134 1.240 . S
C112 O135 1.264 . S
O113 Mn108 2.095 1_554 S
O113 C122 1.250 . S
O114 Mn109 2.121 . S
O114 C122 1.258 . S
C115 N116 1.326 . S
C115 C119 1.460 . S
C115 H121 0.929 . S
N116 Mn109 2.257 . S
N116 C115 1.326 . S
N116 C120 1.362 . S
C117 C118 1.258 . S
C117 C120 1.431 . S
C117 C137 1.449 . S
C118 C117 1.258 . S
C118 C119 1.477 . S
C118 H138 0.931 . S
C119 C115 1.460 . S
C119 C118 1.477 . S
C119 H139 0.930 . S
C120 N116 1.362 . S
C120 C117 1.431 . S
C120 C130 1.476 1_554 S
H121 C115 0.929 . S
C122 O113 1.250 . S
C122 O114 1.258 . S
O123 Mn108 2.162 . S
O123 C111 1.281 1_556 S
O124 Mn108 2.297 1_554 S
O124 C111 1.236 . S
N125 Mn109 2.282 1_556 S
N125 C126 1.328 . S
N125 C130 1.318 . S
C126 N125 1.328 . S
C126 C127 1.457 . S
C126 H131 0.929 . S
C127 C126 1.457 . S
C127 C128 1.291 . S
C127 H140 0.931 . S
C128 C127 1.291 . S
C128 C129 1.373 . S
C128 H141 0.929 . S
C129 C128 1.373 . S
C129 C130 1.396 . S
C129 C136 1.403 1_556 S
C130 C120 1.476 1_556 S
C130 N125 1.318 . S
C130 C129 1.396 . S
H131 C126 0.929 . S
O132 Mn108 2.385 . S
O132 C110 1.234 . S
O133 Mn108 2.209 1_554 S
O133 Mn109 2.215 . S
O133 C110 1.283 1_554 S
O134 Mn108 2.094 . S
O134 C112 1.240 . S
O135 Mn109 2.117 1_556 S
O135 C112 1.264 . S
C136 C129 1.403 1_554 S
C136 C137 1.399 . S
C136 H142 0.929 1_554 S
C137 C117 1.449 . S
C137 C136 1.399 . S
C137 H143 0.930 . S
H138 C118 0.931 . S
H139 C119 0.930 . S
H140 C127 0.931 . S
H141 C128 0.929 . S
H142 C136 0.929 1_556 S
H143 C137 0.930 . S
Mn144 O149 2.095 . S
Mn144 O159 2.162 . S
Mn144 O160 2.297 . S
Mn144 O168 2.385 . S
Mn144 O169 2.209 . S
Mn144 O170 2.094 . S
Mn145 O150 2.121 . S
Mn145 N152 2.257 . S
Mn145 N161 2.282 . S
Mn145 O169 2.215 . S
Mn145 O171 2.117 . S
C146 O168 1.234 . S
C146 O169 1.283 . S
C147 O159 1.281 . S
C147 O160 1.236 . S
C148 O170 1.240 . S
C148 O171 1.264 . S
O149 Mn144 2.095 . S
O149 C158 1.250 . S
O150 Mn145 2.121 . S
O150 C158 1.258 . S
C151 N152 1.326 . S
C151 C155 1.460 . S
C151 H157 0.929 . S
N152 Mn145 2.257 . S
N152 C151 1.326 . S
N152 C156 1.362 . S
C153 C154 1.258 . S
C153 C156 1.431 . S
C153 C173 1.449 . S
C154 C153 1.258 . S
C154 C155 1.477 . S
C154 H174 0.931 . S
C155 C151 1.460 . S
C155 C154 1.477 . S
C155 H175 0.930 . S
C156 N152 1.362 . S
C156 C153 1.431 . S
C156 C166 1.476 . S
H157 C151 0.929 . S
C158 O149 1.250 . S
C158 O150 1.258 . S
O159 Mn144 2.162 . S
O159 C147 1.281 . S
O160 Mn144 2.297 . S
O160 C147 1.236 . S
N161 Mn145 2.282 . S
N161 C162 1.328 . S
N161 C166 1.318 . S
C162 N161 1.328 . S
C162 C163 1.457 . S
C162 H167 0.929 . S
C163 C162 1.457 . S
C163 C164 1.291 . S
C163 H176 0.931 . S
C164 C163 1.291 . S
C164 C165 1.373 . S
C164 H177 0.929 . S
C165 C164 1.373 . S
C165 C166 1.396 . S
C165 C172 1.403 . S
C166 C156 1.476 . S
C166 N161 1.318 . S
C166 C165 1.396 . S
H167 C162 0.929 . S
O168 Mn144 2.385 . S
O168 C146 1.234 . S
O169 Mn144 2.209 . S
O169 Mn145 2.215 . S
O169 C146 1.283 . S
O170 Mn144 2.094 . S
O170 C148 1.240 . S
O171 Mn145 2.117 . S
O171 C148 1.264 . S
C172 C165 1.403 . S
C172 C173 1.399 . S
C172 H178 0.929 . S
C173 C153 1.449 . S
C173 C172 1.399 . S
C173 H179 0.930 . S
H174 C154 0.931 . S
H175 C155 0.930 . S
H176 C163 0.931 . S
H177 C164 0.929 . S
H178 C172 0.929 . S
H179 C173 0.930 . S
Mn180 O185 2.095 . S
Mn180 O195 2.162 . S
Mn180 O196 2.297 . S
Mn180 O204 2.385 . S
Mn180 O205 2.209 . S
Mn180 O206 2.094 . S
Mn181 O186 2.121 . S
Mn181 N188 2.257 . S
Mn181 N197 2.282 . S
Mn181 O205 2.215 . S
Mn181 O207 2.117 . S
C182 O204 1.234 . S
C182 O205 1.283 . S
C183 O195 1.281 . S
C183 O196 1.236 . S
C184 O206 1.240 . S
C184 O207 1.264 . S
O185 Mn180 2.095 . S
O185 C194 1.250 . S
O186 Mn181 2.121 . S
O186 C194 1.258 . S
C187 N188 1.326 . S
C187 C191 1.460 . S
C187 H193 0.929 . S
N188 Mn181 2.257 . S
N188 C187 1.326 . S
N188 C192 1.362 . S
C189 C190 1.258 . S
C189 C192 1.431 . S
C189 C209 1.449 . S
C190 C189 1.258 . S
C190 C191 1.477 . S
C190 H210 0.931 . S
C191 C187 1.460 . S
C191 C190 1.477 . S
C191 H211 0.930 . S
C192 N188 1.362 . S
C192 C189 1.431 . S
C192 C202 1.476 . S
H193 C187 0.929 . S
C194 O185 1.250 . S
C194 O186 1.258 . S
O195 Mn180 2.162 . S
O195 C183 1.281 . S
O196 Mn180 2.297 . S
O196 C183 1.236 . S
N197 Mn181 2.282 . S
N197 C198 1.328 . S
N197 C202 1.318 . S
C198 N197 1.328 . S
C198 C199 1.457 . S
C198 H203 0.929 . S
C199 C198 1.457 . S
C199 C200 1.291 . S
C199 H212 0.931 . S
C200 C199 1.291 . S
C200 C201 1.373 . S
C200 H213 0.929 . S
C201 C200 1.373 . S
C201 C202 1.396 . S
C201 C208 1.403 . S
C202 C192 1.476 . S
C202 N197 1.318 . S
C202 C201 1.396 . S
H203 C198 0.929 . S
O204 Mn180 2.385 . S
O204 C182 1.234 . S
O205 Mn180 2.209 . S
O205 Mn181 2.215 . S
O205 C182 1.283 . S
O206 Mn180 2.094 . S
O206 C184 1.240 . S
O207 Mn181 2.117 . S
O207 C184 1.264 . S
C208 C201 1.403 . S
C208 C209 1.399 . S
C208 H214 0.929 . S
C209 C189 1.449 . S
C209 C208 1.399 . S
C209 H215 0.930 . S
H210 C190 0.931 . S
H211 C191 0.930 . S
H212 C199 0.931 . S
H213 C200 0.929 . S
H214 C208 0.929 . S
H215 C209 0.930 . S
Mn216 O221 2.095 . S
Mn216 O231 2.162 . S
Mn216 O232 2.297 . S
Mn216 O240 2.385 . S
Mn216 O241 2.209 . S
Mn216 O242 2.094 . S
Mn217 O222 2.121 . S
Mn217 N224 2.257 . S
Mn217 N233 2.282 . S
Mn217 O241 2.215 . S
Mn217 O243 2.117 . S
C218 O240 1.234 . S
C218 O241 1.283 . S
C219 O231 1.281 . S
C219 O232 1.236 . S
C220 O242 1.240 . S
C220 O243 1.264 . S
O221 Mn216 2.095 . S
O221 C230 1.250 . S
O222 Mn217 2.121 . S
O222 C230 1.258 . S
C223 N224 1.326 . S
C223 C227 1.460 . S
C223 H229 0.929 . S
N224 Mn217 2.257 . S
N224 C223 1.326 . S
N224 C228 1.362 . S
C225 C226 1.258 . S
C225 C228 1.431 . S
C225 C245 1.449 . S
C226 C225 1.258 . S
C226 C227 1.477 . S
C226 H246 0.931 . S
C227 C223 1.460 . S
C227 C226 1.477 . S
C227 H247 0.930 . S
C228 N224 1.362 . S
C228 C225 1.431 . S
C228 C238 1.476 . S
H229 C223 0.929 . S
C230 O221 1.250 . S
C230 O222 1.258 . S
O231 Mn216 2.162 . S
O231 C219 1.281 . S
O232 Mn216 2.297 . S
O232 C219 1.236 . S
N233 Mn217 2.282 . S
N233 C234 1.328 . S
N233 C238 1.318 . S
C234 N233 1.328 . S
C234 C235 1.457 . S
C234 H239 0.929 . S
C235 C234 1.457 . S
C235 C236 1.291 . S
C235 H248 0.931 . S
C236 C235 1.291 . S
C236 C237 1.373 . S
C236 H249 0.929 . S
C237 C236 1.373 . S
C237 C238 1.396 . S
C237 C244 1.403 . S
C238 C228 1.476 . S
C238 N233 1.318 . S
C238 C237 1.396 . S
H239 C234 0.929 . S
O240 Mn216 2.385 . S
O240 C218 1.234 . S
O241 Mn216 2.209 . S
O241 Mn217 2.215 . S
O241 C218 1.283 . S
O242 Mn216 2.094 . S
O242 C220 1.240 . S
O243 Mn217 2.117 . S
O243 C220 1.264 . S
C244 C237 1.403 . S
C244 C245 1.399 . S
C244 H250 0.929 . S
C245 C225 1.449 . S
C245 C244 1.399 . S
C245 H251 0.930 . S
H246 C226 0.931 . S
H247 C227 0.930 . S
H248 C235 0.931 . S
H249 C236 0.929 . S
H250 C244 0.929 . S
H251 C245 0.930 . S
Mn252 O257 2.095 . S
Mn252 O267 2.162 . S
Mn252 O268 2.297 . S
Mn252 O276 2.385 . S
Mn252 O277 2.209 . S
Mn252 O278 2.094 . S
Mn253 O258 2.121 . S
Mn253 N260 2.257 . S
Mn253 N269 2.282 . S
Mn253 O277 2.215 . S
Mn253 O279 2.117 . S
C254 O276 1.234 . S
C254 O277 1.283 . S
C255 O267 1.281 . S
C255 O268 1.236 . S
C256 O278 1.240 . S
C256 O279 1.264 . S
O257 Mn252 2.095 . S
O257 C266 1.250 . S
O258 Mn253 2.121 . S
O258 C266 1.258 . S
C259 N260 1.326 . S
C259 C263 1.460 . S
C259 H265 0.929 . S
N260 Mn253 2.257 . S
N260 C259 1.326 . S
N260 C264 1.362 . S
C261 C262 1.258 . S
C261 C264 1.431 . S
C261 C281 1.449 . S
C262 C261 1.258 . S
C262 C263 1.477 . S
C262 H282 0.931 . S
C263 C259 1.460 . S
C263 C262 1.477 . S
C263 H283 0.930 . S
C264 N260 1.362 . S
C264 C261 1.431 . S
C264 C274 1.476 . S
H265 C259 0.929 . S
C266 O257 1.250 . S
C266 O258 1.258 . S
O267 Mn252 2.162 . S
O267 C255 1.281 . S
O268 Mn252 2.297 . S
O268 C255 1.236 . S
N269 Mn253 2.282 . S
N269 C270 1.328 . S
N269 C274 1.318 . S
C270 N269 1.328 . S
C270 C271 1.457 . S
C270 H275 0.929 . S
C271 C270 1.457 . S
C271 C272 1.291 . S
C271 H284 0.931 . S
C272 C271 1.291 . S
C272 C273 1.373 . S
C272 H285 0.929 . S
C273 C272 1.373 . S
C273 C274 1.396 . S
C273 C280 1.403 . S
C274 C264 1.476 . S
C274 N269 1.318 . S
C274 C273 1.396 . S
H275 C270 0.929 . S
O276 Mn252 2.385 . S
O276 C254 1.234 . S
O277 Mn252 2.209 . S
O277 Mn253 2.215 . S
O277 C254 1.283 . S
O278 Mn252 2.094 . S
O278 C256 1.240 . S
O279 Mn253 2.117 . S
O279 C256 1.264 . S
C280 C273 1.403 . S
C280 C281 1.399 . S
C280 H286 0.929 . S
C281 C261 1.449 . S
C281 C280 1.399 . S
C281 H287 0.930 . S
H282 C262 0.931 . S
H283 C263 0.930 . S
H284 C271 0.931 . S
H285 C272 0.929 . S
H286 C280 0.929 . S
H287 C281 0.930 . S
C288 C289 1.349 . S
C288 C290 1.327 . S
C288 H313 0.950 . S
C289 C288 1.349 . S
C289 C305 1.349 1_554 S
C290 C288 1.327 . S
C290 C309 1.429 . S
C290 H314 0.950 . S
C291 C308 1.574 . S
C291 C310 1.368 1_556 S
C291 H315 0.949 . S
H292 C296 0.949 . S
C293 C294 1.349 1_556 S
C293 C295 1.327 . S
C293 H316 0.950 . S
C294 C293 1.349 1_554 S
C294 C306 1.349 . S
C295 C293 1.327 . S
C295 C311 1.429 1_556 S
C295 H317 0.950 . S
C296 H292 0.949 . S
C296 C304 1.574 . S
C296 C312 1.368 . S
H297 C305 0.950 . S
H298 C303 0.950 . S
H299 C304 0.949 . S
H300 C306 0.950 . S
H301 C307 0.950 . S
H302 C308 0.949 . S
C303 H298 0.950 . S
C303 C305 1.327 . S
C303 C309 1.429 1_556 S
C304 C296 1.574 . S
C304 H299 0.949 . S
C304 C310 1.368 . S
C305 C289 1.349 1_556 S
C305 H297 0.950 . S
C305 C303 1.327 . S
C306 C294 1.349 . S
C306 H300 0.950 . S
C306 C307 1.327 . S
C307 H301 0.950 . S
C307 C306 1.327 . S
C307 C311 1.429 . S
C308 C291 1.574 . S
C308 H302 0.949 . S
C308 C312 1.368 1_556 S
C309 C290 1.429 . S
C309 C303 1.429 1_554 S
C309 C310 1.523 . S
C310 C291 1.368 1_554 S
C310 C304 1.368 . S
C310 C309 1.523 . S
C311 C295 1.429 1_554 S
C311 C307 1.429 . S
C311 C312 1.523 . S
C312 C296 1.368 . S
C312 C308 1.368 1_554 S
C312 C311 1.523 . S
H313 C288 0.950 . S
H314 C290 0.950 . S
H315 C291 0.949 . S
H316 C293 0.950 . S
H317 C295 0.950 . S
C318 C319 1.349 . S
C318 C320 1.327 . S
C318 H343 0.950 1_554 S
C319 C318 1.349 . S
C319 C335 1.349 . S
C320 C318 1.327 . S
C320 C339 1.429 . S
C320 H344 0.950 1_554 S
C321 C338 1.574 . S
C321 C340 1.368 . S
C321 H345 0.949 . S
H322 C326 0.949 . S
C323 C324 1.349 . S
C323 C325 1.327 . S
C323 H346 0.950 . S
C324 C323 1.349 . S
C324 C336 1.349 1_554 S
C325 C323 1.327 . S
C325 C341 1.429 . S
C325 H347 0.950 . S
C326 H322 0.949 . S
C326 C334 1.574 . S
C326 C342 1.368 1_556 S
H327 C335 0.950 . S
H328 C333 0.950 . S
H329 C334 0.949 . S
H330 C336 0.950 . S
H331 C337 0.950 . S
H332 C338 0.949 . S
C333 H328 0.950 . S
C333 C335 1.327 . S
C333 C339 1.429 . S
C334 C326 1.574 . S
C334 H329 0.949 . S
C334 C340 1.368 1_556 S
C335 C319 1.349 . S
C335 H327 0.950 . S
C335 C333 1.327 . S
C336 C324 1.349 1_556 S
C336 H330 0.950 . S
C336 C337 1.327 . S
C337 H331 0.950 . S
C337 C336 1.327 . S
C337 C341 1.429 1_556 S
C338 C321 1.574 . S
C338 H332 0.949 . S
C338 C342 1.368 . S
C339 C320 1.429 . S
C339 C333 1.429 . S
C339 C340 1.523 . S
C340 C321 1.368 . S
C340 C334 1.368 1_554 S
C340 C339 1.523 . S
C341 C325 1.429 . S
C341 C337 1.429 1_554 S
C341 C342 1.523 . S
C342 C326 1.368 1_554 S
C342 C338 1.368 . S
C342 C341 1.523 . S
H343 C318 0.950 1_556 S
H344 C320 0.950 1_556 S
H345 C321 0.949 . S
H346 C323 0.950 . S
H347 C325 0.950 . S
C348 C349 1.349 1_556 S
C348 C350 1.327 . S
C348 H373 0.950 . S
C349 C348 1.349 1_554 S
C349 C365 1.349 . S
C350 C348 1.327 . S
C350 C369 1.429 1_556 S
C350 H374 0.950 . S
C351 C368 1.574 . S
C351 C370 1.368 . S
C351 H375 0.949 . S
H352 C356 0.949 . S
C353 C354 1.349 . S
C353 C355 1.327 . S
C353 H376 0.950 . S
C354 C353 1.349 . S
C354 C366 1.349 1_554 S
C355 C353 1.327 . S
C355 C371 1.429 . S
C355 H377 0.950 . S
C356 H352 0.949 . S
C356 C364 1.574 . S
C356 C372 1.368 1_556 S
H357 C365 0.950 . S
H358 C363 0.950 . S
H359 C364 0.949 . S
H360 C366 0.950 . S
H361 C367 0.950 . S
H362 C368 0.949 . S
C363 H358 0.950 . S
C363 C365 1.327 . S
C363 C369 1.429 . S
C364 C356 1.574 . S
C364 H359 0.949 . S
C364 C370 1.368 1_556 S
C365 C349 1.349 . S
C365 H357 0.950 . S
C365 C363 1.327 . S
C366 C354 1.349 1_556 S
C366 H360 0.950 . S
C366 C367 1.327 . S
C367 H361 0.950 . S
C367 C366 1.327 . S
C367 C371 1.429 1_556 S
C368 C351 1.574 . S
C368 H362 0.949 . S
C368 C372 1.368 . S
C369 C350 1.429 1_554 S
C369 C363 1.429 . S
C369 C370 1.523 . S
C370 C351 1.368 . S
C370 C364 1.368 1_554 S
C370 C369 1.523 . S
C371 C355 1.429 . S
C371 C367 1.429 1_554 S
C371 C372 1.523 . S
C372 C356 1.368 1_554 S
C372 C368 1.368 . S
C372 C371 1.523 . S
H373 C348 0.950 . S
H374 C350 0.950 . S
H375 C351 0.949 . S
H376 C353 0.950 . S
H377 C355 0.950 . S
C378 C379 1.349 . S
C378 C380 1.327 . S
C378 H403 0.950 . S
C379 C378 1.349 . S
C379 C395 1.349 1_554 S
C380 C378 1.327 . S
C380 C399 1.429 . S
C380 H404 0.950 . S
C381 C398 1.574 . S
C381 C400 1.368 1_556 S
C381 H405 0.949 . S
H382 C386 0.949 . S
C383 C384 1.349 . S
C383 C385 1.327 . S
C383 H406 0.950 1_554 S
C384 C383 1.349 . S
C384 C396 1.349 . S
C385 C383 1.327 . S
C385 C401 1.429 . S
C385 H407 0.950 1_554 S
C386 H382 0.949 . S
C386 C394 1.574 . S
C386 C402 1.368 . S
H387 C395 0.950 . S
H388 C393 0.950 . S
H389 C394 0.949 . S
H390 C396 0.950 . S
H391 C397 0.950 . S
H392 C398 0.949 . S
C393 H388 0.950 . S
C393 C395 1.327 . S
C393 C399 1.429 1_556 S
C394 C386 1.574 . S
C394 H389 0.949 . S
C394 C400 1.368 . S
C395 C379 1.349 1_556 S
C395 H387 0.950 . S
C395 C393 1.327 . S
C396 C384 1.349 . S
C396 H390 0.950 . S
C396 C397 1.327 . S
C397 H391 0.950 . S
C397 C396 1.327 . S
C397 C401 1.429 . S
C398 C381 1.574 . S
C398 H392 0.949 . S
C398 C402 1.368 1_556 S
C399 C380 1.429 . S
C399 C393 1.429 1_554 S
C399 C400 1.523 . S
C400 C381 1.368 1_554 S
C400 C394 1.368 . S
C400 C399 1.523 . S
C401 C385 1.429 . S
C401 C397 1.429 . S
C401 C402 1.523 . S
C402 C386 1.368 . S
C402 C398 1.368 1_554 S
C402 C401 1.523 . S
H403 C378 0.950 . S
H404 C380 0.950 . S
H405 C381 0.949 . S
H406 C383 0.950 1_556 S
H407 C385 0.950 1_556 S
C408 C409 1.349 . S
C408 C410 1.327 . S
C408 H433 0.950 . S
C409 C408 1.349 . S
C409 C425 1.349 . S
C410 C408 1.327 . S
C410 C429 1.429 . S
C410 H434 0.950 . S
C411 C428 1.574 1_565 S
C411 C430 1.368 . S
C411 H435 0.949 . S
H412 C416 0.949 . S
C413 C414 1.349 . S
C413 C415 1.327 . S
C413 H436 0.950 . S
C414 C413 1.349 . S
C414 C426 1.349 . S
C415 C413 1.327 . S
C415 C431 1.429 . S
C415 H437 0.950 . S
C416 H412 0.949 . S
C416 C424 1.574 1_545 S
C416 C432 1.368 . S
H417 C425 0.950 . S
H418 C423 0.950 . S
H419 C424 0.949 . S
H420 C426 0.950 . S
H421 C427 0.950 . S
H422 C428 0.949 . S
C423 H418 0.950 . S
C423 C425 1.327 . S
C423 C429 1.429 . S
C424 C416 1.574 1_565 S
C424 H419 0.949 . S
C424 C430 1.368 . S
C425 C409 1.349 . S
C425 H417 0.950 . S
C425 C423 1.327 . S
C426 C414 1.349 . S
C426 H420 0.950 . S
C426 C427 1.327 . S
C427 H421 0.950 . S
C427 C426 1.327 . S
C427 C431 1.429 . S
C428 C411 1.574 1_545 S
C428 H422 0.949 . S
C428 C432 1.368 . S
C429 C410 1.429 . S
C429 C423 1.429 . S
C429 C430 1.523 . S
C430 C411 1.368 . S
C430 C424 1.368 . S
C430 C429 1.523 . S
C431 C415 1.429 . S
C431 C427 1.429 . S
C431 C432 1.523 . S
C432 C416 1.368 . S
C432 C428 1.368 . S
C432 C431 1.523 . S
H433 C408 0.950 . S
H434 C410 0.950 . S
H435 C411 0.949 . S
H436 C413 0.950 . S
H437 C415 0.950 . S
C438 C439 1.349 . S
C438 C440 1.327 . S
C438 H463 0.950 . S
C439 C438 1.349 . S
C439 C455 1.349 . S
C440 C438 1.327 . S
C440 C459 1.429 . S
C440 H464 0.950 . S
C441 C458 1.574 1_455 S
C441 C460 1.368 . S
C441 H465 0.949 . S
H442 C446 0.949 . S
C443 C444 1.349 . S
C443 C445 1.327 . S
C443 H466 0.950 . S
C444 C443 1.349 . S
C444 C456 1.349 . S
C445 C443 1.327 . S
C445 C461 1.429 . S
C445 H467 0.950 . S
C446 H442 0.949 . S
C446 C454 1.574 1_655 S
C446 C462 1.368 . S
H447 C455 0.950 . S
H448 C453 0.950 . S
H449 C454 0.949 . S
H450 C456 0.950 . S
H451 C457 0.950 . S
H452 C458 0.949 . S
C453 H448 0.950 . S
C453 C455 1.327 . S
C453 C459 1.429 . S
C454 C446 1.574 1_455 S
C454 H449 0.949 . S
C454 C460 1.368 . S
C455 C439 1.349 . S
C455 H447 0.950 . S
C455 C453 1.327 . S
C456 C444 1.349 . S
C456 H450 0.950 . S
C456 C457 1.327 . S
C457 H451 0.950 . S
C457 C456 1.327 . S
C457 C461 1.429 . S
C458 C441 1.574 1_655 S
C458 H452 0.949 . S
C458 C462 1.368 . S
C459 C440 1.429 . S
C459 C453 1.429 . S
C459 C460 1.523 . S
C460 C441 1.368 . S
C460 C454 1.368 . S
C460 C459 1.523 . S
C461 C445 1.429 . S
C461 C457 1.429 . S
C461 C462 1.523 . S
C462 C446 1.368 . S
C462 C458 1.368 . S
C462 C461 1.523 . S
H463 C438 0.950 . S
H464 C440 0.950 . S
H465 C441 0.949 . S
H466 C443 0.950 . S
H467 C445 0.950 . S
C468 C469 1.349 . S
C468 C470 1.327 . S
C468 H493 0.950 . S
C469 C468 1.349 . S
C469 C485 1.349 . S
C470 C468 1.327 . S
C470 C489 1.429 . S
C470 H494 0.950 . S
C471 C488 1.574 1_545 S
C471 C490 1.368 . S
C471 H495 0.949 . S
H472 C476 0.949 . S
C473 C474 1.349 . S
C473 C475 1.327 . S
C473 H496 0.950 . S
C474 C473 1.349 . S
C474 C486 1.349 . S
C475 C473 1.327 . S
C475 C491 1.429 . S
C475 H497 0.950 . S
C476 H472 0.949 . S
C476 C484 1.574 1_565 S
C476 C492 1.368 . S
H477 C485 0.950 . S
H478 C483 0.950 . S
H479 C484 0.949 . S
H480 C486 0.950 . S
H481 C487 0.950 . S
H482 C488 0.949 . S
C483 H478 0.950 . S
C483 C485 1.327 . S
C483 C489 1.429 . S
C484 C476 1.574 1_545 S
C484 H479 0.949 . S
C484 C490 1.368 . S
C485 C469 1.349 . S
C485 H477 0.950 . S
C485 C483 1.327 . S
C486 C474 1.349 . S
C486 H480 0.950 . S
C486 C487 1.327 . S
C487 H481 0.950 . S
C487 C486 1.327 . S
C487 C491 1.429 . S
C488 C471 1.574 1_565 S
C488 H482 0.949 . S
C488 C492 1.368 . S
C489 C470 1.429 . S
C489 C483 1.429 . S
C489 C490 1.523 . S
C490 C471 1.368 . S
C490 C484 1.368 . S
C490 C489 1.523 . S
C491 C475 1.429 . S
C491 C487 1.429 . S
C491 C492 1.523 . S
C492 C476 1.368 . S
C492 C488 1.368 . S
C492 C491 1.523 . S
H493 C468 0.950 . S
H494 C470 0.950 . S
H495 C471 0.949 . S
H496 C473 0.950 . S
H497 C475 0.950 . S
C498 C499 1.349 . S
C498 C500 1.327 . S
C498 H523 0.950 . S
C499 C498 1.349 . S
C499 C515 1.349 . S
C500 C498 1.327 . S
C500 C519 1.429 . S
C500 H524 0.950 . S
C501 C518 1.574 1_655 S
C501 C520 1.368 . S
C501 H525 0.949 . S
H502 C506 0.949 . S
C503 C504 1.349 . S
C503 C505 1.327 . S
C503 H526 0.950 . S
C504 C503 1.349 . S
C504 C516 1.349 . S
C505 C503 1.327 . S
C505 C521 1.429 . S
C505 H527 0.950 . S
C506 H502 0.949 . S
C506 C514 1.574 1_455 S
C506 C522 1.368 . S
H507 C515 0.950 . S
H508 C513 0.950 . S
H509 C514 0.949 . S
H510 C516 0.950 . S
H511 C517 0.950 . S
H512 C518 0.949 . S
C513 H508 0.950 . S
C513 C515 1.327 . S
C513 C519 1.429 . S
C514 C506 1.574 1_655 S
C514 H509 0.949 . S
C514 C520 1.368 . S
C515 C499 1.349 . S
C515 H507 0.950 . S
C515 C513 1.327 . S
C516 C504 1.349 . S
C516 H510 0.950 . S
C516 C517 1.327 . S
C517 H511 0.950 . S
C517 C516 1.327 . S
C517 C521 1.429 . S
C518 C501 1.574 1_455 S
C518 H512 0.949 . S
C518 C522 1.368 . S
C519 C500 1.429 . S
C519 C513 1.429 . S
C519 C520 1.523 . S
C520 C501 1.368 . S
C520 C514 1.368 . S
C520 C519 1.523 . S
C521 C505 1.429 . S
C521 C517 1.429 . S
C521 C522 1.523 . S
C522 C506 1.368 . S
C522 C518 1.368 . S
C522 C521 1.523 . S
H523 C498 0.950 . S
H524 C500 0.950 . S
H525 C501 0.949 . S
H526 C503 0.950 . S
H527 C505 0.950 . S
C528 C529 1.349 . S
C528 C530 1.327 . S
C528 H553 0.950 . S
C529 C528 1.349 . S
C529 C545 1.349 . S
C530 C528 1.327 . S
C530 C549 1.429 . S
C530 H554 0.950 . S
C531 C548 1.574 . S
C531 C550 1.368 . S
C531 H555 0.949 . S
H532 C536 0.949 . S
C533 C534 1.349 . S
C533 C535 1.327 . S
C533 H556 0.950 . S
C534 C533 1.349 . S
C534 C546 1.349 . S
C535 C533 1.327 . S
C535 C551 1.429 . S
C535 H557 0.950 . S
C536 H532 0.949 . S
C536 C544 1.574 . S
C536 C552 1.368 . S
H537 C545 0.950 . S
H538 C543 0.950 . S
H539 C544 0.949 . S
H540 C546 0.950 . S
H541 C547 0.950 . S
H542 C548 0.949 . S
C543 H538 0.950 . S
C543 C545 1.327 . S
C543 C549 1.429 . S
C544 C536 1.574 . S
C544 H539 0.949 . S
C544 C550 1.368 . S
C545 C529 1.349 . S
C545 H537 0.950 . S
C545 C543 1.327 . S
C546 C534 1.349 . S
C546 H540 0.950 . S
C546 C547 1.327 . S
C547 H541 0.950 . S
C547 C546 1.327 . S
C547 C551 1.429 . S
C548 C531 1.574 . S
C548 H542 0.949 . S
C548 C552 1.368 . S
C549 C530 1.429 . S
C549 C543 1.429 . S
C549 C550 1.523 . S
C550 C531 1.368 . S
C550 C544 1.368 . S
C550 C549 1.523 . S
C551 C535 1.429 . S
C551 C547 1.429 . S
C551 C552 1.523 . S
C552 C536 1.368 . S
C552 C548 1.368 . S
C552 C551 1.523 . S
H553 C528 0.950 . S
H554 C530 0.950 . S
H555 C531 0.949 . S
H556 C533 0.950 . S
H557 C535 0.950 . S
C558 C559 1.349 . S
C558 C560 1.327 . S
C558 H583 0.950 . S
C559 C558 1.349 . S
C559 C575 1.349 . S
C560 C558 1.327 . S
C560 C579 1.429 . S
C560 H584 0.950 . S
C561 C578 1.574 . S
C561 C580 1.368 . S
C561 H585 0.949 . S
H562 C566 0.949 . S
C563 C564 1.349 . S
C563 C565 1.327 . S
C563 H586 0.950 . S
C564 C563 1.349 . S
C564 C576 1.349 . S
C565 C563 1.327 . S
C565 C581 1.429 . S
C565 H587 0.950 . S
C566 H562 0.949 . S
C566 C574 1.574 . S
C566 C582 1.368 . S
H567 C575 0.950 . S
H568 C573 0.950 . S
H569 C574 0.949 . S
H570 C576 0.950 . S
H571 C577 0.950 . S
H572 C578 0.949 . S
C573 H568 0.950 . S
C573 C575 1.327 . S
C573 C579 1.429 . S
C574 C566 1.574 . S
C574 H569 0.949 . S
C574 C580 1.368 . S
C575 C559 1.349 . S
C575 H567 0.950 . S
C575 C573 1.327 . S
C576 C564 1.349 . S
C576 H570 0.950 . S
C576 C577 1.327 . S
C577 H571 0.950 . S
C577 C576 1.327 . S
C577 C581 1.429 . S
C578 C561 1.574 . S
C578 H572 0.949 . S
C578 C582 1.368 . S
C579 C560 1.429 . S
C579 C573 1.429 . S
C579 C580 1.523 . S
C580 C561 1.368 . S
C580 C574 1.368 . S
C580 C579 1.523 . S
C581 C565 1.429 . S
C581 C577 1.429 . S
C581 C582 1.523 . S
C582 C566 1.368 . S
C582 C578 1.368 . S
C582 C581 1.523 . S
H583 C558 0.950 . S
H584 C560 0.950 . S
H585 C561 0.949 . S
H586 C563 0.950 . S
H587 C565 0.950 . S
C588 C589 1.349 . S
C588 C590 1.327 . S
C588 H613 0.950 . S
C589 C588 1.349 . S
C589 C605 1.349 . S
C590 C588 1.327 . S
C590 C609 1.429 . S
C590 H614 0.950 . S
C591 C608 1.574 . S
C591 C610 1.368 . S
C591 H615 0.949 . S
H592 C596 0.949 . S
C593 C594 1.349 . S
C593 C595 1.327 . S
C593 H616 0.950 . S
C594 C593 1.349 . S
C594 C606 1.349 . S
C595 C593 1.327 . S
C595 C611 1.429 . S
C595 H617 0.950 . S
C596 H592 0.949 . S
C596 C604 1.574 . S
C596 C612 1.368 . S
H597 C605 0.950 . S
H598 C603 0.950 . S
H599 C604 0.949 . S
H600 C606 0.950 . S
H601 C607 0.950 . S
H602 C608 0.949 . S
C603 H598 0.950 . S
C603 C605 1.327 . S
C603 C609 1.429 . S
C604 C596 1.574 . S
C604 H599 0.949 . S
C604 C610 1.368 . S
C605 C589 1.349 . S
C605 H597 0.950 . S
C605 C603 1.327 . S
C606 C594 1.349 . S
C606 H600 0.950 . S
C606 C607 1.327 . S
C607 H601 0.950 . S
C607 C606 1.327 . S
C607 C611 1.429 . S
C608 C591 1.574 . S
C608 H602 0.949 . S
C608 C612 1.368 . S
C609 C590 1.429 . S
C609 C603 1.429 . S
C609 C610 1.523 . S
C610 C591 1.368 . S
C610 C604 1.368 . S
C610 C609 1.523 . S
C611 C595 1.429 . S
C611 C607 1.429 . S
C611 C612 1.523 . S
C612 C596 1.368 . S
C612 C608 1.368 . S
C612 C611 1.523 . S
H613 C588 0.950 . S
H614 C590 0.950 . S
H615 C591 0.949 . S
H616 C593 0.950 . S
H617 C595 0.950 . S
C618 C619 1.349 . S
C618 C620 1.327 . S
C618 H643 0.950 . S
C619 C618 1.349 . S
C619 C635 1.349 . S
C620 C618 1.327 . S
C620 C639 1.429 . S
C620 H644 0.950 . S
C621 C638 1.574 . S
C621 C640 1.368 . S
C621 H645 0.949 . S
H622 C626 0.949 . S
C623 C624 1.349 . S
C623 C625 1.327 . S
C623 H646 0.950 . S
C624 C623 1.349 . S
C624 C636 1.349 . S
C625 C623 1.327 . S
C625 C641 1.429 . S
C625 H647 0.950 . S
C626 H622 0.949 . S
C626 C634 1.574 . S
C626 C642 1.368 . S
H627 C635 0.950 . S
H628 C633 0.950 . S
H629 C634 0.949 . S
H630 C636 0.950 . S
H631 C637 0.950 . S
H632 C638 0.949 . S
C633 H628 0.950 . S
C633 C635 1.327 . S
C633 C639 1.429 . S
C634 C626 1.574 . S
C634 H629 0.949 . S
C634 C640 1.368 . S
C635 C619 1.349 . S
C635 H627 0.950 . S
C635 C633 1.327 . S
C636 C624 1.349 . S
C636 H630 0.950 . S
C636 C637 1.327 . S
C637 H631 0.950 . S
C637 C636 1.327 . S
C637 C641 1.429 . S
C638 C621 1.574 . S
C638 H632 0.949 . S
C638 C642 1.368 . S
C639 C620 1.429 . S
C639 C633 1.429 . S
C639 C640 1.523 . S
C640 C621 1.368 . S
C640 C634 1.368 . S
C640 C639 1.523 . S
C641 C625 1.429 . S
C641 C637 1.429 . S
C641 C642 1.523 . S
C642 C626 1.368 . S
C642 C638 1.368 . S
C642 C641 1.523 . S
H643 C618 0.950 . S
H644 C620 0.950 . S
H645 C621 0.949 . S
H646 C623 0.950 . S
H647 C625 0.950 . S
C648 C649 1.349 . S
C648 C650 1.327 . S
C648 H673 0.950 . S
C649 C648 1.349 . S
C649 C665 1.349 . S
C650 C648 1.327 . S
C650 C669 1.429 . S
C650 H674 0.950 . S
C651 C668 1.574 . S
C651 C670 1.368 . S
C651 H675 0.949 . S
H652 C656 0.949 . S
C653 C654 1.349 . S
C653 C655 1.327 . S
C653 H676 0.950 . S
C654 C653 1.349 . S
C654 C666 1.349 . S
C655 C653 1.327 . S
C655 C671 1.429 . S
C655 H677 0.950 . S
C656 H652 0.949 . S
C656 C664 1.574 . S
C656 C672 1.368 . S
H657 C665 0.950 . S
H658 C663 0.950 . S
H659 C664 0.949 . S
H660 C666 0.950 . S
H661 C667 0.950 . S
H662 C668 0.949 . S
C663 H658 0.950 . S
C663 C665 1.327 . S
C663 C669 1.429 . S
C664 C656 1.574 . S
C664 H659 0.949 . S
C664 C670 1.368 . S
C665 C649 1.349 . S
C665 H657 0.950 . S
C665 C663 1.327 . S
C666 C654 1.349 . S
C666 H660 0.950 . S
C666 C667 1.327 . S
C667 H661 0.950 . S
C667 C666 1.327 . S
C667 C671 1.429 . S
C668 C651 1.574 . S
C668 H662 0.949 . S
C668 C672 1.368 . S
C669 C650 1.429 . S
C669 C663 1.429 . S
C669 C670 1.523 . S
C670 C651 1.368 . S
C670 C664 1.368 . S
C670 C669 1.523 . S
C671 C655 1.429 . S
C671 C667 1.429 . S
C671 C672 1.523 . S
C672 C656 1.368 . S
C672 C668 1.368 . S
C672 C671 1.523 . S
H673 C648 0.950 . S
H674 C650 0.950 . S
H675 C651 0.949 . S
H676 C653 0.950 . S
H677 C655 0.950 . S
C678 C679 1.349 . S
C678 C680 1.327 . S
C678 H703 0.950 . S
C679 C678 1.349 . S
C679 C695 1.349 . S
C680 C678 1.327 . S
C680 C699 1.429 . S
C680 H704 0.950 . S
C681 C698 1.574 . S
C681 C700 1.368 . S
C681 H705 0.949 . S
H682 C686 0.949 . S
C683 C684 1.349 . S
C683 C685 1.327 . S
C683 H706 0.950 . S
C684 C683 1.349 . S
C684 C696 1.349 . S
C685 C683 1.327 . S
C685 C701 1.429 . S
C685 H707 0.950 . S
C686 H682 0.949 . S
C686 C694 1.574 . S
C686 C702 1.368 . S
H687 C695 0.950 . S
H688 C693 0.950 . S
H689 C694 0.949 . S
H690 C696 0.950 . S
H691 C697 0.950 . S
H692 C698 0.949 . S
C693 H688 0.950 . S
C693 C695 1.327 . S
C693 C699 1.429 . S
C694 C686 1.574 . S
C694 H689 0.949 . S
C694 C700 1.368 . S
C695 C679 1.349 . S
C695 H687 0.950 . S
C695 C693 1.327 . S
C696 C684 1.349 . S
C696 H690 0.950 . S
C696 C697 1.327 . S
C697 H691 0.950 . S
C697 C696 1.327 . S
C697 C701 1.429 . S
C698 C681 1.574 . S
C698 H692 0.949 . S
C698 C702 1.368 . S
C699 C680 1.429 . S
C699 C693 1.429 . S
C699 C700 1.523 . S
C700 C681 1.368 . S
C700 C694 1.368 . S
C700 C699 1.523 . S
C701 C685 1.429 . S
C701 C697 1.429 . S
C701 C702 1.523 . S
C702 C686 1.368 . S
C702 C698 1.368 . S
C702 C701 1.523 . S
H703 C678 0.950 . S
H704 C680 0.950 . S
H705 C681 0.949 . S
H706 C683 0.950 . S
H707 C685 0.950 . S
C708 C709 1.349 . S
C708 C710 1.327 . S
C708 H733 0.950 . S
C709 C708 1.349 . S
C709 C725 1.349 . S
C710 C708 1.327 . S
C710 C729 1.429 . S
C710 H734 0.950 . S
C711 C728 1.574 . S
C711 C730 1.368 . S
C711 H735 0.949 . S
H712 C716 0.949 . S
C713 C714 1.349 . S
C713 C715 1.327 . S
C713 H736 0.950 . S
C714 C713 1.349 . S
C714 C726 1.349 . S
C715 C713 1.327 . S
C715 C731 1.429 . S
C715 H737 0.950 . S
C716 H712 0.949 . S
C716 C724 1.574 . S
C716 C732 1.368 . S
H717 C725 0.950 . S
H718 C723 0.950 . S
H719 C724 0.949 . S
H720 C726 0.950 . S
H721 C727 0.950 . S
H722 C728 0.949 . S
C723 H718 0.950 . S
C723 C725 1.327 . S
C723 C729 1.429 . S
C724 C716 1.574 . S
C724 H719 0.949 . S
C724 C730 1.368 . S
C725 C709 1.349 . S
C725 H717 0.950 . S
C725 C723 1.327 . S
C726 C714 1.349 . S
C726 H720 0.950 . S
C726 C727 1.327 . S
C727 H721 0.950 . S
C727 C726 1.327 . S
C727 C731 1.429 . S
C728 C711 1.574 . S
C728 H722 0.949 . S
C728 C732 1.368 . S
C729 C710 1.429 . S
C729 C723 1.429 . S
C729 C730 1.523 . S
C730 C711 1.368 . S
C730 C724 1.368 . S
C730 C729 1.523 . S
C731 C715 1.429 . S
C731 C727 1.429 . S
C731 C732 1.523 . S
C732 C716 1.368 . S
C732 C728 1.368 . S
C732 C731 1.523 . S
H733 C708 0.950 . S
H734 C710 0.950 . S
H735 C711 0.949 . S
H736 C713 0.950 . S
H737 C715 0.950 . S
C738 C739 1.349 . S
C738 C740 1.327 . S
C738 H763 0.950 . S
C739 C738 1.349 . S
C739 C755 1.349 . S
C740 C738 1.327 . S
C740 C759 1.429 . S
C740 H764 0.950 . S
C741 C758 1.574 . S
C741 C760 1.368 . S
C741 H765 0.949 . S
H742 C746 0.949 . S
C743 C744 1.349 . S
C743 C745 1.327 . S
C743 H766 0.950 . S
C744 C743 1.349 . S
C744 C756 1.349 . S
C745 C743 1.327 . S
C745 C761 1.429 . S
C745 H767 0.950 . S
C746 H742 0.949 . S
C746 C754 1.574 . S
C746 C762 1.368 . S
H747 C755 0.950 . S
H748 C753 0.950 . S
H749 C754 0.949 . S
H750 C756 0.950 . S
H751 C757 0.950 . S
H752 C758 0.949 . S
C753 H748 0.950 . S
C753 C755 1.327 . S
C753 C759 1.429 . S
C754 C746 1.574 . S
C754 H749 0.949 . S
C754 C760 1.368 . S
C755 C739 1.349 . S
C755 H747 0.950 . S
C755 C753 1.327 . S
C756 C744 1.349 . S
C756 H750 0.950 . S
C756 C757 1.327 . S
C757 H751 0.950 . S
C757 C756 1.327 . S
C757 C761 1.429 . S
C758 C741 1.574 . S
C758 H752 0.949 . S
C758 C762 1.368 . S
C759 C740 1.429 . S
C759 C753 1.429 . S
C759 C760 1.523 . S
C760 C741 1.368 . S
C760 C754 1.368 . S
C760 C759 1.523 . S
C761 C745 1.429 . S
C761 C757 1.429 . S
C761 C762 1.523 . S
C762 C746 1.368 . S
C762 C758 1.368 . S
C762 C761 1.523 . S
H763 C738 0.950 . S
H764 C740 0.950 . S
H765 C741 0.949 . S
H766 C743 0.950 . S
H767 C745 0.950 . S
C289 C3 1.491 . S
C294 C111 1.491 . S
C319 C2 1.491 . S
C324 C38 1.491 1_554 S
C349 C39 1.491 . S
C354 C75 1.491 . S
C379 C110 1.491 1_554 S
C384 C74 1.491 . S
C409 C147 1.491 . S
C414 C255 1.491 . S
C439 C182 1.491 . S
C444 C146 1.491 . S
C469 C219 1.491 . S
C474 C183 1.491 . S
C499 C254 1.491 . S
C504 C218 1.491 . S
C529 C230 1.394 . S
C534 C4 1.458 . S
C559 C50 1.394 . S
C564 C256 1.458 . S
C589 C158 1.394 . S
C594 C76 1.458 . S
C619 C184 1.458 . S
C624 C122 1.394 . S
C649 C194 1.394 . S
C654 C112 1.458 . S
C679 C14 1.394 . S
C684 C220 1.458 . S
C709 C40 1.458 . S
C714 C266 1.394 . S
C739 C86 1.394 . S
C744 C148 1.458 . S
