# Generated by pormake.
# Topology umm, (4)-cn, num edge types: 1
# Building blocks:
#     Node 0, Type 0, BuildingBlock: ESEHIV_clean_sbu_0, # of connection points: 4
#     Node 1, Type 0, BuildingBlock: ESEHIV_clean_sbu_0, # of connection points: 4
#     Node 2, Type 0, BuildingBlock: ESEHIV_clean_sbu_0, # of connection points: 4
#     Node 3, Type 0, BuildingBlock: ESEHIV_clean_sbu_0, # of connection points: 4
#     Node 4, Type 0, BuildingBlock: ESEHIV_clean_sbu_0, # of connection points: 4
#     Node 5, Type 0, BuildingBlock: ESEHIV_clean_sbu_0, # of connection points: 4
#     Node 6, Type 0, BuildingBlock: ESEHIV_clean_sbu_0, # of connection points: 4
#     Node 7, Type 0, BuildingBlock: ESEHIV_clean_sbu_0, # of connection points: 4
#     Node 8, Type 0, BuildingBlock: ESEHIV_clean_sbu_0, # of connection points: 4
#     Node 9, Type 0, BuildingBlock: ESEHIV_clean_sbu_0, # of connection points: 4
#     Node 10, Type 0, BuildingBlock: ESEHIV_clean_sbu_0, # of connection points: 4
#     Node 11, Type 0, BuildingBlock: ESEHIV_clean_sbu_0, # of connection points: 4
#     Edge 12, Type (0, 0), BuildingBlock: UVAHIK_clean_linker_0, # of connection points: 2
#     Edge 13, Type (0, 0), BuildingBlock: UVAHIK_clean_linker_0, # of connection points: 2
#     Edge 14, Type (0, 0), BuildingBlock: UVAHIK_clean_linker_0, # of connection points: 2
#     Edge 15, Type (0, 0), BuildingBlock: UVAHIK_clean_linker_0, # of connection points: 2
#     Edge 16, Type (0, 0), BuildingBlock: UVAHIK_clean_linker_0, # of connection points: 2
#     Edge 17, Type (0, 0), BuildingBlock: UVAHIK_clean_linker_0, # of connection points: 2
#     Edge 18, Type (0, 0), BuildingBlock: UVAHIK_clean_linker_0, # of connection points: 2
#     Edge 19, Type (0, 0), BuildingBlock: UVAHIK_clean_linker_0, # of connection points: 2
#     Edge 20, Type (0, 0), BuildingBlock: UVAHIK_clean_linker_0, # of connection points: 2
#     Edge 21, Type (0, 0), BuildingBlock: UVAHIK_clean_linker_0, # of connection points: 2
#     Edge 22, Type (0, 0), BuildingBlock: UVAHIK_clean_linker_0, # of connection points: 2
#     Edge 23, Type (0, 0), BuildingBlock: UVAHIK_clean_linker_0, # of connection points: 2
#     Edge 24, Type (0, 0), BuildingBlock: UVAHIK_clean_linker_0, # of connection points: 2
#     Edge 25, Type (0, 0), BuildingBlock: UVAHIK_clean_linker_0, # of connection points: 2
#     Edge 26, Type (0, 0), BuildingBlock: UVAHIK_clean_linker_0, # of connection points: 2
#     Edge 27, Type (0, 0), BuildingBlock: UVAHIK_clean_linker_0, # of connection points: 2
#     Edge 28, Type (0, 0), BuildingBlock: UVAHIK_clean_linker_0, # of connection points: 2
#     Edge 29, Type (0, 0), BuildingBlock: UVAHIK_clean_linker_0, # of connection points: 2
#     Edge 30, Type (0, 0), BuildingBlock: UVAHIK_clean_linker_0, # of connection points: 2
#     Edge 31, Type (0, 0), BuildingBlock: UVAHIK_clean_linker_0, # of connection points: 2
#     Edge 32, Type (0, 0), BuildingBlock: UVAHIK_clean_linker_0, # of connection points: 2
#     Edge 33, Type (0, 0), BuildingBlock: UVAHIK_clean_linker_0, # of connection points: 2
#     Edge 34, Type (0, 0), BuildingBlock: UVAHIK_clean_linker_0, # of connection points: 2
#     Edge 35, Type (0, 0), BuildingBlock: UVAHIK_clean_linker_0, # of connection points: 2
# Relax obj value: 0.042
# Max RMSD: 0.101
# Mean RMSD: 0.101
data_MOF--net-umm--node1-ESEHIV_clean_sbu_0--edge1-UVAHIK_clean_linker_0
_symmetry_space_group_name_H-M    P1
_symmetry_Int_Tables_number       1
_symmetry_cell_setting            triclinic
loop_
_symmetry_equiv_pos_as_xyz
'x, y, z'
_cell_length_a     81.512126
_cell_length_b     81.564813
_cell_length_c     37.056754
_cell_angle_alpha  90.0432
_cell_angle_beta   89.881227
_cell_angle_gamma 119.92815
loop_
_atom_site_label
_atom_site_type_symbol
_atom_site_fract_x
_atom_site_fract_y
_atom_site_fract_z
_atom_type_partial_charge
Cu0 Cu 0.40531 0.54091 0.11182 0.0
N1 N 0.40502 0.51788 0.11424 0.0
N2 N 0.41531 0.49705 0.11381 0.0
C3 C 0.42016 0.51547 0.11128 0.0
C4 C 0.39634 0.48755 0.1185 0.0
C5 C 0.39005 0.50041 0.11864 0.0
O6 O 0.41973 0.55562 0.15387 0.0
C7 C 0.41869 0.56685 0.05083 0.0
O8 O 0.41361 0.57749 0.06882 0.0
H9 H 0.43447 0.52705 0.10762 0.0
H10 H 0.37554 0.4972 0.12138 0.0
N11 N 0.38032 0.53623 0.11418 0.0
N12 N 0.35337 0.53642 0.10326 0.0
C13 C 0.37107 0.54173 0.09141 0.0
C14 C 0.36803 0.52701 0.14108 0.0
C15 C 0.35146 0.52709 0.13448 0.0
C16 C 0.4143 0.56451 0.17455 0.0
O17 O 0.39963 0.5661 0.16519 0.0
H18 H 0.37731 0.5498 0.0671 0.0
H19 H 0.37105 0.52087 0.1642 0.0
O20 O 0.41681 0.55187 0.06536 0.0
H21 H 0.38757 0.47236 0.1209 0.0
H22 H 0.33896 0.52067 0.15139 0.0
Cu23 Cu 0.89184 0.44154 0.43121 0.0
N24 N 0.91578 0.44389 0.42549 0.0
N25 N 0.94697 0.45458 0.42685 0.0
C26 C 0.93277 0.45754 0.4376 0.0
C27 C 0.93853 0.43845 0.40743 0.0
C28 C 0.91938 0.43196 0.40656 0.0
O29 O 0.88876 0.44859 0.47982 0.0
C30 C 0.90068 0.47082 0.37963 0.0
O31 O 0.91781 0.47861 0.39319 0.0
H32 H 0.9347 0.46946 0.45363 0.0
H33 H 0.90881 0.41954 0.39249 0.0
N34 N 0.8737 0.41597 0.42595 0.0
N35 N 0.84785 0.38901 0.40995 0.0
C36 C 0.85722 0.40812 0.40761 0.0
C37 C 0.87469 0.40141 0.44059 0.0
C38 C 0.85885 0.3848 0.43068 0.0
C39 C 0.89679 0.46501 0.49394 0.0
O40 O 0.90843 0.47975 0.47452 0.0
H41 H 0.85234 0.41622 0.39253 0.0
H42 H 0.88618 0.40283 0.45733 0.0
O43 O 0.88757 0.45559 0.39348 0.0
H44 H 0.94576 0.43212 0.39375 0.0
H45 H 0.85555 0.3707 0.43859 0.0
Cu46 Cu 0.48751 0.87465 0.77155 0.0
N47 N 0.47631 0.88968 0.76571 0.0
N48 N 0.47559 0.91662 0.76003 0.0
C49 C 0.4865 0.90868 0.76496 0.0
C50 C 0.4577 0.90193 0.75764 0.0
C51 C 0.4582 0.88528 0.76098 0.0
O52 O 0.50005 0.88029 0.81857 0.0
C53 C 0.49371 0.8741 0.70033 0.0
O54 O 0.4752 0.86596 0.7029 0.0
H55 H 0.5017 0.91648 0.76846 0.0
H56 H 0.44625 0.87106 0.75978 0.0
N57 N 0.47083 0.84852 0.76994 0.0
N58 N 0.46182 0.8185 0.75589 0.0
C59 C 0.4761 0.83658 0.75621 0.0
C60 C 0.45255 0.83762 0.77944 0.0
C61 C 0.44694 0.81901 0.77081 0.0
C62 C 0.49156 0.88336 0.84441 0.0
O63 O 0.47559 0.88306 0.8379 0.0
H64 H 0.49027 0.84125 0.74645 0.0
H65 H 0.44388 0.8428 0.79133 0.0
O66 O 0.5036 0.88011 0.72902 0.0
H67 H 0.4452 0.90309 0.75318 0.0
H68 H 0.43291 0.80694 0.77439 0.0
Cu69 Cu 0.59892 0.44057 0.09095 0.0
N70 N 0.57258 0.42789 0.0923 0.0
N71 N 0.54384 0.4251 0.09287 0.0
C72 C 0.56259 0.43682 0.08829 0.0
C73 C 0.54198 0.40801 0.10018 0.0
C74 C 0.55978 0.40979 0.09978 0.0
O75 O 0.60733 0.44797 0.14028 0.0
C76 C 0.61768 0.46667 0.03361 0.0
O77 O 0.63133 0.46267 0.03701 0.0
H78 H 0.56915 0.45188 0.08352 0.0
H79 H 0.56317 0.3988 0.10531 0.0
N80 N 0.60823 0.42549 0.07185 0.0
N81 N 0.62901 0.41668 0.05404 0.0
C82 C 0.626 0.42851 0.07508 0.0
C83 C 0.59956 0.41114 0.04831 0.0
C84 C 0.61229 0.40565 0.03736 0.0
C85 C 0.60687 0.43532 0.16104 0.0
O86 O 0.60223 0.41867 0.14756 0.0
H87 H 0.63665 0.43965 0.09164 0.0
H88 H 0.58527 0.40565 0.03856 0.0
O89 O 0.60505 0.46131 0.058 0.0
H90 H 0.52876 0.39519 0.10569 0.0
H91 H 0.60964 0.39499 1.01723 0.0
Cu92 Cu 0.19172 0.63057 0.4321 0.0
N93 N 0.17653 0.60424 0.43416 0.0
N94 N 0.14869 0.57719 0.43591 0.0
C95 C 0.15789 0.59609 0.44115 0.0
C96 C 0.16231 0.57328 0.42568 0.0
C97 C 0.17947 0.59001 0.4245 0.0
O98 O 0.18825 0.63942 0.47903 0.0
C99 C 0.18352 0.63012 0.36122 0.0
O100 O 0.19028 0.61852 0.36265 0.0
H101 H 0.15122 0.60419 0.44871 0.0
H102 H 0.19281 0.59173 0.41519 0.0
N103 N 0.21757 0.63974 0.42372 0.0
N104 N 0.24755 0.66097 0.40935 0.0
C105 C 0.22961 0.65757 0.41295 0.0
C106 C 0.22818 0.63141 0.42699 0.0
C107 C 0.24667 0.64447 0.41811 0.0
C108 C 0.19766 0.63805 0.50518 0.0
O109 O 0.21001 0.63258 0.49831 0.0
H110 H 0.22513 0.66777 0.40758 0.0
H111 H 0.22296 0.61701 0.43582 0.0
O112 O 0.18269 0.63818 0.39013 0.0
H113 H 0.15997 0.55951 0.41766 0.0
H114 H 0.25857 0.64204 0.41881 0.0
Cu115 Cu 0.59661 0.17133 0.76223 0.0
N116 N 0.57332 0.14888 0.76059 0.0
N117 N 0.55194 0.11796 0.75961 0.0
C118 C 0.57049 0.13115 0.76238 0.0
C119 C 0.54283 0.12788 0.75593 0.0
C120 C 0.55604 0.14691 0.75645 0.0
O121 O 0.60941 0.17026 0.80564 0.0
C122 C 0.62633 0.18491 0.7084 0.0
O123 O 0.63605 0.19973 0.72912 0.0
H124 H 0.58185 0.12806 0.7658 0.0
H125 H 0.55325 0.15849 0.75353 0.0
N126 N 0.59225 0.19176 0.76543 0.0
N127 N 0.5912 0.21826 0.75524 0.0
C128 C 0.59807 0.20706 0.74393 0.0
C129 C 0.58157 0.19349 0.79117 0.0
C130 C 0.58083 0.20972 0.78494 0.0
C131 C 0.6225 0.18473 0.82146 0.0
O132 O 0.62889 0.20152 0.80692 0.0
H133 H 0.60683 0.20974 0.72022 0.0
H134 H 0.57467 0.18349 0.81288 0.0
O135 O 0.60997 0.17202 0.71831 0.0
H136 H 0.52773 0.12186 0.75224 0.0
H137 H 0.57339 0.21495 0.80125 0.0
Cu138 Cu 0.48844 0.62019 0.61275 0.0
N139 N 0.51075 0.61922 0.61928 0.0
N140 N 0.53172 0.60905 0.62099 0.0
C141 C 0.51414 0.60507 0.61094 0.0
C142 C 0.53958 0.6264 0.63621 0.0
C143 C 0.52665 0.63258 0.63512 0.0
O144 O 0.47596 0.60788 0.56745 0.0
C145 C 0.47143 0.5959 0.67355 0.0
O146 O 0.47912 0.58636 0.66025 0.0
H147 H 0.50386 0.59215 0.59779 0.0
H148 H 0.52857 0.64579 0.64568 0.0
N149 N 0.49455 0.64546 0.60965 0.0
N150 N 0.4943 0.67246 0.61948 0.0
C151 C 0.4875 0.65427 0.62986 0.0
C152 C 0.50623 0.65842 0.58571 0.0
C153 C 0.50611 0.67503 0.59164 0.0
C154 C 0.48607 0.6102 0.53949 0.0
O155 O 0.50459 0.61996 0.54242 0.0
H156 H 0.47755 0.64738 0.65166 0.0
H157 H 0.51407 0.65587 0.56504 0.0
O158 O 0.47272 0.60987 0.65582 0.0
H159 H 0.5535 0.63397 0.64823 0.0
H160 H 0.51384 0.68783 0.57592 0.0
Cu161 Cu 0.86296 0.45895 0.94832 0.0
N162 N 0.87981 0.44985 0.95415 0.0
N163 N 0.90801 0.45151 0.95739 0.0
C164 C 0.89865 0.46089 0.95017 0.0
C165 C 0.89446 0.43379 0.96625 0.0
C166 C 0.87706 0.43285 0.96451 0.0
O167 O 0.86736 0.4696 0.89968 0.0
C168 C 0.86263 0.46795 1.01864 0.0
O169 O 0.85393 0.44938 1.01932 0.0
H170 H 0.90536 0.4756 0.94219 0.0
H171 H 0.86351 0.42076 0.97126 0.0
N172 N 0.83723 0.44033 0.95213 0.0
N173 N 0.80622 0.42796 0.96347 0.0
C174 C 0.82332 0.4439 0.96147 0.0
C175 C 0.82865 0.42146 0.94775 0.0
C176 C 0.80957 0.41381 0.95471 0.0
C177 C 0.86303 0.45708 0.87525 0.0
O178 O 0.85635 0.43944 0.88532 0.0
H179 H 0.82583 0.45802 0.96669 0.0
H180 H 0.8357 0.41374 0.94009 0.0
O181 O 0.86842 0.47642 0.98843 0.0
H182 H 0.89697 0.42251 0.9745 0.0
H183 H 0.79911 0.39892 0.95399 0.0
Cu184 Cu 0.4553 0.88374 0.28055 0.0
N185 N 0.45507 0.90623 0.28886 0.0
N186 N 0.46447 0.93707 0.29212 0.0
C187 C 0.46924 0.92399 0.2826 0.0
C188 C 0.44655 0.9271 0.30464 0.0
C189 C 0.44082 0.9081 0.30266 0.0
O190 O 0.46872 0.88664 0.23555 0.0
C191 C 0.48394 0.89123 0.33131 0.0
O192 O 0.49367 0.90653 0.31173 0.0
H193 H 0.48273 0.92721 0.27105 0.0
H194 H 0.42726 0.89645 0.31097 0.0
N195 N 0.43034 0.864 0.27552 0.0
N196 N 0.40286 0.83691 0.28243 0.0
C197 C 0.42097 0.84757 0.29394 0.0
C198 C 0.41782 0.86378 0.25174 0.0
C199 C 0.40092 0.84719 0.25592 0.0
C200 C 0.47116 0.87375 0.22157 0.0
O201 O 0.46524 0.85776 0.23905 0.0
H202 H 0.42737 0.8435 0.31508 0.0
H203 H 0.42078 0.87504 0.23288 0.0
O204 O 0.46727 0.87906 0.32149 0.0
H205 H 0.43832 0.9331 0.31528 0.0
H206 H 0.38809 0.84324 0.24095 0.0
Cu207 Cu 0.59937 0.43416 0.61819 0.0
N208 N 0.61296 0.46054 0.61897 0.0
N209 N 0.61323 0.48816 0.61765 0.0
C210 C 0.60571 0.47054 0.60382 0.0
C211 C 0.6261 0.48943 0.64204 0.0
C212 C 0.62571 0.4723 0.64317 0.0
O213 O 0.59106 0.42732 0.56848 0.0
C214 C 0.57472 0.41813 0.67948 0.0
O215 O 0.57898 0.4046 0.6796 0.0
H216 H 0.59374 0.46426 0.58566 0.0
H217 H 0.63252 0.46813 0.66323 0.0
N218 N 0.61332 0.42263 0.63308 0.0
N219 N 0.61984 0.39963 0.64611 0.0
C220 C 0.60681 0.40383 0.63365 0.0
C221 C 0.63134 0.43064 0.6447 0.0
C222 C 0.63538 0.41651 0.65283 0.0
C223 C 0.60219 0.42552 0.54675 0.0
O224 O 0.61784 0.42678 0.55926 0.0
H225 H 0.59267 0.39343 0.62518 0.0
H226 H 0.64092 0.44567 0.64716 0.0
O227 O 0.57928 0.42913 0.65241 0.0
H228 H 0.6337 0.5011 0.66053 0.0
H229 H 0.64856 0.41851 0.66376 0.0
Cu230 Cu 0.16472 0.57373 0.93505 0.0
N231 N 0.14113 0.55135 0.936 0.0
N232 N 0.11001 0.53048 0.93989 0.0
C233 C 0.12369 0.54893 0.94174 0.0
C234 C 0.1194 0.52102 0.93336 0.0
C235 C 0.13845 0.53386 0.931 0.0
O236 O 0.1675 0.58926 0.89267 0.0
C237 C 0.15968 0.5956 0.98975 0.0
O238 O 0.14726 0.59577 0.96747 0.0
H239 H 0.12112 0.56053 0.94645 0.0
H240 H 0.1496 0.53063 0.92598 0.0
N241 N 0.18348 0.56704 0.93016 0.0
N242 N 0.20784 0.56218 0.9399 0.0
C243 C 0.19615 0.56778 0.95445 0.0
C244 C 0.18722 0.56075 0.89943 0.0
C245 C 0.20214 0.55771 0.90531 0.0
C246 C 0.15416 0.58868 0.87381 0.0
O247 O 0.13655 0.57791 0.88422 0.0
H248 H 0.19699 0.57264 0.98193 0.0
H249 H 0.17956 0.55855 0.87444 0.0
O250 O 0.16878 0.58735 0.9803 0.0
H251 H 0.1131 0.50586 0.93065 0.0
H252 H 0.20816 0.5524 0.88563 0.0
Cu253 Cu 0.64004 0.18243 0.2711 0.0
N254 N 0.61389 0.16639 0.27671 0.0
N255 N 0.58683 0.13884 0.2825 0.0
C256 C 0.6057 0.14742 0.27684 0.0
C257 C 0.58303 0.15312 0.28599 0.0
C258 C 0.59978 0.17012 0.2825 0.0
O259 O 0.64751 0.1787 0.22285 0.0
C260 C 0.64475 0.17742 0.34161 0.0
O261 O 0.63152 0.18212 0.34257 0.0
H262 H 0.61357 0.14015 0.27254 0.0
H263 H 0.60156 0.18414 0.28456 0.0
N264 N 0.64831 0.20817 0.27618 0.0
N265 N 0.66936 0.23856 0.28734 0.0
C266 C 0.66542 0.22044 0.2897 0.0
C267 C 0.64095 0.2188 0.26483 0.0
C268 C 0.65389 0.2376 0.27191 0.0
C269 C 0.63544 0.17394 0.1974 0.0
O270 O 0.61851 0.17126 0.20453 0.0
H271 H 0.67494 0.21603 0.30046 0.0
H272 H 0.6275 0.21338 0.25122 0.0
O273 O 0.65156 0.17642 0.31122 0.0
H274 H 0.56925 0.15148 0.29144 0.0
H275 H 0.65234 0.24962 0.26479 0.0
C276 C 0.41354 0.57589 0.23718 0.0
C277 C 0.42274 0.57077 0.21106 0.0
C278 C 0.42031 0.58005 0.27262 0.0
C279 C 0.46266 0.59521 0.32867 0.0
H280 H 0.42681 0.57144 0.40698 0.0
C281 C 0.48839 0.60176 0.47553 0.0
C282 C 0.47752 0.60339 0.5033 0.0
C283 C 0.48132 0.59709 0.44039 0.0
C284 C 0.43702 0.57845 0.38558 0.0
H285 H 0.44666 0.56658 0.2017 0.0
H286 H 0.45873 0.57427 0.26349 0.0
H287 H 0.41573 0.56558 0.34467 0.0
H288 H 0.4505 0.60107 0.516 0.0
H289 H 0.43828 0.59345 0.45442 0.0
H290 H 0.4839 0.60851 0.36921 0.0
C291 C 0.44617 0.57492 0.25647 0.0
C292 C 0.43064 0.57502 0.34978 0.0
C293 C 0.43924 0.57049 0.22107 0.0
C294 C 0.45918 0.59979 0.49526 0.0
C295 C 0.45217 0.59537 0.45986 0.0
C296 C 0.46901 0.59885 0.36444 0.0
C297 C 0.43661 0.57947 0.2828 0.0
C298 C 0.4434 0.58329 0.32089 0.0
C299 C 0.46326 0.59421 0.43175 0.0
C300 C 0.45632 0.59043 0.39352 0.0
H301 H 0.40078 0.57621 0.23055 0.0
H302 H 0.41276 0.58373 0.29213 0.0
H303 H 0.47281 0.602 0.30706 0.0
H304 H 0.50252 0.60426 0.48085 0.0
H305 H 0.49014 0.59582 0.41997 0.0
C306 C 0.9034 0.48464 0.55048 0.0
C307 C 0.89358 0.46705 0.53278 0.0
C308 C 0.90098 0.48604 0.58767 0.0
C309 C 0.88639 0.45634 0.66951 0.0
H310 H 0.87941 0.4956 0.71355 0.0
C311 C 0.85677 0.44681 0.81126 0.0
C312 C 0.86602 0.46162 0.8362 0.0
C313 C 0.86091 0.44979 0.77459 0.0
C314 C 0.88158 0.4847 0.70164 0.0
H315 H 0.873 0.43731 0.54023 0.0
H316 H 0.86877 0.43979 0.60444 0.0
H317 H 0.88533 0.49645 0.6483 0.0
H318 H 0.8862 0.49152 0.84186 0.0
H319 H 0.89357 0.49679 0.77692 0.0
H320 H 0.88247 0.44442 0.72225 0.0
C321 C 0.87859 0.45245 0.58987 0.0
C322 C 0.88496 0.48517 0.66434 0.0
C323 C 0.88096 0.45106 0.55291 0.0
C324 C 0.87886 0.47983 0.82327 0.0
C325 C 0.88308 0.48284 0.78617 0.0
C326 C 0.88303 0.45587 0.70649 0.0
C327 C 0.88879 0.46986 0.60788 0.0
C328 C 0.88693 0.4707 0.64776 0.0
C329 C 0.87451 0.46766 0.76164 0.0
C330 C 0.8801 0.46974 0.72291 0.0
H331 H 0.91321 0.49725 0.53577 0.0
H332 H 0.90907 0.49965 0.60078 0.0
H333 H 0.88837 0.44526 0.65783 0.0
H334 H 0.84655 0.43266 0.82014 0.0
H335 H 0.85369 0.43792 0.75633 0.0
C336 C 0.49556 0.89826 0.90451 0.0
C337 C 0.49824 0.88591 0.88208 0.0
C338 C 0.49825 0.8984 0.9417 0.0
C339 C 0.49248 0.86635 1.01392 0.0
H340 H 0.51505 0.91176 0.07258 0.0
C341 C 0.48276 0.8626 0.16919 0.0
C342 C 0.47914 0.87625 0.1846 0.0
C343 C 0.48907 0.86443 0.13341 0.0
C344 C 0.50856 0.89891 0.05666 0.0
H345 H 0.50641 0.86441 0.88065 0.0
H346 H 0.51074 0.86431 0.94635 0.0
H347 H 0.51978 0.91426 1.00735 0.0
H348 H 0.47968 0.90271 0.17457 0.0
H349 H 0.49012 0.90564 0.11235 0.0
H350 H 0.48031 0.85103 0.0627 0.0
C351 C 0.50679 0.87406 0.93488 0.0
C352 C 0.51141 0.90037 1.0193 0.0
C353 C 0.50448 0.87423 0.89736 0.0
C354 C 0.4824 0.89196 0.16368 0.0
C355 C 0.48855 0.89371 0.12792 0.0
C356 C 0.48943 0.86489 0.05127 0.0
C357 C 0.50332 0.8859 0.95747 0.0
C358 C 0.50304 0.88415 0.99742 0.0
C359 C 0.49181 0.87989 0.1121 0.0
C360 C 0.49702 0.88121 0.07307 0.0
H361 H 0.49065 0.90733 0.89339 0.0
H362 H 0.49529 0.90754 0.95835 0.0
H363 H 0.48565 0.85361 0.9977 0.0
H364 H 0.4805 0.85037 0.1846 0.0
H365 H 0.49169 0.85364 0.12243 0.0
C366 C 0.60431 0.45034 0.21831 0.0
C367 C 0.60916 0.43814 0.20047 0.0
C368 C 0.60387 0.45074 0.2561 0.0
C369 C 0.62188 0.43953 0.33751 0.0
H370 H 0.5749 0.42949 0.38318 0.0
C371 C 0.60805 0.41724 0.48536 0.0
C372 C 0.5994 0.4248 0.5073 0.0
C373 C 0.60839 0.41924 0.44796 0.0
C374 C 0.58821 0.43258 0.37096 0.0
H375 H 0.61819 0.41748 0.20794 0.0
H376 H 0.61797 0.41859 0.27368 0.0
H377 H 0.57872 0.43434 0.31786 0.0
H378 H 0.58365 0.43973 0.50732 0.0
H379 H 0.58459 0.44363 0.44173 0.0
H380 H 0.63158 0.43802 0.39015 0.0
C381 C 0.61431 0.42769 0.2586 0.0
C382 C 0.59039 0.43537 0.33357 0.0
C383 C 0.6144 0.42702 0.22098 0.0
C384 C 0.59028 0.43363 0.49098 0.0
C385 C 0.59086 0.43589 0.4534 0.0
C386 C 0.61981 0.43697 0.3748 0.0
C387 C 0.60868 0.43924 0.27655 0.0
C388 C 0.60712 0.4385 0.31645 0.0
C389 C 0.6004 0.42916 0.43152 0.0
C390 C 0.60279 0.43302 0.39198 0.0
H391 H 0.60005 0.45894 0.20312 0.0
H392 H 0.59957 0.45984 0.26935 0.0
H393 H 0.63501 0.44217 0.32503 0.0
H394 H 0.61502 0.41019 0.49721 0.0
H395 H 0.61531 0.4133 0.43198 0.0
C396 C 0.17523 0.63618 0.55408 0.0
C397 C 0.19328 0.63976 0.5434 0.0
C398 C 0.17035 0.63436 0.59082 0.0
C399 C 0.19048 0.64296 0.68386 0.0
H400 H 0.14342 0.59773 0.70834 0.0
C401 C 0.17684 0.60773 0.82426 0.0
C402 C 0.15835 0.59853 0.83836 0.0
C403 C 0.18047 0.61544 0.78945 0.0
C404 C 0.15646 0.61062 0.70214 0.0
H405 H 0.22068 0.64537 0.56284 0.0
H406 H 0.21229 0.6424 0.62637 0.0
H407 H 0.15075 0.60721 0.6454 0.0
H408 H 0.12927 0.5909 0.82724 0.0
H409 H 0.13564 0.60458 0.76684 0.0
H410 H 0.19639 0.64616 0.74052 0.0
C411 C 0.20185 0.64097 0.6067 0.0
C412 C 0.16065 0.61608 0.66593 0.0
C413 C 0.20664 0.64259 0.57016 0.0
C414 C 0.14368 0.59779 0.81721 0.0
C415 C 0.14731 0.60554 0.78242 0.0
C416 C 0.18627 0.63754 0.72006 0.0
C417 C 0.1835 0.63633 0.61753 0.0
C418 C 0.1779 0.63209 0.65626 0.0
C419 C 0.16571 0.61421 0.76782 0.0
C420 C 0.16938 0.62107 0.72966 0.0
H421 H 0.1646 0.63381 0.53408 0.0
H422 H 0.15614 0.63095 0.59829 0.0
H423 H 0.20378 0.65553 0.67742 0.0
H424 H 0.18848 0.60852 0.83969 0.0
H425 H 0.19477 0.62177 0.77905 0.0
C426 C 0.62622 0.15924 0.13676 0.0
C427 C 0.64026 0.1727 0.15945 0.0
C428 C 0.62904 0.15984 0.09952 0.0
C429 C 0.65169 0.19382 0.02842 0.0
H430 H 0.63591 0.14966 0.96793 0.0
C431 C 0.64486 0.19816 0.87392 0.0
C432 C 0.62904 0.18284 0.85777 0.0
C433 C 0.65003 0.19683 0.90936 0.0
C434 C 0.64024 0.16214 0.98435 0.0
H435 H 0.66852 0.19701 0.16128 0.0
H436 H 0.67333 0.19841 0.09551 0.0
H437 H 0.63843 0.14711 0.03304 0.0
H438 H 0.60648 0.15395 0.86605 0.0
H439 H 0.61502 0.15181 0.92785 0.0
H440 H 0.65235 0.20862 0.98041 0.0
C441 C 0.66024 0.18723 0.10682 0.0
C442 C 0.64184 0.16068 1.02164 0.0
C443 C 0.65757 0.18634 0.14436 0.0
C444 C 0.61882 0.166 0.87754 0.0
C445 C 0.62383 0.16474 0.91307 0.0
C446 C 0.64983 0.19523 0.99118 0.0
C447 C 0.64582 0.17418 0.08401 0.0
C448 C 0.64719 0.17641 0.04415 0.0
C449 C 0.63938 0.18021 0.92971 0.0
C450 C 0.64362 0.17928 0.96868 0.0
H451 H 0.61272 0.14861 0.14774 0.0
H452 H 0.61761 0.14971 0.08267 0.0
H453 H 0.65561 0.20612 0.04517 0.0
H454 H 0.65313 0.2113 0.85934 0.0
H455 H 0.66229 0.20892 0.92089 0.0
C456 C 0.3252 0.54039 0.10787 0.0
C457 C 0.33951 0.54021 0.08683 0.0
C458 C 0.31153 0.54367 0.09208 0.0
C459 C 0.28894 0.54164 1.00439 0.0
H460 H 0.27116 0.57176 0.05395 0.0
C461 C 0.23818 0.56217 0.93625 0.0
C462 C 0.22323 0.56114 0.95705 0.0
C463 C 0.25269 0.56036 0.95232 0.0
C464 C 0.27582 0.56315 0.03992 0.0
H465 H 0.35058 0.54349 0.03244 0.0
H466 H 0.32692 0.54951 1.00495 0.0
H467 H 0.29603 0.56747 0.08102 0.0
H468 H 0.21208 0.55762 1.01141 0.0
H469 H 0.23745 0.55445 0.03954 0.0
H470 H 0.26872 0.53727 0.96336 0.0
C471 C 0.32616 0.54688 0.03371 0.0
C472 C 0.2901 0.56069 0.05543 0.0
C473 C 0.33988 0.54362 0.04955 0.0
C474 C 0.22342 0.55865 0.99458 0.0
C475 C 0.23799 0.55683 1.01071 0.0
C476 C 0.27468 0.54411 0.98888 0.0
C477 C 0.31176 0.54687 0.05476 0.0
C478 C 0.29684 0.54987 0.0379 0.0
C479 C 0.25271 0.55748 0.9897 0.0
C480 C 0.26792 0.55489 1.00642 0.0
H481 H 0.32457 0.53811 0.13671 0.0
H482 H 0.30057 0.54337 0.10911 0.0
H483 H 0.29351 0.53295 0.9904 0.0
H484 H 0.23878 0.5645 0.90743 0.0
H485 H 0.264 0.56135 0.93538 0.0
C486 C 0.82627 0.35751 0.38416 0.0
C487 C 0.82994 0.37569 0.39389 0.0
C488 C 0.80877 0.34429 0.3697 0.0
C489 C 0.75872 0.33135 0.36639 0.0
H490 H 0.7569 0.29941 0.28718 0.0
C491 C 0.68777 0.2725 0.30486 0.0
C492 C 0.68701 0.25526 0.29685 0.0
C493 C 0.70496 0.28853 0.31443 0.0
C494 C 0.75711 0.30809 0.30951 0.0
H495 H 0.81805 0.39423 0.39596 0.0
H496 H 0.78731 0.371 0.37068 0.0
H497 H 0.78733 0.32492 0.30788 0.0
H498 H 0.70405 0.2417 0.29187 0.0
H499 H 0.73354 0.26917 0.30932 0.0
H500 H 0.72848 0.31417 0.3686 0.0
C501 C 0.79806 0.36704 0.37433 0.0
C502 C 0.77459 0.32275 0.32132 0.0
C503 C 0.8157 0.38039 0.3885 0.0
C504 C 0.70389 0.25455 0.29836 0.0
C505 C 0.72097 0.27048 0.30788 0.0
C506 C 0.74118 0.31657 0.35468 0.0
C507 C 0.7944 0.34883 0.36477 0.0
C508 C 0.77565 0.33436 0.35031 0.0
C509 C 0.7218 0.28771 0.31601 0.0
C510 C 0.74019 0.30452 0.32652 0.0
H511 H 0.83698 0.3535 0.38759 0.0
H512 H 0.80638 0.33033 0.36299 0.0
H513 H 0.75906 0.33996 0.38896 0.0
H514 H 0.67507 0.27356 0.30417 0.0
H515 H 0.70508 0.30159 0.32029 0.0
C516 C 0.47595 0.80517 0.71439 0.0
C517 C 0.46257 0.80245 0.74118 0.0
C518 C 0.47742 0.78996 0.70101 0.0
C519 C 0.46605 0.7411 0.72292 0.0
H520 H 0.47967 0.74124 0.62253 0.0
C521 C 0.47348 0.68036 0.65596 0.0
C522 C 0.48962 0.68611 0.63409 0.0
C523 C 0.4688 0.6936 0.6693 0.0
C524 C 0.47597 0.74105 0.65068 0.0
H525 H 0.43992 0.78137 0.77426 0.0
H526 H 0.44219 0.7546 0.75022 0.0
H527 H 0.47315 0.76557 0.6444 0.0
H528 H 0.51374 0.71069 0.61032 0.0
H529 H 0.50537 0.7335 0.6329 0.0
H530 H 0.46881 0.71642 0.72889 0.0
C531 C 0.4518 0.76865 0.74008 0.0
C532 C 0.47226 0.75503 0.66329 0.0
C533 C 0.45035 0.78397 0.75361 0.0
C534 C 0.501 0.70552 0.62632 0.0
C535 C 0.49623 0.71868 0.63936 0.0
C536 C 0.46961 0.72699 0.71018 0.0
C537 C 0.46544 0.77149 0.71369 0.0
C538 C 0.46762 0.75549 0.69974 0.0
C539 C 0.48003 0.71289 0.66084 0.0
C540 C 0.47496 0.72702 0.67406 0.0
H541 H 0.48536 0.81909 0.70355 0.0
H542 H 0.48828 0.79281 0.68111 0.0
H543 H 0.4627 0.74109 0.75121 0.0
H544 H 0.46419 0.66561 0.66236 0.0
H545 H 0.45616 0.68868 0.6856 0.0
C546 C 0.64696 0.40135 0.03238 0.0
C547 C 0.64673 0.41705 0.04765 0.0
C548 C 0.6641 0.40204 0.02445 0.0
C549 C 0.71524 0.42764 0.046 0.0
H550 H 0.72035 0.40825 0.95364 0.0
C551 C 0.7877 0.44094 0.99292 0.0
C552 C 0.7883 0.42639 0.97353 0.0
C553 C 0.7704 0.43946 1.00257 0.0
C554 C 0.71913 0.41349 0.97978 0.0
H555 H 0.66473 0.44582 0.06663 0.0
H556 H 0.69444 0.44686 0.05327 0.0
H557 H 0.69033 0.40602 0.96997 0.0
H558 H 0.77082 0.39882 0.94912 0.0
H559 H 0.74079 0.39601 0.96679 0.0
H560 H 0.74397 0.435 0.05599 0.0
C561 C 0.68131 0.43396 0.04767 0.0
C562 C 0.70189 0.41223 0.98912 0.0
C563 C 0.66418 0.43332 0.05541 0.0
C564 C 0.77104 0.41027 0.96427 0.0
C565 C 0.75373 0.40875 0.97405 0.0
C566 C 0.73246 0.4288 0.03676 0.0
C567 C 0.68149 0.41839 0.03178 0.0
C568 C 0.69974 0.41935 0.02228 0.0
C569 C 0.75316 0.42334 0.99329 0.0
C570 C 0.73468 0.42182 1.00344 0.0
H571 H 0.6339 0.38846 0.02654 0.0
H572 H 0.66372 0.38968 1.01274 0.0
H573 H 0.714 0.43304 0.07196 0.0
H574 H 0.8006 0.45348 1.00103 0.0
H575 H 0.77058 0.4511 1.01697 0.0
C576 C 0.26416 0.69585 0.40195 0.0
C577 C 0.26403 0.67859 0.39865 0.0
C578 C 0.27979 0.71283 0.3906 0.0
C579 C 0.33089 0.73576 0.36908 0.0
H580 H 0.32096 0.77053 0.31487 0.0
C581 C 0.38936 0.81235 0.33053 0.0
C582 C 0.38837 0.81863 0.29564 0.0
C583 C 0.37478 0.795 0.34364 0.0
C584 C 0.32401 0.76095 0.32981 0.0
H585 H 0.28062 0.66594 0.38101 0.0
H586 H 0.30793 0.69561 0.36145 0.0
H587 H 0.29458 0.74087 0.33665 0.0
H588 H 0.3715 0.81093 0.24675 0.0
H589 H 0.34622 0.78105 0.26964 0.0
H590 H 0.36039 0.75588 0.36184 0.0
C591 C 0.2959 0.69594 0.37308 0.0
C592 C 0.30886 0.74402 0.34264 0.0
C593 C 0.2802 0.6789 0.38432 0.0
C594 C 0.37263 0.80689 0.27401 0.0
C595 C 0.35808 0.78967 0.28714 0.0
C596 C 0.34609 0.75281 0.35644 0.0
C597 C 0.2958 0.7131 0.37575 0.0
C598 C 0.31208 0.73117 0.36238 0.0
C599 C 0.35885 0.78358 0.32224 0.0
C600 C 0.34282 0.76557 0.33646 0.0
H601 H 0.25224 0.69636 0.41357 0.0
H602 H 0.27936 0.72582 0.39369 0.0
H603 H 0.33387 0.72626 0.38444 0.0
H604 H 0.40113 0.82101 0.34811 0.0
H605 H 0.37576 0.79079 0.3709 0.0
C606 C 0.61138 0.24862 0.72343 0.0
C607 C 0.59405 0.23569 0.73956 0.0
C608 C 0.61451 0.26622 0.71107 0.0
C609 C 0.59591 0.29938 0.72333 0.0
H610 H 0.62606 0.32416 0.63849 0.0
C611 C 0.59922 0.36601 0.66277 0.0
C612 C 0.6172 0.38106 0.65345 0.0
C613 C 0.59675 0.34825 0.67165 0.0
C614 C 0.61772 0.31746 0.6624 0.0
H615 H 0.56607 0.2306 0.75334 0.0
H616 H 0.57123 0.26084 0.73109 0.0
H617 H 0.62095 0.29308 0.65629 0.0
H618 H 0.64657 0.38902 0.64517 0.0
H619 H 0.64224 0.35792 0.66062 0.0
H620 H 0.59247 0.3236 0.72916 0.0
C621 C 0.58273 0.25784 0.7291 0.0
C622 C 0.61482 0.29965 0.67269 0.0
C623 C 0.57971 0.24042 0.74175 0.0
C624 C 0.63258 0.37778 0.65252 0.0
C625 C 0.63007 0.35992 0.66107 0.0
C626 C 0.59867 0.31704 0.71288 0.0
C627 C 0.6003 0.27119 0.71426 0.0
C628 C 0.60377 0.29031 0.70322 0.0
C629 C 0.61215 0.34501 0.67117 0.0
C630 C 0.60953 0.32628 0.68222 0.0
H631 H 0.62273 0.2454 0.72158 0.0
H632 H 0.62827 0.27614 0.70006 0.0
H633 H 0.58775 0.29294 0.74752 0.0
H634 H 0.5871 0.36805 0.66414 0.0
H635 H 0.58273 0.33701 0.67896 0.0
C636 C 0.4447 0.49842 0.09182 0.0
C637 C 0.42765 0.48912 0.11139 0.0
C638 C 0.4565 0.49056 0.08901 0.0
C639 C 0.46774 0.45672 0.13296 0.0
H640 H 0.49104 0.45795 0.04093 0.0
C641 C 0.51255 0.42026 0.11227 0.0
C642 C 0.52936 0.43039 0.09224 0.0
C643 C 0.49921 0.42632 0.11351 0.0
C644 C 0.4848 0.45764 0.06693 0.0
H645 H 0.40985 0.46438 0.14388 0.0
H646 H 0.43034 0.45062 0.13877 0.0
H647 H 0.47001 0.47106 0.04582 0.0
H648 H 0.54483 0.45439 0.05652 0.0
H649 H 0.52196 0.46516 0.05938 0.0
H650 H 0.48274 0.44356 0.15424 0.0
C651 C 0.43461 0.46403 0.12567 0.0
C652 C 0.47274 0.46517 0.06972 0.0
C653 C 0.42277 0.47183 0.1283 0.0
C654 C 0.53222 0.4464 0.07271 0.0
C655 C 0.51894 0.45245 0.07397 0.0
C656 C 0.47988 0.44926 0.13022 0.0
C657 C 0.45159 0.47326 0.10588 0.0
C658 C 0.46414 0.4649 0.10281 0.0
C659 C 0.50233 0.44263 0.09466 0.0
C660 C 0.48867 0.44973 0.09721 0.0
H661 H 0.44883 0.51164 0.07818 0.0
H662 H 0.46957 0.49815 0.07388 0.0
H663 H 0.46153 0.45649 0.15896 0.0
H664 H 0.5099 0.40794 0.12776 0.0
H665 H 0.48646 0.41825 0.12934 0.0
C666 C 0.97914 0.45897 0.43291 0.0
C667 C 0.96706 0.46666 0.4323 0.0
C668 C 0.99876 0.47072 0.43564 0.0
C669 C 0.03636 0.51934 0.4164 0.0
H670 H 0.0674 0.50689 0.47684 0.0
C671 C 0.11583 0.57155 0.4355 0.0
C672 C 0.12841 0.56445 0.43721 0.0
C673 C 0.09626 0.55938 0.43614 0.0
C674 C 0.05898 0.51046 0.45945 0.0
H675 H 0.96617 0.49274 0.43469 0.0
H676 H 1.00042 0.51328 0.43961 0.0
H677 H 0.03305 0.48628 0.47666 0.0
H678 H 0.12991 0.5387 0.44126 0.0
H679 H 0.09571 0.51741 0.44135 0.0
H680 H 0.06215 0.54328 0.39863 0.0
C681 C 0.99469 0.49814 0.43777 0.0
C682 C 0.03928 0.49867 0.45946 0.0
C683 C 0.97504 0.48636 0.43533 0.0
C684 C 0.12075 0.54473 0.43963 0.0
C685 C 0.10109 0.53251 0.44008 0.0
C686 C 0.05603 0.53104 0.4162 0.0
C687 C 1.00679 0.49047 0.43756 0.0
C688 C 1.02773 0.50303 0.43804 0.0
C689 C 0.08858 0.53969 0.43816 0.0
C690 C 0.06763 0.52684 0.43788 0.0
H691 H 0.97343 0.44384 0.43103 0.0
H692 H 1.00767 0.46436 0.43521 0.0
H693 H 1.02792 0.52291 0.39904 0.0
H694 H 0.12095 0.58653 0.43309 0.0
H695 H 0.08715 0.5655 0.4352 0.0
C696 C 0.52461 0.08579 0.76967 0.0
C697 C 0.54363 0.09762 0.75956 0.0
C698 C 0.51646 0.06609 0.76906 0.0
C699 C 0.52251 0.02792 0.72856 0.0
H700 H 0.48943 0.99731 0.80617 0.0
C701 C 0.50058 0.94943 0.74649 0.0
C702 C 0.48201 0.93662 0.75782 0.0
C703 C 0.50717 0.96886 0.74558 0.0
C704 C 0.49842 1.00561 0.78401 0.0
H705 H 0.56892 0.09779 0.74068 0.0
H706 H 0.55485 0.06353 0.74019 0.0
H707 H 0.50285 0.03157 0.80727 0.0
H708 H 0.45576 0.93432 0.77673 0.0
H709 H 0.4672 0.96831 0.77465 0.0
H710 H 0.51817 1.00203 0.70536 0.0
C711 C 0.54615 0.0695 0.74827 0.0
C712 C 0.50614 0.02528 0.78467 0.0
C713 C 0.55431 0.08919 0.74898 0.0
C714 C 0.47009 0.94376 0.76768 0.0
C715 C 0.47673 0.96326 0.76685 0.0
C716 C 0.51478 1.00829 0.72788 0.0
C717 C 0.52711 0.05768 0.7582 0.0
C718 C 0.51842 0.0367 0.7571 0.0
C719 C 0.49539 0.97607 0.75591 0.0
C720 C 0.50278 0.99688 0.75576 0.0
H721 H 0.516 0.09175 0.77834 0.0
H722 H 0.50172 0.05744 0.77662 0.0
H723 H 0.5316 0.03622 0.70651 0.0
H724 H 0.51008 0.94448 0.73818 0.0
H725 H 0.52168 0.97827 0.73739 0.0
C726 C 0.52883 0.57746 0.61288 0.0
C727 C 0.54015 0.59714 0.61764 0.0
C728 C 0.537 0.56591 0.6109 0.0
C729 C 0.58292 0.56723 0.5959 0.0
H730 H 0.55704 0.51831 0.64306 0.0
C731 C 0.61732 0.5204 0.62006 0.0
C732 C 0.60576 0.50086 0.61406 0.0
C733 C 0.60971 0.53248 0.6188 0.0
C734 C 0.56437 0.53185 0.62944 0.0
H735 H 0.56919 0.62 0.62297 0.0
H736 H 0.58328 0.5999 0.62067 0.0
H737 H 0.54297 0.53852 0.64394 0.0
H738 H 0.57701 0.47881 0.60217 0.0
H739 H 0.56394 0.49978 0.59955 0.0
H740 H 0.60448 0.56055 0.58195 0.0
C741 C 0.56807 0.59338 0.61801 0.0
C742 C 0.55627 0.54345 0.62984 0.0
C743 C 0.55991 0.60493 0.61983 0.0
C744 C 0.58647 0.49377 0.60636 0.0
C745 C 0.57887 0.50579 0.60535 0.0
C746 C 0.59109 0.55565 0.5957 0.0
C747 C 0.55672 0.57369 0.61375 0.0
C748 C 0.56539 0.56129 0.613 0.0
C749 C 0.59033 0.52526 0.61189 0.0
C750 C 0.58187 0.53778 0.61235 0.0
H751 H 0.51359 0.57084 0.61131 0.0
H752 H 0.5278 0.55086 0.60705 0.0
H753 H 0.59025 0.58075 0.5822 0.0
H754 H 0.63221 0.5263 0.62595 0.0
H755 H 0.6189 0.54741 0.62417 0.0
C756 C 0.08186 0.53315 0.95693 0.0
C757 C 0.08968 0.52251 0.94282 0.0
C758 C 0.0622 0.52546 0.95909 0.0
C759 C 1.01696 0.48636 0.92217 0.0
H760 H 0.99464 0.49836 1.00319 0.0
C761 C 0.93603 0.44766 0.94829 0.0
C762 C 0.92825 0.45916 0.95694 0.0
C763 C 0.95569 0.45525 0.94705 0.0
C764 C 1.00068 0.49497 0.98026 0.0
H765 H 0.08242 0.49518 0.91981 0.0
H766 H 0.04855 0.48172 0.92487 0.0
H767 H 1.0289 0.51187 1.00024 0.0
H768 H 0.93508 0.48755 0.97203 0.0
H769 H 0.96932 0.50078 0.96992 0.0
H770 H 0.98865 0.46923 0.90256 0.0
C771 C 0.05758 0.49618 0.93362 0.0
C772 C 1.02035 0.50278 0.97847 0.0
C773 C 0.07719 0.50389 0.93121 0.0
C774 C 0.9406 0.47836 0.96484 0.0
C775 C 0.96022 0.4859 0.964 0.0
C776 C 0.99729 0.47842 0.92415 0.0
C777 C 0.04977 0.50686 0.9474 0.0
C778 C 1.02878 0.49861 0.94937 0.0
C779 C 0.96801 0.47447 0.95488 0.0
C780 C 0.98892 0.48266 0.95317 0.0
H781 H 0.09084 0.54744 0.96648 0.0
H782 H 0.05676 0.53423 0.9695 0.0
H783 H 1.02289 0.48308 0.89896 0.0
H784 H 0.9269 0.43285 0.94188 0.0
H785 H 0.96125 0.44605 0.94021 0.0
C786 C 0.49604 0.96598 0.29362 0.0
C787 C 0.47626 0.9574 0.29061 0.0
C788 C 0.50744 0.98568 0.29319 0.0
C789 C 0.5085 0.02953 0.26472 0.0
H790 H 0.54928 0.05325 0.33417 0.0
C791 C 0.55426 0.11116 0.27881 0.0
C792 C 0.57377 0.11868 0.28474 0.0
C793 C 0.54178 0.09159 0.28031 0.0
C794 C 0.53811 0.04688 0.31428 0.0
H795 H 0.45302 0.96289 0.28401 0.0
H796 H 0.47292 0.99732 0.28331 0.0
H797 H 0.5289 1.01901 0.33444 0.0
H798 H 0.59521 0.11125 0.29779 0.0
H799 H 0.57374 0.07742 0.29919 0.0
H800 H 0.51791 0.05736 0.24414 0.0
C801 C 0.4796 0.98876 0.28599 0.0
C802 C 0.5264 0.02722 0.31449 0.0
C803 C 0.46818 0.96903 0.28673 0.0
C804 C 0.58039 0.1061 0.29251 0.0
C805 C 0.56796 0.0866 0.29385 0.0
C806 C 0.52031 0.04921 0.26433 0.0
C807 C 0.49935 0.99732 0.28948 0.0
C808 C 0.51153 1.01829 0.28959 0.0
C809 C 0.54848 0.07904 0.28777 0.0
C810 C 0.53537 0.05815 0.28897 0.0
H811 H 0.50273 0.95747 0.297 0.0
H812 H 0.52263 0.99182 0.29556 0.0
H813 H 0.49727 0.02306 0.24495 0.0
H814 H 0.54862 0.12033 0.27253 0.0
H815 H 0.52684 0.08631 0.27587 0.0
C816 C 0.45811 0.60396 0.72779 0.0
C817 C 0.46371 0.59205 0.71094 0.0
C818 C 0.45281 0.6015 0.76428 0.0
C819 C 0.45918 0.5808 0.84846 0.0
H820 H 0.41811 0.5872 0.8849 0.0
C821 C 0.43062 0.55978 0.99373 0.0
C822 C 0.42514 0.57124 1.01265 0.0
C823 C 0.43563 0.56307 0.95724 0.0
C824 C 0.42979 0.58561 0.87526 0.0
H825 H 0.46737 0.56774 0.71909 0.0
H826 H 0.4579 0.5633 0.78229 0.0
H827 H 0.4254 0.59089 0.82043 0.0
H828 H 0.42091 0.59537 1.00786 0.0
H829 H 0.42986 0.60124 0.94416 0.0
H830 H 0.4636 0.57551 0.90313 0.0
C831 C 0.45796 0.57479 0.76757 0.0
C832 C 0.43395 0.58769 0.83823 0.0
C833 C 0.46325 0.57725 0.73116 0.0
C834 C 0.42506 0.58627 0.99418 0.0
C835 C 0.43005 0.58954 0.95755 0.0
C836 C 0.45504 0.57873 0.88539 0.0
C837 C 0.453 0.58708 0.78483 0.0
C838 C 0.44861 0.58516 0.8243 0.0
C839 C 0.43531 0.57791 0.93854 0.0
C840 C 0.44019 0.58095 0.89931 0.0
H841 H 0.45835 0.61556 0.7131 0.0
H842 H 0.44919 0.61131 0.77667 0.0
H843 H 0.47085 0.57917 0.8389 0.0
H844 H 0.43079 0.54803 1.00696 0.0
H845 H 0.43935 0.55365 0.94347 0.0
C846 C 0.91232 0.49325 0.32708 0.0
C847 C 0.89724 0.47822 0.34562 0.0
C848 C 0.90958 0.49865 0.29278 0.0
C849 C 0.8726 0.49302 0.22707 0.0
H850 H 0.90875 0.49611 0.15538 0.0
C851 C 0.85294 0.46976 0.08108 0.0
C852 C 0.86637 0.47802 0.05336 0.0
C853 C 0.85755 0.47607 0.11655 0.0
C854 C 0.89875 0.4958 0.17502 0.0
H855 H 0.86722 0.45775 0.34334 0.0
H856 H 0.86247 0.46708 0.28363 0.0
H857 H 0.9153 0.49516 0.21914 0.0
H858 H 0.89482 0.50012 0.04038 0.0
H859 H 0.90306 0.51126 0.10294 0.0
H860 H 0.85567 0.49285 0.18279 0.0
C861 C 0.87641 0.4748 0.29563 0.0
C862 C 0.90248 0.4952 0.21168 0.0
C863 C 0.87916 0.46936 0.32984 0.0
C864 C 0.88417 0.49364 0.06129 0.0
C865 C 0.88891 0.49985 0.0971 0.0
C866 C 0.86888 0.49367 0.19042 0.0
C867 C 0.89168 0.48922 0.27631 0.0
C868 C 0.88915 0.49313 0.23808 0.0
C869 C 0.87582 0.49069 0.12529 0.0
C870 C 0.88159 0.49436 0.16389 0.0
H871 H 0.92642 0.50046 0.33849 0.0
H872 H 0.92158 0.50995 0.27882 0.0
H873 H 0.86221 0.49182 0.24676 0.0
H874 H 0.83911 0.45768 0.07563 0.0
H875 H 0.84716 0.46853 0.13744 0.0
C876 C 0.49209 0.86056 0.63999 0.0
C877 C 0.50195 0.87555 0.66423 0.0
C878 C 0.49662 0.86279 0.6034 0.0
C879 C 0.51494 0.90014 0.53552 0.0
H880 H 0.50536 0.85842 0.47214 0.0
C881 C 0.50793 0.90455 0.38107 0.0
C882 C 0.49145 0.88928 0.36649 0.0
C883 C 0.51394 0.90349 0.4159 0.0
C884 C 0.50813 0.87022 0.48947 0.0
H885 H 0.52505 0.90428 0.66986 0.0
H886 H 0.53315 0.90831 0.60525 0.0
H887 H 0.50908 0.85573 0.53684 0.0
H888 H 0.46885 0.8606 0.37655 0.0
H889 H 0.47939 0.85871 0.43718 0.0
H890 H 0.51342 0.9144 0.48823 0.0
C891 C 0.52181 0.89481 0.61469 0.0
C892 C 0.51029 0.86871 0.52654 0.0
C893 C 0.51735 0.89248 0.65166 0.0
C894 C 0.48159 0.87263 0.38696 0.0
C895 C 0.4877 0.87151 0.42165 0.0
C896 C 0.51292 0.9017 0.49839 0.0
C897 C 0.51106 0.88016 0.58998 0.0
C898 C 0.51301 0.88337 0.55021 0.0
C899 C 0.50373 0.88706 0.43679 0.0
C900 C 0.50884 0.88651 0.47512 0.0
H901 H 0.48015 0.84735 0.64908 0.0
H902 H 0.48786 0.85126 0.58535 0.0
H903 H 0.5168 0.91162 0.55289 0.0
H904 H 0.51589 0.91759 0.36604 0.0
H905 H 0.52643 0.91564 0.42671 0.0
C906 C 0.56685 0.41315 0.7453 0.0
C907 C 0.57072 0.42441 0.71429 0.0
C908 C 0.56805 0.42085 0.77956 0.0
C909 C 0.56757 0.43991 0.85015 0.0
H910 H 0.61612 0.48578 0.86148 0.0
C911 C 0.5955 0.46949 0.99075 0.0
C912 C 0.61327 0.47114 0.99737 0.0
C913 C 0.58899 0.46827 0.95544 0.0
C914 C 0.60244 0.4731 0.85869 0.0
H915 H 0.57714 0.45213 0.69485 0.0
H916 H 0.57928 0.46549 0.75468 0.0
H917 H 0.60464 0.47335 0.80112 0.0
H918 H 0.63895 0.47496 0.97199 0.0
H919 H 0.62766 0.47303 0.91047 0.0
H920 H 0.56579 0.43915 0.90778 0.0
C921 C 0.57553 0.45078 0.75243 0.0
C922 C 0.59577 0.46606 0.82414 0.0
C923 C 0.57414 0.44304 0.71815 0.0
C924 C 0.62515 0.47357 0.96789 0.0
C925 C 0.61868 0.47249 0.93257 0.0
C926 C 0.57415 0.44706 0.88467 0.0
C927 C 0.57324 0.43998 0.7835 0.0
C928 C 0.57853 0.44908 0.81957 0.0
C929 C 0.60019 0.46892 0.92604 0.0
C930 C 0.59191 0.46342 0.88936 0.0
H931 H 0.56411 0.39875 0.74328 0.0
H932 H 0.56625 0.41217 0.803 0.0
H933 H 0.55421 0.42686 0.84743 0.0
H934 H 0.586 0.46774 1.01278 0.0
H935 H 0.5748 0.46584 0.95119 0.0
C936 C 0.176 0.60426 0.04989 0.0
C937 C 0.16228 0.6039 0.02644 0.0
C938 C 0.17778 0.61109 0.08515 0.0
C939 C 0.15037 0.61781 0.15676 0.0
H940 H 0.19939 0.64563 0.20308 0.0
C941 C 0.18738 0.64915 0.30598 0.0
C942 C 0.17661 0.63264 0.32623 0.0
C943 C 0.18421 0.64927 0.26879 0.0
C944 C 0.18558 0.63818 0.19048 0.0
H945 H 0.13993 0.61085 1.02161 0.0
H946 H 0.14305 0.62277 0.08319 0.0
H947 H 0.19762 0.63922 0.13849 0.0
H948 H 0.15365 0.60369 0.32443 0.0
H949 H 0.14775 0.60394 0.26006 0.0
H950 H 0.13834 0.6164 0.20895 0.0
C951 C 0.15235 0.61764 0.07431 0.0
C952 C 0.18457 0.63428 0.15351 0.0
C953 C 0.15063 0.61089 0.03894 0.0
C954 C 0.16185 0.61671 0.30942 0.0
C955 C 0.15853 0.61687 0.2725 0.0
C956 C 0.15139 0.62164 0.19378 0.0
C957 C 0.16585 0.61768 0.09796 0.0
C958 C 0.16695 0.62367 0.13634 0.0
C959 C 0.17016 0.63289 0.25141 0.0
C960 C 0.169 0.63149 0.21128 0.0
H961 H 0.18521 0.59898 0.04123 0.0
H962 H 0.18816 0.61067 0.10274 0.0
H963 H 0.13656 0.60953 0.14449 0.0
H964 H 0.19913 0.66145 0.31829 0.0
H965 H 0.19332 0.66187 0.25336 0.0
C966 C 0.65124 0.19796 0.65968 0.0
C967 C 0.63389 0.18333 0.67288 0.0
C968 C 0.65772 0.19668 0.62528 0.0
C969 C 0.64974 0.16265 0.55074 0.0
H970 H 0.66725 0.20674 0.48939 0.0
C971 C 0.63855 0.15931 0.39804 0.0
C972 C 0.65146 0.17419 0.37614 0.0
C973 C 0.64172 0.15941 0.43507 0.0
C974 C 0.66285 0.1944 0.50627 0.0
H975 H 0.61001 0.15565 0.66054 0.0
H976 H 0.62109 0.15357 0.60081 0.0
H977 H 0.66245 0.20929 0.5535 0.0
H978 H 0.67818 0.20043 0.37496 0.0
H979 H 0.68392 0.20063 0.43999 0.0
H980 H 0.64927 0.14756 0.50302 0.0
C981 C 0.62989 0.16593 0.61706 0.0
C982 C 0.66004 0.19586 0.54312 0.0
C983 C 0.62343 0.16721 0.65129 0.0
C984 C 0.66826 0.18856 0.3913 0.0
C985 C 0.67138 0.1888 0.42854 0.0
C986 C 0.65249 0.16118 0.51387 0.0
C987 C 0.64702 0.18072 0.6034 0.0
C988 C 0.65286 0.17985 0.56561 0.0
C989 C 0.65773 0.17461 0.45104 0.0
C990 C 0.65852 0.1769 0.49098 0.0
H991 H 0.6597 0.21054 0.67564 0.0
H992 H 0.67105 0.20826 0.61574 0.0
H993 H 0.6446 0.15013 0.56743 0.0
H994 H 0.62527 0.14834 0.38696 0.0
H995 H 0.6308 0.14838 0.45153 0.0
loop_
_geom_bond_atom_site_label_1
_geom_bond_atom_site_label_2
_geom_bond_distance
_geom_bond_site_symmetry_2
_ccdc_geom_bond_type
Cu0 N1 1.999 . S
Cu0 O6 1.974 . S
Cu0 N11 1.985 . S
Cu0 O20 1.959 . S
N1 Cu0 1.999 . S
N1 C3 1.263 . S
N1 C5 1.389 . S
N2 C3 1.358 . S
N2 C4 1.400 . S
C3 N1 1.263 . S
C3 N2 1.358 . S
C3 H9 0.930 . S
C4 N2 1.400 . S
C4 C5 1.351 . S
C4 H21 0.930 . S
C5 N1 1.389 . S
C5 C4 1.351 . S
C5 H10 0.930 . S
O6 Cu0 1.974 . S
O6 C16 1.282 . S
C7 O8 1.261 . S
C7 O20 1.251 . S
O8 C7 1.261 . S
H9 C3 0.930 . S
H10 C5 0.930 . S
N11 Cu0 1.985 . S
N11 C13 1.335 . S
N11 C14 1.390 . S
N12 C13 1.345 . S
N12 C15 1.336 . S
C13 N11 1.335 . S
C13 N12 1.345 . S
C13 H18 0.930 . S
C14 N11 1.390 . S
C14 C15 1.346 . S
C14 H19 0.930 . S
C15 N12 1.336 . S
C15 C14 1.346 . S
C15 H22 0.929 . S
C16 O6 1.282 . S
C16 O17 1.216 . S
O17 C16 1.216 . S
H18 C13 0.930 . S
H19 C14 0.930 . S
O20 Cu0 1.959 . S
O20 C7 1.251 . S
H21 C4 0.930 . S
H22 C15 0.929 . S
Cu23 N24 1.999 . S
Cu23 O29 1.974 . S
Cu23 N34 1.985 . S
Cu23 O43 1.959 . S
N24 Cu23 1.999 . S
N24 C26 1.263 . S
N24 C28 1.389 . S
N25 C26 1.358 . S
N25 C27 1.400 . S
C26 N24 1.263 . S
C26 N25 1.358 . S
C26 H32 0.930 . S
C27 N25 1.400 . S
C27 C28 1.351 . S
C27 H44 0.930 . S
C28 N24 1.389 . S
C28 C27 1.351 . S
C28 H33 0.930 . S
O29 Cu23 1.974 . S
O29 C39 1.282 . S
C30 O31 1.261 . S
C30 O43 1.251 . S
O31 C30 1.261 . S
H32 C26 0.930 . S
H33 C28 0.930 . S
N34 Cu23 1.985 . S
N34 C36 1.335 . S
N34 C37 1.390 . S
N35 C36 1.345 . S
N35 C38 1.336 . S
C36 N34 1.335 . S
C36 N35 1.345 . S
C36 H41 0.930 . S
C37 N34 1.390 . S
C37 C38 1.346 . S
C37 H42 0.930 . S
C38 N35 1.336 . S
C38 C37 1.346 . S
C38 H45 0.929 . S
C39 O29 1.282 . S
C39 O40 1.216 . S
O40 C39 1.216 . S
H41 C36 0.930 . S
H42 C37 0.930 . S
O43 Cu23 1.959 . S
O43 C30 1.251 . S
H44 C27 0.930 . S
H45 C38 0.929 . S
Cu46 N47 1.999 . S
Cu46 O52 1.974 . S
Cu46 N57 1.985 . S
Cu46 O66 1.959 . S
N47 Cu46 1.999 . S
N47 C49 1.263 . S
N47 C51 1.389 . S
N48 C49 1.358 . S
N48 C50 1.400 . S
C49 N47 1.263 . S
C49 N48 1.358 . S
C49 H55 0.930 . S
C50 N48 1.400 . S
C50 C51 1.351 . S
C50 H67 0.930 . S
C51 N47 1.389 . S
C51 C50 1.351 . S
C51 H56 0.930 . S
O52 Cu46 1.974 . S
O52 C62 1.282 . S
C53 O54 1.261 . S
C53 O66 1.251 . S
O54 C53 1.261 . S
H55 C49 0.930 . S
H56 C51 0.930 . S
N57 Cu46 1.985 . S
N57 C59 1.335 . S
N57 C60 1.390 . S
N58 C59 1.345 . S
N58 C61 1.336 . S
C59 N57 1.335 . S
C59 N58 1.345 . S
C59 H64 0.930 . S
C60 N57 1.390 . S
C60 C61 1.346 . S
C60 H65 0.930 . S
C61 N58 1.336 . S
C61 C60 1.346 . S
C61 H68 0.929 . S
C62 O52 1.282 . S
C62 O63 1.216 . S
O63 C62 1.216 . S
H64 C59 0.930 . S
H65 C60 0.930 . S
O66 Cu46 1.959 . S
O66 C53 1.251 . S
H67 C50 0.930 . S
H68 C61 0.929 . S
Cu69 N70 1.999 . S
Cu69 O75 1.974 . S
Cu69 N80 1.985 . S
Cu69 O89 1.959 . S
N70 Cu69 1.999 . S
N70 C72 1.263 . S
N70 C74 1.389 . S
N71 C72 1.358 . S
N71 C73 1.400 . S
C72 N70 1.263 . S
C72 N71 1.358 . S
C72 H78 0.930 . S
C73 N71 1.400 . S
C73 C74 1.351 . S
C73 H90 0.930 . S
C74 N70 1.389 . S
C74 C73 1.351 . S
C74 H79 0.930 . S
O75 Cu69 1.974 . S
O75 C85 1.282 . S
C76 O77 1.261 . S
C76 O89 1.251 . S
O77 C76 1.261 . S
H78 C72 0.930 . S
H79 C74 0.930 . S
N80 Cu69 1.985 . S
N80 C82 1.335 . S
N80 C83 1.390 . S
N81 C82 1.345 . S
N81 C84 1.336 . S
C82 N80 1.335 . S
C82 N81 1.345 . S
C82 H87 0.930 . S
C83 N80 1.390 . S
C83 C84 1.346 . S
C83 H88 0.930 . S
C84 N81 1.336 . S
C84 C83 1.346 . S
C84 H91 0.929 . S
C85 O75 1.282 . S
C85 O86 1.216 . S
O86 C85 1.216 . S
H87 C82 0.930 . S
H88 C83 0.930 . S
O89 Cu69 1.959 . S
O89 C76 1.251 . S
H90 C73 0.930 . S
H91 C84 0.929 . S
Cu92 N93 1.999 . S
Cu92 O98 1.974 . S
Cu92 N103 1.985 . S
Cu92 O112 1.959 . S
N93 Cu92 1.999 . S
N93 C95 1.263 . S
N93 C97 1.389 . S
N94 C95 1.358 . S
N94 C96 1.400 . S
C95 N93 1.263 . S
C95 N94 1.358 . S
C95 H101 0.930 . S
C96 N94 1.400 . S
C96 C97 1.351 . S
C96 H113 0.930 . S
C97 N93 1.389 . S
C97 C96 1.351 . S
C97 H102 0.930 . S
O98 Cu92 1.974 . S
O98 C108 1.282 . S
C99 O100 1.261 . S
C99 O112 1.251 . S
O100 C99 1.261 . S
H101 C95 0.930 . S
H102 C97 0.930 . S
N103 Cu92 1.985 . S
N103 C105 1.335 . S
N103 C106 1.390 . S
N104 C105 1.345 . S
N104 C107 1.336 . S
C105 N103 1.335 . S
C105 N104 1.345 . S
C105 H110 0.930 . S
C106 N103 1.390 . S
C106 C107 1.346 . S
C106 H111 0.930 . S
C107 N104 1.336 . S
C107 C106 1.346 . S
C107 H114 0.929 . S
C108 O98 1.282 . S
C108 O109 1.216 . S
O109 C108 1.216 . S
H110 C105 0.930 . S
H111 C106 0.930 . S
O112 Cu92 1.959 . S
O112 C99 1.251 . S
H113 C96 0.930 . S
H114 C107 0.929 . S
Cu115 N116 1.999 . S
Cu115 O121 1.974 . S
Cu115 N126 1.985 . S
Cu115 O135 1.959 . S
N116 Cu115 1.999 . S
N116 C118 1.263 . S
N116 C120 1.389 . S
N117 C118 1.358 . S
N117 C119 1.400 . S
C118 N116 1.263 . S
C118 N117 1.358 . S
C118 H124 0.930 . S
C119 N117 1.400 . S
C119 C120 1.351 . S
C119 H136 0.930 . S
C120 N116 1.389 . S
C120 C119 1.351 . S
C120 H125 0.930 . S
O121 Cu115 1.974 . S
O121 C131 1.282 . S
C122 O123 1.261 . S
C122 O135 1.251 . S
O123 C122 1.261 . S
H124 C118 0.930 . S
H125 C120 0.930 . S
N126 Cu115 1.985 . S
N126 C128 1.335 . S
N126 C129 1.390 . S
N127 C128 1.345 . S
N127 C130 1.336 . S
C128 N126 1.335 . S
C128 N127 1.345 . S
C128 H133 0.930 . S
C129 N126 1.390 . S
C129 C130 1.346 . S
C129 H134 0.930 . S
C130 N127 1.336 . S
C130 C129 1.346 . S
C130 H137 0.929 . S
C131 O121 1.282 . S
C131 O132 1.216 . S
O132 C131 1.216 . S
H133 C128 0.930 . S
H134 C129 0.930 . S
O135 Cu115 1.959 . S
O135 C122 1.251 . S
H136 C119 0.930 . S
H137 C130 0.929 . S
Cu138 N139 1.999 . S
Cu138 O144 1.974 . S
Cu138 N149 1.985 . S
Cu138 O158 1.959 . S
N139 Cu138 1.999 . S
N139 C141 1.263 . S
N139 C143 1.389 . S
N140 C141 1.358 . S
N140 C142 1.400 . S
C141 N139 1.263 . S
C141 N140 1.358 . S
C141 H147 0.930 . S
C142 N140 1.400 . S
C142 C143 1.351 . S
C142 H159 0.930 . S
C143 N139 1.389 . S
C143 C142 1.351 . S
C143 H148 0.930 . S
O144 Cu138 1.974 . S
O144 C154 1.282 . S
C145 O146 1.261 . S
C145 O158 1.251 . S
O146 C145 1.261 . S
H147 C141 0.930 . S
H148 C143 0.930 . S
N149 Cu138 1.985 . S
N149 C151 1.335 . S
N149 C152 1.390 . S
N150 C151 1.345 . S
N150 C153 1.336 . S
C151 N149 1.335 . S
C151 N150 1.345 . S
C151 H156 0.930 . S
C152 N149 1.390 . S
C152 C153 1.346 . S
C152 H157 0.930 . S
C153 N150 1.336 . S
C153 C152 1.346 . S
C153 H160 0.929 . S
C154 O144 1.282 . S
C154 O155 1.216 . S
O155 C154 1.216 . S
H156 C151 0.930 . S
H157 C152 0.930 . S
O158 Cu138 1.959 . S
O158 C145 1.251 . S
H159 C142 0.930 . S
H160 C153 0.929 . S
Cu161 N162 1.999 . S
Cu161 O167 1.974 . S
Cu161 N172 1.985 . S
Cu161 O181 1.959 . S
N162 Cu161 1.999 . S
N162 C164 1.263 . S
N162 C166 1.389 . S
N163 C164 1.358 . S
N163 C165 1.400 . S
C164 N162 1.263 . S
C164 N163 1.358 . S
C164 H170 0.930 . S
C165 N163 1.400 . S
C165 C166 1.351 . S
C165 H182 0.930 . S
C166 N162 1.389 . S
C166 C165 1.351 . S
C166 H171 0.930 . S
O167 Cu161 1.974 . S
O167 C177 1.282 . S
C168 O169 1.261 . S
C168 O181 1.251 . S
O169 C168 1.261 . S
H170 C164 0.930 . S
H171 C166 0.930 . S
N172 Cu161 1.985 . S
N172 C174 1.335 . S
N172 C175 1.390 . S
N173 C174 1.345 . S
N173 C176 1.336 . S
C174 N172 1.335 . S
C174 N173 1.345 . S
C174 H179 0.930 . S
C175 N172 1.390 . S
C175 C176 1.346 . S
C175 H180 0.930 . S
C176 N173 1.336 . S
C176 C175 1.346 . S
C176 H183 0.929 . S
C177 O167 1.282 . S
C177 O178 1.216 . S
O178 C177 1.216 . S
H179 C174 0.930 . S
H180 C175 0.930 . S
O181 Cu161 1.959 . S
O181 C168 1.251 . S
H182 C165 0.930 . S
H183 C176 0.929 . S
Cu184 N185 1.999 . S
Cu184 O190 1.974 . S
Cu184 N195 1.985 . S
Cu184 O204 1.959 . S
N185 Cu184 1.999 . S
N185 C187 1.263 . S
N185 C189 1.389 . S
N186 C187 1.358 . S
N186 C188 1.400 . S
C187 N185 1.263 . S
C187 N186 1.358 . S
C187 H193 0.930 . S
C188 N186 1.400 . S
C188 C189 1.351 . S
C188 H205 0.930 . S
C189 N185 1.389 . S
C189 C188 1.351 . S
C189 H194 0.930 . S
O190 Cu184 1.974 . S
O190 C200 1.282 . S
C191 O192 1.261 . S
C191 O204 1.251 . S
O192 C191 1.261 . S
H193 C187 0.930 . S
H194 C189 0.930 . S
N195 Cu184 1.985 . S
N195 C197 1.335 . S
N195 C198 1.390 . S
N196 C197 1.345 . S
N196 C199 1.336 . S
C197 N195 1.335 . S
C197 N196 1.345 . S
C197 H202 0.930 . S
C198 N195 1.390 . S
C198 C199 1.346 . S
C198 H203 0.930 . S
C199 N196 1.336 . S
C199 C198 1.346 . S
C199 H206 0.929 . S
C200 O190 1.282 . S
C200 O201 1.216 . S
O201 C200 1.216 . S
H202 C197 0.930 . S
H203 C198 0.930 . S
O204 Cu184 1.959 . S
O204 C191 1.251 . S
H205 C188 0.930 . S
H206 C199 0.929 . S
Cu207 N208 1.999 . S
Cu207 O213 1.974 . S
Cu207 N218 1.985 . S
Cu207 O227 1.959 . S
N208 Cu207 1.999 . S
N208 C210 1.263 . S
N208 C212 1.389 . S
N209 C210 1.358 . S
N209 C211 1.400 . S
C210 N208 1.263 . S
C210 N209 1.358 . S
C210 H216 0.930 . S
C211 N209 1.400 . S
C211 C212 1.351 . S
C211 H228 0.930 . S
C212 N208 1.389 . S
C212 C211 1.351 . S
C212 H217 0.930 . S
O213 Cu207 1.974 . S
O213 C223 1.282 . S
C214 O215 1.261 . S
C214 O227 1.251 . S
O215 C214 1.261 . S
H216 C210 0.930 . S
H217 C212 0.930 . S
N218 Cu207 1.985 . S
N218 C220 1.335 . S
N218 C221 1.390 . S
N219 C220 1.345 . S
N219 C222 1.336 . S
C220 N218 1.335 . S
C220 N219 1.345 . S
C220 H225 0.930 . S
C221 N218 1.390 . S
C221 C222 1.346 . S
C221 H226 0.930 . S
C222 N219 1.336 . S
C222 C221 1.346 . S
C222 H229 0.929 . S
C223 O213 1.282 . S
C223 O224 1.216 . S
O224 C223 1.216 . S
H225 C220 0.930 . S
H226 C221 0.930 . S
O227 Cu207 1.959 . S
O227 C214 1.251 . S
H228 C211 0.930 . S
H229 C222 0.929 . S
Cu230 N231 1.999 . S
Cu230 O236 1.974 . S
Cu230 N241 1.985 . S
Cu230 O250 1.959 . S
N231 Cu230 1.999 . S
N231 C233 1.263 . S
N231 C235 1.389 . S
N232 C233 1.358 . S
N232 C234 1.400 . S
C233 N231 1.263 . S
C233 N232 1.358 . S
C233 H239 0.930 . S
C234 N232 1.400 . S
C234 C235 1.351 . S
C234 H251 0.930 . S
C235 N231 1.389 . S
C235 C234 1.351 . S
C235 H240 0.930 . S
O236 Cu230 1.974 . S
O236 C246 1.282 . S
C237 O238 1.261 . S
C237 O250 1.251 . S
O238 C237 1.261 . S
H239 C233 0.930 . S
H240 C235 0.930 . S
N241 Cu230 1.985 . S
N241 C243 1.335 . S
N241 C244 1.390 . S
N242 C243 1.345 . S
N242 C245 1.336 . S
C243 N241 1.335 . S
C243 N242 1.345 . S
C243 H248 0.930 . S
C244 N241 1.390 . S
C244 C245 1.346 . S
C244 H249 0.930 . S
C245 N242 1.336 . S
C245 C244 1.346 . S
C245 H252 0.929 . S
C246 O236 1.282 . S
C246 O247 1.216 . S
O247 C246 1.216 . S
H248 C243 0.930 . S
H249 C244 0.930 . S
O250 Cu230 1.959 . S
O250 C237 1.251 . S
H251 C234 0.930 . S
H252 C245 0.929 . S
Cu253 N254 1.999 . S
Cu253 O259 1.974 . S
Cu253 N264 1.985 . S
Cu253 O273 1.959 . S
N254 Cu253 1.999 . S
N254 C256 1.263 . S
N254 C258 1.389 . S
N255 C256 1.358 . S
N255 C257 1.400 . S
C256 N254 1.263 . S
C256 N255 1.358 . S
C256 H262 0.930 . S
C257 N255 1.400 . S
C257 C258 1.351 . S
C257 H274 0.930 . S
C258 N254 1.389 . S
C258 C257 1.351 . S
C258 H263 0.930 . S
O259 Cu253 1.974 . S
O259 C269 1.282 . S
C260 O261 1.261 . S
C260 O273 1.251 . S
O261 C260 1.261 . S
H262 C256 0.930 . S
H263 C258 0.930 . S
N264 Cu253 1.985 . S
N264 C266 1.335 . S
N264 C267 1.390 . S
N265 C266 1.345 . S
N265 C268 1.336 . S
C266 N264 1.335 . S
C266 N265 1.345 . S
C266 H271 0.930 . S
C267 N264 1.390 . S
C267 C268 1.346 . S
C267 H272 0.930 . S
C268 N265 1.336 . S
C268 C267 1.346 . S
C268 H275 0.929 . S
C269 O259 1.282 . S
C269 O270 1.216 . S
O270 C269 1.216 . S
H271 C266 0.930 . S
H272 C267 0.930 . S
O273 Cu253 1.959 . S
O273 C260 1.251 . S
H274 C257 0.930 . S
H275 C268 0.929 . S
C276 C277 1.349 . S
C276 C278 1.327 . S
C276 H301 0.950 . S
C277 C276 1.349 . S
C277 C293 1.349 . S
C278 C276 1.327 . S
C278 C297 1.429 . S
C278 H302 0.950 . S
C279 C296 1.574 . S
C279 C298 1.368 . S
C279 H303 0.949 . S
H280 C284 0.949 . S
C281 C282 1.349 . S
C281 C283 1.327 . S
C281 H304 0.950 . S
C282 C281 1.349 . S
C282 C294 1.349 . S
C283 C281 1.327 . S
C283 C299 1.429 . S
C283 H305 0.950 . S
C284 H280 0.949 . S
C284 C292 1.574 . S
C284 C300 1.368 . S
H285 C293 0.950 . S
H286 C291 0.950 . S
H287 C292 0.949 . S
H288 C294 0.950 . S
H289 C295 0.950 . S
H290 C296 0.949 . S
C291 H286 0.950 . S
C291 C293 1.327 . S
C291 C297 1.429 . S
C292 C284 1.574 . S
C292 H287 0.949 . S
C292 C298 1.368 . S
C293 C277 1.349 . S
C293 H285 0.950 . S
C293 C291 1.327 . S
C294 C282 1.349 . S
C294 H288 0.950 . S
C294 C295 1.327 . S
C295 H289 0.950 . S
C295 C294 1.327 . S
C295 C299 1.429 . S
C296 C279 1.574 . S
C296 H290 0.949 . S
C296 C300 1.368 . S
C297 C278 1.429 . S
C297 C291 1.429 . S
C297 C298 1.523 . S
C298 C279 1.368 . S
C298 C292 1.368 . S
C298 C297 1.523 . S
C299 C283 1.429 . S
C299 C295 1.429 . S
C299 C300 1.523 . S
C300 C284 1.368 . S
C300 C296 1.368 . S
C300 C299 1.523 . S
H301 C276 0.950 . S
H302 C278 0.950 . S
H303 C279 0.949 . S
H304 C281 0.950 . S
H305 C283 0.950 . S
C306 C307 1.349 . S
C306 C308 1.327 . S
C306 H331 0.950 . S
C307 C306 1.349 . S
C307 C323 1.349 . S
C308 C306 1.327 . S
C308 C327 1.429 . S
C308 H332 0.950 . S
C309 C326 1.574 . S
C309 C328 1.368 . S
C309 H333 0.949 . S
H310 C314 0.949 . S
C311 C312 1.349 . S
C311 C313 1.327 . S
C311 H334 0.950 . S
C312 C311 1.349 . S
C312 C324 1.349 . S
C313 C311 1.327 . S
C313 C329 1.429 . S
C313 H335 0.950 . S
C314 H310 0.949 . S
C314 C322 1.574 . S
C314 C330 1.368 . S
H315 C323 0.950 . S
H316 C321 0.950 . S
H317 C322 0.949 . S
H318 C324 0.950 . S
H319 C325 0.950 . S
H320 C326 0.949 . S
C321 H316 0.950 . S
C321 C323 1.327 . S
C321 C327 1.429 . S
C322 C314 1.574 . S
C322 H317 0.949 . S
C322 C328 1.368 . S
C323 C307 1.349 . S
C323 H315 0.950 . S
C323 C321 1.327 . S
C324 C312 1.349 . S
C324 H318 0.950 . S
C324 C325 1.327 . S
C325 H319 0.950 . S
C325 C324 1.327 . S
C325 C329 1.429 . S
C326 C309 1.574 . S
C326 H320 0.949 . S
C326 C330 1.368 . S
C327 C308 1.429 . S
C327 C321 1.429 . S
C327 C328 1.523 . S
C328 C309 1.368 . S
C328 C322 1.368 . S
C328 C327 1.523 . S
C329 C313 1.429 . S
C329 C325 1.429 . S
C329 C330 1.523 . S
C330 C314 1.368 . S
C330 C326 1.368 . S
C330 C329 1.523 . S
H331 C306 0.950 . S
H332 C308 0.950 . S
H333 C309 0.949 . S
H334 C311 0.950 . S
H335 C313 0.950 . S
C336 C337 1.349 . S
C336 C338 1.327 . S
C336 H361 0.950 . S
C337 C336 1.349 . S
C337 C353 1.349 . S
C338 C336 1.327 . S
C338 C357 1.429 . S
C338 H362 0.950 . S
C339 C356 1.574 1_556 S
C339 C358 1.368 . S
C339 H363 0.949 . S
H340 C344 0.949 . S
C341 C342 1.349 . S
C341 C343 1.327 . S
C341 H364 0.950 . S
C342 C341 1.349 . S
C342 C354 1.349 . S
C343 C341 1.327 . S
C343 C359 1.429 . S
C343 H365 0.950 . S
C344 H340 0.949 . S
C344 C352 1.574 1_554 S
C344 C360 1.368 . S
H345 C353 0.950 . S
H346 C351 0.950 . S
H347 C352 0.949 . S
H348 C354 0.950 . S
H349 C355 0.950 . S
H350 C356 0.949 . S
C351 H346 0.950 . S
C351 C353 1.327 . S
C351 C357 1.429 . S
C352 C344 1.574 1_556 S
C352 H347 0.949 . S
C352 C358 1.368 . S
C353 C337 1.349 . S
C353 H345 0.950 . S
C353 C351 1.327 . S
C354 C342 1.349 . S
C354 H348 0.950 . S
C354 C355 1.327 . S
C355 H349 0.950 . S
C355 C354 1.327 . S
C355 C359 1.429 . S
C356 C339 1.574 1_554 S
C356 H350 0.949 . S
C356 C360 1.368 . S
C357 C338 1.429 . S
C357 C351 1.429 . S
C357 C358 1.523 . S
C358 C339 1.368 . S
C358 C352 1.368 . S
C358 C357 1.523 . S
C359 C343 1.429 . S
C359 C355 1.429 . S
C359 C360 1.523 . S
C360 C344 1.368 . S
C360 C356 1.368 . S
C360 C359 1.523 . S
H361 C336 0.950 . S
H362 C338 0.950 . S
H363 C339 0.949 . S
H364 C341 0.950 . S
H365 C343 0.950 . S
C366 C367 1.349 . S
C366 C368 1.327 . S
C366 H391 0.950 . S
C367 C366 1.349 . S
C367 C383 1.349 . S
C368 C366 1.327 . S
C368 C387 1.429 . S
C368 H392 0.950 . S
C369 C386 1.574 . S
C369 C388 1.368 . S
C369 H393 0.949 . S
H370 C374 0.949 . S
C371 C372 1.349 . S
C371 C373 1.327 . S
C371 H394 0.950 . S
C372 C371 1.349 . S
C372 C384 1.349 . S
C373 C371 1.327 . S
C373 C389 1.429 . S
C373 H395 0.950 . S
C374 H370 0.949 . S
C374 C382 1.574 . S
C374 C390 1.368 . S
H375 C383 0.950 . S
H376 C381 0.950 . S
H377 C382 0.949 . S
H378 C384 0.950 . S
H379 C385 0.950 . S
H380 C386 0.949 . S
C381 H376 0.950 . S
C381 C383 1.327 . S
C381 C387 1.429 . S
C382 C374 1.574 . S
C382 H377 0.949 . S
C382 C388 1.368 . S
C383 C367 1.349 . S
C383 H375 0.950 . S
C383 C381 1.327 . S
C384 C372 1.349 . S
C384 H378 0.950 . S
C384 C385 1.327 . S
C385 H379 0.950 . S
C385 C384 1.327 . S
C385 C389 1.429 . S
C386 C369 1.574 . S
C386 H380 0.949 . S
C386 C390 1.368 . S
C387 C368 1.429 . S
C387 C381 1.429 . S
C387 C388 1.523 . S
C388 C369 1.368 . S
C388 C382 1.368 . S
C388 C387 1.523 . S
C389 C373 1.429 . S
C389 C385 1.429 . S
C389 C390 1.523 . S
C390 C374 1.368 . S
C390 C386 1.368 . S
C390 C389 1.523 . S
H391 C366 0.950 . S
H392 C368 0.950 . S
H393 C369 0.949 . S
H394 C371 0.950 . S
H395 C373 0.950 . S
C396 C397 1.349 . S
C396 C398 1.327 . S
C396 H421 0.950 . S
C397 C396 1.349 . S
C397 C413 1.349 . S
C398 C396 1.327 . S
C398 C417 1.429 . S
C398 H422 0.950 . S
C399 C416 1.574 . S
C399 C418 1.368 . S
C399 H423 0.949 . S
H400 C404 0.949 . S
C401 C402 1.349 . S
C401 C403 1.327 . S
C401 H424 0.950 . S
C402 C401 1.349 . S
C402 C414 1.349 . S
C403 C401 1.327 . S
C403 C419 1.429 . S
C403 H425 0.950 . S
C404 H400 0.949 . S
C404 C412 1.574 . S
C404 C420 1.368 . S
H405 C413 0.950 . S
H406 C411 0.950 . S
H407 C412 0.949 . S
H408 C414 0.950 . S
H409 C415 0.950 . S
H410 C416 0.949 . S
C411 H406 0.950 . S
C411 C413 1.327 . S
C411 C417 1.429 . S
C412 C404 1.574 . S
C412 H407 0.949 . S
C412 C418 1.368 . S
C413 C397 1.349 . S
C413 H405 0.950 . S
C413 C411 1.327 . S
C414 C402 1.349 . S
C414 H408 0.950 . S
C414 C415 1.327 . S
C415 H409 0.950 . S
C415 C414 1.327 . S
C415 C419 1.429 . S
C416 C399 1.574 . S
C416 H410 0.949 . S
C416 C420 1.368 . S
C417 C398 1.429 . S
C417 C411 1.429 . S
C417 C418 1.523 . S
C418 C399 1.368 . S
C418 C412 1.368 . S
C418 C417 1.523 . S
C419 C403 1.429 . S
C419 C415 1.429 . S
C419 C420 1.523 . S
C420 C404 1.368 . S
C420 C416 1.368 . S
C420 C419 1.523 . S
H421 C396 0.950 . S
H422 C398 0.950 . S
H423 C399 0.949 . S
H424 C401 0.950 . S
H425 C403 0.950 . S
C426 C427 1.349 . S
C426 C428 1.327 . S
C426 H451 0.950 . S
C427 C426 1.349 . S
C427 C443 1.349 . S
C428 C426 1.327 . S
C428 C447 1.429 . S
C428 H452 0.950 . S
C429 C446 1.574 1_554 S
C429 C448 1.368 . S
C429 H453 0.949 . S
H430 C434 0.949 . S
C431 C432 1.349 . S
C431 C433 1.327 . S
C431 H454 0.950 . S
C432 C431 1.349 . S
C432 C444 1.349 . S
C433 C431 1.327 . S
C433 C449 1.429 . S
C433 H455 0.950 . S
C434 H430 0.949 . S
C434 C442 1.574 1_556 S
C434 C450 1.368 . S
H435 C443 0.950 . S
H436 C441 0.950 . S
H437 C442 0.949 . S
H438 C444 0.950 . S
H439 C445 0.950 . S
H440 C446 0.949 . S
C441 H436 0.950 . S
C441 C443 1.327 . S
C441 C447 1.429 . S
C442 C434 1.574 1_554 S
C442 H437 0.949 . S
C442 C448 1.368 . S
C443 C427 1.349 . S
C443 H435 0.950 . S
C443 C441 1.327 . S
C444 C432 1.349 . S
C444 H438 0.950 . S
C444 C445 1.327 . S
C445 H439 0.950 . S
C445 C444 1.327 . S
C445 C449 1.429 . S
C446 C429 1.574 1_556 S
C446 H440 0.949 . S
C446 C450 1.368 . S
C447 C428 1.429 . S
C447 C441 1.429 . S
C447 C448 1.523 . S
C448 C429 1.368 . S
C448 C442 1.368 . S
C448 C447 1.523 . S
C449 C433 1.429 . S
C449 C445 1.429 . S
C449 C450 1.523 . S
C450 C434 1.368 . S
C450 C446 1.368 . S
C450 C449 1.523 . S
H451 C426 0.950 . S
H452 C428 0.950 . S
H453 C429 0.949 . S
H454 C431 0.950 . S
H455 C433 0.950 . S
C456 C457 1.349 . S
C456 C458 1.327 . S
C456 H481 0.950 . S
C457 C456 1.349 . S
C457 C473 1.349 . S
C458 C456 1.327 . S
C458 C477 1.429 . S
C458 H482 0.950 . S
C459 C476 1.574 . S
C459 C478 1.368 1_556 S
C459 H483 0.949 . S
H460 C464 0.949 . S
C461 C462 1.349 . S
C461 C463 1.327 . S
C461 H484 0.950 . S
C462 C461 1.349 . S
C462 C474 1.349 . S
C463 C461 1.327 . S
C463 C479 1.429 . S
C463 H485 0.950 . S
C464 H460 0.949 . S
C464 C472 1.574 . S
C464 C480 1.368 1_554 S
H465 C473 0.950 . S
H466 C471 0.950 1_556 S
H467 C472 0.949 . S
H468 C474 0.950 . S
H469 C475 0.950 1_554 S
H470 C476 0.949 . S
C471 H466 0.950 1_554 S
C471 C473 1.327 . S
C471 C477 1.429 . S
C472 C464 1.574 . S
C472 H467 0.949 . S
C472 C478 1.368 . S
C473 C457 1.349 . S
C473 H465 0.950 . S
C473 C471 1.327 . S
C474 C462 1.349 . S
C474 H468 0.950 . S
C474 C475 1.327 . S
C475 H469 0.950 1_556 S
C475 C474 1.327 . S
C475 C479 1.429 . S
C476 C459 1.574 . S
C476 H470 0.949 . S
C476 C480 1.368 . S
C477 C458 1.429 . S
C477 C471 1.429 . S
C477 C478 1.523 . S
C478 C459 1.368 1_554 S
C478 C472 1.368 . S
C478 C477 1.523 . S
C479 C463 1.429 . S
C479 C475 1.429 . S
C479 C480 1.523 . S
C480 C464 1.368 1_556 S
C480 C476 1.368 . S
C480 C479 1.523 . S
H481 C456 0.950 . S
H482 C458 0.950 . S
H483 C459 0.949 . S
H484 C461 0.950 . S
H485 C463 0.950 . S
C486 C487 1.349 . S
C486 C488 1.327 . S
C486 H511 0.950 . S
C487 C486 1.349 . S
C487 C503 1.349 . S
C488 C486 1.327 . S
C488 C507 1.429 . S
C488 H512 0.950 . S
C489 C506 1.574 . S
C489 C508 1.368 . S
C489 H513 0.949 . S
H490 C494 0.949 . S
C491 C492 1.349 . S
C491 C493 1.327 . S
C491 H514 0.950 . S
C492 C491 1.349 . S
C492 C504 1.349 . S
C493 C491 1.327 . S
C493 C509 1.429 . S
C493 H515 0.950 . S
C494 H490 0.949 . S
C494 C502 1.574 . S
C494 C510 1.368 . S
H495 C503 0.950 . S
H496 C501 0.950 . S
H497 C502 0.949 . S
H498 C504 0.950 . S
H499 C505 0.950 . S
H500 C506 0.949 . S
C501 H496 0.950 . S
C501 C503 1.327 . S
C501 C507 1.429 . S
C502 C494 1.574 . S
C502 H497 0.949 . S
C502 C508 1.368 . S
C503 C487 1.349 . S
C503 H495 0.950 . S
C503 C501 1.327 . S
C504 C492 1.349 . S
C504 H498 0.950 . S
C504 C505 1.327 . S
C505 H499 0.950 . S
C505 C504 1.327 . S
C505 C509 1.429 . S
C506 C489 1.574 . S
C506 H500 0.949 . S
C506 C510 1.368 . S
C507 C488 1.429 . S
C507 C501 1.429 . S
C507 C508 1.523 . S
C508 C489 1.368 . S
C508 C502 1.368 . S
C508 C507 1.523 . S
C509 C493 1.429 . S
C509 C505 1.429 . S
C509 C510 1.523 . S
C510 C494 1.368 . S
C510 C506 1.368 . S
C510 C509 1.523 . S
H511 C486 0.950 . S
H512 C488 0.950 . S
H513 C489 0.949 . S
H514 C491 0.950 . S
H515 C493 0.950 . S
C516 C517 1.349 . S
C516 C518 1.327 . S
C516 H541 0.950 . S
C517 C516 1.349 . S
C517 C533 1.349 . S
C518 C516 1.327 . S
C518 C537 1.429 . S
C518 H542 0.950 . S
C519 C536 1.574 . S
C519 C538 1.368 . S
C519 H543 0.949 . S
H520 C524 0.949 . S
C521 C522 1.349 . S
C521 C523 1.327 . S
C521 H544 0.950 . S
C522 C521 1.349 . S
C522 C534 1.349 . S
C523 C521 1.327 . S
C523 C539 1.429 . S
C523 H545 0.950 . S
C524 H520 0.949 . S
C524 C532 1.574 . S
C524 C540 1.368 . S
H525 C533 0.950 . S
H526 C531 0.950 . S
H527 C532 0.949 . S
H528 C534 0.950 . S
H529 C535 0.950 . S
H530 C536 0.949 . S
C531 H526 0.950 . S
C531 C533 1.327 . S
C531 C537 1.429 . S
C532 C524 1.574 . S
C532 H527 0.949 . S
C532 C538 1.368 . S
C533 C517 1.349 . S
C533 H525 0.950 . S
C533 C531 1.327 . S
C534 C522 1.349 . S
C534 H528 0.950 . S
C534 C535 1.327 . S
C535 H529 0.950 . S
C535 C534 1.327 . S
C535 C539 1.429 . S
C536 C519 1.574 . S
C536 H530 0.949 . S
C536 C540 1.368 . S
C537 C518 1.429 . S
C537 C531 1.429 . S
C537 C538 1.523 . S
C538 C519 1.368 . S
C538 C532 1.368 . S
C538 C537 1.523 . S
C539 C523 1.429 . S
C539 C535 1.429 . S
C539 C540 1.523 . S
C540 C524 1.368 . S
C540 C536 1.368 . S
C540 C539 1.523 . S
H541 C516 0.950 . S
H542 C518 0.950 . S
H543 C519 0.949 . S
H544 C521 0.950 . S
H545 C523 0.950 . S
C546 C547 1.349 . S
C546 C548 1.327 . S
C546 H571 0.950 . S
C547 C546 1.349 . S
C547 C563 1.349 . S
C548 C546 1.327 . S
C548 C567 1.429 . S
C548 H572 0.950 1_554 S
C549 C566 1.574 . S
C549 C568 1.368 . S
C549 H573 0.949 . S
H550 C554 0.949 . S
C551 C552 1.349 . S
C551 C553 1.327 . S
C551 H574 0.950 . S
C552 C551 1.349 . S
C552 C564 1.349 . S
C553 C551 1.327 . S
C553 C569 1.429 . S
C553 H575 0.950 1_556 S
C554 H550 0.949 . S
C554 C562 1.574 . S
C554 C570 1.368 . S
H555 C563 0.950 . S
H556 C561 0.950 . S
H557 C562 0.949 . S
H558 C564 0.950 . S
H559 C565 0.950 . S
H560 C566 0.949 . S
C561 H556 0.950 . S
C561 C563 1.327 . S
C561 C567 1.429 . S
C562 C554 1.574 . S
C562 H557 0.949 . S
C562 C568 1.368 1_556 S
C563 C547 1.349 . S
C563 H555 0.950 . S
C563 C561 1.327 . S
C564 C552 1.349 . S
C564 H558 0.950 . S
C564 C565 1.327 . S
C565 H559 0.950 . S
C565 C564 1.327 . S
C565 C569 1.429 . S
C566 C549 1.574 . S
C566 H560 0.949 . S
C566 C570 1.368 1_554 S
C567 C548 1.429 . S
C567 C561 1.429 . S
C567 C568 1.523 . S
C568 C549 1.368 . S
C568 C562 1.368 1_554 S
C568 C567 1.523 . S
C569 C553 1.429 . S
C569 C565 1.429 . S
C569 C570 1.523 . S
C570 C554 1.368 . S
C570 C566 1.368 1_556 S
C570 C569 1.523 . S
H571 C546 0.950 . S
H572 C548 0.950 1_556 S
H573 C549 0.949 . S
H574 C551 0.950 . S
H575 C553 0.950 1_554 S
C576 C577 1.349 . S
C576 C578 1.327 . S
C576 H601 0.950 . S
C577 C576 1.349 . S
C577 C593 1.349 . S
C578 C576 1.327 . S
C578 C597 1.429 . S
C578 H602 0.950 . S
C579 C596 1.574 . S
C579 C598 1.368 . S
C579 H603 0.949 . S
H580 C584 0.949 . S
C581 C582 1.349 . S
C581 C583 1.327 . S
C581 H604 0.950 . S
C582 C581 1.349 . S
C582 C594 1.349 . S
C583 C581 1.327 . S
C583 C599 1.429 . S
C583 H605 0.950 . S
C584 H580 0.949 . S
C584 C592 1.574 . S
C584 C600 1.368 . S
H585 C593 0.950 . S
H586 C591 0.950 . S
H587 C592 0.949 . S
H588 C594 0.950 . S
H589 C595 0.950 . S
H590 C596 0.949 . S
C591 H586 0.950 . S
C591 C593 1.327 . S
C591 C597 1.429 . S
C592 C584 1.574 . S
C592 H587 0.949 . S
C592 C598 1.368 . S
C593 C577 1.349 . S
C593 H585 0.950 . S
C593 C591 1.327 . S
C594 C582 1.349 . S
C594 H588 0.950 . S
C594 C595 1.327 . S
C595 H589 0.950 . S
C595 C594 1.327 . S
C595 C599 1.429 . S
C596 C579 1.574 . S
C596 H590 0.949 . S
C596 C600 1.368 . S
C597 C578 1.429 . S
C597 C591 1.429 . S
C597 C598 1.523 . S
C598 C579 1.368 . S
C598 C592 1.368 . S
C598 C597 1.523 . S
C599 C583 1.429 . S
C599 C595 1.429 . S
C599 C600 1.523 . S
C600 C584 1.368 . S
C600 C596 1.368 . S
C600 C599 1.523 . S
H601 C576 0.950 . S
H602 C578 0.950 . S
H603 C579 0.949 . S
H604 C581 0.950 . S
H605 C583 0.950 . S
C606 C607 1.349 . S
C606 C608 1.327 . S
C606 H631 0.950 . S
C607 C606 1.349 . S
C607 C623 1.349 . S
C608 C606 1.327 . S
C608 C627 1.429 . S
C608 H632 0.950 . S
C609 C626 1.574 . S
C609 C628 1.368 . S
C609 H633 0.949 . S
H610 C614 0.949 . S
C611 C612 1.349 . S
C611 C613 1.327 . S
C611 H634 0.950 . S
C612 C611 1.349 . S
C612 C624 1.349 . S
C613 C611 1.327 . S
C613 C629 1.429 . S
C613 H635 0.950 . S
C614 H610 0.949 . S
C614 C622 1.574 . S
C614 C630 1.368 . S
H615 C623 0.950 . S
H616 C621 0.950 . S
H617 C622 0.949 . S
H618 C624 0.950 . S
H619 C625 0.950 . S
H620 C626 0.949 . S
C621 H616 0.950 . S
C621 C623 1.327 . S
C621 C627 1.429 . S
C622 C614 1.574 . S
C622 H617 0.949 . S
C622 C628 1.368 . S
C623 C607 1.349 . S
C623 H615 0.950 . S
C623 C621 1.327 . S
C624 C612 1.349 . S
C624 H618 0.950 . S
C624 C625 1.327 . S
C625 H619 0.950 . S
C625 C624 1.327 . S
C625 C629 1.429 . S
C626 C609 1.574 . S
C626 H620 0.949 . S
C626 C630 1.368 . S
C627 C608 1.429 . S
C627 C621 1.429 . S
C627 C628 1.523 . S
C628 C609 1.368 . S
C628 C622 1.368 . S
C628 C627 1.523 . S
C629 C613 1.429 . S
C629 C625 1.429 . S
C629 C630 1.523 . S
C630 C614 1.368 . S
C630 C626 1.368 . S
C630 C629 1.523 . S
H631 C606 0.950 . S
H632 C608 0.950 . S
H633 C609 0.949 . S
H634 C611 0.950 . S
H635 C613 0.950 . S
C636 C637 1.349 . S
C636 C638 1.327 . S
C636 H661 0.950 . S
C637 C636 1.349 . S
C637 C653 1.349 . S
C638 C636 1.327 . S
C638 C657 1.429 . S
C638 H662 0.950 . S
C639 C656 1.574 . S
C639 C658 1.368 . S
C639 H663 0.949 . S
H640 C644 0.949 . S
C641 C642 1.349 . S
C641 C643 1.327 . S
C641 H664 0.950 . S
C642 C641 1.349 . S
C642 C654 1.349 . S
C643 C641 1.327 . S
C643 C659 1.429 . S
C643 H665 0.950 . S
C644 H640 0.949 . S
C644 C652 1.574 . S
C644 C660 1.368 . S
H645 C653 0.950 . S
H646 C651 0.950 . S
H647 C652 0.949 . S
H648 C654 0.950 . S
H649 C655 0.950 . S
H650 C656 0.949 . S
C651 H646 0.950 . S
C651 C653 1.327 . S
C651 C657 1.429 . S
C652 C644 1.574 . S
C652 H647 0.949 . S
C652 C658 1.368 . S
C653 C637 1.349 . S
C653 H645 0.950 . S
C653 C651 1.327 . S
C654 C642 1.349 . S
C654 H648 0.950 . S
C654 C655 1.327 . S
C655 H649 0.950 . S
C655 C654 1.327 . S
C655 C659 1.429 . S
C656 C639 1.574 . S
C656 H650 0.949 . S
C656 C660 1.368 . S
C657 C638 1.429 . S
C657 C651 1.429 . S
C657 C658 1.523 . S
C658 C639 1.368 . S
C658 C652 1.368 . S
C658 C657 1.523 . S
C659 C643 1.429 . S
C659 C655 1.429 . S
C659 C660 1.523 . S
C660 C644 1.368 . S
C660 C656 1.368 . S
C660 C659 1.523 . S
H661 C636 0.950 . S
H662 C638 0.950 . S
H663 C639 0.949 . S
H664 C641 0.950 . S
H665 C643 0.950 . S
C666 C667 1.349 . S
C666 C668 1.327 . S
C666 H691 0.950 . S
C667 C666 1.349 . S
C667 C683 1.349 . S
C668 C666 1.327 . S
C668 C687 1.429 . S
C668 H692 0.950 . S
C669 C686 1.574 1_655 S
C669 C688 1.368 . S
C669 H693 0.949 . S
H670 C674 0.949 . S
C671 C672 1.349 . S
C671 C673 1.327 . S
C671 H694 0.950 . S
C672 C671 1.349 . S
C672 C684 1.349 . S
C673 C671 1.327 . S
C673 C689 1.429 . S
C673 H695 0.950 . S
C674 H670 0.949 . S
C674 C682 1.574 1_455 S
C674 C690 1.368 . S
H675 C683 0.950 . S
H676 C681 0.950 . S
H677 C682 0.949 . S
H678 C684 0.950 . S
H679 C685 0.950 . S
H680 C686 0.949 . S
C681 H676 0.950 . S
C681 C683 1.327 . S
C681 C687 1.429 . S
C682 C674 1.574 1_655 S
C682 H677 0.949 . S
C682 C688 1.368 . S
C683 C667 1.349 . S
C683 H675 0.950 . S
C683 C681 1.327 . S
C684 C672 1.349 . S
C684 H678 0.950 . S
C684 C685 1.327 . S
C685 H679 0.950 . S
C685 C684 1.327 . S
C685 C689 1.429 . S
C686 C669 1.574 1_455 S
C686 H680 0.949 . S
C686 C690 1.368 . S
C687 C668 1.429 . S
C687 C681 1.429 . S
C687 C688 1.523 . S
C688 C669 1.368 . S
C688 C682 1.368 . S
C688 C687 1.523 . S
C689 C673 1.429 . S
C689 C685 1.429 . S
C689 C690 1.523 . S
C690 C674 1.368 . S
C690 C686 1.368 . S
C690 C689 1.523 . S
H691 C666 0.950 . S
H692 C668 0.950 . S
H693 C669 0.949 . S
H694 C671 0.950 . S
H695 C673 0.950 . S
C696 C697 1.349 . S
C696 C698 1.327 . S
C696 H721 0.950 . S
C697 C696 1.349 . S
C697 C713 1.349 . S
C698 C696 1.327 . S
C698 C717 1.429 . S
C698 H722 0.950 . S
C699 C716 1.574 1_545 S
C699 C718 1.368 . S
C699 H723 0.949 . S
H700 C704 0.949 . S
C701 C702 1.349 . S
C701 C703 1.327 . S
C701 H724 0.950 . S
C702 C701 1.349 . S
C702 C714 1.349 . S
C703 C701 1.327 . S
C703 C719 1.429 . S
C703 H725 0.950 . S
C704 H700 0.949 . S
C704 C712 1.574 1_565 S
C704 C720 1.368 . S
H705 C713 0.950 . S
H706 C711 0.950 . S
H707 C712 0.949 . S
H708 C714 0.950 . S
H709 C715 0.950 . S
H710 C716 0.949 . S
C711 H706 0.950 . S
C711 C713 1.327 . S
C711 C717 1.429 . S
C712 C704 1.574 1_545 S
C712 H707 0.949 . S
C712 C718 1.368 . S
C713 C697 1.349 . S
C713 H705 0.950 . S
C713 C711 1.327 . S
C714 C702 1.349 . S
C714 H708 0.950 . S
C714 C715 1.327 . S
C715 H709 0.950 . S
C715 C714 1.327 . S
C715 C719 1.429 . S
C716 C699 1.574 1_565 S
C716 H710 0.949 . S
C716 C720 1.368 . S
C717 C698 1.429 . S
C717 C711 1.429 . S
C717 C718 1.523 . S
C718 C699 1.368 . S
C718 C712 1.368 . S
C718 C717 1.523 . S
C719 C703 1.429 . S
C719 C715 1.429 . S
C719 C720 1.523 . S
C720 C704 1.368 . S
C720 C716 1.368 . S
C720 C719 1.523 . S
H721 C696 0.950 . S
H722 C698 0.950 . S
H723 C699 0.949 . S
H724 C701 0.950 . S
H725 C703 0.950 . S
C726 C727 1.349 . S
C726 C728 1.327 . S
C726 H751 0.950 . S
C727 C726 1.349 . S
C727 C743 1.349 . S
C728 C726 1.327 . S
C728 C747 1.429 . S
C728 H752 0.950 . S
C729 C746 1.574 . S
C729 C748 1.368 . S
C729 H753 0.949 . S
H730 C734 0.949 . S
C731 C732 1.349 . S
C731 C733 1.327 . S
C731 H754 0.950 . S
C732 C731 1.349 . S
C732 C744 1.349 . S
C733 C731 1.327 . S
C733 C749 1.429 . S
C733 H755 0.950 . S
C734 H730 0.949 . S
C734 C742 1.574 . S
C734 C750 1.368 . S
H735 C743 0.950 . S
H736 C741 0.950 . S
H737 C742 0.949 . S
H738 C744 0.950 . S
H739 C745 0.950 . S
H740 C746 0.949 . S
C741 H736 0.950 . S
C741 C743 1.327 . S
C741 C747 1.429 . S
C742 C734 1.574 . S
C742 H737 0.949 . S
C742 C748 1.368 . S
C743 C727 1.349 . S
C743 H735 0.950 . S
C743 C741 1.327 . S
C744 C732 1.349 . S
C744 H738 0.950 . S
C744 C745 1.327 . S
C745 H739 0.950 . S
C745 C744 1.327 . S
C745 C749 1.429 . S
C746 C729 1.574 . S
C746 H740 0.949 . S
C746 C750 1.368 . S
C747 C728 1.429 . S
C747 C741 1.429 . S
C747 C748 1.523 . S
C748 C729 1.368 . S
C748 C742 1.368 . S
C748 C747 1.523 . S
C749 C733 1.429 . S
C749 C745 1.429 . S
C749 C750 1.523 . S
C750 C734 1.368 . S
C750 C746 1.368 . S
C750 C749 1.523 . S
H751 C726 0.950 . S
H752 C728 0.950 . S
H753 C729 0.949 . S
H754 C731 0.950 . S
H755 C733 0.950 . S
C756 C757 1.349 . S
C756 C758 1.327 . S
C756 H781 0.950 . S
C757 C756 1.349 . S
C757 C773 1.349 . S
C758 C756 1.327 . S
C758 C777 1.429 . S
C758 H782 0.950 . S
C759 C776 1.574 1_455 S
C759 C778 1.368 . S
C759 H783 0.949 . S
H760 C764 0.949 . S
C761 C762 1.349 . S
C761 C763 1.327 . S
C761 H784 0.950 . S
C762 C761 1.349 . S
C762 C774 1.349 . S
C763 C761 1.327 . S
C763 C779 1.429 . S
C763 H785 0.950 . S
C764 H760 0.949 . S
C764 C772 1.574 1_655 S
C764 C780 1.368 . S
H765 C773 0.950 . S
H766 C771 0.950 . S
H767 C772 0.949 . S
H768 C774 0.950 . S
H769 C775 0.950 . S
H770 C776 0.949 . S
C771 H766 0.950 . S
C771 C773 1.327 . S
C771 C777 1.429 . S
C772 C764 1.574 1_455 S
C772 H767 0.949 . S
C772 C778 1.368 . S
C773 C757 1.349 . S
C773 H765 0.950 . S
C773 C771 1.327 . S
C774 C762 1.349 . S
C774 H768 0.950 . S
C774 C775 1.327 . S
C775 H769 0.950 . S
C775 C774 1.327 . S
C775 C779 1.429 . S
C776 C759 1.574 1_655 S
C776 H770 0.949 . S
C776 C780 1.368 . S
C777 C758 1.429 . S
C777 C771 1.429 . S
C777 C778 1.523 . S
C778 C759 1.368 . S
C778 C772 1.368 . S
C778 C777 1.523 . S
C779 C763 1.429 . S
C779 C775 1.429 . S
C779 C780 1.523 . S
C780 C764 1.368 . S
C780 C776 1.368 . S
C780 C779 1.523 . S
H781 C756 0.950 . S
H782 C758 0.950 . S
H783 C759 0.949 . S
H784 C761 0.950 . S
H785 C763 0.950 . S
C786 C787 1.349 . S
C786 C788 1.327 . S
C786 H811 0.950 . S
C787 C786 1.349 . S
C787 C803 1.349 . S
C788 C786 1.327 . S
C788 C807 1.429 . S
C788 H812 0.950 . S
C789 C806 1.574 1_565 S
C789 C808 1.368 . S
C789 H813 0.949 . S
H790 C794 0.949 . S
C791 C792 1.349 . S
C791 C793 1.327 . S
C791 H814 0.950 . S
C792 C791 1.349 . S
C792 C804 1.349 . S
C793 C791 1.327 . S
C793 C809 1.429 . S
C793 H815 0.950 . S
C794 H790 0.949 . S
C794 C802 1.574 1_545 S
C794 C810 1.368 . S
H795 C803 0.950 . S
H796 C801 0.950 . S
H797 C802 0.949 . S
H798 C804 0.950 . S
H799 C805 0.950 . S
H800 C806 0.949 . S
C801 H796 0.950 . S
C801 C803 1.327 . S
C801 C807 1.429 . S
C802 C794 1.574 1_565 S
C802 H797 0.949 . S
C802 C808 1.368 . S
C803 C787 1.349 . S
C803 H795 0.950 . S
C803 C801 1.327 . S
C804 C792 1.349 . S
C804 H798 0.950 . S
C804 C805 1.327 . S
C805 H799 0.950 . S
C805 C804 1.327 . S
C805 C809 1.429 . S
C806 C789 1.574 1_545 S
C806 H800 0.949 . S
C806 C810 1.368 . S
C807 C788 1.429 . S
C807 C801 1.429 . S
C807 C808 1.523 . S
C808 C789 1.368 . S
C808 C802 1.368 . S
C808 C807 1.523 . S
C809 C793 1.429 . S
C809 C805 1.429 . S
C809 C810 1.523 . S
C810 C794 1.368 . S
C810 C806 1.368 . S
C810 C809 1.523 . S
H811 C786 0.950 . S
H812 C788 0.950 . S
H813 C789 0.949 . S
H814 C791 0.950 . S
H815 C793 0.950 . S
C816 C817 1.349 . S
C816 C818 1.327 . S
C816 H841 0.950 . S
C817 C816 1.349 . S
C817 C833 1.349 . S
C818 C816 1.327 . S
C818 C837 1.429 . S
C818 H842 0.950 . S
C819 C836 1.574 . S
C819 C838 1.368 . S
C819 H843 0.949 . S
H820 C824 0.949 . S
C821 C822 1.349 . S
C821 C823 1.327 . S
C821 H844 0.950 . S
C822 C821 1.349 . S
C822 C834 1.349 . S
C823 C821 1.327 . S
C823 C839 1.429 . S
C823 H845 0.950 . S
C824 H820 0.949 . S
C824 C832 1.574 . S
C824 C840 1.368 . S
H825 C833 0.950 . S
H826 C831 0.950 . S
H827 C832 0.949 . S
H828 C834 0.950 . S
H829 C835 0.950 . S
H830 C836 0.949 . S
C831 H826 0.950 . S
C831 C833 1.327 . S
C831 C837 1.429 . S
C832 C824 1.574 . S
C832 H827 0.949 . S
C832 C838 1.368 . S
C833 C817 1.349 . S
C833 H825 0.950 . S
C833 C831 1.327 . S
C834 C822 1.349 . S
C834 H828 0.950 . S
C834 C835 1.327 . S
C835 H829 0.950 . S
C835 C834 1.327 . S
C835 C839 1.429 . S
C836 C819 1.574 . S
C836 H830 0.949 . S
C836 C840 1.368 . S
C837 C818 1.429 . S
C837 C831 1.429 . S
C837 C838 1.523 . S
C838 C819 1.368 . S
C838 C832 1.368 . S
C838 C837 1.523 . S
C839 C823 1.429 . S
C839 C835 1.429 . S
C839 C840 1.523 . S
C840 C824 1.368 . S
C840 C836 1.368 . S
C840 C839 1.523 . S
H841 C816 0.950 . S
H842 C818 0.950 . S
H843 C819 0.949 . S
H844 C821 0.950 . S
H845 C823 0.950 . S
C846 C847 1.349 . S
C846 C848 1.327 . S
C846 H871 0.950 . S
C847 C846 1.349 . S
C847 C863 1.349 . S
C848 C846 1.327 . S
C848 C867 1.429 . S
C848 H872 0.950 . S
C849 C866 1.574 . S
C849 C868 1.368 . S
C849 H873 0.949 . S
H850 C854 0.949 . S
C851 C852 1.349 . S
C851 C853 1.327 . S
C851 H874 0.950 . S
C852 C851 1.349 . S
C852 C864 1.349 . S
C853 C851 1.327 . S
C853 C869 1.429 . S
C853 H875 0.950 . S
C854 H850 0.949 . S
C854 C862 1.574 . S
C854 C870 1.368 . S
H855 C863 0.950 . S
H856 C861 0.950 . S
H857 C862 0.949 . S
H858 C864 0.950 . S
H859 C865 0.950 . S
H860 C866 0.949 . S
C861 H856 0.950 . S
C861 C863 1.327 . S
C861 C867 1.429 . S
C862 C854 1.574 . S
C862 H857 0.949 . S
C862 C868 1.368 . S
C863 C847 1.349 . S
C863 H855 0.950 . S
C863 C861 1.327 . S
C864 C852 1.349 . S
C864 H858 0.950 . S
C864 C865 1.327 . S
C865 H859 0.950 . S
C865 C864 1.327 . S
C865 C869 1.429 . S
C866 C849 1.574 . S
C866 H860 0.949 . S
C866 C870 1.368 . S
C867 C848 1.429 . S
C867 C861 1.429 . S
C867 C868 1.523 . S
C868 C849 1.368 . S
C868 C862 1.368 . S
C868 C867 1.523 . S
C869 C853 1.429 . S
C869 C865 1.429 . S
C869 C870 1.523 . S
C870 C854 1.368 . S
C870 C866 1.368 . S
C870 C869 1.523 . S
H871 C846 0.950 . S
H872 C848 0.950 . S
H873 C849 0.949 . S
H874 C851 0.950 . S
H875 C853 0.950 . S
C876 C877 1.349 . S
C876 C878 1.327 . S
C876 H901 0.950 . S
C877 C876 1.349 . S
C877 C893 1.349 . S
C878 C876 1.327 . S
C878 C897 1.429 . S
C878 H902 0.950 . S
C879 C896 1.574 . S
C879 C898 1.368 . S
C879 H903 0.949 . S
H880 C884 0.949 . S
C881 C882 1.349 . S
C881 C883 1.327 . S
C881 H904 0.950 . S
C882 C881 1.349 . S
C882 C894 1.349 . S
C883 C881 1.327 . S
C883 C899 1.429 . S
C883 H905 0.950 . S
C884 H880 0.949 . S
C884 C892 1.574 . S
C884 C900 1.368 . S
H885 C893 0.950 . S
H886 C891 0.950 . S
H887 C892 0.949 . S
H888 C894 0.950 . S
H889 C895 0.950 . S
H890 C896 0.949 . S
C891 H886 0.950 . S
C891 C893 1.327 . S
C891 C897 1.429 . S
C892 C884 1.574 . S
C892 H887 0.949 . S
C892 C898 1.368 . S
C893 C877 1.349 . S
C893 H885 0.950 . S
C893 C891 1.327 . S
C894 C882 1.349 . S
C894 H888 0.950 . S
C894 C895 1.327 . S
C895 H889 0.950 . S
C895 C894 1.327 . S
C895 C899 1.429 . S
C896 C879 1.574 . S
C896 H890 0.949 . S
C896 C900 1.368 . S
C897 C878 1.429 . S
C897 C891 1.429 . S
C897 C898 1.523 . S
C898 C879 1.368 . S
C898 C892 1.368 . S
C898 C897 1.523 . S
C899 C883 1.429 . S
C899 C895 1.429 . S
C899 C900 1.523 . S
C900 C884 1.368 . S
C900 C896 1.368 . S
C900 C899 1.523 . S
H901 C876 0.950 . S
H902 C878 0.950 . S
H903 C879 0.949 . S
H904 C881 0.950 . S
H905 C883 0.950 . S
C906 C907 1.349 . S
C906 C908 1.327 . S
C906 H931 0.950 . S
C907 C906 1.349 . S
C907 C923 1.349 . S
C908 C906 1.327 . S
C908 C927 1.429 . S
C908 H932 0.950 . S
C909 C926 1.574 . S
C909 C928 1.368 . S
C909 H933 0.949 . S
H910 C914 0.949 . S
C911 C912 1.349 . S
C911 C913 1.327 . S
C911 H934 0.950 . S
C912 C911 1.349 . S
C912 C924 1.349 . S
C913 C911 1.327 . S
C913 C929 1.429 . S
C913 H935 0.950 . S
C914 H910 0.949 . S
C914 C922 1.574 . S
C914 C930 1.368 . S
H915 C923 0.950 . S
H916 C921 0.950 . S
H917 C922 0.949 . S
H918 C924 0.950 . S
H919 C925 0.950 . S
H920 C926 0.949 . S
C921 H916 0.950 . S
C921 C923 1.327 . S
C921 C927 1.429 . S
C922 C914 1.574 . S
C922 H917 0.949 . S
C922 C928 1.368 . S
C923 C907 1.349 . S
C923 H915 0.950 . S
C923 C921 1.327 . S
C924 C912 1.349 . S
C924 H918 0.950 . S
C924 C925 1.327 . S
C925 H919 0.950 . S
C925 C924 1.327 . S
C925 C929 1.429 . S
C926 C909 1.574 . S
C926 H920 0.949 . S
C926 C930 1.368 . S
C927 C908 1.429 . S
C927 C921 1.429 . S
C927 C928 1.523 . S
C928 C909 1.368 . S
C928 C922 1.368 . S
C928 C927 1.523 . S
C929 C913 1.429 . S
C929 C925 1.429 . S
C929 C930 1.523 . S
C930 C914 1.368 . S
C930 C926 1.368 . S
C930 C929 1.523 . S
H931 C906 0.950 . S
H932 C908 0.950 . S
H933 C909 0.949 . S
H934 C911 0.950 . S
H935 C913 0.950 . S
C936 C937 1.349 . S
C936 C938 1.327 . S
C936 H961 0.950 . S
C937 C936 1.349 . S
C937 C953 1.349 . S
C938 C936 1.327 . S
C938 C957 1.429 . S
C938 H962 0.950 . S
C939 C956 1.574 . S
C939 C958 1.368 . S
C939 H963 0.949 . S
H940 C944 0.949 . S
C941 C942 1.349 . S
C941 C943 1.327 . S
C941 H964 0.950 . S
C942 C941 1.349 . S
C942 C954 1.349 . S
C943 C941 1.327 . S
C943 C959 1.429 . S
C943 H965 0.950 . S
C944 H940 0.949 . S
C944 C952 1.574 . S
C944 C960 1.368 . S
H945 C953 0.950 . S
H946 C951 0.950 . S
H947 C952 0.949 . S
H948 C954 0.950 . S
H949 C955 0.950 . S
H950 C956 0.949 . S
C951 H946 0.950 . S
C951 C953 1.327 . S
C951 C957 1.429 . S
C952 C944 1.574 . S
C952 H947 0.949 . S
C952 C958 1.368 . S
C953 C937 1.349 . S
C953 H945 0.950 . S
C953 C951 1.327 . S
C954 C942 1.349 . S
C954 H948 0.950 . S
C954 C955 1.327 . S
C955 H949 0.950 . S
C955 C954 1.327 . S
C955 C959 1.429 . S
C956 C939 1.574 . S
C956 H950 0.949 . S
C956 C960 1.368 . S
C957 C938 1.429 . S
C957 C951 1.429 . S
C957 C958 1.523 . S
C958 C939 1.368 . S
C958 C952 1.368 . S
C958 C957 1.523 . S
C959 C943 1.429 . S
C959 C955 1.429 . S
C959 C960 1.523 . S
C960 C944 1.368 . S
C960 C956 1.368 . S
C960 C959 1.523 . S
H961 C936 0.950 . S
H962 C938 0.950 . S
H963 C939 0.949 . S
H964 C941 0.950 . S
H965 C943 0.950 . S
C966 C967 1.349 . S
C966 C968 1.327 . S
C966 H991 0.950 . S
C967 C966 1.349 . S
C967 C983 1.349 . S
C968 C966 1.327 . S
C968 C987 1.429 . S
C968 H992 0.950 . S
C969 C986 1.574 . S
C969 C988 1.368 . S
C969 H993 0.949 . S
H970 C974 0.949 . S
C971 C972 1.349 . S
C971 C973 1.327 . S
C971 H994 0.950 . S
C972 C971 1.349 . S
C972 C984 1.349 . S
C973 C971 1.327 . S
C973 C989 1.429 . S
C973 H995 0.950 . S
C974 H970 0.949 . S
C974 C982 1.574 . S
C974 C990 1.368 . S
H975 C983 0.950 . S
H976 C981 0.950 . S
H977 C982 0.949 . S
H978 C984 0.950 . S
H979 C985 0.950 . S
H980 C986 0.949 . S
C981 H976 0.950 . S
C981 C983 1.327 . S
C981 C987 1.429 . S
C982 C974 1.574 . S
C982 H977 0.949 . S
C982 C988 1.368 . S
C983 C967 1.349 . S
C983 H975 0.950 . S
C983 C981 1.327 . S
C984 C972 1.349 . S
C984 H978 0.950 . S
C984 C985 1.327 . S
C985 H979 0.950 . S
C985 C984 1.327 . S
C985 C989 1.429 . S
C986 C969 1.574 . S
C986 H980 0.949 . S
C986 C990 1.368 . S
C987 C968 1.429 . S
C987 C981 1.429 . S
C987 C988 1.523 . S
C988 C969 1.368 . S
C988 C982 1.368 . S
C988 C987 1.523 . S
C989 C973 1.429 . S
C989 C985 1.429 . S
C989 C990 1.523 . S
C990 C974 1.368 . S
C990 C986 1.368 . S
C990 C989 1.523 . S
H991 C966 0.950 . S
H992 C968 0.950 . S
H993 C969 0.949 . S
H994 C971 0.950 . S
H995 C973 0.950 . S
C277 C16 1.501 . S
C282 C154 1.501 . S
C307 C39 1.501 . S
C312 C177 1.501 . S
C337 C62 1.501 . S
C342 C200 1.501 . S
C367 C85 1.501 . S
C372 C223 1.501 . S
C397 C108 1.501 . S
C402 C246 1.501 . S
C427 C269 1.501 . S
C432 C131 1.501 . S
C457 N12 1.753 . S
C462 N242 1.753 . S
C487 N35 1.753 . S
C492 N265 1.753 . S
C517 N58 1.753 . S
C522 N150 1.753 . S
C547 N81 1.753 . S
C552 N173 1.753 . S
C577 N104 1.753 . S
C582 N196 1.753 . S
C607 N127 1.753 . S
C612 N219 1.753 . S
C637 N2 1.706 . S
C642 N71 1.706 . S
C667 N25 1.706 . S
C672 N94 1.706 . S
C697 N117 1.706 . S
C702 N48 1.706 . S
C727 N140 1.706 . S
C732 N209 1.706 . S
C757 N232 1.706 . S
C762 N163 1.706 . S
C787 N186 1.706 . S
C792 N255 1.706 . S
C817 C145 1.427 . S
C822 C7 1.427 1_556 S
C847 C30 1.427 . S
C852 C168 1.427 1_554 S
C877 C53 1.427 . S
C882 C191 1.427 . S
C907 C214 1.427 . S
C912 C76 1.427 1_556 S
C937 C237 1.427 1_554 S
C942 C99 1.427 . S
C967 C122 1.427 . S
C972 C260 1.427 . S
