# Generated by pormake.
# Topology lcy-e, (6)-cn, num edge types: 1
# Building blocks:
#     Node 0, Type 0, BuildingBlock: KUMJIN_clean_sbu_1, # of connection points: 6
#     Node 1, Type 0, BuildingBlock: KUMJIN_clean_sbu_1, # of connection points: 6
#     Node 2, Type 0, BuildingBlock: KUMJIN_clean_sbu_1, # of connection points: 6
#     Node 3, Type 0, BuildingBlock: KUMJIN_clean_sbu_1, # of connection points: 6
#     Node 4, Type 0, BuildingBlock: KUMJIN_clean_sbu_1, # of connection points: 6
#     Node 5, Type 0, BuildingBlock: KUMJIN_clean_sbu_1, # of connection points: 6
#     Node 6, Type 0, BuildingBlock: KUMJIN_clean_sbu_1, # of connection points: 6
#     Node 7, Type 0, BuildingBlock: KUMJIN_clean_sbu_1, # of connection points: 6
#     Node 8, Type 0, BuildingBlock: KUMJIN_clean_sbu_1, # of connection points: 6
#     Node 9, Type 0, BuildingBlock: KUMJIN_clean_sbu_1, # of connection points: 6
#     Node 10, Type 0, BuildingBlock: KUMJIN_clean_sbu_1, # of connection points: 6
#     Node 11, Type 0, BuildingBlock: KUMJIN_clean_sbu_1, # of connection points: 6
#     Edge 12, Type (0, 0), BuildingBlock: AJUNOK_clean_linker_0, # of connection points: 2
#     Edge 13, Type (0, 0), BuildingBlock: AJUNOK_clean_linker_0, # of connection points: 2
#     Edge 14, Type (0, 0), BuildingBlock: AJUNOK_clean_linker_0, # of connection points: 2
#     Edge 15, Type (0, 0), BuildingBlock: AJUNOK_clean_linker_0, # of connection points: 2
#     Edge 16, Type (0, 0), BuildingBlock: AJUNOK_clean_linker_0, # of connection points: 2
#     Edge 17, Type (0, 0), BuildingBlock: AJUNOK_clean_linker_0, # of connection points: 2
#     Edge 18, Type (0, 0), BuildingBlock: AJUNOK_clean_linker_0, # of connection points: 2
#     Edge 19, Type (0, 0), BuildingBlock: AJUNOK_clean_linker_0, # of connection points: 2
#     Edge 20, Type (0, 0), BuildingBlock: AJUNOK_clean_linker_0, # of connection points: 2
#     Edge 21, Type (0, 0), BuildingBlock: AJUNOK_clean_linker_0, # of connection points: 2
#     Edge 22, Type (0, 0), BuildingBlock: AJUNOK_clean_linker_0, # of connection points: 2
#     Edge 23, Type (0, 0), BuildingBlock: AJUNOK_clean_linker_0, # of connection points: 2
#     Edge 24, Type (0, 0), BuildingBlock: AJUNOK_clean_linker_0, # of connection points: 2
#     Edge 25, Type (0, 0), BuildingBlock: AJUNOK_clean_linker_0, # of connection points: 2
#     Edge 26, Type (0, 0), BuildingBlock: AJUNOK_clean_linker_0, # of connection points: 2
#     Edge 27, Type (0, 0), BuildingBlock: AJUNOK_clean_linker_0, # of connection points: 2
#     Edge 28, Type (0, 0), BuildingBlock: AJUNOK_clean_linker_0, # of connection points: 2
#     Edge 29, Type (0, 0), BuildingBlock: AJUNOK_clean_linker_0, # of connection points: 2
#     Edge 30, Type (0, 0), BuildingBlock: AJUNOK_clean_linker_0, # of connection points: 2
#     Edge 31, Type (0, 0), BuildingBlock: AJUNOK_clean_linker_0, # of connection points: 2
#     Edge 32, Type (0, 0), BuildingBlock: AJUNOK_clean_linker_0, # of connection points: 2
#     Edge 33, Type (0, 0), BuildingBlock: AJUNOK_clean_linker_0, # of connection points: 2
#     Edge 34, Type (0, 0), BuildingBlock: AJUNOK_clean_linker_0, # of connection points: 2
#     Edge 35, Type (0, 0), BuildingBlock: AJUNOK_clean_linker_0, # of connection points: 2
#     Edge 36, Type (0, 0), BuildingBlock: AJUNOK_clean_linker_0, # of connection points: 2
#     Edge 37, Type (0, 0), BuildingBlock: AJUNOK_clean_linker_0, # of connection points: 2
#     Edge 38, Type (0, 0), BuildingBlock: AJUNOK_clean_linker_0, # of connection points: 2
#     Edge 39, Type (0, 0), BuildingBlock: AJUNOK_clean_linker_0, # of connection points: 2
#     Edge 40, Type (0, 0), BuildingBlock: AJUNOK_clean_linker_0, # of connection points: 2
#     Edge 41, Type (0, 0), BuildingBlock: AJUNOK_clean_linker_0, # of connection points: 2
#     Edge 42, Type (0, 0), BuildingBlock: AJUNOK_clean_linker_0, # of connection points: 2
#     Edge 43, Type (0, 0), BuildingBlock: AJUNOK_clean_linker_0, # of connection points: 2
#     Edge 44, Type (0, 0), BuildingBlock: AJUNOK_clean_linker_0, # of connection points: 2
#     Edge 45, Type (0, 0), BuildingBlock: AJUNOK_clean_linker_0, # of connection points: 2
#     Edge 46, Type (0, 0), BuildingBlock: AJUNOK_clean_linker_0, # of connection points: 2
#     Edge 47, Type (0, 0), BuildingBlock: AJUNOK_clean_linker_0, # of connection points: 2
# Relax obj value: 0.092
# Max RMSD: 0.252
# Mean RMSD: 0.250
data_MOF--net-lcy-e--node1-KUMJIN_clean_sbu_1--edge1-AJUNOK_clean_linker_0
_symmetry_space_group_name_H-M    P1
_symmetry_Int_Tables_number       1
_symmetry_cell_setting            triclinic
loop_
_symmetry_equiv_pos_as_xyz
'x, y, z'
_cell_length_a     34.154132
_cell_length_b     33.842644
_cell_length_c     34.242721
_cell_angle_alpha  89.529101
_cell_angle_beta   89.713011
_cell_angle_gamma 89.875799
loop_
_atom_site_label
_atom_site_type_symbol
_atom_site_fract_x
_atom_site_fract_y
_atom_site_fract_z
_atom_type_partial_charge
Eu0 Eu 0.16822 0.22039 0.53381 0.0
C1 C 0.03466 0.32156 0.45445 0.0
N2 N 0.0629 0.29925 0.43721 0.0
C3 C 1.01574 0.27316 0.39266 0.0
C4 C 0.99524 0.31883 0.44267 0.0
C5 C 0.05442 0.27708 0.40521 0.0
C6 C 0.9859 0.29356 0.41193 0.0
C7 C 1.01685 0.37245 0.50093 0.0
C8 C 0.04539 0.34857 0.4828 0.0
C9 C 0.97737 0.36868 0.49033 0.0
C10 C 0.96661 0.34203 0.4612 0.0
Eu11 Eu 0.12674 0.30679 0.46247 0.0
N12 N 0.08377 0.3516 0.49264 0.0
C13 C 0.02885 0.3992 0.52942 0.0
C14 C 0.09591 0.37867 0.5192 0.0
C15 C 0.06855 0.40222 0.53852 0.0
H16 H 0.07742 0.26206 0.38938 0.0
H17 H 0.07823 0.4223 0.56063 0.0
H18 H 0.2353 0.2576 0.59597 0.0
H19 H 0.18024 0.09015 0.44234 0.0
H20 H 0.1265 0.38111 0.52653 0.0
H21 H 1.00776 0.41763 0.54448 0.0
H22 H 0.14639 0.14508 0.47618 0.0
H23 H 1.00902 0.25459 0.36801 0.0
H24 H 0.955 0.38656 0.50419 0.0
H25 H 0.93613 0.34001 0.45282 0.0
H26 H 0.30635 0.25318 0.60723 0.0
H27 H 0.95596 0.29058 0.40206 0.0
H28 H 0.25224 0.08329 0.4473 0.0
N29 N 0.23588 0.21711 0.54866 0.0
C30 C 0.25727 0.19012 0.52849 0.0
C31 C 0.29306 0.23584 0.58446 0.0
C32 C 0.29786 0.18579 0.53482 0.0
C33 C 0.25281 0.23865 0.57758 0.0
C34 C 0.31584 0.20983 0.56249 0.0
N35 N 0.19894 0.16949 0.49829 0.0
C36 C 0.17787 0.14233 0.47797 0.0
C37 C 0.25866 0.13432 0.48446 0.0
C38 C 0.2381 0.16502 0.50321 0.0
C39 C 0.23754 0.1074 0.46201 0.0
C40 C 0.1969 0.1112 0.45907 0.0
H41 H 0.34694 0.20745 0.56817 0.0
H42 H 0.35009 0.15302 0.51891 0.0
H43 H 0.31572 0.10787 0.47486 0.0
O44 O 0.12493 0.17777 0.55498 0.0
O45 O 0.18349 0.2225 0.47002 0.0
O46 O 0.19093 0.28813 0.46084 0.0
O47 O 0.17855 0.18548 0.58698 0.0
O48 O 0.10736 0.21595 0.50572 0.0
O49 O 0.11813 0.24335 0.44558 0.0
O50 O 0.13608 0.36488 0.43572 0.0
O51 O 0.09571 0.29545 0.52323 0.0
O52 O 0.14324 0.27141 0.56522 0.0
O53 O 0.13931 0.31266 0.39984 0.0
O54 O 0.17378 0.33056 0.5002 0.0
O55 O 0.19045 0.2847 0.54901 0.0
C56 C 0.20335 0.25201 0.45569 0.0
C57 C 0.12354 0.15978 0.62166 0.0
C58 C 0.08976 0.11342 0.66595 0.0
C59 C 0.08414 0.14493 0.69218 0.0
C60 C 0.11589 0.19071 0.6474 0.0
C61 C 0.09601 0.18326 0.68232 0.0
C62 C 0.1098 0.12148 0.63055 0.0
C63 C 0.10023 0.21762 0.46801 0.0
C64 C 0.14534 0.16672 0.58509 0.0
C65 C 0.31888 0.15664 0.51454 0.0
C66 C 0.2993 0.13087 0.48952 0.0
C67 C 0.10966 0.28881 0.55909 0.0
C68 C 0.12851 0.37401 0.36715 0.0
C69 C 0.14237 0.40639 0.30413 0.0
C70 C 0.10364 0.42089 0.30412 0.0
C71 C 0.09012 0.38855 0.36617 0.0
C72 C 0.15445 0.38265 0.33599 0.0
C73 C 0.07783 0.41187 0.33473 0.0
C74 C 0.19246 0.32075 0.53218 0.0
C75 C 0.14269 0.35097 0.40091 0.0
H76 H 0.07104 0.14023 0.72064 0.0
H77 H 0.12548 0.22047 0.6406 0.0
H78 H 0.08995 0.20736 0.70191 0.0
H79 H 0.11466 0.09812 0.60962 0.0
H80 H 0.09331 0.43967 0.28056 0.0
H81 H 0.06985 0.38215 0.38983 0.0
H82 H 0.18388 0.37065 0.33659 0.0
H83 H 0.04821 0.4233 0.3342 0.0
Eu84 Eu 0.07336 0.91981 0.79555 0.0
C85 C 0.96309 0.78816 0.7239 0.0
N86 N 0.98803 0.81383 0.70565 0.0
C87 C 1.01257 0.76147 0.66542 0.0
C88 C 0.9639 0.74746 0.71499 0.0
C89 C 1.01031 0.80153 0.67475 0.0
C90 C 0.98993 0.73418 0.68622 0.0
C91 C 0.90764 0.77671 0.76757 0.0
C92 C 0.9348 0.80267 0.74975 0.0
C93 C 0.90978 0.73607 0.76003 0.0
C94 C 0.93779 0.7215 0.73384 0.0
Eu95 Eu 0.98195 0.88044 0.72556 0.0
N96 N 0.93336 0.84216 0.75708 0.0
C97 C 0.87911 0.79237 0.79264 0.0
C98 C 0.90408 0.8578 0.77948 0.0
C99 C 0.8773 0.83312 0.79849 0.0
H100 H 0.02655 0.8225 0.6571 0.0
H101 H 0.85555 0.84563 0.81785 0.0
H102 H 0.02968 0.988 0.85537 0.0
H103 H 0.20296 0.93869 0.70409 0.0
H104 H 0.9024 0.88912 0.78374 0.0
H105 H 0.85828 0.77328 0.80746 0.0
H106 H 0.15102 0.90144 0.73935 0.0
H107 H 0.03141 0.75175 0.64184 0.0
H108 H 0.88947 0.71569 0.77386 0.0
H109 H 0.93841 0.69014 0.72766 0.0
H110 H 0.02781 0.05997 0.86239 0.0
H111 H 0.99147 0.70318 0.67866 0.0
H112 H 0.20353 1.01177 0.70611 0.0
N113 N 0.06955 0.989 0.80703 0.0
C114 C 0.09555 1.01158 0.78647 0.0
C115 C 0.04618 0.04684 0.84015 0.0
C116 C 0.09626 0.05307 0.79063 0.0
C117 C 0.0468 1.00586 0.83541 0.0
C118 C 0.07025 0.07065 0.81695 0.0
N119 N 0.12225 0.95316 0.7595 0.0
C120 C 0.15128 0.93339 0.74013 0.0
C121 C 0.15228 1.01549 0.74343 0.0
C122 C 0.12322 0.99311 0.76289 0.0
C123 C 0.18084 0.99559 0.72158 0.0
C124 C 0.18058 0.95434 0.72029 0.0
H125 H 0.06992 0.10236 0.82095 0.0
H126 H 0.12455 0.10747 0.7723 0.0
H127 H 0.17365 0.07456 0.7311 0.0
O128 O 0.12226 0.88285 0.8152 0.0
O129 O 0.07333 0.93249 0.73028 0.0
O130 O 1.00895 0.94192 0.71867 0.0
O131 O 0.10625 0.93463 0.84795 0.0
O132 O 0.07502 0.85812 0.76816 0.0
O133 O 0.04439 0.86656 0.70881 0.0
O134 O 0.92456 0.8985 0.7035 0.0
O135 O 0.98212 0.85521 0.78951 0.0
O136 O 0.03003 0.88314 0.82945 0.0
O137 O 0.97029 0.88381 0.6627 0.0
O138 O 0.98116 0.9389 0.75565 0.0
O139 O 1.00997 0.93654 0.81504 0.0
C140 C 0.04549 0.9527 0.71348 0.0
C141 C 0.1397 0.88318 0.88201 0.0
C142 C 0.18735 0.84444 0.9193 0.0
C143 C 0.16224 0.84625 0.95199 0.0
C144 C 0.11531 0.88472 0.91498 0.0
C145 C 0.1264 0.86605 0.94968 0.0
C146 C 0.17565 0.86296 0.88428 0.0
C147 C 0.07067 0.84928 0.73102 0.0
C148 C 0.12954 0.90424 0.84564 0.0
C149 C 0.12392 0.07559 0.76974 0.0
C150 C 0.15201 0.05684 0.7464 0.0
C151 C 0.9998 0.85974 0.82387 0.0
C152 C 0.92844 0.93679 0.64569 0.0
C153 C 0.90121 0.97428 0.59098 0.0
C154 C 0.91717 1.00904 0.60634 0.0
C155 C 0.94316 0.97229 0.66055 0.0
C156 C 0.90722 0.93788 0.61057 0.0
C157 C 0.9379 1.00798 0.641 0.0
C158 C 0.97875 0.94351 0.79313 0.0
C159 C 0.93556 0.89923 0.66704 0.0
H160 H 0.17073 0.83337 0.97972 0.0
H161 H 0.08817 0.90106 0.91406 0.0
H162 H 0.10754 0.86763 0.97512 0.0
H163 H 0.19474 0.86214 0.8589 0.0
H164 H 0.91343 0.0372 0.59151 0.0
H165 H 0.95812 0.97295 0.68773 0.0
H166 H 0.89496 0.91091 0.59899 0.0
H167 H 0.94968 0.03495 0.65295 0.0
Eu168 Eu 0.41247 0.71835 0.96741 0.0
C169 C 0.28704 0.8275 0.06272 0.0
N170 N 0.3122 0.83595 0.03303 0.0
C171 C 0.26341 0.87704 1.00282 0.0
C172 C 0.24832 0.84222 0.0627 0.0
C173 C 0.30173 0.86252 1.00473 0.0
C174 C 0.23625 0.866 0.03141 0.0
C175 C 0.27838 0.8048 0.12944 0.0
C176 C 0.30158 0.80855 0.09544 0.0
C177 C 0.23908 0.81707 0.1287 0.0
C178 C 0.22394 0.83538 0.0952 0.0
Eu179 Eu 0.3771 0.81138 0.03873 0.0
N180 N 0.33985 0.79797 0.09556 0.0
C181 C 0.29584 0.79042 0.16365 0.0
C182 C 0.3573 0.78521 0.12913 0.0
C183 C 0.33553 0.78056 0.16349 0.0
H184 H 0.32309 0.87296 0.98372 0.0
H185 H 0.34952 0.77012 0.18994 0.0
H186 H 0.49235 0.68393 1.01044 0.0
H187 H 0.3953 0.79636 0.82692 0.0
H188 H 0.38815 0.77899 0.1293 0.0
H189 H 0.27923 0.78795 0.19055 0.0
H190 H 0.37231 0.76319 0.88649 0.0
H191 H 0.25507 0.89738 0.97976 0.0
H192 H 0.22058 0.81372 0.15431 0.0
H193 H 0.19402 0.84611 0.09553 0.0
H194 H 0.5639 0.68015 0.99767 0.0
H195 H 0.20683 0.878 0.03035 0.0
H196 H 0.46603 0.79899 0.81162 0.0
N197 N 0.48048 0.71559 0.95846 0.0
C198 C 0.49457 0.73113 0.92444 0.0
C199 C 0.54474 0.69468 0.97694 0.0
C200 C 0.53499 0.72998 0.91597 0.0
C201 C 0.5045 0.69694 0.98428 0.0
C202 C 0.56008 0.71132 0.94266 0.0
N203 N 0.42959 0.75042 0.90777 0.0
C204 C 0.40333 0.7657 0.88171 0.0
C205 C 0.48286 0.76719 0.86402 0.0
C206 C 0.46858 0.74955 0.89876 0.0
C207 C 0.45618 0.78498 0.83847 0.0
C208 C 0.41625 0.78381 0.84715 0.0
H209 H 0.59132 0.70982 0.93718 0.0
H210 H 0.58016 0.74759 0.87477 0.0
H211 H 0.53461 0.78014 0.82936 0.0
O212 O 0.40959 0.67967 0.91734 0.0
O213 O 0.45409 0.76801 0.98295 0.0
O214 O 0.41207 0.82037 0.98236 0.0
O215 O 0.40915 0.65362 0.97499 0.0
O216 O 0.35413 0.749 0.95282 0.0
O217 O 0.36275 0.81306 0.97345 0.0
O218 O 0.41544 0.8406 0.08129 0.0
O219 O 0.35459 0.74897 0.05647 0.0
O220 O 0.35331 0.72501 0.99545 0.0
O221 O 0.38199 0.87539 0.04104 0.0
O222 O 0.43108 0.77383 0.0517 0.0
O223 O 0.42642 0.70859 0.03306 0.0
C224 C 0.44706 0.8055 0.97598 0.0
C225 C 0.3754 0.61918 0.92347 0.0
C226 C 0.33622 0.59187 0.86952 0.0
C227 C 0.32455 0.56106 0.89497 0.0
C228 C 0.36346 0.58768 0.9474 0.0
C229 C 0.33698 0.55989 0.93363 0.0
C230 C 0.36072 0.6217 0.88484 0.0
C231 C 0.34304 0.78655 0.95377 0.0
C232 C 0.4055 0.64738 0.93755 0.0
C233 C 0.54914 0.74785 0.88158 0.0
C234 C 0.52319 0.76647 0.85576 0.0
C235 C 0.34693 0.71962 0.03257 0.0
C236 C 0.3935 0.90407 0.10163 0.0
C237 C 0.40589 0.96491 0.13758 0.0
C238 C 0.36616 0.96577 0.14844 0.0
C239 C 0.3545 0.9047 0.11469 0.0
C240 C 0.41952 0.93375 0.11394 0.0
C241 C 0.34097 0.93541 0.13794 0.0
C242 C 0.4333 0.73578 0.06011 0.0
C243 C 0.40512 0.8761 0.0709 0.0
H244 H 0.30628 0.53709 0.8851 0.0
H245 H 0.37455 0.58453 0.97683 0.0
H246 H 0.32636 0.5368 0.95282 0.0
H247 H 0.36862 0.64691 0.86699 0.0
H248 H 0.35445 0.99013 0.165 0.0
H249 H 0.33401 0.88252 0.10536 0.0
H250 H 0.44959 0.93366 0.10368 0.0
H251 H 0.31054 0.93628 0.14692 0.0
Eu252 Eu 0.46857 0.12043 0.29251 0.0
C253 C 0.59016 0.24459 0.21226 0.0
N254 N 0.56409 0.21958 0.19542 0.0
C255 C 0.54688 0.26929 0.14822 0.0
C256 C 0.59404 0.28384 0.19845 0.0
C257 C 0.54441 0.23056 0.16241 0.0
C258 C 0.57124 0.29626 0.16675 0.0
C259 C 0.64311 0.25581 0.2583 0.0
C260 C 0.6147 0.23061 0.24204 0.0
C261 C 0.64586 0.29517 0.24538 0.0
C262 C 0.62137 0.30915 0.21568 0.0
Eu263 Eu 0.56286 0.15556 0.22287 0.0
N264 N 0.61147 0.19244 0.25466 0.0
C265 C 0.66779 0.24083 0.28746 0.0
C266 C 0.63663 0.1773 0.28185 0.0
C267 C 0.66431 0.20148 0.2994 0.0
H268 H 0.5263 0.20951 0.14727 0.0
H269 H 0.6826 0.18971 0.32238 0.0
H270 H 0.50396 0.04794 0.35204 0.0
H271 H 0.33564 0.11513 0.20601 0.0
H272 H 0.63382 0.14723 0.29146 0.0
H273 H 0.68943 0.2595 0.3011 0.0
H274 H 0.3918 0.14652 0.23922 0.0
H275 H 0.53022 0.27823 0.12282 0.0
H276 H 0.66718 0.31498 0.25794 0.0
H277 H 0.62441 0.33943 0.20561 0.0
H278 H 0.50134 0.9757 0.35826 0.0
H279 H 0.57331 0.3262 0.15547 0.0
H280 H 0.32865 0.04244 0.20738 0.0
N281 N 0.46636 0.05076 0.3027 0.0
C282 C 0.43927 0.03073 0.28179 0.0
C283 C 0.48455 0.99061 0.33583 0.0
C284 C 0.43493 0.9894 0.28613 0.0
C285 C 0.4868 0.03164 0.33144 0.0
C286 C 0.45918 0.96921 0.31235 0.0
N287 N 0.41715 0.09188 0.2567 0.0
C288 C 0.38915 0.11467 0.23913 0.0
C289 C 0.38149 0.0329 0.24097 0.0
C290 C 0.41323 0.05204 0.25894 0.0
C291 C 0.35365 0.05595 0.22127 0.0
C292 C 0.35741 0.09703 0.22051 0.0
H293 H 0.45677 0.93752 0.31646 0.0
H294 H 0.40096 0.93827 0.26953 0.0
H295 H 0.35307 0.9765 0.23181 0.0
O296 O 0.42465 0.16246 0.31306 0.0
O297 O 0.46742 0.1175 0.22657 0.0
O298 O 0.5289 0.09944 0.20842 0.0
O299 O 0.43534 0.10896 0.34618 0.0
O300 O 0.4745 0.1846 0.2717 0.0
O301 O 0.50288 0.1811 0.21052 0.0
O302 O 0.62098 0.13508 0.20552 0.0
O303 O 0.55883 0.182 0.28585 0.0
O304 O 0.51803 0.14487 0.32725 0.0
O305 O 0.57835 0.1492 0.16107 0.0
O306 O 0.5591 0.09544 0.25047 0.0
O307 O 0.52978 0.09709 0.30968 0.0
C308 C 0.49086 0.09473 0.20663 0.0
C309 C 0.40881 0.16415 0.38019 0.0
C310 C 0.36156 0.20122 0.41938 0.0
C311 C 0.38833 0.20064 0.45057 0.0
C312 C 0.43505 0.16363 0.41153 0.0
C313 C 0.42498 0.18245 0.4464 0.0
C314 C 0.37321 0.18447 0.3837 0.0
C315 C 0.48218 0.19998 0.23696 0.0
C316 C 0.4159 0.142 0.34411 0.0
C317 C 0.40479 0.96992 0.26641 0.0
C318 C 0.37765 0.99172 0.24461 0.0
C319 C 0.54411 0.1728 0.32096 0.0
C320 C 0.61916 0.09395 0.15025 0.0
C321 C 0.64399 0.0536 0.09665 0.0
C322 C 0.63047 0.01957 0.11623 0.0
C323 C 0.60607 0.05932 0.16907 0.0
C324 C 0.63817 0.09099 0.11379 0.0
C325 C 0.61168 0.02249 0.15218 0.0
C326 C 0.5606 0.08876 0.28771 0.0
C327 C 0.61213 0.13278 0.16857 0.0
H328 H 0.38066 0.21324 0.47855 0.0
H329 H 0.46292 0.14847 0.40921 0.0
H330 H 0.44519 0.18199 0.47065 0.0
H331 H 0.35424 0.18628 0.3585 0.0
H332 H 0.63418 0.99059 0.1035 0.0
H333 H 0.5915 0.0604 0.19692 0.0
H334 H 0.64866 0.11745 0.09912 0.0
H335 H 0.60134 0.99611 0.16702 0.0
Eu336 Eu 0.65469 0.31893 0.48401 0.0
C337 C 0.54126 0.19224 0.56286 0.0
N338 N 0.5629 0.22029 0.58104 0.0
C339 C 0.50731 0.23823 0.62024 0.0
C340 C 0.50081 0.18837 0.57075 0.0
C341 C 0.54737 0.24046 0.6119 0.0
C342 C 0.48365 0.21304 0.59864 0.0
C343 C 0.53937 0.13191 0.5249 0.0
C344 C 0.5603 0.16429 0.53992 0.0
C345 C 0.4986 0.13006 0.52994 0.0
C346 C 0.47932 0.15835 0.55266 0.0
Eu347 Eu 0.62946 0.22356 0.56125 0.0
N348 N 0.59981 0.16676 0.53518 0.0
C349 C 0.5603 0.10136 0.50693 0.0
C350 C 0.6205 0.13598 0.51987 0.0
C351 C 0.60114 0.10296 0.50541 0.0
H352 H 0.56571 0.25914 0.62955 0.0
H353 H 0.61784 0.07865 0.49348 0.0
H354 H 0.70997 0.28534 0.40776 0.0
H355 H 0.69626 0.44922 0.56876 0.0
H356 H 0.6519 0.13673 0.51933 0.0
H357 H 0.54534 0.07572 0.49558 0.0
H358 H 0.65062 0.40303 0.53723 0.0
H359 H 0.49479 0.25569 0.64353 0.0
H360 H 0.48194 0.1059 0.51781 0.0
H361 H 0.44811 0.15549 0.55778 0.0
H362 H 0.78005 0.28078 0.38975 0.0
H363 H 0.45269 0.21106 0.60544 0.0
H364 H 0.76756 0.43669 0.56611 0.0
N365 N 0.72091 0.31297 0.46239 0.0
C366 C 0.74788 0.33258 0.48398 0.0
C367 C 0.7714 0.29409 0.41704 0.0
C368 C 0.78823 0.33018 0.47486 0.0
C369 C 0.73182 0.29674 0.42746 0.0
C370 C 0.79983 0.30924 0.44176 0.0
N371 N 0.69576 0.36504 0.51616 0.0
C372 C 0.68181 0.39794 0.53482 0.0
C373 C 0.76195 0.3848 0.53 0.0
C374 C 0.73491 0.35977 0.51132 0.0
C375 C 0.74772 0.41668 0.55165 0.0
C376 C 0.70752 0.42401 0.55299 0.0
H377 H 0.83043 0.30724 0.43344 0.0
H378 H 0.84651 0.34939 0.49071 0.0
H379 H 0.82341 0.39724 0.53922 0.0
O380 O 0.63122 0.37769 0.47155 0.0
O381 O 0.66214 0.32358 0.55038 0.0
O382 O 0.68302 0.26227 0.5701 0.0
O383 O 0.6491 0.34173 0.4238 0.0
O384 O 0.59346 0.3143 0.5106 0.0
O385 O 0.60045 0.28372 0.57116 0.0
O386 O 0.66186 0.1733 0.58544 0.0
O387 O 0.61178 0.21476 0.49657 0.0
O388 O 0.60348 0.27807 0.47071 0.0
O389 O 0.63463 0.21489 0.62449 0.0
O390 O 0.68486 0.23638 0.52732 0.0
O391 O 0.67711 0.2569 0.46556 0.0
C392 C 0.68384 0.3009 0.57304 0.0
C393 C 0.59683 0.38764 0.4136 0.0
C394 C 0.55891 0.44037 0.38158 0.0
C395 C 0.52751 0.41372 0.37795 0.0
C396 C 0.56427 0.36263 0.4115 0.0
C397 C 0.53013 0.37538 0.3931 0.0
C398 C 0.59374 0.42675 0.39943 0.0
C399 C 0.57994 0.30446 0.54557 0.0
C400 C 0.63269 0.37478 0.43404 0.0
C401 C 0.8154 0.35167 0.49676 0.0
C402 C 0.80225 0.379 0.52431 0.0
C403 C 0.60148 0.23928 0.46777 0.0
C404 C 0.64359 0.14959 0.64802 0.0
C405 C 0.65513 0.11053 0.70739 0.0
C406 C 0.62221 0.08745 0.69829 0.0
C407 C 0.6107 0.12645 0.63986 0.0
C408 C 0.66598 0.14141 0.68168 0.0
C409 C 0.60024 0.09542 0.66484 0.0
C410 C 0.6888 0.22921 0.49022 0.0
C411 C 0.65477 0.18229 0.62167 0.0
H412 H 0.50063 0.42263 0.3637 0.0
H413 H 0.56495 0.33348 0.42459 0.0
H414 H 0.50536 0.35562 0.39103 0.0
H415 H 0.61801 0.44677 0.4037 0.0
H416 H 0.61356 0.06303 0.71706 0.0
H417 H 0.5932 0.13233 0.61418 0.0
H418 H 0.69133 0.15939 0.68816 0.0
H419 H 0.57494 0.07748 0.65828 0.0
Eu420 Eu 0.04974 0.35345 0.80666 0.0
C421 C 0.9622 0.49855 0.72593 0.0
N422 N 0.94793 0.46917 0.74924 0.0
C423 C 0.90735 0.51589 0.78294 0.0
C424 C 0.95158 0.53834 0.73233 0.0
C425 C 0.91947 0.47705 0.77619 0.0
C426 C 0.92431 0.5468 0.76171 0.0
C427 C 0.99873 0.51852 0.66805 0.0
C428 C 0.98498 0.48868 0.69364 0.0
C429 C 0.99057 0.55832 0.67608 0.0
C430 C 0.96692 0.5682 0.70805 0.0
Eu431 Eu 0.97042 0.40482 0.73433 0.0
N432 N 0.99203 0.44988 0.68608 0.0
C433 C 0.01916 0.50742 0.63438 0.0
C434 C 1.01068 0.43879 0.65258 0.0
C435 C 0.02439 0.46743 0.62629 0.0
H436 H 0.90635 0.45335 0.79299 0.0
H437 H 0.03875 0.45877 0.59963 0.0
H438 H 0.11241 0.2929 0.76065 0.0
H439 H 0.96989 0.32478 0.94226 0.0
H440 H 1.01513 0.40798 0.64604 0.0
H441 H 0.02997 0.52942 0.61386 0.0
H442 H 0.9993 0.36581 0.88943 0.0
H443 H 0.88516 0.52198 0.80475 0.0
H444 H 1.00129 0.58161 0.65696 0.0
H445 H 0.95959 0.59894 0.71299 0.0
H446 H 0.12791 0.22159 0.75833 0.0
H447 H 0.91503 0.57689 0.7672 0.0
H448 H 0.97407 0.25183 0.93906 0.0
N449 N 0.06664 0.28586 0.8024 0.0
C450 C 0.04804 0.26082 0.82745 0.0
C451 C 0.10463 0.23209 0.77715 0.0
C452 C 0.05572 0.21985 0.82695 0.0
C453 C 0.09568 0.2724 0.7784 0.0
C454 C 0.08378 0.20552 0.80068 0.0
N455 N 0.0187 0.31637 0.85672 0.0
C456 C 1.00116 0.33393 0.8881 0.0
C457 C 1.00725 0.25205 0.885 0.0
C458 C 0.02382 0.27662 0.85589 0.0
C459 C 0.98705 0.26967 0.916 0.0
C460 C 0.98464 0.31085 0.91794 0.0
H461 H 0.09082 0.17432 0.79961 0.0
H462 H 0.04186 0.16327 0.85371 0.0
H463 H 0.99948 0.19151 0.90466 0.0
O464 O 0.07125 0.3889 0.85498 0.0
O465 O 0.98472 0.34364 0.81209 0.0
O466 O 0.96947 0.3387 0.7487 0.0
O467 O 0.10843 0.34363 0.83064 0.0
O468 O 0.03208 0.41807 0.81326 0.0
O469 O 0.96731 0.41517 0.79962 0.0
O470 O 0.92771 0.4101 0.68583 0.0
O471 O 0.0345 0.43084 0.73456 0.0
O472 O 0.07737 0.38105 0.75455 0.0
O473 O 0.91248 0.37914 0.73906 0.0
O474 O 1.006 0.36134 0.70044 0.0
O475 O 0.0549 0.33393 0.74065 0.0
C476 C 0.96652 0.32515 0.78445 0.0
C477 C 0.13919 0.39814 0.86218 0.0
C478 C 0.18024 0.43518 0.90803 0.0
C479 C 0.20533 0.44465 0.87639 0.0
C480 C 0.16409 0.40889 0.83134 0.0
C481 C 0.19657 0.4326 0.83843 0.0
C482 C 0.14637 0.4127 0.89989 0.0
C483 C 0.99636 0.43123 0.81853 0.0
C484 C 0.10535 0.37192 0.8561 0.0
C485 C 0.0368 0.19487 0.854 0.0
C486 C 1.0127 0.21096 0.88307 0.0
C487 C 0.0705 0.41559 0.73853 0.0
C488 C 0.85891 0.40024 0.70095 0.0
C489 C 0.7935 0.38247 0.67649 0.0
C490 C 0.77703 0.40601 0.7062 0.0
C491 C 0.84114 0.42408 0.7292 0.0
C492 C 0.83499 0.38047 0.67378 0.0
C493 C 0.80061 0.42718 0.73157 0.0
C494 C 0.03633 0.33803 0.70621 0.0
C495 C 0.90095 0.38974 0.70435 0.0
H496 H 0.23196 0.46127 0.88071 0.0
H497 H 0.1584 0.39903 0.8019 0.0
H498 H 0.21526 0.44141 0.81435 0.0
H499 H 0.12491 0.40665 0.92243 0.0
H500 H 0.74569 0.40763 0.71067 0.0
H501 H 0.85833 0.43889 0.75072 0.0
H502 H 0.849 0.36302 0.65137 0.0
H503 H 0.78733 0.44499 0.7542 0.0
Eu504 Eu 0.87532 0.70733 0.98615 0.0
C505 C 0.98386 0.83253 0.07889 0.0
N506 N 0.96122 0.80139 0.09058 0.0
C507 C 1.01176 0.77967 0.13446 0.0
C508 C 0.02218 0.83715 0.09369 0.0
C509 C 0.97351 0.77733 0.1205 0.0
C510 C 0.03652 0.80921 0.12035 0.0
C511 C 0.98862 0.89754 0.04822 0.0
C512 C 0.96763 0.8622 0.05526 0.0
C513 C 0.02728 0.90102 0.06133 0.0
C514 C 0.04419 0.87068 0.08349 0.0
Eu515 Eu 0.89743 0.80104 0.06324 0.0
N516 N 0.93028 0.85829 0.04202 0.0
C517 C 0.96977 0.92893 0.02904 0.0
C518 C 0.91174 0.88896 0.02368 0.0
C519 C 0.93118 0.92458 0.01669 0.0
H520 H 0.95389 0.75633 0.13417 0.0
H521 H 0.91623 0.94879 1.00222 0.0
H522 H 0.80224 0.74697 0.92876 0.0
H523 H 0.87006 0.56797 0.06657 0.0
H524 H 0.88157 0.88641 1.01567 0.0
H525 H 0.98476 0.95664 0.02366 0.0
H526 H 0.90148 0.626 0.03493 0.0
H527 H 0.02171 0.75941 0.15695 0.0
H528 H 0.04404 0.92756 0.05533 0.0
H529 H 0.07371 0.87437 0.09432 0.0
H530 H 0.73068 0.7443 0.92486 0.0
H531 H 0.06583 0.81163 0.13205 0.0
H532 H 0.79779 0.56302 0.06878 0.0
N533 N 0.80618 0.70616 0.97655 0.0
C534 C 0.78657 0.67761 0.99702 0.0
C535 C 0.74595 0.72616 0.94606 0.0
C536 C 0.74546 0.67403 0.99441 0.0
C537 C 0.7867 0.72827 0.94918 0.0
C538 C 0.72511 0.69971 0.96955 0.0
N539 N 0.84742 0.65299 0.01949 0.0
C540 C 0.86992 0.62357 0.03537 0.0
C541 C 0.78869 0.61761 0.03657 0.0
C542 C 0.80782 0.64966 0.01811 0.0
C543 C 0.81143 0.58818 0.05448 0.0
C544 C 0.85224 0.59085 0.0533 0.0
H545 H 0.69359 0.69782 0.96665 0.0
H546 H 0.69453 0.64093 1.01367 0.0
H547 H 0.73243 0.59146 0.05048 0.0
O548 O 0.91444 0.65995 0.96664 0.0
O549 O 0.86057 0.7018 0.05172 0.0
O550 O 0.84211 0.76379 0.07163 0.0
O551 O 0.86677 0.67827 0.92976 0.0
O552 O 0.9346 0.71222 0.01657 0.0
O553 O 0.92077 0.73972 0.07668 0.0
O554 O 0.86273 0.85132 0.08342 0.0
O555 O 0.92553 0.80997 1.00091 0.0
O556 O 0.91424 0.75497 0.96074 0.0
O557 O 0.88872 0.81181 0.12575 0.0
O558 O 0.84555 0.78729 0.02616 0.0
O559 O 0.8549 0.76906 0.96474 0.0
C560 C 0.839 0.72504 0.0739 0.0
C561 C 0.9199 0.64317 0.89965 0.0
C562 C 0.95519 0.59158 0.86334 0.0
C563 C 0.96103 0.61911 0.83274 0.0
C564 C 0.92611 0.66976 0.86869 0.0
C565 C 0.94694 0.65781 0.83563 0.0
C566 C 0.93517 0.60446 0.89718 0.0
C567 C 0.94095 0.71557 0.05431 0.0
C568 C 0.89615 0.65406 0.93412 0.0
C569 C 0.7261 0.64371 1.01499 0.0
C570 C 0.74768 0.61546 0.03586 0.0
C571 C 0.9301 0.78984 0.96755 0.0
C572 C 0.87802 0.87804 0.14528 0.0
C573 C 0.86661 0.91683 0.20433 0.0
C574 C 0.89685 0.94251 0.19262 0.0
C575 C 0.9079 0.90429 0.13434 0.0
C576 C 0.85714 0.88455 0.18033 0.0
C577 C 0.91722 0.93629 0.15784 0.0
C578 C 0.8437 0.79643 0.98945 0.0
C579 C 0.86838 0.84402 0.12039 0.0
H580 H 0.97573 0.61058 0.80601 0.0
H581 H 0.91456 0.69954 0.86987 0.0
H582 H 0.95165 0.67844 0.81179 0.0
H583 H 0.93112 0.58446 0.92171 0.0
H584 H 0.90453 0.9677 0.21033 0.0
H585 H 0.924 0.90028 0.10761 0.0
H586 H 0.83406 0.86436 0.18911 0.0
H587 H 0.94033 0.95636 0.14905 0.0
Eu588 Eu 0.46975 0.67611 0.31595 0.0
C589 C 0.53307 0.57417 0.16684 0.0
N590 N 0.54101 0.57644 0.20557 0.0
C591 C 0.541 0.50573 0.21086 0.0
C592 C 0.5278 0.53726 0.14874 0.0
C593 C 0.54622 0.54297 0.2274 0.0
C594 C 0.5314 0.50286 0.1714 0.0
C595 C 0.52477 0.60738 0.10448 0.0
C596 C 0.53101 0.60885 0.14507 0.0
C597 C 0.51845 0.57081 0.08649 0.0
C598 C 0.51977 0.53584 0.10861 0.0
Eu599 Eu 0.54795 0.64078 0.23098 0.0
N600 N 0.53704 0.64386 0.16317 0.0
C601 C 0.52631 0.64259 0.08294 0.0
C602 C 0.53926 0.67828 0.14227 0.0
C603 C 0.53395 0.67819 0.10179 0.0
H604 H 0.55374 0.54498 0.25764 0.0
H605 H 0.53575 0.70548 0.08519 0.0
H606 H 0.41017 0.7384 0.26206 0.0
H607 H 0.55038 0.71109 0.44758 0.0
H608 H 0.5457 0.7057 0.15689 0.0
H609 H 0.52272 0.6422 0.05165 0.0
H610 H 0.52143 0.66778 0.39732 0.0
H611 H 0.54444 0.47929 0.22852 0.0
H612 H 0.5132 0.5692 0.05536 0.0
H613 H 0.51535 0.50779 0.09425 0.0
H614 H 0.40328 0.80938 0.25005 0.0
H615 H 0.52748 0.47396 0.1586 0.0
H616 H 0.54569 0.78377 0.44034 0.0
N617 N 0.4562 0.74439 0.30382 0.0
C618 C 0.47469 0.77017 0.32784 0.0
C619 C 0.42401 0.79878 0.27156 0.0
C620 C 0.46961 0.81142 0.32345 0.0
C621 C 0.42896 0.75821 0.27782 0.0
C622 C 0.44503 0.82554 0.29393 0.0
N623 N 0.50156 0.71568 0.36218 0.0
C624 C 0.5194 0.69955 0.39418 0.0
C625 C 0.51308 0.78116 0.38631 0.0
C626 C 0.49677 0.75536 0.35863 0.0
C627 C 0.5328 0.76493 0.41846 0.0
C628 C 0.53563 0.72392 0.42259 0.0
H629 H 0.44059 0.85698 0.28948 0.0
H630 H 0.48447 0.86896 0.34639 0.0
H631 H 0.5222 0.84244 0.40165 0.0
O632 O 0.45124 0.64379 0.36877 0.0
O633 O 0.53583 0.68877 0.31649 0.0
O634 O 0.54688 0.70369 0.25309 0.0
O635 O 0.41384 0.68915 0.34517 0.0
O636 O 0.49631 0.61483 0.32362 0.0
O637 O 0.55613 0.61344 0.29117 0.0
O638 O 0.5994 0.64901 0.1924 0.0
O639 O 0.49048 0.60354 0.23451 0.0
O640 O 0.44233 0.63377 0.27362 0.0
O641 O 0.6071 0.6393 0.25462 0.0
O642 O 0.51122 0.69561 0.22533 0.0
O643 O 0.45072 0.68472 0.25124 0.0
C644 C 0.55261 0.71155 0.29004 0.0
C645 C 0.38402 0.64079 0.388 0.0
C646 C 0.35149 0.60375 0.4414 0.0
C647 C 0.31783 0.60132 0.41807 0.0
C648 C 0.34949 0.63871 0.36616 0.0
C649 C 0.31677 0.61895 0.38108 0.0
C650 C 0.38475 0.62349 0.4259 0.0
C651 C 0.53082 0.59874 0.31649 0.0
C652 C 0.41855 0.66297 0.37291 0.0
C653 C 0.48781 0.83725 0.34959 0.0
C654 C 0.50916 0.82216 0.38116 0.0
C655 C 0.45408 0.60643 0.24881 0.0
C656 C 0.6652 0.63429 0.21448 0.0
C657 C 0.72972 0.64726 0.18408 0.0
C658 C 0.74611 0.61976 0.21057 0.0
C659 C 0.68265 0.60654 0.23953 0.0
C660 C 0.68869 0.65388 0.18613 0.0
C661 C 0.72274 0.59925 0.2374 0.0
C662 C 0.47339 0.6937 0.22096 0.0
C663 C 0.62408 0.64699 0.22112 0.0
H664 H 0.29181 0.58653 0.42884 0.0
H665 H 0.34773 0.65233 0.33748 0.0
H666 H 0.2903 0.61741 0.36391 0.0
H667 H 0.41108 0.62557 0.44328 0.0
H668 H 0.77734 0.61433 0.21121 0.0
H669 H 0.66551 0.59128 0.26157 0.0
H670 H 0.67481 0.67446 0.16618 0.0
H671 H 0.73601 0.57826 0.25738 0.0
Eu672 Eu 0.30613 0.46373 0.10728 0.0
C673 C 0.23904 0.61408 0.20146 0.0
N674 N 0.23282 0.5747 0.19791 0.0
C675 C 0.22565 0.56807 0.26734 0.0
C676 C 0.23995 0.63189 0.23854 0.0
C677 C 0.22435 0.55196 0.22991 0.0
C678 C 0.23401 0.60816 0.27173 0.0
C679 C 0.24548 0.67832 0.17039 0.0
C680 C 0.24221 0.63694 0.16781 0.0
C681 C 0.24744 0.6961 0.20725 0.0
C682 C 0.24505 0.67292 0.24125 0.0
Eu683 Eu 0.22783 0.55055 0.13375 0.0
N684 N 0.2398 0.61904 0.13258 0.0
C685 C 0.24548 0.70065 0.13583 0.0
C686 C 0.23949 0.64076 0.09879 0.0
C687 C 0.24257 0.68186 0.09989 0.0
H688 H 0.2164 0.52151 0.22644 0.0
H689 H 0.24217 0.69904 0.07308 0.0
H690 H 0.37583 0.50524 0.0497 0.0
H691 H 0.2265 0.32752 0.08169 0.0
H692 H 0.23583 0.62641 0.07097 0.0
H693 H 0.24664 0.73239 0.1366 0.0
H694 H 0.2527 0.38298 0.12068 0.0
H695 H 0.21975 0.54968 0.2927 0.0
H696 H 0.24993 0.72781 0.20985 0.0
H697 H 0.2459 0.68715 0.26946 0.0
H698 H 0.39753 0.50296 0.98111 0.0
H699 H 0.23459 0.62071 0.30073 0.0
H700 H 0.23749 0.32628 1.01018 0.0
N701 N 0.32888 0.46474 0.04179 0.0
C702 C 0.31214 0.43826 0.01737 0.0
C703 C 0.37302 0.4851 0.99076 0.0
C704 C 0.3238 0.43584 0.97786 0.0
C705 C 0.36006 0.48689 0.0295 0.0
C706 C 0.35414 0.46024 0.96454 0.0
N707 N 0.27724 0.41246 0.07142 0.0
C708 C 0.25748 0.38232 0.08943 0.0
C709 C 0.27122 0.3804 1.00931 0.0
C710 C 0.28603 0.41091 0.03278 0.0
C711 C 0.2491 0.35042 0.02714 0.0
C712 C 0.24283 0.351 0.06752 0.0
H713 H 0.36418 0.45906 0.93449 0.0
H714 H 0.31453 0.40588 0.92295 0.0
H715 H 0.26849 0.3572 0.95058 0.0
O716 O 0.32383 0.41983 0.15103 0.0
O717 O 0.24277 0.46133 0.08698 0.0
O718 O 0.23019 0.52556 0.07217 0.0
O719 O 0.36174 0.43179 0.10192 0.0
O720 O 0.27325 0.4598 0.16579 0.0
O721 O 0.21385 0.48762 0.15083 0.0
O722 O 0.17945 0.58489 0.10962 0.0
O723 O 0.28365 0.54556 0.17403 0.0
O724 O 0.33248 0.51502 0.13738 0.0
O725 O 0.16686 0.53796 0.15054 0.0
O726 O 0.26454 0.55753 0.0794 0.0
O727 O 0.32416 0.52874 0.09113 0.0
C728 C 0.2273 0.48794 0.06374 0.0
C729 C 0.39109 0.40607 0.15954 0.0
C730 C 0.43413 0.36095 0.19579 0.0
C731 C 0.45653 0.39369 0.20734 0.0
C732 C 0.41338 0.43827 0.17195 0.0
C733 C 0.44594 0.43201 0.19577 0.0
C734 C 0.40136 0.36763 0.17169 0.0
C735 C 0.2355 0.46429 0.17245 0.0
C736 C 0.35691 0.41156 0.13404 0.0
C737 C 0.3065 0.40763 0.95355 0.0
C738 C 0.28033 0.37987 0.96928 0.0
C739 C 0.32101 0.53504 0.168 0.0
C740 C 0.12297 0.59315 0.14763 0.0
C741 C 0.06459 0.63486 0.1404 0.0
C742 C 0.06936 0.64723 0.17924 0.0
C743 C 0.12685 0.60572 0.18632 0.0
C744 C 0.0919 0.60793 0.1247 0.0
C745 C 0.10013 0.63262 0.20196 0.0
C746 C 0.30267 0.55951 0.07964 0.0
C747 C 0.15249 0.567 0.12971 0.0
H748 H 0.4826 0.38974 0.2248 0.0
H749 H 0.40572 0.46808 0.16307 0.0
H750 H 0.46322 0.45694 0.20512 0.0
H751 H 0.38363 0.3429 0.16245 0.0
H752 H 0.04961 0.66874 0.19191 0.0
H753 H 0.15077 0.5952 0.20425 0.0
H754 H 0.08905 0.59849 0.09467 0.0
H755 H 0.1035 0.64253 0.23172 0.0
Eu756 Eu 0.79702 0.05176 0.91534 0.0
C757 C 0.757 0.90252 0.80829 0.0
N758 N 0.74475 0.94031 0.8135 0.0
C759 C 0.74603 0.95168 0.74431 0.0
C760 C 0.76488 0.88795 0.77058 0.0
C761 C 0.73782 0.96449 0.7822 0.0
C762 C 0.75995 0.91333 0.73847 0.0
C763 C 0.77104 0.83799 0.83622 0.0
C764 C 0.76044 0.878 0.84073 0.0
C765 C 0.77888 0.82332 0.79872 0.0
C766 C 0.77628 0.84835 0.76603 0.0
Eu767 Eu 0.73087 0.95913 0.87834 0.0
N768 N 0.75162 0.89272 0.87647 0.0
C769 C 0.77249 0.81368 0.86946 0.0
C770 C 0.75143 0.86882 0.90872 0.0
C771 C 0.76226 0.82915 0.90581 0.0
H772 H 0.72592 0.99359 0.78641 0.0
H773 H 0.7624 0.81062 0.93164 0.0
H774 H 0.85948 1.01392 0.98321 0.0
H775 H 0.69878 0.17782 0.93077 0.0
H776 H 0.74214 0.88024 0.93664 0.0
H777 H 0.7806 0.78282 0.86721 0.0
H778 H 0.73834 0.12786 0.89533 0.0
H779 H 0.74115 0.97122 0.71961 0.0
H780 H 0.78686 0.79262 0.79467 0.0
H781 H 0.78239 0.83659 0.7373 0.0
H782 H 0.86561 1.01191 0.05475 0.0
H783 H 0.76584 0.90332 0.70904 0.0
H784 H 0.69801 0.17782 1.00309 0.0
N785 N 0.80936 0.05165 0.9836 0.0
C786 C 0.78637 0.07572 1.00553 0.0
C787 C 0.84283 0.0296 0.04133 0.0
C788 C 0.78973 0.0765 0.04657 0.0
C789 C 0.83877 0.03032 1.00071 0.0
C790 C 0.81774 0.05226 0.06444 0.0
N791 N 0.75875 0.10008 0.94722 0.0
C792 C 0.73822 0.12814 0.92693 0.0
C793 C 0.73856 0.12876 1.00816 0.0
C794 C 0.76087 0.10128 0.98672 0.0
C795 C 0.71556 0.1562 0.98769 0.0
C796 C 0.7159 0.15628 0.94686 0.0
H797 H 0.82117 0.0519 0.09589 0.0
H798 H 0.76766 0.10281 0.09988 0.0
H799 H 0.72296 0.14877 0.06617 0.0
O800 O 0.81499 0.09722 0.8733 0.0
O801 O 0.73135 0.04882 0.92542 0.0
O802 O 0.72414 0.98392 0.93926 0.0
O803 O 0.84956 0.08769 0.92493 0.0
O804 O 0.7722 0.05248 0.85319 0.0
O805 O 0.71335 0.02006 0.85801 0.0
O806 O 0.68504 0.9166 0.893 0.0
O807 O 0.79061 0.97053 0.84627 0.0
O808 O 0.83102 1.00151 0.89118 0.0
O809 O 0.66986 0.97016 0.86141 0.0
O810 O 0.75924 0.95397 0.93753 0.0
O811 O 0.81732 0.98803 0.93484 0.0
C812 C 0.71551 0.02082 0.94654 0.0
C813 C 0.88124 0.11663 0.86917 0.0
C814 C 0.92091 0.16551 0.83293 0.0
C815 C 0.94898 0.13562 0.82632 0.0
C816 C 0.90942 0.08755 0.86165 0.0
C817 C 0.94288 0.09702 0.83996 0.0
C818 C 0.88647 0.15504 0.85374 0.0
C819 C 0.73529 0.04818 0.84322 0.0
C820 C 0.84582 0.1078 0.89254 0.0
C821 C 0.76587 0.1022 0.0683 0.0
C822 C 0.74045 0.1284 0.04912 0.0
C823 C 0.82575 0.98119 0.85927 0.0
C824 C 0.62336 0.91689 0.86168 0.0
C825 C 0.56245 0.88075 0.87403 0.0
C826 C 0.55798 0.87618 0.83352 0.0
C827 C 0.6187 0.91172 0.82144 0.0
C828 C 0.59516 0.90159 0.88773 0.0
C829 C 0.58596 0.89154 0.80749 0.0
C830 C 0.79691 0.95566 0.94384 0.0
C831 C 0.65707 0.93783 0.87811 0.0
H832 H 0.97603 0.14199 0.81092 0.0
H833 H 0.9055 0.05761 0.87243 0.0
H834 H 0.96438 0.07435 0.83396 0.0
H835 H 0.86324 0.17642 0.85781 0.0
H836 H 0.53318 0.8602 0.82202 0.0
H837 H 0.64023 0.9232 0.80099 0.0
H838 H 0.59864 0.90619 0.91882 0.0
H839 H 0.58235 0.88756 0.77639 0.0
Eu840 Eu 0.73536 0.97346 0.42113 0.0
C841 C 0.78848 0.11549 0.30182 0.0
N842 N 0.80219 0.07913 0.3119 0.0
C843 C 0.81289 0.06384 0.24445 0.0
C844 C 0.78535 0.12702 0.26228 0.0
C845 C 0.81594 0.05404 0.28406 0.0
C846 C 0.79707 0.10033 0.23346 0.0
C847 C 0.7659 0.1802 0.32192 0.0
C848 C 0.77866 0.14166 0.33126 0.0
C849 C 0.7622 0.19165 0.28258 0.0
C850 C 0.77164 0.16505 0.25284 0.0
Eu851 Eu 0.80545 0.06502 0.37947 0.0
N852 N 0.78298 0.12995 0.36902 0.0
C853 C 0.7577 0.20623 0.35246 0.0
C854 C 0.77705 0.15575 0.39876 0.0
C855 C 0.76363 0.19398 0.39104 0.0
H856 H 0.83022 0.02694 0.29222 0.0
H857 H 0.75797 0.21381 0.41496 0.0
H858 H 0.67432 0.01959 0.48659 0.0
H859 H 0.82873 0.8457 0.44946 0.0
H860 H 0.78303 0.14691 0.4285 0.0
H861 H 0.74722 0.23587 0.34649 0.0
H862 H 0.79017 0.89282 0.40911 0.0
H863 H 0.82335 0.04352 0.22246 0.0
H864 H 0.75251 0.22117 0.27483 0.0
H865 H 0.76898 0.17443 0.22263 0.0
H866 H 0.67091 0.03011 0.55731 0.0
H867 H 0.79511 0.10804 0.20275 0.0
H868 H 0.83186 0.85428 0.5211 0.0
N869 N 0.72477 0.98217 0.48939 0.0
C870 C 0.74764 0.95976 0.51334 0.0
C871 C 0.69312 1.01075 0.54532 0.0
C872 C 0.74546 0.96361 0.55433 0.0
C873 C 0.69584 1.00534 0.50497 0.0
C874 C 0.71862 0.99045 0.57009 0.0
N875 N 0.77244 0.92737 0.45761 0.0
C876 C 0.79118 0.89623 0.44048 0.0
C877 C 0.79341 0.90526 0.5211 0.0
C878 C 0.7715 0.93099 0.49703 0.0
C879 C 0.81467 0.87465 0.50361 0.0
C880 C 0.81298 0.8697 0.46317 0.0
H881 H 0.71615 0.99436 0.60138 0.0
H882 H 0.76816 0.94261 0.60978 0.0
H883 H 0.81011 0.89145 0.58065 0.0
O884 O 0.71663 0.922 0.38767 0.0
O885 O 0.80125 0.97428 0.42867 0.0
O886 O 0.80682 0.03919 0.44026 0.0
O887 O 0.68138 0.94157 0.43586 0.0
O888 O 0.75981 0.96986 0.35899 0.0
O889 O 0.81927 1.00246 0.36092 0.0
O890 O 0.84746 0.10833 0.40031 0.0
O891 O 0.74545 0.05961 0.34769 0.0
O892 O 0.70428 1.01785 0.3845 0.0
O893 O 0.86856 0.05745 0.36887 0.0
O894 O 0.77271 0.07125 0.43646 0.0
O895 O 0.71439 0.03805 0.43403 0.0
C896 C 0.81849 1.00307 0.44683 0.0
C897 C 0.64887 0.90985 0.38337 0.0
C898 C 0.60771 0.86494 0.34524 0.0
C899 C 0.58169 0.89666 0.33855 0.0
C900 C 0.62305 0.941 0.37498 0.0
C901 C 0.58964 0.93431 0.35284 0.0
C902 C 0.64123 0.87186 0.3683 0.0
C903 C 0.79561 0.97611 0.34583 0.0
C904 C 0.68426 0.91688 0.40701 0.0
C905 C 0.76905 0.93963 0.57831 0.0
C906 C 0.79287 0.91043 0.56174 0.0
C907 C 0.71067 0.0441 0.35672 0.0
C908 C 0.90964 0.11465 0.37106 0.0
C909 C 0.97132 0.15017 0.38102 0.0
C910 C 0.96818 0.16547 0.34279 0.0
C911 C 0.90737 0.13006 0.33306 0.0
C912 C 0.9415 0.12494 0.39507 0.0
C913 C 0.93657 0.15536 0.31907 0.0
C914 C 0.73457 0.07097 0.4401 0.0
C915 C 0.87804 0.08977 0.38715 0.0
H916 H 0.55488 0.89244 0.3224 0.0
H917 H 0.62865 0.97048 0.38568 0.0
H918 H 0.56976 0.95849 0.34674 0.0
H919 H 0.66162 0.84797 0.37411 0.0
H920 H 0.98995 0.18576 0.33134 0.0
H921 H 0.88283 0.12291 0.31449 0.0
H922 H 0.9431 0.11323 0.42458 0.0
H923 H 0.93455 0.16749 0.2898 0.0
Eu924 Eu 0.31706 0.48313 0.67264 0.0
C925 C 0.21069 0.56613 0.5436 0.0
N926 N 0.23663 0.58308 0.56835 0.0
C927 C 0.25833 0.62694 0.51742 0.0
C928 C 0.20917 0.57772 0.50397 0.0
C929 C 0.2588 0.61446 0.55643 0.0
C930 C 0.23389 0.60806 0.49092 0.0
C931 C 0.15592 0.52166 0.53355 0.0
C932 C 0.18387 0.53882 0.55834 0.0
C933 C 0.15566 0.53175 0.4937 0.0
C934 C 0.18213 0.55979 0.47897 0.0
Eu935 Eu 0.23417 0.55989 0.63343 0.0
N936 N 0.18463 0.52949 0.59706 0.0
C937 C 0.12873 0.4952 0.54968 0.0
C938 C 0.15734 0.50499 0.61318 0.0
C939 C 0.12936 0.48703 0.58975 0.0
H940 H 0.27695 0.62994 0.577 0.0
H941 H 0.10841 0.46702 0.60281 0.0
H942 H 0.27405 0.42014 0.73714 0.0
H943 H 0.45339 0.5635 0.6899 0.0
H944 H 0.1575 0.49902 0.64395 0.0
H945 H 0.10681 0.48153 0.53152 0.0
H946 H 0.39681 0.53582 0.65414 0.0
H947 H 0.27662 0.65128 0.50787 0.0
H948 H 0.1346 0.51861 0.47416 0.0
H949 H 0.18087 0.56803 0.44836 0.0
H950 H 0.27581 0.40543 0.80765 0.0
H951 H 0.23331 0.61805 0.46079 0.0
H952 H 0.45688 0.55628 0.76181 0.0
N953 N 0.31627 0.46629 0.74006 0.0
C954 C 0.34343 0.48434 0.7626 0.0
C955 C 0.29419 0.42851 0.79554 0.0
C956 C 0.34572 0.47644 0.80308 0.0
C957 C 0.29299 0.43732 0.75558 0.0
C958 C 0.31985 0.44897 0.81962 0.0
N959 N 0.36866 0.51457 0.70554 0.0
C960 C 0.39826 0.53296 0.68559 0.0
C961 C 0.40237 0.52395 0.76629 0.0
C962 C 0.37107 0.50834 0.74464 0.0
C963 C 0.43214 0.54418 0.74628 0.0
C964 C 0.43025 0.54839 0.70568 0.0
H965 H 0.3208 0.44192 0.85053 0.0
H966 H 0.3769 0.48917 0.85651 0.0
H967 H 0.42685 0.53043 0.82417 0.0
O968 O 0.36138 0.46227 0.63139 0.0
O969 O 0.31986 0.54848 0.68644 0.0
O970 O 0.25601 0.56267 0.69599 0.0
O971 O 0.34729 0.42653 0.68185 0.0
O972 O 0.32025 0.50919 0.61053 0.0
O973 O 0.2978 0.57212 0.61896 0.0
O974 O 0.17866 0.58893 0.64672 0.0
O975 O 0.24003 0.49844 0.6023 0.0
O976 O 0.26519 0.45326 0.64707 0.0
O977 O 0.23122 0.6242 0.63997 0.0
O978 O 0.21792 0.52852 0.68932 0.0
O979 O 0.25209 0.46938 0.6915 0.0
C980 C 0.29246 0.56548 0.70707 0.0
C981 C 0.37518 0.39411 0.62665 0.0
C982 C 0.42088 0.35092 0.59136 0.0
C983 C 0.3889 0.32709 0.58082 0.0
C984 C 0.34383 0.37048 0.61494 0.0
C985 C 0.35076 0.33713 0.59215 0.0
C986 C 0.41355 0.38439 0.61467 0.0
C987 C 0.31918 0.5466 0.59959 0.0
C988 C 0.36866 0.4297 0.65037 0.0
C989 C 0.37504 0.49448 0.82532 0.0
C990 C 0.40353 0.51791 0.8069 0.0
C991 C 0.24729 0.46149 0.61424 0.0
C992 C 0.17005 0.65694 0.63177 0.0
C993 C 0.13666 0.72017 0.64211 0.0
C994 C 0.12222 0.71815 0.60372 0.0
C995 C 0.15578 0.65587 0.59352 0.0
C996 C 0.16041 0.68905 0.65601 0.0
C997 C 0.13192 0.68639 0.57965 0.0
C998 C 0.22005 0.49104 0.69868 0.0
C999 C 0.19375 0.62429 0.64762 0.0
H1000 H 0.39331 0.30043 0.56407 0.0
H1001 H 0.31411 0.37781 0.62343 0.0
H1002 H 0.32642 0.31897 0.58322 0.0
H1003 H 0.43763 0.40327 0.6231 0.0
H1004 H 0.10291 0.74092 0.59243 0.0
H1005 H 0.16267 0.63129 0.57463 0.0
H1006 H 0.17147 0.68982 0.68562 0.0
H1007 H 0.12059 0.68526 0.55022 0.0
C1008 C 0.21642 0.35529 0.59264 0.0
C1009 C 0.21109 0.35524 0.55206 0.0
C1010 C 0.22746 0.38992 0.61217 0.0
C1011 C 0.23333 0.42632 0.59221 0.0
H1012 H 0.21089 0.32879 0.60968 0.0
H1013 H 0.23115 0.38805 0.64349 0.0
S1014 S 0.22705 0.44168 0.48534 0.0
N1015 N 0.21587 0.39466 0.49199 0.0
N1016 N 0.23548 0.45928 0.52927 0.0
C1017 C 0.22907 0.42655 0.55163 0.0
C1018 C 0.21844 0.39121 0.53149 0.0
C1019 C 0.89515 0.95884 0.86512 0.0
C1020 C 0.86283 0.96804 0.8409 0.0
C1021 C 0.93264 0.95181 0.84981 0.0
C1022 C 0.93993 0.95523 0.80966 0.0
H1023 H 0.89169 0.95761 0.89655 0.0
H1024 H 0.95595 0.94368 0.86962 0.0
S1025 S 0.86658 0.98498 0.73437 0.0
N1026 N 0.84117 0.98309 0.77542 0.0
N1027 N 0.91188 0.9731 0.74637 0.0
C1028 C 0.90819 0.96673 0.78535 0.0
C1029 C 0.86962 0.97213 0.80094 0.0
C1030 C 0.32441 0.65061 0.01873 0.0
C1031 C 0.33643 0.67886 0.04632 0.0
C1032 C 0.31576 0.61145 0.02959 0.0
C1033 C 0.32024 0.59808 0.06816 0.0
H1034 H 0.32076 0.65894 0.98835 0.0
H1035 H 0.30436 0.59162 1.00777 0.0
S1036 S 0.34431 0.66103 0.15302 0.0
N1037 N 0.34719 0.69143 0.11515 0.0
N1038 N 0.33314 0.61746 0.13493 0.0
C1039 C 0.33158 0.62601 0.09624 0.0
C1040 C 0.33908 0.66641 0.08548 0.0
C1041 C 0.63263 0.07123 0.28192 0.0
C1042 C 0.59855 0.07588 0.30528 0.0
C1043 C 0.66966 0.06363 0.29847 0.0
C1044 C 0.67372 0.05886 0.33894 0.0
H1045 H 0.63111 0.07448 0.25062 0.0
H1046 H 0.69485 0.06016 0.27944 0.0
S1047 S 0.5932 0.06302 0.41266 0.0
N1048 N 0.57163 0.07237 0.37076 0.0
N1049 N 0.63979 0.05677 0.40183 0.0
C1050 C 0.63961 0.06205 0.3624 0.0
C1051 C 0.60243 0.07054 0.34563 0.0
C1052 C 0.68419 0.17162 0.4431 0.0
C1053 C 0.69916 0.18812 0.47766 0.0
C1054 C 0.69267 0.13215 0.43256 0.0
C1055 C 0.71629 0.10753 0.4562 0.0
H1056 H 0.66642 0.18946 0.42368 0.0
H1057 H 0.68295 0.12195 0.40441 0.0
S1058 S 0.7629 0.13616 0.54929 0.0
N1059 N 0.73918 0.17632 0.53516 0.0
N1060 N 0.75433 0.10273 0.51558 0.0
C1061 C 0.73091 0.12359 0.4909 0.0
C1062 C 0.72269 0.16364 0.50148 0.0
C1063 C 0.14045 0.4141 0.71617 0.0
C1064 C 0.10682 0.43668 0.7257 0.0
C1065 C 0.17729 0.43146 0.70987 0.0
C1066 C 0.18253 0.47242 0.71259 0.0
H1067 H 0.1385 0.38228 0.71393 0.0
H1068 H 0.20163 0.41256 0.70204 0.0
S1069 S 0.10436 0.54512 0.73836 0.0
N1070 N 0.08151 0.50219 0.73841 0.0
N1071 N 0.15045 0.53533 0.72719 0.0
C1072 C 0.14918 0.49547 0.72284 0.0
C1073 C 0.11147 0.4776 0.72883 0.0
C1074 C 0.83894 0.89532 0.93424 0.0
C1075 C 0.81535 0.91877 0.95888 0.0
C1076 C 0.84787 0.8556 0.94367 0.0
C1077 C 0.83292 0.83761 0.97784 0.0
H1078 H 0.84817 0.90662 0.90615 0.0
H1079 H 0.86594 0.83875 0.92374 0.0
S1080 S 0.76699 0.88521 0.05034 0.0
N1081 N 0.77625 0.92046 0.01803 0.0
N1082 N 0.79132 0.84602 0.03512 0.0
C1083 C 0.8087 0.86063 1.00226 0.0
C1084 C 0.80042 0.90106 0.99301 0.0
C1085 C 0.42413 0.57095 0.19206 0.0
C1086 C 0.42164 0.58282 0.23111 0.0
C1087 C 0.39141 0.55602 0.17249 0.0
C1088 C 0.35434 0.55176 0.19094 0.0
H1089 H 0.45095 0.57512 0.17566 0.0
H1090 H 0.39523 0.54874 0.14196 0.0
S1091 S 0.33406 0.57054 0.29515 0.0
N1092 N 0.38014 0.58422 0.28923 0.0
N1093 N 0.31897 0.55562 0.25205 0.0
C1094 C 0.35195 0.5613 0.23054 0.0
C1095 C 0.38541 0.57672 0.25067 0.0
C1096 C 0.55728 0.16959 0.39303 0.0
C1097 C 0.56036 0.19056 0.35723 0.0
C1098 C 0.57092 0.1852 0.42825 0.0
C1099 C 0.58771 0.22289 0.42975 0.0
H1100 H 0.54369 0.14079 0.39424 0.0
H1101 H 0.56753 0.16781 0.45455 0.0
S1102 S 0.60119 0.29108 0.34492 0.0
N1103 N 0.57956 0.25209 0.32618 0.0
N1104 N 0.60743 0.28057 0.39161 0.0
C1105 C 0.59112 0.24419 0.39415 0.0
C1106 C 0.57688 0.22834 0.35822 0.0
C1107 C 0.11128 0.30598 0.63022 0.0
C1108 C 0.08914 0.30182 0.59557 0.0
C1109 C 0.09387 0.31514 0.66626 0.0
C1110 C 0.0534 0.32122 0.66955 0.0
H1111 H 0.14277 0.30225 0.6297 0.0
H1112 H 0.11257 0.31881 0.69138 0.0
S1113 S 0.98142 0.31149 0.58872 0.0
N1114 N 0.02409 0.30244 0.56772 0.0
N1115 N 0.99104 0.32056 0.63501 0.0
C1116 C 0.03065 0.31655 0.6353 0.0
C1117 C 0.04853 0.30688 0.59852 0.0
C1118 C 0.95824 0.80863 0.85979 0.0
C1119 C 0.98208 0.84229 0.86061 0.0
C1120 C 0.94178 0.79246 0.89424 0.0
C1121 C 0.94888 0.80854 0.93176 0.0
H1122 H 0.95277 0.79414 0.83242 0.0
H1123 H 0.92309 0.76695 0.89109 0.0
S1124 S 1.01114 0.89573 0.95042 0.0
N1125 N 1.01189 0.8914 0.90261 0.0
N1126 N 0.98349 0.85925 0.96682 0.0
C1127 C 0.9733 0.84175 0.93296 0.0
C1128 C 0.98933 0.85884 0.89777 0.0
C1129 C 0.44283 0.67743 0.15635 0.0
C1130 C 0.45763 0.70574 0.18228 0.0
C1131 C 0.43659 0.68649 0.11645 0.0
C1132 C 0.44475 0.72435 0.10099 0.0
H1133 H 0.43741 0.64769 0.1666 0.0
H1134 H 0.42503 0.66372 0.09774 0.0
S1135 S 0.48774 0.80769 0.15645 0.0
N1136 N 0.48211 0.77228 0.18937 0.0
N1137 N 0.47222 0.78907 0.11499 0.0
C1138 C 0.46105 0.75231 0.12666 0.0
C1139 C 0.46669 0.7432 0.1671 0.0
C1140 C 0.15472 0.4161 0.23217 0.0
C1141 C 0.1693 0.4163 0.27062 0.0
C1142 C 0.17723 0.42969 0.20044 0.0
C1143 C 0.21574 0.44333 0.20541 0.0
H1144 H 0.12513 0.40627 0.22656 0.0
H1145 H 0.16394 0.43048 0.17177 0.0
S1146 S 0.26869 0.44951 0.29933 0.0
N1147 N 0.2254 0.43135 0.31149 0.0
N1148 N 0.26814 0.45522 0.25139 0.0
C1149 C 0.23164 0.44184 0.24318 0.0
C1150 C 0.20836 0.42876 0.27585 0.0
C1151 C 0.84885 1.00696 0.55232 0.0
C1152 C 0.8779 0.97752 0.55487 0.0
C1153 C 0.83012 1.01527 0.51708 0.0
C1154 C 0.83925 0.99396 0.48326 0.0
H1155 H 0.84108 0.02429 0.57769 0.0
H1156 H 0.808 0.03824 0.51646 0.0
S1157 S 0.91253 0.91368 0.47431 0.0
N1158 N 0.91473 0.92685 0.52061 0.0
N1159 N 0.87863 0.94204 0.45414 0.0
C1160 C 0.86742 0.96379 0.48545 0.0
C1161 C 0.88685 0.95551 0.5214 0.0
C1162 C 0.27677 0.56669 0.77848 0.0
C1163 C 0.30142 0.57799 0.74748 0.0
C1164 C 0.28728 0.57349 0.81742 0.0
C1165 C 0.32335 0.59124 0.82734 0.0
H1166 H 0.24975 0.55109 0.77275 0.0
H1167 H 0.26698 0.56386 0.83989 0.0
S1168 S 0.39409 0.63394 0.75537 0.0
N1169 N 0.35968 0.61402 0.72822 0.0
N1170 N 0.38128 0.62461 0.80105 0.0
C1171 C 0.34692 0.60523 0.79604 0.0
C1172 C 0.33559 0.59897 0.7563 0.0
C1173 C 0.69374 0.02018 0.05474 0.0
C1174 C 0.6641 0.0489 0.05847 0.0
C1175 C 0.71002 1.01119 0.01833 0.0
C1176 C 0.69763 0.03091 0.98436 0.0
H1177 H 0.70406 1.0041 0.08018 0.0
H1178 H 0.73277 0.98895 0.01682 0.0
S1179 S 0.62106 0.10828 0.97788 0.0
N1180 N 0.62299 0.09694 0.02487 0.0
N1181 N 0.65427 0.08029 0.95626 0.0
C1182 C 0.66869 0.0602 0.98757 0.0
C1183 C 0.65185 0.06926 0.0247 0.0
C1184 C 0.71797 0.09352 0.74262 0.0
C1185 C 0.67747 0.10179 0.74385 0.0
C1186 C 0.7378 0.07896 0.77587 0.0
C1187 C 0.71766 0.0721 0.81127 0.0
H1188 H 0.73391 0.09622 0.71531 0.0
H1189 H 0.7683 0.07055 0.7731 0.0
S1190 S 0.61345 0.09568 0.83152 0.0
N1191 N 0.61952 0.10709 0.7849 0.0
N1192 N 0.65641 0.07949 0.84678 0.0
C1193 C 0.67799 0.08305 0.81347 0.0
C1194 C 0.65799 0.09791 0.77993 0.0
C1195 C 0.22122 0.49787 0.99141 0.0
C1196 C 0.21215 0.47576 0.02511 0.0
C1197 C 0.21004 0.48498 0.95418 0.0
C1198 C 0.1897 0.44904 0.94877 0.0
H1199 H 0.23788 0.52496 0.99368 0.0
H1200 H 0.21757 0.50365 0.92948 0.0
S1201 S 0.15493 0.38295 0.02934 0.0
N1202 N 0.17774 0.41911 0.05183 0.0
N1203 N 0.15952 0.39269 0.98226 0.0
C1204 C 0.17954 0.42731 0.98287 0.0
C1205 C 0.19014 0.44115 0.02081 0.0
C1206 C 0.85093 0.94442 0.31021 0.0
C1207 C 0.81071 0.95332 0.31211 0.0
C1208 C 0.86817 0.93023 0.27587 0.0
C1209 C 0.84597 0.92443 0.24192 0.0
H1210 H 0.86962 0.95006 0.33502 0.0
H1211 H 0.89953 0.9253 0.27539 0.0
S1212 S 0.73919 0.94149 0.23197 0.0
N1213 N 0.7487 0.95352 0.27762 0.0
N1214 N 0.78128 0.92696 0.2128 0.0
C1215 C 0.80534 0.93113 0.24395 0.0
C1216 C 0.78766 0.94552 0.27913 0.0
C1217 C 0.32664 0.5351 0.52743 0.0
C1218 C 0.33425 0.55859 0.56024 0.0
C1219 C 0.33416 0.54913 0.48925 0.0
C1220 C 0.35016 0.58701 0.48221 0.0
H1221 H 0.31271 0.50658 0.53112 0.0
H1222 H 0.32616 0.5306 0.46492 0.0
S1223 S 0.37807 0.65875 0.55854 0.0
N1224 N 0.36092 0.62046 0.58342 0.0
N1225 N 0.3751 0.64676 0.51198 0.0
C1226 C 0.35992 0.60979 0.51498 0.0
C1227 C 0.35195 0.59562 0.55383 0.0
C1228 C 0.27566 0.26369 0.45604 0.0
C1229 C 0.2431 0.24377 0.441 0.0
C1230 C 0.31391 0.25052 0.44801 0.0
C1231 C 0.32088 0.21694 0.42473 0.0
H1232 H 0.27152 0.28832 0.47567 0.0
H1233 H 0.33813 0.26635 0.46079 0.0
S1234 S 0.24425 0.15699 0.37591 0.0
N1235 N 0.21963 0.19152 0.39934 0.0
N1236 N 0.29076 0.16516 0.38573 0.0
C1237 C 0.2881 0.19787 0.40838 0.0
C1238 C 0.24944 0.21171 0.41616 0.0
C1239 C 0.09828 0.03903 0.6647 0.0
C1240 C 0.07588 0.07228 0.67583 0.0
C1241 C 0.08748 1.00043 0.67579 0.0
C1242 C 0.05413 0.99331 0.69893 0.0
H1243 H 0.12536 0.04273 0.64855 0.0
H1244 H 0.10612 0.97602 0.6672 0.0
S1245 S 0.98372 0.06886 0.73432 0.0
N1246 N 1.01629 0.09426 0.70879 0.0
N1247 N 0.99819 0.02241 0.73211 0.0
C1248 C 0.03083 0.02587 0.7095 0.0
C1249 C 0.04125 0.06511 0.69752 0.0
C1250 C 0.26026 0.84587 0.90893 0.0
C1251 C 0.22676 0.82574 0.92272 0.0
C1252 C 0.29811 0.83184 0.91711 0.0
C1253 C 0.30374 0.7971 0.93911 0.0
H1254 H 0.25733 0.8739 0.89372 0.0
H1255 H 0.32311 0.84926 0.90782 0.0
S1256 S 0.2261 0.73052 0.9773 0.0
N1257 N 0.202 0.76687 0.95566 0.0
N1258 N 0.27295 0.74091 0.97137 0.0
C1259 C 0.27064 0.77525 0.95066 0.0
C1260 C 0.23219 0.78955 0.94251 0.0
C1261 C 0.44051 0.06844 0.16144 0.0
C1262 C 0.47385 0.06166 0.1844 0.0
C1263 C 0.42005 0.03706 0.14462 0.0
C1264 C 0.43194 0.99757 0.15036 0.0
H1265 H 0.42941 0.09821 0.15747 0.0
H1266 H 0.39383 0.04366 0.12811 0.0
S1267 S 0.51735 0.96409 0.20844 0.0
N1268 N 0.51834 1.01277 0.21165 0.0
N1269 N 0.47952 0.95356 0.18049 0.0
C1270 C 0.46605 0.99047 0.17221 0.0
C1271 C 0.48712 0.02258 0.18912 0.0
C1272 C 0.72963 0.3764 0.64017 0.0
C1273 C 0.76662 0.36021 0.64962 0.0
C1274 C 0.70265 0.35612 0.61711 0.0
C1275 C 0.71188 0.3196 0.60038 0.0
H1276 H 0.7212 0.40544 0.6502 0.0
H1277 H 0.67441 0.36967 0.61176 0.0
S1278 S 0.80304 0.26212 0.61674 0.0
N1279 N 0.80918 0.3027 0.64242 0.0
N1280 N 0.75982 0.26673 0.59583 0.0
C1281 C 0.74833 0.30251 0.60955 0.0
C1282 C 0.77547 0.32247 0.63444 0.0
C1283 C 1.01421 0.50235 0.82795 0.0
C1284 C 0.98971 0.47025 0.83709 0.0
C1285 C 1.00388 0.54112 0.83844 0.0
C1286 C 0.96859 0.54947 0.85853 0.0
H1287 H 0.04046 0.49782 0.81069 0.0
H1288 H 0.02319 0.5649 0.82952 0.0
S1289 S 0.89667 0.4743 0.89297 0.0
N1290 N 0.93111 0.44828 0.87095 0.0
N1291 N 0.91069 0.52086 0.88953 0.0
C1292 C 0.94532 0.51696 0.87023 0.0
C1293 C 0.95613 0.47749 0.85978 0.0
C1294 C 0.81628 0.6678 0.11519 0.0
C1295 C 0.81066 0.70688 0.10232 0.0
C1296 C 0.78933 0.64874 0.13995 0.0
C1297 C 0.75617 0.66844 0.15519 0.0
H1298 H 0.84203 0.65161 0.10626 0.0
H1299 H 0.79493 0.61807 0.1472 0.0
S1300 S 0.73015 0.77333 0.13414 0.0
N1301 N 0.76994 0.76557 0.10772 0.0
N1302 N 0.7212 0.73128 0.15727 0.0
C1303 C 0.75092 0.70835 0.14372 0.0
C1304 C 0.77783 0.72729 0.11709 0.0
C1305 C 0.51837 0.5022 0.37346 0.0
C1306 C 0.55423 0.48228 0.36766 0.0
C1307 C 0.51173 0.54028 0.35827 0.0
C1308 C 0.54078 0.56063 0.33683 0.0
H1309 H 0.4948 0.48805 0.38953 0.0
H1310 H 0.48306 0.5533 0.36259 0.0
S1311 S 0.64116 0.52316 0.31594 0.0
N1312 N 0.61973 0.48659 0.33989 0.0
N1313 N 0.60833 0.55894 0.31359 0.0
C1314 C 0.57765 0.542 0.33277 0.0
C1315 C 0.58408 0.50276 0.34753 0.0
C1316 C 0.44494 0.28923 0.17995 0.0
C1317 C 0.44542 0.31981 0.20765 0.0
C1318 C 0.45613 0.2505 0.18987 0.0
C1319 C 0.46845 0.24066 0.22785 0.0
H1320 H 0.43651 0.29537 0.15005 0.0
H1321 H 0.45538 0.22809 0.16748 0.0
S1322 S 0.47403 0.30896 0.3118 0.0
N1323 N 0.45795 0.33684 0.27541 0.0
N1324 N 0.47995 0.26432 0.29357 0.0
C1325 C 0.46856 0.27061 0.25605 0.0
C1326 C 0.45704 0.3101 0.24603 0.0
C1327 C 0.95963 0.25251 0.77109 0.0
C1328 C 0.94969 0.28566 0.79346 0.0
C1329 C 0.94911 0.21411 0.78337 0.0
C1330 C 0.92832 0.20719 0.81866 0.0
H1331 H 0.9771 0.25607 0.7448 0.0
H1332 H 0.95795 0.18963 0.76518 0.0
S1333 S 0.89174 0.28569 0.88524 0.0
N1334 N 0.91465 0.31008 0.85003 0.0
N1335 N 0.89651 0.23849 0.87443 0.0
C1336 C 0.9168 0.24073 0.84026 0.0
C1337 C 0.92714 0.27971 0.82738 0.0
C1338 C 0.0387 0.66723 0.07889 0.0
C1339 C 0.0317 0.65112 0.11641 0.0
C1340 C 1.00873 0.68642 0.05777 0.0
C1341 C 0.97083 0.69029 0.07355 0.0
H1342 H 0.0679 0.66643 0.06642 0.0
H1343 H 1.01573 0.69987 0.02979 0.0
S1344 S 0.93567 0.64817 0.16764 0.0
N1345 N 0.98263 0.63651 0.16614 0.0
N1346 N 0.92688 0.67291 0.12686 0.0
C1347 C 0.96299 0.67252 0.10998 0.0
C1348 C 0.99325 0.6529 0.13131 0.0
C1349 C 0.60321 0.79029 0.35141 0.0
C1350 C 0.59897 0.82493 0.32864 0.0
C1351 C 0.58987 0.75338 0.338 0.0
C1352 C 0.5714 0.74963 0.30152 0.0
H1353 H 0.61511 0.79191 0.3806 0.0
H1354 H 0.59281 0.72782 0.35698 0.0
S1355 S 0.5614 0.82942 0.22715 0.0
N1356 N 0.58146 0.85139 0.26488 0.0
N1357 N 0.55527 0.78286 0.24048 0.0
C1358 C 0.57006 0.78336 0.27722 0.0
C1359 C 0.58392 0.82075 0.29065 0.0
C1360 C 0.53139 0.33165 0.59411 0.0
C1361 C 0.53985 0.31805 0.55627 0.0
C1362 C 0.49311 0.34264 0.60504 0.0
C1363 C 0.4617 0.34064 0.57852 0.0
H1364 H 0.55445 0.33333 0.61562 0.0
H1365 H 0.48798 0.35193 0.63482 0.0
S1366 S 0.46917 0.30957 0.47484 0.0
N1367 N 0.51408 0.30456 0.49178 0.0
N1368 N 0.44268 0.32625 0.51169 0.0
C1369 C 0.47017 0.32818 0.54017 0.0
C1370 C 0.50907 0.31685 0.52917 0.0
C1371 C 0.11085 0.74801 0.70556 0.0
C1372 C 0.12586 0.75427 0.66753 0.0
C1373 C 0.09569 0.77951 0.72776 0.0
C1374 C 0.09497 0.81824 0.71256 0.0
H1375 H 0.10888 0.71831 0.71743 0.0
H1376 H 0.08215 0.77312 0.75577 0.0
S1377 S 0.13609 0.85147 0.61753 0.0
N1378 N 0.14338 0.80321 0.6181 0.0
N1379 N 0.11414 0.86182 0.65929 0.0
C1380 C 0.11209 0.82521 0.6758 0.0
C1381 C 0.12768 0.79341 0.65341 0.0
C1382 C 0.46499 0.8521 0.92143 0.0
C1383 C 0.47652 0.828 0.95301 0.0
C1384 C 0.49289 0.86921 0.89615 0.0
C1385 C 0.53334 0.86342 0.90193 0.0
H1386 H 0.4342 0.8564 0.91521 0.0
H1387 H 0.48271 0.8869 0.87172 0.0
S1388 S 0.57849 0.80486 0.98213 0.0
N1389 N 0.53092 0.80084 0.98994 0.0
N1390 N 0.58327 0.83269 0.94257 0.0
C1391 C 0.54513 0.84038 0.93424 0.0
C1392 C 0.51676 0.8228 0.95972 0.0
C1393 C 0.99957 0.17657 0.4439 0.0
C1394 C 1.00535 0.16152 0.40596 0.0
C1395 C 0.03095 0.19225 0.46551 0.0
C1396 C 0.06912 0.19342 0.44986 0.0
H1397 H 0.97032 0.1781 0.45615 0.0
H1398 H 0.02488 0.20568 0.49351 0.0
S1399 S 0.10097 0.15257 0.35473 0.0
N1400 N 0.05327 0.14472 0.35602 0.0
N1401 N 0.11161 0.17465 0.39614 0.0
C1402 C 0.0756 0.17632 0.41314 0.0
C1403 C 0.04392 0.1603 0.39132 0.0
loop_
_geom_bond_atom_site_label_1
_geom_bond_atom_site_label_2
_geom_bond_distance
_geom_bond_site_symmetry_2
_ccdc_geom_bond_type
Eu0 N29 2.600 . S
Eu0 N35 2.562 . S
Eu0 O44 2.462 . S
Eu0 O45 2.373 . S
Eu0 O47 2.432 . S
Eu0 O48 2.291 . S
Eu0 O52 2.335 . S
Eu0 O55 2.372 . S
Eu0 C64 2.787 . S
C1 N2 1.365 . S
C1 C4 1.405 1_455 S
C1 C8 1.448 . S
N2 C1 1.365 . S
N2 C5 1.319 . S
N2 Eu11 2.600 . S
C3 C5 1.397 1_655 S
C3 C6 1.367 . S
C3 H23 0.931 . S
C4 C1 1.405 1_655 S
C4 C6 1.403 . S
C4 C10 1.439 . S
C5 N2 1.319 . S
C5 C3 1.397 1_455 S
C5 H16 0.930 . S
C6 C3 1.367 . S
C6 C4 1.403 . S
C6 H27 0.929 . S
C7 C8 1.430 . S
C7 C9 1.387 1_455 S
C7 C13 1.404 . S
C8 C1 1.448 . S
C8 C7 1.430 . S
C8 N12 1.351 . S
C9 C7 1.387 1_655 S
C9 C10 1.374 . S
C9 H24 0.931 . S
C10 C4 1.439 . S
C10 C9 1.374 . S
C10 H25 0.931 . S
Eu11 N2 2.600 . S
Eu11 N12 2.562 . S
Eu11 O46 2.335 . S
Eu11 O49 2.372 . S
Eu11 O50 2.462 . S
Eu11 O51 2.373 . S
Eu11 O53 2.432 . S
Eu11 O54 2.291 . S
Eu11 C75 2.787 . S
N12 C8 1.351 . S
N12 Eu11 2.562 . S
N12 C14 1.325 . S
C13 C7 1.404 . S
C13 C15 1.366 . S
C13 H21 0.930 . S
C14 N12 1.325 . S
C14 C15 1.416 . S
C14 H20 0.929 . S
C15 C13 1.366 . S
C15 C14 1.416 . S
C15 H17 0.930 . S
H16 C5 0.930 . S
H17 C15 0.930 . S
H18 C33 0.930 . S
H19 C40 0.930 . S
H20 C14 0.929 . S
H21 C13 0.930 . S
H22 C36 0.929 . S
H23 C3 0.931 . S
H24 C9 0.931 . S
H25 C10 0.931 . S
H26 C31 0.931 . S
H27 C6 0.929 . S
H28 C39 0.930 . S
N29 Eu0 2.600 . S
N29 C30 1.365 . S
N29 C33 1.319 . S
C30 N29 1.365 . S
C30 C32 1.405 . S
C30 C38 1.448 . S
C31 H26 0.931 . S
C31 C33 1.397 . S
C31 C34 1.367 . S
C32 C30 1.405 . S
C32 C34 1.403 . S
C32 C65 1.439 . S
C33 H18 0.930 . S
C33 N29 1.319 . S
C33 C31 1.397 . S
C34 C31 1.367 . S
C34 C32 1.403 . S
C34 H41 0.929 . S
N35 Eu0 2.562 . S
N35 C36 1.325 . S
N35 C38 1.351 . S
C36 H22 0.929 . S
C36 N35 1.325 . S
C36 C40 1.416 . S
C37 C38 1.430 . S
C37 C39 1.404 . S
C37 C66 1.387 . S
C38 C30 1.448 . S
C38 N35 1.351 . S
C38 C37 1.430 . S
C39 H28 0.930 . S
C39 C37 1.404 . S
C39 C40 1.366 . S
C40 H19 0.930 . S
C40 C36 1.416 . S
C40 C39 1.366 . S
H41 C34 0.929 . S
H42 C65 0.931 . S
H43 C66 0.931 . S
O44 Eu0 2.462 . S
O44 C64 1.252 . S
O45 Eu0 2.373 . S
O45 C56 1.249 . S
O46 Eu11 2.335 . S
O46 C56 1.264 . S
O47 Eu0 2.432 . S
O47 C64 1.268 . S
O48 Eu0 2.291 . S
O48 C63 1.255 . S
O49 Eu11 2.372 . S
O49 C63 1.257 . S
O50 Eu11 2.462 . S
O50 C75 1.252 . S
O51 Eu11 2.373 . S
O51 C67 1.249 . S
O52 Eu0 2.335 . S
O52 C67 1.264 . S
O53 Eu11 2.432 . S
O53 C75 1.268 . S
O54 Eu11 2.291 . S
O54 C74 1.255 . S
O55 Eu0 2.372 . S
O55 C74 1.257 . S
C56 O45 1.249 . S
C56 O46 1.264 . S
C57 C60 1.382 . S
C57 C62 1.390 . S
C57 C64 1.506 . S
C58 C59 1.398 . S
C58 C62 1.392 . S
C59 C58 1.398 . S
C59 C61 1.372 . S
C59 H76 0.931 . S
C60 C57 1.382 . S
C60 C61 1.390 . S
C60 H77 0.931 . S
C61 C59 1.372 . S
C61 C60 1.390 . S
C61 H78 0.929 . S
C62 C57 1.390 . S
C62 C58 1.392 . S
C62 H79 0.930 . S
C63 O48 1.255 . S
C63 O49 1.257 . S
C64 Eu0 2.787 . S
C64 O44 1.252 . S
C64 O47 1.268 . S
C64 C57 1.506 . S
C65 C32 1.439 . S
C65 H42 0.931 . S
C65 C66 1.374 . S
C66 C37 1.387 . S
C66 H43 0.931 . S
C66 C65 1.374 . S
C67 O51 1.249 . S
C67 O52 1.264 . S
C68 C71 1.382 . S
C68 C72 1.390 . S
C68 C75 1.506 . S
C69 C70 1.398 . S
C69 C72 1.392 . S
C70 C69 1.398 . S
C70 C73 1.372 . S
C70 H80 0.931 . S
C71 C68 1.382 . S
C71 C73 1.390 . S
C71 H81 0.931 . S
C72 C68 1.390 . S
C72 C69 1.392 . S
C72 H82 0.930 . S
C73 C70 1.372 . S
C73 C71 1.390 . S
C73 H83 0.929 . S
C74 O54 1.255 . S
C74 O55 1.257 . S
C75 Eu11 2.787 . S
C75 O50 1.252 . S
C75 O53 1.268 . S
C75 C68 1.506 . S
H76 C59 0.931 . S
H77 C60 0.931 . S
H78 C61 0.929 . S
H79 C62 0.930 . S
H80 C70 0.931 . S
H81 C71 0.931 . S
H82 C72 0.930 . S
H83 C73 0.929 . S
Eu84 N113 2.600 . S
Eu84 N119 2.562 . S
Eu84 O128 2.462 . S
Eu84 O129 2.373 . S
Eu84 O131 2.432 . S
Eu84 O132 2.291 . S
Eu84 O136 2.335 . S
Eu84 O139 2.372 1_455 S
Eu84 C148 2.787 . S
C85 N86 1.365 . S
C85 C88 1.405 . S
C85 C92 1.448 . S
N86 C85 1.365 . S
N86 C89 1.319 . S
N86 Eu95 2.600 . S
C87 C89 1.397 . S
C87 C90 1.367 . S
C87 H107 0.931 . S
C88 C85 1.405 . S
C88 C90 1.403 . S
C88 C94 1.439 . S
C89 N86 1.319 . S
C89 C87 1.397 . S
C89 H100 0.943 . S
C90 C87 1.367 . S
C90 C88 1.403 . S
C90 H111 0.929 . S
C91 C92 1.430 . S
C91 C93 1.387 . S
C91 C97 1.404 . S
C92 C85 1.448 . S
C92 C91 1.430 . S
C92 N96 1.351 . S
C93 C91 1.387 . S
C93 C94 1.374 . S
C93 H108 0.931 . S
C94 C88 1.439 . S
C94 C93 1.374 . S
C94 H109 0.931 . S
Eu95 N86 2.600 . S
Eu95 N96 2.562 . S
Eu95 O130 2.335 1_655 S
Eu95 O133 2.372 1_655 S
Eu95 O134 2.462 . S
Eu95 O135 2.373 . S
Eu95 O137 2.432 . S
Eu95 O138 2.291 . S
Eu95 C159 2.787 . S
N96 C92 1.351 . S
N96 Eu95 2.562 . S
N96 C98 1.325 . S
C97 C91 1.404 . S
C97 C99 1.366 . S
C97 H105 0.930 . S
C98 N96 1.325 . S
C98 C99 1.416 . S
C98 H104 0.929 . S
C99 C97 1.366 . S
C99 C98 1.416 . S
C99 H101 0.930 . S
H100 C89 0.943 . S
H101 C99 0.930 . S
H102 C117 0.930 . S
H103 C124 0.930 . S
H104 C98 0.929 . S
H105 C97 0.930 . S
H106 C120 0.929 . S
H107 C87 0.931 . S
H108 C93 0.931 . S
H109 C94 0.931 . S
H110 C115 0.931 . S
H111 C90 0.929 . S
H112 C123 0.930 . S
N113 Eu84 2.600 . S
N113 C114 1.365 . S
N113 C117 1.319 . S
C114 N113 1.365 . S
C114 C116 1.405 1_565 S
C114 C122 1.448 . S
C115 H110 0.931 . S
C115 C117 1.397 1_545 S
C115 C118 1.367 . S
C116 C114 1.405 1_545 S
C116 C118 1.403 . S
C116 C149 1.439 . S
C117 H102 0.930 . S
C117 N113 1.319 . S
C117 C115 1.397 1_565 S
C118 C115 1.367 . S
C118 C116 1.403 . S
C118 H125 0.929 . S
N119 Eu84 2.562 . S
N119 C120 1.325 . S
N119 C122 1.351 . S
C120 H106 0.929 . S
C120 N119 1.325 . S
C120 C124 1.416 . S
C121 C122 1.430 . S
C121 C123 1.404 . S
C121 C150 1.387 1_565 S
C122 C114 1.448 . S
C122 N119 1.351 . S
C122 C121 1.430 . S
C123 H112 0.930 . S
C123 C121 1.404 . S
C123 C124 1.366 . S
C124 H103 0.930 . S
C124 C120 1.416 . S
C124 C123 1.366 . S
H125 C118 0.929 . S
H126 C149 0.931 . S
H127 C150 0.931 . S
O128 Eu84 2.462 . S
O128 C148 1.252 . S
O129 Eu84 2.373 . S
O129 C140 1.249 . S
O130 Eu95 2.335 1_455 S
O130 C140 1.264 . S
O131 Eu84 2.432 . S
O131 C148 1.268 . S
O132 Eu84 2.291 . S
O132 C147 1.255 . S
O133 Eu95 2.372 1_455 S
O133 C147 1.257 . S
O134 Eu95 2.462 . S
O134 C159 1.252 . S
O135 Eu95 2.373 . S
O135 C151 1.249 . S
O136 Eu84 2.335 . S
O136 C151 1.264 1_455 S
O137 Eu95 2.432 . S
O137 C159 1.268 . S
O138 Eu95 2.291 . S
O138 C158 1.255 . S
O139 Eu84 2.372 1_655 S
O139 C158 1.257 . S
C140 O129 1.249 . S
C140 O130 1.264 . S
C141 C144 1.382 . S
C141 C146 1.390 . S
C141 C148 1.506 . S
C142 C143 1.398 . S
C142 C146 1.392 . S
C143 C142 1.398 . S
C143 C145 1.372 . S
C143 H160 0.931 . S
C144 C141 1.382 . S
C144 C145 1.390 . S
C144 H161 0.931 . S
C145 C143 1.372 . S
C145 C144 1.390 . S
C145 H162 0.929 . S
C146 C141 1.390 . S
C146 C142 1.392 . S
C146 H163 0.930 . S
C147 O132 1.255 . S
C147 O133 1.257 . S
C148 Eu84 2.787 . S
C148 O128 1.252 . S
C148 O131 1.268 . S
C148 C141 1.506 . S
C149 C116 1.439 . S
C149 H126 0.931 . S
C149 C150 1.374 . S
C150 C121 1.387 1_545 S
C150 H127 0.931 . S
C150 C149 1.374 . S
C151 O135 1.249 . S
C151 O136 1.264 1_655 S
C152 C155 1.382 . S
C152 C156 1.390 . S
C152 C159 1.506 . S
C153 C154 1.398 . S
C153 C156 1.392 . S
C154 C153 1.398 . S
C154 C157 1.372 . S
C154 H164 0.931 . S
C155 C152 1.382 . S
C155 C157 1.390 . S
C155 H165 0.931 . S
C156 C152 1.390 . S
C156 C153 1.392 . S
C156 H166 0.930 . S
C157 C154 1.372 . S
C157 C155 1.390 . S
C157 H167 0.929 . S
C158 O138 1.255 . S
C158 O139 1.257 . S
C159 Eu95 2.787 . S
C159 O134 1.252 . S
C159 O137 1.268 . S
C159 C152 1.506 . S
H160 C143 0.931 . S
H161 C144 0.931 . S
H162 C145 0.929 . S
H163 C146 0.930 . S
H164 C154 0.931 . S
H165 C155 0.931 . S
H166 C156 0.930 . S
H167 C157 0.929 . S
Eu168 N197 2.600 . S
Eu168 N203 2.562 . S
Eu168 O212 2.462 . S
Eu168 O213 2.373 . S
Eu168 O215 2.432 . S
Eu168 O216 2.291 . S
Eu168 O220 2.335 . S
Eu168 O223 2.372 1_556 S
Eu168 C232 2.787 . S
C169 N170 1.365 . S
C169 C172 1.405 . S
C169 C176 1.448 . S
N170 C169 1.365 . S
N170 C173 1.319 . S
N170 Eu179 2.600 . S
C171 C173 1.397 . S
C171 C174 1.367 . S
C171 H191 0.931 . S
C172 C169 1.405 . S
C172 C174 1.403 . S
C172 C178 1.439 . S
C173 N170 1.319 . S
C173 C171 1.397 . S
C173 H184 0.922 1_554 S
C174 C171 1.367 . S
C174 C172 1.403 . S
C174 H195 0.929 . S
C175 C176 1.430 . S
C175 C177 1.387 . S
C175 C181 1.404 . S
C176 C169 1.448 . S
C176 C175 1.430 . S
C176 N180 1.351 . S
C177 C175 1.387 . S
C177 C178 1.374 . S
C177 H192 0.931 . S
C178 C172 1.439 . S
C178 C177 1.374 . S
C178 H193 0.931 . S
Eu179 N170 2.600 . S
Eu179 N180 2.562 . S
Eu179 O214 2.335 1_554 S
Eu179 O217 2.372 1_554 S
Eu179 O218 2.462 . S
Eu179 O219 2.373 . S
Eu179 O221 2.432 . S
Eu179 O222 2.291 . S
Eu179 C243 2.787 . S
N180 C176 1.351 . S
N180 Eu179 2.562 . S
N180 C182 1.325 . S
C181 C175 1.404 . S
C181 C183 1.366 . S
C181 H189 0.930 . S
C182 N180 1.325 . S
C182 C183 1.416 . S
C182 H188 0.929 . S
C183 C181 1.366 . S
C183 C182 1.416 . S
C183 H185 0.930 . S
H184 C173 0.922 1_556 S
H185 C183 0.930 . S
H186 C201 0.930 . S
H187 C208 0.930 . S
H188 C182 0.929 . S
H189 C181 0.930 . S
H190 C204 0.929 . S
H191 C171 0.931 . S
H192 C177 0.931 . S
H193 C178 0.931 . S
H194 C199 0.931 . S
H195 C174 0.929 . S
H196 C207 0.930 . S
N197 Eu168 2.600 . S
N197 C198 1.365 . S
N197 C201 1.319 . S
C198 N197 1.365 . S
C198 C200 1.405 . S
C198 C206 1.448 . S
C199 H194 0.931 . S
C199 C201 1.397 . S
C199 C202 1.367 . S
C200 C198 1.405 . S
C200 C202 1.403 . S
C200 C233 1.439 . S
C201 H186 0.930 . S
C201 N197 1.319 . S
C201 C199 1.397 . S
C202 C199 1.367 . S
C202 C200 1.403 . S
C202 H209 0.929 . S
N203 Eu168 2.562 . S
N203 C204 1.325 . S
N203 C206 1.351 . S
C204 H190 0.929 . S
C204 N203 1.325 . S
C204 C208 1.416 . S
C205 C206 1.430 . S
C205 C207 1.404 . S
C205 C234 1.387 . S
C206 C198 1.448 . S
C206 N203 1.351 . S
C206 C205 1.430 . S
C207 H196 0.930 . S
C207 C205 1.404 . S
C207 C208 1.366 . S
C208 H187 0.930 . S
C208 C204 1.416 . S
C208 C207 1.366 . S
H209 C202 0.929 . S
H210 C233 0.931 . S
H211 C234 0.931 . S
O212 Eu168 2.462 . S
O212 C232 1.252 . S
O213 Eu168 2.373 . S
O213 C224 1.249 . S
O214 Eu179 2.335 1_556 S
O214 C224 1.264 . S
O215 Eu168 2.432 . S
O215 C232 1.268 . S
O216 Eu168 2.291 . S
O216 C231 1.255 . S
O217 Eu179 2.372 1_556 S
O217 C231 1.257 . S
O218 Eu179 2.462 . S
O218 C243 1.252 . S
O219 Eu179 2.373 . S
O219 C235 1.249 . S
O220 Eu168 2.335 . S
O220 C235 1.264 1_556 S
O221 Eu179 2.432 . S
O221 C243 1.268 . S
O222 Eu179 2.291 . S
O222 C242 1.255 . S
O223 Eu168 2.372 1_554 S
O223 C242 1.257 . S
C224 O213 1.249 . S
C224 O214 1.264 . S
C225 C228 1.382 . S
C225 C230 1.390 . S
C225 C232 1.506 . S
C226 C227 1.398 . S
C226 C230 1.392 . S
C227 C226 1.398 . S
C227 C229 1.372 . S
C227 H244 0.931 . S
C228 C225 1.382 . S
C228 C229 1.390 . S
C228 H245 0.931 . S
C229 C227 1.372 . S
C229 C228 1.390 . S
C229 H246 0.929 . S
C230 C225 1.390 . S
C230 C226 1.392 . S
C230 H247 0.930 . S
C231 O216 1.255 . S
C231 O217 1.257 . S
C232 Eu168 2.787 . S
C232 O212 1.252 . S
C232 O215 1.268 . S
C232 C225 1.506 . S
C233 C200 1.439 . S
C233 H210 0.931 . S
C233 C234 1.374 . S
C234 C205 1.387 . S
C234 H211 0.931 . S
C234 C233 1.374 . S
C235 O219 1.249 . S
C235 O220 1.264 1_554 S
C236 C239 1.382 . S
C236 C240 1.390 . S
C236 C243 1.506 . S
C237 C238 1.398 . S
C237 C240 1.392 . S
C238 C237 1.398 . S
C238 C241 1.372 . S
C238 H248 0.931 . S
C239 C236 1.382 . S
C239 C241 1.390 . S
C239 H249 0.931 . S
C240 C236 1.390 . S
C240 C237 1.392 . S
C240 H250 0.930 . S
C241 C238 1.372 . S
C241 C239 1.390 . S
C241 H251 0.929 . S
C242 O222 1.255 . S
C242 O223 1.257 . S
C243 Eu179 2.787 . S
C243 O218 1.252 . S
C243 O221 1.268 . S
C243 C236 1.506 . S
H244 C227 0.931 . S
H245 C228 0.931 . S
H246 C229 0.929 . S
H247 C230 0.930 . S
H248 C238 0.931 . S
H249 C239 0.931 . S
H250 C240 0.930 . S
H251 C241 0.929 . S
Eu252 N281 2.600 . S
Eu252 N287 2.562 . S
Eu252 O296 2.462 . S
Eu252 O297 2.373 . S
Eu252 O299 2.432 . S
Eu252 O300 2.291 . S
Eu252 O304 2.335 . S
Eu252 O307 2.372 . S
Eu252 C316 2.787 . S
C253 N254 1.365 . S
C253 C256 1.405 . S
C253 C260 1.448 . S
N254 C253 1.365 . S
N254 C257 1.319 . S
N254 Eu263 2.600 . S
C255 C257 1.397 . S
C255 C258 1.367 . S
C255 H275 0.931 . S
C256 C253 1.405 . S
C256 C258 1.403 . S
C256 C262 1.439 . S
C257 N254 1.319 . S
C257 C255 1.397 . S
C257 H268 0.930 . S
C258 C255 1.367 . S
C258 C256 1.403 . S
C258 H279 0.929 . S
C259 C260 1.430 . S
C259 C261 1.387 . S
C259 C265 1.404 . S
C260 C253 1.448 . S
C260 C259 1.430 . S
C260 N264 1.351 . S
C261 C259 1.387 . S
C261 C262 1.374 . S
C261 H276 0.931 . S
C262 C256 1.439 . S
C262 C261 1.374 . S
C262 H277 0.931 . S
Eu263 N254 2.600 . S
Eu263 N264 2.562 . S
Eu263 O298 2.335 . S
Eu263 O301 2.372 . S
Eu263 O302 2.462 . S
Eu263 O303 2.373 . S
Eu263 O305 2.432 . S
Eu263 O306 2.291 . S
Eu263 C327 2.787 . S
N264 C260 1.351 . S
N264 Eu263 2.562 . S
N264 C266 1.325 . S
C265 C259 1.404 . S
C265 C267 1.366 . S
C265 H273 0.930 . S
C266 N264 1.325 . S
C266 C267 1.416 . S
C266 H272 0.929 . S
C267 C265 1.366 . S
C267 C266 1.416 . S
C267 H269 0.930 . S
H268 C257 0.930 . S
H269 C267 0.930 . S
H270 C285 0.930 . S
H271 C292 0.930 . S
H272 C266 0.929 . S
H273 C265 0.930 . S
H274 C288 0.929 . S
H275 C255 0.931 . S
H276 C261 0.931 . S
H277 C262 0.931 . S
H278 C283 0.931 . S
H279 C258 0.929 . S
H280 C291 0.930 . S
N281 Eu252 2.600 . S
N281 C282 1.365 . S
N281 C285 1.319 . S
C282 N281 1.365 . S
C282 C284 1.405 1_545 S
C282 C290 1.448 . S
C283 H278 0.931 . S
C283 C285 1.397 1_565 S
C283 C286 1.367 . S
C284 C282 1.405 1_565 S
C284 C286 1.403 . S
C284 C317 1.439 . S
C285 H270 0.930 . S
C285 N281 1.319 . S
C285 C283 1.397 1_545 S
C286 C283 1.367 . S
C286 C284 1.403 . S
C286 H293 0.929 . S
N287 Eu252 2.562 . S
N287 C288 1.325 . S
N287 C290 1.351 . S
C288 H274 0.929 . S
C288 N287 1.325 . S
C288 C292 1.416 . S
C289 C290 1.430 . S
C289 C291 1.404 . S
C289 C318 1.387 1_545 S
C290 C282 1.448 . S
C290 N287 1.351 . S
C290 C289 1.430 . S
C291 H280 0.930 . S
C291 C289 1.404 . S
C291 C292 1.366 . S
C292 H271 0.930 . S
C292 C288 1.416 . S
C292 C291 1.366 . S
H293 C286 0.929 . S
H294 C317 0.931 . S
H295 C318 0.931 . S
O296 Eu252 2.462 . S
O296 C316 1.252 . S
O297 Eu252 2.373 . S
O297 C308 1.249 . S
O298 Eu263 2.335 . S
O298 C308 1.264 . S
O299 Eu252 2.432 . S
O299 C316 1.268 . S
O300 Eu252 2.291 . S
O300 C315 1.255 . S
O301 Eu263 2.372 . S
O301 C315 1.257 . S
O302 Eu263 2.462 . S
O302 C327 1.252 . S
O303 Eu263 2.373 . S
O303 C319 1.249 . S
O304 Eu252 2.335 . S
O304 C319 1.264 . S
O305 Eu263 2.432 . S
O305 C327 1.268 . S
O306 Eu263 2.291 . S
O306 C326 1.255 . S
O307 Eu252 2.372 . S
O307 C326 1.257 . S
C308 O297 1.249 . S
C308 O298 1.264 . S
C309 C312 1.382 . S
C309 C314 1.390 . S
C309 C316 1.506 . S
C310 C311 1.398 . S
C310 C314 1.392 . S
C311 C310 1.398 . S
C311 C313 1.372 . S
C311 H328 0.931 . S
C312 C309 1.382 . S
C312 C313 1.390 . S
C312 H329 0.931 . S
C313 C311 1.372 . S
C313 C312 1.390 . S
C313 H330 0.929 . S
C314 C309 1.390 . S
C314 C310 1.392 . S
C314 H331 0.930 . S
C315 O300 1.255 . S
C315 O301 1.257 . S
C316 Eu252 2.787 . S
C316 O296 1.252 . S
C316 O299 1.268 . S
C316 C309 1.506 . S
C317 C284 1.439 . S
C317 H294 0.931 . S
C317 C318 1.374 . S
C318 C289 1.387 1_565 S
C318 H295 0.931 . S
C318 C317 1.374 . S
C319 O303 1.249 . S
C319 O304 1.264 . S
C320 C323 1.382 . S
C320 C324 1.390 . S
C320 C327 1.506 . S
C321 C322 1.398 . S
C321 C324 1.392 . S
C322 C321 1.398 . S
C322 C325 1.372 . S
C322 H332 0.931 . S
C323 C320 1.382 . S
C323 C325 1.390 . S
C323 H333 0.931 . S
C324 C320 1.390 . S
C324 C321 1.392 . S
C324 H334 0.930 . S
C325 C322 1.372 . S
C325 C323 1.390 . S
C325 H335 0.929 . S
C326 O306 1.255 . S
C326 O307 1.257 . S
C327 Eu263 2.787 . S
C327 O302 1.252 . S
C327 O305 1.268 . S
C327 C320 1.506 . S
H328 C311 0.931 . S
H329 C312 0.931 . S
H330 C313 0.929 . S
H331 C314 0.930 . S
H332 C322 0.931 . S
H333 C323 0.931 . S
H334 C324 0.930 . S
H335 C325 0.929 . S
Eu336 N365 2.600 . S
Eu336 N371 2.562 . S
Eu336 O380 2.462 . S
Eu336 O381 2.373 . S
Eu336 O383 2.432 . S
Eu336 O384 2.291 . S
Eu336 O388 2.335 . S
Eu336 O391 2.372 . S
Eu336 C400 2.787 . S
C337 N338 1.365 . S
C337 C340 1.405 . S
C337 C344 1.448 . S
N338 C337 1.365 . S
N338 C341 1.319 . S
N338 Eu347 2.600 . S
C339 C341 1.397 . S
C339 C342 1.367 . S
C339 H359 0.931 . S
C340 C337 1.405 . S
C340 C342 1.403 . S
C340 C346 1.439 . S
C341 N338 1.319 . S
C341 C339 1.397 . S
C341 H352 0.930 . S
C342 C339 1.367 . S
C342 C340 1.403 . S
C342 H363 0.929 . S
C343 C344 1.430 . S
C343 C345 1.387 . S
C343 C349 1.404 . S
C344 C337 1.448 . S
C344 C343 1.430 . S
C344 N348 1.351 . S
C345 C343 1.387 . S
C345 C346 1.374 . S
C345 H360 0.931 . S
C346 C340 1.439 . S
C346 C345 1.374 . S
C346 H361 0.931 . S
Eu347 N338 2.600 . S
Eu347 N348 2.562 . S
Eu347 O382 2.335 . S
Eu347 O385 2.372 . S
Eu347 O386 2.462 . S
Eu347 O387 2.373 . S
Eu347 O389 2.432 . S
Eu347 O390 2.291 . S
Eu347 C411 2.787 . S
N348 C344 1.351 . S
N348 Eu347 2.562 . S
N348 C350 1.325 . S
C349 C343 1.404 . S
C349 C351 1.366 . S
C349 H357 0.930 . S
C350 N348 1.325 . S
C350 C351 1.416 . S
C350 H356 0.929 . S
C351 C349 1.366 . S
C351 C350 1.416 . S
C351 H353 0.930 . S
H352 C341 0.930 . S
H353 C351 0.930 . S
H354 C369 0.930 . S
H355 C376 0.930 . S
H356 C350 0.929 . S
H357 C349 0.930 . S
H358 C372 0.929 . S
H359 C339 0.931 . S
H360 C345 0.931 . S
H361 C346 0.931 . S
H362 C367 0.931 . S
H363 C342 0.929 . S
H364 C375 0.930 . S
N365 Eu336 2.600 . S
N365 C366 1.365 . S
N365 C369 1.319 . S
C366 N365 1.365 . S
C366 C368 1.405 . S
C366 C374 1.448 . S
C367 H362 0.931 . S
C367 C369 1.397 . S
C367 C370 1.367 . S
C368 C366 1.405 . S
C368 C370 1.403 . S
C368 C401 1.439 . S
C369 H354 0.930 . S
C369 N365 1.319 . S
C369 C367 1.397 . S
C370 C367 1.367 . S
C370 C368 1.403 . S
C370 H377 0.929 . S
N371 Eu336 2.562 . S
N371 C372 1.325 . S
N371 C374 1.351 . S
C372 H358 0.929 . S
C372 N371 1.325 . S
C372 C376 1.416 . S
C373 C374 1.430 . S
C373 C375 1.404 . S
C373 C402 1.387 . S
C374 C366 1.448 . S
C374 N371 1.351 . S
C374 C373 1.430 . S
C375 H364 0.930 . S
C375 C373 1.404 . S
C375 C376 1.366 . S
C376 H355 0.930 . S
C376 C372 1.416 . S
C376 C375 1.366 . S
H377 C370 0.929 . S
H378 C401 0.931 . S
H379 C402 0.931 . S
O380 Eu336 2.462 . S
O380 C400 1.252 . S
O381 Eu336 2.373 . S
O381 C392 1.249 . S
O382 Eu347 2.335 . S
O382 C392 1.264 . S
O383 Eu336 2.432 . S
O383 C400 1.268 . S
O384 Eu336 2.291 . S
O384 C399 1.255 . S
O385 Eu347 2.372 . S
O385 C399 1.257 . S
O386 Eu347 2.462 . S
O386 C411 1.252 . S
O387 Eu347 2.373 . S
O387 C403 1.249 . S
O388 Eu336 2.335 . S
O388 C403 1.264 . S
O389 Eu347 2.432 . S
O389 C411 1.268 . S
O390 Eu347 2.291 . S
O390 C410 1.255 . S
O391 Eu336 2.372 . S
O391 C410 1.257 . S
C392 O381 1.249 . S
C392 O382 1.264 . S
C393 C396 1.382 . S
C393 C398 1.390 . S
C393 C400 1.506 . S
C394 C395 1.398 . S
C394 C398 1.392 . S
C395 C394 1.398 . S
C395 C397 1.372 . S
C395 H412 0.931 . S
C396 C393 1.382 . S
C396 C397 1.390 . S
C396 H413 0.931 . S
C397 C395 1.372 . S
C397 C396 1.390 . S
C397 H414 0.929 . S
C398 C393 1.390 . S
C398 C394 1.392 . S
C398 H415 0.930 . S
C399 O384 1.255 . S
C399 O385 1.257 . S
C400 Eu336 2.787 . S
C400 O380 1.252 . S
C400 O383 1.268 . S
C400 C393 1.506 . S
C401 C368 1.439 . S
C401 H378 0.931 . S
C401 C402 1.374 . S
C402 C373 1.387 . S
C402 H379 0.931 . S
C402 C401 1.374 . S
C403 O387 1.249 . S
C403 O388 1.264 . S
C404 C407 1.382 . S
C404 C408 1.390 . S
C404 C411 1.506 . S
C405 C406 1.398 . S
C405 C408 1.392 . S
C406 C405 1.398 . S
C406 C409 1.372 . S
C406 H416 0.931 . S
C407 C404 1.382 . S
C407 C409 1.390 . S
C407 H417 0.931 . S
C408 C404 1.390 . S
C408 C405 1.392 . S
C408 H418 0.930 . S
C409 C406 1.372 . S
C409 C407 1.390 . S
C409 H419 0.929 . S
C410 O390 1.255 . S
C410 O391 1.257 . S
C411 Eu347 2.787 . S
C411 O386 1.252 . S
C411 O389 1.268 . S
C411 C404 1.506 . S
H412 C395 0.931 . S
H413 C396 0.931 . S
H414 C397 0.929 . S
H415 C398 0.930 . S
H416 C406 0.931 . S
H417 C407 0.931 . S
H418 C408 0.930 . S
H419 C409 0.929 . S
Eu420 N449 2.600 . S
Eu420 N455 2.562 . S
Eu420 O464 2.462 . S
Eu420 O465 2.373 1_455 S
Eu420 O467 2.432 . S
Eu420 O468 2.291 1_455 S
Eu420 O472 2.335 . S
Eu420 O475 2.372 . S
Eu420 C484 2.787 . S
C421 N422 1.365 . S
C421 C424 1.405 . S
C421 C428 1.448 . S
N422 C421 1.365 . S
N422 C425 1.319 . S
N422 Eu431 2.600 . S
C423 C425 1.397 . S
C423 C426 1.367 . S
C423 H443 0.931 . S
C424 C421 1.405 . S
C424 C426 1.403 . S
C424 C430 1.439 . S
C425 N422 1.319 . S
C425 C423 1.397 . S
C425 H436 0.930 . S
C426 C423 1.367 . S
C426 C424 1.403 . S
C426 H447 0.929 . S
C427 C428 1.430 . S
C427 C429 1.387 . S
C427 C433 1.404 1_655 S
C428 C421 1.448 . S
C428 C427 1.430 . S
C428 N432 1.351 . S
C429 C427 1.387 . S
C429 C430 1.374 . S
C429 H444 0.931 . S
C430 C424 1.439 . S
C430 C429 1.374 . S
C430 H445 0.931 . S
Eu431 N422 2.600 . S
Eu431 N432 2.562 . S
Eu431 O466 2.335 . S
Eu431 O469 2.372 . S
Eu431 O470 2.462 . S
Eu431 O471 2.373 1_655 S
Eu431 O473 2.432 . S
Eu431 O474 2.311 . S
Eu431 C495 2.787 . S
N432 C428 1.351 . S
N432 Eu431 2.562 . S
N432 C434 1.325 . S
C433 C427 1.404 1_455 S
C433 C435 1.366 . S
C433 H441 0.930 . S
C434 N432 1.325 . S
C434 C435 1.416 1_655 S
C434 H440 0.929 . S
C435 C433 1.366 . S
C435 C434 1.416 1_455 S
C435 H437 0.930 . S
H436 C425 0.930 . S
H437 C435 0.930 . S
H438 C453 0.930 . S
H439 C460 0.930 . S
H440 C434 0.929 . S
H441 C433 0.930 . S
H442 C456 0.929 . S
H443 C423 0.931 . S
H444 C429 0.931 . S
H445 C430 0.931 . S
H446 C451 0.931 . S
H447 C426 0.929 . S
H448 C459 0.930 . S
N449 Eu420 2.600 . S
N449 C450 1.365 . S
N449 C453 1.319 . S
C450 N449 1.365 . S
C450 C452 1.405 . S
C450 C458 1.448 . S
C451 H446 0.931 . S
C451 C453 1.397 . S
C451 C454 1.367 . S
C452 C450 1.405 . S
C452 C454 1.403 . S
C452 C485 1.439 . S
C453 H438 0.930 . S
C453 N449 1.319 . S
C453 C451 1.397 . S
C454 C451 1.367 . S
C454 C452 1.403 . S
C454 H461 0.929 . S
N455 Eu420 2.562 . S
N455 C456 1.325 1_455 S
N455 C458 1.351 . S
C456 H442 0.929 . S
C456 N455 1.325 1_655 S
C456 C460 1.416 . S
C457 C458 1.430 . S
C457 C459 1.404 1_455 S
C457 C486 1.387 . S
C458 C450 1.448 . S
C458 N455 1.351 . S
C458 C457 1.430 . S
C459 H448 0.930 . S
C459 C457 1.404 1_655 S
C459 C460 1.366 . S
C460 H439 0.930 . S
C460 C456 1.416 . S
C460 C459 1.366 . S
H461 C454 0.929 . S
H462 C485 0.931 . S
H463 C486 0.931 1_655 S
O464 Eu420 2.462 . S
O464 C484 1.252 . S
O465 Eu420 2.373 1_655 S
O465 C476 1.249 . S
O466 Eu431 2.335 . S
O466 C476 1.264 . S
O467 Eu420 2.432 . S
O467 C484 1.268 . S
O468 Eu420 2.291 1_655 S
O468 C483 1.255 . S
O469 Eu431 2.372 . S
O469 C483 1.257 . S
O470 Eu431 2.462 . S
O470 C495 1.252 . S
O471 Eu431 2.373 1_455 S
O471 C487 1.249 . S
O472 Eu420 2.335 . S
O472 C487 1.264 . S
O473 Eu431 2.432 . S
O473 C495 1.268 . S
O474 Eu431 2.311 . S
O474 C494 1.237 1_655 S
O475 Eu420 2.372 . S
O475 C494 1.257 . S
C476 O465 1.249 . S
C476 O466 1.264 . S
C477 C480 1.382 . S
C477 C482 1.390 . S
C477 C484 1.506 . S
C478 C479 1.398 . S
C478 C482 1.392 . S
C479 C478 1.398 . S
C479 C481 1.372 . S
C479 H496 0.931 . S
C480 C477 1.382 . S
C480 C481 1.390 . S
C480 H497 0.931 . S
C481 C479 1.372 . S
C481 C480 1.390 . S
C481 H498 0.929 . S
C482 C477 1.390 . S
C482 C478 1.392 . S
C482 H499 0.930 . S
C483 O468 1.255 . S
C483 O469 1.257 . S
C484 Eu420 2.787 . S
C484 O464 1.252 . S
C484 O467 1.268 . S
C484 C477 1.506 . S
C485 C452 1.439 . S
C485 H462 0.931 . S
C485 C486 1.374 . S
C486 C457 1.387 . S
C486 H463 0.931 1_455 S
C486 C485 1.374 . S
C487 O471 1.249 . S
C487 O472 1.264 . S
C488 C491 1.382 . S
C488 C492 1.390 . S
C488 C495 1.506 . S
C489 C490 1.398 . S
C489 C492 1.392 . S
C490 C489 1.398 . S
C490 C493 1.372 . S
C490 H500 0.931 . S
C491 C488 1.382 . S
C491 C493 1.390 . S
C491 H501 0.931 . S
C492 C488 1.390 . S
C492 C489 1.392 . S
C492 H502 0.930 . S
C493 C490 1.372 . S
C493 C491 1.390 . S
C493 H503 0.929 . S
C494 O474 1.237 1_455 S
C494 O475 1.257 . S
C495 Eu431 2.787 . S
C495 O470 1.252 . S
C495 O473 1.268 . S
C495 C488 1.506 . S
H496 C479 0.931 . S
H497 C480 0.931 . S
H498 C481 0.929 . S
H499 C482 0.930 . S
H500 C490 0.931 . S
H501 C491 0.931 . S
H502 C492 0.930 . S
H503 C493 0.929 . S
Eu504 N533 2.600 . S
Eu504 N539 2.562 . S
Eu504 O548 2.462 . S
Eu504 O549 2.373 1_556 S
Eu504 O551 2.432 . S
Eu504 O552 2.291 1_556 S
Eu504 O556 2.335 . S
Eu504 O559 2.372 . S
Eu504 C568 2.787 . S
C505 N506 1.365 . S
C505 C508 1.405 1_655 S
C505 C512 1.448 . S
N506 C505 1.365 . S
N506 C509 1.319 . S
N506 Eu515 2.600 . S
C507 C509 1.397 1_455 S
C507 C510 1.367 . S
C507 H527 0.931 . S
C508 C505 1.405 1_455 S
C508 C510 1.403 . S
C508 C514 1.439 . S
C509 N506 1.319 . S
C509 C507 1.397 1_655 S
C509 H520 0.930 . S
C510 C507 1.367 . S
C510 C508 1.403 . S
C510 H531 0.929 . S
C511 C512 1.430 . S
C511 C513 1.387 1_655 S
C511 C517 1.404 1_554 S
C512 C505 1.448 . S
C512 C511 1.430 . S
C512 N516 1.351 . S
C513 C511 1.387 1_455 S
C513 C514 1.374 . S
C513 H528 0.931 . S
C514 C508 1.439 . S
C514 C513 1.374 . S
C514 H529 0.931 . S
Eu515 N506 2.600 . S
Eu515 N516 2.562 . S
Eu515 O550 2.335 . S
Eu515 O553 2.372 . S
Eu515 O554 2.462 . S
Eu515 O555 2.373 1_554 S
Eu515 O557 2.432 . S
Eu515 O558 2.291 1_554 S
Eu515 C579 2.787 . S
N516 C512 1.351 . S
N516 Eu515 2.562 . S
N516 C518 1.325 . S
C517 C511 1.404 1_556 S
C517 C519 1.366 . S
C517 H525 0.930 . S
C518 N516 1.325 . S
C518 C519 1.416 1_554 S
C518 H524 0.929 . S
C519 C517 1.366 . S
C519 C518 1.416 1_556 S
C519 H521 0.930 . S
H520 C509 0.930 . S
H521 C519 0.930 . S
H522 C537 0.930 . S
H523 C544 0.930 . S
H524 C518 0.929 . S
H525 C517 0.930 . S
H526 C540 0.929 . S
H527 C507 0.931 . S
H528 C513 0.931 . S
H529 C514 0.931 . S
H530 C535 0.931 . S
H531 C510 0.929 . S
H532 C543 0.930 . S
N533 Eu504 2.600 . S
N533 C534 1.365 . S
N533 C537 1.319 . S
C534 N533 1.365 . S
C534 C536 1.405 . S
C534 C542 1.448 . S
C535 H530 0.931 . S
C535 C537 1.397 . S
C535 C538 1.367 . S
C536 C534 1.405 . S
C536 C538 1.403 . S
C536 C569 1.439 . S
C537 H522 0.930 . S
C537 N533 1.319 . S
C537 C535 1.397 . S
C538 C535 1.367 . S
C538 C536 1.403 . S
C538 H545 0.929 . S
N539 Eu504 2.562 . S
N539 C540 1.325 1_556 S
N539 C542 1.351 . S
C540 H526 0.929 . S
C540 N539 1.325 1_554 S
C540 C544 1.416 . S
C541 C542 1.430 . S
C541 C543 1.404 1_556 S
C541 C570 1.387 . S
C542 C534 1.448 . S
C542 N539 1.351 . S
C542 C541 1.430 . S
C543 H532 0.930 . S
C543 C541 1.404 1_554 S
C543 C544 1.366 . S
C544 H523 0.930 . S
C544 C540 1.416 . S
C544 C543 1.366 . S
H545 C538 0.929 . S
H546 C569 0.931 . S
H547 C570 0.937 . S
O548 Eu504 2.462 . S
O548 C568 1.252 . S
O549 Eu504 2.373 1_554 S
O549 C560 1.249 . S
O550 Eu515 2.335 . S
O550 C560 1.264 . S
O551 Eu504 2.432 . S
O551 C568 1.268 . S
O552 Eu504 2.291 1_554 S
O552 C567 1.255 . S
O553 Eu515 2.372 . S
O553 C567 1.257 . S
O554 Eu515 2.462 . S
O554 C579 1.252 . S
O555 Eu515 2.373 1_556 S
O555 C571 1.249 . S
O556 Eu504 2.335 . S
O556 C571 1.264 . S
O557 Eu515 2.432 . S
O557 C579 1.268 . S
O558 Eu515 2.291 1_556 S
O558 C578 1.255 . S
O559 Eu504 2.372 . S
O559 C578 1.257 . S
C560 O549 1.249 . S
C560 O550 1.264 . S
C561 C564 1.382 . S
C561 C566 1.390 . S
C561 C568 1.506 . S
C562 C563 1.398 . S
C562 C566 1.392 . S
C563 C562 1.398 . S
C563 C565 1.372 . S
C563 H580 0.931 . S
C564 C561 1.382 . S
C564 C565 1.390 . S
C564 H581 0.931 . S
C565 C563 1.372 . S
C565 C564 1.390 . S
C565 H582 0.929 . S
C566 C561 1.390 . S
C566 C562 1.392 . S
C566 H583 0.930 . S
C567 O552 1.255 . S
C567 O553 1.257 . S
C568 Eu504 2.787 . S
C568 O548 1.252 . S
C568 O551 1.268 . S
C568 C561 1.506 . S
C569 C536 1.439 . S
C569 H546 0.931 . S
C569 C570 1.374 . S
C570 C541 1.387 . S
C570 H547 0.937 . S
C570 C569 1.374 . S
C571 O555 1.249 . S
C571 O556 1.264 . S
C572 C575 1.382 . S
C572 C576 1.390 . S
C572 C579 1.506 . S
C573 C574 1.398 . S
C573 C576 1.392 . S
C574 C573 1.398 . S
C574 C577 1.372 . S
C574 H584 0.931 . S
C575 C572 1.382 . S
C575 C577 1.390 . S
C575 H585 0.931 . S
C576 C572 1.390 . S
C576 C573 1.392 . S
C576 H586 0.930 . S
C577 C574 1.372 . S
C577 C575 1.390 . S
C577 H587 0.929 . S
C578 O558 1.255 . S
C578 O559 1.257 . S
C579 Eu515 2.787 . S
C579 O554 1.252 . S
C579 O557 1.268 . S
C579 C572 1.506 . S
H580 C563 0.931 . S
H581 C564 0.931 . S
H582 C565 0.929 . S
H583 C566 0.930 . S
H584 C574 0.931 . S
H585 C575 0.931 . S
H586 C576 0.930 . S
H587 C577 0.929 . S
Eu588 N617 2.600 . S
Eu588 N623 2.562 . S
Eu588 O632 2.462 . S
Eu588 O633 2.373 . S
Eu588 O635 2.432 . S
Eu588 O636 2.291 . S
Eu588 O640 2.335 . S
Eu588 O643 2.372 . S
Eu588 C652 2.787 . S
C589 N590 1.365 . S
C589 C592 1.405 . S
C589 C596 1.448 . S
N590 C589 1.365 . S
N590 C593 1.319 . S
N590 Eu599 2.600 . S
C591 C593 1.397 . S
C591 C594 1.367 . S
C591 H611 0.931 . S
C592 C589 1.405 . S
C592 C594 1.403 . S
C592 C598 1.439 . S
C593 N590 1.319 . S
C593 C591 1.397 . S
C593 H604 0.930 . S
C594 C591 1.367 . S
C594 C592 1.403 . S
C594 H615 0.929 . S
C595 C596 1.430 . S
C595 C597 1.387 . S
C595 C601 1.404 . S
C596 C589 1.448 . S
C596 C595 1.430 . S
C596 N600 1.351 . S
C597 C595 1.387 . S
C597 C598 1.374 . S
C597 H612 0.931 . S
C598 C592 1.439 . S
C598 C597 1.374 . S
C598 H613 0.931 . S
Eu599 N590 2.600 . S
Eu599 N600 2.562 . S
Eu599 O634 2.335 . S
Eu599 O637 2.372 . S
Eu599 O638 2.462 . S
Eu599 O639 2.373 . S
Eu599 O641 2.432 . S
Eu599 O642 2.291 . S
Eu599 C663 2.787 . S
N600 C596 1.351 . S
N600 Eu599 2.562 . S
N600 C602 1.325 . S
C601 C595 1.404 . S
C601 C603 1.366 . S
C601 H609 0.930 . S
C602 N600 1.325 . S
C602 C603 1.416 . S
C602 H608 0.929 . S
C603 C601 1.366 . S
C603 C602 1.416 . S
C603 H605 0.930 . S
H604 C593 0.930 . S
H605 C603 0.930 . S
H606 C621 0.930 . S
H607 C628 0.930 . S
H608 C602 0.929 . S
H609 C601 0.930 . S
H610 C624 0.929 . S
H611 C591 0.931 . S
H612 C597 0.931 . S
H613 C598 0.931 . S
H614 C619 0.931 . S
H615 C594 0.929 . S
H616 C627 0.930 . S
N617 Eu588 2.600 . S
N617 C618 1.365 . S
N617 C621 1.319 . S
C618 N617 1.365 . S
C618 C620 1.405 . S
C618 C626 1.448 . S
C619 H614 0.931 . S
C619 C621 1.397 . S
C619 C622 1.367 . S
C620 C618 1.405 . S
C620 C622 1.403 . S
C620 C653 1.439 . S
C621 H606 0.930 . S
C621 N617 1.319 . S
C621 C619 1.397 . S
C622 C619 1.367 . S
C622 C620 1.403 . S
C622 H629 0.929 . S
N623 Eu588 2.562 . S
N623 C624 1.325 . S
N623 C626 1.351 . S
C624 H610 0.929 . S
C624 N623 1.325 . S
C624 C628 1.416 . S
C625 C626 1.430 . S
C625 C627 1.404 . S
C625 C654 1.387 . S
C626 C618 1.448 . S
C626 N623 1.351 . S
C626 C625 1.430 . S
C627 H616 0.930 . S
C627 C625 1.404 . S
C627 C628 1.366 . S
C628 H607 0.930 . S
C628 C624 1.416 . S
C628 C627 1.366 . S
H629 C622 0.929 . S
H630 C653 0.931 . S
H631 C654 0.931 . S
O632 Eu588 2.462 . S
O632 C652 1.252 . S
O633 Eu588 2.373 . S
O633 C644 1.249 . S
O634 Eu599 2.335 . S
O634 C644 1.264 . S
O635 Eu588 2.432 . S
O635 C652 1.268 . S
O636 Eu588 2.291 . S
O636 C651 1.255 . S
O637 Eu599 2.372 . S
O637 C651 1.257 . S
O638 Eu599 2.462 . S
O638 C663 1.252 . S
O639 Eu599 2.373 . S
O639 C655 1.249 . S
O640 Eu588 2.335 . S
O640 C655 1.264 . S
O641 Eu599 2.432 . S
O641 C663 1.268 . S
O642 Eu599 2.291 . S
O642 C662 1.255 . S
O643 Eu588 2.372 . S
O643 C662 1.257 . S
C644 O633 1.249 . S
C644 O634 1.264 . S
C645 C648 1.382 . S
C645 C650 1.390 . S
C645 C652 1.506 . S
C646 C647 1.398 . S
C646 C650 1.392 . S
C647 C646 1.398 . S
C647 C649 1.372 . S
C647 H664 0.931 . S
C648 C645 1.382 . S
C648 C649 1.390 . S
C648 H665 0.931 . S
C649 C647 1.372 . S
C649 C648 1.390 . S
C649 H666 0.929 . S
C650 C645 1.390 . S
C650 C646 1.392 . S
C650 H667 0.930 . S
C651 O636 1.255 . S
C651 O637 1.257 . S
C652 Eu588 2.787 . S
C652 O632 1.252 . S
C652 O635 1.268 . S
C652 C645 1.506 . S
C653 C620 1.439 . S
C653 H630 0.931 . S
C653 C654 1.374 . S
C654 C625 1.387 . S
C654 H631 0.931 . S
C654 C653 1.374 . S
C655 O639 1.249 . S
C655 O640 1.264 . S
C656 C659 1.382 . S
C656 C660 1.390 . S
C656 C663 1.506 . S
C657 C658 1.398 . S
C657 C660 1.392 . S
C658 C657 1.398 . S
C658 C661 1.372 . S
C658 H668 0.931 . S
C659 C656 1.382 . S
C659 C661 1.390 . S
C659 H669 0.931 . S
C660 C656 1.390 . S
C660 C657 1.392 . S
C660 H670 0.930 . S
C661 C658 1.372 . S
C661 C659 1.390 . S
C661 H671 0.929 . S
C662 O642 1.255 . S
C662 O643 1.257 . S
C663 Eu599 2.787 . S
C663 O638 1.252 . S
C663 O641 1.268 . S
C663 C656 1.506 . S
H664 C647 0.931 . S
H665 C648 0.931 . S
H666 C649 0.929 . S
H667 C650 0.930 . S
H668 C658 0.931 . S
H669 C659 0.931 . S
H670 C660 0.930 . S
H671 C661 0.929 . S
Eu672 N701 2.600 . S
Eu672 N707 2.562 . S
Eu672 O716 2.462 . S
Eu672 O717 2.373 . S
Eu672 O719 2.432 . S
Eu672 O720 2.291 . S
Eu672 O724 2.335 . S
Eu672 O727 2.372 . S
Eu672 C736 2.787 . S
C673 N674 1.365 . S
C673 C676 1.405 . S
C673 C680 1.448 . S
N674 C673 1.365 . S
N674 C677 1.319 . S
N674 Eu683 2.600 . S
C675 C677 1.397 . S
C675 C678 1.367 . S
C675 H695 0.931 . S
C676 C673 1.405 . S
C676 C678 1.403 . S
C676 C682 1.439 . S
C677 N674 1.319 . S
C677 C675 1.397 . S
C677 H688 0.930 . S
C678 C675 1.367 . S
C678 C676 1.403 . S
C678 H699 0.929 . S
C679 C680 1.430 . S
C679 C681 1.387 . S
C679 C685 1.404 . S
C680 C673 1.448 . S
C680 C679 1.430 . S
C680 N684 1.351 . S
C681 C679 1.387 . S
C681 C682 1.374 . S
C681 H696 0.931 . S
C682 C676 1.439 . S
C682 C681 1.374 . S
C682 H697 0.931 . S
Eu683 N674 2.600 . S
Eu683 N684 2.562 . S
Eu683 O718 2.335 . S
Eu683 O721 2.372 . S
Eu683 O722 2.462 . S
Eu683 O723 2.373 . S
Eu683 O725 2.432 . S
Eu683 O726 2.291 . S
Eu683 C747 2.787 . S
N684 C680 1.351 . S
N684 Eu683 2.562 . S
N684 C686 1.325 . S
C685 C679 1.404 . S
C685 C687 1.366 . S
C685 H693 0.930 . S
C686 N684 1.325 . S
C686 C687 1.416 . S
C686 H692 0.929 . S
C687 C685 1.366 . S
C687 C686 1.416 . S
C687 H689 0.930 . S
H688 C677 0.930 . S
H689 C687 0.930 . S
H690 C705 0.930 . S
H691 C712 0.930 . S
H692 C686 0.929 . S
H693 C685 0.930 . S
H694 C708 0.929 . S
H695 C675 0.931 . S
H696 C681 0.931 . S
H697 C682 0.931 . S
H698 C703 0.931 . S
H699 C678 0.929 . S
H700 C711 0.930 . S
N701 Eu672 2.600 . S
N701 C702 1.365 . S
N701 C705 1.319 . S
C702 N701 1.365 . S
C702 C704 1.405 1_554 S
C702 C710 1.448 . S
C703 H698 0.931 . S
C703 C705 1.397 1_556 S
C703 C706 1.367 . S
C704 C702 1.405 1_556 S
C704 C706 1.403 . S
C704 C737 1.439 . S
C705 H690 0.930 . S
C705 N701 1.319 . S
C705 C703 1.397 1_554 S
C706 C703 1.367 . S
C706 C704 1.403 . S
C706 H713 0.929 . S
N707 Eu672 2.562 . S
N707 C708 1.325 . S
N707 C710 1.351 . S
C708 H694 0.929 . S
C708 N707 1.325 . S
C708 C712 1.416 . S
C709 C710 1.430 . S
C709 C711 1.404 . S
C709 C738 1.387 1_554 S
C710 C702 1.448 . S
C710 N707 1.351 . S
C710 C709 1.430 . S
C711 H700 0.930 . S
C711 C709 1.404 . S
C711 C712 1.366 . S
C712 H691 0.930 . S
C712 C708 1.416 . S
C712 C711 1.366 . S
H713 C706 0.929 . S
H714 C737 0.931 . S
H715 C738 0.931 . S
O716 Eu672 2.462 . S
O716 C736 1.252 . S
O717 Eu672 2.373 . S
O717 C728 1.249 . S
O718 Eu683 2.335 . S
O718 C728 1.264 . S
O719 Eu672 2.432 . S
O719 C736 1.268 . S
O720 Eu672 2.291 . S
O720 C735 1.255 . S
O721 Eu683 2.372 . S
O721 C735 1.257 . S
O722 Eu683 2.462 . S
O722 C747 1.252 . S
O723 Eu683 2.373 . S
O723 C739 1.249 . S
O724 Eu672 2.335 . S
O724 C739 1.264 . S
O725 Eu683 2.432 . S
O725 C747 1.268 . S
O726 Eu683 2.291 . S
O726 C746 1.255 . S
O727 Eu672 2.372 . S
O727 C746 1.257 . S
C728 O717 1.249 . S
C728 O718 1.264 . S
C729 C732 1.382 . S
C729 C734 1.390 . S
C729 C736 1.506 . S
C730 C731 1.398 . S
C730 C734 1.392 . S
C731 C730 1.398 . S
C731 C733 1.372 . S
C731 H748 0.931 . S
C732 C729 1.382 . S
C732 C733 1.390 . S
C732 H749 0.931 . S
C733 C731 1.372 . S
C733 C732 1.390 . S
C733 H750 0.929 . S
C734 C729 1.390 . S
C734 C730 1.392 . S
C734 H751 0.930 . S
C735 O720 1.255 . S
C735 O721 1.257 . S
C736 Eu672 2.787 . S
C736 O716 1.252 . S
C736 O719 1.268 . S
C736 C729 1.506 . S
C737 C704 1.439 . S
C737 H714 0.931 . S
C737 C738 1.374 . S
C738 C709 1.387 1_556 S
C738 H715 0.931 . S
C738 C737 1.374 . S
C739 O723 1.249 . S
C739 O724 1.264 . S
C740 C743 1.382 . S
C740 C744 1.390 . S
C740 C747 1.506 . S
C741 C742 1.398 . S
C741 C744 1.392 . S
C742 C741 1.398 . S
C742 C745 1.372 . S
C742 H752 0.931 . S
C743 C740 1.382 . S
C743 C745 1.390 . S
C743 H753 0.931 . S
C744 C740 1.390 . S
C744 C741 1.392 . S
C744 H754 0.930 . S
C745 C742 1.372 . S
C745 C743 1.390 . S
C745 H755 0.929 . S
C746 O726 1.255 . S
C746 O727 1.257 . S
C747 Eu683 2.787 . S
C747 O722 1.252 . S
C747 O725 1.268 . S
C747 C740 1.506 . S
H748 C731 0.931 . S
H749 C732 0.931 . S
H750 C733 0.929 . S
H751 C734 0.930 . S
H752 C742 0.931 . S
H753 C743 0.931 . S
H754 C744 0.930 . S
H755 C745 0.929 . S
Eu756 N785 2.600 . S
Eu756 N791 2.562 . S
Eu756 O800 2.462 . S
Eu756 O801 2.373 . S
Eu756 O803 2.432 . S
Eu756 O804 2.291 . S
Eu756 O808 2.335 . S
Eu756 O811 2.372 1_545 S
Eu756 C820 2.787 . S
C757 N758 1.365 . S
C757 C760 1.405 . S
C757 C764 1.448 . S
N758 C757 1.365 . S
N758 C761 1.319 . S
N758 Eu767 2.600 . S
C759 C761 1.397 . S
C759 C762 1.367 . S
C759 H779 0.931 . S
C760 C757 1.405 . S
C760 C762 1.403 . S
C760 C766 1.439 . S
C761 N758 1.319 . S
C761 C759 1.397 . S
C761 H772 0.930 . S
C762 C759 1.367 . S
C762 C760 1.403 . S
C762 H783 0.929 . S
C763 C764 1.430 . S
C763 C765 1.387 . S
C763 C769 1.404 . S
C764 C757 1.448 . S
C764 C763 1.430 . S
C764 N768 1.351 . S
C765 C763 1.387 . S
C765 C766 1.374 . S
C765 H780 0.931 . S
C766 C760 1.439 . S
C766 C765 1.374 . S
C766 H781 0.931 . S
Eu767 N758 2.600 . S
Eu767 N768 2.562 . S
Eu767 O802 2.332 1_565 S
Eu767 O805 2.372 1_565 S
Eu767 O806 2.462 . S
Eu767 O807 2.373 . S
Eu767 O809 2.432 . S
Eu767 O810 2.291 . S
Eu767 C831 2.787 . S
N768 C764 1.351 . S
N768 Eu767 2.562 . S
N768 C770 1.325 . S
C769 C763 1.404 . S
C769 C771 1.366 . S
C769 H777 0.930 . S
C770 N768 1.325 . S
C770 C771 1.416 . S
C770 H776 0.929 . S
C771 C769 1.366 . S
C771 C770 1.416 . S
C771 H773 0.930 . S
H772 C761 0.930 . S
H773 C771 0.930 . S
H774 C789 0.930 . S
H775 C796 0.930 . S
H776 C770 0.929 . S
H777 C769 0.930 . S
H778 C792 0.929 . S
H779 C759 0.931 . S
H780 C765 0.931 . S
H781 C766 0.931 . S
H782 C787 0.931 . S
H783 C762 0.929 . S
H784 C795 0.930 . S
N785 Eu756 2.600 . S
N785 C786 1.365 . S
N785 C789 1.319 . S
C786 N785 1.365 . S
C786 C788 1.405 1_556 S
C786 C794 1.448 . S
C787 H782 0.931 . S
C787 C789 1.397 1_554 S
C787 C790 1.367 . S
C788 C786 1.405 1_554 S
C788 C790 1.403 . S
C788 C821 1.439 . S
C789 H774 0.930 . S
C789 N785 1.319 . S
C789 C787 1.397 1_556 S
C790 C787 1.367 . S
C790 C788 1.403 . S
C790 H797 0.929 . S
N791 Eu756 2.562 . S
N791 C792 1.325 . S
N791 C794 1.351 . S
C792 H778 0.929 . S
C792 N791 1.325 . S
C792 C796 1.416 . S
C793 C794 1.430 . S
C793 C795 1.404 . S
C793 C822 1.387 1_556 S
C794 C786 1.448 . S
C794 N791 1.351 . S
C794 C793 1.430 . S
C795 H784 0.930 . S
C795 C793 1.404 . S
C795 C796 1.366 . S
C796 H775 0.930 . S
C796 C792 1.416 . S
C796 C795 1.366 . S
H797 C790 0.929 . S
H798 C821 0.931 . S
H799 C822 0.931 . S
O800 Eu756 2.462 . S
O800 C820 1.252 . S
O801 Eu756 2.373 . S
O801 C812 1.249 . S
O802 Eu767 2.332 1_545 S
O802 C812 1.267 . S
O803 Eu756 2.432 . S
O803 C820 1.268 . S
O804 Eu756 2.291 . S
O804 C819 1.255 . S
O805 Eu767 2.372 1_545 S
O805 C819 1.257 . S
O806 Eu767 2.462 . S
O806 C831 1.252 . S
O807 Eu767 2.373 . S
O807 C823 1.249 . S
O808 Eu756 2.335 . S
O808 C823 1.264 1_545 S
O809 Eu767 2.432 . S
O809 C831 1.268 . S
O810 Eu767 2.291 . S
O810 C830 1.255 . S
O811 Eu756 2.372 1_565 S
O811 C830 1.257 . S
C812 O801 1.249 . S
C812 O802 1.267 . S
C813 C816 1.382 . S
C813 C818 1.390 . S
C813 C820 1.506 . S
C814 C815 1.398 . S
C814 C818 1.392 . S
C815 C814 1.398 . S
C815 C817 1.372 . S
C815 H832 0.931 . S
C816 C813 1.382 . S
C816 C817 1.390 . S
C816 H833 0.931 . S
C817 C815 1.372 . S
C817 C816 1.390 . S
C817 H834 0.929 . S
C818 C813 1.390 . S
C818 C814 1.392 . S
C818 H835 0.930 . S
C819 O804 1.255 . S
C819 O805 1.257 . S
C820 Eu756 2.787 . S
C820 O800 1.252 . S
C820 O803 1.268 . S
C820 C813 1.506 . S
C821 C788 1.439 . S
C821 H798 0.931 . S
C821 C822 1.374 . S
C822 C793 1.387 1_554 S
C822 H799 0.931 . S
C822 C821 1.374 . S
C823 O807 1.249 . S
C823 O808 1.264 1_565 S
C824 C827 1.382 . S
C824 C828 1.390 . S
C824 C831 1.506 . S
C825 C826 1.398 . S
C825 C828 1.392 . S
C826 C825 1.398 . S
C826 C829 1.372 . S
C826 H836 0.931 . S
C827 C824 1.382 . S
C827 C829 1.390 . S
C827 H837 0.931 . S
C828 C824 1.390 . S
C828 C825 1.392 . S
C828 H838 0.930 . S
C829 C826 1.372 . S
C829 C827 1.390 . S
C829 H839 0.929 . S
C830 O810 1.255 . S
C830 O811 1.257 . S
C831 Eu767 2.787 . S
C831 O806 1.252 . S
C831 O809 1.268 . S
C831 C824 1.506 . S
H832 C815 0.931 . S
H833 C816 0.931 . S
H834 C817 0.929 . S
H835 C818 0.930 . S
H836 C826 0.931 . S
H837 C827 0.931 . S
H838 C828 0.930 . S
H839 C829 0.929 . S
Eu840 N869 2.600 . S
Eu840 N875 2.562 . S
Eu840 O884 2.462 . S
Eu840 O885 2.373 . S
Eu840 O887 2.432 . S
Eu840 O888 2.291 . S
Eu840 O892 2.335 . S
Eu840 O895 2.372 1_565 S
Eu840 C904 2.787 . S
C841 N842 1.365 . S
C841 C844 1.405 . S
C841 C848 1.448 . S
N842 C841 1.365 . S
N842 C845 1.319 . S
N842 Eu851 2.600 . S
C843 C845 1.397 . S
C843 C846 1.367 . S
C843 H863 0.931 . S
C844 C841 1.405 . S
C844 C846 1.403 . S
C844 C850 1.439 . S
C845 N842 1.319 . S
C845 C843 1.397 . S
C845 H856 0.930 . S
C846 C843 1.367 . S
C846 C844 1.403 . S
C846 H867 0.929 . S
C847 C848 1.430 . S
C847 C849 1.387 . S
C847 C853 1.404 . S
C848 C841 1.448 . S
C848 C847 1.430 . S
C848 N852 1.351 . S
C849 C847 1.387 . S
C849 C850 1.374 . S
C849 H864 0.931 . S
C850 C844 1.439 . S
C850 C849 1.374 . S
C850 H865 0.931 . S
Eu851 N842 2.600 . S
Eu851 N852 2.562 . S
Eu851 O886 2.335 1_545 S
Eu851 O889 2.372 1_545 S
Eu851 O890 2.462 . S
Eu851 O891 2.373 . S
Eu851 O893 2.432 . S
Eu851 O894 2.291 . S
Eu851 C915 2.787 . S
N852 C848 1.351 . S
N852 Eu851 2.562 . S
N852 C854 1.325 . S
C853 C847 1.404 . S
C853 C855 1.366 . S
C853 H861 0.930 . S
C854 N852 1.325 . S
C854 C855 1.416 . S
C854 H860 0.929 . S
C855 C853 1.366 . S
C855 C854 1.416 . S
C855 H857 0.930 . S
H856 C845 0.930 . S
H857 C855 0.930 . S
H858 C873 0.930 . S
H859 C880 0.930 . S
H860 C854 0.929 . S
H861 C853 0.930 . S
H862 C876 0.929 . S
H863 C843 0.931 . S
H864 C849 0.931 . S
H865 C850 0.931 . S
H866 C871 0.931 . S
H867 C846 0.929 . S
H868 C879 0.930 . S
N869 Eu840 2.600 . S
N869 C870 1.365 . S
N869 C873 1.319 . S
C870 N869 1.365 . S
C870 C872 1.405 . S
C870 C878 1.448 . S
C871 H866 0.931 . S
C871 C873 1.397 . S
C871 C874 1.367 . S
C872 C870 1.405 . S
C872 C874 1.403 . S
C872 C905 1.439 . S
C873 H858 0.930 . S
C873 N869 1.319 . S
C873 C871 1.397 . S
C874 C871 1.367 . S
C874 C872 1.403 . S
C874 H881 0.929 . S
N875 Eu840 2.562 . S
N875 C876 1.325 . S
N875 C878 1.351 . S
C876 H862 0.929 . S
C876 N875 1.325 . S
C876 C880 1.416 . S
C877 C878 1.430 . S
C877 C879 1.404 . S
C877 C906 1.387 . S
C878 C870 1.448 . S
C878 N875 1.351 . S
C878 C877 1.430 . S
C879 H868 0.930 . S
C879 C877 1.404 . S
C879 C880 1.366 . S
C880 H859 0.930 . S
C880 C876 1.416 . S
C880 C879 1.366 . S
H881 C874 0.929 . S
H882 C905 0.931 . S
H883 C906 0.931 . S
O884 Eu840 2.462 . S
O884 C904 1.252 . S
O885 Eu840 2.373 . S
O885 C896 1.249 . S
O886 Eu851 2.335 1_565 S
O886 C896 1.264 . S
O887 Eu840 2.432 . S
O887 C904 1.268 . S
O888 Eu840 2.291 . S
O888 C903 1.255 . S
O889 Eu851 2.372 1_565 S
O889 C903 1.257 . S
O890 Eu851 2.462 . S
O890 C915 1.252 . S
O891 Eu851 2.373 . S
O891 C907 1.249 . S
O892 Eu840 2.335 . S
O892 C907 1.264 1_565 S
O893 Eu851 2.432 . S
O893 C915 1.268 . S
O894 Eu851 2.291 . S
O894 C914 1.255 . S
O895 Eu840 2.372 1_545 S
O895 C914 1.257 . S
C896 O885 1.249 . S
C896 O886 1.264 . S
C897 C900 1.382 . S
C897 C902 1.390 . S
C897 C904 1.506 . S
C898 C899 1.398 . S
C898 C902 1.392 . S
C899 C898 1.398 . S
C899 C901 1.372 . S
C899 H916 0.931 . S
C900 C897 1.382 . S
C900 C901 1.390 . S
C900 H917 0.931 . S
C901 C899 1.372 . S
C901 C900 1.390 . S
C901 H918 0.929 . S
C902 C897 1.390 . S
C902 C898 1.392 . S
C902 H919 0.930 . S
C903 O888 1.255 . S
C903 O889 1.257 . S
C904 Eu840 2.787 . S
C904 O884 1.252 . S
C904 O887 1.268 . S
C904 C897 1.506 . S
C905 C872 1.439 . S
C905 H882 0.931 . S
C905 C906 1.374 . S
C906 C877 1.387 . S
C906 H883 0.931 . S
C906 C905 1.374 . S
C907 O891 1.249 . S
C907 O892 1.264 1_545 S
C908 C911 1.382 . S
C908 C912 1.390 . S
C908 C915 1.506 . S
C909 C910 1.398 . S
C909 C912 1.392 . S
C910 C909 1.398 . S
C910 C913 1.372 . S
C910 H920 0.931 . S
C911 C908 1.382 . S
C911 C913 1.390 . S
C911 H921 0.931 . S
C912 C908 1.390 . S
C912 C909 1.392 . S
C912 H922 0.930 . S
C913 C910 1.372 . S
C913 C911 1.390 . S
C913 H923 0.929 . S
C914 O894 1.255 . S
C914 O895 1.257 . S
C915 Eu851 2.787 . S
C915 O890 1.252 . S
C915 O893 1.268 . S
C915 C908 1.506 . S
H916 C899 0.931 . S
H917 C900 0.931 . S
H918 C901 0.929 . S
H919 C902 0.930 . S
H920 C910 0.931 . S
H921 C911 0.931 . S
H922 C912 0.930 . S
H923 C913 0.929 . S
Eu924 N953 2.600 . S
Eu924 N959 2.562 . S
Eu924 O968 2.462 . S
Eu924 O969 2.373 . S
Eu924 O971 2.432 . S
Eu924 O972 2.291 . S
Eu924 O976 2.335 . S
Eu924 O979 2.372 . S
Eu924 C988 2.787 . S
C925 N926 1.365 . S
C925 C928 1.405 . S
C925 C932 1.448 . S
N926 C925 1.365 . S
N926 C929 1.319 . S
N926 Eu935 2.600 . S
C927 C929 1.397 . S
C927 C930 1.367 . S
C927 H947 0.931 . S
C928 C925 1.405 . S
C928 C930 1.403 . S
C928 C934 1.439 . S
C929 N926 1.319 . S
C929 C927 1.397 . S
C929 H940 0.930 . S
C930 C927 1.367 . S
C930 C928 1.403 . S
C930 H951 0.929 . S
C931 C932 1.430 . S
C931 C933 1.387 . S
C931 C937 1.404 . S
C932 C925 1.448 . S
C932 C931 1.430 . S
C932 N936 1.351 . S
C933 C931 1.387 . S
C933 C934 1.374 . S
C933 H948 0.931 . S
C934 C928 1.439 . S
C934 C933 1.374 . S
C934 H949 0.931 . S
Eu935 N926 2.600 . S
Eu935 N936 2.562 . S
Eu935 O970 2.335 . S
Eu935 O973 2.372 . S
Eu935 O974 2.462 . S
Eu935 O975 2.373 . S
Eu935 O977 2.432 . S
Eu935 O978 2.291 . S
Eu935 C999 2.787 . S
N936 C932 1.351 . S
N936 Eu935 2.562 . S
N936 C938 1.325 . S
C937 C931 1.404 . S
C937 C939 1.366 . S
C937 H945 0.930 . S
C938 N936 1.325 . S
C938 C939 1.416 . S
C938 H944 0.929 . S
C939 C937 1.366 . S
C939 C938 1.416 . S
C939 H941 0.930 . S
H940 C929 0.930 . S
H941 C939 0.930 . S
H942 C957 0.930 . S
H943 C964 0.930 . S
H944 C938 0.929 . S
H945 C937 0.930 . S
H946 C960 0.929 . S
H947 C927 0.931 . S
H948 C933 0.931 . S
H949 C934 0.931 . S
H950 C955 0.931 . S
H951 C930 0.929 . S
H952 C963 0.930 . S
N953 Eu924 2.600 . S
N953 C954 1.365 . S
N953 C957 1.319 . S
C954 N953 1.365 . S
C954 C956 1.405 . S
C954 C962 1.448 . S
C955 H950 0.931 . S
C955 C957 1.397 . S
C955 C958 1.367 . S
C956 C954 1.405 . S
C956 C958 1.403 . S
C956 C989 1.439 . S
C957 H942 0.930 . S
C957 N953 1.319 . S
C957 C955 1.397 . S
C958 C955 1.367 . S
C958 C956 1.403 . S
C958 H965 0.929 . S
N959 Eu924 2.562 . S
N959 C960 1.325 . S
N959 C962 1.351 . S
C960 H946 0.929 . S
C960 N959 1.325 . S
C960 C964 1.416 . S
C961 C962 1.430 . S
C961 C963 1.404 . S
C961 C990 1.387 . S
C962 C954 1.448 . S
C962 N959 1.351 . S
C962 C961 1.430 . S
C963 H952 0.930 . S
C963 C961 1.404 . S
C963 C964 1.366 . S
C964 H943 0.930 . S
C964 C960 1.416 . S
C964 C963 1.366 . S
H965 C958 0.929 . S
H966 C989 0.931 . S
H967 C990 0.931 . S
O968 Eu924 2.462 . S
O968 C988 1.252 . S
O969 Eu924 2.373 . S
O969 C980 1.249 . S
O970 Eu935 2.335 . S
O970 C980 1.264 . S
O971 Eu924 2.432 . S
O971 C988 1.268 . S
O972 Eu924 2.291 . S
O972 C987 1.255 . S
O973 Eu935 2.372 . S
O973 C987 1.257 . S
O974 Eu935 2.462 . S
O974 C999 1.252 . S
O975 Eu935 2.373 . S
O975 C991 1.249 . S
O976 Eu924 2.335 . S
O976 C991 1.264 . S
O977 Eu935 2.432 . S
O977 C999 1.268 . S
O978 Eu935 2.291 . S
O978 C998 1.255 . S
O979 Eu924 2.372 . S
O979 C998 1.257 . S
C980 O969 1.249 . S
C980 O970 1.264 . S
C981 C984 1.382 . S
C981 C986 1.390 . S
C981 C988 1.506 . S
C982 C983 1.398 . S
C982 C986 1.392 . S
C983 C982 1.398 . S
C983 C985 1.372 . S
C983 H1000 0.931 . S
C984 C981 1.382 . S
C984 C985 1.390 . S
C984 H1001 0.931 . S
C985 C983 1.372 . S
C985 C984 1.390 . S
C985 H1002 0.929 . S
C986 C981 1.390 . S
C986 C982 1.392 . S
C986 H1003 0.930 . S
C987 O972 1.255 . S
C987 O973 1.257 . S
C988 Eu924 2.787 . S
C988 O968 1.252 . S
C988 O971 1.268 . S
C988 C981 1.506 . S
C989 C956 1.439 . S
C989 H966 0.931 . S
C989 C990 1.374 . S
C990 C961 1.387 . S
C990 H967 0.931 . S
C990 C989 1.374 . S
C991 O975 1.249 . S
C991 O976 1.264 . S
C992 C995 1.382 . S
C992 C996 1.390 . S
C992 C999 1.506 . S
C993 C994 1.398 . S
C993 C996 1.392 . S
C994 C993 1.398 . S
C994 C997 1.372 . S
C994 H1004 0.931 . S
C995 C992 1.382 . S
C995 C997 1.390 . S
C995 H1005 0.931 . S
C996 C992 1.390 . S
C996 C993 1.392 . S
C996 H1006 0.930 . S
C997 C994 1.372 . S
C997 C995 1.390 . S
C997 H1007 0.929 . S
C998 O978 1.255 . S
C998 O979 1.257 . S
C999 Eu935 2.787 . S
C999 O974 1.252 . S
C999 O977 1.268 . S
C999 C992 1.506 . S
H1000 C983 0.931 . S
H1001 C984 0.931 . S
H1002 C985 0.929 . S
H1003 C986 0.930 . S
H1004 C994 0.931 . S
H1005 C995 0.931 . S
H1006 C996 0.930 . S
H1007 C997 0.929 . S
C1008 C1009 1.369 . S
C1008 C1010 1.419 . S
C1008 H1012 0.930 . S
C1009 C1008 1.369 . S
C1009 C1018 1.429 . S
C1010 C1008 1.419 . S
C1010 C1011 1.363 . S
C1010 H1013 0.929 . S
C1011 C1010 1.363 . S
C1011 C1017 1.428 . S
H1012 C1008 0.930 . S
H1013 C1010 0.929 . S
S1014 N1015 1.613 . S
S1014 N1016 1.610 . S
N1015 S1014 1.613 . S
N1015 C1018 1.350 . S
N1016 S1014 1.610 . S
N1016 C1017 1.351 . S
C1017 C1011 1.428 . S
C1017 N1016 1.351 . S
C1017 C1018 1.434 . S
C1018 C1009 1.429 . S
C1018 N1015 1.350 . S
C1018 C1017 1.434 . S
C1019 C1020 1.369 . S
C1019 C1021 1.419 . S
C1019 H1023 0.930 1_565 S
C1020 C1019 1.369 . S
C1020 C1029 1.429 . S
C1021 C1019 1.419 . S
C1021 C1022 1.363 . S
C1021 H1024 0.929 . S
C1022 C1021 1.363 . S
C1022 C1028 1.428 . S
H1023 C1019 0.930 1_545 S
H1024 C1021 0.929 . S
S1025 N1026 1.613 . S
S1025 N1027 1.610 . S
N1026 S1025 1.613 . S
N1026 C1029 1.350 . S
N1027 S1025 1.610 . S
N1027 C1028 1.351 . S
C1028 C1022 1.428 . S
C1028 N1027 1.351 . S
C1028 C1029 1.434 . S
C1029 C1020 1.429 . S
C1029 N1026 1.350 . S
C1029 C1028 1.434 . S
C1030 C1031 1.369 . S
C1030 C1032 1.419 . S
C1030 H1034 0.930 1_554 S
C1031 C1030 1.369 . S
C1031 C1040 1.429 . S
C1032 C1030 1.419 . S
C1032 C1033 1.363 . S
C1032 H1035 0.929 1_554 S
C1033 C1032 1.363 . S
C1033 C1039 1.428 . S
H1034 C1030 0.930 1_556 S
H1035 C1032 0.929 1_556 S
S1036 N1037 1.613 . S
S1036 N1038 1.610 . S
N1037 S1036 1.613 . S
N1037 C1040 1.350 . S
N1038 S1036 1.610 . S
N1038 C1039 1.351 . S
C1039 C1033 1.428 . S
C1039 N1038 1.351 . S
C1039 C1040 1.434 . S
C1040 C1031 1.429 . S
C1040 N1037 1.350 . S
C1040 C1039 1.434 . S
C1041 C1042 1.369 . S
C1041 C1043 1.419 . S
C1041 H1045 0.930 . S
C1042 C1041 1.369 . S
C1042 C1051 1.429 . S
C1043 C1041 1.419 . S
C1043 C1044 1.363 . S
C1043 H1046 0.929 . S
C1044 C1043 1.363 . S
C1044 C1050 1.428 . S
H1045 C1041 0.930 . S
H1046 C1043 0.929 . S
S1047 N1048 1.613 . S
S1047 N1049 1.610 . S
N1048 S1047 1.613 . S
N1048 C1051 1.350 . S
N1049 S1047 1.610 . S
N1049 C1050 1.351 . S
C1050 C1044 1.428 . S
C1050 N1049 1.351 . S
C1050 C1051 1.434 . S
C1051 C1042 1.429 . S
C1051 N1048 1.350 . S
C1051 C1050 1.434 . S
C1052 C1053 1.369 . S
C1052 C1054 1.419 . S
C1052 H1056 0.930 . S
C1053 C1052 1.369 . S
C1053 C1062 1.429 . S
C1054 C1052 1.419 . S
C1054 C1055 1.363 . S
C1054 H1057 0.929 . S
C1055 C1054 1.363 . S
C1055 C1061 1.428 . S
H1056 C1052 0.930 . S
H1057 C1054 0.929 . S
S1058 N1059 1.613 . S
S1058 N1060 1.610 . S
N1059 S1058 1.613 . S
N1059 C1062 1.350 . S
N1060 S1058 1.610 . S
N1060 C1061 1.351 . S
C1061 C1055 1.428 . S
C1061 N1060 1.351 . S
C1061 C1062 1.434 . S
C1062 C1053 1.429 . S
C1062 N1059 1.350 . S
C1062 C1061 1.434 . S
C1063 C1064 1.369 . S
C1063 C1065 1.419 . S
C1063 H1067 0.930 . S
C1064 C1063 1.369 . S
C1064 C1073 1.429 . S
C1065 C1063 1.419 . S
C1065 C1066 1.363 . S
C1065 H1068 0.929 . S
C1066 C1065 1.363 . S
C1066 C1072 1.428 . S
H1067 C1063 0.930 . S
H1068 C1065 0.929 . S
S1069 N1070 1.613 . S
S1069 N1071 1.610 . S
N1070 S1069 1.613 . S
N1070 C1073 1.350 . S
N1071 S1069 1.610 . S
N1071 C1072 1.351 . S
C1072 C1066 1.428 . S
C1072 N1071 1.351 . S
C1072 C1073 1.434 . S
C1073 C1064 1.429 . S
C1073 N1070 1.350 . S
C1073 C1072 1.434 . S
C1074 C1075 1.369 . S
C1074 C1076 1.419 . S
C1074 H1078 0.930 . S
C1075 C1074 1.369 . S
C1075 C1084 1.429 . S
C1076 C1074 1.419 . S
C1076 C1077 1.363 . S
C1076 H1079 0.929 . S
C1077 C1076 1.363 . S
C1077 C1083 1.428 . S
H1078 C1074 0.930 . S
H1079 C1076 0.929 . S
S1080 N1081 1.613 . S
S1080 N1082 1.610 . S
N1081 S1080 1.613 . S
N1081 C1084 1.350 . S
N1082 S1080 1.610 . S
N1082 C1083 1.351 . S
C1083 C1077 1.428 . S
C1083 N1082 1.351 . S
C1083 C1084 1.434 . S
C1084 C1075 1.429 . S
C1084 N1081 1.350 . S
C1084 C1083 1.434 . S
C1085 C1086 1.369 . S
C1085 C1087 1.419 . S
C1085 H1089 0.930 . S
C1086 C1085 1.369 . S
C1086 C1095 1.429 . S
C1087 C1085 1.419 . S
C1087 C1088 1.363 . S
C1087 H1090 0.929 . S
C1088 C1087 1.363 . S
C1088 C1094 1.428 . S
H1089 C1085 0.930 . S
H1090 C1087 0.929 . S
S1091 N1092 1.613 . S
S1091 N1093 1.610 . S
N1092 S1091 1.613 . S
N1092 C1095 1.350 . S
N1093 S1091 1.610 . S
N1093 C1094 1.351 . S
C1094 C1088 1.428 . S
C1094 N1093 1.351 . S
C1094 C1095 1.434 . S
C1095 C1086 1.429 . S
C1095 N1092 1.350 . S
C1095 C1094 1.434 . S
C1096 C1097 1.369 . S
C1096 C1098 1.419 . S
C1096 H1100 0.930 . S
C1097 C1096 1.369 . S
C1097 C1106 1.429 . S
C1098 C1096 1.419 . S
C1098 C1099 1.363 . S
C1098 H1101 0.929 . S
C1099 C1098 1.363 . S
C1099 C1105 1.428 . S
H1100 C1096 0.930 . S
H1101 C1098 0.929 . S
S1102 N1103 1.613 . S
S1102 N1104 1.610 . S
N1103 S1102 1.613 . S
N1103 C1106 1.350 . S
N1104 S1102 1.610 . S
N1104 C1105 1.351 . S
C1105 C1099 1.428 . S
C1105 N1104 1.351 . S
C1105 C1106 1.434 . S
C1106 C1097 1.429 . S
C1106 N1103 1.350 . S
C1106 C1105 1.434 . S
C1107 C1108 1.369 . S
C1107 C1109 1.419 . S
C1107 H1111 0.930 . S
C1108 C1107 1.369 . S
C1108 C1117 1.429 . S
C1109 C1107 1.419 . S
C1109 C1110 1.363 . S
C1109 H1112 0.929 . S
C1110 C1109 1.363 . S
C1110 C1116 1.428 . S
H1111 C1107 0.930 . S
H1112 C1109 0.929 . S
S1113 N1114 1.613 1_655 S
S1113 N1115 1.610 . S
N1114 S1113 1.613 1_455 S
N1114 C1117 1.350 . S
N1115 S1113 1.610 . S
N1115 C1116 1.351 1_655 S
C1116 C1110 1.428 . S
C1116 N1115 1.351 1_455 S
C1116 C1117 1.434 . S
C1117 C1108 1.429 . S
C1117 N1114 1.350 . S
C1117 C1116 1.434 . S
C1118 C1119 1.369 . S
C1118 C1120 1.419 . S
C1118 H1122 0.930 . S
C1119 C1118 1.369 . S
C1119 C1128 1.429 . S
C1120 C1118 1.419 . S
C1120 C1121 1.363 . S
C1120 H1123 0.929 . S
C1121 C1120 1.363 . S
C1121 C1127 1.428 . S
H1122 C1118 0.930 . S
H1123 C1120 0.929 . S
S1124 N1125 1.613 . S
S1124 N1126 1.610 . S
N1125 S1124 1.613 . S
N1125 C1128 1.350 1_455 S
N1126 S1124 1.610 . S
N1126 C1127 1.351 1_455 S
C1127 C1121 1.428 . S
C1127 N1126 1.351 1_655 S
C1127 C1128 1.434 . S
C1128 C1119 1.429 . S
C1128 N1125 1.350 1_655 S
C1128 C1127 1.434 . S
C1129 C1130 1.369 . S
C1129 C1131 1.419 . S
C1129 H1133 0.930 . S
C1130 C1129 1.369 . S
C1130 C1139 1.429 . S
C1131 C1129 1.419 . S
C1131 C1132 1.363 . S
C1131 H1134 0.929 . S
C1132 C1131 1.363 . S
C1132 C1138 1.428 . S
H1133 C1129 0.930 . S
H1134 C1131 0.929 . S
S1135 N1136 1.613 . S
S1135 N1137 1.610 . S
N1136 S1135 1.613 . S
N1136 C1139 1.350 . S
N1137 S1135 1.610 . S
N1137 C1138 1.351 . S
C1138 C1132 1.428 . S
C1138 N1137 1.351 . S
C1138 C1139 1.434 . S
C1139 C1130 1.429 . S
C1139 N1136 1.350 . S
C1139 C1138 1.434 . S
C1140 C1141 1.369 . S
C1140 C1142 1.419 . S
C1140 H1144 0.930 . S
C1141 C1140 1.369 . S
C1141 C1150 1.429 . S
C1142 C1140 1.419 . S
C1142 C1143 1.363 . S
C1142 H1145 0.929 . S
C1143 C1142 1.363 . S
C1143 C1149 1.428 . S
H1144 C1140 0.930 . S
H1145 C1142 0.929 . S
S1146 N1147 1.613 . S
S1146 N1148 1.610 . S
N1147 S1146 1.613 . S
N1147 C1150 1.350 . S
N1148 S1146 1.610 . S
N1148 C1149 1.351 . S
C1149 C1143 1.428 . S
C1149 N1148 1.351 . S
C1149 C1150 1.434 . S
C1150 C1141 1.429 . S
C1150 N1147 1.350 . S
C1150 C1149 1.434 . S
C1151 C1152 1.369 . S
C1151 C1153 1.419 . S
C1151 H1155 0.914 1_565 S
C1152 C1151 1.369 . S
C1152 C1161 1.429 . S
C1153 C1151 1.419 . S
C1153 C1154 1.363 . S
C1153 H1156 0.929 1_565 S
C1154 C1153 1.363 . S
C1154 C1160 1.428 . S
H1155 C1151 0.914 1_545 S
H1156 C1153 0.929 1_545 S
S1157 N1158 1.613 . S
S1157 N1159 1.610 . S
N1158 S1157 1.613 . S
N1158 C1161 1.350 . S
N1159 S1157 1.610 . S
N1159 C1160 1.351 . S
C1160 C1154 1.428 . S
C1160 N1159 1.351 . S
C1160 C1161 1.434 . S
C1161 C1152 1.429 . S
C1161 N1158 1.350 . S
C1161 C1160 1.434 . S
C1162 C1163 1.369 . S
C1162 C1164 1.419 . S
C1162 H1166 0.930 . S
C1163 C1162 1.369 . S
C1163 C1172 1.429 . S
C1164 C1162 1.419 . S
C1164 C1165 1.363 . S
C1164 H1167 0.929 . S
C1165 C1164 1.363 . S
C1165 C1171 1.428 . S
H1166 C1162 0.930 . S
H1167 C1164 0.929 . S
S1168 N1169 1.613 . S
S1168 N1170 1.610 . S
N1169 S1168 1.613 . S
N1169 C1172 1.350 . S
N1170 S1168 1.610 . S
N1170 C1171 1.351 . S
C1171 C1165 1.428 . S
C1171 N1170 1.351 . S
C1171 C1172 1.434 . S
C1172 C1163 1.429 . S
C1172 N1169 1.350 . S
C1172 C1171 1.434 . S
C1173 C1174 1.369 . S
C1173 C1175 1.419 1_554 S
C1173 H1177 0.930 . S
C1174 C1173 1.369 . S
C1174 C1183 1.429 . S
C1175 C1173 1.419 1_556 S
C1175 C1176 1.363 . S
C1175 H1178 0.929 1_545 S
C1176 C1175 1.363 . S
C1176 C1182 1.428 . S
H1177 C1173 0.930 . S
H1178 C1175 0.929 1_565 S
S1179 N1180 1.600 1_556 S
S1179 N1181 1.622 . S
N1180 S1179 1.600 1_554 S
N1180 C1183 1.350 . S
N1181 S1179 1.622 . S
N1181 C1182 1.351 . S
C1182 C1176 1.428 . S
C1182 N1181 1.351 . S
C1182 C1183 1.434 1_556 S
C1183 C1174 1.429 . S
C1183 N1180 1.350 . S
C1183 C1182 1.434 1_554 S
C1184 C1185 1.369 . S
C1184 C1186 1.419 . S
C1184 H1188 0.930 . S
C1185 C1184 1.369 . S
C1185 C1194 1.429 . S
C1186 C1184 1.419 . S
C1186 C1187 1.363 . S
C1186 H1189 0.929 . S
C1187 C1186 1.363 . S
C1187 C1193 1.428 . S
H1188 C1184 0.930 . S
H1189 C1186 0.929 . S
S1190 N1191 1.613 . S
S1190 N1192 1.610 . S
N1191 S1190 1.613 . S
N1191 C1194 1.350 . S
N1192 S1190 1.610 . S
N1192 C1193 1.351 . S
C1193 C1187 1.428 . S
C1193 N1192 1.351 . S
C1193 C1194 1.434 . S
C1194 C1185 1.429 . S
C1194 N1191 1.350 . S
C1194 C1193 1.434 . S
C1195 C1196 1.369 . S
C1195 C1197 1.419 1_554 S
C1195 H1199 0.930 . S
C1196 C1195 1.369 . S
C1196 C1205 1.429 . S
C1197 C1195 1.419 1_556 S
C1197 C1198 1.363 . S
C1197 H1200 0.929 . S
C1198 C1197 1.363 . S
C1198 C1204 1.428 . S
H1199 C1195 0.930 . S
H1200 C1197 0.929 . S
S1201 N1202 1.613 1_556 S
S1201 N1203 1.610 . S
N1202 S1201 1.613 1_554 S
N1202 C1205 1.350 . S
N1203 S1201 1.610 . S
N1203 C1204 1.351 . S
C1204 C1198 1.428 . S
C1204 N1203 1.351 . S
C1204 C1205 1.434 1_556 S
C1205 C1196 1.429 . S
C1205 N1202 1.350 . S
C1205 C1204 1.434 1_554 S
C1206 C1207 1.369 . S
C1206 C1208 1.419 . S
C1206 H1210 0.930 . S
C1207 C1206 1.369 . S
C1207 C1216 1.429 . S
C1208 C1206 1.419 . S
C1208 C1209 1.363 . S
C1208 H1211 0.929 . S
C1209 C1208 1.363 . S
C1209 C1215 1.428 . S
H1210 C1206 0.930 . S
H1211 C1208 0.929 . S
S1212 N1213 1.613 1_545 S
S1212 N1214 1.610 1_545 S
N1213 S1212 1.613 1_565 S
N1213 C1216 1.350 . S
N1214 S1212 1.610 1_565 S
N1214 C1215 1.351 . S
C1215 C1209 1.428 . S
C1215 N1214 1.351 . S
C1215 C1216 1.434 . S
C1216 C1207 1.429 . S
C1216 N1213 1.350 . S
C1216 C1215 1.434 . S
C1217 C1218 1.369 . S
C1217 C1219 1.419 . S
C1217 H1221 0.930 . S
C1218 C1217 1.369 . S
C1218 C1227 1.429 . S
C1219 C1217 1.419 . S
C1219 C1220 1.363 . S
C1219 H1222 0.929 . S
C1220 C1219 1.363 . S
C1220 C1226 1.428 . S
H1221 C1217 0.930 . S
H1222 C1219 0.929 . S
S1223 N1224 1.613 . S
S1223 N1225 1.610 . S
N1224 S1223 1.613 . S
N1224 C1227 1.350 . S
N1225 S1223 1.610 . S
N1225 C1226 1.351 . S
C1226 C1220 1.428 . S
C1226 N1225 1.351 . S
C1226 C1227 1.434 . S
C1227 C1218 1.429 . S
C1227 N1224 1.350 . S
C1227 C1226 1.434 . S
C1228 C1229 1.369 . S
C1228 C1230 1.419 . S
C1228 H1232 0.930 . S
C1229 C1228 1.369 . S
C1229 C1238 1.429 . S
C1230 C1228 1.419 . S
C1230 C1231 1.363 . S
C1230 H1233 0.929 . S
C1231 C1230 1.363 . S
C1231 C1237 1.428 . S
H1232 C1228 0.930 . S
H1233 C1230 0.929 . S
S1234 N1235 1.613 . S
S1234 N1236 1.610 . S
N1235 S1234 1.613 . S
N1235 C1238 1.350 . S
N1236 S1234 1.610 . S
N1236 C1237 1.351 . S
C1237 C1231 1.428 . S
C1237 N1236 1.351 . S
C1237 C1238 1.434 . S
C1238 C1229 1.429 . S
C1238 N1235 1.350 . S
C1238 C1237 1.434 . S
C1239 C1240 1.369 . S
C1239 C1241 1.419 1_545 S
C1239 H1243 0.930 . S
C1240 C1239 1.369 . S
C1240 C1249 1.429 . S
C1241 C1239 1.419 1_565 S
C1241 C1242 1.363 . S
C1241 H1244 0.929 . S
C1242 C1241 1.363 . S
C1242 C1248 1.428 . S
H1243 C1239 0.930 . S
H1244 C1241 0.929 . S
S1245 N1246 1.613 . S
S1245 N1247 1.610 1_545 S
N1246 S1245 1.613 . S
N1246 C1249 1.350 1_655 S
N1247 S1245 1.610 1_565 S
N1247 C1248 1.351 1_655 S
C1248 C1242 1.428 . S
C1248 N1247 1.351 1_455 S
C1248 C1249 1.434 1_565 S
C1249 C1240 1.429 . S
C1249 N1246 1.350 1_455 S
C1249 C1248 1.434 1_545 S
C1250 C1251 1.369 . S
C1250 C1252 1.419 . S
C1250 H1254 0.930 . S
C1251 C1250 1.369 . S
C1251 C1260 1.429 . S
C1252 C1250 1.419 . S
C1252 C1253 1.363 . S
C1252 H1255 0.929 . S
C1253 C1252 1.363 . S
C1253 C1259 1.428 . S
H1254 C1250 0.930 . S
H1255 C1252 0.929 . S
S1256 N1257 1.613 1_554 S
S1256 N1258 1.610 1_554 S
N1257 S1256 1.613 1_556 S
N1257 C1260 1.350 . S
N1258 S1256 1.610 1_556 S
N1258 C1259 1.351 . S
C1259 C1253 1.428 . S
C1259 N1258 1.351 . S
C1259 C1260 1.434 . S
C1260 C1251 1.429 . S
C1260 N1257 1.350 . S
C1260 C1259 1.434 . S
C1261 C1262 1.369 . S
C1261 C1263 1.419 1_545 S
C1261 H1265 0.930 . S
C1262 C1261 1.369 . S
C1262 C1271 1.429 . S
C1263 C1261 1.419 1_565 S
C1263 C1264 1.363 . S
C1263 H1266 0.929 . S
C1264 C1263 1.363 . S
C1264 C1270 1.428 . S
H1265 C1261 0.930 . S
H1266 C1263 0.929 . S
S1267 N1268 1.613 1_565 S
S1267 N1269 1.610 . S
N1268 S1267 1.613 1_545 S
N1268 C1271 1.350 . S
N1269 S1267 1.610 . S
N1269 C1270 1.351 . S
C1270 C1264 1.428 . S
C1270 N1269 1.351 . S
C1270 C1271 1.434 1_565 S
C1271 C1262 1.429 . S
C1271 N1268 1.350 . S
C1271 C1270 1.434 1_545 S
C1272 C1273 1.369 . S
C1272 C1274 1.419 . S
C1272 H1276 0.930 . S
C1273 C1272 1.369 . S
C1273 C1282 1.429 . S
C1274 C1272 1.419 . S
C1274 C1275 1.363 . S
C1274 H1277 0.929 . S
C1275 C1274 1.363 . S
C1275 C1281 1.428 . S
H1276 C1272 0.930 . S
H1277 C1274 0.929 . S
S1278 N1279 1.613 . S
S1278 N1280 1.610 . S
N1279 S1278 1.613 . S
N1279 C1282 1.350 . S
N1280 S1278 1.610 . S
N1280 C1281 1.351 . S
C1281 C1275 1.428 . S
C1281 N1280 1.351 . S
C1281 C1282 1.434 . S
C1282 C1273 1.429 . S
C1282 N1279 1.350 . S
C1282 C1281 1.434 . S
C1283 C1284 1.369 . S
C1283 C1285 1.419 . S
C1283 H1287 0.930 . S
C1284 C1283 1.369 . S
C1284 C1293 1.429 . S
C1285 C1283 1.419 . S
C1285 C1286 1.363 . S
C1285 H1288 0.929 . S
C1286 C1285 1.363 . S
C1286 C1292 1.428 . S
H1287 C1283 0.930 . S
H1288 C1285 0.929 . S
S1289 N1290 1.613 . S
S1289 N1291 1.610 . S
N1290 S1289 1.613 . S
N1290 C1293 1.350 . S
N1291 S1289 1.610 . S
N1291 C1292 1.351 . S
C1292 C1286 1.428 . S
C1292 N1291 1.351 . S
C1292 C1293 1.434 . S
C1293 C1284 1.429 . S
C1293 N1290 1.350 . S
C1293 C1292 1.434 . S
C1294 C1295 1.369 . S
C1294 C1296 1.419 . S
C1294 H1298 0.930 . S
C1295 C1294 1.369 . S
C1295 C1304 1.429 . S
C1296 C1294 1.419 . S
C1296 C1297 1.363 . S
C1296 H1299 0.929 . S
C1297 C1296 1.363 . S
C1297 C1303 1.428 . S
H1298 C1294 0.930 . S
H1299 C1296 0.929 . S
S1300 N1301 1.613 . S
S1300 N1302 1.610 . S
N1301 S1300 1.613 . S
N1301 C1304 1.350 . S
N1302 S1300 1.610 . S
N1302 C1303 1.351 . S
C1303 C1297 1.428 . S
C1303 N1302 1.351 . S
C1303 C1304 1.434 . S
C1304 C1295 1.429 . S
C1304 N1301 1.350 . S
C1304 C1303 1.434 . S
C1305 C1306 1.369 . S
C1305 C1307 1.419 . S
C1305 H1309 0.930 . S
C1306 C1305 1.369 . S
C1306 C1315 1.429 . S
C1307 C1305 1.419 . S
C1307 C1308 1.363 . S
C1307 H1310 0.929 . S
C1308 C1307 1.363 . S
C1308 C1314 1.428 . S
H1309 C1305 0.930 . S
H1310 C1307 0.929 . S
S1311 N1312 1.613 . S
S1311 N1313 1.610 . S
N1312 S1311 1.613 . S
N1312 C1315 1.350 . S
N1313 S1311 1.610 . S
N1313 C1314 1.351 . S
C1314 C1308 1.428 . S
C1314 N1313 1.351 . S
C1314 C1315 1.434 . S
C1315 C1306 1.429 . S
C1315 N1312 1.350 . S
C1315 C1314 1.434 . S
C1316 C1317 1.369 . S
C1316 C1318 1.419 . S
C1316 H1320 0.930 . S
C1317 C1316 1.369 . S
C1317 C1326 1.429 . S
C1318 C1316 1.419 . S
C1318 C1319 1.363 . S
C1318 H1321 0.929 . S
C1319 C1318 1.363 . S
C1319 C1325 1.428 . S
H1320 C1316 0.930 . S
H1321 C1318 0.929 . S
S1322 N1323 1.613 . S
S1322 N1324 1.610 . S
N1323 S1322 1.613 . S
N1323 C1326 1.350 . S
N1324 S1322 1.610 . S
N1324 C1325 1.351 . S
C1325 C1319 1.428 . S
C1325 N1324 1.351 . S
C1325 C1326 1.434 . S
C1326 C1317 1.429 . S
C1326 N1323 1.350 . S
C1326 C1325 1.434 . S
C1327 C1328 1.369 . S
C1327 C1329 1.419 . S
C1327 H1331 0.930 . S
C1328 C1327 1.369 . S
C1328 C1337 1.429 . S
C1329 C1327 1.419 . S
C1329 C1330 1.363 . S
C1329 H1332 0.929 . S
C1330 C1329 1.363 . S
C1330 C1336 1.428 . S
H1331 C1327 0.930 . S
H1332 C1329 0.929 . S
S1333 N1334 1.613 . S
S1333 N1335 1.610 . S
N1334 S1333 1.613 . S
N1334 C1337 1.350 . S
N1335 S1333 1.610 . S
N1335 C1336 1.351 . S
C1336 C1330 1.428 . S
C1336 N1335 1.351 . S
C1336 C1337 1.434 . S
C1337 C1328 1.429 . S
C1337 N1334 1.350 . S
C1337 C1336 1.434 . S
C1338 C1339 1.369 . S
C1338 C1340 1.419 1_455 S
C1338 H1342 0.930 . S
C1339 C1338 1.369 . S
C1339 C1348 1.429 . S
C1340 C1338 1.419 1_655 S
C1340 C1341 1.363 . S
C1340 H1343 0.929 . S
C1341 C1340 1.363 . S
C1341 C1347 1.428 . S
H1342 C1338 0.930 . S
H1343 C1340 0.929 . S
S1344 N1345 1.613 1_655 S
S1344 N1346 1.610 . S
N1345 S1344 1.613 1_455 S
N1345 C1348 1.350 . S
N1346 S1344 1.610 . S
N1346 C1347 1.351 . S
C1347 C1341 1.428 . S
C1347 N1346 1.351 . S
C1347 C1348 1.434 1_655 S
C1348 C1339 1.429 . S
C1348 N1345 1.350 . S
C1348 C1347 1.434 1_455 S
C1349 C1350 1.369 . S
C1349 C1351 1.419 . S
C1349 H1353 0.930 . S
C1350 C1349 1.369 . S
C1350 C1359 1.429 . S
C1351 C1349 1.419 . S
C1351 C1352 1.363 . S
C1351 H1354 0.929 . S
C1352 C1351 1.363 . S
C1352 C1358 1.428 . S
H1353 C1349 0.930 . S
H1354 C1351 0.929 . S
S1355 N1356 1.613 . S
S1355 N1357 1.610 . S
N1356 S1355 1.613 . S
N1356 C1359 1.350 . S
N1357 S1355 1.610 . S
N1357 C1358 1.351 . S
C1358 C1352 1.428 . S
C1358 N1357 1.351 . S
C1358 C1359 1.434 . S
C1359 C1350 1.429 . S
C1359 N1356 1.350 . S
C1359 C1358 1.434 . S
C1360 C1361 1.369 . S
C1360 C1362 1.419 . S
C1360 H1364 0.930 . S
C1361 C1360 1.369 . S
C1361 C1370 1.429 . S
C1362 C1360 1.419 . S
C1362 C1363 1.363 . S
C1362 H1365 0.929 . S
C1363 C1362 1.363 . S
C1363 C1369 1.428 . S
H1364 C1360 0.930 . S
H1365 C1362 0.929 . S
S1366 N1367 1.613 . S
S1366 N1368 1.610 . S
N1367 S1366 1.613 . S
N1367 C1370 1.350 . S
N1368 S1366 1.610 . S
N1368 C1369 1.351 . S
C1369 C1363 1.428 . S
C1369 N1368 1.351 . S
C1369 C1370 1.434 . S
C1370 C1361 1.429 . S
C1370 N1367 1.350 . S
C1370 C1369 1.434 . S
C1371 C1372 1.369 . S
C1371 C1373 1.419 . S
C1371 H1375 0.930 . S
C1372 C1371 1.369 . S
C1372 C1381 1.429 . S
C1373 C1371 1.419 . S
C1373 C1374 1.363 . S
C1373 H1376 0.929 . S
C1374 C1373 1.363 . S
C1374 C1380 1.428 . S
H1375 C1371 0.930 . S
H1376 C1373 0.929 . S
S1377 N1378 1.613 . S
S1377 N1379 1.610 . S
N1378 S1377 1.613 . S
N1378 C1381 1.350 . S
N1379 S1377 1.610 . S
N1379 C1380 1.351 . S
C1380 C1374 1.428 . S
C1380 N1379 1.351 . S
C1380 C1381 1.434 . S
C1381 C1372 1.429 . S
C1381 N1378 1.350 . S
C1381 C1380 1.434 . S
C1382 C1383 1.369 . S
C1382 C1384 1.419 . S
C1382 H1386 0.930 . S
C1383 C1382 1.369 . S
C1383 C1392 1.429 . S
C1384 C1382 1.419 . S
C1384 C1385 1.363 . S
C1384 H1387 0.929 . S
C1385 C1384 1.363 . S
C1385 C1391 1.428 . S
H1386 C1382 0.930 . S
H1387 C1384 0.929 . S
S1388 N1389 1.613 . S
S1388 N1390 1.610 . S
N1389 S1388 1.613 . S
N1389 C1392 1.350 . S
N1390 S1388 1.610 . S
N1390 C1391 1.351 . S
C1391 C1385 1.428 . S
C1391 N1390 1.351 . S
C1391 C1392 1.434 . S
C1392 C1383 1.429 . S
C1392 N1389 1.350 . S
C1392 C1391 1.434 . S
C1393 C1394 1.369 . S
C1393 C1395 1.419 1_655 S
C1393 H1397 0.930 . S
C1394 C1393 1.369 . S
C1394 C1403 1.429 . S
C1395 C1393 1.419 1_455 S
C1395 C1396 1.363 . S
C1395 H1398 0.929 . S
C1396 C1395 1.363 . S
C1396 C1402 1.428 . S
H1397 C1393 0.930 . S
H1398 C1395 0.929 . S
S1399 N1400 1.613 1_455 S
S1399 N1401 1.610 . S
N1400 S1399 1.613 1_655 S
N1400 C1403 1.350 . S
N1401 S1399 1.610 . S
N1401 C1402 1.351 . S
C1402 C1396 1.428 . S
C1402 N1401 1.351 . S
C1402 C1403 1.434 1_455 S
C1403 C1394 1.429 . S
C1403 N1400 1.350 . S
C1403 C1402 1.434 1_655 S
C1009 C74 1.698 . S
C1011 C991 1.735 . S
C1020 C823 1.762 . S
C1022 C158 1.720 . S
C1031 C235 1.738 . S
C1033 C746 1.697 . S
C1042 C326 1.719 . S
C1044 C907 1.758 . S
C1053 C410 1.733 . S
C1055 C914 1.733 . S
C1064 C487 1.750 . S
C1066 C998 1.720 . S
C1075 C830 1.739 . S
C1077 C578 1.736 . S
C1086 C655 1.719 . S
C1088 C739 1.719 . S
C1097 C319 1.722 . S
C1099 C403 1.723 . S
C1108 C67 1.758 . S
C1110 C494 1.718 . S
C1119 C151 1.723 . S
C1121 C571 1.722 . S
C1130 C662 1.752 . S
C1132 C242 1.753 . S
C1141 C69 1.443 . S
C1143 C735 1.731 . S
C1152 C153 1.433 . S
C1154 C896 1.708 . S
C1163 C980 1.718 . S
C1165 C226 1.773 . S
C1174 C321 1.416 . S
C1176 C812 1.678 . S
C1185 C405 1.430 . S
C1187 C819 1.740 . S
C1196 C728 1.708 . S
C1198 C478 1.764 . S
C1207 C903 1.727 . S
C1209 C573 1.436 . S
C1218 C987 1.782 . S
C1220 C646 1.791 . S
C1229 C56 1.702 . S
C1231 C310 1.756 . S
C1240 C58 1.723 . S
C1242 C140 1.672 . S
C1251 C142 1.756 . S
C1253 C231 1.744 . S
C1262 C308 1.670 . S
C1264 C237 1.423 . S
C1273 C489 1.457 . S
C1275 C392 1.705 . S
C1284 C483 1.760 . S
C1286 C562 1.760 . S
C1295 C560 1.712 . S
C1297 C657 1.447 . S
C1306 C394 1.762 . S
C1308 C651 1.759 . S
C1317 C730 1.730 . S
C1319 C315 1.720 . S
C1328 C476 1.703 . S
C1330 C814 1.743 . S
C1339 C741 1.413 . S
C1341 C567 1.723 . S
C1350 C898 1.757 . S
C1352 C644 1.713 . S
C1361 C399 1.756 . S
C1363 C982 1.769 . S
C1372 C993 1.424 . S
C1374 C147 1.733 . S
C1383 C224 1.700 . S
C1385 C825 1.449 . S
C1394 C909 1.440 . S
C1396 C63 1.748 . S
