# Generated by pormake.
# Topology wfv, (7)-cn, num edge types: 1
# Building blocks:
#     Node 0, Type 0, BuildingBlock: NUHQUE_clean_sbu_2, # of connection points: 7
#     Node 1, Type 0, BuildingBlock: NUHQUE_clean_sbu_2, # of connection points: 7
#     Node 2, Type 0, BuildingBlock: NUHQUE_clean_sbu_2, # of connection points: 7
#     Node 3, Type 0, BuildingBlock: NUHQUE_clean_sbu_2, # of connection points: 7
#     Node 4, Type 0, BuildingBlock: NUHQUE_clean_sbu_2, # of connection points: 7
#     Node 5, Type 0, BuildingBlock: NUHQUE_clean_sbu_2, # of connection points: 7
#     Node 6, Type 0, BuildingBlock: NUHQUE_clean_sbu_2, # of connection points: 7
#     Node 7, Type 0, BuildingBlock: NUHQUE_clean_sbu_2, # of connection points: 7
#     Node 8, Type 0, BuildingBlock: NUHQUE_clean_sbu_2, # of connection points: 7
#     Node 9, Type 0, BuildingBlock: NUHQUE_clean_sbu_2, # of connection points: 7
#     Node 10, Type 0, BuildingBlock: NUHQUE_clean_sbu_2, # of connection points: 7
#     Node 11, Type 0, BuildingBlock: NUHQUE_clean_sbu_2, # of connection points: 7
#     Node 12, Type 0, BuildingBlock: NUHQUE_clean_sbu_2, # of connection points: 7
#     Node 13, Type 0, BuildingBlock: NUHQUE_clean_sbu_2, # of connection points: 7
#     Node 14, Type 0, BuildingBlock: NUHQUE_clean_sbu_2, # of connection points: 7
#     Node 15, Type 0, BuildingBlock: NUHQUE_clean_sbu_2, # of connection points: 7
#     Edge 16, Type (0, 0), BuildingBlock: CIFDUS_clean_linker_0, # of connection points: 2
#     Edge 17, Type (0, 0), BuildingBlock: CIFDUS_clean_linker_0, # of connection points: 2
#     Edge 18, Type (0, 0), BuildingBlock: CIFDUS_clean_linker_0, # of connection points: 2
#     Edge 19, Type (0, 0), BuildingBlock: CIFDUS_clean_linker_0, # of connection points: 2
#     Edge 20, Type (0, 0), BuildingBlock: CIFDUS_clean_linker_0, # of connection points: 2
#     Edge 21, Type (0, 0), BuildingBlock: CIFDUS_clean_linker_0, # of connection points: 2
#     Edge 22, Type (0, 0), BuildingBlock: CIFDUS_clean_linker_0, # of connection points: 2
#     Edge 23, Type (0, 0), BuildingBlock: CIFDUS_clean_linker_0, # of connection points: 2
#     Edge 24, Type (0, 0), BuildingBlock: CIFDUS_clean_linker_0, # of connection points: 2
#     Edge 25, Type (0, 0), BuildingBlock: CIFDUS_clean_linker_0, # of connection points: 2
#     Edge 26, Type (0, 0), BuildingBlock: CIFDUS_clean_linker_0, # of connection points: 2
#     Edge 27, Type (0, 0), BuildingBlock: CIFDUS_clean_linker_0, # of connection points: 2
#     Edge 28, Type (0, 0), BuildingBlock: CIFDUS_clean_linker_0, # of connection points: 2
#     Edge 29, Type (0, 0), BuildingBlock: CIFDUS_clean_linker_0, # of connection points: 2
#     Edge 30, Type (0, 0), BuildingBlock: CIFDUS_clean_linker_0, # of connection points: 2
#     Edge 31, Type (0, 0), BuildingBlock: CIFDUS_clean_linker_0, # of connection points: 2
#     Edge 32, Type (0, 0), BuildingBlock: CIFDUS_clean_linker_0, # of connection points: 2
#     Edge 33, Type (0, 0), BuildingBlock: CIFDUS_clean_linker_0, # of connection points: 2
#     Edge 34, Type (0, 0), BuildingBlock: CIFDUS_clean_linker_0, # of connection points: 2
#     Edge 35, Type (0, 0), BuildingBlock: CIFDUS_clean_linker_0, # of connection points: 2
#     Edge 36, Type (0, 0), BuildingBlock: CIFDUS_clean_linker_0, # of connection points: 2
#     Edge 37, Type (0, 0), BuildingBlock: CIFDUS_clean_linker_0, # of connection points: 2
#     Edge 38, Type (0, 0), BuildingBlock: CIFDUS_clean_linker_0, # of connection points: 2
#     Edge 39, Type (0, 0), BuildingBlock: CIFDUS_clean_linker_0, # of connection points: 2
#     Edge 40, Type (0, 0), BuildingBlock: CIFDUS_clean_linker_0, # of connection points: 2
#     Edge 41, Type (0, 0), BuildingBlock: CIFDUS_clean_linker_0, # of connection points: 2
#     Edge 42, Type (0, 0), BuildingBlock: CIFDUS_clean_linker_0, # of connection points: 2
#     Edge 43, Type (0, 0), BuildingBlock: CIFDUS_clean_linker_0, # of connection points: 2
#     Edge 44, Type (0, 0), BuildingBlock: CIFDUS_clean_linker_0, # of connection points: 2
#     Edge 45, Type (0, 0), BuildingBlock: CIFDUS_clean_linker_0, # of connection points: 2
#     Edge 46, Type (0, 0), BuildingBlock: CIFDUS_clean_linker_0, # of connection points: 2
#     Edge 47, Type (0, 0), BuildingBlock: CIFDUS_clean_linker_0, # of connection points: 2
#     Edge 48, Type (0, 0), BuildingBlock: CIFDUS_clean_linker_0, # of connection points: 2
#     Edge 49, Type (0, 0), BuildingBlock: CIFDUS_clean_linker_0, # of connection points: 2
#     Edge 50, Type (0, 0), BuildingBlock: CIFDUS_clean_linker_0, # of connection points: 2
#     Edge 51, Type (0, 0), BuildingBlock: CIFDUS_clean_linker_0, # of connection points: 2
#     Edge 52, Type (0, 0), BuildingBlock: CIFDUS_clean_linker_0, # of connection points: 2
#     Edge 53, Type (0, 0), BuildingBlock: CIFDUS_clean_linker_0, # of connection points: 2
#     Edge 54, Type (0, 0), BuildingBlock: CIFDUS_clean_linker_0, # of connection points: 2
#     Edge 55, Type (0, 0), BuildingBlock: CIFDUS_clean_linker_0, # of connection points: 2
#     Edge 56, Type (0, 0), BuildingBlock: CIFDUS_clean_linker_0, # of connection points: 2
#     Edge 57, Type (0, 0), BuildingBlock: CIFDUS_clean_linker_0, # of connection points: 2
#     Edge 58, Type (0, 0), BuildingBlock: CIFDUS_clean_linker_0, # of connection points: 2
#     Edge 59, Type (0, 0), BuildingBlock: CIFDUS_clean_linker_0, # of connection points: 2
#     Edge 60, Type (0, 0), BuildingBlock: CIFDUS_clean_linker_0, # of connection points: 2
#     Edge 61, Type (0, 0), BuildingBlock: CIFDUS_clean_linker_0, # of connection points: 2
#     Edge 62, Type (0, 0), BuildingBlock: CIFDUS_clean_linker_0, # of connection points: 2
#     Edge 63, Type (0, 0), BuildingBlock: CIFDUS_clean_linker_0, # of connection points: 2
#     Edge 64, Type (0, 0), BuildingBlock: CIFDUS_clean_linker_0, # of connection points: 2
#     Edge 65, Type (0, 0), BuildingBlock: CIFDUS_clean_linker_0, # of connection points: 2
#     Edge 66, Type (0, 0), BuildingBlock: CIFDUS_clean_linker_0, # of connection points: 2
#     Edge 67, Type (0, 0), BuildingBlock: CIFDUS_clean_linker_0, # of connection points: 2
#     Edge 68, Type (0, 0), BuildingBlock: CIFDUS_clean_linker_0, # of connection points: 2
#     Edge 69, Type (0, 0), BuildingBlock: CIFDUS_clean_linker_0, # of connection points: 2
#     Edge 70, Type (0, 0), BuildingBlock: CIFDUS_clean_linker_0, # of connection points: 2
#     Edge 71, Type (0, 0), BuildingBlock: CIFDUS_clean_linker_0, # of connection points: 2
# Relax obj value: 0.191
# Max RMSD: 0.257
# Mean RMSD: 0.257
data_MOF--net-wfv--node1-NUHQUE_clean_sbu_2--edge1-CIFDUS_clean_linker_0
_symmetry_space_group_name_H-M    P1
_symmetry_Int_Tables_number       1
_symmetry_cell_setting            triclinic
loop_
_symmetry_equiv_pos_as_xyz
'x, y, z'
_cell_length_a     42.097781
_cell_length_b     42.228416
_cell_length_c     37.485078
_cell_angle_alpha  89.958941
_cell_angle_beta   90.006368
_cell_angle_gamma 89.707261
loop_
_atom_site_label
_atom_site_type_symbol
_atom_site_fract_x
_atom_site_fract_y
_atom_site_fract_z
_atom_type_partial_charge
O0 O 0.65058 0.13582 0.07929 0.0
Tb1 Tb 0.69288 0.10909 0.09345 0.0
Eu2 Eu 0.69928 0.00761 0.13755 0.0
C3 C 0.64371 0.13864 0.0452 0.0
O4 O 0.65985 0.1215 0.02216 0.0
C5 C 0.7221 0.04468 0.07169 0.0
O6 O 0.74308 0.99126 0.16664 0.0
C7 C 0.65724 0.96354 0.13152 0.0
C8 C 0.76726 0.01047 0.17077 0.0
O9 O 0.76374 0.04048 0.1624 0.0
C10 C 0.68967 0.07848 0.16568 0.0
C11 C 0.62309 0.95647 0.1288 0.0
C12 C 0.60202 0.97447 0.10759 0.0
C13 C 0.57024 0.96465 0.10304 0.0
C14 C 0.56044 0.93651 0.11974 0.0
C15 C 0.58085 0.91905 0.14189 0.0
C16 C 0.61214 0.92936 0.14641 0.0
O17 O 0.69537 0.05931 0.07952 0.0
O18 O 0.72798 0.01779 0.08806 0.0
O19 O 0.72023 0.13501 0.05353 0.0
O20 O 0.73795 0.13107 0.10614 0.0
C21 C 0.74315 0.14309 0.0748 0.0
O22 O 0.67817 0.05616 0.14509 0.0
O23 O 0.6918 0.10684 0.15155 0.0
O24 O 0.6677 0.97363 0.1626 0.0
O25 O 0.67129 0.97664 0.10383 0.0
H26 H 0.61048 0.99571 0.09455 0.0
H27 H 0.5371 0.92711 0.11408 0.0
H28 H 0.6284 0.91578 0.16293 0.0
O29 O 0.35889 0.64055 0.07746 0.0
Tb30 Tb 0.37715 0.68435 0.09974 0.0
Eu31 Eu 0.48571 0.69828 0.12399 0.0
C32 C 0.35018 0.64113 0.04371 0.0
O33 O 0.35748 0.66611 0.02459 0.0
C34 C 0.43662 0.72329 0.07042 0.0
O35 O 0.50335 0.7392 0.15615 0.0
C36 C 0.53118 0.66003 0.10622 0.0
C37 C 0.48463 0.7631 0.16416 0.0
O38 O 0.45427 0.76142 0.15628 0.0
C39 C 0.42159 0.68268 0.16472 0.0
C40 C 0.53859 0.62595 0.1029 0.0
C41 C 0.52268 0.60613 0.07866 0.0
C42 C 0.53184 0.57418 0.07491 0.0
C43 C 0.55688 0.56235 0.09594 0.0
C44 C 0.57313 0.58192 0.12001 0.0
C45 C 0.56353 0.6136 0.12351 0.0
O46 O 0.4248 0.69613 0.08132 0.0
O47 O 0.46595 0.72934 0.08016 0.0
O48 O 0.34859 0.72078 0.07276 0.0
O49 O 0.33663 0.706 0.12535 0.0
C50 C 0.32831 0.72399 0.09885 0.0
O51 O 0.44174 0.67242 0.14062 0.0
O52 O 0.39129 0.68292 0.15601 0.0
O53 O 0.5271 0.67064 0.13892 0.0
O54 O 0.51187 0.67305 0.08268 0.0
H55 H 0.5038 0.61569 0.06216 0.0
H56 H 0.56431 0.53791 0.09283 0.0
H57 H 0.57589 0.62898 0.14198 0.0
O58 O 0.8538 0.37309 0.06935 0.0
Tb59 Tb 0.81368 0.3758 0.10516 0.0
Eu60 Eu 0.78725 0.48121 0.11516 0.0
C61 C 0.84567 0.36789 0.036 0.0
O62 O 0.81585 0.37268 0.02706 0.0
C63 C 0.75944 0.42589 0.07568 0.0
O64 O 0.7486 0.5003 0.15018 0.0
C65 C 0.81989 0.52528 0.08413 0.0
C66 C 0.7249 0.48227 0.16023 0.0
O67 O 0.72652 0.45168 0.1541 0.0
C68 C 0.81161 0.42444 0.16535 0.0
C69 C 0.85283 0.53714 0.08134 0.0
C70 C 0.87741 0.52006 0.0642 0.0
C71 C 0.90852 0.53254 0.06234 0.0
C72 C 0.91451 0.56187 0.0787 0.0
C73 C 0.88997 0.57939 0.09454 0.0
C74 C 0.8593 0.5671 0.09556 0.0
O75 O 0.78576 0.41746 0.09191 0.0
O76 O 0.75302 0.45616 0.07825 0.0
O77 O 0.81351 0.32992 0.13084 0.0
O78 O 0.7852 0.33727 0.08401 0.0
C79 C 0.79475 0.3167 0.10772 0.0
O80 O 0.81935 0.44399 0.13942 0.0
O81 O 0.816 0.39391 0.1597 0.0
O82 O 0.80618 0.5288 0.11543 0.0
O83 O 0.81272 0.49842 0.06836 0.0
H84 H 0.87217 0.49754 0.05179 0.0
H85 H 0.93825 0.57165 0.07856 0.0
H86 H 0.84041 0.58089 0.10779 0.0
O87 O 0.11691 0.85476 0.09261 0.0
Tb88 Tb 0.0975 0.81076 0.11282 0.0
Eu89 Eu 0.99809 0.79816 0.12069 0.0
C90 C 0.12374 0.85584 0.05836 0.0
O91 O 0.11271 0.83333 0.03766 0.0
C92 C 0.04396 0.77252 0.07153 0.0
O93 O 0.96188 0.76134 0.13441 0.0
C94 C 0.97526 0.85248 0.1007 0.0
C95 C 0.97153 0.73755 0.15437 0.0
O96 O 1.00034 0.73844 0.16772 0.0
C97 C 0.05701 0.80446 0.18426 0.0
C98 C 0.96769 0.88631 0.10735 0.0
C99 C 0.98354 0.90977 0.08759 0.0
C100 C 0.97268 0.94132 0.08764 0.0
C101 C 0.94589 0.94932 0.10806 0.0
C102 C 0.9297 0.92634 0.12815 0.0
C103 C 0.94119 0.89497 0.1281 0.0
O104 O 0.05337 0.79664 0.09058 0.0
O105 O 0.01379 0.76784 0.0746 0.0
O106 O 0.13358 0.78348 0.0844 0.0
O107 O 0.13112 0.78042 0.14101 0.0
C108 C 0.14681 0.77162 0.11278 0.0
O109 O 0.02904 0.79569 0.171 0.0
O110 O 0.07933 0.82018 0.16646 0.0
O111 O 0.95825 0.83066 0.11694 0.0
O112 O 0.00503 0.84406 0.095 0.0
H113 H 0.00322 0.90313 0.07045 0.0
H114 H 0.9369 0.97339 0.10702 0.0
H115 H 0.92858 0.87698 0.14298 0.0
O116 O 0.67802 0.37739 0.44382 0.0
Tb117 Tb 0.70426 0.38537 0.39475 0.0
Eu118 Eu 0.71019 0.46722 0.42433 0.0
C119 C 0.68683 0.35209 0.46188 0.0
O120 O 0.71329 0.33778 0.45233 0.0
C121 C 0.75854 0.41126 0.44411 0.0
O122 O 0.734 0.51337 0.4372 0.0
C123 C 0.64919 0.47071 0.43642 0.0
C124 C 0.74759 0.53006 0.41185 0.0
O125 O 0.74247 0.52232 0.37842 0.0
C126 C 0.71017 0.44035 0.34472 0.0
C127 C 0.62458 0.49445 0.4466 0.0
C128 C 0.60096 0.48614 0.4716 0.0
C129 C 0.57642 0.50759 0.48047 0.0
C130 C 0.57589 0.53748 0.46442 0.0
C131 C 0.59961 0.54649 0.44034 0.0
C132 C 0.62391 0.52501 0.43129 0.0
O133 O 0.75155 0.39554 0.41485 0.0
O134 O 0.73885 0.43238 0.45777 0.0
O135 O 0.68251 0.34012 0.37996 0.0
O136 O 0.72959 0.34951 0.36345 0.0
C137 C 0.70695 0.32872 0.36308 0.0
O138 O 0.72604 0.458 0.36736 0.0
O139 O 0.68861 0.4209 0.35711 0.0
O140 O 0.66997 0.46262 0.46094 0.0
O141 O 0.66187 0.4733 0.40454 0.0
H142 H 0.6015 0.4629 0.48391 0.0
H143 H 0.55739 0.55432 0.47157 0.0
H144 H 0.64211 0.53208 0.41249 0.0
O145 O 0.15201 0.66193 0.44342 0.0
Tb146 Tb 0.13028 0.70719 0.43029 0.0
Eu147 Eu 0.01985 0.71275 0.40799 0.0
C148 C 0.15425 0.65508 0.4776 0.0
O149 O 0.13891 0.67318 0.5004 0.0
C150 C 0.06834 0.73957 0.46083 0.0
O151 O 1.00014 0.7565 0.38192 0.0
C152 C 0.97579 0.67289 0.4251 0.0
C153 C 0.02006 0.77989 0.37729 0.0
O154 O 0.05031 0.77452 0.38328 0.0
C155 C 0.08587 0.70759 0.3653 0.0
C156 C 0.96357 0.64047 0.43045 0.0
C157 C 0.98095 0.61666 0.4485 0.0
C158 C 0.96691 0.58696 0.45544 0.0
C159 C 0.93531 0.5819 0.44512 0.0
C160 C 0.91778 0.60549 0.42765 0.0
C161 C 0.93217 0.63446 0.41974 0.0
O162 O 0.08208 0.71327 0.44994 0.0
O163 O 0.03796 0.74268 0.45368 0.0
O164 O 0.15722 0.7343 0.46974 0.0
O165 O 0.16514 0.74261 0.41463 0.0
C166 C 0.17379 0.75034 0.44674 0.0
O167 O 0.06662 0.69308 0.38778 0.0
O168 O 0.11611 0.70998 0.37427 0.0
O169 O 0.97997 0.68315 0.39221 0.0
O170 O 0.99602 0.68456 0.4484 0.0
H171 H 0.00504 0.62121 0.45719 0.0
H172 H 0.92392 0.55958 0.45136 0.0
H173 H 0.91841 0.65287 0.40661 0.0
O174 O 0.82471 0.13848 0.42994 0.0
Tb175 Tb 0.79164 0.11075 0.39813 0.0
Eu176 Eu 0.79574 0.00215 0.40383 0.0
C177 C 0.81566 0.16717 0.4394 0.0
O178 O 0.78721 0.17694 0.42999 0.0
C179 C 0.76556 0.05383 0.44599 0.0
O180 O 0.75772 0.96591 0.39446 0.0
C181 C 0.85076 0.98182 0.42521 0.0
C182 C 0.73259 0.97674 0.37744 0.0
O183 O 0.73262 0.00649 0.36719 0.0
C184 C 0.79642 0.05776 0.34093 0.0
C185 C 0.88467 0.97789 0.4152 0.0
C186 C 0.90728 -3e-05 0.42737 0.0
C187 C 0.93995 0.99502 0.4215 0.0
C188 C 0.94926 0.96896 0.40081 0.0
C189 C 0.92791 0.94465 0.39238 0.0
C190 C 0.89535 0.94972 0.39882 0.0
O191 O 0.78323 0.06495 0.42037 0.0
O192 O 0.76615 0.0231 0.44811 0.0
O193 O 0.77397 0.14278 0.35735 0.0
O194 O 0.74371 0.13071 0.40103 0.0
C195 C 0.74637 0.14801 0.37216 0.0
O196 O 0.79464 0.02742 0.35003 0.0
O197 O 0.81326 0.07833 0.35967 0.0
O198 O 0.82964 0.96345 0.40963 0.0
O199 O 0.84037 0.01088 0.43099 0.0
H200 H 0.89956 0.02023 0.44289 0.0
H201 H 0.97408 0.96569 0.39457 0.0
H202 H 0.87853 0.93109 0.39311 0.0
O203 O 0.4177 0.84343 0.43091 0.0
Tb204 Tb 0.41755 0.79199 0.42848 0.0
Eu205 Eu 0.49715 0.77034 0.41417 0.0
C206 C 0.42108 0.85783 0.46182 0.0
O207 O 0.4357 0.84278 0.48777 0.0
C208 C 0.45564 0.74957 0.47839 0.0
O209 O 0.53379 0.73235 0.40343 0.0
C210 C 0.51935 0.82071 0.44503 0.0
C211 C 0.52597 0.70904 0.38192 0.0
O212 O 0.49857 0.71071 0.36526 0.0
C213 C 0.44659 0.77198 0.3509 0.0
C214 C 0.532 0.85322 0.44085 0.0
C215 C 0.51746 0.8785 0.45944 0.0
C216 C 0.53128 0.90887 0.45982 0.0
C217 C 0.55949 0.91367 0.44074 0.0
C218 C 0.57453 0.88872 0.42267 0.0
C219 C 0.56076 0.85858 0.42269 0.0
O220 O 0.44433 0.77842 0.47573 0.0
O221 O 0.47215 0.73785 0.45198 0.0
O222 O 0.36732 0.80474 0.43262 0.0
O223 O 0.38188 0.75902 0.44923 0.0
C224 C 0.3578 0.7782 0.44618 0.0
O225 O 0.47652 0.77698 0.35945 0.0
O226 O 0.42308 0.77286 0.37436 0.0
O227 O 0.53723 0.79693 0.43416 0.0
O228 O 0.48878 0.81612 0.43988 0.0
H229 H 0.49599 0.87422 0.47461 0.0
H230 H 0.57125 0.93643 0.44213 0.0
H231 H 0.57302 0.83925 0.40948 0.0
O232 O 0.34974 0.86602 0.93787 0.0
Tb233 Tb 0.30555 0.88685 0.91922 0.0
Eu234 Eu 0.29683 0.98731 0.91631 0.0
C235 C 0.35888 0.87153 0.97083 0.0
O236 O 0.34495 0.89439 0.98883 0.0
C237 C 0.26995 0.94064 0.96366 0.0
O238 O 0.26929 0.03282 0.91256 0.0
C239 C 0.35695 0.99622 0.92768 0.0
C240 C 0.25117 0.03692 0.88441 0.0
O241 O 0.25452 0.01738 0.85742 0.0
C242 C 0.29417 0.93042 0.85178 0.0
C243 C 0.37863 0.01829 0.9462 0.0
C244 C 0.4009 0.00629 0.9708 0.0
C245 C 0.42318 0.02645 0.98686 0.0
C246 C 0.42272 0.0588 0.97871 0.0
C247 C 0.40036 0.07124 0.95468 0.0
C248 C 0.37851 0.0509 0.93828 0.0
O249 O 0.29366 0.93059 0.94416 0.0
O250 O 0.26705 0.97115 0.96268 0.0
O251 O 0.27822 0.85055 0.94697 0.0
O252 O 0.27409 0.85508 0.89054 0.0
C253 C 0.26552 0.83872 0.9183 0.0
O254 O 0.28347 0.95617 0.86855 0.0
O255 O 0.31248 0.90816 0.8665 0.0
O256 O 0.33957 0.97745 0.94769 0.0
O257 O 0.34174 0.00719 0.89953 0.0
H258 H 0.4014 0.98117 0.97684 0.0
H259 H 0.43998 0.07433 0.99103 0.0
H260 H 0.3615 0.06058 0.91945 0.0
O261 O 0.61355 0.34537 0.93091 0.0
Tb262 Tb 0.59204 0.31128 0.89495 0.0
Eu263 Eu 0.48659 0.29757 0.90813 0.0
C264 C 0.6306 0.335 0.95803 0.0
O265 O 0.63109 0.30447 0.96484 0.0
C266 C 0.54364 0.27157 0.94379 0.0
O267 O 0.44862 0.26051 0.91028 0.0
C268 C 0.46763 0.35258 0.93034 0.0
C269 C 0.44402 0.24131 0.88322 0.0
O270 O 0.45895 0.24671 0.85306 0.0
C271 C 0.53699 0.30587 0.84029 0.0
C272 C 0.46263 0.38655 0.92189 0.0
C273 C 0.48015 0.40935 0.94071 0.0
C274 C 0.47247 0.44167 0.93813 0.0
C275 C 0.44741 0.45115 0.91586 0.0
C276 C 0.42942 0.42886 0.89684 0.0
C277 C 0.43743 0.39654 0.89973 0.0
O278 O 0.55038 0.29356 0.92059 0.0
O279 O 0.51331 0.26829 0.94878 0.0
O280 O 0.62001 0.26807 0.88979 0.0
O281 O 0.62997 0.3077 0.8559 0.0
C282 C 0.6384 0.27895 0.86458 0.0
O283 O 0.50956 0.29517 0.85298 0.0
O284 O 0.55463 0.32647 0.85811 0.0
O285 O 0.44864 0.33178 0.91529 0.0
O286 O 0.49699 0.34225 0.93474 0.0
H287 H 0.49858 0.40175 0.95907 0.0
H288 H 0.44097 0.47601 0.91472 0.0
H289 H 0.42329 0.37915 0.88576 0.0
O290 O 0.13073 0.62689 0.93151 0.0
Tb291 Tb 0.17587 0.60931 0.91167 0.0
Eu292 Eu 0.18545 0.49865 0.89393 0.0
C293 C 0.12982 0.63237 0.96608 0.0
O294 O 0.1529 0.62072 0.98581 0.0
C295 C 0.21173 0.54891 0.9439 0.0
O296 O 0.22687 0.47163 0.87106 0.0
C297 C 0.13909 0.46222 0.9134 0.0
C298 C 0.25391 0.48606 0.86495 0.0
O299 O 0.25524 0.51694 0.86871 0.0
C300 C 0.18281 0.56353 0.84832 0.0
C301 C 0.10389 0.45944 0.91373 0.0
C302 C 0.08461 0.47634 0.93812 0.0
C303 C 0.05173 0.47031 0.94011 0.0
C304 C 0.03835 0.44783 0.91719 0.0
C305 C 0.05698 0.4309 0.89269 0.0
C306 C 0.08972 0.43698 0.89109 0.0
O307 O 0.18582 0.56157 0.93036 0.0
O308 O 0.21561 0.51848 0.93846 0.0
O309 O 0.20891 0.63744 0.94379 0.0
O310 O 0.19808 0.65124 0.89037 0.0
C311 C 0.2135 0.65879 0.91913 0.0
O312 O 0.16695 0.54363 0.86861 0.0
O313 O 0.18123 0.59392 0.85632 0.0
O314 O 0.15312 0.46026 0.88206 0.0
O315 O 0.15273 0.48248 0.9352 0.0
H316 H 0.09515 0.49332 0.9562 0.0
H317 H 0.01319 0.44289 0.91924 0.0
H318 H 0.10442 0.42365 0.87265 0.0
O319 O 0.84034 0.14833 0.91633 0.0
Tb320 Tb 0.86362 0.1861 0.88705 0.0
Eu321 Eu 0.97738 0.19677 0.88516 0.0
C322 C 0.84194 0.14419 0.95106 0.0
O323 O 0.8627 0.16009 0.96997 0.0
C324 C 0.92065 0.22462 0.92602 0.0
O325 O 0.00125 0.23698 0.85682 0.0
C326 C 0.01981 0.16124 0.91589 0.0
C327 C 0.98685 0.26421 0.85143 0.0
O328 O 0.9563 0.26668 0.85812 0.0
C329 C 0.918 0.17972 0.83464 0.0
C330 C 0.03119 0.12846 0.92193 0.0
C331 C 0.01508 0.10686 0.94419 0.0
C332 C 0.02796 0.07644 0.95084 0.0
C333 C 0.0567 0.06788 0.93418 0.0
C334 C 0.07318 0.08953 0.91297 0.0
C335 C 0.06052 0.11968 0.90707 0.0
O336 O 0.90949 0.19966 0.90919 0.0
O337 O 0.95151 0.22847 0.92389 0.0
O338 O 0.83807 0.23144 0.88993 0.0
O339 O 0.82367 0.19649 0.85237 0.0
C340 C 0.81746 0.2244 0.86519 0.0
O341 O 0.93862 0.1688 0.8582 0.0
O342 O 0.88816 0.17112 0.83861 0.0
O343 O 0.02276 0.17244 0.88329 0.0
O344 O 0.99393 0.17108 0.93224 0.0
H345 H 0.99316 0.11402 0.95707 0.0
H346 H 0.06679 0.04448 0.93821 0.0
H347 H 0.07379 0.13645 0.89106 0.0
O348 O 0.36219 0.62549 0.61871 0.0
Tb349 Tb 0.31375 0.60899 0.62105 0.0
Eu350 Eu 0.29362 0.5015 0.64316 0.0
C351 C 0.38159 0.61369 0.59469 0.0
O352 O 0.37374 0.58725 0.57855 0.0
C353 C 0.28193 0.55079 0.58288 0.0
O354 O 0.24817 0.47702 0.65827 0.0
C355 C 0.342 0.46373 0.63587 0.0
C356 C 0.22174 0.4937 0.65892 0.0
O357 O 0.22331 0.52448 0.65406 0.0
C358 C 0.30284 0.57092 0.68776 0.0
C359 C 0.37698 0.45933 0.63467 0.0
C360 C 0.39702 0.47628 0.61105 0.0
C361 C 0.42976 0.46855 0.60853 0.0
C362 C 0.44157 0.44376 0.62981 0.0
C363 C 0.42218 0.42701 0.65336 0.0
C364 C 0.38992 0.43483 0.65566 0.0
O365 O 0.30786 0.56217 0.5975 0.0
O366 O 0.27389 0.52169 0.59154 0.0
O367 O 0.30402 0.64504 0.58066 0.0
O368 O 0.27266 0.64079 0.62474 0.0
C369 C 0.27879 0.65671 0.59581 0.0
O370 O 0.30676 0.5503 0.66193 0.0
O371 O 0.30839 0.6004 0.67829 0.0
O372 O 0.32888 0.47009 0.66703 0.0
O373 O 0.32753 0.47727 0.60864 0.0
H374 H 0.3871 0.49483 0.59443 0.0
H375 H 0.46583 0.43565 0.62633 0.0
H376 H 0.37461 0.42102 0.67291 0.0
O377 O 0.91493 0.36442 0.59183 0.0
Tb378 Tb 0.91728 0.31459 0.60688 0.0
Eu379 Eu 0.99962 0.28858 0.60003 0.0
C380 C 0.91474 0.37162 0.55758 0.0
O381 O 0.93352 0.35542 0.53632 0.0
C382 C 0.94211 0.26473 0.55398 0.0
O383 O 0.0387 0.25201 0.60541 0.0
C384 C 0.01473 0.33943 0.56493 0.0
C385 C 0.03294 0.22779 0.62652 0.0
O386 O 0.006 0.22764 0.64422 0.0
C387 C 0.96265 0.29173 0.67366 0.0
C388 C 0.02774 0.37174 0.56926 0.0
C389 C 0.01398 0.3969 0.54987 0.0
C390 C 0.02735 0.42747 0.55056 0.0
C391 C 0.05451 0.43236 0.57155 0.0
C392 C 0.06804 0.40787 0.59197 0.0
C393 C 0.05469 0.37746 0.59053 0.0
O394 O 0.93317 0.29437 0.55662 0.0
O395 O 0.96682 0.25475 0.57205 0.0
O396 O 0.87566 0.28747 0.59072 0.0
O397 O 0.87009 0.32444 0.6286 0.0
C398 C 0.85544 0.30289 0.61034 0.0
O399 O 0.99006 0.29709 0.65795 0.0
O400 O 0.93496 0.29382 0.657 0.0
O401 O 0.03433 0.3154 0.56976 0.0
O402 O 0.986 0.33425 0.57738 0.0
H403 H 0.99304 0.39239 0.53389 0.0
H404 H 0.06623 0.45512 0.5709 0.0
H405 H 0.06542 0.3583 0.60562 0.0
O406 O 0.17308 0.89445 0.56457 0.0
Tb407 Tb 0.22281 0.89972 0.57875 0.0
Eu408 Eu 0.22841 0.986 0.58542 0.0
C409 C 0.16738 0.88606 0.53134 0.0
O410 O 0.19029 0.88965 0.50792 0.0
C411 C 0.26567 0.94084 0.53277 0.0
O412 O 0.25555 0.02564 0.61092 0.0
C413 C 0.18335 0.00967 0.54583 0.0
C414 C 0.278 0.01901 0.63414 0.0
O415 O 0.28108 0.98965 0.64527 0.0
C416 C 0.22648 0.93933 0.65146 0.0
C417 C 0.15325 0.02814 0.54764 0.0
C418 C 0.1274 0.01879 0.52625 0.0
C419 C 0.09931 0.03703 0.52513 0.0
C420 C 0.09725 0.06455 0.54572 0.0
C421 C 0.12282 0.0747 0.56651 0.0
C422 C 0.1509 0.05654 0.56753 0.0
O423 O 0.23883 0.92538 0.53189 0.0
O424 O 0.26965 0.96312 0.55659 0.0
O425 O 0.21571 0.84912 0.5872 0.0
O426 O 0.25851 0.86428 0.56294 0.0
C427 C 0.24232 0.83973 0.57325 0.0
O428 O 0.21224 0.96411 0.63707 0.0
O429 O 0.23758 0.91575 0.63189 0.0
O430 O 0.20954 0.02481 0.554 0.0
O431 O 0.18327 0.98004 0.55696 0.0
H432 H 0.12934 0.99762 0.51004 0.0
H433 H 0.07607 0.07925 0.54414 0.0
H434 H 0.17084 0.06479 0.58319 0.0
O435 O 0.65432 0.15175 0.60256 0.0
Tb436 Tb 0.63422 0.19837 0.61029 0.0
Eu437 Eu 0.52599 0.20254 0.61164 0.0
C438 C 0.64145 0.13264 0.57911 0.0
O439 O 0.61261 0.13863 0.56749 0.0
C440 C 0.57806 0.22916 0.56697 0.0
O441 O 0.49407 0.23637 0.64101 0.0
C442 C 0.49446 0.15595 0.58303 0.0
C443 C 0.5046 0.26353 0.65306 0.0
O444 O 0.5349 0.27019 0.64971 0.0
C445 C 0.58324 0.20324 0.66859 0.0
C446 C 0.48475 0.1224 0.5881 0.0
C447 C 0.49836 0.09808 0.56704 0.0
C448 C 0.48657 0.0668 0.56854 0.0
C449 C 0.46128 0.06036 0.59179 0.0
C450 C 0.44751 0.08411 0.61281 0.0
C451 C 0.45912 0.11506 0.61079 0.0
O452 O 0.5886 0.20431 0.58445 0.0
O453 O 0.54768 0.23505 0.57051 0.0
O454 O 0.66823 0.23393 0.62795 0.0
O455 O 0.66554 0.22254 0.57296 0.0
C456 C 0.68003 0.23966 0.59657 0.0
O457 O 0.56659 0.18539 0.6466 0.0
O458 O 0.61407 0.20598 0.66313 0.0
O459 O 0.48178 0.17722 0.60431 0.0
O460 O 0.52425 0.16194 0.5753 0.0
H461 H 0.51758 0.10371 0.54895 0.0
H462 H 0.45056 0.03709 0.59193 0.0
H463 H 0.44745 0.13347 0.62617 0.0
H464 H 0.77587 0.28349 0.04994 0.0
H465 H 0.80565 0.27358 0.15954 0.0
H466 H 0.79996 0.2162 0.15563 0.0
H467 H 0.7808 0.17015 0.12342 0.0
H468 H 0.74787 0.17972 0.015 0.0
H469 H 0.76256 0.23577 0.01513 0.0
C470 C 0.78095 0.26867 0.07291 0.0
C471 C 0.79027 0.28248 0.10527 0.0
C472 C 0.77787 0.23574 0.07035 0.0
C473 C 0.79779 0.26326 0.13462 0.0
C474 C 0.79485 0.23053 0.1323 0.0
C475 C 0.77768 0.1843 0.09947 0.0
C476 C 0.76264 0.17132 0.06958 0.0
C477 C 0.78429 0.21664 0.10056 0.0
C478 C 0.75915 0.18953 0.03847 0.0
C479 C 0.76704 0.22162 0.03875 0.0
H480 H 0.19147 0.77443 0.06105 0.0
H481 H 0.17406 0.74006 0.16767 0.0
H482 H 0.22985 0.72467 0.17343 0.0
H483 H 0.28321 0.72216 0.1489 0.0
H484 H 0.3018 0.75605 0.04237 0.0
H485 H 0.24579 0.77189 0.03623 0.0
C486 C 0.19988 0.76306 0.08526 0.0
C487 C 0.17885 0.75798 0.11382 0.0
C488 C 0.23212 0.7551 0.08869 0.0
C489 C 0.18992 0.74384 0.14532 0.0
C490 C 0.22178 0.73536 0.14871 0.0
C491 C 0.27513 0.73328 0.1244 0.0
C492 C 0.29645 0.73811 0.09616 0.0
C493 C 0.24308 0.74128 0.12078 0.0
C494 C 0.28572 0.75239 0.06454 0.0
C495 C 0.25373 0.76105 0.06091 0.0
H496 H 0.67588 0.27772 0.3894 0.0
H497 H 0.74861 0.3051 0.3147 0.0
H498 H 0.76287 0.2495 0.30536 0.0
H499 H 0.76009 0.19443 0.32527 0.0
H500 H 0.69177 0.16749 0.40527 0.0
H501 H 0.66975 0.2213 0.40519 0.0
C502 C 0.69427 0.27136 0.3704 0.0
C503 C 0.71123 0.29531 0.35269 0.0
C504 C 0.70323 0.23941 0.36638 0.0
C505 C 0.73534 0.28697 0.32859 0.0
C506 C 0.74352 0.25522 0.32335 0.0
C507 C 0.7398 0.20009 0.34197 0.0
C508 C 0.72762 0.17708 0.36533 0.0
C509 C 0.72842 0.23137 0.34306 0.0
C510 C 0.70147 0.18479 0.38698 0.0
C511 C 0.68909 0.21564 0.38716 0.0
H512 H 0.22288 0.72182 0.47863 0.0
H513 H 0.19408 0.80929 0.42884 0.0
H514 H 0.24929 0.82757 0.42875 0.0
H515 H 0.30617 0.81523 0.43508 0.0
H516 H 0.3352 0.7245 0.47716 0.0
H517 H 0.27962 0.71044 0.48742 0.0
C518 C 0.22874 0.74524 0.46873 0.0
C519 C 0.20473 0.76454 0.4543 0.0
C520 C 0.26064 0.75447 0.46644 0.0
C521 C 0.21234 0.7944 0.44053 0.0
C522 C 0.24387 0.80463 0.44014 0.0
C523 C 0.30028 0.79253 0.44687 0.0
C524 C 0.32458 0.77076 0.45508 0.0
C525 C 0.26831 0.78434 0.45176 0.0
C526 C 0.31679 0.74145 0.47031 0.0
C527 C 0.28506 0.73345 0.47623 0.0
H528 H 0.26904 0.79074 0.96636 0.0
H529 H 0.22958 0.8169 0.86419 0.0
H530 H 0.21146 0.7627 0.85501 0.0
H531 H 0.20871 0.70801 0.87467 0.0
H532 H 0.24782 0.68034 0.97643 0.0
H533 H 0.26548 0.73495 0.98667 0.0
C534 C 0.25594 0.78459 0.94245 0.0
C535 C 0.25032 0.80763 0.91603 0.0
C536 C 0.24636 0.75315 0.93694 0.0
C537 C 0.23389 0.79947 0.88488 0.0
C538 C 0.2238 0.7685 0.87951 0.0
C539 C 0.22127 0.71384 0.89906 0.0
C540 C 0.2272 0.69033 0.9247 0.0
C541 C 0.2304 0.74513 0.90505 0.0
C542 C 0.2432 0.69819 0.95628 0.0
C543 C 0.25296 0.7294 0.96225 0.0
H544 H 0.69423 0.30911 0.86372 0.0
H545 H 0.6516 0.21759 0.84842 0.0
H546 H 0.70441 0.19342 0.842 0.0
H547 H 0.76227 0.19775 0.84675 0.0
H548 H 0.80474 0.28761 0.87217 0.0
H549 H 0.75242 0.31343 0.86848 0.0
C550 C 0.69665 0.284 0.85817 0.0
C551 C 0.66938 0.26506 0.85579 0.0
C552 C 0.72697 0.27015 0.85673 0.0
C553 C 0.67246 0.23246 0.84983 0.0
C554 C 0.70256 0.21873 0.84637 0.0
C555 C 0.7601 0.22311 0.85082 0.0
C556 C 0.78714 0.24098 0.85927 0.0
C557 C 0.72993 0.23724 0.85059 0.0
C558 C 0.78412 0.27359 0.8654 0.0
C559 C 0.75428 0.28823 0.86339 0.0
H560 H 0.20875 0.78819 0.59261 0.0
H561 H 0.2983 0.81653 0.5471 0.0
H562 H 0.31618 0.76127 0.54645 0.0
H563 H 0.30741 0.70536 0.56214 0.0
H564 H 0.2193 0.67777 0.61153 0.0
H565 H 0.19912 0.73209 0.60598 0.0
C566 C 0.23206 0.78219 0.58222 0.0
C567 C 0.25237 0.80632 0.5703 0.0
C568 C 0.24215 0.75046 0.58208 0.0
C569 C 0.2824 0.79832 0.5567 0.0
C570 C 0.29256 0.76675 0.55623 0.0
C571 C 0.28356 0.71118 0.57105 0.0
C572 C 0.26471 0.68775 0.58711 0.0
C573 C 0.27276 0.74267 0.5692 0.0
C574 C 0.23409 0.69553 0.59903 0.0
C575 C 0.22268 0.72656 0.59604 0.0
H576 H 0.71169 0.27688 0.6429 0.0
H577 H 0.71602 0.23848 0.53642 0.0
H578 H 0.77118 0.25565 0.53073 0.0
H579 H 0.8197 0.27652 0.5587 0.0
H580 H 0.81472 0.317 0.66411 0.0
H581 H 0.7582 0.30402 0.66776 0.0
C582 C 0.72457 0.27289 0.61823 0.0
C583 C 0.71018 0.25612 0.59034 0.0
C584 C 0.75621 0.28269 0.61525 0.0
C585 C 0.7268 0.25127 0.55831 0.0
C586 C 0.75837 0.26085 0.55514 0.0
C587 C 0.80608 0.2826 0.58233 0.0
C588 C 0.82116 0.29706 0.6114 0.0
C589 C 0.77359 0.27565 0.58389 0.0
C590 C 0.80343 0.30556 0.64161 0.0
C591 C 0.7712 0.29819 0.64367 0.0
H592 H 0.6312 0.15445 0.97649 0.0
H593 H 0.60907 0.18106 0.08488 0.0
H594 H 0.57775 0.22607 0.06311 0.0
H595 H 0.55657 0.258 0.01286 0.0
H596 H 0.57687 0.22933 0.90512 0.0
H597 H 0.60977 0.18551 0.92688 0.0
C598 C 0.61941 0.16994 0.99545 0.0
C599 C 0.62243 0.16428 0.03229 0.0
C600 C 0.60179 0.1959 0.98278 0.0
C601 C 0.60703 0.18474 0.05637 0.0
C602 C 0.58926 0.21061 0.04395 0.0
C603 C 0.56885 0.24246 0.99435 0.0
C604 C 0.5662 0.24788 0.95749 0.0
C605 C 0.58665 0.21655 1.0072 0.0
C606 C 0.58068 0.22684 0.93356 0.0
C607 C 0.59879 0.20137 0.94603 0.0
H608 H 0.23866 0.54623 1.00922 0.0
H609 H 0.24643 0.59122 0.90653 0.0
H610 H 0.29186 0.62215 0.9276 0.0
H611 H 0.32752 0.63797 0.97604 0.0
H612 H 0.32051 0.59258 0.07895 0.0
H613 H 0.27701 0.55973 0.0569 0.0
C614 C 0.25032 0.56299 0.99169 0.0
C615 C 0.23863 0.56769 0.95697 0.0
C616 C 0.27662 0.58031 1.00394 0.0
C617 C 0.25448 0.58831 0.93381 0.0
C618 C 0.28053 0.60573 0.94576 0.0
C619 C 0.31677 0.62066 0.99362 0.0
C620 C 0.32721 0.6179 0.02921 0.0
C621 C 0.29153 0.6022 0.98092 0.0
C622 C 0.31302 0.5952 0.05145 0.0
C623 C 0.28798 0.57654 0.03892 0.0
H624 H 0.82563 0.31153 0.01279 0.0
H625 H 0.90703 0.37302 0.01271 0.0
H626 H 0.93668 0.33432 0.97655 0.0
H627 H 0.93907 0.28319 0.94557 0.0
H628 H 0.85976 0.21919 0.95166 0.0
H629 H 0.82914 0.25897 0.98466 0.0
C630 C 0.84983 0.31647 1.00458 0.0
C631 C 0.86416 0.34514 0.01468 0.0
C632 C 0.86678 0.29384 0.98483 0.0
C633 C 0.89565 0.35114 1.00489 0.0
C634 C 0.91246 0.32907 0.98428 0.0
C635 C 0.91501 0.2779 0.95395 0.0
C636 C 0.90123 0.24856 0.94507 0.0
C637 C 0.89821 0.30038 0.97413 0.0
C638 C 0.87039 0.24195 0.95691 0.0
C639 C 0.85306 0.26458 0.97611 0.0
H640 H 0.24234 0.94335 0.02851 0.0
H641 H 0.23616 0.89777 0.92624 0.0
H642 H 0.18954 0.86801 0.94604 0.0
H643 H 0.1505 0.85551 0.99243 0.0
H644 H 0.15521 0.90261 0.09447 0.0
H645 H 0.20183 0.9321 0.07453 0.0
C646 C 0.23095 0.92647 0.01091 0.0
C647 C 0.2436 0.92106 0.97674 0.0
C648 C 0.20353 0.91043 0.0222 0.0
C649 C 0.228 0.90042 0.95345 0.0
C650 C 0.20097 0.88406 0.96453 0.0
C651 C 0.16146 0.87245 0.01028 0.0
C652 C 0.14928 0.87682 0.04495 0.0
C653 C 0.18853 0.88888 0.99887 0.0
C654 C 0.16396 0.89883 0.06763 0.0
C655 C 0.19077 0.91556 0.05633 0.0
H656 H 0.68069 0.28908 0.46641 0.0
H657 H 0.64094 0.3762 0.50686 0.0
H658 H 0.60302 0.34592 0.54324 0.0
H659 H 0.58179 0.29389 0.56391 0.0
H660 H 0.61991 0.20797 0.51856 0.0
H661 H 0.65754 0.23854 0.48306 0.0
C662 C 0.66393 0.30153 0.48344 0.0
C663 C 0.664 0.3348 0.48461 0.0
C664 C 0.6418 0.28409 0.50313 0.0
C665 C 0.64151 0.35057 0.5059 0.0
C666 C 0.61983 0.33325 0.52657 0.0
C667 C 0.59837 0.28206 0.54617 0.0
C668 C 0.59902 0.24875 0.54461 0.0
C669 C 0.6198 0.29993 0.52546 0.0
C670 C 0.61973 0.23356 0.52078 0.0
C671 C 0.64121 0.251 0.50053 0.0
H672 H 0.1665 0.64001 0.54657 0.0
H673 H 0.19623 0.61877 0.43898 0.0
H674 H 0.23914 0.58518 0.46208 0.0
H675 H 0.26918 0.56285 0.51332 0.0
H676 H 0.23848 0.58391 0.62029 0.0
H677 H 0.19514 0.61692 0.59709 0.0
C678 C 0.18214 0.62785 0.52805 0.0
C679 C 0.17804 0.6319 0.49104 0.0
C680 C 0.20688 0.60891 0.54151 0.0
C681 C 0.19868 0.61596 0.46757 0.0
C682 C 0.22336 0.5969 0.48078 0.0
C683 C 0.25305 0.57496 0.53135 0.0
C684 C 0.2572 0.5718 0.56836 0.0
C685 C 0.22791 0.59348 0.51771 0.0
C686 C 0.23591 0.58673 0.5917 0.0
C687 C 0.21109 0.60537 0.57844 0.0
H688 H 0.87409 0.1545 0.46891 0.0
H689 H 0.8044 0.22895 0.45504 0.0
H690 H 0.83799 0.26565 0.48739 0.0
H691 H 0.88662 0.27695 0.51991 0.0
H692 H 0.95584 0.20279 0.53734 0.0
H693 H 0.92329 0.16595 0.5028 0.0
C694 C 0.86634 0.17876 0.47292 0.0
C695 C 0.83675 0.18886 0.45942 0.0
C696 C 0.88577 0.19994 0.49198 0.0
C697 C 0.827 0.22039 0.46506 0.0
C698 C 0.84624 0.24153 0.48354 0.0
C699 C 0.89474 0.25276 0.51618 0.0
C700 C 0.92367 0.2427 0.53126 0.0
C701 C 0.87562 0.23159 0.49711 0.0
C702 C 0.93368 0.21122 0.52601 0.0
C703 C 0.91502 0.1901 0.50634 0.0
H704 H 0.36237 0.86818 0.43441 0.0
H705 H 0.42832 0.9034 0.51276 0.0
H706 H 0.38619 0.93612 0.53909 0.0
H707 H 0.32904 0.94846 0.54504 0.0
H708 H 0.26256 0.90743 0.47086 0.0
H709 H 0.30627 0.88296 0.43797 0.0
C710 C 0.36778 0.88358 0.4567 0.0
C711 C 0.39846 0.88336 0.47162 0.0
C712 C 0.34306 0.90077 0.47294 0.0
C713 C 0.4049 0.90324 0.50076 0.0
C714 C 0.38074 0.92171 0.51599 0.0
C715 C 0.32421 0.93469 0.52126 0.0
C716 C 0.29257 0.92975 0.51044 0.0
C717 C 0.34945 0.91972 0.50315 0.0
C718 C 0.28666 0.91151 0.47983 0.0
C719 C 0.31166 0.89751 0.46098 0.0
H720 H 0.35958 0.80788 0.96127 0.0
H721 H 0.39996 0.88216 0.02549 0.0
H722 H 0.42715 0.84267 0.06257 0.0
H723 H 0.43833 0.7869 0.07759 0.0
H724 H 0.39647 0.71261 0.01496 0.0
H725 H 0.37025 0.75204 0.97681 0.0
C726 C 0.37481 0.81539 0.98299 0.0
C727 C 0.3783 0.84789 0.99028 0.0
C728 C 0.38939 0.79251 1.00495 0.0
C729 C 0.39728 0.85729 0.01915 0.0
C730 C 0.41262 0.83472 0.04047 0.0
C731 C 0.42322 0.77943 0.05574 0.0
C732 C 0.41853 0.74694 0.04954 0.0
C733 C 0.40856 0.80227 0.03386 0.0
C734 C 0.39939 0.73747 0.0209 0.0
C735 C 0.38483 0.76003 0.99883 0.0
H736 H 0.72761 0.43702 0.01471 0.0
H737 H 0.73781 0.36887 0.09924 0.0
H738 H 0.69944 0.33391 0.06989 0.0
H739 H 0.66232 0.32345 0.02022 0.0
H740 H 0.64826 0.3948 0.93911 0.0
H741 H 0.68794 0.42833 0.96758 0.0
C742 C 0.72164 0.4143 0.02641 0.0
C743 C 0.73712 0.40429 0.05771 0.0
C744 C 0.69832 0.39535 0.01034 0.0
C745 C 0.72818 0.37563 0.07357 0.0
C746 C 0.7056 0.35615 0.05727 0.0
C747 C 0.66782 0.34641 1.00887 0.0
C748 C 0.65237 0.35651 0.97745 0.0
C749 C 0.69058 0.36573 0.02554 0.0
C750 C 0.65962 0.38645 0.9633 0.0
C751 C 0.68248 0.40559 0.97945 0.0
H752 H 0.13157 0.65653 0.03308 0.0
H753 H 0.08161 0.66511 0.93292 0.0
H754 H 0.05175 0.71048 0.95632 0.0
H755 H 0.04066 0.74846 1.0051 0.0
H756 H 0.0896 0.73856 0.10523 0.0
H757 H 0.11992 0.69346 0.08175 0.0
C758 C 0.11396 0.66807 0.01635 0.0
C759 C 0.1088 0.65729 0.98124 0.0
C760 C 0.0974 0.69445 0.02972 0.0
C761 C 0.08595 0.67275 0.96005 0.0
C762 C 0.06904 0.69885 0.97335 0.0
C763 C 0.05844 0.73667 0.0214 0.0
C764 C 0.06447 0.74778 0.05609 0.0
C765 C 0.07485 0.71013 1.00798 0.0
C766 C 0.08631 0.73161 0.07769 0.0
C767 C 0.10303 0.70544 0.0645 0.0
H768 H 0.72024 0.07268 1.00705 0.0
H769 H 0.78237 0.05339 0.09576 0.0
H770 H 0.82519 0.08285 0.06681 0.0
H771 H 0.8447 0.11497 0.01619 0.0
H772 H 0.78324 0.13066 0.92567 0.0
H773 H 0.74067 0.10182 0.95511 0.0
C774 C 0.74324 0.07491 0.01984 0.0
C775 C 0.74815 0.0614 0.05357 0.0
C776 C 0.76792 0.0912 1.00263 0.0
C777 C 0.77807 0.06391 0.06986 0.0
C778 C 0.80253 0.08075 0.05332 0.0
C779 C 0.82205 0.11187 1.0029 0.0
C780 C 0.81724 0.12488 0.96876 0.0
C781 C 0.79771 0.09464 0.01972 0.0
C782 C 0.78775 0.12061 0.9518 0.0
C783 C 0.76328 0.10423 0.96866 0.0
H784 H 0.38596 0.6774 0.60163 0.0
H785 H 0.4295 0.59733 0.549 0.0
H786 H 0.45975 0.63316 0.51077 0.0
H787 H 0.46775 0.6867 0.48691 0.0
H788 H 0.42065 0.76623 0.53682 0.0
H789 H 0.39785 0.73107 0.58155 0.0
C790 C 0.40266 0.66771 0.58245 0.0
C791 C 0.40532 0.63471 0.578 0.0
C792 C 0.41888 0.68838 0.55961 0.0
C793 C 0.42694 0.62264 0.55284 0.0
C794 C 0.44407 0.64312 0.53082 0.0
C795 C 0.45291 0.69644 0.5079 0.0
C796 C 0.44563 0.72901 0.50826 0.0
C797 C 0.43925 0.67597 0.53306 0.0
C798 C 0.42645 0.74123 0.53573 0.0
C799 C 0.41338 0.72113 0.56133 0.0
H800 H 0.77759 0.42136 0.51368 0.0
H801 H 0.81118 0.38864 0.41122 0.0
H802 H 0.86319 0.37745 0.43648 0.0
H803 H 0.89841 0.37386 0.48763 0.0
H804 H 0.86523 0.40212 0.5918 0.0
H805 H 0.81431 0.41872 0.56585 0.0
C806 C 0.79639 0.41197 0.49692 0.0
C807 C 0.79027 0.40569 0.46058 0.0
C808 C 0.82646 0.40488 0.51188 0.0
C809 C 0.81493 0.39339 0.4393 0.0
C810 C 0.84484 0.38709 0.45369 0.0
C811 C 0.88031 0.38403 0.50479 0.0
C812 C 0.88585 0.38668 0.54173 0.0
C813 C 0.85077 0.39234 0.48996 0.0
C814 C 0.86181 0.39986 0.56328 0.0
C815 C 0.83254 0.40916 0.54846 0.0
H816 H 0.15443 0.86027 0.46699 0.0
H817 H 0.12266 0.86053 0.57646 0.0
H818 H 0.08803 0.81542 0.564 0.0
H819 H 0.07055 0.77264 0.52292 0.0
H820 H 0.10558 0.77148 0.415 0.0
H821 H 0.1349 0.82032 0.4257 0.0
C822 C 0.13959 0.85087 0.48811 0.0
C823 C 0.14136 0.86372 0.52271 0.0
C824 C 0.1207 0.82436 0.48109 0.0
C825 C 0.12178 0.8512 0.54958 0.0
C826 C 0.10219 0.82517 0.54254 0.0
C827 C 0.08486 0.78312 0.50199 0.0
C828 C 0.08671 0.76828 0.4685 0.0
C829 C 0.10222 0.81094 0.50866 0.0
C830 C 0.10444 0.78229 0.44115 0.0
C831 C 0.1211 0.81022 0.44726 0.0
H832 H 0.71094 0.03622 0.47729 0.0
H833 H 0.77623 0.11413 0.46911 0.0
H834 H 0.74457 0.1445 0.51214 0.0
H835 H 0.69817 0.14863 0.55188 0.0
H836 H 0.63038 0.07257 0.556 0.0
H837 H 0.66344 0.04118 0.51512 0.0
C838 C 0.71817 0.05989 0.48496 0.0
C839 C 0.74578 0.07311 0.47012 0.0
C840 C 0.69964 0.07716 0.50927 0.0
C841 C 0.75485 0.10378 0.47991 0.0
C842 C 0.7369 0.12095 0.5047 0.0
C843 C 0.69099 0.12493 0.54426 0.0
C844 C 0.66243 0.11239 0.5575 0.0
C845 C 0.70935 0.10779 0.51965 0.0
C846 C 0.65262 0.08227 0.54653 0.0
C847 C 0.67138 0.06451 0.52306 0.0
H848 H 0.75397 0.02315 0.30377 0.0
H849 H 0.80182 0.1133 0.3021 0.0
H850 H 0.77203 0.12822 0.24831 0.0
H851 H 0.73238 0.11518 0.20172 0.0
H852 H 0.6848 0.02491 0.20537 0.0
H853 H 0.71452 0.01058 0.25892 0.0
C854 C 0.75804 0.04617 0.29191 0.0
C855 C 0.77997 0.06723 0.30741 0.0
C856 C 0.74079 0.05453 0.26135 0.0
C857 C 0.78484 0.09679 0.29114 0.0
C858 C 0.76784 0.10527 0.26031 0.0
C859 C 0.72836 0.09246 0.21438 0.0
C860 C 0.70653 0.07097 0.19936 0.0
C861 C 0.74564 0.08434 0.24527 0.0
C862 C 0.70164 0.04168 0.21612 0.0
C863 C 0.71863 0.03349 0.24674 0.0
H864 H 0.3863 0.72024 0.20847 0.0
H865 H 0.48081 0.68216 0.19523 0.0
H866 H 0.49801 0.7093 0.2496 0.0
H867 H 0.48537 0.74194 0.3026 0.0
H868 H 0.38977 0.77715 0.31675 0.0
H869 H 0.37407 0.75357 0.26011 0.0
C870 C 0.4107 0.71783 0.21739 0.0
C871 C 0.43225 0.6992 0.19764 0.0
C872 C 0.4203 0.73321 0.24884 0.0
C873 C 0.46376 0.69646 0.20974 0.0
C874 C 0.4736 0.71199 0.24088 0.0
C875 C 0.46121 0.7448 0.29309 0.0
C876 C 0.43877 0.76127 0.31412 0.0
C877 C 0.45201 0.73028 0.26082 0.0
C878 C 0.40752 0.76453 0.30132 0.0
C879 C 0.39846 0.75093 0.26893 0.0
H880 H 0.76644 0.39044 0.19927 0.0
H881 H 0.8128 0.48118 0.20087 0.0
H882 H 0.78417 0.49521 0.25582 0.0
H883 H 0.74871 0.47966 0.30587 0.0
H884 H 0.70072 0.38962 0.30115 0.0
H885 H 0.72697 0.37754 0.2449 0.0
C886 C 0.77022 0.41337 0.21155 0.0
C887 C 0.79214 0.43455 0.19639 0.0
C888 C 0.75335 0.42138 0.24264 0.0
C889 C 0.7962 0.46442 0.21216 0.0
C890 C 0.77988 0.47238 0.24361 0.0
C891 C 0.74373 0.45757 0.29228 0.0
C892 C 0.72295 0.43548 0.30807 0.0
C893 C 0.7588 0.45078 0.25948 0.0
C894 C 0.71653 0.40712 0.28984 0.0
C895 C 0.73169 0.40006 0.25765 0.0
H896 H 0.02057 0.76784 0.22878 0.0
H897 H 0.11104 0.81556 0.22337 0.0
H898 H 0.1271 0.79058 0.27921 0.0
H899 H 0.1174 0.75223 0.32707 0.0
H900 H 0.02784 0.7032 0.33213 0.0
H901 H 0.00968 0.73154 0.27872 0.0
C902 C 0.04371 0.77317 0.23985 0.0
C903 C 0.06458 0.79358 0.22133 0.0
C904 C 0.05319 0.75809 0.27173 0.0
C905 C 0.09436 0.80008 0.23666 0.0
C906 C 0.10371 0.78559 0.2686 0.0
C907 C 0.09386 0.74765 0.31657 0.0
C908 C 0.07411 0.72531 0.33352 0.0
C909 C 0.08364 0.76399 0.28588 0.0
C910 C 0.04358 0.72011 0.31963 0.0
C911 C 0.03319 0.73637 0.28909 0.0
H912 H 0.26597 0.89956 0.68893 0.0
H913 H 0.20467 0.98112 0.70163 0.0
H914 H 0.22004 0.9851 0.76417 0.0
H915 H 0.25156 0.96655 0.81471 0.0
H916 H 0.31381 0.88566 0.80278 0.0
H917 H 0.2972 0.88033 0.74051 0.0
C918 C 0.2557 0.91806 0.7054 0.0
C919 C 0.23407 0.94 0.69033 0.0
C920 C 0.26497 0.9205 0.74147 0.0
C921 C 0.2213 0.96389 0.71226 0.0
C922 C 0.23015 0.96625 0.74811 0.0
C923 C 0.2618 0.9478 0.79865 0.0
C924 C 0.28429 0.92676 0.81369 0.0
C925 C 0.25219 0.9449 0.76288 0.0
C926 C 0.29663 0.90235 0.79215 0.0
C927 C 0.2871 0.89927 0.75645 0.0
H928 H 0.50828 0.26087 0.7994 0.0
H929 H 0.59094 0.32095 0.80278 0.0
H930 H 0.61195 0.29481 0.7496 0.0
H931 H 0.6081 0.25327 0.70401 0.0
H932 H 0.52515 0.19378 0.69987 0.0
H933 H 0.50273 0.22177 0.75138 0.0
C934 C 0.53082 0.26853 0.78849 0.0
C935 C 0.54833 0.29252 0.80576 0.0
C936 C 0.54267 0.25348 0.75776 0.0
C937 C 0.57726 0.30218 0.79069 0.0
C938 C 0.58924 0.28729 0.76015 0.0
C939 C 0.58507 0.24639 0.71431 0.0
C940 C 0.56842 0.22122 0.69829 0.0
C941 C 0.57241 0.26256 0.74386 0.0
C942 C 0.53846 0.21296 0.71173 0.0
C943 C 0.52569 0.22895 0.7412 0.0
H944 H 0.25942 0.52537 0.70956 0.0
H945 H 0.31621 0.60312 0.74715 0.0
H946 H 0.28637 0.60466 0.80253 0.0
H947 H 0.23919 0.59042 0.83585 0.0
H948 H 0.17958 0.51428 0.7999 0.0
H949 H 0.21492 0.50568 0.74834 0.0
C950 C 0.26535 0.54225 0.73008 0.0
C951 C 0.28939 0.5647 0.72371 0.0
C952 C 0.24715 0.54374 0.76187 0.0
C953 C 0.29746 0.58596 0.75104 0.0
C954 C 0.28031 0.58699 0.78274 0.0
C955 C 0.23411 0.5716 0.81703 0.0
C956 C 0.20654 0.55339 0.82129 0.0
C957 C 0.25424 0.56707 0.78769 0.0
C958 C 0.20064 0.52868 0.7971 0.0
C959 C 0.22079 0.52391 0.76755 0.0
H960 H 0.91359 0.28819 0.72052 0.0
H961 H 0.01192 0.26129 0.7079 0.0
H962 H 0.00796 0.226 0.75943 0.0
H963 H 0.97399 0.19678 0.8026 0.0
H964 H 0.87607 0.22547 0.8149 0.0
H965 H 0.88253 0.26579 0.76932 0.0
C966 C 0.93437 0.27509 0.72938 0.0
C967 C 0.96275 0.27691 0.70972 0.0
C968 C 0.93188 0.25463 0.75882 0.0
C969 C 0.98959 0.26018 0.72217 0.0
C970 C 0.98731 0.23974 0.75157 0.0
C971 C 0.95435 0.21238 0.79583 0.0
C972 C 0.92451 0.20774 0.81189 0.0
C973 C 0.95818 0.2358 0.76925 0.0
C974 C 0.89922 0.22812 0.80272 0.0
C975 C 0.90286 0.25131 0.7766 0.0
H976 H 0.48742 0.02964 0.98158 0.0
H977 H 0.41201 0.99606 0.0493 0.0
H978 H 0.45103 0.97758 0.09318 0.0
H979 H 0.50608 0.97074 0.11181 0.0
H980 H 0.58215 0.99769 0.04076 0.0
H981 H 0.5434 0.02059 0.99953 0.0
C982 C 0.47969 0.01819 1.00597 0.0
C983 C 0.44702 0.01406 0.01236 0.0
C984 C 0.5023 0.00701 0.03065 0.0
C985 C 0.43708 0.99917 0.04384 0.0
C986 C 0.45935 0.98882 0.06894 0.0
C987 C 0.51441 0.98111 0.08708 0.0
C988 C 0.54724 0.98192 0.07944 0.0
C989 C 0.49198 0.9925 0.06252 0.0
C990 C 0.55723 0.99683 0.0478 0.0
C991 C 0.535 0.00959 0.02388 0.0
H992 H 0.44504 0.48832 0.97762 0.0
H993 H 0.53616 0.44781 0.95046 0.0
H994 H 0.56261 0.48617 0.98917 0.0
H995 H 0.55968 0.53077 0.03095 0.0
H996 H 0.46834 0.57007 0.05969 0.0
H997 H 0.44217 0.53334 0.01896 0.0
C998 C 0.47073 0.48815 0.9798 0.0
C999 C 0.48865 0.46535 0.96103 0.0
C1000 C 0.4857 0.51016 1.00214 0.0
C1001 C 0.52185 0.465 0.96477 0.0
C1002 C 0.53696 0.48699 0.98676 0.0
C1003 C 0.53401 0.53116 0.02859 0.0
C1004 C 0.516 0.55304 0.04865 0.0
C1005 C 0.51909 0.50955 1.00571 0.0
C1006 C 0.48282 0.55371 0.04444 0.0
C1007 C 0.46782 0.53253 0.02135 0.0
H1008 H 0.00885 0.44356 0.98493 0.0
H1009 H 0.0465 0.53391 0.95265 0.0
H1010 H 0.00552 0.56109 0.98777 0.0
H1011 H 0.95657 0.55894 0.02312 0.0
H1012 H 0.91982 0.46841 0.05707 0.0
H1013 H 0.96216 0.44149 0.02433 0.0
C1014 C 0.00822 0.46923 0.98585 0.0
C1015 C 0.03053 0.48675 0.966 0.0
C1016 C 0.98435 0.48459 1.00561 0.0
C1017 C 0.02975 0.51994 0.96784 0.0
C1018 C 0.00611 0.53543 0.9876 0.0
C1019 C 0.95804 0.53333 0.02416 0.0
C1020 C 0.93471 0.51586 0.04275 0.0
C1021 C 0.98292 0.51798 1.00598 0.0
C1022 C 0.93688 0.4826 0.04263 0.0
C1023 C 0.96134 0.46715 0.02418 0.0
H1024 H 0.05653 0.03654 0.99852 0.0
H1025 H 0.96415 0.06518 0.95971 0.0
H1026 H 0.93903 0.02667 0.99926 0.0
H1027 H 0.94342 0.98344 0.04318 0.0
H1028 H 0.03596 0.95333 0.07969 0.0
H1029 H 0.06098 0.99317 0.04166 0.0
C1030 C 0.0309 0.03417 0.99825 0.0
C1031 C 0.01235 0.05372 0.9758 0.0
C1032 C 0.01666 0.01148 0.02042 0.0
C1033 C 0.97909 0.05077 0.97682 0.0
C1034 C 0.9647 0.02854 0.99926 0.0
C1035 C 0.96906 0.9858 0.04306 0.0
C1036 C 0.98782 0.96554 0.06441 0.0
C1037 C 0.98326 0.00864 0.02099 0.0
C1038 C 0.02103 0.9685 0.0634 0.0
C1039 C 0.03531 0.99136 0.04178 0.0
H1040 H 0.49313 0.48046 0.61654 0.0
H1041 H 0.41696 0.48975 0.54001 0.0
H1042 H 0.45555 0.50391 0.49387 0.0
H1043 H 0.51176 0.50869 0.47391 0.0
H1044 H 0.58716 0.49103 0.54928 0.0
H1045 H 0.54812 0.48313 0.59676 0.0
C1046 C 0.48473 0.48511 0.58969 0.0
C1047 C 0.45194 0.48323 0.58189 0.0
C1048 C 0.50715 0.49082 0.56276 0.0
C1049 C 0.44183 0.49102 0.54716 0.0
C1050 C 0.46402 0.49863 0.52053 0.0
C1051 C 0.5195 0.50287 0.50073 0.0
C1052 C 0.55228 0.5001 0.50811 0.0
C1053 C 0.49681 0.49767 0.52778 0.0
C1054 C 0.56211 0.49273 0.5429 0.0
C1055 C 0.5398 0.48855 0.57007 0.0
H1056 H 0.9705 0.52468 0.43789 0.0
H1057 H 1.00001 0.59157 0.51801 0.0
H1058 H 0.02027 0.54808 0.55501 0.0
H1059 H 0.02628 0.49109 0.5661 0.0
H1060 H 0.99932 0.42434 0.48423 0.0
H1061 H 0.97985 0.46775 0.44729 0.0
C1062 C 0.98164 0.52973 0.46335 0.0
C1063 C 0.98371 0.56132 0.47524 0.0
C1064 C 0.99288 0.50462 0.48457 0.0
C1065 C 0.99844 0.56754 0.50808 0.0
C1066 C 0.00967 0.54264 0.5294 0.0
C1067 C 0.0167 0.48584 0.53994 0.0
C1068 C 0.01436 0.45409 0.5283 0.0
C1069 C 0.00655 0.51106 0.51814 0.0
C1070 C 1.00095 0.4482 0.49455 0.0
C1071 C 0.99015 0.47313 0.47307 0.0
H1072 H 0.00115 0.0101 0.40178 0.0
H1073 H 0.93555 0.01729 0.49018 0.0
H1074 H 0.97899 0.03158 0.5296 0.0
H1075 H 0.03635 0.03574 0.54092 0.0
H1076 H 0.10249 0.02222 0.45435 0.0
H1077 H 0.05828 0.01423 0.41295 0.0
C1078 C 0.99617 0.01456 0.42969 0.0
C1079 C 0.96481 0.01192 0.44275 0.0
C1080 C 0.02162 0.02039 0.45298 0.0
C1081 C 0.95908 0.01934 0.47883 0.0
C1082 C 0.98412 0.02691 0.50175 0.0
C1083 C 0.04105 0.031 0.51296 0.0
C1084 C 0.07265 0.02928 0.50074 0.0
C1085 C 0.01555 0.02635 0.4894 0.0
C1086 C 0.07841 0.02305 0.46452 0.0
C1087 C 0.05314 0.01891 0.44078 0.0
H1088 H 0.5267 0.9722 0.44476 0.0
H1089 H 0.50929 0.904 0.52825 0.0
H1090 H 0.49609 0.94677 0.56947 0.0
H1091 H 0.49209 0.00334 0.58276 0.0
H1092 H 0.50672 0.07185 0.49877 0.0
H1093 H 0.52048 0.02918 0.45759 0.0
C1094 C 0.51994 0.96667 0.47197 0.0
C1095 C 0.51904 0.93478 0.48328 0.0
C1096 C 0.5128 0.99147 0.49578 0.0
C1097 C 0.50977 0.92814 0.51853 0.0
C1098 C 0.50262 0.95266 0.54231 0.0
C1099 C 0.49786 0.00913 0.55535 0.0
C1100 C 0.49816 0.04109 0.54414 0.0
C1101 C 0.50445 0.9844 0.53135 0.0
C1102 C 0.50673 0.04775 0.50862 0.0
C1103 C 0.51417 0.02325 0.4848 0.0
H1104 H 0.54727 0.77699 0.16687 0.0
H1105 H 0.45423 0.81822 0.18233 0.0
H1106 H 0.47756 0.8711 0.18359 0.0
H1107 H 0.52286 0.90545 0.17013 0.0
H1108 H 0.61435 0.86346 0.14708 0.0
H1109 H 0.59336 0.81115 0.16014 0.0
C1110 C 0.53209 0.79745 0.17127 0.0
C1111 C 0.49897 0.79376 0.17371 0.0
C1112 C 0.54544 0.82773 0.17034 0.0
C1113 C 0.47975 0.82049 0.17985 0.0
C1114 C 0.49306 0.85073 0.18042 0.0
C1115 C 0.53828 0.88486 0.16824 0.0
C1116 C 0.56997 0.8884 0.15694 0.0
C1117 C 0.52564 0.85464 0.17396 0.0
C1118 C 0.5899 0.86159 0.15574 0.0
C1119 C 0.57782 0.83155 0.16285 0.0
H1120 H 0.71187 0.54508 0.16254 0.0
H1121 H 0.66804 0.45346 0.17423 0.0
H1122 H 0.6155 0.47788 0.16886 0.0
H1123 H 0.58314 0.52357 0.14985 0.0
H1124 H 0.6287 0.61353 0.13125 0.0
H1125 H 0.67913 0.59161 0.15111 0.0
C1126 C 0.69085 0.53045 0.16472 0.0
C1127 C 0.69389 0.49739 0.16779 0.0
C1128 C 0.66091 0.54438 0.15989 0.0
C1129 C 0.66637 0.47894 0.17129 0.0
C1130 C 0.63632 0.49286 0.16796 0.0
C1131 C 0.60406 0.53844 0.1504 0.0
C1132 C 0.60211 0.57002 0.13845 0.0
C1133 C 0.63345 0.52529 0.16032 0.0
C1134 C 0.62928 0.58921 0.14039 0.0
C1135 C 0.65832 0.57661 0.15145 0.0
H1136 H 0.91664 0.72345 0.11947 0.0
H1137 H 0.98744 0.68367 0.19009 0.0
H1138 H 0.96623 0.63087 0.18027 0.0
H1139 H 0.9325 0.59532 0.14516 0.0
H1140 H 0.86178 0.63456 0.07456 0.0
H1141 H 0.87783 0.6883 0.09095 0.0
C1142 C 0.92699 0.70333 0.13331 0.0
C1143 C 0.95399 0.7074 0.15483 0.0
C1144 C 0.91498 0.67289 0.12715 0.0
C1145 C 0.96691 0.68114 0.17293 0.0
C1146 C 0.9549 0.65087 0.16724 0.0
C1147 C 0.92039 0.61574 0.13387 0.0
C1148 C 0.8964 0.61132 0.10847 0.0
C1149 C 0.92979 0.64637 0.14332 0.0
C1150 C 0.88041 0.63767 0.09417 0.0
C1151 C 0.88965 0.66829 0.10342 0.0
H1152 H 0.78573 0.94927 0.16316 0.0
H1153 H 0.82143 0.04221 0.1883 0.0
H1154 H 0.87598 0.02259 0.18293 0.0
H1155 H 0.91293 0.98109 0.16267 0.0
H1156 H 0.87592 0.89013 0.13083 0.0
H1157 H 0.82282 0.90659 0.14842 0.0
C1158 C 0.80541 0.9651 0.16832 0.0
C1159 C 0.79955 0.99725 0.17569 0.0
C1160 C 0.83661 0.954 0.16372 0.0
C1161 C 0.82534 0.01741 0.18225 0.0
C1162 C 0.85653 0.00623 0.17903 0.0
C1163 C 0.8933 0.96477 0.15974 0.0
C1164 C 0.89861 0.93451 0.14499 0.0
C1165 C 0.86239 0.9749 0.16831 0.0
C1166 C 0.87289 0.91345 0.14237 0.0
C1167 C 0.8423 0.92297 0.15206 0.0
H1168 H 0.56816 0.5664 0.38179 0.0
H1169 H 0.62602 0.59903 0.46882 0.0
H1170 H 0.61157 0.65406 0.45529 0.0
H1171 H 0.57589 0.69165 0.4245 0.0
H1172 H 0.51654 0.65821 0.33864 0.0
H1173 H 0.53846 0.60504 0.34538 0.0
C1174 C 0.57842 0.58575 0.39685 0.0
C1175 C 0.59834 0.57899 0.4259 0.0
C1176 C 0.56928 0.61715 0.38949 0.0
C1177 C 0.61104 0.60396 0.44595 0.0
C1178 C 0.60249 0.63532 0.43845 0.0
C1179 C 0.56828 0.6729 0.40674 0.0
C1180 C 0.54418 0.67886 0.38154 0.0
C1181 C 0.58064 0.64209 0.41114 0.0
C1182 C 0.53473 0.65426 0.35862 0.0
C1183 C 0.54722 0.62376 0.36247 0.0
H1184 H 0.87126 0.5906 0.47393 0.0
H1185 H 0.88919 0.60709 0.36236 0.0
H1186 H 0.83544 0.58901 0.34762 0.0
H1187 H 0.78625 0.56227 0.36622 0.0
H1188 H 0.76908 0.54554 0.47826 0.0
H1189 H 0.81935 0.5706 0.49316 0.0
C1190 C 0.86311 0.59065 0.44647 0.0
C1191 C 0.88402 0.59968 0.41915 0.0
C1192 C 0.83243 0.5801 0.43833 0.0
C1193 C 0.87334 0.60013 0.38371 0.0
C1194 C 0.84274 0.58967 0.37533 0.0
C1195 C 0.79317 0.56467 0.39395 0.0
C1196 C 0.77413 0.55149 0.42102 0.0
C1197 C 0.82244 0.5787 0.40236 0.0
C1198 C 0.78336 0.55514 0.45683 0.0
C1199 C 0.81222 0.56935 0.46541 0.0
H1200 H 0.98395 0.91852 0.41375 0.0
H1201 H 0.9007 0.89727 0.35074 0.0
H1202 H 0.92187 0.84398 0.33962 0.0
H1203 H 0.96415 0.80304 0.34972 0.0
H1204 H 0.04965 0.83031 0.4054 0.0
H1205 H 0.02812 0.88287 0.41517 0.0
C1206 C 0.97071 0.90329 0.39597 0.0
C1207 C 0.94084 0.91271 0.38255 0.0
C1208 C 0.98365 0.87372 0.38805 0.0
C1209 C 0.92364 0.89095 0.36173 0.0
C1210 C 0.93587 0.8605 0.35508 0.0
C1211 C 0.97814 0.82078 0.36339 0.0
C1212 C 0.00833 0.81275 0.37701 0.0
C1213 C 0.96585 0.85156 0.36837 0.0
C1214 C 0.02644 0.83587 0.39448 0.0
C1215 C 0.01406 0.8659 0.40038 0.0
H1216 H 0.59138 0.93199 0.37342 0.0
H1217 H 0.62936 0.85836 0.44079 0.0
H1218 H 0.68348 0.87671 0.42895 0.0
H1219 H 0.71879 0.91916 0.40714 0.0
H1220 H 0.67967 0.99306 0.34037 0.0
H1221 H 0.62743 0.96901 0.34388 0.0
C1222 C 0.61165 0.91949 0.38462 0.0
C1223 C 0.60663 0.8941 0.40802 0.0
C1224 C 0.64246 0.93057 0.37829 0.0
C1225 C 0.63285 0.8779 0.42248 0.0
C1226 C 0.66372 0.8886 0.41603 0.0
C1227 C 0.69897 0.92958 0.39278 0.0
C1228 C 0.70299 0.95826 0.37427 0.0
C1229 C 0.66869 0.91575 0.39516 0.0
C1230 C 0.67714 0.97132 0.35543 0.0
C1231 C 0.64718 0.95759 0.35738 0.0
H1232 H 0.40314 0.0985 0.88915 0.0
H1233 H 0.3995 0.12032 1.00142 0.0
H1234 H 0.40816 0.17634 0.98847 0.0
H1235 H 0.42288 0.21764 0.94608 0.0
H1236 H 0.43015 0.1956 0.83394 0.0
H1237 H 0.41324 0.14132 0.84584 0.0
C1238 C 0.40358 0.1157 0.91062 0.0
C1239 C 0.40093 0.10544 0.94616 0.0
C1240 C 0.4094 0.14774 0.90301 0.0
C1241 C 0.40182 0.12778 0.97388 0.0
C1242 C 0.40675 0.15974 0.96649 0.0
C1243 C 0.42022 0.20119 0.92409 0.0
C1244 C 0.4281 0.2106 0.88922 0.0
C1245 C 0.41151 0.16982 0.93126 0.0
C1246 C 0.42443 0.18892 0.86108 0.0
C1247 C 0.4149 0.15782 0.86788 0.0
H1248 H 0.37159 0.39998 0.89629 0.0
H1249 H 0.42063 0.48206 0.8559 0.0
H1250 H 0.37005 0.50584 0.83829 0.0
H1251 H 0.31171 0.50656 0.84266 0.0
H1252 H 0.26301 0.42379 0.88169 0.0
H1253 H 0.31371 0.39668 0.89037 0.0
C1254 C 0.37144 0.42258 0.88256 0.0
C1255 C 0.39992 0.43949 0.87825 0.0
C1256 C 0.34225 0.43618 0.87252 0.0
C1257 C 0.39902 0.46887 0.86047 0.0
C1258 C 0.37009 0.48249 0.85032 0.0
C1259 C 0.31219 0.48235 0.85239 0.0
C1260 C 0.28369 0.46748 0.86221 0.0
C1261 C 0.34149 0.46693 0.85761 0.0
C1262 C 0.28461 0.43592 0.87417 0.0
C1263 C 0.31364 0.42042 0.87936 0.0
H1264 H 0.0826 0.37293 0.87797 0.0
H1265 H 0.99821 0.42949 0.86089 0.0
H1266 H 0.96951 0.3826 0.84127 0.0
H1267 H 0.96624 0.32445 0.83882 0.0
H1268 H 0.0514 0.26865 0.85409 0.0
H1269 H 0.08215 0.3166 0.86302 0.0
C1270 C 0.05829 0.37538 0.86879 0.0
C1271 C 0.04236 0.4046 0.87205 0.0
C1272 C 0.04191 0.34835 0.85741 0.0
C1273 C 0.01078 0.40706 0.85991 0.0
C1274 C 0.99434 0.38028 0.84853 0.0
C1275 C 0.99166 0.32283 0.84327 0.0
C1276 C 0.00627 0.29299 0.84685 0.0
C1277 C 0.00927 0.35055 0.84881 0.0
C1278 C 0.03936 0.29129 0.8518 0.0
C1279 C 0.05703 0.31873 0.85712 0.0
H1280 H 0.19636 0.02856 0.84829 0.0
H1281 H 0.23978 0.08692 0.92897 0.0
H1282 H 0.18817 0.11121 0.9422 0.0
H1283 H 0.1298 0.1111 0.93556 0.0
H1284 H 0.08636 0.04849 0.85939 0.0
H1285 H 0.13888 0.03043 0.83947 0.0
C1286 C 0.19471 0.04711 0.86822 0.0
C1287 C 0.22182 0.05598 0.88765 0.0
C1288 C 0.16484 0.05978 0.87678 0.0
C1289 C 0.2192 0.07974 0.91369 0.0
C1290 C 0.18969 0.09346 0.92139 0.0
C1291 C 0.13208 0.09387 0.91424 0.0
C1292 C 0.10466 0.08105 0.89874 0.0
C1293 C 0.16223 0.08294 0.90388 0.0
C1294 C 0.10741 0.05852 0.87149 0.0
C1295 C 0.13733 0.04826 0.8602 0.0
H1296 H 0.51722 0.31906 0.68674 0.0
H1297 H 0.44041 0.26385 0.64328 0.0
H1298 H 0.40489 0.30943 0.64729 0.0
H1299 H 0.39919 0.36728 0.65114 0.0
H1300 H 0.47626 0.42282 0.693 0.0
H1301 H 0.50781 0.37482 0.70247 0.0
C1302 C 0.49253 0.31686 0.67886 0.0
C1303 C 0.48174 0.28845 0.66372 0.0
C1304 C 0.47229 0.34333 0.68073 0.0
C1305 C 0.4495 0.28563 0.65448 0.0
C1306 C 0.42913 0.31175 0.65664 0.0
C1307 C 0.42235 0.3687 0.66373 0.0
C1308 C 0.43566 0.39846 0.67081 0.0
C1309 C 0.44072 0.3411 0.66802 0.0
C1310 C 0.46575 0.40007 0.687 0.0
C1311 C 0.48388 0.37269 0.69211 0.0
H1312 H 0.07942 0.45799 0.63503 0.0
H1313 H 0.12301 0.37285 0.59412 0.0
H1314 H 0.17463 0.38986 0.61705 0.0
H1315 H 0.20843 0.43293 0.63992 0.0
H1316 H 0.16471 0.51975 0.67624 0.0
H1317 H 0.11216 0.49814 0.66407 0.0
C1318 C 0.10018 0.44296 0.63161 0.0
C1319 C 0.09752 0.41446 0.61243 0.0
C1320 C 0.12984 0.45343 0.64365 0.0
C1321 C 0.12441 0.39488 0.6088 0.0
C1322 C 0.15399 0.40476 0.62161 0.0
C1323 C 0.18736 0.44679 0.64597 0.0
C1324 C 0.19043 0.47804 0.65855 0.0
C1325 C 0.15719 0.43457 0.6378 0.0
C1326 C 0.16295 0.49578 0.66617 0.0
C1327 C 0.1329 0.48346 0.65915 0.0
H1328 H 0.08759 0.2164 0.58841 0.0
H1329 H 0.02404 0.17401 0.66502 0.0
H1330 H 0.05086 0.12327 0.65814 0.0
H1331 H 0.08645 0.08901 0.62333 0.0
H1332 H 0.14969 0.13018 0.54623 0.0
H1333 H 0.12968 0.18324 0.56089 0.0
C1334 C 0.08003 0.19622 0.6041 0.0
C1335 C 0.05334 0.19896 0.62658 0.0
C1336 C 0.09556 0.16677 0.59992 0.0
C1337 C 0.04414 0.17259 0.64704 0.0
C1338 C 0.05949 0.14344 0.64317 0.0
C1339 C 0.09672 0.1098 0.61091 0.0
C1340 C 0.11964 0.10591 0.58406 0.0
C1341 C 0.08443 0.13998 0.61876 0.0
C1342 C 0.13242 0.13279 0.56746 0.0
C1343 C 0.1206 0.16305 0.57547 0.0
H1344 H 0.33265 0.00936 0.67114 0.0
H1345 H 0.28263 0.07957 0.60867 0.0
H1346 H 0.3312 0.11045 0.60314 0.0
H1347 H 0.38965 0.11124 0.60511 0.0
H1348 H 0.43993 0.03872 0.66344 0.0
H1349 H 0.38959 0.0153 0.68208 0.0
C1350 C 0.33214 0.03182 0.65708 0.0
C1351 C 0.30427 0.04168 0.63952 0.0
C1352 C 0.36041 0.04887 0.65291 0.0
C1353 C 0.3039 0.07111 0.62193 0.0
C1354 C 0.33174 0.08875 0.6186 0.0
C1355 C 0.38945 0.09106 0.62304 0.0
C1356 C 0.41825 0.0765 0.63276 0.0
C1357 C 0.36045 0.07698 0.63234 0.0
C1358 C 0.41789 0.05015 0.65563 0.0
C1359 C 0.38916 0.03666 0.66603 0.0
loop_
_geom_bond_atom_site_label_1
_geom_bond_atom_site_label_2
_geom_bond_distance
_geom_bond_site_symmetry_2
_ccdc_geom_bond_type
O0 Tb1 2.292 . S
O0 C3 1.255 . S
Tb1 O0 2.292 . S
Tb1 O17 2.326 . S
Tb1 O19 2.500 . S
Tb1 O20 2.473 . S
Tb1 O23 2.324 . S
Eu2 O6 2.292 . S
Eu2 C7 2.852 . S
Eu2 O18 2.324 . S
Eu2 O22 2.326 . S
Eu2 O24 2.500 1_545 S
Eu2 O25 2.473 . S
C3 O0 1.255 . S
C3 O4 1.247 . S
O4 C3 1.247 . S
C5 O17 1.242 . S
C5 O18 1.258 . S
O6 Eu2 2.292 . S
O6 C8 1.255 . S
C7 Eu2 2.852 . S
C7 C11 1.503 1_545 S
C7 O24 1.273 1_545 S
C7 O25 1.257 . S
C8 O6 1.255 . S
C8 O9 1.247 . S
O9 C8 1.247 . S
C10 O22 1.242 . S
C10 O23 1.258 . S
C11 C7 1.503 1_565 S
C11 C12 1.379 1_565 S
C11 C16 1.392 . S
C12 C11 1.379 1_545 S
C12 C13 1.404 1_545 S
C12 H26 0.929 . S
C13 C12 1.404 1_565 S
C13 C14 1.389 . S
C14 C13 1.389 . S
C14 C15 1.399 . S
C14 H27 0.931 . S
C15 C14 1.399 . S
C15 C16 1.390 . S
C16 C11 1.392 . S
C16 C15 1.390 . S
C16 H28 0.929 . S
O17 Tb1 2.326 . S
O17 C5 1.242 . S
O18 Eu2 2.324 . S
O18 C5 1.258 . S
O19 Tb1 2.500 . S
O19 C21 1.273 . S
O20 Tb1 2.473 . S
O20 C21 1.257 . S
C21 O19 1.273 . S
C21 O20 1.257 . S
O22 Eu2 2.326 . S
O22 C10 1.242 . S
O23 Tb1 2.324 . S
O23 C10 1.258 . S
O24 Eu2 2.500 1_565 S
O24 C7 1.273 1_565 S
O25 Eu2 2.473 . S
O25 C7 1.257 . S
H26 C12 0.929 . S
H27 C14 0.931 . S
H28 C16 0.929 . S
O29 Tb30 2.292 . S
O29 C32 1.255 . S
Tb30 O29 2.292 . S
Tb30 O46 2.326 . S
Tb30 O48 2.500 . S
Tb30 O49 2.473 . S
Tb30 O52 2.324 . S
Eu31 O35 2.292 . S
Eu31 C36 2.852 . S
Eu31 O47 2.324 . S
Eu31 O51 2.326 . S
Eu31 O53 2.500 . S
Eu31 O54 2.473 . S
C32 O29 1.255 . S
C32 O33 1.247 . S
O33 C32 1.247 . S
C34 O46 1.242 . S
C34 O47 1.258 . S
O35 Eu31 2.292 . S
O35 C37 1.255 . S
C36 Eu31 2.852 . S
C36 C40 1.503 . S
C36 O53 1.273 . S
C36 O54 1.257 . S
C37 O35 1.255 . S
C37 O38 1.247 . S
O38 C37 1.247 . S
C39 O51 1.242 . S
C39 O52 1.258 . S
C40 C36 1.503 . S
C40 C41 1.379 . S
C40 C45 1.392 . S
C41 C40 1.379 . S
C41 C42 1.404 . S
C41 H55 0.929 . S
C42 C41 1.404 . S
C42 C43 1.389 . S
C43 C42 1.389 . S
C43 C44 1.399 . S
C43 H56 0.931 . S
C44 C43 1.399 . S
C44 C45 1.390 . S
C45 C40 1.392 . S
C45 C44 1.390 . S
C45 H57 0.929 . S
O46 Tb30 2.326 . S
O46 C34 1.242 . S
O47 Eu31 2.324 . S
O47 C34 1.258 . S
O48 Tb30 2.500 . S
O48 C50 1.273 . S
O49 Tb30 2.473 . S
O49 C50 1.257 . S
C50 O48 1.273 . S
C50 O49 1.257 . S
O51 Eu31 2.326 . S
O51 C39 1.242 . S
O52 Tb30 2.324 . S
O52 C39 1.258 . S
O53 Eu31 2.500 . S
O53 C36 1.273 . S
O54 Eu31 2.473 . S
O54 C36 1.257 . S
H55 C41 0.929 . S
H56 C43 0.931 . S
H57 C45 0.929 . S
O58 Tb59 2.292 . S
O58 C61 1.255 . S
Tb59 O58 2.292 . S
Tb59 O75 2.326 . S
Tb59 O77 2.500 . S
Tb59 O78 2.473 . S
Tb59 O81 2.324 . S
Eu60 O64 2.292 . S
Eu60 C65 2.852 . S
Eu60 O76 2.324 . S
Eu60 O80 2.326 . S
Eu60 O82 2.500 . S
Eu60 O83 2.473 . S
C61 O58 1.255 . S
C61 O62 1.247 . S
O62 C61 1.247 . S
C63 O75 1.242 . S
C63 O76 1.258 . S
O64 Eu60 2.292 . S
O64 C66 1.255 . S
C65 Eu60 2.852 . S
C65 C69 1.503 . S
C65 O82 1.273 . S
C65 O83 1.257 . S
C66 O64 1.255 . S
C66 O67 1.247 . S
O67 C66 1.247 . S
C68 O80 1.242 . S
C68 O81 1.258 . S
C69 C65 1.503 . S
C69 C70 1.379 . S
C69 C74 1.392 . S
C70 C69 1.379 . S
C70 C71 1.404 . S
C70 H84 0.929 . S
C71 C70 1.404 . S
C71 C72 1.389 . S
C72 C71 1.389 . S
C72 C73 1.399 . S
C72 H85 0.931 . S
C73 C72 1.399 . S
C73 C74 1.390 . S
C74 C69 1.392 . S
C74 C73 1.390 . S
C74 H86 0.929 . S
O75 Tb59 2.326 . S
O75 C63 1.242 . S
O76 Eu60 2.324 . S
O76 C63 1.258 . S
O77 Tb59 2.500 . S
O77 C79 1.273 . S
O78 Tb59 2.473 . S
O78 C79 1.257 . S
C79 O77 1.273 . S
C79 O78 1.257 . S
O80 Eu60 2.326 . S
O80 C68 1.242 . S
O81 Tb59 2.324 . S
O81 C68 1.258 . S
O82 Eu60 2.500 . S
O82 C65 1.273 . S
O83 Eu60 2.473 . S
O83 C65 1.257 . S
H84 C70 0.929 . S
H85 C72 0.931 . S
H86 C74 0.929 . S
O87 Tb88 2.292 . S
O87 C90 1.255 . S
Tb88 O87 2.292 . S
Tb88 O104 2.326 . S
Tb88 O106 2.500 . S
Tb88 O107 2.473 . S
Tb88 O110 2.324 . S
Eu89 O93 2.292 . S
Eu89 C94 2.852 . S
Eu89 O105 2.324 . S
Eu89 O109 2.326 . S
Eu89 O111 2.500 1_455 S
Eu89 O112 2.473 . S
C90 O87 1.255 . S
C90 O91 1.247 . S
O91 C90 1.247 . S
C92 O104 1.242 . S
C92 O105 1.258 . S
O93 Eu89 2.292 . S
O93 C95 1.255 . S
C94 Eu89 2.852 . S
C94 C98 1.503 1_455 S
C94 O111 1.273 1_455 S
C94 O112 1.257 . S
C95 O93 1.255 . S
C95 O96 1.247 . S
O96 C95 1.247 . S
C97 O109 1.242 . S
C97 O110 1.258 . S
C98 C94 1.503 1_655 S
C98 C99 1.379 1_655 S
C98 C103 1.392 . S
C99 C98 1.379 1_455 S
C99 C100 1.404 1_455 S
C99 H113 0.929 . S
C100 C99 1.404 1_655 S
C100 C101 1.389 . S
C101 C100 1.389 . S
C101 C102 1.399 . S
C101 H114 0.931 . S
C102 C101 1.399 . S
C102 C103 1.390 . S
C103 C98 1.392 . S
C103 C102 1.390 . S
C103 H115 0.929 . S
O104 Tb88 2.326 . S
O104 C92 1.242 . S
O105 Eu89 2.324 . S
O105 C92 1.258 . S
O106 Tb88 2.500 . S
O106 C108 1.273 . S
O107 Tb88 2.473 . S
O107 C108 1.257 . S
C108 O106 1.273 . S
C108 O107 1.257 . S
O109 Eu89 2.326 . S
O109 C97 1.242 . S
O110 Tb88 2.324 . S
O110 C97 1.258 . S
O111 Eu89 2.500 1_655 S
O111 C94 1.273 1_655 S
O112 Eu89 2.473 . S
O112 C94 1.257 . S
H113 C99 0.929 . S
H114 C101 0.931 . S
H115 C103 0.929 . S
O116 Tb117 2.292 . S
O116 C119 1.255 . S
Tb117 O116 2.292 . S
Tb117 O133 2.326 . S
Tb117 O135 2.500 . S
Tb117 O136 2.473 . S
Tb117 O139 2.324 . S
Eu118 O122 2.292 . S
Eu118 C123 2.852 . S
Eu118 O134 2.324 . S
Eu118 O138 2.326 . S
Eu118 O140 2.500 . S
Eu118 O141 2.473 . S
C119 O116 1.255 . S
C119 O120 1.247 . S
O120 C119 1.247 . S
C121 O133 1.242 . S
C121 O134 1.258 . S
O122 Eu118 2.292 . S
O122 C124 1.255 . S
C123 Eu118 2.852 . S
C123 C127 1.503 . S
C123 O140 1.273 . S
C123 O141 1.257 . S
C124 O122 1.255 . S
C124 O125 1.247 . S
O125 C124 1.247 . S
C126 O138 1.242 . S
C126 O139 1.258 . S
C127 C123 1.503 . S
C127 C128 1.379 . S
C127 C132 1.392 . S
C128 C127 1.379 . S
C128 C129 1.404 . S
C128 H142 0.929 . S
C129 C128 1.404 . S
C129 C130 1.389 . S
C130 C129 1.389 . S
C130 C131 1.399 . S
C130 H143 0.931 . S
C131 C130 1.399 . S
C131 C132 1.390 . S
C132 C127 1.392 . S
C132 C131 1.390 . S
C132 H144 0.929 . S
O133 Tb117 2.326 . S
O133 C121 1.242 . S
O134 Eu118 2.324 . S
O134 C121 1.258 . S
O135 Tb117 2.500 . S
O135 C137 1.273 . S
O136 Tb117 2.473 . S
O136 C137 1.257 . S
C137 O135 1.273 . S
C137 O136 1.257 . S
O138 Eu118 2.326 . S
O138 C126 1.242 . S
O139 Tb117 2.324 . S
O139 C126 1.258 . S
O140 Eu118 2.500 . S
O140 C123 1.273 . S
O141 Eu118 2.473 . S
O141 C123 1.257 . S
H142 C128 0.929 . S
H143 C130 0.931 . S
H144 C132 0.929 . S
O145 Tb146 2.292 . S
O145 C148 1.255 . S
Tb146 O145 2.292 . S
Tb146 O162 2.326 . S
Tb146 O164 2.500 . S
Tb146 O165 2.473 . S
Tb146 O168 2.324 . S
Eu147 O151 2.292 . S
Eu147 C152 2.852 . S
Eu147 O163 2.324 . S
Eu147 O167 2.326 . S
Eu147 O169 2.500 1_455 S
Eu147 O170 2.473 . S
C148 O145 1.255 . S
C148 O149 1.247 . S
O149 C148 1.247 . S
C150 O162 1.242 . S
C150 O163 1.258 . S
O151 Eu147 2.292 . S
O151 C153 1.255 . S
C152 Eu147 2.852 . S
C152 C156 1.503 1_455 S
C152 O169 1.273 1_455 S
C152 O170 1.257 . S
C153 O151 1.255 . S
C153 O154 1.247 . S
O154 C153 1.247 . S
C155 O167 1.242 . S
C155 O168 1.258 . S
C156 C152 1.503 1_655 S
C156 C157 1.379 1_655 S
C156 C161 1.392 . S
C157 C156 1.379 1_455 S
C157 C158 1.404 1_455 S
C157 H171 0.929 . S
C158 C157 1.404 1_655 S
C158 C159 1.389 . S
C159 C158 1.389 . S
C159 C160 1.399 . S
C159 H172 0.931 . S
C160 C159 1.399 . S
C160 C161 1.390 . S
C161 C156 1.392 . S
C161 C160 1.390 . S
C161 H173 0.929 . S
O162 Tb146 2.326 . S
O162 C150 1.242 . S
O163 Eu147 2.324 . S
O163 C150 1.258 . S
O164 Tb146 2.500 . S
O164 C166 1.273 . S
O165 Tb146 2.473 . S
O165 C166 1.257 . S
C166 O164 1.273 . S
C166 O165 1.257 . S
O167 Eu147 2.326 . S
O167 C155 1.242 . S
O168 Tb146 2.324 . S
O168 C155 1.258 . S
O169 Eu147 2.500 1_655 S
O169 C152 1.273 1_655 S
O170 Eu147 2.473 . S
O170 C152 1.257 . S
H171 C157 0.929 . S
H172 C159 0.931 . S
H173 C161 0.929 . S
O174 Tb175 2.292 . S
O174 C177 1.255 . S
Tb175 O174 2.292 . S
Tb175 O191 2.326 . S
Tb175 O193 2.500 . S
Tb175 O194 2.473 . S
Tb175 O197 2.324 . S
Eu176 O180 2.292 . S
Eu176 C181 2.852 . S
Eu176 O192 2.324 . S
Eu176 O196 2.326 . S
Eu176 O198 2.500 1_545 S
Eu176 O199 2.473 . S
C177 O174 1.255 . S
C177 O178 1.247 . S
O178 C177 1.247 . S
C179 O191 1.242 . S
C179 O192 1.258 . S
O180 Eu176 2.292 . S
O180 C182 1.255 . S
C181 Eu176 2.852 . S
C181 C185 1.503 1_545 S
C181 O198 1.273 1_545 S
C181 O199 1.257 . S
C182 O180 1.255 . S
C182 O183 1.247 . S
O183 C182 1.247 . S
C184 O196 1.242 . S
C184 O197 1.258 . S
C185 C181 1.503 1_565 S
C185 C186 1.379 1_565 S
C185 C190 1.392 . S
C186 C185 1.379 1_545 S
C186 C187 1.404 1_545 S
C186 H200 0.929 . S
C187 C186 1.404 1_565 S
C187 C188 1.389 . S
C188 C187 1.389 . S
C188 C189 1.399 . S
C188 H201 0.931 . S
C189 C188 1.399 . S
C189 C190 1.390 . S
C190 C185 1.392 . S
C190 C189 1.390 . S
C190 H202 0.929 . S
O191 Tb175 2.326 . S
O191 C179 1.242 . S
O192 Eu176 2.324 . S
O192 C179 1.258 . S
O193 Tb175 2.500 . S
O193 C195 1.273 . S
O194 Tb175 2.473 . S
O194 C195 1.257 . S
C195 O193 1.273 . S
C195 O194 1.257 . S
O196 Eu176 2.326 . S
O196 C184 1.242 . S
O197 Tb175 2.324 . S
O197 C184 1.258 . S
O198 Eu176 2.500 1_565 S
O198 C181 1.273 1_565 S
O199 Eu176 2.473 . S
O199 C181 1.257 . S
H200 C186 0.929 . S
H201 C188 0.931 . S
H202 C190 0.929 . S
O203 Tb204 2.292 . S
O203 C206 1.255 . S
Tb204 O203 2.292 . S
Tb204 O220 2.326 . S
Tb204 O222 2.500 . S
Tb204 O223 2.473 . S
Tb204 O226 2.324 . S
Eu205 O209 2.292 . S
Eu205 C210 2.852 . S
Eu205 O221 2.324 . S
Eu205 O225 2.326 . S
Eu205 O227 2.500 . S
Eu205 O228 2.473 . S
C206 O203 1.255 . S
C206 O207 1.247 . S
O207 C206 1.247 . S
C208 O220 1.242 . S
C208 O221 1.258 . S
O209 Eu205 2.292 . S
O209 C211 1.255 . S
C210 Eu205 2.852 . S
C210 C214 1.503 . S
C210 O227 1.273 . S
C210 O228 1.257 . S
C211 O209 1.255 . S
C211 O212 1.247 . S
O212 C211 1.247 . S
C213 O225 1.242 . S
C213 O226 1.258 . S
C214 C210 1.503 . S
C214 C215 1.379 . S
C214 C219 1.392 . S
C215 C214 1.379 . S
C215 C216 1.404 . S
C215 H229 0.929 . S
C216 C215 1.404 . S
C216 C217 1.389 . S
C217 C216 1.389 . S
C217 C218 1.399 . S
C217 H230 0.931 . S
C218 C217 1.399 . S
C218 C219 1.390 . S
C219 C214 1.392 . S
C219 C218 1.390 . S
C219 H231 0.929 . S
O220 Tb204 2.326 . S
O220 C208 1.242 . S
O221 Eu205 2.324 . S
O221 C208 1.258 . S
O222 Tb204 2.500 . S
O222 C224 1.273 . S
O223 Tb204 2.473 . S
O223 C224 1.257 . S
C224 O222 1.273 . S
C224 O223 1.257 . S
O225 Eu205 2.326 . S
O225 C213 1.242 . S
O226 Tb204 2.324 . S
O226 C213 1.258 . S
O227 Eu205 2.500 . S
O227 C210 1.273 . S
O228 Eu205 2.473 . S
O228 C210 1.257 . S
H229 C215 0.929 . S
H230 C217 0.931 . S
H231 C219 0.929 . S
O232 Tb233 2.292 . S
O232 C235 1.255 . S
Tb233 O232 2.292 . S
Tb233 O249 2.326 . S
Tb233 O251 2.500 . S
Tb233 O252 2.473 . S
Tb233 O255 2.324 . S
Eu234 O238 2.292 . S
Eu234 C239 2.852 . S
Eu234 O250 2.324 . S
Eu234 O254 2.326 . S
Eu234 O256 2.500 1_565 S
Eu234 O257 2.473 . S
C235 O232 1.255 . S
C235 O236 1.247 . S
O236 C235 1.247 . S
C237 O249 1.242 . S
C237 O250 1.258 . S
O238 Eu234 2.292 . S
O238 C240 1.255 . S
C239 Eu234 2.852 . S
C239 C243 1.503 1_565 S
C239 O256 1.273 1_565 S
C239 O257 1.257 . S
C240 O238 1.255 . S
C240 O241 1.247 . S
O241 C240 1.247 . S
C242 O254 1.242 . S
C242 O255 1.258 . S
C243 C239 1.503 1_545 S
C243 C244 1.379 1_545 S
C243 C248 1.392 . S
C244 C243 1.379 1_565 S
C244 C245 1.404 1_565 S
C244 H258 0.929 . S
C245 C244 1.404 1_545 S
C245 C246 1.389 . S
C246 C245 1.389 . S
C246 C247 1.399 . S
C246 H259 0.931 . S
C247 C246 1.399 . S
C247 C248 1.390 . S
C248 C243 1.392 . S
C248 C247 1.390 . S
C248 H260 0.929 . S
O249 Tb233 2.326 . S
O249 C237 1.242 . S
O250 Eu234 2.324 . S
O250 C237 1.258 . S
O251 Tb233 2.500 . S
O251 C253 1.273 . S
O252 Tb233 2.473 . S
O252 C253 1.257 . S
C253 O251 1.273 . S
C253 O252 1.257 . S
O254 Eu234 2.326 . S
O254 C242 1.242 . S
O255 Tb233 2.324 . S
O255 C242 1.258 . S
O256 Eu234 2.500 1_545 S
O256 C239 1.273 1_545 S
O257 Eu234 2.473 . S
O257 C239 1.257 . S
H258 C244 0.929 . S
H259 C246 0.931 . S
H260 C248 0.929 . S
O261 Tb262 2.292 . S
O261 C264 1.255 . S
Tb262 O261 2.292 . S
Tb262 O278 2.326 . S
Tb262 O280 2.500 . S
Tb262 O281 2.473 . S
Tb262 O284 2.324 . S
Eu263 O267 2.292 . S
Eu263 C268 2.852 . S
Eu263 O279 2.324 . S
Eu263 O283 2.326 . S
Eu263 O285 2.500 . S
Eu263 O286 2.473 . S
C264 O261 1.255 . S
C264 O265 1.247 . S
O265 C264 1.247 . S
C266 O278 1.242 . S
C266 O279 1.258 . S
O267 Eu263 2.292 . S
O267 C269 1.255 . S
C268 Eu263 2.852 . S
C268 C272 1.503 . S
C268 O285 1.273 . S
C268 O286 1.257 . S
C269 O267 1.255 . S
C269 O270 1.247 . S
O270 C269 1.247 . S
C271 O283 1.242 . S
C271 O284 1.258 . S
C272 C268 1.503 . S
C272 C273 1.379 . S
C272 C277 1.392 . S
C273 C272 1.379 . S
C273 C274 1.404 . S
C273 H287 0.929 . S
C274 C273 1.404 . S
C274 C275 1.389 . S
C275 C274 1.389 . S
C275 C276 1.399 . S
C275 H288 0.931 . S
C276 C275 1.399 . S
C276 C277 1.390 . S
C277 C272 1.392 . S
C277 C276 1.390 . S
C277 H289 0.929 . S
O278 Tb262 2.326 . S
O278 C266 1.242 . S
O279 Eu263 2.324 . S
O279 C266 1.258 . S
O280 Tb262 2.500 . S
O280 C282 1.273 . S
O281 Tb262 2.473 . S
O281 C282 1.257 . S
C282 O280 1.273 . S
C282 O281 1.257 . S
O283 Eu263 2.326 . S
O283 C271 1.242 . S
O284 Tb262 2.324 . S
O284 C271 1.258 . S
O285 Eu263 2.500 . S
O285 C268 1.273 . S
O286 Eu263 2.473 . S
O286 C268 1.257 . S
H287 C273 0.929 . S
H288 C275 0.931 . S
H289 C277 0.929 . S
O290 Tb291 2.292 . S
O290 C293 1.255 . S
Tb291 O290 2.292 . S
Tb291 O307 2.326 . S
Tb291 O309 2.500 . S
Tb291 O310 2.473 . S
Tb291 O313 2.324 . S
Eu292 O296 2.292 . S
Eu292 C297 2.852 . S
Eu292 O308 2.324 . S
Eu292 O312 2.326 . S
Eu292 O314 2.500 . S
Eu292 O315 2.473 . S
C293 O290 1.255 . S
C293 O294 1.247 . S
O294 C293 1.247 . S
C295 O307 1.242 . S
C295 O308 1.258 . S
O296 Eu292 2.292 . S
O296 C298 1.255 . S
C297 Eu292 2.852 . S
C297 C301 1.503 . S
C297 O314 1.273 . S
C297 O315 1.257 . S
C298 O296 1.255 . S
C298 O299 1.247 . S
O299 C298 1.247 . S
C300 O312 1.242 . S
C300 O313 1.258 . S
C301 C297 1.503 . S
C301 C302 1.379 . S
C301 C306 1.392 . S
C302 C301 1.379 . S
C302 C303 1.404 . S
C302 H316 0.929 . S
C303 C302 1.404 . S
C303 C304 1.389 . S
C304 C303 1.389 . S
C304 C305 1.399 . S
C304 H317 0.931 . S
C305 C304 1.399 . S
C305 C306 1.390 . S
C306 C301 1.392 . S
C306 C305 1.390 . S
C306 H318 0.929 . S
O307 Tb291 2.326 . S
O307 C295 1.242 . S
O308 Eu292 2.324 . S
O308 C295 1.258 . S
O309 Tb291 2.500 . S
O309 C311 1.273 . S
O310 Tb291 2.473 . S
O310 C311 1.257 . S
C311 O309 1.273 . S
C311 O310 1.257 . S
O312 Eu292 2.326 . S
O312 C300 1.242 . S
O313 Tb291 2.324 . S
O313 C300 1.258 . S
O314 Eu292 2.500 . S
O314 C297 1.273 . S
O315 Eu292 2.473 . S
O315 C297 1.257 . S
H316 C302 0.929 . S
H317 C304 0.931 . S
H318 C306 0.929 . S
O319 Tb320 2.292 . S
O319 C322 1.255 . S
Tb320 O319 2.292 . S
Tb320 O336 2.326 . S
Tb320 O338 2.500 . S
Tb320 O339 2.473 . S
Tb320 O342 2.324 . S
Eu321 O325 2.292 . S
Eu321 C326 2.852 . S
Eu321 O337 2.324 . S
Eu321 O341 2.326 . S
Eu321 O343 2.500 1_655 S
Eu321 O344 2.473 . S
C322 O319 1.255 . S
C322 O323 1.247 . S
O323 C322 1.247 . S
C324 O336 1.242 . S
C324 O337 1.258 . S
O325 Eu321 2.292 . S
O325 C327 1.255 . S
C326 Eu321 2.852 . S
C326 C330 1.503 1_655 S
C326 O343 1.273 1_655 S
C326 O344 1.257 . S
C327 O325 1.255 . S
C327 O328 1.247 . S
O328 C327 1.247 . S
C329 O341 1.242 . S
C329 O342 1.258 . S
C330 C326 1.503 1_455 S
C330 C331 1.379 1_455 S
C330 C335 1.392 . S
C331 C330 1.379 1_655 S
C331 C332 1.404 1_655 S
C331 H345 0.929 . S
C332 C331 1.404 1_455 S
C332 C333 1.389 . S
C333 C332 1.389 . S
C333 C334 1.399 . S
C333 H346 0.931 . S
C334 C333 1.399 . S
C334 C335 1.390 . S
C335 C330 1.392 . S
C335 C334 1.390 . S
C335 H347 0.929 . S
O336 Tb320 2.326 . S
O336 C324 1.242 . S
O337 Eu321 2.324 . S
O337 C324 1.258 . S
O338 Tb320 2.500 . S
O338 C340 1.273 . S
O339 Tb320 2.473 . S
O339 C340 1.257 . S
C340 O338 1.273 . S
C340 O339 1.257 . S
O341 Eu321 2.326 . S
O341 C329 1.242 . S
O342 Tb320 2.324 . S
O342 C329 1.258 . S
O343 Eu321 2.500 1_455 S
O343 C326 1.273 1_455 S
O344 Eu321 2.473 . S
O344 C326 1.257 . S
H345 C331 0.929 . S
H346 C333 0.931 . S
H347 C335 0.929 . S
O348 Tb349 2.292 . S
O348 C351 1.255 . S
Tb349 O348 2.292 . S
Tb349 O365 2.326 . S
Tb349 O367 2.500 . S
Tb349 O368 2.473 . S
Tb349 O371 2.324 . S
Eu350 O354 2.292 . S
Eu350 C355 2.852 . S
Eu350 O366 2.324 . S
Eu350 O370 2.326 . S
Eu350 O372 2.500 . S
Eu350 O373 2.473 . S
C351 O348 1.255 . S
C351 O352 1.247 . S
O352 C351 1.247 . S
C353 O365 1.242 . S
C353 O366 1.258 . S
O354 Eu350 2.292 . S
O354 C356 1.255 . S
C355 Eu350 2.852 . S
C355 C359 1.503 . S
C355 O372 1.273 . S
C355 O373 1.257 . S
C356 O354 1.255 . S
C356 O357 1.247 . S
O357 C356 1.247 . S
C358 O370 1.242 . S
C358 O371 1.258 . S
C359 C355 1.503 . S
C359 C360 1.379 . S
C359 C364 1.392 . S
C360 C359 1.379 . S
C360 C361 1.404 . S
C360 H374 0.929 . S
C361 C360 1.404 . S
C361 C362 1.389 . S
C362 C361 1.389 . S
C362 C363 1.399 . S
C362 H375 0.931 . S
C363 C362 1.399 . S
C363 C364 1.390 . S
C364 C359 1.392 . S
C364 C363 1.390 . S
C364 H376 0.929 . S
O365 Tb349 2.326 . S
O365 C353 1.242 . S
O366 Eu350 2.324 . S
O366 C353 1.258 . S
O367 Tb349 2.500 . S
O367 C369 1.273 . S
O368 Tb349 2.473 . S
O368 C369 1.257 . S
C369 O367 1.273 . S
C369 O368 1.257 . S
O370 Eu350 2.326 . S
O370 C358 1.242 . S
O371 Tb349 2.324 . S
O371 C358 1.258 . S
O372 Eu350 2.500 . S
O372 C355 1.273 . S
O373 Eu350 2.473 . S
O373 C355 1.257 . S
H374 C360 0.929 . S
H375 C362 0.931 . S
H376 C364 0.929 . S
O377 Tb378 2.292 . S
O377 C380 1.255 . S
Tb378 O377 2.292 . S
Tb378 O394 2.326 . S
Tb378 O396 2.500 . S
Tb378 O397 2.473 . S
Tb378 O400 2.324 . S
Eu379 O383 2.292 . S
Eu379 C384 2.852 . S
Eu379 O395 2.324 . S
Eu379 O399 2.326 . S
Eu379 O401 2.500 1_655 S
Eu379 O402 2.473 . S
C380 O377 1.255 . S
C380 O381 1.247 . S
O381 C380 1.247 . S
C382 O394 1.242 . S
C382 O395 1.258 . S
O383 Eu379 2.292 . S
O383 C385 1.255 . S
C384 Eu379 2.852 . S
C384 C388 1.503 1_655 S
C384 O401 1.273 1_655 S
C384 O402 1.257 . S
C385 O383 1.255 . S
C385 O386 1.247 . S
O386 C385 1.247 . S
C387 O399 1.242 . S
C387 O400 1.258 . S
C388 C384 1.503 1_455 S
C388 C389 1.379 1_455 S
C388 C393 1.392 . S
C389 C388 1.379 1_655 S
C389 C390 1.404 1_655 S
C389 H403 0.929 . S
C390 C389 1.404 1_455 S
C390 C391 1.389 . S
C391 C390 1.389 . S
C391 C392 1.399 . S
C391 H404 0.931 . S
C392 C391 1.399 . S
C392 C393 1.390 . S
C393 C388 1.392 . S
C393 C392 1.390 . S
C393 H405 0.929 . S
O394 Tb378 2.326 . S
O394 C382 1.242 . S
O395 Eu379 2.324 . S
O395 C382 1.258 . S
O396 Tb378 2.500 . S
O396 C398 1.273 . S
O397 Tb378 2.473 . S
O397 C398 1.257 . S
C398 O396 1.273 . S
C398 O397 1.257 . S
O399 Eu379 2.326 . S
O399 C387 1.242 . S
O400 Tb378 2.324 . S
O400 C387 1.258 . S
O401 Eu379 2.500 1_455 S
O401 C384 1.273 1_455 S
O402 Eu379 2.473 . S
O402 C384 1.257 . S
H403 C389 0.929 . S
H404 C391 0.931 . S
H405 C393 0.929 . S
O406 Tb407 2.292 . S
O406 C409 1.255 . S
Tb407 O406 2.292 . S
Tb407 O423 2.326 . S
Tb407 O425 2.500 . S
Tb407 O426 2.473 . S
Tb407 O429 2.324 . S
Eu408 O412 2.292 . S
Eu408 C413 2.852 . S
Eu408 O424 2.324 . S
Eu408 O428 2.326 . S
Eu408 O430 2.500 1_565 S
Eu408 O431 2.473 . S
C409 O406 1.255 . S
C409 O410 1.247 . S
O410 C409 1.247 . S
C411 O423 1.242 . S
C411 O424 1.258 . S
O412 Eu408 2.292 . S
O412 C414 1.255 . S
C413 Eu408 2.852 . S
C413 C417 1.503 1_565 S
C413 O430 1.273 1_565 S
C413 O431 1.257 . S
C414 O412 1.255 . S
C414 O415 1.247 . S
O415 C414 1.247 . S
C416 O428 1.242 . S
C416 O429 1.258 . S
C417 C413 1.503 1_545 S
C417 C418 1.379 1_545 S
C417 C422 1.392 . S
C418 C417 1.379 1_565 S
C418 C419 1.404 1_565 S
C418 H432 0.929 . S
C419 C418 1.404 1_545 S
C419 C420 1.389 . S
C420 C419 1.389 . S
C420 C421 1.399 . S
C420 H433 0.931 . S
C421 C420 1.399 . S
C421 C422 1.390 . S
C422 C417 1.392 . S
C422 C421 1.390 . S
C422 H434 0.929 . S
O423 Tb407 2.326 . S
O423 C411 1.242 . S
O424 Eu408 2.324 . S
O424 C411 1.258 . S
O425 Tb407 2.500 . S
O425 C427 1.273 . S
O426 Tb407 2.473 . S
O426 C427 1.257 . S
C427 O425 1.273 . S
C427 O426 1.257 . S
O428 Eu408 2.326 . S
O428 C416 1.242 . S
O429 Tb407 2.324 . S
O429 C416 1.258 . S
O430 Eu408 2.500 1_545 S
O430 C413 1.273 1_545 S
O431 Eu408 2.473 . S
O431 C413 1.257 . S
H432 C418 0.929 . S
H433 C420 0.931 . S
H434 C422 0.929 . S
O435 Tb436 2.292 . S
O435 C438 1.255 . S
Tb436 O435 2.292 . S
Tb436 O452 2.326 . S
Tb436 O454 2.500 . S
Tb436 O455 2.473 . S
Tb436 O458 2.324 . S
Eu437 O441 2.292 . S
Eu437 C442 2.852 . S
Eu437 O453 2.324 . S
Eu437 O457 2.326 . S
Eu437 O459 2.500 . S
Eu437 O460 2.473 . S
C438 O435 1.255 . S
C438 O439 1.247 . S
O439 C438 1.247 . S
C440 O452 1.242 . S
C440 O453 1.258 . S
O441 Eu437 2.292 . S
O441 C443 1.255 . S
C442 Eu437 2.852 . S
C442 C446 1.503 . S
C442 O459 1.273 . S
C442 O460 1.257 . S
C443 O441 1.255 . S
C443 O444 1.247 . S
O444 C443 1.247 . S
C445 O457 1.242 . S
C445 O458 1.258 . S
C446 C442 1.503 . S
C446 C447 1.379 . S
C446 C451 1.392 . S
C447 C446 1.379 . S
C447 C448 1.404 . S
C447 H461 0.929 . S
C448 C447 1.404 . S
C448 C449 1.389 . S
C449 C448 1.389 . S
C449 C450 1.399 . S
C449 H462 0.931 . S
C450 C449 1.399 . S
C450 C451 1.390 . S
C451 C446 1.392 . S
C451 C450 1.390 . S
C451 H463 0.929 . S
O452 Tb436 2.326 . S
O452 C440 1.242 . S
O453 Eu437 2.324 . S
O453 C440 1.258 . S
O454 Tb436 2.500 . S
O454 C456 1.273 . S
O455 Tb436 2.473 . S
O455 C456 1.257 . S
C456 O454 1.273 . S
C456 O455 1.257 . S
O457 Eu437 2.326 . S
O457 C445 1.242 . S
O458 Tb436 2.324 . S
O458 C445 1.258 . S
O459 Eu437 2.500 . S
O459 C442 1.273 . S
O460 Eu437 2.473 . S
O460 C442 1.257 . S
H461 C447 0.929 . S
H462 C449 0.931 . S
H463 C451 0.929 . S
H464 C470 0.930 . S
H465 C473 0.930 . S
H466 C474 0.930 . S
H467 C475 0.930 . S
H468 C478 0.930 . S
H469 C479 0.930 . S
C470 H464 0.930 . S
C470 C471 1.355 . S
C470 C472 1.415 . S
C471 C470 1.355 . S
C471 C473 1.419 . S
C472 C470 1.415 . S
C472 C477 1.425 . S
C472 C479 1.409 . S
C473 H465 0.930 . S
C473 C471 1.419 . S
C473 C474 1.362 . S
C474 H466 0.930 . S
C474 C473 1.362 . S
C474 C477 1.409 . S
C475 H467 0.930 . S
C475 C476 1.355 . S
C475 C477 1.415 . S
C476 C475 1.355 . S
C476 C478 1.419 . S
C477 C472 1.425 . S
C477 C474 1.409 . S
C477 C475 1.415 . S
C478 H468 0.930 . S
C478 C476 1.419 . S
C478 C479 1.362 . S
C479 H469 0.930 . S
C479 C472 1.409 . S
C479 C478 1.362 . S
H480 C486 0.930 . S
H481 C489 0.930 . S
H482 C490 0.930 . S
H483 C491 0.930 . S
H484 C494 0.930 . S
H485 C495 0.930 . S
C486 H480 0.930 . S
C486 C487 1.355 . S
C486 C488 1.415 . S
C487 C486 1.355 . S
C487 C489 1.419 . S
C488 C486 1.415 . S
C488 C493 1.425 . S
C488 C495 1.409 . S
C489 H481 0.930 . S
C489 C487 1.419 . S
C489 C490 1.362 . S
C490 H482 0.930 . S
C490 C489 1.362 . S
C490 C493 1.409 . S
C491 H483 0.930 . S
C491 C492 1.355 . S
C491 C493 1.415 . S
C492 C491 1.355 . S
C492 C494 1.419 . S
C493 C488 1.425 . S
C493 C490 1.409 . S
C493 C491 1.415 . S
C494 H484 0.930 . S
C494 C492 1.419 . S
C494 C495 1.362 . S
C495 H485 0.930 . S
C495 C488 1.409 . S
C495 C494 1.362 . S
H496 C502 0.930 . S
H497 C505 0.930 . S
H498 C506 0.930 . S
H499 C507 0.930 . S
H500 C510 0.930 . S
H501 C511 0.930 . S
C502 H496 0.930 . S
C502 C503 1.355 . S
C502 C504 1.415 . S
C503 C502 1.355 . S
C503 C505 1.419 . S
C504 C502 1.415 . S
C504 C509 1.425 . S
C504 C511 1.409 . S
C505 H497 0.930 . S
C505 C503 1.419 . S
C505 C506 1.362 . S
C506 H498 0.930 . S
C506 C505 1.362 . S
C506 C509 1.409 . S
C507 H499 0.930 . S
C507 C508 1.355 . S
C507 C509 1.415 . S
C508 C507 1.355 . S
C508 C510 1.419 . S
C509 C504 1.425 . S
C509 C506 1.409 . S
C509 C507 1.415 . S
C510 H500 0.930 . S
C510 C508 1.419 . S
C510 C511 1.362 . S
C511 H501 0.930 . S
C511 C504 1.409 . S
C511 C510 1.362 . S
H512 C518 0.930 . S
H513 C521 0.930 . S
H514 C522 0.930 . S
H515 C523 0.930 . S
H516 C526 0.930 . S
H517 C527 0.930 . S
C518 H512 0.930 . S
C518 C519 1.355 . S
C518 C520 1.415 . S
C519 C518 1.355 . S
C519 C521 1.419 . S
C520 C518 1.415 . S
C520 C525 1.425 . S
C520 C527 1.409 . S
C521 H513 0.930 . S
C521 C519 1.419 . S
C521 C522 1.362 . S
C522 H514 0.930 . S
C522 C521 1.362 . S
C522 C525 1.409 . S
C523 H515 0.930 . S
C523 C524 1.355 . S
C523 C525 1.415 . S
C524 C523 1.355 . S
C524 C526 1.419 . S
C525 C520 1.425 . S
C525 C522 1.409 . S
C525 C523 1.415 . S
C526 H516 0.930 . S
C526 C524 1.419 . S
C526 C527 1.362 . S
C527 H517 0.930 . S
C527 C520 1.409 . S
C527 C526 1.362 . S
H528 C534 0.930 . S
H529 C537 0.930 . S
H530 C538 0.930 . S
H531 C539 0.930 . S
H532 C542 0.930 . S
H533 C543 0.930 . S
C534 H528 0.930 . S
C534 C535 1.355 . S
C534 C536 1.415 . S
C535 C534 1.355 . S
C535 C537 1.419 . S
C536 C534 1.415 . S
C536 C541 1.425 . S
C536 C543 1.409 . S
C537 H529 0.930 . S
C537 C535 1.419 . S
C537 C538 1.362 . S
C538 H530 0.930 . S
C538 C537 1.362 . S
C538 C541 1.409 . S
C539 H531 0.930 . S
C539 C540 1.355 . S
C539 C541 1.415 . S
C540 C539 1.355 . S
C540 C542 1.419 . S
C541 C536 1.425 . S
C541 C538 1.409 . S
C541 C539 1.415 . S
C542 H532 0.930 . S
C542 C540 1.419 . S
C542 C543 1.362 . S
C543 H533 0.930 . S
C543 C536 1.409 . S
C543 C542 1.362 . S
H544 C550 0.930 . S
H545 C553 0.930 . S
H546 C554 0.930 . S
H547 C555 0.930 . S
H548 C558 0.930 . S
H549 C559 0.930 . S
C550 H544 0.930 . S
C550 C551 1.355 . S
C550 C552 1.415 . S
C551 C550 1.355 . S
C551 C553 1.419 . S
C552 C550 1.415 . S
C552 C557 1.425 . S
C552 C559 1.409 . S
C553 H545 0.930 . S
C553 C551 1.419 . S
C553 C554 1.362 . S
C554 H546 0.930 . S
C554 C553 1.362 . S
C554 C557 1.409 . S
C555 H547 0.930 . S
C555 C556 1.355 . S
C555 C557 1.415 . S
C556 C555 1.355 . S
C556 C558 1.419 . S
C557 C552 1.425 . S
C557 C554 1.409 . S
C557 C555 1.415 . S
C558 H548 0.930 . S
C558 C556 1.419 . S
C558 C559 1.362 . S
C559 H549 0.930 . S
C559 C552 1.409 . S
C559 C558 1.362 . S
H560 C566 0.930 . S
H561 C569 0.930 . S
H562 C570 0.930 . S
H563 C571 0.930 . S
H564 C574 0.930 . S
H565 C575 0.930 . S
C566 H560 0.930 . S
C566 C567 1.355 . S
C566 C568 1.415 . S
C567 C566 1.355 . S
C567 C569 1.419 . S
C568 C566 1.415 . S
C568 C573 1.425 . S
C568 C575 1.409 . S
C569 H561 0.930 . S
C569 C567 1.419 . S
C569 C570 1.362 . S
C570 H562 0.930 . S
C570 C569 1.362 . S
C570 C573 1.409 . S
C571 H563 0.930 . S
C571 C572 1.355 . S
C571 C573 1.415 . S
C572 C571 1.355 . S
C572 C574 1.419 . S
C573 C568 1.425 . S
C573 C570 1.409 . S
C573 C571 1.415 . S
C574 H564 0.930 . S
C574 C572 1.419 . S
C574 C575 1.362 . S
C575 H565 0.930 . S
C575 C568 1.409 . S
C575 C574 1.362 . S
H576 C582 0.930 . S
H577 C585 0.930 . S
H578 C586 0.930 . S
H579 C587 0.930 . S
H580 C590 0.930 . S
H581 C591 0.930 . S
C582 H576 0.930 . S
C582 C583 1.355 . S
C582 C584 1.415 . S
C583 C582 1.355 . S
C583 C585 1.419 . S
C584 C582 1.415 . S
C584 C589 1.425 . S
C584 C591 1.409 . S
C585 H577 0.930 . S
C585 C583 1.419 . S
C585 C586 1.362 . S
C586 H578 0.930 . S
C586 C585 1.362 . S
C586 C589 1.409 . S
C587 H579 0.930 . S
C587 C588 1.355 . S
C587 C589 1.415 . S
C588 C587 1.355 . S
C588 C590 1.419 . S
C589 C584 1.425 . S
C589 C586 1.409 . S
C589 C587 1.415 . S
C590 H580 0.930 . S
C590 C588 1.419 . S
C590 C591 1.362 . S
C591 H581 0.930 . S
C591 C584 1.409 . S
C591 C590 1.362 . S
H592 C598 0.930 . S
H593 C601 0.930 . S
H594 C602 0.930 . S
H595 C603 0.930 1_554 S
H596 C606 0.930 . S
H597 C607 0.930 . S
C598 H592 0.930 . S
C598 C599 1.355 . S
C598 C600 1.415 1_554 S
C599 C598 1.355 . S
C599 C601 1.419 . S
C600 C598 1.415 1_556 S
C600 C605 1.425 1_556 S
C600 C607 1.409 . S
C601 H593 0.930 . S
C601 C599 1.419 . S
C601 C602 1.362 . S
C602 H594 0.930 . S
C602 C601 1.362 . S
C602 C605 1.409 . S
C603 H595 0.930 1_556 S
C603 C604 1.355 . S
C603 C605 1.415 1_556 S
C604 C603 1.355 . S
C604 C606 1.419 . S
C605 C600 1.425 1_554 S
C605 C602 1.409 . S
C605 C603 1.415 1_554 S
C606 H596 0.930 . S
C606 C604 1.419 . S
C606 C607 1.362 . S
C607 H597 0.930 . S
C607 C600 1.409 . S
C607 C606 1.362 . S
H608 C614 0.930 . S
H609 C617 0.930 . S
H610 C618 0.930 . S
H611 C619 0.930 . S
H612 C622 0.930 . S
H613 C623 0.930 . S
C614 H608 0.930 . S
C614 C615 1.355 . S
C614 C616 1.415 1_556 S
C615 C614 1.355 . S
C615 C617 1.419 . S
C616 C614 1.415 1_554 S
C616 C621 1.425 . S
C616 C623 1.409 . S
C617 H609 0.930 . S
C617 C615 1.419 . S
C617 C618 1.362 . S
C618 H610 0.930 . S
C618 C617 1.362 . S
C618 C621 1.409 1_556 S
C619 H611 0.930 . S
C619 C620 1.355 . S
C619 C621 1.415 . S
C620 C619 1.355 . S
C620 C622 1.419 . S
C621 C616 1.425 . S
C621 C618 1.409 1_554 S
C621 C619 1.415 . S
C622 H612 0.930 . S
C622 C620 1.419 . S
C622 C623 1.362 . S
C623 H613 0.930 . S
C623 C616 1.409 . S
C623 C622 1.362 . S
H624 C630 0.930 . S
H625 C633 0.930 . S
H626 C634 0.930 . S
H627 C635 0.930 . S
H628 C638 0.930 . S
H629 C639 0.930 . S
C630 H624 0.930 . S
C630 C631 1.355 . S
C630 C632 1.415 . S
C631 C630 1.355 . S
C631 C633 1.419 . S
C632 C630 1.415 . S
C632 C637 1.425 . S
C632 C639 1.409 1_554 S
C633 H625 0.930 . S
C633 C631 1.419 . S
C633 C634 1.362 . S
C634 H626 0.930 . S
C634 C633 1.362 . S
C634 C637 1.409 . S
C635 H627 0.930 . S
C635 C636 1.355 . S
C635 C637 1.415 1_556 S
C636 C635 1.355 . S
C636 C638 1.419 . S
C637 C632 1.425 . S
C637 C634 1.409 . S
C637 C635 1.415 1_554 S
C638 H628 0.930 . S
C638 C636 1.419 . S
C638 C639 1.362 . S
C639 H629 0.930 . S
C639 C632 1.409 1_556 S
C639 C638 1.362 . S
H640 C646 0.930 1_554 S
H641 C649 0.930 . S
H642 C650 0.930 . S
H643 C651 0.930 . S
H644 C654 0.930 . S
H645 C655 0.930 . S
C646 H640 0.930 1_556 S
C646 C647 1.355 . S
C646 C648 1.415 1_556 S
C647 C646 1.355 . S
C647 C649 1.419 . S
C648 C646 1.415 1_554 S
C648 C653 1.425 1_554 S
C648 C655 1.409 . S
C649 H641 0.930 . S
C649 C647 1.419 . S
C649 C650 1.362 . S
C650 H642 0.930 . S
C650 C649 1.362 . S
C650 C653 1.409 . S
C651 H643 0.930 . S
C651 C652 1.355 . S
C651 C653 1.415 1_554 S
C652 C651 1.355 . S
C652 C654 1.419 . S
C653 C648 1.425 1_556 S
C653 C650 1.409 . S
C653 C651 1.415 1_556 S
C654 H644 0.930 . S
C654 C652 1.419 . S
C654 C655 1.362 . S
C655 H645 0.930 . S
C655 C648 1.409 . S
C655 C654 1.362 . S
H656 C662 0.930 . S
H657 C665 0.930 . S
H658 C666 0.930 . S
H659 C667 0.930 . S
H660 C670 0.930 . S
H661 C671 0.930 . S
C662 H656 0.930 . S
C662 C663 1.355 . S
C662 C664 1.415 . S
C663 C662 1.355 . S
C663 C665 1.419 . S
C664 C662 1.415 . S
C664 C669 1.425 . S
C664 C671 1.409 . S
C665 H657 0.930 . S
C665 C663 1.419 . S
C665 C666 1.362 . S
C666 H658 0.930 . S
C666 C665 1.362 . S
C666 C669 1.409 . S
C667 H659 0.930 . S
C667 C668 1.355 . S
C667 C669 1.415 . S
C668 C667 1.355 . S
C668 C670 1.419 . S
C669 C664 1.425 . S
C669 C666 1.409 . S
C669 C667 1.415 . S
C670 H660 0.930 . S
C670 C668 1.419 . S
C670 C671 1.362 . S
C671 H661 0.930 . S
C671 C664 1.409 . S
C671 C670 1.362 . S
H672 C678 0.930 . S
H673 C681 0.930 . S
H674 C682 0.930 . S
H675 C683 0.930 . S
H676 C686 0.930 . S
H677 C687 0.930 . S
C678 H672 0.930 . S
C678 C679 1.355 . S
C678 C680 1.415 . S
C679 C678 1.355 . S
C679 C681 1.419 . S
C680 C678 1.415 . S
C680 C685 1.425 . S
C680 C687 1.409 . S
C681 H673 0.930 . S
C681 C679 1.419 . S
C681 C682 1.362 . S
C682 H674 0.930 . S
C682 C681 1.362 . S
C682 C685 1.409 . S
C683 H675 0.930 . S
C683 C684 1.355 . S
C683 C685 1.415 . S
C684 C683 1.355 . S
C684 C686 1.419 . S
C685 C680 1.425 . S
C685 C682 1.409 . S
C685 C683 1.415 . S
C686 H676 0.930 . S
C686 C684 1.419 . S
C686 C687 1.362 . S
C687 H677 0.930 . S
C687 C680 1.409 . S
C687 C686 1.362 . S
H688 C694 0.930 . S
H689 C697 0.930 . S
H690 C698 0.930 . S
H691 C699 0.930 . S
H692 C702 0.930 . S
H693 C703 0.930 . S
C694 H688 0.930 . S
C694 C695 1.355 . S
C694 C696 1.415 . S
C695 C694 1.355 . S
C695 C697 1.419 . S
C696 C694 1.415 . S
C696 C701 1.425 . S
C696 C703 1.409 . S
C697 H689 0.930 . S
C697 C695 1.419 . S
C697 C698 1.362 . S
C698 H690 0.930 . S
C698 C697 1.362 . S
C698 C701 1.409 . S
C699 H691 0.930 . S
C699 C700 1.355 . S
C699 C701 1.415 . S
C700 C699 1.355 . S
C700 C702 1.419 . S
C701 C696 1.425 . S
C701 C698 1.409 . S
C701 C699 1.415 . S
C702 H692 0.930 . S
C702 C700 1.419 . S
C702 C703 1.362 . S
C703 H693 0.930 . S
C703 C696 1.409 . S
C703 C702 1.362 . S
H704 C710 0.930 . S
H705 C713 0.930 . S
H706 C714 0.930 . S
H707 C715 0.930 . S
H708 C718 0.930 . S
H709 C719 0.930 . S
C710 H704 0.930 . S
C710 C711 1.355 . S
C710 C712 1.415 . S
C711 C710 1.355 . S
C711 C713 1.419 . S
C712 C710 1.415 . S
C712 C717 1.425 . S
C712 C719 1.409 . S
C713 H705 0.930 . S
C713 C711 1.419 . S
C713 C714 1.362 . S
C714 H706 0.930 . S
C714 C713 1.362 . S
C714 C717 1.409 . S
C715 H707 0.930 . S
C715 C716 1.355 . S
C715 C717 1.415 . S
C716 C715 1.355 . S
C716 C718 1.419 . S
C717 C712 1.425 . S
C717 C714 1.409 . S
C717 C715 1.415 . S
C718 H708 0.930 . S
C718 C716 1.419 . S
C718 C719 1.362 . S
C719 H709 0.930 . S
C719 C712 1.409 . S
C719 C718 1.362 . S
H720 C726 0.930 . S
H721 C729 0.930 . S
H722 C730 0.930 . S
H723 C731 0.930 . S
H724 C734 0.930 . S
H725 C735 0.930 . S
C726 H720 0.930 . S
C726 C727 1.355 . S
C726 C728 1.415 . S
C727 C726 1.355 . S
C727 C729 1.419 . S
C728 C726 1.415 . S
C728 C733 1.425 1_556 S
C728 C735 1.409 . S
C729 H721 0.930 . S
C729 C727 1.419 . S
C729 C730 1.362 1_556 S
C730 H722 0.930 . S
C730 C729 1.362 1_554 S
C730 C733 1.409 . S
C731 H723 0.930 . S
C731 C732 1.355 . S
C731 C733 1.415 . S
C732 C731 1.355 . S
C732 C734 1.419 . S
C733 C728 1.425 1_554 S
C733 C730 1.409 . S
C733 C731 1.415 . S
C734 H724 0.930 . S
C734 C732 1.419 . S
C734 C735 1.362 1_554 S
C735 H725 0.930 . S
C735 C728 1.409 . S
C735 C734 1.362 1_556 S
H736 C742 0.930 1_556 S
H737 C745 0.930 . S
H738 C746 0.930 . S
H739 C747 0.930 . S
H740 C750 0.930 . S
H741 C751 0.930 . S
C742 H736 0.930 1_554 S
C742 C743 1.355 . S
C742 C744 1.415 1_554 S
C743 C742 1.355 . S
C743 C745 1.419 . S
C744 C742 1.415 1_556 S
C744 C749 1.425 1_556 S
C744 C751 1.409 . S
C745 H737 0.930 . S
C745 C743 1.419 . S
C745 C746 1.362 . S
C746 H738 0.930 . S
C746 C745 1.362 . S
C746 C749 1.409 . S
C747 H739 0.930 . S
C747 C748 1.355 . S
C747 C749 1.415 1_556 S
C748 C747 1.355 . S
C748 C750 1.419 . S
C749 C744 1.425 1_554 S
C749 C746 1.409 . S
C749 C747 1.415 1_554 S
C750 H740 0.930 . S
C750 C748 1.419 . S
C750 C751 1.362 . S
C751 H741 0.930 . S
C751 C744 1.409 . S
C751 C750 1.362 . S
H752 C758 0.930 . S
H753 C761 0.930 . S
H754 C762 0.930 . S
H755 C763 0.930 . S
H756 C766 0.930 . S
H757 C767 0.930 . S
C758 H752 0.930 . S
C758 C759 1.355 . S
C758 C760 1.415 . S
C759 C758 1.355 . S
C759 C761 1.419 . S
C760 C758 1.415 . S
C760 C765 1.425 . S
C760 C767 1.409 1_556 S
C761 H753 0.930 . S
C761 C759 1.419 . S
C761 C762 1.362 . S
C762 H754 0.930 . S
C762 C761 1.362 . S
C762 C765 1.409 . S
C763 H755 0.930 . S
C763 C764 1.355 . S
C763 C765 1.415 1_554 S
C764 C763 1.355 . S
C764 C766 1.419 . S
C765 C760 1.425 . S
C765 C762 1.409 . S
C765 C763 1.415 1_556 S
C766 H756 0.930 . S
C766 C764 1.419 . S
C766 C767 1.362 . S
C767 H757 0.930 . S
C767 C760 1.409 1_554 S
C767 C766 1.362 . S
H768 C774 0.930 1_556 S
H769 C777 0.930 . S
H770 C778 0.930 . S
H771 C779 0.930 . S
H772 C782 0.930 . S
H773 C783 0.930 . S
C774 H768 0.930 1_554 S
C774 C775 1.355 . S
C774 C776 1.415 1_554 S
C775 C774 1.355 . S
C775 C777 1.419 . S
C776 C774 1.415 1_556 S
C776 C781 1.425 1_556 S
C776 C783 1.409 . S
C777 H769 0.930 . S
C777 C775 1.419 . S
C777 C778 1.362 . S
C778 H770 0.930 . S
C778 C777 1.362 . S
C778 C781 1.410 . S
C779 H771 0.930 . S
C779 C780 1.355 . S
C779 C781 1.414 1_556 S
C780 C779 1.355 . S
C780 C782 1.419 . S
C781 C776 1.425 1_554 S
C781 C778 1.410 . S
C781 C779 1.414 1_554 S
C782 H772 0.930 . S
C782 C780 1.419 . S
C782 C783 1.362 . S
C783 H773 0.930 . S
C783 C776 1.409 . S
C783 C782 1.362 . S
H784 C790 0.930 . S
H785 C793 0.930 . S
H786 C794 0.930 . S
H787 C795 0.930 . S
H788 C798 0.930 . S
H789 C799 0.930 . S
C790 H784 0.930 . S
C790 C791 1.355 . S
C790 C792 1.415 . S
C791 C790 1.355 . S
C791 C793 1.419 . S
C792 C790 1.415 . S
C792 C797 1.425 . S
C792 C799 1.409 . S
C793 H785 0.930 . S
C793 C791 1.419 . S
C793 C794 1.362 . S
C794 H786 0.930 . S
C794 C793 1.362 . S
C794 C797 1.409 . S
C795 H787 0.930 . S
C795 C796 1.355 . S
C795 C797 1.415 . S
C796 C795 1.355 . S
C796 C798 1.419 . S
C797 C792 1.425 . S
C797 C794 1.409 . S
C797 C795 1.415 . S
C798 H788 0.930 . S
C798 C796 1.419 . S
C798 C799 1.362 . S
C799 H789 0.930 . S
C799 C792 1.409 . S
C799 C798 1.362 . S
H800 C806 0.930 . S
H801 C809 0.930 . S
H802 C810 0.930 . S
H803 C811 0.930 . S
H804 C814 0.930 . S
H805 C815 0.930 . S
C806 H800 0.930 . S
C806 C807 1.355 . S
C806 C808 1.415 . S
C807 C806 1.355 . S
C807 C809 1.419 . S
C808 C806 1.415 . S
C808 C813 1.425 . S
C808 C815 1.409 . S
C809 H801 0.930 . S
C809 C807 1.419 . S
C809 C810 1.362 . S
C810 H802 0.930 . S
C810 C809 1.362 . S
C810 C813 1.409 . S
C811 H803 0.930 . S
C811 C812 1.355 . S
C811 C813 1.415 . S
C812 C811 1.355 . S
C812 C814 1.419 . S
C813 C808 1.425 . S
C813 C810 1.409 . S
C813 C811 1.415 . S
C814 H804 0.930 . S
C814 C812 1.419 . S
C814 C815 1.362 . S
C815 H805 0.930 . S
C815 C808 1.409 . S
C815 C814 1.362 . S
H816 C822 0.930 . S
H817 C825 0.930 . S
H818 C826 0.930 . S
H819 C827 0.930 . S
H820 C830 0.930 . S
H821 C831 0.930 . S
C822 H816 0.930 . S
C822 C823 1.355 . S
C822 C824 1.415 . S
C823 C822 1.355 . S
C823 C825 1.419 . S
C824 C822 1.415 . S
C824 C829 1.425 . S
C824 C831 1.409 . S
C825 H817 0.930 . S
C825 C823 1.419 . S
C825 C826 1.362 . S
C826 H818 0.930 . S
C826 C825 1.362 . S
C826 C829 1.409 . S
C827 H819 0.930 . S
C827 C828 1.355 . S
C827 C829 1.415 . S
C828 C827 1.355 . S
C828 C830 1.419 . S
C829 C824 1.425 . S
C829 C826 1.409 . S
C829 C827 1.415 . S
C830 H820 0.930 . S
C830 C828 1.419 . S
C830 C831 1.362 . S
C831 H821 0.930 . S
C831 C824 1.409 . S
C831 C830 1.362 . S
H832 C838 0.930 . S
H833 C841 0.930 . S
H834 C842 0.930 . S
H835 C843 0.930 . S
H836 C846 0.930 . S
H837 C847 0.930 . S
C838 H832 0.930 . S
C838 C839 1.355 . S
C838 C840 1.415 . S
C839 C838 1.355 . S
C839 C841 1.419 . S
C840 C838 1.415 . S
C840 C845 1.425 . S
C840 C847 1.409 . S
C841 H833 0.930 . S
C841 C839 1.419 . S
C841 C842 1.362 . S
C842 H834 0.930 . S
C842 C841 1.362 . S
C842 C845 1.409 . S
C843 H835 0.930 . S
C843 C844 1.355 . S
C843 C845 1.415 . S
C844 C843 1.355 . S
C844 C846 1.419 . S
C845 C840 1.425 . S
C845 C842 1.409 . S
C845 C843 1.415 . S
C846 H836 0.930 . S
C846 C844 1.419 . S
C846 C847 1.362 . S
C847 H837 0.930 . S
C847 C840 1.409 . S
C847 C846 1.362 . S
H848 C854 0.930 . S
H849 C857 0.930 . S
H850 C858 0.930 . S
H851 C859 0.930 . S
H852 C862 0.930 . S
H853 C863 0.930 . S
C854 H848 0.930 . S
C854 C855 1.355 . S
C854 C856 1.415 . S
C855 C854 1.355 . S
C855 C857 1.419 . S
C856 C854 1.415 . S
C856 C861 1.425 . S
C856 C863 1.409 . S
C857 H849 0.930 . S
C857 C855 1.419 . S
C857 C858 1.362 . S
C858 H850 0.930 . S
C858 C857 1.362 . S
C858 C861 1.409 . S
C859 H851 0.930 . S
C859 C860 1.355 . S
C859 C861 1.415 . S
C860 C859 1.355 . S
C860 C862 1.419 . S
C861 C856 1.425 . S
C861 C858 1.409 . S
C861 C859 1.415 . S
C862 H852 0.930 . S
C862 C860 1.419 . S
C862 C863 1.362 . S
C863 H853 0.930 . S
C863 C856 1.409 . S
C863 C862 1.362 . S
H864 C870 0.930 . S
H865 C873 0.930 . S
H866 C874 0.930 . S
H867 C875 0.930 . S
H868 C878 0.930 . S
H869 C879 0.930 . S
C870 H864 0.930 . S
C870 C871 1.355 . S
C870 C872 1.415 . S
C871 C870 1.355 . S
C871 C873 1.419 . S
C872 C870 1.415 . S
C872 C877 1.425 . S
C872 C879 1.409 . S
C873 H865 0.930 . S
C873 C871 1.419 . S
C873 C874 1.362 . S
C874 H866 0.930 . S
C874 C873 1.362 . S
C874 C877 1.409 . S
C875 H867 0.930 . S
C875 C876 1.355 . S
C875 C877 1.415 . S
C876 C875 1.355 . S
C876 C878 1.419 . S
C877 C872 1.425 . S
C877 C874 1.409 . S
C877 C875 1.415 . S
C878 H868 0.930 . S
C878 C876 1.419 . S
C878 C879 1.362 . S
C879 H869 0.930 . S
C879 C872 1.409 . S
C879 C878 1.362 . S
H880 C886 0.930 . S
H881 C889 0.930 . S
H882 C890 0.930 . S
H883 C891 0.930 . S
H884 C894 0.930 . S
H885 C895 0.930 . S
C886 H880 0.930 . S
C886 C887 1.355 . S
C886 C888 1.415 . S
C887 C886 1.355 . S
C887 C889 1.419 . S
C888 C886 1.415 . S
C888 C893 1.425 . S
C888 C895 1.409 . S
C889 H881 0.930 . S
C889 C887 1.419 . S
C889 C890 1.362 . S
C890 H882 0.930 . S
C890 C889 1.362 . S
C890 C893 1.409 . S
C891 H883 0.930 . S
C891 C892 1.355 . S
C891 C893 1.415 . S
C892 C891 1.355 . S
C892 C894 1.419 . S
C893 C888 1.425 . S
C893 C890 1.409 . S
C893 C891 1.415 . S
C894 H884 0.930 . S
C894 C892 1.419 . S
C894 C895 1.362 . S
C895 H885 0.930 . S
C895 C888 1.409 . S
C895 C894 1.362 . S
H896 C902 0.930 . S
H897 C905 0.930 . S
H898 C906 0.930 . S
H899 C907 0.930 . S
H900 C910 0.930 . S
H901 C911 0.930 . S
C902 H896 0.930 . S
C902 C903 1.355 . S
C902 C904 1.415 . S
C903 C902 1.355 . S
C903 C905 1.419 . S
C904 C902 1.415 . S
C904 C909 1.425 . S
C904 C911 1.409 . S
C905 H897 0.930 . S
C905 C903 1.419 . S
C905 C906 1.362 . S
C906 H898 0.930 . S
C906 C905 1.362 . S
C906 C909 1.409 . S
C907 H899 0.930 . S
C907 C908 1.355 . S
C907 C909 1.415 . S
C908 C907 1.355 . S
C908 C910 1.419 . S
C909 C904 1.425 . S
C909 C906 1.409 . S
C909 C907 1.415 . S
C910 H900 0.930 . S
C910 C908 1.419 . S
C910 C911 1.362 . S
C911 H901 0.930 . S
C911 C904 1.409 . S
C911 C910 1.362 . S
H912 C918 0.930 . S
H913 C921 0.930 . S
H914 C922 0.930 . S
H915 C923 0.930 . S
H916 C926 0.930 . S
H917 C927 0.930 . S
C918 H912 0.930 . S
C918 C919 1.355 . S
C918 C920 1.415 . S
C919 C918 1.355 . S
C919 C921 1.419 . S
C920 C918 1.415 . S
C920 C925 1.425 . S
C920 C927 1.409 . S
C921 H913 0.930 . S
C921 C919 1.419 . S
C921 C922 1.362 . S
C922 H914 0.930 . S
C922 C921 1.362 . S
C922 C925 1.409 . S
C923 H915 0.930 . S
C923 C924 1.355 . S
C923 C925 1.415 . S
C924 C923 1.355 . S
C924 C926 1.419 . S
C925 C920 1.425 . S
C925 C922 1.409 . S
C925 C923 1.415 . S
C926 H916 0.930 . S
C926 C924 1.419 . S
C926 C927 1.362 . S
C927 H917 0.930 . S
C927 C920 1.409 . S
C927 C926 1.362 . S
H928 C934 0.930 . S
H929 C937 0.930 . S
H930 C938 0.930 . S
H931 C939 0.930 . S
H932 C942 0.930 . S
H933 C943 0.930 . S
C934 H928 0.930 . S
C934 C935 1.355 . S
C934 C936 1.415 . S
C935 C934 1.355 . S
C935 C937 1.419 . S
C936 C934 1.415 . S
C936 C941 1.425 . S
C936 C943 1.409 . S
C937 H929 0.930 . S
C937 C935 1.419 . S
C937 C938 1.362 . S
C938 H930 0.930 . S
C938 C937 1.362 . S
C938 C941 1.409 . S
C939 H931 0.930 . S
C939 C940 1.355 . S
C939 C941 1.415 . S
C940 C939 1.355 . S
C940 C942 1.419 . S
C941 C936 1.425 . S
C941 C938 1.409 . S
C941 C939 1.415 . S
C942 H932 0.930 . S
C942 C940 1.419 . S
C942 C943 1.362 . S
C943 H933 0.930 . S
C943 C936 1.409 . S
C943 C942 1.362 . S
H944 C950 0.930 . S
H945 C953 0.930 . S
H946 C954 0.930 . S
H947 C955 0.930 . S
H948 C958 0.930 . S
H949 C959 0.930 . S
C950 H944 0.930 . S
C950 C951 1.355 . S
C950 C952 1.415 . S
C951 C950 1.355 . S
C951 C953 1.419 . S
C952 C950 1.415 . S
C952 C957 1.425 . S
C952 C959 1.409 . S
C953 H945 0.930 . S
C953 C951 1.419 . S
C953 C954 1.362 . S
C954 H946 0.930 . S
C954 C953 1.362 . S
C954 C957 1.409 . S
C955 H947 0.930 . S
C955 C956 1.355 . S
C955 C957 1.415 . S
C956 C955 1.355 . S
C956 C958 1.419 . S
C957 C952 1.425 . S
C957 C954 1.409 . S
C957 C955 1.415 . S
C958 H948 0.930 . S
C958 C956 1.419 . S
C958 C959 1.362 . S
C959 H949 0.930 . S
C959 C952 1.409 . S
C959 C958 1.362 . S
H960 C966 0.930 . S
H961 C969 0.930 . S
H962 C970 0.930 . S
H963 C971 0.930 . S
H964 C974 0.930 . S
H965 C975 0.930 . S
C966 H960 0.930 . S
C966 C967 1.355 . S
C966 C968 1.415 . S
C967 C966 1.355 . S
C967 C969 1.419 . S
C968 C966 1.415 . S
C968 C973 1.425 . S
C968 C975 1.409 . S
C969 H961 0.930 . S
C969 C967 1.419 . S
C969 C970 1.362 . S
C970 H962 0.930 . S
C970 C969 1.362 . S
C970 C973 1.409 . S
C971 H963 0.930 . S
C971 C972 1.355 . S
C971 C973 1.415 . S
C972 C971 1.355 . S
C972 C974 1.419 . S
C973 C968 1.425 . S
C973 C970 1.409 . S
C973 C971 1.415 . S
C974 H964 0.930 . S
C974 C972 1.419 . S
C974 C975 1.362 . S
C975 H965 0.930 . S
C975 C968 1.409 . S
C975 C974 1.362 . S
H976 C982 0.930 . S
H977 C985 0.930 . S
H978 C986 0.930 . S
H979 C987 0.930 . S
H980 C990 0.930 . S
H981 C991 0.930 . S
C982 H976 0.930 . S
C982 C983 1.334 1_565 S
C982 C984 1.415 1_556 S
C983 C982 1.334 1_545 S
C983 C985 1.447 . S
C984 C982 1.415 1_554 S
C984 C989 1.425 1_564 S
C984 C991 1.409 . S
C985 H977 0.930 . S
C985 C983 1.447 . S
C985 C986 1.362 . S
C986 H978 0.930 . S
C986 C985 1.362 . S
C986 C989 1.409 . S
C987 H979 0.930 . S
C987 C988 1.334 1_545 S
C987 C989 1.415 1_554 S
C988 C987 1.334 1_565 S
C988 C990 1.447 . S
C989 C984 1.425 1_546 S
C989 C986 1.409 . S
C989 C987 1.415 1_556 S
C990 H980 0.930 . S
C990 C988 1.447 . S
C990 C991 1.362 . S
C991 H981 0.930 . S
C991 C984 1.409 . S
C991 C990 1.362 . S
H992 C998 0.930 . S
H993 C1001 0.930 . S
H994 C1002 0.930 . S
H995 C1003 0.930 . S
H996 C1006 0.930 . S
H997 C1007 0.930 . S
C998 H992 0.930 . S
C998 C999 1.355 . S
C998 C1000 1.415 . S
C999 C998 1.355 . S
C999 C1001 1.419 . S
C1000 C998 1.415 . S
C1000 C1005 1.425 1_556 S
C1000 C1007 1.409 . S
C1001 H993 0.930 . S
C1001 C999 1.419 . S
C1001 C1002 1.362 1_556 S
C1002 H994 0.930 . S
C1002 C1001 1.362 1_554 S
C1002 C1005 1.409 . S
C1003 H995 0.930 . S
C1003 C1004 1.355 . S
C1003 C1005 1.415 . S
C1004 C1003 1.355 . S
C1004 C1006 1.419 . S
C1005 C1000 1.425 1_554 S
C1005 C1002 1.409 . S
C1005 C1003 1.415 . S
C1006 H996 0.930 . S
C1006 C1004 1.419 . S
C1006 C1007 1.362 1_554 S
C1007 H997 0.930 . S
C1007 C1000 1.409 . S
C1007 C1006 1.362 1_556 S
H1008 C1014 0.930 . S
H1009 C1017 0.930 . S
H1010 C1018 0.930 . S
H1011 C1019 0.930 . S
H1012 C1022 0.930 . S
H1013 C1023 0.930 . S
C1014 H1008 0.930 . S
C1014 C1015 1.355 . S
C1014 C1016 1.415 1_556 S
C1015 C1014 1.355 . S
C1015 C1017 1.419 . S
C1016 C1014 1.415 1_554 S
C1016 C1021 1.425 1_454 S
C1016 C1023 1.409 . S
C1017 H1009 0.930 . S
C1017 C1015 1.419 . S
C1017 C1018 1.362 1_455 S
C1018 H1010 0.930 . S
C1018 C1017 1.362 1_655 S
C1018 C1021 1.409 . S
C1019 H1011 0.930 . S
C1019 C1020 1.355 . S
C1019 C1021 1.415 1_554 S
C1020 C1019 1.355 . S
C1020 C1022 1.419 . S
C1021 C1016 1.425 1_656 S
C1021 C1018 1.409 . S
C1021 C1019 1.415 1_556 S
C1022 H1012 0.930 . S
C1022 C1020 1.419 . S
C1022 C1023 1.362 1_655 S
C1023 H1013 0.930 . S
C1023 C1016 1.409 . S
C1023 C1022 1.362 1_455 S
H1024 C1030 0.930 . S
H1025 C1033 0.930 . S
H1026 C1034 0.937 . S
H1027 C1035 0.930 . S
H1028 C1038 0.930 . S
H1029 C1039 0.937 . S
C1030 H1024 0.930 . S
C1030 C1031 1.355 1_455 S
C1030 C1032 1.415 1_545 S
C1031 C1030 1.355 1_655 S
C1031 C1033 1.419 . S
C1032 C1030 1.415 1_565 S
C1032 C1037 1.425 1_466 S
C1032 C1039 1.413 . S
C1033 H1025 0.930 . S
C1033 C1031 1.419 . S
C1033 C1034 1.352 1_556 S
C1034 H1026 0.937 . S
C1034 C1033 1.352 1_554 S
C1034 C1037 1.413 . S
C1035 H1027 0.930 . S
C1035 C1036 1.355 1_655 S
C1035 C1037 1.415 1_565 S
C1036 C1035 1.355 1_455 S
C1036 C1038 1.419 . S
C1037 C1032 1.425 1_644 S
C1037 C1034 1.413 . S
C1037 C1035 1.415 1_545 S
C1038 H1028 0.930 . S
C1038 C1036 1.419 . S
C1038 C1039 1.352 1_554 S
C1039 H1029 0.937 . S
C1039 C1032 1.413 . S
C1039 C1038 1.352 1_556 S
H1040 C1046 0.930 . S
H1041 C1049 0.930 . S
H1042 C1050 0.930 . S
H1043 C1051 0.930 . S
H1044 C1054 0.930 . S
H1045 C1055 0.930 . S
C1046 H1040 0.930 . S
C1046 C1047 1.355 . S
C1046 C1048 1.415 . S
C1047 C1046 1.355 . S
C1047 C1049 1.419 . S
C1048 C1046 1.415 . S
C1048 C1053 1.425 . S
C1048 C1055 1.409 . S
C1049 H1041 0.930 . S
C1049 C1047 1.419 . S
C1049 C1050 1.362 . S
C1050 H1042 0.930 . S
C1050 C1049 1.362 . S
C1050 C1053 1.409 . S
C1051 H1043 0.930 . S
C1051 C1052 1.355 . S
C1051 C1053 1.415 . S
C1052 C1051 1.355 . S
C1052 C1054 1.419 . S
C1053 C1048 1.425 . S
C1053 C1050 1.409 . S
C1053 C1051 1.415 . S
C1054 H1044 0.930 . S
C1054 C1052 1.419 . S
C1054 C1055 1.362 . S
C1055 H1045 0.930 . S
C1055 C1048 1.409 . S
C1055 C1054 1.362 . S
H1056 C1062 0.930 . S
H1057 C1065 0.930 . S
H1058 C1066 0.930 . S
H1059 C1067 0.930 . S
H1060 C1070 0.930 . S
H1061 C1071 0.930 . S
C1062 H1056 0.930 . S
C1062 C1063 1.331 1_455 S
C1062 C1064 1.415 . S
C1063 C1062 1.331 1_655 S
C1063 C1065 1.451 . S
C1064 C1062 1.415 . S
C1064 C1069 1.425 1_455 S
C1064 C1071 1.409 . S
C1065 H1057 0.930 . S
C1065 C1063 1.451 . S
C1065 C1066 1.362 . S
C1066 H1058 0.930 . S
C1066 C1065 1.362 . S
C1066 C1069 1.409 . S
C1067 H1059 0.930 . S
C1067 C1068 1.331 1_655 S
C1067 C1069 1.415 . S
C1068 C1067 1.331 1_455 S
C1068 C1070 1.451 . S
C1069 C1064 1.425 1_655 S
C1069 C1066 1.409 . S
C1069 C1067 1.415 . S
C1070 H1060 0.930 . S
C1070 C1068 1.451 . S
C1070 C1071 1.362 . S
C1071 H1061 0.930 . S
C1071 C1064 1.409 . S
C1071 C1070 1.362 . S
H1072 C1078 0.939 . S
H1073 C1081 0.930 . S
H1074 C1082 0.930 . S
H1075 C1083 0.939 . S
H1076 C1086 0.930 . S
H1077 C1087 0.930 . S
C1078 H1072 0.939 . S
C1078 C1079 1.357 . S
C1078 C1080 1.415 1_655 S
C1079 C1078 1.357 . S
C1079 C1081 1.415 1_545 S
C1080 C1078 1.415 1_455 S
C1080 C1085 1.425 1_445 S
C1080 C1087 1.409 . S
C1081 H1073 0.930 . S
C1081 C1079 1.415 1_565 S
C1081 C1082 1.362 . S
C1082 H1074 0.930 . S
C1082 C1081 1.362 . S
C1082 C1085 1.409 . S
C1083 H1075 0.939 . S
C1083 C1084 1.357 . S
C1083 C1085 1.415 1_455 S
C1084 C1083 1.357 . S
C1084 C1086 1.415 1_565 S
C1085 C1080 1.425 1_665 S
C1085 C1082 1.409 . S
C1085 C1083 1.415 1_655 S
C1086 H1076 0.930 . S
C1086 C1084 1.415 1_545 S
C1086 C1087 1.362 . S
C1087 H1077 0.930 . S
C1087 C1080 1.409 . S
C1087 C1086 1.362 . S
H1088 C1094 0.930 . S
H1089 C1097 0.930 . S
H1090 C1098 0.930 . S
H1091 C1099 0.930 . S
H1092 C1102 0.930 . S
H1093 C1103 0.930 . S
C1094 H1088 0.930 . S
C1094 C1095 1.355 . S
C1094 C1096 1.415 1_565 S
C1095 C1094 1.355 . S
C1095 C1097 1.419 . S
C1096 C1094 1.415 1_545 S
C1096 C1101 1.425 1_545 S
C1096 C1103 1.409 . S
C1097 H1089 0.930 . S
C1097 C1095 1.419 . S
C1097 C1098 1.362 . S
C1098 H1090 0.930 . S
C1098 C1097 1.362 . S
C1098 C1101 1.409 . S
C1099 H1091 0.930 . S
C1099 C1100 1.355 . S
C1099 C1101 1.415 1_545 S
C1100 C1099 1.355 . S
C1100 C1102 1.419 . S
C1101 C1096 1.425 1_565 S
C1101 C1098 1.409 . S
C1101 C1099 1.415 1_565 S
C1102 H1092 0.930 . S
C1102 C1100 1.419 . S
C1102 C1103 1.362 . S
C1103 H1093 0.930 . S
C1103 C1096 1.409 . S
C1103 C1102 1.362 . S
H1104 C1110 0.930 . S
H1105 C1113 0.930 . S
H1106 C1114 0.930 . S
H1107 C1115 0.930 . S
H1108 C1118 0.930 . S
H1109 C1119 0.930 . S
C1110 H1104 0.930 . S
C1110 C1111 1.355 . S
C1110 C1112 1.415 . S
C1111 C1110 1.355 . S
C1111 C1113 1.419 . S
C1112 C1110 1.415 . S
C1112 C1117 1.425 . S
C1112 C1119 1.409 . S
C1113 H1105 0.930 . S
C1113 C1111 1.419 . S
C1113 C1114 1.362 . S
C1114 H1106 0.930 . S
C1114 C1113 1.362 . S
C1114 C1117 1.409 . S
C1115 H1107 0.930 . S
C1115 C1116 1.355 . S
C1115 C1117 1.415 . S
C1116 C1115 1.355 . S
C1116 C1118 1.419 . S
C1117 C1112 1.425 . S
C1117 C1114 1.409 . S
C1117 C1115 1.415 . S
C1118 H1108 0.930 . S
C1118 C1116 1.419 . S
C1118 C1119 1.362 . S
C1119 H1109 0.930 . S
C1119 C1112 1.409 . S
C1119 C1118 1.362 . S
H1120 C1126 0.930 . S
H1121 C1129 0.930 . S
H1122 C1130 0.930 . S
H1123 C1131 0.930 . S
H1124 C1134 0.930 . S
H1125 C1135 0.930 . S
C1126 H1120 0.930 . S
C1126 C1127 1.355 . S
C1126 C1128 1.415 . S
C1127 C1126 1.355 . S
C1127 C1129 1.419 . S
C1128 C1126 1.415 . S
C1128 C1133 1.425 . S
C1128 C1135 1.409 . S
C1129 H1121 0.930 . S
C1129 C1127 1.419 . S
C1129 C1130 1.362 . S
C1130 H1122 0.930 . S
C1130 C1129 1.362 . S
C1130 C1133 1.409 . S
C1131 H1123 0.930 . S
C1131 C1132 1.355 . S
C1131 C1133 1.415 . S
C1132 C1131 1.355 . S
C1132 C1134 1.419 . S
C1133 C1128 1.425 . S
C1133 C1130 1.409 . S
C1133 C1131 1.415 . S
C1134 H1124 0.930 . S
C1134 C1132 1.419 . S
C1134 C1135 1.362 . S
C1135 H1125 0.930 . S
C1135 C1128 1.409 . S
C1135 C1134 1.362 . S
H1136 C1142 0.930 . S
H1137 C1145 0.930 . S
H1138 C1146 0.930 . S
H1139 C1147 0.930 . S
H1140 C1150 0.930 . S
H1141 C1151 0.930 . S
C1142 H1136 0.930 . S
C1142 C1143 1.355 . S
C1142 C1144 1.415 . S
C1143 C1142 1.355 . S
C1143 C1145 1.419 . S
C1144 C1142 1.415 . S
C1144 C1149 1.425 . S
C1144 C1151 1.409 . S
C1145 H1137 0.930 . S
C1145 C1143 1.419 . S
C1145 C1146 1.362 . S
C1146 H1138 0.930 . S
C1146 C1145 1.362 . S
C1146 C1149 1.409 . S
C1147 H1139 0.930 . S
C1147 C1148 1.355 . S
C1147 C1149 1.415 . S
C1148 C1147 1.355 . S
C1148 C1150 1.419 . S
C1149 C1144 1.425 . S
C1149 C1146 1.409 . S
C1149 C1147 1.415 . S
C1150 H1140 0.930 . S
C1150 C1148 1.419 . S
C1150 C1151 1.362 . S
C1151 H1141 0.930 . S
C1151 C1144 1.409 . S
C1151 C1150 1.362 . S
H1152 C1158 0.930 . S
H1153 C1161 0.930 1_545 S
H1154 C1162 0.930 . S
H1155 C1163 0.930 . S
H1156 C1166 0.930 . S
H1157 C1167 0.930 . S
C1158 H1152 0.930 . S
C1158 C1159 1.355 . S
C1158 C1160 1.415 . S
C1159 C1158 1.355 . S
C1159 C1161 1.419 . S
C1160 C1158 1.415 . S
C1160 C1165 1.425 . S
C1160 C1167 1.409 . S
C1161 H1153 0.930 1_565 S
C1161 C1159 1.419 . S
C1161 C1162 1.362 . S
C1162 H1154 0.930 . S
C1162 C1161 1.362 . S
C1162 C1165 1.409 . S
C1163 H1155 0.930 . S
C1163 C1164 1.355 . S
C1163 C1165 1.415 . S
C1164 C1163 1.355 . S
C1164 C1166 1.419 . S
C1165 C1160 1.425 . S
C1165 C1162 1.409 . S
C1165 C1163 1.415 . S
C1166 H1156 0.930 . S
C1166 C1164 1.419 . S
C1166 C1167 1.362 . S
C1167 H1157 0.930 . S
C1167 C1160 1.409 . S
C1167 C1166 1.362 . S
H1168 C1174 0.930 . S
H1169 C1177 0.930 . S
H1170 C1178 0.930 . S
H1171 C1179 0.930 . S
H1172 C1182 0.930 . S
H1173 C1183 0.930 . S
C1174 H1168 0.930 . S
C1174 C1175 1.355 . S
C1174 C1176 1.415 . S
C1175 C1174 1.355 . S
C1175 C1177 1.419 . S
C1176 C1174 1.415 . S
C1176 C1181 1.425 . S
C1176 C1183 1.409 . S
C1177 H1169 0.930 . S
C1177 C1175 1.419 . S
C1177 C1178 1.362 . S
C1178 H1170 0.930 . S
C1178 C1177 1.362 . S
C1178 C1181 1.409 . S
C1179 H1171 0.930 . S
C1179 C1180 1.355 . S
C1179 C1181 1.415 . S
C1180 C1179 1.355 . S
C1180 C1182 1.419 . S
C1181 C1176 1.425 . S
C1181 C1178 1.409 . S
C1181 C1179 1.415 . S
C1182 H1172 0.930 . S
C1182 C1180 1.419 . S
C1182 C1183 1.362 . S
C1183 H1173 0.930 . S
C1183 C1176 1.409 . S
C1183 C1182 1.362 . S
H1184 C1190 0.930 . S
H1185 C1193 0.930 . S
H1186 C1194 0.930 . S
H1187 C1195 0.930 . S
H1188 C1198 0.930 . S
H1189 C1199 0.930 . S
C1190 H1184 0.930 . S
C1190 C1191 1.355 . S
C1190 C1192 1.415 . S
C1191 C1190 1.355 . S
C1191 C1193 1.419 . S
C1192 C1190 1.415 . S
C1192 C1197 1.425 . S
C1192 C1199 1.409 . S
C1193 H1185 0.930 . S
C1193 C1191 1.419 . S
C1193 C1194 1.362 . S
C1194 H1186 0.930 . S
C1194 C1193 1.362 . S
C1194 C1197 1.409 . S
C1195 H1187 0.930 . S
C1195 C1196 1.355 . S
C1195 C1197 1.415 . S
C1196 C1195 1.355 . S
C1196 C1198 1.419 . S
C1197 C1192 1.425 . S
C1197 C1194 1.409 . S
C1197 C1195 1.415 . S
C1198 H1188 0.930 . S
C1198 C1196 1.419 . S
C1198 C1199 1.362 . S
C1199 H1189 0.930 . S
C1199 C1192 1.409 . S
C1199 C1198 1.362 . S
H1200 C1206 0.930 . S
H1201 C1209 0.930 . S
H1202 C1210 0.930 . S
H1203 C1211 0.930 . S
H1204 C1214 0.930 1_455 S
H1205 C1215 0.930 . S
C1206 H1200 0.930 . S
C1206 C1207 1.355 . S
C1206 C1208 1.415 . S
C1207 C1206 1.355 . S
C1207 C1209 1.419 . S
C1208 C1206 1.415 . S
C1208 C1213 1.425 . S
C1208 C1215 1.409 . S
C1209 H1201 0.930 . S
C1209 C1207 1.419 . S
C1209 C1210 1.362 . S
C1210 H1202 0.930 . S
C1210 C1209 1.362 . S
C1210 C1213 1.409 . S
C1211 H1203 0.930 . S
C1211 C1212 1.355 . S
C1211 C1213 1.415 . S
C1212 C1211 1.355 . S
C1212 C1214 1.419 . S
C1213 C1208 1.425 . S
C1213 C1210 1.409 . S
C1213 C1211 1.415 . S
C1214 H1204 0.930 1_655 S
C1214 C1212 1.419 . S
C1214 C1215 1.362 . S
C1215 H1205 0.930 . S
C1215 C1208 1.409 . S
C1215 C1214 1.362 . S
H1216 C1222 0.930 . S
H1217 C1225 0.930 . S
H1218 C1226 0.930 . S
H1219 C1227 0.930 . S
H1220 C1230 0.911 1_545 S
H1221 C1231 0.930 1_545 S
C1222 H1216 0.930 . S
C1222 C1223 1.355 . S
C1222 C1224 1.415 . S
C1223 C1222 1.355 . S
C1223 C1225 1.419 . S
C1224 C1222 1.415 . S
C1224 C1229 1.425 . S
C1224 C1231 1.409 . S
C1225 H1217 0.930 . S
C1225 C1223 1.419 . S
C1225 C1226 1.362 . S
C1226 H1218 0.930 . S
C1226 C1225 1.362 . S
C1226 C1229 1.409 . S
C1227 H1219 0.930 . S
C1227 C1228 1.355 . S
C1227 C1229 1.415 . S
C1228 C1227 1.355 . S
C1228 C1230 1.431 . S
C1229 C1224 1.425 . S
C1229 C1226 1.409 . S
C1229 C1227 1.415 . S
C1230 H1220 0.911 1_565 S
C1230 C1228 1.431 . S
C1230 C1231 1.369 . S
C1231 H1221 0.930 1_565 S
C1231 C1224 1.409 . S
C1231 C1230 1.369 . S
H1232 C1238 0.930 . S
H1233 C1241 0.930 . S
H1234 C1242 0.930 . S
H1235 C1243 0.930 . S
H1236 C1246 0.930 . S
H1237 C1247 0.930 . S
C1238 H1232 0.930 . S
C1238 C1239 1.355 . S
C1238 C1240 1.415 . S
C1239 C1238 1.355 . S
C1239 C1241 1.419 . S
C1240 C1238 1.415 . S
C1240 C1245 1.425 . S
C1240 C1247 1.409 . S
C1241 H1233 0.930 . S
C1241 C1239 1.419 . S
C1241 C1242 1.362 . S
C1242 H1234 0.930 . S
C1242 C1241 1.362 . S
C1242 C1245 1.409 . S
C1243 H1235 0.930 . S
C1243 C1244 1.355 . S
C1243 C1245 1.415 . S
C1244 C1243 1.355 . S
C1244 C1246 1.419 . S
C1245 C1240 1.425 . S
C1245 C1242 1.409 . S
C1245 C1243 1.415 . S
C1246 H1236 0.930 . S
C1246 C1244 1.419 . S
C1246 C1247 1.362 . S
C1247 H1237 0.930 . S
C1247 C1240 1.409 . S
C1247 C1246 1.362 . S
H1248 C1254 0.930 . S
H1249 C1257 0.930 . S
H1250 C1258 0.930 . S
H1251 C1259 0.930 . S
H1252 C1262 0.930 . S
H1253 C1263 0.930 . S
C1254 H1248 0.930 . S
C1254 C1255 1.355 . S
C1254 C1256 1.415 . S
C1255 C1254 1.355 . S
C1255 C1257 1.419 . S
C1256 C1254 1.415 . S
C1256 C1261 1.425 . S
C1256 C1263 1.409 . S
C1257 H1249 0.930 . S
C1257 C1255 1.419 . S
C1257 C1258 1.362 . S
C1258 H1250 0.930 . S
C1258 C1257 1.362 . S
C1258 C1261 1.409 . S
C1259 H1251 0.930 . S
C1259 C1260 1.355 . S
C1259 C1261 1.415 . S
C1260 C1259 1.355 . S
C1260 C1262 1.419 . S
C1261 C1256 1.425 . S
C1261 C1258 1.409 . S
C1261 C1259 1.415 . S
C1262 H1252 0.930 . S
C1262 C1260 1.419 . S
C1262 C1263 1.362 . S
C1263 H1253 0.930 . S
C1263 C1256 1.409 . S
C1263 C1262 1.362 . S
H1264 C1270 0.930 . S
H1265 C1273 0.930 . S
H1266 C1274 0.930 . S
H1267 C1275 0.930 . S
H1268 C1278 0.930 . S
H1269 C1279 0.930 . S
C1270 H1264 0.930 . S
C1270 C1271 1.355 . S
C1270 C1272 1.415 . S
C1271 C1270 1.355 . S
C1271 C1273 1.419 . S
C1272 C1270 1.415 . S
C1272 C1277 1.425 . S
C1272 C1279 1.409 . S
C1273 H1265 0.930 . S
C1273 C1271 1.419 . S
C1273 C1274 1.362 . S
C1274 H1266 0.930 . S
C1274 C1273 1.362 . S
C1274 C1277 1.409 . S
C1275 H1267 0.930 . S
C1275 C1276 1.355 . S
C1275 C1277 1.415 . S
C1276 C1275 1.355 . S
C1276 C1278 1.419 . S
C1277 C1272 1.425 . S
C1277 C1274 1.409 . S
C1277 C1275 1.415 . S
C1278 H1268 0.930 . S
C1278 C1276 1.419 . S
C1278 C1279 1.362 . S
C1279 H1269 0.930 . S
C1279 C1272 1.409 . S
C1279 C1278 1.362 . S
H1280 C1286 0.930 . S
H1281 C1289 0.930 . S
H1282 C1290 0.930 . S
H1283 C1291 0.930 . S
H1284 C1294 0.930 . S
H1285 C1295 0.930 . S
C1286 H1280 0.930 . S
C1286 C1287 1.355 . S
C1286 C1288 1.415 . S
C1287 C1286 1.355 . S
C1287 C1289 1.419 . S
C1288 C1286 1.415 . S
C1288 C1293 1.425 . S
C1288 C1295 1.409 . S
C1289 H1281 0.930 . S
C1289 C1287 1.419 . S
C1289 C1290 1.362 . S
C1290 H1282 0.930 . S
C1290 C1289 1.362 . S
C1290 C1293 1.409 . S
C1291 H1283 0.930 . S
C1291 C1292 1.355 . S
C1291 C1293 1.415 . S
C1292 C1291 1.355 . S
C1292 C1294 1.419 . S
C1293 C1288 1.425 . S
C1293 C1290 1.409 . S
C1293 C1291 1.415 . S
C1294 H1284 0.930 . S
C1294 C1292 1.419 . S
C1294 C1295 1.362 . S
C1295 H1285 0.930 . S
C1295 C1288 1.409 . S
C1295 C1294 1.362 . S
H1296 C1302 0.930 . S
H1297 C1305 0.930 . S
H1298 C1306 0.930 . S
H1299 C1307 0.930 . S
H1300 C1310 0.930 . S
H1301 C1311 0.930 . S
C1302 H1296 0.930 . S
C1302 C1303 1.355 . S
C1302 C1304 1.415 . S
C1303 C1302 1.355 . S
C1303 C1305 1.419 . S
C1304 C1302 1.415 . S
C1304 C1309 1.425 . S
C1304 C1311 1.409 . S
C1305 H1297 0.930 . S
C1305 C1303 1.419 . S
C1305 C1306 1.362 . S
C1306 H1298 0.930 . S
C1306 C1305 1.362 . S
C1306 C1309 1.409 . S
C1307 H1299 0.930 . S
C1307 C1308 1.355 . S
C1307 C1309 1.415 . S
C1308 C1307 1.355 . S
C1308 C1310 1.419 . S
C1309 C1304 1.425 . S
C1309 C1306 1.409 . S
C1309 C1307 1.415 . S
C1310 H1300 0.930 . S
C1310 C1308 1.419 . S
C1310 C1311 1.362 . S
C1311 H1301 0.930 . S
C1311 C1304 1.409 . S
C1311 C1310 1.362 . S
H1312 C1318 0.930 . S
H1313 C1321 0.930 . S
H1314 C1322 0.930 . S
H1315 C1323 0.930 . S
H1316 C1326 0.930 . S
H1317 C1327 0.930 . S
C1318 H1312 0.930 . S
C1318 C1319 1.355 . S
C1318 C1320 1.415 . S
C1319 C1318 1.355 . S
C1319 C1321 1.419 . S
C1320 C1318 1.415 . S
C1320 C1325 1.425 . S
C1320 C1327 1.409 . S
C1321 H1313 0.930 . S
C1321 C1319 1.419 . S
C1321 C1322 1.362 . S
C1322 H1314 0.930 . S
C1322 C1321 1.362 . S
C1322 C1325 1.409 . S
C1323 H1315 0.930 . S
C1323 C1324 1.355 . S
C1323 C1325 1.415 . S
C1324 C1323 1.355 . S
C1324 C1326 1.419 . S
C1325 C1320 1.425 . S
C1325 C1322 1.409 . S
C1325 C1323 1.415 . S
C1326 H1316 0.930 . S
C1326 C1324 1.419 . S
C1326 C1327 1.362 . S
C1327 H1317 0.930 . S
C1327 C1320 1.409 . S
C1327 C1326 1.362 . S
H1328 C1334 0.930 . S
H1329 C1337 0.930 . S
H1330 C1338 0.930 . S
H1331 C1339 0.930 . S
H1332 C1342 0.930 . S
H1333 C1343 0.930 . S
C1334 H1328 0.930 . S
C1334 C1335 1.355 . S
C1334 C1336 1.415 . S
C1335 C1334 1.355 . S
C1335 C1337 1.419 . S
C1336 C1334 1.415 . S
C1336 C1341 1.425 . S
C1336 C1343 1.409 . S
C1337 H1329 0.930 . S
C1337 C1335 1.419 . S
C1337 C1338 1.362 . S
C1338 H1330 0.930 . S
C1338 C1337 1.362 . S
C1338 C1341 1.409 . S
C1339 H1331 0.930 . S
C1339 C1340 1.355 . S
C1339 C1341 1.415 . S
C1340 C1339 1.355 . S
C1340 C1342 1.419 . S
C1341 C1336 1.425 . S
C1341 C1338 1.409 . S
C1341 C1339 1.415 . S
C1342 H1332 0.930 . S
C1342 C1340 1.419 . S
C1342 C1343 1.362 . S
C1343 H1333 0.930 . S
C1343 C1336 1.409 . S
C1343 C1342 1.362 . S
H1344 C1350 0.930 . S
H1345 C1353 0.930 . S
H1346 C1354 0.930 . S
H1347 C1355 0.930 . S
H1348 C1358 0.930 . S
H1349 C1359 0.930 . S
C1350 H1344 0.930 . S
C1350 C1351 1.355 . S
C1350 C1352 1.415 . S
C1351 C1350 1.355 . S
C1351 C1353 1.419 . S
C1352 C1350 1.415 . S
C1352 C1357 1.425 . S
C1352 C1359 1.409 . S
C1353 H1345 0.930 . S
C1353 C1351 1.419 . S
C1353 C1354 1.362 . S
C1354 H1346 0.930 . S
C1354 C1353 1.362 . S
C1354 C1357 1.409 . S
C1355 H1347 0.930 . S
C1355 C1356 1.355 . S
C1355 C1357 1.415 . S
C1356 C1355 1.355 . S
C1356 C1358 1.419 . S
C1357 C1352 1.425 . S
C1357 C1354 1.409 . S
C1357 C1355 1.415 . S
C1358 H1348 0.930 . S
C1358 C1356 1.419 . S
C1358 C1359 1.362 . S
C1359 H1349 0.930 . S
C1359 C1352 1.409 . S
C1359 C1358 1.362 . S
C471 C79 1.375 . S
C476 C21 1.377 . S
C487 C108 1.377 . S
C492 C50 1.375 . S
C503 C137 1.287 . S
C508 C195 1.294 . S
C519 C166 1.287 . S
C524 C224 1.294 . S
C535 C253 1.231 . S
C540 C311 1.230 . S
C551 C282 1.370 . S
C556 C340 1.373 . S
C567 C427 1.338 . S
C572 C369 1.332 . S
C583 C456 1.231 . S
C588 C398 1.230 . S
C599 C3 1.169 . S
C604 C266 1.015 . S
C615 C295 0.991 . S
C620 C32 1.162 . S
C631 C61 1.168 . S
C636 C324 1.075 . S
C647 C237 1.044 . S
C652 C90 1.171 . S
C663 C119 1.143 . S
C668 C440 1.133 . S
C679 C148 1.167 . S
C684 C353 1.000 . S
C695 C177 1.138 . S
C700 C382 1.030 . S
C711 C206 1.169 . S
C716 C411 1.071 . S
C727 C235 1.138 . S
C732 C34 1.030 . S
C743 C63 1.003 . S
C748 C264 1.167 . S
C759 C293 1.162 . S
C764 C92 0.990 . S
C775 C5 0.989 . S
C780 C322 1.155 . S
C791 C351 1.134 . S
C796 C208 1.114 . S
C807 C121 0.989 . S
C812 C380 1.160 . S
C823 C409 1.171 . S
C828 C150 1.052 . S
C839 C179 1.134 . S
C844 C438 1.145 . S
C855 C184 1.413 . S
C860 C10 1.485 . S
C871 C39 1.466 . S
C876 C213 1.407 . S
C887 C68 1.459 . S
C892 C126 1.406 . S
C903 C97 1.412 . S
C908 C155 1.483 . S
C919 C416 1.520 . S
C924 C242 1.493 . S
C935 C271 1.429 . S
C940 C445 1.506 . S
C951 C358 1.481 . S
C956 C300 1.523 . S
C967 C387 1.462 . S
C972 C329 1.406 . S
C983 C245 2.274 . S
C988 C13 2.274 . S
C999 C274 2.314 . S
C1004 C42 2.314 . S
C1015 C303 2.305 . S
C1020 C71 2.305 . S
C1031 C332 2.314 1_655 S
C1036 C100 2.314 1_455 S
C1047 C361 2.263 . S
C1052 C129 2.263 . S
C1063 C158 2.274 . S
C1068 C390 2.274 . S
C1079 C187 2.261 1_545 S
C1084 C419 2.261 1_565 S
C1095 C216 2.261 . S
C1100 C448 2.261 . S
C1111 C37 1.872 . S
C1116 C15 2.062 . S
C1127 C66 1.843 . S
C1132 C44 2.074 . S
C1143 C95 1.901 1_655 S
C1148 C73 2.047 . S
C1159 C8 1.862 1_565 S
C1164 C102 2.066 . S
C1175 C131 2.068 . S
C1180 C211 1.858 . S
C1191 C160 2.073 . S
C1196 C124 1.828 . S
C1207 C189 2.080 . S
C1212 C153 1.815 1_655 S
C1223 C218 2.082 . S
C1228 C182 1.820 1_565 S
C1239 C247 2.045 . S
C1244 C269 1.904 . S
C1255 C276 2.073 . S
C1260 C298 1.827 . S
C1271 C305 2.078 . S
C1276 C327 1.818 1_455 S
C1287 C240 1.887 1_545 S
C1292 C334 2.048 . S
C1303 C443 1.869 . S
C1308 C363 2.055 . S
C1319 C392 2.063 . S
C1324 C356 1.870 . S
C1335 C385 1.893 1_455 S
C1340 C421 2.052 . S
C1351 C414 1.870 1_545 S
C1356 C450 2.055 . S
