# Generated by pormake.
# Topology wmb, (6)-cn, num edge types: 1
# Building blocks:
#     Node 0, Type 0, BuildingBlock: IZENUY_clean_sbu_0, # of connection points: 6
#     Node 1, Type 0, BuildingBlock: IZENUY_clean_sbu_0, # of connection points: 6
#     Node 2, Type 0, BuildingBlock: IZENUY_clean_sbu_0, # of connection points: 6
#     Node 3, Type 0, BuildingBlock: IZENUY_clean_sbu_0, # of connection points: 6
#     Node 4, Type 0, BuildingBlock: IZENUY_clean_sbu_0, # of connection points: 6
#     Node 5, Type 0, BuildingBlock: IZENUY_clean_sbu_0, # of connection points: 6
#     Edge 6, Type (0, 0), BuildingBlock: EZIPEK_clean_linker_0, # of connection points: 2
#     Edge 7, Type (0, 0), BuildingBlock: EZIPEK_clean_linker_0, # of connection points: 2
#     Edge 8, Type (0, 0), BuildingBlock: EZIPEK_clean_linker_0, # of connection points: 2
#     Edge 9, Type (0, 0), BuildingBlock: EZIPEK_clean_linker_0, # of connection points: 2
#     Edge 10, Type (0, 0), BuildingBlock: EZIPEK_clean_linker_0, # of connection points: 2
#     Edge 11, Type (0, 0), BuildingBlock: EZIPEK_clean_linker_0, # of connection points: 2
#     Edge 12, Type (0, 0), BuildingBlock: EZIPEK_clean_linker_0, # of connection points: 2
#     Edge 13, Type (0, 0), BuildingBlock: EZIPEK_clean_linker_0, # of connection points: 2
#     Edge 14, Type (0, 0), BuildingBlock: EZIPEK_clean_linker_0, # of connection points: 2
#     Edge 15, Type (0, 0), BuildingBlock: EZIPEK_clean_linker_0, # of connection points: 2
#     Edge 16, Type (0, 0), BuildingBlock: EZIPEK_clean_linker_0, # of connection points: 2
#     Edge 17, Type (0, 0), BuildingBlock: EZIPEK_clean_linker_0, # of connection points: 2
#     Edge 18, Type (0, 0), BuildingBlock: EZIPEK_clean_linker_0, # of connection points: 2
#     Edge 19, Type (0, 0), BuildingBlock: EZIPEK_clean_linker_0, # of connection points: 2
#     Edge 20, Type (0, 0), BuildingBlock: EZIPEK_clean_linker_0, # of connection points: 2
#     Edge 21, Type (0, 0), BuildingBlock: EZIPEK_clean_linker_0, # of connection points: 2
#     Edge 22, Type (0, 0), BuildingBlock: EZIPEK_clean_linker_0, # of connection points: 2
#     Edge 23, Type (0, 0), BuildingBlock: EZIPEK_clean_linker_0, # of connection points: 2
# Relax obj value: 0.257
# Max RMSD: 0.257
# Mean RMSD: 0.257
data_MOF--net-wmb--node1-IZENUY_clean_sbu_0--edge1-EZIPEK_clean_linker_0
_symmetry_space_group_name_H-M    P1
_symmetry_Int_Tables_number       1
_symmetry_cell_setting            triclinic
loop_
_symmetry_equiv_pos_as_xyz
'x, y, z'
_cell_length_a     19.829489
_cell_length_b     19.797171
_cell_length_c     31.52855
_cell_angle_alpha  89.620284
_cell_angle_beta   89.76061
_cell_angle_gamma 119.59608
loop_
_atom_site_label
_atom_site_type_symbol
_atom_site_fract_x
_atom_site_fract_y
_atom_site_fract_z
_atom_type_partial_charge
Fe0 Fe 0.48263 0.18142 0.06063 0.0
Fe1 Fe 0.5892 0.1452 0.00719 0.0
O2 O 0.5631 0.21398 0.02551 0.0
Fe3 Fe 0.61789 0.31327 0.00961 0.0
O4 O 0.6132 0.35174 0.06237 0.0
O5 O 0.54276 0.24613 0.10089 0.0
O6 O 0.49959 0.10802 0.08686 0.0
C7 C 0.56254 0.10709 0.09135 0.0
C8 C 0.47134 0.29834 0.01209 0.0
O9 O 0.61125 0.12803 0.06119 0.0
C10 C 0.60259 0.22531 0.93403 0.0
O11 O 0.41627 0.11184 0.02217 0.0
O12 O 0.49148 0.06199 0.01043 0.0
O13 O 0.53258 0.31736 0.991 0.0
O14 O 0.45211 0.25096 0.04286 0.0
C15 C 0.73651 0.27902 0.01432 0.0
O16 O 0.56909 0.16006 0.95286 0.0
O17 O 0.6313 0.28875 0.95468 0.0
C18 C 0.42583 0.05724 0.00851 0.0
O19 O 0.69227 0.21289 0.99956 0.0
O20 O 0.70976 0.32164 0.02658 0.0
C21 C 0.59026 0.31774 0.0982 0.0
Fe22 Fe 0.90523 0.46275 0.67529 0.0
Fe23 Fe 0.73916 0.32247 0.67627 0.0
O24 O 0.83707 0.36691 0.69275 0.0
Fe25 Fe 0.86819 0.31695 0.72754 0.0
O26 O 0.9409 0.40492 0.754 0.0
O27 O 0.92168 0.49811 0.72937 0.0
O28 O 0.83653 0.49806 0.67014 0.0
C29 C 0.76922 0.4732 0.68457 0.0
C30 C 0.99288 0.38557 0.67434 0.0
O31 O 0.72817 0.40291 0.69521 0.0
C32 C 0.76035 0.19405 0.67553 0.0
O33 O 0.89265 0.43395 0.6203 0.0
O34 O 0.76446 0.36352 0.62171 0.0
O35 O 0.93897 0.32168 0.68864 0.0
O36 O 0.98802 0.44664 0.67651 0.0
C37 C 0.72926 0.28518 0.76445 0.0
O38 O 0.73997 0.23688 0.65605 0.0
O39 O 0.80008 0.21911 0.70877 0.0
C40 C 0.82846 0.39969 0.60142 0.0
O41 O 0.69841 0.27509 0.72812 0.0
O42 O 0.80088 0.30979 0.76855 0.0
C43 C 0.94381 0.4697 0.7584 0.0
Fe44 Fe 0.75843 0.56354 0.38786 0.0
Fe45 Fe 0.60426 0.45182 0.3459 0.0
O46 O 0.70113 0.4781 0.35889 0.0
Fe47 Fe 0.73986 0.41755 0.34424 0.0
O48 O 0.75388 0.40093 0.39993 0.0
O49 O 0.80963 0.52338 0.41724 0.0
O50 O 0.68943 0.52839 0.43115 0.0
C51 C 0.61923 0.51038 0.42941 0.0
C52 C 0.87334 0.57126 0.33735 0.0
O53 O 0.58378 0.49141 0.39441 0.0
C54 C 0.66384 0.41686 0.2718 0.0
O55 O 0.71517 0.61911 0.36402 0.0
O56 O 0.63509 0.54089 0.31684 0.0
O57 O 0.84148 0.49765 0.3391 0.0
O58 O 0.83477 0.60418 0.34747 0.0
C59 C 0.58121 0.30741 0.36331 0.0
O60 O 0.60806 0.40992 0.29489 0.0
O61 O 0.7275 0.43025 0.28808 0.0
C62 C 0.6739 0.60822 0.33138 0.0
O63 O 0.56499 0.35909 0.37363 0.0
O64 O 0.6461 0.32581 0.3462 0.0
C65 C 0.79454 0.45474 0.42548 0.0
Fe66 Fe 0.3187 0.61793 0.99262 0.0
Fe67 Fe 0.19523 0.48734 0.93885 0.0
O68 O 0.22106 0.56281 0.97603 0.0
Fe69 Fe 0.14973 0.58309 0.9971 0.0
O70 O 0.20091 0.68324 0.97852 0.0
O71 O 0.31493 0.70862 1.00199 0.0
O72 O 0.35167 0.65343 0.93923 0.0
C73 C 0.33739 0.6105 0.9073 0.0
C74 C 0.24559 0.59966 0.06798 0.0
O75 O 0.28742 0.53872 0.90928 0.0
C76 C 0.06485 0.42444 0.99588 0.0
O77 O 0.34234 0.53895 0.98641 0.0
O78 O 0.23069 0.43601 0.97222 0.0
O79 O 0.19475 0.61021 0.04955 0.0
O80 O 0.29076 0.58494 0.04688 0.0
C81 C 0.10724 0.54967 0.91034 0.0
O82 O 0.0975 0.42467 0.96119 0.0
O83 O 0.09227 0.48516 0.01777 0.0
C84 C 0.30037 0.46573 0.98387 0.0
O85 O 0.15859 0.53164 0.90242 0.0
O86 O 0.09264 0.56021 0.94809 0.0
C87 C 0.26902 0.73167 0.98911 0.0
Fe88 Fe 0.42536 0.72343 0.66057 0.0
Fe89 Fe 0.56667 0.73493 0.61325 0.0
O90 O 0.48431 0.6828 0.64651 0.0
Fe91 Fe 0.46356 0.59253 0.66811 0.0
O92 O 0.36682 0.54279 0.64584 0.0
O93 O 0.33599 0.62862 0.66904 0.0
O94 O 0.39685 0.7197 0.60569 0.0
C95 C 0.44475 0.74959 0.57533 0.0
C96 C 0.4475 0.67195 0.73746 0.0
O97 O 0.51718 0.77508 0.5805 0.0
C98 C 0.61691 0.6592 0.67314 0.0
O99 O 0.50276 0.82623 0.65475 0.0
O100 O 0.6084 0.81769 0.64859 0.0
O101 O 0.42849 0.60851 0.71883 0.0
O102 O 0.4524 0.7285 0.71605 0.0
C103 C 0.5165 0.58974 0.58282 0.0
O104 O 0.62698 0.69766 0.63896 0.0
O105 O 0.55625 0.63786 0.69349 0.0
C106 C 0.57609 0.85751 0.65625 0.0
O107 O 0.53276 0.65844 0.57522 0.0
O108 O 0.49783 0.56154 0.6202 0.0
C109 C 0.31609 0.56093 0.65568 0.0
Fe110 Fe 0.33859 0.72414 0.3216 0.0
Fe111 Fe 0.3394 0.86337 0.27704 0.0
O112 O 0.38581 0.82538 0.30974 0.0
Fe113 Fe 0.47968 0.88775 0.33037 0.0
O114 O 0.52061 0.8333 0.30569 0.0
O115 O 0.42854 0.71851 0.32635 0.0
O116 O 0.33721 0.70089 0.26643 0.0
C117 C 0.30888 0.72285 0.23736 0.0
C118 C 0.39694 0.78434 0.399 0.0
O119 O 0.29316 0.77705 0.24292 0.0
C120 C 0.41459 0.98133 0.3403 0.0
O121 O 0.23927 0.70899 0.31865 0.0
O122 O 0.25403 0.82599 0.31171 0.0
O123 O 0.45992 0.83324 0.38097 0.0
O124 O 0.33721 0.74144 0.37783 0.0
C125 C 0.48911 0.94685 0.2465 0.0
O126 O 0.38023 0.95765 0.305 0.0
O127 O 0.4476 0.94744 0.3568 0.0
C128 C 0.21128 0.7543 0.31948 0.0
O129 O 0.41852 0.90207 0.23904 0.0
O130 O 0.51566 0.95384 0.28371 0.0
C131 C 0.49719 0.76264 0.31323 0.0
C132 C 0.34453 0.37138 0.95831 0.0
C133 C 0.33684 0.41582 0.99151 0.0
C134 C 0.42243 0.38866 0.03594 0.0
C135 C 0.42556 0.33929 0.00427 0.0
N136 N 0.37847 0.27339 0.93797 0.0
N137 N 0.35274 0.44942 0.06541 0.0
C138 C 0.38336 0.32773 0.96617 0.0
C139 C 0.37112 0.41915 0.03134 0.0
N140 N 0.31766 0.3732 0.91873 0.0
N141 N 0.47161 0.41018 0.06958 0.0
H142 H 0.31317 0.46954 0.06359 0.0
H143 H 0.36967 0.44639 0.09628 0.0
H144 H 0.51246 0.39235 0.07319 0.0
H145 H 0.47776 0.4523 0.09126 0.0
H146 H 0.32984 0.35009 0.89212 0.0
H147 H 0.28806 0.40301 0.91166 0.0
H148 H 0.34205 0.25606 0.9118 0.0
H149 H 0.4061 0.24076 0.94271 0.0
C150 C 0.67204 0.07601 0.6303 0.0
C151 C 0.7249 0.10854 0.66447 0.0
C152 C 0.68418 0.97607 0.69096 0.0
C153 C 0.62579 0.94409 0.65959 0.0
N154 N 0.56302 0.96475 0.59925 0.0
N155 N 0.80762 0.08445 0.71092 0.0
C156 C 0.61936 0.99445 0.62934 0.0
C157 C 0.73863 0.05724 0.69034 0.0
N158 N 0.67842 0.12133 0.59597 0.0
N159 N 0.68588 0.92946 0.72263 0.0
H160 H 0.8544 0.13988 0.70536 0.0
H161 H 0.82315 0.04873 0.72767 0.0
H162 H 0.64658 0.87003 0.72465 0.0
H163 H 0.72125 0.95111 0.74912 0.0
H164 H 0.64682 0.10051 0.56822 0.0
H165 H 0.72399 0.17759 0.5922 0.0
H166 H 0.54617 0.99834 0.58146 0.0
H167 H 0.53026 0.90593 0.59322 0.0
C168 C 0.09133 0.66766 0.36109 0.0
C169 C 0.12523 0.71862 0.32612 0.0
C170 C 0.99336 0.67893 0.3 0.0
C171 C 0.96037 0.6197 0.33184 0.0
N172 N 0.98532 0.5473 0.38652 0.0
N173 N 0.10768 0.76517 0.25831 0.0
C174 C 1.01132 0.61089 0.36053 0.0
C175 C 0.07606 0.72296 0.29463 0.0
N176 N 0.13559 0.67449 0.39565 0.0
N177 N 0.9459 0.69215 0.27412 0.0
H178 H 0.16718 0.79823 0.25294 0.0
H179 H 0.07492 0.76274 0.23204 0.0
H180 H 0.88569 0.65739 0.27449 0.0
H181 H 0.9661 0.74022 0.25392 0.0
H182 H 0.11231 0.64421 0.42399 0.0
H183 H 0.19378 0.71728 0.3977 0.0
H184 H 1.02245 0.53535 0.40432 0.0
H185 H 0.92877 0.50197 0.38742 0.0
C186 C 0.5609 0.07703 0.20884 0.0
C187 C 0.53803 0.99699 0.21078 0.0
C188 C 0.55596 0.99579 0.13392 0.0
C189 C 0.57351 0.07417 0.13152 0.0
N190 N 0.62439 0.19636 0.1671 0.0
N191 N 0.55008 0.89372 0.17929 0.0
C192 C 0.58653 0.11723 0.16929 0.0
C193 C 0.54725 0.96061 0.17449 0.0
N194 N 0.55468 0.11361 0.24396 0.0
N195 N 0.54389 0.95389 0.09778 0.0
H196 H 0.54939 0.87108 0.2094 0.0
H197 H 0.56308 0.86752 0.15442 0.0
H198 H 0.55167 0.97855 0.06756 0.0
H199 H 0.52237 0.89407 0.09805 0.0
H200 H 0.56315 0.1698 0.24322 0.0
H201 H 0.53793 0.08655 0.27359 0.0
H202 H 0.64069 0.23173 0.1937 0.0
H203 H 0.64776 0.22597 0.13857 0.0
C204 C 0.06408 0.56241 0.79626 0.0
C205 C 0.98255 0.51528 0.79626 0.0
C206 C 0.97872 0.51132 0.87386 0.0
C207 C 0.06151 0.55316 0.87384 0.0
N208 N 0.17878 0.64384 0.83707 0.0
N209 N 0.86078 0.46738 0.83263 0.0
C210 C 0.10267 0.58741 0.83554 0.0
C211 C 0.93941 0.49804 0.83446 0.0
N212 N 0.1048 0.57975 0.75895 0.0
N213 N 0.93759 0.47979 0.91048 0.0
H214 H 0.83179 0.45774 0.80383 0.0
H215 H 0.8255 0.45874 0.85896 0.0
H216 H 0.96222 0.48729 0.94027 0.0
H217 H 0.87789 0.44311 0.91146 0.0
H218 H 0.16496 0.60521 0.75731 0.0
H219 H 0.07774 0.56529 0.7295 0.0
H220 H 0.21078 0.6753 0.81061 0.0
H221 H 0.20723 0.6645 0.86579 0.0
C222 C 0.63517 0.59168 0.4923 0.0
C223 C 0.5852 0.52613 0.46799 0.0
C224 C 0.48403 0.49251 0.52296 0.0
C225 C 0.53932 0.55238 0.54894 0.0
N226 N 0.67525 0.63323 0.56324 0.0
N227 N 0.46329 0.40555 0.46413 0.0
C228 C 0.61733 0.59372 0.53513 0.0
C229 C 0.50952 0.47371 0.48431 0.0
N230 N 0.69868 0.65362 0.47446 0.0
N231 N 0.40774 0.4549 0.5347 0.0
H232 H 0.48026 0.38942 0.43644 0.0
H233 H 0.41076 0.36252 0.47677 0.0
H234 H 0.38882 0.46595 0.56343 0.0
H235 H 0.36358 0.41644 0.51497 0.0
H236 H 0.73346 0.70433 0.49123 0.0
H237 H 0.7102 0.65837 0.44197 0.0
H238 H 0.73381 0.66148 0.55461 0.0
H239 H 0.66445 0.62514 0.59556 0.0
C240 C 0.32987 0.92978 0.03853 0.0
C241 C 0.35946 0.97823 1.00232 0.0
C242 C 0.30368 0.86281 0.95719 0.0
C243 C 0.29102 0.81534 0.99368 0.0
N244 N 0.28911 0.80423 0.07017 0.0
N245 N 0.37378 0.99289 0.92664 0.0
C246 C 0.30261 0.84897 0.0347 0.0
C247 C 0.345 0.94523 0.96137 0.0
N248 N 0.32826 0.96135 0.07667 0.0
N249 N 0.27611 0.82944 0.91877 0.0
H250 H 0.40059 0.05329 0.92894 0.0
H251 H 0.37397 0.97286 0.89619 0.0
H252 H 0.24395 0.76949 0.91501 0.0
H253 H 0.27844 0.8609 0.89167 0.0
H254 H 0.30172 0.92849 0.10384 0.0
H255 H 0.34587 1.0201 0.07993 0.0
H256 H 0.30767 0.82672 0.10033 0.0
H257 H 0.26169 0.7443 0.06911 0.0
C258 C 0.19809 0.47038 0.69962 0.0
C259 C 0.23313 0.49891 0.65904 0.0
C260 C 0.10556 0.4238 0.62585 0.0
C261 C 0.07156 0.3976 0.6665 0.0
N262 N 0.08771 0.37206 0.73918 0.0
N263 N 0.22305 0.48706 0.5829 0.0
C264 C 0.11899 0.41221 0.70227 0.0
C265 C 0.18782 0.46969 0.62184 0.0
N266 N 0.23855 0.50143 0.73591 0.0
N267 N 0.05846 0.40788 0.59152 0.0
H268 H 0.28278 0.52176 0.57904 0.0
H269 H 0.19405 0.46235 0.55486 0.0
H270 H 0.99852 0.37115 0.59375 0.0
H271 H 0.07807 0.43285 0.56164 0.0
H272 H 0.21297 0.48969 0.76596 0.0
H273 H 0.29616 0.5443 0.73598 0.0
H274 H 0.12079 0.37559 0.76553 0.0
H275 H 1.0299 0.32846 0.74167 0.0
C276 C 0.61771 0.76417 0.34126 0.0
C277 C 0.55389 0.73354 0.31264 0.0
C278 C 0.59908 0.64843 0.28305 0.0
C279 C 0.65207 0.66749 0.31684 0.0
N280 N 0.73879 0.77075 0.36214 0.0
N281 N 0.48008 0.63991 0.25871 0.0
C282 C 0.66972 0.73374 0.34136 0.0
C283 C 0.54404 0.67446 0.28384 0.0
N284 N 0.6258 0.81846 0.37037 0.0
N285 N 0.60407 0.60837 0.2492 0.0
H286 H 0.43686 0.65506 0.25917 0.0
H287 H 0.46622 0.59111 0.24048 0.0
H288 H 0.64859 0.59488 0.24641 0.0
H289 H 0.57128 0.59809 0.22182 0.0
H290 H 0.66419 0.83496 0.39563 0.0
H291 H 0.59036 0.84336 0.37138 0.0
H292 H 0.75843 0.82291 0.37811 0.0
H293 H 0.78149 0.75509 0.35816 0.0
C294 C 0.9492 0.35869 0.04545 0.0
C295 C 0.98261 0.36268 0.00496 0.0
C296 C 0.85538 0.30595 0.97246 0.0
C297 C 0.82175 0.30891 0.0119 0.0
N298 N 0.834 0.32896 0.08748 0.0
N299 N 0.95961 0.29691 0.93811 0.0
C300 C 0.8679 0.3322 0.0491 0.0
C301 C 0.9333 0.32245 0.97095 0.0
N302 N 0.99528 0.37564 0.08025 0.0
N303 N 0.8148 0.29268 0.93572 0.0
H304 H 1.01323 0.29912 0.93893 0.0
H305 H 0.92391 0.26267 0.91378 0.0
H306 H 0.7606 0.28862 0.9347 0.0
H307 H 0.83907 0.2964 0.9058 0.0
H308 H 0.97683 0.37357 0.11137 0.0
H309 H 0.05216 0.38604 0.0776 0.0
H310 H 0.86423 0.34988 0.11558 0.0
H311 H 0.77433 0.30574 0.09135 0.0
C312 C 0.73857 0.65047 0.6867 0.0
C313 C 0.65733 0.61332 0.68014 0.0
C314 C 0.6559 0.49095 0.66857 0.0
C315 C 0.73335 0.52375 0.68216 0.0
N316 N 0.84514 0.63455 0.71224 0.0
N317 N 0.5365 0.48736 0.68303 0.0
C318 C 0.77434 0.60383 0.69336 0.0
C319 C 0.61494 0.53046 0.67691 0.0
N320 N 0.78117 0.72962 0.68753 0.0
N321 N 0.62146 0.42362 0.64599 0.0
H322 H 0.50125 0.50864 0.69384 0.0
H323 H 0.50743 0.42673 0.68307 0.0
H324 H 0.65125 0.39583 0.63538 0.0
H325 H 0.56641 0.40188 0.63289 0.0
H326 H 0.8416 0.75972 0.68794 0.0
H327 H 0.75605 0.76501 0.68521 0.0
H328 H 0.87406 0.69066 0.72429 0.0
H329 H 0.87122 0.6016 0.71995 0.0
C330 C 0.45221 0.19074 0.34312 0.0
C331 C 0.52176 0.22329 0.36731 0.0
C332 C 0.48736 0.0923 0.39148 0.0
C333 C 0.43346 0.05998 0.35776 0.0
N334 N 0.34528 0.07569 0.31188 0.0
N335 N 0.60048 0.20482 0.41896 0.0
C336 C 0.40935 0.10842 0.33699 0.0
C337 C 0.53751 0.17389 0.39299 0.0
N338 N 0.42682 0.23803 0.3264 0.0
N339 N 0.48702 0.04559 0.42359 0.0
H340 H 0.63412 0.26437 0.42401 0.0
H341 H 0.62063 0.17138 0.43415 0.0
H342 H 0.44438 0.98747 0.42607 0.0
H343 H 0.52104 0.06647 0.4506 0.0
H344 H 0.37353 0.21798 0.31171 0.0
H345 H 0.45708 0.29819 0.32908 0.0
H346 H 0.3312 0.10664 0.29027 0.0
H347 H 0.3045 1.01669 0.31376 0.0
C348 C 0.55233 0.33299 0.17085 0.0
C349 C 0.611 0.36057 0.13915 0.0
C350 C 0.70478 0.44004 0.19364 0.0
C351 C 0.6486 0.39778 0.22582 0.0
N352 N 0.52509 0.2842 0.2421 0.0
N353 N 0.74796 0.43727 0.12201 0.0
C354 C 0.57376 0.33905 0.21366 0.0
C355 C 0.68882 0.41392 0.15076 0.0
N356 N 0.47585 0.29874 0.16018 0.0
N357 N 0.77182 0.50612 0.20338 0.0
H358 H 0.73947 0.42122 0.09032 0.0
H359 H 0.80616 0.46857 0.13055 0.0
H360 H 0.78405 0.52922 0.2338 0.0
H361 H 0.81121 0.54231 0.18034 0.0
H362 H 0.43185 0.28222 0.18285 0.0
H363 H 0.45766 0.29506 0.12887 0.0
H364 H 0.47179 0.23732 0.2335 0.0
H365 H 0.54355 0.27856 0.2721 0.0
C366 C 0.65327 0.18535 0.87002 0.0
C367 C 0.62021 0.22896 0.88758 0.0
C368 C 0.64937 0.30398 0.82103 0.0
C369 C 0.68028 0.25908 0.8035 0.0
N370 N 0.6885 0.14198 0.80621 0.0
N371 N 0.56639 0.31295 0.87476 0.0
C372 C 0.67409 0.19454 0.82633 0.0
C373 C 0.61172 0.28294 0.86139 0.0
N374 N 0.67139 0.14015 0.8952 0.0
N375 N 0.65905 0.36886 0.80021 0.0
H376 H 0.5359 0.2966 0.90347 0.0
H377 H 0.55239 0.34717 0.85554 0.0
H378 H 0.68541 0.38549 0.77049 0.0
H379 H 0.6461 0.40901 0.81375 0.0
H380 H 0.70378 0.11524 0.88439 0.0
H381 H 0.66248 0.13389 0.9278 0.0
H382 H 0.67749 0.08953 0.82008 0.0
H383 H 0.70315 0.14688 0.77409 0.0
C384 C 0.807 0.36546 0.48157 0.0
C385 C 0.8233 0.44048 0.46702 0.0
C386 C 0.84762 0.48782 0.53959 0.0
C387 C 0.82818 0.41301 0.55497 0.0
N388 N 0.8199 0.29051 0.53938 0.0
N389 N 0.90828 0.57716 0.48176 0.0
C390 C 0.81645 0.35421 0.52561 0.0
C391 C 0.85909 0.50324 0.49577 0.0
N392 N 0.78629 0.30628 0.45363 0.0
N393 N 0.85397 0.5445 0.5663 0.0
H394 H 0.92785 0.58989 0.45047 0.0
H395 H 0.93896 0.62323 0.50239 0.0
H396 H 0.8442 0.53573 0.59867 0.0
H397 H 0.86106 0.59749 0.55532 0.0
H398 H 0.76283 0.24843 0.46309 0.0
H399 H 0.79446 0.31533 0.42101 0.0
H400 H 0.81806 0.24813 0.51929 0.0
H401 H 0.8332 0.28475 0.57071 0.0
C402 C 0.39707 0.70852 0.84707 0.0
C403 C 0.38683 0.64077 0.86864 0.0
C404 C 0.4472 0.61138 0.80903 0.0
C405 C 0.44708 0.67289 0.78523 0.0
N406 N 0.46855 0.80354 0.79219 0.0
N407 N 0.43186 0.54897 0.87775 0.0
C408 C 0.43659 0.7292 0.80739 0.0
C409 C 0.421 0.59845 0.85188 0.0
N410 N 0.36706 0.75182 0.86336 0.0
N411 N 0.47396 0.56649 0.7911 0.0
H412 H 0.41798 0.5428 0.91001 0.0
H413 H 0.46163 0.52029 0.86879 0.0
H414 H 0.50881 0.58392 0.76406 0.0
H415 H 0.46318 0.51315 0.80349 0.0
H416 H 0.36475 0.7958 0.84619 0.0
H417 H 0.33975 0.74054 0.89281 0.0
H418 H 0.46666 0.84795 0.80876 0.0
H419 H 0.50765 0.82367 0.76679 0.0
C420 C 0.41444 0.69569 0.50264 0.0
C421 C 0.41618 0.75005 0.53199 0.0
C422 C 0.38049 0.81112 0.47507 0.0
C423 C 0.39722 0.76835 0.44493 0.0
N424 N 0.43326 0.67048 0.43029 0.0
N425 N 0.3927 0.85541 0.54786 0.0
C426 C 0.41479 0.71052 0.45876 0.0
C427 C 0.39618 0.80643 0.51881 0.0
N428 N 0.40743 0.62731 0.51685 0.0
N429 N 0.34732 0.85383 0.46201 0.0
H430 H 0.39731 0.84863 0.58037 0.0
H431 H 0.38778 0.90383 0.53967 0.0
H432 H 0.33366 0.85652 0.43032 0.0
H433 H 0.32761 0.88117 0.48272 0.0
H434 H 0.39885 0.58217 0.49679 0.0
H435 H 0.39943 0.61217 0.54891 0.0
H436 H 0.45575 0.63479 0.43924 0.0
H437 H 0.43108 0.67685 0.39772 0.0
C438 C 0.20005 0.60026 0.14247 0.0
C439 C 0.26252 0.62219 0.11325 0.0
C440 C 0.35426 0.69383 0.16963 0.0
C441 C 0.29196 0.68309 0.19615 0.0
N442 N 0.15449 0.62835 0.20795 0.0
N443 N 0.39987 0.70734 0.09785 0.0
C444 C 0.2144 0.63706 0.18258 0.0
C445 C 0.34006 0.67267 0.12652 0.0
N446 N 0.12747 0.5424 0.13243 0.0
N447 N 0.42777 0.72623 0.18507 0.0
H448 H 0.39358 0.70169 0.06519 0.0
H449 H 0.45548 0.75013 0.10618 0.0
H450 H 0.44266 0.74969 0.21526 0.0
H451 H 0.47265 0.72424 0.1688 0.0
H452 H 0.08108 0.51865 0.15379 0.0
H453 H 0.11563 0.51268 0.10392 0.0
H454 H 0.09741 0.60372 0.19763 0.0
H455 H 0.16244 0.6496 0.23876 0.0
loop_
_geom_bond_atom_site_label_1
_geom_bond_atom_site_label_2
_geom_bond_distance
_geom_bond_site_symmetry_2
_ccdc_geom_bond_type
Fe0 O2 1.918 . S
Fe0 O5 1.997 . S
Fe0 O6 2.002 . S
Fe0 O11 1.976 . S
Fe0 O14 1.996 . S
Fe1 O2 1.918 . S
Fe1 O9 1.997 . S
Fe1 O12 1.996 1_554 S
Fe1 O16 1.976 1_554 S
Fe1 O19 2.002 . S
O2 Fe0 1.918 . S
O2 Fe1 1.918 . S
O2 Fe3 1.918 . S
Fe3 O2 1.918 . S
Fe3 O4 2.002 . S
Fe3 O13 1.979 . S
Fe3 O17 1.996 1_554 S
Fe3 O20 1.997 . S
O4 Fe3 2.002 . S
O4 C21 1.295 . S
O5 Fe0 1.997 . S
O5 C21 1.235 . S
O6 Fe0 2.002 . S
O6 C7 1.295 . S
C7 O6 1.295 . S
C7 O9 1.235 . S
C8 O13 1.290 . S
C8 O14 1.255 . S
O9 Fe1 1.997 . S
O9 C7 1.235 . S
C10 O16 1.287 . S
C10 O17 1.255 . S
O11 Fe0 1.976 . S
O11 C18 1.298 . S
O12 Fe1 1.996 1_556 S
O12 C18 1.250 1_556 S
O13 Fe3 1.979 . S
O13 C8 1.290 . S
O14 Fe0 1.996 . S
O14 C8 1.255 . S
C15 O19 1.295 . S
C15 O20 1.235 . S
O16 Fe1 1.976 1_556 S
O16 C10 1.287 . S
O17 Fe3 1.996 1_556 S
O17 C10 1.255 . S
C18 O11 1.298 . S
C18 O12 1.250 1_554 S
O19 Fe1 2.002 . S
O19 C15 1.295 . S
O20 Fe3 1.997 . S
O20 C15 1.235 . S
C21 O4 1.295 . S
C21 O5 1.235 . S
Fe22 O24 1.918 . S
Fe22 O27 1.997 . S
Fe22 O28 2.002 . S
Fe22 O33 1.976 . S
Fe22 O36 1.996 . S
Fe23 O24 1.918 . S
Fe23 O31 1.997 . S
Fe23 O34 1.996 . S
Fe23 O38 1.976 . S
Fe23 O41 2.002 . S
O24 Fe22 1.918 . S
O24 Fe23 1.918 . S
O24 Fe25 1.918 . S
Fe25 O24 1.918 . S
Fe25 O26 2.002 . S
Fe25 O35 1.976 . S
Fe25 O39 1.996 . S
Fe25 O42 1.997 . S
O26 Fe25 2.002 . S
O26 C43 1.295 . S
O27 Fe22 1.997 . S
O27 C43 1.235 . S
O28 Fe22 2.002 . S
O28 C29 1.295 . S
C29 O28 1.295 . S
C29 O31 1.235 . S
C30 O35 1.287 . S
C30 O36 1.255 . S
O31 Fe23 1.997 . S
O31 C29 1.235 . S
C32 O38 1.287 . S
C32 O39 1.255 . S
O33 Fe22 1.976 . S
O33 C40 1.287 . S
O34 Fe23 1.996 . S
O34 C40 1.255 . S
O35 Fe25 1.976 . S
O35 C30 1.287 . S
O36 Fe22 1.996 . S
O36 C30 1.255 . S
C37 O41 1.295 . S
C37 O42 1.235 . S
O38 Fe23 1.976 . S
O38 C32 1.287 . S
O39 Fe25 1.996 . S
O39 C32 1.255 . S
C40 O33 1.287 . S
C40 O34 1.255 . S
O41 Fe23 2.002 . S
O41 C37 1.295 . S
O42 Fe25 1.997 . S
O42 C37 1.235 . S
C43 O26 1.295 . S
C43 O27 1.235 . S
Fe44 O46 1.918 . S
Fe44 O49 1.997 . S
Fe44 O50 2.002 . S
Fe44 O55 1.976 . S
Fe44 O58 1.996 . S
Fe45 O46 1.918 . S
Fe45 O53 1.997 . S
Fe45 O56 1.996 . S
Fe45 O60 1.976 . S
Fe45 O63 2.002 . S
O46 Fe44 1.918 . S
O46 Fe45 1.918 . S
O46 Fe47 1.918 . S
Fe47 O46 1.918 . S
Fe47 O48 2.002 . S
Fe47 O57 1.976 . S
Fe47 O61 1.996 . S
Fe47 O64 1.997 . S
O48 Fe47 2.002 . S
O48 C65 1.295 . S
O49 Fe44 1.997 . S
O49 C65 1.235 . S
O50 Fe44 2.002 . S
O50 C51 1.295 . S
C51 O50 1.295 . S
C51 O53 1.235 . S
C52 O57 1.287 . S
C52 O58 1.255 . S
O53 Fe45 1.997 . S
O53 C51 1.235 . S
C54 O60 1.287 . S
C54 O61 1.255 . S
O55 Fe44 1.976 . S
O55 C62 1.287 . S
O56 Fe45 1.996 . S
O56 C62 1.255 . S
O57 Fe47 1.976 . S
O57 C52 1.287 . S
O58 Fe44 1.996 . S
O58 C52 1.255 . S
C59 O63 1.295 . S
C59 O64 1.235 . S
O60 Fe45 1.976 . S
O60 C54 1.287 . S
O61 Fe47 1.996 . S
O61 C54 1.255 . S
C62 O55 1.287 . S
C62 O56 1.255 . S
O63 Fe45 2.002 . S
O63 C59 1.295 . S
O64 Fe47 1.997 . S
O64 C59 1.235 . S
C65 O48 1.295 . S
C65 O49 1.235 . S
Fe66 O68 1.918 . S
Fe66 O71 1.997 . S
Fe66 O72 2.002 . S
Fe66 O77 1.979 . S
Fe66 O80 1.996 1_556 S
Fe67 O68 1.918 . S
Fe67 O75 1.997 . S
Fe67 O78 1.996 . S
Fe67 O82 1.976 . S
Fe67 O85 2.002 . S
O68 Fe66 1.918 . S
O68 Fe67 1.918 . S
O68 Fe69 1.918 . S
Fe69 O68 1.918 . S
Fe69 O70 2.002 . S
Fe69 O79 1.976 1_556 S
Fe69 O83 1.996 1_556 S
Fe69 O86 1.997 . S
O70 Fe69 2.002 . S
O70 C87 1.295 . S
O71 Fe66 1.997 . S
O71 C87 1.235 . S
O72 Fe66 2.002 . S
O72 C73 1.295 . S
C73 O72 1.295 . S
C73 O75 1.235 . S
C74 O79 1.287 . S
C74 O80 1.255 . S
O75 Fe67 1.997 . S
O75 C73 1.235 . S
C76 O82 1.298 . S
C76 O83 1.250 1_556 S
O77 Fe66 1.979 . S
O77 C84 1.290 . S
O78 Fe67 1.996 . S
O78 C84 1.255 . S
O79 Fe69 1.976 1_554 S
O79 C74 1.287 . S
O80 Fe66 1.996 1_554 S
O80 C74 1.255 . S
C81 O85 1.295 . S
C81 O86 1.235 . S
O82 Fe67 1.976 . S
O82 C76 1.298 . S
O83 Fe69 1.996 1_554 S
O83 C76 1.250 1_554 S
C84 O77 1.290 . S
C84 O78 1.255 . S
O85 Fe67 2.002 . S
O85 C81 1.295 . S
O86 Fe69 1.997 . S
O86 C81 1.235 . S
C87 O70 1.295 . S
C87 O71 1.235 . S
Fe88 O90 1.918 . S
Fe88 O93 1.997 . S
Fe88 O94 2.002 . S
Fe88 O99 1.976 . S
Fe88 O102 1.996 . S
Fe89 O90 1.918 . S
Fe89 O97 1.997 . S
Fe89 O100 1.996 . S
Fe89 O104 1.976 . S
Fe89 O107 2.002 . S
O90 Fe88 1.918 . S
O90 Fe89 1.918 . S
O90 Fe91 1.918 . S
Fe91 O90 1.918 . S
Fe91 O92 2.002 . S
Fe91 O101 1.976 . S
Fe91 O105 1.996 . S
Fe91 O108 1.997 . S
O92 Fe91 2.002 . S
O92 C109 1.295 . S
O93 Fe88 1.997 . S
O93 C109 1.235 . S
O94 Fe88 2.002 . S
O94 C95 1.295 . S
C95 O94 1.295 . S
C95 O97 1.235 . S
C96 O101 1.287 . S
C96 O102 1.255 . S
O97 Fe89 1.997 . S
O97 C95 1.235 . S
C98 O104 1.287 . S
C98 O105 1.255 . S
O99 Fe88 1.976 . S
O99 C106 1.287 . S
O100 Fe89 1.996 . S
O100 C106 1.255 . S
O101 Fe91 1.976 . S
O101 C96 1.287 . S
O102 Fe88 1.996 . S
O102 C96 1.255 . S
C103 O107 1.295 . S
C103 O108 1.235 . S
O104 Fe89 1.976 . S
O104 C98 1.287 . S
O105 Fe91 1.996 . S
O105 C98 1.255 . S
C106 O99 1.287 . S
C106 O100 1.255 . S
O107 Fe89 2.002 . S
O107 C103 1.295 . S
O108 Fe91 1.997 . S
O108 C103 1.235 . S
C109 O92 1.295 . S
C109 O93 1.235 . S
Fe110 O112 1.918 . S
Fe110 O115 1.997 . S
Fe110 O116 2.002 . S
Fe110 O121 1.976 . S
Fe110 O124 1.996 . S
Fe111 O112 1.918 . S
Fe111 O119 1.997 . S
Fe111 O122 1.996 . S
Fe111 O126 1.976 . S
Fe111 O129 2.002 . S
O112 Fe110 1.918 . S
O112 Fe111 1.918 . S
O112 Fe113 1.918 . S
Fe113 O112 1.918 . S
Fe113 O114 2.002 . S
Fe113 O123 1.976 . S
Fe113 O127 1.996 . S
Fe113 O130 1.997 . S
O114 Fe113 2.002 . S
O114 C131 1.295 . S
O115 Fe110 1.997 . S
O115 C131 1.235 . S
O116 Fe110 2.002 . S
O116 C117 1.295 . S
C117 O116 1.295 . S
C117 O119 1.235 . S
C118 O123 1.287 . S
C118 O124 1.255 . S
O119 Fe111 1.997 . S
O119 C117 1.235 . S
C120 O126 1.287 . S
C120 O127 1.255 . S
O121 Fe110 1.976 . S
O121 C128 1.287 . S
O122 Fe111 1.996 . S
O122 C128 1.255 . S
O123 Fe113 1.976 . S
O123 C118 1.287 . S
O124 Fe110 1.996 . S
O124 C118 1.255 . S
C125 O129 1.295 . S
C125 O130 1.235 . S
O126 Fe111 1.976 . S
O126 C120 1.287 . S
O127 Fe113 1.996 . S
O127 C120 1.255 . S
C128 O121 1.287 . S
C128 O122 1.255 . S
O129 Fe111 2.002 . S
O129 C125 1.295 . S
O130 Fe113 1.997 . S
O130 C125 1.235 . S
C131 O114 1.295 . S
C131 O115 1.235 . S
C132 C133 1.363 . S
C132 C138 1.379 . S
C132 N140 1.356 . S
C133 C132 1.363 . S
C133 C139 1.363 1_556 S
C134 C135 1.363 . S
C134 C139 1.379 . S
C134 N141 1.356 . S
C135 C134 1.363 . S
C135 C138 1.363 1_554 S
N136 C138 1.356 . S
N136 H148 0.984 . S
N136 H149 0.985 . S
N137 C139 1.356 . S
N137 H142 0.984 . S
N137 H143 0.985 . S
C138 C132 1.379 . S
C138 C135 1.363 1_556 S
C138 N136 1.356 . S
C139 C133 1.363 1_554 S
C139 C134 1.379 . S
C139 N137 1.356 . S
N140 C132 1.356 . S
N140 H146 0.984 . S
N140 H147 0.984 . S
N141 C134 1.356 . S
N141 H144 0.984 . S
N141 H145 0.985 . S
H142 N137 0.984 . S
H143 N137 0.985 . S
H144 N141 0.984 . S
H145 N141 0.985 . S
H146 N140 0.984 . S
H147 N140 0.984 . S
H148 N136 0.984 . S
H149 N136 0.985 . S
C150 C151 1.363 . S
C150 C156 1.379 1_545 S
C150 N158 1.356 . S
C151 C150 1.363 . S
C151 C157 1.363 . S
C152 C153 1.363 . S
C152 C157 1.379 1_565 S
C152 N159 1.356 . S
C153 C152 1.363 . S
C153 C156 1.363 . S
N154 C156 1.356 . S
N154 H166 0.984 . S
N154 H167 0.985 . S
N155 C157 1.356 . S
N155 H160 0.984 . S
N155 H161 0.985 . S
C156 C150 1.379 1_565 S
C156 C153 1.363 . S
C156 N154 1.356 . S
C157 C151 1.363 . S
C157 C152 1.379 1_545 S
C157 N155 1.356 . S
N158 C150 1.356 . S
N158 H164 0.984 . S
N158 H165 0.984 . S
N159 C152 1.356 . S
N159 H162 0.984 . S
N159 H163 0.985 . S
H160 N155 0.984 . S
H161 N155 0.985 . S
H162 N159 0.984 . S
H163 N159 0.985 . S
H164 N158 0.984 . S
H165 N158 0.984 . S
H166 N154 0.984 . S
H167 N154 0.985 . S
C168 C169 1.363 . S
C168 C174 1.379 1_455 S
C168 N176 1.356 . S
C169 C168 1.363 . S
C169 C175 1.363 . S
C170 C171 1.363 . S
C170 C175 1.379 1_655 S
C170 N177 1.356 . S
C171 C170 1.363 . S
C171 C174 1.363 . S
N172 C174 1.356 . S
N172 H184 0.984 . S
N172 H185 0.985 . S
N173 C175 1.356 . S
N173 H178 0.984 . S
N173 H179 0.985 . S
C174 C168 1.379 1_655 S
C174 C171 1.363 . S
C174 N172 1.356 . S
C175 C169 1.363 . S
C175 C170 1.379 1_455 S
C175 N173 1.356 . S
N176 C168 1.356 . S
N176 H182 0.984 . S
N176 H183 0.984 . S
N177 C170 1.356 . S
N177 H180 0.984 . S
N177 H181 0.985 . S
H178 N173 0.984 . S
H179 N173 0.985 . S
H180 N177 0.984 . S
H181 N177 0.985 . S
H182 N176 0.984 . S
H183 N176 0.984 . S
H184 N172 0.984 . S
H185 N172 0.985 . S
C186 C187 1.363 1_545 S
C186 C192 1.379 . S
C186 N194 1.356 . S
C187 C186 1.363 1_565 S
C187 C193 1.363 . S
C188 C189 1.363 1_565 S
C188 C193 1.379 . S
C188 N195 1.356 . S
C189 C188 1.363 1_545 S
C189 C192 1.363 . S
N190 C192 1.356 . S
N190 H202 0.984 . S
N190 H203 0.985 . S
N191 C193 1.356 . S
N191 H196 0.984 . S
N191 H197 0.985 . S
C192 C186 1.379 . S
C192 C189 1.363 . S
C192 N190 1.356 . S
C193 C187 1.363 . S
C193 C188 1.379 . S
C193 N191 1.356 . S
N194 C186 1.356 . S
N194 H200 0.984 . S
N194 H201 0.984 . S
N195 C188 1.356 . S
N195 H198 0.984 . S
N195 H199 0.985 . S
H196 N191 0.984 . S
H197 N191 0.985 . S
H198 N195 0.984 . S
H199 N195 0.985 . S
H200 N194 0.984 . S
H201 N194 0.984 . S
H202 N190 0.984 . S
H203 N190 0.985 . S
C204 C205 1.363 1_455 S
C204 C210 1.379 . S
C204 N212 1.356 . S
C205 C204 1.363 1_655 S
C205 C211 1.363 . S
C206 C207 1.363 1_655 S
C206 C211 1.379 . S
C206 N213 1.356 . S
C207 C206 1.363 1_455 S
C207 C210 1.363 . S
N208 C210 1.356 . S
N208 H220 0.984 . S
N208 H221 0.985 . S
N209 C211 1.356 . S
N209 H214 0.984 . S
N209 H215 0.985 . S
C210 C204 1.379 . S
C210 C207 1.363 . S
C210 N208 1.356 . S
C211 C205 1.363 . S
C211 C206 1.379 . S
C211 N209 1.356 . S
N212 C204 1.356 . S
N212 H218 0.984 . S
N212 H219 0.984 . S
N213 C206 1.356 . S
N213 H216 0.984 . S
N213 H217 0.985 . S
H214 N209 0.984 . S
H215 N209 0.985 . S
H216 N213 0.984 . S
H217 N213 0.985 . S
H218 N212 0.984 . S
H219 N212 0.984 . S
H220 N208 0.984 . S
H221 N208 0.985 . S
C222 C223 1.363 . S
C222 C228 1.379 . S
C222 N230 1.356 . S
C223 C222 1.363 . S
C223 C229 1.363 . S
C224 C225 1.363 . S
C224 C229 1.379 . S
C224 N231 1.356 . S
C225 C224 1.363 . S
C225 C228 1.363 . S
N226 C228 1.356 . S
N226 H238 0.984 . S
N226 H239 0.985 . S
N227 C229 1.356 . S
N227 H232 0.984 . S
N227 H233 0.985 . S
C228 C222 1.379 . S
C228 C225 1.363 . S
C228 N226 1.356 . S
C229 C223 1.363 . S
C229 C224 1.379 . S
C229 N227 1.356 . S
N230 C222 1.356 . S
N230 H236 0.984 . S
N230 H237 0.984 . S
N231 C224 1.356 . S
N231 H234 0.984 . S
N231 H235 0.985 . S
H232 N227 0.984 . S
H233 N227 0.985 . S
H234 N231 0.984 . S
H235 N231 0.985 . S
H236 N230 0.984 . S
H237 N230 0.984 . S
H238 N226 0.984 . S
H239 N226 0.985 . S
C240 C241 1.363 1_554 S
C240 C246 1.379 . S
C240 N248 1.356 . S
C241 C240 1.363 1_556 S
C241 C247 1.363 . S
C242 C243 1.363 . S
C242 C247 1.379 . S
C242 N249 1.356 . S
C243 C242 1.363 . S
C243 C246 1.363 1_556 S
N244 C246 1.356 . S
N244 H256 0.984 . S
N244 H257 0.985 . S
N245 C247 1.356 . S
N245 H250 0.984 1_565 S
N245 H251 0.985 . S
C246 C240 1.379 . S
C246 C243 1.363 1_554 S
C246 N244 1.356 . S
C247 C241 1.363 . S
C247 C242 1.379 . S
C247 N245 1.356 . S
N248 C240 1.356 . S
N248 H254 0.984 . S
N248 H255 0.984 . S
N249 C242 1.356 . S
N249 H252 0.984 . S
N249 H253 0.985 . S
H250 N245 0.984 1_545 S
H251 N245 0.985 . S
H252 N249 0.984 . S
H253 N249 0.985 . S
H254 N248 0.984 . S
H255 N248 0.984 . S
H256 N244 0.984 . S
H257 N244 0.985 . S
C258 C259 1.363 . S
C258 C264 1.379 . S
C258 N266 1.356 . S
C259 C258 1.363 . S
C259 C265 1.363 . S
C260 C261 1.363 . S
C260 C265 1.379 . S
C260 N267 1.356 . S
C261 C260 1.363 . S
C261 C264 1.363 . S
N262 C264 1.356 . S
N262 H274 0.984 . S
N262 H275 0.985 . S
N263 C265 1.356 . S
N263 H268 0.984 . S
N263 H269 0.985 . S
C264 C258 1.379 . S
C264 C261 1.363 . S
C264 N262 1.356 . S
C265 C259 1.363 . S
C265 C260 1.379 . S
C265 N263 1.356 . S
N266 C258 1.356 . S
N266 H272 0.984 . S
N266 H273 0.984 . S
N267 C260 1.356 . S
N267 H270 0.984 1_455 S
N267 H271 0.985 . S
H268 N263 0.984 . S
H269 N263 0.985 . S
H270 N267 0.984 1_655 S
H271 N267 0.985 . S
H272 N266 0.984 . S
H273 N266 0.984 . S
H274 N262 0.984 . S
H275 N262 0.985 . S
C276 C277 1.363 . S
C276 C282 1.379 . S
C276 N284 1.356 . S
C277 C276 1.363 . S
C277 C283 1.363 . S
C278 C279 1.363 . S
C278 C283 1.379 . S
C278 N285 1.356 . S
C279 C278 1.363 . S
C279 C282 1.363 . S
N280 C282 1.356 . S
N280 H292 0.984 . S
N280 H293 0.985 . S
N281 C283 1.356 . S
N281 H286 0.984 . S
N281 H287 0.985 . S
C282 C276 1.379 . S
C282 C279 1.363 . S
C282 N280 1.356 . S
C283 C277 1.363 . S
C283 C278 1.379 . S
C283 N281 1.356 . S
N284 C276 1.356 . S
N284 H290 0.984 . S
N284 H291 0.984 . S
N285 C278 1.356 . S
N285 H288 0.984 . S
N285 H289 0.985 . S
H286 N281 0.984 . S
H287 N281 0.985 . S
H288 N285 0.984 . S
H289 N285 0.985 . S
H290 N284 0.984 . S
H291 N284 0.984 . S
H292 N280 0.984 . S
H293 N280 0.985 . S
C294 C295 1.363 . S
C294 C300 1.379 . S
C294 N302 1.356 . S
C295 C294 1.363 . S
C295 C301 1.363 1_554 S
C296 C297 1.363 1_556 S
C296 C301 1.379 . S
C296 N303 1.356 . S
C297 C296 1.363 1_554 S
C297 C300 1.363 . S
N298 C300 1.356 . S
N298 H310 0.984 . S
N298 H311 0.985 . S
N299 C301 1.356 . S
N299 H304 0.984 . S
N299 H305 0.985 . S
C300 C294 1.379 . S
C300 C297 1.363 . S
C300 N298 1.356 . S
C301 C295 1.363 1_556 S
C301 C296 1.379 . S
C301 N299 1.356 . S
N302 C294 1.356 . S
N302 H308 0.984 . S
N302 H309 0.984 1_655 S
N303 C296 1.356 . S
N303 H306 0.984 . S
N303 H307 0.985 . S
H304 N299 0.984 . S
H305 N299 0.985 . S
H306 N303 0.984 . S
H307 N303 0.985 . S
H308 N302 0.984 . S
H309 N302 0.984 1_455 S
H310 N298 0.984 . S
H311 N298 0.985 . S
C312 C313 1.363 . S
C312 C318 1.379 . S
C312 N320 1.356 . S
C313 C312 1.363 . S
C313 C319 1.363 . S
C314 C315 1.363 . S
C314 C319 1.379 . S
C314 N321 1.356 . S
C315 C314 1.363 . S
C315 C318 1.363 . S
N316 C318 1.356 . S
N316 H328 0.984 . S
N316 H329 0.985 . S
N317 C319 1.356 . S
N317 H322 0.984 . S
N317 H323 0.985 . S
C318 C312 1.379 . S
C318 C315 1.363 . S
C318 N316 1.356 . S
C319 C313 1.363 . S
C319 C314 1.379 . S
C319 N317 1.356 . S
N320 C312 1.356 . S
N320 H326 0.984 . S
N320 H327 0.984 . S
N321 C314 1.356 . S
N321 H324 0.984 . S
N321 H325 0.985 . S
H322 N317 0.984 . S
H323 N317 0.985 . S
H324 N321 0.984 . S
H325 N321 0.985 . S
H326 N320 0.984 . S
H327 N320 0.984 . S
H328 N316 0.984 . S
H329 N316 0.985 . S
C330 C331 1.363 . S
C330 C336 1.379 . S
C330 N338 1.356 . S
C331 C330 1.363 . S
C331 C337 1.363 . S
C332 C333 1.363 . S
C332 C337 1.379 . S
C332 N339 1.356 . S
C333 C332 1.363 . S
C333 C336 1.363 . S
N334 C336 1.356 . S
N334 H346 0.984 . S
N334 H347 0.985 . S
N335 C337 1.356 . S
N335 H340 0.984 . S
N335 H341 0.985 . S
C336 C330 1.379 . S
C336 C333 1.363 . S
C336 N334 1.356 . S
C337 C331 1.363 . S
C337 C332 1.379 . S
C337 N335 1.356 . S
N338 C330 1.356 . S
N338 H344 0.984 . S
N338 H345 0.984 . S
N339 C332 1.356 . S
N339 H342 0.984 1_545 S
N339 H343 0.985 . S
H340 N335 0.984 . S
H341 N335 0.985 . S
H342 N339 0.984 1_565 S
H343 N339 0.985 . S
H344 N338 0.984 . S
H345 N338 0.984 . S
H346 N334 0.984 . S
H347 N334 0.985 . S
C348 C349 1.363 . S
C348 C354 1.379 . S
C348 N356 1.356 . S
C349 C348 1.363 . S
C349 C355 1.363 . S
C350 C351 1.363 . S
C350 C355 1.379 . S
C350 N357 1.356 . S
C351 C350 1.363 . S
C351 C354 1.363 . S
N352 C354 1.356 . S
N352 H364 0.984 . S
N352 H365 0.985 . S
N353 C355 1.356 . S
N353 H358 0.984 . S
N353 H359 0.985 . S
C354 C348 1.379 . S
C354 C351 1.363 . S
C354 N352 1.356 . S
C355 C349 1.363 . S
C355 C350 1.379 . S
C355 N353 1.356 . S
N356 C348 1.356 . S
N356 H362 0.984 . S
N356 H363 0.984 . S
N357 C350 1.356 . S
N357 H360 0.984 . S
N357 H361 0.985 . S
H358 N353 0.984 . S
H359 N353 0.985 . S
H360 N357 0.984 . S
H361 N357 0.985 . S
H362 N356 0.984 . S
H363 N356 0.984 . S
H364 N352 0.984 . S
H365 N352 0.985 . S
C366 C367 1.363 . S
C366 C372 1.379 . S
C366 N374 1.356 . S
C367 C366 1.363 . S
C367 C373 1.363 . S
C368 C369 1.363 . S
C368 C373 1.379 . S
C368 N375 1.356 . S
C369 C368 1.363 . S
C369 C372 1.363 . S
N370 C372 1.356 . S
N370 H382 0.984 . S
N370 H383 0.985 . S
N371 C373 1.356 . S
N371 H376 0.984 . S
N371 H377 0.985 . S
C372 C366 1.379 . S
C372 C369 1.363 . S
C372 N370 1.356 . S
C373 C367 1.363 . S
C373 C368 1.379 . S
C373 N371 1.356 . S
N374 C366 1.356 . S
N374 H380 0.984 . S
N374 H381 0.984 . S
N375 C368 1.356 . S
N375 H378 0.984 . S
N375 H379 0.985 . S
H376 N371 0.984 . S
H377 N371 0.985 . S
H378 N375 0.984 . S
H379 N375 0.985 . S
H380 N374 0.984 . S
H381 N374 0.984 . S
H382 N370 0.984 . S
H383 N370 0.985 . S
C384 C385 1.363 . S
C384 C390 1.379 . S
C384 N392 1.356 . S
C385 C384 1.363 . S
C385 C391 1.363 . S
C386 C387 1.363 . S
C386 C391 1.379 . S
C386 N393 1.356 . S
C387 C386 1.363 . S
C387 C390 1.363 . S
N388 C390 1.356 . S
N388 H400 0.984 . S
N388 H401 0.985 . S
N389 C391 1.356 . S
N389 H394 0.984 . S
N389 H395 0.985 . S
C390 C384 1.379 . S
C390 C387 1.363 . S
C390 N388 1.356 . S
C391 C385 1.363 . S
C391 C386 1.379 . S
C391 N389 1.356 . S
N392 C384 1.356 . S
N392 H398 0.984 . S
N392 H399 0.984 . S
N393 C386 1.356 . S
N393 H396 0.984 . S
N393 H397 0.985 . S
H394 N389 0.984 . S
H395 N389 0.985 . S
H396 N393 0.984 . S
H397 N393 0.985 . S
H398 N392 0.984 . S
H399 N392 0.984 . S
H400 N388 0.984 . S
H401 N388 0.985 . S
C402 C403 1.363 . S
C402 C408 1.379 . S
C402 N410 1.356 . S
C403 C402 1.363 . S
C403 C409 1.363 . S
C404 C405 1.363 . S
C404 C409 1.379 . S
C404 N411 1.356 . S
C405 C404 1.363 . S
C405 C408 1.363 . S
N406 C408 1.356 . S
N406 H418 0.984 . S
N406 H419 0.985 . S
N407 C409 1.356 . S
N407 H412 0.984 . S
N407 H413 0.985 . S
C408 C402 1.379 . S
C408 C405 1.363 . S
C408 N406 1.356 . S
C409 C403 1.363 . S
C409 C404 1.379 . S
C409 N407 1.356 . S
N410 C402 1.356 . S
N410 H416 0.984 . S
N410 H417 0.984 . S
N411 C404 1.356 . S
N411 H414 0.984 . S
N411 H415 0.985 . S
H412 N407 0.984 . S
H413 N407 0.985 . S
H414 N411 0.984 . S
H415 N411 0.985 . S
H416 N410 0.984 . S
H417 N410 0.984 . S
H418 N406 0.984 . S
H419 N406 0.985 . S
C420 C421 1.363 . S
C420 C426 1.379 . S
C420 N428 1.356 . S
C421 C420 1.363 . S
C421 C427 1.363 . S
C422 C423 1.363 . S
C422 C427 1.379 . S
C422 N429 1.356 . S
C423 C422 1.363 . S
C423 C426 1.363 . S
N424 C426 1.356 . S
N424 H436 0.984 . S
N424 H437 0.985 . S
N425 C427 1.356 . S
N425 H430 0.984 . S
N425 H431 0.985 . S
C426 C420 1.379 . S
C426 C423 1.363 . S
C426 N424 1.356 . S
C427 C421 1.363 . S
C427 C422 1.379 . S
C427 N425 1.356 . S
N428 C420 1.356 . S
N428 H434 0.984 . S
N428 H435 0.984 . S
N429 C422 1.356 . S
N429 H432 0.984 . S
N429 H433 0.985 . S
H430 N425 0.984 . S
H431 N425 0.985 . S
H432 N429 0.984 . S
H433 N429 0.985 . S
H434 N428 0.984 . S
H435 N428 0.984 . S
H436 N424 0.984 . S
H437 N424 0.985 . S
C438 C439 1.363 . S
C438 C444 1.379 . S
C438 N446 1.356 . S
C439 C438 1.363 . S
C439 C445 1.363 . S
C440 C441 1.363 . S
C440 C445 1.379 . S
C440 N447 1.356 . S
C441 C440 1.363 . S
C441 C444 1.363 . S
N442 C444 1.356 . S
N442 H454 0.984 . S
N442 H455 0.985 . S
N443 C445 1.356 . S
N443 H448 0.984 . S
N443 H449 0.985 . S
C444 C438 1.379 . S
C444 C441 1.363 . S
C444 N442 1.356 . S
C445 C439 1.363 . S
C445 C440 1.379 . S
C445 N443 1.356 . S
N446 C438 1.356 . S
N446 H452 0.984 . S
N446 H453 0.984 . S
N447 C440 1.356 . S
N447 H450 0.984 . S
N447 H451 0.985 . S
H448 N443 0.984 . S
H449 N443 0.985 . S
H450 N447 0.984 . S
H451 N447 0.985 . S
H452 N446 0.984 . S
H453 N446 0.984 . S
H454 N442 0.984 . S
H455 N442 0.985 . S
C133 C84 1.737 . S
C135 C8 1.737 . S
C151 C32 1.737 . S
C153 C106 1.737 . S
C169 C128 1.737 . S
C171 C52 1.737 . S
C187 C125 1.104 . S
C189 C7 1.104 . S
C205 C43 1.104 . S
C207 C81 1.104 . S
C223 C51 1.104 . S
C225 C103 1.104 . S
C241 C18 1.447 1_566 S
C243 C87 1.461 . S
C259 C109 1.461 . S
C261 C30 1.452 1_455 S
C277 C131 1.461 . S
C279 C62 1.453 . S
C295 C76 1.447 1_654 S
C297 C15 1.461 . S
C313 C98 1.453 . S
C315 C29 1.461 . S
C331 C59 1.461 . S
C333 C120 1.452 1_545 S
C349 C21 1.380 . S
C351 C54 1.376 . S
C367 C10 1.376 . S
C369 C37 1.380 . S
C385 C65 1.379 . S
C387 C40 1.376 . S
C403 C73 1.380 . S
C405 C96 1.376 . S
C421 C95 1.379 . S
C423 C118 1.376 . S
C439 C74 1.376 . S
C441 C117 1.380 . S
