# Generated by pormake.
# Topology ukp, (4)-cn, num edge types: 1
# Building blocks:
#     Node 0, Type 0, BuildingBlock: CEKHIL_clean_sbu_0, # of connection points: 4
#     Node 1, Type 0, BuildingBlock: CEKHIL_clean_sbu_0, # of connection points: 4
#     Node 2, Type 0, BuildingBlock: CEKHIL_clean_sbu_0, # of connection points: 4
#     Node 3, Type 0, BuildingBlock: CEKHIL_clean_sbu_0, # of connection points: 4
#     Node 4, Type 0, BuildingBlock: CEKHIL_clean_sbu_0, # of connection points: 4
#     Node 5, Type 0, BuildingBlock: CEKHIL_clean_sbu_0, # of connection points: 4
#     Node 6, Type 0, BuildingBlock: CEKHIL_clean_sbu_0, # of connection points: 4
#     Node 7, Type 0, BuildingBlock: CEKHIL_clean_sbu_0, # of connection points: 4
#     Node 8, Type 0, BuildingBlock: CEKHIL_clean_sbu_0, # of connection points: 4
#     Node 9, Type 0, BuildingBlock: CEKHIL_clean_sbu_0, # of connection points: 4
#     Node 10, Type 0, BuildingBlock: CEKHIL_clean_sbu_0, # of connection points: 4
#     Node 11, Type 0, BuildingBlock: CEKHIL_clean_sbu_0, # of connection points: 4
#     Node 12, Type 0, BuildingBlock: CEKHIL_clean_sbu_0, # of connection points: 4
#     Node 13, Type 0, BuildingBlock: CEKHIL_clean_sbu_0, # of connection points: 4
#     Node 14, Type 0, BuildingBlock: CEKHIL_clean_sbu_0, # of connection points: 4
#     Node 15, Type 0, BuildingBlock: CEKHIL_clean_sbu_0, # of connection points: 4
#     Node 16, Type 0, BuildingBlock: CEKHIL_clean_sbu_0, # of connection points: 4
#     Node 17, Type 0, BuildingBlock: CEKHIL_clean_sbu_0, # of connection points: 4
#     Node 18, Type 0, BuildingBlock: CEKHIL_clean_sbu_0, # of connection points: 4
#     Node 19, Type 0, BuildingBlock: CEKHIL_clean_sbu_0, # of connection points: 4
#     Node 20, Type 0, BuildingBlock: CEKHIL_clean_sbu_0, # of connection points: 4
#     Node 21, Type 0, BuildingBlock: CEKHIL_clean_sbu_0, # of connection points: 4
#     Node 22, Type 0, BuildingBlock: CEKHIL_clean_sbu_0, # of connection points: 4
#     Node 23, Type 0, BuildingBlock: CEKHIL_clean_sbu_0, # of connection points: 4
#     Node 24, Type 0, BuildingBlock: CEKHIL_clean_sbu_0, # of connection points: 4
#     Node 25, Type 0, BuildingBlock: CEKHIL_clean_sbu_0, # of connection points: 4
#     Node 26, Type 0, BuildingBlock: CEKHIL_clean_sbu_0, # of connection points: 4
#     Node 27, Type 0, BuildingBlock: CEKHIL_clean_sbu_0, # of connection points: 4
#     Node 28, Type 0, BuildingBlock: CEKHIL_clean_sbu_0, # of connection points: 4
#     Node 29, Type 0, BuildingBlock: CEKHIL_clean_sbu_0, # of connection points: 4
#     Node 30, Type 0, BuildingBlock: CEKHIL_clean_sbu_0, # of connection points: 4
#     Node 31, Type 0, BuildingBlock: CEKHIL_clean_sbu_0, # of connection points: 4
#     Node 32, Type 0, BuildingBlock: CEKHIL_clean_sbu_0, # of connection points: 4
#     Node 33, Type 0, BuildingBlock: CEKHIL_clean_sbu_0, # of connection points: 4
#     Node 34, Type 0, BuildingBlock: CEKHIL_clean_sbu_0, # of connection points: 4
#     Node 35, Type 0, BuildingBlock: CEKHIL_clean_sbu_0, # of connection points: 4
#     Node 36, Type 0, BuildingBlock: CEKHIL_clean_sbu_0, # of connection points: 4
#     Node 37, Type 0, BuildingBlock: CEKHIL_clean_sbu_0, # of connection points: 4
#     Node 38, Type 0, BuildingBlock: CEKHIL_clean_sbu_0, # of connection points: 4
#     Node 39, Type 0, BuildingBlock: CEKHIL_clean_sbu_0, # of connection points: 4
#     Node 40, Type 0, BuildingBlock: CEKHIL_clean_sbu_0, # of connection points: 4
#     Node 41, Type 0, BuildingBlock: CEKHIL_clean_sbu_0, # of connection points: 4
#     Node 42, Type 0, BuildingBlock: CEKHIL_clean_sbu_0, # of connection points: 4
#     Node 43, Type 0, BuildingBlock: CEKHIL_clean_sbu_0, # of connection points: 4
#     Node 44, Type 0, BuildingBlock: CEKHIL_clean_sbu_0, # of connection points: 4
#     Node 45, Type 0, BuildingBlock: CEKHIL_clean_sbu_0, # of connection points: 4
#     Node 46, Type 0, BuildingBlock: CEKHIL_clean_sbu_0, # of connection points: 4
#     Node 47, Type 0, BuildingBlock: CEKHIL_clean_sbu_0, # of connection points: 4
#     Edge 48, Type (0, 0), BuildingBlock: AJUNOK_clean_linker_0, # of connection points: 2
#     Edge 49, Type (0, 0), BuildingBlock: AJUNOK_clean_linker_0, # of connection points: 2
#     Edge 50, Type (0, 0), BuildingBlock: AJUNOK_clean_linker_0, # of connection points: 2
#     Edge 51, Type (0, 0), BuildingBlock: AJUNOK_clean_linker_0, # of connection points: 2
#     Edge 52, Type (0, 0), BuildingBlock: AJUNOK_clean_linker_0, # of connection points: 2
#     Edge 53, Type (0, 0), BuildingBlock: AJUNOK_clean_linker_0, # of connection points: 2
#     Edge 54, Type (0, 0), BuildingBlock: AJUNOK_clean_linker_0, # of connection points: 2
#     Edge 55, Type (0, 0), BuildingBlock: AJUNOK_clean_linker_0, # of connection points: 2
#     Edge 56, Type (0, 0), BuildingBlock: AJUNOK_clean_linker_0, # of connection points: 2
#     Edge 57, Type (0, 0), BuildingBlock: AJUNOK_clean_linker_0, # of connection points: 2
#     Edge 58, Type (0, 0), BuildingBlock: AJUNOK_clean_linker_0, # of connection points: 2
#     Edge 59, Type (0, 0), BuildingBlock: AJUNOK_clean_linker_0, # of connection points: 2
#     Edge 60, Type (0, 0), BuildingBlock: AJUNOK_clean_linker_0, # of connection points: 2
#     Edge 61, Type (0, 0), BuildingBlock: AJUNOK_clean_linker_0, # of connection points: 2
#     Edge 62, Type (0, 0), BuildingBlock: AJUNOK_clean_linker_0, # of connection points: 2
#     Edge 63, Type (0, 0), BuildingBlock: AJUNOK_clean_linker_0, # of connection points: 2
#     Edge 64, Type (0, 0), BuildingBlock: AJUNOK_clean_linker_0, # of connection points: 2
#     Edge 65, Type (0, 0), BuildingBlock: AJUNOK_clean_linker_0, # of connection points: 2
#     Edge 66, Type (0, 0), BuildingBlock: AJUNOK_clean_linker_0, # of connection points: 2
#     Edge 67, Type (0, 0), BuildingBlock: AJUNOK_clean_linker_0, # of connection points: 2
#     Edge 68, Type (0, 0), BuildingBlock: AJUNOK_clean_linker_0, # of connection points: 2
#     Edge 69, Type (0, 0), BuildingBlock: AJUNOK_clean_linker_0, # of connection points: 2
#     Edge 70, Type (0, 0), BuildingBlock: AJUNOK_clean_linker_0, # of connection points: 2
#     Edge 71, Type (0, 0), BuildingBlock: AJUNOK_clean_linker_0, # of connection points: 2
#     Edge 72, Type (0, 0), BuildingBlock: AJUNOK_clean_linker_0, # of connection points: 2
#     Edge 73, Type (0, 0), BuildingBlock: AJUNOK_clean_linker_0, # of connection points: 2
#     Edge 74, Type (0, 0), BuildingBlock: AJUNOK_clean_linker_0, # of connection points: 2
#     Edge 75, Type (0, 0), BuildingBlock: AJUNOK_clean_linker_0, # of connection points: 2
#     Edge 76, Type (0, 0), BuildingBlock: AJUNOK_clean_linker_0, # of connection points: 2
#     Edge 77, Type (0, 0), BuildingBlock: AJUNOK_clean_linker_0, # of connection points: 2
#     Edge 78, Type (0, 0), BuildingBlock: AJUNOK_clean_linker_0, # of connection points: 2
#     Edge 79, Type (0, 0), BuildingBlock: AJUNOK_clean_linker_0, # of connection points: 2
#     Edge 80, Type (0, 0), BuildingBlock: AJUNOK_clean_linker_0, # of connection points: 2
#     Edge 81, Type (0, 0), BuildingBlock: AJUNOK_clean_linker_0, # of connection points: 2
#     Edge 82, Type (0, 0), BuildingBlock: AJUNOK_clean_linker_0, # of connection points: 2
#     Edge 83, Type (0, 0), BuildingBlock: AJUNOK_clean_linker_0, # of connection points: 2
#     Edge 84, Type (0, 0), BuildingBlock: AJUNOK_clean_linker_0, # of connection points: 2
#     Edge 85, Type (0, 0), BuildingBlock: AJUNOK_clean_linker_0, # of connection points: 2
#     Edge 86, Type (0, 0), BuildingBlock: AJUNOK_clean_linker_0, # of connection points: 2
#     Edge 87, Type (0, 0), BuildingBlock: AJUNOK_clean_linker_0, # of connection points: 2
#     Edge 88, Type (0, 0), BuildingBlock: AJUNOK_clean_linker_0, # of connection points: 2
#     Edge 89, Type (0, 0), BuildingBlock: AJUNOK_clean_linker_0, # of connection points: 2
#     Edge 90, Type (0, 0), BuildingBlock: AJUNOK_clean_linker_0, # of connection points: 2
#     Edge 91, Type (0, 0), BuildingBlock: AJUNOK_clean_linker_0, # of connection points: 2
#     Edge 92, Type (0, 0), BuildingBlock: AJUNOK_clean_linker_0, # of connection points: 2
#     Edge 93, Type (0, 0), BuildingBlock: AJUNOK_clean_linker_0, # of connection points: 2
#     Edge 94, Type (0, 0), BuildingBlock: AJUNOK_clean_linker_0, # of connection points: 2
#     Edge 95, Type (0, 0), BuildingBlock: AJUNOK_clean_linker_0, # of connection points: 2
#     Edge 96, Type (0, 0), BuildingBlock: AJUNOK_clean_linker_0, # of connection points: 2
#     Edge 97, Type (0, 0), BuildingBlock: AJUNOK_clean_linker_0, # of connection points: 2
#     Edge 98, Type (0, 0), BuildingBlock: AJUNOK_clean_linker_0, # of connection points: 2
#     Edge 99, Type (0, 0), BuildingBlock: AJUNOK_clean_linker_0, # of connection points: 2
#     Edge 100, Type (0, 0), BuildingBlock: AJUNOK_clean_linker_0, # of connection points: 2
#     Edge 101, Type (0, 0), BuildingBlock: AJUNOK_clean_linker_0, # of connection points: 2
#     Edge 102, Type (0, 0), BuildingBlock: AJUNOK_clean_linker_0, # of connection points: 2
#     Edge 103, Type (0, 0), BuildingBlock: AJUNOK_clean_linker_0, # of connection points: 2
#     Edge 104, Type (0, 0), BuildingBlock: AJUNOK_clean_linker_0, # of connection points: 2
#     Edge 105, Type (0, 0), BuildingBlock: AJUNOK_clean_linker_0, # of connection points: 2
#     Edge 106, Type (0, 0), BuildingBlock: AJUNOK_clean_linker_0, # of connection points: 2
#     Edge 107, Type (0, 0), BuildingBlock: AJUNOK_clean_linker_0, # of connection points: 2
#     Edge 108, Type (0, 0), BuildingBlock: AJUNOK_clean_linker_0, # of connection points: 2
#     Edge 109, Type (0, 0), BuildingBlock: AJUNOK_clean_linker_0, # of connection points: 2
#     Edge 110, Type (0, 0), BuildingBlock: AJUNOK_clean_linker_0, # of connection points: 2
#     Edge 111, Type (0, 0), BuildingBlock: AJUNOK_clean_linker_0, # of connection points: 2
#     Edge 112, Type (0, 0), BuildingBlock: AJUNOK_clean_linker_0, # of connection points: 2
#     Edge 113, Type (0, 0), BuildingBlock: AJUNOK_clean_linker_0, # of connection points: 2
#     Edge 114, Type (0, 0), BuildingBlock: AJUNOK_clean_linker_0, # of connection points: 2
#     Edge 115, Type (0, 0), BuildingBlock: AJUNOK_clean_linker_0, # of connection points: 2
#     Edge 116, Type (0, 0), BuildingBlock: AJUNOK_clean_linker_0, # of connection points: 2
#     Edge 117, Type (0, 0), BuildingBlock: AJUNOK_clean_linker_0, # of connection points: 2
#     Edge 118, Type (0, 0), BuildingBlock: AJUNOK_clean_linker_0, # of connection points: 2
#     Edge 119, Type (0, 0), BuildingBlock: AJUNOK_clean_linker_0, # of connection points: 2
#     Edge 120, Type (0, 0), BuildingBlock: AJUNOK_clean_linker_0, # of connection points: 2
#     Edge 121, Type (0, 0), BuildingBlock: AJUNOK_clean_linker_0, # of connection points: 2
#     Edge 122, Type (0, 0), BuildingBlock: AJUNOK_clean_linker_0, # of connection points: 2
#     Edge 123, Type (0, 0), BuildingBlock: AJUNOK_clean_linker_0, # of connection points: 2
#     Edge 124, Type (0, 0), BuildingBlock: AJUNOK_clean_linker_0, # of connection points: 2
#     Edge 125, Type (0, 0), BuildingBlock: AJUNOK_clean_linker_0, # of connection points: 2
#     Edge 126, Type (0, 0), BuildingBlock: AJUNOK_clean_linker_0, # of connection points: 2
#     Edge 127, Type (0, 0), BuildingBlock: AJUNOK_clean_linker_0, # of connection points: 2
#     Edge 128, Type (0, 0), BuildingBlock: AJUNOK_clean_linker_0, # of connection points: 2
#     Edge 129, Type (0, 0), BuildingBlock: AJUNOK_clean_linker_0, # of connection points: 2
#     Edge 130, Type (0, 0), BuildingBlock: AJUNOK_clean_linker_0, # of connection points: 2
#     Edge 131, Type (0, 0), BuildingBlock: AJUNOK_clean_linker_0, # of connection points: 2
#     Edge 132, Type (0, 0), BuildingBlock: AJUNOK_clean_linker_0, # of connection points: 2
#     Edge 133, Type (0, 0), BuildingBlock: AJUNOK_clean_linker_0, # of connection points: 2
#     Edge 134, Type (0, 0), BuildingBlock: AJUNOK_clean_linker_0, # of connection points: 2
#     Edge 135, Type (0, 0), BuildingBlock: AJUNOK_clean_linker_0, # of connection points: 2
#     Edge 136, Type (0, 0), BuildingBlock: AJUNOK_clean_linker_0, # of connection points: 2
#     Edge 137, Type (0, 0), BuildingBlock: AJUNOK_clean_linker_0, # of connection points: 2
#     Edge 138, Type (0, 0), BuildingBlock: AJUNOK_clean_linker_0, # of connection points: 2
#     Edge 139, Type (0, 0), BuildingBlock: AJUNOK_clean_linker_0, # of connection points: 2
#     Edge 140, Type (0, 0), BuildingBlock: AJUNOK_clean_linker_0, # of connection points: 2
#     Edge 141, Type (0, 0), BuildingBlock: AJUNOK_clean_linker_0, # of connection points: 2
#     Edge 142, Type (0, 0), BuildingBlock: AJUNOK_clean_linker_0, # of connection points: 2
#     Edge 143, Type (0, 0), BuildingBlock: AJUNOK_clean_linker_0, # of connection points: 2
# Relax obj value: 0.211
# Max RMSD: 0.305
# Mean RMSD: 0.304
data_MOF--net-ukp--node1-CEKHIL_clean_sbu_0--edge1-AJUNOK_clean_linker_0
_symmetry_space_group_name_H-M    P1
_symmetry_Int_Tables_number       1
_symmetry_cell_setting            triclinic
loop_
_symmetry_equiv_pos_as_xyz
'x, y, z'
_cell_length_a     44.749045
_cell_length_b     44.750908
_cell_length_c     44.741798
_cell_angle_alpha  89.991043
_cell_angle_beta   90.009557
_cell_angle_gamma 89.973211
loop_
_atom_site_label
_atom_site_type_symbol
_atom_site_fract_x
_atom_site_fract_y
_atom_site_fract_z
_atom_type_partial_charge
Co0 Co 0.2069 0.26514 0.39953 0.0
O1 O 0.19612 0.23933 0.43231 0.0
O2 O 0.16377 0.26028 0.40148 0.0
C3 C 0.24452 0.23721 0.38066 0.0
O4 O 0.21027 0.29227 0.36298 0.0
Co5 Co 0.27084 0.29351 0.40023 0.0
O6 O 0.25792 0.30884 0.3606 0.0
C7 C 0.22332 0.32129 0.43566 0.0
C8 C 0.16847 0.243 0.42445 0.0
C9 C 0.23141 0.30713 0.35027 0.0
O10 O 0.20437 0.30204 0.4256 0.0
O11 O 0.25141 0.32004 0.43059 0.0
O12 O 0.21696 0.23068 0.3742 0.0
O13 O 0.24779 0.25715 0.40119 0.0
Co14 Co 0.99185 0.96165 0.64834 0.0
O15 O 0.01747 0.95086 0.68154 0.0
O16 O 0.99366 0.91848 0.65303 0.0
C17 C 0.02246 0.99597 0.62721 0.0
O18 O 0.9644 0.96408 0.61182 0.0
Co19 Co 0.9681 0.02709 0.64153 0.0
O20 O 0.95426 0.0125 0.60206 0.0
C21 C 0.93557 0.98417 0.67983 0.0
C22 C 0.01164 0.92312 0.67544 0.0
C23 C 0.95282 0.98483 0.59553 0.0
O24 O 0.95534 0.96371 0.67502 0.0
O25 O 0.93749 0.01084 0.66973 0.0
O26 O 0.02653 0.96767 0.62206 0.0
O27 O 0.00268 1.00208 0.6472 0.0
Co28 Co 0.2904 0.74117 0.89972 0.0
O29 O 0.29988 0.76696 0.93293 0.0
O30 O 0.33336 0.7477 0.90233 0.0
C31 C 0.2521 0.76819 0.88085 0.0
O32 O 0.28853 0.71437 0.86283 0.0
Co33 Co 0.22755 0.71057 0.89804 0.0
O34 O 0.24084 0.69878 0.85734 0.0
C35 C 0.27559 0.68346 0.93376 0.0
C36 C 0.32773 0.76464 0.92534 0.0
C37 C 0.2678 0.70065 0.84832 0.0
O38 O 0.29389 0.70406 0.92533 0.0
O39 O 0.2477 0.68347 0.92748 0.0
O40 O 0.27951 0.77549 0.87466 0.0
O41 O 0.24911 0.74773 0.90091 0.0
Co42 Co 0.5133 0.04118 0.15067 0.0
O43 O 0.48801 0.05061 0.18456 0.0
O44 O 0.50794 0.08397 0.15422 0.0
C45 C 0.48491 0.00405 0.13141 0.0
O46 O 0.5393 0.04036 0.11314 0.0
Co47 Co 0.54221 0.97812 0.14274 0.0
O48 O 0.54929 0.99248 0.10134 0.0
C49 C 0.57218 0.02354 0.18055 0.0
C50 C 0.49091 0.07851 0.17715 0.0
C51 C 0.54945 0.02028 0.09521 0.0
O52 O 0.55096 0.04261 0.17596 0.0
O53 O 0.57174 0.9967 0.17069 0.0
O54 O 0.47815 0.03178 0.12607 0.0
O55 O 0.50602 1.00004 0.15058 0.0
Co56 Co 0.21147 0.73964 0.1037 0.0
O57 O 0.20068 0.76437 0.0699 0.0
O58 O 0.16834 0.74255 0.10004 0.0
C59 C 0.24713 0.76986 0.12301 0.0
O60 O 0.214 0.71347 0.14106 0.0
Co61 Co 0.27601 0.7139 0.11043 0.0
O62 O 0.26252 0.70538 0.15183 0.0
C63 C 0.23176 0.68197 0.07309 0.0
C64 C 0.17295 0.75962 0.07695 0.0
C65 C 0.23488 0.7039 0.15842 0.0
O66 O 0.21188 0.70227 0.07818 0.0
O67 O 0.25866 0.6834 0.08267 0.0
O68 O 0.21909 0.7751 0.12849 0.0
O69 O 0.25218 0.74915 0.10364 0.0
Co70 Co 0.51592 0.95925 0.35228 0.0
O71 O 0.49008 0.94921 0.31907 0.0
O72 O 0.51253 0.91617 0.34795 0.0
C73 C 0.48642 0.99461 0.37302 0.0
O74 O 0.54316 0.96109 0.389 0.0
Co75 Co 0.54229 0.0235 0.3587 0.0
O76 O 0.55235 0.0095 0.39952 0.0
C77 C 0.5728 0.97944 0.32006 0.0
C78 C 0.49475 0.92133 0.32549 0.0
C79 C 0.55359 0.98182 0.40605 0.0
O80 O 0.55245 0.95978 0.32561 0.0
O81 O 0.57216 0.00617 0.33021 0.0
O82 O 0.48137 0.9665 0.37827 0.0
O83 O 0.50655 1.00004 0.35313 0.0
Co84 Co 0.28895 0.26482 0.59894 0.0
O85 O 0.29748 0.23902 0.56533 0.0
O86 O 0.33177 0.25831 0.59498 0.0
C87 C 0.25136 0.23731 0.6188 0.0
O88 O 0.28857 0.29127 0.63614 0.0
Co89 Co 0.22606 0.29471 0.6058 0.0
O90 O 0.2407 0.30276 0.6469 0.0
C91 C 0.27221 0.32362 0.5681 0.0
C92 C 0.32551 0.24108 0.57237 0.0
C93 C 0.26841 0.30237 0.65343 0.0
O94 O 0.29101 0.30225 0.57323 0.0
O95 O 0.24518 0.32345 0.57744 0.0
O96 O 0.279 0.23012 0.62408 0.0
O97 O 0.24768 0.25816 0.5993 0.0
Co98 Co 0.99303 0.04021 0.85559 0.0
O99 O 0.01821 0.04899 0.82159 0.0
O100 O 0.99737 0.08316 0.8503 0.0
C101 C 0.02262 0.00468 0.87617 0.0
O102 O 0.96663 0.03974 0.89294 0.0
Co103 Co 0.9663 0.97618 0.86423 0.0
O104 O 0.95544 0.9919 0.90419 0.0
C105 C 0.93474 0.02013 0.82611 0.0
C106 C 0.01468 0.07709 0.82769 0.0
C107 C 0.95518 0.01972 0.91019 0.0
O108 O 0.95561 0.03971 0.82997 0.0
O109 O 0.9357 0.99358 0.83668 0.0
O110 O 0.02815 0.03279 0.88085 0.0
O111 O 1.00184 0.99929 0.85699 0.0
Co112 Co 0.3966 0.20888 0.26239 0.0
O113 O 0.4299 0.19959 0.23687 0.0
O114 O 0.39963 0.16578 0.25598 0.0
C115 C 0.37781 0.24693 0.23496 0.0
O116 O 0.35971 0.21134 0.28926 0.0
Co117 Co 0.39651 0.27249 0.29185 0.0
O118 O 0.35692 0.25888 0.3063 0.0
C119 C 0.4311 0.22399 0.31969 0.0
C120 C 0.42277 0.17167 0.23927 0.0
C121 C 0.34682 0.2323 0.30431 0.0
O122 O 0.42213 0.20549 0.29953 0.0
O123 O 0.42544 0.25201 0.31912 0.0
O124 O 0.37152 0.21948 0.22795 0.0
O125 O 0.39798 0.25002 0.25525 0.0
Co126 Co 0.03879 0.15065 0.51192 0.0
O127 O 0.04678 0.18529 0.48743 0.0
O128 O 0.08143 0.155 0.50518 0.0
C129 C 1.00101 0.13182 0.48431 0.0
O130 O 0.03901 0.11257 0.53705 0.0
Co131 Co 0.97675 0.14352 0.54307 0.0
O132 O 0.99167 0.10239 0.55095 0.0
C133 C 0.02287 0.1812 0.57112 0.0
C134 C 0.07489 0.17842 0.48918 0.0
C135 C 0.01923 0.09546 0.54903 0.0
O136 O 0.04146 0.17483 0.55001 0.0
O137 O 0.99547 0.17301 0.57115 0.0
O138 O 0.02855 0.12681 0.47661 0.0
O139 O 0.99743 0.15052 0.50592 0.0
Co140 Co 0.09774 0.78959 0.76453 0.0
O141 O 0.06445 0.79913 0.73861 0.0
O142 O 0.09387 0.83263 0.7595 0.0
C143 C 0.11802 0.75293 0.73612 0.0
O144 O 0.13457 0.7882 0.79158 0.0
Co145 Co 0.10339 0.72598 0.79287 0.0
O146 O 0.14413 0.74004 0.80304 0.0
C147 C 0.06572 0.7716 0.82237 0.0
C148 C 0.07125 0.82709 0.74204 0.0
C149 C 0.15113 0.76763 0.80309 0.0
O150 O 0.07134 0.7906 0.80137 0.0
O151 O 0.07541 0.74468 0.82235 0.0
O152 O 0.12344 0.7808 0.73005 0.0
O153 O 0.09814 0.74846 0.75649 0.0
Co154 Co 0.46161 0.85372 0.01055 0.0
O155 O 0.45084 0.82105 0.98433 0.0
O156 O 0.41853 0.85114 0.00627 0.0
C157 C 0.49854 0.87366 0.98227 0.0
O158 O 0.4642 0.89009 0.03803 0.0
Co159 Co 0.52584 0.85625 0.03807 0.0
O160 O 0.51213 0.89578 0.0527 0.0
C161 C 0.47979 0.81894 0.06701 0.0
C162 C 0.42314 0.82856 0.98851 0.0
C163 C 0.48499 0.90441 0.05185 0.0
O164 O 0.46035 0.82692 0.04717 0.0
O165 O 0.50732 0.82651 0.06576 0.0
O166 O 0.47076 0.87968 0.97626 0.0
O167 O 0.50252 0.85313 1.00205 0.0
Co168 Co 0.40261 0.79118 0.23771 0.0
O169 O 0.43709 0.7995 0.26238 0.0
O170 O 0.40748 0.83402 0.24345 0.0
C171 C 0.38324 0.75418 0.26636 0.0
O172 O 0.36466 0.79108 0.21215 0.0
Co173 Co 0.39438 0.72793 0.2088 0.0
O174 O 0.35387 0.74342 0.19979 0.0
C175 C 0.43186 0.77314 0.17855 0.0
C176 C 0.43061 0.82764 0.25993 0.0
C177 C 0.34743 0.77115 0.20053 0.0
O178 O 0.42746 0.79226 0.19973 0.0
O179 O 0.42156 0.7465 0.1786 0.0
O180 O 0.37834 0.78197 0.27325 0.0
O181 O 0.40197 0.75003 0.24491 0.0
Co182 Co 0.45783 0.14586 0.49112 0.0
O183 O 0.44714 0.1797 0.51576 0.0
O184 O 0.41474 0.14788 0.49663 0.0
C185 C 0.49615 0.12858 0.51926 0.0
O186 O 0.46092 0.10836 0.46533 0.0
Co187 Co 0.52144 0.14407 0.46186 0.0
O188 O 0.50914 0.10269 0.45153 0.0
C189 C 0.47347 0.17893 0.4333 0.0
C190 C 0.41946 0.17167 0.51274 0.0
C191 C 0.4822 0.09353 0.45281 0.0
O192 O 0.45456 0.17031 0.45323 0.0
O193 O 0.50144 0.17306 0.43423 0.0
O194 O 0.46876 0.12198 0.52636 0.0
O195 O 0.49893 0.14808 0.49829 0.0
Co196 Co 0.10263 0.21096 0.74121 0.0
O197 O 0.07039 0.19985 0.76773 0.0
O198 O 0.10163 0.16789 0.74688 0.0
C199 C 0.12144 0.24966 0.76775 0.0
O200 O 0.13871 0.21448 0.71346 0.0
Co201 Co 0.10007 0.27423 0.71134 0.0
O202 O 0.13943 0.26155 0.69513 0.0
C203 C 0.0654 0.22536 0.68517 0.0
C204 C 0.07869 0.17229 0.76426 0.0
C205 C 0.15049 0.23538 0.69753 0.0
O206 O 0.07615 0.20708 0.70471 0.0
O207 O 0.06975 0.25358 0.68577 0.0
O208 O 0.12831 0.22237 0.77501 0.0
O209 O 0.10036 0.25203 0.74826 0.0
Co210 Co 0.04064 0.85008 0.99129 0.0
O211 O 0.04931 0.81571 0.01601 0.0
O212 O 0.08351 0.84423 0.99493 0.0
C213 C 0.00581 0.87092 0.02155 0.0
O214 O 0.04052 0.88769 0.9654 0.0
Co215 Co 0.97692 0.86067 0.96502 0.0
O216 O 0.99279 0.90128 0.95692 0.0
C217 C 0.01946 0.8213 0.93297 0.0
C218 C 0.07744 0.82155 0.01211 0.0
C219 C 0.02078 0.90632 0.95584 0.0
O220 O 0.03932 0.82486 0.95363 0.0
O221 O 0.99314 0.83244 0.93429 0.0
O222 O 0.03407 0.87501 0.02677 0.0
O223 O 0.99978 0.85216 1.00054 0.0
Co224 Co 0.26624 0.4041 0.21314 0.0
O225 O 0.24138 0.43788 0.20236 0.0
O226 O 0.2626 0.40731 0.17002 0.0
C227 C 0.23648 0.38512 0.2494 0.0
O228 O 0.29215 0.36658 0.21549 0.0
Co229 Co 0.29279 0.39756 0.27745 0.0
O230 O 0.30125 0.35617 0.26393 0.0
C231 C 0.32444 0.43441 0.23255 0.0
C232 C 0.24545 0.43035 0.17463 0.0
C233 C 0.30207 0.34936 0.23631 0.0
O234 O 0.30388 0.42941 0.21287 0.0
O235 O 0.32316 0.42503 0.25954 0.0
O236 O 0.23077 0.37954 0.22146 0.0
O237 O 0.25733 0.40444 0.254 0.0
Co238 Co 0.76774 0.10205 0.79274 0.0
O239 O 0.74109 0.06961 0.80336 0.0
O240 O 0.76241 0.0999 0.83583 0.0
C241 C 0.74054 0.12155 0.7547 0.0
O242 O 0.79553 0.13826 0.79023 0.0
Co243 Co 0.79681 0.10366 0.72901 0.0
O244 O 0.81082 0.14347 0.74242 0.0
C245 C 0.82457 0.06719 0.77645 0.0
C246 C 0.74479 0.07724 0.83109 0.0
C247 C 0.80962 0.15237 0.76945 0.0
O248 O 0.80408 0.07499 0.79524 0.0
O249 O 0.82454 0.07489 0.74891 0.0
O250 O 0.73383 0.12813 0.78221 0.0
O251 O 0.76033 0.10089 0.75166 0.0
Co252 Co 0.15259 0.51393 0.04207 0.0
O253 O 0.18659 0.4888 0.05101 0.0
O254 O 0.15701 0.50869 0.08502 0.0
C255 C 0.13298 0.48551 0.00511 0.0
O256 O 0.11513 0.54019 0.04133 0.0
Co257 Co 0.14504 0.54289 0.97896 0.0
O258 O 0.10366 0.54992 0.99326 0.0
C259 C 0.18333 0.5723 0.02413 0.0
C260 C 0.18009 0.49196 0.07908 0.0
C261 C 0.09738 0.55032 0.02102 0.0
O262 O 0.17817 0.55122 0.04315 0.0
O263 O 0.17316 0.5724 0.9974 0.0
O264 O 0.12777 0.47884 0.03291 0.0
O265 O 0.15217 0.50654 1.00095 0.0
Co266 Co 0.74032 0.90092 0.29187 0.0
O267 O 0.7654 0.9344 0.30279 0.0
O268 O 0.7429 0.90463 0.33501 0.0
C269 C 0.77055 0.88098 0.25652 0.0
O270 O 0.71375 0.86387 0.28931 0.0
Co271 Co 0.71508 0.89533 0.22695 0.0
O272 O 0.70242 0.85524 0.24095 0.0
C273 C 0.68324 0.93261 0.27121 0.0
C274 C 0.76028 0.9275 0.3305 0.0
C275 C 0.702 0.84789 0.26846 0.0
O276 O 0.70324 0.92696 0.29123 0.0
O277 O 0.68488 0.92346 0.24417 0.0
O278 O 0.77538 0.87553 0.28465 0.0
O279 O 0.7503 0.90074 0.25117 0.0
Co280 Co 0.85373 0.98935 0.04381 0.0
O281 O 0.81975 0.01464 0.05222 0.0
O282 O 0.84811 0.99384 0.08673 0.0
C283 C 0.87471 0.01862 0.00826 0.0
O284 O 0.89097 0.96277 0.04354 0.0
Co285 Co 0.86276 0.96222 0.98004 0.0
O286 O 0.90341 0.95361 0.99557 0.0
C287 C 0.82338 0.93154 0.02351 0.0
C288 C 0.82555 0.01113 0.0804 0.0
C289 C 0.90896 0.95257 0.02348 0.0
O290 O 0.82795 0.95208 0.04328 0.0
O291 O 0.83381 0.9326 0.9969 0.0
O292 O 0.87911 0.02443 0.03637 0.0
O293 O 0.85546 0.9979 0.00292 0.0
Co294 Co 0.23878 0.60249 0.711 0.0
O295 O 0.26437 0.56912 0.7015 0.0
O296 O 0.24404 0.59885 0.66789 0.0
C297 C 0.26691 0.62226 0.74799 0.0
O298 O 0.21175 0.63929 0.71297 0.0
Co299 Co 0.21027 0.60527 0.77483 0.0
O300 O 0.19767 0.64557 0.76106 0.0
C301 C 0.1818 0.56849 0.72844 0.0
C302 C 0.26109 0.5759 0.67354 0.0
C303 C 0.19855 0.65409 0.73387 0.0
O304 O 0.20178 0.57664 0.70931 0.0
O305 O 0.18268 0.57532 0.75619 0.0
O306 O 0.27329 0.62794 0.72023 0.0
O307 O 0.24667 0.60218 0.75204 0.0
Co308 Co 0.14855 0.49397 0.46418 0.0
O309 O 0.18204 0.51936 0.4538 0.0
O310 O 0.15081 0.49949 0.42123 0.0
C311 C 0.13002 0.52145 0.50235 0.0
O312 O 0.11147 0.46759 0.46627 0.0
Co313 Co 0.14558 0.46378 0.52709 0.0
O314 O 0.10417 0.45398 0.51424 0.0
C315 C 0.18138 0.43574 0.47955 0.0
C316 C 0.17421 0.51607 0.42605 0.0
C317 C 0.09586 0.45523 0.48702 0.0
O318 O 0.1738 0.45661 0.46114 0.0
O319 O 0.17447 0.43581 0.5073 0.0
O320 O 0.12385 0.52866 0.47488 0.0
O321 O 0.14988 0.5008 0.50542 0.0
Co322 Co 0.35434 0.51199 0.95977 0.0
O323 O 0.32109 0.48644 0.94908 0.0
O324 O 0.35224 0.50678 0.91674 0.0
C325 C 0.37309 0.48445 0.99779 0.0
O326 O 0.39128 0.53865 0.96238 0.0
Co327 Co 0.35615 0.54155 0.0231 0.0
O328 O 0.39709 0.55319 0.01032 0.0
C329 C 0.32006 0.56929 0.97574 0.0
C330 C 0.32897 0.48995 0.92138 0.0
C331 C 0.40605 0.55177 0.98331 0.0
O332 O 0.32878 0.54921 0.95696 0.0
O333 O 0.32629 0.56868 0.00364 0.0
O334 O 0.37924 0.47736 0.97029 0.0
O335 O 0.3529 0.50477 1.0009 0.0
Co336 Co 0.71241 0.76852 0.90428 0.0
O337 O 0.70118 0.74115 0.9358 0.0
O338 O 0.66917 0.76474 0.9067 0.0
C339 C 0.74887 0.74055 0.88315 0.0
O340 O 0.71579 0.7975 0.86907 0.0
Co341 Co 0.77741 0.79467 0.9039 0.0
O342 O 0.76411 0.81156 0.8652 0.0
C343 C 0.731 0.82381 0.94049 0.0
C344 C 0.67354 0.74599 0.92853 0.0
C345 C 0.73713 0.8118 0.85603 0.0
O346 O 0.71158 0.80397 0.93255 0.0
O347 O 0.75849 0.82302 0.93272 0.0
O348 O 0.72101 0.73531 0.87683 0.0
O349 O 0.75319 0.75916 0.90468 0.0
Co350 Co 0.49155 0.4638 0.15124 0.0
O351 O 0.518 0.45416 0.18409 0.0
O352 O 0.49582 0.42076 0.15541 0.0
C353 C 0.52013 0.49981 0.13021 0.0
O354 O 0.46387 0.46529 0.11478 0.0
Co355 Co 0.46407 0.52784 0.14618 0.0
O356 O 0.45037 0.51323 0.10671 0.0
C357 C 0.43465 0.48279 0.18439 0.0
C358 C 0.51379 0.42621 0.17764 0.0
C359 C 0.45072 0.48574 0.0993 0.0
O360 O 0.45523 0.46348 0.17832 0.0
O361 O 0.43489 0.50972 0.17479 0.0
O362 O 0.52564 0.4718 0.12485 0.0
O363 O 0.50024 0.50478 0.15045 0.0
Co364 Co 0.79506 0.23944 0.40219 0.0
O365 O 0.80538 0.26501 0.43554 0.0
O366 O 0.83816 0.24112 0.40757 0.0
C367 C 0.76145 0.27037 0.38049 0.0
O368 O 0.79302 0.2121 0.36553 0.0
Co369 Co 0.73012 0.21557 0.39402 0.0
O370 O 0.7446 0.20553 0.35337 0.0
C371 C 0.77198 0.18322 0.43364 0.0
C372 C 0.83321 0.25925 0.42978 0.0
C373 C 0.77235 0.20288 0.34771 0.0
O374 O 0.79239 0.20306 0.42901 0.0
O375 O 0.7457 0.18462 0.42243 0.0
O376 O 0.78987 0.27414 0.37593 0.0
O377 O 0.75466 0.2505 0.40025 0.0
Co378 Co 0.00935 0.54262 0.65335 0.0
O379 O 0.98351 0.5526 0.68645 0.0
O380 O 0.0038 0.58573 0.65617 0.0
C381 C 0.98178 0.50493 0.63401 0.0
O382 O 0.03645 0.54043 0.61665 0.0
Co383 Co 0.03867 0.47909 0.6517 0.0
O384 O 0.0527 0.49286 0.61187 0.0
C385 C 0.06638 0.52629 0.68789 0.0
C386 C 0.98667 0.58045 0.67912 0.0
C387 C 0.05093 0.51979 0.60271 0.0
O388 O 0.0463 0.54511 0.67925 0.0
O389 O 0.06576 0.49841 0.68165 0.0
O390 O 0.97501 0.53253 0.62795 0.0
O391 O 1.00195 0.50146 0.65427 0.0
Co392 Co 0.71669 0.24124 0.60307 0.0
O393 O 0.70612 0.26809 0.57089 0.0
O394 O 0.6739 0.24865 0.60274 0.0
C395 C 0.75658 0.26636 0.62115 0.0
O396 O 0.71971 0.2136 0.63934 0.0
Co397 Co 0.7788 0.20905 0.60007 0.0
O398 O 0.7662 0.19385 0.63983 0.0
C399 C 0.72865 0.18463 0.56587 0.0
C400 C 0.67861 0.26589 0.57976 0.0
C401 C 0.74024 0.19719 0.65115 0.0
O402 O 0.71115 0.20484 0.57672 0.0
O403 O 0.75693 0.18434 0.56996 0.0
O404 O 0.7297 0.27469 0.62838 0.0
O405 O 0.75791 0.2467 0.60015 0.0
Co406 Co 0.01627 0.463 0.85102 0.0
O407 O 0.99076 0.45349 0.81742 0.0
O408 O 0.01158 0.41999 0.84697 0.0
C409 C 0.98765 0.49966 0.87103 0.0
O410 O 0.04295 0.46423 0.88818 0.0
Co411 Co 0.04429 0.52679 0.85691 0.0
O412 O 0.05579 0.51216 0.89711 0.0
C413 C 0.07367 0.48181 0.81858 0.0
C414 C 0.99442 0.42552 0.82412 0.0
C415 C 0.05529 0.48462 0.90434 0.0
O416 O 0.0533 0.46234 0.82485 0.0
O417 O 0.0732 0.50881 0.82798 0.0
O418 O 0.9814 0.47179 0.87638 0.0
O419 O 0.00821 0.50398 0.85137 0.0
Co420 Co 0.79475 0.76409 0.10325 0.0
O421 O 0.8048 0.73856 0.06978 0.0
O422 O 0.83781 0.7607 0.09894 0.0
C423 C 0.75918 0.73451 0.12358 0.0
O424 O 0.79311 0.79099 0.14022 0.0
Co425 Co 0.7308 0.79088 0.11028 0.0
O426 O 0.74485 0.80013 0.15128 0.0
C427 C 0.77491 0.82153 0.07182 0.0
C428 C 0.83268 0.74323 0.07625 0.0
C429 C 0.77257 0.8012 0.15763 0.0
O430 O 0.79438 0.80088 0.07695 0.0
O431 O 0.74827 0.8211 0.08222 0.0
O432 O 0.78727 0.72931 0.12885 0.0
O433 O 0.75387 0.75496 0.10397 0.0
Co434 Co 0.48971 0.54399 0.35193 0.0
O435 O 0.51442 0.55225 0.31749 0.0
O436 O 0.4933 0.58688 0.34542 0.0
C437 C 0.52007 0.50961 0.37332 0.0
O438 O 0.46361 0.54381 0.38951 0.0
Co439 Co 0.46403 0.47993 0.36241 0.0
O440 O 0.45622 0.49586 0.40305 0.0
C441 C 0.4316 0.52214 0.32305 0.0
C442 C 0.51052 0.58045 0.32284 0.0
C443 C 0.45443 0.52381 0.40811 0.0
O444 O 0.45209 0.54217 0.32663 0.0
O445 O 0.43312 0.49584 0.33418 0.0
O446 O 0.52525 0.53793 0.37701 0.0
O447 O 0.49925 0.50332 0.35442 0.0
Co448 Co 0.90227 0.71656 0.76605 0.0
O449 O 0.93466 0.70506 0.73966 0.0
O450 O 0.90381 0.67345 0.76149 0.0
C451 C 0.88337 0.75412 0.73789 0.0
O452 O 0.86584 0.71974 0.79347 0.0
Co453 Co 0.9001 0.78035 0.7944 0.0
O454 O 0.85931 0.76799 0.80651 0.0
C455 C 0.9368 0.73343 0.82288 0.0
C456 C 0.92643 0.67753 0.74367 0.0
C457 C 0.85079 0.74084 0.80599 0.0
O458 O 0.92921 0.71445 0.80249 0.0
O459 O 0.9287 0.76086 0.82272 0.0
O460 O 0.87655 0.72652 0.7319 0.0
O461 O 0.90376 0.7576 0.75794 0.0
Co462 Co 0.54129 0.65253 0.01208 0.0
O463 O 0.55007 0.6862 0.98646 0.0
O464 O 0.58425 0.65743 0.00721 0.0
C465 C 0.50508 0.63184 0.98343 0.0
O466 O 0.54061 0.61553 0.03892 0.0
Co467 Co 0.4776 0.64527 0.03999 0.0
O468 O 0.49258 0.60468 0.0497 0.0
C469 C 0.52236 0.68361 0.07001 0.0
C470 C 0.57818 0.68007 0.98994 0.0
C471 C 0.52034 0.59836 0.05003 0.0
O472 O 0.54167 0.67854 0.04916 0.0
O473 O 0.49549 0.67385 0.06935 0.0
O474 O 0.53304 0.62688 0.97737 0.0
O475 O 0.50026 0.65144 0.00395 0.0
Co476 Co 0.6086 0.29677 0.26391 0.0
O477 O 0.57377 0.30518 0.23982 0.0
O478 O 0.60444 0.33959 0.25711 0.0
C479 C 0.62647 0.25871 0.23588 0.0
O480 O 0.64694 0.29615 0.28894 0.0
Co481 Co 0.61574 0.2345 0.29465 0.0
O482 O 0.65751 0.24814 0.29997 0.0
C483 C 0.58107 0.28221 0.32468 0.0
C484 C 0.58065 0.33325 0.24155 0.0
C485 C 0.66441 0.27574 0.29939 0.0
O486 O 0.58472 0.29981 0.30214 0.0
O487 O 0.59082 0.25532 0.3255 0.0
O488 O 0.63194 0.2862 0.22832 0.0
O489 O 0.60805 0.25537 0.25777 0.0
Co490 Co 0.96449 0.35108 0.51619 0.0
O491 O 0.95604 0.31755 0.49023 0.0
O492 O 0.9216 0.34469 0.51267 0.0
C493 C 0.99878 0.37357 0.48665 0.0
O494 O 0.96461 0.38768 0.54366 0.0
Co495 Co 0.02867 0.3606 0.54217 0.0
O496 O 0.01243 0.4002 0.55355 0.0
C497 C 0.98665 0.31988 0.57288 0.0
C498 C 0.92786 0.32264 0.49473 0.0
C499 C 0.98447 0.4054 0.55468 0.0
O500 O 0.96654 0.32433 0.55265 0.0
O501 O 0.01282 0.33134 0.57204 0.0
O502 O 0.97044 0.37759 0.48174 0.0
O503 O 0.00517 0.3539 0.50668 0.0
Co504 Co 0.90874 0.28878 0.73997 0.0
O505 O 0.94106 0.30076 0.76605 0.0
O506 O 0.9108 0.33208 0.74293 0.0
C507 C 0.88892 0.2525 0.76914 0.0
O508 O 0.8726 0.28467 0.71235 0.0
Co509 Co 0.90763 0.22341 0.71471 0.0
O510 O 0.86859 0.23636 0.69825 0.0
C511 C 0.9432 0.26949 0.68388 0.0
C512 C 0.9333 0.32823 0.76099 0.0
C513 C 0.85925 0.26328 0.69843 0.0
O514 O 0.93572 0.28931 0.70349 0.0
O515 O 0.93597 0.24191 0.68568 0.0
O516 O 0.8826 0.28038 0.77431 0.0
O517 O 0.90979 0.24818 0.74981 0.0
Co518 Co 0.96441 0.65236 0.98966 0.0
O519 O 0.95544 0.68593 0.01528 0.0
O520 O 0.92139 0.65782 0.99348 0.0
C521 C 0.99939 0.63088 0.01932 0.0
O522 O 0.96533 0.61549 0.96255 0.0
Co523 Co 0.02892 0.64511 0.96366 0.0
O524 O 0.01339 0.60576 0.95067 0.0
C525 C 0.98522 0.68356 0.93236 0.0
C526 C 0.92735 0.68021 0.01111 0.0
C527 C 0.98569 0.59918 0.9503 0.0
O528 O 0.9654 0.67876 0.95278 0.0
O529 O 0.01192 0.67339 0.93346 0.0
O530 O 0.97117 0.62633 0.02435 0.0
O531 O 0.00521 0.65061 0.99916 0.0
Co532 Co 0.60397 0.71133 0.23776 0.0
O533 O 0.56996 0.70179 0.26278 0.0
O534 O 0.59968 0.66836 0.24205 0.0
C535 C 0.62354 0.74774 0.26682 0.0
O536 O 0.64151 0.71243 0.21164 0.0
Co537 Co 0.61203 0.77476 0.20982 0.0
O538 O 0.65345 0.76054 0.20297 0.0
C539 C 0.57372 0.73025 0.17946 0.0
C540 C 0.5766 0.67382 0.25889 0.0
C541 C 0.65954 0.73276 0.20212 0.0
O542 O 0.5784 0.71098 0.20042 0.0
O543 O 0.58438 0.75677 0.17962 0.0
O544 O 0.62874 0.71983 0.27303 0.0
O545 O 0.60439 0.75231 0.24581 0.0
Co546 Co 0.54804 0.36021 0.49462 0.0
O547 O 0.55684 0.32637 0.51985 0.0
O548 O 0.59099 0.35637 0.50093 0.0
C549 C 0.51038 0.37915 0.52265 0.0
O550 O 0.54682 0.39757 0.4682 0.0
Co551 Co 0.48457 0.36512 0.46535 0.0
O552 O 0.49887 0.40559 0.45461 0.0
C553 C 0.53252 0.33093 0.43502 0.0
C554 C 0.58485 0.33325 0.51757 0.0
C555 C 0.52627 0.41327 0.45545 0.0
O556 O 0.55065 0.33509 0.45705 0.0
O557 O 0.50531 0.33973 0.43498 0.0
O558 O 0.53799 0.38492 0.5295 0.0
O559 O 0.50677 0.35974 0.50172 0.0
Co560 Co 0.76636 0.90812 0.71597 0.0
O561 O 0.74084 0.94157 0.70613 0.0
O562 O 0.7596 0.91026 0.67305 0.0
C563 C 0.73919 0.89037 0.75486 0.0
O564 O 0.79275 0.87077 0.71781 0.0
Co565 Co 0.79696 0.90457 0.77892 0.0
O566 O 0.80765 0.86373 0.76549 0.0
C567 C 0.82496 0.9402 0.73085 0.0
C568 C 0.74289 0.9335 0.67837 0.0
C569 C 0.80595 0.85542 0.73831 0.0
O570 O 0.80372 0.93355 0.71243 0.0
O571 O 0.82528 0.93218 0.75829 0.0
O572 O 0.73154 0.88381 0.7276 0.0
O573 O 0.76023 0.90982 0.75718 0.0
Co574 Co 0.26417 0.60252 0.29345 0.0
O575 O 0.23749 0.56998 0.30282 0.0
O576 O 0.25946 0.59833 0.33656 0.0
C577 C 0.23573 0.62386 0.25745 0.0
O578 O 0.29219 0.63867 0.29191 0.0
Co579 Co 0.29139 0.60691 0.22918 0.0
O580 O 0.305 0.64642 0.24371 0.0
C581 C 0.32073 0.56872 0.27439 0.0
C582 C 0.2412 0.5764 0.33082 0.0
C583 C 0.30509 0.65397 0.27118 0.0
O584 O 0.30031 0.57507 0.29379 0.0
O585 O 0.32037 0.57813 0.24739 0.0
O586 O 0.23034 0.62926 0.28546 0.0
O587 O 0.25537 0.60338 0.25247 0.0
Co588 Co 0.65047 0.01313 0.54316 0.0
O589 O 0.68405 0.98827 0.55437 0.0
O590 O 0.65306 0.00944 0.58636 0.0
C591 C 0.63183 0.98384 0.50646 0.0
O592 O 0.61321 0.03928 0.53999 0.0
Co593 Co 0.64793 0.04031 0.47881 0.0
O594 O 0.60755 0.05342 0.49188 0.0
C595 C 0.68366 0.07036 0.52495 0.0
C596 C 0.67639 0.99258 0.58201 0.0
C597 C 0.59862 0.05239 0.51892 0.0
O598 O 0.67559 0.05067 0.54441 0.0
O599 O 0.6772 0.0688 0.49715 0.0
O600 O 0.62584 0.97798 0.53428 0.0
O601 O 0.65166 0.00431 0.50225 0.0
Co602 Co 0.24064 0.40256 0.78819 0.0
O603 O 0.26681 0.43547 0.7978 0.0
O604 O 0.24498 0.40683 0.83136 0.0
C605 C 0.26968 0.38161 0.75248 0.0
O606 O 0.21305 0.36608 0.78633 0.0
Co607 Co 0.21434 0.39796 0.72343 0.0
O608 O 0.19914 0.35913 0.73827 0.0
C609 C 0.18377 0.4353 0.7685 0.0
C610 C 0.263 0.42901 0.82577 0.0
C611 C 0.1994 0.35131 0.76567 0.0
O612 O 0.20406 0.42941 0.78819 0.0
O613 O 0.18492 0.42636 0.74137 0.0
O614 O 0.27491 0.37625 0.78052 0.0
O615 O 0.24987 0.40185 0.74734 0.0
Co616 Co 0.35348 0.49181 0.54138 0.0
O617 O 0.31949 0.51693 0.55092 0.0
O618 O 0.34868 0.49533 0.58431 0.0
C619 C 0.37384 0.52156 0.50595 0.0
O620 O 0.39094 0.46563 0.54053 0.0
Co621 Co 0.36214 0.46463 0.4779 0.0
O622 O 0.40314 0.45644 0.49258 0.0
C623 C 0.32363 0.43348 0.52162 0.0
C624 C 0.32586 0.51254 0.57889 0.0
C625 C 0.40898 0.45573 0.52042 0.0
O626 O 0.32782 0.45453 0.5409 0.0
O627 O 0.33464 0.43379 0.49522 0.0
O628 O 0.37854 0.52697 0.5341 0.0
O629 O 0.3547 0.50074 0.5004 0.0
Co630 Co 0.74028 0.1031 0.21228 0.0
O631 O 0.76562 0.06946 0.20229 0.0
O632 O 0.74457 0.09941 0.16926 0.0
C633 C 0.76922 0.12279 0.24877 0.0
O634 O 0.71383 0.14034 0.21387 0.0
Co635 Co 0.71215 0.10905 0.27579 0.0
O636 O 0.7027 0.15007 0.26203 0.0
C637 C 0.68189 0.07214 0.23016 0.0
C638 C 0.76166 0.07643 0.17441 0.0
C639 C 0.70271 0.1571 0.23445 0.0
O640 O 0.70313 0.0773 0.21135 0.0
O641 O 0.68186 0.08193 0.25703 0.0
O642 O 0.77515 0.12818 0.22085 0.0
O643 O 0.74858 0.10322 0.25341 0.0
Co644 Co 0.65174 0.99239 0.96291 0.0
O645 O 0.6855 0.0179 0.95413 0.0
O646 O 0.65781 0.99592 0.91989 0.0
C647 C 0.62996 0.02237 0.99742 0.0
O648 O 0.61477 0.96541 0.96346 0.0
Co649 Co 0.64301 0.96716 0.02768 0.0
O650 O 0.60411 0.9537 0.01137 0.0
C651 C 0.6822 0.93524 0.98506 0.0
C652 C 0.68005 0.01368 0.92599 0.0
C653 C 0.59809 0.95321 0.98353 0.0
O654 O 0.67794 0.95535 0.96474 0.0
O655 O 0.67161 0.93691 0.01156 0.0
O656 O 0.62571 0.02723 0.9691 0.0
O657 O 0.6495 1.00217 0.00358 0.0
Co658 Co 0.84768 0.01491 0.46378 0.0
O659 O 0.81421 0.98923 0.45462 0.0
O660 O 0.84285 0.01079 0.42081 0.0
C661 C 0.86907 0.98592 0.49934 0.0
O662 O 0.88449 0.04185 0.46473 0.0
Co663 Co 0.85493 0.04176 0.52795 0.0
O664 O 0.89522 0.05248 0.51284 0.0
C665 C 0.81613 0.0723 0.48393 0.0
C666 C 0.82047 0.99311 0.42658 0.0
C667 C 0.9015 0.05304 0.48507 0.0
O668 O 0.82143 0.05193 0.46416 0.0
O669 O 0.82584 0.07107 0.51081 0.0
O670 O 0.87353 0.98019 0.47122 0.0
O671 O 0.84918 0.00605 0.50467 0.0
C672 C 0.12858 0.18865 0.47644 0.0
C673 C 0.09819 0.19594 0.47298 0.0
C674 C 0.15096 0.20418 0.46085 0.0
C675 C 0.14398 0.22753 0.44088 0.0
H676 H 0.13525 0.1707 0.49125 0.0
H677 H 0.17397 0.19748 0.46428 0.0
S678 S 0.06794 0.25628 0.42445 0.0
N679 N 0.06238 0.22889 0.44854 0.0
N680 N 0.10442 0.25775 0.41916 0.0
C681 C 0.11373 0.23528 0.43736 0.0
C682 C 0.09088 0.21961 0.45343 0.0
C683 C 0.06401 0.88124 0.72833 0.0
C684 C 0.05471 0.85127 0.7259 0.0
C685 C 0.04971 0.90421 0.71228 0.0
C686 C 0.02555 0.89828 0.69292 0.0
H687 H 0.08275 0.88705 0.7425 0.0
H688 H 0.05805 0.92679 0.71476 0.0
S689 S 0.99101 0.82398 0.68001 0.0
N690 N 0.0186 0.81724 0.70357 0.0
N691 N 0.99204 0.86027 0.67343 0.0
C692 C 0.01561 0.86853 0.69072 0.0
C693 C 0.03006 0.84512 0.70718 0.0
C694 C 0.40482 0.79053 0.95134 0.0
C695 C 0.39833 0.81233 0.97317 0.0
C696 C 0.382 0.77526 0.93602 0.0
C697 C 0.35164 0.78092 0.94201 0.0
H698 H 0.42779 0.7853 0.94577 0.0
H699 H 0.38826 0.75883 0.91938 0.0
S700 S 0.32246 0.83561 0.9974 0.0
N701 N 0.35912 0.83859 1.00007 0.0
N702 N 0.31637 0.80994 0.97163 0.0
C703 C 0.34482 0.80252 0.96398 0.0
C704 C 0.36808 0.81819 0.97943 0.0
C705 C 0.43592 0.11765 0.22959 0.0
C706 C 0.44047 0.14816 0.22348 0.0
C707 C 0.45264 0.09537 0.21491 0.0
C708 C 0.47445 0.10263 0.19332 0.0
H709 H 0.41938 0.11087 0.24591 0.0
H710 H 0.44814 0.07222 0.22035 0.0
S711 S 0.49521 0.17923 0.16913 0.0
N712 N 0.46874 0.18439 0.19427 0.0
N713 N 0.49977 0.14272 0.16684 0.0
C714 C 0.47928 0.13306 0.18709 0.0
C715 C 0.46242 0.15572 0.2021 0.0
C716 C 0.15449 0.79622 0.03853 0.0
C717 C 0.14811 0.77388 0.05982 0.0
C718 C 0.13162 0.81108 0.02291 0.0
C719 C 0.10131 0.80416 0.0277 0.0
H720 H 0.17739 0.80273 0.03418 0.0
H721 H 0.13783 0.82839 0.00718 0.0
S722 S 0.07252 0.74609 0.07972 0.0
N723 N 0.10914 0.74473 0.08394 0.0
N724 N 0.06626 0.77238 0.0546 0.0
C725 C 0.09462 0.78131 0.0484 0.0
C726 C 0.11794 0.76629 0.06444 0.0
C727 C 0.45705 0.90397 0.28756 0.0
C728 C 0.47965 0.89694 0.30839 0.0
C729 C 0.44158 0.88156 0.27184 0.0
C730 C 0.44815 0.85108 0.27605 0.0
H731 H 0.45086 0.92703 0.28359 0.0
H732 H 0.42419 0.88826 0.25639 0.0
S733 S 0.50623 0.82061 0.32715 0.0
N734 N 0.50831 0.85714 0.33175 0.0
N735 N 0.47959 0.81515 0.30223 0.0
C736 C 0.4711 0.84374 0.29643 0.0
C737 C 0.48673 0.86658 0.31258 0.0
C738 C 0.37943 0.22867 0.56208 0.0
C739 C 0.34895 0.2236 0.5562 0.0
C740 C 0.40187 0.21191 0.54781 0.0
C741 C 0.3949 0.18909 0.5272 0.0
H742 H 0.3861 0.24574 0.57788 0.0
H743 H 0.42495 0.2168 0.55324 0.0
S744 S 0.31855 0.16683 0.50367 0.0
N745 N 0.31303 0.19407 0.52793 0.0
N746 N 0.35513 0.16257 0.50147 0.0
C747 C 0.36453 0.1838 0.52103 0.0
C748 C 0.34164 0.20104 0.53539 0.0
C749 C 0.0416 0.15398 0.80227 0.0
C750 C 0.0625 0.14746 0.77959 0.0
C751 C 0.0261 0.13122 0.81742 0.0
C752 C 0.03061 0.10088 0.81046 0.0
H753 H 0.03731 0.17692 0.80867 0.0
H754 H 0.01056 0.13754 0.83487 0.0
S755 S 0.08192 0.07171 0.75191 0.0
N756 N 0.08623 0.10831 0.75038 0.0
N757 N 0.05712 0.06563 0.77853 0.0
C758 C 0.05113 0.09403 0.78748 0.0
C759 C 0.06706 0.11725 0.77218 0.0
C760 C 0.20726 0.46733 0.15623 0.0
C761 C 0.23013 0.44661 0.1498 0.0
C762 C 0.1914 0.48199 0.13335 0.0
C763 C 0.19784 0.47677 0.10299 0.0
H764 H 0.20114 0.47199 0.17918 0.0
H765 H 0.17383 0.49742 0.13959 0.0
S766 S 0.25664 0.42567 0.07401 0.0
N767 N 0.25897 0.42236 0.11068 0.0
N768 N 0.22953 0.44991 0.06782 0.0
C769 C 0.22108 0.45653 0.09624 0.0
C770 C 0.23709 0.44147 0.11956 0.0
C771 C 0.70665 0.03997 0.8491 0.0
C772 C 0.72926 0.06089 0.85578 0.0
C773 C 0.69114 0.02463 0.87179 0.0
C774 C 0.69765 0.02934 0.90222 0.0
H775 H 0.70054 0.03558 0.8261 0.0
H776 H 0.67374 0.0091 0.86534 0.0
S777 S 0.75587 0.08075 0.93182 0.0
N778 N 0.75793 0.08479 0.89521 0.0
N779 N 0.72914 0.05603 0.93769 0.0
C780 C 0.7206 0.04985 0.9092 0.0
C781 C 0.73626 0.06558 0.88609 0.0
C782 C 0.79674 0.96589 0.34928 0.0
C783 C 0.77429 0.94466 0.35545 0.0
C784 C 0.81118 0.98169 0.37228 0.0
C785 C 0.80373 0.97713 0.40251 0.0
H786 H 0.80361 0.9701 0.32646 0.0
H787 H 0.82856 0.99742 0.36625 0.0
S788 S 0.74528 0.92524 0.43073 0.0
N789 N 0.74456 0.92076 0.39412 0.0
N790 N 0.77143 0.95043 0.43723 0.0
C791 C 0.78084 0.95642 0.40898 0.0
C792 C 0.76624 0.94021 0.38553 0.0
C793 C 0.81426 0.02237 0.13442 0.0
C794 C 0.80797 0.02705 0.10394 0.0
C795 C 0.79889 0.03807 0.15692 0.0
C796 C 0.77665 0.05931 0.14998 0.0
H797 H 0.83142 0.00662 0.14104 0.0
H798 H 0.80487 0.03377 0.17998 0.0
S799 S 0.75058 0.07908 0.07371 0.0
N800 N 0.77699 0.05393 0.06812 0.0
N801 N 0.74842 0.08337 0.11028 0.0
C802 C 0.76976 0.06388 0.11963 0.0
C803 C 0.7853 0.04778 0.09669 0.0
C804 C 0.27426 0.56718 0.61941 0.0
C805 C 0.27669 0.55858 0.64959 0.0
C806 C 0.28976 0.55185 0.59672 0.0
C807 C 0.30852 0.52736 0.60322 0.0
H808 H 0.26055 0.58615 0.61322 0.0
H809 H 0.28743 0.55966 0.57392 0.0
S810 S 0.32096 0.49427 0.67827 0.0
N811 N 0.29823 0.52266 0.68442 0.0
N812 N 0.32731 0.49425 0.64194 0.0
C813 C 0.31064 0.51809 0.63318 0.0
C814 C 0.29475 0.53356 0.65627 0.0
C815 C 0.22981 0.56636 0.38511 0.0
C816 C 0.22448 0.56011 0.35473 0.0
C817 C 0.21365 0.55189 0.4079 0.0
C818 C 0.19127 0.53068 0.40134 0.0
H819 H 0.24654 0.58266 0.39142 0.0
H820 H 0.2186 0.55765 0.43088 0.0
S821 S 0.16897 0.50561 0.32545 0.0
N822 N 0.19541 0.53059 0.31942 0.0
N823 N 0.16513 0.50376 0.36208 0.0
C824 C 0.18586 0.52404 0.37108 0.0
C825 C 0.20242 0.53862 0.34787 0.0
C826 C 0.29052 0.45321 0.90299 0.0
C827 C 0.31212 0.47525 0.89658 0.0
C828 C 0.2746 0.43859 0.88012 0.0
C829 C 0.27939 0.44551 0.8498 0.0
H830 H 0.28602 0.44688 0.92592 0.0
H831 H 0.25851 0.42161 0.88632 0.0
S832 S 0.33261 0.50248 0.82093 0.0
N833 N 0.33683 0.50378 0.85755 0.0
N834 N 0.307 0.47669 0.81473 0.0
C835 C 0.30063 0.46787 0.8431 0.0
C836 C 0.31695 0.4826 0.86639 0.0
C837 C 0.63235 0.6919 0.98018 0.0
C838 C 0.60197 0.69774 0.97447 0.0
C839 C 0.65513 0.7078 0.96547 0.0
C840 C 0.64863 0.73019 0.94423 0.0
H841 H 0.63868 0.67481 0.99612 0.0
H842 H 0.6781 0.70222 0.97068 0.0
S843 S 0.5727 0.75464 0.92137 0.0
N844 N 0.56665 0.72804 0.9462 0.0
N845 N 0.60936 0.75763 0.91862 0.0
C846 C 0.61835 0.73644 0.93843 0.0
C847 C 0.59511 0.72033 0.95351 0.0
C848 C 0.57053 0.38696 0.22792 0.0
C849 C 0.56254 0.35661 0.22591 0.0
C850 C 0.55439 0.4092 0.21262 0.0
C851 C 0.52966 0.4021 0.19441 0.0
H852 H 0.58959 0.39366 0.24125 0.0
H853 H 0.56173 0.43217 0.21475 0.0
S854 S 0.49822 0.32626 0.18282 0.0
N855 N 0.52713 0.32085 0.20511 0.0
N856 N 0.49719 0.36256 0.17633 0.0
C857 C 0.52109 0.37193 0.19256 0.0
C858 C 0.53738 0.34926 0.2083 0.0
C859 C 0.87378 0.31206 0.48318 0.0
C860 C 0.90416 0.30492 0.47916 0.0
C861 C 0.85114 0.29681 0.46758 0.0
C862 C 0.8578 0.27377 0.44712 0.0
H863 H 0.86735 0.3299 0.49822 0.0
H864 H 0.8282 0.30359 0.47127 0.0
S865 S 0.93364 0.24492 0.42975 0.0
N866 N 0.93954 0.27203 0.45407 0.0
N867 N 0.89711 0.24363 0.42482 0.0
C868 C 0.88803 0.26589 0.44338 0.0
C869 C 0.91112 0.28135 0.45935 0.0
C870 C 0.96342 0.65823 0.70585 0.0
C871 C 0.94181 0.65232 0.72803 0.0
C872 C 0.97775 0.63501 0.69018 0.0
C873 C 0.9713 0.60479 0.69612 0.0
H874 H 0.9692 0.68106 0.70027 0.0
H875 H 0.99407 0.64085 0.67328 0.0
S876 S 0.91687 0.57705 0.75247 0.0
N877 N 0.91497 0.61377 0.7553 0.0
N878 N 0.94184 0.5703 0.72618 0.0
C879 C 0.94992 0.59855 0.71846 0.0
C880 C 0.93522 0.62221 0.73429 0.0
C881 C 0.63882 0.32091 0.52796 0.0
C882 C 0.60833 0.31568 0.53358 0.0
C883 C 0.66123 0.30462 0.54286 0.0
C884 C 0.65418 0.28256 0.56427 0.0
H885 H 0.64552 0.33766 0.51182 0.0
H886 H 0.68434 0.30958 0.53764 0.0
S887 S 0.57775 0.26 0.58721 0.0
N888 N 0.57232 0.28649 0.56211 0.0
N889 N 0.61433 0.25626 0.59009 0.0
C890 C 0.6238 0.2771 0.57013 0.0
C891 C 0.60095 0.29352 0.55481 0.0
C892 C 0.96939 0.34781 0.79933 0.0
C893 C 0.9491 0.35358 0.77591 0.0
C894 C 0.98403 0.37108 0.81454 0.0
C895 C 0.97922 0.40122 0.80693 0.0
H896 H 0.97379 0.32506 0.80634 0.0
H897 H 0.99913 0.3653 0.83257 0.0
S898 S 0.92946 0.42851 0.74617 0.0
N899 N 0.92575 0.39182 0.74519 0.0
N900 N 0.95327 0.43546 0.77348 0.0
C901 C 0.95939 0.40732 0.78315 0.0
C902 C 0.94435 0.38358 0.76775 0.0
C903 C 0.85061 0.70461 0.03953 0.0
C904 C 0.85716 0.72854 0.05897 0.0
C905 C 0.87327 0.68947 0.02384 0.0
C906 C 0.90351 0.69767 0.02673 0.0
H907 H 0.82777 0.69709 0.03676 0.0
H908 H 0.867 0.67091 0.00963 0.0
S909 S 0.93244 0.76043 0.07291 0.0
N910 N 0.89606 0.76072 0.07894 0.0
N911 N 0.93851 0.73258 0.04949 0.0
C912 C 0.91028 0.72212 0.04549 0.0
C913 C 0.8872 0.73743 0.06157 0.0
C914 C 0.52276 0.63436 0.31209 0.0
C915 C 0.52628 0.60391 0.30499 0.0
C916 C 0.5387 0.65671 0.29674 0.0
C917 C 0.55906 0.64963 0.27374 0.0
H918 H 0.50785 0.64107 0.32993 0.0
H919 H 0.53539 0.67974 0.30341 0.0
S920 S 0.57519 0.57348 0.24503 0.0
N921 N 0.55079 0.56805 0.27217 0.0
N922 N 0.58072 0.60992 0.24369 0.0
C923 C 0.56234 0.61934 0.26596 0.0
C924 C 0.54598 0.59657 0.28145 0.0
C925 C 0.72988 0.94107 0.6241 0.0
C926 C 0.72629 0.94955 0.65419 0.0
C927 C 0.7139 0.95529 0.60104 0.0
C928 C 0.69339 0.97846 0.60703 0.0
H929 H 0.7451 0.92318 0.61823 0.0
H930 H 0.71744 0.94773 0.57832 0.0
S931 S 0.67639 0.01002 0.68183 0.0
N932 N 0.70111 0.98346 0.68854 0.0
N933 N 0.67105 0.0098 0.64533 0.0
C934 C 0.68976 0.98738 0.63696 0.0
C935 C 0.7062 0.97307 0.66045 0.0
C936 C 0.22868 0.37656 0.30352 0.0
C937 C 0.22694 0.3654 0.27419 0.0
C938 C 0.22764 0.35743 0.3282 0.0
C939 C 0.22465 0.32643 0.32453 0.0
H940 H 0.23272 0.40011 0.30741 0.0
H941 H 0.2309 0.36679 0.35031 0.0
S942 S 0.21628 0.28596 0.25291 0.0
N943 N 0.21968 0.32139 0.24302 0.0
N944 N 0.21767 0.28542 0.28982 0.0
C945 C 0.2207 0.31505 0.2956 0.0
C946 C 0.22177 0.33459 0.27028 0.0
C947 C 0.88101 0.97864 0.55299 0.0
C948 C 0.89054 0.97747 0.52306 0.0
C949 C 0.90157 0.97829 0.57656 0.0
C950 C 0.93241 0.9768 0.57108 0.0
H951 H 0.85755 0.98161 0.55822 0.0
H952 H 0.89338 0.98112 0.59918 0.0
S953 S 0.96905 0.97068 0.4972 0.0
N954 N 0.93299 0.97239 0.48939 0.0
N955 N 0.97163 0.97206 0.53401 0.0
C956 C 0.94227 0.97368 0.54151 0.0
C957 C 0.92129 0.97382 0.51737 0.0
C958 C 0.2732 0.69324 0.79326 0.0
C959 C 0.2757 0.68201 0.82248 0.0
C960 C 0.27324 0.67378 0.76856 0.0
C961 C 0.2751 0.64261 0.77257 0.0
H962 H 0.26936 0.71687 0.78963 0.0
H963 H 0.2694 0.683 0.7465 0.0
S964 S 0.28454 0.60273 0.84454 0.0
N965 N 0.28241 0.63837 0.85393 0.0
N966 N 0.28184 0.60182 0.80772 0.0
C967 C 0.27927 0.63146 0.80158 0.0
C968 C 0.27968 0.6512 0.82653 0.0
C969 C 0.57752 0.02487 0.01587 0.0
C970 C 0.60802 0.03104 0.02039 0.0
C971 C 0.55762 0.02348 0.04014 0.0
C972 C 0.56749 0.02944 0.06935 0.0
H973 H 0.56959 0.01844 0.99394 0.0
H974 H 0.5349 0.01606 0.03629 0.0
S975 S 0.64421 0.05022 0.09234 0.0
N976 N 0.64655 0.04524 0.05582 0.0
N977 N 0.60885 0.04426 0.10113 0.0
C978 C 0.59727 0.03816 0.07372 0.0
C979 C 0.61765 0.03864 0.04925 0.0
C980 C 0.23246 0.69567 0.21349 0.0
C981 C 0.22708 0.68533 0.18435 0.0
C982 C 0.23216 0.67589 0.23789 0.0
C983 C 0.22764 0.64507 0.23358 0.0
H984 H 0.23846 0.71879 0.21723 0.0
H985 H 0.23788 0.68438 0.25981 0.0
S986 S 0.21089 0.6074 0.16179 0.0
N987 N 0.21492 0.64297 0.15277 0.0
N988 N 0.21586 0.60555 0.19834 0.0
C989 C 0.22091 0.6348 0.20473 0.0
C990 C 0.22031 0.65503 0.18012 0.0
C991 C 0.58041 0.97745 0.48579 0.0
C992 C 0.61157 0.97527 0.48189 0.0
C993 C 0.56102 0.97722 0.46107 0.0
C994 C 0.57219 0.97386 0.43191 0.0
H995 H 0.57118 0.98183 0.50775 0.0
H996 H 0.53743 0.98142 0.4646 0.0
S997 S 0.65147 0.96441 0.41013 0.0
N998 N 0.65237 0.96782 0.4469 0.0
N999 N 0.61583 0.96629 0.40065 0.0
C1000 C 0.60299 0.96956 0.42799 0.0
C1001 C 0.62273 0.97048 0.45297 0.0
C1002 C 0.27272 0.30994 0.70843 0.0
C1003 C 0.27743 0.32049 0.67924 0.0
C1004 C 0.27349 0.32961 0.73291 0.0
C1005 C 0.27795 0.36045 0.72865 0.0
H1006 H 0.26667 0.2868 0.71214 0.0
H1007 H 0.26803 0.32103 0.75488 0.0
S1008 S 0.29334 0.39851 0.65674 0.0
N1009 N 0.28904 0.36299 0.64763 0.0
N1010 N 0.28919 0.40014 0.6934 0.0
C1011 C 0.28425 0.37085 0.69974 0.0
C1012 C 0.28425 0.35078 0.67504 0.0
C1013 C 0.88502 0.02797 0.95469 0.0
C1014 C 0.89548 0.02799 0.98433 0.0
C1015 C 0.90488 0.02844 0.93055 0.0
C1016 C 0.93589 0.02882 0.93516 0.0
H1017 H 0.86136 0.02559 0.9501 0.0
H1018 H 0.89596 0.02627 0.90813 0.0
S1019 S 0.97479 0.0325 0.00806 0.0
N1020 N 0.93893 0.03143 0.01688 0.0
N1021 N 0.97628 0.03183 0.97116 0.0
C1022 C 0.94669 0.03109 0.96449 0.0
C1023 C 0.92642 0.03091 0.98922 0.0
C1024 C 0.32412 0.23091 0.35437 0.0
C1025 C 0.32111 0.22548 0.3236 0.0
C1026 C 0.29914 0.23229 0.37304 0.0
C1027 C 0.27013 0.22847 0.36164 0.0
H1028 H 0.3459 0.23579 0.36379 0.0
H1029 H 0.30252 0.23803 0.39632 0.0
S1030 S 0.25062 0.21108 0.28288 0.0
N1031 N 0.28743 0.21404 0.28273 0.0
N1032 N 0.24003 0.21663 0.31784 0.0
C1033 C 0.26694 0.22093 0.3312 0.0
C1034 C 0.29259 0.2195 0.31213 0.0
C1035 C 0.02541 0.01551 0.57511 0.0
C1036 C 0.03125 0.01941 0.60578 0.0
C1037 C 0.02371 0.04023 0.55575 0.0
C1038 C 0.02895 0.06931 0.56638 0.0
H1039 H 0.01941 0.99367 0.56662 0.0
H1040 H 0.01649 0.0368 0.53288 0.0
S1041 S 0.04894 0.09083 0.64375 0.0
N1042 N 0.04471 0.05418 0.64519 0.0
N1043 N 0.0429 0.10034 0.60858 0.0
C1044 C 0.03741 0.0731 0.59632 0.0
C1045 C 0.03833 0.04817 0.6161 0.0
C1046 C 0.20593 0.77487 0.8104 0.0
C1047 C 0.17673 0.77596 0.82185 0.0
C1048 C 0.23075 0.77518 0.82969 0.0
C1049 C 0.22691 0.77574 0.86094 0.0
H1050 H 0.20953 0.77203 0.78662 0.0
H1051 H 0.25287 0.77258 0.8202 0.0
S1052 S 0.15489 0.78074 0.90152 0.0
N1053 N 0.14534 0.77978 0.86587 0.0
N1054 N 0.19179 0.77942 0.90216 0.0
C1055 C 0.19783 0.77831 0.87241 0.0
C1056 C 0.17274 0.7786 0.85281 0.0
C1057 C 0.47998 0.9498 0.12202 0.0
C1058 C 0.47652 0.97916 0.11134 0.0
C1059 C 0.48039 0.92544 0.10247 0.0
C1060 C 0.47711 0.92947 0.07156 0.0
H1061 H 0.4843 0.94574 0.1455 0.0
H1062 H 0.48498 0.90341 0.11146 0.0
S1063 S 0.46442 1.00114 0.0323 0.0
N1064 N 0.46737 0.0106 0.06788 0.0
N1065 N 0.46793 0.96439 0.03113 0.0
C1066 C 0.47143 0.9583 0.06065 0.0
C1067 C 0.47108 0.9833 0.08061 0.0
C1068 C 0.32566 0.77964 0.1508 0.0
C1069 C 0.32198 0.7804 0.18193 0.0
C1070 C 0.30095 0.77924 0.13166 0.0
C1071 C 0.27164 0.77958 0.14296 0.0
H1072 H 0.34777 0.7771 0.14124 0.0
H1073 H 0.30484 0.77654 0.1079 0.0
S1074 S 0.25033 0.78543 0.22288 0.0
N1075 N 0.28725 0.78438 0.22331 0.0
N1076 N 0.24043 0.78395 0.18731 0.0
C1077 C 0.26769 0.78297 0.17401 0.0
C1078 C 0.29302 0.78316 0.19355 0.0
C1079 C 0.47944 0.01401 0.42494 0.0
C1080 C 0.47715 0.01843 0.39384 0.0
C1081 C 0.47877 0.03841 0.44476 0.0
C1082 C 0.47492 0.06765 0.43402 0.0
H1083 H 0.48427 0.99199 0.43377 0.0
H1084 H 0.48306 0.03459 0.46829 0.0
S1085 S 0.46469 0.09059 0.35516 0.0
N1086 N 0.46881 0.05393 0.35364 0.0
N1087 N 0.46657 0.09948 0.39094 0.0
C1088 C 0.47043 0.072 0.40331 0.0
C1089 C 0.47172 0.04741 0.38317 0.0
C1090 C 0.17241 0.23214 0.64708 0.0
C1091 C 0.1761 0.22861 0.67804 0.0
C1092 C 0.197 0.23231 0.62782 0.0
C1093 C 0.22629 0.22915 0.63878 0.0
H1094 H 0.15039 0.23626 0.63784 0.0
H1095 H 0.19314 0.23663 0.6043 0.0
S1096 S 0.24758 0.21726 0.71807 0.0
N1097 N 0.21075 0.22001 0.71883 0.0
N1098 N 0.25739 0.22048 0.68259 0.0
C1099 C 0.23016 0.22369 0.66956 0.0
C1100 C 0.20492 0.22346 0.68924 0.0
C1101 C 0.02613 0.96123 0.94803 0.0
C1102 C 0.03024 0.9319 0.9376 0.0
C1103 C 0.02734 0.98561 0.92826 0.0
C1104 C 0.03147 0.98112 0.89741 0.0
H1105 H 0.0202 0.96515 0.97119 0.0
H1106 H 0.02231 0.00771 0.93673 0.0
S1107 S 0.04542 0.9088 0.85961 0.0
N1108 N 0.04119 0.89992 0.89521 0.0
N1109 N 0.04189 0.94551 0.85783 0.0
C1110 C 0.03729 0.95207 0.88713 0.0
C1111 C 0.03697 0.92746 0.90732 0.0
C1112 C 0.30805 0.29413 0.23226 0.0
C1113 C 0.31979 0.32295 0.22827 0.0
C1114 C 0.32676 0.26892 0.23143 0.0
C1115 C 0.35782 0.27203 0.22759 0.0
H1116 H 0.28462 0.29121 0.23757 0.0
H1117 H 0.31721 0.24719 0.23615 0.0
S1118 S 0.39895 0.3426 0.21432 0.0
N1119 N 0.36373 0.35305 0.21814 0.0
N1120 N 0.39909 0.30585 0.21791 0.0
C1121 C 0.3695 0.30061 0.22224 0.0
C1122 C 0.3504 0.32609 0.2223 0.0
C1123 C 0.86012 0.17371 0.77413 0.0
C1124 C 0.82916 0.17762 0.77721 0.0
C1125 C 0.87954 0.19816 0.77427 0.0
C1126 C 0.86872 0.22754 0.7772 0.0
H1127 H 0.86924 0.15165 0.76994 0.0
H1128 H 0.90307 0.19411 0.77024 0.0
S1129 S 0.78948 0.24925 0.78867 0.0
N1130 N 0.78852 0.21246 0.78562 0.0
N1131 N 0.82502 0.25886 0.78574 0.0
C1132 C 0.83792 0.23159 0.7824 0.0
C1133 C 0.81809 0.20648 0.78233 0.0
C1134 C 0.01814 0.5786 0.02373 0.0
C1135 C 0.02265 0.60937 0.0284 0.0
C1136 C 0.04236 0.55859 0.02377 0.0
C1137 C 0.07152 0.56864 0.02964 0.0
H1138 H 0.99627 0.57037 0.01744 0.0
H1139 H 0.03855 0.53556 0.01741 0.0
S1140 S 0.09446 0.64632 0.04655 0.0
N1141 N 0.05801 0.6485 0.04103 0.0
N1142 N 0.10322 0.61067 0.04257 0.0
C1143 C 0.07585 0.59886 0.03676 0.0
C1144 C 0.05144 0.61931 0.03583 0.0
C1145 C 0.63247 0.8018 0.27425 0.0
C1146 C 0.64353 0.77242 0.27594 0.0
C1147 C 0.65175 0.82638 0.27442 0.0
C1148 C 0.68279 0.8225 0.27641 0.0
H1149 H 0.60882 0.80578 0.27082 0.0
H1150 H 0.64243 0.8485 0.2711 0.0
S1151 S 0.72312 0.75074 0.28447 0.0
N1152 N 0.68754 0.74105 0.28227 0.0
N1153 N 0.72382 0.78761 0.28252 0.0
C1154 C 0.69414 0.79355 0.28029 0.0
C1155 C 0.67445 0.76836 0.28021 0.0
C1156 C 0.98777 0.9233 0.02746 0.0
C1157 C 0.9828 0.89246 0.03119 0.0
C1158 C 0.96378 0.94358 0.02751 0.0
C1159 C 0.93437 0.93374 0.03242 0.0
H1160 H 0.00984 0.93143 0.02172 0.0
H1161 H 0.96799 0.96669 0.02178 0.0
S1162 S 0.91019 0.85594 0.04689 0.0
N1163 N 0.94672 0.85346 0.04208 0.0
N1164 N 0.90192 0.89178 0.04361 0.0
C1165 C 0.92954 0.90341 0.0387 0.0
C1166 C 0.95374 0.8827 0.03779 0.0
C1167 C 0.18975 0.70891 0.7275 0.0
C1168 C 0.17909 0.67942 0.72612 0.0
C1169 C 0.16976 0.73322 0.72785 0.0
C1170 C 0.13861 0.72856 0.72756 0.0
H1171 H 0.21345 0.7131 0.73016 0.0
H1172 H 0.17868 0.75553 0.7308 0.0
S1173 S 0.09999 0.65555 0.72158 0.0
N1174 N 0.13588 0.64697 0.72219 0.0
N1175 N 0.09837 0.69239 0.7235 0.0
C1176 C 0.12795 0.69922 0.72451 0.0
C1177 C 0.14821 0.67468 0.72369 0.0
C1178 C 0.01675 0.42622 0.48394 0.0
C1179 C 0.02154 0.39569 0.47797 0.0
C1180 C 0.04082 0.44639 0.48483 0.0
C1181 C 0.07006 0.43672 0.47874 0.0
H1182 H 0.9948 0.434 0.49055 0.0
H1183 H 0.03681 0.46919 0.49195 0.0
S1184 S 0.0937 0.36003 0.45856 0.0
N1185 N 0.05725 0.35737 0.46383 0.0
N1186 N 0.10216 0.39551 0.46419 0.0
C1187 C 0.07468 0.40687 0.47042 0.0
C1188 C 0.05044 0.38626 0.47028 0.0
C1189 C 0.46108 0.56002 0.97773 0.0
C1190 C 0.43166 0.57077 0.97545 0.0
C1191 C 0.4855 0.57984 0.97718 0.0
C1192 C 0.48099 0.61094 0.97503 0.0
H1193 H 0.46511 0.53648 0.9817 0.0
H1194 H 0.50773 0.57101 0.98094 0.0
S1195 S 0.40827 0.6496 0.96619 0.0
N1196 N 0.39947 0.61385 0.96872 0.0
N1197 N 0.44509 0.6511 0.96837 0.0
C1198 C 0.45175 0.62158 0.97107 0.0
C1199 C 0.4271 0.60146 0.97118 0.0
C1200 C 0.74107 0.86202 0.83392 0.0
C1201 C 0.73049 0.83262 0.83139 0.0
C1202 C 0.74117 0.88129 0.80941 0.0
C1203 C 0.73125 0.87178 0.78113 0.0
H1204 H 0.75063 0.8698 0.85478 0.0
H1205 H 0.75079 0.90331 0.81237 0.0
S1206 S 0.69724 0.79813 0.76396 0.0
N1207 N 0.70628 0.79587 0.79972 0.0
N1208 N 0.70722 0.83194 0.75292 0.0
C1209 C 0.71836 0.84314 0.77882 0.0
C1210 C 0.71786 0.82355 0.80416 0.0
C1211 C 0.40053 0.48015 0.07726 0.0
C1212 C 0.43159 0.47739 0.0739 0.0
C1213 C 0.38151 0.47987 0.05243 0.0
C1214 C 0.39287 0.47693 0.02326 0.0
H1215 H 0.39101 0.48431 0.09915 0.0
H1216 H 0.35787 0.48369 0.05599 0.0
S1217 S 0.47268 0.46723 0.00286 0.0
N1218 N 0.47293 0.47 0.03968 0.0
N1219 N 0.43724 0.46942 0.99267 0.0
C1220 C 0.42381 0.47226 0.01975 0.0
C1221 C 0.44321 0.47261 0.0452 0.0
C1222 C 0.77655 0.1944 0.2928 0.0
C1223 C 0.78013 0.18378 0.32214 0.0
C1224 C 0.77603 0.17455 0.26845 0.0
C1225 C 0.77803 0.14347 0.27292 0.0
H1226 H 0.77242 0.21793 0.28885 0.0
H1227 H 0.77155 0.18341 0.24636 0.0
S1228 S 0.7892 0.10487 0.34537 0.0
N1229 N 0.7877 0.14069 0.35417 0.0
N1230 N 0.78546 0.10329 0.30865 0.0
C1231 C 0.78299 0.13283 0.30202 0.0
C1232 C 0.78431 0.15304 0.32662 0.0
C1233 C 0.05924 0.52932 0.54815 0.0
C1234 C 0.0704 0.52781 0.57746 0.0
C1235 C 0.07883 0.53008 0.52352 0.0
C1236 C 0.11006 0.52889 0.52763 0.0
H1237 H 0.03538 0.52807 0.5442 0.0
H1238 H 0.06947 0.52927 0.5012 0.0
S1239 S 0.14997 0.52796 0.60025 0.0
N1240 N 0.11421 0.52774 0.60937 0.0
N1241 N 0.15095 0.52884 0.56335 0.0
C1242 C 0.12126 0.52923 0.55695 0.0
C1243 C 0.10142 0.52871 0.58183 0.0
C1244 C 0.73744 0.14747 0.67477 0.0
C1245 C 0.73331 0.17845 0.67732 0.0
C1246 C 0.73713 0.129 0.69996 0.0
C1247 C 0.73299 0.1408 0.7288 0.0
H1248 H 0.7423 0.13757 0.6532 0.0
H1249 H 0.74182 0.10544 0.69691 0.0
S1250 S 0.71881 0.22047 0.74707 0.0
N1251 N 0.72279 0.22012 0.71034 0.0
N1252 N 0.72247 0.18541 0.75815 0.0
C1253 C 0.7269 0.17159 0.7315 0.0
C1254 C 0.72706 0.19046 0.7056 0.0
C1255 C 0.10536 0.47821 0.92617 0.0
C1256 C 0.07429 0.47607 0.92976 0.0
C1257 C 0.12446 0.4784 0.95091 0.0
C1258 C 0.11319 0.47653 0.98019 0.0
H1259 H 0.11483 0.48174 0.90415 0.0
H1260 H 0.14811 0.48198 0.94714 0.0
S1261 S 0.03352 0.46753 1.00121 0.0
N1262 N 0.03306 0.46961 0.96432 0.0
N1263 N 0.06901 0.46984 0.01119 0.0
C1264 C 0.08228 0.47206 0.98398 0.0
C1265 C 0.06276 0.47198 0.95862 0.0
C1266 C 0.77733 0.82911 0.23703 0.0
C1267 C 0.77972 0.86017 0.2326 0.0
C1268 C 0.77734 0.80931 0.21261 0.0
C1269 C 0.78083 0.81997 0.18327 0.0
H1270 H 0.77289 0.82031 0.25913 0.0
H1271 H 0.77284 0.78584 0.21652 0.0
S1272 S 0.79128 0.89873 0.1602 0.0
N1273 N 0.78777 0.90028 0.19693 0.0
N1274 N 0.78907 0.86297 0.15132 0.0
C1275 C 0.78561 0.85062 0.17887 0.0
C1276 C 0.78482 0.87078 0.20351 0.0
C1277 C 0.42594 0.52751 0.48717 0.0
C1278 C 0.39503 0.53095 0.48251 0.0
C1279 C 0.44597 0.52774 0.46298 0.0
C1280 C 0.43579 0.53261 0.43368 0.0
H1281 H 0.43438 0.52191 0.50917 0.0
H1282 H 0.46917 0.52222 0.46698 0.0
S1283 S 0.3576 0.54627 0.41024 0.0
N1284 N 0.35554 0.54143 0.4468 0.0
N1285 N 0.39339 0.54336 0.40162 0.0
C1286 C 0.40534 0.53856 0.42914 0.0
C1287 C 0.38488 0.53741 0.45354 0.0
C1288 C 0.80289 0.73176 0.87422 0.0
C1289 C 0.77371 0.73319 0.86261 0.0
C1290 C 0.82784 0.73183 0.85534 0.0
C1291 C 0.8245 0.73341 0.8242 0.0
H1292 H 0.80652 0.73217 0.89816 0.0
H1293 H 0.84995 0.73236 0.86523 0.0
S1294 S 0.75329 0.73613 0.78228 0.0
N1295 N 0.74299 0.73469 0.81773 0.0
N1296 N 0.7902 0.7352 0.78232 0.0
C1297 C 0.7956 0.73334 0.81212 0.0
C1298 C 0.77006 0.73302 0.83135 0.0
C1299 C 0.5259 0.5192 0.07821 0.0
C1300 C 0.52858 0.52379 0.10923 0.0
C1301 C 0.52562 0.54351 0.05829 0.0
C1302 C 0.5291 0.57289 0.0688 0.0
H1303 H 0.52151 0.49704 0.06955 0.0
H1304 H 0.52089 0.53948 0.03488 0.0
S1305 S 0.5405 0.59631 0.14736 0.0
N1306 N 0.53703 0.55959 0.14911 0.0
N1307 N 0.53778 0.60505 0.11158 0.0
C1308 C 0.53419 0.57746 0.09939 0.0
C1309 C 0.53368 0.55292 0.11967 0.0
C1310 C 0.71941 0.27801 0.30782 0.0
C1311 C 0.69027 0.28418 0.31776 0.0
C1312 C 0.74341 0.27681 0.32809 0.0
C1313 C 0.73864 0.28059 0.35897 0.0
H1314 H 0.72331 0.27213 0.28465 0.0
H1315 H 0.76521 0.27019 0.31988 0.0
S1316 S 0.66674 0.29888 0.39574 0.0
N1317 N 0.65835 0.2963 0.35987 0.0
N1318 N 0.70306 0.29264 0.39811 0.0
C1319 C 0.7099 0.28834 0.36883 0.0
C1320 C 0.68576 0.29044 0.34815 0.0
C1321 C 0.97527 0.48438 0.58249 0.0
C1322 C 0.97436 0.48004 0.61366 0.0
C1323 C 0.97612 0.45989 0.56282 0.0
C1324 C 0.9752 0.43047 0.57375 0.0
H1325 H 0.97782 0.50666 0.57337 0.0
H1326 H 0.9793 0.46394 0.53916 0.0
S1327 S 0.96967 0.40729 0.65302 0.0
N1328 N 0.97053 0.44419 0.65425 0.0
N1329 N 0.97117 0.39833 0.61722 0.0
C1330 C 0.97213 0.42595 0.60461 0.0
C1331 C 0.97189 0.45073 0.62461 0.0
C1332 C 0.83618 0.26254 0.64836 0.0
C1333 C 0.83381 0.27003 0.67872 0.0
C1334 C 0.81133 0.26369 0.62948 0.0
C1335 C 0.783 0.27197 0.6403 0.0
H1336 H 0.85726 0.25467 0.63936 0.0
H1337 H 0.81412 0.25662 0.60648 0.0
S1338 S 0.76557 0.29525 0.71804 0.0
N1339 N 0.80172 0.28768 0.71866 0.0
N1340 N 0.75448 0.28942 0.68329 0.0
C1341 C 0.78066 0.28104 0.6704 0.0
C1342 C 0.80622 0.28011 0.68962 0.0
C1343 C 0.9814 0.57838 0.89964 0.0
C1344 C 0.97718 0.57442 0.93045 0.0
C1345 C 0.98197 0.55395 0.88018 0.0
C1346 C 0.97854 0.52458 0.89083 0.0
H1347 H 0.98624 0.60038 0.89076 0.0
H1348 H 0.98707 0.55801 0.85686 0.0
S1349 S 0.96304 0.50285 0.96936 0.0
N1350 N 0.96657 0.53958 0.97058 0.0
N1351 N 0.96754 0.49326 0.93396 0.0
C1352 C 0.97183 0.52052 0.92133 0.0
C1353 C 0.9713 0.54559 0.94122 0.0
C1354 C 0.71466 0.72898 0.19485 0.0
C1355 C 0.68558 0.72423 0.18401 0.0
C1356 C 0.7393 0.72898 0.17537 0.0
C1357 C 0.73532 0.72531 0.14437 0.0
H1358 H 0.71814 0.73451 0.21814 0.0
H1359 H 0.76113 0.73454 0.18426 0.0
S1360 S 0.6638 0.71037 0.10539 0.0
N1361 N 0.65442 0.71352 0.14096 0.0
N1362 N 0.70043 0.71488 0.10414 0.0
C1363 C 0.70654 0.719 0.13361 0.0
C1364 C 0.68169 0.71817 0.15351 0.0
C1365 C 0.53171 0.45666 0.38448 0.0
C1366 C 0.53062 0.48644 0.39439 0.0
C1367 C 0.53371 0.43297 0.40477 0.0
C1368 C 0.5345 0.43817 0.4357 0.0
H1369 H 0.52906 0.45152 0.36096 0.0
H1370 H 0.53232 0.41032 0.3963 0.0
S1371 S 0.53555 0.51183 0.47318 0.0
N1372 N 0.53347 0.51992 0.43718 0.0
N1373 N 0.53657 0.47498 0.47538 0.0
C1374 C 0.53565 0.46774 0.44592 0.0
C1375 C 0.53397 0.49204 0.42519 0.0
C1376 C 0.81326 0.8007 0.72917 0.0
C1377 C 0.82485 0.82987 0.72991 0.0
C1378 C 0.83251 0.77579 0.72875 0.0
C1379 C 0.86378 0.77948 0.7298 0.0
H1380 H 0.78937 0.79712 0.73078 0.0
H1381 H 0.82285 0.75364 0.72998 0.0
S1382 S 0.90474 0.85148 0.72877 0.0
N1383 N 0.8691 0.86113 0.72887 0.0
N1384 N 0.90519 0.81456 0.72876 0.0
C1385 C 0.8754 0.8086 0.72862 0.0
C1386 C 0.85592 0.83376 0.7286 0.0
C1387 C 0.35563 0.67528 0.27395 0.0
C1388 C 0.32491 0.67897 0.279 0.0
C1389 C 0.3748 0.69989 0.27265 0.0
C1390 C 0.36394 0.72918 0.27617 0.0
H1391 H 0.3646 0.65332 0.26901 0.0
H1392 H 0.39801 0.69604 0.26693 0.0
S1393 S 0.28563 0.75032 0.29339 0.0
N1394 N 0.28471 0.71352 0.29034 0.0
N1395 N 0.32081 0.7602 0.28792 0.0
C1396 C 0.33361 0.73301 0.28365 0.0
C1397 C 0.31401 0.70775 0.28496 0.0
C1398 C 0.51855 0.07801 0.5279 0.0
C1399 C 0.52179 0.10933 0.52715 0.0
C1400 C 0.54373 0.05913 0.52733 0.0
C1401 C 0.57272 0.07114 0.52648 0.0
H1402 H 0.49653 0.06804 0.52657 0.0
H1403 H 0.54049 0.03519 0.52576 0.0
S1404 S 0.59321 0.15129 0.52786 0.0
N1405 N 0.55629 0.15122 0.52811 0.0
N1406 N 0.60337 0.1158 0.52745 0.0
C1407 C 0.5762 0.10224 0.5278 0.0
C1408 C 0.55076 0.12135 0.5281 0.0
C1409 C 0.14899 0.32925 0.76807 0.0
C1410 C 0.17971 0.32621 0.77363 0.0
C1411 C 0.12995 0.30449 0.76859 0.0
C1412 C 0.14094 0.27561 0.77441 0.0
H1413 H 0.13984 0.35079 0.76178 0.0
H1414 H 0.10667 0.30782 0.7628 0.0
S1415 S 0.21961 0.25624 0.7924 0.0
N1416 N 0.22021 0.29276 0.78698 0.0
N1417 N 0.18448 0.2458 0.78785 0.0
C1418 C 0.17142 0.27253 0.78183 0.0
C1419 C 0.19084 0.29796 0.78138 0.0
C1420 C 0.46403 0.44939 0.52654 0.0
C1421 C 0.43498 0.43783 0.5294 0.0
C1422 C 0.48906 0.43041 0.52766 0.0
C1423 C 0.48556 0.39929 0.53063 0.0
H1424 H 0.46731 0.47289 0.52172 0.0
H1425 H 0.51098 0.43983 0.52364 0.0
S1426 S 0.41418 0.35858 0.54075 0.0
N1427 N 0.4042 0.39398 0.53756 0.0
N1428 N 0.45103 0.35817 0.53835 0.0
C1429 C 0.45671 0.38781 0.535 0.0
C1430 C 0.43142 0.40715 0.53465 0.0
C1431 C 0.67726 0.23713 0.22752 0.0
C1432 C 0.64598 0.23368 0.22698 0.0
C1433 C 0.69622 0.21205 0.22754 0.0
C1434 C 0.68438 0.18301 0.22614 0.0
H1435 H 0.68701 0.25907 0.23054 0.0
H1436 H 0.72003 0.21529 0.23052 0.0
S1437 S 0.60445 0.16232 0.22095 0.0
N1438 N 0.60431 0.1992 0.22279 0.0
N1439 N 0.63997 0.15227 0.22177 0.0
C1440 C 0.65338 0.17948 0.2233 0.0
C1441 C 0.63413 0.20482 0.22392 0.0
C1442 C 0.55297 0.88306 0.97785 0.0
C1443 C 0.52361 0.89374 0.97425 0.0
C1444 C 0.57737 0.90257 0.97809 0.0
C1445 C 0.5734 0.93347 0.97455 0.0
H1446 H 0.55701 0.85962 0.98238 0.0
H1447 H 0.59934 0.89362 0.98295 0.0
S1448 S 0.50188 0.97265 0.96072 0.0
N1449 N 0.49234 0.93713 0.96413 0.0
N1450 N 0.53858 0.9738 0.96464 0.0
C1451 C 0.5446 0.94434 0.96865 0.0
C1452 C 0.51957 0.92442 0.96836 0.0
C1453 C 0.98071 0.08044 0.47717 0.0
C1454 C 0.97643 0.11159 0.47601 0.0
C1455 C 0.95615 0.06087 0.47775 0.0
C1456 C 0.92681 0.07193 0.47632 0.0
H1457 H 0.00292 0.07129 0.48021 0.0
H1458 H 0.96005 0.03724 0.48114 0.0
S1459 S 0.90399 0.15119 0.4696 0.0
N1460 N 0.94086 0.1523 0.4712 0.0
N1461 N 0.89486 0.11546 0.47124 0.0
C1462 C 0.92242 0.10276 0.47287 0.0
C1463 C 0.94725 0.12265 0.47292 0.0
C1464 C 0.2149 0.39086 0.4837 0.0
C1465 C 0.19392 0.40771 0.46732 0.0
C1466 C 0.2242 0.3625 0.47378 0.0
C1467 C 0.21172 0.34958 0.44797 0.0
H1468 H 0.22423 0.39968 0.50424 0.0
H1469 H 0.24099 0.35052 0.48648 0.0
S1470 S 0.15613 0.38437 0.39724 0.0
N1471 N 0.16145 0.40947 0.42373 0.0
N1472 N 0.17797 0.35593 0.40591 0.0
C1473 C 0.19066 0.36612 0.43158 0.0
C1474 C 0.18199 0.39525 0.44105 0.0
C1475 C 0.9073 0.95568 0.71869 0.0
C1476 C 0.90729 0.97566 0.69456 0.0
C1477 C 0.8804 0.94554 0.73109 0.0
C1478 C 0.8525 0.95434 0.71926 0.0
H1479 H 0.92822 0.94757 0.72782 0.0
H1480 H 0.88155 0.92966 0.74934 0.0
S1481 S 0.8404 0.00625 0.65593 0.0
N1482 N 0.87708 0.00434 0.65947 0.0
N1483 N 0.82659 0.98441 0.68228 0.0
C1484 C 0.85219 0.9745 0.69529 0.0
C1485 C 0.87956 0.9854 0.6831 0.0
C1486 C 0.27376 0.64026 0.96956 0.0
C1487 C 0.28805 0.65546 0.94601 0.0
C1488 C 0.28372 0.61194 0.9789 0.0
C1489 C 0.30726 0.59734 0.96397 0.0
H1490 H 0.25492 0.65041 0.98091 0.0
H1491 H 0.27284 0.60132 0.99776 0.0
S1492 S 0.35131 0.62724 0.90041 0.0
N1493 N 0.3269 0.65383 0.90807 0.0
N1494 N 0.34449 0.60017 0.92452 0.0
C1495 C 0.32127 0.61211 0.94007 0.0
C1496 C 0.31195 0.64128 0.93137 0.0
C1497 C 0.62629 0.0667 0.22982 0.0
C1498 C 0.65445 0.0571 0.21937 0.0
C1499 C 0.59965 0.05552 0.21758 0.0
C1500 C 0.6002 0.03373 0.19501 0.0
H1501 H 0.62477 0.08393 0.24676 0.0
H1502 H 0.57853 0.06417 0.22565 0.0
S1503 S 0.66818 1.00044 0.1606 0.0
N1504 N 0.68124 0.02429 0.18552 0.0
N1505 N 0.63142 0.00258 0.163 0.0
C1506 C 0.62827 0.02329 0.18501 0.0
C1507 C 0.65532 0.03516 0.19704 0.0
C1508 C 0.19992 0.65439 0.0363 0.0
C1509 C 0.2223 0.65394 0.05828 0.0
C1510 C 0.1886 0.62775 0.02434 0.0
C1511 C 0.19867 0.59967 0.03449 0.0
H1512 H 0.19076 0.67545 0.02863 0.0
H1513 H 0.17082 0.62921 0.00795 0.0
S1514 S 0.25743 0.58619 0.09121 0.0
N1515 N 0.2549 0.62295 0.08906 0.0
N1516 N 0.23284 0.57299 0.06708 0.0
C1517 C 0.22139 0.59887 0.05604 0.0
C1518 C 0.23343 0.62598 0.06777 0.0
C1519 C 0.65509 0.96954 0.30248 0.0
C1520 C 0.65501 0.947 0.28067 0.0
C1521 C 0.62822 0.98104 0.31383 0.0
C1522 C 0.6003 0.96982 0.30439 0.0
H1523 H 0.67604 0.97798 0.3112 0.0
H1524 H 0.62939 0.99787 0.3312 0.0
S1525 S 0.58792 0.91094 0.24754 0.0
N1526 N 0.62461 0.91435 0.24946 0.0
N1527 N 0.57426 0.93544 0.27153 0.0
C1528 C 0.59992 0.94766 0.28225 0.0
C1529 C 0.62722 0.93641 0.27019 0.0
C1530 C 0.31853 0.37782 0.52174 0.0
C1531 C 0.30798 0.40596 0.53129 0.0
C1532 C 0.30652 0.35115 0.53314 0.0
C1533 C 0.28299 0.35164 0.55392 0.0
H1534 H 0.33709 0.37636 0.50627 0.0
H1535 H 0.31597 0.33006 0.52593 0.0
S1536 S 0.24647 0.41967 0.58492 0.0
N1537 N 0.27228 0.43272 0.56203 0.0
N1538 N 0.24904 0.38292 0.58296 0.0
C1539 C 0.27156 0.37973 0.56281 0.0
C1540 C 0.28424 0.40679 0.55166 0.0
C1541 C 0.90655 0.04812 0.7867 0.0
C1542 C 0.90643 0.02957 0.81194 0.0
C1543 C 0.87972 0.05882 0.77453 0.0
C1544 C 0.85182 0.05208 0.78768 0.0
H1545 H 0.92751 0.05461 0.77646 0.0
H1546 H 0.881 0.07358 0.75537 0.0
S1547 S 0.83954 0.00437 0.85422 0.0
N1548 N 0.87614 0.00434 0.84947 0.0
N1549 N 0.82587 0.02534 0.8271 0.0
C1550 C 0.85143 0.0333 0.81276 0.0
C1551 C 0.87868 0.02181 0.82474 0.0
C1552 C 0.44053 0.17619 0.38875 0.0
C1553 C 0.46204 0.19195 0.40534 0.0
C1554 C 0.43195 0.18581 0.36018 0.0
C1555 C 0.44414 0.21189 0.34751 0.0
H1556 H 0.43076 0.1559 0.39764 0.0
H1557 H 0.41497 0.17325 0.34837 0.0
S1558 S 0.50076 0.26101 0.38223 0.0
N1559 N 0.49561 0.23433 0.40714 0.0
N1560 N 0.47847 0.25335 0.35389 0.0
C1561 C 0.46548 0.22789 0.36403 0.0
C1562 C 0.47473 0.21766 0.39281 0.0
C1563 C 0.01756 0.21466 0.61585 0.0
C1564 C 0.03461 0.19409 0.59918 0.0
C1565 C 0.02715 0.22447 0.64413 0.0
C1566 C 0.05332 0.2129 0.65717 0.0
H1567 H 0.9968 0.22328 0.60688 0.0
H1568 H 0.01399 0.241 0.65594 0.0
S1569 S 0.10568 0.15852 0.62292 0.0
N1570 N 0.07907 0.16287 0.59773 0.0
N1571 N 0.09635 0.18032 0.65117 0.0
C1572 C 0.07032 0.19216 0.64085 0.0
C1573 C 0.06115 0.18299 0.61178 0.0
C1574 C 0.04985 0.78359 0.90477 0.0
C1575 C 0.02831 0.80643 0.90468 0.0
C1576 C 0.06057 0.77143 0.87793 0.0
C1577 C 0.05076 0.78218 0.84995 0.0
H1578 H 0.05883 0.77538 0.92571 0.0
H1579 H 0.07773 0.75439 0.87916 0.0
S1580 S 0.99403 0.84114 0.83734 0.0
N1581 N 0.99671 0.83861 0.87406 0.0
N1582 N 0.01764 0.81623 0.82379 0.0
C1583 C 0.02884 0.80457 0.84951 0.0
C1584 C 0.0174 0.81652 0.87682 0.0
C1585 C 0.43893 0.79566 0.09755 0.0
C1586 C 0.46923 0.80367 0.09472 0.0
C1587 C 0.42733 0.78551 0.12482 0.0
C1588 C 0.44539 0.78338 0.15041 0.0
H1589 H 0.42377 0.79791 0.07881 0.0
H1590 H 0.4038 0.77993 0.12607 0.0
S1591 S 0.5264 0.79856 0.15511 0.0
N1592 N 0.51759 0.80625 0.12011 0.0
N1593 N 0.49505 0.7878 0.1713 0.0
C1594 C 0.47574 0.7902 0.14799 0.0
C1595 C 0.48785 0.80011 0.12012 0.0
C1596 C 0.37918 0.48322 0.18995 0.0
C1597 C 0.4072 0.47252 0.19971 0.0
C1598 C 0.3524 0.4713 0.20104 0.0
C1599 C 0.35264 0.44882 0.22292 0.0
H1600 H 0.37788 0.50004 0.17258 0.0
H1601 H 0.3314 0.47946 0.19217 0.0
S1602 S 0.4201 0.4143 0.2571 0.0
N1603 N 0.43354 0.43879 0.233 0.0
N1604 N 0.38337 0.41697 0.25473 0.0
C1605 C 0.38054 0.43875 0.23373 0.0
C1606 C 0.40777 0.45041 0.22188 0.0
C1607 C 0.78643 0.90379 0.05521 0.0
C1608 C 0.80844 0.90348 0.03284 0.0
C1609 C 0.77451 0.87705 0.06646 0.0
C1610 C 0.78474 0.84902 0.05631 0.0
H1611 H 0.77876 0.92479 0.06449 0.0
H1612 H 0.75819 0.87838 0.08429 0.0
S1613 S 0.8414 0.83585 0.99744 0.0
N1614 N 0.8392 0.87258 1.00011 0.0
N1615 N 0.8173 0.82255 0.02199 0.0
C1616 C 0.80622 0.84838 0.03353 0.0
C1617 C 0.81791 0.87554 0.02159 0.0
C1618 C 0.13836 0.53318 0.73248 0.0
C1619 C 0.15343 0.5561 0.71707 0.0
C1620 C 0.10973 0.52381 0.7235 0.0
C1621 C 0.09474 0.53814 0.69982 0.0
H1622 H 0.14885 0.52235 0.75144 0.0
H1623 H 0.09919 0.50542 0.73519 0.0
S1624 S 0.12427 0.59974 0.65284 0.0
N1625 N 0.15129 0.59269 0.67695 0.0
N1626 N 0.09714 0.57618 0.66111 0.0
C1627 C 0.10943 0.56136 0.68464 0.0
C1628 C 0.13886 0.57007 0.693 0.0
C1629 C 0.72166 0.90621 0.95791 0.0
C1630 C 0.69649 0.90668 0.97654 0.0
C1631 C 0.7337 0.87904 0.9479 0.0
C1632 C 0.72044 0.8514 0.95543 0.0
H1633 H 0.73188 0.92695 0.95073 0.0
H1634 H 0.75272 0.87983 0.93294 0.0
S1635 S 0.65421 0.84063 0.00389 0.0
N1636 N 0.65909 0.87719 0.00289 0.0
N1637 N 0.68115 0.82631 0.98313 0.0
C1638 C 0.69553 0.8516 0.97441 0.0
C1639 C 0.68372 0.87919 0.98521 0.0
C1640 C 0.77084 0.12767 0.43816 0.0
C1641 C 0.78026 0.15548 0.44957 0.0
C1642 C 0.78162 0.10071 0.45002 0.0
C1643 C 0.80159 0.10054 0.47427 0.0
H1644 H 0.75617 0.12673 0.41891 0.0
H1645 H 0.7748 0.0799 0.4397 0.0
S1646 S 0.83094 0.16755 0.51382 0.0
N1647 N 0.8094 0.1813 0.48721 0.0
N1648 N 0.82901 0.13087 0.51036 0.0
C1649 C 0.80994 0.12829 0.48684 0.0
C1650 C 0.79951 0.15569 0.47424 0.0
C1651 C 0.7296 0.14161 0.52993 0.0
C1652 C 0.71532 0.15717 0.55328 0.0
C1653 C 0.71961 0.11322 0.52089 0.0
C1654 C 0.69591 0.09897 0.53583 0.0
H1655 H 0.7487 0.15138 0.51873 0.0
H1656 H 0.73074 0.1022 0.50242 0.0
S1657 S 0.65111 0.13009 0.59827 0.0
N1658 N 0.67592 0.15632 0.59073 0.0
N1659 N 0.65798 0.10273 0.57451 0.0
C1660 C 0.68154 0.11427 0.55918 0.0
C1661 C 0.69102 0.14344 0.56771 0.0
C1662 C 0.12901 0.48346 0.81177 0.0
C1663 C 0.10104 0.4719 0.80287 0.0
C1664 C 0.15581 0.47212 0.80011 0.0
C1665 C 0.15558 0.44945 0.77846 0.0
H1666 H 0.1303 0.50053 0.82889 0.0
H1667 H 0.17683 0.48086 0.80836 0.0
S1668 S 0.08828 0.41263 0.74657 0.0
N1669 N 0.07478 0.43711 0.77066 0.0
N1670 N 0.12497 0.41635 0.74792 0.0
C1671 C 0.12772 0.43851 0.76851 0.0
C1672 C 0.1005 0.44957 0.78094 0.0
C1673 C 0.3762 0.56321 0.27357 0.0
C1674 C 0.3483 0.55348 0.28458 0.0
C1675 C 0.40312 0.5524 0.28546 0.0
C1676 C 0.40321 0.53084 0.30826 0.0
H1677 H 0.3773 0.58042 0.25657 0.0
H1678 H 0.42399 0.56138 0.27711 0.0
S1679 S 0.33613 0.49649 0.34333 0.0
N1680 N 0.32239 0.52029 0.31869 0.0
N1681 N 0.37284 0.4991 0.3405 0.0
C1682 C 0.37542 0.51991 0.31852 0.0
C1683 C 0.34803 0.53148 0.30687 0.0
C1684 C 0.95634 0.72279 0.90473 0.0
C1685 C 0.97581 0.69822 0.90424 0.0
C1686 C 0.94519 0.73499 0.87807 0.0
C1687 C 0.95239 0.72249 0.84999 0.0
H1688 H 0.94937 0.73238 0.92584 0.0
H1689 H 0.92971 0.75354 0.8796 0.0
S1690 S 0.00283 0.65819 0.83667 0.0
N1691 N 0.00261 0.66231 0.87335 0.0
N1692 N 0.98078 0.68466 0.82342 0.0
C1693 C 0.97222 0.69823 0.84922 0.0
C1694 C 0.98416 0.68627 0.87629 0.0
C1695 C 0.55636 0.7187 0.09739 0.0
C1696 C 0.53259 0.69821 0.09796 0.0
C1697 C 0.56856 0.72996 0.12397 0.0
C1698 C 0.55796 0.72056 0.15211 0.0
H1699 H 0.56597 0.72567 0.07628 0.0
H1700 H 0.58732 0.74518 0.12245 0.0
S1701 S 0.49549 0.6682 0.16606 0.0
N1702 N 0.49807 0.66993 0.12929 0.0
N1703 N 0.52173 0.69062 0.17904 0.0
C1704 C 0.53385 0.70065 0.15306 0.0
C1705 C 0.52095 0.68964 0.12604 0.0
C1706 C 0.57724 0.28371 0.38043 0.0
C1707 C 0.56748 0.29429 0.35234 0.0
C1708 C 0.5661 0.29571 0.40718 0.0
C1709 C 0.54423 0.31821 0.40682 0.0
H1710 H 0.5941 0.26638 0.38181 0.0
H1711 H 0.57437 0.28706 0.42824 0.0
S1712 S 0.5119 0.35431 0.33928 0.0
N1713 N 0.53542 0.32922 0.32592 0.0
N1714 N 0.51395 0.35141 0.376 0.0
C1715 C 0.53443 0.32914 0.37888 0.0
C1716 C 0.54617 0.31728 0.3517 0.0
C1717 C 0.97745 0.30337 0.65539 0.0
C1718 C 0.95705 0.27957 0.6556 0.0
C1719 C 0.98812 0.31513 0.62837 0.0
C1720 C 0.97811 0.30408 0.60059 0.0
H1721 H 0.98481 0.31329 0.67622 0.0
H1722 H 0.00327 0.33399 0.62928 0.0
S1723 S 0.92522 0.24158 0.58887 0.0
N1724 N 0.92793 0.24467 0.62555 0.0
N1725 N 0.9474 0.26755 0.57493 0.0
C1726 C 0.95815 0.27999 0.60047 0.0
C1727 C 0.94781 0.26752 0.62793 0.0
loop_
_geom_bond_atom_site_label_1
_geom_bond_atom_site_label_2
_geom_bond_distance
_geom_bond_site_symmetry_2
_ccdc_geom_bond_type
Co0 O1 2.216 . S
Co0 O2 2.091 . S
Co0 O4 2.004 . S
Co0 O10 2.021 . S
Co0 O12 2.137 . S
Co0 O13 2.244 . S
O1 Co0 2.216 . S
O1 C8 1.247 . S
O2 Co0 2.091 . S
O2 C8 1.261 . S
C3 O12 1.247 . S
C3 O13 1.272 . S
O4 Co0 2.004 . S
O4 C9 1.259 . S
Co5 O6 2.061 . S
Co5 O11 2.052 . S
Co5 O13 2.135 . S
O6 Co5 2.061 . S
O6 C9 1.235 . S
C7 O10 1.238 . S
C7 O11 1.241 . S
C8 O1 1.247 . S
C8 O2 1.261 . S
C9 O4 1.259 . S
C9 O6 1.235 . S
O10 Co0 2.021 . S
O10 C7 1.238 . S
O11 Co5 2.052 . S
O11 C7 1.241 . S
O12 Co0 2.137 . S
O12 C3 1.247 . S
O13 Co0 2.244 . S
O13 C3 1.272 . S
O13 Co5 2.135 . S
Co14 O15 2.216 1_655 S
Co14 O16 2.091 1_655 S
Co14 O18 2.004 . S
Co14 O24 2.021 . S
Co14 O26 2.137 1_655 S
Co14 O27 2.244 . S
O15 Co14 2.216 1_455 S
O15 C22 1.247 . S
O16 Co14 2.091 1_455 S
O16 C22 1.261 . S
C17 O26 1.247 . S
C17 O27 1.272 1_455 S
O18 Co14 2.004 . S
O18 C23 1.259 . S
Co19 O20 2.061 . S
Co19 O25 2.052 . S
Co19 O27 2.135 . S
O20 Co19 2.061 . S
O20 C23 1.235 . S
C21 O24 1.238 . S
C21 O25 1.241 . S
C22 O15 1.247 . S
C22 O16 1.261 . S
C23 O18 1.259 . S
C23 O20 1.235 . S
O24 Co14 2.021 . S
O24 C21 1.238 . S
O25 Co19 2.052 . S
O25 C21 1.241 . S
O26 Co14 2.137 1_455 S
O26 C17 1.247 . S
O27 Co14 2.244 . S
O27 C17 1.272 1_655 S
O27 Co19 2.135 . S
Co28 O29 2.216 . S
Co28 O30 2.091 . S
Co28 O32 2.004 . S
Co28 O38 2.021 . S
Co28 O40 2.137 . S
Co28 O41 2.244 . S
O29 Co28 2.216 . S
O29 C36 1.247 . S
O30 Co28 2.091 . S
O30 C36 1.261 . S
C31 O40 1.247 . S
C31 O41 1.272 . S
O32 Co28 2.004 . S
O32 C37 1.259 . S
Co33 O34 2.061 . S
Co33 O39 2.052 . S
Co33 O41 2.135 . S
O34 Co33 2.061 . S
O34 C37 1.235 . S
C35 O38 1.238 . S
C35 O39 1.241 . S
C36 O29 1.247 . S
C36 O30 1.261 . S
C37 O32 1.259 . S
C37 O34 1.235 . S
O38 Co28 2.021 . S
O38 C35 1.238 . S
O39 Co33 2.052 . S
O39 C35 1.241 . S
O40 Co28 2.137 . S
O40 C31 1.247 . S
O41 Co28 2.244 . S
O41 C31 1.272 . S
O41 Co33 2.135 . S
Co42 O43 2.216 . S
Co42 O44 2.091 . S
Co42 O46 2.004 . S
Co42 O52 2.021 . S
Co42 O54 2.137 . S
Co42 O55 2.244 . S
O43 Co42 2.216 . S
O43 C50 1.247 . S
O44 Co42 2.091 . S
O44 C50 1.261 . S
C45 O54 1.247 . S
C45 O55 1.272 . S
O46 Co42 2.004 . S
O46 C51 1.259 . S
Co47 O48 2.061 . S
Co47 O53 2.052 . S
Co47 O55 2.135 . S
O48 Co47 2.061 . S
O48 C51 1.235 . S
C49 O52 1.238 . S
C49 O53 1.241 . S
C50 O43 1.247 . S
C50 O44 1.261 . S
C51 O46 1.259 . S
C51 O48 1.235 . S
O52 Co42 2.021 . S
O52 C49 1.238 . S
O53 Co47 2.052 . S
O53 C49 1.241 . S
O54 Co42 2.137 . S
O54 C45 1.247 . S
O55 Co42 2.244 . S
O55 C45 1.272 . S
O55 Co47 2.135 . S
Co56 O57 2.216 . S
Co56 O58 2.091 . S
Co56 O60 2.004 . S
Co56 O66 2.021 . S
Co56 O68 2.137 . S
Co56 O69 2.244 . S
O57 Co56 2.216 . S
O57 C64 1.247 . S
O58 Co56 2.091 . S
O58 C64 1.261 . S
C59 O68 1.247 . S
C59 O69 1.272 . S
O60 Co56 2.004 . S
O60 C65 1.259 . S
Co61 O62 2.061 . S
Co61 O67 2.052 . S
Co61 O69 2.135 . S
O62 Co61 2.061 . S
O62 C65 1.235 . S
C63 O66 1.238 . S
C63 O67 1.241 . S
C64 O57 1.247 . S
C64 O58 1.261 . S
C65 O60 1.259 . S
C65 O62 1.235 . S
O66 Co56 2.021 . S
O66 C63 1.238 . S
O67 Co61 2.052 . S
O67 C63 1.241 . S
O68 Co56 2.137 . S
O68 C59 1.247 . S
O69 Co56 2.244 . S
O69 C59 1.272 . S
O69 Co61 2.135 . S
Co70 O71 2.216 . S
Co70 O72 2.091 . S
Co70 O74 2.004 . S
Co70 O80 2.021 . S
Co70 O82 2.137 . S
Co70 O83 2.244 . S
O71 Co70 2.216 . S
O71 C78 1.247 . S
O72 Co70 2.091 . S
O72 C78 1.261 . S
C73 O82 1.247 . S
C73 O83 1.272 . S
O74 Co70 2.004 . S
O74 C79 1.259 . S
Co75 O76 2.061 . S
Co75 O81 2.052 . S
Co75 O83 2.135 . S
O76 Co75 2.061 . S
O76 C79 1.235 . S
C77 O80 1.238 . S
C77 O81 1.241 . S
C78 O71 1.247 . S
C78 O72 1.261 . S
C79 O74 1.259 . S
C79 O76 1.235 . S
O80 Co70 2.021 . S
O80 C77 1.238 . S
O81 Co75 2.052 . S
O81 C77 1.241 . S
O82 Co70 2.137 . S
O82 C73 1.247 . S
O83 Co70 2.244 . S
O83 C73 1.272 . S
O83 Co75 2.135 . S
Co84 O85 2.216 . S
Co84 O86 2.091 . S
Co84 O88 2.004 . S
Co84 O94 2.021 . S
Co84 O96 2.137 . S
Co84 O97 2.244 . S
O85 Co84 2.216 . S
O85 C92 1.247 . S
O86 Co84 2.091 . S
O86 C92 1.261 . S
C87 O96 1.247 . S
C87 O97 1.272 . S
O88 Co84 2.004 . S
O88 C93 1.259 . S
Co89 O90 2.061 . S
Co89 O95 2.052 . S
Co89 O97 2.135 . S
O90 Co89 2.061 . S
O90 C93 1.235 . S
C91 O94 1.238 . S
C91 O95 1.241 . S
C92 O85 1.247 . S
C92 O86 1.261 . S
C93 O88 1.259 . S
C93 O90 1.235 . S
O94 Co84 2.021 . S
O94 C91 1.238 . S
O95 Co89 2.052 . S
O95 C91 1.241 . S
O96 Co84 2.137 . S
O96 C87 1.247 . S
O97 Co84 2.244 . S
O97 C87 1.272 . S
O97 Co89 2.135 . S
Co98 O99 2.216 1_655 S
Co98 O100 2.091 1_655 S
Co98 O102 2.004 . S
Co98 O108 2.021 . S
Co98 O110 2.137 1_655 S
Co98 O111 2.244 . S
O99 Co98 2.216 1_455 S
O99 C106 1.247 . S
O100 Co98 2.091 1_455 S
O100 C106 1.261 . S
C101 O110 1.247 . S
C101 O111 1.272 1_455 S
O102 Co98 2.004 . S
O102 C107 1.259 . S
Co103 O104 2.061 . S
Co103 O109 2.052 . S
Co103 O111 2.135 . S
O104 Co103 2.061 . S
O104 C107 1.235 . S
C105 O108 1.238 . S
C105 O109 1.241 . S
C106 O99 1.247 . S
C106 O100 1.261 . S
C107 O102 1.259 . S
C107 O104 1.235 . S
O108 Co98 2.021 . S
O108 C105 1.238 . S
O109 Co103 2.052 . S
O109 C105 1.241 . S
O110 Co98 2.137 1_455 S
O110 C101 1.247 . S
O111 Co98 2.244 . S
O111 C101 1.272 1_655 S
O111 Co103 2.135 . S
Co112 O113 2.216 . S
Co112 O114 2.091 . S
Co112 O116 2.004 . S
Co112 O122 2.021 . S
Co112 O124 2.137 . S
Co112 O125 2.244 . S
O113 Co112 2.216 . S
O113 C120 1.247 . S
O114 Co112 2.091 . S
O114 C120 1.261 . S
C115 O124 1.247 . S
C115 O125 1.272 . S
O116 Co112 2.004 . S
O116 C121 1.259 . S
Co117 O118 2.061 . S
Co117 O123 2.052 . S
Co117 O125 2.135 . S
O118 Co117 2.061 . S
O118 C121 1.235 . S
C119 O122 1.238 . S
C119 O123 1.241 . S
C120 O113 1.247 . S
C120 O114 1.261 . S
C121 O116 1.259 . S
C121 O118 1.235 . S
O122 Co112 2.021 . S
O122 C119 1.238 . S
O123 Co117 2.052 . S
O123 C119 1.241 . S
O124 Co112 2.137 . S
O124 C115 1.247 . S
O125 Co112 2.244 . S
O125 C115 1.272 . S
O125 Co117 2.135 . S
Co126 O127 2.216 . S
Co126 O128 2.091 . S
Co126 O130 2.004 . S
Co126 O136 2.021 . S
Co126 O138 2.137 . S
Co126 O139 2.244 . S
O127 Co126 2.216 . S
O127 C134 1.247 . S
O128 Co126 2.091 . S
O128 C134 1.261 . S
C129 O138 1.247 . S
C129 O139 1.272 . S
O130 Co126 2.004 . S
O130 C135 1.259 . S
Co131 O132 2.061 . S
Co131 O137 2.052 . S
Co131 O139 2.135 . S
O132 Co131 2.061 . S
O132 C135 1.235 . S
C133 O136 1.238 . S
C133 O137 1.241 . S
C134 O127 1.247 . S
C134 O128 1.261 . S
C135 O130 1.259 . S
C135 O132 1.235 . S
O136 Co126 2.021 . S
O136 C133 1.238 . S
O137 Co131 2.052 . S
O137 C133 1.241 . S
O138 Co126 2.137 . S
O138 C129 1.247 . S
O139 Co126 2.244 . S
O139 C129 1.272 . S
O139 Co131 2.135 . S
Co140 O141 2.216 . S
Co140 O142 2.091 . S
Co140 O144 2.004 . S
Co140 O150 2.021 . S
Co140 O152 2.137 . S
Co140 O153 2.244 . S
O141 Co140 2.216 . S
O141 C148 1.247 . S
O142 Co140 2.091 . S
O142 C148 1.261 . S
C143 O152 1.247 . S
C143 O153 1.272 . S
O144 Co140 2.004 . S
O144 C149 1.259 . S
Co145 O146 2.061 . S
Co145 O151 2.052 . S
Co145 O153 2.135 . S
O146 Co145 2.061 . S
O146 C149 1.235 . S
C147 O150 1.238 . S
C147 O151 1.241 . S
C148 O141 1.247 . S
C148 O142 1.261 . S
C149 O144 1.259 . S
C149 O146 1.235 . S
O150 Co140 2.021 . S
O150 C147 1.238 . S
O151 Co145 2.052 . S
O151 C147 1.241 . S
O152 Co140 2.137 . S
O152 C143 1.247 . S
O153 Co140 2.244 . S
O153 C143 1.272 . S
O153 Co145 2.135 . S
Co154 O155 2.216 1_554 S
Co154 O156 2.091 1_554 S
Co154 O158 2.004 . S
Co154 O164 2.021 . S
Co154 O166 2.137 1_554 S
Co154 O167 2.244 . S
O155 Co154 2.216 1_556 S
O155 C162 1.247 . S
O156 Co154 2.091 1_556 S
O156 C162 1.261 . S
C157 O166 1.247 . S
C157 O167 1.272 1_556 S
O158 Co154 2.004 . S
O158 C163 1.259 . S
Co159 O160 2.061 . S
Co159 O165 2.052 . S
Co159 O167 2.135 . S
O160 Co159 2.061 . S
O160 C163 1.235 . S
C161 O164 1.238 . S
C161 O165 1.241 . S
C162 O155 1.247 . S
C162 O156 1.261 . S
C163 O158 1.259 . S
C163 O160 1.235 . S
O164 Co154 2.021 . S
O164 C161 1.238 . S
O165 Co159 2.052 . S
O165 C161 1.241 . S
O166 Co154 2.137 1_556 S
O166 C157 1.247 . S
O167 Co154 2.244 . S
O167 C157 1.272 1_554 S
O167 Co159 2.135 . S
Co168 O169 2.216 . S
Co168 O170 2.091 . S
Co168 O172 2.004 . S
Co168 O178 2.021 . S
Co168 O180 2.137 . S
Co168 O181 2.244 . S
O169 Co168 2.216 . S
O169 C176 1.247 . S
O170 Co168 2.091 . S
O170 C176 1.261 . S
C171 O180 1.247 . S
C171 O181 1.272 . S
O172 Co168 2.004 . S
O172 C177 1.259 . S
Co173 O174 2.061 . S
Co173 O179 2.052 . S
Co173 O181 2.135 . S
O174 Co173 2.061 . S
O174 C177 1.235 . S
C175 O178 1.238 . S
C175 O179 1.241 . S
C176 O169 1.247 . S
C176 O170 1.261 . S
C177 O172 1.259 . S
C177 O174 1.235 . S
O178 Co168 2.021 . S
O178 C175 1.238 . S
O179 Co173 2.052 . S
O179 C175 1.241 . S
O180 Co168 2.137 . S
O180 C171 1.247 . S
O181 Co168 2.244 . S
O181 C171 1.272 . S
O181 Co173 2.135 . S
Co182 O183 2.216 . S
Co182 O184 2.091 . S
Co182 O186 2.004 . S
Co182 O192 2.021 . S
Co182 O194 2.137 . S
Co182 O195 2.244 . S
O183 Co182 2.216 . S
O183 C190 1.247 . S
O184 Co182 2.091 . S
O184 C190 1.261 . S
C185 O194 1.247 . S
C185 O195 1.272 . S
O186 Co182 2.004 . S
O186 C191 1.259 . S
Co187 O188 2.061 . S
Co187 O193 2.052 . S
Co187 O195 2.135 . S
O188 Co187 2.061 . S
O188 C191 1.235 . S
C189 O192 1.238 . S
C189 O193 1.241 . S
C190 O183 1.247 . S
C190 O184 1.261 . S
C191 O186 1.259 . S
C191 O188 1.235 . S
O192 Co182 2.021 . S
O192 C189 1.238 . S
O193 Co187 2.052 . S
O193 C189 1.241 . S
O194 Co182 2.137 . S
O194 C185 1.247 . S
O195 Co182 2.244 . S
O195 C185 1.272 . S
O195 Co187 2.135 . S
Co196 O197 2.216 . S
Co196 O198 2.091 . S
Co196 O200 2.004 . S
Co196 O206 2.021 . S
Co196 O208 2.137 . S
Co196 O209 2.244 . S
O197 Co196 2.216 . S
O197 C204 1.247 . S
O198 Co196 2.091 . S
O198 C204 1.261 . S
C199 O208 1.247 . S
C199 O209 1.272 . S
O200 Co196 2.004 . S
O200 C205 1.259 . S
Co201 O202 2.061 . S
Co201 O207 2.052 . S
Co201 O209 2.135 . S
O202 Co201 2.061 . S
O202 C205 1.235 . S
C203 O206 1.238 . S
C203 O207 1.241 . S
C204 O197 1.247 . S
C204 O198 1.261 . S
C205 O200 1.259 . S
C205 O202 1.235 . S
O206 Co196 2.021 . S
O206 C203 1.238 . S
O207 Co201 2.052 . S
O207 C203 1.241 . S
O208 Co196 2.137 . S
O208 C199 1.247 . S
O209 Co196 2.244 . S
O209 C199 1.272 . S
O209 Co201 2.135 . S
Co210 O211 2.216 1_556 S
Co210 O212 2.091 1_556 S
Co210 O214 2.004 . S
Co210 O220 2.021 . S
Co210 O222 2.137 1_556 S
Co210 O223 2.244 . S
O211 Co210 2.216 1_554 S
O211 C218 1.247 . S
O212 Co210 2.091 1_554 S
O212 C218 1.261 . S
C213 O222 1.247 . S
C213 O223 1.272 1_554 S
O214 Co210 2.004 . S
O214 C219 1.259 . S
Co215 O216 2.061 . S
Co215 O221 2.052 . S
Co215 O223 2.135 . S
O216 Co215 2.061 . S
O216 C219 1.235 . S
C217 O220 1.238 . S
C217 O221 1.241 . S
C218 O211 1.247 . S
C218 O212 1.261 . S
C219 O214 1.259 . S
C219 O216 1.235 . S
O220 Co210 2.021 . S
O220 C217 1.238 . S
O221 Co215 2.052 . S
O221 C217 1.241 . S
O222 Co210 2.137 1_554 S
O222 C213 1.247 . S
O223 Co210 2.244 . S
O223 C213 1.272 1_556 S
O223 Co215 2.135 . S
Co224 O225 2.216 . S
Co224 O226 2.091 . S
Co224 O228 2.004 . S
Co224 O234 2.021 . S
Co224 O236 2.137 . S
Co224 O237 2.244 . S
O225 Co224 2.216 . S
O225 C232 1.247 . S
O226 Co224 2.091 . S
O226 C232 1.261 . S
C227 O236 1.247 . S
C227 O237 1.272 . S
O228 Co224 2.004 . S
O228 C233 1.259 . S
Co229 O230 2.061 . S
Co229 O235 2.052 . S
Co229 O237 2.135 . S
O230 Co229 2.061 . S
O230 C233 1.235 . S
C231 O234 1.238 . S
C231 O235 1.241 . S
C232 O225 1.247 . S
C232 O226 1.261 . S
C233 O228 1.259 . S
C233 O230 1.235 . S
O234 Co224 2.021 . S
O234 C231 1.238 . S
O235 Co229 2.052 . S
O235 C231 1.241 . S
O236 Co224 2.137 . S
O236 C227 1.247 . S
O237 Co224 2.244 . S
O237 C227 1.272 . S
O237 Co229 2.135 . S
Co238 O239 2.216 . S
Co238 O240 2.091 . S
Co238 O242 2.004 . S
Co238 O248 2.021 . S
Co238 O250 2.137 . S
Co238 O251 2.244 . S
O239 Co238 2.216 . S
O239 C246 1.247 . S
O240 Co238 2.091 . S
O240 C246 1.261 . S
C241 O250 1.247 . S
C241 O251 1.272 . S
O242 Co238 2.004 . S
O242 C247 1.259 . S
Co243 O244 2.061 . S
Co243 O249 2.052 . S
Co243 O251 2.135 . S
O244 Co243 2.061 . S
O244 C247 1.235 . S
C245 O248 1.238 . S
C245 O249 1.241 . S
C246 O239 1.247 . S
C246 O240 1.261 . S
C247 O242 1.259 . S
C247 O244 1.235 . S
O248 Co238 2.021 . S
O248 C245 1.238 . S
O249 Co243 2.052 . S
O249 C245 1.241 . S
O250 Co238 2.137 . S
O250 C241 1.247 . S
O251 Co238 2.244 . S
O251 C241 1.272 . S
O251 Co243 2.135 . S
Co252 O253 2.216 . S
Co252 O254 2.091 . S
Co252 O256 2.004 . S
Co252 O262 2.021 . S
Co252 O264 2.137 . S
Co252 O265 2.244 . S
O253 Co252 2.216 . S
O253 C260 1.247 . S
O254 Co252 2.091 . S
O254 C260 1.261 . S
C255 O264 1.247 . S
C255 O265 1.272 . S
O256 Co252 2.004 . S
O256 C261 1.259 . S
Co257 O258 2.061 . S
Co257 O263 2.052 . S
Co257 O265 2.135 . S
O258 Co257 2.061 . S
O258 C261 1.235 . S
C259 O262 1.238 . S
C259 O263 1.241 . S
C260 O253 1.247 . S
C260 O254 1.261 . S
C261 O256 1.259 . S
C261 O258 1.235 . S
O262 Co252 2.021 . S
O262 C259 1.238 . S
O263 Co257 2.052 . S
O263 C259 1.241 . S
O264 Co252 2.137 . S
O264 C255 1.247 . S
O265 Co252 2.244 . S
O265 C255 1.272 . S
O265 Co257 2.135 . S
Co266 O267 2.216 . S
Co266 O268 2.091 . S
Co266 O270 2.004 . S
Co266 O276 2.021 . S
Co266 O278 2.137 . S
Co266 O279 2.244 . S
O267 Co266 2.216 . S
O267 C274 1.247 . S
O268 Co266 2.091 . S
O268 C274 1.261 . S
C269 O278 1.247 . S
C269 O279 1.272 . S
O270 Co266 2.004 . S
O270 C275 1.259 . S
Co271 O272 2.061 . S
Co271 O277 2.052 . S
Co271 O279 2.135 . S
O272 Co271 2.061 . S
O272 C275 1.235 . S
C273 O276 1.238 . S
C273 O277 1.241 . S
C274 O267 1.247 . S
C274 O268 1.261 . S
C275 O270 1.259 . S
C275 O272 1.235 . S
O276 Co266 2.021 . S
O276 C273 1.238 . S
O277 Co271 2.052 . S
O277 C273 1.241 . S
O278 Co266 2.137 . S
O278 C269 1.247 . S
O279 Co266 2.244 . S
O279 C269 1.272 . S
O279 Co271 2.135 . S
Co280 O281 2.216 1_565 S
Co280 O282 2.091 1_565 S
Co280 O284 2.004 . S
Co280 O290 2.021 . S
Co280 O292 2.137 1_565 S
Co280 O293 2.244 . S
O281 Co280 2.216 1_545 S
O281 C288 1.247 . S
O282 Co280 2.091 1_545 S
O282 C288 1.261 . S
C283 O292 1.247 . S
C283 O293 1.272 1_545 S
O284 Co280 2.004 . S
O284 C289 1.259 . S
Co285 O286 2.061 . S
Co285 O291 2.052 . S
Co285 O293 2.135 . S
O286 Co285 2.061 . S
O286 C289 1.235 . S
C287 O290 1.238 . S
C287 O291 1.241 . S
C288 O281 1.247 . S
C288 O282 1.261 . S
C289 O284 1.259 . S
C289 O286 1.235 . S
O290 Co280 2.021 . S
O290 C287 1.238 . S
O291 Co285 2.052 . S
O291 C287 1.241 . S
O292 Co280 2.137 1_545 S
O292 C283 1.247 . S
O293 Co280 2.244 . S
O293 C283 1.272 1_565 S
O293 Co285 2.135 . S
Co294 O295 2.216 . S
Co294 O296 2.091 . S
Co294 O298 2.004 . S
Co294 O304 2.021 . S
Co294 O306 2.137 . S
Co294 O307 2.244 . S
O295 Co294 2.216 . S
O295 C302 1.247 . S
O296 Co294 2.091 . S
O296 C302 1.261 . S
C297 O306 1.247 . S
C297 O307 1.272 . S
O298 Co294 2.004 . S
O298 C303 1.259 . S
Co299 O300 2.061 . S
Co299 O305 2.052 . S
Co299 O307 2.135 . S
O300 Co299 2.061 . S
O300 C303 1.235 . S
C301 O304 1.238 . S
C301 O305 1.241 . S
C302 O295 1.247 . S
C302 O296 1.261 . S
C303 O298 1.259 . S
C303 O300 1.235 . S
O304 Co294 2.021 . S
O304 C301 1.238 . S
O305 Co299 2.052 . S
O305 C301 1.241 . S
O306 Co294 2.137 . S
O306 C297 1.247 . S
O307 Co294 2.244 . S
O307 C297 1.272 . S
O307 Co299 2.135 . S
Co308 O309 2.216 . S
Co308 O310 2.091 . S
Co308 O312 2.004 . S
Co308 O318 2.021 . S
Co308 O320 2.137 . S
Co308 O321 2.244 . S
O309 Co308 2.216 . S
O309 C316 1.247 . S
O310 Co308 2.091 . S
O310 C316 1.261 . S
C311 O320 1.247 . S
C311 O321 1.272 . S
O312 Co308 2.004 . S
O312 C317 1.259 . S
Co313 O314 2.061 . S
Co313 O319 2.052 . S
Co313 O321 2.135 . S
O314 Co313 2.061 . S
O314 C317 1.235 . S
C315 O318 1.238 . S
C315 O319 1.241 . S
C316 O309 1.247 . S
C316 O310 1.261 . S
C317 O312 1.259 . S
C317 O314 1.235 . S
O318 Co308 2.021 . S
O318 C315 1.238 . S
O319 Co313 2.052 . S
O319 C315 1.241 . S
O320 Co308 2.137 . S
O320 C311 1.247 . S
O321 Co308 2.244 . S
O321 C311 1.272 . S
O321 Co313 2.135 . S
Co322 O323 2.216 . S
Co322 O324 2.091 . S
Co322 O326 2.004 . S
Co322 O332 2.021 . S
Co322 O334 2.137 . S
Co322 O335 2.244 . S
O323 Co322 2.216 . S
O323 C330 1.247 . S
O324 Co322 2.091 . S
O324 C330 1.261 . S
C325 O334 1.247 . S
C325 O335 1.272 . S
O326 Co322 2.004 . S
O326 C331 1.259 . S
Co327 O328 2.061 . S
Co327 O333 2.052 . S
Co327 O335 2.135 . S
O328 Co327 2.061 . S
O328 C331 1.235 . S
C329 O332 1.238 . S
C329 O333 1.241 . S
C330 O323 1.247 . S
C330 O324 1.261 . S
C331 O326 1.259 . S
C331 O328 1.235 . S
O332 Co322 2.021 . S
O332 C329 1.238 . S
O333 Co327 2.052 . S
O333 C329 1.241 . S
O334 Co322 2.137 . S
O334 C325 1.247 . S
O335 Co322 2.244 . S
O335 C325 1.272 . S
O335 Co327 2.135 . S
Co336 O337 2.216 . S
Co336 O338 2.091 . S
Co336 O340 2.004 . S
Co336 O346 2.021 . S
Co336 O348 2.137 . S
Co336 O349 2.244 . S
O337 Co336 2.216 . S
O337 C344 1.247 . S
O338 Co336 2.091 . S
O338 C344 1.261 . S
C339 O348 1.247 . S
C339 O349 1.272 . S
O340 Co336 2.004 . S
O340 C345 1.259 . S
Co341 O342 2.061 . S
Co341 O347 2.052 . S
Co341 O349 2.135 . S
O342 Co341 2.061 . S
O342 C345 1.235 . S
C343 O346 1.238 . S
C343 O347 1.241 . S
C344 O337 1.247 . S
C344 O338 1.261 . S
C345 O340 1.259 . S
C345 O342 1.235 . S
O346 Co336 2.021 . S
O346 C343 1.238 . S
O347 Co341 2.052 . S
O347 C343 1.241 . S
O348 Co336 2.137 . S
O348 C339 1.247 . S
O349 Co336 2.244 . S
O349 C339 1.272 . S
O349 Co341 2.135 . S
Co350 O351 2.216 . S
Co350 O352 2.091 . S
Co350 O354 2.004 . S
Co350 O360 2.021 . S
Co350 O362 2.137 . S
Co350 O363 2.244 . S
O351 Co350 2.216 . S
O351 C358 1.247 . S
O352 Co350 2.091 . S
O352 C358 1.261 . S
C353 O362 1.247 . S
C353 O363 1.272 . S
O354 Co350 2.004 . S
O354 C359 1.259 . S
Co355 O356 2.061 . S
Co355 O361 2.052 . S
Co355 O363 2.135 . S
O356 Co355 2.061 . S
O356 C359 1.235 . S
C357 O360 1.238 . S
C357 O361 1.241 . S
C358 O351 1.247 . S
C358 O352 1.261 . S
C359 O354 1.259 . S
C359 O356 1.235 . S
O360 Co350 2.021 . S
O360 C357 1.238 . S
O361 Co355 2.052 . S
O361 C357 1.241 . S
O362 Co350 2.137 . S
O362 C353 1.247 . S
O363 Co350 2.244 . S
O363 C353 1.272 . S
O363 Co355 2.135 . S
Co364 O365 2.216 . S
Co364 O366 2.091 . S
Co364 O368 2.004 . S
Co364 O374 2.021 . S
Co364 O376 2.137 . S
Co364 O377 2.244 . S
O365 Co364 2.216 . S
O365 C372 1.247 . S
O366 Co364 2.091 . S
O366 C372 1.261 . S
C367 O376 1.247 . S
C367 O377 1.272 . S
O368 Co364 2.004 . S
O368 C373 1.259 . S
Co369 O370 2.061 . S
Co369 O375 2.052 . S
Co369 O377 2.135 . S
O370 Co369 2.061 . S
O370 C373 1.235 . S
C371 O374 1.238 . S
C371 O375 1.241 . S
C372 O365 1.247 . S
C372 O366 1.261 . S
C373 O368 1.259 . S
C373 O370 1.235 . S
O374 Co364 2.021 . S
O374 C371 1.238 . S
O375 Co369 2.052 . S
O375 C371 1.241 . S
O376 Co364 2.137 . S
O376 C367 1.247 . S
O377 Co364 2.244 . S
O377 C367 1.272 . S
O377 Co369 2.135 . S
Co378 O379 2.216 1_455 S
Co378 O380 2.091 1_455 S
Co378 O382 2.004 . S
Co378 O388 2.021 . S
Co378 O390 2.137 1_455 S
Co378 O391 2.244 . S
O379 Co378 2.216 1_655 S
O379 C386 1.247 . S
O380 Co378 2.091 1_655 S
O380 C386 1.261 . S
C381 O390 1.247 . S
C381 O391 1.272 1_655 S
O382 Co378 2.004 . S
O382 C387 1.259 . S
Co383 O384 2.061 . S
Co383 O389 2.052 . S
Co383 O391 2.135 . S
O384 Co383 2.061 . S
O384 C387 1.235 . S
C385 O388 1.238 . S
C385 O389 1.241 . S
C386 O379 1.247 . S
C386 O380 1.261 . S
C387 O382 1.259 . S
C387 O384 1.235 . S
O388 Co378 2.021 . S
O388 C385 1.238 . S
O389 Co383 2.052 . S
O389 C385 1.241 . S
O390 Co378 2.137 1_655 S
O390 C381 1.247 . S
O391 Co378 2.244 . S
O391 C381 1.272 1_455 S
O391 Co383 2.135 . S
Co392 O393 2.216 . S
Co392 O394 2.091 . S
Co392 O396 2.004 . S
Co392 O402 2.021 . S
Co392 O404 2.137 . S
Co392 O405 2.244 . S
O393 Co392 2.216 . S
O393 C400 1.247 . S
O394 Co392 2.091 . S
O394 C400 1.261 . S
C395 O404 1.247 . S
C395 O405 1.272 . S
O396 Co392 2.004 . S
O396 C401 1.259 . S
Co397 O398 2.061 . S
Co397 O403 2.052 . S
Co397 O405 2.135 . S
O398 Co397 2.061 . S
O398 C401 1.235 . S
C399 O402 1.238 . S
C399 O403 1.241 . S
C400 O393 1.247 . S
C400 O394 1.261 . S
C401 O396 1.259 . S
C401 O398 1.235 . S
O402 Co392 2.021 . S
O402 C399 1.238 . S
O403 Co397 2.052 . S
O403 C399 1.241 . S
O404 Co392 2.137 . S
O404 C395 1.247 . S
O405 Co392 2.244 . S
O405 C395 1.272 . S
O405 Co397 2.135 . S
Co406 O407 2.216 1_455 S
Co406 O408 2.091 1_455 S
Co406 O410 2.004 . S
Co406 O416 2.021 . S
Co406 O418 2.137 1_455 S
Co406 O419 2.244 . S
O407 Co406 2.216 1_655 S
O407 C414 1.247 . S
O408 Co406 2.091 1_655 S
O408 C414 1.261 . S
C409 O418 1.247 . S
C409 O419 1.272 1_655 S
O410 Co406 2.004 . S
O410 C415 1.259 . S
Co411 O412 2.061 . S
Co411 O417 2.052 . S
Co411 O419 2.135 . S
O412 Co411 2.061 . S
O412 C415 1.235 . S
C413 O416 1.238 . S
C413 O417 1.241 . S
C414 O407 1.247 . S
C414 O408 1.261 . S
C415 O410 1.259 . S
C415 O412 1.235 . S
O416 Co406 2.021 . S
O416 C413 1.238 . S
O417 Co411 2.052 . S
O417 C413 1.241 . S
O418 Co406 2.137 1_655 S
O418 C409 1.247 . S
O419 Co406 2.244 . S
O419 C409 1.272 1_455 S
O419 Co411 2.135 . S
Co420 O421 2.216 . S
Co420 O422 2.091 . S
Co420 O424 2.004 . S
Co420 O430 2.021 . S
Co420 O432 2.137 . S
Co420 O433 2.244 . S
O421 Co420 2.216 . S
O421 C428 1.247 . S
O422 Co420 2.091 . S
O422 C428 1.261 . S
C423 O432 1.247 . S
C423 O433 1.272 . S
O424 Co420 2.004 . S
O424 C429 1.259 . S
Co425 O426 2.061 . S
Co425 O431 2.052 . S
Co425 O433 2.135 . S
O426 Co425 2.061 . S
O426 C429 1.235 . S
C427 O430 1.238 . S
C427 O431 1.241 . S
C428 O421 1.247 . S
C428 O422 1.261 . S
C429 O424 1.259 . S
C429 O426 1.235 . S
O430 Co420 2.021 . S
O430 C427 1.238 . S
O431 Co425 2.052 . S
O431 C427 1.241 . S
O432 Co420 2.137 . S
O432 C423 1.247 . S
O433 Co420 2.244 . S
O433 C423 1.272 . S
O433 Co425 2.135 . S
Co434 O435 2.216 . S
Co434 O436 2.091 . S
Co434 O438 2.004 . S
Co434 O444 2.021 . S
Co434 O446 2.137 . S
Co434 O447 2.244 . S
O435 Co434 2.216 . S
O435 C442 1.247 . S
O436 Co434 2.091 . S
O436 C442 1.261 . S
C437 O446 1.247 . S
C437 O447 1.272 . S
O438 Co434 2.004 . S
O438 C443 1.259 . S
Co439 O440 2.061 . S
Co439 O445 2.052 . S
Co439 O447 2.135 . S
O440 Co439 2.061 . S
O440 C443 1.235 . S
C441 O444 1.238 . S
C441 O445 1.241 . S
C442 O435 1.247 . S
C442 O436 1.261 . S
C443 O438 1.259 . S
C443 O440 1.235 . S
O444 Co434 2.021 . S
O444 C441 1.238 . S
O445 Co439 2.052 . S
O445 C441 1.241 . S
O446 Co434 2.137 . S
O446 C437 1.247 . S
O447 Co434 2.244 . S
O447 C437 1.272 . S
O447 Co439 2.135 . S
Co448 O449 2.216 . S
Co448 O450 2.091 . S
Co448 O452 2.004 . S
Co448 O458 2.021 . S
Co448 O460 2.137 . S
Co448 O461 2.244 . S
O449 Co448 2.216 . S
O449 C456 1.247 . S
O450 Co448 2.091 . S
O450 C456 1.261 . S
C451 O460 1.247 . S
C451 O461 1.272 . S
O452 Co448 2.004 . S
O452 C457 1.259 . S
Co453 O454 2.061 . S
Co453 O459 2.052 . S
Co453 O461 2.135 . S
O454 Co453 2.061 . S
O454 C457 1.235 . S
C455 O458 1.238 . S
C455 O459 1.241 . S
C456 O449 1.247 . S
C456 O450 1.261 . S
C457 O452 1.259 . S
C457 O454 1.235 . S
O458 Co448 2.021 . S
O458 C455 1.238 . S
O459 Co453 2.052 . S
O459 C455 1.241 . S
O460 Co448 2.137 . S
O460 C451 1.247 . S
O461 Co448 2.244 . S
O461 C451 1.272 . S
O461 Co453 2.135 . S
Co462 O463 2.216 1_554 S
Co462 O464 2.091 1_554 S
Co462 O466 2.004 . S
Co462 O472 2.021 . S
Co462 O474 2.137 1_554 S
Co462 O475 2.244 . S
O463 Co462 2.216 1_556 S
O463 C470 1.247 . S
O464 Co462 2.091 1_556 S
O464 C470 1.261 . S
C465 O474 1.247 . S
C465 O475 1.272 1_556 S
O466 Co462 2.004 . S
O466 C471 1.259 . S
Co467 O468 2.061 . S
Co467 O473 2.052 . S
Co467 O475 2.135 . S
O468 Co467 2.061 . S
O468 C471 1.235 . S
C469 O472 1.238 . S
C469 O473 1.241 . S
C470 O463 1.247 . S
C470 O464 1.261 . S
C471 O466 1.259 . S
C471 O468 1.235 . S
O472 Co462 2.021 . S
O472 C469 1.238 . S
O473 Co467 2.052 . S
O473 C469 1.241 . S
O474 Co462 2.137 1_556 S
O474 C465 1.247 . S
O475 Co462 2.244 . S
O475 C465 1.272 1_554 S
O475 Co467 2.135 . S
Co476 O477 2.216 . S
Co476 O478 2.091 . S
Co476 O480 2.004 . S
Co476 O486 2.021 . S
Co476 O488 2.137 . S
Co476 O489 2.244 . S
O477 Co476 2.216 . S
O477 C484 1.247 . S
O478 Co476 2.091 . S
O478 C484 1.261 . S
C479 O488 1.247 . S
C479 O489 1.272 . S
O480 Co476 2.004 . S
O480 C485 1.259 . S
Co481 O482 2.061 . S
Co481 O487 2.052 . S
Co481 O489 2.135 . S
O482 Co481 2.061 . S
O482 C485 1.235 . S
C483 O486 1.238 . S
C483 O487 1.241 . S
C484 O477 1.247 . S
C484 O478 1.261 . S
C485 O480 1.259 . S
C485 O482 1.235 . S
O486 Co476 2.021 . S
O486 C483 1.238 . S
O487 Co481 2.052 . S
O487 C483 1.241 . S
O488 Co476 2.137 . S
O488 C479 1.247 . S
O489 Co476 2.244 . S
O489 C479 1.272 . S
O489 Co481 2.135 . S
Co490 O491 2.216 . S
Co490 O492 2.091 . S
Co490 O494 2.004 . S
Co490 O500 2.021 . S
Co490 O502 2.137 . S
Co490 O503 2.244 . S
O491 Co490 2.216 . S
O491 C498 1.247 . S
O492 Co490 2.091 . S
O492 C498 1.261 . S
C493 O502 1.247 . S
C493 O503 1.272 . S
O494 Co490 2.004 . S
O494 C499 1.259 . S
Co495 O496 2.061 . S
Co495 O501 2.052 . S
Co495 O503 2.135 . S
O496 Co495 2.061 . S
O496 C499 1.235 . S
C497 O500 1.238 . S
C497 O501 1.241 . S
C498 O491 1.247 . S
C498 O492 1.261 . S
C499 O494 1.259 . S
C499 O496 1.235 . S
O500 Co490 2.021 . S
O500 C497 1.238 . S
O501 Co495 2.052 . S
O501 C497 1.241 . S
O502 Co490 2.137 . S
O502 C493 1.247 . S
O503 Co490 2.244 . S
O503 C493 1.272 . S
O503 Co495 2.135 . S
Co504 O505 2.216 . S
Co504 O506 2.091 . S
Co504 O508 2.004 . S
Co504 O514 2.021 . S
Co504 O516 2.137 . S
Co504 O517 2.244 . S
O505 Co504 2.216 . S
O505 C512 1.247 . S
O506 Co504 2.091 . S
O506 C512 1.261 . S
C507 O516 1.247 . S
C507 O517 1.272 . S
O508 Co504 2.004 . S
O508 C513 1.259 . S
Co509 O510 2.061 . S
Co509 O515 2.052 . S
Co509 O517 2.135 . S
O510 Co509 2.061 . S
O510 C513 1.235 . S
C511 O514 1.238 . S
C511 O515 1.241 . S
C512 O505 1.247 . S
C512 O506 1.261 . S
C513 O508 1.259 . S
C513 O510 1.235 . S
O514 Co504 2.021 . S
O514 C511 1.238 . S
O515 Co509 2.052 . S
O515 C511 1.241 . S
O516 Co504 2.137 . S
O516 C507 1.247 . S
O517 Co504 2.244 . S
O517 C507 1.272 . S
O517 Co509 2.135 . S
Co518 O519 2.216 1_556 S
Co518 O520 2.091 1_556 S
Co518 O522 2.004 . S
Co518 O528 2.021 . S
Co518 O530 2.137 1_556 S
Co518 O531 2.244 . S
O519 Co518 2.216 1_554 S
O519 C526 1.247 . S
O520 Co518 2.091 1_554 S
O520 C526 1.261 . S
C521 O530 1.247 . S
C521 O531 1.272 1_554 S
O522 Co518 2.004 . S
O522 C527 1.259 . S
Co523 O524 2.061 . S
Co523 O529 2.052 . S
Co523 O531 2.135 . S
O524 Co523 2.061 . S
O524 C527 1.235 . S
C525 O528 1.238 . S
C525 O529 1.241 . S
C526 O519 1.247 . S
C526 O520 1.261 . S
C527 O522 1.259 . S
C527 O524 1.235 . S
O528 Co518 2.021 . S
O528 C525 1.238 . S
O529 Co523 2.052 . S
O529 C525 1.241 . S
O530 Co518 2.137 1_554 S
O530 C521 1.247 . S
O531 Co518 2.244 . S
O531 C521 1.272 1_556 S
O531 Co523 2.135 . S
Co532 O533 2.216 . S
Co532 O534 2.091 . S
Co532 O536 2.004 . S
Co532 O542 2.021 . S
Co532 O544 2.137 . S
Co532 O545 2.244 . S
O533 Co532 2.216 . S
O533 C540 1.247 . S
O534 Co532 2.091 . S
O534 C540 1.261 . S
C535 O544 1.247 . S
C535 O545 1.272 . S
O536 Co532 2.004 . S
O536 C541 1.259 . S
Co537 O538 2.061 . S
Co537 O543 2.052 . S
Co537 O545 2.135 . S
O538 Co537 2.061 . S
O538 C541 1.235 . S
C539 O542 1.238 . S
C539 O543 1.241 . S
C540 O533 1.247 . S
C540 O534 1.261 . S
C541 O536 1.259 . S
C541 O538 1.235 . S
O542 Co532 2.021 . S
O542 C539 1.238 . S
O543 Co537 2.052 . S
O543 C539 1.241 . S
O544 Co532 2.137 . S
O544 C535 1.247 . S
O545 Co532 2.244 . S
O545 C535 1.272 . S
O545 Co537 2.135 . S
Co546 O547 2.216 . S
Co546 O548 2.091 . S
Co546 O550 2.004 . S
Co546 O556 2.021 . S
Co546 O558 2.137 . S
Co546 O559 2.244 . S
O547 Co546 2.216 . S
O547 C554 1.247 . S
O548 Co546 2.091 . S
O548 C554 1.261 . S
C549 O558 1.247 . S
C549 O559 1.272 . S
O550 Co546 2.004 . S
O550 C555 1.259 . S
Co551 O552 2.061 . S
Co551 O557 2.052 . S
Co551 O559 2.135 . S
O552 Co551 2.061 . S
O552 C555 1.235 . S
C553 O556 1.238 . S
C553 O557 1.241 . S
C554 O547 1.247 . S
C554 O548 1.261 . S
C555 O550 1.259 . S
C555 O552 1.235 . S
O556 Co546 2.021 . S
O556 C553 1.238 . S
O557 Co551 2.052 . S
O557 C553 1.241 . S
O558 Co546 2.137 . S
O558 C549 1.247 . S
O559 Co546 2.244 . S
O559 C549 1.272 . S
O559 Co551 2.135 . S
Co560 O561 2.216 . S
Co560 O562 2.091 . S
Co560 O564 2.004 . S
Co560 O570 2.021 . S
Co560 O572 2.137 . S
Co560 O573 2.244 . S
O561 Co560 2.216 . S
O561 C568 1.247 . S
O562 Co560 2.091 . S
O562 C568 1.261 . S
C563 O572 1.247 . S
C563 O573 1.272 . S
O564 Co560 2.004 . S
O564 C569 1.259 . S
Co565 O566 2.061 . S
Co565 O571 2.052 . S
Co565 O573 2.135 . S
O566 Co565 2.061 . S
O566 C569 1.235 . S
C567 O570 1.238 . S
C567 O571 1.241 . S
C568 O561 1.247 . S
C568 O562 1.261 . S
C569 O564 1.259 . S
C569 O566 1.235 . S
O570 Co560 2.021 . S
O570 C567 1.238 . S
O571 Co565 2.052 . S
O571 C567 1.241 . S
O572 Co560 2.137 . S
O572 C563 1.247 . S
O573 Co560 2.244 . S
O573 C563 1.272 . S
O573 Co565 2.135 . S
Co574 O575 2.216 . S
Co574 O576 2.091 . S
Co574 O578 2.004 . S
Co574 O584 2.021 . S
Co574 O586 2.137 . S
Co574 O587 2.244 . S
O575 Co574 2.216 . S
O575 C582 1.247 . S
O576 Co574 2.091 . S
O576 C582 1.261 . S
C577 O586 1.247 . S
C577 O587 1.272 . S
O578 Co574 2.004 . S
O578 C583 1.259 . S
Co579 O580 2.061 . S
Co579 O585 2.052 . S
Co579 O587 2.135 . S
O580 Co579 2.061 . S
O580 C583 1.235 . S
C581 O584 1.238 . S
C581 O585 1.241 . S
C582 O575 1.247 . S
C582 O576 1.261 . S
C583 O578 1.259 . S
C583 O580 1.235 . S
O584 Co574 2.021 . S
O584 C581 1.238 . S
O585 Co579 2.052 . S
O585 C581 1.241 . S
O586 Co574 2.137 . S
O586 C577 1.247 . S
O587 Co574 2.244 . S
O587 C577 1.272 . S
O587 Co579 2.135 . S
Co588 O589 2.216 1_545 S
Co588 O590 2.091 1_545 S
Co588 O592 2.004 . S
Co588 O598 2.021 . S
Co588 O600 2.137 1_545 S
Co588 O601 2.244 . S
O589 Co588 2.216 1_565 S
O589 C596 1.247 . S
O590 Co588 2.091 1_565 S
O590 C596 1.261 . S
C591 O600 1.247 . S
C591 O601 1.272 1_565 S
O592 Co588 2.004 . S
O592 C597 1.259 . S
Co593 O594 2.061 . S
Co593 O599 2.052 . S
Co593 O601 2.135 . S
O594 Co593 2.061 . S
O594 C597 1.235 . S
C595 O598 1.238 . S
C595 O599 1.241 . S
C596 O589 1.247 . S
C596 O590 1.261 . S
C597 O592 1.259 . S
C597 O594 1.235 . S
O598 Co588 2.021 . S
O598 C595 1.238 . S
O599 Co593 2.052 . S
O599 C595 1.241 . S
O600 Co588 2.137 1_565 S
O600 C591 1.247 . S
O601 Co588 2.244 . S
O601 C591 1.272 1_545 S
O601 Co593 2.135 . S
Co602 O603 2.216 . S
Co602 O604 2.091 . S
Co602 O606 2.004 . S
Co602 O612 2.021 . S
Co602 O614 2.137 . S
Co602 O615 2.244 . S
O603 Co602 2.216 . S
O603 C610 1.247 . S
O604 Co602 2.091 . S
O604 C610 1.261 . S
C605 O614 1.247 . S
C605 O615 1.272 . S
O606 Co602 2.004 . S
O606 C611 1.259 . S
Co607 O608 2.061 . S
Co607 O613 2.052 . S
Co607 O615 2.135 . S
O608 Co607 2.061 . S
O608 C611 1.235 . S
C609 O612 1.238 . S
C609 O613 1.241 . S
C610 O603 1.247 . S
C610 O604 1.261 . S
C611 O606 1.259 . S
C611 O608 1.235 . S
O612 Co602 2.021 . S
O612 C609 1.238 . S
O613 Co607 2.052 . S
O613 C609 1.241 . S
O614 Co602 2.137 . S
O614 C605 1.247 . S
O615 Co602 2.244 . S
O615 C605 1.272 . S
O615 Co607 2.135 . S
Co616 O617 2.216 . S
Co616 O618 2.091 . S
Co616 O620 2.004 . S
Co616 O626 2.021 . S
Co616 O628 2.137 . S
Co616 O629 2.244 . S
O617 Co616 2.216 . S
O617 C624 1.247 . S
O618 Co616 2.091 . S
O618 C624 1.261 . S
C619 O628 1.247 . S
C619 O629 1.272 . S
O620 Co616 2.004 . S
O620 C625 1.259 . S
Co621 O622 2.061 . S
Co621 O627 2.052 . S
Co621 O629 2.135 . S
O622 Co621 2.061 . S
O622 C625 1.235 . S
C623 O626 1.238 . S
C623 O627 1.241 . S
C624 O617 1.247 . S
C624 O618 1.261 . S
C625 O620 1.259 . S
C625 O622 1.235 . S
O626 Co616 2.021 . S
O626 C623 1.238 . S
O627 Co621 2.052 . S
O627 C623 1.241 . S
O628 Co616 2.137 . S
O628 C619 1.247 . S
O629 Co616 2.244 . S
O629 C619 1.272 . S
O629 Co621 2.135 . S
Co630 O631 2.216 . S
Co630 O632 2.091 . S
Co630 O634 2.004 . S
Co630 O640 2.021 . S
Co630 O642 2.137 . S
Co630 O643 2.244 . S
O631 Co630 2.216 . S
O631 C638 1.247 . S
O632 Co630 2.091 . S
O632 C638 1.261 . S
C633 O642 1.247 . S
C633 O643 1.272 . S
O634 Co630 2.004 . S
O634 C639 1.259 . S
Co635 O636 2.061 . S
Co635 O641 2.052 . S
Co635 O643 2.135 . S
O636 Co635 2.061 . S
O636 C639 1.235 . S
C637 O640 1.238 . S
C637 O641 1.241 . S
C638 O631 1.247 . S
C638 O632 1.261 . S
C639 O634 1.259 . S
C639 O636 1.235 . S
O640 Co630 2.021 . S
O640 C637 1.238 . S
O641 Co635 2.052 . S
O641 C637 1.241 . S
O642 Co630 2.137 . S
O642 C633 1.247 . S
O643 Co630 2.244 . S
O643 C633 1.272 . S
O643 Co635 2.135 . S
Co644 O645 2.216 1_565 S
Co644 O646 2.091 1_565 S
Co644 O648 2.004 . S
Co644 O654 2.021 . S
Co644 O656 2.137 1_565 S
Co644 O657 2.244 . S
O645 Co644 2.216 1_545 S
O645 C652 1.247 . S
O646 Co644 2.091 1_545 S
O646 C652 1.261 . S
C647 O656 1.247 . S
C647 O657 1.272 1_545 S
O648 Co644 2.004 . S
O648 C653 1.259 . S
Co649 O650 2.061 . S
Co649 O655 2.052 . S
Co649 O657 2.135 . S
O650 Co649 2.061 . S
O650 C653 1.235 . S
C651 O654 1.238 . S
C651 O655 1.241 . S
C652 O645 1.247 . S
C652 O646 1.261 . S
C653 O648 1.259 . S
C653 O650 1.235 . S
O654 Co644 2.021 . S
O654 C651 1.238 . S
O655 Co649 2.052 . S
O655 C651 1.241 . S
O656 Co644 2.137 1_545 S
O656 C647 1.247 . S
O657 Co644 2.244 . S
O657 C647 1.272 1_565 S
O657 Co649 2.135 . S
Co658 O659 2.216 1_545 S
Co658 O660 2.091 1_545 S
Co658 O662 2.004 . S
Co658 O668 2.021 . S
Co658 O670 2.137 1_545 S
Co658 O671 2.244 . S
O659 Co658 2.216 1_565 S
O659 C666 1.247 . S
O660 Co658 2.091 1_565 S
O660 C666 1.261 . S
C661 O670 1.247 . S
C661 O671 1.272 1_565 S
O662 Co658 2.004 . S
O662 C667 1.259 . S
Co663 O664 2.061 . S
Co663 O669 2.052 . S
Co663 O671 2.135 . S
O664 Co663 2.061 . S
O664 C667 1.235 . S
C665 O668 1.238 . S
C665 O669 1.241 . S
C666 O659 1.247 . S
C666 O660 1.261 . S
C667 O662 1.259 . S
C667 O664 1.235 . S
O668 Co658 2.021 . S
O668 C665 1.238 . S
O669 Co663 2.052 . S
O669 C665 1.241 . S
O670 Co658 2.137 1_565 S
O670 C661 1.247 . S
O671 Co658 2.244 . S
O671 C661 1.272 1_545 S
O671 Co663 2.135 . S
C672 C673 1.369 . S
C672 C674 1.419 . S
C672 H676 0.930 . S
C673 C672 1.369 . S
C673 C682 1.429 . S
C674 C672 1.419 . S
C674 C675 1.363 . S
C674 H677 0.929 . S
C675 C674 1.363 . S
C675 C681 1.428 . S
H676 C672 0.930 . S
H677 C674 0.929 . S
S678 N679 1.613 . S
S678 N680 1.610 . S
N679 S678 1.613 . S
N679 C682 1.350 . S
N680 S678 1.610 . S
N680 C681 1.351 . S
C681 C675 1.428 . S
C681 N680 1.351 . S
C681 C682 1.434 . S
C682 C673 1.429 . S
C682 N679 1.350 . S
C682 C681 1.434 . S
C683 C684 1.369 . S
C683 C685 1.419 . S
C683 H687 0.930 . S
C684 C683 1.369 . S
C684 C693 1.429 . S
C685 C683 1.419 . S
C685 C686 1.363 . S
C685 H688 0.929 . S
C686 C685 1.363 . S
C686 C692 1.428 . S
H687 C683 0.930 . S
H688 C685 0.929 . S
S689 N690 1.613 . S
S689 N691 1.610 . S
N690 S689 1.613 . S
N690 C693 1.350 . S
N691 S689 1.610 . S
N691 C692 1.351 . S
C692 C686 1.428 . S
C692 N691 1.351 . S
C692 C693 1.434 . S
C693 C684 1.429 . S
C693 N690 1.350 . S
C693 C692 1.434 . S
C694 C695 1.369 . S
C694 C696 1.419 . S
C694 H698 0.930 . S
C695 C694 1.369 . S
C695 C704 1.429 . S
C696 C694 1.419 . S
C696 C697 1.363 . S
C696 H699 0.929 . S
C697 C696 1.363 . S
C697 C703 1.428 . S
H698 C694 0.930 . S
H699 C696 0.929 . S
S700 N701 1.613 . S
S700 N702 1.610 . S
N701 S700 1.613 . S
N701 C704 1.350 . S
N702 S700 1.610 . S
N702 C703 1.351 . S
C703 C697 1.428 . S
C703 N702 1.351 . S
C703 C704 1.434 . S
C704 C695 1.429 . S
C704 N701 1.350 . S
C704 C703 1.434 . S
C705 C706 1.369 . S
C705 C707 1.419 . S
C705 H709 0.930 . S
C706 C705 1.369 . S
C706 C715 1.429 . S
C707 C705 1.419 . S
C707 C708 1.363 . S
C707 H710 0.929 . S
C708 C707 1.363 . S
C708 C714 1.428 . S
H709 C705 0.930 . S
H710 C707 0.929 . S
S711 N712 1.613 . S
S711 N713 1.610 . S
N712 S711 1.613 . S
N712 C715 1.350 . S
N713 S711 1.610 . S
N713 C714 1.351 . S
C714 C708 1.428 . S
C714 N713 1.351 . S
C714 C715 1.434 . S
C715 C706 1.429 . S
C715 N712 1.350 . S
C715 C714 1.434 . S
C716 C717 1.369 . S
C716 C718 1.419 . S
C716 H720 0.930 . S
C717 C716 1.369 . S
C717 C726 1.429 . S
C718 C716 1.419 . S
C718 C719 1.363 . S
C718 H721 0.929 . S
C719 C718 1.363 . S
C719 C725 1.428 . S
H720 C716 0.930 . S
H721 C718 0.929 . S
S722 N723 1.613 . S
S722 N724 1.610 . S
N723 S722 1.613 . S
N723 C726 1.350 . S
N724 S722 1.610 . S
N724 C725 1.351 . S
C725 C719 1.428 . S
C725 N724 1.351 . S
C725 C726 1.434 . S
C726 C717 1.429 . S
C726 N723 1.350 . S
C726 C725 1.434 . S
C727 C728 1.369 . S
C727 C729 1.419 . S
C727 H731 0.930 . S
C728 C727 1.369 . S
C728 C737 1.429 . S
C729 C727 1.419 . S
C729 C730 1.363 . S
C729 H732 0.929 . S
C730 C729 1.363 . S
C730 C736 1.428 . S
H731 C727 0.930 . S
H732 C729 0.929 . S
S733 N734 1.613 . S
S733 N735 1.610 . S
N734 S733 1.613 . S
N734 C737 1.350 . S
N735 S733 1.610 . S
N735 C736 1.351 . S
C736 C730 1.428 . S
C736 N735 1.351 . S
C736 C737 1.434 . S
C737 C728 1.429 . S
C737 N734 1.350 . S
C737 C736 1.434 . S
C738 C739 1.369 . S
C738 C740 1.419 . S
C738 H742 0.930 . S
C739 C738 1.369 . S
C739 C748 1.429 . S
C740 C738 1.419 . S
C740 C741 1.363 . S
C740 H743 0.929 . S
C741 C740 1.363 . S
C741 C747 1.428 . S
H742 C738 0.930 . S
H743 C740 0.929 . S
S744 N745 1.613 . S
S744 N746 1.610 . S
N745 S744 1.613 . S
N745 C748 1.350 . S
N746 S744 1.610 . S
N746 C747 1.351 . S
C747 C741 1.428 . S
C747 N746 1.351 . S
C747 C748 1.434 . S
C748 C739 1.429 . S
C748 N745 1.350 . S
C748 C747 1.434 . S
C749 C750 1.369 . S
C749 C751 1.419 . S
C749 H753 0.930 . S
C750 C749 1.369 . S
C750 C759 1.429 . S
C751 C749 1.419 . S
C751 C752 1.363 . S
C751 H754 0.929 . S
C752 C751 1.363 . S
C752 C758 1.428 . S
H753 C749 0.930 . S
H754 C751 0.929 . S
S755 N756 1.613 . S
S755 N757 1.610 . S
N756 S755 1.613 . S
N756 C759 1.350 . S
N757 S755 1.610 . S
N757 C758 1.351 . S
C758 C752 1.428 . S
C758 N757 1.351 . S
C758 C759 1.434 . S
C759 C750 1.429 . S
C759 N756 1.350 . S
C759 C758 1.434 . S
C760 C761 1.369 . S
C760 C762 1.419 . S
C760 H764 0.930 . S
C761 C760 1.369 . S
C761 C770 1.429 . S
C762 C760 1.419 . S
C762 C763 1.363 . S
C762 H765 0.929 . S
C763 C762 1.363 . S
C763 C769 1.428 . S
H764 C760 0.930 . S
H765 C762 0.929 . S
S766 N767 1.613 . S
S766 N768 1.610 . S
N767 S766 1.613 . S
N767 C770 1.350 . S
N768 S766 1.610 . S
N768 C769 1.351 . S
C769 C763 1.428 . S
C769 N768 1.351 . S
C769 C770 1.434 . S
C770 C761 1.429 . S
C770 N767 1.350 . S
C770 C769 1.434 . S
C771 C772 1.369 . S
C771 C773 1.419 . S
C771 H775 0.930 . S
C772 C771 1.369 . S
C772 C781 1.429 . S
C773 C771 1.419 . S
C773 C774 1.363 . S
C773 H776 0.929 . S
C774 C773 1.363 . S
C774 C780 1.428 . S
H775 C771 0.930 . S
H776 C773 0.929 . S
S777 N778 1.613 . S
S777 N779 1.610 . S
N778 S777 1.613 . S
N778 C781 1.350 . S
N779 S777 1.610 . S
N779 C780 1.351 . S
C780 C774 1.428 . S
C780 N779 1.351 . S
C780 C781 1.434 . S
C781 C772 1.429 . S
C781 N778 1.350 . S
C781 C780 1.434 . S
C782 C783 1.369 . S
C782 C784 1.419 . S
C782 H786 0.930 . S
C783 C782 1.369 . S
C783 C792 1.429 . S
C784 C782 1.419 . S
C784 C785 1.363 . S
C784 H787 0.929 . S
C785 C784 1.363 . S
C785 C791 1.428 . S
H786 C782 0.930 . S
H787 C784 0.929 . S
S788 N789 1.613 . S
S788 N790 1.610 . S
N789 S788 1.613 . S
N789 C792 1.350 . S
N790 S788 1.610 . S
N790 C791 1.351 . S
C791 C785 1.428 . S
C791 N790 1.351 . S
C791 C792 1.434 . S
C792 C783 1.429 . S
C792 N789 1.350 . S
C792 C791 1.434 . S
C793 C794 1.369 . S
C793 C795 1.419 . S
C793 H797 0.930 . S
C794 C793 1.369 . S
C794 C803 1.429 . S
C795 C793 1.419 . S
C795 C796 1.363 . S
C795 H798 0.929 . S
C796 C795 1.363 . S
C796 C802 1.428 . S
H797 C793 0.930 . S
H798 C795 0.929 . S
S799 N800 1.613 . S
S799 N801 1.610 . S
N800 S799 1.613 . S
N800 C803 1.350 . S
N801 S799 1.610 . S
N801 C802 1.351 . S
C802 C796 1.428 . S
C802 N801 1.351 . S
C802 C803 1.434 . S
C803 C794 1.429 . S
C803 N800 1.350 . S
C803 C802 1.434 . S
C804 C805 1.369 . S
C804 C806 1.419 . S
C804 H808 0.930 . S
C805 C804 1.369 . S
C805 C814 1.429 . S
C806 C804 1.419 . S
C806 C807 1.363 . S
C806 H809 0.929 . S
C807 C806 1.363 . S
C807 C813 1.428 . S
H808 C804 0.930 . S
H809 C806 0.929 . S
S810 N811 1.613 . S
S810 N812 1.610 . S
N811 S810 1.613 . S
N811 C814 1.350 . S
N812 S810 1.610 . S
N812 C813 1.351 . S
C813 C807 1.428 . S
C813 N812 1.351 . S
C813 C814 1.434 . S
C814 C805 1.429 . S
C814 N811 1.350 . S
C814 C813 1.434 . S
C815 C816 1.369 . S
C815 C817 1.419 . S
C815 H819 0.930 . S
C816 C815 1.369 . S
C816 C825 1.429 . S
C817 C815 1.419 . S
C817 C818 1.363 . S
C817 H820 0.929 . S
C818 C817 1.363 . S
C818 C824 1.428 . S
H819 C815 0.930 . S
H820 C817 0.929 . S
S821 N822 1.613 . S
S821 N823 1.610 . S
N822 S821 1.613 . S
N822 C825 1.350 . S
N823 S821 1.610 . S
N823 C824 1.351 . S
C824 C818 1.428 . S
C824 N823 1.351 . S
C824 C825 1.434 . S
C825 C816 1.429 . S
C825 N822 1.350 . S
C825 C824 1.434 . S
C826 C827 1.369 . S
C826 C828 1.419 . S
C826 H830 0.930 . S
C827 C826 1.369 . S
C827 C836 1.429 . S
C828 C826 1.419 . S
C828 C829 1.363 . S
C828 H831 0.929 . S
C829 C828 1.363 . S
C829 C835 1.428 . S
H830 C826 0.930 . S
H831 C828 0.929 . S
S832 N833 1.613 . S
S832 N834 1.610 . S
N833 S832 1.613 . S
N833 C836 1.350 . S
N834 S832 1.610 . S
N834 C835 1.351 . S
C835 C829 1.428 . S
C835 N834 1.351 . S
C835 C836 1.434 . S
C836 C827 1.429 . S
C836 N833 1.350 . S
C836 C835 1.434 . S
C837 C838 1.369 . S
C837 C839 1.419 . S
C837 H841 0.930 . S
C838 C837 1.369 . S
C838 C847 1.429 . S
C839 C837 1.419 . S
C839 C840 1.363 . S
C839 H842 0.929 . S
C840 C839 1.363 . S
C840 C846 1.428 . S
H841 C837 0.930 . S
H842 C839 0.929 . S
S843 N844 1.613 . S
S843 N845 1.610 . S
N844 S843 1.613 . S
N844 C847 1.350 . S
N845 S843 1.610 . S
N845 C846 1.351 . S
C846 C840 1.428 . S
C846 N845 1.351 . S
C846 C847 1.434 . S
C847 C838 1.429 . S
C847 N844 1.350 . S
C847 C846 1.434 . S
C848 C849 1.369 . S
C848 C850 1.419 . S
C848 H852 0.930 . S
C849 C848 1.369 . S
C849 C858 1.429 . S
C850 C848 1.419 . S
C850 C851 1.363 . S
C850 H853 0.929 . S
C851 C850 1.363 . S
C851 C857 1.428 . S
H852 C848 0.930 . S
H853 C850 0.929 . S
S854 N855 1.613 . S
S854 N856 1.610 . S
N855 S854 1.613 . S
N855 C858 1.350 . S
N856 S854 1.610 . S
N856 C857 1.351 . S
C857 C851 1.428 . S
C857 N856 1.351 . S
C857 C858 1.434 . S
C858 C849 1.429 . S
C858 N855 1.350 . S
C858 C857 1.434 . S
C859 C860 1.369 . S
C859 C861 1.419 . S
C859 H863 0.930 . S
C860 C859 1.369 . S
C860 C869 1.429 . S
C861 C859 1.419 . S
C861 C862 1.363 . S
C861 H864 0.929 . S
C862 C861 1.363 . S
C862 C868 1.428 . S
H863 C859 0.930 . S
H864 C861 0.929 . S
S865 N866 1.613 . S
S865 N867 1.610 . S
N866 S865 1.613 . S
N866 C869 1.350 . S
N867 S865 1.610 . S
N867 C868 1.351 . S
C868 C862 1.428 . S
C868 N867 1.351 . S
C868 C869 1.434 . S
C869 C860 1.429 . S
C869 N866 1.350 . S
C869 C868 1.434 . S
C870 C871 1.369 . S
C870 C872 1.419 . S
C870 H874 0.930 . S
C871 C870 1.369 . S
C871 C880 1.429 . S
C872 C870 1.419 . S
C872 C873 1.363 . S
C872 H875 0.929 . S
C873 C872 1.363 . S
C873 C879 1.428 . S
H874 C870 0.930 . S
H875 C872 0.929 . S
S876 N877 1.613 . S
S876 N878 1.610 . S
N877 S876 1.613 . S
N877 C880 1.350 . S
N878 S876 1.610 . S
N878 C879 1.351 . S
C879 C873 1.428 . S
C879 N878 1.351 . S
C879 C880 1.434 . S
C880 C871 1.429 . S
C880 N877 1.350 . S
C880 C879 1.434 . S
C881 C882 1.369 . S
C881 C883 1.419 . S
C881 H885 0.930 . S
C882 C881 1.369 . S
C882 C891 1.429 . S
C883 C881 1.419 . S
C883 C884 1.363 . S
C883 H886 0.929 . S
C884 C883 1.363 . S
C884 C890 1.428 . S
H885 C881 0.930 . S
H886 C883 0.929 . S
S887 N888 1.613 . S
S887 N889 1.610 . S
N888 S887 1.613 . S
N888 C891 1.350 . S
N889 S887 1.610 . S
N889 C890 1.351 . S
C890 C884 1.428 . S
C890 N889 1.351 . S
C890 C891 1.434 . S
C891 C882 1.429 . S
C891 N888 1.350 . S
C891 C890 1.434 . S
C892 C893 1.369 . S
C892 C894 1.419 . S
C892 H896 0.930 . S
C893 C892 1.369 . S
C893 C902 1.429 . S
C894 C892 1.419 . S
C894 C895 1.363 . S
C894 H897 0.929 . S
C895 C894 1.363 . S
C895 C901 1.428 . S
H896 C892 0.930 . S
H897 C894 0.929 . S
S898 N899 1.613 . S
S898 N900 1.610 . S
N899 S898 1.613 . S
N899 C902 1.350 . S
N900 S898 1.610 . S
N900 C901 1.351 . S
C901 C895 1.428 . S
C901 N900 1.351 . S
C901 C902 1.434 . S
C902 C893 1.429 . S
C902 N899 1.350 . S
C902 C901 1.434 . S
C903 C904 1.369 . S
C903 C905 1.419 . S
C903 H907 0.930 . S
C904 C903 1.369 . S
C904 C913 1.429 . S
C905 C903 1.419 . S
C905 C906 1.363 . S
C905 H908 0.929 . S
C906 C905 1.363 . S
C906 C912 1.428 . S
H907 C903 0.930 . S
H908 C905 0.929 . S
S909 N910 1.613 . S
S909 N911 1.610 . S
N910 S909 1.613 . S
N910 C913 1.350 . S
N911 S909 1.610 . S
N911 C912 1.351 . S
C912 C906 1.428 . S
C912 N911 1.351 . S
C912 C913 1.434 . S
C913 C904 1.429 . S
C913 N910 1.350 . S
C913 C912 1.434 . S
C914 C915 1.369 . S
C914 C916 1.419 . S
C914 H918 0.930 . S
C915 C914 1.369 . S
C915 C924 1.429 . S
C916 C914 1.419 . S
C916 C917 1.363 . S
C916 H919 0.929 . S
C917 C916 1.363 . S
C917 C923 1.428 . S
H918 C914 0.930 . S
H919 C916 0.929 . S
S920 N921 1.613 . S
S920 N922 1.610 . S
N921 S920 1.613 . S
N921 C924 1.350 . S
N922 S920 1.610 . S
N922 C923 1.351 . S
C923 C917 1.428 . S
C923 N922 1.351 . S
C923 C924 1.434 . S
C924 C915 1.429 . S
C924 N921 1.350 . S
C924 C923 1.434 . S
C925 C926 1.369 . S
C925 C927 1.419 . S
C925 H929 0.930 . S
C926 C925 1.369 . S
C926 C935 1.429 . S
C927 C925 1.419 . S
C927 C928 1.363 . S
C927 H930 0.929 . S
C928 C927 1.363 . S
C928 C934 1.428 . S
H929 C925 0.930 . S
H930 C927 0.929 . S
S931 N932 1.613 . S
S931 N933 1.610 . S
N932 S931 1.613 . S
N932 C935 1.350 . S
N933 S931 1.610 . S
N933 C934 1.351 . S
C934 C928 1.428 . S
C934 N933 1.351 . S
C934 C935 1.434 . S
C935 C926 1.429 . S
C935 N932 1.350 . S
C935 C934 1.434 . S
C936 C937 1.369 . S
C936 C938 1.419 . S
C936 H940 0.930 . S
C937 C936 1.369 . S
C937 C946 1.429 . S
C938 C936 1.419 . S
C938 C939 1.363 . S
C938 H941 0.929 . S
C939 C938 1.363 . S
C939 C945 1.428 . S
H940 C936 0.930 . S
H941 C938 0.929 . S
S942 N943 1.613 . S
S942 N944 1.610 . S
N943 S942 1.613 . S
N943 C946 1.350 . S
N944 S942 1.610 . S
N944 C945 1.351 . S
C945 C939 1.428 . S
C945 N944 1.351 . S
C945 C946 1.434 . S
C946 C937 1.429 . S
C946 N943 1.350 . S
C946 C945 1.434 . S
C947 C948 1.369 . S
C947 C949 1.419 . S
C947 H951 0.930 . S
C948 C947 1.369 . S
C948 C957 1.429 . S
C949 C947 1.419 . S
C949 C950 1.363 . S
C949 H952 0.929 . S
C950 C949 1.363 . S
C950 C956 1.428 . S
H951 C947 0.930 . S
H952 C949 0.929 . S
S953 N954 1.613 . S
S953 N955 1.610 . S
N954 S953 1.613 . S
N954 C957 1.350 . S
N955 S953 1.610 . S
N955 C956 1.351 . S
C956 C950 1.428 . S
C956 N955 1.351 . S
C956 C957 1.434 . S
C957 C948 1.429 . S
C957 N954 1.350 . S
C957 C956 1.434 . S
C958 C959 1.369 . S
C958 C960 1.419 . S
C958 H962 0.930 . S
C959 C958 1.369 . S
C959 C968 1.429 . S
C960 C958 1.419 . S
C960 C961 1.363 . S
C960 H963 0.929 . S
C961 C960 1.363 . S
C961 C967 1.428 . S
H962 C958 0.930 . S
H963 C960 0.929 . S
S964 N965 1.613 . S
S964 N966 1.610 . S
N965 S964 1.613 . S
N965 C968 1.350 . S
N966 S964 1.610 . S
N966 C967 1.351 . S
C967 C961 1.428 . S
C967 N966 1.351 . S
C967 C968 1.434 . S
C968 C959 1.429 . S
C968 N965 1.350 . S
C968 C967 1.434 . S
C969 C970 1.369 . S
C969 C971 1.419 . S
C969 H973 0.930 . S
C970 C969 1.369 . S
C970 C979 1.429 1_556 S
C971 C969 1.419 . S
C971 C972 1.363 1_556 S
C971 H974 0.929 . S
C972 C971 1.363 1_554 S
C972 C978 1.428 . S
H973 C969 0.930 . S
H974 C971 0.929 . S
S975 N976 1.613 . S
S975 N977 1.610 . S
N976 S975 1.613 . S
N976 C979 1.350 . S
N977 S975 1.610 . S
N977 C978 1.351 . S
C978 C972 1.428 . S
C978 N977 1.351 . S
C978 C979 1.434 . S
C979 C970 1.429 1_554 S
C979 N976 1.350 . S
C979 C978 1.434 . S
C980 C981 1.369 . S
C980 C982 1.419 . S
C980 H984 0.930 . S
C981 C980 1.369 . S
C981 C990 1.429 . S
C982 C980 1.419 . S
C982 C983 1.363 . S
C982 H985 0.929 . S
C983 C982 1.363 . S
C983 C989 1.428 . S
H984 C980 0.930 . S
H985 C982 0.929 . S
S986 N987 1.613 . S
S986 N988 1.610 . S
N987 S986 1.613 . S
N987 C990 1.350 . S
N988 S986 1.610 . S
N988 C989 1.351 . S
C989 C983 1.428 . S
C989 N988 1.351 . S
C989 C990 1.434 . S
C990 C981 1.429 . S
C990 N987 1.350 . S
C990 C989 1.434 . S
C991 C992 1.369 . S
C991 C993 1.419 . S
C991 H995 0.930 . S
C992 C991 1.369 . S
C992 C1001 1.429 . S
C993 C991 1.419 . S
C993 C994 1.363 . S
C993 H996 0.929 . S
C994 C993 1.363 . S
C994 C1000 1.428 . S
H995 C991 0.930 . S
H996 C993 0.929 . S
S997 N998 1.613 . S
S997 N999 1.610 . S
N998 S997 1.613 . S
N998 C1001 1.350 . S
N999 S997 1.610 . S
N999 C1000 1.351 . S
C1000 C994 1.428 . S
C1000 N999 1.351 . S
C1000 C1001 1.434 . S
C1001 C992 1.429 . S
C1001 N998 1.350 . S
C1001 C1000 1.434 . S
C1002 C1003 1.369 . S
C1002 C1004 1.419 . S
C1002 H1006 0.930 . S
C1003 C1002 1.369 . S
C1003 C1012 1.429 . S
C1004 C1002 1.419 . S
C1004 C1005 1.363 . S
C1004 H1007 0.929 . S
C1005 C1004 1.363 . S
C1005 C1011 1.428 . S
H1006 C1002 0.930 . S
H1007 C1004 0.929 . S
S1008 N1009 1.613 . S
S1008 N1010 1.610 . S
N1009 S1008 1.613 . S
N1009 C1012 1.350 . S
N1010 S1008 1.610 . S
N1010 C1011 1.351 . S
C1011 C1005 1.428 . S
C1011 N1010 1.351 . S
C1011 C1012 1.434 . S
C1012 C1003 1.429 . S
C1012 N1009 1.350 . S
C1012 C1011 1.434 . S
C1013 C1014 1.369 1_556 S
C1013 C1015 1.419 . S
C1013 H1017 0.930 . S
C1014 C1013 1.369 1_554 S
C1014 C1023 1.429 . S
C1015 C1013 1.419 . S
C1015 C1016 1.363 . S
C1015 H1018 0.929 . S
C1016 C1015 1.363 . S
C1016 C1022 1.435 . S
H1017 C1013 0.930 . S
H1018 C1015 0.929 . S
S1019 N1020 1.613 . S
S1019 N1021 1.610 . S
N1020 S1019 1.613 . S
N1020 C1023 1.350 . S
N1021 S1019 1.610 . S
N1021 C1022 1.348 1_554 S
C1022 C1016 1.435 . S
C1022 N1021 1.348 1_556 S
C1022 C1023 1.429 1_556 S
C1023 C1014 1.429 . S
C1023 N1020 1.350 . S
C1023 C1022 1.429 1_554 S
C1024 C1025 1.369 . S
C1024 C1026 1.419 . S
C1024 H1028 0.930 . S
C1025 C1024 1.369 . S
C1025 C1034 1.429 . S
C1026 C1024 1.419 . S
C1026 C1027 1.363 . S
C1026 H1029 0.929 . S
C1027 C1026 1.363 . S
C1027 C1033 1.428 . S
H1028 C1024 0.930 . S
H1029 C1026 0.929 . S
S1030 N1031 1.613 . S
S1030 N1032 1.610 . S
N1031 S1030 1.613 . S
N1031 C1034 1.350 . S
N1032 S1030 1.610 . S
N1032 C1033 1.351 . S
C1033 C1027 1.428 . S
C1033 N1032 1.351 . S
C1033 C1034 1.434 . S
C1034 C1025 1.429 . S
C1034 N1031 1.350 . S
C1034 C1033 1.434 . S
C1035 C1036 1.369 . S
C1035 C1037 1.419 . S
C1035 H1039 0.930 . S
C1036 C1035 1.369 . S
C1036 C1045 1.429 1_565 S
C1037 C1035 1.419 . S
C1037 C1038 1.363 1_565 S
C1037 H1040 0.929 . S
C1038 C1037 1.363 1_545 S
C1038 C1044 1.428 . S
H1039 C1035 0.930 . S
H1040 C1037 0.929 . S
S1041 N1042 1.613 . S
S1041 N1043 1.610 . S
N1042 S1041 1.613 . S
N1042 C1045 1.350 . S
N1043 S1041 1.610 . S
N1043 C1044 1.351 . S
C1044 C1038 1.428 . S
C1044 N1043 1.351 . S
C1044 C1045 1.434 . S
C1045 C1036 1.429 1_545 S
C1045 N1042 1.350 . S
C1045 C1044 1.434 . S
C1046 C1047 1.369 . S
C1046 C1048 1.419 . S
C1046 H1050 0.930 . S
C1047 C1046 1.369 . S
C1047 C1056 1.429 . S
C1048 C1046 1.419 . S
C1048 C1049 1.363 . S
C1048 H1051 0.929 . S
C1049 C1048 1.363 . S
C1049 C1055 1.428 . S
H1050 C1046 0.930 . S
H1051 C1048 0.929 . S
S1052 N1053 1.613 . S
S1052 N1054 1.610 . S
N1053 S1052 1.613 . S
N1053 C1056 1.350 . S
N1054 S1052 1.610 . S
N1054 C1055 1.351 . S
C1055 C1049 1.428 . S
C1055 N1054 1.351 . S
C1055 C1056 1.434 . S
C1056 C1047 1.429 . S
C1056 N1053 1.350 . S
C1056 C1055 1.434 . S
C1057 C1058 1.369 1_565 S
C1057 C1059 1.419 . S
C1057 H1061 0.930 . S
C1058 C1057 1.369 1_545 S
C1058 C1067 1.429 . S
C1059 C1057 1.419 . S
C1059 C1060 1.363 . S
C1059 H1062 0.929 . S
C1060 C1059 1.363 . S
C1060 C1066 1.428 1_565 S
H1061 C1057 0.930 . S
H1062 C1059 0.929 . S
S1063 N1064 1.613 . S
S1063 N1065 1.610 . S
N1064 S1063 1.613 . S
N1064 C1067 1.350 . S
N1065 S1063 1.610 . S
N1065 C1066 1.351 . S
C1066 C1060 1.428 1_545 S
C1066 N1065 1.351 . S
C1066 C1067 1.434 . S
C1067 C1058 1.429 . S
C1067 N1064 1.350 . S
C1067 C1066 1.434 . S
C1068 C1069 1.369 . S
C1068 C1070 1.419 . S
C1068 H1072 0.930 . S
C1069 C1068 1.369 . S
C1069 C1078 1.429 . S
C1070 C1068 1.419 . S
C1070 C1071 1.363 . S
C1070 H1073 0.929 . S
C1071 C1070 1.363 . S
C1071 C1077 1.428 . S
H1072 C1068 0.930 . S
H1073 C1070 0.929 . S
S1074 N1075 1.613 . S
S1074 N1076 1.610 . S
N1075 S1074 1.613 . S
N1075 C1078 1.350 . S
N1076 S1074 1.610 . S
N1076 C1077 1.351 . S
C1077 C1071 1.428 . S
C1077 N1076 1.351 . S
C1077 C1078 1.434 . S
C1078 C1069 1.429 . S
C1078 N1075 1.350 . S
C1078 C1077 1.434 . S
C1079 C1080 1.369 . S
C1079 C1081 1.419 . S
C1079 H1083 0.930 . S
C1080 C1079 1.369 . S
C1080 C1089 1.429 1_565 S
C1081 C1079 1.419 . S
C1081 C1082 1.363 1_565 S
C1081 H1084 0.929 . S
C1082 C1081 1.363 1_545 S
C1082 C1088 1.428 . S
H1083 C1079 0.930 . S
H1084 C1081 0.929 . S
S1085 N1086 1.613 . S
S1085 N1087 1.610 . S
N1086 S1085 1.613 . S
N1086 C1089 1.350 . S
N1087 S1085 1.610 . S
N1087 C1088 1.351 . S
C1088 C1082 1.428 . S
C1088 N1087 1.351 . S
C1088 C1089 1.434 . S
C1089 C1080 1.429 1_545 S
C1089 N1086 1.350 . S
C1089 C1088 1.434 . S
C1090 C1091 1.369 . S
C1090 C1092 1.419 . S
C1090 H1094 0.930 . S
C1091 C1090 1.369 . S
C1091 C1100 1.429 . S
C1092 C1090 1.419 . S
C1092 C1093 1.363 . S
C1092 H1095 0.929 . S
C1093 C1092 1.363 . S
C1093 C1099 1.428 . S
H1094 C1090 0.930 . S
H1095 C1092 0.929 . S
S1096 N1097 1.613 . S
S1096 N1098 1.610 . S
N1097 S1096 1.613 . S
N1097 C1100 1.350 . S
N1098 S1096 1.610 . S
N1098 C1099 1.351 . S
C1099 C1093 1.428 . S
C1099 N1098 1.351 . S
C1099 C1100 1.434 . S
C1100 C1091 1.429 . S
C1100 N1097 1.350 . S
C1100 C1099 1.434 . S
C1101 C1102 1.369 . S
C1101 C1103 1.419 . S
C1101 H1105 0.930 . S
C1102 C1101 1.369 . S
C1102 C1111 1.429 1_565 S
C1103 C1101 1.419 . S
C1103 C1104 1.363 1_565 S
C1103 H1106 0.929 . S
C1104 C1103 1.363 1_545 S
C1104 C1110 1.428 . S
H1105 C1101 0.930 . S
H1106 C1103 0.929 . S
S1107 N1108 1.613 . S
S1107 N1109 1.610 . S
N1108 S1107 1.613 . S
N1108 C1111 1.350 . S
N1109 S1107 1.610 . S
N1109 C1110 1.351 . S
C1110 C1104 1.428 . S
C1110 N1109 1.351 . S
C1110 C1111 1.434 . S
C1111 C1102 1.429 1_545 S
C1111 N1108 1.350 . S
C1111 C1110 1.434 . S
C1112 C1113 1.369 . S
C1112 C1114 1.419 . S
C1112 H1116 0.930 . S
C1113 C1112 1.369 . S
C1113 C1122 1.429 . S
C1114 C1112 1.419 . S
C1114 C1115 1.363 . S
C1114 H1117 0.929 . S
C1115 C1114 1.363 . S
C1115 C1121 1.428 . S
H1116 C1112 0.930 . S
H1117 C1114 0.929 . S
S1118 N1119 1.613 . S
S1118 N1120 1.610 . S
N1119 S1118 1.613 . S
N1119 C1122 1.350 . S
N1120 S1118 1.610 . S
N1120 C1121 1.351 . S
C1121 C1115 1.428 . S
C1121 N1120 1.351 . S
C1121 C1122 1.434 . S
C1122 C1113 1.429 . S
C1122 N1119 1.350 . S
C1122 C1121 1.434 . S
C1123 C1124 1.369 . S
C1123 C1125 1.419 . S
C1123 H1127 0.930 . S
C1124 C1123 1.369 . S
C1124 C1133 1.429 . S
C1125 C1123 1.419 . S
C1125 C1126 1.363 . S
C1125 H1128 0.929 . S
C1126 C1125 1.363 . S
C1126 C1132 1.428 . S
H1127 C1123 0.930 . S
H1128 C1125 0.929 . S
S1129 N1130 1.613 . S
S1129 N1131 1.610 . S
N1130 S1129 1.613 . S
N1130 C1133 1.350 . S
N1131 S1129 1.610 . S
N1131 C1132 1.351 . S
C1132 C1126 1.428 . S
C1132 N1131 1.351 . S
C1132 C1133 1.434 . S
C1133 C1124 1.429 . S
C1133 N1130 1.350 . S
C1133 C1132 1.434 . S
C1134 C1135 1.369 1_455 S
C1134 C1136 1.419 . S
C1134 H1138 0.930 . S
C1135 C1134 1.369 1_655 S
C1135 C1144 1.429 . S
C1136 C1134 1.419 . S
C1136 C1137 1.363 . S
C1136 H1139 0.929 . S
C1137 C1136 1.363 . S
C1137 C1143 1.428 1_455 S
H1138 C1134 0.930 . S
H1139 C1136 0.929 . S
S1140 N1141 1.613 . S
S1140 N1142 1.610 . S
N1141 S1140 1.613 . S
N1141 C1144 1.350 . S
N1142 S1140 1.610 . S
N1142 C1143 1.351 . S
C1143 C1137 1.428 1_655 S
C1143 N1142 1.351 . S
C1143 C1144 1.434 . S
C1144 C1135 1.429 . S
C1144 N1141 1.350 . S
C1144 C1143 1.434 . S
C1145 C1146 1.369 . S
C1145 C1147 1.419 . S
C1145 H1149 0.930 . S
C1146 C1145 1.369 . S
C1146 C1155 1.429 . S
C1147 C1145 1.419 . S
C1147 C1148 1.363 . S
C1147 H1150 0.929 . S
C1148 C1147 1.363 . S
C1148 C1154 1.428 . S
H1149 C1145 0.930 . S
H1150 C1147 0.929 . S
S1151 N1152 1.613 . S
S1151 N1153 1.610 . S
N1152 S1151 1.613 . S
N1152 C1155 1.350 . S
N1153 S1151 1.610 . S
N1153 C1154 1.351 . S
C1154 C1148 1.428 . S
C1154 N1153 1.351 . S
C1154 C1155 1.434 . S
C1155 C1146 1.429 . S
C1155 N1152 1.350 . S
C1155 C1154 1.434 . S
C1156 C1157 1.369 1_655 S
C1156 C1158 1.419 . S
C1156 H1160 0.930 1_554 S
C1157 C1156 1.369 1_455 S
C1157 C1166 1.429 . S
C1158 C1156 1.419 . S
C1158 C1159 1.363 . S
C1158 H1161 0.929 . S
C1159 C1158 1.363 . S
C1159 C1165 1.428 . S
H1160 C1156 0.930 1_556 S
H1161 C1158 0.929 . S
S1162 N1163 1.613 . S
S1162 N1164 1.610 1_455 S
N1163 S1162 1.613 . S
N1163 C1166 1.350 . S
N1164 S1162 1.610 1_655 S
N1164 C1165 1.351 . S
C1165 C1159 1.428 . S
C1165 N1164 1.351 . S
C1165 C1166 1.434 1_655 S
C1166 C1157 1.429 . S
C1166 N1163 1.350 . S
C1166 C1165 1.434 1_455 S
C1167 C1168 1.369 . S
C1167 C1169 1.419 . S
C1167 H1171 0.930 . S
C1168 C1167 1.369 . S
C1168 C1177 1.429 . S
C1169 C1167 1.419 . S
C1169 C1170 1.363 . S
C1169 H1172 0.929 . S
C1170 C1169 1.363 . S
C1170 C1176 1.428 . S
H1171 C1167 0.930 . S
H1172 C1169 0.929 . S
S1173 N1174 1.613 . S
S1173 N1175 1.610 . S
N1174 S1173 1.613 . S
N1174 C1177 1.350 . S
N1175 S1173 1.610 . S
N1175 C1176 1.351 . S
C1176 C1170 1.428 . S
C1176 N1175 1.351 . S
C1176 C1177 1.434 . S
C1177 C1168 1.429 . S
C1177 N1174 1.350 . S
C1177 C1176 1.434 . S
C1178 C1179 1.369 1_455 S
C1178 C1180 1.419 . S
C1178 H1182 0.930 . S
C1179 C1178 1.369 1_655 S
C1179 C1188 1.429 . S
C1180 C1178 1.419 . S
C1180 C1181 1.363 . S
C1180 H1183 0.929 . S
C1181 C1180 1.363 . S
C1181 C1187 1.428 1_455 S
H1182 C1178 0.930 . S
H1183 C1180 0.929 . S
S1184 N1185 1.613 . S
S1184 N1186 1.610 . S
N1185 S1184 1.613 . S
N1185 C1188 1.350 . S
N1186 S1184 1.610 . S
N1186 C1187 1.351 . S
C1187 C1181 1.428 1_655 S
C1187 N1186 1.351 . S
C1187 C1188 1.434 . S
C1188 C1179 1.429 . S
C1188 N1185 1.350 . S
C1188 C1187 1.434 . S
C1189 C1190 1.369 . S
C1189 C1191 1.419 . S
C1189 H1193 0.930 . S
C1190 C1189 1.369 . S
C1190 C1199 1.429 . S
C1191 C1189 1.419 . S
C1191 C1192 1.363 . S
C1191 H1194 0.929 . S
C1192 C1191 1.363 . S
C1192 C1198 1.428 . S
H1193 C1189 0.930 . S
H1194 C1191 0.929 . S
S1195 N1196 1.613 . S
S1195 N1197 1.610 . S
N1196 S1195 1.613 . S
N1196 C1199 1.350 . S
N1197 S1195 1.610 . S
N1197 C1198 1.351 . S
C1198 C1192 1.428 . S
C1198 N1197 1.351 . S
C1198 C1199 1.434 . S
C1199 C1190 1.429 . S
C1199 N1196 1.350 . S
C1199 C1198 1.434 . S
C1200 C1201 1.369 . S
C1200 C1202 1.419 . S
C1200 H1204 0.930 . S
C1201 C1200 1.369 . S
C1201 C1210 1.429 . S
C1202 C1200 1.419 . S
C1202 C1203 1.363 . S
C1202 H1205 0.929 . S
C1203 C1202 1.363 . S
C1203 C1209 1.428 . S
H1204 C1200 0.930 . S
H1205 C1202 0.929 . S
S1206 N1207 1.613 . S
S1206 N1208 1.610 . S
N1207 S1206 1.613 . S
N1207 C1210 1.350 . S
N1208 S1206 1.610 . S
N1208 C1209 1.351 . S
C1209 C1203 1.428 . S
C1209 N1208 1.351 . S
C1209 C1210 1.434 . S
C1210 C1201 1.429 . S
C1210 N1207 1.350 . S
C1210 C1209 1.434 . S
C1211 C1212 1.369 . S
C1211 C1213 1.419 . S
C1211 H1215 0.930 . S
C1212 C1211 1.369 . S
C1212 C1221 1.429 1_554 S
C1213 C1211 1.419 . S
C1213 C1214 1.363 1_554 S
C1213 H1216 0.929 . S
C1214 C1213 1.363 1_556 S
C1214 C1220 1.428 . S
H1215 C1211 0.930 . S
H1216 C1213 0.929 . S
S1217 N1218 1.613 . S
S1217 N1219 1.610 . S
N1218 S1217 1.613 . S
N1218 C1221 1.350 . S
N1219 S1217 1.610 . S
N1219 C1220 1.351 . S
C1220 C1214 1.428 . S
C1220 N1219 1.351 . S
C1220 C1221 1.434 . S
C1221 C1212 1.429 1_556 S
C1221 N1218 1.350 . S
C1221 C1220 1.434 . S
C1222 C1223 1.369 . S
C1222 C1224 1.419 . S
C1222 H1226 0.930 . S
C1223 C1222 1.369 . S
C1223 C1232 1.429 . S
C1224 C1222 1.419 . S
C1224 C1225 1.363 . S
C1224 H1227 0.929 . S
C1225 C1224 1.363 . S
C1225 C1231 1.428 . S
H1226 C1222 0.930 . S
H1227 C1224 0.929 . S
S1228 N1229 1.613 . S
S1228 N1230 1.610 . S
N1229 S1228 1.613 . S
N1229 C1232 1.350 . S
N1230 S1228 1.610 . S
N1230 C1231 1.351 . S
C1231 C1225 1.428 . S
C1231 N1230 1.351 . S
C1231 C1232 1.434 . S
C1232 C1223 1.429 . S
C1232 N1229 1.350 . S
C1232 C1231 1.434 . S
C1233 C1234 1.369 . S
C1233 C1235 1.419 . S
C1233 H1237 0.930 . S
C1234 C1233 1.369 . S
C1234 C1243 1.429 . S
C1235 C1233 1.419 . S
C1235 C1236 1.363 . S
C1235 H1238 0.929 . S
C1236 C1235 1.363 . S
C1236 C1242 1.428 . S
H1237 C1233 0.930 . S
H1238 C1235 0.929 . S
S1239 N1240 1.613 . S
S1239 N1241 1.610 . S
N1240 S1239 1.613 . S
N1240 C1243 1.350 . S
N1241 S1239 1.610 . S
N1241 C1242 1.351 . S
C1242 C1236 1.428 . S
C1242 N1241 1.351 . S
C1242 C1243 1.434 . S
C1243 C1234 1.429 . S
C1243 N1240 1.350 . S
C1243 C1242 1.434 . S
C1244 C1245 1.369 . S
C1244 C1246 1.419 . S
C1244 H1248 0.930 . S
C1245 C1244 1.369 . S
C1245 C1254 1.429 . S
C1246 C1244 1.419 . S
C1246 C1247 1.363 . S
C1246 H1249 0.929 . S
C1247 C1246 1.363 . S
C1247 C1253 1.428 . S
H1248 C1244 0.930 . S
H1249 C1246 0.929 . S
S1250 N1251 1.613 . S
S1250 N1252 1.610 . S
N1251 S1250 1.613 . S
N1251 C1254 1.350 . S
N1252 S1250 1.610 . S
N1252 C1253 1.351 . S
C1253 C1247 1.428 . S
C1253 N1252 1.351 . S
C1253 C1254 1.434 . S
C1254 C1245 1.429 . S
C1254 N1251 1.350 . S
C1254 C1253 1.434 . S
C1255 C1256 1.369 . S
C1255 C1257 1.419 1_556 S
C1255 H1259 0.930 . S
C1256 C1255 1.369 . S
C1256 C1265 1.429 . S
C1257 C1255 1.419 1_554 S
C1257 C1258 1.363 . S
C1257 H1260 0.929 . S
C1258 C1257 1.363 . S
C1258 C1264 1.428 1_554 S
H1259 C1255 0.930 . S
H1260 C1257 0.929 . S
S1261 N1262 1.613 . S
S1261 N1263 1.610 . S
N1262 S1261 1.613 . S
N1262 C1265 1.350 . S
N1263 S1261 1.610 . S
N1263 C1264 1.351 . S
C1264 C1258 1.428 1_556 S
C1264 N1263 1.351 . S
C1264 C1265 1.434 . S
C1265 C1256 1.429 . S
C1265 N1262 1.350 . S
C1265 C1264 1.434 . S
C1266 C1267 1.369 . S
C1266 C1268 1.419 . S
C1266 H1270 0.930 . S
C1267 C1266 1.369 . S
C1267 C1276 1.429 . S
C1268 C1266 1.419 . S
C1268 C1269 1.363 . S
C1268 H1271 0.929 . S
C1269 C1268 1.363 . S
C1269 C1275 1.428 . S
H1270 C1266 0.930 . S
H1271 C1268 0.929 . S
S1272 N1273 1.613 . S
S1272 N1274 1.610 . S
N1273 S1272 1.613 . S
N1273 C1276 1.350 . S
N1274 S1272 1.610 . S
N1274 C1275 1.351 . S
C1275 C1269 1.428 . S
C1275 N1274 1.351 . S
C1275 C1276 1.434 . S
C1276 C1267 1.429 . S
C1276 N1273 1.350 . S
C1276 C1275 1.434 . S
C1277 C1278 1.369 . S
C1277 C1279 1.419 . S
C1277 H1281 0.930 . S
C1278 C1277 1.369 . S
C1278 C1287 1.429 . S
C1279 C1277 1.419 . S
C1279 C1280 1.363 . S
C1279 H1282 0.929 . S
C1280 C1279 1.363 . S
C1280 C1286 1.428 . S
H1281 C1277 0.930 . S
H1282 C1279 0.929 . S
S1283 N1284 1.613 . S
S1283 N1285 1.610 . S
N1284 S1283 1.613 . S
N1284 C1287 1.350 . S
N1285 S1283 1.610 . S
N1285 C1286 1.351 . S
C1286 C1280 1.428 . S
C1286 N1285 1.351 . S
C1286 C1287 1.434 . S
C1287 C1278 1.429 . S
C1287 N1284 1.350 . S
C1287 C1286 1.434 . S
C1288 C1289 1.369 . S
C1288 C1290 1.419 . S
C1288 H1292 0.930 . S
C1289 C1288 1.369 . S
C1289 C1298 1.429 . S
C1290 C1288 1.419 . S
C1290 C1291 1.363 . S
C1290 H1293 0.929 . S
C1291 C1290 1.363 . S
C1291 C1297 1.428 . S
H1292 C1288 0.930 . S
H1293 C1290 0.929 . S
S1294 N1295 1.613 . S
S1294 N1296 1.610 . S
N1295 S1294 1.613 . S
N1295 C1298 1.350 . S
N1296 S1294 1.610 . S
N1296 C1297 1.351 . S
C1297 C1291 1.428 . S
C1297 N1296 1.351 . S
C1297 C1298 1.434 . S
C1298 C1289 1.429 . S
C1298 N1295 1.350 . S
C1298 C1297 1.434 . S
C1299 C1300 1.369 . S
C1299 C1301 1.419 . S
C1299 H1303 0.930 . S
C1300 C1299 1.369 . S
C1300 C1309 1.429 . S
C1301 C1299 1.419 . S
C1301 C1302 1.363 . S
C1301 H1304 0.929 . S
C1302 C1301 1.363 . S
C1302 C1308 1.428 . S
H1303 C1299 0.930 . S
H1304 C1301 0.929 . S
S1305 N1306 1.613 . S
S1305 N1307 1.610 . S
N1306 S1305 1.613 . S
N1306 C1309 1.350 . S
N1307 S1305 1.610 . S
N1307 C1308 1.351 . S
C1308 C1302 1.428 . S
C1308 N1307 1.351 . S
C1308 C1309 1.434 . S
C1309 C1300 1.429 . S
C1309 N1306 1.350 . S
C1309 C1308 1.434 . S
C1310 C1311 1.369 . S
C1310 C1312 1.419 . S
C1310 H1314 0.930 . S
C1311 C1310 1.369 . S
C1311 C1320 1.429 . S
C1312 C1310 1.419 . S
C1312 C1313 1.363 . S
C1312 H1315 0.929 . S
C1313 C1312 1.363 . S
C1313 C1319 1.428 . S
H1314 C1310 0.930 . S
H1315 C1312 0.929 . S
S1316 N1317 1.613 . S
S1316 N1318 1.610 . S
N1317 S1316 1.613 . S
N1317 C1320 1.350 . S
N1318 S1316 1.610 . S
N1318 C1319 1.351 . S
C1319 C1313 1.428 . S
C1319 N1318 1.351 . S
C1319 C1320 1.434 . S
C1320 C1311 1.429 . S
C1320 N1317 1.350 . S
C1320 C1319 1.434 . S
C1321 C1322 1.369 . S
C1321 C1323 1.419 . S
C1321 H1325 0.930 . S
C1322 C1321 1.369 . S
C1322 C1331 1.429 . S
C1323 C1321 1.419 . S
C1323 C1324 1.363 . S
C1323 H1326 0.929 . S
C1324 C1323 1.363 . S
C1324 C1330 1.428 . S
H1325 C1321 0.930 . S
H1326 C1323 0.929 . S
S1327 N1328 1.613 . S
S1327 N1329 1.610 . S
N1328 S1327 1.613 . S
N1328 C1331 1.350 . S
N1329 S1327 1.610 . S
N1329 C1330 1.351 . S
C1330 C1324 1.428 . S
C1330 N1329 1.351 . S
C1330 C1331 1.434 . S
C1331 C1322 1.429 . S
C1331 N1328 1.350 . S
C1331 C1330 1.434 . S
C1332 C1333 1.369 . S
C1332 C1334 1.419 . S
C1332 H1336 0.930 . S
C1333 C1332 1.369 . S
C1333 C1342 1.429 . S
C1334 C1332 1.419 . S
C1334 C1335 1.363 . S
C1334 H1337 0.929 . S
C1335 C1334 1.363 . S
C1335 C1341 1.428 . S
H1336 C1332 0.930 . S
H1337 C1334 0.929 . S
S1338 N1339 1.613 . S
S1338 N1340 1.610 . S
N1339 S1338 1.613 . S
N1339 C1342 1.350 . S
N1340 S1338 1.610 . S
N1340 C1341 1.351 . S
C1341 C1335 1.428 . S
C1341 N1340 1.351 . S
C1341 C1342 1.434 . S
C1342 C1333 1.429 . S
C1342 N1339 1.350 . S
C1342 C1341 1.434 . S
C1343 C1344 1.369 . S
C1343 C1345 1.419 . S
C1343 H1347 0.930 . S
C1344 C1343 1.369 . S
C1344 C1353 1.429 . S
C1345 C1343 1.419 . S
C1345 C1346 1.363 . S
C1345 H1348 0.929 . S
C1346 C1345 1.363 . S
C1346 C1352 1.428 . S
H1347 C1343 0.930 . S
H1348 C1345 0.929 . S
S1349 N1350 1.613 . S
S1349 N1351 1.605 1_655 S
N1350 S1349 1.613 . S
N1350 C1353 1.350 . S
N1351 S1349 1.605 1_455 S
N1351 C1352 1.331 1_455 S
C1352 C1346 1.428 . S
C1352 N1351 1.331 1_655 S
C1352 C1353 1.434 . S
C1353 C1344 1.429 . S
C1353 N1350 1.350 . S
C1353 C1352 1.434 . S
C1354 C1355 1.369 . S
C1354 C1356 1.419 . S
C1354 H1358 0.930 . S
C1355 C1354 1.369 . S
C1355 C1364 1.429 . S
C1356 C1354 1.419 . S
C1356 C1357 1.363 . S
C1356 H1359 0.929 . S
C1357 C1356 1.363 . S
C1357 C1363 1.428 . S
H1358 C1354 0.930 . S
H1359 C1356 0.929 . S
S1360 N1361 1.613 . S
S1360 N1362 1.610 . S
N1361 S1360 1.613 . S
N1361 C1364 1.350 . S
N1362 S1360 1.610 . S
N1362 C1363 1.351 . S
C1363 C1357 1.428 . S
C1363 N1362 1.351 . S
C1363 C1364 1.434 . S
C1364 C1355 1.429 . S
C1364 N1361 1.350 . S
C1364 C1363 1.434 . S
C1365 C1366 1.369 . S
C1365 C1367 1.419 . S
C1365 H1369 0.930 . S
C1366 C1365 1.369 . S
C1366 C1375 1.429 . S
C1367 C1365 1.419 . S
C1367 C1368 1.363 . S
C1367 H1370 0.929 . S
C1368 C1367 1.363 . S
C1368 C1374 1.428 . S
H1369 C1365 0.930 . S
H1370 C1367 0.929 . S
S1371 N1372 1.613 . S
S1371 N1373 1.610 . S
N1372 S1371 1.613 . S
N1372 C1375 1.350 . S
N1373 S1371 1.610 . S
N1373 C1374 1.351 . S
C1374 C1368 1.428 . S
C1374 N1373 1.351 . S
C1374 C1375 1.434 . S
C1375 C1366 1.429 . S
C1375 N1372 1.350 . S
C1375 C1374 1.434 . S
C1376 C1377 1.369 . S
C1376 C1378 1.419 . S
C1376 H1380 0.930 . S
C1377 C1376 1.369 . S
C1377 C1386 1.429 . S
C1378 C1376 1.419 . S
C1378 C1379 1.363 . S
C1378 H1381 0.929 . S
C1379 C1378 1.363 . S
C1379 C1385 1.428 . S
H1380 C1376 0.930 . S
H1381 C1378 0.929 . S
S1382 N1383 1.613 . S
S1382 N1384 1.610 . S
N1383 S1382 1.613 . S
N1383 C1386 1.350 . S
N1384 S1382 1.610 . S
N1384 C1385 1.351 . S
C1385 C1379 1.428 . S
C1385 N1384 1.351 . S
C1385 C1386 1.434 . S
C1386 C1377 1.429 . S
C1386 N1383 1.350 . S
C1386 C1385 1.434 . S
C1387 C1388 1.369 . S
C1387 C1389 1.419 . S
C1387 H1391 0.930 . S
C1388 C1387 1.369 . S
C1388 C1397 1.429 . S
C1389 C1387 1.419 . S
C1389 C1390 1.363 . S
C1389 H1392 0.929 . S
C1390 C1389 1.363 . S
C1390 C1396 1.428 . S
H1391 C1387 0.930 . S
H1392 C1389 0.929 . S
S1393 N1394 1.613 . S
S1393 N1395 1.610 . S
N1394 S1393 1.613 . S
N1394 C1397 1.350 . S
N1395 S1393 1.610 . S
N1395 C1396 1.351 . S
C1396 C1390 1.428 . S
C1396 N1395 1.351 . S
C1396 C1397 1.434 . S
C1397 C1388 1.429 . S
C1397 N1394 1.350 . S
C1397 C1396 1.434 . S
C1398 C1399 1.369 . S
C1398 C1400 1.419 . S
C1398 H1402 0.930 . S
C1399 C1398 1.369 . S
C1399 C1408 1.429 . S
C1400 C1398 1.419 . S
C1400 C1401 1.363 . S
C1400 H1403 0.929 . S
C1401 C1400 1.363 . S
C1401 C1407 1.428 . S
H1402 C1398 0.930 . S
H1403 C1400 0.929 . S
S1404 N1405 1.613 . S
S1404 N1406 1.610 . S
N1405 S1404 1.613 . S
N1405 C1408 1.350 . S
N1406 S1404 1.610 . S
N1406 C1407 1.351 . S
C1407 C1401 1.428 . S
C1407 N1406 1.351 . S
C1407 C1408 1.434 . S
C1408 C1399 1.429 . S
C1408 N1405 1.350 . S
C1408 C1407 1.434 . S
C1409 C1410 1.369 . S
C1409 C1411 1.419 . S
C1409 H1413 0.930 . S
C1410 C1409 1.369 . S
C1410 C1419 1.429 . S
C1411 C1409 1.419 . S
C1411 C1412 1.363 . S
C1411 H1414 0.929 . S
C1412 C1411 1.363 . S
C1412 C1418 1.428 . S
H1413 C1409 0.930 . S
H1414 C1411 0.929 . S
S1415 N1416 1.613 . S
S1415 N1417 1.610 . S
N1416 S1415 1.613 . S
N1416 C1419 1.350 . S
N1417 S1415 1.610 . S
N1417 C1418 1.351 . S
C1418 C1412 1.428 . S
C1418 N1417 1.351 . S
C1418 C1419 1.434 . S
C1419 C1410 1.429 . S
C1419 N1416 1.350 . S
C1419 C1418 1.434 . S
C1420 C1421 1.369 . S
C1420 C1422 1.419 . S
C1420 H1424 0.930 . S
C1421 C1420 1.369 . S
C1421 C1430 1.429 . S
C1422 C1420 1.419 . S
C1422 C1423 1.363 . S
C1422 H1425 0.929 . S
C1423 C1422 1.363 . S
C1423 C1429 1.428 . S
H1424 C1420 0.930 . S
H1425 C1422 0.929 . S
S1426 N1427 1.613 . S
S1426 N1428 1.610 . S
N1427 S1426 1.613 . S
N1427 C1430 1.350 . S
N1428 S1426 1.610 . S
N1428 C1429 1.351 . S
C1429 C1423 1.428 . S
C1429 N1428 1.351 . S
C1429 C1430 1.434 . S
C1430 C1421 1.429 . S
C1430 N1427 1.350 . S
C1430 C1429 1.434 . S
C1431 C1432 1.369 . S
C1431 C1433 1.419 . S
C1431 H1435 0.930 . S
C1432 C1431 1.369 . S
C1432 C1441 1.429 . S
C1433 C1431 1.419 . S
C1433 C1434 1.363 . S
C1433 H1436 0.929 . S
C1434 C1433 1.363 . S
C1434 C1440 1.428 . S
H1435 C1431 0.930 . S
H1436 C1433 0.929 . S
S1437 N1438 1.613 . S
S1437 N1439 1.610 . S
N1438 S1437 1.613 . S
N1438 C1441 1.350 . S
N1439 S1437 1.610 . S
N1439 C1440 1.351 . S
C1440 C1434 1.428 . S
C1440 N1439 1.351 . S
C1440 C1441 1.434 . S
C1441 C1432 1.429 . S
C1441 N1438 1.350 . S
C1441 C1440 1.434 . S
C1442 C1443 1.369 . S
C1442 C1444 1.419 . S
C1442 H1446 0.930 . S
C1443 C1442 1.369 . S
C1443 C1452 1.429 . S
C1444 C1442 1.419 . S
C1444 C1445 1.363 . S
C1444 H1447 0.929 . S
C1445 C1444 1.363 . S
C1445 C1451 1.428 . S
H1446 C1442 0.930 . S
H1447 C1444 0.929 . S
S1448 N1449 1.613 . S
S1448 N1450 1.610 1_554 S
N1449 S1448 1.613 . S
N1449 C1452 1.350 1_554 S
N1450 S1448 1.610 1_556 S
N1450 C1451 1.351 . S
C1451 C1445 1.428 . S
C1451 N1450 1.351 . S
C1451 C1452 1.434 . S
C1452 C1443 1.429 . S
C1452 N1449 1.350 1_556 S
C1452 C1451 1.434 . S
C1453 C1454 1.369 . S
C1453 C1455 1.419 1_455 S
C1453 H1457 0.930 . S
C1454 C1453 1.369 . S
C1454 C1463 1.429 1_455 S
C1455 C1453 1.419 1_655 S
C1455 C1456 1.363 . S
C1455 H1458 0.929 . S
C1456 C1455 1.363 . S
C1456 C1462 1.428 . S
H1457 C1453 0.930 . S
H1458 C1455 0.929 . S
S1459 N1460 1.613 . S
S1459 N1461 1.610 . S
N1460 S1459 1.613 . S
N1460 C1463 1.350 . S
N1461 S1459 1.610 . S
N1461 C1462 1.351 . S
C1462 C1456 1.428 . S
C1462 N1461 1.351 . S
C1462 C1463 1.434 . S
C1463 C1454 1.429 1_655 S
C1463 N1460 1.350 . S
C1463 C1462 1.434 . S
C1464 C1465 1.369 . S
C1464 C1466 1.419 . S
C1464 H1468 0.930 . S
C1465 C1464 1.369 . S
C1465 C1474 1.429 . S
C1466 C1464 1.419 . S
C1466 C1467 1.363 . S
C1466 H1469 0.929 . S
C1467 C1466 1.363 . S
C1467 C1473 1.428 . S
H1468 C1464 0.930 . S
H1469 C1466 0.929 . S
S1470 N1471 1.613 . S
S1470 N1472 1.610 . S
N1471 S1470 1.613 . S
N1471 C1474 1.350 . S
N1472 S1470 1.610 . S
N1472 C1473 1.351 . S
C1473 C1467 1.428 . S
C1473 N1472 1.351 . S
C1473 C1474 1.434 . S
C1474 C1465 1.429 . S
C1474 N1471 1.350 . S
C1474 C1473 1.434 . S
C1475 C1476 1.369 . S
C1475 C1477 1.419 . S
C1475 H1479 0.930 . S
C1476 C1475 1.369 . S
C1476 C1485 1.429 . S
C1477 C1475 1.419 . S
C1477 C1478 1.363 . S
C1477 H1480 0.929 . S
C1478 C1477 1.363 . S
C1478 C1484 1.428 . S
H1479 C1475 0.930 . S
H1480 C1477 0.929 . S
S1481 N1482 1.613 . S
S1481 N1483 1.610 . S
N1482 S1481 1.613 . S
N1482 C1485 1.350 . S
N1483 S1481 1.610 . S
N1483 C1484 1.351 . S
C1484 C1478 1.428 . S
C1484 N1483 1.351 . S
C1484 C1485 1.434 . S
C1485 C1476 1.429 . S
C1485 N1482 1.350 . S
C1485 C1484 1.434 . S
C1486 C1487 1.369 . S
C1486 C1488 1.419 . S
C1486 H1490 0.930 . S
C1487 C1486 1.369 . S
C1487 C1496 1.429 . S
C1488 C1486 1.419 . S
C1488 C1489 1.363 . S
C1488 H1491 0.929 . S
C1489 C1488 1.363 . S
C1489 C1495 1.428 . S
H1490 C1486 0.930 . S
H1491 C1488 0.929 . S
S1492 N1493 1.613 . S
S1492 N1494 1.610 . S
N1493 S1492 1.613 . S
N1493 C1496 1.350 . S
N1494 S1492 1.610 . S
N1494 C1495 1.351 . S
C1495 C1489 1.428 . S
C1495 N1494 1.351 . S
C1495 C1496 1.434 . S
C1496 C1487 1.429 . S
C1496 N1493 1.350 . S
C1496 C1495 1.434 . S
C1497 C1498 1.369 . S
C1497 C1499 1.419 . S
C1497 H1501 0.930 . S
C1498 C1497 1.369 . S
C1498 C1507 1.429 . S
C1499 C1497 1.419 . S
C1499 C1500 1.363 . S
C1499 H1502 0.929 . S
C1500 C1499 1.363 . S
C1500 C1506 1.428 . S
H1501 C1497 0.930 . S
H1502 C1499 0.929 . S
S1503 N1504 1.613 . S
S1503 N1505 1.610 . S
N1504 S1503 1.613 . S
N1504 C1507 1.350 . S
N1505 S1503 1.610 . S
N1505 C1506 1.351 . S
C1506 C1500 1.428 . S
C1506 N1505 1.351 . S
C1506 C1507 1.434 . S
C1507 C1498 1.429 . S
C1507 N1504 1.350 . S
C1507 C1506 1.434 . S
C1508 C1509 1.369 . S
C1508 C1510 1.419 . S
C1508 H1512 0.930 . S
C1509 C1508 1.369 . S
C1509 C1518 1.429 . S
C1510 C1508 1.419 . S
C1510 C1511 1.363 . S
C1510 H1513 0.929 . S
C1511 C1510 1.363 . S
C1511 C1517 1.428 . S
H1512 C1508 0.930 . S
H1513 C1510 0.929 . S
S1514 N1515 1.613 . S
S1514 N1516 1.610 . S
N1515 S1514 1.613 . S
N1515 C1518 1.350 . S
N1516 S1514 1.610 . S
N1516 C1517 1.351 . S
C1517 C1511 1.428 . S
C1517 N1516 1.351 . S
C1517 C1518 1.434 . S
C1518 C1509 1.429 . S
C1518 N1515 1.350 . S
C1518 C1517 1.434 . S
C1519 C1520 1.369 . S
C1519 C1521 1.419 . S
C1519 H1523 0.930 . S
C1520 C1519 1.369 . S
C1520 C1529 1.429 . S
C1521 C1519 1.419 . S
C1521 C1522 1.363 . S
C1521 H1524 0.929 . S
C1522 C1521 1.363 . S
C1522 C1528 1.428 . S
H1523 C1519 0.930 . S
H1524 C1521 0.929 . S
S1525 N1526 1.613 . S
S1525 N1527 1.610 . S
N1526 S1525 1.613 . S
N1526 C1529 1.350 . S
N1527 S1525 1.610 . S
N1527 C1528 1.351 . S
C1528 C1522 1.428 . S
C1528 N1527 1.351 . S
C1528 C1529 1.434 . S
C1529 C1520 1.429 . S
C1529 N1526 1.350 . S
C1529 C1528 1.434 . S
C1530 C1531 1.369 . S
C1530 C1532 1.419 . S
C1530 H1534 0.930 . S
C1531 C1530 1.369 . S
C1531 C1540 1.429 . S
C1532 C1530 1.419 . S
C1532 C1533 1.363 . S
C1532 H1535 0.929 . S
C1533 C1532 1.363 . S
C1533 C1539 1.428 . S
H1534 C1530 0.930 . S
H1535 C1532 0.929 . S
S1536 N1537 1.613 . S
S1536 N1538 1.610 . S
N1537 S1536 1.613 . S
N1537 C1540 1.350 . S
N1538 S1536 1.610 . S
N1538 C1539 1.351 . S
C1539 C1533 1.428 . S
C1539 N1538 1.351 . S
C1539 C1540 1.434 . S
C1540 C1531 1.429 . S
C1540 N1537 1.350 . S
C1540 C1539 1.434 . S
C1541 C1542 1.369 . S
C1541 C1543 1.419 . S
C1541 H1545 0.930 . S
C1542 C1541 1.369 . S
C1542 C1551 1.429 . S
C1543 C1541 1.419 . S
C1543 C1544 1.363 . S
C1543 H1546 0.929 . S
C1544 C1543 1.363 . S
C1544 C1550 1.428 . S
H1545 C1541 0.930 . S
H1546 C1543 0.929 . S
S1547 N1548 1.613 . S
S1547 N1549 1.610 . S
N1548 S1547 1.613 . S
N1548 C1551 1.350 . S
N1549 S1547 1.610 . S
N1549 C1550 1.351 . S
C1550 C1544 1.428 . S
C1550 N1549 1.351 . S
C1550 C1551 1.434 . S
C1551 C1542 1.429 . S
C1551 N1548 1.350 . S
C1551 C1550 1.434 . S
C1552 C1553 1.369 . S
C1552 C1554 1.419 . S
C1552 H1556 0.930 . S
C1553 C1552 1.369 . S
C1553 C1562 1.429 . S
C1554 C1552 1.419 . S
C1554 C1555 1.363 . S
C1554 H1557 0.929 . S
C1555 C1554 1.363 . S
C1555 C1561 1.428 . S
H1556 C1552 0.930 . S
H1557 C1554 0.929 . S
S1558 N1559 1.613 . S
S1558 N1560 1.610 . S
N1559 S1558 1.613 . S
N1559 C1562 1.350 . S
N1560 S1558 1.610 . S
N1560 C1561 1.351 . S
C1561 C1555 1.428 . S
C1561 N1560 1.351 . S
C1561 C1562 1.434 . S
C1562 C1553 1.429 . S
C1562 N1559 1.350 . S
C1562 C1561 1.434 . S
C1563 C1564 1.369 . S
C1563 C1565 1.419 . S
C1563 H1567 0.930 . S
C1564 C1563 1.369 . S
C1564 C1573 1.429 . S
C1565 C1563 1.419 . S
C1565 C1566 1.363 . S
C1565 H1568 0.929 . S
C1566 C1565 1.363 . S
C1566 C1572 1.428 . S
H1567 C1563 0.930 . S
H1568 C1565 0.929 . S
S1569 N1570 1.613 . S
S1569 N1571 1.610 . S
N1570 S1569 1.613 . S
N1570 C1573 1.350 . S
N1571 S1569 1.610 . S
N1571 C1572 1.351 . S
C1572 C1566 1.428 . S
C1572 N1571 1.351 . S
C1572 C1573 1.434 . S
C1573 C1564 1.429 . S
C1573 N1570 1.350 . S
C1573 C1572 1.434 . S
C1574 C1575 1.369 . S
C1574 C1576 1.419 . S
C1574 H1578 0.930 . S
C1575 C1574 1.369 . S
C1575 C1584 1.429 . S
C1576 C1574 1.419 . S
C1576 C1577 1.363 . S
C1576 H1579 0.929 . S
C1577 C1576 1.363 . S
C1577 C1583 1.428 . S
H1578 C1574 0.930 . S
H1579 C1576 0.929 . S
S1580 N1581 1.613 . S
S1580 N1582 1.610 . S
N1581 S1580 1.613 . S
N1581 C1584 1.350 . S
N1582 S1580 1.610 . S
N1582 C1583 1.351 . S
C1583 C1577 1.428 . S
C1583 N1582 1.351 . S
C1583 C1584 1.434 . S
C1584 C1575 1.429 . S
C1584 N1581 1.350 . S
C1584 C1583 1.434 . S
C1585 C1586 1.369 . S
C1585 C1587 1.419 . S
C1585 H1589 0.930 . S
C1586 C1585 1.369 . S
C1586 C1595 1.429 . S
C1587 C1585 1.419 . S
C1587 C1588 1.363 . S
C1587 H1590 0.929 . S
C1588 C1587 1.363 . S
C1588 C1594 1.428 . S
H1589 C1585 0.930 . S
H1590 C1587 0.929 . S
S1591 N1592 1.613 . S
S1591 N1593 1.610 . S
N1592 S1591 1.613 . S
N1592 C1595 1.350 . S
N1593 S1591 1.610 . S
N1593 C1594 1.351 . S
C1594 C1588 1.428 . S
C1594 N1593 1.351 . S
C1594 C1595 1.434 . S
C1595 C1586 1.429 . S
C1595 N1592 1.350 . S
C1595 C1594 1.434 . S
C1596 C1597 1.369 . S
C1596 C1598 1.419 . S
C1596 H1600 0.930 . S
C1597 C1596 1.369 . S
C1597 C1606 1.429 . S
C1598 C1596 1.419 . S
C1598 C1599 1.363 . S
C1598 H1601 0.929 . S
C1599 C1598 1.363 . S
C1599 C1605 1.428 . S
H1600 C1596 0.930 . S
H1601 C1598 0.929 . S
S1602 N1603 1.613 . S
S1602 N1604 1.610 . S
N1603 S1602 1.613 . S
N1603 C1606 1.350 . S
N1604 S1602 1.610 . S
N1604 C1605 1.351 . S
C1605 C1599 1.428 . S
C1605 N1604 1.351 . S
C1605 C1606 1.434 . S
C1606 C1597 1.429 . S
C1606 N1603 1.350 . S
C1606 C1605 1.434 . S
C1607 C1608 1.369 . S
C1607 C1609 1.419 . S
C1607 H1611 0.930 . S
C1608 C1607 1.369 . S
C1608 C1617 1.429 . S
C1609 C1607 1.419 . S
C1609 C1610 1.363 . S
C1609 H1612 0.929 . S
C1610 C1609 1.363 . S
C1610 C1616 1.428 . S
H1611 C1607 0.930 . S
H1612 C1609 0.929 . S
S1613 N1614 1.613 . S
S1613 N1615 1.610 . S
N1614 S1613 1.613 . S
N1614 C1617 1.350 . S
N1615 S1613 1.610 . S
N1615 C1616 1.351 . S
C1616 C1610 1.428 . S
C1616 N1615 1.351 . S
C1616 C1617 1.434 . S
C1617 C1608 1.429 . S
C1617 N1614 1.350 . S
C1617 C1616 1.434 . S
C1618 C1619 1.369 . S
C1618 C1620 1.419 . S
C1618 H1622 0.930 . S
C1619 C1618 1.369 . S
C1619 C1628 1.429 . S
C1620 C1618 1.419 . S
C1620 C1621 1.363 . S
C1620 H1623 0.929 . S
C1621 C1620 1.363 . S
C1621 C1627 1.428 . S
H1622 C1618 0.930 . S
H1623 C1620 0.929 . S
S1624 N1625 1.613 . S
S1624 N1626 1.610 . S
N1625 S1624 1.613 . S
N1625 C1628 1.350 . S
N1626 S1624 1.610 . S
N1626 C1627 1.351 . S
C1627 C1621 1.428 . S
C1627 N1626 1.351 . S
C1627 C1628 1.434 . S
C1628 C1619 1.429 . S
C1628 N1625 1.350 . S
C1628 C1627 1.434 . S
C1629 C1630 1.369 . S
C1629 C1631 1.419 . S
C1629 H1633 0.930 . S
C1630 C1629 1.369 . S
C1630 C1639 1.429 . S
C1631 C1629 1.419 . S
C1631 C1632 1.363 . S
C1631 H1634 0.929 . S
C1632 C1631 1.363 . S
C1632 C1638 1.428 . S
H1633 C1629 0.930 . S
H1634 C1631 0.929 . S
S1635 N1636 1.613 . S
S1635 N1637 1.610 . S
N1636 S1635 1.613 . S
N1636 C1639 1.350 . S
N1637 S1635 1.610 . S
N1637 C1638 1.351 . S
C1638 C1632 1.428 . S
C1638 N1637 1.351 . S
C1638 C1639 1.434 . S
C1639 C1630 1.429 . S
C1639 N1636 1.350 . S
C1639 C1638 1.434 . S
C1640 C1641 1.369 . S
C1640 C1642 1.419 . S
C1640 H1644 0.930 . S
C1641 C1640 1.369 . S
C1641 C1650 1.429 . S
C1642 C1640 1.419 . S
C1642 C1643 1.363 . S
C1642 H1645 0.929 . S
C1643 C1642 1.363 . S
C1643 C1649 1.428 . S
H1644 C1640 0.930 . S
H1645 C1642 0.929 . S
S1646 N1647 1.613 . S
S1646 N1648 1.610 . S
N1647 S1646 1.613 . S
N1647 C1650 1.350 . S
N1648 S1646 1.610 . S
N1648 C1649 1.351 . S
C1649 C1643 1.428 . S
C1649 N1648 1.351 . S
C1649 C1650 1.434 . S
C1650 C1641 1.429 . S
C1650 N1647 1.350 . S
C1650 C1649 1.434 . S
C1651 C1652 1.369 . S
C1651 C1653 1.419 . S
C1651 H1655 0.930 . S
C1652 C1651 1.369 . S
C1652 C1661 1.429 . S
C1653 C1651 1.419 . S
C1653 C1654 1.363 . S
C1653 H1656 0.929 . S
C1654 C1653 1.363 . S
C1654 C1660 1.428 . S
H1655 C1651 0.930 . S
H1656 C1653 0.929 . S
S1657 N1658 1.613 . S
S1657 N1659 1.610 . S
N1658 S1657 1.613 . S
N1658 C1661 1.350 . S
N1659 S1657 1.610 . S
N1659 C1660 1.351 . S
C1660 C1654 1.428 . S
C1660 N1659 1.351 . S
C1660 C1661 1.434 . S
C1661 C1652 1.429 . S
C1661 N1658 1.350 . S
C1661 C1660 1.434 . S
C1662 C1663 1.369 . S
C1662 C1664 1.419 . S
C1662 H1666 0.930 . S
C1663 C1662 1.369 . S
C1663 C1672 1.429 . S
C1664 C1662 1.419 . S
C1664 C1665 1.363 . S
C1664 H1667 0.929 . S
C1665 C1664 1.363 . S
C1665 C1671 1.428 . S
H1666 C1662 0.930 . S
H1667 C1664 0.929 . S
S1668 N1669 1.613 . S
S1668 N1670 1.610 . S
N1669 S1668 1.613 . S
N1669 C1672 1.350 . S
N1670 S1668 1.610 . S
N1670 C1671 1.351 . S
C1671 C1665 1.428 . S
C1671 N1670 1.351 . S
C1671 C1672 1.434 . S
C1672 C1663 1.429 . S
C1672 N1669 1.350 . S
C1672 C1671 1.434 . S
C1673 C1674 1.369 . S
C1673 C1675 1.419 . S
C1673 H1677 0.930 . S
C1674 C1673 1.369 . S
C1674 C1683 1.429 . S
C1675 C1673 1.419 . S
C1675 C1676 1.363 . S
C1675 H1678 0.929 . S
C1676 C1675 1.363 . S
C1676 C1682 1.428 . S
H1677 C1673 0.930 . S
H1678 C1675 0.929 . S
S1679 N1680 1.613 . S
S1679 N1681 1.610 . S
N1680 S1679 1.613 . S
N1680 C1683 1.350 . S
N1681 S1679 1.610 . S
N1681 C1682 1.351 . S
C1682 C1676 1.428 . S
C1682 N1681 1.351 . S
C1682 C1683 1.434 . S
C1683 C1674 1.429 . S
C1683 N1680 1.350 . S
C1683 C1682 1.434 . S
C1684 C1685 1.369 . S
C1684 C1686 1.419 . S
C1684 H1688 0.930 . S
C1685 C1684 1.369 . S
C1685 C1694 1.429 . S
C1686 C1684 1.419 . S
C1686 C1687 1.363 . S
C1686 H1689 0.929 . S
C1687 C1686 1.363 . S
C1687 C1693 1.428 . S
H1688 C1684 0.930 . S
H1689 C1686 0.929 . S
S1690 N1691 1.613 . S
S1690 N1692 1.610 . S
N1691 S1690 1.613 . S
N1691 C1694 1.350 . S
N1692 S1690 1.610 . S
N1692 C1693 1.351 . S
C1693 C1687 1.428 . S
C1693 N1692 1.351 . S
C1693 C1694 1.434 . S
C1694 C1685 1.429 . S
C1694 N1691 1.350 . S
C1694 C1693 1.434 . S
C1695 C1696 1.369 . S
C1695 C1697 1.419 . S
C1695 H1699 0.930 . S
C1696 C1695 1.369 . S
C1696 C1705 1.429 . S
C1697 C1695 1.419 . S
C1697 C1698 1.363 . S
C1697 H1700 0.929 . S
C1698 C1697 1.363 . S
C1698 C1704 1.428 . S
H1699 C1695 0.930 . S
H1700 C1697 0.929 . S
S1701 N1702 1.613 . S
S1701 N1703 1.610 . S
N1702 S1701 1.613 . S
N1702 C1705 1.350 . S
N1703 S1701 1.610 . S
N1703 C1704 1.351 . S
C1704 C1698 1.428 . S
C1704 N1703 1.351 . S
C1704 C1705 1.434 . S
C1705 C1696 1.429 . S
C1705 N1702 1.350 . S
C1705 C1704 1.434 . S
C1706 C1707 1.369 . S
C1706 C1708 1.419 . S
C1706 H1710 0.930 . S
C1707 C1706 1.369 . S
C1707 C1716 1.429 . S
C1708 C1706 1.419 . S
C1708 C1709 1.363 . S
C1708 H1711 0.929 . S
C1709 C1708 1.363 . S
C1709 C1715 1.428 . S
H1710 C1706 0.930 . S
H1711 C1708 0.929 . S
S1712 N1713 1.613 . S
S1712 N1714 1.610 . S
N1713 S1712 1.613 . S
N1713 C1716 1.350 . S
N1714 S1712 1.610 . S
N1714 C1715 1.351 . S
C1715 C1709 1.428 . S
C1715 N1714 1.351 . S
C1715 C1716 1.434 . S
C1716 C1707 1.429 . S
C1716 N1713 1.350 . S
C1716 C1715 1.434 . S
C1717 C1718 1.369 . S
C1717 C1719 1.419 . S
C1717 H1721 0.930 . S
C1718 C1717 1.369 . S
C1718 C1727 1.429 . S
C1719 C1717 1.419 . S
C1719 C1720 1.363 . S
C1719 H1722 0.929 . S
C1720 C1719 1.363 . S
C1720 C1726 1.428 . S
H1721 C1717 0.930 . S
H1722 C1719 0.929 . S
S1723 N1724 1.613 . S
S1723 N1725 1.610 . S
N1724 S1723 1.613 . S
N1724 C1727 1.350 . S
N1725 S1723 1.610 . S
N1725 C1726 1.351 . S
C1726 C1720 1.428 . S
C1726 N1725 1.351 . S
C1726 C1727 1.434 . S
C1727 C1718 1.429 . S
C1727 N1724 1.350 . S
C1727 C1726 1.434 . S
C673 C134 1.717 . S
C675 C8 1.725 . S
C684 C148 1.717 . S
C686 C22 1.725 . S
C695 C162 1.725 . S
C697 C36 1.719 . S
C706 C120 1.723 . S
C708 C50 1.721 . S
C717 C64 1.725 . S
C719 C218 1.718 . S
C728 C78 1.725 . S
C730 C176 1.718 . S
C739 C92 1.722 . S
C741 C190 1.722 . S
C750 C204 1.725 . S
C752 C106 1.718 . S
C761 C232 1.724 . S
C763 C260 1.719 . S
C772 C246 1.721 . S
C774 C652 1.721 . S
C783 C274 1.726 . S
C785 C666 1.718 . S
C794 C288 1.721 . S
C796 C638 1.722 . S
C805 C302 1.718 . S
C807 C624 1.724 . S
C816 C582 1.718 . S
C818 C316 1.725 . S
C827 C330 1.725 . S
C829 C610 1.718 . S
C838 C470 1.720 . S
C840 C344 1.723 . S
C849 C484 1.717 . S
C851 C358 1.725 . S
C860 C498 1.720 . S
C862 C372 1.723 . S
C871 C456 1.726 . S
C873 C386 1.719 . S
C882 C554 1.721 . S
C884 C400 1.722 . S
C893 C512 1.726 . S
C895 C414 1.718 . S
C904 C428 1.724 . S
C906 C526 1.719 . S
C915 C442 1.719 . S
C917 C540 1.724 . S
C926 C568 1.718 . S
C928 C596 1.724 . S
C937 C227 1.276 . S
C939 C9 1.163 . S
C948 C661 1.276 . S
C950 C23 1.161 . S
C959 C37 1.166 . S
C961 C297 1.278 . S
C970 C647 1.291 . S
C972 C51 1.149 . S
C981 C65 1.158 . S
C983 C577 1.286 . S
C992 C591 1.291 . S
C994 C79 1.149 . S
C1003 C93 1.155 . S
C1005 C605 1.288 . S
C1014 C283 1.276 . S
C1016 C107 1.160 . S
C1025 C121 1.161 . S
C1027 C3 1.278 . S
C1036 C17 1.291 . S
C1038 C135 1.151 . S
C1047 C149 1.166 . S
C1049 C31 1.281 . S
C1058 C45 1.278 . S
C1060 C163 1.164 . S
C1069 C177 1.161 . S
C1071 C59 1.278 . S
C1080 C73 1.291 . S
C1082 C191 1.149 . S
C1091 C205 1.164 . S
C1093 C87 1.277 . S
C1102 C219 1.165 . S
C1104 C101 1.278 . S
C1113 C233 1.164 . S
C1115 C115 1.283 . S
C1124 C247 1.156 . S
C1126 C507 1.279 . S
C1135 C521 1.280 . S
C1137 C261 1.164 . S
C1146 C535 1.276 . S
C1148 C275 1.160 . S
C1157 C213 1.287 . S
C1159 C289 1.158 . S
C1168 C303 1.162 . S
C1170 C143 1.284 . S
C1179 C493 1.279 . S
C1181 C317 1.164 . S
C1190 C331 1.153 . S
C1192 C465 1.288 . S
C1201 C345 1.147 . S
C1203 C563 1.285 . S
C1212 C359 1.162 . S
C1214 C325 1.278 . S
C1223 C373 1.166 . S
C1225 C633 1.278 . S
C1234 C387 1.147 . S
C1236 C311 1.289 . S
C1245 C401 1.146 . S
C1247 C241 1.288 . S
C1256 C415 1.146 . S
C1258 C255 1.285 . S
C1267 C269 1.289 . S
C1269 C429 1.155 . S
C1278 C619 1.291 . S
C1280 C443 1.152 . S
C1289 C339 1.288 . S
C1291 C457 1.148 . S
C1300 C353 1.289 . S
C1302 C471 1.155 . S
C1311 C485 1.148 . S
C1313 C367 1.289 . S
C1322 C381 1.290 . S
C1324 C499 1.153 . S
C1333 C513 1.164 . S
C1335 C395 1.277 . S
C1344 C527 1.151 . S
C1346 C409 1.282 . S
C1355 C541 1.160 . S
C1357 C423 1.285 . S
C1366 C437 1.277 . S
C1368 C555 1.164 . S
C1377 C569 1.166 . S
C1379 C451 1.278 . S
C1388 C583 1.150 . S
C1390 C171 1.283 . S
C1399 C185 1.289 . S
C1401 C597 1.148 . S
C1410 C611 1.146 . S
C1412 C199 1.288 . S
C1421 C625 1.167 . S
C1423 C549 1.280 . S
C1432 C479 1.288 . S
C1434 C639 1.156 . S
C1443 C157 1.281 . S
C1445 C653 1.152 . S
C1454 C129 1.290 . S
C1456 C667 1.153 . S
C1465 C315 1.337 . S
C1467 C7 1.341 . S
C1476 C21 1.335 . S
C1478 C567 1.344 . S
C1487 C35 1.341 . S
C1489 C329 1.338 . S
C1498 C637 1.346 . S
C1500 C49 1.336 . S
C1509 C63 1.334 . S
C1511 C259 1.344 . S
C1520 C273 1.334 . S
C1522 C77 1.344 . S
C1531 C623 1.345 . S
C1533 C91 1.336 . S
C1542 C105 1.335 . S
C1544 C245 1.343 . S
C1553 C189 1.342 . S
C1555 C119 1.339 . S
C1564 C133 1.337 . S
C1566 C203 1.341 . S
C1575 C217 1.335 . S
C1577 C147 1.344 . S
C1586 C161 1.342 . S
C1588 C175 1.340 . S
C1597 C357 1.342 . S
C1599 C231 1.337 . S
C1608 C287 1.337 . S
C1610 C427 1.343 . S
C1619 C301 1.335 . S
C1621 C385 1.343 . S
C1630 C651 1.334 . S
C1632 C343 1.344 . S
C1641 C371 1.344 . S
C1643 C665 1.338 . S
C1652 C399 1.341 . S
C1654 C595 1.337 . S
C1663 C413 1.345 . S
C1665 C609 1.336 . S
C1674 C581 1.344 . S
C1676 C441 1.337 . S
C1685 C525 1.335 . S
C1687 C455 1.344 . S
C1696 C469 1.341 . S
C1698 C539 1.340 . S
C1707 C483 1.345 . S
C1709 C553 1.336 . S
C1718 C511 1.338 . S
C1720 C497 1.343 . S
