# Generated by pormake.
# Topology wjy, (5)-cn, num edge types: 1
# Building blocks:
#     Node 0, Type 0, BuildingBlock: XOMCOT_clean_sbu_1, # of connection points: 5
#     Node 1, Type 0, BuildingBlock: XOMCOT_clean_sbu_1, # of connection points: 5
#     Node 2, Type 0, BuildingBlock: XOMCOT_clean_sbu_1, # of connection points: 5
#     Node 3, Type 0, BuildingBlock: XOMCOT_clean_sbu_1, # of connection points: 5
#     Node 4, Type 0, BuildingBlock: XOMCOT_clean_sbu_1, # of connection points: 5
#     Node 5, Type 0, BuildingBlock: XOMCOT_clean_sbu_1, # of connection points: 5
#     Node 6, Type 0, BuildingBlock: XOMCOT_clean_sbu_1, # of connection points: 5
#     Node 7, Type 0, BuildingBlock: XOMCOT_clean_sbu_1, # of connection points: 5
#     Node 8, Type 0, BuildingBlock: XOMCOT_clean_sbu_1, # of connection points: 5
#     Node 9, Type 0, BuildingBlock: XOMCOT_clean_sbu_1, # of connection points: 5
#     Node 10, Type 0, BuildingBlock: XOMCOT_clean_sbu_1, # of connection points: 5
#     Node 11, Type 0, BuildingBlock: XOMCOT_clean_sbu_1, # of connection points: 5
#     Edge 12, Type (0, 0), BuildingBlock: AJUNOK_clean_linker_0, # of connection points: 2
#     Edge 13, Type (0, 0), BuildingBlock: AJUNOK_clean_linker_0, # of connection points: 2
#     Edge 14, Type (0, 0), BuildingBlock: AJUNOK_clean_linker_0, # of connection points: 2
#     Edge 15, Type (0, 0), BuildingBlock: AJUNOK_clean_linker_0, # of connection points: 2
#     Edge 16, Type (0, 0), BuildingBlock: AJUNOK_clean_linker_0, # of connection points: 2
#     Edge 17, Type (0, 0), BuildingBlock: AJUNOK_clean_linker_0, # of connection points: 2
#     Edge 18, Type (0, 0), BuildingBlock: AJUNOK_clean_linker_0, # of connection points: 2
#     Edge 19, Type (0, 0), BuildingBlock: AJUNOK_clean_linker_0, # of connection points: 2
#     Edge 20, Type (0, 0), BuildingBlock: AJUNOK_clean_linker_0, # of connection points: 2
#     Edge 21, Type (0, 0), BuildingBlock: AJUNOK_clean_linker_0, # of connection points: 2
#     Edge 22, Type (0, 0), BuildingBlock: AJUNOK_clean_linker_0, # of connection points: 2
#     Edge 23, Type (0, 0), BuildingBlock: AJUNOK_clean_linker_0, # of connection points: 2
#     Edge 24, Type (0, 0), BuildingBlock: AJUNOK_clean_linker_0, # of connection points: 2
#     Edge 25, Type (0, 0), BuildingBlock: AJUNOK_clean_linker_0, # of connection points: 2
#     Edge 26, Type (0, 0), BuildingBlock: AJUNOK_clean_linker_0, # of connection points: 2
#     Edge 27, Type (0, 0), BuildingBlock: AJUNOK_clean_linker_0, # of connection points: 2
#     Edge 28, Type (0, 0), BuildingBlock: AJUNOK_clean_linker_0, # of connection points: 2
#     Edge 29, Type (0, 0), BuildingBlock: AJUNOK_clean_linker_0, # of connection points: 2
#     Edge 30, Type (0, 0), BuildingBlock: AJUNOK_clean_linker_0, # of connection points: 2
#     Edge 31, Type (0, 0), BuildingBlock: AJUNOK_clean_linker_0, # of connection points: 2
#     Edge 32, Type (0, 0), BuildingBlock: AJUNOK_clean_linker_0, # of connection points: 2
#     Edge 33, Type (0, 0), BuildingBlock: AJUNOK_clean_linker_0, # of connection points: 2
#     Edge 34, Type (0, 0), BuildingBlock: AJUNOK_clean_linker_0, # of connection points: 2
#     Edge 35, Type (0, 0), BuildingBlock: AJUNOK_clean_linker_0, # of connection points: 2
#     Edge 36, Type (0, 0), BuildingBlock: AJUNOK_clean_linker_0, # of connection points: 2
#     Edge 37, Type (0, 0), BuildingBlock: AJUNOK_clean_linker_0, # of connection points: 2
#     Edge 38, Type (0, 0), BuildingBlock: AJUNOK_clean_linker_0, # of connection points: 2
#     Edge 39, Type (0, 0), BuildingBlock: AJUNOK_clean_linker_0, # of connection points: 2
#     Edge 40, Type (0, 0), BuildingBlock: AJUNOK_clean_linker_0, # of connection points: 2
#     Edge 41, Type (0, 0), BuildingBlock: AJUNOK_clean_linker_0, # of connection points: 2
# Relax obj value: 0.190
# Max RMSD: 0.170
# Mean RMSD: 0.170
data_MOF--net-wjy--node1-XOMCOT_clean_sbu_1--edge1-AJUNOK_clean_linker_0
_symmetry_space_group_name_H-M    P1
_symmetry_Int_Tables_number       1
_symmetry_cell_setting            triclinic
loop_
_symmetry_equiv_pos_as_xyz
'x, y, z'
_cell_length_a     53.776759
_cell_length_b     53.806427
_cell_length_c     13.64804
_cell_angle_alpha  89.978505
_cell_angle_beta   90.059436
_cell_angle_gamma 119.7944
loop_
_atom_site_label
_atom_site_type_symbol
_atom_site_fract_x
_atom_site_fract_y
_atom_site_fract_z
_atom_type_partial_charge
C0 C 0.42716 0.0811 0.24125 0.0
C1 C 0.42427 0.0802 0.34146 0.0
N2 N 0.43286 0.10685 0.37378 0.0
N3 N 0.43751 0.10821 0.20947 0.0
C4 C 0.44088 0.12348 0.29248 0.0
H5 H 0.42416 0.06342 0.19562 0.0
Co6 Co 0.45006 0.11959 0.07969 0.0
C7 C 0.45781 0.17865 0.06017 0.0
O8 O 0.48288 0.18692 0.02045 0.0
N9 N 0.46313 0.13055 0.94522 0.0
C10 C 0.49179 0.1498 0.81549 0.0
C11 C 0.49052 0.14772 0.91543 0.0
C12 C 0.44829 0.12225 0.85909 0.0
N13 N 0.46533 0.13319 0.77896 0.0
O14 O 0.41092 0.09395 0.03486 0.0
H15 H 0.50891 0.15904 0.96265 0.0
H16 H 0.42544 0.10794 0.85446 0.0
O17 O 0.44291 0.15281 0.09183 0.0
C18 C 0.40932 0.07062 1.00478 0.0
O19 O 0.43314 0.06957 0.99792 0.0
N20 N 0.48799 0.13967 0.1276 0.0
C21 C 0.53946 0.15142 0.21801 0.0
C22 C 0.52785 0.16948 0.23289 0.0
C23 C 0.50182 0.16313 0.18714 0.0
C24 C 0.49961 0.12262 0.11064 0.0
C25 C 0.5255 0.12848 0.15275 0.0
H26 H 0.49219 0.17606 0.2043 0.0
H27 H 0.48811 0.1037 0.0657 0.0
H28 H 0.45091 0.14656 0.29456 0.0
H29 H 0.41887 0.06189 0.38792 0.0
H30 H 0.51094 0.16315 0.77367 0.0
H31 H 0.53792 0.18733 0.28334 0.0
H32 H 0.53393 0.11431 0.13743 0.0
C33 C 0.35941 0.42047 0.40172 0.0
C34 C 0.35712 0.41679 0.50145 0.0
N35 N 0.33573 0.42091 0.53311 0.0
N36 N 0.33943 0.42664 0.3694 0.0
C37 C 0.32545 0.42711 0.45144 0.0
H38 H 0.37566 0.42016 0.35603 0.0
Co39 Co 0.33924 0.43736 0.23926 0.0
C40 C 0.28803 0.44439 0.21379 0.0
O41 O 0.30482 0.46795 0.16552 0.0
N42 N 0.34013 0.44855 0.10398 0.0
C43 C 0.35132 0.47411 0.96571 0.0
C44 C 0.3546 0.47527 0.06548 0.0
C45 C 0.32808 0.43158 0.02407 0.0
N46 N 0.33486 0.44662 0.93901 0.0
O47 O 0.32653 0.39786 0.20009 0.0
H48 H 0.3669 0.49486 0.10599 0.0
H49 H 0.31475 0.40856 0.02799 0.0
O50 O 0.29887 0.43004 0.25223 0.0
C51 C 0.34793 0.39647 0.16501 0.0
O52 O 0.37182 0.42058 0.14881 0.0
N53 N 0.35628 0.47551 0.28261 0.0
C54 C 0.39449 0.52686 0.37535 0.0
C55 C 0.36475 0.51529 0.3858 0.0
C56 C 0.34583 0.48914 0.33975 0.0
C57 C 0.38509 0.48686 0.27139 0.0
C58 C 0.40445 0.51266 0.3151 0.0
H59 H 0.32322 0.47917 0.35553 0.0
H60 H 0.3931 0.47513 0.23029 0.0
H61 H 0.30904 0.43317 0.45202 0.0
H62 H 0.37149 0.41337 0.54783 0.0
H63 H 0.36129 0.49215 0.91605 0.0
H64 H 0.35634 0.52543 0.43355 0.0
H65 H 0.4272 0.52085 0.3052 0.0
C66 C 0.94956 0.36531 0.5747 0.0
C67 C 0.95192 0.36447 0.67491 0.0
N68 N 0.92972 0.33993 0.70785 0.0
N69 N 0.92596 0.34139 0.54389 0.0
C70 C 0.91447 0.32612 0.62708 0.0
H71 H 0.96334 0.3831 0.52799 0.0
Co72 Co 0.91294 0.33586 0.41272 0.0
C73 C 0.85458 0.28235 0.45975 0.0
O74 O 0.84155 0.29708 0.47465 0.0
N75 N 0.90012 0.33003 0.27947 0.0
C76 C 0.87049 0.31647 0.15134 0.0
C77 C 0.87248 0.31859 0.25141 0.0
C78 C 0.91458 0.33515 0.1934 0.0
N79 N 0.89705 0.32727 0.11416 0.0
O80 O 0.93999 0.32278 0.38311 0.0
H81 H 0.85461 0.3123 0.30013 0.0
H82 H 0.93756 0.34483 0.18805 0.0
O83 O 0.88149 0.29523 0.43882 0.0
C84 C 0.96356 0.3448 0.35739 0.0
O85 O 0.96398 0.36927 0.34666 0.0
N86 N 0.89076 0.35399 0.44232 0.0
C87 C 0.87849 0.39691 0.5004 0.0
C88 C 0.87066 0.37285 0.55928 0.0
C89 C 0.87744 0.35199 0.52988 0.0
C90 C 0.89724 0.37678 0.3823 0.0
C91 C 0.89092 0.39814 0.40909 0.0
H92 H 0.87333 0.33518 0.58089 0.0
H93 H 0.90959 0.37994 0.31644 0.0
H94 H 0.8942 0.30632 0.62961 0.0
H95 H 0.96744 0.38158 0.72083 0.0
H96 H 0.85076 0.30712 0.10983 0.0
H97 H 0.86135 0.37124 0.63096 0.0
H98 H 0.89737 0.41639 0.36123 0.0
C99 C 0.60133 0.94334 0.72253 0.0
C100 C 0.60265 0.94441 0.82325 0.0
N101 N 0.59625 0.91839 0.85653 0.0
N102 N 0.59462 0.91687 0.69184 0.0
C103 C 0.59163 0.90213 0.77568 0.0
H104 H 0.60405 0.9606 0.67522 0.0
Co105 Co 0.58731 0.90413 0.56102 0.0
C106 C 0.61028 0.86395 0.55293 0.0
O107 O 0.62895 0.88068 0.48729 0.0
N108 N 0.5794 0.89092 0.42918 0.0
C109 C 0.56218 0.86052 0.30349 0.0
C110 C 0.56349 0.86306 0.40377 0.0
C111 C 0.58716 0.90491 0.34202 0.0
N112 N 0.57688 0.88691 0.26424 0.0
O113 O 0.62752 0.93003 0.53063 0.0
H114 H 0.5537 0.84548 0.45518 0.0
H115 H 0.59995 0.92786 0.33476 0.0
O116 O 0.59347 0.87164 0.59209 0.0
C117 C 0.62976 0.9536 0.50054 0.0
O118 O 0.60621 0.95499 0.48966 0.0
N119 N 0.54808 0.88279 0.59085 0.0
C120 C 0.49247 0.86555 0.65598 0.0
C121 C 0.50651 0.85053 0.68434 0.0
C122 C 0.53441 0.85947 0.65072 0.0
C123 C 0.53441 0.89692 0.55989 0.0
C124 C 0.50673 0.88875 0.59153 0.0
H125 H 0.54541 0.84868 0.67736 0.0
H126 H 0.54581 0.91582 0.51474 0.0
H127 H 0.58544 0.87969 0.77793 0.0
H128 H 0.60653 0.96248 0.86875 0.0
H129 H 0.55184 0.84059 0.26314 0.0
H130 H 0.49642 0.83265 0.73467 0.0
H131 H 0.49733 0.90166 0.57005 0.0
C132 C 0.6785 0.60312 0.91293 0.0
C133 C 0.68088 0.6059 0.01301 0.0
N134 N 0.70084 0.59943 0.04332 0.0
N135 N 0.6972 0.59543 0.87891 0.0
C136 C 0.71058 0.59332 0.96013 0.0
H137 H 0.66282 0.60484 0.86826 0.0
Co138 Co 0.69618 0.58396 0.74884 0.0
C139 C 0.74857 0.57922 0.7146 0.0
O140 O 0.7324 0.55594 0.6639 0.0
N141 N 0.69399 0.57194 0.61422 0.0
C142 C 0.68135 0.54529 0.47831 0.0
C143 C 0.67822 0.54506 0.57794 0.0
C144 C 0.70649 0.58809 0.53303 0.0
N145 N 0.69923 0.57231 0.44958 0.0
O146 O 0.7081 0.62307 0.70697 0.0
H147 H 0.66497 0.52599 0.61969 0.0
H148 H 0.72043 0.61108 0.53462 0.0
O149 O 0.73691 0.59222 0.75725 0.0
C150 C 0.68662 0.62429 0.67186 0.0
O151 O 0.66252 0.60016 0.65855 0.0
N152 N 0.68022 0.54603 0.7946 0.0
C153 C 0.64431 0.49197 0.87562 0.0
C154 C 0.67429 0.50471 0.88331 0.0
C155 C 0.69202 0.53202 0.84243 0.0
C156 C 0.6512 0.53433 0.79089 0.0
C157 C 0.63295 0.50721 0.82859 0.0
H158 H 0.71489 0.54213 0.85298 0.0
H159 H 0.64217 0.54635 0.75769 0.0
H160 H 0.7262 0.58624 0.95847 0.0
H161 H 0.66743 0.61032 0.06054 0.0
H162 H 0.67023 0.52699 0.43023 0.0
H163 H 0.68384 0.49386 0.92147 0.0
H164 H 0.60999 0.49855 0.82351 0.0
C165 C 0.08635 0.67678 0.05752 0.0
C166 C 0.0837 0.67716 0.15724 0.0
N167 N 0.1101 0.69097 0.19712 0.0
N168 N 0.11424 0.6912 0.03242 0.0
C169 C 0.1283 0.69973 0.11946 0.0
H170 H 0.06887 0.66528 1.00701 0.0
Co171 Co 0.12628 0.69181 0.90226 0.0
C172 C 0.18407 0.74427 0.87996 0.0
O173 O 0.1915 0.72909 0.82469 0.0
N174 N 0.1376 0.69135 0.76778 0.0
C175 C 0.15291 0.68009 0.63139 0.0
C176 C 0.151 0.6776 0.73153 0.0
C177 C 0.13181 0.70214 0.68607 0.0
N178 N 0.14091 0.69557 0.60279 0.0
O179 O 0.10017 0.70536 0.86006 0.0
H180 H 0.1587 0.66585 0.77376 0.0
H181 H 0.11992 0.71348 0.68632 0.0
O182 O 0.15899 0.73203 0.91921 0.0
C183 C 0.07768 0.68495 0.8201 0.0
O184 O 0.07703 0.66056 0.80398 0.0
N185 N 0.14714 0.67435 0.94652 0.0
C186 C 0.16432 0.63635 0.01723 0.0
C187 C 0.18178 0.66608 0.03053 0.0
C188 C 0.17277 0.68487 0.99449 0.0
C189 C 0.12964 0.64554 0.93675 0.0
C190 C 0.13792 0.62627 0.97001 0.0
H191 H 0.18586 0.70751 1.00858 0.0
H192 H 0.10888 0.63748 0.90254 0.0
H193 H 0.15139 0.71075 0.12619 0.0
H194 H 0.06366 0.66735 0.19695 0.0
H195 H 0.16092 0.66981 0.5826 0.0
H196 H 0.20198 0.67462 0.0692 0.0
H197 H 0.12334 0.60352 0.96121 0.0
C198 C 0.94179 0.58357 0.61207 0.0
C199 C 0.94462 0.5855 0.5121 0.0
N200 N 0.92723 0.59468 0.47613 0.0
N201 N 0.92256 0.59126 0.63998 0.0
C202 C 0.91393 0.59788 0.55553 0.0
H203 H 0.95205 0.57563 0.66119 0.0
Co204 Co 0.91031 0.58742 0.76976 0.0
C205 C 0.86821 0.60791 0.77454 0.0
O206 O 0.88296 0.62509 0.84679 0.0
N207 N 0.89816 0.58289 0.90211 0.0
C208 C 0.87114 0.56482 0.03499 0.0
C209 C 0.87165 0.56402 0.93445 0.0
C210 C 0.91322 0.59522 0.98486 0.0
N211 N 0.89739 0.58439 0.06733 0.0
O212 O 0.93675 0.62812 0.78818 0.0
H213 H 0.85388 0.54999 0.88784 0.0
H214 H 0.9353 0.61197 0.98444 0.0
O215 O 0.87766 0.59283 0.73319 0.0
C216 C 0.96079 0.63015 0.81137 0.0
O217 O 0.96143 0.60644 0.82829 0.0
N218 N 0.88847 0.54774 0.7496 0.0
C219 C 0.87634 0.49415 0.68046 0.0
C220 C 0.86237 0.50797 0.6405 0.0
C221 C 0.86886 0.53502 0.67607 0.0
C222 C 0.90028 0.53344 0.79451 0.0
C223 C 0.89444 0.50656 0.76124 0.0
H224 H 0.86041 0.5468 0.63796 0.0
H225 H 0.91649 0.54415 0.85025 0.0
H226 H 0.89752 0.60389 0.55187 0.0
H227 H 0.95716 0.57882 0.46909 0.0
H228 H 0.85297 0.5512 0.08072 0.0
H229 H 0.84855 0.49913 0.57718 0.0
H230 H 0.9057 0.49654 0.79349 0.0
C231 C 0.3733 0.93386 0.78069 0.0
C232 C 0.37343 0.93517 0.68023 0.0
N233 N 0.34691 0.91668 0.64695 0.0
N234 N 0.34682 0.91472 0.81168 0.0
C235 C 0.33106 0.90482 0.72881 0.0
H236 H 0.39175 0.94496 0.82805 0.0
Co237 Co 0.33923 0.90233 0.9415 0.0
C238 C 0.27644 0.86249 0.9505 0.0
O239 O 0.27516 0.87815 0.02196 0.0
N240 N 0.33217 0.88964 0.07338 0.0
C241 C 0.3216 0.86059 0.20172 0.0
C242 C 0.32387 0.86257 0.10161 0.0
C243 C 0.3345 0.90365 0.15851 0.0
N244 N 0.32796 0.88638 0.23802 0.0
O245 O 0.32626 0.92976 0.96473 0.0
H246 H 0.3201 0.84529 0.05242 0.0
H247 H 0.34095 0.92609 0.16264 0.0
O248 O 0.30049 0.87074 0.90752 0.0
C249 C 0.34845 0.9534 0.98887 0.0
O250 O 0.3726 0.95342 1.00354 0.0
N251 N 0.35579 0.87937 0.91644 0.0
C252 C 0.39368 0.86237 0.84395 0.0
C253 C 0.36508 0.84909 0.81129 0.0
C254 C 0.34647 0.85813 0.84779 0.0
C255 C 0.38267 0.89083 0.95456 0.0
C256 C 0.40192 0.88262 0.91964 0.0
H257 H 0.32547 0.84961 0.81541 0.0
H258 H 0.39 0.90821 1.00673 0.0
H259 H 0.30867 0.88866 0.72898 0.0
H260 H 0.39214 0.94757 0.63507 0.0
H261 H 0.31684 0.84176 0.2441 0.0
H262 H 0.35753 0.83292 0.75449 0.0
H263 H 0.42374 0.89364 0.94676 0.0
C264 C 0.44568 0.36413 0.96486 0.0
C265 C 0.44414 0.36448 0.86442 0.0
N266 N 0.44721 0.34285 0.82812 0.0
N267 N 0.44931 0.34215 0.99308 0.0
C268 C 0.45038 0.32972 0.90812 0.0
H269 H 0.4447 0.37935 0.01397 0.0
Co270 Co 0.45371 0.33398 0.12356 0.0
C271 C 0.43126 0.27094 0.12211 0.0
O272 O 0.41318 0.26834 0.19142 0.0
N273 N 0.45863 0.32611 0.25539 0.0
C274 C 0.47313 0.31106 0.38421 0.0
C275 C 0.47348 0.31312 0.28373 0.0
C276 C 0.45004 0.33234 0.34078 0.0
N277 N 0.45834 0.32314 0.41983 0.0
O278 O 0.41285 0.31959 0.14343 0.0
H279 H 0.48423 0.30583 0.23429 0.0
H280 H 0.43801 0.34343 0.34608 0.0
O281 O 0.44785 0.29579 0.08564 0.0
C282 C 0.40913 0.34007 0.17338 0.0
O283 O 0.4319 0.36478 0.1937 0.0
N284 N 0.49349 0.35171 0.10367 0.0
C285 C 0.54984 0.39083 0.04899 0.0
C286 C 0.53572 0.36284 1.01076 0.0
C287 C 0.50749 0.34346 0.0395 0.0
C288 C 0.50735 0.37821 0.14535 0.0
C289 C 0.53551 0.39803 0.11947 0.0
H290 H 0.49643 0.32268 1.00519 0.0
H291 H 0.49575 0.38469 0.19402 0.0
H292 H 0.45472 0.31223 0.90521 0.0
H293 H 0.44121 0.37977 0.82161 0.0
H294 H 0.48366 0.30219 0.42788 0.0
H295 H 0.54594 0.35645 0.95572 0.0
H296 H 0.54514 0.41951 0.14909 0.0
C297 C 0.09261 0.43711 0.12189 0.0
C298 C 0.09124 0.43597 0.02107 0.0
N299 N 0.11614 0.43924 0.98704 0.0
N300 N 0.11808 0.44056 0.15179 0.0
C301 C 0.13193 0.44179 0.06747 0.0
H302 H 0.07635 0.43647 0.16989 0.0
Co303 Co 0.13117 0.44635 0.2824 0.0
C304 C 0.17098 0.42253 0.28447 0.0
O305 O 0.15587 0.40541 0.35627 0.0
N306 N 0.14457 0.45276 0.4141 0.0
C307 C 0.17489 0.46784 0.54025 0.0
C308 C 0.17249 0.46683 0.43997 0.0
C309 C 0.13042 0.44604 0.50098 0.0
N310 N 0.14837 0.45506 0.57923 0.0
O311 O 0.10429 0.40604 0.30917 0.0
H312 H 0.1902 0.47573 0.3889 0.0
H313 H 0.10739 0.43511 0.50745 0.0
O314 O 0.16281 0.43907 0.24608 0.0
C315 C 0.0808 0.40408 0.33905 0.0
O316 O 0.07999 0.42784 0.35264 0.0
N317 N 0.15354 0.48571 0.25641 0.0
C318 C 0.17042 0.54108 0.19058 0.0
C319 C 0.18443 0.52647 0.15735 0.0
C320 C 0.17569 0.4987 0.19155 0.0
C321 C 0.1411 0.50031 0.29422 0.0
C322 C 0.14933 0.52805 0.26296 0.0
H323 H 0.18542 0.48712 0.16088 0.0
H324 H 0.12321 0.48955 0.34403 0.0
H325 H 0.1535 0.44532 0.06446 0.0
H326 H 0.0739 0.43435 0.9761 0.0
H327 H 0.19481 0.47676 0.58054 0.0
H328 H 0.20104 0.53588 0.1022 0.0
H329 H 0.13778 0.53836 0.29011 0.0
C330 C 0.66485 0.10105 0.29294 0.0
C331 C 0.66415 0.09685 0.1937 0.0
N332 N 0.69077 0.1043 0.16299 0.0
N333 N 0.6919 0.11182 0.32601 0.0
C334 C 0.707 0.11235 0.24573 0.0
H335 H 0.64686 0.09756 0.33801 0.0
Co336 Co 0.70096 0.1221 0.45913 0.0
C337 C 0.75804 0.1718 0.36813 0.0
O338 O 0.74942 0.1705 0.27754 0.0
N339 N 0.7093 0.13161 0.59293 0.0
C340 C 0.72402 0.15811 0.72823 0.0
C341 C 0.72116 0.15852 0.62848 0.0
C342 C 0.7047 0.11508 0.67343 0.0
N343 N 0.71389 0.1308 0.7566 0.0
O344 O 0.71377 0.09426 0.46923 0.0
H345 H 0.72636 0.17725 0.58482 0.0
H346 H 0.69447 0.092 0.6718 0.0
O347 O 0.74065 0.15447 0.43244 0.0
C348 C 0.69104 0.07033 0.4857 0.0
O349 O 0.66676 0.07029 0.49693 0.0
N350 N 0.68432 0.14609 0.4497 0.0
C351 C 0.64115 0.15889 0.40341 0.0
C352 C 0.66614 0.16978 0.34635 0.0
C353 C 0.6877 0.16339 0.37144 0.0
C354 C 0.66159 0.138 0.51134 0.0
C355 C 0.6403 0.14491 0.49117 0.0
H356 H 0.70502 0.16923 0.32077 0.0
H357 H 0.65832 0.12369 0.57172 0.0
H358 H 0.7294 0.11845 0.24814 0.0
H359 H 0.64564 0.09026 0.14699 0.0
H360 H 0.73174 0.1764 0.77667 0.0
H361 H 0.66786 0.18079 0.2781 0.0
H362 H 0.62201 0.13707 0.53971 0.0
C363 C 0.58835 0.65855 0.46123 0.0
C364 C 0.59153 0.65858 0.36117 0.0
N365 N 0.59613 0.68387 0.32627 0.0
N366 N 0.59089 0.68372 0.48979 0.0
C367 C 0.59587 0.69884 0.40554 0.0
H368 H 0.58304 0.64067 0.50953 0.0
Co369 Co 0.58541 0.69157 0.62035 0.0
C370 C 0.57718 0.7426 0.57033 0.0
O371 O 0.54924 0.72627 0.57006 0.0
N372 N 0.58064 0.69953 0.75427 0.0
C373 C 0.56706 0.7145 0.88555 0.0
C374 C 0.56672 0.71318 0.78548 0.0
C375 C 0.58895 0.69242 0.83912 0.0
N376 N 0.58062 0.70102 0.91999 0.0
O377 O 0.62594 0.70549 0.64267 0.0
H378 H 0.55584 0.721 0.74012 0.0
H379 H 0.60013 0.68043 0.84239 0.0
O380 O 0.59324 0.73143 0.58465 0.0
C381 C 0.62829 0.68381 0.66788 0.0
O382 O 0.60471 0.65934 0.68306 0.0
N383 N 0.54471 0.67281 0.59787 0.0
C384 C 0.48918 0.62872 0.55021 0.0
C385 C 0.50512 0.6509 0.48389 0.0
C386 C 0.53278 0.67254 0.50878 0.0
C387 C 0.52865 0.65216 0.66514 0.0
C388 C 0.50073 0.63048 0.64382 0.0
H389 H 0.54502 0.68826 0.45388 0.0
H390 H 0.53806 0.65076 0.73333 0.0
H391 H 0.59722 0.71956 0.40115 0.0
H392 H 0.58854 0.64064 0.31667 0.0
H393 H 0.55791 0.7247 0.92933 0.0
H394 H 0.49719 0.65048 0.41058 0.0
H395 H 0.48905 0.61414 0.69831 0.0
C396 C 0.42457 0.22197 0.16183 0.0
C397 C 0.4355 0.24601 0.09877 0.0
C398 C 0.43071 0.19956 0.14734 0.0
C399 C 0.44816 0.2003 0.06938 0.0
H400 H 0.41189 0.22081 0.22506 0.0
H401 H 0.42266 0.18215 0.19974 0.0
S402 S 0.47876 0.25608 0.87515 0.0
N403 N 0.46218 0.26727 0.94942 0.0
N404 N 0.47384 0.22574 0.92252 0.0
C405 C 0.45802 0.22347 1.00319 0.0
C406 C 0.45169 0.24613 0.01773 0.0
C407 C 0.21281 0.41484 0.32313 0.0
C408 C 0.19969 0.42578 0.25971 0.0
C409 C 0.2409 0.41989 0.30663 0.0
C410 C 0.25716 0.43618 0.22609 0.0
H411 H 0.20166 0.40296 0.38802 0.0
H412 H 0.25025 0.41181 0.35922 0.0
S413 S 0.23171 0.46653 0.03079 0.0
N414 N 0.20461 0.45138 0.10797 0.0
N415 N 0.25689 0.46096 0.07711 0.0
C416 C 0.24382 0.44612 0.15985 0.0
C417 C 0.21531 0.44093 0.17655 0.0
C418 C 0.79065 0.20831 0.4926 0.0
C419 C 0.78645 0.19665 0.3976 0.0
C420 C 0.81444 0.23518 0.51519 0.0
C421 C 0.8357 0.25102 0.44508 0.0
H422 H 0.77458 0.19767 0.54836 0.0
H423 H 0.81538 0.24438 0.58665 0.0
S424 S 0.83771 0.2281 0.19061 0.0
N425 N 0.8076 0.20185 0.23599 0.0
N426 N 0.85269 0.25161 0.28011 0.0
C427 C 0.83327 0.23842 0.35287 0.0
C428 C 0.80862 0.21144 0.32881 0.0
C429 C 0.57182 0.78453 0.61729 0.0
C430 C 0.58863 0.7742 0.5732 0.0
C431 C 0.57981 0.81362 0.61482 0.0
C432 C 0.60486 0.83396 0.56677 0.0
H433 H 0.55188 0.76987 0.65331 0.0
H434 H 0.56555 0.81989 0.64815 0.0
S435 S 0.6577 0.81848 0.44575 0.0
N436 N 0.63255 0.78689 0.48562 0.0
N437 N 0.6476 0.84166 0.47896 0.0
C438 C 0.62258 0.82412 0.52558 0.0
C439 C 0.61451 0.79431 0.52939 0.0
C440 C 0.79606 0.60549 0.80463 0.0
C441 C 0.77986 0.58887 0.72444 0.0
C442 C 0.8248 0.61229 0.81838 0.0
C443 C 0.8387 0.60289 0.75242 0.0
H444 H 0.78621 0.61251 0.85898 0.0
H445 H 0.83591 0.62434 0.88313 0.0
S446 S 0.80701 0.56198 0.52346 0.0
N447 N 0.7809 0.5654 0.57314 0.0
N448 N 0.83449 0.57829 0.59891 0.0
C449 C 0.8231 0.58739 0.66964 0.0
C450 C 0.79389 0.58039 0.65575 0.0
C451 C 0.25276 0.81651 0.85367 0.0
C452 C 0.25123 0.83337 0.92965 0.0
C453 C 0.23072 0.78821 0.83786 0.0
C454 C 0.20588 0.77516 0.89695 0.0
H455 H 0.27138 0.82503 0.80648 0.0
H456 H 0.23348 0.77637 0.77876 0.0
S457 S 0.1904 0.81001 0.10403 0.0
N458 N 0.22201 0.83491 0.06347 0.0
N459 N 0.18078 0.78181 0.03313 0.0
C460 C 0.20359 0.79193 0.97157 0.0
C461 C 0.22614 0.8209 0.98801 0.0
C462 C 0.42981 0.12033 0.64342 0.0
C463 C 0.45753 0.12749 0.67597 0.0
C464 C 0.42199 0.11452 0.54377 0.0
C465 C 0.44169 0.11608 0.47304 0.0
H466 H 0.41405 0.11916 0.6952 0.0
H467 H 0.40034 0.10842 0.52188 0.0
S468 S 0.51581 0.13147 0.51765 0.0
N469 N 0.50391 0.13359 0.62698 0.0
N470 N 0.48925 0.124 0.44101 0.0
C471 C 0.46923 0.12311 0.50383 0.0
C472 C 0.47715 0.12852 0.60482 0.0
C473 C 0.32651 0.4469 0.66492 0.0
C474 C 0.32985 0.42376 0.63463 0.0
C475 C 0.32641 0.45316 0.76489 0.0
C476 C 0.32945 0.43646 0.83867 0.0
H477 H 0.32571 0.46126 0.61108 0.0
H478 H 0.32506 0.47194 0.78466 0.0
S479 S 0.33522 0.37136 0.79726 0.0
N480 N 0.33325 0.38234 0.68603 0.0
N481 N 0.33352 0.39432 0.87338 0.0
C482 C 0.33087 0.41215 0.80921 0.0
C483 C 0.33103 0.40581 0.70742 0.0
C484 C 0.93684 0.33106 0.88078 0.0
C485 C 0.92027 0.33462 0.80829 0.0
C486 C 0.92912 0.32851 0.98048 0.0
C487 C 0.90484 0.32998 1.01135 0.0
H488 H 0.9559 0.33035 0.86002 0.0
H489 H 0.9422 0.32528 0.03358 0.0
S490 S 0.85687 0.34309 0.84931 0.0
N491 N 0.87997 0.34148 0.77382 0.0
N492 N 0.86595 0.33797 0.95989 0.0
C493 C 0.88865 0.33436 0.93891 0.0
C494 C 0.89627 0.3364 0.83781 0.0
C495 C 0.61181 0.926 0.02962 0.0
C496 C 0.59163 0.9094 0.9576 0.0
C497 C 0.60693 0.9185 0.1293 0.0
C498 C 0.58144 0.89431 0.16107 0.0
H499 H 0.63157 0.94488 1.00839 0.0
H500 H 0.62336 0.93166 0.18173 0.0
S501 S 0.52037 0.84584 1.00104 0.0
N502 N 0.54461 0.86888 0.92446 0.0
N503 N 0.53481 0.85512 0.11126 0.0
C504 C 0.56081 0.8779 0.08931 0.0
C505 C 0.56605 0.88537 0.98783 0.0
C506 C 0.70448 0.61283 0.21856 0.0
C507 C 0.70591 0.59522 0.14471 0.0
C508 C 0.70426 0.60638 0.3186 0.0
C509 C 0.70526 0.58191 0.34885 0.0
H510 H 0.70241 0.6312 0.19858 0.0
H511 H 0.7016 0.61969 0.37228 0.0
S512 S 0.71224 0.5304 0.18627 0.0
N513 N 0.71034 0.55326 0.11018 0.0
N514 N 0.71069 0.54163 0.29748 0.0
C515 C 0.70851 0.56514 0.27616 0.0
C516 C 0.7087 0.57167 0.17438 0.0
C517 C 0.14203 0.71639 0.33858 0.0
C518 C 0.11706 0.69272 0.30064 0.0
C519 C 0.14927 0.71797 0.43871 0.0
C520 C 0.13169 0.69608 0.50422 0.0
H521 H 0.15609 0.73371 0.29047 0.0
H522 H 0.16898 0.73607 0.46483 0.0
S523 S 0.0654 0.62881 0.44379 0.0
N524 N 0.07577 0.64607 0.33848 0.0
N525 N 0.08918 0.64995 0.52547 0.0
C526 C 0.10682 0.67251 0.46796 0.0
C527 C 0.09953 0.67061 0.36657 0.0
C528 C 0.88581 0.5849 0.24305 0.0
C529 C 0.90629 0.59042 0.16921 0.0
C530 C 0.89298 0.58751 0.34294 0.0
C531 C 0.92104 0.59598 0.37365 0.0
H532 H 0.86378 0.57793 0.22381 0.0
H533 H 0.87612 0.58172 0.39639 0.0
S534 S 0.98377 0.61648 0.21193 0.0
N535 N 0.9566 0.60655 0.13576 0.0
N536 N 0.97018 0.61302 0.3227 0.0
C537 C 0.94215 0.60327 0.30109 0.0
C538 C 0.9348 0.60018 0.19925 0.0
C539 C 0.35439 0.92951 0.47089 0.0
C540 C 0.3392 0.90927 0.54488 0.0
C541 C 0.34999 0.92218 0.37118 0.0
C542 C 0.33 0.89429 0.34053 0.0
H543 H 0.37034 0.95119 0.49016 0.0
H544 H 0.36315 0.93832 0.31804 0.0
S545 S 0.28214 0.83388 0.50343 0.0
N546 N 0.30213 0.86024 0.5792 0.0
N547 N 0.29254 0.84708 0.39236 0.0
C548 C 0.31344 0.87422 0.41334 0.0
C549 C 0.31829 0.88155 0.51515 0.0
C550 C 0.46013 0.35427 0.55543 0.0
C551 C 0.45429 0.32728 0.52164 0.0
C552 C 0.45781 0.35911 0.65519 0.0
C553 C 0.44904 0.33699 0.72532 0.0
H554 H 0.46732 0.37198 0.50459 0.0
H555 H 0.46353 0.38059 0.67737 0.0
S556 S 0.42826 0.26141 0.67058 0.0
N557 N 0.43801 0.27776 0.5635 0.0
N558 N 0.43231 0.28623 0.75029 0.0
C559 C 0.44228 0.30957 0.69128 0.0
C560 C 0.4452 0.30487 0.58974 0.0
C561 C 0.11453 0.42807 0.71402 0.0
C562 C 0.14075 0.4514 0.68245 0.0
C563 C 0.10673 0.42408 0.81356 0.0
C564 C 0.12502 0.44292 0.88585 0.0
H565 H 0.09995 0.41258 0.6616 0.0
H566 H 0.08632 0.40598 0.8345 0.0
S567 S 0.19474 0.5086 0.84374 0.0
N568 N 0.18398 0.49486 0.73334 0.0
N569 N 0.16964 0.48643 0.91973 0.0
C570 C 0.15113 0.46633 0.85599 0.0
C571 C 0.15892 0.47079 0.75463 0.0
C572 C 0.68505 0.09708 0.88809 0.0
C573 C 0.71068 0.12092 0.85663 0.0
C574 C 0.6796 0.09055 0.98825 0.0
C575 C 0.69957 0.10752 0.06103 0.0
H576 H 0.66842 0.08443 0.8355 0.0
H577 H 0.65901 0.07274 1.00908 0.0
S578 S 0.77226 0.16917 0.01349 0.0
N579 N 0.75786 0.159 0.9037 0.0
N580 N 0.74772 0.14711 0.09129 0.0
C581 C 0.7263 0.12993 0.02921 0.0
C582 C 0.73177 0.13657 0.92728 0.0
C583 C 0.61332 0.69274 0.15472 0.0
C584 C 0.59286 0.68943 0.22533 0.0
C585 C 0.60919 0.69628 0.05473 0.0
C586 C 0.58425 0.69619 0.02214 0.0
H587 H 0.63259 0.69267 0.17723 0.0
H588 H 0.62572 0.69942 1.00285 0.0
S589 S 0.52246 0.68372 0.17831 0.0
N590 N 0.54606 0.68382 0.25589 0.0
N591 N 0.53753 0.68929 0.06918 0.0
C592 C 0.56323 0.69177 0.09253 0.0
C593 C 0.56772 0.68865 0.19377 0.0
C594 C 0.59099 0.18031 0.27517 0.0
C595 C 0.56462 0.15448 0.27461 0.0
C596 C 0.6156 0.18197 0.31881 0.0
C597 C 0.61461 0.15796 0.36459 0.0
H598 H 0.59287 0.19903 0.23859 0.0
H599 H 0.63561 0.20207 0.31557 0.0
S600 S 0.55017 0.08564 0.38612 0.0
N601 N 0.53868 0.10488 0.32795 0.0
N602 N 0.58457 0.10757 0.40631 0.0
C603 C 0.58806 0.13226 0.36639 0.0
C604 C 0.5632 0.13065 0.32251 0.0
C605 C 0.41857 0.57934 0.41865 0.0
C606 C 0.41571 0.55213 0.43243 0.0
C607 C 0.44177 0.604 0.45994 0.0
C608 C 0.46274 0.60226 0.51719 0.0
H609 H 0.40356 0.58172 0.3721 0.0
H610 H 0.44369 0.62465 0.44502 0.0
S611 S 0.46378 0.53546 0.57844 0.0
N612 N 0.43466 0.5246 0.51131 0.0
N613 N 0.47838 0.57057 0.58646 0.0
C614 C 0.45932 0.5749 0.53421 0.0
C615 C 0.43579 0.54997 0.4925 0.0
C616 C 0.85195 0.41908 0.58189 0.0
C617 C 0.87728 0.42214 0.53982 0.0
C618 C 0.8513 0.44256 0.62505 0.0
C619 C 0.87612 0.46968 0.62928 0.0
H620 H 0.83259 0.39836 0.58187 0.0
H621 H 0.83154 0.43935 0.65741 0.0
S622 S 0.94773 0.4891 0.53079 0.0
N623 N 0.92769 0.45467 0.50573 0.0
N624 N 0.92638 0.49844 0.5865 0.0
C625 C 0.90138 0.47305 0.58676 0.0
C626 C 0.902 0.44939 0.5422 0.0
C627 C 0.43708 0.85597 0.84835 0.0
C628 C 0.41589 0.85794 0.79343 0.0
C629 C 0.46088 0.85664 0.80293 0.0
C630 C 0.46457 0.8594 0.70057 0.0
H631 H 0.4358 0.85491 0.92758 0.0
H632 H 0.47726 0.85657 0.84895 0.0
S633 S 0.41405 0.86254 0.52208 0.0
N634 N 0.39955 0.86111 0.62996 0.0
N635 N 0.44356 0.86129 0.54492 0.0
C636 C 0.44271 0.85964 0.64436 0.0
C637 C 0.41857 0.85912 0.69056 0.0
C638 C 0.5794 0.41786 0.90365 0.0
C639 C 0.57727 0.41371 1.00585 0.0
C640 C 0.60226 0.44241 0.86158 0.0
C641 C 0.62415 0.46364 0.91972 0.0
H642 H 0.56234 0.40296 0.85612 0.0
H643 H 0.60213 0.44546 0.78313 0.0
S644 S 0.63045 0.46165 0.1897 0.0
N645 N 0.60048 0.43182 0.16338 0.0
N646 N 0.64339 0.47792 0.08394 0.0
C647 C 0.62332 0.45891 0.02121 0.0
C648 C 0.59989 0.43401 0.06433 0.0
C649 C 0.17783 0.59113 0.20065 0.0
C650 C 0.17481 0.568 0.14312 0.0
C651 C 0.17663 0.6144 0.15849 0.0
C652 C 0.17198 0.61523 0.05736 0.0
H653 H 0.18 0.59066 0.27945 0.0
H654 H 0.17759 0.63095 0.20616 0.0
S655 S 0.16478 0.5613 0.87337 0.0
N656 N 0.16859 0.54843 0.97865 0.0
N657 N 0.16651 0.59207 0.89985 0.0
C658 C 0.17047 0.59306 0.99846 0.0
C659 C 0.17187 0.56951 0.04114 0.0
C660 C 0.36859 0.02679 0.07647 0.0
C661 C 0.3821 0.04317 0.99242 0.0
C662 C 0.35322 0.99658 0.07288 0.0
C663 C 0.35014 0.98174 0.98468 0.0
H664 H 0.37284 0.03708 0.14747 0.0
H665 H 0.34645 0.98483 0.14123 0.0
S666 S 0.3771 0.01479 0.74151 0.0
N667 N 0.38831 0.04234 0.81683 0.0
N668 N 0.35852 0.98592 0.80944 0.0
C669 C 0.3604 0.99801 0.89849 0.0
C670 C 0.37657 0.02865 0.90248 0.0
C671 C 0.37622 0.34983 0.07557 0.0
C672 C 0.38165 0.34009 0.16434 0.0
C673 C 0.36087 0.36472 0.07358 0.0
C674 C 0.34962 0.36974 0.15968 0.0
H675 H 0.38695 0.34925 1.00924 0.0
H676 H 0.36067 0.37518 1.00607 0.0
S677 S 0.35282 0.34333 0.40751 0.0
N678 N 0.37133 0.33313 0.33821 0.0
N679 N 0.3408 0.35927 0.33321 0.0
C680 C 0.35142 0.35651 0.24623 0.0
C681 C 0.36789 0.34217 0.24889 0.0
C682 C 0.03855 0.36972 0.43541 0.0
C683 C 0.05308 0.3769 0.34499 0.0
C684 C 1.00839 0.35427 0.44001 0.0
C685 C 0.99161 0.34583 0.35426 0.0
H686 H 0.05042 0.37887 0.50248 0.0
H687 H 0.99824 0.35214 0.51048 0.0
S688 S 1.01911 0.35593 0.10009 0.0
N689 N 0.04832 0.37101 0.16861 0.0
N690 N 0.99181 0.34298 0.17706 0.0
C691 C 1.00589 0.35026 0.26422 0.0
C692 C 0.03659 0.36553 0.25964 0.0
C693 C 0.66254 0.9956 0.40084 0.0
C694 C 0.65725 0.98079 0.49033 0.0
C695 C 0.6785 0.02569 0.39702 0.0
C696 C 0.6895 0.0421 0.48273 0.0
H697 H 0.6515 0.98408 0.3351 0.0
H698 H 0.67909 0.03618 0.32854 0.0
S699 S 0.68532 0.01361 0.73304 0.0
N700 N 0.66772 0.98471 0.66433 0.0
N701 N 0.69701 0.0412 0.6576 0.0
C702 C 0.68712 0.02747 0.57068 0.0
C703 C 0.67119 0.99678 0.57434 0.0
C704 C 0.65952 0.67112 0.57355 0.0
C705 C 0.65516 0.68263 0.66017 0.0
C706 C 0.6741 0.65547 0.57471 0.0
C707 C 0.6854 0.65119 0.66212 0.0
H708 H 0.64852 0.67108 0.50692 0.0
H709 H 0.67378 0.64403 0.50892 0.0
S710 S 0.68444 0.68153 0.90489 0.0
N711 N 0.66642 0.69174 0.83298 0.0
N712 N 0.69521 0.66379 0.8341 0.0
C713 C 0.68454 0.66587 0.74621 0.0
C714 C 0.66901 0.68119 0.74555 0.0
C715 C 0.03448 0.68387 0.89195 0.0
C716 C 0.05026 0.68504 0.80801 0.0
C717 C 1.00424 0.66948 0.89011 0.0
C718 C 0.98886 0.65679 0.80351 0.0
H719 H 0.04517 0.69086 0.96202 0.0
H720 H 0.99287 0.66553 0.95898 0.0
S721 S 0.0204 0.65959 0.55984 0.0
N722 N 0.0484 0.67614 0.63329 0.0
N723 N 0.99197 0.65066 0.62888 0.0
C724 C 1.00462 0.66158 0.7167 0.0
C725 C 0.03524 0.67539 0.7191 0.0
loop_
_geom_bond_atom_site_label_1
_geom_bond_atom_site_label_2
_geom_bond_distance
_geom_bond_site_symmetry_2
_ccdc_geom_bond_type
C0 C1 1.351 . S
C0 N3 1.368 . S
C0 H5 0.931 . S
C1 C0 1.351 . S
C1 N2 1.373 . S
C1 H29 0.930 . S
N2 C1 1.373 . S
N2 C4 1.340 . S
N3 C0 1.368 . S
N3 C4 1.321 . S
N3 Co6 2.135 . S
C4 N2 1.340 . S
C4 N3 1.321 . S
C4 H28 0.930 . S
H5 C0 0.931 . S
Co6 N3 2.135 . S
Co6 N9 2.121 1_554 S
Co6 O14 2.055 . S
Co6 O17 2.039 . S
Co6 N20 2.140 . S
C7 O8 1.227 . S
C7 O17 1.265 . S
O8 C7 1.227 . S
N9 Co6 2.121 1_556 S
N9 C11 1.375 . S
N9 C12 1.313 . S
C10 C11 1.338 . S
C10 N13 1.377 . S
C10 H30 0.930 . S
C11 N9 1.375 . S
C11 C10 1.338 . S
C11 H15 0.931 . S
C12 N9 1.313 . S
C12 N13 1.344 . S
C12 H16 0.930 . S
N13 C10 1.377 . S
N13 C12 1.344 . S
O14 Co6 2.055 . S
O14 C18 1.253 . S
H15 C11 0.931 . S
H16 C12 0.930 . S
O17 Co6 2.039 . S
O17 C7 1.265 . S
C18 O14 1.253 . S
C18 O19 1.227 . S
O19 C18 1.227 . S
N20 Co6 2.140 . S
N20 C23 1.346 . S
N20 C24 1.345 . S
C21 C22 1.387 . S
C21 C25 1.391 . S
C22 C21 1.387 . S
C22 C23 1.369 . S
C22 H31 0.929 . S
C23 N20 1.346 . S
C23 C22 1.369 . S
C23 H26 0.928 . S
C24 N20 1.345 . S
C24 C25 1.371 . S
C24 H27 0.931 . S
C25 C21 1.391 . S
C25 C24 1.371 . S
C25 H32 0.930 . S
H26 C23 0.928 . S
H27 C24 0.931 . S
H28 C4 0.930 . S
H29 C1 0.930 . S
H30 C10 0.930 . S
H31 C22 0.929 . S
H32 C25 0.930 . S
C33 C34 1.351 . S
C33 N36 1.368 . S
C33 H38 0.931 . S
C34 C33 1.351 . S
C34 N35 1.373 . S
C34 H62 0.930 . S
N35 C34 1.373 . S
N35 C37 1.340 . S
N36 C33 1.368 . S
N36 C37 1.321 . S
N36 Co39 2.135 . S
C37 N35 1.340 . S
C37 N36 1.321 . S
C37 H61 0.930 . S
H38 C33 0.931 . S
Co39 N36 2.135 . S
Co39 N42 2.121 . S
Co39 O47 2.055 . S
Co39 O50 2.039 . S
Co39 N53 2.140 . S
C40 O41 1.227 . S
C40 O50 1.265 . S
O41 C40 1.227 . S
N42 Co39 2.121 . S
N42 C44 1.375 . S
N42 C45 1.313 . S
C43 C44 1.336 1_556 S
C43 N46 1.378 . S
C43 H63 0.931 . S
C44 N42 1.375 . S
C44 C43 1.336 1_554 S
C44 H48 0.931 . S
C45 N42 1.313 . S
C45 N46 1.344 1_554 S
C45 H49 0.930 . S
N46 C43 1.378 . S
N46 C45 1.344 1_556 S
O47 Co39 2.055 . S
O47 C51 1.253 . S
H48 C44 0.931 . S
H49 C45 0.930 . S
O50 Co39 2.039 . S
O50 C40 1.265 . S
C51 O47 1.253 . S
C51 O52 1.227 . S
O52 C51 1.227 . S
N53 Co39 2.140 . S
N53 C56 1.346 . S
N53 C57 1.345 . S
C54 C55 1.387 . S
C54 C58 1.391 . S
C55 C54 1.387 . S
C55 C56 1.369 . S
C55 H64 0.929 . S
C56 N53 1.346 . S
C56 C55 1.369 . S
C56 H59 0.928 . S
C57 N53 1.345 . S
C57 C58 1.371 . S
C57 H60 0.931 . S
C58 C54 1.391 . S
C58 C57 1.371 . S
C58 H65 0.930 . S
H59 C56 0.928 . S
H60 C57 0.931 . S
H61 C37 0.930 . S
H62 C34 0.930 . S
H63 C43 0.931 . S
H64 C55 0.929 . S
H65 C58 0.930 . S
C66 C67 1.351 . S
C66 N69 1.368 . S
C66 H71 0.931 . S
C67 C66 1.351 . S
C67 N68 1.373 . S
C67 H95 0.930 . S
N68 C67 1.373 . S
N68 C70 1.340 . S
N69 C66 1.368 . S
N69 C70 1.321 . S
N69 Co72 2.135 . S
C70 N68 1.340 . S
C70 N69 1.321 . S
C70 H94 0.930 . S
H71 C66 0.931 . S
Co72 N69 2.135 . S
Co72 N75 2.121 . S
Co72 O80 2.055 . S
Co72 O83 2.039 . S
Co72 N86 2.140 . S
C73 O74 1.227 . S
C73 O83 1.265 . S
O74 C73 1.227 . S
N75 Co72 2.121 . S
N75 C77 1.375 . S
N75 C78 1.313 . S
C76 C77 1.338 . S
C76 N79 1.377 . S
C76 H96 0.930 . S
C77 N75 1.375 . S
C77 C76 1.338 . S
C77 H81 0.931 . S
C78 N75 1.313 . S
C78 N79 1.344 . S
C78 H82 0.930 . S
N79 C76 1.377 . S
N79 C78 1.344 . S
O80 Co72 2.055 . S
O80 C84 1.253 . S
H81 C77 0.931 . S
H82 C78 0.930 . S
O83 Co72 2.039 . S
O83 C73 1.265 . S
C84 O80 1.253 . S
C84 O85 1.227 . S
O85 C84 1.227 . S
N86 Co72 2.140 . S
N86 C89 1.346 . S
N86 C90 1.345 . S
C87 C88 1.387 . S
C87 C91 1.391 . S
C88 C87 1.387 . S
C88 C89 1.369 . S
C88 H97 0.929 . S
C89 N86 1.346 . S
C89 C88 1.369 . S
C89 H92 0.928 . S
C90 N86 1.345 . S
C90 C91 1.371 . S
C90 H93 0.931 . S
C91 C87 1.391 . S
C91 C90 1.371 . S
C91 H98 0.930 . S
H92 C89 0.928 . S
H93 C90 0.931 . S
H94 C70 0.930 . S
H95 C67 0.930 . S
H96 C76 0.930 . S
H97 C88 0.929 . S
H98 C91 0.930 . S
C99 C100 1.351 . S
C99 N102 1.368 . S
C99 H104 0.931 . S
C100 C99 1.351 . S
C100 N101 1.373 . S
C100 H128 0.930 . S
N101 C100 1.373 . S
N101 C103 1.340 . S
N102 C99 1.368 . S
N102 C103 1.321 . S
N102 Co105 2.135 . S
C103 N101 1.340 . S
C103 N102 1.321 . S
C103 H127 0.930 . S
H104 C99 0.931 . S
Co105 N102 2.135 . S
Co105 N108 2.121 . S
Co105 O113 2.055 . S
Co105 O116 2.039 . S
Co105 N119 2.140 . S
C106 O107 1.227 . S
C106 O116 1.265 . S
O107 C106 1.227 . S
N108 Co105 2.121 . S
N108 C110 1.375 . S
N108 C111 1.313 . S
C109 C110 1.338 . S
C109 N112 1.377 . S
C109 H129 0.930 . S
C110 N108 1.375 . S
C110 C109 1.338 . S
C110 H114 0.931 . S
C111 N108 1.313 . S
C111 N112 1.344 . S
C111 H115 0.930 . S
N112 C109 1.377 . S
N112 C111 1.344 . S
O113 Co105 2.055 . S
O113 C117 1.253 . S
H114 C110 0.931 . S
H115 C111 0.930 . S
O116 Co105 2.039 . S
O116 C106 1.265 . S
C117 O113 1.253 . S
C117 O118 1.227 . S
O118 C117 1.227 . S
N119 Co105 2.140 . S
N119 C122 1.346 . S
N119 C123 1.345 . S
C120 C121 1.387 . S
C120 C124 1.391 . S
C121 C120 1.387 . S
C121 C122 1.369 . S
C121 H130 0.929 . S
C122 N119 1.346 . S
C122 C121 1.369 . S
C122 H125 0.928 . S
C123 N119 1.345 . S
C123 C124 1.371 . S
C123 H126 0.931 . S
C124 C120 1.391 . S
C124 C123 1.371 . S
C124 H131 0.930 . S
H125 C122 0.928 . S
H126 C123 0.931 . S
H127 C103 0.930 . S
H128 C100 0.930 . S
H129 C109 0.930 . S
H130 C121 0.929 . S
H131 C124 0.930 . S
C132 C133 1.351 1_556 S
C132 N135 1.368 . S
C132 H137 0.931 . S
C133 C132 1.351 1_554 S
C133 N134 1.373 . S
C133 H161 0.930 . S
N134 C133 1.373 . S
N134 C136 1.340 1_554 S
N135 C132 1.368 . S
N135 C136 1.321 . S
N135 Co138 2.135 . S
C136 N134 1.340 1_556 S
C136 N135 1.321 . S
C136 H160 0.930 . S
H137 C132 0.931 . S
Co138 N135 2.135 . S
Co138 N141 2.121 . S
Co138 O146 2.055 . S
Co138 O149 2.039 . S
Co138 N152 2.140 . S
C139 O140 1.227 . S
C139 O149 1.265 . S
O140 C139 1.227 . S
N141 Co138 2.121 . S
N141 C143 1.375 . S
N141 C144 1.313 . S
C142 C143 1.338 . S
C142 N145 1.377 . S
C142 H162 0.930 . S
C143 N141 1.375 . S
C143 C142 1.338 . S
C143 H147 0.931 . S
C144 N141 1.313 . S
C144 N145 1.344 . S
C144 H148 0.930 . S
N145 C142 1.377 . S
N145 C144 1.344 . S
O146 Co138 2.055 . S
O146 C150 1.253 . S
H147 C143 0.931 . S
H148 C144 0.930 . S
O149 Co138 2.039 . S
O149 C139 1.265 . S
C150 O146 1.253 . S
C150 O151 1.227 . S
O151 C150 1.227 . S
N152 Co138 2.140 . S
N152 C155 1.346 . S
N152 C156 1.345 . S
C153 C154 1.387 . S
C153 C157 1.391 . S
C154 C153 1.387 . S
C154 C155 1.369 . S
C154 H163 0.929 . S
C155 N152 1.346 . S
C155 C154 1.369 . S
C155 H158 0.928 . S
C156 N152 1.345 . S
C156 C157 1.371 . S
C156 H159 0.931 . S
C157 C153 1.391 . S
C157 C156 1.371 . S
C157 H164 0.930 . S
H158 C155 0.928 . S
H159 C156 0.931 . S
H160 C136 0.930 . S
H161 C133 0.930 . S
H162 C142 0.930 . S
H163 C154 0.929 . S
H164 C157 0.930 . S
C165 C166 1.351 . S
C165 N168 1.368 . S
C165 H170 0.931 . S
C166 C165 1.351 . S
C166 N167 1.373 . S
C166 H194 0.930 . S
N167 C166 1.373 . S
N167 C169 1.340 . S
N168 C165 1.368 . S
N168 C169 1.321 . S
N168 Co171 2.135 1_554 S
C169 N167 1.340 . S
C169 N168 1.321 . S
C169 H193 0.930 . S
H170 C165 0.931 . S
Co171 N168 2.135 1_556 S
Co171 N174 2.121 . S
Co171 O179 2.055 . S
Co171 O182 2.039 . S
Co171 N185 2.140 . S
C172 O173 1.227 1_556 S
C172 O182 1.265 . S
O173 C172 1.227 1_554 S
N174 Co171 2.121 . S
N174 C176 1.375 . S
N174 C177 1.313 . S
C175 C176 1.338 . S
C175 N178 1.377 . S
C175 H195 0.930 . S
C176 N174 1.375 . S
C176 C175 1.338 . S
C176 H180 0.931 . S
C177 N174 1.313 . S
C177 N178 1.344 . S
C177 H181 0.930 . S
N178 C175 1.377 . S
N178 C177 1.344 . S
O179 Co171 2.055 . S
O179 C183 1.253 . S
H180 C176 0.931 . S
H181 C177 0.930 . S
O182 Co171 2.039 . S
O182 C172 1.265 . S
C183 O179 1.253 . S
C183 O184 1.227 . S
O184 C183 1.227 . S
N185 Co171 2.140 . S
N185 C188 1.346 1_556 S
N185 C189 1.345 . S
C186 C187 1.393 . S
C186 C190 1.384 1_554 S
C187 C186 1.393 . S
C187 C188 1.369 . S
C187 H196 0.929 . S
C188 N185 1.346 1_554 S
C188 C187 1.369 . S
C188 H191 0.928 . S
C189 N185 1.345 . S
C189 C190 1.371 . S
C189 H192 0.931 . S
C190 C186 1.384 1_556 S
C190 C189 1.371 . S
C190 H197 0.930 . S
H191 C188 0.928 . S
H192 C189 0.931 . S
H193 C169 0.930 . S
H194 C166 0.930 . S
H195 C175 0.930 . S
H196 C187 0.929 . S
H197 C190 0.930 . S
C198 C199 1.351 . S
C198 N201 1.368 . S
C198 H203 0.931 . S
C199 C198 1.351 . S
C199 N200 1.373 . S
C199 H227 0.930 . S
N200 C199 1.373 . S
N200 C202 1.340 . S
N201 C198 1.368 . S
N201 C202 1.321 . S
N201 Co204 2.135 . S
C202 N200 1.340 . S
C202 N201 1.321 . S
C202 H226 0.930 . S
H203 C198 0.931 . S
Co204 N201 2.135 . S
Co204 N207 2.121 . S
Co204 O212 2.055 . S
Co204 O215 2.039 . S
Co204 N218 2.140 . S
C205 O206 1.227 . S
C205 O215 1.265 . S
O206 C205 1.227 . S
N207 Co204 2.121 . S
N207 C209 1.375 . S
N207 C210 1.313 . S
C208 C209 1.337 1_554 S
C208 N211 1.377 . S
C208 H228 0.930 . S
C209 N207 1.375 . S
C209 C208 1.337 1_556 S
C209 H213 0.931 . S
C210 N207 1.313 . S
C210 N211 1.344 1_556 S
C210 H214 0.930 . S
N211 C208 1.377 . S
N211 C210 1.344 1_554 S
O212 Co204 2.055 . S
O212 C216 1.253 . S
H213 C209 0.931 . S
H214 C210 0.930 . S
O215 Co204 2.039 . S
O215 C205 1.265 . S
C216 O212 1.253 . S
C216 O217 1.227 . S
O217 C216 1.227 . S
N218 Co204 2.140 . S
N218 C221 1.346 . S
N218 C222 1.345 . S
C219 C220 1.387 . S
C219 C223 1.391 . S
C220 C219 1.387 . S
C220 C221 1.369 . S
C220 H229 0.929 . S
C221 N218 1.346 . S
C221 C220 1.369 . S
C221 H224 0.928 . S
C222 N218 1.345 . S
C222 C223 1.371 . S
C222 H225 0.931 . S
C223 C219 1.391 . S
C223 C222 1.371 . S
C223 H230 0.930 . S
H224 C221 0.928 . S
H225 C222 0.931 . S
H226 C202 0.930 . S
H227 C199 0.930 . S
H228 C208 0.930 . S
H229 C220 0.929 . S
H230 C223 0.930 . S
C231 C232 1.351 . S
C231 N234 1.368 . S
C231 H236 0.931 . S
C232 C231 1.351 . S
C232 N233 1.373 . S
C232 H260 0.930 . S
N233 C232 1.373 . S
N233 C235 1.340 . S
N234 C231 1.368 . S
N234 C235 1.321 . S
N234 Co237 2.135 . S
C235 N233 1.340 . S
C235 N234 1.321 . S
C235 H259 0.930 . S
H236 C231 0.931 . S
Co237 N234 2.135 . S
Co237 N240 2.121 1_556 S
Co237 O245 2.055 . S
Co237 O248 2.039 . S
Co237 N251 2.140 . S
C238 O239 1.227 . S
C238 O248 1.265 . S
O239 C238 1.227 . S
N240 Co237 2.121 1_554 S
N240 C242 1.375 . S
N240 C243 1.313 . S
C241 C242 1.338 . S
C241 N244 1.377 . S
C241 H261 0.930 . S
C242 N240 1.375 . S
C242 C241 1.338 . S
C242 H246 0.931 . S
C243 N240 1.313 . S
C243 N244 1.344 . S
C243 H247 0.930 . S
N244 C241 1.377 . S
N244 C243 1.344 . S
O245 Co237 2.055 . S
O245 C249 1.253 . S
H246 C242 0.931 . S
H247 C243 0.930 . S
O248 Co237 2.039 . S
O248 C238 1.265 . S
C249 O245 1.253 . S
C249 O250 1.227 . S
O250 C249 1.227 . S
N251 Co237 2.140 . S
N251 C254 1.346 . S
N251 C255 1.345 . S
C252 C253 1.387 . S
C252 C256 1.391 . S
C253 C252 1.387 . S
C253 C254 1.369 . S
C253 H262 0.929 . S
C254 N251 1.346 . S
C254 C253 1.369 . S
C254 H257 0.928 . S
C255 N251 1.345 . S
C255 C256 1.371 . S
C255 H258 0.931 . S
C256 C252 1.391 . S
C256 C255 1.371 . S
C256 H263 0.930 . S
H257 C254 0.928 . S
H258 C255 0.931 . S
H259 C235 0.930 . S
H260 C232 0.930 . S
H261 C241 0.930 . S
H262 C253 0.929 . S
H263 C256 0.930 . S
C264 C265 1.351 . S
C264 N267 1.368 . S
C264 H269 0.931 . S
C265 C264 1.351 . S
C265 N266 1.373 . S
C265 H293 0.930 . S
N266 C265 1.373 . S
N266 C268 1.340 . S
N267 C264 1.368 . S
N267 C268 1.321 . S
N267 Co270 2.135 1_556 S
C268 N266 1.340 . S
C268 N267 1.321 . S
C268 H292 0.930 . S
H269 C264 0.931 . S
Co270 N267 2.135 1_554 S
Co270 N273 2.121 . S
Co270 O278 2.055 . S
Co270 O281 2.039 . S
Co270 N284 2.140 . S
C271 O272 1.227 1_554 S
C271 O281 1.265 . S
O272 C271 1.227 1_556 S
N273 Co270 2.121 . S
N273 C275 1.375 . S
N273 C276 1.313 . S
C274 C275 1.338 . S
C274 N277 1.377 . S
C274 H294 0.930 . S
C275 N273 1.375 . S
C275 C274 1.338 . S
C275 H279 0.931 . S
C276 N273 1.313 . S
C276 N277 1.344 . S
C276 H280 0.930 . S
N277 C274 1.377 . S
N277 C276 1.344 . S
O278 Co270 2.055 . S
O278 C282 1.253 . S
H279 C275 0.931 . S
H280 C276 0.930 . S
O281 Co270 2.039 . S
O281 C271 1.265 . S
C282 O278 1.253 . S
C282 O283 1.227 . S
O283 C282 1.227 . S
N284 Co270 2.140 . S
N284 C287 1.346 1_554 S
N284 C288 1.345 . S
C285 C286 1.393 . S
C285 C289 1.384 1_556 S
C286 C285 1.393 . S
C286 C287 1.369 . S
C286 H295 0.929 . S
C287 N284 1.346 1_556 S
C287 C286 1.369 . S
C287 H290 0.928 . S
C288 N284 1.345 . S
C288 C289 1.371 . S
C288 H291 0.931 . S
C289 C285 1.384 1_554 S
C289 C288 1.371 . S
C289 H296 0.930 . S
H290 C287 0.928 . S
H291 C288 0.931 . S
H292 C268 0.930 . S
H293 C265 0.930 . S
H294 C274 0.930 . S
H295 C286 0.929 . S
H296 C289 0.930 . S
C297 C298 1.351 1_554 S
C297 N300 1.368 . S
C297 H302 0.931 . S
C298 C297 1.351 1_556 S
C298 N299 1.373 . S
C298 H326 0.930 . S
N299 C298 1.373 . S
N299 C301 1.340 1_556 S
N300 C297 1.368 . S
N300 C301 1.321 . S
N300 Co303 2.135 . S
C301 N299 1.340 1_554 S
C301 N300 1.321 . S
C301 H325 0.930 . S
H302 C297 0.931 . S
Co303 N300 2.135 . S
Co303 N306 2.121 . S
Co303 O311 2.055 . S
Co303 O314 2.039 . S
Co303 N317 2.140 . S
C304 O305 1.227 . S
C304 O314 1.265 . S
O305 C304 1.227 . S
N306 Co303 2.121 . S
N306 C308 1.375 . S
N306 C309 1.313 . S
C307 C308 1.338 . S
C307 N310 1.377 . S
C307 H327 0.930 . S
C308 N306 1.375 . S
C308 C307 1.338 . S
C308 H312 0.931 . S
C309 N306 1.313 . S
C309 N310 1.344 . S
C309 H313 0.930 . S
N310 C307 1.377 . S
N310 C309 1.344 . S
O311 Co303 2.055 . S
O311 C315 1.253 . S
H312 C308 0.931 . S
H313 C309 0.930 . S
O314 Co303 2.039 . S
O314 C304 1.265 . S
C315 O311 1.253 . S
C315 O316 1.227 . S
O316 C315 1.227 . S
N317 Co303 2.140 . S
N317 C320 1.346 . S
N317 C321 1.345 . S
C318 C319 1.387 . S
C318 C322 1.391 . S
C319 C318 1.387 . S
C319 C320 1.369 . S
C319 H328 0.929 . S
C320 N317 1.346 . S
C320 C319 1.369 . S
C320 H323 0.928 . S
C321 N317 1.345 . S
C321 C322 1.371 . S
C321 H324 0.931 . S
C322 C318 1.391 . S
C322 C321 1.371 . S
C322 H329 0.930 . S
H323 C320 0.928 . S
H324 C321 0.931 . S
H325 C301 0.930 . S
H326 C298 0.930 . S
H327 C307 0.930 . S
H328 C319 0.929 . S
H329 C322 0.930 . S
C330 C331 1.351 . S
C330 N333 1.368 . S
C330 H335 0.931 . S
C331 C330 1.351 . S
C331 N332 1.373 . S
C331 H359 0.930 . S
N332 C331 1.373 . S
N332 C334 1.340 . S
N333 C330 1.368 . S
N333 C334 1.321 . S
N333 Co336 2.135 . S
C334 N332 1.340 . S
C334 N333 1.321 . S
C334 H358 0.930 . S
H335 C330 0.931 . S
Co336 N333 2.135 . S
Co336 N339 2.121 . S
Co336 O344 2.055 . S
Co336 O347 2.039 . S
Co336 N350 2.140 . S
C337 O338 1.227 . S
C337 O347 1.265 . S
O338 C337 1.227 . S
N339 Co336 2.121 . S
N339 C341 1.375 . S
N339 C342 1.313 . S
C340 C341 1.338 . S
C340 N343 1.377 . S
C340 H360 0.930 . S
C341 N339 1.375 . S
C341 C340 1.338 . S
C341 H345 0.931 . S
C342 N339 1.313 . S
C342 N343 1.344 . S
C342 H346 0.930 . S
N343 C340 1.377 . S
N343 C342 1.344 . S
O344 Co336 2.055 . S
O344 C348 1.253 . S
H345 C341 0.931 . S
H346 C342 0.930 . S
O347 Co336 2.039 . S
O347 C337 1.265 . S
C348 O344 1.253 . S
C348 O349 1.227 . S
O349 C348 1.227 . S
N350 Co336 2.140 . S
N350 C353 1.346 . S
N350 C354 1.345 . S
C351 C352 1.387 . S
C351 C355 1.391 . S
C352 C351 1.387 . S
C352 C353 1.369 . S
C352 H361 0.929 . S
C353 N350 1.346 . S
C353 C352 1.369 . S
C353 H356 0.928 . S
C354 N350 1.345 . S
C354 C355 1.371 . S
C354 H357 0.931 . S
C355 C351 1.391 . S
C355 C354 1.371 . S
C355 H362 0.930 . S
H356 C353 0.928 . S
H357 C354 0.931 . S
H358 C334 0.930 . S
H359 C331 0.930 . S
H360 C340 0.930 . S
H361 C352 0.929 . S
H362 C355 0.930 . S
C363 C364 1.351 . S
C363 N366 1.368 . S
C363 H368 0.931 . S
C364 C363 1.351 . S
C364 N365 1.373 . S
C364 H392 0.930 . S
N365 C364 1.373 . S
N365 C367 1.340 . S
N366 C363 1.368 . S
N366 C367 1.321 . S
N366 Co369 2.135 . S
C367 N365 1.340 . S
C367 N366 1.321 . S
C367 H391 0.930 . S
H368 C363 0.931 . S
Co369 N366 2.135 . S
Co369 N372 2.121 . S
Co369 O377 2.055 . S
Co369 O380 2.039 . S
Co369 N383 2.140 . S
C370 O371 1.227 . S
C370 O380 1.265 . S
O371 C370 1.227 . S
N372 Co369 2.121 . S
N372 C374 1.375 . S
N372 C375 1.313 . S
C373 C374 1.338 . S
C373 N376 1.377 . S
C373 H393 0.930 . S
C374 N372 1.375 . S
C374 C373 1.338 . S
C374 H378 0.931 . S
C375 N372 1.313 . S
C375 N376 1.344 . S
C375 H379 0.930 . S
N376 C373 1.377 . S
N376 C375 1.344 . S
O377 Co369 2.055 . S
O377 C381 1.253 . S
H378 C374 0.931 . S
H379 C375 0.930 . S
O380 Co369 2.039 . S
O380 C370 1.265 . S
C381 O377 1.253 . S
C381 O382 1.227 . S
O382 C381 1.227 . S
N383 Co369 2.140 . S
N383 C386 1.346 . S
N383 C387 1.345 . S
C384 C385 1.387 . S
C384 C388 1.391 . S
C385 C384 1.387 . S
C385 C386 1.369 . S
C385 H394 0.929 . S
C386 N383 1.346 . S
C386 C385 1.369 . S
C386 H389 0.928 . S
C387 N383 1.345 . S
C387 C388 1.371 . S
C387 H390 0.931 . S
C388 C384 1.391 . S
C388 C387 1.371 . S
C388 H395 0.930 . S
H389 C386 0.928 . S
H390 C387 0.931 . S
H391 C367 0.930 . S
H392 C364 0.930 . S
H393 C373 0.930 . S
H394 C385 0.929 . S
H395 C388 0.930 . S
C396 C397 1.369 . S
C396 C398 1.419 . S
C396 H400 0.930 . S
C397 C396 1.369 . S
C397 C406 1.429 . S
C398 C396 1.419 . S
C398 C399 1.363 . S
C398 H401 0.929 . S
C399 C398 1.363 . S
C399 C405 1.428 . S
H400 C396 0.930 . S
H401 C398 0.929 . S
S402 N403 1.613 . S
S402 N404 1.610 . S
N403 S402 1.613 . S
N403 C406 1.350 . S
N404 S402 1.610 . S
N404 C405 1.351 . S
C405 C399 1.428 . S
C405 N404 1.351 . S
C405 C406 1.434 . S
C406 C397 1.429 . S
C406 N403 1.350 . S
C406 C405 1.434 . S
C407 C408 1.369 . S
C407 C409 1.419 . S
C407 H411 0.930 . S
C408 C407 1.369 . S
C408 C417 1.429 . S
C409 C407 1.419 . S
C409 C410 1.363 . S
C409 H412 0.929 . S
C410 C409 1.363 . S
C410 C416 1.428 . S
H411 C407 0.930 . S
H412 C409 0.929 . S
S413 N414 1.613 . S
S413 N415 1.610 . S
N414 S413 1.613 . S
N414 C417 1.350 . S
N415 S413 1.610 . S
N415 C416 1.351 . S
C416 C410 1.428 . S
C416 N415 1.351 . S
C416 C417 1.434 . S
C417 C408 1.429 . S
C417 N414 1.350 . S
C417 C416 1.434 . S
C418 C419 1.369 . S
C418 C420 1.419 . S
C418 H422 0.930 . S
C419 C418 1.369 . S
C419 C428 1.429 . S
C420 C418 1.419 . S
C420 C421 1.363 . S
C420 H423 0.929 . S
C421 C420 1.363 . S
C421 C427 1.428 . S
H422 C418 0.930 . S
H423 C420 0.929 . S
S424 N425 1.613 . S
S424 N426 1.610 . S
N425 S424 1.613 . S
N425 C428 1.350 . S
N426 S424 1.610 . S
N426 C427 1.351 . S
C427 C421 1.428 . S
C427 N426 1.351 . S
C427 C428 1.434 . S
C428 C419 1.429 . S
C428 N425 1.350 . S
C428 C427 1.434 . S
C429 C430 1.369 . S
C429 C431 1.419 . S
C429 H433 0.930 . S
C430 C429 1.369 . S
C430 C439 1.429 . S
C431 C429 1.419 . S
C431 C432 1.363 . S
C431 H434 0.929 . S
C432 C431 1.363 . S
C432 C438 1.428 . S
H433 C429 0.930 . S
H434 C431 0.929 . S
S435 N436 1.613 . S
S435 N437 1.610 . S
N436 S435 1.613 . S
N436 C439 1.350 . S
N437 S435 1.610 . S
N437 C438 1.351 . S
C438 C432 1.428 . S
C438 N437 1.351 . S
C438 C439 1.434 . S
C439 C430 1.429 . S
C439 N436 1.350 . S
C439 C438 1.434 . S
C440 C441 1.369 . S
C440 C442 1.419 . S
C440 H444 0.930 . S
C441 C440 1.369 . S
C441 C450 1.429 . S
C442 C440 1.419 . S
C442 C443 1.363 . S
C442 H445 0.929 . S
C443 C442 1.363 . S
C443 C449 1.428 . S
H444 C440 0.930 . S
H445 C442 0.929 . S
S446 N447 1.613 . S
S446 N448 1.610 . S
N447 S446 1.613 . S
N447 C450 1.350 . S
N448 S446 1.610 . S
N448 C449 1.351 . S
C449 C443 1.428 . S
C449 N448 1.351 . S
C449 C450 1.434 . S
C450 C441 1.429 . S
C450 N447 1.350 . S
C450 C449 1.434 . S
C451 C452 1.369 . S
C451 C453 1.419 . S
C451 H455 0.930 . S
C452 C451 1.369 . S
C452 C461 1.429 . S
C453 C451 1.419 . S
C453 C454 1.363 . S
C453 H456 0.929 . S
C454 C453 1.363 . S
C454 C460 1.425 1_556 S
H455 C451 0.930 . S
H456 C453 0.929 . S
S457 N458 1.613 . S
S457 N459 1.610 . S
N458 S457 1.613 . S
N458 C461 1.350 1_554 S
N459 S457 1.610 . S
N459 C460 1.358 . S
C460 C454 1.425 1_554 S
C460 N459 1.358 . S
C460 C461 1.431 1_554 S
C461 C452 1.429 . S
C461 N458 1.350 1_556 S
C461 C460 1.431 1_556 S
C462 C463 1.369 . S
C462 C464 1.419 . S
C462 H466 0.930 . S
C463 C462 1.369 . S
C463 C472 1.429 . S
C464 C462 1.419 . S
C464 C465 1.363 . S
C464 H467 0.929 . S
C465 C464 1.363 . S
C465 C471 1.428 . S
H466 C462 0.930 . S
H467 C464 0.929 . S
S468 N469 1.613 . S
S468 N470 1.610 . S
N469 S468 1.613 . S
N469 C472 1.350 . S
N470 S468 1.610 . S
N470 C471 1.351 . S
C471 C465 1.428 . S
C471 N470 1.351 . S
C471 C472 1.434 . S
C472 C463 1.429 . S
C472 N469 1.350 . S
C472 C471 1.434 . S
C473 C474 1.369 . S
C473 C475 1.419 . S
C473 H477 0.930 . S
C474 C473 1.369 . S
C474 C483 1.429 . S
C475 C473 1.419 . S
C475 C476 1.363 . S
C475 H478 0.929 . S
C476 C475 1.363 . S
C476 C482 1.428 . S
H477 C473 0.930 . S
H478 C475 0.929 . S
S479 N480 1.613 . S
S479 N481 1.610 . S
N480 S479 1.613 . S
N480 C483 1.350 . S
N481 S479 1.610 . S
N481 C482 1.351 . S
C482 C476 1.428 . S
C482 N481 1.351 . S
C482 C483 1.434 . S
C483 C474 1.429 . S
C483 N480 1.350 . S
C483 C482 1.434 . S
C484 C485 1.369 . S
C484 C486 1.419 1_556 S
C484 H488 0.930 . S
C485 C484 1.369 . S
C485 C494 1.429 . S
C486 C484 1.419 1_554 S
C486 C487 1.363 . S
C486 H489 0.929 . S
C487 C486 1.363 . S
C487 C493 1.428 1_554 S
H488 C484 0.930 . S
H489 C486 0.929 . S
S490 N491 1.613 . S
S490 N492 1.610 . S
N491 S490 1.613 . S
N491 C494 1.350 . S
N492 S490 1.610 . S
N492 C493 1.351 . S
C493 C487 1.428 1_556 S
C493 N492 1.351 . S
C493 C494 1.434 . S
C494 C485 1.429 . S
C494 N491 1.350 . S
C494 C493 1.434 . S
C495 C496 1.369 . S
C495 C497 1.419 . S
C495 H499 0.930 . S
C496 C495 1.369 . S
C496 C505 1.429 . S
C497 C495 1.419 . S
C497 C498 1.363 . S
C497 H500 0.929 . S
C498 C497 1.363 . S
C498 C504 1.428 . S
H499 C495 0.930 . S
H500 C497 0.929 . S
S501 N502 1.613 1_554 S
S501 N503 1.610 . S
N502 S501 1.613 1_556 S
N502 C505 1.350 1_556 S
N503 S501 1.610 . S
N503 C504 1.351 . S
C504 C498 1.428 . S
C504 N503 1.351 . S
C504 C505 1.434 . S
C505 C496 1.429 . S
C505 N502 1.350 1_554 S
C505 C504 1.434 . S
C506 C507 1.369 . S
C506 C508 1.419 . S
C506 H510 0.930 . S
C507 C506 1.369 . S
C507 C516 1.429 . S
C508 C506 1.419 . S
C508 C509 1.363 . S
C508 H511 0.929 . S
C509 C508 1.363 . S
C509 C515 1.428 . S
H510 C506 0.930 . S
H511 C508 0.929 . S
S512 N513 1.613 . S
S512 N514 1.610 . S
N513 S512 1.613 . S
N513 C516 1.350 . S
N514 S512 1.610 . S
N514 C515 1.351 . S
C515 C509 1.428 . S
C515 N514 1.351 . S
C515 C516 1.434 . S
C516 C507 1.429 . S
C516 N513 1.350 . S
C516 C515 1.434 . S
C517 C518 1.369 . S
C517 C519 1.419 . S
C517 H521 0.930 . S
C518 C517 1.369 . S
C518 C527 1.429 . S
C519 C517 1.419 . S
C519 C520 1.363 . S
C519 H522 0.929 . S
C520 C519 1.363 . S
C520 C526 1.428 . S
H521 C517 0.930 . S
H522 C519 0.929 . S
S523 N524 1.613 . S
S523 N525 1.610 . S
N524 S523 1.613 . S
N524 C527 1.350 . S
N525 S523 1.610 . S
N525 C526 1.351 . S
C526 C520 1.428 . S
C526 N525 1.351 . S
C526 C527 1.434 . S
C527 C518 1.429 . S
C527 N524 1.350 . S
C527 C526 1.434 . S
C528 C529 1.369 . S
C528 C530 1.419 . S
C528 H532 0.930 . S
C529 C528 1.369 . S
C529 C538 1.429 . S
C530 C528 1.419 . S
C530 C531 1.363 . S
C530 H533 0.929 . S
C531 C530 1.363 . S
C531 C537 1.428 . S
H532 C528 0.930 . S
H533 C530 0.929 . S
S534 N535 1.613 . S
S534 N536 1.610 . S
N535 S534 1.613 . S
N535 C538 1.350 . S
N536 S534 1.610 . S
N536 C537 1.351 . S
C537 C531 1.428 . S
C537 N536 1.351 . S
C537 C538 1.434 . S
C538 C529 1.429 . S
C538 N535 1.350 . S
C538 C537 1.434 . S
C539 C540 1.369 . S
C539 C541 1.419 . S
C539 H543 0.930 . S
C540 C539 1.369 . S
C540 C549 1.429 . S
C541 C539 1.419 . S
C541 C542 1.363 . S
C541 H544 0.929 . S
C542 C541 1.363 . S
C542 C548 1.428 . S
H543 C539 0.930 . S
H544 C541 0.929 . S
S545 N546 1.613 . S
S545 N547 1.610 . S
N546 S545 1.613 . S
N546 C549 1.350 . S
N547 S545 1.610 . S
N547 C548 1.351 . S
C548 C542 1.428 . S
C548 N547 1.351 . S
C548 C549 1.434 . S
C549 C540 1.429 . S
C549 N546 1.350 . S
C549 C548 1.434 . S
C550 C551 1.369 . S
C550 C552 1.419 . S
C550 H554 0.930 . S
C551 C550 1.369 . S
C551 C560 1.429 . S
C552 C550 1.419 . S
C552 C553 1.363 . S
C552 H555 0.929 . S
C553 C552 1.363 . S
C553 C559 1.428 . S
H554 C550 0.930 . S
H555 C552 0.929 . S
S556 N557 1.613 . S
S556 N558 1.610 . S
N557 S556 1.613 . S
N557 C560 1.350 . S
N558 S556 1.610 . S
N558 C559 1.351 . S
C559 C553 1.428 . S
C559 N558 1.351 . S
C559 C560 1.434 . S
C560 C551 1.429 . S
C560 N557 1.350 . S
C560 C559 1.434 . S
C561 C562 1.369 . S
C561 C563 1.419 . S
C561 H565 0.930 . S
C562 C561 1.369 . S
C562 C571 1.429 . S
C563 C561 1.419 . S
C563 C564 1.363 . S
C563 H566 0.929 . S
C564 C563 1.363 . S
C564 C570 1.428 . S
H565 C561 0.930 . S
H566 C563 0.929 . S
S567 N568 1.613 . S
S567 N569 1.610 . S
N568 S567 1.613 . S
N568 C571 1.350 . S
N569 S567 1.610 . S
N569 C570 1.351 . S
C570 C564 1.428 . S
C570 N569 1.351 . S
C570 C571 1.434 . S
C571 C562 1.429 . S
C571 N568 1.350 . S
C571 C570 1.434 . S
C572 C573 1.369 . S
C572 C574 1.419 . S
C572 H576 0.930 . S
C573 C572 1.369 . S
C573 C582 1.429 . S
C574 C572 1.419 . S
C574 C575 1.363 . S
C574 H577 0.929 . S
C575 C574 1.363 . S
C575 C581 1.428 . S
H576 C572 0.930 . S
H577 C574 0.929 . S
S578 N579 1.613 . S
S578 N580 1.610 . S
N579 S578 1.613 . S
N579 C582 1.350 . S
N580 S578 1.610 . S
N580 C581 1.351 . S
C581 C575 1.428 . S
C581 N580 1.351 . S
C581 C582 1.434 . S
C582 C573 1.429 . S
C582 N579 1.350 . S
C582 C581 1.434 . S
C583 C584 1.369 . S
C583 C585 1.419 1_554 S
C583 H587 0.930 . S
C584 C583 1.369 . S
C584 C593 1.429 . S
C585 C583 1.419 1_556 S
C585 C586 1.363 . S
C585 H588 0.929 . S
C586 C585 1.363 . S
C586 C592 1.428 1_556 S
H587 C583 0.930 . S
H588 C585 0.929 . S
S589 N590 1.613 . S
S589 N591 1.610 1_554 S
N590 S589 1.613 . S
N590 C593 1.350 . S
N591 S589 1.610 1_556 S
N591 C592 1.351 1_556 S
C592 C586 1.428 1_554 S
C592 N591 1.351 1_554 S
C592 C593 1.434 . S
C593 C584 1.429 . S
C593 N590 1.350 . S
C593 C592 1.434 . S
C594 C595 1.369 . S
C594 C596 1.419 . S
C594 H598 0.930 . S
C595 C594 1.369 . S
C595 C604 1.429 . S
C596 C594 1.419 . S
C596 C597 1.363 . S
C596 H599 0.929 . S
C597 C596 1.363 . S
C597 C603 1.428 . S
H598 C594 0.930 . S
H599 C596 0.929 . S
S600 N601 1.613 . S
S600 N602 1.610 . S
N601 S600 1.613 . S
N601 C604 1.350 . S
N602 S600 1.610 . S
N602 C603 1.351 . S
C603 C597 1.428 . S
C603 N602 1.351 . S
C603 C604 1.434 . S
C604 C595 1.429 . S
C604 N601 1.350 . S
C604 C603 1.434 . S
C605 C606 1.369 . S
C605 C607 1.419 . S
C605 H609 0.930 . S
C606 C605 1.369 . S
C606 C615 1.429 . S
C607 C605 1.419 . S
C607 C608 1.363 . S
C607 H610 0.929 . S
C608 C607 1.363 . S
C608 C614 1.428 . S
H609 C605 0.930 . S
H610 C607 0.929 . S
S611 N612 1.613 . S
S611 N613 1.610 . S
N612 S611 1.613 . S
N612 C615 1.350 . S
N613 S611 1.610 . S
N613 C614 1.351 . S
C614 C608 1.428 . S
C614 N613 1.351 . S
C614 C615 1.434 . S
C615 C606 1.429 . S
C615 N612 1.350 . S
C615 C614 1.434 . S
C616 C617 1.369 . S
C616 C618 1.419 . S
C616 H620 0.930 . S
C617 C616 1.369 . S
C617 C626 1.429 . S
C618 C616 1.419 . S
C618 C619 1.363 . S
C618 H621 0.929 . S
C619 C618 1.363 . S
C619 C625 1.428 . S
H620 C616 0.930 . S
H621 C618 0.929 . S
S622 N623 1.613 . S
S622 N624 1.610 . S
N623 S622 1.613 . S
N623 C626 1.350 . S
N624 S622 1.610 . S
N624 C625 1.351 . S
C625 C619 1.428 . S
C625 N624 1.351 . S
C625 C626 1.434 . S
C626 C617 1.429 . S
C626 N623 1.350 . S
C626 C625 1.434 . S
C627 C628 1.369 . S
C627 C629 1.419 . S
C627 H631 0.930 . S
C628 C627 1.369 . S
C628 C637 1.429 . S
C629 C627 1.419 . S
C629 C630 1.363 . S
C629 H632 0.929 . S
C630 C629 1.363 . S
C630 C636 1.428 . S
H631 C627 0.930 . S
H632 C629 0.929 . S
S633 N634 1.613 . S
S633 N635 1.610 . S
N634 S633 1.613 . S
N634 C637 1.350 . S
N635 S633 1.610 . S
N635 C636 1.351 . S
C636 C630 1.428 . S
C636 N635 1.351 . S
C636 C637 1.434 . S
C637 C628 1.429 . S
C637 N634 1.350 . S
C637 C636 1.434 . S
C638 C639 1.369 . S
C638 C640 1.419 . S
C638 H642 0.930 . S
C639 C638 1.369 . S
C639 C648 1.429 1_556 S
C640 C638 1.419 . S
C640 C641 1.363 . S
C640 H643 0.929 . S
C641 C640 1.363 . S
C641 C647 1.428 . S
H642 C638 0.930 . S
H643 C640 0.929 . S
S644 N645 1.613 . S
S644 N646 1.610 . S
N645 S644 1.613 . S
N645 C648 1.350 . S
N646 S644 1.610 . S
N646 C647 1.351 1_554 S
C647 C641 1.428 . S
C647 N646 1.351 1_556 S
C647 C648 1.434 1_556 S
C648 C639 1.429 1_554 S
C648 N645 1.350 . S
C648 C647 1.434 1_554 S
C649 C650 1.369 . S
C649 C651 1.419 . S
C649 H653 0.930 . S
C650 C649 1.369 . S
C650 C659 1.429 . S
C651 C649 1.419 . S
C651 C652 1.363 . S
C651 H654 0.929 . S
C652 C651 1.363 . S
C652 C658 1.428 1_554 S
H653 C649 0.930 . S
H654 C651 0.929 . S
S655 N656 1.613 . S
S655 N657 1.610 . S
N656 S655 1.613 . S
N656 C659 1.350 1_556 S
N657 S655 1.610 . S
N657 C658 1.351 . S
C658 C652 1.428 1_556 S
C658 N657 1.351 . S
C658 C659 1.434 1_556 S
C659 C650 1.429 . S
C659 N656 1.350 1_554 S
C659 C658 1.434 1_554 S
C660 C661 1.369 . S
C660 C662 1.419 1_545 S
C660 H664 0.930 . S
C661 C660 1.369 . S
C661 C670 1.429 1_554 S
C662 C660 1.419 1_565 S
C662 C663 1.363 1_554 S
C662 H665 0.929 . S
C663 C662 1.363 1_556 S
C663 C669 1.428 . S
H664 C660 0.930 . S
H665 C662 0.929 . S
S666 N667 1.613 . S
S666 N668 1.610 1_545 S
N667 S666 1.613 . S
N667 C670 1.350 . S
N668 S666 1.610 1_565 S
N668 C669 1.351 . S
C669 C663 1.428 . S
C669 N668 1.351 . S
C669 C670 1.434 1_565 S
C670 C661 1.429 1_556 S
C670 N667 1.350 . S
C670 C669 1.434 1_545 S
C671 C672 1.369 . S
C671 C673 1.419 . S
C671 H675 0.930 . S
C672 C671 1.369 . S
C672 C681 1.429 . S
C673 C671 1.419 . S
C673 C674 1.363 . S
C673 H676 0.929 . S
C674 C673 1.363 . S
C674 C680 1.428 . S
H675 C671 0.930 . S
H676 C673 0.929 . S
S677 N678 1.613 . S
S677 N679 1.610 . S
N678 S677 1.613 . S
N678 C681 1.350 . S
N679 S677 1.610 . S
N679 C680 1.351 . S
C680 C674 1.428 . S
C680 N679 1.351 . S
C680 C681 1.434 . S
C681 C672 1.429 . S
C681 N678 1.350 . S
C681 C680 1.434 . S
C682 C683 1.369 . S
C682 C684 1.419 1_455 S
C682 H686 0.930 . S
C683 C682 1.369 . S
C683 C692 1.429 . S
C684 C682 1.419 1_655 S
C684 C685 1.363 . S
C684 H687 0.929 . S
C685 C684 1.363 . S
C685 C691 1.428 . S
H686 C682 0.930 . S
H687 C684 0.929 . S
S688 N689 1.613 1_655 S
S688 N690 1.610 . S
N689 S688 1.613 1_455 S
N689 C692 1.350 . S
N690 S688 1.610 . S
N690 C691 1.351 . S
C691 C685 1.428 . S
C691 N690 1.351 . S
C691 C692 1.434 1_655 S
C692 C683 1.429 . S
C692 N689 1.350 . S
C692 C691 1.434 1_455 S
C693 C694 1.369 . S
C693 C695 1.419 1_565 S
C693 H697 0.930 . S
C694 C693 1.369 . S
C694 C703 1.429 . S
C695 C693 1.419 1_545 S
C695 C696 1.363 . S
C695 H698 0.929 . S
C696 C695 1.363 . S
C696 C702 1.428 . S
H697 C693 0.930 . S
H698 C695 0.929 . S
S699 N700 1.613 1_545 S
S699 N701 1.610 . S
N700 S699 1.613 1_565 S
N700 C703 1.350 . S
N701 S699 1.610 . S
N701 C702 1.351 . S
C702 C696 1.428 . S
C702 N701 1.351 . S
C702 C703 1.434 1_545 S
C703 C694 1.429 . S
C703 N700 1.350 . S
C703 C702 1.434 1_565 S
C704 C705 1.369 . S
C704 C706 1.419 . S
C704 H708 0.930 . S
C705 C704 1.369 . S
C705 C714 1.429 . S
C706 C704 1.419 . S
C706 C707 1.363 . S
C706 H709 0.929 . S
C707 C706 1.363 . S
C707 C713 1.428 . S
H708 C704 0.930 . S
H709 C706 0.929 . S
S710 N711 1.613 . S
S710 N712 1.610 . S
N711 S710 1.613 . S
N711 C714 1.350 . S
N712 S710 1.610 . S
N712 C713 1.351 . S
C713 C707 1.428 . S
C713 N712 1.351 . S
C713 C714 1.434 . S
C714 C705 1.429 . S
C714 N711 1.350 . S
C714 C713 1.434 . S
C715 C716 1.369 . S
C715 C717 1.419 1_455 S
C715 H719 0.930 . S
C716 C715 1.369 . S
C716 C725 1.429 . S
C717 C715 1.419 1_655 S
C717 C718 1.363 . S
C717 H720 0.929 . S
C718 C717 1.363 . S
C718 C724 1.428 . S
H719 C715 0.930 . S
H720 C717 0.929 . S
S721 N722 1.613 . S
S721 N723 1.610 1_455 S
N722 S721 1.613 . S
N722 C725 1.350 . S
N723 S721 1.610 1_655 S
N723 C724 1.351 . S
C724 C718 1.428 . S
C724 N723 1.351 . S
C724 C725 1.434 1_655 S
C725 C716 1.429 . S
C725 N722 1.350 . S
C725 C724 1.434 1_455 S
C397 C271 1.317 . S
C399 C7 1.317 . S
C408 C304 1.320 . S
C410 C40 1.316 . S
C419 C337 1.319 . S
C421 C73 1.320 . S
C430 C370 1.321 . S
C432 C106 1.317 . S
C441 C139 1.316 . S
C443 C205 1.320 . S
C452 C238 1.316 . S
C454 C172 1.320 . S
C463 N13 1.406 . S
C465 N2 1.403 . S
C474 N35 1.404 . S
C476 N46 1.406 . S
C485 N68 1.402 . S
C487 N79 1.407 . S
C496 N101 1.399 1_554 S
C498 N112 1.409 . S
C507 N134 1.401 . S
C509 N145 1.407 . S
C518 N167 1.398 . S
C520 N178 1.409 . S
C529 N211 1.405 . S
C531 N200 1.404 . S
C540 N233 1.406 . S
C542 N244 1.403 . S
C551 N277 1.400 . S
C553 N266 1.408 . S
C562 N310 1.408 . S
C564 N299 1.402 . S
C573 N343 1.400 . S
C575 N332 1.408 1_556 S
C584 N365 1.404 . S
C586 N376 1.405 . S
C595 C21 1.595 . S
C597 C351 1.599 . S
C606 C54 1.596 . S
C608 C384 1.597 . S
C617 C87 1.597 . S
C619 C219 1.596 . S
C628 C252 1.596 . S
C630 C120 1.600 . S
C639 C285 1.603 . S
C641 C153 1.596 . S
C650 C318 1.596 . S
C652 C186 1.603 . S
C661 C18 1.449 . S
C663 C249 1.452 . S
C672 C282 1.451 . S
C674 C51 1.453 . S
C683 C315 1.452 . S
C685 C84 1.450 . S
C694 C117 1.453 . S
C696 C348 1.450 . S
C705 C381 1.450 . S
C707 C150 1.452 . S
C716 C183 1.452 . S
C718 C216 1.453 . S
