# Generated by pormake.
# Topology wiw, (3)-cn, num edge types: 1
# Building blocks:
#     Node 0, Type 0, BuildingBlock: OLANEW_clean_sbu_2, # of connection points: 3
#     Node 1, Type 0, BuildingBlock: OLANEW_clean_sbu_2, # of connection points: 3
#     Node 2, Type 0, BuildingBlock: OLANEW_clean_sbu_2, # of connection points: 3
#     Node 3, Type 0, BuildingBlock: OLANEW_clean_sbu_2, # of connection points: 3
#     Node 4, Type 0, BuildingBlock: OLANEW_clean_sbu_2, # of connection points: 3
#     Node 5, Type 0, BuildingBlock: OLANEW_clean_sbu_2, # of connection points: 3
#     Node 6, Type 0, BuildingBlock: OLANEW_clean_sbu_2, # of connection points: 3
#     Node 7, Type 0, BuildingBlock: OLANEW_clean_sbu_2, # of connection points: 3
#     Node 8, Type 0, BuildingBlock: OLANEW_clean_sbu_2, # of connection points: 3
#     Node 9, Type 0, BuildingBlock: OLANEW_clean_sbu_2, # of connection points: 3
#     Node 10, Type 0, BuildingBlock: OLANEW_clean_sbu_2, # of connection points: 3
#     Node 11, Type 0, BuildingBlock: OLANEW_clean_sbu_2, # of connection points: 3
#     Node 12, Type 0, BuildingBlock: OLANEW_clean_sbu_2, # of connection points: 3
#     Node 13, Type 0, BuildingBlock: OLANEW_clean_sbu_2, # of connection points: 3
#     Node 14, Type 0, BuildingBlock: OLANEW_clean_sbu_2, # of connection points: 3
#     Node 15, Type 0, BuildingBlock: OLANEW_clean_sbu_2, # of connection points: 3
#     Node 16, Type 0, BuildingBlock: OLANEW_clean_sbu_2, # of connection points: 3
#     Node 17, Type 0, BuildingBlock: OLANEW_clean_sbu_2, # of connection points: 3
#     Node 18, Type 0, BuildingBlock: OLANEW_clean_sbu_2, # of connection points: 3
#     Node 19, Type 0, BuildingBlock: OLANEW_clean_sbu_2, # of connection points: 3
#     Node 20, Type 0, BuildingBlock: OLANEW_clean_sbu_2, # of connection points: 3
#     Node 21, Type 0, BuildingBlock: OLANEW_clean_sbu_2, # of connection points: 3
#     Node 22, Type 0, BuildingBlock: OLANEW_clean_sbu_2, # of connection points: 3
#     Node 23, Type 0, BuildingBlock: OLANEW_clean_sbu_2, # of connection points: 3
#     Node 24, Type 0, BuildingBlock: OLANEW_clean_sbu_2, # of connection points: 3
#     Node 25, Type 0, BuildingBlock: OLANEW_clean_sbu_2, # of connection points: 3
#     Node 26, Type 0, BuildingBlock: OLANEW_clean_sbu_2, # of connection points: 3
#     Node 27, Type 0, BuildingBlock: OLANEW_clean_sbu_2, # of connection points: 3
#     Node 28, Type 0, BuildingBlock: OLANEW_clean_sbu_2, # of connection points: 3
#     Node 29, Type 0, BuildingBlock: OLANEW_clean_sbu_2, # of connection points: 3
#     Node 30, Type 0, BuildingBlock: OLANEW_clean_sbu_2, # of connection points: 3
#     Node 31, Type 0, BuildingBlock: OLANEW_clean_sbu_2, # of connection points: 3
#     Node 32, Type 0, BuildingBlock: OLANEW_clean_sbu_2, # of connection points: 3
#     Node 33, Type 0, BuildingBlock: OLANEW_clean_sbu_2, # of connection points: 3
#     Node 34, Type 0, BuildingBlock: OLANEW_clean_sbu_2, # of connection points: 3
#     Node 35, Type 0, BuildingBlock: OLANEW_clean_sbu_2, # of connection points: 3
#     Edge 36, Type (0, 0), BuildingBlock: MIFKUJ_clean_linker_0, # of connection points: 2
#     Edge 37, Type (0, 0), BuildingBlock: MIFKUJ_clean_linker_0, # of connection points: 2
#     Edge 38, Type (0, 0), BuildingBlock: MIFKUJ_clean_linker_0, # of connection points: 2
#     Edge 39, Type (0, 0), BuildingBlock: MIFKUJ_clean_linker_0, # of connection points: 2
#     Edge 40, Type (0, 0), BuildingBlock: MIFKUJ_clean_linker_0, # of connection points: 2
#     Edge 41, Type (0, 0), BuildingBlock: MIFKUJ_clean_linker_0, # of connection points: 2
#     Edge 42, Type (0, 0), BuildingBlock: MIFKUJ_clean_linker_0, # of connection points: 2
#     Edge 43, Type (0, 0), BuildingBlock: MIFKUJ_clean_linker_0, # of connection points: 2
#     Edge 44, Type (0, 0), BuildingBlock: MIFKUJ_clean_linker_0, # of connection points: 2
#     Edge 45, Type (0, 0), BuildingBlock: MIFKUJ_clean_linker_0, # of connection points: 2
#     Edge 46, Type (0, 0), BuildingBlock: MIFKUJ_clean_linker_0, # of connection points: 2
#     Edge 47, Type (0, 0), BuildingBlock: MIFKUJ_clean_linker_0, # of connection points: 2
#     Edge 48, Type (0, 0), BuildingBlock: MIFKUJ_clean_linker_0, # of connection points: 2
#     Edge 49, Type (0, 0), BuildingBlock: MIFKUJ_clean_linker_0, # of connection points: 2
#     Edge 50, Type (0, 0), BuildingBlock: MIFKUJ_clean_linker_0, # of connection points: 2
#     Edge 51, Type (0, 0), BuildingBlock: MIFKUJ_clean_linker_0, # of connection points: 2
#     Edge 52, Type (0, 0), BuildingBlock: MIFKUJ_clean_linker_0, # of connection points: 2
#     Edge 53, Type (0, 0), BuildingBlock: MIFKUJ_clean_linker_0, # of connection points: 2
#     Edge 54, Type (0, 0), BuildingBlock: MIFKUJ_clean_linker_0, # of connection points: 2
#     Edge 55, Type (0, 0), BuildingBlock: MIFKUJ_clean_linker_0, # of connection points: 2
#     Edge 56, Type (0, 0), BuildingBlock: MIFKUJ_clean_linker_0, # of connection points: 2
#     Edge 57, Type (0, 0), BuildingBlock: MIFKUJ_clean_linker_0, # of connection points: 2
#     Edge 58, Type (0, 0), BuildingBlock: MIFKUJ_clean_linker_0, # of connection points: 2
#     Edge 59, Type (0, 0), BuildingBlock: MIFKUJ_clean_linker_0, # of connection points: 2
#     Edge 60, Type (0, 0), BuildingBlock: MIFKUJ_clean_linker_0, # of connection points: 2
#     Edge 61, Type (0, 0), BuildingBlock: MIFKUJ_clean_linker_0, # of connection points: 2
#     Edge 62, Type (0, 0), BuildingBlock: MIFKUJ_clean_linker_0, # of connection points: 2
#     Edge 63, Type (0, 0), BuildingBlock: MIFKUJ_clean_linker_0, # of connection points: 2
#     Edge 64, Type (0, 0), BuildingBlock: MIFKUJ_clean_linker_0, # of connection points: 2
#     Edge 65, Type (0, 0), BuildingBlock: MIFKUJ_clean_linker_0, # of connection points: 2
#     Edge 66, Type (0, 0), BuildingBlock: MIFKUJ_clean_linker_0, # of connection points: 2
#     Edge 67, Type (0, 0), BuildingBlock: MIFKUJ_clean_linker_0, # of connection points: 2
#     Edge 68, Type (0, 0), BuildingBlock: MIFKUJ_clean_linker_0, # of connection points: 2
#     Edge 69, Type (0, 0), BuildingBlock: MIFKUJ_clean_linker_0, # of connection points: 2
#     Edge 70, Type (0, 0), BuildingBlock: MIFKUJ_clean_linker_0, # of connection points: 2
#     Edge 71, Type (0, 0), BuildingBlock: MIFKUJ_clean_linker_0, # of connection points: 2
#     Edge 72, Type (0, 0), BuildingBlock: MIFKUJ_clean_linker_0, # of connection points: 2
#     Edge 73, Type (0, 0), BuildingBlock: MIFKUJ_clean_linker_0, # of connection points: 2
#     Edge 74, Type (0, 0), BuildingBlock: MIFKUJ_clean_linker_0, # of connection points: 2
#     Edge 75, Type (0, 0), BuildingBlock: MIFKUJ_clean_linker_0, # of connection points: 2
#     Edge 76, Type (0, 0), BuildingBlock: MIFKUJ_clean_linker_0, # of connection points: 2
#     Edge 77, Type (0, 0), BuildingBlock: MIFKUJ_clean_linker_0, # of connection points: 2
#     Edge 78, Type (0, 0), BuildingBlock: MIFKUJ_clean_linker_0, # of connection points: 2
#     Edge 79, Type (0, 0), BuildingBlock: MIFKUJ_clean_linker_0, # of connection points: 2
#     Edge 80, Type (0, 0), BuildingBlock: MIFKUJ_clean_linker_0, # of connection points: 2
#     Edge 81, Type (0, 0), BuildingBlock: MIFKUJ_clean_linker_0, # of connection points: 2
#     Edge 82, Type (0, 0), BuildingBlock: MIFKUJ_clean_linker_0, # of connection points: 2
#     Edge 83, Type (0, 0), BuildingBlock: MIFKUJ_clean_linker_0, # of connection points: 2
#     Edge 84, Type (0, 0), BuildingBlock: MIFKUJ_clean_linker_0, # of connection points: 2
#     Edge 85, Type (0, 0), BuildingBlock: MIFKUJ_clean_linker_0, # of connection points: 2
#     Edge 86, Type (0, 0), BuildingBlock: MIFKUJ_clean_linker_0, # of connection points: 2
#     Edge 87, Type (0, 0), BuildingBlock: MIFKUJ_clean_linker_0, # of connection points: 2
#     Edge 88, Type (0, 0), BuildingBlock: MIFKUJ_clean_linker_0, # of connection points: 2
#     Edge 89, Type (0, 0), BuildingBlock: MIFKUJ_clean_linker_0, # of connection points: 2
# Relax obj value: 0.000
# Max RMSD: 0.053
# Mean RMSD: 0.053
data_MOF--net-wiw--node1-OLANEW_clean_sbu_2--edge1-MIFKUJ_clean_linker_0
_symmetry_space_group_name_H-M    P1
_symmetry_Int_Tables_number       1
_symmetry_cell_setting            triclinic
loop_
_symmetry_equiv_pos_as_xyz
'x, y, z'
_cell_length_a     135.94126
_cell_length_b     136.04023
_cell_length_c     42.720145
_cell_angle_alpha  90.144429
_cell_angle_beta   89.925449
_cell_angle_gamma 120.13062
loop_
_atom_site_label
_atom_site_type_symbol
_atom_site_fract_x
_atom_site_fract_y
_atom_site_fract_z
_atom_type_partial_charge
O0 O 0.31406 0.07164 0.08928 0.0
Cd1 Cd 0.3176 0.072 0.14326 0.0
O2 O 0.32846 0.08867 0.0972 0.0
Cd3 Cd 0.33996 0.10078 0.13139 0.0
O4 O 0.32762 0.10438 0.15362 0.0
C5 C 0.32687 0.11133 0.13548 0.0
O6 O 0.33347 0.11455 0.11066 0.0
C7 C 0.32143 0.08118 0.07848 0.0
C8 C 0.30384 0.05127 0.17254 0.0
O9 O 0.30173 0.05288 0.14453 0.0
O10 O 0.31224 0.0595 0.18648 0.0
O11 O 0.92068 0.24028 0.08843 0.0
Cd12 Cd 0.92073 0.24392 0.14257 0.0
O13 O 0.9037 0.23771 0.09723 0.0
Cd14 Cd 0.89185 0.23757 0.1316 0.0
O15 O 0.88817 0.22164 0.15378 0.0
C16 C 0.88121 0.21397 0.13545 0.0
O17 O 0.87805 0.21738 0.11063 0.0
C18 C 0.91098 0.23787 0.07829 0.0
C19 C 0.94126 0.25068 0.17286 0.0
O20 O 0.93972 0.24672 0.1451 0.0
O21 O 0.93319 0.25136 0.18599 0.0
O22 O 0.75213 0.67889 0.08787 0.0
Cd23 Cd 0.74831 0.67508 0.14206 0.0
O24 O 0.75455 0.66435 0.09708 0.0
Cd25 Cd 0.75398 0.65363 0.13612 0.0
O26 O 0.77088 0.66543 0.15856 0.0
C27 C 0.77694 0.66366 0.13938 0.0
O28 O 0.77147 0.65619 0.11718 0.0
C29 C 0.75462 0.6716 0.07822 0.0
C30 C 0.74152 0.68879 0.17264 0.0
O31 O 0.74476 0.69059 0.14418 0.0
O32 O 0.74167 0.68066 0.18697 0.0
O33 O 0.06939 0.31577 0.40344 0.0
Cd34 Cd 0.0694 0.31949 0.34883 0.0
O35 O 0.08596 0.33 0.39225 0.0
Cd36 Cd 0.09769 0.34163 0.35725 0.0
O37 O 0.10224 0.32995 0.33343 0.0
C38 C 0.10836 0.32898 0.35418 0.0
O39 O 0.10926 0.33417 0.38096 0.0
C40 C 0.07914 0.32323 0.41266 0.0
C41 C 0.04892 0.30574 0.31833 0.0
O42 O 0.0504 0.3034 0.34619 0.0
O43 O 0.05701 0.31443 0.3051 0.0
O44 O 0.67667 0.75432 0.40451 0.0
Cd45 Cd 0.67271 0.75067 0.34968 0.0
O46 O 0.66237 0.75663 0.39292 0.0
Cd47 Cd 0.65061 0.75687 0.35875 0.0
O48 O 0.66231 0.77301 0.33535 0.0
C49 C 0.66355 0.7805 0.35516 0.0
O50 O 0.65818 0.77674 0.38193 0.0
C51 C 0.66911 0.75653 0.41326 0.0
C52 C 0.68631 0.74372 0.31907 0.0
O53 O 0.68841 0.74735 0.3472 0.0
O54 O 0.67793 0.74361 0.30528 0.0
O55 O 0.23776 0.92299 0.4043 0.0
Cd56 Cd 0.2415 0.92287 0.34931 0.0
O57 O 0.23523 0.90629 0.39305 0.0
Cd58 Cd 0.23517 0.89428 0.35933 0.0
O59 O 0.2191 0.89019 0.33644 0.0
C60 C 0.21151 0.88364 0.35557 0.0
O61 O 0.2151 0.88133 0.38157 0.0
C62 C 0.23524 0.91316 0.41319 0.0
C63 C 0.24823 0.94336 0.31865 0.0
O64 O 0.24503 0.94196 0.34714 0.0
O65 O 0.2481 0.93506 0.30431 0.0
O66 O 0.67133 0.92103 0.90201 0.0
Cd67 Cd 0.68473 0.92556 0.86081 0.0
O68 O 0.67874 0.91023 0.90588 0.0
Cd69 Cd 0.69004 0.90414 0.89204 0.0
O70 O 0.67954 0.89472 0.85273 0.0
C71 C 0.67253 0.8853 0.86496 0.0
O72 O 0.67374 0.88388 0.89482 0.0
C73 C 0.67198 0.91329 0.91647 0.0
C74 C 0.68914 0.94391 0.82287 0.0
O75 O 0.68102 0.94037 0.84265 0.0
O76 O 0.69459 0.93856 0.82098 0.0
O77 O 0.07058 0.75028 0.90256 0.0
Cd78 Cd 0.06634 0.75952 0.86087 0.0
O79 O 0.08078 0.7687 0.90466 0.0
Cd80 Cd 0.08605 0.78552 0.88606 0.0
O81 O 0.09712 0.78583 0.8471 0.0
C82 C 0.10578 0.78822 0.86355 0.0
O83 O 0.10497 0.78955 0.89374 0.0
C84 C 0.07797 0.7591 0.91661 0.0
C85 C 0.04836 0.74588 0.82156 0.0
O86 O 0.05183 0.74119 0.84101 0.0
O87 O 0.05356 0.75671 0.82052 0.0
O88 O 0.24151 0.3211 0.90222 0.0
Cd89 Cd 0.23252 0.30751 0.86119 0.0
O90 O 0.22315 0.31315 0.90517 0.0
Cd91 Cd 0.20642 0.30126 0.88636 0.0
O92 O 0.20618 0.31188 0.8469 0.0
C93 C 0.20445 0.31865 0.86325 0.0
O94 O 0.20396 0.31713 0.89372 0.0
C95 C 0.23288 0.32009 0.91626 0.0
C96 C 0.24626 0.30295 0.82287 0.0
O97 O 0.25095 0.31108 0.84263 0.0
O98 O 0.23543 0.29756 0.82118 0.0
O99 O 0.9189 0.67387 0.59237 0.0
Cd100 Cd 0.92335 0.68712 0.63353 0.0
O101 O 0.90792 0.68109 0.58806 0.0
Cd102 Cd 0.90153 0.69213 0.60161 0.0
O103 O 0.89265 0.68099 0.6404 0.0
C104 C 0.88313 0.67331 0.63009 0.0
O105 O 0.88137 0.67332 0.59986 0.0
C106 C 0.91116 0.67446 0.57764 0.0
C107 C 0.94169 0.69154 0.67149 0.0
O108 O 0.9382 0.68342 0.65172 0.0
O109 O 0.9363 0.69695 0.67327 0.0
O110 O 0.31878 0.24434 0.59121 0.0
Cd111 Cd 0.30544 0.23502 0.63359 0.0
O112 O 0.31069 0.22604 0.59097 0.0
Cd113 Cd 0.30022 0.20809 0.60107 0.0
O114 O 0.31052 0.20911 0.641 0.0
C115 C 0.31757 0.20665 0.62933 0.0
O116 O 0.31656 0.20404 0.59946 0.0
C117 C 0.31731 0.23544 0.5777 0.0
C118 C 0.30108 0.24863 0.6728 0.0
O119 O 0.30928 0.25333 0.65334 0.0
O120 O 0.29541 0.2378 0.67386 0.0
O121 O 0.74893 0.07344 0.59227 0.0
Cd122 Cd 0.75779 0.0689 0.63371 0.0
O123 O 0.76721 0.08428 0.58819 0.0
Cd124 Cd 0.78434 0.08985 0.60404 0.0
O125 O 0.78385 0.09975 0.64364 0.0
C126 C 0.7865 0.10895 0.62973 0.0
O127 O 0.78898 0.10963 0.59979 0.0
C128 C 0.75735 0.08124 0.57786 0.0
C129 C 0.74391 0.05086 0.6728 0.0
O130 O 0.73929 0.05437 0.65322 0.0
O131 O 0.75474 0.05604 0.67408 0.0
O132 O 0.98223 0.40568 0.4231 0.0
Cd133 Cd 0.98582 0.40602 0.4775 0.0
O134 O -0.00598 0.4225 0.43217 0.0
Cd135 Cd 0.00579 0.43487 0.46531 0.0
O136 O 0.99597 0.4385 0.48722 0.0
C137 C 0.99581 0.44596 0.46992 0.0
O138 O 0.00067 0.44999 0.4469 0.0
C139 C 0.98965 0.41525 0.41274 0.0
C140 C 0.97201 0.38531 0.50691 0.0
O141 O 0.9701 0.38691 0.47871 0.0
O142 O 0.98027 0.39354 0.52125 0.0
O143 O 0.58681 0.5749 0.42234 0.0
Cd144 Cd 0.58636 0.57806 0.47688 0.0
O145 O 0.57 0.57243 0.43219 0.0
Cd146 Cd 0.55756 0.57179 0.46524 0.0
O147 O 0.55382 0.55586 0.48723 0.0
C148 C 0.54622 0.54818 0.47022 0.0
O149 O 0.54205 0.55141 0.4474 0.0
C150 C 0.57717 0.57278 0.41252 0.0
C151 C 0.60694 0.58496 0.50696 0.0
O152 O 0.60544 0.58146 0.4787 0.0
O153 O 0.59866 0.58497 0.52101 0.0
O154 O 0.41814 0.01083 0.42137 0.0
Cd155 Cd 0.41435 0.00687 0.47626 0.0
O156 O 0.42047 -0.00347 0.43263 0.0
Cd157 Cd 0.42023 0.98658 0.46517 0.0
O158 O 0.43664 -0.00363 0.48727 0.0
C159 C 0.44425 -0.00367 0.47026 0.0
O160 O 0.44053 0.99108 0.44753 0.0
C161 C 0.42048 0.00337 0.41248 0.0
C162 C 0.40764 0.0206 0.50713 0.0
O163 O 0.4108 0.02239 0.47861 0.0
O164 O 0.40779 0.01245 0.52136 0.0
O165 O 0.73763 0.65003 0.73674 0.0
Cd166 Cd 0.73781 0.65383 0.68245 0.0
O167 O 0.75433 0.66436 0.72716 0.0
Cd168 Cd 0.76664 0.67612 0.69385 0.0
O169 O 0.77034 0.66393 0.67079 0.0
C170 C 0.77685 0.66281 0.68983 0.0
O171 O 0.77923 0.66871 0.71593 0.0
C172 C 0.7472 0.65753 0.74686 0.0
C173 C 0.71714 0.64002 0.65287 0.0
O174 O 0.71868 0.6382 0.68121 0.0
O175 O 0.7254 0.64821 0.63847 0.0
O176 O 0.34272 0.08606 0.73826 0.0
Cd177 Cd 0.33884 0.08245 0.68418 0.0
O178 O 0.32815 0.08864 0.7286 0.0
Cd179 Cd 0.31723 0.08829 0.69013 0.0
O180 O 0.32867 0.10488 0.66677 0.0
C181 C 0.32868 0.11152 0.68771 0.0
O182 O 0.323 0.10667 0.71344 0.0
C183 C 0.33536 0.08858 0.74753 0.0
C184 C 0.35238 0.0755 0.65331 0.0
O185 O 0.35459 0.07916 0.6814 0.0
O186 O 0.34395 0.07538 0.63981 0.0
O187 O 0.9063 0.25451 0.73704 0.0
Cd188 Cd 0.91008 0.25455 0.68307 0.0
O189 O 0.90385 0.23747 0.72884 0.0
Cd190 Cd 0.90424 0.22708 0.69032 0.0
O191 O 0.8876 0.22241 0.6679 0.0
C192 C 0.88145 0.21415 0.68576 0.0
O193 O 0.88674 0.21137 0.70654 0.0
C194 C 0.9039 0.24483 0.74731 0.0
C195 C 0.91695 0.27515 0.65302 0.0
O196 O 0.91355 0.27364 0.68136 0.0
O197 O 0.91688 0.26687 0.63871 0.0
O198 O 0.33748 0.25305 0.23336 0.0
Cd199 Cd 0.3511 0.25763 0.19167 0.0
O200 O 0.34471 0.24213 0.23651 0.0
Cd201 Cd 0.35569 0.23557 0.2241 0.0
O202 O 0.34474 0.22677 0.18467 0.0
C203 C 0.33668 0.21742 0.19468 0.0
O204 O 0.33598 0.21599 0.22519 0.0
C205 C 0.33804 0.24522 0.24759 0.0
C206 C 0.35501 0.27563 0.15261 0.0
O207 O 0.34723 0.27207 0.17337 0.0
O208 O 0.36088 0.27074 0.1503 0.0
O209 O 0.73886 0.08203 0.23454 0.0
Cd210 Cd 0.73495 0.09137 0.1921 0.0
O211 O 0.7492 0.10033 0.23475 0.0
Cd212 Cd 0.75695 0.11829 0.2247 0.0
O213 O 0.76577 0.11643 0.18474 0.0
C214 C 0.77509 0.11765 0.19468 0.0
O215 O 0.77652 0.11832 0.2252 0.0
C216 C 0.74635 0.09093 0.24804 0.0
C217 C 0.71695 0.07781 0.15293 0.0
O218 O 0.72038 0.07306 0.17233 0.0
O219 O 0.72224 0.08863 0.15182 0.0
O220 O 0.91018 0.65479 0.23453 0.0
Cd221 Cd 0.90081 0.64171 0.19226 0.0
O222 O 0.89184 0.64681 0.23567 0.0
Cd223 Cd 0.87412 0.63629 0.22309 0.0
O224 O 0.87469 0.64652 0.18315 0.0
C225 C 0.87212 0.65328 0.1962 0.0
O226 O 0.86959 0.65181 0.22613 0.0
C227 C 0.90136 0.65338 0.24846 0.0
C228 C 0.91453 0.63714 0.15422 0.0
O229 O 0.91919 0.64531 0.17385 0.0
O230 O 0.9037 0.63167 0.15254 0.0
O231 O 0.58544 0.00608 0.92672 0.0
Cd232 Cd 0.58947 0.01899 0.96822 0.0
O233 O 0.57481 0.01374 0.92218 0.0
Cd234 Cd 0.56913 0.02494 0.94036 0.0
O235 O 0.55878 0.01421 0.9799 0.0
C236 C 0.54979 0.00796 0.96454 0.0
O237 O 0.54987 0.0102 0.9346 0.0
C238 C 0.5781 0.00717 0.91144 0.0
C239 C 0.60778 0.02342 0.00291 0.0
O240 O 0.60424 0.01517 0.98612 0.0
O241 O 0.60245 0.02888 0.00477 0.0
O242 O 0.98609 0.57779 0.9259 0.0
Cd243 Cd 0.97347 0.56877 0.96855 0.0
O244 O 0.97865 0.55954 0.92341 0.0
Cd245 Cd 0.96855 0.54185 0.93573 0.0
O246 O 0.97957 0.54402 0.97508 0.0
C247 C 0.98751 0.54257 0.96493 0.0
O248 O 0.98788 0.54136 0.9345 0.0
C249 C 0.98501 0.56922 0.9113 0.0
C250 C 0.96925 0.58274 0.00428 0.0
O251 O 0.97746 0.58728 0.9877 0.0
O252 O 0.9636 0.57192 0.00555 0.0
O253 O 0.41503 0.40732 0.92722 0.0
Cd254 Cd 0.42397 0.40292 0.96861 0.0
O255 O 0.43324 0.41835 0.92195 0.0
Cd256 Cd 0.45061 0.42478 0.93593 0.0
O257 O 0.44865 0.43383 0.97467 0.0
C258 C 0.45088 0.44334 0.96359 0.0
O259 O 0.4535 0.44516 0.93376 0.0
C260 C 0.42329 0.41495 0.91189 0.0
C261 C 0.40975 0.38478 0.00365 0.0
O262 O 0.40556 0.38819 0.98576 0.0
O263 O 0.42053 0.38996 0.00678 0.0
O264 O 0.64785 0.73961 0.75751 0.0
Cd265 Cd 0.65145 0.73997 0.81143 0.0
O266 O 0.66245 0.75664 0.76583 0.0
Cd267 Cd 0.67305 0.76728 0.80456 0.0
O268 O 0.6614 0.77242 0.82769 0.0
C269 C 0.66171 0.77918 0.80682 0.0
O270 O 0.66765 0.78006 0.78161 0.0
C271 C 0.65533 0.74919 0.74709 0.0
C272 C 0.63774 0.71937 0.84132 0.0
O273 O 0.63574 0.72088 0.81312 0.0
O274 O 0.64605 0.72765 0.85539 0.0
O275 O 0.25228 0.90883 0.75811 0.0
Cd276 Cd 0.25208 0.91204 0.81197 0.0
O277 O 0.23522 0.9063 0.76574 0.0
Cd278 Cd 0.22348 0.90592 0.8011 0.0
O279 O 0.21941 0.88994 0.82459 0.0
C280 C 0.21118 0.88304 0.80762 0.0
O281 O 0.2075 0.88727 0.78602 0.0
C282 C 0.24274 0.90669 0.74723 0.0
C283 C 0.27265 0.91881 0.84173 0.0
O284 O 0.27109 0.91483 0.81399 0.0
O285 O 0.26461 0.91949 0.85498 0.0
O286 O 0.08389 0.34462 0.75686 0.0
Cd287 Cd 0.08025 0.34097 0.8109 0.0
O288 O 0.0864 0.33021 0.76599 0.0
Cd289 Cd 0.08637 0.31849 0.8008 0.0
O290 O 0.10234 0.33029 0.82436 0.0
C291 C 0.10934 0.32915 0.80743 0.0
O292 O 0.10528 0.32135 0.7854 0.0
C293 C 0.08633 0.33733 0.74695 0.0
C294 C 0.07328 0.35458 0.84114 0.0
O295 O 0.07718 0.35696 0.81332 0.0
O296 O 0.07295 0.34602 0.85442 0.0
O297 O 0.40279 0.98415 0.06841 0.0
Cd298 Cd 0.40333 0.98777 0.01402 0.0
O299 O 0.41993 -0.00374 0.0585 0.0
Cd300 Cd 0.43215 0.00788 0.02452 0.0
O301 O 0.4359 0.99811 0.00064 0.0
C302 C 0.4447 -0.00234 0.01746 0.0
O303 O 0.44821 0.0058 0.03842 0.0
C304 C 0.4124 0.99172 0.07837 0.0
C305 C 0.38283 0.97381 0.98691 0.0
O306 O 0.38436 0.9716 0.01179 0.0
O307 O 0.39086 0.98253 0.9736 0.0
O308 O 0.00844 0.42029 0.06989 0.0
Cd309 Cd 0.00453 0.41652 0.01504 0.0
O310 O -0.00586 0.42269 0.05887 0.0
Cd311 Cd 0.98469 0.42284 0.02545 0.0
O312 O -0.00579 0.43892 0.00302 0.0
C313 C -0.00503 0.44658 0.02145 0.0
O314 O 0.99116 0.44311 0.04679 0.0
C315 C 0.001 0.42264 0.07889 0.0
C316 C 0.01838 0.40983 0.98706 0.0
O317 O 0.02024 0.41321 0.01255 0.0
O318 O 0.01002 0.40965 0.97305 0.0
O319 O 0.57209 0.58914 0.07014 0.0
Cd320 Cd 0.57576 0.58883 0.01513 0.0
O321 O 0.56992 0.57264 0.05818 0.0
Cd322 Cd 0.56965 0.56075 0.02344 0.0
O323 O 0.5534 0.55602 -0.00026 0.0
C324 C 0.54615 0.54995 0.02027 0.0
O325 O 0.55025 0.54897 0.04722 0.0
C326 C 0.57004 0.57944 0.0788 0.0
C327 C 0.58261 0.6092 0.98731 0.0
O328 O 0.57927 0.6079 0.01277 0.0
O329 O 0.5825 0.60087 0.97318 0.0
O330 O 0.00361 0.58725 0.56727 0.0
Cd331 Cd 0.01659 0.59146 0.526 0.0
O332 O 0.0108 0.57623 0.57225 0.0
Cd333 Cd 0.02149 0.56953 0.55767 0.0
O334 O 0.01104 0.56073 0.51725 0.0
C335 C 0.00226 0.55193 0.52717 0.0
O336 O 0.00049 0.55142 0.55757 0.0
C337 C 0.00441 0.57977 0.58268 0.0
C338 C 0.02094 0.60983 0.48842 0.0
O339 O 0.01282 0.60632 0.50819 0.0
O340 O 0.02634 0.60443 0.4865 0.0
O341 O 0.40423 0.41666 0.56817 0.0
Cd342 Cd 0.4006 0.42602 0.52579 0.0
O343 O 0.41509 0.4349 0.57069 0.0
Cd344 Cd 0.4226 0.45255 0.55751 0.0
O345 O 0.4316 0.4514 0.51669 0.0
C346 C 0.44021 0.4511 0.52664 0.0
O347 O 0.44042 0.44938 0.5569 0.0
C348 C 0.41172 0.42523 0.58284 0.0
C349 C 0.38246 0.41198 0.48752 0.0
O350 O 0.38597 0.40776 0.5083 0.0
O351 O 0.38757 0.42276 0.4846 0.0
O352 O 0.575 0.98811 0.5676 0.0
Cd353 Cd 0.566 0.97535 0.52575 0.0
O354 O 0.55675 0.981 0.57222 0.0
Cd355 Cd 0.53939 0.9706 0.55695 0.0
O356 O 0.54051 0.98077 0.51624 0.0
C357 C 0.54097 0.98974 0.52643 0.0
O358 O 0.54288 0.9917 0.55664 0.0
C359 C 0.56667 0.98725 0.58307 0.0
C360 C 0.58012 0.97105 0.48851 0.0
O361 O 0.58456 0.97912 0.50849 0.0
O362 O 0.56931 0.96549 0.48618 0.0
O363 O 0.25133 0.3396 0.25712 0.0
Cd364 Cd 0.25543 0.35317 0.29949 0.0
O365 O 0.24111 0.34763 0.25683 0.0
Cd366 Cd 0.23347 0.35795 0.26635 0.0
O367 O 0.22439 0.34745 0.30602 0.0
C368 C 0.21479 0.34025 0.295 0.0
O369 O 0.21296 0.34105 0.2652 0.0
C370 C 0.2439 0.34103 0.24353 0.0
C371 C 0.27333 0.35729 0.33879 0.0
O372 O 0.26989 0.34952 0.31802 0.0
O373 O 0.26835 0.36308 0.341 0.0
O374 O 0.65249 0.91252 0.25692 0.0
Cd375 Cd 0.63923 0.90314 0.29955 0.0
O376 O 0.64453 0.89424 0.25668 0.0
Cd377 Cd 0.63436 0.87626 0.26631 0.0
O378 O 0.64514 0.87803 0.30581 0.0
C379 C 0.65262 0.87597 0.29526 0.0
O380 O 0.65227 0.8738 0.26519 0.0
C381 C 0.65107 0.90364 0.24333 0.0
C382 C 0.63501 0.91683 0.33892 0.0
O383 O 0.64316 0.92139 0.31927 0.0
O384 O 0.62914 0.90601 0.33996 0.0
O385 O 0.08011 0.74158 0.25759 0.0
Cd386 Cd 0.0891 0.7371 0.29933 0.0
O387 O 0.09833 0.75234 0.25539 0.0
Cd388 Cd 0.116 0.759 0.26692 0.0
O389 O 0.11388 0.76789 0.30605 0.0
C390 C 0.11565 0.77736 0.29576 0.0
O391 O 0.11734 0.77908 0.2655 0.0
C392 C 0.08868 0.74941 0.24378 0.0
C393 C 0.07527 0.71904 0.33842 0.0
O394 O 0.07063 0.72256 0.31889 0.0
O395 O 0.0861 0.72423 0.33968 0.0
H396 H 0.24407 0.94849 0.26016 0.0
H397 H 0.25335 0.96728 0.23523 0.0
H398 H 0.2733 0.98201 0.3189 0.0
H399 H 0.26366 0.96336 0.34407 0.0
H400 H 0.26687 0.99535 0.2993 0.0
H401 H 0.2843 0.97743 0.25015 0.0
H402 H 0.28672 0.96306 0.22153 0.0
H403 H 0.27096 0.96779 0.14029 0.0
H404 H 0.2681 0.98197 0.16885 0.0
H405 H 0.30643 0.04578 0.23186 0.0
H406 H 0.2968 0.02712 0.25629 0.0
H407 H 0.27684 0.01276 0.17252 0.0
H408 H 0.28669 0.03148 0.14759 0.0
H409 H 0.28338 -0.00071 0.19212 0.0
H410 H 0.26597 0.01727 0.24142 0.0
H411 H 0.26357 0.03161 0.2702 0.0
H412 H 0.27934 0.0268 0.35128 0.0
H413 H 0.28219 0.01265 0.32255 0.0
C414 C 0.25039 0.9558 0.27312 0.0
C415 C 0.25316 0.95459 0.30396 0.0
C416 C 0.25577 0.9665 0.25884 0.0
C417 C 0.26421 0.97609 0.2749 0.0
C418 C 0.26685 0.9748 0.30594 0.0
C419 C 0.26132 0.96416 0.32037 0.0
C420 C 0.27003 0.98752 0.25974 0.0
C421 C 0.27062 0.99673 0.27614 0.0
C422 C 0.27457 0.98935 0.22898 0.0
C423 C 0.27577 0.98055 0.21188 0.0
C424 C 0.28115 0.97525 0.22639 0.0
C425 C 0.28263 0.96717 0.21016 0.0
C426 C 0.27895 0.96449 0.17916 0.0
C427 C 0.27375 0.96986 0.16434 0.0
C428 C 0.27216 0.97789 0.18059 0.0
C429 C 0.29992 0.03868 0.2187 0.0
C430 C 0.29727 0.04011 0.18787 0.0
C431 C 0.29437 0.028 0.23279 0.0
C432 C 0.28594 0.01851 0.21655 0.0
C433 C 0.28328 0.01994 0.18564 0.0
C434 C 0.28885 0.03065 0.17147 0.0
C435 C 0.28014 0.00708 0.23162 0.0
C436 C 0.27961 -0.00211 0.21526 0.0
C437 C 0.27565 0.00528 0.26243 0.0
C438 C 0.27449 0.01409 0.27961 0.0
C439 C 0.26913 0.01942 0.26518 0.0
C440 C 0.26766 0.02749 0.2815 0.0
C441 C 0.27133 0.03013 0.31251 0.0
C442 C 0.27654 0.02475 0.32723 0.0
C443 C 0.27813 0.01674 0.31089 0.0
H444 H 0.27011 0.03634 0.32518 0.0
H445 H 0.28016 0.95826 0.16658 0.0
H446 H 0.03756 0.28388 0.29636 0.0
H447 H 0.01883 0.27436 0.27066 0.0
H448 H 0.01668 0.30482 0.28179 0.0
H449 H 0.03529 0.3142 0.30736 0.0
H450 H -0.00245 0.288 0.29584 0.0
H451 H 0.02176 0.29609 0.21034 0.0
H452 H 0.03699 0.29714 0.17683 0.0
H453 H 0.01935 0.26071 0.1699 0.0
H454 H 0.00413 0.25943 0.20431 0.0
H455 H 0.95296 0.27163 0.1967 0.0
H456 H 0.97164 0.28073 0.22148 0.0
H457 H 0.97323 0.25003 0.20862 0.0
H458 H 0.95457 0.24107 0.18236 0.0
H459 H 0.99261 0.26696 0.19554 0.0
H460 H 0.96833 0.25892 0.28116 0.0
H461 H 0.95316 0.25795 0.31475 0.0
H462 H 0.9709 0.29439 0.32147 0.0
H463 H 0.98606 0.29559 0.28698 0.0
C464 C 0.03302 0.28845 0.2932 0.0
C465 C 0.03773 0.29972 0.30354 0.0
C466 C 0.02239 0.28309 0.27833 0.0
C467 C 0.01636 0.28891 0.27382 0.0
C468 C 0.02112 0.30014 0.28482 0.0
C469 C 0.03175 0.30551 0.29933 0.0
C470 C 0.00495 0.28322 0.25852 0.0
C471 C -0.00401 0.28362 0.27356 0.0
C472 C 0.00273 0.27712 0.22999 0.0
C473 C 0.01197 0.27767 0.21045 0.0
C474 C 0.02123 0.2883 0.20218 0.0
C475 C 0.02983 0.28893 0.18296 0.0
C476 C 0.02916 0.279 0.17136 0.0
C477 C 0.01987 0.26839 0.17903 0.0
C478 C 0.01128 0.2677 0.1985 0.0
C479 C 0.9573 0.26683 0.19936 0.0
C480 C 0.9524 0.25569 0.18799 0.0
C481 C 0.96794 0.272 0.21366 0.0
C482 C 0.97379 0.26602 0.21762 0.0
C483 C 0.96888 0.25482 0.20598 0.0
C484 C 0.95826 0.2497 0.19105 0.0
C485 C 0.98518 0.27164 0.23301 0.0
C486 C 0.99416 0.27132 0.21787 0.0
C487 C 0.98741 0.27782 0.26146 0.0
C488 C 0.97819 0.27733 0.28098 0.0
C489 C 0.9689 0.26674 0.2893 0.0
C490 C 0.96033 0.26614 0.30857 0.0
C491 C 0.96105 0.2761 0.32017 0.0
C492 C 0.97035 0.28669 0.31238 0.0
C493 C 0.97891 0.28734 0.29285 0.0
H494 H 0.95442 0.27561 0.33526 0.0
H495 H 0.03582 0.27952 0.15633 0.0
H496 H 0.74443 0.69668 0.23264 0.0
H497 H 0.73515 0.70617 0.2576 0.0
H498 H 0.71774 0.70385 0.17093 0.0
H499 H 0.72739 0.69484 0.14582 0.0
H500 H 0.7243 0.7232 0.19397 0.0
H501 H 0.70448 0.68667 0.23597 0.0
H502 H 0.70066 0.66895 0.26178 0.0
H503 H 0.71485 0.68715 0.34756 0.0
H504 H 0.7191 0.70511 0.3219 0.0
H505 H 0.68491 0.7371 0.25827 0.0
H506 H 0.69455 0.72806 0.23367 0.0
H507 H 0.71205 0.73075 0.32039 0.0
H508 H 0.70223 0.73962 0.34532 0.0
H509 H 0.70535 0.71116 0.2974 0.0
H510 H 0.72516 0.74772 0.25525 0.0
H511 H 0.72897 0.76541 0.22927 0.0
H512 H 0.71477 0.74711 0.14362 0.0
H513 H 0.71051 0.72917 0.16947 0.0
C514 C 0.73867 0.69829 0.21903 0.0
C515 C 0.73662 0.69512 0.1874 0.0
C516 C 0.73329 0.70361 0.23331 0.0
C517 C 0.72555 0.70557 0.21639 0.0
C518 C 0.72364 0.70246 0.18457 0.0
C519 C 0.72919 0.69736 0.17018 0.0
C520 C 0.71972 0.71117 0.23153 0.0
C521 C 0.71994 0.72039 0.21625 0.0
C522 C 0.71437 0.70783 0.26125 0.0
C523 C 0.71233 0.69726 0.27678 0.0
C524 C 0.70699 0.68694 0.26016 0.0
C525 C 0.70471 0.67686 0.27478 0.0
C526 C 0.70755 0.67693 0.30625 0.0
C527 C 0.7127 0.68712 0.32316 0.0
C528 C 0.71509 0.69728 0.30854 0.0
C529 C 0.69089 0.73586 0.27203 0.0
C530 C 0.69287 0.73913 0.30366 0.0
C531 C 0.69645 0.73073 0.25789 0.0
C532 C 0.70419 0.72885 0.27494 0.0
C533 C 0.70616 0.73213 0.30664 0.0
C534 C 0.70061 0.73728 0.32082 0.0
C535 C 0.70999 0.72321 0.25989 0.0
C536 C 0.70973 0.71397 0.27513 0.0
C537 C 0.7153 0.72652 0.23012 0.0
C538 C 0.71731 0.73708 0.21452 0.0
C539 C 0.72264 0.74741 0.23105 0.0
C540 C 0.72492 0.75749 0.21633 0.0
C541 C 0.72209 0.75737 0.18484 0.0
C542 C 0.71692 0.74716 0.16804 0.0
C543 C 0.71453 0.73703 0.18275 0.0
H544 H 0.72393 0.76521 0.17344 0.0
H545 H 0.70572 0.66909 0.31756 0.0
H546 H 0.70723 0.95354 0.78433 0.0
H547 H 0.71603 0.97212 0.76046 0.0
H548 H 0.68943 0.97741 0.79728 0.0
H549 H 0.68042 0.95848 0.82166 0.0
H550 H 0.69394 0.98492 0.74097 0.0
H551 H 0.71698 0.99057 0.82811 0.0
H552 H 0.72887 0.98778 0.86634 0.0
H553 H 0.75369 0.99427 0.79496 0.0
H554 H 0.74173 0.99676 0.75591 0.0
H555 H 0.72367 0.04195 0.70632 0.0
H556 H 0.71378 0.02313 0.73179 0.0
H557 H 0.73974 0.01631 0.69794 0.0
H558 H 0.74964 0.03494 0.67394 0.0
H559 H 0.73565 0.00963 0.7534 0.0
H560 H 0.71269 0.00398 0.66617 0.0
H561 H 0.70076 0.00672 0.6279 0.0
H562 H 0.67596 0.00023 0.69933 0.0
H563 H 0.68794 -0.0022 0.73837 0.0
C564 C 0.70314 0.95856 0.7873 0.0
C565 C 0.69318 0.95455 0.80516 0.0
C566 C 0.70831 0.96931 0.77389 0.0
C567 C 0.70361 0.97635 0.77769 0.0
C568 C 0.6933 0.97218 0.7943 0.0
C569 C 0.68812 0.96135 0.80807 0.0
C570 C 0.70936 0.98788 0.76328 0.0
C571 C 0.70292 0.99093 0.74435 0.0
C572 C 0.72123 0.99554 0.76633 0.0
C573 C 0.72833 0.99361 0.78899 0.0
C574 C 0.72487 0.99119 0.82039 0.0
C575 C 0.73163 0.9897 0.84223 0.0
C576 C 0.74201 0.99081 0.83306 0.0
C577 C 0.74563 0.99338 0.80197 0.0
C578 C 0.73883 0.99479 0.77993 0.0
C579 C 0.72717 0.03636 0.70448 0.0
C580 C 0.73742 0.03983 0.68842 0.0
C581 C 0.72153 0.02562 0.71883 0.0
C582 C 0.72595 0.01821 0.71653 0.0
C583 C 0.73616 0.02182 0.70028 0.0
C584 C 0.74182 0.03249 0.68656 0.0
C585 C 0.72017 0.00676 0.73149 0.0
C586 C 0.72666 0.00365 0.75013 0.0
C587 C 0.70837 -0.00097 0.72809 0.0
C588 C 0.70132 0.00094 0.70528 0.0
C589 C 0.7048 0.00334 0.67387 0.0
C590 C 0.69802 0.00481 0.65202 0.0
C591 C 0.68763 0.00368 0.6612 0.0
C592 C 0.68402 0.00113 0.6923 0.0
C593 C 0.69083 -0.00024 0.71434 0.0
H594 H 0.68235 0.00474 0.64418 0.0
H595 H 0.74727 0.98971 0.85008 0.0
H596 H 0.95603 0.68257 0.67462 0.0
H597 H 0.9747 0.69137 0.70049 0.0
H598 H 0.96983 0.71862 0.73385 0.0
H599 H 0.95148 0.71004 0.7085 0.0
H600 H 0.98974 0.72739 0.71295 0.0
H601 H 0.96839 0.69769 0.78196 0.0
H602 H 0.95555 0.67839 0.80156 0.0
H603 H 0.97932 0.66804 0.77298 0.0
H604 H 0.99218 0.68725 0.75218 0.0
H605 H 0.03266 0.75188 0.81829 0.0
H606 H 0.01429 0.74217 0.79286 0.0
H607 H 0.02078 0.71563 0.76243 0.0
H608 H 0.03938 0.72535 0.78946 0.0
H609 H 0.00018 0.70665 0.78127 0.0
H610 H 0.02159 0.73657 0.71231 0.0
H611 H 0.03432 0.75589 0.69268 0.0
H612 H 0.01042 0.76605 0.7214 0.0
H613 H -0.00235 0.7468 0.74218 0.0
C614 C 0.95891 0.69033 0.68791 0.0
C615 C 0.95226 0.6956 0.68959 0.0
C616 C 0.96957 0.69536 0.70267 0.0
C617 C 0.97367 0.70564 0.71935 0.0
C618 C 0.96691 0.71073 0.72115 0.0
C619 C 0.95633 0.70572 0.70677 0.0
C620 C 0.9851 0.71133 0.73435 0.0
C621 C 0.99247 0.7229 0.72838 0.0
C622 C 0.98888 0.70546 0.75376 0.0
C623 C 0.9811 0.69381 0.7649 0.0
C624 C 0.97078 0.69124 0.77929 0.0
C625 C 0.96352 0.68034 0.79069 0.0
C626 C 0.9666 0.67198 0.7884 0.0
C627 C 0.97694 0.67452 0.77461 0.0
C628 C 0.9842 0.6854 0.76287 0.0
C629 C 0.03024 0.74402 0.80593 0.0
C630 C 0.03744 0.73944 0.80534 0.0
C631 C 0.01973 0.73849 0.79125 0.0
C632 C 0.01623 0.72833 0.77491 0.0
C633 C 0.02336 0.72354 0.77466 0.0
C634 C 0.03394 0.72905 0.79 0.0
C635 C 0.0049 0.72261 0.75933 0.0
C636 C -0.00253 0.71112 0.76564 0.0
C637 C 0.00107 0.72858 0.7403 0.0
C638 C 0.0088 0.74031 0.72937 0.0
C639 C 0.01914 0.74297 0.715 0.0
C640 C 0.02634 0.75389 0.70358 0.0
C641 C 0.0232 0.76219 0.70587 0.0
C642 C 0.01285 0.7596 0.71975 0.0
C643 C 0.00564 0.7487 0.73147 0.0
H644 H 0.02878 0.77064 0.69682 0.0
H645 H 0.96098 0.66355 0.79741 0.0
H646 H 0.26957 0.31174 0.8205 0.0
H647 H 0.27943 0.30294 0.7947 0.0
H648 H 0.24729 0.27606 0.75964 0.0
H649 H 0.23754 0.28466 0.78497 0.0
H650 H 0.25818 0.26699 0.78065 0.0
H651 H 0.26718 0.29713 0.71274 0.0
H652 H 0.27394 0.31658 0.69401 0.0
H653 H 0.30788 0.32658 0.72379 0.0
H654 H 0.30123 0.30723 0.74372 0.0
H655 H 0.27939 0.24281 0.67513 0.0
H656 H 0.27073 0.25251 0.70053 0.0
H657 H 0.30376 0.27869 0.73272 0.0
H658 H 0.31263 0.26898 0.70575 0.0
H659 H 0.29239 0.28796 0.71375 0.0
H660 H 0.28323 0.25761 0.78161 0.0
H661 H 0.27636 0.23815 0.80036 0.0
H662 H 0.24248 0.22832 0.77045 0.0
H663 H 0.24924 0.24771 0.75055 0.0
C664 C 0.26468 0.30406 0.80685 0.0
C665 C 0.25277 0.2989 0.80471 0.0
C666 C 0.2703 0.29903 0.79214 0.0
C667 C 0.26411 0.28884 0.77502 0.0
C668 C 0.25227 0.28387 0.77271 0.0
C669 C 0.24671 0.28889 0.78707 0.0
C670 C 0.26985 0.28315 0.76 0.0
C671 C 0.26553 0.27154 0.76553 0.0
C672 C 0.27963 0.28908 0.74095 0.0
C673 C 0.28366 0.30081 0.73029 0.0
C674 C 0.27604 0.30353 0.71584 0.0
C675 C 0.27985 0.31452 0.70494 0.0
C676 C 0.29132 0.32282 0.70781 0.0
C677 C 0.299 0.32015 0.7217 0.0
C678 C 0.2952 0.30918 0.73294 0.0
C679 C 0.28482 0.25059 0.68785 0.0
C680 C 0.2966 0.25507 0.68895 0.0
C681 C 0.27984 0.25611 0.70252 0.0
C682 C 0.2865 0.26618 0.71933 0.0
C683 C 0.29842 0.27087 0.7201 0.0
C684 C 0.30349 0.26536 0.7048 0.0
C685 C 0.28089 0.27189 0.73494 0.0
C686 C 0.28509 0.28344 0.72907 0.0
C687 C 0.27096 0.26587 0.75361 0.0
C688 C 0.2668 0.25406 0.76407 0.0
C689 C 0.27435 0.25126 0.77849 0.0
C690 C 0.27048 0.24025 0.78941 0.0
C691 C 0.25899 0.232 0.78654 0.0
C692 C 0.25137 0.23473 0.77257 0.0
C693 C 0.25523 0.24572 0.76135 0.0
H694 H 0.25599 0.22349 0.79521 0.0
H695 H 0.29427 0.33132 0.69918 0.0
H696 H 0.91773 0.27983 0.59074 0.0
H697 H 0.92704 0.29858 0.56603 0.0
H698 H 0.93681 0.31445 0.65714 0.0
H699 H 0.92717 0.29572 0.68184 0.0
H700 H 0.93027 0.3256 0.62468 0.0
H701 H 0.95576 0.31282 0.60519 0.0
H702 H 0.96323 0.30051 0.5884 0.0
H703 H 0.95465 0.30279 0.49296 0.0
H704 H 0.94676 0.31486 0.50936 0.0
H705 H 0.96972 0.38058 0.56926 0.0
H706 H 0.96004 0.36185 0.59388 0.0
H707 H 0.95003 0.34604 0.50277 0.0
H708 H 0.95982 0.36477 0.4781 0.0
H709 H 0.9568 0.3349 0.53523 0.0
H710 H 0.9313 0.34771 0.55484 0.0
H711 H 0.92382 0.35999 0.57179 0.0
H712 H 0.93244 0.35765 0.66715 0.0
H713 H 0.94035 0.34562 0.65058 0.0
C714 C 0.92181 0.28734 0.60541 0.0
C715 C 0.92173 0.28637 0.63814 0.0
C716 C 0.92723 0.29806 0.59129 0.0
C717 C 0.93285 0.30798 0.6096 0.0
C718 C 0.93257 0.30696 0.64243 0.0
C719 C 0.92701 0.29626 0.65655 0.0
C720 C 0.9387 0.31944 0.59459 0.0
C721 C 0.93627 0.3277 0.6056 0.0
C722 C 0.94621 0.32212 0.5688 0.0
C723 C 0.95045 0.31453 0.55863 0.0
C724 C 0.95526 0.31052 0.5807 0.0
C725 C 0.9596 0.30362 0.57126 0.0
C726 C 0.95938 0.30083 0.53966 0.0
C727 C 0.95477 0.30492 0.51743 0.0
C728 C 0.95032 0.31176 0.52681 0.0
C729 C 0.96536 0.3731 0.55455 0.0
C730 C 0.96542 0.3741 0.52183 0.0
C731 C 0.95978 0.36239 0.56863 0.0
C732 C 0.95412 0.35248 0.55029 0.0
C733 C 0.95426 0.35352 0.51749 0.0
C734 C 0.95976 0.36424 0.5034 0.0
C735 C 0.94834 0.34104 0.56531 0.0
C736 C 0.95079 0.33279 0.55432 0.0
C737 C 0.94085 0.33836 0.59113 0.0
C738 C 0.93662 0.34597 0.60135 0.0
C739 C 0.93181 0.34999 0.57934 0.0
C740 C 0.92746 0.35687 0.58888 0.0
C741 C 0.92768 0.35962 0.62051 0.0
C742 C 0.93231 0.35553 0.64266 0.0
C743 C 0.93678 0.34872 0.63319 0.0
H744 H 0.92424 0.36491 0.62788 0.0
H745 H 0.9628 0.29553 0.53237 0.0
H746 H 0.69655 0.63015 0.6813 0.0
H747 H 0.67787 0.62064 0.65634 0.0
H748 H 0.69385 0.62561 0.56574 0.0
H749 H 0.7126 0.63553 0.59075 0.0
H750 H 0.67782 0.62996 0.56073 0.0
H751 H 0.67976 0.59944 0.60372 0.0
H752 H 0.68256 0.5876 0.64207 0.0
H753 H 0.65436 0.58423 0.69616 0.0
H754 H 0.65161 0.5964 0.65852 0.0
H755 H 0.62751 0.5928 0.47874 0.0
H756 H 0.64621 0.60223 0.50363 0.0
H757 H 0.6303 0.59752 0.59423 0.0
H758 H 0.61157 0.58796 0.56937 0.0
H759 H 0.64629 0.59316 0.5992 0.0
H760 H 0.64431 0.62367 0.55598 0.0
H761 H 0.6416 0.63558 0.51765 0.0
H762 H 0.66982 0.63891 0.46376 0.0
H763 H 0.6725 0.6267 0.50141 0.0
C764 C 0.69605 0.62906 0.65611 0.0
C765 C 0.70596 0.63345 0.63791 0.0
C766 C 0.68537 0.62362 0.64183 0.0
C767 C 0.68439 0.62221 0.60914 0.0
C768 C 0.69435 0.62657 0.59097 0.0
C769 C 0.70505 0.63218 0.60524 0.0
C770 C 0.67297 0.61642 0.59395 0.0
C771 C 0.67101 0.62179 0.56869 0.0
C772 C 0.66388 0.60597 0.60508 0.0
C773 C 0.66565 0.59902 0.62862 0.0
C774 C 0.67429 0.59636 0.62408 0.0
C775 C 0.67584 0.58957 0.64563 0.0
C776 C 0.66867 0.5852 0.67159 0.0
C777 C 0.65993 0.58765 0.67609 0.0
C778 C 0.6584 0.59454 0.65471 0.0
C779 C 0.62801 0.59368 0.50399 0.0
C780 C 0.61812 0.58968 0.52216 0.0
C781 C 0.63871 0.59922 0.51817 0.0
C782 C 0.63972 0.60082 0.5508 0.0
C783 C 0.62978 0.59648 0.56903 0.0
C784 C 0.61908 0.59101 0.55483 0.0
C785 C 0.65114 0.60668 0.56596 0.0
C786 C 0.6531 0.60134 0.59124 0.0
C787 C 0.66022 0.61715 0.55483 0.0
C788 C 0.65844 0.62408 0.53121 0.0
C789 C 0.64981 0.62676 0.53567 0.0
C790 C 0.6483 0.63359 0.51413 0.0
C791 C 0.65552 0.63797 0.48825 0.0
C792 C 0.66423 0.63548 0.48378 0.0
C793 C 0.66572 0.62856 0.50517 0.0
H794 H 0.65437 0.64332 0.47168 0.0
H795 H 0.66986 0.57988 0.68817 0.0
H796 H 0.36984 0.07327 0.67714 0.0
H797 H 0.37942 0.06418 0.65213 0.0
H798 H 0.35903 0.0581 0.5691 0.0
H799 H 0.3493 0.06697 0.59418 0.0
H800 H 0.35991 0.04024 0.58049 0.0
H801 H 0.38754 0.07851 0.57321 0.0
H802 H 0.40057 0.09836 0.58852 0.0
H803 H 0.41895 0.08768 0.64792 0.0
H804 H 0.40574 0.06765 0.63375 0.0
H805 H 0.39187 0.02474 0.48255 0.0
H806 H 0.38247 0.03395 0.50789 0.0
H807 H 0.4029 0.03969 0.5907 0.0
H808 H 0.41228 0.03035 0.56515 0.0
H809 H 0.40189 0.0576 0.57958 0.0
H810 H 0.37422 0.01926 0.58662 0.0
H811 H 0.36111 -0.00057 0.57136 0.0
H812 H 0.34279 0.01022 0.51208 0.0
H813 H 0.35606 0.03023 0.52626 0.0
C814 C 0.36749 0.0701 0.65343 0.0
C815 C 0.35886 0.07088 0.63755 0.0
C816 C 0.373 0.06493 0.6391 0.0
C817 C 0.37009 0.06056 0.60849 0.0
C818 C 0.36147 0.06139 0.59266 0.0
C819 C 0.35595 0.06654 0.60698 0.0
C820 C 0.37583 0.05489 0.59329 0.0
C821 C 0.3691 0.04416 0.57969 0.0
C822 C 0.38781 0.05973 0.59319 0.0
C823 C 0.39552 0.0716 0.60295 0.0
C824 C 0.39422 0.08037 0.59001 0.0
C825 C 0.40165 0.09164 0.59839 0.0
C826 C 0.41055 0.09427 0.61925 0.0
C827 C 0.41202 0.08561 0.63186 0.0
C828 C 0.40453 0.07429 0.62377 0.0
C829 C 0.39439 0.02806 0.50608 0.0
C830 C 0.40276 0.0269 0.52201 0.0
C831 C 0.38891 0.03318 0.52072 0.0
C832 C 0.39179 0.03735 0.55148 0.0
C833 C 0.40045 0.03648 0.56707 0.0
C834 C 0.40581 0.03116 0.55255 0.0
C835 C 0.38599 0.04294 0.56689 0.0
C836 C 0.3927 0.05366 0.58043 0.0
C837 C 0.37399 0.03809 0.56689 0.0
C838 C 0.36627 0.02623 0.557 0.0
C839 C 0.36753 0.01743 0.56986 0.0
C840 C 0.36006 0.00617 0.5615 0.0
C841 C 0.35115 0.00357 0.5407 0.0
C842 C 0.34972 0.01226 0.52811 0.0
C843 C 0.35725 0.02357 0.5362 0.0
H844 H 0.34493 0.99706 0.5344 0.0
H845 H 0.41634 0.10303 0.62559 0.0
H846 H 0.41032 0.38041 0.06556 0.0
H847 H 0.40073 0.36169 0.09075 0.0
H848 H 0.38474 0.34624 0.00271 0.0
H849 H 0.39393 0.36489 0.98105 0.0
H850 H 0.37021 0.33686 0.04538 0.0
H851 H 0.40752 0.34449 0.0345 0.0
H852 H 0.4284 0.35443 0.03761 0.0
H853 H 0.42662 0.35298 0.13807 0.0
H854 H 0.40566 0.3433 0.13557 0.0
H855 H 0.35181 0.27991 0.09177 0.0
H856 H 0.36066 0.2987 0.06652 0.0
H857 H 0.3765 0.31451 0.15438 0.0
H858 H 0.36768 0.29584 0.17922 0.0
H859 H 0.39123 0.32366 0.11162 0.0
H860 H 0.35391 0.31605 0.12244 0.0
H861 H 0.33303 0.30612 0.1192 0.0
H862 H 0.3349 0.30761 0.01875 0.0
H863 H 0.35585 0.31725 0.02138 0.0
C864 C 0.40456 0.373 0.05192 0.0
C865 C 0.4027 0.37405 0.02013 0.0
C866 C 0.39924 0.3623 0.06612 0.0
C867 C 0.39218 0.35247 0.04855 0.0
C868 C 0.39013 0.35365 0.01684 0.0
C869 C 0.39528 0.36436 0.00284 0.0
C870 C 0.38659 0.341 0.06344 0.0
C871 C 0.37488 0.33389 0.05923 0.0
C872 C 0.39253 0.33722 0.08271 0.0
C873 C 0.40506 0.34343 0.08481 0.0
C874 C 0.41158 0.34648 0.05727 0.0
C875 C 0.42342 0.35203 0.05891 0.0
C876 C 0.42883 0.35438 0.08801 0.0
C877 C 0.42241 0.35119 0.11557 0.0
C878 C 0.41054 0.34572 0.11406 0.0
C879 C 0.35702 0.28747 0.10557 0.0
C880 C 0.35897 0.2866 0.13742 0.0
C881 C 0.36207 0.29818 0.09125 0.0
C882 C 0.36915 0.30809 0.1086 0.0
C883 C 0.37106 0.30706 0.14046 0.0
C884 C 0.36594 0.29642 0.15474 0.0
C885 C 0.37484 0.31952 0.09348 0.0
C886 C 0.38657 0.32663 0.09772 0.0
C887 C 0.36893 0.32332 0.07424 0.0
C888 C 0.35641 0.31712 0.07214 0.0
C889 C 0.34987 0.31406 0.09965 0.0
C890 C 0.33803 0.30853 0.09793 0.0
C891 C 0.33265 0.30621 0.06879 0.0
C892 C 0.3391 0.30939 0.04128 0.0
C893 C 0.35095 0.31484 0.04287 0.0
H894 H 0.32347 0.30197 0.06753 0.0
H895 H 0.43802 0.35864 0.08921 0.0
H896 H 0.70749 0.05689 0.12268 0.0
H897 H 0.68879 0.04714 0.0963 0.0
H898 H 0.68344 0.07489 0.12157 0.0
H899 H 0.70172 0.08439 0.14761 0.0
H900 H 0.66536 0.05681 0.13225 0.0
H901 H 0.68965 0.07064 0.04622 0.0
H902 H 0.70533 0.07456 0.01015 0.0
H903 H 0.69005 0.03881 0.99256 0.0
H904 H 0.67441 0.03473 0.02646 0.0
H905 H 0.61813 0.0424 0.03768 0.0
H906 H 0.63656 0.051 0.06218 0.0
H907 H 0.64027 0.02251 0.034 0.0
H908 H 0.62164 0.01391 0.00764 0.0
H909 H 0.65914 0.04098 0.02466 0.0
H910 H 0.63477 0.02725 0.11101 0.0
H911 H 0.61916 0.02344 0.14712 0.0
H912 H 0.63459 0.05912 0.16731 0.0
H913 H 0.65018 0.0632 0.13038 0.0
C914 C 0.70226 0.06083 0.12237 0.0
C915 C 0.70603 0.07144 0.13668 0.0
C916 C 0.69166 0.05534 0.10718 0.0
C917 C 0.68475 0.06036 0.10657 0.0
C918 C 0.68857 0.07084 0.12153 0.0
C919 C 0.69908 0.07631 0.13622 0.0
C920 C 0.67335 0.05463 0.09138 0.0
C921 C 0.66406 0.05356 0.10849 0.0
C922 C 0.67151 0.05007 0.06071 0.0
C923 C 0.68103 0.05237 0.0396 0.0
C924 C 0.68974 0.06361 0.03448 0.0
C925 C 0.69859 0.06589 0.01385 0.0
C926 C 0.6987 0.05699 -0.00228 0.0
C927 C 0.68996 0.04579 0.00226 0.0
C928 C 0.68112 0.04345 0.02311 0.0
C929 C 0.62273 0.03781 0.03689 0.0
C930 C 0.61838 0.02744 0.02081 0.0
C931 C 0.63332 0.04277 0.0511 0.0
C932 C 0.63976 0.03735 0.05057 0.0
C933 C 0.63541 0.02684 0.03484 0.0
C934 C 0.62476 0.02189 0.02004 0.0
C935 C 0.65114 0.04293 0.06577 0.0
C936 C 0.66045 0.04417 0.04849 0.0
C937 C 0.653 0.04768 0.0963 0.0
C938 C 0.6435 0.04553 0.11747 0.0
C939 C 0.63474 0.03431 0.12267 0.0
C940 C 0.62591 0.0321 0.14335 0.0
C941 C 0.62587 0.04104 0.15944 0.0
C942 C 0.63463 0.05222 0.15474 0.0
C943 C 0.64345 0.05449 0.13383 0.0
H944 H 0.61905 0.03928 0.17562 0.0
H945 H 0.70556 0.05868 0.98454 0.0
H946 H 0.98068 0.60311 0.03725 0.0
H947 H 0.97171 0.61282 0.06361 0.0
H948 H 0.93871 0.58625 0.0324 0.0
H949 H 0.94754 0.5768 0.00638 0.0
H950 H 0.93955 0.60483 0.02365 0.0
H951 H 0.9477 0.58877 0.10905 0.0
H952 H 0.95841 0.58373 0.1457 0.0
H953 H 0.97919 0.61882 0.17182 0.0
H954 H 0.96881 0.62414 0.1345 0.0
H955 H 0.90594 0.61884 0.11648 0.0
H956 H 0.91576 0.61021 0.09202 0.0
H957 H 0.94788 0.63747 0.12594 0.0
H958 H 0.93786 0.64607 0.15213 0.0
H959 H 0.94742 0.61852 0.13351 0.0
H960 H 0.93912 0.63449 0.04778 0.0
H961 H 0.92835 0.63942 0.01107 0.0
H962 H 0.90767 0.60418 0.98822 0.0
H963 H 0.91811 0.59907 0.02273 0.0
C964 C 0.97154 0.59944 0.0362 0.0
C965 C 0.96472 0.58917 0.0202 0.0
C966 C 0.9664 0.6049 0.0514 0.0
C967 C 0.95448 0.60019 0.05036 0.0
C968 C 0.94787 0.59006 0.03373 0.0
C969 C 0.95293 0.58462 0.019 0.0
C970 C 0.9488 0.6059 0.0656 0.0
C971 C 0.94111 0.60761 0.04787 0.0
C972 C 0.95103 0.60984 0.09695 0.0
C973 C 0.95764 0.60687 0.11848 0.0
C974 C 0.95469 0.59544 0.12216 0.0
C975 C 0.96067 0.59253 0.14312 0.0
C976 C 0.9695 0.60095 0.16098 0.0
C977 C 0.97238 0.61232 0.15786 0.0
C978 C 0.96648 0.61529 0.13671 0.0
C979 C 0.91512 0.62315 0.11855 0.0
C980 C 0.92111 0.63316 0.13619 0.0
C981 C 0.92074 0.61817 0.10436 0.0
C982 C 0.93259 0.62325 0.10654 0.0
C983 C 0.93872 0.63341 0.12381 0.0
C984 C 0.93302 0.63838 0.13851 0.0
C985 C 0.9384 0.61767 0.09136 0.0
C986 C 0.94593 0.61579 0.10924 0.0
C987 C 0.93599 0.61353 0.06012 0.0
C988 C 0.92927 0.61638 0.03852 0.0
C989 C 0.93214 0.62778 0.03474 0.0
C990 C 0.92612 0.63063 0.01374 0.0
C991 C 0.91731 0.62217 -0.00409 0.0
C992 C 0.91447 0.61082 -0.00081 0.0
C993 C 0.92041 0.6079 0.02041 0.0
H994 H 0.91272 0.62431 0.98242 0.0
H995 H 0.97409 0.59866 0.17733 0.0
H996 H 0.62461 0.69883 0.81326 0.0
H997 H 0.61508 0.68018 0.83817 0.0
H998 H 0.6266 0.69608 0.92871 0.0
H999 H 0.63642 0.71475 0.90369 0.0
H1000 H 0.62919 0.67884 0.92662 0.0
H1001 H 0.59866 0.68416 0.90317 0.0
H1002 H 0.5858 0.68843 0.8733 0.0
H1003 H 0.57639 0.65941 0.81434 0.0
H1004 H 0.58953 0.65516 0.84332 0.0
H1005 H 0.59377 0.62992 0.01256 0.0
H1006 H 0.60321 0.64846 0.99047 0.0
H1007 H 0.59186 0.63243 0.90001 0.0
H1008 H 0.58238 0.61371 0.92519 0.0
H1009 H 0.58931 0.64973 0.90202 0.0
H1010 H 0.61986 0.64438 0.92572 0.0
H1011 H 0.63279 0.6402 0.95557 0.0
H1012 H 0.64212 0.66936 0.01141 0.0
H1013 H 0.62895 0.67342 0.98535 0.0
C1014 C 0.62498 0.69835 0.83851 0.0
C1015 C 0.63118 0.70822 0.85659 0.0
C1016 C 0.61952 0.68767 0.85277 0.0
C1017 C 0.61995 0.68666 0.88545 0.0
C1018 C 0.62611 0.69659 0.90351 0.0
C1019 C 0.63167 0.70726 0.88921 0.0
C1020 C 0.61419 0.67525 0.90065 0.0
C1021 C 0.62039 0.67257 0.92176 0.0
C1022 C 0.60283 0.66684 0.8935 0.0
C1023 C 0.59525 0.66949 0.87503 0.0
C1024 C 0.59401 0.67881 0.88347 0.0
C1025 C 0.58666 0.68121 0.86677 0.0
C1026 C 0.58031 0.67422 0.84188 0.0
C1027 C 0.58135 0.66483 0.83357 0.0
C1028 C 0.58879 0.66244 0.85005 0.0
C1029 C 0.59322 0.63029 0.9903 0.0
C1030 C 0.58738 0.62037 0.97221 0.0
C1031 C 0.59875 0.64095 0.97595 0.0
C1032 C 0.59846 0.6419 0.94323 0.0
C1033 C 0.59229 0.63195 0.92524 0.0
C1034 C 0.58687 0.62126 0.93959 0.0
C1035 C 0.6043 0.6533 0.92796 0.0
C1036 C 0.59812 0.65599 0.90686 0.0
C1037 C 0.61567 0.66171 0.93516 0.0
C1038 C 0.62325 0.65907 0.95373 0.0
C1039 C 0.6245 0.64976 0.94537 0.0
C1040 C 0.6319 0.64741 0.96206 0.0
C1041 C 0.63826 0.65444 0.98688 0.0
C1042 C 0.63718 0.6638 0.99516 0.0
C1043 C 0.62971 0.66614 0.97867 0.0
H1044 H 0.64403 0.65274 -0.00327 0.0
H1045 H 0.57457 0.67606 0.82908 0.0
H1046 H 0.28583 0.90914 0.85275 0.0
H1047 H 0.30455 0.91828 0.87852 0.0
H1048 H 0.3031 0.94913 0.88932 0.0
H1049 H 0.28451 0.93999 0.86382 0.0
H1050 H 0.32286 0.95454 0.87116 0.0
H1051 H 0.29957 0.93119 0.95119 0.0
H1052 H 0.28533 0.91413 0.97907 0.0
H1053 H 0.30612 0.89882 0.96775 0.0
H1054 H 0.32037 0.91571 0.93881 0.0
H1055 H 0.36935 0.9823 0.97436 0.0
H1056 H 0.35067 0.97274 0.94939 0.0
H1057 H 0.35269 0.94215 0.94036 0.0
H1058 H 0.37134 0.95173 0.96669 0.0
H1059 H 0.33267 0.93664 0.9575 0.0
H1060 H 0.35602 0.96011 0.87741 0.0
H1061 H 0.37019 0.97718 0.84947 0.0
H1062 H 0.3493 0.99238 0.86095 0.0
H1063 H 0.33511 0.97547 0.88994 0.0
C1064 C 0.28958 0.91786 0.86076 0.0
C1065 C 0.28383 0.92392 0.85667 0.0
C1066 C 0.30019 0.92305 0.87568 0.0
C1067 C 0.3052 0.93436 0.88636 0.0
C1068 C 0.29944 0.9404 0.88152 0.0
C1069 C 0.28881 0.93518 0.86709 0.0
C1070 C 0.31661 0.94006 0.90164 0.0
C1071 C 0.32491 0.95072 0.8905 0.0
C1072 C 0.31951 0.93496 0.92614 0.0
C1073 C 0.31088 0.92459 0.94222 0.0
C1074 C 0.30101 0.9241 0.95409 0.0
C1075 C 0.29296 0.91449 0.97016 0.0
C1076 C 0.29479 0.90539 0.97505 0.0
C1077 C 0.3047 0.90587 0.96381 0.0
C1078 C 0.31274 0.91544 0.94744 0.0
C1079 C 0.36576 0.97353 0.96696 0.0
C1080 C 0.37165 0.9677 0.97217 0.0
C1081 C 0.35514 0.9681 0.95248 0.0
C1082 C 0.35032 0.95679 0.94228 0.0
C1083 C 0.35623 0.95089 0.94786 0.0
C1084 C 0.36684 0.95632 0.96284 0.0
C1085 C 0.33894 0.95105 0.92683 0.0
C1086 C 0.33063 0.94044 0.93809 0.0
C1087 C 0.33603 0.95621 0.90245 0.0
C1088 C 0.34464 0.96663 0.88643 0.0
C1089 C 0.35454 0.96717 0.87453 0.0
C1090 C 0.36255 0.9768 0.85842 0.0
C1091 C 0.36066 0.98587 0.85352 0.0
C1092 C 0.35076 0.98535 0.86486 0.0
C1093 C 0.34274 0.97577 0.88126 0.0
H1094 H 0.36687 0.9933 0.84086 0.0
H1095 H 0.28856 0.89796 0.98765 0.0
H1096 H 0.01548 0.38936 -0.00402 0.0
H1097 H 0.02508 0.38012 0.97418 0.0
H1098 H 0.04492 0.41013 0.91797 0.0
H1099 H 0.03492 0.4191 0.94225 0.0
H1100 H 0.0386 0.39276 0.88325 0.0
H1101 H 0.05593 0.40252 0.98153 0.0
H1102 H 0.05826 0.40449 0.03576 0.0
H1103 H 0.0424 0.36822 0.04453 0.0
H1104 H 0.03963 0.366 0.99019 0.0
H1105 H 0.07758 0.37623 0.82943 0.0
H1106 H 0.06826 0.38576 0.85398 0.0
H1107 H 0.04817 0.35608 0.91106 0.0
H1108 H 0.05769 0.34678 0.88749 0.0
H1109 H 0.05459 0.37327 0.94523 0.0
H1110 H 0.03729 0.36347 0.84684 0.0
H1111 H 0.03491 0.36164 0.78965 0.0
H1112 H 0.05077 0.39791 0.78107 0.0
H1113 H 0.05357 0.39999 0.83833 0.0
C1114 C 0.02196 0.39388 0.98139 0.0
C1115 C 0.02459 0.40483 0.97249 0.0
C1116 C 0.02748 0.3887 0.96737 0.0
C1117 C 0.03592 0.39448 0.94458 0.0
C1118 C 0.03849 0.40549 0.93556 0.0
C1119 C 0.03284 0.41064 0.94941 0.0
C1120 C 0.04176 0.38885 0.9296 0.0
C1121 C 0.04233 0.38873 0.89685 0.0
C1122 C 0.0462 0.38311 0.94717 0.0
C1123 C 0.04734 0.38411 0.98165 0.0
C1124 C 0.05274 0.39492 0.99566 0.0
C1125 C 0.05416 0.39613 0.02512 0.0
C1126 C 0.05044 0.38648 0.04378 0.0
C1127 C 0.04523 0.37568 0.03004 0.0
C1128 C 0.04368 0.37452 -0.00241 0.0
C1129 C 0.07121 0.3718 0.84732 0.0
C1130 C 0.06834 0.36078 0.85662 0.0
C1131 C 0.06581 0.3772 0.86115 0.0
C1132 C 0.05733 0.37158 0.88402 0.0
C1133 C 0.05465 0.36062 0.8935 0.0
C1134 C 0.06013 0.35531 0.88006 0.0
C1135 C 0.0515 0.37723 0.89886 0.0
C1136 C 0.05086 0.37729 0.9316 0.0
C1137 C 0.04699 0.38291 0.88127 0.0
C1138 C 0.04586 0.38188 0.84679 0.0
C1139 C 0.04047 0.37107 0.83274 0.0
C1140 C 0.03901 0.36999 0.80033 0.0
C1141 C 0.04271 0.37965 0.78173 0.0
C1142 C 0.04794 0.39044 0.79552 0.0
C1143 C 0.04951 0.39158 0.82795 0.0
H1144 H 0.04151 0.37878 0.75663 0.0
H1145 H 0.05162 0.38737 0.06888 0.0
H1146 H 0.08158 0.70359 0.34334 0.0
H1147 H 0.07174 0.68514 0.36808 0.0
H1148 H 0.04428 0.69085 0.39411 0.0
H1149 H 0.05439 0.70976 0.36899 0.0
H1150 H 0.04878 0.68152 0.44046 0.0
H1151 H 0.04229 0.67252 0.33407 0.0
H1152 H 0.04589 0.67219 0.27776 0.0
H1153 H 0.06606 0.65666 0.2966 0.0
H1154 H 0.06287 0.65723 0.35336 0.0
H1155 H 0.01172 0.62396 0.48423 0.0
H1156 H 0.02069 0.64279 0.45926 0.0
H1157 H 0.04882 0.63865 0.42997 0.0
H1158 H 0.03984 0.61999 0.4532 0.0
H1159 H 0.04405 0.64726 0.3854 0.0
H1160 H 0.05055 0.65615 0.49178 0.0
H1161 H 0.04701 0.65655 0.54816 0.0
H1162 H 0.02686 0.6721 0.52929 0.0
H1163 H 0.02999 0.67147 0.47257 0.0
C1164 C 0.07346 0.70097 0.35445 0.0
C1165 C 0.06876 0.70807 0.3544 0.0
C1166 C 0.06776 0.69032 0.36827 0.0
C1167 C 0.05714 0.68643 0.38246 0.0
C1168 C 0.05243 0.69362 0.38306 0.0
C1169 C 0.05815 0.70437 0.36871 0.0
C1170 C 0.05125 0.67496 0.3972 0.0
C1171 C 0.04748 0.67397 0.42815 0.0
C1172 C 0.05009 0.66516 0.38177 0.0
C1173 C 0.05253 0.66515 0.34798 0.0
C1174 C 0.04767 0.66923 0.3263 0.0
C1175 C 0.04961 0.66897 0.29431 0.0
C1176 C 0.05623 0.66444 0.28363 0.0
C1177 C 0.06097 0.6602 0.30496 0.0
C1178 C 0.05913 0.66053 0.33708 0.0
C1179 C 0.01973 0.62705 0.47207 0.0
C1180 C 0.0251 0.6205 0.47082 0.0
C1181 C 0.02493 0.63786 0.45818 0.0
C1182 C 0.03558 0.64227 0.44323 0.0
C1183 C 0.04066 0.63552 0.44135 0.0
C1184 C 0.03545 0.62477 0.45467 0.0
C1185 C 0.04134 0.65375 0.42855 0.0
C1186 C 0.04529 0.65478 0.39774 0.0
C1187 C 0.0427 0.66357 0.44414 0.0
C1188 C 0.04032 0.66354 0.47793 0.0
C1189 C 0.04519 0.65946 0.49959 0.0
C1190 C 0.04329 0.65976 0.5316 0.0
C1191 C 0.03669 0.66432 0.54229 0.0
C1192 C 0.03194 0.66854 0.52094 0.0
C1193 C 0.03373 0.66817 0.48885 0.0
H1194 H 0.03528 0.6646 0.56713 0.0
H1195 H 0.05767 0.6642 0.25879 0.0
H1196 H 0.36248 0.39717 0.51351 0.0
H1197 H 0.34386 0.38764 0.48823 0.0
H1198 H 0.35977 0.40157 0.39903 0.0
H1199 H 0.37843 0.41161 0.42496 0.0
H1200 H 0.34206 0.40332 0.40331 0.0
H1201 H 0.34858 0.37315 0.41973 0.0
H1202 H 0.35342 0.36012 0.44637 0.0
H1203 H 0.32424 0.34864 0.50612 0.0
H1204 H 0.31942 0.36192 0.48044 0.0
H1205 H 0.29364 0.36886 0.31197 0.0
H1206 H 0.31222 0.37813 0.33747 0.0
H1207 H 0.29603 0.3644 0.42652 0.0
H1208 H 0.27731 0.3551 0.40057 0.0
H1209 H 0.31386 0.36272 0.42246 0.0
H1210 H 0.30729 0.3929 0.40571 0.0
H1211 H 0.30255 0.40602 0.37914 0.0
H1212 H 0.33177 0.41745 0.31958 0.0
H1213 H 0.33651 0.40411 0.34528 0.0
C1214 C 0.36198 0.39796 0.4884 0.0
C1215 C 0.37178 0.40489 0.47094 0.0
C1216 C 0.35135 0.39256 0.47395 0.0
C1217 C 0.35037 0.3937 0.44156 0.0
C1218 C 0.36028 0.40053 0.424 0.0
C1219 C 0.37092 0.40615 0.43865 0.0
C1220 C 0.33896 0.38797 0.42633 0.0
C1221 C 0.33599 0.39437 0.40694 0.0
C1222 C 0.33081 0.3764 0.43201 0.0
C1223 C 0.33378 0.3687 0.44856 0.0
C1224 C 0.34331 0.36801 0.43894 0.0
C1225 C 0.34603 0.36056 0.4538 0.0
C1226 C 0.33916 0.35359 0.47798 0.0
C1227 C 0.32957 0.35408 0.48745 0.0
C1228 C 0.32686 0.36161 0.47283 0.0
C1229 C 0.29412 0.36772 0.33692 0.0
C1230 C 0.28422 0.36127 0.35442 0.0
C1231 C 0.3047 0.37315 0.35158 0.0
C1232 C 0.30556 0.37219 0.38406 0.0
C1233 C 0.29559 0.36534 0.40147 0.0
C1234 C 0.28494 0.35999 0.38675 0.0
C1235 C 0.31694 0.37806 0.39948 0.0
C1236 C 0.31991 0.37167 0.41887 0.0
C1237 C 0.32508 0.38964 0.39374 0.0
C1238 C 0.32212 0.39733 0.37704 0.0
C1239 C 0.31259 0.39805 0.38657 0.0
C1240 C 0.30993 0.40555 0.37175 0.0
C1241 C 0.31684 0.41254 0.34764 0.0
C1242 C 0.32641 0.412 0.33821 0.0
C1243 C 0.32907 0.40444 0.35283 0.0
H1244 H 0.31479 0.41839 0.33631 0.0
H1245 H 0.34126 0.34777 0.48934 0.0
H1246 H 0.57303 0.95653 0.43957 0.0
H1247 H 0.58268 0.9475 0.41551 0.0
H1248 H 0.61211 0.96756 0.47367 0.0
H1249 H 0.60241 0.97678 0.49791 0.0
H1250 H 0.61875 0.96666 0.41848 0.0
H1251 H 0.59309 0.93868 0.48652 0.0
H1252 H 0.57517 0.92556 0.51312 0.0
H1253 H 0.56128 0.90783 0.42654 0.0
H1254 H 0.57907 0.92112 0.39911 0.0
H1255 H 0.64513 0.93394 0.38324 0.0
H1256 H 0.63618 0.94382 0.40865 0.0
H1257 H 0.60603 0.92427 0.35243 0.0
H1258 H 0.61477 0.91433 0.3282 0.0
H1259 H 0.59963 0.92475 0.40726 0.0
H1260 H 0.62524 0.95269 0.33914 0.0
H1261 H 0.64317 0.96585 0.31256 0.0
H1262 H 0.65702 0.98354 0.39921 0.0
H1263 H 0.63926 0.97022 0.4266 0.0
C1264 C 0.5816 0.95911 0.44711 0.0
C1265 C 0.58693 0.96727 0.47081 0.0
C1266 C 0.58706 0.95382 0.43358 0.0
C1267 C 0.598 0.95659 0.4433 0.0
C1268 C 0.60361 0.96519 0.46597 0.0
C1269 C 0.59812 0.97052 0.47962 0.0
C1270 C 0.6037 0.95077 0.42881 0.0
C1271 C 0.61467 0.95747 0.41676 0.0
C1272 C 0.59821 0.93879 0.4251 0.0
C1273 C 0.58731 0.93105 0.44071 0.0
C1274 C 0.58615 0.93213 0.47302 0.0
C1275 C 0.57604 0.92464 0.48826 0.0
C1276 C 0.56708 0.9159 0.4715 0.0
C1277 C 0.56822 0.91464 0.43942 0.0
C1278 C 0.5783 0.92218 0.42398 0.0
C1279 C 0.63664 0.9319 0.37639 0.0
C1280 C 0.63055 0.92344 0.35391 0.0
C1281 C 0.63153 0.93752 0.39074 0.0
C1282 C 0.62044 0.93489 0.38221 0.0
C1283 C 0.61454 0.92646 0.35954 0.0
C1284 C 0.61954 0.92081 0.34564 0.0
C1285 C 0.61478 0.94065 0.39728 0.0
C1286 C 0.60374 0.93393 0.4091 0.0
C1287 C 0.62019 0.9526 0.40071 0.0
C1288 C 0.63104 0.96032 0.38498 0.0
C1289 C 0.63219 0.95925 0.35265 0.0
C1290 C 0.6423 0.96675 0.33743 0.0
C1291 C 0.65123 0.9755 0.35421 0.0
C1292 C 0.6501 0.97673 0.3863 0.0
C1293 C 0.64003 0.96918 0.40172 0.0
H1294 H 0.65904 0.98135 0.34231 0.0
H1295 H 0.55927 0.91007 0.48342 0.0
H1296 H 0.34211 0.12919 0.16449 0.0
H1297 H 0.34291 0.14719 0.16861 0.0
H1298 H 0.30762 0.13153 0.14095 0.0
H1299 H 0.30738 0.11337 0.13218 0.0
H1300 H 0.31898 0.15125 0.11463 0.0
H1301 H 0.31759 0.13952 0.21839 0.0
H1302 H 0.32201 0.13212 0.26545 0.0
H1303 H 0.3558 0.16107 0.26719 0.0
H1304 H 0.3517 0.1685 0.21922 0.0
H1305 H 0.3164 0.20021 0.1687 0.0
H1306 H 0.31313 0.18087 0.15805 0.0
H1307 H 0.34851 0.1928 0.17851 0.0
H1308 H 0.35193 0.2118 0.18534 0.0
H1309 H 0.33667 0.17489 0.20919 0.0
H1310 H 0.33834 0.18681 0.10595 0.0
H1311 H 0.33405 0.19429 0.05872 0.0
H1312 H 0.30022 0.16539 0.05659 0.0
H1313 H 0.30418 0.15793 0.1046 0.0
C1314 C 0.33438 0.12945 0.1602 0.0
C1315 C 0.32467 0.11992 0.14882 0.0
C1316 C 0.33487 0.1398 0.16235 0.0
C1317 C 0.32526 0.14072 0.1561 0.0
C1318 C 0.31513 0.13099 0.14618 0.0
C1319 C 0.31488 0.12059 0.14201 0.0
C1320 C 0.32616 0.15198 0.16005 0.0
C1321 C 0.32254 0.15629 0.13567 0.0
C1322 C 0.33149 0.15887 0.18675 0.0
C1323 C 0.33437 0.15446 0.21491 0.0
C1324 C 0.32603 0.14423 0.22844 0.0
C1325 C 0.32847 0.14004 0.25529 0.0
C1326 C 0.33918 0.14611 0.26928 0.0
C1327 C 0.34751 0.15637 0.25626 0.0
C1328 C 0.34515 0.16056 0.22912 0.0
C1329 C 0.3235 0.19869 0.16897 0.0
C1330 C 0.33449 0.20742 0.17702 0.0
C1331 C 0.32162 0.18769 0.16366 0.0
C1332 C 0.33061 0.18544 0.16776 0.0
C1333 C 0.34147 0.19431 0.17524 0.0
C1334 C 0.34347 0.20523 0.17836 0.0
C1335 C 0.32903 0.17394 0.16427 0.0
C1336 C 0.33294 0.16978 0.18833 0.0
C1337 C 0.32409 0.16727 0.13725 0.0
C1338 C 0.32149 0.17191 0.10919 0.0
C1339 C 0.32991 0.18215 0.0958 0.0
C1340 C 0.32755 0.18638 0.06884 0.0
C1341 C 0.31687 0.18033 0.05469 0.0
C1342 C 0.30849 0.17008 0.06763 0.0
C1343 C 0.31076 0.16587 0.09481 0.0
H1344 H 0.31508 0.18357 0.03365 0.0
H1345 H 0.34101 0.14287 0.29025 0.0
H1346 H 0.79232 0.11456 0.16904 0.0
H1347 H 0.81179 0.13067 0.1595 0.0
H1348 H 0.79992 0.15401 0.18191 0.0
H1349 H 0.78079 0.13851 0.18533 0.0
H1350 H 0.8123 0.16193 0.13788 0.0
H1351 H 0.81579 0.14723 0.23358 0.0
H1352 H 0.81519 0.13371 0.27284 0.0
H1353 H 0.84009 0.12984 0.22068 0.0
H1354 H 0.8406 0.14311 0.18058 0.0
H1355 H 0.86335 0.21132 0.16466 0.0
H1356 H 0.84526 0.19399 0.16859 0.0
H1357 H 0.86081 0.17455 0.13873 0.0
H1358 H 0.87919 0.19247 0.13218 0.0
H1359 H 0.8468 0.16454 0.18533 0.0
H1360 H 0.84297 0.17941 0.08996 0.0
H1361 H 0.84335 0.19288 0.051 0.0
H1362 H 0.81843 0.19649 0.10384 0.0
H1363 H 0.81812 0.18322 0.14374 0.0
C1364 C 0.79392 0.1232 0.16978 0.0
C1365 C 0.78515 0.12545 0.1772 0.0
C1366 C 0.80502 0.13234 0.16552 0.0
C1367 C 0.80733 0.14356 0.17059 0.0
C1368 C 0.79839 0.14551 0.17739 0.0
C1369 C 0.78739 0.13662 0.17883 0.0
C1370 C 0.8188 0.15355 0.16699 0.0
C1371 C 0.81979 0.16258 0.14891 0.0
C1372 C 0.82863 0.1543 0.18059 0.0
C1373 C 0.82804 0.14596 0.20377 0.0
C1374 C 0.82099 0.14334 0.23019 0.0
C1375 C 0.82069 0.13575 0.25264 0.0
C1376 C 0.82757 0.13089 0.24919 0.0
C1377 C 0.83474 0.13359 0.22324 0.0
C1378 C 0.83501 0.14111 0.20058 0.0
C1379 C 0.86301 0.20333 0.15969 0.0
C1380 C 0.87257 0.20317 0.14852 0.0
C1381 C 0.85259 0.19345 0.16111 0.0
C1382 C 0.85158 0.18303 0.15309 0.0
C1383 C 0.8614 0.18259 0.14455 0.0
C1384 C 0.8719 0.19272 0.14153 0.0
C1385 C 0.84028 0.17268 0.1556 0.0
C1386 C 0.83927 0.16379 0.17426 0.0
C1387 C 0.83035 0.17209 0.14287 0.0
C1388 C 0.83075 0.18052 0.12017 0.0
C1389 C 0.83772 0.18323 0.09362 0.0
C1390 C 0.83789 0.19079 0.07131 0.0
C1391 C 0.83095 0.19557 0.07499 0.0
C1392 C 0.82383 0.19281 0.1011 0.0
C1393 C 0.82368 0.18529 0.12365 0.0
H1394 H 0.83107 0.20139 0.05756 0.0
H1395 H 0.82736 0.12505 0.26669 0.0
H1396 H 0.86143 0.64788 0.13952 0.0
H1397 H 0.84524 0.65063 0.13061 0.0
H1398 H 0.85638 0.67483 0.20681 0.0
H1399 H 0.87271 0.67234 0.21493 0.0
H1400 H 0.83493 0.66056 0.21395 0.0
H1401 H 0.85798 0.68237 0.13106 0.0
H1402 H 0.87031 0.68764 0.08469 0.0
H1403 H 0.84258 0.66221 0.03031 0.0
H1404 H 0.83014 0.65647 0.07691 0.0
H1405 H 0.79384 0.67827 0.18476 0.0
H1406 H 0.81209 0.67845 0.19331 0.0
H1407 H 0.80412 0.65559 0.11482 0.0
H1408 H 0.78839 0.65749 0.10221 0.0
H1409 H 0.82379 0.66856 0.11089 0.0
H1410 H 0.80033 0.64658 0.19314 0.0
H1411 H 0.78797 0.64115 0.23962 0.0
H1412 H 0.81566 0.66652 0.29422 0.0
H1413 H 0.82812 0.67233 0.24773 0.0
C1414 C 0.86081 0.65432 0.15294 0.0
C1415 C 0.86804 0.65968 0.17846 0.0
C1416 C 0.85138 0.65565 0.1485 0.0
C1417 C 0.84949 0.66278 0.16847 0.0
C1418 C 0.85756 0.66915 0.19147 0.0
C1419 C 0.86708 0.66801 0.19538 0.0
C1420 C 0.83921 0.66379 0.16503 0.0
C1421 C 0.83256 0.66251 0.19155 0.0
C1422 C 0.83586 0.66584 0.13561 0.0
C1423 C 0.84323 0.66883 0.10763 0.0
C1424 C 0.85456 0.67774 0.1094 0.0
C1425 C 0.86156 0.68083 0.08309 0.0
C1426 C 0.85724 0.67524 0.05461 0.0
C1427 C 0.84591 0.6665 0.05244 0.0
C1428 C 0.83889 0.66327 0.07885 0.0
C1429 C 0.79633 0.67369 0.16885 0.0
C1430 C 0.78916 0.66722 0.14377 0.0
C1431 C 0.80657 0.67357 0.17414 0.0
C1432 C 0.80925 0.66664 0.15534 0.0
C1433 C 0.80235 0.66094 0.12988 0.0
C1434 C 0.79308 0.66196 0.12297 0.0
C1435 C 0.81944 0.66549 0.15992 0.0
C1436 C 0.826 0.66652 0.13339 0.0
C1437 C 0.82257 0.66309 0.1892 0.0
C1438 C 0.81508 0.66003 0.21687 0.0
C1439 C 0.80373 0.65113 0.21492 0.0
C1440 C 0.79671 0.64796 0.24127 0.0
C1441 C 0.80102 0.6535 0.26983 0.0
C1442 C 0.81234 0.66226 0.27206 0.0
C1443 C 0.81937 0.66553 0.24569 0.0
H1444 H 0.79559 0.65099 0.29028 0.0
H1445 H 0.86267 0.67771 0.03417 0.0
H1446 H 0.12928 0.34454 0.36454 0.0
H1447 H 0.14643 0.34416 0.35799 0.0
H1448 H 0.128 0.31085 0.31565 0.0
H1449 H 0.10981 0.31073 0.32519 0.0
H1450 H 0.14461 0.31269 0.35177 0.0
H1451 H 0.14401 0.33623 0.27283 0.0
H1452 H 0.14175 0.35108 0.24689 0.0
H1453 H 0.16942 0.37677 0.30081 0.0
H1454 H 0.17163 0.36198 0.32797 0.0
H1455 H 0.19631 0.31906 0.29258 0.0
H1456 H 0.17719 0.31607 0.30114 0.0
H1457 H 0.19178 0.34899 0.34585 0.0
H1458 H 0.21068 0.35172 0.33832 0.0
H1459 H 0.1771 0.34744 0.30641 0.0
H1460 H 0.17769 0.32416 0.38557 0.0
H1461 H 0.17997 0.30935 0.41184 0.0
H1462 H 0.15232 0.28357 0.35799 0.0
H1463 H 0.15017 0.2983 0.33041 0.0
C1464 C 0.12867 0.337 0.35393 0.0
C1465 C 0.11819 0.32776 0.34531 0.0
C1466 C 0.13862 0.3369 0.34977 0.0
C1467 C 0.13865 0.32778 0.33506 0.0
C1468 C 0.12816 0.31814 0.32646 0.0
C1469 C 0.11784 0.31811 0.33154 0.0
C1470 C 0.14988 0.32875 0.32973 0.0
C1471 C 0.15162 0.3201 0.34089 0.0
C1472 C 0.15927 0.33887 0.31759 0.0
C1473 C 0.15786 0.34795 0.3027 0.0
C1474 C 0.1495 0.34503 0.27959 0.0
C1475 C 0.14824 0.35343 0.26462 0.0
C1476 C 0.15543 0.36486 0.2722 0.0
C1477 C 0.16385 0.36791 0.295 0.0
C1478 C 0.16509 0.3595 0.3103 0.0
C1479 C 0.19531 0.32525 0.30611 0.0
C1480 C 0.20485 0.33557 0.31505 0.0
C1481 C 0.18445 0.32371 0.3102 0.0
C1482 C 0.18308 0.33235 0.32403 0.0
C1483 C 0.19264 0.34224 0.33508 0.0
C1484 C 0.20342 0.34362 0.33178 0.0
C1485 C 0.17168 0.3311 0.32723 0.0
C1486 C 0.17004 0.33992 0.31672 0.0
C1487 C 0.16241 0.3212 0.34008 0.0
C1488 C 0.16392 0.31234 0.35554 0.0
C1489 C 0.17225 0.31536 0.37886 0.0
C1490 C 0.1735 0.30698 0.39403 0.0
C1491 C 0.16631 0.29553 0.38654 0.0
C1492 C 0.1579 0.29245 0.36368 0.0
C1493 C 0.1567 0.30081 0.34815 0.0
H1494 H 0.16723 0.28904 0.39852 0.0
H1495 H 0.15448 0.37137 0.26037 0.0
H1496 H 0.68303 0.80163 0.34012 0.0
H1497 H 0.68272 0.81961 0.33246 0.0
H1498 H 0.64621 0.801 0.34435 0.0
H1499 H 0.64638 0.7835 0.34759 0.0
H1500 H 0.64992 0.81362 0.30045 0.0
H1501 H 0.66479 0.81855 0.4016 0.0
H1502 H 0.67737 0.82005 0.44504 0.0
H1503 H 0.70515 0.8495 0.40236 0.0
H1504 H 0.6928 0.84796 0.3581 0.0
H1505 H 0.63869 0.85752 0.32575 0.0
H1506 H 0.6417 0.84155 0.33048 0.0
H1507 H 0.67756 0.86351 0.31233 0.0
H1508 H 0.67427 0.87959 0.30463 0.0
H1509 H 0.67446 0.84955 0.35758 0.0
H1510 H 0.65911 0.84438 0.25649 0.0
H1511 H 0.64639 0.84266 0.21326 0.0
H1512 H 0.61884 0.81322 0.25662 0.0
H1513 H 0.63137 0.81495 0.3007 0.0
C1514 C 0.67499 0.80148 0.33978 0.0
C1515 C 0.66464 0.7912 0.34413 0.0
C1516 C 0.67482 0.81172 0.33621 0.0
C1517 C 0.6644 0.81166 0.33813 0.0
C1518 C 0.65432 0.80134 0.34236 0.0
C1519 C 0.65443 0.79129 0.34411 0.0
C1520 C 0.66347 0.82201 0.33414 0.0
C1521 C 0.65517 0.8214 0.31343 0.0
C1522 C 0.67039 0.83225 0.3505 0.0
C1523 C 0.67796 0.83299 0.37626 0.0
C1524 C 0.67363 0.82522 0.4012 0.0
C1525 C 0.6807 0.82609 0.426 0.0
C1526 C 0.69206 0.83484 0.42639 0.0
C1527 C 0.69636 0.84271 0.40193 0.0
C1528 C 0.68935 0.84182 0.37693 0.0
C1529 C 0.64733 0.85909 0.3241 0.0
C1530 C 0.65624 0.86971 0.31498 0.0
C1531 C 0.64896 0.84986 0.32565 0.0
C1532 C 0.65976 0.85125 0.3208 0.0
C1533 C 0.6691 0.86224 0.31562 0.0
C1534 C 0.66732 0.87147 0.31225 0.0
C1535 C 0.66124 0.84124 0.32325 0.0
C1536 C 0.66934 0.84178 0.3444 0.0
C1537 C 0.654 0.83087 0.30753 0.0
C1538 C 0.64614 0.82996 0.2822 0.0
C1539 C 0.65029 0.83766 0.25713 0.0
C1540 C 0.64313 0.83666 0.23241 0.0
C1541 C 0.63181 0.82785 0.23223 0.0
C1542 C 0.62761 0.82005 0.25686 0.0
C1543 C 0.63473 0.82106 0.2818 0.0
H1544 H 0.6263 0.82707 0.21295 0.0
H1545 H 0.69751 0.83553 0.4457 0.0
H1546 H 0.11223 0.7952 0.31184 0.0
H1547 H 0.12838 0.81461 0.32067 0.0
H1548 H 0.15117 0.80108 0.32119 0.0
H1549 H 0.13527 0.7821 0.31796 0.0
H1550 H 0.15753 0.81514 0.36189 0.0
H1551 H 0.14796 0.81553 0.25688 0.0
H1552 H 0.13675 0.81382 0.20984 0.0
H1553 H 0.13171 0.84079 0.24333 0.0
H1554 H 0.14264 0.84244 0.29109 0.0
H1555 H 0.20876 0.86421 0.33832 0.0
H1556 H 0.19126 0.84639 0.33424 0.0
H1557 H 0.17207 0.86378 0.34115 0.0
H1558 H 0.19015 0.8821 0.348 0.0
H1559 H 0.16379 0.84805 0.29736 0.0
H1560 H 0.17352 0.84734 0.40238 0.0
H1561 H 0.18474 0.84889 0.44911 0.0
H1562 H 0.1896 0.8219 0.41483 0.0
H1563 H 0.17861 0.8204 0.36721 0.0
C1564 C 0.12064 0.79646 0.31611 0.0
C1565 C 0.12261 0.78726 0.3149 0.0
C1566 C 0.12987 0.80751 0.31984 0.0
C1567 C 0.14102 0.80931 0.32081 0.0
C1568 C 0.14269 0.79996 0.32081 0.0
C1569 C 0.13354 0.78906 0.31968 0.0
C1570 C 0.15108 0.82076 0.32409 0.0
C1571 C 0.15899 0.82225 0.34722 0.0
C1572 C 0.15286 0.83015 0.30568 0.0
C1573 C 0.14588 0.82892 0.27785 0.0
C1574 C 0.14429 0.82096 0.25449 0.0
C1575 C 0.13802 0.82003 0.22766 0.0
C1576 C 0.13348 0.82716 0.22367 0.0
C1577 C 0.1352 0.83524 0.24654 0.0
C1578 C 0.14139 0.83615 0.27355 0.0
C1579 C 0.20083 0.86431 0.33856 0.0
C1580 C 0.20078 0.87442 0.3434 0.0
C1581 C 0.1908 0.85407 0.33694 0.0
C1582 C 0.18036 0.85367 0.33843 0.0
C1583 C 0.18011 0.86392 0.34057 0.0
C1584 C 0.19036 0.87435 0.34381 0.0
C1585 C 0.16993 0.84243 0.33572 0.0
C1586 C 0.1622 0.8409 0.31205 0.0
C1587 C 0.16834 0.83291 0.35343 0.0
C1588 C 0.17546 0.83397 0.38094 0.0
C1589 C 0.17715 0.84188 0.40447 0.0
C1590 C 0.18343 0.84271 0.43116 0.0
C1591 C 0.18791 0.83552 0.4349 0.0
C1592 C 0.18615 0.82749 0.41183 0.0
C1593 C 0.17992 0.82667 0.3849 0.0
H1594 H 0.19272 0.83616 0.45572 0.0
H1595 H 0.12866 0.82644 0.2028 0.0
H1596 H 0.68077 0.8806 0.8134 0.0
H1597 H 0.67822 0.86177 0.80591 0.0
H1598 H 0.64937 0.84775 0.86863 0.0
H1599 H 0.65224 0.8668 0.87701 0.0
H1600 H 0.66219 0.83949 0.8834 0.0
H1601 H 0.64712 0.8439 0.7894 0.0
H1602 H 0.64561 0.8526 0.74063 0.0
H1603 H 0.67396 0.85097 0.70205 0.0
H1604 H 0.67593 0.84261 0.75131 0.0
H1605 H 0.64536 0.78114 0.84605 0.0
H1606 H 0.64521 0.79923 0.85468 0.0
H1607 H 0.67377 0.81635 0.79175 0.0
H1608 H 0.67327 0.79924 0.78084 0.0
H1609 H 0.66129 0.82328 0.7787 0.0
H1610 H 0.67659 0.8187 0.87194 0.0
H1611 H 0.67827 0.81009 0.92084 0.0
H1612 H 0.64996 0.8117 0.95983 0.0
H1613 H 0.6479 0.82002 0.91073 0.0
C1614 C 0.67346 0.87342 0.82406 0.0
C1615 C 0.66678 0.87506 0.84606 0.0
C1616 C 0.67219 0.86269 0.82046 0.0
C1617 C 0.66364 0.85335 0.83687 0.0
C1618 C 0.65609 0.85485 0.85601 0.0
C1619 C 0.65746 0.86563 0.85986 0.0
C1620 C 0.66251 0.84201 0.83352 0.0
C1621 C 0.66175 0.83581 0.86054 0.0
C1622 C 0.66252 0.83748 0.80372 0.0
C1623 C 0.6618 0.84284 0.77429 0.0
C1624 C 0.65318 0.84559 0.77078 0.0
C1625 C 0.65223 0.85044 0.74305 0.0
C1626 C 0.65971 0.85236 0.71829 0.0
C1627 C 0.66821 0.8495 0.72132 0.0
C1628 C 0.66929 0.84476 0.74923 0.0
C1629 C 0.65143 0.78879 0.8339 0.0
C1630 C 0.65954 0.7887 0.81311 0.0
C1631 C 0.65141 0.7991 0.83901 0.0
C1632 C 0.65966 0.80922 0.82414 0.0
C1633 C 0.66728 0.80877 0.80334 0.0
C1634 C 0.66695 0.79873 0.79721 0.0
C1635 C 0.66063 0.82048 0.82861 0.0
C1636 C 0.66172 0.82688 0.8017 0.0
C1637 C 0.66108 0.82519 0.85843 0.0
C1638 C 0.66197 0.81979 0.88749 0.0
C1639 C 0.6706 0.81704 0.89074 0.0
C1640 C 0.67165 0.81224 0.91851 0.0
C1641 C 0.66422 0.81034 0.94341 0.0
C1642 C 0.65569 0.81316 0.9405 0.0
C1643 C 0.65455 0.81788 0.91266 0.0
H1644 H 0.66508 0.80669 0.96499 0.0
H1645 H 0.65889 0.85605 0.69672 0.0
H1646 H 0.11422 0.79268 0.80079 0.0
H1647 H 0.13378 0.80831 0.78907 0.0
H1648 H 0.14182 0.8111 0.88763 0.0
H1649 H 0.12419 0.79422 0.89773 0.0
H1650 H 0.14663 0.83094 0.86788 0.0
H1651 H 0.1532 0.80166 0.83924 0.0
H1652 H 0.15077 0.7845 0.81274 0.0
H1653 H 0.15817 0.80166 0.72413 0.0
H1654 H 0.16023 0.81883 0.75003 0.0
H1655 H 0.20554 0.87157 0.86441 0.0
H1656 H 0.18714 0.85403 0.87238 0.0
H1657 H 0.18198 0.85082 0.7722 0.0
H1658 H 0.20061 0.86719 0.76439 0.0
H1659 H 0.17493 0.83177 0.79305 0.0
H1660 H 0.16849 0.8613 0.82236 0.0
H1661 H 0.17063 0.8783 0.84918 0.0
H1662 H 0.16315 0.8609 0.93743 0.0
H1663 H 0.16124 0.84383 0.91114 0.0
C1664 C 0.12046 0.79622 0.81939 0.0
C1665 C 0.11739 0.79284 0.8508 0.0
C1666 C 0.13147 0.80533 0.81291 0.0
C1667 C 0.13898 0.81121 0.8379 0.0
C1668 C 0.13606 0.80698 0.86819 0.0
C1669 C 0.12591 0.79721 0.87376 0.0
C1670 C 0.15015 0.82152 0.83339 0.0
C1671 C 0.15291 0.83112 0.85179 0.0
C1672 C 0.15823 0.82176 0.81234 0.0
C1673 C 0.15661 0.81141 0.79643 0.0
C1674 C 0.15408 0.8017 0.81402 0.0
C1675 C 0.1528 0.79199 0.79915 0.0
C1676 C 0.15428 0.79198 0.76677 0.0
C1677 C 0.15699 0.80168 0.74918 0.0
C1678 C 0.15816 0.81138 0.76392 0.0
C1679 C 0.20072 0.86669 0.84426 0.0
C1680 C 0.20424 0.87083 0.81377 0.0
C1681 C 0.19005 0.85694 0.84878 0.0
C1682 C 0.18297 0.85139 0.82291 0.0
C1683 C 0.18717 0.85498 0.79258 0.0
C1684 C 0.19792 0.86426 0.78814 0.0
C1685 C 0.17144 0.84141 0.82682 0.0
C1686 C 0.16865 0.83175 0.80879 0.0
C1687 C 0.16338 0.84114 0.84842 0.0
C1688 C 0.16501 0.85142 0.86488 0.0
C1689 C 0.16751 0.86117 0.84756 0.0
C1690 C 0.16863 0.87079 0.86263 0.0
C1691 C 0.16708 0.87069 0.89499 0.0
C1692 C 0.1644 0.86097 0.91238 0.0
C1693 C 0.16334 0.85132 0.89742 0.0
H1694 H 0.16791 0.87815 0.9066 0.0
H1695 H 0.15336 0.78446 0.7553 0.0
H1696 H 0.19654 0.32927 0.89829 0.0
H1697 H 0.17957 0.32945 0.88696 0.0
H1698 H 0.18458 0.32696 0.78813 0.0
H1699 H 0.20052 0.32353 0.80045 0.0
H1700 H 0.17879 0.34243 0.80163 0.0
H1701 H 0.16308 0.30426 0.82957 0.0
H1702 H 0.1595 0.28719 0.8585 0.0
H1703 H 0.14788 0.298 0.9379 0.0
H1704 H 0.15173 0.31541 0.90966 0.0
H1705 H 0.12569 0.33544 0.76515 0.0
H1706 H 0.14246 0.33392 0.77295 0.0
H1707 H 0.13777 0.33332 0.87317 0.0
H1708 H 0.12001 0.33365 0.86495 0.0
H1709 H 0.1428 0.31805 0.85908 0.0
H1710 H 0.1588 0.35625 0.83163 0.0
H1711 H 0.16243 0.37336 0.80274 0.0
H1712 H 0.174 0.36251 0.7233 0.0
H1713 H 0.16999 0.34504 0.75133 0.0
C1714 C 0.194 0.32833 0.87394 0.0
C1715 C 0.19915 0.32508 0.85086 0.0
C1716 C 0.18412 0.32837 0.86764 0.0
C1717 C 0.18033 0.32746 0.83701 0.0
C1718 C 0.18704 0.327 0.81226 0.0
C1719 C 0.19631 0.32538 0.81916 0.0
C1720 C 0.16991 0.3281 0.83206 0.0
C1721 C 0.17079 0.33686 0.81331 0.0
C1722 C 0.15975 0.32132 0.84938 0.0
C1723 C 0.15789 0.31124 0.86759 0.0
C1724 C 0.15997 0.30313 0.8534 0.0
C1725 C 0.15785 0.29337 0.86962 0.0
C1726 C 0.15348 0.29152 0.90002 0.0
C1727 C 0.15128 0.29947 0.91436 0.0
C1728 C 0.15347 0.30932 0.89826 0.0
C1729 C 0.12845 0.33541 0.78895 0.0
C1730 C 0.1215 0.33444 0.81439 0.0
C1731 C 0.138 0.33441 0.79337 0.0
C1732 C 0.14146 0.33355 0.82364 0.0
C1733 C 0.13521 0.33389 0.84956 0.0
C1734 C 0.12528 0.33446 0.84498 0.0
C1735 C 0.15158 0.33221 0.82769 0.0
C1736 C 0.15073 0.3235 0.84697 0.0
C1737 C 0.16183 0.33905 0.811 0.0
C1738 C 0.16389 0.34926 0.7934 0.0
C1739 C 0.16191 0.35739 0.80779 0.0
C1740 C 0.16405 0.36716 0.7916 0.0
C1741 C 0.16842 0.36901 0.7612 0.0
C1742 C 0.17059 0.36104 0.74682 0.0
C1743 C 0.16832 0.35117 0.7628 0.0
H1744 H 0.17016 0.37664 0.74879 0.0
H1745 H 0.15179 0.2839 0.91246 0.0
H1746 H 0.79629 0.67956 0.67315 0.0
H1747 H 0.81406 0.67994 0.669 0.0
H1748 H 0.79659 0.64325 0.67283 0.0
H1749 H 0.7784 0.64301 0.68207 0.0
H1750 H 0.81544 0.65164 0.70432 0.0
H1751 H 0.8076 0.65946 0.6036 0.0
H1752 H 0.8021 0.66803 0.56151 0.0
H1753 H 0.83136 0.70064 0.58071 0.0
H1754 H 0.83686 0.69231 0.62388 0.0
H1755 H 0.86528 0.65206 0.64622 0.0
H1756 H 0.84595 0.64878 0.65625 0.0
H1757 H 0.85953 0.68511 0.65898 0.0
H1758 H 0.87849 0.68826 0.65239 0.0
H1759 H 0.84256 0.67655 0.62293 0.0
H1760 H 0.85053 0.66901 0.72338 0.0
H1761 H 0.85607 0.66055 0.76574 0.0
H1762 H 0.82685 0.62787 0.74681 0.0
H1763 H 0.82135 0.63607 0.70343 0.0
C1764 C 0.79614 0.67151 0.67253 0.0
C1765 C 0.78604 0.66132 0.6774 0.0
C1766 C 0.80635 0.67174 0.67016 0.0
C1767 C 0.80671 0.66166 0.66942 0.0
C1768 C 0.79649 0.65116 0.67298 0.0
C1769 C 0.78611 0.65098 0.67748 0.0
C1770 C 0.81793 0.66251 0.66505 0.0
C1771 C 0.82124 0.6568 0.68594 0.0
C1772 C 0.82581 0.66989 0.64227 0.0
C1773 C 0.82253 0.67526 0.61727 0.0
C1774 C 0.81277 0.6685 0.59925 0.0
C1775 C 0.80966 0.67331 0.57518 0.0
C1776 C 0.81637 0.68488 0.56846 0.0
C1777 C 0.82617 0.69169 0.58601 0.0
C1778 C 0.82927 0.68693 0.61041 0.0
C1779 C 0.86409 0.65922 0.65111 0.0
C1780 C 0.87329 0.67041 0.6494 0.0
C1781 C 0.8531 0.65739 0.65597 0.0
C1782 C 0.85134 0.66675 0.65818 0.0
C1783 C 0.86066 0.67779 0.6574 0.0
C1784 C 0.87155 0.67957 0.65457 0.0
C1785 C 0.83987 0.66527 0.66143 0.0
C1786 C 0.83669 0.67123 0.64099 0.0
C1787 C 0.83217 0.65822 0.68468 0.0
C1788 C 0.83565 0.65311 0.70979 0.0
C1789 C 0.8454 0.65998 0.7278 0.0
C1790 C 0.84852 0.65524 0.75205 0.0
C1791 C 0.84182 0.64368 0.75892 0.0
C1792 C 0.83203 0.63682 0.74139 0.0
C1793 C 0.82894 0.6415 0.71686 0.0
H1794 H 0.84421 0.64003 0.77789 0.0
H1795 H 0.81398 0.68856 0.54961 0.0
H1796 H 0.31594 0.11926 0.70983 0.0
H1797 H 0.31617 0.13643 0.70082 0.0
H1798 H 0.34571 0.14832 0.64154 0.0
H1799 H 0.34568 0.13018 0.65105 0.0
H1800 H 0.34667 0.16484 0.67726 0.0
H1801 H 0.31802 0.13815 0.61232 0.0
H1802 H 0.30144 0.12032 0.59474 0.0
H1803 H 0.2801 0.12524 0.65962 0.0
H1804 H 0.29671 0.14301 0.67846 0.0
H1805 H 0.33807 0.20861 0.61988 0.0
H1806 H 0.34081 0.19241 0.62801 0.0
H1807 H 0.31108 0.17686 0.68751 0.0
H1808 H 0.30833 0.19302 0.67907 0.0
H1809 H 0.30979 0.16184 0.64935 0.0
H1810 H 0.33822 0.18824 0.71468 0.0
H1811 H 0.35478 0.20606 0.73254 0.0
H1812 H 0.37619 0.20125 0.66765 0.0
H1813 H 0.35962 0.18359 0.64838 0.0
C1814 C 0.32265 0.12535 0.6948 0.0
C1815 C 0.33057 0.12304 0.68071 0.0
C1816 C 0.3226 0.13524 0.68927 0.0
C1817 C 0.33049 0.14342 0.66924 0.0
C1818 C 0.33923 0.14184 0.65632 0.0
C1819 C 0.33921 0.13153 0.66167 0.0
C1820 C 0.32938 0.15358 0.66369 0.0
C1821 C 0.33872 0.16422 0.67008 0.0
C1822 C 0.3187 0.15268 0.65676 0.0
C1823 C 0.30866 0.14181 0.64707 0.0
C1824 C 0.30984 0.13534 0.62328 0.0
C1825 C 0.30044 0.12527 0.61303 0.0
C1826 C 0.28973 0.12165 0.62608 0.0
C1827 C 0.28842 0.12806 0.6496 0.0
C1828 C 0.29784 0.13813 0.66018 0.0
C1829 C 0.33257 0.20205 0.63625 0.0
C1830 C 0.32297 0.20194 0.64872 0.0
C1831 C 0.33395 0.19266 0.64023 0.0
C1832 C 0.32612 0.18338 0.65829 0.0
C1833 C 0.31719 0.18388 0.67335 0.0
C1834 C 0.31586 0.19331 0.66947 0.0
C1835 C 0.32729 0.17318 0.66156 0.0
C1836 C 0.3178 0.16248 0.6559 0.0
C1837 C 0.33779 0.17399 0.66932 0.0
C1838 C 0.34767 0.18475 0.67973 0.0
C1839 C 0.34641 0.1911 0.70376 0.0
C1840 C 0.35579 0.20115 0.71417 0.0
C1841 C 0.36652 0.20479 0.70119 0.0
C1842 C 0.36787 0.19842 0.67759 0.0
C1843 C 0.35847 0.18843 0.66678 0.0
H1844 H 0.37381 0.21255 0.7095 0.0
H1845 H 0.28244 0.11386 0.6179 0.0
H1846 H 0.79547 0.11488 0.68916 0.0
H1847 H 0.8116 0.13395 0.69894 0.0
H1848 H 0.8036 0.14599 0.61455 0.0
H1849 H 0.78705 0.12736 0.60649 0.0
H1850 H 0.82502 0.15237 0.61357 0.0
H1851 H 0.79975 0.15349 0.68563 0.0
H1852 H 0.78592 0.14767 0.72866 0.0
H1853 H 0.81139 0.15078 0.79387 0.0
H1854 H 0.82531 0.15622 0.75081 0.0
H1855 H 0.86583 0.21137 0.63668 0.0
H1856 H 0.84768 0.19323 0.62818 0.0
H1857 H 0.85296 0.18057 0.71553 0.0
H1858 H 0.86861 0.19872 0.72726 0.0
H1859 H 0.83324 0.17392 0.71305 0.0
H1860 H 0.8589 0.17307 0.64138 0.0
H1861 H 0.8727 0.17872 0.59821 0.0
H1862 H 0.84723 0.17555 0.53297 0.0
H1863 H 0.83332 0.17016 0.57601 0.0
C1864 C 0.79673 0.12179 0.674 0.0
C1865 C 0.79039 0.11967 0.64638 0.0
C1866 C 0.80614 0.13259 0.67899 0.0
C1867 C 0.80896 0.14129 0.65691 0.0
C1868 C 0.80173 0.13936 0.6315 0.0
C1869 C 0.79209 0.12881 0.62748 0.0
C1870 C 0.81928 0.15254 0.66053 0.0
C1871 C 0.82678 0.15721 0.63512 0.0
C1872 C 0.82175 0.15863 0.68894 0.0
C1873 C 0.81347 0.155 0.71491 0.0
C1874 C 0.80235 0.15271 0.70902 0.0
C1875 C 0.7945 0.14951 0.7334 0.0
C1876 C 0.79777 0.14882 0.76395 0.0
C1877 C 0.80888 0.15128 0.77015 0.0
C1878 C 0.81674 0.15437 0.74573 0.0
C1879 C 0.86269 0.20485 0.65453 0.0
C1880 C 0.8691 0.20619 0.68189 0.0
C1881 C 0.85256 0.19441 0.64927 0.0
C1882 C 0.84924 0.18534 0.67064 0.0
C1883 C 0.85529 0.18726 0.69845 0.0
C1884 C 0.86442 0.19778 0.70498 0.0
C1885 C 0.83913 0.17393 0.66606 0.0
C1886 C 0.83167 0.16912 0.69148 0.0
C1887 C 0.8368 0.16775 0.63777 0.0
C1888 C 0.84516 0.17144 0.61197 0.0
C1889 C 0.85629 0.17377 0.61792 0.0
C1890 C 0.86412 0.17688 0.59348 0.0
C1891 C 0.86085 0.17752 0.56289 0.0
C1892 C 0.84974 0.17508 0.5567 0.0
C1893 C 0.8419 0.17203 0.58112 0.0
H1894 H 0.86691 0.17988 0.54396 0.0
H1895 H 0.79168 0.14641 0.78286 0.0
H1896 H 0.98727 0.53614 0.48758 0.0
H1897 H 0.98386 0.51665 0.47731 0.0
H1898 H 0.0109 0.52449 0.5334 0.0
H1899 H 0.01527 0.54378 0.53845 0.0
H1900 H 0.01199 0.5147 0.48805 0.0
H1901 H 0.98563 0.50763 0.55954 0.0
H1902 H 0.96893 0.50734 0.58301 0.0
H1903 H 0.94805 0.48668 0.50699 0.0
H1904 H 0.96474 0.48715 0.48254 0.0
H1905 H 0.00428 0.46078 0.51414 0.0
H1906 H 0.00556 0.47914 0.51872 0.0
H1907 H 0.97915 0.46782 0.45716 0.0
H1908 H 0.97835 0.44939 0.451 0.0
H1909 H 0.97758 0.47929 0.50343 0.0
H1910 H 0.00445 0.48672 0.43283 0.0
H1911 H 0.02132 0.48733 0.40968 0.0
H1912 H 0.04186 0.50799 0.48612 0.0
H1913 H 0.02498 0.50726 0.51026 0.0
C1914 C 0.9932 0.53367 0.49623 0.0
C1915 C 0.00035 0.54133 0.51358 0.0
C1916 C 0.99112 0.52255 0.49118 0.0
C1917 C -0.00416 0.5191 0.50497 0.0
C1918 C 0.00532 0.52693 0.52209 0.0
C1919 C 0.00784 0.53799 0.52484 0.0
C1920 C -0.00566 0.50765 0.50063 0.0
C1921 C 0.00395 0.50697 0.49214 0.0
C1922 C 0.98638 0.49756 0.50516 0.0
C1923 C 0.97645 0.49761 0.51895 0.0
C1924 C 0.97752 0.5032 0.54756 0.0
C1925 C 0.96806 0.50297 0.56107 0.0
C1926 C 0.95745 0.49702 0.54645 0.0
C1927 C 0.95629 0.49131 0.51821 0.0
C1928 C 0.96575 0.49159 0.50445 0.0
C1929 C -0.00211 0.46204 0.5026 0.0
C1930 C 0.99239 0.4537 0.48277 0.0
C1931 C -0.00114 0.47266 0.50439 0.0
C1932 C 0.99392 0.47498 0.48767 0.0
C1933 C 0.98509 0.46624 0.47 0.0
C1934 C 0.98443 0.45565 0.46713 0.0
C1935 C 0.99512 0.48639 0.49025 0.0
C1936 C 0.98558 0.48706 0.49927 0.0
C1937 C 0.00324 0.49653 0.48673 0.0
C1938 C 0.01339 0.49667 0.47366 0.0
C1939 C 0.01252 0.49122 0.44502 0.0
C1940 C 0.02208 0.49162 0.43167 0.0
C1941 C 0.03264 0.49765 0.44649 0.0
C1942 C 0.03366 0.50329 0.47477 0.0
C1943 C 0.02408 0.50285 0.48836 0.0
H1944 H 0.04006 0.49798 0.43599 0.0
H1945 H 0.95011 0.4968 0.55705 0.0
H1946 H 0.44959 0.47189 0.54396 0.0
H1947 H 0.46876 0.48677 0.53667 0.0
H1948 H 0.47452 0.46602 0.47065 0.0
H1949 H 0.45519 0.44981 0.48267 0.0
H1950 H 0.49259 0.4781 0.50443 0.0
H1951 H 0.4691 0.48809 0.44951 0.0
H1952 H 0.45319 0.49123 0.438 0.0
H1953 H 0.46485 0.51715 0.50886 0.0
H1954 H 0.48071 0.51388 0.52163 0.0
H1955 H 0.54194 0.52756 0.44732 0.0
H1956 H 0.52367 0.50991 0.45494 0.0
H1957 H 0.51435 0.52681 0.52481 0.0
H1958 H 0.53262 0.54404 0.51821 0.0
H1959 H 0.49784 0.51657 0.48765 0.0
H1960 H 0.52104 0.5065 0.5429 0.0
H1961 H 0.53685 0.50322 0.55502 0.0
H1962 H 0.52524 0.47729 0.48415 0.0
H1963 H 0.50957 0.48073 0.47075 0.0
C1964 C 0.45489 0.47042 0.52776 0.0
C1965 C 0.45101 0.45983 0.51397 0.0
C1966 C 0.46585 0.479 0.52341 0.0
C1967 C 0.47292 0.47775 0.50214 0.0
C1968 C 0.46907 0.46718 0.48691 0.0
C1969 C 0.45806 0.45805 0.49324 0.0
C1970 C 0.48425 0.48775 0.49681 0.0
C1971 C 0.49375 0.48645 0.49967 0.0
C1972 C 0.48573 0.49879 0.49288 0.0
C1973 C 0.47603 0.50065 0.48666 0.0
C1974 C 0.46819 0.49434 0.46302 0.0
C1975 C 0.45919 0.49615 0.45624 0.0
C1976 C 0.45801 0.50439 0.47266 0.0
C1977 C 0.46578 0.51077 0.49617 0.0
C1978 C 0.47477 0.50891 0.50329 0.0
C1979 C 0.53622 0.52719 0.46557 0.0
C1980 C 0.53871 0.53695 0.48299 0.0
C1981 C 0.52572 0.51724 0.46945 0.0
C1982 C 0.51766 0.51704 0.49058 0.0
C1983 C 0.52043 0.52673 0.50853 0.0
C1984 C 0.53099 0.53647 0.50543 0.0
C1985 C 0.50625 0.50685 0.49384 0.0
C1986 C 0.49671 0.50819 0.49175 0.0
C1987 C 0.50473 0.49588 0.4985 0.0
C1988 C 0.51432 0.49406 0.50537 0.0
C1989 C 0.52199 0.50026 0.52945 0.0
C1990 C 0.5309 0.49836 0.53661 0.0
C1991 C 0.53207 0.49008 0.52028 0.0
C1992 C 0.52434 0.48372 0.49666 0.0
C1993 C 0.51548 0.48569 0.48916 0.0
H1994 H 0.53894 0.48856 0.52602 0.0
H1995 H 0.45107 0.50584 0.46715 0.0
H1996 H 0.46479 0.01233 0.44609 0.0
H1997 H 0.48228 0.01139 0.45284 0.0
H1998 H 0.46503 0.98794 0.52394 0.0
H1999 H 0.44824 0.98973 0.51925 0.0
H2000 H 0.48481 -0.00199 0.54182 0.0
H2001 H 0.46974 0.98196 0.44681 0.0
H2002 H 0.46211 0.97808 0.39317 0.0
H2003 H 0.49436 0.00267 0.35816 0.0
H2004 H 0.50209 0.00696 0.41186 0.0
H2005 H 0.5202 0.97873 0.54478 0.0
H2006 H 0.5053 0.98295 0.53683 0.0
H2007 H 0.52673 0.00722 0.47131 0.0
H2008 H 0.54256 0.00339 0.48143 0.0
H2009 H 0.50531 0.997 0.45073 0.0
H2010 H 0.52036 0.01283 0.54645 0.0
H2011 H 0.52788 0.01642 0.60011 0.0
H2012 H 0.49552 0.99178 0.63433 0.0
H2013 H 0.48787 0.98776 0.58044 0.0
C2014 C 0.46518 0.00703 0.46438 0.0
C2015 C 0.45554 0.00013 0.48272 0.0
C2016 C 0.47497 0.00617 0.46745 0.0
C2017 C 0.47507 -0.00177 0.48834 0.0
C2018 C 0.46522 0.99414 0.50774 0.0
C2019 C 0.4557 0.99536 0.5056 0.0
C2020 C 0.4852 -0.00311 0.49157 0.0
C2021 C 0.48922 -0.00293 0.52186 0.0
C2022 C 0.49081 0.99822 0.46556 0.0
C2023 C 0.48617 0.99609 0.43343 0.0
C2024 C 0.47505 0.98718 0.42777 0.0
C2025 C 0.47072 0.98489 0.39736 0.0
C2026 C 0.47753 0.9913 0.37231 0.0
C2027 C 0.48909 -0.00224 0.37762 0.0
C2028 C 0.49343 0.00016 0.40807 0.0
C2029 C 0.52174 0.98552 0.52869 0.0
C2030 C 0.53227 0.99196 0.51425 0.0
C2031 C 0.51326 0.98805 0.52455 0.0
C2032 C 0.51481 0.99679 0.50452 0.0
C2033 C 0.5255 0.0006 0.48756 0.0
C2034 C 0.53442 -0.00165 0.49294 0.0
C2035 C 0.50551 -0.00354 0.50065 0.0
C2036 C 0.50095 0.99815 0.47048 0.0
C2037 C 0.49932 -0.00301 0.52681 0.0
C2038 C 0.50382 -0.00122 0.55926 0.0
C2039 C 0.51498 0.00753 0.56527 0.0
C2040 C 0.51925 0.00967 0.59574 0.0
C2041 C 0.51238 0.00321 0.62061 0.0
C2042 C 0.50083 0.99677 0.615 0.0
C2043 C 0.49653 0.99452 0.58444 0.0
H2044 H 0.5157 0.00495 0.64423 0.0
H2045 H 0.47416 0.98947 0.34874 0.0
H2046 H 0.54246 0.0067 0.02415 0.0
H2047 H 0.52309 0.00313 0.03534 0.0
H2048 H 0.51298 0.99402 0.94284 0.0
H2049 H 0.53097 0.99511 0.93411 0.0
H2050 H 0.50811 0.00729 0.95476 0.0
H2051 H 0.50291 0.9765 -0.00175 0.0
H2052 H 0.50654 0.96403 0.03192 0.0
H2053 H 0.50101 0.97902 0.1138 0.0
H2054 H 0.49776 0.99194 0.08052 0.0
H2055 H 0.44869 0.99103 0.96571 0.0
H2056 H 0.46695 0.99152 0.9575 0.0
H2057 H 0.47539 -0.00248 0.05245 0.0
H2058 H 0.45648 0.99737 0.06138 0.0
H2059 H 0.48186 0.98713 0.03824 0.0
H2060 H 0.48685 0.01799 0.99448 0.0
H2061 H 0.48347 0.03061 0.96057 0.0
H2062 H 0.48909 0.01555 0.87897 0.0
H2063 H 0.49223 0.0026 0.91248 0.0
C2064 C 0.5359 0.00273 0.00647 0.0
C2065 C 0.53857 0.00071 0.97892 0.0
C2066 C 0.52498 0.00105 0.01246 0.0
C2067 C 0.517 -0.00237 0.99081 0.0
C2068 C 0.51909 0.9969 0.96183 0.0
C2069 C 0.52935 0.99735 0.95716 0.0
C2070 C 0.5058 -0.00322 0.99495 0.0
C2071 C 0.50235 0.00225 0.97339 0.0
C2072 C 0.49802 0.99275 0.01658 0.0
C2073 C 0.50034 0.98535 0.03691 0.0
C2074 C 0.50269 0.97731 0.02344 0.0
C2075 C 0.50465 0.97014 0.04244 0.0
C2076 C 0.50404 0.97075 0.07498 0.0
C2077 C 0.50152 0.97859 0.08859 0.0
C2078 C 0.49967 0.98589 0.06967 0.0
C2079 C 0.45414 0.99226 0.98557 0.0
C2080 C 0.45145 0.99473 0.01255 0.0
C2081 C 0.46472 0.99296 0.98073 0.0
C2082 C 0.47258 0.99627 0.00264 0.0
C2083 C 0.46923 0.99745 0.03276 0.0
C2084 C 0.45853 0.99596 0.03786 0.0
C2085 C 0.4841 0.99778 -0.0016 0.0
C2086 C 0.48761 0.99234 0.01981 0.0
C2087 C 0.49188 0.00183 0.97658 0.0
C2088 C 0.48953 0.00917 0.956 0.0
C2089 C 0.48717 0.01722 0.9693 0.0
C2090 C 0.48534 0.02446 0.95016 0.0
C2091 C 0.48603 0.02385 0.91763 0.0
C2092 C 0.48852 0.01598 0.90416 0.0
C2093 C 0.4903 0.00866 0.92323 0.0
H2094 H 0.48465 0.02951 0.90287 0.0
H2095 H 0.50548 0.96513 0.08966 0.0
H2096 H 0.97244 0.52205 0.97907 0.0
H2097 H 0.97597 0.50659 0.98389 0.0
H2098 H 0.00927 0.53025 -0.00463 0.0
H2099 H 0.00589 0.54609 0.98708 0.0
H2100 H 0.00684 0.51343 0.96383 0.0
H2101 H 0.99228 0.51446 0.05521 0.0
H2102 H 0.9788 0.5155 0.09153 0.0
H2103 H 0.95191 0.48358 0.0569 0.0
H2104 H 0.96519 0.48254 0.0193 0.0
H2105 H 0.01457 0.46819 0.02034 0.0
H2106 H 0.0142 0.48604 0.01178 0.0
H2107 H 0.98083 0.46613 0.99364 0.0
H2108 H 0.98142 0.44892 -0.00337 0.0
H2109 H 0.98355 0.48132 0.02925 0.0
H2110 H -0.00212 0.48016 0.93804 0.0
H2111 H 0.01126 0.47914 0.90118 0.0
H2112 H 0.03823 0.51108 0.93557 0.0
H2113 H 0.02507 0.51209 0.97354 0.0
C2114 C 0.98105 0.52404 0.98437 0.0
C2115 C 0.99009 0.53519 0.98332 0.0
C2116 C 0.98308 0.51513 0.98681 0.0
C2117 C 0.99405 0.51713 0.99254 0.0
C2118 C 0.0007 0.52842 0.99412 0.0
C2119 C -0.00124 0.5375 0.98878 0.0
C2120 C 0.99556 0.50717 0.99677 0.0
C2121 C 0.00145 0.50653 0.9795 0.0
C2122 C 0.98798 0.49794 0.01274 0.0
C2123 C 0.97971 0.49851 0.03422 0.0
C2124 C 0.98345 0.50775 0.05492 0.0
C2125 C 0.97586 0.50833 0.07575 0.0
C2126 C 0.96451 0.49961 0.07652 0.0
C2127 C 0.9607 0.49032 0.05621 0.0
C2128 C 0.96826 0.48976 0.03501 0.0
C2129 C 0.00682 0.4678 0.0124 0.0
C2130 C -0.00324 0.45725 0.00834 0.0
C2131 C 0.00654 0.47792 0.00807 0.0
C2132 C -0.00383 0.47744 0.00065 0.0
C2133 C 0.98888 0.46686 -0.00359 0.0
C2134 C 0.98928 0.45696 -0.00079 0.0
C2135 C -0.00478 0.48777 -0.00261 0.0
C2136 C 0.9891 0.48829 0.01397 0.0
C2137 C 0.00252 0.49682 0.98073 0.0
C2138 C 0.01056 0.49608 0.95902 0.0
C2139 C 0.00671 0.48686 0.93819 0.0
C2140 C 0.01424 0.48629 0.91705 0.0
C2141 C 0.02559 0.49503 0.9161 0.0
C2142 C 0.02945 0.50431 0.93643 0.0
C2143 C 0.02197 0.50486 0.95787 0.0
H2144 H 0.0314 0.49462 0.89953 0.0
H2145 H 0.95866 0.50004 0.09291 0.0
H2146 H 0.46738 0.44776 0.00011 0.0
H2147 H 0.48352 0.4666 0.00589 0.0
H2148 H 0.46373 0.48094 0.97375 0.0
H2149 H 0.44772 0.46164 0.96435 0.0
H2150 H 0.48358 0.49143 0.9486 0.0
H2151 H 0.471 0.4815 0.04901 0.0
H2152 H 0.46447 0.4702 0.09724 0.0
H2153 H 0.49683 0.47209 0.10687 0.0
H2154 H 0.50345 0.48311 0.05777 0.0
H2155 H 0.52593 0.5483 -0.00478 0.0
H2156 H 0.50791 0.52993 0.98926 0.0
H2157 H 0.52445 0.51173 0.01749 0.0
H2158 H 0.54185 0.52919 0.02487 0.0
H2159 H 0.506 0.50316 0.044 0.0
H2160 H 0.51889 0.51314 0.94414 0.0
H2161 H 0.52549 0.52434 0.89562 0.0
H2162 H 0.49317 0.52252 0.88554 0.0
H2163 H 0.48648 0.51158 0.93464 0.0
C2164 C 0.46622 0.45493 -0.0048 0.0
C2165 C 0.45636 0.45328 0.98355 0.0
C2166 C 0.47557 0.46573 -0.00213 0.0
C2167 C 0.47483 0.47515 0.99215 0.0
C2168 C 0.46449 0.47368 0.98054 0.0
C2169 C 0.45524 0.46273 0.97629 0.0
C2170 C 0.48491 0.48657 0.99567 0.0
C2171 C 0.48834 0.49411 0.97035 0.0
C2172 C 0.49148 0.4899 0.02051 0.0
C2173 C 0.48762 0.48295 0.04941 0.0
C2174 C 0.47666 0.47934 0.06105 0.0
C2175 C 0.47295 0.473 0.08855 0.0
C2176 C 0.48022 0.47041 0.10507 0.0
C2177 C 0.49121 0.47409 0.09396 0.0
C2178 C 0.49493 0.48034 0.06618 0.0
C2179 C 0.52562 0.54031 -0.00055 0.0
C2180 C 0.53528 0.54007 0.01068 0.0
C2181 C 0.51539 0.52983 0.99756 0.0
C2182 C 0.51487 0.51951 0.00133 0.0
C2183 C 0.52454 0.51958 0.01244 0.0
C2184 C 0.53456 0.52964 0.01649 0.0
C2185 C 0.50448 0.50829 -0.00265 0.0
C2186 C 0.50122 0.50058 0.02228 0.0
C2187 C 0.4982 0.50482 0.97213 0.0
C2188 C 0.50227 0.51175 0.94336 0.0
C2189 C 0.51326 0.5153 0.9319 0.0
C2190 C 0.51701 0.52157 0.90426 0.0
C2191 C 0.50976 0.52416 0.88755 0.0
C2192 C 0.49877 0.52053 0.89856 0.0
C2193 C 0.49502 0.51434 0.92637 0.0
H2194 H 0.51266 0.52896 0.86602 0.0
H2195 H 0.47734 0.46556 0.12653 0.0
H2196 H 0.3355 0.10095 0.04592 0.0
H2197 H 0.33774 0.10278 0.99169 0.0
H2198 H 0.31123 0.06777 0.98066 0.0
H2199 H 0.30898 0.06592 0.03396 0.0
H2200 H 0.32744 0.07101 0.94505 0.0
H2201 H 0.3076 0.09023 0.96196 0.0
H2202 H 0.30241 0.10374 0.98396 0.0
H2203 H 0.33316 0.13171 0.94722 0.0
H2204 H 0.33875 0.11834 0.92584 0.0
H2205 H 0.32007 0.07156 0.78214 0.0
H2206 H 0.3182 0.07079 0.83898 0.0
H2207 H 0.34491 0.10592 0.8452 0.0
H2208 H 0.34678 0.10661 0.78763 0.0
H2209 H 0.32888 0.10257 0.88342 0.0
H2210 H 0.34863 0.08313 0.86632 0.0
H2211 H 0.35377 0.06954 0.84469 0.0
H2212 H 0.32298 0.0417 0.88167 0.0
H2213 H 0.31746 0.05516 0.90284 0.0
C2214 C 0.33008 0.09374 0.03119 0.0
C2215 C 0.32215 0.08322 0.04445 0.0
C2216 C 0.33134 0.09484 -0.00147 0.0
C2217 C 0.32466 0.08539 0.98171 0.0
C2218 C 0.31657 0.07507 0.99521 0.0
C2219 C 0.31523 0.0741 0.02459 0.0
C2220 C 0.32622 0.08617 0.94701 0.0
C2221 C 0.32752 0.07779 0.93153 0.0
C2222 C 0.32669 0.09517 0.92925 0.0
C2223 C 0.3237 0.10331 0.94293 0.0
C2224 C 0.31337 0.09927 0.95908 0.0
C2225 C 0.31034 0.10689 0.97135 0.0
C2226 C 0.31747 0.11857 0.96708 0.0
C2227 C 0.32768 0.12266 0.95059 0.0
C2228 C 0.33081 0.11506 0.93851 0.0
C2229 C 0.3254 0.07916 0.79568 0.0
C2230 C 0.33351 0.08912 0.78089 0.0
C2231 C 0.32448 0.07867 0.82821 0.0
C2232 C 0.33153 0.08821 0.84665 0.0
C2233 C 0.33938 0.09841 0.83157 0.0
C2234 C 0.3404 0.09886 0.79879 0.0
C2235 C 0.3303 0.08754 0.88149 0.0
C2236 C 0.32888 0.09583 0.89696 0.0
C2237 C 0.32968 0.07842 0.89921 0.0
C2238 C 0.33254 0.07015 0.88555 0.0
C2239 C 0.34284 0.07411 0.86935 0.0
C2240 C 0.34584 0.06643 0.85728 0.0
C2241 C 0.33869 0.05477 0.86172 0.0
C2242 C 0.32848 0.05074 0.87818 0.0
C2243 C 0.32539 0.05839 0.89014 0.0
H2244 H 0.34107 0.04884 0.85247 0.0
H2245 H 0.31507 0.12447 0.97648 0.0
H2246 H 0.91962 0.25862 0.78749 0.0
H2247 H 0.9201 0.25675 0.84384 0.0
H2248 H 0.88816 0.22506 0.84018 0.0
H2249 H 0.88766 0.22706 0.78273 0.0
H2250 H 0.88816 0.23679 0.88819 0.0
H2251 H 0.91432 0.22668 0.85212 0.0
H2252 H 0.93035 0.22743 0.82327 0.0
H2253 H 0.95373 0.25777 0.87303 0.0
H2254 H 0.93774 0.25741 0.90158 0.0
H2255 H 0.893 0.22198 0.04247 0.0
H2256 H 0.89124 0.22241 0.98794 0.0
H2257 H 0.92326 0.25406 0.98498 0.0
H2258 H 0.92512 0.25339 0.03835 0.0
H2259 H 0.92318 0.24225 0.94018 0.0
H2260 H 0.89713 0.25245 0.97644 0.0
H2261 H 0.88108 0.25186 0.00228 0.0
H2262 H 0.85771 0.22141 0.95546 0.0
H2263 H 0.87368 0.22172 0.92703 0.0
C2264 C 0.9127 0.25124 0.7987 0.0
C2265 C 0.90363 0.24303 0.78109 0.0
C2266 C 0.91303 0.25011 0.83091 0.0
C2267 C 0.90434 0.24064 0.8464 0.0
C2268 C 0.89505 0.23239 0.82876 0.0
C2269 C 0.89477 0.23348 0.79607 0.0
C2270 C 0.90504 0.23966 0.88105 0.0
C2271 C 0.89571 0.23769 0.89948 0.0
C2272 C 0.91512 0.24145 0.89615 0.0
C2273 C 0.92481 0.24214 0.87845 0.0
C2274 C 0.92285 0.23364 0.85651 0.0
C2275 C 0.93192 0.23397 0.84028 0.0
C2276 C 0.94304 0.24267 0.84623 0.0
C2277 C 0.9451 0.25107 0.86839 0.0
C2278 C 0.93603 0.25084 0.88452 0.0
C2279 C 0.89956 0.22903 0.0293 0.0
C2280 C 0.90919 0.23771 0.0445 0.0
C2281 C 0.89856 0.22937 -0.00339 0.0
C2282 C 0.90703 0.2384 0.98204 0.0
C2283 C 0.91661 0.24693 0.9977 0.0
C2284 C 0.91765 0.24661 0.027 0.0
C2285 C 0.90617 0.23912 0.94737 0.0
C2286 C 0.91558 0.24128 0.92894 0.0
C2287 C 0.8962 0.23757 0.93233 0.0
C2288 C 0.88661 0.23699 0.95013 0.0
C2289 C 0.88859 0.24551 0.97205 0.0
C2290 C 0.87952 0.2452 0.98822 0.0
C2291 C 0.8684 0.23652 0.98222 0.0
C2292 C 0.86633 0.2281 0.96012 0.0
C2293 C 0.8754 0.22831 0.94407 0.0
H2294 H 0.86137 0.23634 0.99466 0.0
H2295 H 0.95007 0.24287 0.83373 0.0
H2296 H 0.73107 0.64995 0.79086 0.0
H2297 H 0.73306 0.65249 0.84685 0.0
H2298 H 0.76963 0.67019 0.83762 0.0
H2299 H 0.76763 0.66759 0.78023 0.0
H2300 H 0.76365 0.657 0.88578 0.0
H2301 H 0.75414 0.68393 0.85277 0.0
H2302 H 0.7441 0.69237 0.82631 0.0
H2303 H 0.71414 0.67152 0.88075 0.0
H2304 H 0.72393 0.66265 0.90699 0.0
H2305 H 0.77312 0.67839 0.03951 0.0
H2306 H 0.77249 0.67591 0.98504 0.0
H2307 H 0.73575 0.6582 0.98842 0.0
H2308 H 0.73647 0.66084 0.04212 0.0
H2309 H 0.74186 0.67167 0.94291 0.0
H2310 H 0.75127 0.6447 0.97585 0.0
H2311 H 0.76129 0.63632 -0.00072 0.0
H2312 H 0.79126 0.65707 0.94774 0.0
H2313 H 0.7815 0.66599 0.92171 0.0
C2314 C 0.73959 0.65438 0.80053 0.0
C2315 C 0.74919 0.65876 0.78103 0.0
C2316 C 0.74069 0.65593 0.83271 0.0
C2317 C 0.75146 0.66187 0.84658 0.0
C2318 C 0.7612 0.66577 0.8274 0.0
C2319 C 0.76009 0.66431 0.79469 0.0
C2320 C 0.75235 0.66364 0.88118 0.0
C2321 C 0.75913 0.66049 0.89818 0.0
C2322 C 0.74595 0.66764 0.8977 0.0
C2323 C 0.73972 0.67247 0.88135 0.0
C2324 C 0.74535 0.68098 0.85871 0.0
C2325 C 0.73971 0.68586 0.84383 0.0
C2326 C 0.72848 0.68246 0.85176 0.0
C2327 C 0.72283 0.67411 0.87457 0.0
C2328 C 0.72841 0.66912 0.88939 0.0
C2329 C 0.76497 0.67389 0.02774 0.0
C2330 C 0.75481 0.66973 0.0447 0.0
C2331 C 0.76458 0.67252 -0.00491 0.0
C2332 C 0.75404 0.66673 0.98227 0.0
C2333 C 0.74396 0.66269 -0.00314 0.0
C2334 C 0.74437 0.66406 0.0292 0.0
C2335 C 0.75338 0.66524 0.94753 0.0
C2336 C 0.74646 0.66825 0.93054 0.0
C2337 C 0.7596 0.66108 0.93102 0.0
C2338 C 0.76573 0.65618 0.94735 0.0
C2339 C 0.76006 0.64764 0.96991 0.0
C2340 C 0.76569 0.64273 0.98472 0.0
C2341 C 0.77692 0.64612 0.97672 0.0
C2342 C 0.78257 0.65449 0.95397 0.0
C2343 C 0.77701 0.65951 0.93927 0.0
H2344 H 0.78124 0.64225 0.9881 0.0
H2345 H 0.72415 0.68631 0.8403 0.0
H2346 H 0.06467 0.32338 0.45387 0.0
H2347 H 0.06649 0.32563 0.51016 0.0
H2348 H 0.09976 0.3289 0.50545 0.0
H2349 H 0.09782 0.32646 0.4479 0.0
H2350 H 0.08893 0.31666 0.55344 0.0
H2351 H 0.0954 0.35188 0.51779 0.0
H2352 H 0.09283 0.36612 0.48931 0.0
H2353 H 0.06194 0.35624 0.54004 0.0
H2354 H 0.06414 0.34162 0.56826 0.0
H2355 H 0.103 0.33694 0.71059 0.0
H2356 H 0.10245 0.33467 0.6531 0.0
H2357 H 0.06918 0.33151 0.65134 0.0
H2358 H 0.06995 0.33412 0.70774 0.0
H2359 H 0.08012 0.34384 0.60643 0.0
H2360 H 0.07356 0.30863 0.64222 0.0
H2361 H 0.07609 0.29433 0.67061 0.0
H2362 H 0.10697 0.30421 0.61987 0.0
H2363 H 0.10482 0.31886 0.59181 0.0
C2364 C 0.07243 0.32465 0.46474 0.0
C2365 C 0.0812 0.32504 0.44657 0.0
C2366 C 0.07349 0.32602 0.49699 0.0
C2367 C 0.08339 0.3278 0.51216 0.0
C2368 C 0.09211 0.32774 0.49421 0.0
C2369 C 0.09107 0.32645 0.46143 0.0
C2370 C 0.08436 0.32951 0.5468 0.0
C2371 C 0.08729 0.32281 0.56496 0.0
C2372 C 0.08162 0.33712 0.56214 0.0
C2373 C 0.07983 0.3455 0.54465 0.0
C2374 C 0.08794 0.35258 0.52249 0.0
C2375 C 0.08657 0.36074 0.50646 0.0
C2376 C 0.07721 0.36206 0.51279 0.0
C2377 C 0.06917 0.35517 0.53511 0.0
C2378 C 0.07045 0.34691 0.55106 0.0
C2379 C 0.09559 0.33565 0.69768 0.0
C2380 C 0.08643 0.33558 0.71322 0.0
C2381 C 0.09525 0.33435 0.66498 0.0
C2382 C 0.08566 0.33271 0.6478 0.0
C2383 C 0.07665 0.33273 0.66381 0.0
C2384 C 0.07706 0.33417 0.69608 0.0
C2385 C 0.08496 0.33114 0.61311 0.0
C2386 C 0.08183 0.33772 0.59496 0.0
C2387 C 0.08747 0.3234 0.59782 0.0
C2388 C 0.08914 0.31499 0.6154 0.0
C2389 C 0.081 0.30791 0.63752 0.0
C2390 C 0.08235 0.29972 0.65348 0.0
C2391 C 0.0917 0.29839 0.6471 0.0
C2392 C 0.09975 0.30528 0.62483 0.0
C2393 C 0.0985 0.31357 0.60898 0.0
H2394 H 0.09269 0.29198 0.65937 0.0
H2395 H 0.0762 0.36843 0.50044 0.0
H2396 H 0.64008 0.73649 0.70225 0.0
H2397 H 0.64279 0.73824 0.64586 0.0
H2398 H 0.67529 0.7688 0.6585 0.0
H2399 H 0.67256 0.76712 0.7154 0.0
H2400 H 0.66514 0.77153 0.61206 0.0
H2401 H 0.67243 0.74246 0.63841 0.0
H2402 H 0.67006 0.72479 0.66112 0.0
H2403 H 0.64057 0.70514 0.60375 0.0
H2404 H 0.64257 0.72276 0.58128 0.0
H2405 H 0.68362 0.77249 0.45513 0.0
H2406 H 0.68122 0.77193 0.51234 0.0
H2407 H 0.64847 0.74136 0.50301 0.0
H2408 H 0.65088 0.74208 0.4462 0.0
H2409 H 0.65897 0.73847 0.54788 0.0
H2410 H 0.65163 0.7675 0.52163 0.0
H2411 H 0.65403 0.78519 0.49897 0.0
H2412 H 0.68351 0.80479 0.5564 0.0
H2413 H 0.68152 0.78716 0.5787 0.0
C2414 C 0.64779 0.74363 0.69308 0.0
C2415 C 0.65623 0.75148 0.71324 0.0
C2416 C 0.6494 0.74455 0.66077 0.0
C2417 C 0.65942 0.75341 0.64778 0.0
C2418 C 0.66756 0.76177 0.6679 0.0
C2419 C 0.66596 0.76084 0.70041 0.0
C2420 C 0.66111 0.75411 0.61312 0.0
C2421 C 0.66407 0.76437 0.59815 0.0
C2422 C 0.65919 0.74462 0.59457 0.0
C2423 C 0.65752 0.73395 0.6087 0.0
C2424 C 0.66531 0.73438 0.63104 0.0
C2425 C 0.66406 0.72438 0.6438 0.0
C2426 C 0.65514 0.71385 0.63398 0.0
C2427 C 0.64744 0.71331 0.61141 0.0
C2428 C 0.64861 0.72331 0.59873 0.0
C2429 C 0.67584 0.76585 0.46549 0.0
C2430 C 0.66729 0.75743 0.44663 0.0
C2431 C 0.67446 0.76549 0.49808 0.0
C2432 C 0.66458 0.75666 0.51214 0.0
C2433 C 0.65613 0.74829 0.49289 0.0
C2434 C 0.65742 0.74877 0.46044 0.0
C2435 C 0.66312 0.75595 0.54688 0.0
C2436 C 0.6601 0.74564 0.56181 0.0
C2437 C 0.66494 0.76538 0.56542 0.0
C2438 C 0.66656 0.776 0.55131 0.0
C2439 C 0.65876 0.77557 0.52899 0.0
C2440 C 0.66002 0.78558 0.51629 0.0
C2441 C 0.66893 0.7961 0.52618 0.0
C2442 C 0.67664 0.79663 0.54871 0.0
C2443 C 0.67548 0.78662 0.5613 0.0
H2444 H 0.66986 0.80385 0.51642 0.0
H2445 H 0.65422 0.70611 0.6438 0.0
H2446 H 0.22265 0.89956 0.71436 0.0
H2447 H 0.22072 0.89983 0.65711 0.0
H2448 H 0.25653 0.91153 0.64669 0.0
H2449 H 0.25849 0.91128 0.70286 0.0
H2450 H 0.25196 0.9236 0.6114 0.0
H2451 H 0.23582 0.88466 0.62712 0.0
H2452 H 0.22353 0.86552 0.64858 0.0
H2453 H 0.19404 0.86527 0.61149 0.0
H2454 H 0.20615 0.88462 0.59067 0.0
H2455 H 0.25275 0.91669 0.44845 0.0
H2456 H 0.25346 0.91546 0.50524 0.0
H2457 H 0.21749 0.90378 0.51052 0.0
H2458 H 0.21686 0.90501 0.45296 0.0
H2459 H 0.22216 0.89199 0.5485 0.0
H2460 H 0.23853 0.93108 0.5326 0.0
H2461 H 0.25091 0.95025 0.51149 0.0
H2462 H 0.28028 0.95033 0.54883 0.0
H2463 H 0.26806 0.93094 0.56943 0.0
C2464 C 0.23006 0.90208 0.69973 0.0
C2465 C 0.24078 0.90552 0.71315 0.0
C2466 C 0.22895 0.9022 0.66703 0.0
C2467 C 0.23852 0.90575 0.64743 0.0
C2468 C 0.24905 0.90887 0.6611 0.0
C2469 C 0.25013 0.90864 0.6934 0.0
C2470 C 0.23774 0.90652 0.61273 0.0
C2471 C 0.24558 0.91659 0.59761 0.0
C2472 C 0.22926 0.89755 0.59459 0.0
C2473 C 0.22186 0.88615 0.60792 0.0
C2474 C 0.2267 0.88062 0.62404 0.0
C2475 C 0.21978 0.86972 0.63602 0.0
C2476 C 0.20801 0.8642 0.63148 0.0
C2477 C 0.20315 0.86958 0.61505 0.0
C2478 C 0.21003 0.88054 0.60328 0.0
C2479 C 0.24498 0.9137 0.4618 0.0
C2480 C 0.23476 0.91078 0.44669 0.0
C2481 C 0.24541 0.91318 0.49427 0.0
C2482 C 0.23559 0.90972 0.51243 0.0
C2483 C 0.2252 0.90651 0.49711 0.0
C2484 C 0.2248 0.90712 0.46435 0.0
C2485 C 0.23622 0.90912 0.54724 0.0
C2486 C 0.2285 0.89902 0.56232 0.0
C2487 C 0.24485 0.91807 0.56532 0.0
C2488 C 0.25239 0.92948 0.552 0.0
C2489 C 0.24764 0.93509 0.53582 0.0
C2490 C 0.25462 0.946 0.52404 0.0
C2491 C 0.26637 0.95149 0.52876 0.0
C2492 C 0.27117 0.94604 0.54515 0.0
C2493 C 0.26423 0.93507 0.55679 0.0
H2494 H 0.27176 0.95999 0.51976 0.0
H2495 H 0.20266 0.85572 0.64063 0.0
H2496 H 0.66944 0.92128 0.21354 0.0
H2497 H 0.67292 0.92299 0.15671 0.0
H2498 H 0.64404 0.88927 0.14382 0.0
H2499 H 0.64104 0.88732 0.19994 0.0
H2500 H 0.65932 0.89111 0.10841 0.0
H2501 H 0.6434 0.91409 0.12702 0.0
H2502 H 0.64036 0.92902 0.14955 0.0
H2503 H 0.6726 0.95472 0.11326 0.0
H2504 H 0.67599 0.93988 0.09123 0.0
H2505 H 0.65438 0.89452 0.94586 0.0
H2506 H 0.65094 0.89265 7e-05 0.0
H2507 H 0.67991 0.92631 0.01366 0.0
H2508 H 0.68294 0.92825 0.96045 0.0
H2509 H 0.6645 0.92456 0.04855 0.0
H2510 H 0.68043 0.90156 0.02993 0.0
H2511 H 0.68343 0.88659 0.00749 0.0
H2512 H 0.65117 0.86096 0.04388 0.0
H2513 H 0.64781 0.87583 0.06577 0.0
C2514 C 0.66405 0.91417 0.19844 0.0
C2515 C 0.65494 0.90415 0.21095 0.0
C2516 C 0.66591 0.91522 0.16602 0.0
C2517 C 0.65856 0.90636 0.14582 0.0
C2518 C 0.64982 0.89624 0.15876 0.0
C2519 C 0.64816 0.89508 0.19095 0.0
C2520 C 0.66011 0.90729 0.11125 0.0
C2521 C 0.66019 0.89833 0.09527 0.0
C2522 C 0.66169 0.91687 0.09405 0.0
C2523 C 0.66006 0.92587 0.1082 0.0
C2524 C 0.64994 0.92292 0.12435 0.0
C2525 C 0.64814 0.93136 0.13693 0.0
C2526 C 0.65631 0.94281 0.13297 0.0
C2527 C 0.66631 0.94584 0.11642 0.0
C2528 C 0.6682 0.93742 0.10399 0.0
C2529 C 0.65988 0.90143 0.96136 0.0
C2530 C 0.66893 0.91155 0.94938 0.0
C2531 C 0.65802 0.90029 0.99382 0.0
C2532 C 0.66531 0.90927 0.01126 0.0
C2533 C 0.67417 0.91936 -0.00138 0.0
C2534 C 0.67591 0.92042 0.96951 0.0
C2535 C 0.66369 0.90836 0.04577 0.0
C2536 C 0.66362 0.91735 0.06172 0.0
C2537 C 0.66213 0.8988 0.06296 0.0
C2538 C 0.66376 0.88981 0.0488 0.0
C2539 C 0.67387 0.89274 0.03262 0.0
C2540 C 0.67566 0.88428 0.02011 0.0
C2541 C 0.66748 0.87283 0.02417 0.0
C2542 C 0.65747 0.86983 0.04068 0.0
C2543 C 0.6556 0.87827 0.05303 0.0
H2544 H 0.66891 0.86629 0.01458 0.0
H2545 H 0.65486 0.94934 0.14264 0.0
H2546 H 0.08268 0.7436 0.94521 0.0
H2547 H 0.08452 0.74202 -0.00075 0.0
H2548 H 0.0803 0.77111 0.01449 0.0
H2549 H 0.07922 0.77308 0.96159 0.0
H2550 H 0.09554 0.77315 0.05014 0.0
H2551 H 0.05898 0.7433 0.02853 0.0
H2552 H 0.04342 0.72608 0.00427 0.0
H2553 H 0.05758 0.70632 0.03986 0.0
H2554 H 0.07347 0.72355 0.06357 0.0
H2555 H 0.08536 0.76588 0.2152 0.0
H2556 H 0.08394 0.76788 0.15805 0.0
H2557 H 0.0885 0.73899 0.14255 0.0
H2558 H 0.08962 0.73693 0.19863 0.0
H2559 H 0.07302 0.73683 0.10711 0.0
H2560 H 0.1096 0.76673 0.12874 0.0
H2561 H 0.12514 0.78398 0.15289 0.0
H2562 H 0.11091 0.80367 0.11718 0.0
H2563 H 0.09503 0.7864 0.09361 0.0
C2564 C 0.08241 0.74972 0.96094 0.0
C2565 C 0.08088 0.75853 0.94926 0.0
C2566 C 0.08329 0.74867 0.99338 0.0
C2567 C 0.08235 0.75634 0.01128 0.0
C2568 C 0.08109 0.7652 -0.00091 0.0
C2569 C 0.08056 0.76633 0.96999 0.0
C2570 C 0.08303 0.7554 0.04582 0.0
C2571 C 0.0904 0.76524 0.06264 0.0
C2572 C 0.07669 0.74504 0.06222 0.0
C2573 C 0.06753 0.73474 0.04711 0.0
C2574 C 0.0589 0.73533 0.03066 0.0
C2575 C 0.05001 0.72557 0.01712 0.0
C2576 C 0.04955 0.71513 0.02041 0.0
C2577 C 0.05799 0.71443 0.03723 0.0
C2578 C 0.06697 0.7242 0.05062 0.0
C2579 C 0.08608 0.76006 0.19927 0.0
C2580 C 0.08776 0.75133 0.21069 0.0
C2581 C 0.08533 0.76121 0.1668 0.0
C2582 C 0.0863 0.75368 0.1459 0.0
C2583 C 0.08775 0.74491 0.15799 0.0
C2584 C 0.08845 0.74377 0.18999 0.0
C2585 C 0.08552 0.75458 0.1114 0.0
C2586 C 0.07814 0.74473 0.0946 0.0
C2587 C 0.09186 0.76493 0.095 0.0
C2588 C 0.10101 0.77525 0.1101 0.0
C2589 C 0.10966 0.77469 0.12656 0.0
C2590 C 0.11854 0.78447 0.14004 0.0
C2591 C 0.11899 0.7949 0.13666 0.0
C2592 C 0.11052 0.79557 0.11986 0.0
C2593 C 0.10154 0.78578 0.10655 0.0
H2594 H 0.12592 0.80249 0.14701 0.0
H2595 H 0.04261 0.70756 0.00999 0.0
H2596 H 0.24183 0.32198 0.21395 0.0
H2597 H 0.24002 0.31845 0.15706 0.0
H2598 H 0.23821 0.34897 0.14359 0.0
H2599 H 0.23926 0.35204 0.19965 0.0
H2600 H 0.22407 0.33434 0.10807 0.0
H2601 H 0.26248 0.34723 0.12757 0.0
H2602 H 0.27974 0.34871 0.1507 0.0
H2603 H 0.27052 0.31567 0.11464 0.0
H2604 H 0.25297 0.31385 0.092 0.0
H2605 H 0.23317 0.33852 0.94556 0.0
H2606 H 0.23467 0.34212 -0.0002 0.0
H2607 H 0.23624 0.31146 0.01386 0.0
H2608 H 0.23513 0.3082 0.96069 0.0
H2609 H 0.25059 0.32621 0.04895 0.0
H2610 H 0.21216 0.31333 0.02943 0.0
H2611 H 0.1949 0.31189 0.00641 0.0
H2612 H 0.2042 0.34494 0.04259 0.0
H2613 H 0.22176 0.34673 0.06507 0.0
C2614 C 0.24076 0.32773 0.19869 0.0
C2615 C 0.24065 0.33729 0.21101 0.0
C2616 C 0.23993 0.32583 0.16625 0.0
C2617 C 0.23921 0.33359 0.14589 0.0
C2618 C 0.23873 0.34285 0.15864 0.0
C2619 C 0.23924 0.34456 0.1908 0.0
C2620 C 0.23858 0.33201 0.11131 0.0
C2621 C 0.23005 0.33282 0.0951 0.0
C2622 C 0.24608 0.3296 0.09432 0.0
C2623 C 0.25629 0.33031 0.10879 0.0
C2624 C 0.26402 0.34019 0.12507 0.0
C2625 C 0.27386 0.3411 0.13799 0.0
C2626 C 0.2762 0.33227 0.13427 0.0
C2627 C 0.26867 0.32248 0.11761 0.0
C2628 C 0.25874 0.32148 0.10483 0.0
C2629 C 0.23382 0.33261 0.96118 0.0
C2630 C 0.23387 0.32299 0.94935 0.0
C2631 C 0.23463 0.33454 0.99366 0.0
C2632 C 0.23536 0.32692 0.01124 0.0
C2633 C 0.23565 0.31753 -0.00127 0.0
C2634 C 0.23497 0.31558 0.96965 0.0
C2635 C 0.23609 0.32856 0.04576 0.0
C2636 C 0.24463 0.32774 0.06195 0.0
C2637 C 0.22859 0.33095 0.06275 0.0
C2638 C 0.21839 0.33026 0.04828 0.0
C2639 C 0.21065 0.32038 0.03197 0.0
C2640 C 0.2008 0.31949 0.01912 0.0
C2641 C 0.19848 0.32833 0.02295 0.0
C2642 C 0.20604 0.33812 0.03956 0.0
C2643 C 0.21597 0.3391 0.05226 0.0
H2644 H 0.1908 0.32759 0.01311 0.0
H2645 H 0.28387 0.33302 0.1442 0.0
H2646 H 0.88444 0.64546 0.29074 0.0
H2647 H 0.88623 0.64886 0.34666 0.0
H2648 H 0.92164 0.67434 0.33516 0.0
H2649 H 0.92 0.67044 0.27862 0.0
H2650 H 0.91981 0.66191 0.38246 0.0
H2651 H 0.90035 0.68052 0.35272 0.0
H2652 H 0.88613 0.68405 0.32771 0.0
H2653 H 0.85977 0.65792 0.38384 0.0
H2654 H 0.87382 0.65393 0.40848 0.0
H2655 H 0.92683 0.68333 0.53423 0.0
H2656 H 0.92482 0.6799 0.47834 0.0
H2657 H 0.88944 0.65444 0.49107 0.0
H2658 H 0.89141 0.65844 0.548 0.0
H2659 H 0.89134 0.66671 0.44325 0.0
H2660 H 0.91089 0.64816 0.47321 0.0
H2661 H 0.92516 0.64463 0.49795 0.0
H2662 H 0.95143 0.67078 0.44165 0.0
H2663 H 0.93734 0.67474 0.4172 0.0
C2664 C 0.89255 0.65198 0.29993 0.0
C2665 C 0.90207 0.65763 0.28046 0.0
C2666 C 0.89359 0.6539 0.33203 0.0
C2667 C 0.90402 0.66194 0.34526 0.0
C2668 C 0.91349 0.66807 0.32554 0.0
C2669 C 0.91252 0.66594 0.29327 0.0
C2670 C 0.90495 0.66364 0.3798 0.0
C2671 C 0.91374 0.66323 0.39567 0.0
C2672 C 0.89674 0.66485 0.39731 0.0
C2673 C 0.88811 0.66681 0.38203 0.0
C2674 C 0.8915 0.67538 0.35934 0.0
C2675 C 0.88348 0.67748 0.34528 0.0
C2676 C 0.87206 0.6712 0.35414 0.0
C2677 C 0.86862 0.66275 0.37698 0.0
C2678 C 0.87661 0.66053 0.39091 0.0
C2679 C 0.91865 0.67691 0.5251 0.0
C2680 C 0.90932 0.67109 0.54494 0.0
C2681 C 0.91751 0.6749 0.49318 0.0
C2682 C 0.90707 0.66674 0.48041 0.0
C2683 C 0.89761 0.66075 0.50044 0.0
C2684 C 0.89871 0.66296 0.53276 0.0
C2685 C 0.90614 0.66492 0.44595 0.0
C2686 C 0.89739 0.66536 0.43007 0.0
C2687 C 0.91439 0.66375 0.42846 0.0
C2688 C 0.92307 0.66185 0.44376 0.0
C2689 C 0.91974 0.65331 0.46648 0.0
C2690 C 0.92778 0.65121 0.48039 0.0
C2691 C 0.93919 0.65748 0.4714 0.0
C2692 C 0.94259 0.66594 0.4486 0.0
C2693 C 0.93458 0.66815 0.43479 0.0
H2694 H 0.9454 0.65578 0.48206 0.0
H2695 H 0.86587 0.67289 0.34335 0.0
H2696 H 0.3366 0.25218 0.54846 0.0
H2697 H 0.34012 0.25393 0.49156 0.0
H2698 H 0.30897 0.22201 0.47752 0.0
H2699 H 0.30589 0.21997 0.53356 0.0
H2700 H 0.32344 0.22214 0.44204 0.0
H2701 H 0.31158 0.2484 0.462 0.0
H2702 H 0.31067 0.26448 0.48528 0.0
H2703 H 0.34395 0.2877 0.44938 0.0
H2704 H 0.3452 0.27167 0.4266 0.0
H2705 H 0.31931 0.22734 0.27666 0.0
H2706 H 0.31588 0.22534 0.33383 0.0
H2707 H 0.34715 0.25713 0.34836 0.0
H2708 H 0.35025 0.25921 0.29224 0.0
H2709 H 0.33257 0.25712 0.38349 0.0
H2710 H 0.34441 0.23082 0.36351 0.0
H2711 H 0.34528 0.21469 0.34035 0.0
H2712 H 0.31199 0.19155 0.37637 0.0
H2713 H 0.31077 0.20763 0.39899 0.0
C2714 C 0.33071 0.24546 0.53305 0.0
C2715 C 0.32099 0.23589 0.54519 0.0
C2716 C 0.33261 0.24654 0.50062 0.0
C2717 C 0.32468 0.2382 0.48012 0.0
C2718 C 0.31522 0.22855 0.4927 0.0
C2719 C 0.31352 0.22733 0.52483 0.0
C2720 C 0.32627 0.23915 0.44556 0.0
C2721 C 0.32518 0.22972 0.42919 0.0
C2722 C 0.32896 0.24915 0.42872 0.0
C2723 C 0.32858 0.25881 0.44332 0.0
C2724 C 0.31879 0.25691 0.45958 0.0
C2725 C 0.3182 0.26601 0.47258 0.0
C2726 C 0.32727 0.2771 0.46894 0.0
C2727 C 0.33696 0.2791 0.45229 0.0
C2728 C 0.33764 0.27 0.43943 0.0
C2729 C 0.32534 0.23383 0.29237 0.0
C2730 C 0.33508 0.24342 0.28064 0.0
C2731 C 0.32345 0.23267 0.32485 0.0
C2732 C 0.33137 0.24101 0.3455 0.0
C2733 C 0.34093 0.25058 0.33312 0.0
C2734 C 0.34272 0.25177 0.30109 0.0
C2735 C 0.32972 0.2401 0.38001 0.0
C2736 C 0.33081 0.24954 0.39636 0.0
C2737 C 0.32704 0.23011 0.39685 0.0
C2738 C 0.3274 0.22044 0.38225 0.0
C2739 C 0.33718 0.22232 0.36598 0.0
C2740 C 0.33776 0.21319 0.35305 0.0
C2741 C 0.32868 0.20211 0.3568 0.0
C2742 C 0.31899 0.20015 0.37341 0.0
C2743 C 0.31833 0.20927 0.38617 0.0
H2744 H 0.32917 0.19504 0.34689 0.0
H2745 H 0.32676 0.28415 0.47894 0.0
H2746 H 0.75056 0.10632 0.29241 0.0
H2747 H 0.75212 0.10442 0.34819 0.0
H2748 H 0.75129 0.07258 0.33346 0.0
H2749 H 0.74891 0.07414 0.27675 0.0
H2750 H 0.73871 0.07051 0.3809 0.0
H2751 H 0.77574 0.09787 0.35417 0.0
H2752 H 0.79163 0.11498 0.3307 0.0
H2753 H 0.78372 0.13613 0.38789 0.0
H2754 H 0.76746 0.11908 0.41097 0.0
H2755 H 0.75547 0.06734 0.53297 0.0
H2756 H 0.75387 0.06924 0.47711 0.0
H2757 H 0.75446 0.10096 0.49232 0.0
H2758 H 0.75651 0.09917 0.54933 0.0
H2759 H 0.76701 0.103 0.44471 0.0
H2760 H 0.72997 0.07556 0.47164 0.0
H2761 H 0.71403 0.05841 0.49483 0.0
H2762 H 0.72201 0.03735 0.4375 0.0
H2763 H 0.73829 0.05444 0.41462 0.0
C2764 C 0.75098 0.09903 0.30088 0.0
C2765 C 0.74974 0.09047 0.28036 0.0
C2766 C 0.75184 0.09793 0.3329 0.0
C2767 C 0.75205 0.08849 0.34521 0.0
C2768 C 0.75118 0.07997 0.32456 0.0
C2769 C 0.74996 0.08092 0.29224 0.0
C2770 C 0.75291 0.08757 0.37975 0.0
C2771 C 0.74508 0.07752 0.39475 0.0
C2772 C 0.76086 0.09689 0.39818 0.0
C2773 C 0.77029 0.10721 0.38387 0.0
C2774 C 0.77725 0.10616 0.36135 0.0
C2775 C 0.78633 0.11584 0.34816 0.0
C2776 C 0.78867 0.12662 0.35776 0.0
C2777 C 0.78187 0.12776 0.38046 0.0
C2778 C 0.77268 0.11809 0.3935 0.0
C2779 C 0.75521 0.0747 0.52435 0.0
C2780 C 0.75606 0.08306 0.54496 0.0
C2781 C 0.7542 0.07574 0.49246 0.0
C2782 C 0.75378 0.0851 0.48037 0.0
C2783 C 0.75469 0.09363 0.50113 0.0
C2784 C 0.75583 0.09262 0.53351 0.0
C2785 C 0.7528 0.08596 0.4459 0.0
C2786 C 0.76063 0.096 0.43089 0.0
C2787 C 0.74485 0.07662 0.4275 0.0
C2788 C 0.73544 0.06627 0.44183 0.0
C2789 C 0.72846 0.06728 0.46437 0.0
C2790 C 0.71936 0.05758 0.47739 0.0
C2791 C 0.71702 0.0468 0.46766 0.0
C2792 C 0.72385 0.04571 0.44502 0.0
C2793 C 0.73306 0.0554 0.43209 0.0
H2794 H 0.7099 0.03929 0.47764 0.0
H2795 H 0.79577 0.13412 0.34765 0.0
H2796 H 0.01366 0.43999 0.12002 0.0
H2797 H 0.01148 0.43921 0.1774 0.0
H2798 H 0.9851 0.40523 0.16952 0.0
H2799 H 0.98702 0.40628 0.11263 0.0
H2800 H 0.98021 0.41566 0.20924 0.0
H2801 H 0.00917 0.41098 0.19613 0.0
H2802 H 0.02792 0.41442 0.17894 0.0
H2803 H 0.04426 0.44552 0.23181 0.0
H2804 H 0.02553 0.44243 0.24858 0.0
H2805 H 0.97612 0.40081 0.36788 0.0
H2806 H 0.97863 0.40273 0.31175 0.0
H2807 H 0.00473 0.43666 0.32356 0.0
H2808 H 0.00249 0.43457 0.38073 0.0
H2809 H 0.00987 0.42618 0.28217 0.0
H2810 H 0.98078 0.43076 0.29522 0.0
H2811 H 0.96199 0.42722 0.31232 0.0
H2812 H 0.94581 0.39614 0.25934 0.0
H2813 H 0.96459 0.39932 0.2427 0.0
C2814 C 0.00674 0.4325 0.13078 0.0
C2815 C -0.00089 0.42323 0.11233 0.0
C2816 C 0.0056 0.43196 0.16348 0.0
C2817 C -0.00305 0.42208 0.17801 0.0
C2818 C 0.9918 0.41295 0.15908 0.0
C2819 C 0.99283 0.41357 0.12659 0.0
C2820 C -0.00446 0.42132 0.21278 0.0
C2821 C 0.98722 0.41774 0.2251 0.0
C2822 C 0.00471 0.42437 0.2338 0.0
C2823 C 0.01596 0.4266 0.22296 0.0
C2824 C 0.01674 0.41866 0.20361 0.0
C2825 C 0.02736 0.42053 0.19403 0.0
C2826 C 0.03726 0.43021 0.20417 0.0
C2827 C 0.03657 0.43806 0.22389 0.0
C2828 C 0.02595 0.43628 0.23334 0.0
C2829 C 0.9829 0.40876 0.35869 0.0
C2830 C 0.99045 0.41748 0.37877 0.0
C2831 C 0.98429 0.40986 0.32641 0.0
C2832 C 0.99305 0.41987 0.31317 0.0
C2833 C -0.00208 0.42883 0.33318 0.0
C2834 C -0.00341 0.42768 0.36579 0.0
C2835 C 0.9946 0.42073 0.2785 0.0
C2836 C 0.00289 0.42416 0.26624 0.0
C2837 C 0.9854 0.41752 0.25747 0.0
C2838 C 0.97409 0.41518 0.26826 0.0
C2839 C 0.97323 0.42306 0.28769 0.0
C2840 C 0.96259 0.42114 0.29722 0.0
C2841 C 0.95272 0.41145 0.28698 0.0
C2842 C 0.95347 0.40362 0.2673 0.0
C2843 C 0.96412 0.40545 0.25791 0.0
H2844 H 0.94447 0.41002 0.29424 0.0
H2845 H 0.04549 0.43161 0.19682 0.0
H2846 H 0.55599 0.58114 0.12153 0.0
H2847 H 0.55678 0.57967 0.17872 0.0
H2848 H 0.5834 0.57136 0.16811 0.0
H2849 H 0.58215 0.57227 0.11122 0.0
H2850 H 0.57022 0.55878 0.20998 0.0
H2851 H 0.58825 0.59792 0.19338 0.0
H2852 H 0.59175 0.61653 0.17495 0.0
H2853 H 0.56387 0.61311 0.23064 0.0
H2854 H 0.55996 0.59426 0.24873 0.0
H2855 H 0.5877 0.56705 0.36817 0.0
H2856 H 0.58589 0.56767 0.31161 0.0
H2857 H 0.55906 0.57557 0.324 0.0
H2858 H 0.56104 0.57519 0.38095 0.0
H2859 H 0.57258 0.58867 0.2815 0.0
H2860 H 0.55458 0.54948 0.29799 0.0
H2861 H 0.55115 0.5309 0.31635 0.0
H2862 H 0.57907 0.53444 0.26057 0.0
H2863 H 0.58293 0.55329 0.24262 0.0
C2864 C 0.56181 0.57877 0.13163 0.0
C2865 C 0.56895 0.57669 0.11229 0.0
C2866 C 0.56241 0.57811 0.16424 0.0
C2867 C 0.57032 0.57562 0.17796 0.0
C2868 C 0.57722 0.57328 0.15828 0.0
C2869 C 0.57644 0.57369 0.12578 0.0
C2870 C 0.57118 0.57503 0.21273 0.0
C2871 C 0.571 0.56546 0.2255 0.0
C2872 C 0.57178 0.58351 0.23336 0.0
C2873 C 0.57367 0.59457 0.22182 0.0
C2874 C 0.58272 0.60103 0.20125 0.0
C2875 C 0.58481 0.61163 0.19095 0.0
C2876 C 0.57801 0.61597 0.20152 0.0
C2877 C 0.56909 0.6097 0.22239 0.0
C2878 C 0.56691 0.59903 0.23259 0.0
C2879 C 0.5813 0.56877 0.35884 0.0
C2880 C 0.57459 0.57119 0.37886 0.0
C2881 C 0.58025 0.5691 0.32644 0.0
C2882 C 0.57229 0.57161 0.31332 0.0
C2883 C 0.56528 0.57364 0.33346 0.0
C2884 C 0.56632 0.57329 0.36599 0.0
C2885 C 0.57151 0.57237 0.27862 0.0
C2886 C 0.57179 0.582 0.2659 0.0
C2887 C 0.57101 0.56395 0.25799 0.0
C2888 C 0.56917 0.55289 0.26948 0.0
C2889 C 0.56013 0.54641 0.29009 0.0
C2890 C 0.55809 0.53582 0.30035 0.0
C2891 C 0.56491 0.53151 0.28969 0.0
C2892 C 0.57383 0.53782 0.26885 0.0
C2893 C 0.57598 0.54849 0.25873 0.0
H2894 H 0.56325 0.52325 0.29752 0.0
H2895 H 0.57967 0.62422 0.1936 0.0
H2896 H 0.40427 0.98871 0.37848 0.0
H2897 H 0.40354 0.98658 0.32173 0.0
H2898 H 0.43725 0.01424 0.31426 0.0
H2899 H 0.43766 0.01666 0.3716 0.0
H2900 H 0.42458 0.01487 0.27063 0.0
H2901 H 0.4317 0.98884 0.30373 0.0
H2902 H 0.43014 0.97256 0.33295 0.0
H2903 H 0.39712 0.95084 0.29309 0.0
H2904 H 0.39833 0.96714 0.2643 0.0
H2905 H 0.43198 0.00545 0.11075 0.0
H2906 H 0.43373 0.00793 0.16798 0.0
H2907 H 0.40013 0.98045 0.17924 0.0
H2908 H 0.39857 0.97767 0.12317 0.0
H2909 H 0.41262 0.97987 0.22099 0.0
H2910 H 0.40545 0.00584 0.18752 0.0
H2911 H 0.40699 0.02217 0.15849 0.0
H2912 H 0.44 0.04386 0.19843 0.0
H2913 H 0.4388 0.02755 0.22707 0.0
C2914 C 0.41152 0.99468 0.36469 0.0
C2915 C 0.42128 0.00155 0.37908 0.0
C2916 C 0.41111 0.99348 0.33226 0.0
C2917 C 0.42062 -0.00104 0.31353 0.0
C2918 C 0.43012 0.00812 0.32811 0.0
C2919 C 0.43043 0.00944 0.36077 0.0
C2920 C 0.42002 -0.0025 0.27878 0.0
C2921 C 0.42232 0.0068 0.25974 0.0
C2922 C 0.41614 0.98907 0.26442 0.0
C2923 C 0.41503 0.97926 0.28237 0.0
C2924 C 0.42401 0.98064 0.30162 0.0
C2925 C 0.42321 0.97141 0.31804 0.0
C2926 C 0.41352 0.96068 0.31495 0.0
C2927 C 0.40459 0.95917 0.29551 0.0
C2928 C 0.40531 0.96842 0.27922 0.0
C2929 C 0.42516 -0.00062 0.12555 0.0
C2930 C 0.4148 0.99263 0.11235 0.0
C2931 C 0.42608 0.00088 0.15822 0.0
C2932 C 0.41671 0.99569 0.17802 0.0
C2933 C 0.40713 0.98639 0.16468 0.0
C2934 C 0.40627 0.98481 0.13241 0.0
C2935 C 0.41735 0.9973 0.21271 0.0
C2936 C 0.4149 0.98797 0.23179 0.0
C2937 C 0.42105 0.00567 0.22703 0.0
C2938 C 0.42212 0.01543 0.20896 0.0
C2939 C 0.41312 0.01405 0.18969 0.0
C2940 C 0.41392 0.0233 0.17338 0.0
C2941 C 0.42359 0.03404 0.17656 0.0
C2942 C 0.43252 0.03553 0.19595 0.0
C2943 C 0.43181 0.02627 0.21215 0.0
H2944 H 0.42416 0.04121 0.16404 0.0
H2945 H 0.41294 0.95352 0.32757 0.0
H2946 H 0.552 0.99089 0.61866 0.0
H2947 H 0.55356 0.99459 0.67513 0.0
H2948 H 0.58659 0.99721 0.67533 0.0
H2949 H 0.58507 0.99358 0.61938 0.0
H2950 H 0.57524 0.98453 0.72055 0.0
H2951 H 0.58319 0.0178 0.68519 0.0
H2952 H 0.58111 0.03228 0.65637 0.0
H2953 H 0.55033 0.02322 0.70668 0.0
H2954 H 0.55201 0.00835 0.73514 0.0
H2955 H 0.59124 0.003 0.87343 0.0
H2956 H 0.58916 -0.00032 0.8176 0.0
H2957 H 0.55645 -0.00225 0.8206 0.0
H2958 H 0.55889 0.00183 0.87716 0.0
H2959 H 0.56763 0.00998 0.77379 0.0
H2960 H 0.55978 0.97665 0.80931 0.0
H2961 H 0.56193 0.96218 0.83791 0.0
H2962 H 0.59268 0.97135 0.78734 0.0
H2963 H 0.59093 0.98621 0.75905 0.0
C2964 C 0.55967 0.99251 0.63076 0.0
C2965 C 0.56838 0.99185 0.61486 0.0
C2966 C 0.56056 0.9946 0.66298 0.0
C2967 C 0.57019 0.99614 0.67957 0.0
C2968 C 0.57905 0.99596 0.66318 0.0
C2969 C 0.57823 0.99403 0.63107 0.0
C2970 C 0.57094 0.99763 0.71413 0.0
C2971 C 0.57371 0.99075 0.73214 0.0
C2972 C 0.56899 0.00323 0.72942 0.0
C2973 C 0.56762 0.01182 0.71185 0.0
C2974 C 0.57586 0.01874 0.68972 0.0
C2975 C 0.57477 0.02703 0.6735 0.0
C2976 C 0.56558 0.02865 0.67964 0.0
C2977 C 0.55742 0.02192 0.70192 0.0
C2978 C 0.55841 0.01352 0.71802 0.0
C2979 C 0.58348 0.00164 0.86242 0.0
C2980 C 0.57526 0.00274 0.87944 0.0
C2981 C 0.5823 -0.00025 0.83037 0.0
C2982 C 0.57261 -0.00165 0.81478 0.0
C2983 C 0.56404 -0.00114 0.8321 0.0
C2984 C 0.56536 0.00107 0.86434 0.0
C2985 C 0.57173 -0.00324 0.78024 0.0
C2986 C 0.56909 0.00372 0.76222 0.0
C2987 C 0.57382 0.99124 0.76493 0.0
C2988 C 0.57531 0.98267 0.78244 0.0
C2989 C 0.56712 0.97574 0.80465 0.0
C2990 C 0.56825 0.96745 0.82076 0.0
C2991 C 0.57744 0.96585 0.81446 0.0
C2992 C 0.58558 0.97261 0.79219 0.0
C2993 C 0.58455 0.98102 0.77619 0.0
H2994 H 0.57824 0.95935 0.82682 0.0
H2995 H 0.5648 0.03514 0.66717 0.0
H2996 H 0.99608 0.58862 0.8772 0.0
H2997 H -0.0034 0.58992 0.82083 0.0
H2998 H 0.98711 0.55391 0.81686 0.0
H2999 H 0.98416 0.55258 0.87351 0.0
H3000 H 0.00133 0.56408 0.78052 0.0
H3001 H 0.97049 0.56564 0.79335 0.0
H3002 H 0.9571 0.5715 0.81221 0.0
H3003 H 0.97781 0.6046 0.7719 0.0
H3004 H 0.99155 0.59902 0.75348 0.0
H3005 H -0.00512 0.55956 0.6153 0.0
H3006 H 0.99398 0.55752 0.67224 0.0
H3007 H 0.00274 0.59336 0.6789 0.0
H3008 H 0.00548 0.5952 0.62275 0.0
H3009 H 0.98864 0.58321 0.71389 0.0
H3010 H 0.01952 0.58173 0.70104 0.0
H3011 H 0.03291 0.57584 0.68218 0.0
H3012 H 0.01216 0.54276 0.72251 0.0
H3013 H -0.00157 0.54835 0.74083 0.0
C3014 C 0.99426 0.581 0.86441 0.0
C3015 C 0.98956 0.57042 0.87949 0.0
C3016 C 0.99582 0.58173 0.83209 0.0
C3017 C 0.99291 0.57194 0.81439 0.0
C3018 C 0.9892 0.56154 0.82994 0.0
C3019 C 0.9876 0.5608 0.86232 0.0
C3020 C 0.99418 0.57264 0.7798 0.0
C3021 C -0.00224 0.56802 0.76587 0.0
C3022 C 0.98999 0.57827 0.76072 0.0
C3023 C 0.98218 0.58199 0.77279 0.0
C3024 C 0.97232 0.57424 0.78903 0.0
C3025 C 0.96464 0.5775 0.79953 0.0
C3026 C 0.96664 0.58843 0.79341 0.0
C3027 C 0.97632 0.59615 0.77675 0.0
C3028 C 0.98408 0.59296 0.76637 0.0
C3029 C -0.0036 0.56688 0.62911 0.0
C3030 C 0.00046 0.57755 0.61502 0.0
C3031 C -0.00538 0.56577 0.66154 0.0
C3032 C -0.00286 0.57536 0.68001 0.0
C3033 C 0.00077 0.58585 0.66532 0.0
C3034 C 0.00226 0.58688 0.63316 0.0
C3035 C -0.00428 0.57455 0.71456 0.0
C3036 C 0.9922 0.57925 0.72852 0.0
C3037 C -1e-05 0.56904 0.73368 0.0
C3038 C 0.00783 0.56538 0.72161 0.0
C3039 C 0.01769 0.57313 0.70536 0.0
C3040 C 0.02536 0.56986 0.69487 0.0
C3041 C 0.02336 0.55892 0.70105 0.0
C3042 C 0.01366 0.55121 0.71766 0.0
C3043 C 0.00591 0.55441 0.72799 0.0
H3044 H 0.02935 0.55643 0.69302 0.0
H3045 H 0.96064 0.59092 0.80148 0.0
H3046 H 0.41127 0.39903 0.87014 0.0
H3047 H 0.41019 0.40112 0.81415 0.0
H3048 H 0.43055 0.43762 0.82356 0.0
H3049 H 0.43178 0.43545 0.88064 0.0
H3050 H 0.41448 0.43259 0.78357 0.0
H3051 H 0.44125 0.42085 0.79428 0.0
H3052 H 0.45017 0.40986 0.81105 0.0
H3053 H 0.4245 0.38047 0.76237 0.0
H3054 H 0.41518 0.39123 0.74605 0.0
H3055 H 0.42543 0.44226 0.62268 0.0
H3056 H 0.42699 0.44064 0.67902 0.0
H3057 H 0.40697 0.40406 0.67173 0.0
H3058 H 0.4055 0.40565 0.61516 0.0
H3059 H 0.42271 0.40912 0.71079 0.0
H3060 H 0.39593 0.42085 0.69989 0.0
H3061 H 0.38698 0.43185 0.68333 0.0
H3062 H 0.41267 0.46121 0.73208 0.0
H3063 H 0.42199 0.45045 0.74823 0.0
C3064 C 0.4154 0.40752 0.86035 0.0
C3065 C 0.42159 0.41705 0.87939 0.0
C3066 C 0.41494 0.4087 0.82825 0.0
C3067 C 0.42056 0.41948 0.81439 0.0
C3068 C 0.42629 0.42919 0.8337 0.0
C3069 C 0.42696 0.42798 0.86615 0.0
C3070 C 0.4201 0.42042 0.77979 0.0
C3071 C 0.41656 0.42768 0.76762 0.0
C3072 C 0.42225 0.41357 0.75892 0.0
C3073 C 0.4274 0.40679 0.76952 0.0
C3074 C 0.43738 0.41199 0.78762 0.0
C3075 C 0.44252 0.40581 0.79696 0.0
C3076 C 0.43789 0.39446 0.78787 0.0
C3077 C 0.42805 0.38925 0.76947 0.0
C3078 C 0.4228 0.39537 0.76026 0.0
C3079 C 0.42152 0.43387 0.633 0.0
C3080 C 0.41509 0.4241 0.61473 0.0
C3081 C 0.42225 0.43295 0.6653 0.0
C3082 C 0.41673 0.42226 0.67986 0.0
C3083 C 0.41112 0.41242 0.66116 0.0
C3084 C 0.41037 0.41334 0.6288 0.0
C3085 C 0.41719 0.42137 0.71448 0.0
C3086 C 0.42064 0.41405 0.72669 0.0
C3087 C 0.41494 0.42815 0.73535 0.0
C3088 C 0.40977 0.4349 0.7247 0.0
C3089 C 0.39979 0.42971 0.70661 0.0
C3090 C 0.39463 0.43589 0.69739 0.0
C3091 C 0.39927 0.44723 0.70658 0.0
C3092 C 0.40911 0.45243 0.72492 0.0
C3093 C 0.41437 0.44631 0.73402 0.0
H3094 H 0.39521 0.45198 0.69954 0.0
H3095 H 0.44193 0.38971 0.79502 0.0
loop_
_geom_bond_atom_site_label_1
_geom_bond_atom_site_label_2
_geom_bond_distance
_geom_bond_site_symmetry_2
_ccdc_geom_bond_type
O0 Cd1 2.300 . S
O0 C7 1.275 . S
Cd1 O0 2.300 . S
Cd1 O9 2.381 . S
Cd1 O10 2.378 . S
O2 Cd3 2.385 . S
O2 C7 1.255 . S
Cd3 O2 2.385 . S
Cd3 O4 2.317 . S
O4 Cd3 2.317 . S
O4 C5 1.232 . S
C5 O4 1.232 . S
C5 O6 1.218 . S
O6 C5 1.218 . S
C7 O0 1.275 . S
C7 O2 1.255 . S
C8 O9 1.258 . S
C8 O10 1.256 . S
O9 Cd1 2.381 . S
O9 C8 1.258 . S
O10 Cd1 2.378 . S
O10 C8 1.256 . S
O11 Cd12 2.300 . S
O11 C18 1.275 . S
Cd12 O11 2.300 . S
Cd12 O20 2.381 . S
Cd12 O21 2.378 . S
O13 Cd14 2.385 . S
O13 C18 1.255 . S
Cd14 O13 2.385 . S
Cd14 O15 2.317 . S
O15 Cd14 2.317 . S
O15 C16 1.232 . S
C16 O15 1.232 . S
C16 O17 1.218 . S
O17 C16 1.218 . S
C18 O11 1.275 . S
C18 O13 1.255 . S
C19 O20 1.258 . S
C19 O21 1.256 . S
O20 Cd12 2.381 . S
O20 C19 1.258 . S
O21 Cd12 2.378 . S
O21 C19 1.256 . S
O22 Cd23 2.300 . S
O22 C29 1.275 . S
Cd23 O22 2.300 . S
Cd23 O31 2.381 . S
Cd23 O32 2.378 . S
O24 Cd25 2.385 . S
O24 C29 1.255 . S
Cd25 O24 2.385 . S
Cd25 O26 2.317 . S
O26 Cd25 2.317 . S
O26 C27 1.232 . S
C27 O26 1.232 . S
C27 O28 1.218 . S
O28 C27 1.218 . S
C29 O22 1.275 . S
C29 O24 1.255 . S
C30 O31 1.258 . S
C30 O32 1.256 . S
O31 Cd23 2.381 . S
O31 C30 1.258 . S
O32 Cd23 2.378 . S
O32 C30 1.256 . S
O33 Cd34 2.300 . S
O33 C40 1.275 . S
Cd34 O33 2.300 . S
Cd34 O42 2.381 . S
Cd34 O43 2.378 . S
O35 Cd36 2.385 . S
O35 C40 1.255 . S
Cd36 O35 2.385 . S
Cd36 O37 2.317 . S
O37 Cd36 2.317 . S
O37 C38 1.232 . S
C38 O37 1.232 . S
C38 O39 1.218 . S
O39 C38 1.218 . S
C40 O33 1.275 . S
C40 O35 1.255 . S
C41 O42 1.258 . S
C41 O43 1.256 . S
O42 Cd34 2.381 . S
O42 C41 1.258 . S
O43 Cd34 2.378 . S
O43 C41 1.256 . S
O44 Cd45 2.300 . S
O44 C51 1.275 . S
Cd45 O44 2.300 . S
Cd45 O53 2.381 . S
Cd45 O54 2.378 . S
O46 Cd47 2.385 . S
O46 C51 1.255 . S
Cd47 O46 2.385 . S
Cd47 O48 2.317 . S
O48 Cd47 2.317 . S
O48 C49 1.232 . S
C49 O48 1.232 . S
C49 O50 1.218 . S
O50 C49 1.218 . S
C51 O44 1.275 . S
C51 O46 1.255 . S
C52 O53 1.258 . S
C52 O54 1.256 . S
O53 Cd45 2.381 . S
O53 C52 1.258 . S
O54 Cd45 2.378 . S
O54 C52 1.256 . S
O55 Cd56 2.300 . S
O55 C62 1.275 . S
Cd56 O55 2.300 . S
Cd56 O64 2.381 . S
Cd56 O65 2.378 . S
O57 Cd58 2.385 . S
O57 C62 1.255 . S
Cd58 O57 2.385 . S
Cd58 O59 2.317 . S
O59 Cd58 2.317 . S
O59 C60 1.232 . S
C60 O59 1.232 . S
C60 O61 1.218 . S
O61 C60 1.218 . S
C62 O55 1.275 . S
C62 O57 1.255 . S
C63 O64 1.258 . S
C63 O65 1.256 . S
O64 Cd56 2.381 . S
O64 C63 1.258 . S
O65 Cd56 2.378 . S
O65 C63 1.256 . S
O66 Cd67 2.300 . S
O66 C73 1.275 . S
Cd67 O66 2.300 . S
Cd67 O75 2.381 . S
Cd67 O76 2.378 . S
O68 Cd69 2.385 . S
O68 C73 1.255 . S
Cd69 O68 2.385 . S
Cd69 O70 2.317 . S
O70 Cd69 2.317 . S
O70 C71 1.232 . S
C71 O70 1.232 . S
C71 O72 1.218 . S
O72 C71 1.218 . S
C73 O66 1.275 . S
C73 O68 1.255 . S
C74 O75 1.258 . S
C74 O76 1.256 . S
O75 Cd67 2.381 . S
O75 C74 1.258 . S
O76 Cd67 2.378 . S
O76 C74 1.256 . S
O77 Cd78 2.300 . S
O77 C84 1.275 . S
Cd78 O77 2.300 . S
Cd78 O86 2.381 . S
Cd78 O87 2.378 . S
O79 Cd80 2.385 . S
O79 C84 1.255 . S
Cd80 O79 2.385 . S
Cd80 O81 2.317 . S
O81 Cd80 2.317 . S
O81 C82 1.232 . S
C82 O81 1.232 . S
C82 O83 1.218 . S
O83 C82 1.218 . S
C84 O77 1.275 . S
C84 O79 1.255 . S
C85 O86 1.258 . S
C85 O87 1.256 . S
O86 Cd78 2.381 . S
O86 C85 1.258 . S
O87 Cd78 2.378 . S
O87 C85 1.256 . S
O88 Cd89 2.300 . S
O88 C95 1.275 . S
Cd89 O88 2.300 . S
Cd89 O97 2.381 . S
Cd89 O98 2.378 . S
O90 Cd91 2.385 . S
O90 C95 1.255 . S
Cd91 O90 2.385 . S
Cd91 O92 2.317 . S
O92 Cd91 2.317 . S
O92 C93 1.232 . S
C93 O92 1.232 . S
C93 O94 1.218 . S
O94 C93 1.218 . S
C95 O88 1.275 . S
C95 O90 1.255 . S
C96 O97 1.258 . S
C96 O98 1.256 . S
O97 Cd89 2.381 . S
O97 C96 1.258 . S
O98 Cd89 2.378 . S
O98 C96 1.256 . S
O99 Cd100 2.300 . S
O99 C106 1.275 . S
Cd100 O99 2.300 . S
Cd100 O108 2.381 . S
Cd100 O109 2.378 . S
O101 Cd102 2.385 . S
O101 C106 1.255 . S
Cd102 O101 2.385 . S
Cd102 O103 2.317 . S
O103 Cd102 2.317 . S
O103 C104 1.232 . S
C104 O103 1.232 . S
C104 O105 1.218 . S
O105 C104 1.218 . S
C106 O99 1.275 . S
C106 O101 1.255 . S
C107 O108 1.258 . S
C107 O109 1.256 . S
O108 Cd100 2.381 . S
O108 C107 1.258 . S
O109 Cd100 2.378 . S
O109 C107 1.256 . S
O110 Cd111 2.300 . S
O110 C117 1.275 . S
Cd111 O110 2.300 . S
Cd111 O119 2.381 . S
Cd111 O120 2.378 . S
O112 Cd113 2.385 . S
O112 C117 1.255 . S
Cd113 O112 2.385 . S
Cd113 O114 2.317 . S
O114 Cd113 2.317 . S
O114 C115 1.232 . S
C115 O114 1.232 . S
C115 O116 1.218 . S
O116 C115 1.218 . S
C117 O110 1.275 . S
C117 O112 1.255 . S
C118 O119 1.258 . S
C118 O120 1.256 . S
O119 Cd111 2.381 . S
O119 C118 1.258 . S
O120 Cd111 2.378 . S
O120 C118 1.256 . S
O121 Cd122 2.300 . S
O121 C128 1.275 . S
Cd122 O121 2.300 . S
Cd122 O130 2.381 . S
Cd122 O131 2.378 . S
O123 Cd124 2.385 . S
O123 C128 1.255 . S
Cd124 O123 2.385 . S
Cd124 O125 2.317 . S
O125 Cd124 2.317 . S
O125 C126 1.232 . S
C126 O125 1.232 . S
C126 O127 1.218 . S
O127 C126 1.218 . S
C128 O121 1.275 . S
C128 O123 1.255 . S
C129 O130 1.258 . S
C129 O131 1.256 . S
O130 Cd122 2.381 . S
O130 C129 1.258 . S
O131 Cd122 2.378 . S
O131 C129 1.256 . S
O132 Cd133 2.300 . S
O132 C139 1.275 . S
Cd133 O132 2.300 . S
Cd133 O141 2.381 . S
Cd133 O142 2.378 . S
O134 Cd135 2.399 . S
O134 C139 1.239 1_455 S
Cd135 O134 2.399 . S
Cd135 O136 2.317 1_455 S
O136 Cd135 2.317 1_655 S
O136 C137 1.207 . S
C137 O136 1.207 . S
C137 O138 1.183 1_655 S
O138 C137 1.183 1_455 S
C139 O132 1.275 . S
C139 O134 1.239 1_655 S
C140 O141 1.258 . S
C140 O142 1.256 . S
O141 Cd133 2.381 . S
O141 C140 1.258 . S
O142 Cd133 2.378 . S
O142 C140 1.256 . S
O143 Cd144 2.300 . S
O143 C150 1.275 . S
Cd144 O143 2.300 . S
Cd144 O152 2.381 . S
Cd144 O153 2.378 . S
O145 Cd146 2.385 . S
O145 C150 1.255 . S
Cd146 O145 2.385 . S
Cd146 O147 2.317 . S
O147 Cd146 2.317 . S
O147 C148 1.232 . S
C148 O147 1.232 . S
C148 O149 1.218 . S
O149 C148 1.218 . S
C150 O143 1.275 . S
C150 O145 1.255 . S
C151 O152 1.258 . S
C151 O153 1.256 . S
O152 Cd144 2.381 . S
O152 C151 1.258 . S
O153 Cd144 2.378 . S
O153 C151 1.256 . S
O154 Cd155 2.300 . S
O154 C161 1.275 . S
Cd155 O154 2.300 . S
Cd155 O163 2.381 . S
Cd155 O164 2.378 . S
O156 Cd157 2.414 . S
O156 C161 1.229 1_565 S
Cd157 O156 2.414 . S
Cd157 O158 2.317 1_565 S
O158 Cd157 2.317 1_545 S
O158 C159 1.270 . S
C159 O158 1.270 . S
C159 O160 1.166 1_545 S
O160 C159 1.166 1_565 S
C161 O154 1.275 . S
C161 O156 1.229 1_545 S
C162 O163 1.258 . S
C162 O164 1.256 . S
O163 Cd155 2.381 . S
O163 C162 1.258 . S
O164 Cd155 2.378 . S
O164 C162 1.256 . S
O165 Cd166 2.300 . S
O165 C172 1.275 . S
Cd166 O165 2.300 . S
Cd166 O174 2.381 . S
Cd166 O175 2.378 . S
O167 Cd168 2.385 . S
O167 C172 1.255 . S
Cd168 O167 2.385 . S
Cd168 O169 2.317 . S
O169 Cd168 2.317 . S
O169 C170 1.232 . S
C170 O169 1.232 . S
C170 O171 1.218 . S
O171 C170 1.218 . S
C172 O165 1.275 . S
C172 O167 1.255 . S
C173 O174 1.258 . S
C173 O175 1.256 . S
O174 Cd166 2.381 . S
O174 C173 1.258 . S
O175 Cd166 2.378 . S
O175 C173 1.256 . S
O176 Cd177 2.300 . S
O176 C183 1.275 . S
Cd177 O176 2.300 . S
Cd177 O185 2.381 . S
Cd177 O186 2.378 . S
O178 Cd179 2.385 . S
O178 C183 1.255 . S
Cd179 O178 2.385 . S
Cd179 O180 2.317 . S
O180 Cd179 2.317 . S
O180 C181 1.232 . S
C181 O180 1.232 . S
C181 O182 1.218 . S
O182 C181 1.218 . S
C183 O176 1.275 . S
C183 O178 1.255 . S
C184 O185 1.258 . S
C184 O186 1.256 . S
O185 Cd177 2.381 . S
O185 C184 1.258 . S
O186 Cd177 2.378 . S
O186 C184 1.256 . S
O187 Cd188 2.300 . S
O187 C194 1.275 . S
Cd188 O187 2.300 . S
Cd188 O196 2.381 . S
Cd188 O197 2.378 . S
O189 Cd190 2.385 . S
O189 C194 1.255 . S
Cd190 O189 2.385 . S
Cd190 O191 2.317 . S
O191 Cd190 2.317 . S
O191 C192 1.232 . S
C192 O191 1.232 . S
C192 O193 1.218 . S
O193 C192 1.218 . S
C194 O187 1.275 . S
C194 O189 1.255 . S
C195 O196 1.258 . S
C195 O197 1.256 . S
O196 Cd188 2.381 . S
O196 C195 1.258 . S
O197 Cd188 2.378 . S
O197 C195 1.256 . S
O198 Cd199 2.300 . S
O198 C205 1.275 . S
Cd199 O198 2.300 . S
Cd199 O207 2.381 . S
Cd199 O208 2.378 . S
O200 Cd201 2.385 . S
O200 C205 1.255 . S
Cd201 O200 2.385 . S
Cd201 O202 2.317 . S
O202 Cd201 2.317 . S
O202 C203 1.232 . S
C203 O202 1.232 . S
C203 O204 1.218 . S
O204 C203 1.218 . S
C205 O198 1.275 . S
C205 O200 1.255 . S
C206 O207 1.258 . S
C206 O208 1.256 . S
O207 Cd199 2.381 . S
O207 C206 1.258 . S
O208 Cd199 2.378 . S
O208 C206 1.256 . S
O209 Cd210 2.300 . S
O209 C216 1.275 . S
Cd210 O209 2.300 . S
Cd210 O218 2.381 . S
Cd210 O219 2.378 . S
O211 Cd212 2.385 . S
O211 C216 1.255 . S
Cd212 O211 2.385 . S
Cd212 O213 2.317 . S
O213 Cd212 2.317 . S
O213 C214 1.232 . S
C214 O213 1.232 . S
C214 O215 1.218 . S
O215 C214 1.218 . S
C216 O209 1.275 . S
C216 O211 1.255 . S
C217 O218 1.258 . S
C217 O219 1.256 . S
O218 Cd210 2.381 . S
O218 C217 1.258 . S
O219 Cd210 2.378 . S
O219 C217 1.256 . S
O220 Cd221 2.300 . S
O220 C227 1.275 . S
Cd221 O220 2.300 . S
Cd221 O229 2.381 . S
Cd221 O230 2.378 . S
O222 Cd223 2.385 . S
O222 C227 1.255 . S
Cd223 O222 2.385 . S
Cd223 O224 2.317 . S
O224 Cd223 2.317 . S
O224 C225 1.232 . S
C225 O224 1.232 . S
C225 O226 1.218 . S
O226 C225 1.218 . S
C227 O220 1.275 . S
C227 O222 1.255 . S
C228 O229 1.258 . S
C228 O230 1.256 . S
O229 Cd221 2.381 . S
O229 C228 1.258 . S
O230 Cd221 2.378 . S
O230 C228 1.256 . S
O231 Cd232 2.300 . S
O231 C238 1.275 . S
Cd232 O231 2.300 . S
Cd232 O240 2.381 . S
Cd232 O241 2.378 1_556 S
O233 Cd234 2.385 . S
O233 C238 1.255 . S
Cd234 O233 2.385 . S
Cd234 O235 2.317 . S
O235 Cd234 2.317 . S
O235 C236 1.232 . S
C236 O235 1.232 . S
C236 O237 1.218 . S
O237 C236 1.218 . S
C238 O231 1.275 . S
C238 O233 1.255 . S
C239 O240 1.258 1_554 S
C239 O241 1.256 . S
O240 Cd232 2.381 . S
O240 C239 1.258 1_556 S
O241 Cd232 2.378 1_554 S
O241 C239 1.256 . S
O242 Cd243 2.300 . S
O242 C249 1.275 . S
Cd243 O242 2.300 . S
Cd243 O251 2.381 . S
Cd243 O252 2.378 1_556 S
O244 Cd245 2.385 . S
O244 C249 1.255 . S
Cd245 O244 2.385 . S
Cd245 O246 2.317 . S
O246 Cd245 2.317 . S
O246 C247 1.232 . S
C247 O246 1.232 . S
C247 O248 1.218 . S
O248 C247 1.218 . S
C249 O242 1.275 . S
C249 O244 1.255 . S
C250 O251 1.258 1_554 S
C250 O252 1.256 . S
O251 Cd243 2.381 . S
O251 C250 1.258 1_556 S
O252 Cd243 2.378 1_554 S
O252 C250 1.256 . S
O253 Cd254 2.300 . S
O253 C260 1.275 . S
Cd254 O253 2.300 . S
Cd254 O262 2.381 . S
Cd254 O263 2.378 1_556 S
O255 Cd256 2.385 . S
O255 C260 1.255 . S
Cd256 O255 2.385 . S
Cd256 O257 2.317 . S
O257 Cd256 2.317 . S
O257 C258 1.232 . S
C258 O257 1.232 . S
C258 O259 1.218 . S
O259 C258 1.218 . S
C260 O253 1.275 . S
C260 O255 1.255 . S
C261 O262 1.258 1_554 S
C261 O263 1.256 . S
O262 Cd254 2.381 . S
O262 C261 1.258 1_556 S
O263 Cd254 2.378 1_554 S
O263 C261 1.256 . S
O264 Cd265 2.300 . S
O264 C271 1.275 . S
Cd265 O264 2.300 . S
Cd265 O273 2.381 . S
Cd265 O274 2.378 . S
O266 Cd267 2.385 . S
O266 C271 1.255 . S
Cd267 O266 2.385 . S
Cd267 O268 2.317 . S
O268 Cd267 2.317 . S
O268 C269 1.232 . S
C269 O268 1.232 . S
C269 O270 1.218 . S
O270 C269 1.218 . S
C271 O264 1.275 . S
C271 O266 1.255 . S
C272 O273 1.258 . S
C272 O274 1.256 . S
O273 Cd265 2.381 . S
O273 C272 1.258 . S
O274 Cd265 2.378 . S
O274 C272 1.256 . S
O275 Cd276 2.300 . S
O275 C282 1.275 . S
Cd276 O275 2.300 . S
Cd276 O284 2.381 . S
Cd276 O285 2.378 . S
O277 Cd278 2.385 . S
O277 C282 1.255 . S
Cd278 O277 2.385 . S
Cd278 O279 2.317 . S
O279 Cd278 2.317 . S
O279 C280 1.232 . S
C280 O279 1.232 . S
C280 O281 1.218 . S
O281 C280 1.218 . S
C282 O275 1.275 . S
C282 O277 1.255 . S
C283 O284 1.258 . S
C283 O285 1.256 . S
O284 Cd276 2.381 . S
O284 C283 1.258 . S
O285 Cd276 2.378 . S
O285 C283 1.256 . S
O286 Cd287 2.300 . S
O286 C293 1.275 . S
Cd287 O286 2.300 . S
Cd287 O295 2.381 . S
Cd287 O296 2.378 . S
O288 Cd289 2.385 . S
O288 C293 1.255 . S
Cd289 O288 2.385 . S
Cd289 O290 2.317 . S
O290 Cd289 2.317 . S
O290 C291 1.232 . S
C291 O290 1.232 . S
C291 O292 1.218 . S
O292 C291 1.218 . S
C293 O286 1.275 . S
C293 O288 1.255 . S
C294 O295 1.258 . S
C294 O296 1.256 . S
O295 Cd287 2.381 . S
O295 C294 1.258 . S
O296 Cd287 2.378 . S
O296 C294 1.256 . S
O297 Cd298 2.300 . S
O297 C304 1.275 . S
Cd298 O297 2.300 . S
Cd298 O306 2.381 . S
Cd298 O307 2.378 1_554 S
O299 Cd300 2.397 . S
O299 C304 1.241 1_545 S
Cd300 O299 2.397 . S
Cd300 O301 2.317 1_545 S
O301 Cd300 2.317 1_565 S
O301 C302 1.205 . S
C302 O301 1.205 . S
C302 O303 1.181 1_565 S
O303 C302 1.181 1_545 S
C304 O297 1.275 . S
C304 O299 1.241 1_565 S
C305 O306 1.258 1_556 S
C305 O307 1.256 . S
O306 Cd298 2.381 . S
O306 C305 1.258 1_554 S
O307 Cd298 2.378 1_556 S
O307 C305 1.256 . S
O308 Cd309 2.300 . S
O308 C315 1.275 . S
Cd309 O308 2.300 . S
Cd309 O317 2.381 . S
Cd309 O318 2.378 1_554 S
O310 Cd311 2.410 . S
O310 C315 1.232 1_655 S
Cd311 O310 2.410 . S
Cd311 O312 2.317 1_655 S
O312 Cd311 2.317 1_455 S
O312 C313 1.273 . S
C313 O312 1.273 . S
C313 O314 1.163 1_455 S
O314 C313 1.163 1_655 S
C315 O308 1.275 . S
C315 O310 1.232 1_455 S
C316 O317 1.258 1_556 S
C316 O318 1.256 . S
O317 Cd309 2.381 . S
O317 C316 1.258 1_554 S
O318 Cd309 2.378 1_556 S
O318 C316 1.256 . S
O319 Cd320 2.300 . S
O319 C326 1.275 . S
Cd320 O319 2.300 . S
Cd320 O328 2.381 . S
Cd320 O329 2.378 1_554 S
O321 Cd322 2.385 . S
O321 C326 1.255 . S
Cd322 O321 2.385 . S
Cd322 O323 2.317 . S
O323 Cd322 2.317 . S
O323 C324 1.232 . S
C324 O323 1.232 . S
C324 O325 1.218 . S
O325 C324 1.218 . S
C326 O319 1.275 . S
C326 O321 1.255 . S
C327 O328 1.258 1_556 S
C327 O329 1.256 . S
O328 Cd320 2.381 . S
O328 C327 1.258 1_554 S
O329 Cd320 2.378 1_556 S
O329 C327 1.256 . S
O330 Cd331 2.300 . S
O330 C337 1.275 . S
Cd331 O330 2.300 . S
Cd331 O339 2.381 . S
Cd331 O340 2.378 . S
O332 Cd333 2.385 . S
O332 C337 1.255 . S
Cd333 O332 2.385 . S
Cd333 O334 2.317 . S
O334 Cd333 2.317 . S
O334 C335 1.232 . S
C335 O334 1.232 . S
C335 O336 1.218 . S
O336 C335 1.218 . S
C337 O330 1.275 . S
C337 O332 1.255 . S
C338 O339 1.258 . S
C338 O340 1.256 . S
O339 Cd331 2.381 . S
O339 C338 1.258 . S
O340 Cd331 2.378 . S
O340 C338 1.256 . S
O341 Cd342 2.300 . S
O341 C348 1.275 . S
Cd342 O341 2.300 . S
Cd342 O350 2.381 . S
Cd342 O351 2.378 . S
O343 Cd344 2.385 . S
O343 C348 1.255 . S
Cd344 O343 2.385 . S
Cd344 O345 2.317 . S
O345 Cd344 2.317 . S
O345 C346 1.232 . S
C346 O345 1.232 . S
C346 O347 1.218 . S
O347 C346 1.218 . S
C348 O341 1.275 . S
C348 O343 1.255 . S
C349 O350 1.258 . S
C349 O351 1.256 . S
O350 Cd342 2.381 . S
O350 C349 1.258 . S
O351 Cd342 2.378 . S
O351 C349 1.256 . S
O352 Cd353 2.300 . S
O352 C359 1.275 . S
Cd353 O352 2.300 . S
Cd353 O361 2.381 . S
Cd353 O362 2.378 . S
O354 Cd355 2.385 . S
O354 C359 1.255 . S
Cd355 O354 2.385 . S
Cd355 O356 2.317 . S
O356 Cd355 2.317 . S
O356 C357 1.232 . S
C357 O356 1.232 . S
C357 O358 1.218 . S
O358 C357 1.218 . S
C359 O352 1.275 . S
C359 O354 1.255 . S
C360 O361 1.258 . S
C360 O362 1.256 . S
O361 Cd353 2.381 . S
O361 C360 1.258 . S
O362 Cd353 2.378 . S
O362 C360 1.256 . S
O363 Cd364 2.300 . S
O363 C370 1.275 . S
Cd364 O363 2.300 . S
Cd364 O372 2.381 . S
Cd364 O373 2.378 . S
O365 Cd366 2.385 . S
O365 C370 1.255 . S
Cd366 O365 2.385 . S
Cd366 O367 2.317 . S
O367 Cd366 2.317 . S
O367 C368 1.232 . S
C368 O367 1.232 . S
C368 O369 1.218 . S
O369 C368 1.218 . S
C370 O363 1.275 . S
C370 O365 1.255 . S
C371 O372 1.258 . S
C371 O373 1.256 . S
O372 Cd364 2.381 . S
O372 C371 1.258 . S
O373 Cd364 2.378 . S
O373 C371 1.256 . S
O374 Cd375 2.300 . S
O374 C381 1.275 . S
Cd375 O374 2.300 . S
Cd375 O383 2.381 . S
Cd375 O384 2.378 . S
O376 Cd377 2.385 . S
O376 C381 1.255 . S
Cd377 O376 2.385 . S
Cd377 O378 2.317 . S
O378 Cd377 2.317 . S
O378 C379 1.232 . S
C379 O378 1.232 . S
C379 O380 1.218 . S
O380 C379 1.218 . S
C381 O374 1.275 . S
C381 O376 1.255 . S
C382 O383 1.258 . S
C382 O384 1.256 . S
O383 Cd375 2.381 . S
O383 C382 1.258 . S
O384 Cd375 2.378 . S
O384 C382 1.256 . S
O385 Cd386 2.300 . S
O385 C392 1.275 . S
Cd386 O385 2.300 . S
Cd386 O394 2.381 . S
Cd386 O395 2.378 . S
O387 Cd388 2.385 . S
O387 C392 1.255 . S
Cd388 O387 2.385 . S
Cd388 O389 2.317 . S
O389 Cd388 2.317 . S
O389 C390 1.232 . S
C390 O389 1.232 . S
C390 O391 1.218 . S
O391 C390 1.218 . S
C392 O385 1.275 . S
C392 O387 1.255 . S
C393 O394 1.258 . S
C393 O395 1.256 . S
O394 Cd386 2.381 . S
O394 C393 1.258 . S
O395 Cd386 2.378 . S
O395 C393 1.256 . S
H396 C414 0.951 . S
H397 C416 0.951 . S
H398 C418 0.950 . S
H399 C419 0.950 . S
H400 C421 0.950 . S
H401 C424 0.950 . S
H402 C425 0.950 . S
H403 C427 0.950 . S
H404 C428 0.950 . S
H405 C429 0.951 . S
H406 C431 0.951 . S
H407 C433 0.950 . S
H408 C434 0.950 . S
H409 C436 0.950 . S
H410 C439 0.950 . S
H411 C440 0.950 . S
H412 C442 0.950 . S
H413 C443 0.950 . S
C414 H396 0.951 . S
C414 C415 1.366 . S
C414 C416 1.388 . S
C415 C414 1.366 . S
C415 C419 1.385 . S
C416 H397 0.951 . S
C416 C414 1.388 . S
C416 C417 1.366 . S
C417 C416 1.366 . S
C417 C418 1.414 . S
C417 C420 1.499 . S
C418 H398 0.950 . S
C418 C417 1.414 . S
C418 C419 1.374 . S
C419 H399 0.950 . S
C419 C415 1.385 . S
C419 C418 1.374 . S
C420 C417 1.499 . S
C420 C421 1.373 . S
C420 C422 1.389 . S
C421 H400 0.950 . S
C421 C420 1.373 . S
C421 C437 1.377 1_565 S
C422 C420 1.389 . S
C422 C423 1.524 . S
C422 C436 1.377 1_565 S
C423 C422 1.524 . S
C423 C424 1.397 . S
C423 C428 1.363 . S
C424 H401 0.950 . S
C424 C423 1.397 . S
C424 C425 1.334 . S
C425 H402 0.950 . S
C425 C424 1.334 . S
C425 C426 1.287 . S
C426 C425 1.287 . S
C426 C427 1.524 . S
C426 H445 0.913 . S
C427 H403 0.950 . S
C427 C426 1.524 . S
C427 C428 1.415 . S
C428 H404 0.950 . S
C428 C423 1.363 . S
C428 C427 1.415 . S
C429 H405 0.951 . S
C429 C430 1.366 . S
C429 C431 1.388 . S
C430 C429 1.366 . S
C430 C434 1.385 . S
C431 H406 0.951 . S
C431 C429 1.388 . S
C431 C432 1.366 . S
C432 C431 1.366 . S
C432 C433 1.414 . S
C432 C435 1.499 . S
C433 H407 0.950 . S
C433 C432 1.414 . S
C433 C434 1.374 . S
C434 H408 0.950 . S
C434 C430 1.385 . S
C434 C433 1.374 . S
C435 C432 1.499 . S
C435 C436 1.373 . S
C435 C437 1.389 . S
C436 H409 0.950 . S
C436 C422 1.377 1_545 S
C436 C435 1.373 . S
C437 C421 1.377 1_545 S
C437 C435 1.389 . S
C437 C438 1.524 . S
C438 C437 1.524 . S
C438 C439 1.397 . S
C438 C443 1.363 . S
C439 H410 0.950 . S
C439 C438 1.397 . S
C439 C440 1.334 . S
C440 H411 0.950 . S
C440 C439 1.334 . S
C440 C441 1.287 . S
C441 C440 1.287 . S
C441 C442 1.524 . S
C441 H444 0.999 . S
C442 H412 0.950 . S
C442 C441 1.524 . S
C442 C443 1.415 . S
C443 H413 0.950 . S
C443 C438 1.363 . S
C443 C442 1.415 . S
H444 C441 0.999 . S
H445 C426 0.913 . S
H446 C464 0.951 . S
H447 C466 0.951 . S
H448 C468 0.950 . S
H449 C469 0.950 . S
H450 C471 0.950 . S
H451 C474 0.950 . S
H452 C475 0.950 . S
H453 C477 0.950 . S
H454 C478 0.950 . S
H455 C479 0.951 . S
H456 C481 0.951 . S
H457 C483 0.950 . S
H458 C484 0.950 . S
H459 C486 0.950 . S
H460 C489 0.950 . S
H461 C490 0.950 . S
H462 C492 0.950 . S
H463 C493 0.950 . S
C464 H446 0.951 . S
C464 C465 1.366 . S
C464 C466 1.388 . S
C465 C464 1.366 . S
C465 C469 1.385 . S
C466 H447 0.951 . S
C466 C464 1.388 . S
C466 C467 1.366 . S
C467 C466 1.366 . S
C467 C468 1.414 . S
C467 C470 1.499 . S
C468 H448 0.950 . S
C468 C467 1.414 . S
C468 C469 1.374 . S
C469 H449 0.950 . S
C469 C465 1.385 . S
C469 C468 1.374 . S
C470 C467 1.499 . S
C470 C471 1.373 . S
C470 C472 1.389 . S
C471 H450 0.950 . S
C471 C470 1.373 . S
C471 C487 1.377 1_455 S
C472 C470 1.389 . S
C472 C473 1.524 . S
C472 C486 1.377 1_455 S
C473 C472 1.524 . S
C473 C474 1.397 . S
C473 C478 1.363 . S
C474 H451 0.950 . S
C474 C473 1.397 . S
C474 C475 1.334 . S
C475 H452 0.950 . S
C475 C474 1.334 . S
C475 C476 1.287 . S
C476 C475 1.287 . S
C476 C477 1.524 . S
C476 H495 0.913 . S
C477 H453 0.950 . S
C477 C476 1.524 . S
C477 C478 1.415 . S
C478 H454 0.950 . S
C478 C473 1.363 . S
C478 C477 1.415 . S
C479 H455 0.951 . S
C479 C480 1.366 . S
C479 C481 1.388 . S
C480 C479 1.366 . S
C480 C484 1.385 . S
C481 H456 0.951 . S
C481 C479 1.388 . S
C481 C482 1.366 . S
C482 C481 1.366 . S
C482 C483 1.414 . S
C482 C485 1.499 . S
C483 H457 0.950 . S
C483 C482 1.414 . S
C483 C484 1.374 . S
C484 H458 0.950 . S
C484 C480 1.385 . S
C484 C483 1.374 . S
C485 C482 1.499 . S
C485 C486 1.373 . S
C485 C487 1.389 . S
C486 H459 0.950 . S
C486 C472 1.377 1_655 S
C486 C485 1.373 . S
C487 C471 1.377 1_655 S
C487 C485 1.389 . S
C487 C488 1.524 . S
C488 C487 1.524 . S
C488 C489 1.397 . S
C488 C493 1.363 . S
C489 H460 0.950 . S
C489 C488 1.397 . S
C489 C490 1.334 . S
C490 H461 0.950 . S
C490 C489 1.334 . S
C490 C491 1.287 . S
C491 C490 1.287 . S
C491 C492 1.524 . S
C491 H494 0.999 . S
C492 H462 0.950 . S
C492 C491 1.524 . S
C492 C493 1.415 . S
C493 H463 0.950 . S
C493 C488 1.363 . S
C493 C492 1.415 . S
H494 C491 0.999 . S
H495 C476 0.913 . S
H496 C514 0.951 . S
H497 C516 0.951 . S
H498 C518 0.950 . S
H499 C519 0.950 . S
H500 C521 0.950 . S
H501 C524 0.950 . S
H502 C525 0.950 . S
H503 C527 0.950 . S
H504 C528 0.950 . S
H505 C529 0.951 . S
H506 C531 0.951 . S
H507 C533 0.950 . S
H508 C534 0.950 . S
H509 C536 0.950 . S
H510 C539 0.950 . S
H511 C540 0.950 . S
H512 C542 0.950 . S
H513 C543 0.950 . S
C514 H496 0.951 . S
C514 C515 1.366 . S
C514 C516 1.388 . S
C515 C514 1.366 . S
C515 C519 1.385 . S
C516 H497 0.951 . S
C516 C514 1.388 . S
C516 C517 1.366 . S
C517 C516 1.366 . S
C517 C518 1.414 . S
C517 C520 1.499 . S
C518 H498 0.950 . S
C518 C517 1.414 . S
C518 C519 1.374 . S
C519 H499 0.950 . S
C519 C515 1.385 . S
C519 C518 1.374 . S
C520 C517 1.499 . S
C520 C521 1.373 . S
C520 C522 1.389 . S
C521 H500 0.950 . S
C521 C520 1.373 . S
C521 C537 1.377 . S
C522 C520 1.389 . S
C522 C523 1.524 . S
C522 C536 1.377 . S
C523 C522 1.524 . S
C523 C524 1.397 . S
C523 C528 1.363 . S
C524 H501 0.950 . S
C524 C523 1.397 . S
C524 C525 1.334 . S
C525 H502 0.950 . S
C525 C524 1.334 . S
C525 C526 1.287 . S
C526 C525 1.287 . S
C526 C527 1.524 . S
C526 H545 0.913 . S
C527 H503 0.950 . S
C527 C526 1.524 . S
C527 C528 1.415 . S
C528 H504 0.950 . S
C528 C523 1.363 . S
C528 C527 1.415 . S
C529 H505 0.951 . S
C529 C530 1.366 . S
C529 C531 1.388 . S
C530 C529 1.366 . S
C530 C534 1.385 . S
C531 H506 0.951 . S
C531 C529 1.388 . S
C531 C532 1.366 . S
C532 C531 1.366 . S
C532 C533 1.414 . S
C532 C535 1.499 . S
C533 H507 0.950 . S
C533 C532 1.414 . S
C533 C534 1.374 . S
C534 H508 0.950 . S
C534 C530 1.385 . S
C534 C533 1.374 . S
C535 C532 1.499 . S
C535 C536 1.373 . S
C535 C537 1.389 . S
C536 H509 0.950 . S
C536 C522 1.377 . S
C536 C535 1.373 . S
C537 C521 1.377 . S
C537 C535 1.389 . S
C537 C538 1.524 . S
C538 C537 1.524 . S
C538 C539 1.397 . S
C538 C543 1.363 . S
C539 H510 0.950 . S
C539 C538 1.397 . S
C539 C540 1.334 . S
C540 H511 0.950 . S
C540 C539 1.334 . S
C540 C541 1.287 . S
C541 C540 1.287 . S
C541 C542 1.524 . S
C541 H544 0.999 . S
C542 H512 0.950 . S
C542 C541 1.524 . S
C542 C543 1.415 . S
C543 H513 0.950 . S
C543 C538 1.363 . S
C543 C542 1.415 . S
H544 C541 0.999 . S
H545 C526 0.913 . S
H546 C564 0.951 . S
H547 C566 0.951 . S
H548 C568 0.950 . S
H549 C569 0.950 . S
H550 C571 0.950 . S
H551 C574 0.950 . S
H552 C575 0.950 . S
H553 C577 0.950 . S
H554 C578 0.950 . S
H555 C579 0.951 . S
H556 C581 0.951 . S
H557 C583 0.950 . S
H558 C584 0.950 . S
H559 C586 0.950 . S
H560 C589 0.950 . S
H561 C590 0.950 . S
H562 C592 0.950 . S
H563 C593 0.950 . S
C564 H546 0.951 . S
C564 C565 1.366 . S
C564 C566 1.388 . S
C565 C564 1.366 . S
C565 C569 1.385 . S
C566 H547 0.951 . S
C566 C564 1.388 . S
C566 C567 1.366 . S
C567 C566 1.366 . S
C567 C568 1.414 . S
C567 C570 1.499 . S
C568 H548 0.950 . S
C568 C567 1.414 . S
C568 C569 1.374 . S
C569 H549 0.950 . S
C569 C565 1.385 . S
C569 C568 1.374 . S
C570 C567 1.499 . S
C570 C571 1.373 . S
C570 C572 1.389 . S
C571 H550 0.950 . S
C571 C570 1.373 . S
C571 C587 1.377 1_565 S
C572 C570 1.389 . S
C572 C573 1.524 . S
C572 C586 1.377 1_565 S
C573 C572 1.524 . S
C573 C574 1.397 . S
C573 C578 1.363 . S
C574 H551 0.950 . S
C574 C573 1.397 . S
C574 C575 1.334 . S
C575 H552 0.950 . S
C575 C574 1.334 . S
C575 C576 1.287 . S
C576 C575 1.287 . S
C576 C577 1.524 . S
C576 H595 0.913 . S
C577 H553 0.950 . S
C577 C576 1.524 . S
C577 C578 1.415 . S
C578 H554 0.950 . S
C578 C573 1.363 . S
C578 C577 1.415 . S
C579 H555 0.951 . S
C579 C580 1.366 . S
C579 C581 1.388 . S
C580 C579 1.366 . S
C580 C584 1.385 . S
C581 H556 0.951 . S
C581 C579 1.388 . S
C581 C582 1.366 . S
C582 C581 1.366 . S
C582 C583 1.414 . S
C582 C585 1.499 . S
C583 H557 0.950 . S
C583 C582 1.414 . S
C583 C584 1.374 . S
C584 H558 0.950 . S
C584 C580 1.385 . S
C584 C583 1.374 . S
C585 C582 1.499 . S
C585 C586 1.373 . S
C585 C587 1.389 . S
C586 H559 0.950 . S
C586 C572 1.377 1_545 S
C586 C585 1.373 . S
C587 C571 1.377 1_545 S
C587 C585 1.389 . S
C587 C588 1.524 . S
C588 C587 1.524 . S
C588 C589 1.397 . S
C588 C593 1.363 . S
C589 H560 0.950 . S
C589 C588 1.397 . S
C589 C590 1.334 . S
C590 H561 0.950 . S
C590 C589 1.334 . S
C590 C591 1.287 . S
C591 C590 1.287 . S
C591 C592 1.524 . S
C591 H594 0.999 . S
C592 H562 0.950 . S
C592 C591 1.524 . S
C592 C593 1.415 . S
C593 H563 0.950 . S
C593 C588 1.363 . S
C593 C592 1.415 . S
H594 C591 0.999 . S
H595 C576 0.913 . S
H596 C614 0.951 . S
H597 C616 0.951 . S
H598 C618 0.950 . S
H599 C619 0.950 . S
H600 C621 0.950 . S
H601 C624 0.950 . S
H602 C625 0.950 . S
H603 C627 0.950 . S
H604 C628 0.950 . S
H605 C629 0.951 . S
H606 C631 0.951 . S
H607 C633 0.950 . S
H608 C634 0.950 . S
H609 C636 0.950 . S
H610 C639 0.950 . S
H611 C640 0.950 . S
H612 C642 0.950 . S
H613 C643 0.950 . S
C614 H596 0.951 . S
C614 C615 1.366 . S
C614 C616 1.388 . S
C615 C614 1.366 . S
C615 C619 1.385 . S
C616 H597 0.951 . S
C616 C614 1.388 . S
C616 C617 1.366 . S
C617 C616 1.366 . S
C617 C618 1.414 . S
C617 C620 1.499 . S
C618 H598 0.950 . S
C618 C617 1.414 . S
C618 C619 1.374 . S
C619 H599 0.950 . S
C619 C615 1.385 . S
C619 C618 1.374 . S
C620 C617 1.499 . S
C620 C621 1.373 . S
C620 C622 1.389 . S
C621 H600 0.950 . S
C621 C620 1.373 . S
C621 C637 1.377 1_655 S
C622 C620 1.389 . S
C622 C623 1.524 . S
C622 C636 1.377 1_655 S
C623 C622 1.524 . S
C623 C624 1.397 . S
C623 C628 1.363 . S
C624 H601 0.950 . S
C624 C623 1.397 . S
C624 C625 1.334 . S
C625 H602 0.950 . S
C625 C624 1.334 . S
C625 C626 1.287 . S
C626 C625 1.287 . S
C626 C627 1.524 . S
C626 H645 0.913 . S
C627 H603 0.950 . S
C627 C626 1.524 . S
C627 C628 1.415 . S
C628 H604 0.950 . S
C628 C623 1.363 . S
C628 C627 1.415 . S
C629 H605 0.951 . S
C629 C630 1.366 . S
C629 C631 1.388 . S
C630 C629 1.366 . S
C630 C634 1.385 . S
C631 H606 0.951 . S
C631 C629 1.388 . S
C631 C632 1.366 . S
C632 C631 1.366 . S
C632 C633 1.414 . S
C632 C635 1.499 . S
C633 H607 0.950 . S
C633 C632 1.414 . S
C633 C634 1.374 . S
C634 H608 0.950 . S
C634 C630 1.385 . S
C634 C633 1.374 . S
C635 C632 1.499 . S
C635 C636 1.373 . S
C635 C637 1.389 . S
C636 H609 0.950 . S
C636 C622 1.377 1_455 S
C636 C635 1.373 . S
C637 C621 1.377 1_455 S
C637 C635 1.389 . S
C637 C638 1.524 . S
C638 C637 1.524 . S
C638 C639 1.397 . S
C638 C643 1.363 . S
C639 H610 0.950 . S
C639 C638 1.397 . S
C639 C640 1.334 . S
C640 H611 0.950 . S
C640 C639 1.334 . S
C640 C641 1.287 . S
C641 C640 1.287 . S
C641 C642 1.524 . S
C641 H644 0.999 . S
C642 H612 0.950 . S
C642 C641 1.524 . S
C642 C643 1.415 . S
C643 H613 0.950 . S
C643 C638 1.363 . S
C643 C642 1.415 . S
H644 C641 0.999 . S
H645 C626 0.913 . S
H646 C664 0.951 . S
H647 C666 0.951 . S
H648 C668 0.950 . S
H649 C669 0.950 . S
H650 C671 0.950 . S
H651 C674 0.950 . S
H652 C675 0.950 . S
H653 C677 0.950 . S
H654 C678 0.950 . S
H655 C679 0.951 . S
H656 C681 0.951 . S
H657 C683 0.950 . S
H658 C684 0.950 . S
H659 C686 0.950 . S
H660 C689 0.950 . S
H661 C690 0.950 . S
H662 C692 0.950 . S
H663 C693 0.950 . S
C664 H646 0.951 . S
C664 C665 1.366 . S
C664 C666 1.388 . S
C665 C664 1.366 . S
C665 C669 1.385 . S
C666 H647 0.951 . S
C666 C664 1.388 . S
C666 C667 1.366 . S
C667 C666 1.366 . S
C667 C668 1.414 . S
C667 C670 1.499 . S
C668 H648 0.950 . S
C668 C667 1.414 . S
C668 C669 1.374 . S
C669 H649 0.950 . S
C669 C665 1.385 . S
C669 C668 1.374 . S
C670 C667 1.499 . S
C670 C671 1.373 . S
C670 C672 1.389 . S
C671 H650 0.950 . S
C671 C670 1.373 . S
C671 C687 1.377 . S
C672 C670 1.389 . S
C672 C673 1.524 . S
C672 C686 1.377 . S
C673 C672 1.524 . S
C673 C674 1.397 . S
C673 C678 1.363 . S
C674 H651 0.950 . S
C674 C673 1.397 . S
C674 C675 1.334 . S
C675 H652 0.950 . S
C675 C674 1.334 . S
C675 C676 1.287 . S
C676 C675 1.287 . S
C676 C677 1.524 . S
C676 H695 0.913 . S
C677 H653 0.950 . S
C677 C676 1.524 . S
C677 C678 1.415 . S
C678 H654 0.950 . S
C678 C673 1.363 . S
C678 C677 1.415 . S
C679 H655 0.951 . S
C679 C680 1.366 . S
C679 C681 1.388 . S
C680 C679 1.366 . S
C680 C684 1.385 . S
C681 H656 0.951 . S
C681 C679 1.388 . S
C681 C682 1.366 . S
C682 C681 1.366 . S
C682 C683 1.414 . S
C682 C685 1.499 . S
C683 H657 0.950 . S
C683 C682 1.414 . S
C683 C684 1.374 . S
C684 H658 0.950 . S
C684 C680 1.385 . S
C684 C683 1.374 . S
C685 C682 1.499 . S
C685 C686 1.373 . S
C685 C687 1.389 . S
C686 H659 0.950 . S
C686 C672 1.377 . S
C686 C685 1.373 . S
C687 C671 1.377 . S
C687 C685 1.389 . S
C687 C688 1.524 . S
C688 C687 1.524 . S
C688 C689 1.397 . S
C688 C693 1.363 . S
C689 H660 0.950 . S
C689 C688 1.397 . S
C689 C690 1.334 . S
C690 H661 0.950 . S
C690 C689 1.334 . S
C690 C691 1.287 . S
C691 C690 1.287 . S
C691 C692 1.524 . S
C691 H694 0.999 . S
C692 H662 0.950 . S
C692 C691 1.524 . S
C692 C693 1.415 . S
C693 H663 0.950 . S
C693 C688 1.363 . S
C693 C692 1.415 . S
H694 C691 0.999 . S
H695 C676 0.913 . S
H696 C714 0.951 . S
H697 C716 0.951 . S
H698 C718 0.950 . S
H699 C719 0.950 . S
H700 C721 0.950 . S
H701 C724 0.950 . S
H702 C725 0.950 . S
H703 C727 0.950 . S
H704 C728 0.950 . S
H705 C729 0.951 . S
H706 C731 0.951 . S
H707 C733 0.950 . S
H708 C734 0.950 . S
H709 C736 0.950 . S
H710 C739 0.950 . S
H711 C740 0.950 . S
H712 C742 0.950 . S
H713 C743 0.950 . S
C714 H696 0.951 . S
C714 C715 1.366 . S
C714 C716 1.388 . S
C715 C714 1.366 . S
C715 C719 1.385 . S
C716 H697 0.951 . S
C716 C714 1.388 . S
C716 C717 1.366 . S
C717 C716 1.366 . S
C717 C718 1.414 . S
C717 C720 1.499 . S
C718 H698 0.950 . S
C718 C717 1.414 . S
C718 C719 1.374 . S
C719 H699 0.950 . S
C719 C715 1.385 . S
C719 C718 1.374 . S
C720 C717 1.499 . S
C720 C721 1.373 . S
C720 C722 1.389 . S
C721 H700 0.950 . S
C721 C720 1.373 . S
C721 C737 1.377 . S
C722 C720 1.389 . S
C722 C723 1.524 . S
C722 C736 1.377 . S
C723 C722 1.524 . S
C723 C724 1.397 . S
C723 C728 1.363 . S
C724 H701 0.950 . S
C724 C723 1.397 . S
C724 C725 1.334 . S
C725 H702 0.950 . S
C725 C724 1.334 . S
C725 C726 1.287 . S
C726 C725 1.287 . S
C726 C727 1.524 . S
C726 H745 0.913 . S
C727 H703 0.950 . S
C727 C726 1.524 . S
C727 C728 1.415 . S
C728 H704 0.950 . S
C728 C723 1.363 . S
C728 C727 1.415 . S
C729 H705 0.951 . S
C729 C730 1.366 . S
C729 C731 1.388 . S
C730 C729 1.366 . S
C730 C734 1.385 . S
C731 H706 0.951 . S
C731 C729 1.388 . S
C731 C732 1.366 . S
C732 C731 1.366 . S
C732 C733 1.414 . S
C732 C735 1.499 . S
C733 H707 0.950 . S
C733 C732 1.414 . S
C733 C734 1.374 . S
C734 H708 0.950 . S
C734 C730 1.385 . S
C734 C733 1.374 . S
C735 C732 1.499 . S
C735 C736 1.373 . S
C735 C737 1.389 . S
C736 H709 0.950 . S
C736 C722 1.377 . S
C736 C735 1.373 . S
C737 C721 1.377 . S
C737 C735 1.389 . S
C737 C738 1.524 . S
C738 C737 1.524 . S
C738 C739 1.397 . S
C738 C743 1.363 . S
C739 H710 0.950 . S
C739 C738 1.397 . S
C739 C740 1.334 . S
C740 H711 0.950 . S
C740 C739 1.334 . S
C740 C741 1.287 . S
C741 C740 1.287 . S
C741 C742 1.524 . S
C741 H744 0.999 . S
C742 H712 0.950 . S
C742 C741 1.524 . S
C742 C743 1.415 . S
C743 H713 0.950 . S
C743 C738 1.363 . S
C743 C742 1.415 . S
H744 C741 0.999 . S
H745 C726 0.913 . S
H746 C764 0.951 . S
H747 C766 0.951 . S
H748 C768 0.950 . S
H749 C769 0.950 . S
H750 C771 0.950 . S
H751 C774 0.950 . S
H752 C775 0.950 . S
H753 C777 0.950 . S
H754 C778 0.950 . S
H755 C779 0.951 . S
H756 C781 0.951 . S
H757 C783 0.950 . S
H758 C784 0.950 . S
H759 C786 0.950 . S
H760 C789 0.950 . S
H761 C790 0.950 . S
H762 C792 0.950 . S
H763 C793 0.950 . S
C764 H746 0.951 . S
C764 C765 1.366 . S
C764 C766 1.388 . S
C765 C764 1.366 . S
C765 C769 1.385 . S
C766 H747 0.951 . S
C766 C764 1.388 . S
C766 C767 1.366 . S
C767 C766 1.366 . S
C767 C768 1.414 . S
C767 C770 1.499 . S
C768 H748 0.950 . S
C768 C767 1.414 . S
C768 C769 1.374 . S
C769 H749 0.950 . S
C769 C765 1.385 . S
C769 C768 1.374 . S
C770 C767 1.499 . S
C770 C771 1.373 . S
C770 C772 1.389 . S
C771 H750 0.950 . S
C771 C770 1.373 . S
C771 C787 1.377 . S
C772 C770 1.389 . S
C772 C773 1.524 . S
C772 C786 1.377 . S
C773 C772 1.524 . S
C773 C774 1.397 . S
C773 C778 1.363 . S
C774 H751 0.950 . S
C774 C773 1.397 . S
C774 C775 1.334 . S
C775 H752 0.950 . S
C775 C774 1.334 . S
C775 C776 1.287 . S
C776 C775 1.287 . S
C776 C777 1.524 . S
C776 H795 0.913 . S
C777 H753 0.950 . S
C777 C776 1.524 . S
C777 C778 1.415 . S
C778 H754 0.950 . S
C778 C773 1.363 . S
C778 C777 1.415 . S
C779 H755 0.951 . S
C779 C780 1.366 . S
C779 C781 1.388 . S
C780 C779 1.366 . S
C780 C784 1.385 . S
C781 H756 0.951 . S
C781 C779 1.388 . S
C781 C782 1.366 . S
C782 C781 1.366 . S
C782 C783 1.414 . S
C782 C785 1.499 . S
C783 H757 0.950 . S
C783 C782 1.414 . S
C783 C784 1.374 . S
C784 H758 0.950 . S
C784 C780 1.385 . S
C784 C783 1.374 . S
C785 C782 1.499 . S
C785 C786 1.373 . S
C785 C787 1.389 . S
C786 H759 0.950 . S
C786 C772 1.377 . S
C786 C785 1.373 . S
C787 C771 1.377 . S
C787 C785 1.389 . S
C787 C788 1.524 . S
C788 C787 1.524 . S
C788 C789 1.397 . S
C788 C793 1.363 . S
C789 H760 0.950 . S
C789 C788 1.397 . S
C789 C790 1.334 . S
C790 H761 0.950 . S
C790 C789 1.334 . S
C790 C791 1.287 . S
C791 C790 1.287 . S
C791 C792 1.524 . S
C791 H794 0.999 . S
C792 H762 0.950 . S
C792 C791 1.524 . S
C792 C793 1.415 . S
C793 H763 0.950 . S
C793 C788 1.363 . S
C793 C792 1.415 . S
H794 C791 0.999 . S
H795 C776 0.913 . S
H796 C814 0.951 . S
H797 C816 0.951 . S
H798 C818 0.950 . S
H799 C819 0.950 . S
H800 C821 0.950 . S
H801 C824 0.950 . S
H802 C825 0.950 . S
H803 C827 0.950 . S
H804 C828 0.950 . S
H805 C829 0.951 . S
H806 C831 0.951 . S
H807 C833 0.950 . S
H808 C834 0.950 . S
H809 C836 0.950 . S
H810 C839 0.950 . S
H811 C840 0.950 . S
H812 C842 0.950 . S
H813 C843 0.950 . S
C814 H796 0.951 . S
C814 C815 1.366 . S
C814 C816 1.388 . S
C815 C814 1.366 . S
C815 C819 1.385 . S
C816 H797 0.951 . S
C816 C814 1.388 . S
C816 C817 1.366 . S
C817 C816 1.366 . S
C817 C818 1.414 . S
C817 C820 1.499 . S
C818 H798 0.950 . S
C818 C817 1.414 . S
C818 C819 1.374 . S
C819 H799 0.950 . S
C819 C815 1.385 . S
C819 C818 1.374 . S
C820 C817 1.499 . S
C820 C821 1.373 . S
C820 C822 1.389 . S
C821 H800 0.950 . S
C821 C820 1.373 . S
C821 C837 1.377 . S
C822 C820 1.389 . S
C822 C823 1.524 . S
C822 C836 1.377 . S
C823 C822 1.524 . S
C823 C824 1.397 . S
C823 C828 1.363 . S
C824 H801 0.950 . S
C824 C823 1.397 . S
C824 C825 1.334 . S
C825 H802 0.950 . S
C825 C824 1.334 . S
C825 C826 1.287 . S
C826 C825 1.287 . S
C826 C827 1.524 . S
C826 H845 0.913 . S
C827 H803 0.950 . S
C827 C826 1.524 . S
C827 C828 1.415 . S
C828 H804 0.950 . S
C828 C823 1.363 . S
C828 C827 1.415 . S
C829 H805 0.951 . S
C829 C830 1.366 . S
C829 C831 1.388 . S
C830 C829 1.366 . S
C830 C834 1.385 . S
C831 H806 0.951 . S
C831 C829 1.388 . S
C831 C832 1.366 . S
C832 C831 1.366 . S
C832 C833 1.414 . S
C832 C835 1.499 . S
C833 H807 0.950 . S
C833 C832 1.414 . S
C833 C834 1.374 . S
C834 H808 0.950 . S
C834 C830 1.385 . S
C834 C833 1.374 . S
C835 C832 1.499 . S
C835 C836 1.373 . S
C835 C837 1.389 . S
C836 H809 0.950 . S
C836 C822 1.377 . S
C836 C835 1.373 . S
C837 C821 1.377 . S
C837 C835 1.389 . S
C837 C838 1.524 . S
C838 C837 1.524 . S
C838 C839 1.397 . S
C838 C843 1.363 . S
C839 H810 0.950 . S
C839 C838 1.397 . S
C839 C840 1.334 . S
C840 H811 0.950 . S
C840 C839 1.334 . S
C840 C841 1.287 . S
C841 C840 1.287 . S
C841 C842 1.524 . S
C841 H844 1.005 1_545 S
C842 H812 0.950 . S
C842 C841 1.524 . S
C842 C843 1.415 . S
C843 H813 0.950 . S
C843 C838 1.363 . S
C843 C842 1.415 . S
H844 C841 1.005 1_565 S
H845 C826 0.913 . S
H846 C864 0.951 . S
H847 C866 0.951 . S
H848 C868 0.950 . S
H849 C869 0.950 1_556 S
H850 C871 0.950 . S
H851 C874 0.950 . S
H852 C875 0.950 . S
H853 C877 0.950 . S
H854 C878 0.950 . S
H855 C879 0.951 . S
H856 C881 0.951 . S
H857 C883 0.950 . S
H858 C884 0.950 . S
H859 C886 0.950 . S
H860 C889 0.950 . S
H861 C890 0.950 . S
H862 C892 0.950 . S
H863 C893 0.950 . S
C864 H846 0.951 . S
C864 C865 1.366 . S
C864 C866 1.388 . S
C865 C864 1.366 . S
C865 C869 1.385 . S
C866 H847 0.951 . S
C866 C864 1.388 . S
C866 C867 1.366 . S
C867 C866 1.366 . S
C867 C868 1.414 . S
C867 C870 1.499 . S
C868 H848 0.950 . S
C868 C867 1.414 . S
C868 C869 1.374 . S
C869 H849 0.950 1_554 S
C869 C865 1.385 . S
C869 C868 1.374 . S
C870 C867 1.499 . S
C870 C871 1.373 . S
C870 C872 1.389 . S
C871 H850 0.950 . S
C871 C870 1.373 . S
C871 C887 1.377 . S
C872 C870 1.389 . S
C872 C873 1.524 . S
C872 C886 1.377 . S
C873 C872 1.524 . S
C873 C874 1.397 . S
C873 C878 1.363 . S
C874 H851 0.950 . S
C874 C873 1.397 . S
C874 C875 1.334 . S
C875 H852 0.950 . S
C875 C874 1.334 . S
C875 C876 1.287 . S
C876 C875 1.287 . S
C876 C877 1.524 . S
C876 H895 0.913 . S
C877 H853 0.950 . S
C877 C876 1.524 . S
C877 C878 1.415 . S
C878 H854 0.950 . S
C878 C873 1.363 . S
C878 C877 1.415 . S
C879 H855 0.951 . S
C879 C880 1.366 . S
C879 C881 1.388 . S
C880 C879 1.366 . S
C880 C884 1.385 . S
C881 H856 0.951 . S
C881 C879 1.388 . S
C881 C882 1.366 . S
C882 C881 1.366 . S
C882 C883 1.414 . S
C882 C885 1.499 . S
C883 H857 0.950 . S
C883 C882 1.414 . S
C883 C884 1.374 . S
C884 H858 0.950 . S
C884 C880 1.385 . S
C884 C883 1.374 . S
C885 C882 1.499 . S
C885 C886 1.373 . S
C885 C887 1.389 . S
C886 H859 0.950 . S
C886 C872 1.377 . S
C886 C885 1.373 . S
C887 C871 1.377 . S
C887 C885 1.389 . S
C887 C888 1.524 . S
C888 C887 1.524 . S
C888 C889 1.397 . S
C888 C893 1.363 . S
C889 H860 0.950 . S
C889 C888 1.397 . S
C889 C890 1.334 . S
C890 H861 0.950 . S
C890 C889 1.334 . S
C890 C891 1.287 . S
C891 C890 1.287 . S
C891 C892 1.524 . S
C891 H894 0.999 . S
C892 H862 0.950 . S
C892 C891 1.524 . S
C892 C893 1.415 . S
C893 H863 0.950 . S
C893 C888 1.363 . S
C893 C892 1.415 . S
H894 C891 0.999 . S
H895 C876 0.913 . S
H896 C914 0.951 . S
H897 C916 0.951 . S
H898 C918 0.950 . S
H899 C919 0.950 . S
H900 C921 0.950 . S
H901 C924 0.950 . S
H902 C925 0.950 . S
H903 C927 0.950 1_556 S
H904 C928 0.950 . S
H905 C929 0.951 . S
H906 C931 0.951 . S
H907 C933 0.950 . S
H908 C934 0.950 . S
H909 C936 0.950 . S
H910 C939 0.950 . S
H911 C940 0.950 . S
H912 C942 0.950 . S
H913 C943 0.950 . S
C914 H896 0.951 . S
C914 C915 1.366 . S
C914 C916 1.388 . S
C915 C914 1.366 . S
C915 C919 1.385 . S
C916 H897 0.951 . S
C916 C914 1.388 . S
C916 C917 1.366 . S
C917 C916 1.366 . S
C917 C918 1.414 . S
C917 C920 1.499 . S
C918 H898 0.950 . S
C918 C917 1.414 . S
C918 C919 1.374 . S
C919 H899 0.950 . S
C919 C915 1.385 . S
C919 C918 1.374 . S
C920 C917 1.499 . S
C920 C921 1.373 . S
C920 C922 1.389 . S
C921 H900 0.950 . S
C921 C920 1.373 . S
C921 C937 1.377 . S
C922 C920 1.389 . S
C922 C923 1.524 . S
C922 C936 1.377 . S
C923 C922 1.524 . S
C923 C924 1.397 . S
C923 C928 1.363 . S
C924 H901 0.950 . S
C924 C923 1.397 . S
C924 C925 1.334 . S
C925 H902 0.950 . S
C925 C924 1.334 . S
C925 C926 1.287 . S
C926 C925 1.287 . S
C926 C927 1.524 . S
C926 H945 0.913 1_554 S
C927 H903 0.950 1_554 S
C927 C926 1.524 . S
C927 C928 1.415 . S
C928 H904 0.950 . S
C928 C923 1.363 . S
C928 C927 1.415 . S
C929 H905 0.951 . S
C929 C930 1.366 . S
C929 C931 1.388 . S
C930 C929 1.366 . S
C930 C934 1.385 . S
C931 H906 0.951 . S
C931 C929 1.388 . S
C931 C932 1.366 . S
C932 C931 1.366 . S
C932 C933 1.414 . S
C932 C935 1.499 . S
C933 H907 0.950 . S
C933 C932 1.414 . S
C933 C934 1.374 . S
C934 H908 0.950 . S
C934 C930 1.385 . S
C934 C933 1.374 . S
C935 C932 1.499 . S
C935 C936 1.373 . S
C935 C937 1.389 . S
C936 H909 0.950 . S
C936 C922 1.377 . S
C936 C935 1.373 . S
C937 C921 1.377 . S
C937 C935 1.389 . S
C937 C938 1.524 . S
C938 C937 1.524 . S
C938 C939 1.397 . S
C938 C943 1.363 . S
C939 H910 0.950 . S
C939 C938 1.397 . S
C939 C940 1.334 . S
C940 H911 0.950 . S
C940 C939 1.334 . S
C940 C941 1.287 . S
C941 C940 1.287 . S
C941 C942 1.524 . S
C941 H944 0.999 . S
C942 H912 0.950 . S
C942 C941 1.524 . S
C942 C943 1.415 . S
C943 H913 0.950 . S
C943 C938 1.363 . S
C943 C942 1.415 . S
H944 C941 0.999 . S
H945 C926 0.913 1_556 S
H946 C964 0.951 . S
H947 C966 0.951 . S
H948 C968 0.950 . S
H949 C969 0.950 . S
H950 C971 0.950 . S
H951 C974 0.950 . S
H952 C975 0.950 . S
H953 C977 0.950 . S
H954 C978 0.950 . S
H955 C979 0.951 . S
H956 C981 0.951 . S
H957 C983 0.950 . S
H958 C984 0.950 . S
H959 C986 0.950 . S
H960 C989 0.950 . S
H961 C990 0.950 . S
H962 C992 0.950 1_556 S
H963 C993 0.950 . S
C964 H946 0.951 . S
C964 C965 1.366 . S
C964 C966 1.388 . S
C965 C964 1.366 . S
C965 C969 1.385 . S
C966 H947 0.951 . S
C966 C964 1.388 . S
C966 C967 1.366 . S
C967 C966 1.366 . S
C967 C968 1.414 . S
C967 C970 1.499 . S
C968 H948 0.950 . S
C968 C967 1.414 . S
C968 C969 1.374 . S
C969 H949 0.950 . S
C969 C965 1.385 . S
C969 C968 1.374 . S
C970 C967 1.499 . S
C970 C971 1.373 . S
C970 C972 1.389 . S
C971 H950 0.950 . S
C971 C970 1.373 . S
C971 C987 1.377 . S
C972 C970 1.389 . S
C972 C973 1.524 . S
C972 C986 1.377 . S
C973 C972 1.524 . S
C973 C974 1.397 . S
C973 C978 1.363 . S
C974 H951 0.950 . S
C974 C973 1.397 . S
C974 C975 1.334 . S
C975 H952 0.950 . S
C975 C974 1.334 . S
C975 C976 1.287 . S
C976 C975 1.287 . S
C976 C977 1.524 . S
C976 H995 0.913 . S
C977 H953 0.950 . S
C977 C976 1.524 . S
C977 C978 1.415 . S
C978 H954 0.950 . S
C978 C973 1.363 . S
C978 C977 1.415 . S
C979 H955 0.951 . S
C979 C980 1.366 . S
C979 C981 1.388 . S
C980 C979 1.366 . S
C980 C984 1.385 . S
C981 H956 0.951 . S
C981 C979 1.388 . S
C981 C982 1.366 . S
C982 C981 1.366 . S
C982 C983 1.414 . S
C982 C985 1.499 . S
C983 H957 0.950 . S
C983 C982 1.414 . S
C983 C984 1.374 . S
C984 H958 0.950 . S
C984 C980 1.385 . S
C984 C983 1.374 . S
C985 C982 1.499 . S
C985 C986 1.373 . S
C985 C987 1.389 . S
C986 H959 0.950 . S
C986 C972 1.377 . S
C986 C985 1.373 . S
C987 C971 1.377 . S
C987 C985 1.389 . S
C987 C988 1.524 . S
C988 C987 1.524 . S
C988 C989 1.397 . S
C988 C993 1.363 . S
C989 H960 0.950 . S
C989 C988 1.397 . S
C989 C990 1.334 . S
C990 H961 0.950 . S
C990 C989 1.334 . S
C990 C991 1.287 . S
C991 C990 1.287 . S
C991 C992 1.524 . S
C991 H994 0.999 1_554 S
C992 H962 0.950 1_554 S
C992 C991 1.524 . S
C992 C993 1.415 . S
C993 H963 0.950 . S
C993 C988 1.363 . S
C993 C992 1.415 . S
H994 C991 0.999 1_556 S
H995 C976 0.913 . S
H996 C1014 0.951 . S
H997 C1016 0.951 . S
H998 C1018 0.950 . S
H999 C1019 0.950 . S
H1000 C1021 0.950 . S
H1001 C1024 0.950 . S
H1002 C1025 0.950 . S
H1003 C1027 0.950 . S
H1004 C1028 0.950 . S
H1005 C1029 0.951 1_554 S
H1006 C1031 0.951 . S
H1007 C1033 0.950 . S
H1008 C1034 0.950 . S
H1009 C1036 0.950 . S
H1010 C1039 0.950 . S
H1011 C1040 0.950 . S
H1012 C1042 0.950 1_554 S
H1013 C1043 0.950 . S
C1014 H996 0.951 . S
C1014 C1015 1.366 . S
C1014 C1016 1.388 . S
C1015 C1014 1.366 . S
C1015 C1019 1.385 . S
C1016 H997 0.951 . S
C1016 C1014 1.388 . S
C1016 C1017 1.366 . S
C1017 C1016 1.366 . S
C1017 C1018 1.414 . S
C1017 C1020 1.499 . S
C1018 H998 0.950 . S
C1018 C1017 1.414 . S
C1018 C1019 1.374 . S
C1019 H999 0.950 . S
C1019 C1015 1.385 . S
C1019 C1018 1.374 . S
C1020 C1017 1.499 . S
C1020 C1021 1.373 . S
C1020 C1022 1.389 . S
C1021 H1000 0.950 . S
C1021 C1020 1.373 . S
C1021 C1037 1.377 . S
C1022 C1020 1.389 . S
C1022 C1023 1.524 . S
C1022 C1036 1.377 . S
C1023 C1022 1.524 . S
C1023 C1024 1.397 . S
C1023 C1028 1.363 . S
C1024 H1001 0.950 . S
C1024 C1023 1.397 . S
C1024 C1025 1.334 . S
C1025 H1002 0.950 . S
C1025 C1024 1.334 . S
C1025 C1026 1.287 . S
C1026 C1025 1.287 . S
C1026 C1027 1.524 . S
C1026 H1045 0.913 . S
C1027 H1003 0.950 . S
C1027 C1026 1.524 . S
C1027 C1028 1.415 . S
C1028 H1004 0.950 . S
C1028 C1023 1.363 . S
C1028 C1027 1.415 . S
C1029 H1005 0.951 1_556 S
C1029 C1030 1.366 . S
C1029 C1031 1.388 . S
C1030 C1029 1.366 . S
C1030 C1034 1.385 . S
C1031 H1006 0.951 . S
C1031 C1029 1.388 . S
C1031 C1032 1.366 . S
C1032 C1031 1.366 . S
C1032 C1033 1.414 . S
C1032 C1035 1.499 . S
C1033 H1007 0.950 . S
C1033 C1032 1.414 . S
C1033 C1034 1.374 . S
C1034 H1008 0.950 . S
C1034 C1030 1.385 . S
C1034 C1033 1.374 . S
C1035 C1032 1.499 . S
C1035 C1036 1.373 . S
C1035 C1037 1.389 . S
C1036 H1009 0.950 . S
C1036 C1022 1.377 . S
C1036 C1035 1.373 . S
C1037 C1021 1.377 . S
C1037 C1035 1.389 . S
C1037 C1038 1.524 . S
C1038 C1037 1.524 . S
C1038 C1039 1.397 . S
C1038 C1043 1.363 . S
C1039 H1010 0.950 . S
C1039 C1038 1.397 . S
C1039 C1040 1.334 . S
C1040 H1011 0.950 . S
C1040 C1039 1.334 . S
C1040 C1041 1.287 . S
C1041 C1040 1.287 . S
C1041 C1042 1.524 . S
C1041 H1044 0.999 . S
C1042 H1012 0.950 1_556 S
C1042 C1041 1.524 . S
C1042 C1043 1.415 . S
C1043 H1013 0.950 . S
C1043 C1038 1.363 . S
C1043 C1042 1.415 . S
H1044 C1041 0.999 . S
H1045 C1026 0.913 . S
H1046 C1064 0.951 . S
H1047 C1066 0.951 . S
H1048 C1068 0.950 . S
H1049 C1069 0.950 . S
H1050 C1071 0.950 . S
H1051 C1074 0.950 . S
H1052 C1075 0.950 . S
H1053 C1077 0.950 . S
H1054 C1078 0.950 . S
H1055 C1079 0.951 . S
H1056 C1081 0.951 . S
H1057 C1083 0.950 . S
H1058 C1084 0.950 . S
H1059 C1086 0.950 . S
H1060 C1089 0.950 . S
H1061 C1090 0.950 . S
H1062 C1092 0.950 . S
H1063 C1093 0.950 . S
C1064 H1046 0.951 . S
C1064 C1065 1.366 . S
C1064 C1066 1.388 . S
C1065 C1064 1.366 . S
C1065 C1069 1.385 . S
C1066 H1047 0.951 . S
C1066 C1064 1.388 . S
C1066 C1067 1.366 . S
C1067 C1066 1.366 . S
C1067 C1068 1.414 . S
C1067 C1070 1.499 . S
C1068 H1048 0.950 . S
C1068 C1067 1.414 . S
C1068 C1069 1.374 . S
C1069 H1049 0.950 . S
C1069 C1065 1.385 . S
C1069 C1068 1.374 . S
C1070 C1067 1.499 . S
C1070 C1071 1.373 . S
C1070 C1072 1.389 . S
C1071 H1050 0.950 . S
C1071 C1070 1.373 . S
C1071 C1087 1.377 . S
C1072 C1070 1.389 . S
C1072 C1073 1.524 . S
C1072 C1086 1.377 . S
C1073 C1072 1.524 . S
C1073 C1074 1.397 . S
C1073 C1078 1.363 . S
C1074 H1051 0.950 . S
C1074 C1073 1.397 . S
C1074 C1075 1.334 . S
C1075 H1052 0.950 . S
C1075 C1074 1.334 . S
C1075 C1076 1.287 . S
C1076 C1075 1.287 . S
C1076 C1077 1.524 . S
C1076 H1095 0.913 . S
C1077 H1053 0.950 . S
C1077 C1076 1.524 . S
C1077 C1078 1.415 . S
C1078 H1054 0.950 . S
C1078 C1073 1.363 . S
C1078 C1077 1.415 . S
C1079 H1055 0.951 . S
C1079 C1080 1.366 . S
C1079 C1081 1.388 . S
C1080 C1079 1.366 . S
C1080 C1084 1.385 . S
C1081 H1056 0.951 . S
C1081 C1079 1.388 . S
C1081 C1082 1.366 . S
C1082 C1081 1.366 . S
C1082 C1083 1.414 . S
C1082 C1085 1.499 . S
C1083 H1057 0.950 . S
C1083 C1082 1.414 . S
C1083 C1084 1.374 . S
C1084 H1058 0.950 . S
C1084 C1080 1.385 . S
C1084 C1083 1.374 . S
C1085 C1082 1.499 . S
C1085 C1086 1.373 . S
C1085 C1087 1.389 . S
C1086 H1059 0.950 . S
C1086 C1072 1.377 . S
C1086 C1085 1.373 . S
C1087 C1071 1.377 . S
C1087 C1085 1.389 . S
C1087 C1088 1.524 . S
C1088 C1087 1.524 . S
C1088 C1089 1.397 . S
C1088 C1093 1.363 . S
C1089 H1060 0.950 . S
C1089 C1088 1.397 . S
C1089 C1090 1.334 . S
C1090 H1061 0.950 . S
C1090 C1089 1.334 . S
C1090 C1091 1.287 . S
C1091 C1090 1.287 . S
C1091 C1092 1.524 . S
C1091 H1094 0.999 . S
C1092 H1062 0.950 . S
C1092 C1091 1.524 . S
C1092 C1093 1.415 . S
C1093 H1063 0.950 . S
C1093 C1088 1.363 . S
C1093 C1092 1.415 . S
H1094 C1091 0.999 . S
H1095 C1076 0.913 . S
H1096 C1114 0.951 . S
H1097 C1116 0.951 . S
H1098 C1118 0.950 . S
H1099 C1119 0.950 . S
H1100 C1121 0.950 . S
H1101 C1124 0.950 . S
H1102 C1125 0.950 . S
H1103 C1127 0.950 . S
H1104 C1128 0.950 1_556 S
H1105 C1129 0.951 . S
H1106 C1131 0.951 . S
H1107 C1133 0.950 . S
H1108 C1134 0.950 . S
H1109 C1136 0.950 . S
H1110 C1139 0.950 . S
H1111 C1140 0.950 . S
H1112 C1142 0.950 . S
H1113 C1143 0.950 . S
C1114 H1096 0.951 . S
C1114 C1115 1.366 . S
C1114 C1116 1.388 . S
C1115 C1114 1.366 . S
C1115 C1119 1.385 . S
C1116 H1097 0.951 . S
C1116 C1114 1.388 . S
C1116 C1117 1.366 . S
C1117 C1116 1.366 . S
C1117 C1118 1.414 . S
C1117 C1120 1.499 . S
C1118 H1098 0.950 . S
C1118 C1117 1.414 . S
C1118 C1119 1.374 . S
C1119 H1099 0.950 . S
C1119 C1115 1.385 . S
C1119 C1118 1.374 . S
C1120 C1117 1.499 . S
C1120 C1121 1.373 . S
C1120 C1122 1.389 . S
C1121 H1100 0.950 . S
C1121 C1120 1.373 . S
C1121 C1137 1.377 . S
C1122 C1120 1.389 . S
C1122 C1123 1.524 . S
C1122 C1136 1.377 . S
C1123 C1122 1.524 . S
C1123 C1124 1.397 . S
C1123 C1128 1.363 1_556 S
C1124 H1101 0.950 . S
C1124 C1123 1.397 . S
C1124 C1125 1.334 1_556 S
C1125 H1102 0.950 . S
C1125 C1124 1.334 1_554 S
C1125 C1126 1.287 . S
C1126 C1125 1.287 . S
C1126 C1127 1.524 . S
C1126 H1145 0.913 . S
C1127 H1103 0.950 . S
C1127 C1126 1.524 . S
C1127 C1128 1.415 . S
C1128 H1104 0.950 1_554 S
C1128 C1123 1.363 1_554 S
C1128 C1127 1.415 . S
C1129 H1105 0.951 . S
C1129 C1130 1.366 . S
C1129 C1131 1.388 . S
C1130 C1129 1.366 . S
C1130 C1134 1.385 . S
C1131 H1106 0.951 . S
C1131 C1129 1.388 . S
C1131 C1132 1.366 . S
C1132 C1131 1.366 . S
C1132 C1133 1.414 . S
C1132 C1135 1.499 . S
C1133 H1107 0.950 . S
C1133 C1132 1.414 . S
C1133 C1134 1.374 . S
C1134 H1108 0.950 . S
C1134 C1130 1.385 . S
C1134 C1133 1.374 . S
C1135 C1132 1.499 . S
C1135 C1136 1.373 . S
C1135 C1137 1.389 . S
C1136 H1109 0.950 . S
C1136 C1122 1.377 . S
C1136 C1135 1.373 . S
C1137 C1121 1.377 . S
C1137 C1135 1.389 . S
C1137 C1138 1.524 . S
C1138 C1137 1.524 . S
C1138 C1139 1.397 . S
C1138 C1143 1.363 . S
C1139 H1110 0.950 . S
C1139 C1138 1.397 . S
C1139 C1140 1.334 . S
C1140 H1111 0.950 . S
C1140 C1139 1.334 . S
C1140 C1141 1.287 . S
C1141 C1140 1.287 . S
C1141 C1142 1.524 . S
C1141 H1144 0.999 . S
C1142 H1112 0.950 . S
C1142 C1141 1.524 . S
C1142 C1143 1.415 . S
C1143 H1113 0.950 . S
C1143 C1138 1.363 . S
C1143 C1142 1.415 . S
H1144 C1141 0.999 . S
H1145 C1126 0.913 . S
H1146 C1164 0.951 . S
H1147 C1166 0.951 . S
H1148 C1168 0.950 . S
H1149 C1169 0.950 . S
H1150 C1171 0.950 . S
H1151 C1174 0.950 . S
H1152 C1175 0.950 . S
H1153 C1177 0.950 . S
H1154 C1178 0.950 . S
H1155 C1179 0.951 . S
H1156 C1181 0.951 . S
H1157 C1183 0.950 . S
H1158 C1184 0.950 . S
H1159 C1186 0.950 . S
H1160 C1189 0.950 . S
H1161 C1190 0.950 . S
H1162 C1192 0.950 . S
H1163 C1193 0.950 . S
C1164 H1146 0.951 . S
C1164 C1165 1.366 . S
C1164 C1166 1.388 . S
C1165 C1164 1.366 . S
C1165 C1169 1.385 . S
C1166 H1147 0.951 . S
C1166 C1164 1.388 . S
C1166 C1167 1.366 . S
C1167 C1166 1.366 . S
C1167 C1168 1.414 . S
C1167 C1170 1.499 . S
C1168 H1148 0.950 . S
C1168 C1167 1.414 . S
C1168 C1169 1.374 . S
C1169 H1149 0.950 . S
C1169 C1165 1.385 . S
C1169 C1168 1.374 . S
C1170 C1167 1.499 . S
C1170 C1171 1.373 . S
C1170 C1172 1.389 . S
C1171 H1150 0.950 . S
C1171 C1170 1.373 . S
C1171 C1187 1.377 . S
C1172 C1170 1.389 . S
C1172 C1173 1.524 . S
C1172 C1186 1.377 . S
C1173 C1172 1.524 . S
C1173 C1174 1.397 . S
C1173 C1178 1.363 . S
C1174 H1151 0.950 . S
C1174 C1173 1.397 . S
C1174 C1175 1.334 . S
C1175 H1152 0.950 . S
C1175 C1174 1.334 . S
C1175 C1176 1.287 . S
C1176 C1175 1.287 . S
C1176 C1177 1.524 . S
C1176 H1195 0.913 . S
C1177 H1153 0.950 . S
C1177 C1176 1.524 . S
C1177 C1178 1.415 . S
C1178 H1154 0.950 . S
C1178 C1173 1.363 . S
C1178 C1177 1.415 . S
C1179 H1155 0.951 . S
C1179 C1180 1.366 . S
C1179 C1181 1.388 . S
C1180 C1179 1.366 . S
C1180 C1184 1.385 . S
C1181 H1156 0.951 . S
C1181 C1179 1.388 . S
C1181 C1182 1.366 . S
C1182 C1181 1.366 . S
C1182 C1183 1.414 . S
C1182 C1185 1.499 . S
C1183 H1157 0.950 . S
C1183 C1182 1.414 . S
C1183 C1184 1.374 . S
C1184 H1158 0.950 . S
C1184 C1180 1.385 . S
C1184 C1183 1.374 . S
C1185 C1182 1.499 . S
C1185 C1186 1.373 . S
C1185 C1187 1.389 . S
C1186 H1159 0.950 . S
C1186 C1172 1.377 . S
C1186 C1185 1.373 . S
C1187 C1171 1.377 . S
C1187 C1185 1.389 . S
C1187 C1188 1.524 . S
C1188 C1187 1.524 . S
C1188 C1189 1.397 . S
C1188 C1193 1.363 . S
C1189 H1160 0.950 . S
C1189 C1188 1.397 . S
C1189 C1190 1.334 . S
C1190 H1161 0.950 . S
C1190 C1189 1.334 . S
C1190 C1191 1.287 . S
C1191 C1190 1.287 . S
C1191 C1192 1.524 . S
C1191 H1194 0.999 . S
C1192 H1162 0.950 . S
C1192 C1191 1.524 . S
C1192 C1193 1.415 . S
C1193 H1163 0.950 . S
C1193 C1188 1.363 . S
C1193 C1192 1.415 . S
H1194 C1191 0.999 . S
H1195 C1176 0.913 . S
H1196 C1214 0.951 . S
H1197 C1216 0.951 . S
H1198 C1218 0.950 . S
H1199 C1219 0.950 . S
H1200 C1221 0.950 . S
H1201 C1224 0.950 . S
H1202 C1225 0.950 . S
H1203 C1227 0.950 . S
H1204 C1228 0.950 . S
H1205 C1229 0.951 . S
H1206 C1231 0.951 . S
H1207 C1233 0.950 . S
H1208 C1234 0.950 . S
H1209 C1236 0.950 . S
H1210 C1239 0.950 . S
H1211 C1240 0.950 . S
H1212 C1242 0.950 . S
H1213 C1243 0.950 . S
C1214 H1196 0.951 . S
C1214 C1215 1.366 . S
C1214 C1216 1.388 . S
C1215 C1214 1.366 . S
C1215 C1219 1.385 . S
C1216 H1197 0.951 . S
C1216 C1214 1.388 . S
C1216 C1217 1.366 . S
C1217 C1216 1.366 . S
C1217 C1218 1.414 . S
C1217 C1220 1.499 . S
C1218 H1198 0.950 . S
C1218 C1217 1.414 . S
C1218 C1219 1.374 . S
C1219 H1199 0.950 . S
C1219 C1215 1.385 . S
C1219 C1218 1.374 . S
C1220 C1217 1.499 . S
C1220 C1221 1.373 . S
C1220 C1222 1.389 . S
C1221 H1200 0.950 . S
C1221 C1220 1.373 . S
C1221 C1237 1.377 . S
C1222 C1220 1.389 . S
C1222 C1223 1.524 . S
C1222 C1236 1.377 . S
C1223 C1222 1.524 . S
C1223 C1224 1.397 . S
C1223 C1228 1.363 . S
C1224 H1201 0.950 . S
C1224 C1223 1.397 . S
C1224 C1225 1.334 . S
C1225 H1202 0.950 . S
C1225 C1224 1.334 . S
C1225 C1226 1.287 . S
C1226 C1225 1.287 . S
C1226 C1227 1.524 . S
C1226 H1245 0.913 . S
C1227 H1203 0.950 . S
C1227 C1226 1.524 . S
C1227 C1228 1.415 . S
C1228 H1204 0.950 . S
C1228 C1223 1.363 . S
C1228 C1227 1.415 . S
C1229 H1205 0.951 . S
C1229 C1230 1.366 . S
C1229 C1231 1.388 . S
C1230 C1229 1.366 . S
C1230 C1234 1.385 . S
C1231 H1206 0.951 . S
C1231 C1229 1.388 . S
C1231 C1232 1.366 . S
C1232 C1231 1.366 . S
C1232 C1233 1.414 . S
C1232 C1235 1.499 . S
C1233 H1207 0.950 . S
C1233 C1232 1.414 . S
C1233 C1234 1.374 . S
C1234 H1208 0.950 . S
C1234 C1230 1.385 . S
C1234 C1233 1.374 . S
C1235 C1232 1.499 . S
C1235 C1236 1.373 . S
C1235 C1237 1.389 . S
C1236 H1209 0.950 . S
C1236 C1222 1.377 . S
C1236 C1235 1.373 . S
C1237 C1221 1.377 . S
C1237 C1235 1.389 . S
C1237 C1238 1.524 . S
C1238 C1237 1.524 . S
C1238 C1239 1.397 . S
C1238 C1243 1.363 . S
C1239 H1210 0.950 . S
C1239 C1238 1.397 . S
C1239 C1240 1.334 . S
C1240 H1211 0.950 . S
C1240 C1239 1.334 . S
C1240 C1241 1.287 . S
C1241 C1240 1.287 . S
C1241 C1242 1.524 . S
C1241 H1244 0.999 . S
C1242 H1212 0.950 . S
C1242 C1241 1.524 . S
C1242 C1243 1.415 . S
C1243 H1213 0.950 . S
C1243 C1238 1.363 . S
C1243 C1242 1.415 . S
H1244 C1241 0.999 . S
H1245 C1226 0.913 . S
H1246 C1264 0.951 . S
H1247 C1266 0.951 . S
H1248 C1268 0.950 . S
H1249 C1269 0.950 . S
H1250 C1271 0.950 . S
H1251 C1274 0.950 . S
H1252 C1275 0.950 . S
H1253 C1277 0.950 . S
H1254 C1278 0.950 . S
H1255 C1279 0.951 . S
H1256 C1281 0.951 . S
H1257 C1283 0.950 . S
H1258 C1284 0.950 . S
H1259 C1286 0.950 . S
H1260 C1289 0.950 . S
H1261 C1290 0.950 . S
H1262 C1292 0.950 . S
H1263 C1293 0.950 . S
C1264 H1246 0.951 . S
C1264 C1265 1.366 . S
C1264 C1266 1.388 . S
C1265 C1264 1.366 . S
C1265 C1269 1.385 . S
C1266 H1247 0.951 . S
C1266 C1264 1.388 . S
C1266 C1267 1.366 . S
C1267 C1266 1.366 . S
C1267 C1268 1.414 . S
C1267 C1270 1.499 . S
C1268 H1248 0.950 . S
C1268 C1267 1.414 . S
C1268 C1269 1.374 . S
C1269 H1249 0.950 . S
C1269 C1265 1.385 . S
C1269 C1268 1.374 . S
C1270 C1267 1.499 . S
C1270 C1271 1.373 . S
C1270 C1272 1.389 . S
C1271 H1250 0.950 . S
C1271 C1270 1.373 . S
C1271 C1287 1.377 . S
C1272 C1270 1.389 . S
C1272 C1273 1.524 . S
C1272 C1286 1.377 . S
C1273 C1272 1.524 . S
C1273 C1274 1.397 . S
C1273 C1278 1.363 . S
C1274 H1251 0.950 . S
C1274 C1273 1.397 . S
C1274 C1275 1.334 . S
C1275 H1252 0.950 . S
C1275 C1274 1.334 . S
C1275 C1276 1.287 . S
C1276 C1275 1.287 . S
C1276 C1277 1.524 . S
C1276 H1295 0.913 . S
C1277 H1253 0.950 . S
C1277 C1276 1.524 . S
C1277 C1278 1.415 . S
C1278 H1254 0.950 . S
C1278 C1273 1.363 . S
C1278 C1277 1.415 . S
C1279 H1255 0.951 . S
C1279 C1280 1.366 . S
C1279 C1281 1.388 . S
C1280 C1279 1.366 . S
C1280 C1284 1.385 . S
C1281 H1256 0.951 . S
C1281 C1279 1.388 . S
C1281 C1282 1.366 . S
C1282 C1281 1.366 . S
C1282 C1283 1.414 . S
C1282 C1285 1.499 . S
C1283 H1257 0.950 . S
C1283 C1282 1.414 . S
C1283 C1284 1.374 . S
C1284 H1258 0.950 . S
C1284 C1280 1.385 . S
C1284 C1283 1.374 . S
C1285 C1282 1.499 . S
C1285 C1286 1.373 . S
C1285 C1287 1.389 . S
C1286 H1259 0.950 . S
C1286 C1272 1.377 . S
C1286 C1285 1.373 . S
C1287 C1271 1.377 . S
C1287 C1285 1.389 . S
C1287 C1288 1.524 . S
C1288 C1287 1.524 . S
C1288 C1289 1.397 . S
C1288 C1293 1.363 . S
C1289 H1260 0.950 . S
C1289 C1288 1.397 . S
C1289 C1290 1.334 . S
C1290 H1261 0.950 . S
C1290 C1289 1.334 . S
C1290 C1291 1.287 . S
C1291 C1290 1.287 . S
C1291 C1292 1.524 . S
C1291 H1294 0.999 . S
C1292 H1262 0.950 . S
C1292 C1291 1.524 . S
C1292 C1293 1.415 . S
C1293 H1263 0.950 . S
C1293 C1288 1.363 . S
C1293 C1292 1.415 . S
H1294 C1291 0.999 . S
H1295 C1276 0.913 . S
H1296 C1314 0.951 . S
H1297 C1316 0.951 . S
H1298 C1318 0.950 . S
H1299 C1319 0.950 . S
H1300 C1321 0.950 . S
H1301 C1324 0.950 . S
H1302 C1325 0.950 . S
H1303 C1327 0.950 . S
H1304 C1328 0.950 . S
H1305 C1329 0.951 . S
H1306 C1331 0.951 . S
H1307 C1333 0.950 . S
H1308 C1334 0.950 . S
H1309 C1336 0.950 . S
H1310 C1339 0.950 . S
H1311 C1340 0.950 . S
H1312 C1342 0.950 . S
H1313 C1343 0.950 . S
C1314 H1296 0.951 . S
C1314 C1315 1.366 . S
C1314 C1316 1.388 . S
C1315 C1314 1.366 . S
C1315 C1319 1.385 . S
C1316 H1297 0.951 . S
C1316 C1314 1.388 . S
C1316 C1317 1.366 . S
C1317 C1316 1.366 . S
C1317 C1318 1.414 . S
C1317 C1320 1.499 . S
C1318 H1298 0.950 . S
C1318 C1317 1.414 . S
C1318 C1319 1.374 . S
C1319 H1299 0.950 . S
C1319 C1315 1.385 . S
C1319 C1318 1.374 . S
C1320 C1317 1.499 . S
C1320 C1321 1.373 . S
C1320 C1322 1.389 . S
C1321 H1300 0.950 . S
C1321 C1320 1.373 . S
C1321 C1337 1.377 . S
C1322 C1320 1.389 . S
C1322 C1323 1.524 . S
C1322 C1336 1.377 . S
C1323 C1322 1.524 . S
C1323 C1324 1.397 . S
C1323 C1328 1.363 . S
C1324 H1301 0.950 . S
C1324 C1323 1.397 . S
C1324 C1325 1.334 . S
C1325 H1302 0.950 . S
C1325 C1324 1.334 . S
C1325 C1326 1.287 . S
C1326 C1325 1.287 . S
C1326 C1327 1.524 . S
C1326 H1345 0.913 . S
C1327 H1303 0.950 . S
C1327 C1326 1.524 . S
C1327 C1328 1.415 . S
C1328 H1304 0.950 . S
C1328 C1323 1.363 . S
C1328 C1327 1.415 . S
C1329 H1305 0.951 . S
C1329 C1330 1.366 . S
C1329 C1331 1.388 . S
C1330 C1329 1.366 . S
C1330 C1334 1.385 . S
C1331 H1306 0.951 . S
C1331 C1329 1.388 . S
C1331 C1332 1.366 . S
C1332 C1331 1.366 . S
C1332 C1333 1.414 . S
C1332 C1335 1.499 . S
C1333 H1307 0.950 . S
C1333 C1332 1.414 . S
C1333 C1334 1.374 . S
C1334 H1308 0.950 . S
C1334 C1330 1.385 . S
C1334 C1333 1.374 . S
C1335 C1332 1.499 . S
C1335 C1336 1.373 . S
C1335 C1337 1.389 . S
C1336 H1309 0.950 . S
C1336 C1322 1.377 . S
C1336 C1335 1.373 . S
C1337 C1321 1.377 . S
C1337 C1335 1.389 . S
C1337 C1338 1.524 . S
C1338 C1337 1.524 . S
C1338 C1339 1.397 . S
C1338 C1343 1.363 . S
C1339 H1310 0.950 . S
C1339 C1338 1.397 . S
C1339 C1340 1.334 . S
C1340 H1311 0.950 . S
C1340 C1339 1.334 . S
C1340 C1341 1.287 . S
C1341 C1340 1.287 . S
C1341 C1342 1.524 . S
C1341 H1344 0.999 . S
C1342 H1312 0.950 . S
C1342 C1341 1.524 . S
C1342 C1343 1.415 . S
C1343 H1313 0.950 . S
C1343 C1338 1.363 . S
C1343 C1342 1.415 . S
H1344 C1341 0.999 . S
H1345 C1326 0.913 . S
H1346 C1364 0.951 . S
H1347 C1366 0.951 . S
H1348 C1368 0.950 . S
H1349 C1369 0.950 . S
H1350 C1371 0.950 . S
H1351 C1374 0.950 . S
H1352 C1375 0.950 . S
H1353 C1377 0.950 . S
H1354 C1378 0.950 . S
H1355 C1379 0.951 . S
H1356 C1381 0.951 . S
H1357 C1383 0.950 . S
H1358 C1384 0.950 . S
H1359 C1386 0.950 . S
H1360 C1389 0.950 . S
H1361 C1390 0.950 . S
H1362 C1392 0.950 . S
H1363 C1393 0.950 . S
C1364 H1346 0.951 . S
C1364 C1365 1.366 . S
C1364 C1366 1.388 . S
C1365 C1364 1.366 . S
C1365 C1369 1.385 . S
C1366 H1347 0.951 . S
C1366 C1364 1.388 . S
C1366 C1367 1.366 . S
C1367 C1366 1.366 . S
C1367 C1368 1.414 . S
C1367 C1370 1.499 . S
C1368 H1348 0.950 . S
C1368 C1367 1.414 . S
C1368 C1369 1.374 . S
C1369 H1349 0.950 . S
C1369 C1365 1.385 . S
C1369 C1368 1.374 . S
C1370 C1367 1.499 . S
C1370 C1371 1.373 . S
C1370 C1372 1.389 . S
C1371 H1350 0.950 . S
C1371 C1370 1.373 . S
C1371 C1387 1.377 . S
C1372 C1370 1.389 . S
C1372 C1373 1.524 . S
C1372 C1386 1.377 . S
C1373 C1372 1.524 . S
C1373 C1374 1.397 . S
C1373 C1378 1.363 . S
C1374 H1351 0.950 . S
C1374 C1373 1.397 . S
C1374 C1375 1.334 . S
C1375 H1352 0.950 . S
C1375 C1374 1.334 . S
C1375 C1376 1.287 . S
C1376 C1375 1.287 . S
C1376 C1377 1.524 . S
C1376 H1395 0.913 . S
C1377 H1353 0.950 . S
C1377 C1376 1.524 . S
C1377 C1378 1.415 . S
C1378 H1354 0.950 . S
C1378 C1373 1.363 . S
C1378 C1377 1.415 . S
C1379 H1355 0.951 . S
C1379 C1380 1.366 . S
C1379 C1381 1.388 . S
C1380 C1379 1.366 . S
C1380 C1384 1.385 . S
C1381 H1356 0.951 . S
C1381 C1379 1.388 . S
C1381 C1382 1.366 . S
C1382 C1381 1.366 . S
C1382 C1383 1.414 . S
C1382 C1385 1.499 . S
C1383 H1357 0.950 . S
C1383 C1382 1.414 . S
C1383 C1384 1.374 . S
C1384 H1358 0.950 . S
C1384 C1380 1.385 . S
C1384 C1383 1.374 . S
C1385 C1382 1.499 . S
C1385 C1386 1.373 . S
C1385 C1387 1.389 . S
C1386 H1359 0.950 . S
C1386 C1372 1.377 . S
C1386 C1385 1.373 . S
C1387 C1371 1.377 . S
C1387 C1385 1.389 . S
C1387 C1388 1.524 . S
C1388 C1387 1.524 . S
C1388 C1389 1.397 . S
C1388 C1393 1.363 . S
C1389 H1360 0.950 . S
C1389 C1388 1.397 . S
C1389 C1390 1.334 . S
C1390 H1361 0.950 . S
C1390 C1389 1.334 . S
C1390 C1391 1.287 . S
C1391 C1390 1.287 . S
C1391 C1392 1.524 . S
C1391 H1394 0.999 . S
C1392 H1362 0.950 . S
C1392 C1391 1.524 . S
C1392 C1393 1.415 . S
C1393 H1363 0.950 . S
C1393 C1388 1.363 . S
C1393 C1392 1.415 . S
H1394 C1391 0.999 . S
H1395 C1376 0.913 . S
H1396 C1414 0.951 . S
H1397 C1416 0.951 . S
H1398 C1418 0.950 . S
H1399 C1419 0.950 . S
H1400 C1421 0.950 . S
H1401 C1424 0.950 . S
H1402 C1425 0.950 . S
H1403 C1427 0.950 . S
H1404 C1428 0.950 . S
H1405 C1429 0.951 . S
H1406 C1431 0.951 . S
H1407 C1433 0.950 . S
H1408 C1434 0.950 . S
H1409 C1436 0.950 . S
H1410 C1439 0.950 . S
H1411 C1440 0.950 . S
H1412 C1442 0.950 . S
H1413 C1443 0.950 . S
C1414 H1396 0.951 . S
C1414 C1415 1.366 . S
C1414 C1416 1.388 . S
C1415 C1414 1.366 . S
C1415 C1419 1.385 . S
C1416 H1397 0.951 . S
C1416 C1414 1.388 . S
C1416 C1417 1.366 . S
C1417 C1416 1.366 . S
C1417 C1418 1.414 . S
C1417 C1420 1.499 . S
C1418 H1398 0.950 . S
C1418 C1417 1.414 . S
C1418 C1419 1.374 . S
C1419 H1399 0.950 . S
C1419 C1415 1.385 . S
C1419 C1418 1.374 . S
C1420 C1417 1.499 . S
C1420 C1421 1.373 . S
C1420 C1422 1.389 . S
C1421 H1400 0.950 . S
C1421 C1420 1.373 . S
C1421 C1437 1.377 . S
C1422 C1420 1.389 . S
C1422 C1423 1.524 . S
C1422 C1436 1.377 . S
C1423 C1422 1.524 . S
C1423 C1424 1.397 . S
C1423 C1428 1.363 . S
C1424 H1401 0.950 . S
C1424 C1423 1.397 . S
C1424 C1425 1.334 . S
C1425 H1402 0.950 . S
C1425 C1424 1.334 . S
C1425 C1426 1.287 . S
C1426 C1425 1.287 . S
C1426 C1427 1.524 . S
C1426 H1445 0.913 . S
C1427 H1403 0.950 . S
C1427 C1426 1.524 . S
C1427 C1428 1.415 . S
C1428 H1404 0.950 . S
C1428 C1423 1.363 . S
C1428 C1427 1.415 . S
C1429 H1405 0.951 . S
C1429 C1430 1.366 . S
C1429 C1431 1.388 . S
C1430 C1429 1.366 . S
C1430 C1434 1.385 . S
C1431 H1406 0.951 . S
C1431 C1429 1.388 . S
C1431 C1432 1.366 . S
C1432 C1431 1.366 . S
C1432 C1433 1.414 . S
C1432 C1435 1.499 . S
C1433 H1407 0.950 . S
C1433 C1432 1.414 . S
C1433 C1434 1.374 . S
C1434 H1408 0.950 . S
C1434 C1430 1.385 . S
C1434 C1433 1.374 . S
C1435 C1432 1.499 . S
C1435 C1436 1.373 . S
C1435 C1437 1.389 . S
C1436 H1409 0.950 . S
C1436 C1422 1.377 . S
C1436 C1435 1.373 . S
C1437 C1421 1.377 . S
C1437 C1435 1.389 . S
C1437 C1438 1.524 . S
C1438 C1437 1.524 . S
C1438 C1439 1.397 . S
C1438 C1443 1.363 . S
C1439 H1410 0.950 . S
C1439 C1438 1.397 . S
C1439 C1440 1.334 . S
C1440 H1411 0.950 . S
C1440 C1439 1.334 . S
C1440 C1441 1.287 . S
C1441 C1440 1.287 . S
C1441 C1442 1.524 . S
C1441 H1444 0.999 . S
C1442 H1412 0.950 . S
C1442 C1441 1.524 . S
C1442 C1443 1.415 . S
C1443 H1413 0.950 . S
C1443 C1438 1.363 . S
C1443 C1442 1.415 . S
H1444 C1441 0.999 . S
H1445 C1426 0.913 . S
H1446 C1464 0.951 . S
H1447 C1466 0.951 . S
H1448 C1468 0.950 . S
H1449 C1469 0.950 . S
H1450 C1471 0.950 . S
H1451 C1474 0.950 . S
H1452 C1475 0.950 . S
H1453 C1477 0.950 . S
H1454 C1478 0.950 . S
H1455 C1479 0.951 . S
H1456 C1481 0.951 . S
H1457 C1483 0.950 . S
H1458 C1484 0.950 . S
H1459 C1486 0.950 . S
H1460 C1489 0.950 . S
H1461 C1490 0.950 . S
H1462 C1492 0.950 . S
H1463 C1493 0.950 . S
C1464 H1446 0.951 . S
C1464 C1465 1.366 . S
C1464 C1466 1.388 . S
C1465 C1464 1.366 . S
C1465 C1469 1.385 . S
C1466 H1447 0.951 . S
C1466 C1464 1.388 . S
C1466 C1467 1.366 . S
C1467 C1466 1.366 . S
C1467 C1468 1.414 . S
C1467 C1470 1.499 . S
C1468 H1448 0.950 . S
C1468 C1467 1.414 . S
C1468 C1469 1.374 . S
C1469 H1449 0.950 . S
C1469 C1465 1.385 . S
C1469 C1468 1.374 . S
C1470 C1467 1.499 . S
C1470 C1471 1.373 . S
C1470 C1472 1.389 . S
C1471 H1450 0.950 . S
C1471 C1470 1.373 . S
C1471 C1487 1.377 . S
C1472 C1470 1.389 . S
C1472 C1473 1.524 . S
C1472 C1486 1.377 . S
C1473 C1472 1.524 . S
C1473 C1474 1.397 . S
C1473 C1478 1.363 . S
C1474 H1451 0.950 . S
C1474 C1473 1.397 . S
C1474 C1475 1.334 . S
C1475 H1452 0.950 . S
C1475 C1474 1.334 . S
C1475 C1476 1.287 . S
C1476 C1475 1.287 . S
C1476 C1477 1.524 . S
C1476 H1495 0.913 . S
C1477 H1453 0.950 . S
C1477 C1476 1.524 . S
C1477 C1478 1.415 . S
C1478 H1454 0.950 . S
C1478 C1473 1.363 . S
C1478 C1477 1.415 . S
C1479 H1455 0.951 . S
C1479 C1480 1.366 . S
C1479 C1481 1.388 . S
C1480 C1479 1.366 . S
C1480 C1484 1.385 . S
C1481 H1456 0.951 . S
C1481 C1479 1.388 . S
C1481 C1482 1.366 . S
C1482 C1481 1.366 . S
C1482 C1483 1.414 . S
C1482 C1485 1.499 . S
C1483 H1457 0.950 . S
C1483 C1482 1.414 . S
C1483 C1484 1.374 . S
C1484 H1458 0.950 . S
C1484 C1480 1.385 . S
C1484 C1483 1.374 . S
C1485 C1482 1.499 . S
C1485 C1486 1.373 . S
C1485 C1487 1.389 . S
C1486 H1459 0.950 . S
C1486 C1472 1.377 . S
C1486 C1485 1.373 . S
C1487 C1471 1.377 . S
C1487 C1485 1.389 . S
C1487 C1488 1.524 . S
C1488 C1487 1.524 . S
C1488 C1489 1.397 . S
C1488 C1493 1.363 . S
C1489 H1460 0.950 . S
C1489 C1488 1.397 . S
C1489 C1490 1.334 . S
C1490 H1461 0.950 . S
C1490 C1489 1.334 . S
C1490 C1491 1.287 . S
C1491 C1490 1.287 . S
C1491 C1492 1.524 . S
C1491 H1494 0.999 . S
C1492 H1462 0.950 . S
C1492 C1491 1.524 . S
C1492 C1493 1.415 . S
C1493 H1463 0.950 . S
C1493 C1488 1.363 . S
C1493 C1492 1.415 . S
H1494 C1491 0.999 . S
H1495 C1476 0.913 . S
H1496 C1514 0.951 . S
H1497 C1516 0.951 . S
H1498 C1518 0.950 . S
H1499 C1519 0.950 . S
H1500 C1521 0.950 . S
H1501 C1524 0.950 . S
H1502 C1525 0.950 . S
H1503 C1527 0.950 . S
H1504 C1528 0.950 . S
H1505 C1529 0.951 . S
H1506 C1531 0.951 . S
H1507 C1533 0.950 . S
H1508 C1534 0.950 . S
H1509 C1536 0.950 . S
H1510 C1539 0.950 . S
H1511 C1540 0.950 . S
H1512 C1542 0.950 . S
H1513 C1543 0.950 . S
C1514 H1496 0.951 . S
C1514 C1515 1.366 . S
C1514 C1516 1.388 . S
C1515 C1514 1.366 . S
C1515 C1519 1.385 . S
C1516 H1497 0.951 . S
C1516 C1514 1.388 . S
C1516 C1517 1.366 . S
C1517 C1516 1.366 . S
C1517 C1518 1.414 . S
C1517 C1520 1.499 . S
C1518 H1498 0.950 . S
C1518 C1517 1.414 . S
C1518 C1519 1.374 . S
C1519 H1499 0.950 . S
C1519 C1515 1.385 . S
C1519 C1518 1.374 . S
C1520 C1517 1.499 . S
C1520 C1521 1.373 . S
C1520 C1522 1.389 . S
C1521 H1500 0.950 . S
C1521 C1520 1.373 . S
C1521 C1537 1.377 . S
C1522 C1520 1.389 . S
C1522 C1523 1.524 . S
C1522 C1536 1.377 . S
C1523 C1522 1.524 . S
C1523 C1524 1.397 . S
C1523 C1528 1.363 . S
C1524 H1501 0.950 . S
C1524 C1523 1.397 . S
C1524 C1525 1.334 . S
C1525 H1502 0.950 . S
C1525 C1524 1.334 . S
C1525 C1526 1.287 . S
C1526 C1525 1.287 . S
C1526 C1527 1.524 . S
C1526 H1545 0.913 . S
C1527 H1503 0.950 . S
C1527 C1526 1.524 . S
C1527 C1528 1.415 . S
C1528 H1504 0.950 . S
C1528 C1523 1.363 . S
C1528 C1527 1.415 . S
C1529 H1505 0.951 . S
C1529 C1530 1.366 . S
C1529 C1531 1.388 . S
C1530 C1529 1.366 . S
C1530 C1534 1.385 . S
C1531 H1506 0.951 . S
C1531 C1529 1.388 . S
C1531 C1532 1.366 . S
C1532 C1531 1.366 . S
C1532 C1533 1.414 . S
C1532 C1535 1.499 . S
C1533 H1507 0.950 . S
C1533 C1532 1.414 . S
C1533 C1534 1.374 . S
C1534 H1508 0.950 . S
C1534 C1530 1.385 . S
C1534 C1533 1.374 . S
C1535 C1532 1.499 . S
C1535 C1536 1.373 . S
C1535 C1537 1.389 . S
C1536 H1509 0.950 . S
C1536 C1522 1.377 . S
C1536 C1535 1.373 . S
C1537 C1521 1.377 . S
C1537 C1535 1.389 . S
C1537 C1538 1.524 . S
C1538 C1537 1.524 . S
C1538 C1539 1.397 . S
C1538 C1543 1.363 . S
C1539 H1510 0.950 . S
C1539 C1538 1.397 . S
C1539 C1540 1.334 . S
C1540 H1511 0.950 . S
C1540 C1539 1.334 . S
C1540 C1541 1.287 . S
C1541 C1540 1.287 . S
C1541 C1542 1.524 . S
C1541 H1544 0.999 . S
C1542 H1512 0.950 . S
C1542 C1541 1.524 . S
C1542 C1543 1.415 . S
C1543 H1513 0.950 . S
C1543 C1538 1.363 . S
C1543 C1542 1.415 . S
H1544 C1541 0.999 . S
H1545 C1526 0.913 . S
H1546 C1564 0.951 . S
H1547 C1566 0.951 . S
H1548 C1568 0.950 . S
H1549 C1569 0.950 . S
H1550 C1571 0.950 . S
H1551 C1574 0.950 . S
H1552 C1575 0.950 . S
H1553 C1577 0.950 . S
H1554 C1578 0.950 . S
H1555 C1579 0.951 . S
H1556 C1581 0.951 . S
H1557 C1583 0.950 . S
H1558 C1584 0.950 . S
H1559 C1586 0.950 . S
H1560 C1589 0.950 . S
H1561 C1590 0.950 . S
H1562 C1592 0.950 . S
H1563 C1593 0.950 . S
C1564 H1546 0.951 . S
C1564 C1565 1.366 . S
C1564 C1566 1.388 . S
C1565 C1564 1.366 . S
C1565 C1569 1.385 . S
C1566 H1547 0.951 . S
C1566 C1564 1.388 . S
C1566 C1567 1.366 . S
C1567 C1566 1.366 . S
C1567 C1568 1.414 . S
C1567 C1570 1.499 . S
C1568 H1548 0.950 . S
C1568 C1567 1.414 . S
C1568 C1569 1.374 . S
C1569 H1549 0.950 . S
C1569 C1565 1.385 . S
C1569 C1568 1.374 . S
C1570 C1567 1.499 . S
C1570 C1571 1.373 . S
C1570 C1572 1.389 . S
C1571 H1550 0.950 . S
C1571 C1570 1.373 . S
C1571 C1587 1.377 . S
C1572 C1570 1.389 . S
C1572 C1573 1.524 . S
C1572 C1586 1.377 . S
C1573 C1572 1.524 . S
C1573 C1574 1.397 . S
C1573 C1578 1.363 . S
C1574 H1551 0.950 . S
C1574 C1573 1.397 . S
C1574 C1575 1.334 . S
C1575 H1552 0.950 . S
C1575 C1574 1.334 . S
C1575 C1576 1.287 . S
C1576 C1575 1.287 . S
C1576 C1577 1.524 . S
C1576 H1595 0.913 . S
C1577 H1553 0.950 . S
C1577 C1576 1.524 . S
C1577 C1578 1.415 . S
C1578 H1554 0.950 . S
C1578 C1573 1.363 . S
C1578 C1577 1.415 . S
C1579 H1555 0.951 . S
C1579 C1580 1.366 . S
C1579 C1581 1.388 . S
C1580 C1579 1.366 . S
C1580 C1584 1.385 . S
C1581 H1556 0.951 . S
C1581 C1579 1.388 . S
C1581 C1582 1.366 . S
C1582 C1581 1.366 . S
C1582 C1583 1.414 . S
C1582 C1585 1.499 . S
C1583 H1557 0.950 . S
C1583 C1582 1.414 . S
C1583 C1584 1.374 . S
C1584 H1558 0.950 . S
C1584 C1580 1.385 . S
C1584 C1583 1.374 . S
C1585 C1582 1.499 . S
C1585 C1586 1.373 . S
C1585 C1587 1.389 . S
C1586 H1559 0.950 . S
C1586 C1572 1.377 . S
C1586 C1585 1.373 . S
C1587 C1571 1.377 . S
C1587 C1585 1.389 . S
C1587 C1588 1.524 . S
C1588 C1587 1.524 . S
C1588 C1589 1.397 . S
C1588 C1593 1.363 . S
C1589 H1560 0.950 . S
C1589 C1588 1.397 . S
C1589 C1590 1.334 . S
C1590 H1561 0.950 . S
C1590 C1589 1.334 . S
C1590 C1591 1.287 . S
C1591 C1590 1.287 . S
C1591 C1592 1.524 . S
C1591 H1594 0.999 . S
C1592 H1562 0.950 . S
C1592 C1591 1.524 . S
C1592 C1593 1.415 . S
C1593 H1563 0.950 . S
C1593 C1588 1.363 . S
C1593 C1592 1.415 . S
H1594 C1591 0.999 . S
H1595 C1576 0.913 . S
H1596 C1614 0.951 . S
H1597 C1616 0.951 . S
H1598 C1618 0.950 . S
H1599 C1619 0.950 . S
H1600 C1621 0.950 . S
H1601 C1624 0.950 . S
H1602 C1625 0.950 . S
H1603 C1627 0.950 . S
H1604 C1628 0.950 . S
H1605 C1629 0.951 . S
H1606 C1631 0.951 . S
H1607 C1633 0.950 . S
H1608 C1634 0.950 . S
H1609 C1636 0.950 . S
H1610 C1639 0.950 . S
H1611 C1640 0.950 . S
H1612 C1642 0.950 . S
H1613 C1643 0.950 . S
C1614 H1596 0.951 . S
C1614 C1615 1.366 . S
C1614 C1616 1.388 . S
C1615 C1614 1.366 . S
C1615 C1619 1.385 . S
C1616 H1597 0.951 . S
C1616 C1614 1.388 . S
C1616 C1617 1.366 . S
C1617 C1616 1.366 . S
C1617 C1618 1.414 . S
C1617 C1620 1.499 . S
C1618 H1598 0.950 . S
C1618 C1617 1.414 . S
C1618 C1619 1.374 . S
C1619 H1599 0.950 . S
C1619 C1615 1.385 . S
C1619 C1618 1.374 . S
C1620 C1617 1.499 . S
C1620 C1621 1.373 . S
C1620 C1622 1.389 . S
C1621 H1600 0.950 . S
C1621 C1620 1.373 . S
C1621 C1637 1.377 . S
C1622 C1620 1.389 . S
C1622 C1623 1.524 . S
C1622 C1636 1.377 . S
C1623 C1622 1.524 . S
C1623 C1624 1.397 . S
C1623 C1628 1.363 . S
C1624 H1601 0.950 . S
C1624 C1623 1.397 . S
C1624 C1625 1.334 . S
C1625 H1602 0.950 . S
C1625 C1624 1.334 . S
C1625 C1626 1.287 . S
C1626 C1625 1.287 . S
C1626 C1627 1.524 . S
C1626 H1645 0.913 . S
C1627 H1603 0.950 . S
C1627 C1626 1.524 . S
C1627 C1628 1.415 . S
C1628 H1604 0.950 . S
C1628 C1623 1.363 . S
C1628 C1627 1.415 . S
C1629 H1605 0.951 . S
C1629 C1630 1.366 . S
C1629 C1631 1.388 . S
C1630 C1629 1.366 . S
C1630 C1634 1.385 . S
C1631 H1606 0.951 . S
C1631 C1629 1.388 . S
C1631 C1632 1.366 . S
C1632 C1631 1.366 . S
C1632 C1633 1.414 . S
C1632 C1635 1.499 . S
C1633 H1607 0.950 . S
C1633 C1632 1.414 . S
C1633 C1634 1.374 . S
C1634 H1608 0.950 . S
C1634 C1630 1.385 . S
C1634 C1633 1.374 . S
C1635 C1632 1.499 . S
C1635 C1636 1.373 . S
C1635 C1637 1.389 . S
C1636 H1609 0.950 . S
C1636 C1622 1.377 . S
C1636 C1635 1.373 . S
C1637 C1621 1.377 . S
C1637 C1635 1.389 . S
C1637 C1638 1.524 . S
C1638 C1637 1.524 . S
C1638 C1639 1.397 . S
C1638 C1643 1.363 . S
C1639 H1610 0.950 . S
C1639 C1638 1.397 . S
C1639 C1640 1.334 . S
C1640 H1611 0.950 . S
C1640 C1639 1.334 . S
C1640 C1641 1.287 . S
C1641 C1640 1.287 . S
C1641 C1642 1.524 . S
C1641 H1644 0.999 . S
C1642 H1612 0.950 . S
C1642 C1641 1.524 . S
C1642 C1643 1.415 . S
C1643 H1613 0.950 . S
C1643 C1638 1.363 . S
C1643 C1642 1.415 . S
H1644 C1641 0.999 . S
H1645 C1626 0.913 . S
H1646 C1664 0.951 . S
H1647 C1666 0.951 . S
H1648 C1668 0.950 . S
H1649 C1669 0.950 . S
H1650 C1671 0.950 . S
H1651 C1674 0.950 . S
H1652 C1675 0.950 . S
H1653 C1677 0.950 . S
H1654 C1678 0.950 . S
H1655 C1679 0.951 . S
H1656 C1681 0.951 . S
H1657 C1683 0.950 . S
H1658 C1684 0.950 . S
H1659 C1686 0.950 . S
H1660 C1689 0.950 . S
H1661 C1690 0.950 . S
H1662 C1692 0.950 . S
H1663 C1693 0.950 . S
C1664 H1646 0.951 . S
C1664 C1665 1.366 . S
C1664 C1666 1.388 . S
C1665 C1664 1.366 . S
C1665 C1669 1.385 . S
C1666 H1647 0.951 . S
C1666 C1664 1.388 . S
C1666 C1667 1.366 . S
C1667 C1666 1.366 . S
C1667 C1668 1.414 . S
C1667 C1670 1.499 . S
C1668 H1648 0.950 . S
C1668 C1667 1.414 . S
C1668 C1669 1.374 . S
C1669 H1649 0.950 . S
C1669 C1665 1.385 . S
C1669 C1668 1.374 . S
C1670 C1667 1.499 . S
C1670 C1671 1.373 . S
C1670 C1672 1.389 . S
C1671 H1650 0.950 . S
C1671 C1670 1.373 . S
C1671 C1687 1.377 . S
C1672 C1670 1.389 . S
C1672 C1673 1.524 . S
C1672 C1686 1.377 . S
C1673 C1672 1.524 . S
C1673 C1674 1.397 . S
C1673 C1678 1.363 . S
C1674 H1651 0.950 . S
C1674 C1673 1.397 . S
C1674 C1675 1.334 . S
C1675 H1652 0.950 . S
C1675 C1674 1.334 . S
C1675 C1676 1.287 . S
C1676 C1675 1.287 . S
C1676 C1677 1.524 . S
C1676 H1695 0.913 . S
C1677 H1653 0.950 . S
C1677 C1676 1.524 . S
C1677 C1678 1.415 . S
C1678 H1654 0.950 . S
C1678 C1673 1.363 . S
C1678 C1677 1.415 . S
C1679 H1655 0.951 . S
C1679 C1680 1.366 . S
C1679 C1681 1.388 . S
C1680 C1679 1.366 . S
C1680 C1684 1.385 . S
C1681 H1656 0.951 . S
C1681 C1679 1.388 . S
C1681 C1682 1.366 . S
C1682 C1681 1.366 . S
C1682 C1683 1.414 . S
C1682 C1685 1.499 . S
C1683 H1657 0.950 . S
C1683 C1682 1.414 . S
C1683 C1684 1.374 . S
C1684 H1658 0.950 . S
C1684 C1680 1.385 . S
C1684 C1683 1.374 . S
C1685 C1682 1.499 . S
C1685 C1686 1.373 . S
C1685 C1687 1.389 . S
C1686 H1659 0.950 . S
C1686 C1672 1.377 . S
C1686 C1685 1.373 . S
C1687 C1671 1.377 . S
C1687 C1685 1.389 . S
C1687 C1688 1.524 . S
C1688 C1687 1.524 . S
C1688 C1689 1.397 . S
C1688 C1693 1.363 . S
C1689 H1660 0.950 . S
C1689 C1688 1.397 . S
C1689 C1690 1.334 . S
C1690 H1661 0.950 . S
C1690 C1689 1.334 . S
C1690 C1691 1.287 . S
C1691 C1690 1.287 . S
C1691 C1692 1.524 . S
C1691 H1694 0.999 . S
C1692 H1662 0.950 . S
C1692 C1691 1.524 . S
C1692 C1693 1.415 . S
C1693 H1663 0.950 . S
C1693 C1688 1.363 . S
C1693 C1692 1.415 . S
H1694 C1691 0.999 . S
H1695 C1676 0.913 . S
H1696 C1714 0.951 . S
H1697 C1716 0.951 . S
H1698 C1718 0.950 . S
H1699 C1719 0.950 . S
H1700 C1721 0.950 . S
H1701 C1724 0.950 . S
H1702 C1725 0.950 . S
H1703 C1727 0.950 . S
H1704 C1728 0.950 . S
H1705 C1729 0.951 . S
H1706 C1731 0.951 . S
H1707 C1733 0.950 . S
H1708 C1734 0.950 . S
H1709 C1736 0.950 . S
H1710 C1739 0.950 . S
H1711 C1740 0.950 . S
H1712 C1742 0.950 . S
H1713 C1743 0.950 . S
C1714 H1696 0.951 . S
C1714 C1715 1.366 . S
C1714 C1716 1.388 . S
C1715 C1714 1.366 . S
C1715 C1719 1.385 . S
C1716 H1697 0.951 . S
C1716 C1714 1.388 . S
C1716 C1717 1.366 . S
C1717 C1716 1.366 . S
C1717 C1718 1.414 . S
C1717 C1720 1.499 . S
C1718 H1698 0.950 . S
C1718 C1717 1.414 . S
C1718 C1719 1.374 . S
C1719 H1699 0.950 . S
C1719 C1715 1.385 . S
C1719 C1718 1.374 . S
C1720 C1717 1.499 . S
C1720 C1721 1.373 . S
C1720 C1722 1.389 . S
C1721 H1700 0.950 . S
C1721 C1720 1.373 . S
C1721 C1737 1.377 . S
C1722 C1720 1.389 . S
C1722 C1723 1.524 . S
C1722 C1736 1.377 . S
C1723 C1722 1.524 . S
C1723 C1724 1.397 . S
C1723 C1728 1.363 . S
C1724 H1701 0.950 . S
C1724 C1723 1.397 . S
C1724 C1725 1.334 . S
C1725 H1702 0.950 . S
C1725 C1724 1.334 . S
C1725 C1726 1.287 . S
C1726 C1725 1.287 . S
C1726 C1727 1.524 . S
C1726 H1745 0.913 . S
C1727 H1703 0.950 . S
C1727 C1726 1.524 . S
C1727 C1728 1.415 . S
C1728 H1704 0.950 . S
C1728 C1723 1.363 . S
C1728 C1727 1.415 . S
C1729 H1705 0.951 . S
C1729 C1730 1.366 . S
C1729 C1731 1.388 . S
C1730 C1729 1.366 . S
C1730 C1734 1.385 . S
C1731 H1706 0.951 . S
C1731 C1729 1.388 . S
C1731 C1732 1.366 . S
C1732 C1731 1.366 . S
C1732 C1733 1.414 . S
C1732 C1735 1.499 . S
C1733 H1707 0.950 . S
C1733 C1732 1.414 . S
C1733 C1734 1.374 . S
C1734 H1708 0.950 . S
C1734 C1730 1.385 . S
C1734 C1733 1.374 . S
C1735 C1732 1.499 . S
C1735 C1736 1.373 . S
C1735 C1737 1.389 . S
C1736 H1709 0.950 . S
C1736 C1722 1.377 . S
C1736 C1735 1.373 . S
C1737 C1721 1.377 . S
C1737 C1735 1.389 . S
C1737 C1738 1.524 . S
C1738 C1737 1.524 . S
C1738 C1739 1.397 . S
C1738 C1743 1.363 . S
C1739 H1710 0.950 . S
C1739 C1738 1.397 . S
C1739 C1740 1.334 . S
C1740 H1711 0.950 . S
C1740 C1739 1.334 . S
C1740 C1741 1.287 . S
C1741 C1740 1.287 . S
C1741 C1742 1.524 . S
C1741 H1744 0.999 . S
C1742 H1712 0.950 . S
C1742 C1741 1.524 . S
C1742 C1743 1.415 . S
C1743 H1713 0.950 . S
C1743 C1738 1.363 . S
C1743 C1742 1.415 . S
H1744 C1741 0.999 . S
H1745 C1726 0.913 . S
H1746 C1764 0.951 . S
H1747 C1766 0.951 . S
H1748 C1768 0.950 . S
H1749 C1769 0.950 . S
H1750 C1771 0.950 . S
H1751 C1774 0.950 . S
H1752 C1775 0.950 . S
H1753 C1777 0.950 . S
H1754 C1778 0.950 . S
H1755 C1779 0.951 . S
H1756 C1781 0.951 . S
H1757 C1783 0.950 . S
H1758 C1784 0.950 . S
H1759 C1786 0.950 . S
H1760 C1789 0.950 . S
H1761 C1790 0.950 . S
H1762 C1792 0.950 . S
H1763 C1793 0.950 . S
C1764 H1746 0.951 . S
C1764 C1765 1.366 . S
C1764 C1766 1.388 . S
C1765 C1764 1.366 . S
C1765 C1769 1.385 . S
C1766 H1747 0.951 . S
C1766 C1764 1.388 . S
C1766 C1767 1.366 . S
C1767 C1766 1.366 . S
C1767 C1768 1.414 . S
C1767 C1770 1.499 . S
C1768 H1748 0.950 . S
C1768 C1767 1.414 . S
C1768 C1769 1.374 . S
C1769 H1749 0.950 . S
C1769 C1765 1.385 . S
C1769 C1768 1.374 . S
C1770 C1767 1.499 . S
C1770 C1771 1.373 . S
C1770 C1772 1.389 . S
C1771 H1750 0.950 . S
C1771 C1770 1.373 . S
C1771 C1787 1.377 . S
C1772 C1770 1.389 . S
C1772 C1773 1.524 . S
C1772 C1786 1.377 . S
C1773 C1772 1.524 . S
C1773 C1774 1.397 . S
C1773 C1778 1.363 . S
C1774 H1751 0.950 . S
C1774 C1773 1.397 . S
C1774 C1775 1.334 . S
C1775 H1752 0.950 . S
C1775 C1774 1.334 . S
C1775 C1776 1.287 . S
C1776 C1775 1.287 . S
C1776 C1777 1.524 . S
C1776 H1795 0.913 . S
C1777 H1753 0.950 . S
C1777 C1776 1.524 . S
C1777 C1778 1.415 . S
C1778 H1754 0.950 . S
C1778 C1773 1.363 . S
C1778 C1777 1.415 . S
C1779 H1755 0.951 . S
C1779 C1780 1.366 . S
C1779 C1781 1.388 . S
C1780 C1779 1.366 . S
C1780 C1784 1.385 . S
C1781 H1756 0.951 . S
C1781 C1779 1.388 . S
C1781 C1782 1.366 . S
C1782 C1781 1.366 . S
C1782 C1783 1.414 . S
C1782 C1785 1.499 . S
C1783 H1757 0.950 . S
C1783 C1782 1.414 . S
C1783 C1784 1.374 . S
C1784 H1758 0.950 . S
C1784 C1780 1.385 . S
C1784 C1783 1.374 . S
C1785 C1782 1.499 . S
C1785 C1786 1.373 . S
C1785 C1787 1.389 . S
C1786 H1759 0.950 . S
C1786 C1772 1.377 . S
C1786 C1785 1.373 . S
C1787 C1771 1.377 . S
C1787 C1785 1.389 . S
C1787 C1788 1.524 . S
C1788 C1787 1.524 . S
C1788 C1789 1.397 . S
C1788 C1793 1.363 . S
C1789 H1760 0.950 . S
C1789 C1788 1.397 . S
C1789 C1790 1.334 . S
C1790 H1761 0.950 . S
C1790 C1789 1.334 . S
C1790 C1791 1.287 . S
C1791 C1790 1.287 . S
C1791 C1792 1.524 . S
C1791 H1794 0.999 . S
C1792 H1762 0.950 . S
C1792 C1791 1.524 . S
C1792 C1793 1.415 . S
C1793 H1763 0.950 . S
C1793 C1788 1.363 . S
C1793 C1792 1.415 . S
H1794 C1791 0.999 . S
H1795 C1776 0.913 . S
H1796 C1814 0.951 . S
H1797 C1816 0.951 . S
H1798 C1818 0.950 . S
H1799 C1819 0.950 . S
H1800 C1821 0.950 . S
H1801 C1824 0.950 . S
H1802 C1825 0.950 . S
H1803 C1827 0.950 . S
H1804 C1828 0.950 . S
H1805 C1829 0.951 . S
H1806 C1831 0.951 . S
H1807 C1833 0.950 . S
H1808 C1834 0.950 . S
H1809 C1836 0.950 . S
H1810 C1839 0.950 . S
H1811 C1840 0.950 . S
H1812 C1842 0.950 . S
H1813 C1843 0.950 . S
C1814 H1796 0.951 . S
C1814 C1815 1.366 . S
C1814 C1816 1.388 . S
C1815 C1814 1.366 . S
C1815 C1819 1.385 . S
C1816 H1797 0.951 . S
C1816 C1814 1.388 . S
C1816 C1817 1.366 . S
C1817 C1816 1.366 . S
C1817 C1818 1.414 . S
C1817 C1820 1.499 . S
C1818 H1798 0.950 . S
C1818 C1817 1.414 . S
C1818 C1819 1.374 . S
C1819 H1799 0.950 . S
C1819 C1815 1.385 . S
C1819 C1818 1.374 . S
C1820 C1817 1.499 . S
C1820 C1821 1.373 . S
C1820 C1822 1.389 . S
C1821 H1800 0.950 . S
C1821 C1820 1.373 . S
C1821 C1837 1.377 . S
C1822 C1820 1.389 . S
C1822 C1823 1.524 . S
C1822 C1836 1.377 . S
C1823 C1822 1.524 . S
C1823 C1824 1.397 . S
C1823 C1828 1.363 . S
C1824 H1801 0.950 . S
C1824 C1823 1.397 . S
C1824 C1825 1.334 . S
C1825 H1802 0.950 . S
C1825 C1824 1.334 . S
C1825 C1826 1.287 . S
C1826 C1825 1.287 . S
C1826 C1827 1.524 . S
C1826 H1845 0.913 . S
C1827 H1803 0.950 . S
C1827 C1826 1.524 . S
C1827 C1828 1.415 . S
C1828 H1804 0.950 . S
C1828 C1823 1.363 . S
C1828 C1827 1.415 . S
C1829 H1805 0.951 . S
C1829 C1830 1.366 . S
C1829 C1831 1.388 . S
C1830 C1829 1.366 . S
C1830 C1834 1.385 . S
C1831 H1806 0.951 . S
C1831 C1829 1.388 . S
C1831 C1832 1.366 . S
C1832 C1831 1.366 . S
C1832 C1833 1.414 . S
C1832 C1835 1.499 . S
C1833 H1807 0.950 . S
C1833 C1832 1.414 . S
C1833 C1834 1.374 . S
C1834 H1808 0.950 . S
C1834 C1830 1.385 . S
C1834 C1833 1.374 . S
C1835 C1832 1.499 . S
C1835 C1836 1.373 . S
C1835 C1837 1.389 . S
C1836 H1809 0.950 . S
C1836 C1822 1.377 . S
C1836 C1835 1.373 . S
C1837 C1821 1.377 . S
C1837 C1835 1.389 . S
C1837 C1838 1.524 . S
C1838 C1837 1.524 . S
C1838 C1839 1.397 . S
C1838 C1843 1.363 . S
C1839 H1810 0.950 . S
C1839 C1838 1.397 . S
C1839 C1840 1.334 . S
C1840 H1811 0.950 . S
C1840 C1839 1.334 . S
C1840 C1841 1.287 . S
C1841 C1840 1.287 . S
C1841 C1842 1.524 . S
C1841 H1844 0.999 . S
C1842 H1812 0.950 . S
C1842 C1841 1.524 . S
C1842 C1843 1.415 . S
C1843 H1813 0.950 . S
C1843 C1838 1.363 . S
C1843 C1842 1.415 . S
H1844 C1841 0.999 . S
H1845 C1826 0.913 . S
H1846 C1864 0.951 . S
H1847 C1866 0.951 . S
H1848 C1868 0.950 . S
H1849 C1869 0.950 . S
H1850 C1871 0.950 . S
H1851 C1874 0.950 . S
H1852 C1875 0.950 . S
H1853 C1877 0.950 . S
H1854 C1878 0.950 . S
H1855 C1879 0.951 . S
H1856 C1881 0.951 . S
H1857 C1883 0.950 . S
H1858 C1884 0.950 . S
H1859 C1886 0.950 . S
H1860 C1889 0.950 . S
H1861 C1890 0.950 . S
H1862 C1892 0.950 . S
H1863 C1893 0.950 . S
C1864 H1846 0.951 . S
C1864 C1865 1.366 . S
C1864 C1866 1.388 . S
C1865 C1864 1.366 . S
C1865 C1869 1.385 . S
C1866 H1847 0.951 . S
C1866 C1864 1.388 . S
C1866 C1867 1.366 . S
C1867 C1866 1.366 . S
C1867 C1868 1.414 . S
C1867 C1870 1.499 . S
C1868 H1848 0.950 . S
C1868 C1867 1.414 . S
C1868 C1869 1.374 . S
C1869 H1849 0.950 . S
C1869 C1865 1.385 . S
C1869 C1868 1.374 . S
C1870 C1867 1.499 . S
C1870 C1871 1.373 . S
C1870 C1872 1.389 . S
C1871 H1850 0.950 . S
C1871 C1870 1.373 . S
C1871 C1887 1.377 . S
C1872 C1870 1.389 . S
C1872 C1873 1.524 . S
C1872 C1886 1.377 . S
C1873 C1872 1.524 . S
C1873 C1874 1.397 . S
C1873 C1878 1.363 . S
C1874 H1851 0.950 . S
C1874 C1873 1.397 . S
C1874 C1875 1.334 . S
C1875 H1852 0.950 . S
C1875 C1874 1.334 . S
C1875 C1876 1.287 . S
C1876 C1875 1.287 . S
C1876 C1877 1.524 . S
C1876 H1895 0.913 . S
C1877 H1853 0.950 . S
C1877 C1876 1.524 . S
C1877 C1878 1.415 . S
C1878 H1854 0.950 . S
C1878 C1873 1.363 . S
C1878 C1877 1.415 . S
C1879 H1855 0.951 . S
C1879 C1880 1.366 . S
C1879 C1881 1.388 . S
C1880 C1879 1.366 . S
C1880 C1884 1.385 . S
C1881 H1856 0.951 . S
C1881 C1879 1.388 . S
C1881 C1882 1.366 . S
C1882 C1881 1.366 . S
C1882 C1883 1.414 . S
C1882 C1885 1.499 . S
C1883 H1857 0.950 . S
C1883 C1882 1.414 . S
C1883 C1884 1.374 . S
C1884 H1858 0.950 . S
C1884 C1880 1.385 . S
C1884 C1883 1.374 . S
C1885 C1882 1.499 . S
C1885 C1886 1.373 . S
C1885 C1887 1.389 . S
C1886 H1859 0.950 . S
C1886 C1872 1.377 . S
C1886 C1885 1.373 . S
C1887 C1871 1.377 . S
C1887 C1885 1.389 . S
C1887 C1888 1.524 . S
C1888 C1887 1.524 . S
C1888 C1889 1.397 . S
C1888 C1893 1.363 . S
C1889 H1860 0.950 . S
C1889 C1888 1.397 . S
C1889 C1890 1.334 . S
C1890 H1861 0.950 . S
C1890 C1889 1.334 . S
C1890 C1891 1.287 . S
C1891 C1890 1.287 . S
C1891 C1892 1.524 . S
C1891 H1894 0.999 . S
C1892 H1862 0.950 . S
C1892 C1891 1.524 . S
C1892 C1893 1.415 . S
C1893 H1863 0.950 . S
C1893 C1888 1.363 . S
C1893 C1892 1.415 . S
H1894 C1891 0.999 . S
H1895 C1876 0.913 . S
H1896 C1914 0.951 . S
H1897 C1916 0.951 . S
H1898 C1918 0.950 . S
H1899 C1919 0.950 . S
H1900 C1921 0.950 . S
H1901 C1924 0.950 . S
H1902 C1925 0.950 . S
H1903 C1927 0.950 . S
H1904 C1928 0.950 . S
H1905 C1929 0.951 . S
H1906 C1931 0.951 . S
H1907 C1933 0.950 . S
H1908 C1934 0.950 . S
H1909 C1936 0.950 . S
H1910 C1939 0.950 . S
H1911 C1940 0.950 . S
H1912 C1942 0.950 . S
H1913 C1943 0.950 . S
C1914 H1896 0.951 . S
C1914 C1915 1.366 1_655 S
C1914 C1916 1.388 . S
C1915 C1914 1.366 1_455 S
C1915 C1919 1.385 . S
C1916 H1897 0.951 . S
C1916 C1914 1.388 . S
C1916 C1917 1.366 1_655 S
C1917 C1916 1.366 1_455 S
C1917 C1918 1.414 . S
C1917 C1920 1.499 . S
C1918 H1898 0.950 . S
C1918 C1917 1.414 . S
C1918 C1919 1.374 . S
C1919 H1899 0.950 . S
C1919 C1915 1.385 . S
C1919 C1918 1.374 . S
C1920 C1917 1.499 . S
C1920 C1921 1.373 . S
C1920 C1922 1.389 1_455 S
C1921 H1900 0.950 . S
C1921 C1920 1.373 . S
C1921 C1937 1.377 . S
C1922 C1920 1.389 1_655 S
C1922 C1923 1.524 . S
C1922 C1936 1.377 . S
C1923 C1922 1.524 . S
C1923 C1924 1.397 . S
C1923 C1928 1.363 . S
C1924 H1901 0.950 . S
C1924 C1923 1.397 . S
C1924 C1925 1.334 . S
C1925 H1902 0.950 . S
C1925 C1924 1.334 . S
C1925 C1926 1.287 . S
C1926 C1925 1.287 . S
C1926 C1927 1.524 . S
C1926 H1945 0.913 . S
C1927 H1903 0.950 . S
C1927 C1926 1.524 . S
C1927 C1928 1.415 . S
C1928 H1904 0.950 . S
C1928 C1923 1.363 . S
C1928 C1927 1.415 . S
C1929 H1905 0.951 . S
C1929 C1930 1.366 1_455 S
C1929 C1931 1.388 . S
C1930 C1929 1.366 1_655 S
C1930 C1934 1.385 . S
C1931 H1906 0.951 . S
C1931 C1929 1.388 . S
C1931 C1932 1.366 1_455 S
C1932 C1931 1.366 1_655 S
C1932 C1933 1.414 . S
C1932 C1935 1.499 . S
C1933 H1907 0.950 . S
C1933 C1932 1.414 . S
C1933 C1934 1.374 . S
C1934 H1908 0.950 . S
C1934 C1930 1.385 . S
C1934 C1933 1.374 . S
C1935 C1932 1.499 . S
C1935 C1936 1.373 . S
C1935 C1937 1.389 1_655 S
C1936 H1909 0.950 . S
C1936 C1922 1.377 . S
C1936 C1935 1.373 . S
C1937 C1921 1.377 . S
C1937 C1935 1.389 1_455 S
C1937 C1938 1.524 . S
C1938 C1937 1.524 . S
C1938 C1939 1.397 . S
C1938 C1943 1.363 . S
C1939 H1910 0.950 . S
C1939 C1938 1.397 . S
C1939 C1940 1.334 . S
C1940 H1911 0.950 . S
C1940 C1939 1.334 . S
C1940 C1941 1.287 . S
C1941 C1940 1.287 . S
C1941 C1942 1.524 . S
C1941 H1944 0.999 . S
C1942 H1912 0.950 . S
C1942 C1941 1.524 . S
C1942 C1943 1.415 . S
C1943 H1913 0.950 . S
C1943 C1938 1.363 . S
C1943 C1942 1.415 . S
H1944 C1941 0.999 . S
H1945 C1926 0.913 . S
H1946 C1964 0.951 . S
H1947 C1966 0.951 . S
H1948 C1968 0.950 . S
H1949 C1969 0.950 . S
H1950 C1971 0.950 . S
H1951 C1974 0.950 . S
H1952 C1975 0.950 . S
H1953 C1977 0.950 . S
H1954 C1978 0.950 . S
H1955 C1979 0.951 . S
H1956 C1981 0.951 . S
H1957 C1983 0.950 . S
H1958 C1984 0.950 . S
H1959 C1986 0.950 . S
H1960 C1989 0.950 . S
H1961 C1990 0.950 . S
H1962 C1992 0.950 . S
H1963 C1993 0.950 . S
C1964 H1946 0.951 . S
C1964 C1965 1.366 . S
C1964 C1966 1.388 . S
C1965 C1964 1.366 . S
C1965 C1969 1.385 . S
C1966 H1947 0.951 . S
C1966 C1964 1.388 . S
C1966 C1967 1.366 . S
C1967 C1966 1.366 . S
C1967 C1968 1.414 . S
C1967 C1970 1.499 . S
C1968 H1948 0.950 . S
C1968 C1967 1.414 . S
C1968 C1969 1.374 . S
C1969 H1949 0.950 . S
C1969 C1965 1.385 . S
C1969 C1968 1.374 . S
C1970 C1967 1.499 . S
C1970 C1971 1.373 . S
C1970 C1972 1.389 . S
C1971 H1950 0.950 . S
C1971 C1970 1.373 . S
C1971 C1987 1.377 . S
C1972 C1970 1.389 . S
C1972 C1973 1.524 . S
C1972 C1986 1.377 . S
C1973 C1972 1.524 . S
C1973 C1974 1.397 . S
C1973 C1978 1.363 . S
C1974 H1951 0.950 . S
C1974 C1973 1.397 . S
C1974 C1975 1.334 . S
C1975 H1952 0.950 . S
C1975 C1974 1.334 . S
C1975 C1976 1.287 . S
C1976 C1975 1.287 . S
C1976 C1977 1.524 . S
C1976 H1995 0.913 . S
C1977 H1953 0.950 . S
C1977 C1976 1.524 . S
C1977 C1978 1.415 . S
C1978 H1954 0.950 . S
C1978 C1973 1.363 . S
C1978 C1977 1.415 . S
C1979 H1955 0.951 . S
C1979 C1980 1.366 . S
C1979 C1981 1.388 . S
C1980 C1979 1.366 . S
C1980 C1984 1.385 . S
C1981 H1956 0.951 . S
C1981 C1979 1.388 . S
C1981 C1982 1.366 . S
C1982 C1981 1.366 . S
C1982 C1983 1.414 . S
C1982 C1985 1.499 . S
C1983 H1957 0.950 . S
C1983 C1982 1.414 . S
C1983 C1984 1.374 . S
C1984 H1958 0.950 . S
C1984 C1980 1.385 . S
C1984 C1983 1.374 . S
C1985 C1982 1.499 . S
C1985 C1986 1.373 . S
C1985 C1987 1.389 . S
C1986 H1959 0.950 . S
C1986 C1972 1.377 . S
C1986 C1985 1.373 . S
C1987 C1971 1.377 . S
C1987 C1985 1.389 . S
C1987 C1988 1.524 . S
C1988 C1987 1.524 . S
C1988 C1989 1.397 . S
C1988 C1993 1.363 . S
C1989 H1960 0.950 . S
C1989 C1988 1.397 . S
C1989 C1990 1.334 . S
C1990 H1961 0.950 . S
C1990 C1989 1.334 . S
C1990 C1991 1.287 . S
C1991 C1990 1.287 . S
C1991 C1992 1.524 . S
C1991 H1994 0.999 . S
C1992 H1962 0.950 . S
C1992 C1991 1.524 . S
C1992 C1993 1.415 . S
C1993 H1963 0.950 . S
C1993 C1988 1.363 . S
C1993 C1992 1.415 . S
H1994 C1991 0.999 . S
H1995 C1976 0.913 . S
H1996 C2014 0.951 . S
H1997 C2016 0.951 . S
H1998 C2018 0.950 . S
H1999 C2019 0.950 . S
H2000 C2021 0.996 . S
H2001 C2024 0.950 . S
H2002 C2025 0.950 . S
H2003 C2027 0.950 . S
H2004 C2028 0.950 . S
H2005 C2029 0.951 . S
H2006 C2031 0.951 . S
H2007 C2033 0.950 . S
H2008 C2034 0.950 . S
H2009 C2036 0.997 . S
H2010 C2039 0.950 . S
H2011 C2040 0.950 . S
H2012 C2042 0.950 . S
H2013 C2043 0.950 . S
C2014 H1996 0.951 . S
C2014 C2015 1.366 . S
C2014 C2016 1.388 . S
C2015 C2014 1.366 . S
C2015 C2019 1.385 1_545 S
C2016 H1997 0.951 . S
C2016 C2014 1.388 . S
C2016 C2017 1.366 . S
C2017 C2016 1.366 . S
C2017 C2018 1.414 1_545 S
C2017 C2020 1.523 . S
C2018 H1998 0.950 . S
C2018 C2017 1.414 1_565 S
C2018 C2019 1.374 . S
C2019 H1999 0.950 . S
C2019 C2015 1.385 1_565 S
C2019 C2018 1.374 . S
C2020 C2017 1.523 . S
C2020 C2021 1.386 . S
C2020 C2022 1.351 1_545 S
C2021 H2000 0.996 . S
C2021 C2020 1.386 . S
C2021 C2037 1.354 . S
C2022 C2020 1.351 1_565 S
C2022 C2023 1.523 . S
C2022 C2036 1.354 . S
C2023 C2022 1.523 . S
C2023 C2024 1.397 . S
C2023 C2028 1.363 1_565 S
C2024 H2001 0.950 . S
C2024 C2023 1.397 . S
C2024 C2025 1.334 . S
C2025 H2002 0.950 . S
C2025 C2024 1.334 . S
C2025 C2026 1.287 . S
C2026 C2025 1.287 . S
C2026 C2027 1.524 1_565 S
C2026 H2045 0.913 . S
C2027 H2003 0.950 . S
C2027 C2026 1.524 1_545 S
C2027 C2028 1.415 . S
C2028 H2004 0.950 . S
C2028 C2023 1.363 1_545 S
C2028 C2027 1.415 . S
C2029 H2005 0.951 . S
C2029 C2030 1.366 . S
C2029 C2031 1.388 . S
C2030 C2029 1.366 . S
C2030 C2034 1.385 1_565 S
C2031 H2006 0.951 . S
C2031 C2029 1.388 . S
C2031 C2032 1.366 . S
C2032 C2031 1.366 . S
C2032 C2033 1.414 1_565 S
C2032 C2035 1.524 . S
C2033 H2007 0.950 . S
C2033 C2032 1.414 1_545 S
C2033 C2034 1.374 . S
C2034 H2008 0.950 . S
C2034 C2030 1.385 1_545 S
C2034 C2033 1.374 . S
C2035 C2032 1.524 . S
C2035 C2036 1.386 . S
C2035 C2037 1.351 1_565 S
C2036 H2009 0.997 . S
C2036 C2022 1.354 . S
C2036 C2035 1.386 . S
C2037 C2021 1.354 . S
C2037 C2035 1.351 1_545 S
C2037 C2038 1.523 . S
C2038 C2037 1.523 . S
C2038 C2039 1.397 . S
C2038 C2043 1.363 1_545 S
C2039 H2010 0.950 . S
C2039 C2038 1.397 . S
C2039 C2040 1.334 . S
C2040 H2011 0.950 . S
C2040 C2039 1.334 . S
C2040 C2041 1.287 . S
C2041 C2040 1.287 . S
C2041 C2042 1.524 1_545 S
C2041 H2044 0.999 . S
C2042 H2012 0.950 . S
C2042 C2041 1.524 1_565 S
C2042 C2043 1.415 . S
C2043 H2013 0.950 . S
C2043 C2038 1.363 1_565 S
C2043 C2042 1.415 . S
H2044 C2041 0.999 . S
H2045 C2026 0.913 . S
H2046 C2064 0.951 . S
H2047 C2066 0.951 . S
H2048 C2068 0.951 1_565 S
H2049 C2069 0.956 . S
H2050 C2071 0.950 . S
H2051 C2074 0.950 . S
H2052 C2075 0.950 . S
H2053 C2077 0.950 . S
H2054 C2078 0.950 . S
H2055 C2079 0.951 . S
H2056 C2081 0.951 . S
H2057 C2083 0.952 1_545 S
H2058 C2084 0.957 . S
H2059 C2086 0.950 . S
H2060 C2089 0.950 . S
H2061 C2090 0.950 . S
H2062 C2092 0.950 . S
H2063 C2093 0.950 . S
C2064 H2046 0.951 . S
C2064 C2065 1.366 1_554 S
C2064 C2066 1.388 . S
C2065 C2064 1.366 1_556 S
C2065 C2069 1.385 . S
C2066 H2047 0.951 . S
C2066 C2064 1.388 . S
C2066 C2067 1.366 1_554 S
C2067 C2066 1.366 1_556 S
C2067 C2068 1.418 . S
C2067 C2070 1.483 . S
C2068 H2048 0.951 1_545 S
C2068 C2067 1.418 . S
C2068 C2069 1.369 . S
C2069 H2049 0.956 . S
C2069 C2065 1.385 . S
C2069 C2068 1.369 . S
C2070 C2067 1.483 . S
C2070 C2071 1.403 . S
C2070 C2072 1.380 1_546 S
C2071 H2050 0.950 . S
C2071 C2070 1.403 . S
C2071 C2087 1.377 . S
C2072 C2070 1.380 1_564 S
C2072 C2073 1.524 . S
C2072 C2086 1.377 . S
C2073 C2072 1.524 . S
C2073 C2074 1.397 . S
C2073 C2078 1.363 . S
C2074 H2051 0.950 . S
C2074 C2073 1.397 . S
C2074 C2075 1.334 . S
C2075 H2052 0.950 . S
C2075 C2074 1.334 . S
C2075 C2076 1.287 . S
C2076 C2075 1.287 . S
C2076 C2077 1.524 . S
C2076 H2095 0.913 . S
C2077 H2053 0.950 . S
C2077 C2076 1.524 . S
C2077 C2078 1.415 . S
C2078 H2054 0.950 . S
C2078 C2073 1.363 . S
C2078 C2077 1.415 . S
C2079 H2055 0.951 . S
C2079 C2080 1.366 1_556 S
C2079 C2081 1.388 . S
C2080 C2079 1.366 1_554 S
C2080 C2084 1.385 . S
C2081 H2056 0.951 . S
C2081 C2079 1.388 . S
C2081 C2082 1.366 1_556 S
C2082 C2081 1.366 1_554 S
C2082 C2083 1.418 . S
C2082 C2085 1.482 . S
C2083 H2057 0.952 1_565 S
C2083 C2082 1.418 . S
C2083 C2084 1.369 . S
C2084 H2058 0.957 . S
C2084 C2080 1.385 . S
C2084 C2083 1.369 . S
C2085 C2082 1.482 . S
C2085 C2086 1.404 . S
C2085 C2087 1.380 1_564 S
C2086 H2059 0.950 . S
C2086 C2072 1.377 . S
C2086 C2085 1.404 . S
C2087 C2071 1.377 . S
C2087 C2085 1.380 1_546 S
C2087 C2088 1.524 . S
C2088 C2087 1.524 . S
C2088 C2089 1.397 . S
C2088 C2093 1.363 . S
C2089 H2060 0.950 . S
C2089 C2088 1.397 . S
C2089 C2090 1.334 . S
C2090 H2061 0.950 . S
C2090 C2089 1.334 . S
C2090 C2091 1.287 . S
C2091 C2090 1.287 . S
C2091 C2092 1.524 . S
C2091 H2094 0.999 . S
C2092 H2062 0.950 . S
C2092 C2091 1.524 . S
C2092 C2093 1.415 . S
C2093 H2063 0.950 . S
C2093 C2088 1.363 . S
C2093 C2092 1.415 . S
H2094 C2091 0.999 . S
H2095 C2076 0.913 . S
H2096 C2114 0.951 . S
H2097 C2116 0.951 . S
H2098 C2118 0.953 . S
H2099 C2119 0.950 . S
H2100 C2121 0.950 . S
H2101 C2124 0.950 . S
H2102 C2125 0.950 . S
H2103 C2127 0.950 . S
H2104 C2128 0.950 . S
H2105 C2129 0.951 . S
H2106 C2131 0.951 . S
H2107 C2133 0.953 . S
H2108 C2134 0.950 . S
H2109 C2136 0.950 . S
H2110 C2139 0.950 . S
H2111 C2140 0.950 . S
H2112 C2142 0.950 . S
H2113 C2143 0.950 . S
C2114 H2096 0.951 . S
C2114 C2115 1.366 . S
C2114 C2116 1.388 . S
C2115 C2114 1.366 . S
C2115 C2119 1.385 1_655 S
C2116 H2097 0.951 . S
C2116 C2114 1.388 . S
C2116 C2117 1.366 . S
C2117 C2116 1.366 . S
C2117 C2118 1.414 1_655 S
C2117 C2120 1.561 . S
C2118 H2098 0.953 . S
C2118 C2117 1.414 1_455 S
C2118 C2119 1.374 . S
C2119 H2099 0.950 . S
C2119 C2115 1.385 1_455 S
C2119 C2118 1.374 . S
C2120 C2117 1.561 . S
C2120 C2121 1.288 1_655 S
C2120 C2122 1.420 1_556 S
C2121 H2100 0.950 . S
C2121 C2120 1.288 1_455 S
C2121 C2137 1.377 . S
C2122 C2120 1.420 1_554 S
C2122 C2123 1.524 . S
C2122 C2136 1.377 . S
C2123 C2122 1.524 . S
C2123 C2124 1.397 . S
C2123 C2128 1.363 . S
C2124 H2101 0.950 . S
C2124 C2123 1.397 . S
C2124 C2125 1.334 . S
C2125 H2102 0.950 . S
C2125 C2124 1.334 . S
C2125 C2126 1.287 . S
C2126 C2125 1.287 . S
C2126 C2127 1.524 . S
C2126 H2145 0.913 . S
C2127 H2103 0.950 . S
C2127 C2126 1.524 . S
C2127 C2128 1.415 . S
C2128 H2104 0.950 . S
C2128 C2123 1.363 . S
C2128 C2127 1.415 . S
C2129 H2105 0.951 . S
C2129 C2130 1.366 . S
C2129 C2131 1.388 . S
C2130 C2129 1.366 . S
C2130 C2134 1.385 1_455 S
C2131 H2106 0.951 . S
C2131 C2129 1.388 . S
C2131 C2132 1.366 . S
C2132 C2131 1.366 . S
C2132 C2133 1.414 1_455 S
C2132 C2135 1.566 . S
C2133 H2107 0.953 . S
C2133 C2132 1.414 1_655 S
C2133 C2134 1.374 . S
C2134 H2108 0.950 . S
C2134 C2130 1.385 1_655 S
C2134 C2133 1.374 . S
C2135 C2132 1.566 . S
C2135 C2136 1.281 1_455 S
C2135 C2137 1.422 1_554 S
C2136 H2109 0.950 . S
C2136 C2122 1.377 . S
C2136 C2135 1.281 1_655 S
C2137 C2121 1.377 . S
C2137 C2135 1.422 1_556 S
C2137 C2138 1.524 . S
C2138 C2137 1.524 . S
C2138 C2139 1.397 . S
C2138 C2143 1.363 . S
C2139 H2110 0.950 . S
C2139 C2138 1.397 . S
C2139 C2140 1.334 . S
C2140 H2111 0.950 . S
C2140 C2139 1.334 . S
C2140 C2141 1.287 . S
C2141 C2140 1.287 . S
C2141 C2142 1.524 . S
C2141 H2144 0.999 . S
C2142 H2112 0.950 . S
C2142 C2141 1.524 . S
C2142 C2143 1.415 . S
C2143 H2113 0.950 . S
C2143 C2138 1.363 . S
C2143 C2142 1.415 . S
H2144 C2141 0.999 . S
H2145 C2126 0.913 . S
H2146 C2164 0.944 1_554 S
H2147 C2166 0.955 . S
H2148 C2168 0.950 . S
H2149 C2169 0.950 . S
H2150 C2171 0.950 . S
H2151 C2174 0.950 . S
H2152 C2175 0.950 . S
H2153 C2177 0.950 . S
H2154 C2178 0.950 . S
H2155 C2179 0.944 1_556 S
H2156 C2181 0.955 . S
H2157 C2183 0.950 . S
H2158 C2184 0.950 . S
H2159 C2186 0.950 . S
H2160 C2189 0.950 . S
H2161 C2190 0.950 . S
H2162 C2192 0.950 . S
H2163 C2193 0.950 . S
C2164 H2146 0.944 1_556 S
C2164 C2165 1.366 . S
C2164 C2166 1.386 1_556 S
C2165 C2164 1.366 . S
C2165 C2169 1.385 . S
C2166 H2147 0.955 . S
C2166 C2164 1.386 1_554 S
C2166 C2167 1.363 1_554 S
C2167 C2166 1.363 1_556 S
C2167 C2168 1.414 . S
C2167 C2170 1.499 . S
C2168 H2148 0.950 . S
C2168 C2167 1.414 . S
C2168 C2169 1.374 . S
C2169 H2149 0.950 . S
C2169 C2165 1.385 . S
C2169 C2168 1.374 . S
C2170 C2167 1.499 . S
C2170 C2171 1.373 . S
C2170 C2172 1.389 1_556 S
C2171 H2150 0.950 . S
C2171 C2170 1.373 . S
C2171 C2187 1.377 . S
C2172 C2170 1.389 1_554 S
C2172 C2173 1.524 . S
C2172 C2186 1.377 . S
C2173 C2172 1.524 . S
C2173 C2174 1.397 . S
C2173 C2178 1.363 . S
C2174 H2151 0.950 . S
C2174 C2173 1.397 . S
C2174 C2175 1.334 . S
C2175 H2152 0.950 . S
C2175 C2174 1.334 . S
C2175 C2176 1.287 . S
C2176 C2175 1.287 . S
C2176 C2177 1.524 . S
C2176 H2195 0.913 . S
C2177 H2153 0.950 . S
C2177 C2176 1.524 . S
C2177 C2178 1.415 . S
C2178 H2154 0.950 . S
C2178 C2173 1.363 . S
C2178 C2177 1.415 . S
C2179 H2155 0.944 1_554 S
C2179 C2180 1.366 . S
C2179 C2181 1.386 1_554 S
C2180 C2179 1.366 . S
C2180 C2184 1.385 . S
C2181 H2156 0.955 . S
C2181 C2179 1.386 1_556 S
C2181 C2182 1.363 1_556 S
C2182 C2181 1.363 1_554 S
C2182 C2183 1.414 . S
C2182 C2185 1.499 . S
C2183 H2157 0.950 . S
C2183 C2182 1.414 . S
C2183 C2184 1.374 . S
C2184 H2158 0.950 . S
C2184 C2180 1.385 . S
C2184 C2183 1.374 . S
C2185 C2182 1.499 . S
C2185 C2186 1.373 . S
C2185 C2187 1.389 1_554 S
C2186 H2159 0.950 . S
C2186 C2172 1.377 . S
C2186 C2185 1.373 . S
C2187 C2171 1.377 . S
C2187 C2185 1.389 1_556 S
C2187 C2188 1.524 . S
C2188 C2187 1.524 . S
C2188 C2189 1.397 . S
C2188 C2193 1.363 . S
C2189 H2160 0.950 . S
C2189 C2188 1.397 . S
C2189 C2190 1.334 . S
C2190 H2161 0.950 . S
C2190 C2189 1.334 . S
C2190 C2191 1.287 . S
C2191 C2190 1.287 . S
C2191 C2192 1.524 . S
C2191 H2194 0.999 . S
C2192 H2162 0.950 . S
C2192 C2191 1.524 . S
C2192 C2193 1.415 . S
C2193 H2163 0.950 . S
C2193 C2188 1.363 . S
C2193 C2192 1.415 . S
H2194 C2191 0.999 . S
H2195 C2176 0.913 . S
H2196 C2214 0.951 . S
H2197 C2216 0.951 1_556 S
H2198 C2218 0.950 . S
H2199 C2219 0.950 . S
H2200 C2221 0.950 . S
H2201 C2224 0.950 . S
H2202 C2225 0.950 . S
H2203 C2227 0.950 . S
H2204 C2228 0.950 . S
H2205 C2229 0.951 . S
H2206 C2231 0.951 . S
H2207 C2233 0.950 . S
H2208 C2234 0.950 . S
H2209 C2236 0.950 . S
H2210 C2239 0.950 . S
H2211 C2240 0.950 . S
H2212 C2242 0.950 . S
H2213 C2243 0.950 . S
C2214 H2196 0.951 . S
C2214 C2215 1.366 . S
C2214 C2216 1.388 . S
C2215 C2214 1.366 . S
C2215 C2219 1.385 . S
C2216 H2197 0.951 1_554 S
C2216 C2214 1.388 . S
C2216 C2217 1.366 1_554 S
C2217 C2216 1.366 1_556 S
C2217 C2218 1.414 . S
C2217 C2220 1.499 . S
C2218 H2198 0.950 . S
C2218 C2217 1.414 . S
C2218 C2219 1.374 1_556 S
C2219 H2199 0.950 . S
C2219 C2215 1.385 . S
C2219 C2218 1.374 1_554 S
C2220 C2217 1.499 . S
C2220 C2221 1.373 . S
C2220 C2222 1.389 . S
C2221 H2200 0.950 . S
C2221 C2220 1.373 . S
C2221 C2237 1.377 . S
C2222 C2220 1.389 . S
C2222 C2223 1.524 . S
C2222 C2236 1.377 . S
C2223 C2222 1.524 . S
C2223 C2224 1.397 . S
C2223 C2228 1.363 . S
C2224 H2201 0.950 . S
C2224 C2223 1.397 . S
C2224 C2225 1.334 . S
C2225 H2202 0.950 . S
C2225 C2224 1.334 . S
C2225 C2226 1.287 . S
C2226 C2225 1.287 . S
C2226 C2227 1.524 . S
C2226 H2245 0.913 . S
C2227 H2203 0.950 . S
C2227 C2226 1.524 . S
C2227 C2228 1.415 . S
C2228 H2204 0.950 . S
C2228 C2223 1.363 . S
C2228 C2227 1.415 . S
C2229 H2205 0.951 . S
C2229 C2230 1.366 . S
C2229 C2231 1.388 . S
C2230 C2229 1.366 . S
C2230 C2234 1.385 . S
C2231 H2206 0.951 . S
C2231 C2229 1.388 . S
C2231 C2232 1.366 . S
C2232 C2231 1.366 . S
C2232 C2233 1.414 . S
C2232 C2235 1.499 . S
C2233 H2207 0.950 . S
C2233 C2232 1.414 . S
C2233 C2234 1.374 . S
C2234 H2208 0.950 . S
C2234 C2230 1.385 . S
C2234 C2233 1.374 . S
C2235 C2232 1.499 . S
C2235 C2236 1.373 . S
C2235 C2237 1.389 . S
C2236 H2209 0.950 . S
C2236 C2222 1.377 . S
C2236 C2235 1.373 . S
C2237 C2221 1.377 . S
C2237 C2235 1.389 . S
C2237 C2238 1.524 . S
C2238 C2237 1.524 . S
C2238 C2239 1.397 . S
C2238 C2243 1.363 . S
C2239 H2210 0.950 . S
C2239 C2238 1.397 . S
C2239 C2240 1.334 . S
C2240 H2211 0.950 . S
C2240 C2239 1.334 . S
C2240 C2241 1.287 . S
C2241 C2240 1.287 . S
C2241 C2242 1.524 . S
C2241 H2244 0.999 . S
C2242 H2212 0.950 . S
C2242 C2241 1.524 . S
C2242 C2243 1.415 . S
C2243 H2213 0.950 . S
C2243 C2238 1.363 . S
C2243 C2242 1.415 . S
H2244 C2241 0.999 . S
H2245 C2226 0.913 . S
H2246 C2264 0.951 . S
H2247 C2266 0.951 . S
H2248 C2268 0.950 . S
H2249 C2269 0.950 . S
H2250 C2271 0.950 . S
H2251 C2274 0.950 . S
H2252 C2275 0.950 . S
H2253 C2277 0.950 . S
H2254 C2278 0.950 . S
H2255 C2279 0.951 . S
H2256 C2281 0.936 1_556 S
H2257 C2283 0.950 1_556 S
H2258 C2284 0.950 . S
H2259 C2286 0.950 . S
H2260 C2289 0.950 . S
H2261 C2290 0.950 1_554 S
H2262 C2292 0.950 . S
H2263 C2293 0.950 . S
C2264 H2246 0.951 . S
C2264 C2265 1.366 . S
C2264 C2266 1.388 . S
C2265 C2264 1.366 . S
C2265 C2269 1.385 . S
C2266 H2247 0.951 . S
C2266 C2264 1.388 . S
C2266 C2267 1.366 . S
C2267 C2266 1.366 . S
C2267 C2268 1.414 . S
C2267 C2270 1.499 . S
C2268 H2248 0.950 . S
C2268 C2267 1.414 . S
C2268 C2269 1.374 . S
C2269 H2249 0.950 . S
C2269 C2265 1.385 . S
C2269 C2268 1.374 . S
C2270 C2267 1.499 . S
C2270 C2271 1.373 . S
C2270 C2272 1.389 . S
C2271 H2250 0.950 . S
C2271 C2270 1.373 . S
C2271 C2287 1.377 . S
C2272 C2270 1.389 . S
C2272 C2273 1.524 . S
C2272 C2286 1.377 . S
C2273 C2272 1.524 . S
C2273 C2274 1.397 . S
C2273 C2278 1.363 . S
C2274 H2251 0.950 . S
C2274 C2273 1.397 . S
C2274 C2275 1.334 . S
C2275 H2252 0.950 . S
C2275 C2274 1.334 . S
C2275 C2276 1.287 . S
C2276 C2275 1.287 . S
C2276 C2277 1.524 . S
C2276 H2295 0.913 . S
C2277 H2253 0.950 . S
C2277 C2276 1.524 . S
C2277 C2278 1.415 . S
C2278 H2254 0.950 . S
C2278 C2273 1.363 . S
C2278 C2277 1.415 . S
C2279 H2255 0.951 . S
C2279 C2280 1.366 . S
C2279 C2281 1.418 . S
C2280 C2279 1.366 . S
C2280 C2284 1.385 . S
C2281 H2256 0.936 1_554 S
C2281 C2279 1.418 . S
C2281 C2282 1.350 1_554 S
C2282 C2281 1.350 1_556 S
C2282 C2283 1.414 1_556 S
C2282 C2285 1.499 . S
C2283 H2257 0.950 1_554 S
C2283 C2282 1.414 1_554 S
C2283 C2284 1.374 . S
C2284 H2258 0.950 . S
C2284 C2280 1.385 . S
C2284 C2283 1.374 . S
C2285 C2282 1.499 . S
C2285 C2286 1.373 . S
C2285 C2287 1.389 . S
C2286 H2259 0.950 . S
C2286 C2272 1.377 . S
C2286 C2285 1.373 . S
C2287 C2271 1.377 . S
C2287 C2285 1.389 . S
C2287 C2288 1.524 . S
C2288 C2287 1.524 . S
C2288 C2289 1.397 . S
C2288 C2293 1.363 . S
C2289 H2260 0.950 . S
C2289 C2288 1.397 . S
C2289 C2290 1.334 . S
C2290 H2261 0.950 1_556 S
C2290 C2289 1.334 . S
C2290 C2291 1.287 . S
C2291 C2290 1.287 . S
C2291 C2292 1.524 . S
C2291 H2294 0.999 . S
C2292 H2262 0.950 . S
C2292 C2291 1.524 . S
C2292 C2293 1.415 . S
C2293 H2263 0.950 . S
C2293 C2288 1.363 . S
C2293 C2292 1.415 . S
H2294 C2291 0.999 . S
H2295 C2276 0.913 . S
H2296 C2314 0.951 . S
H2297 C2316 0.951 . S
H2298 C2318 0.950 . S
H2299 C2319 0.950 . S
H2300 C2321 0.950 . S
H2301 C2324 0.950 . S
H2302 C2325 0.950 . S
H2303 C2327 0.950 . S
H2304 C2328 0.950 . S
H2305 C2329 0.951 . S
H2306 C2331 0.968 . S
H2307 C2333 0.950 1_556 S
H2308 C2334 0.950 . S
H2309 C2336 0.950 . S
H2310 C2339 0.950 . S
H2311 C2340 0.950 1_554 S
H2312 C2342 0.950 . S
H2313 C2343 0.950 . S
C2314 H2296 0.951 . S
C2314 C2315 1.366 . S
C2314 C2316 1.388 . S
C2315 C2314 1.366 . S
C2315 C2319 1.385 . S
C2316 H2297 0.951 . S
C2316 C2314 1.388 . S
C2316 C2317 1.366 . S
C2317 C2316 1.366 . S
C2317 C2318 1.414 . S
C2317 C2320 1.499 . S
C2318 H2298 0.950 . S
C2318 C2317 1.414 . S
C2318 C2319 1.374 . S
C2319 H2299 0.950 . S
C2319 C2315 1.385 . S
C2319 C2318 1.374 . S
C2320 C2317 1.499 . S
C2320 C2321 1.373 . S
C2320 C2322 1.389 . S
C2321 H2300 0.950 . S
C2321 C2320 1.373 . S
C2321 C2337 1.377 . S
C2322 C2320 1.389 . S
C2322 C2323 1.524 . S
C2322 C2336 1.377 . S
C2323 C2322 1.524 . S
C2323 C2324 1.397 . S
C2323 C2328 1.363 . S
C2324 H2301 0.950 . S
C2324 C2323 1.397 . S
C2324 C2325 1.334 . S
C2325 H2302 0.950 . S
C2325 C2324 1.334 . S
C2325 C2326 1.287 . S
C2326 C2325 1.287 . S
C2326 C2327 1.524 . S
C2326 H2345 0.913 . S
C2327 H2303 0.950 . S
C2327 C2326 1.524 . S
C2327 C2328 1.415 . S
C2328 H2304 0.950 . S
C2328 C2323 1.363 . S
C2328 C2327 1.415 . S
C2329 H2305 0.951 . S
C2329 C2330 1.366 . S
C2329 C2331 1.357 1_554 S
C2330 C2329 1.366 . S
C2330 C2334 1.385 . S
C2331 H2306 0.968 . S
C2331 C2329 1.357 1_556 S
C2331 C2332 1.380 . S
C2332 C2331 1.380 . S
C2332 C2333 1.414 1_556 S
C2332 C2335 1.499 . S
C2333 H2307 0.950 1_554 S
C2333 C2332 1.414 1_554 S
C2333 C2334 1.374 . S
C2334 H2308 0.950 . S
C2334 C2330 1.385 . S
C2334 C2333 1.374 . S
C2335 C2332 1.499 . S
C2335 C2336 1.373 . S
C2335 C2337 1.389 . S
C2336 H2309 0.950 . S
C2336 C2322 1.377 . S
C2336 C2335 1.373 . S
C2337 C2321 1.377 . S
C2337 C2335 1.389 . S
C2337 C2338 1.524 . S
C2338 C2337 1.524 . S
C2338 C2339 1.397 . S
C2338 C2343 1.363 . S
C2339 H2310 0.950 . S
C2339 C2338 1.397 . S
C2339 C2340 1.334 . S
C2340 H2311 0.950 1_556 S
C2340 C2339 1.334 . S
C2340 C2341 1.287 . S
C2341 C2340 1.287 . S
C2341 C2342 1.524 . S
C2341 H2344 0.999 . S
C2342 H2312 0.950 . S
C2342 C2341 1.524 . S
C2342 C2343 1.415 . S
C2343 H2313 0.950 . S
C2343 C2338 1.363 . S
C2343 C2342 1.415 . S
H2344 C2341 0.999 . S
H2345 C2326 0.913 . S
H2346 C2364 0.951 . S
H2347 C2366 0.951 . S
H2348 C2368 0.950 . S
H2349 C2369 0.950 . S
H2350 C2371 0.950 . S
H2351 C2374 0.950 . S
H2352 C2375 0.950 . S
H2353 C2377 0.950 . S
H2354 C2378 0.950 . S
H2355 C2379 0.951 . S
H2356 C2381 0.951 . S
H2357 C2383 0.950 . S
H2358 C2384 0.950 . S
H2359 C2386 0.950 . S
H2360 C2389 0.950 . S
H2361 C2390 0.950 . S
H2362 C2392 0.950 . S
H2363 C2393 0.950 . S
C2364 H2346 0.951 . S
C2364 C2365 1.366 . S
C2364 C2366 1.388 . S
C2365 C2364 1.366 . S
C2365 C2369 1.385 . S
C2366 H2347 0.951 . S
C2366 C2364 1.388 . S
C2366 C2367 1.366 . S
C2367 C2366 1.366 . S
C2367 C2368 1.414 . S
C2367 C2370 1.499 . S
C2368 H2348 0.950 . S
C2368 C2367 1.414 . S
C2368 C2369 1.374 . S
C2369 H2349 0.950 . S
C2369 C2365 1.385 . S
C2369 C2368 1.374 . S
C2370 C2367 1.499 . S
C2370 C2371 1.373 . S
C2370 C2372 1.389 . S
C2371 H2350 0.950 . S
C2371 C2370 1.373 . S
C2371 C2387 1.377 . S
C2372 C2370 1.389 . S
C2372 C2373 1.524 . S
C2372 C2386 1.377 . S
C2373 C2372 1.524 . S
C2373 C2374 1.397 . S
C2373 C2378 1.363 . S
C2374 H2351 0.950 . S
C2374 C2373 1.397 . S
C2374 C2375 1.334 . S
C2375 H2352 0.950 . S
C2375 C2374 1.334 . S
C2375 C2376 1.287 . S
C2376 C2375 1.287 . S
C2376 C2377 1.524 . S
C2376 H2395 0.913 . S
C2377 H2353 0.950 . S
C2377 C2376 1.524 . S
C2377 C2378 1.415 . S
C2378 H2354 0.950 . S
C2378 C2373 1.363 . S
C2378 C2377 1.415 . S
C2379 H2355 0.951 . S
C2379 C2380 1.366 . S
C2379 C2381 1.388 . S
C2380 C2379 1.366 . S
C2380 C2384 1.385 . S
C2381 H2356 0.951 . S
C2381 C2379 1.388 . S
C2381 C2382 1.366 . S
C2382 C2381 1.366 . S
C2382 C2383 1.414 . S
C2382 C2385 1.499 . S
C2383 H2357 0.950 . S
C2383 C2382 1.414 . S
C2383 C2384 1.374 . S
C2384 H2358 0.950 . S
C2384 C2380 1.385 . S
C2384 C2383 1.374 . S
C2385 C2382 1.499 . S
C2385 C2386 1.373 . S
C2385 C2387 1.389 . S
C2386 H2359 0.950 . S
C2386 C2372 1.377 . S
C2386 C2385 1.373 . S
C2387 C2371 1.377 . S
C2387 C2385 1.389 . S
C2387 C2388 1.524 . S
C2388 C2387 1.524 . S
C2388 C2389 1.397 . S
C2388 C2393 1.363 . S
C2389 H2360 0.950 . S
C2389 C2388 1.397 . S
C2389 C2390 1.334 . S
C2390 H2361 0.950 . S
C2390 C2389 1.334 . S
C2390 C2391 1.287 . S
C2391 C2390 1.287 . S
C2391 C2392 1.524 . S
C2391 H2394 0.999 . S
C2392 H2362 0.950 . S
C2392 C2391 1.524 . S
C2392 C2393 1.415 . S
C2393 H2363 0.950 . S
C2393 C2388 1.363 . S
C2393 C2392 1.415 . S
H2394 C2391 0.999 . S
H2395 C2376 0.913 . S
H2396 C2414 0.951 . S
H2397 C2416 0.951 . S
H2398 C2418 0.950 . S
H2399 C2419 0.950 . S
H2400 C2421 0.950 . S
H2401 C2424 0.950 . S
H2402 C2425 0.950 . S
H2403 C2427 0.950 . S
H2404 C2428 0.950 . S
H2405 C2429 0.951 . S
H2406 C2431 0.951 . S
H2407 C2433 0.950 . S
H2408 C2434 0.950 . S
H2409 C2436 0.950 . S
H2410 C2439 0.950 . S
H2411 C2440 0.950 . S
H2412 C2442 0.950 . S
H2413 C2443 0.950 . S
C2414 H2396 0.951 . S
C2414 C2415 1.366 . S
C2414 C2416 1.388 . S
C2415 C2414 1.366 . S
C2415 C2419 1.385 . S
C2416 H2397 0.951 . S
C2416 C2414 1.388 . S
C2416 C2417 1.366 . S
C2417 C2416 1.366 . S
C2417 C2418 1.414 . S
C2417 C2420 1.499 . S
C2418 H2398 0.950 . S
C2418 C2417 1.414 . S
C2418 C2419 1.374 . S
C2419 H2399 0.950 . S
C2419 C2415 1.385 . S
C2419 C2418 1.374 . S
C2420 C2417 1.499 . S
C2420 C2421 1.373 . S
C2420 C2422 1.389 . S
C2421 H2400 0.950 . S
C2421 C2420 1.373 . S
C2421 C2437 1.377 . S
C2422 C2420 1.389 . S
C2422 C2423 1.524 . S
C2422 C2436 1.377 . S
C2423 C2422 1.524 . S
C2423 C2424 1.397 . S
C2423 C2428 1.363 . S
C2424 H2401 0.950 . S
C2424 C2423 1.397 . S
C2424 C2425 1.334 . S
C2425 H2402 0.950 . S
C2425 C2424 1.334 . S
C2425 C2426 1.287 . S
C2426 C2425 1.287 . S
C2426 C2427 1.524 . S
C2426 H2445 0.913 . S
C2427 H2403 0.950 . S
C2427 C2426 1.524 . S
C2427 C2428 1.415 . S
C2428 H2404 0.950 . S
C2428 C2423 1.363 . S
C2428 C2427 1.415 . S
C2429 H2405 0.951 . S
C2429 C2430 1.366 . S
C2429 C2431 1.388 . S
C2430 C2429 1.366 . S
C2430 C2434 1.385 . S
C2431 H2406 0.951 . S
C2431 C2429 1.388 . S
C2431 C2432 1.366 . S
C2432 C2431 1.366 . S
C2432 C2433 1.414 . S
C2432 C2435 1.499 . S
C2433 H2407 0.950 . S
C2433 C2432 1.414 . S
C2433 C2434 1.374 . S
C2434 H2408 0.950 . S
C2434 C2430 1.385 . S
C2434 C2433 1.374 . S
C2435 C2432 1.499 . S
C2435 C2436 1.373 . S
C2435 C2437 1.389 . S
C2436 H2409 0.950 . S
C2436 C2422 1.377 . S
C2436 C2435 1.373 . S
C2437 C2421 1.377 . S
C2437 C2435 1.389 . S
C2437 C2438 1.524 . S
C2438 C2437 1.524 . S
C2438 C2439 1.397 . S
C2438 C2443 1.363 . S
C2439 H2410 0.950 . S
C2439 C2438 1.397 . S
C2439 C2440 1.334 . S
C2440 H2411 0.950 . S
C2440 C2439 1.334 . S
C2440 C2441 1.287 . S
C2441 C2440 1.287 . S
C2441 C2442 1.524 . S
C2441 H2444 0.999 . S
C2442 H2412 0.950 . S
C2442 C2441 1.524 . S
C2442 C2443 1.415 . S
C2443 H2413 0.950 . S
C2443 C2438 1.363 . S
C2443 C2442 1.415 . S
H2444 C2441 0.999 . S
H2445 C2426 0.913 . S
H2446 C2464 0.951 . S
H2447 C2466 0.951 . S
H2448 C2468 0.950 . S
H2449 C2469 0.950 . S
H2450 C2471 0.950 . S
H2451 C2474 0.950 . S
H2452 C2475 0.950 . S
H2453 C2477 0.950 . S
H2454 C2478 0.950 . S
H2455 C2479 0.951 . S
H2456 C2481 0.951 . S
H2457 C2483 0.950 . S
H2458 C2484 0.950 . S
H2459 C2486 0.950 . S
H2460 C2489 0.950 . S
H2461 C2490 0.950 . S
H2462 C2492 0.950 . S
H2463 C2493 0.950 . S
C2464 H2446 0.951 . S
C2464 C2465 1.366 . S
C2464 C2466 1.388 . S
C2465 C2464 1.366 . S
C2465 C2469 1.385 . S
C2466 H2447 0.951 . S
C2466 C2464 1.388 . S
C2466 C2467 1.366 . S
C2467 C2466 1.366 . S
C2467 C2468 1.414 . S
C2467 C2470 1.499 . S
C2468 H2448 0.950 . S
C2468 C2467 1.414 . S
C2468 C2469 1.374 . S
C2469 H2449 0.950 . S
C2469 C2465 1.385 . S
C2469 C2468 1.374 . S
C2470 C2467 1.499 . S
C2470 C2471 1.373 . S
C2470 C2472 1.389 . S
C2471 H2450 0.950 . S
C2471 C2470 1.373 . S
C2471 C2487 1.377 . S
C2472 C2470 1.389 . S
C2472 C2473 1.524 . S
C2472 C2486 1.377 . S
C2473 C2472 1.524 . S
C2473 C2474 1.397 . S
C2473 C2478 1.363 . S
C2474 H2451 0.950 . S
C2474 C2473 1.397 . S
C2474 C2475 1.334 . S
C2475 H2452 0.950 . S
C2475 C2474 1.334 . S
C2475 C2476 1.287 . S
C2476 C2475 1.287 . S
C2476 C2477 1.524 . S
C2476 H2495 0.913 . S
C2477 H2453 0.950 . S
C2477 C2476 1.524 . S
C2477 C2478 1.415 . S
C2478 H2454 0.950 . S
C2478 C2473 1.363 . S
C2478 C2477 1.415 . S
C2479 H2455 0.951 . S
C2479 C2480 1.366 . S
C2479 C2481 1.388 . S
C2480 C2479 1.366 . S
C2480 C2484 1.385 . S
C2481 H2456 0.951 . S
C2481 C2479 1.388 . S
C2481 C2482 1.366 . S
C2482 C2481 1.366 . S
C2482 C2483 1.414 . S
C2482 C2485 1.499 . S
C2483 H2457 0.950 . S
C2483 C2482 1.414 . S
C2483 C2484 1.374 . S
C2484 H2458 0.950 . S
C2484 C2480 1.385 . S
C2484 C2483 1.374 . S
C2485 C2482 1.499 . S
C2485 C2486 1.373 . S
C2485 C2487 1.389 . S
C2486 H2459 0.950 . S
C2486 C2472 1.377 . S
C2486 C2485 1.373 . S
C2487 C2471 1.377 . S
C2487 C2485 1.389 . S
C2487 C2488 1.524 . S
C2488 C2487 1.524 . S
C2488 C2489 1.397 . S
C2488 C2493 1.363 . S
C2489 H2460 0.950 . S
C2489 C2488 1.397 . S
C2489 C2490 1.334 . S
C2490 H2461 0.950 . S
C2490 C2489 1.334 . S
C2490 C2491 1.287 . S
C2491 C2490 1.287 . S
C2491 C2492 1.524 . S
C2491 H2494 0.999 . S
C2492 H2462 0.950 . S
C2492 C2491 1.524 . S
C2492 C2493 1.415 . S
C2493 H2463 0.950 . S
C2493 C2488 1.363 . S
C2493 C2492 1.415 . S
H2494 C2491 0.999 . S
H2495 C2476 0.913 . S
H2496 C2514 0.951 . S
H2497 C2516 0.951 . S
H2498 C2518 0.950 . S
H2499 C2519 0.950 . S
H2500 C2521 0.950 . S
H2501 C2524 0.950 . S
H2502 C2525 0.950 . S
H2503 C2527 0.950 . S
H2504 C2528 0.950 . S
H2505 C2529 0.951 . S
H2506 C2531 0.951 1_554 S
H2507 C2533 0.950 . S
H2508 C2534 0.950 . S
H2509 C2536 0.950 . S
H2510 C2539 0.950 . S
H2511 C2540 0.950 . S
H2512 C2542 0.950 . S
H2513 C2543 0.950 . S
C2514 H2496 0.951 . S
C2514 C2515 1.366 . S
C2514 C2516 1.388 . S
C2515 C2514 1.366 . S
C2515 C2519 1.385 . S
C2516 H2497 0.951 . S
C2516 C2514 1.388 . S
C2516 C2517 1.366 . S
C2517 C2516 1.366 . S
C2517 C2518 1.414 . S
C2517 C2520 1.499 . S
C2518 H2498 0.950 . S
C2518 C2517 1.414 . S
C2518 C2519 1.374 . S
C2519 H2499 0.950 . S
C2519 C2515 1.385 . S
C2519 C2518 1.374 . S
C2520 C2517 1.499 . S
C2520 C2521 1.373 . S
C2520 C2522 1.389 . S
C2521 H2500 0.950 . S
C2521 C2520 1.373 . S
C2521 C2537 1.377 . S
C2522 C2520 1.389 . S
C2522 C2523 1.524 . S
C2522 C2536 1.377 . S
C2523 C2522 1.524 . S
C2523 C2524 1.397 . S
C2523 C2528 1.363 . S
C2524 H2501 0.950 . S
C2524 C2523 1.397 . S
C2524 C2525 1.334 . S
C2525 H2502 0.950 . S
C2525 C2524 1.334 . S
C2525 C2526 1.287 . S
C2526 C2525 1.287 . S
C2526 C2527 1.524 . S
C2526 H2545 0.913 . S
C2527 H2503 0.950 . S
C2527 C2526 1.524 . S
C2527 C2528 1.415 . S
C2528 H2504 0.950 . S
C2528 C2523 1.363 . S
C2528 C2527 1.415 . S
C2529 H2505 0.951 . S
C2529 C2530 1.366 . S
C2529 C2531 1.388 . S
C2530 C2529 1.366 . S
C2530 C2534 1.385 . S
C2531 H2506 0.951 1_556 S
C2531 C2529 1.388 . S
C2531 C2532 1.366 1_556 S
C2532 C2531 1.366 1_554 S
C2532 C2533 1.414 . S
C2532 C2535 1.499 . S
C2533 H2507 0.950 . S
C2533 C2532 1.414 . S
C2533 C2534 1.374 1_554 S
C2534 H2508 0.950 . S
C2534 C2530 1.385 . S
C2534 C2533 1.374 1_556 S
C2535 C2532 1.499 . S
C2535 C2536 1.373 . S
C2535 C2537 1.389 . S
C2536 H2509 0.950 . S
C2536 C2522 1.377 . S
C2536 C2535 1.373 . S
C2537 C2521 1.377 . S
C2537 C2535 1.389 . S
C2537 C2538 1.524 . S
C2538 C2537 1.524 . S
C2538 C2539 1.397 . S
C2538 C2543 1.363 . S
C2539 H2510 0.950 . S
C2539 C2538 1.397 . S
C2539 C2540 1.334 . S
C2540 H2511 0.950 . S
C2540 C2539 1.334 . S
C2540 C2541 1.287 . S
C2541 C2540 1.287 . S
C2541 C2542 1.524 . S
C2541 H2544 0.999 . S
C2542 H2512 0.950 . S
C2542 C2541 1.524 . S
C2542 C2543 1.415 . S
C2543 H2513 0.950 . S
C2543 C2538 1.363 . S
C2543 C2542 1.415 . S
H2544 C2541 0.999 . S
H2545 C2526 0.913 . S
H2546 C2564 0.951 . S
H2547 C2566 0.951 1_554 S
H2548 C2568 0.950 . S
H2549 C2569 0.950 . S
H2550 C2571 0.950 . S
H2551 C2574 0.950 . S
H2552 C2575 0.950 . S
H2553 C2577 0.950 . S
H2554 C2578 0.950 . S
H2555 C2579 0.951 . S
H2556 C2581 0.951 . S
H2557 C2583 0.950 . S
H2558 C2584 0.950 . S
H2559 C2586 0.950 . S
H2560 C2589 0.950 . S
H2561 C2590 0.950 . S
H2562 C2592 0.950 . S
H2563 C2593 0.950 . S
C2564 H2546 0.951 . S
C2564 C2565 1.366 . S
C2564 C2566 1.388 . S
C2565 C2564 1.366 . S
C2565 C2569 1.385 . S
C2566 H2547 0.951 1_556 S
C2566 C2564 1.388 . S
C2566 C2567 1.366 1_556 S
C2567 C2566 1.366 1_554 S
C2567 C2568 1.414 . S
C2567 C2570 1.499 . S
C2568 H2548 0.950 . S
C2568 C2567 1.414 . S
C2568 C2569 1.374 1_554 S
C2569 H2549 0.950 . S
C2569 C2565 1.385 . S
C2569 C2568 1.374 1_556 S
C2570 C2567 1.499 . S
C2570 C2571 1.373 . S
C2570 C2572 1.389 . S
C2571 H2550 0.950 . S
C2571 C2570 1.373 . S
C2571 C2587 1.377 . S
C2572 C2570 1.389 . S
C2572 C2573 1.524 . S
C2572 C2586 1.377 . S
C2573 C2572 1.524 . S
C2573 C2574 1.397 . S
C2573 C2578 1.363 . S
C2574 H2551 0.950 . S
C2574 C2573 1.397 . S
C2574 C2575 1.334 . S
C2575 H2552 0.950 . S
C2575 C2574 1.334 . S
C2575 C2576 1.287 . S
C2576 C2575 1.287 . S
C2576 C2577 1.524 . S
C2576 H2595 0.913 . S
C2577 H2553 0.950 . S
C2577 C2576 1.524 . S
C2577 C2578 1.415 . S
C2578 H2554 0.950 . S
C2578 C2573 1.363 . S
C2578 C2577 1.415 . S
C2579 H2555 0.951 . S
C2579 C2580 1.366 . S
C2579 C2581 1.388 . S
C2580 C2579 1.366 . S
C2580 C2584 1.385 . S
C2581 H2556 0.951 . S
C2581 C2579 1.388 . S
C2581 C2582 1.366 . S
C2582 C2581 1.366 . S
C2582 C2583 1.414 . S
C2582 C2585 1.499 . S
C2583 H2557 0.950 . S
C2583 C2582 1.414 . S
C2583 C2584 1.374 . S
C2584 H2558 0.950 . S
C2584 C2580 1.385 . S
C2584 C2583 1.374 . S
C2585 C2582 1.499 . S
C2585 C2586 1.373 . S
C2585 C2587 1.389 . S
C2586 H2559 0.950 . S
C2586 C2572 1.377 . S
C2586 C2585 1.373 . S
C2587 C2571 1.377 . S
C2587 C2585 1.389 . S
C2587 C2588 1.524 . S
C2588 C2587 1.524 . S
C2588 C2589 1.397 . S
C2588 C2593 1.363 . S
C2589 H2560 0.950 . S
C2589 C2588 1.397 . S
C2589 C2590 1.334 . S
C2590 H2561 0.950 . S
C2590 C2589 1.334 . S
C2590 C2591 1.287 . S
C2591 C2590 1.287 . S
C2591 C2592 1.524 . S
C2591 H2594 0.999 . S
C2592 H2562 0.950 . S
C2592 C2591 1.524 . S
C2592 C2593 1.415 . S
C2593 H2563 0.950 . S
C2593 C2588 1.363 . S
C2593 C2592 1.415 . S
H2594 C2591 0.999 . S
H2595 C2576 0.913 . S
H2596 C2614 0.951 . S
H2597 C2616 0.951 . S
H2598 C2618 0.950 . S
H2599 C2619 0.950 . S
H2600 C2621 0.950 . S
H2601 C2624 0.950 . S
H2602 C2625 0.950 . S
H2603 C2627 0.950 . S
H2604 C2628 0.950 . S
H2605 C2629 0.951 . S
H2606 C2631 0.951 1_554 S
H2607 C2633 0.950 . S
H2608 C2634 0.950 . S
H2609 C2636 0.950 . S
H2610 C2639 0.950 . S
H2611 C2640 0.950 . S
H2612 C2642 0.950 . S
H2613 C2643 0.950 . S
C2614 H2596 0.951 . S
C2614 C2615 1.366 . S
C2614 C2616 1.388 . S
C2615 C2614 1.366 . S
C2615 C2619 1.385 . S
C2616 H2597 0.951 . S
C2616 C2614 1.388 . S
C2616 C2617 1.366 . S
C2617 C2616 1.366 . S
C2617 C2618 1.414 . S
C2617 C2620 1.499 . S
C2618 H2598 0.950 . S
C2618 C2617 1.414 . S
C2618 C2619 1.374 . S
C2619 H2599 0.950 . S
C2619 C2615 1.385 . S
C2619 C2618 1.374 . S
C2620 C2617 1.499 . S
C2620 C2621 1.373 . S
C2620 C2622 1.389 . S
C2621 H2600 0.950 . S
C2621 C2620 1.373 . S
C2621 C2637 1.377 . S
C2622 C2620 1.389 . S
C2622 C2623 1.524 . S
C2622 C2636 1.377 . S
C2623 C2622 1.524 . S
C2623 C2624 1.397 . S
C2623 C2628 1.363 . S
C2624 H2601 0.950 . S
C2624 C2623 1.397 . S
C2624 C2625 1.334 . S
C2625 H2602 0.950 . S
C2625 C2624 1.334 . S
C2625 C2626 1.287 . S
C2626 C2625 1.287 . S
C2626 C2627 1.524 . S
C2626 H2645 0.913 . S
C2627 H2603 0.950 . S
C2627 C2626 1.524 . S
C2627 C2628 1.415 . S
C2628 H2604 0.950 . S
C2628 C2623 1.363 . S
C2628 C2627 1.415 . S
C2629 H2605 0.951 . S
C2629 C2630 1.366 . S
C2629 C2631 1.388 . S
C2630 C2629 1.366 . S
C2630 C2634 1.385 . S
C2631 H2606 0.951 1_556 S
C2631 C2629 1.388 . S
C2631 C2632 1.366 1_556 S
C2632 C2631 1.366 1_554 S
C2632 C2633 1.414 . S
C2632 C2635 1.499 . S
C2633 H2607 0.950 . S
C2633 C2632 1.414 . S
C2633 C2634 1.374 1_554 S
C2634 H2608 0.950 . S
C2634 C2630 1.385 . S
C2634 C2633 1.374 1_556 S
C2635 C2632 1.499 . S
C2635 C2636 1.373 . S
C2635 C2637 1.389 . S
C2636 H2609 0.950 . S
C2636 C2622 1.377 . S
C2636 C2635 1.373 . S
C2637 C2621 1.377 . S
C2637 C2635 1.389 . S
C2637 C2638 1.524 . S
C2638 C2637 1.524 . S
C2638 C2639 1.397 . S
C2638 C2643 1.363 . S
C2639 H2610 0.950 . S
C2639 C2638 1.397 . S
C2639 C2640 1.334 . S
C2640 H2611 0.950 . S
C2640 C2639 1.334 . S
C2640 C2641 1.287 . S
C2641 C2640 1.287 . S
C2641 C2642 1.524 . S
C2641 H2644 0.999 . S
C2642 H2612 0.950 . S
C2642 C2641 1.524 . S
C2642 C2643 1.415 . S
C2643 H2613 0.950 . S
C2643 C2638 1.363 . S
C2643 C2642 1.415 . S
H2644 C2641 0.999 . S
H2645 C2626 0.913 . S
H2646 C2664 0.951 . S
H2647 C2666 0.951 . S
H2648 C2668 0.950 . S
H2649 C2669 0.950 . S
H2650 C2671 0.950 . S
H2651 C2674 0.950 . S
H2652 C2675 0.950 . S
H2653 C2677 0.950 . S
H2654 C2678 0.950 . S
H2655 C2679 0.951 . S
H2656 C2681 0.951 . S
H2657 C2683 0.950 . S
H2658 C2684 0.950 . S
H2659 C2686 0.950 . S
H2660 C2689 0.950 . S
H2661 C2690 0.950 . S
H2662 C2692 0.950 . S
H2663 C2693 0.950 . S
C2664 H2646 0.951 . S
C2664 C2665 1.366 . S
C2664 C2666 1.388 . S
C2665 C2664 1.366 . S
C2665 C2669 1.385 . S
C2666 H2647 0.951 . S
C2666 C2664 1.388 . S
C2666 C2667 1.366 . S
C2667 C2666 1.366 . S
C2667 C2668 1.414 . S
C2667 C2670 1.499 . S
C2668 H2648 0.950 . S
C2668 C2667 1.414 . S
C2668 C2669 1.374 . S
C2669 H2649 0.950 . S
C2669 C2665 1.385 . S
C2669 C2668 1.374 . S
C2670 C2667 1.499 . S
C2670 C2671 1.373 . S
C2670 C2672 1.389 . S
C2671 H2650 0.950 . S
C2671 C2670 1.373 . S
C2671 C2687 1.377 . S
C2672 C2670 1.389 . S
C2672 C2673 1.524 . S
C2672 C2686 1.377 . S
C2673 C2672 1.524 . S
C2673 C2674 1.397 . S
C2673 C2678 1.363 . S
C2674 H2651 0.950 . S
C2674 C2673 1.397 . S
C2674 C2675 1.334 . S
C2675 H2652 0.950 . S
C2675 C2674 1.334 . S
C2675 C2676 1.287 . S
C2676 C2675 1.287 . S
C2676 C2677 1.524 . S
C2676 H2695 0.913 . S
C2677 H2653 0.950 . S
C2677 C2676 1.524 . S
C2677 C2678 1.415 . S
C2678 H2654 0.950 . S
C2678 C2673 1.363 . S
C2678 C2677 1.415 . S
C2679 H2655 0.951 . S
C2679 C2680 1.366 . S
C2679 C2681 1.388 . S
C2680 C2679 1.366 . S
C2680 C2684 1.385 . S
C2681 H2656 0.951 . S
C2681 C2679 1.388 . S
C2681 C2682 1.366 . S
C2682 C2681 1.366 . S
C2682 C2683 1.414 . S
C2682 C2685 1.499 . S
C2683 H2657 0.950 . S
C2683 C2682 1.414 . S
C2683 C2684 1.374 . S
C2684 H2658 0.950 . S
C2684 C2680 1.385 . S
C2684 C2683 1.374 . S
C2685 C2682 1.499 . S
C2685 C2686 1.373 . S
C2685 C2687 1.389 . S
C2686 H2659 0.950 . S
C2686 C2672 1.377 . S
C2686 C2685 1.373 . S
C2687 C2671 1.377 . S
C2687 C2685 1.389 . S
C2687 C2688 1.524 . S
C2688 C2687 1.524 . S
C2688 C2689 1.397 . S
C2688 C2693 1.363 . S
C2689 H2660 0.950 . S
C2689 C2688 1.397 . S
C2689 C2690 1.334 . S
C2690 H2661 0.950 . S
C2690 C2689 1.334 . S
C2690 C2691 1.287 . S
C2691 C2690 1.287 . S
C2691 C2692 1.524 . S
C2691 H2694 0.999 . S
C2692 H2662 0.950 . S
C2692 C2691 1.524 . S
C2692 C2693 1.415 . S
C2693 H2663 0.950 . S
C2693 C2688 1.363 . S
C2693 C2692 1.415 . S
H2694 C2691 0.999 . S
H2695 C2676 0.913 . S
H2696 C2714 0.951 . S
H2697 C2716 0.951 . S
H2698 C2718 0.950 . S
H2699 C2719 0.950 . S
H2700 C2721 0.950 . S
H2701 C2724 0.950 . S
H2702 C2725 0.950 . S
H2703 C2727 0.950 . S
H2704 C2728 0.950 . S
H2705 C2729 0.951 . S
H2706 C2731 0.951 . S
H2707 C2733 0.950 . S
H2708 C2734 0.950 . S
H2709 C2736 0.950 . S
H2710 C2739 0.950 . S
H2711 C2740 0.950 . S
H2712 C2742 0.950 . S
H2713 C2743 0.950 . S
C2714 H2696 0.951 . S
C2714 C2715 1.366 . S
C2714 C2716 1.388 . S
C2715 C2714 1.366 . S
C2715 C2719 1.385 . S
C2716 H2697 0.951 . S
C2716 C2714 1.388 . S
C2716 C2717 1.366 . S
C2717 C2716 1.366 . S
C2717 C2718 1.414 . S
C2717 C2720 1.499 . S
C2718 H2698 0.950 . S
C2718 C2717 1.414 . S
C2718 C2719 1.374 . S
C2719 H2699 0.950 . S
C2719 C2715 1.385 . S
C2719 C2718 1.374 . S
C2720 C2717 1.499 . S
C2720 C2721 1.373 . S
C2720 C2722 1.389 . S
C2721 H2700 0.950 . S
C2721 C2720 1.373 . S
C2721 C2737 1.377 . S
C2722 C2720 1.389 . S
C2722 C2723 1.524 . S
C2722 C2736 1.377 . S
C2723 C2722 1.524 . S
C2723 C2724 1.397 . S
C2723 C2728 1.363 . S
C2724 H2701 0.950 . S
C2724 C2723 1.397 . S
C2724 C2725 1.334 . S
C2725 H2702 0.950 . S
C2725 C2724 1.334 . S
C2725 C2726 1.287 . S
C2726 C2725 1.287 . S
C2726 C2727 1.524 . S
C2726 H2745 0.913 . S
C2727 H2703 0.950 . S
C2727 C2726 1.524 . S
C2727 C2728 1.415 . S
C2728 H2704 0.950 . S
C2728 C2723 1.363 . S
C2728 C2727 1.415 . S
C2729 H2705 0.951 . S
C2729 C2730 1.366 . S
C2729 C2731 1.388 . S
C2730 C2729 1.366 . S
C2730 C2734 1.385 . S
C2731 H2706 0.951 . S
C2731 C2729 1.388 . S
C2731 C2732 1.366 . S
C2732 C2731 1.366 . S
C2732 C2733 1.414 . S
C2732 C2735 1.499 . S
C2733 H2707 0.950 . S
C2733 C2732 1.414 . S
C2733 C2734 1.374 . S
C2734 H2708 0.950 . S
C2734 C2730 1.385 . S
C2734 C2733 1.374 . S
C2735 C2732 1.499 . S
C2735 C2736 1.373 . S
C2735 C2737 1.389 . S
C2736 H2709 0.950 . S
C2736 C2722 1.377 . S
C2736 C2735 1.373 . S
C2737 C2721 1.377 . S
C2737 C2735 1.389 . S
C2737 C2738 1.524 . S
C2738 C2737 1.524 . S
C2738 C2739 1.397 . S
C2738 C2743 1.363 . S
C2739 H2710 0.950 . S
C2739 C2738 1.397 . S
C2739 C2740 1.334 . S
C2740 H2711 0.950 . S
C2740 C2739 1.334 . S
C2740 C2741 1.287 . S
C2741 C2740 1.287 . S
C2741 C2742 1.524 . S
C2741 H2744 0.999 . S
C2742 H2712 0.950 . S
C2742 C2741 1.524 . S
C2742 C2743 1.415 . S
C2743 H2713 0.950 . S
C2743 C2738 1.363 . S
C2743 C2742 1.415 . S
H2744 C2741 0.999 . S
H2745 C2726 0.913 . S
H2746 C2764 0.951 . S
H2747 C2766 0.951 . S
H2748 C2768 0.950 . S
H2749 C2769 0.950 . S
H2750 C2771 0.950 . S
H2751 C2774 0.950 . S
H2752 C2775 0.950 . S
H2753 C2777 0.950 . S
H2754 C2778 0.950 . S
H2755 C2779 0.951 . S
H2756 C2781 0.951 . S
H2757 C2783 0.950 . S
H2758 C2784 0.950 . S
H2759 C2786 0.950 . S
H2760 C2789 0.950 . S
H2761 C2790 0.950 . S
H2762 C2792 0.950 . S
H2763 C2793 0.950 . S
C2764 H2746 0.951 . S
C2764 C2765 1.366 . S
C2764 C2766 1.388 . S
C2765 C2764 1.366 . S
C2765 C2769 1.385 . S
C2766 H2747 0.951 . S
C2766 C2764 1.388 . S
C2766 C2767 1.366 . S
C2767 C2766 1.366 . S
C2767 C2768 1.414 . S
C2767 C2770 1.499 . S
C2768 H2748 0.950 . S
C2768 C2767 1.414 . S
C2768 C2769 1.374 . S
C2769 H2749 0.950 . S
C2769 C2765 1.385 . S
C2769 C2768 1.374 . S
C2770 C2767 1.499 . S
C2770 C2771 1.373 . S
C2770 C2772 1.389 . S
C2771 H2750 0.950 . S
C2771 C2770 1.373 . S
C2771 C2787 1.377 . S
C2772 C2770 1.389 . S
C2772 C2773 1.524 . S
C2772 C2786 1.377 . S
C2773 C2772 1.524 . S
C2773 C2774 1.397 . S
C2773 C2778 1.363 . S
C2774 H2751 0.950 . S
C2774 C2773 1.397 . S
C2774 C2775 1.334 . S
C2775 H2752 0.950 . S
C2775 C2774 1.334 . S
C2775 C2776 1.287 . S
C2776 C2775 1.287 . S
C2776 C2777 1.524 . S
C2776 H2795 0.913 . S
C2777 H2753 0.950 . S
C2777 C2776 1.524 . S
C2777 C2778 1.415 . S
C2778 H2754 0.950 . S
C2778 C2773 1.363 . S
C2778 C2777 1.415 . S
C2779 H2755 0.951 . S
C2779 C2780 1.366 . S
C2779 C2781 1.388 . S
C2780 C2779 1.366 . S
C2780 C2784 1.385 . S
C2781 H2756 0.951 . S
C2781 C2779 1.388 . S
C2781 C2782 1.366 . S
C2782 C2781 1.366 . S
C2782 C2783 1.414 . S
C2782 C2785 1.499 . S
C2783 H2757 0.950 . S
C2783 C2782 1.414 . S
C2783 C2784 1.374 . S
C2784 H2758 0.950 . S
C2784 C2780 1.385 . S
C2784 C2783 1.374 . S
C2785 C2782 1.499 . S
C2785 C2786 1.373 . S
C2785 C2787 1.389 . S
C2786 H2759 0.950 . S
C2786 C2772 1.377 . S
C2786 C2785 1.373 . S
C2787 C2771 1.377 . S
C2787 C2785 1.389 . S
C2787 C2788 1.524 . S
C2788 C2787 1.524 . S
C2788 C2789 1.397 . S
C2788 C2793 1.363 . S
C2789 H2760 0.950 . S
C2789 C2788 1.397 . S
C2789 C2790 1.334 . S
C2790 H2761 0.950 . S
C2790 C2789 1.334 . S
C2790 C2791 1.287 . S
C2791 C2790 1.287 . S
C2791 C2792 1.524 . S
C2791 H2794 0.999 . S
C2792 H2762 0.950 . S
C2792 C2791 1.524 . S
C2792 C2793 1.415 . S
C2793 H2763 0.950 . S
C2793 C2788 1.363 . S
C2793 C2792 1.415 . S
H2794 C2791 0.999 . S
H2795 C2776 0.913 . S
H2796 C2814 0.951 . S
H2797 C2816 0.951 . S
H2798 C2818 0.950 . S
H2799 C2819 0.950 . S
H2800 C2821 0.950 . S
H2801 C2824 0.950 . S
H2802 C2825 0.950 . S
H2803 C2827 0.950 . S
H2804 C2828 0.950 . S
H2805 C2829 0.951 . S
H2806 C2831 0.951 . S
H2807 C2833 0.950 . S
H2808 C2834 0.950 . S
H2809 C2836 0.950 . S
H2810 C2839 0.950 . S
H2811 C2840 0.950 . S
H2812 C2842 0.950 . S
H2813 C2843 0.950 . S
C2814 H2796 0.951 . S
C2814 C2815 1.366 . S
C2814 C2816 1.388 . S
C2815 C2814 1.366 . S
C2815 C2819 1.385 1_455 S
C2816 H2797 0.951 . S
C2816 C2814 1.388 . S
C2816 C2817 1.366 . S
C2817 C2816 1.366 . S
C2817 C2818 1.414 1_455 S
C2817 C2820 1.499 . S
C2818 H2798 0.950 . S
C2818 C2817 1.414 1_655 S
C2818 C2819 1.374 . S
C2819 H2799 0.950 . S
C2819 C2815 1.385 1_655 S
C2819 C2818 1.374 . S
C2820 C2817 1.499 . S
C2820 C2821 1.373 1_455 S
C2820 C2822 1.389 . S
C2821 H2800 0.950 . S
C2821 C2820 1.373 1_655 S
C2821 C2837 1.377 . S
C2822 C2820 1.389 . S
C2822 C2823 1.524 . S
C2822 C2836 1.377 . S
C2823 C2822 1.524 . S
C2823 C2824 1.397 . S
C2823 C2828 1.363 . S
C2824 H2801 0.950 . S
C2824 C2823 1.397 . S
C2824 C2825 1.334 . S
C2825 H2802 0.950 . S
C2825 C2824 1.334 . S
C2825 C2826 1.287 . S
C2826 C2825 1.287 . S
C2826 C2827 1.524 . S
C2826 H2845 0.913 . S
C2827 H2803 0.950 . S
C2827 C2826 1.524 . S
C2827 C2828 1.415 . S
C2828 H2804 0.950 . S
C2828 C2823 1.363 . S
C2828 C2827 1.415 . S
C2829 H2805 0.951 . S
C2829 C2830 1.366 . S
C2829 C2831 1.388 . S
C2830 C2829 1.366 . S
C2830 C2834 1.385 1_655 S
C2831 H2806 0.951 . S
C2831 C2829 1.388 . S
C2831 C2832 1.366 . S
C2832 C2831 1.366 . S
C2832 C2833 1.414 1_655 S
C2832 C2835 1.499 . S
C2833 H2807 0.950 . S
C2833 C2832 1.414 1_455 S
C2833 C2834 1.374 . S
C2834 H2808 0.950 . S
C2834 C2830 1.385 1_455 S
C2834 C2833 1.374 . S
C2835 C2832 1.499 . S
C2835 C2836 1.373 1_655 S
C2835 C2837 1.389 . S
C2836 H2809 0.950 . S
C2836 C2822 1.377 . S
C2836 C2835 1.373 1_455 S
C2837 C2821 1.377 . S
C2837 C2835 1.389 . S
C2837 C2838 1.524 . S
C2838 C2837 1.524 . S
C2838 C2839 1.397 . S
C2838 C2843 1.363 . S
C2839 H2810 0.950 . S
C2839 C2838 1.397 . S
C2839 C2840 1.334 . S
C2840 H2811 0.950 . S
C2840 C2839 1.334 . S
C2840 C2841 1.287 . S
C2841 C2840 1.287 . S
C2841 C2842 1.524 . S
C2841 H2844 0.999 . S
C2842 H2812 0.950 . S
C2842 C2841 1.524 . S
C2842 C2843 1.415 . S
C2843 H2813 0.950 . S
C2843 C2838 1.363 . S
C2843 C2842 1.415 . S
H2844 C2841 0.999 . S
H2845 C2826 0.913 . S
H2846 C2864 0.951 . S
H2847 C2866 0.951 . S
H2848 C2868 0.950 . S
H2849 C2869 0.950 . S
H2850 C2871 0.950 . S
H2851 C2874 0.950 . S
H2852 C2875 0.950 . S
H2853 C2877 0.950 . S
H2854 C2878 0.950 . S
H2855 C2879 0.951 . S
H2856 C2881 0.951 . S
H2857 C2883 0.950 . S
H2858 C2884 0.950 . S
H2859 C2886 0.950 . S
H2860 C2889 0.950 . S
H2861 C2890 0.950 . S
H2862 C2892 0.950 . S
H2863 C2893 0.950 . S
C2864 H2846 0.951 . S
C2864 C2865 1.366 . S
C2864 C2866 1.388 . S
C2865 C2864 1.366 . S
C2865 C2869 1.385 . S
C2866 H2847 0.951 . S
C2866 C2864 1.388 . S
C2866 C2867 1.366 . S
C2867 C2866 1.366 . S
C2867 C2868 1.414 . S
C2867 C2870 1.499 . S
C2868 H2848 0.950 . S
C2868 C2867 1.414 . S
C2868 C2869 1.374 . S
C2869 H2849 0.950 . S
C2869 C2865 1.385 . S
C2869 C2868 1.374 . S
C2870 C2867 1.499 . S
C2870 C2871 1.373 . S
C2870 C2872 1.389 . S
C2871 H2850 0.950 . S
C2871 C2870 1.373 . S
C2871 C2887 1.377 . S
C2872 C2870 1.389 . S
C2872 C2873 1.524 . S
C2872 C2886 1.377 . S
C2873 C2872 1.524 . S
C2873 C2874 1.397 . S
C2873 C2878 1.363 . S
C2874 H2851 0.950 . S
C2874 C2873 1.397 . S
C2874 C2875 1.334 . S
C2875 H2852 0.950 . S
C2875 C2874 1.334 . S
C2875 C2876 1.287 . S
C2876 C2875 1.287 . S
C2876 C2877 1.524 . S
C2876 H2895 0.913 . S
C2877 H2853 0.950 . S
C2877 C2876 1.524 . S
C2877 C2878 1.415 . S
C2878 H2854 0.950 . S
C2878 C2873 1.363 . S
C2878 C2877 1.415 . S
C2879 H2855 0.951 . S
C2879 C2880 1.366 . S
C2879 C2881 1.388 . S
C2880 C2879 1.366 . S
C2880 C2884 1.385 . S
C2881 H2856 0.951 . S
C2881 C2879 1.388 . S
C2881 C2882 1.366 . S
C2882 C2881 1.366 . S
C2882 C2883 1.414 . S
C2882 C2885 1.499 . S
C2883 H2857 0.950 . S
C2883 C2882 1.414 . S
C2883 C2884 1.374 . S
C2884 H2858 0.950 . S
C2884 C2880 1.385 . S
C2884 C2883 1.374 . S
C2885 C2882 1.499 . S
C2885 C2886 1.373 . S
C2885 C2887 1.389 . S
C2886 H2859 0.950 . S
C2886 C2872 1.377 . S
C2886 C2885 1.373 . S
C2887 C2871 1.377 . S
C2887 C2885 1.389 . S
C2887 C2888 1.524 . S
C2888 C2887 1.524 . S
C2888 C2889 1.397 . S
C2888 C2893 1.363 . S
C2889 H2860 0.950 . S
C2889 C2888 1.397 . S
C2889 C2890 1.334 . S
C2890 H2861 0.950 . S
C2890 C2889 1.334 . S
C2890 C2891 1.287 . S
C2891 C2890 1.287 . S
C2891 C2892 1.524 . S
C2891 H2894 0.999 . S
C2892 H2862 0.950 . S
C2892 C2891 1.524 . S
C2892 C2893 1.415 . S
C2893 H2863 0.950 . S
C2893 C2888 1.363 . S
C2893 C2892 1.415 . S
H2894 C2891 0.999 . S
H2895 C2876 0.913 . S
H2896 C2914 0.951 . S
H2897 C2916 0.951 . S
H2898 C2918 0.950 . S
H2899 C2919 0.950 . S
H2900 C2921 0.950 . S
H2901 C2924 0.950 . S
H2902 C2925 0.950 . S
H2903 C2927 0.950 . S
H2904 C2928 0.950 . S
H2905 C2929 0.951 . S
H2906 C2931 0.951 . S
H2907 C2933 0.950 . S
H2908 C2934 0.950 . S
H2909 C2936 0.950 . S
H2910 C2939 0.950 . S
H2911 C2940 0.950 . S
H2912 C2942 0.950 . S
H2913 C2943 0.950 . S
C2914 H2896 0.951 . S
C2914 C2915 1.366 1_565 S
C2914 C2916 1.388 . S
C2915 C2914 1.366 1_545 S
C2915 C2919 1.385 . S
C2916 H2897 0.951 . S
C2916 C2914 1.388 . S
C2916 C2917 1.366 1_565 S
C2917 C2916 1.366 1_545 S
C2917 C2918 1.414 . S
C2917 C2920 1.499 . S
C2918 H2898 0.950 . S
C2918 C2917 1.414 . S
C2918 C2919 1.374 . S
C2919 H2899 0.950 . S
C2919 C2915 1.385 . S
C2919 C2918 1.374 . S
C2920 C2917 1.499 . S
C2920 C2921 1.373 . S
C2920 C2922 1.389 1_545 S
C2921 H2900 0.950 . S
C2921 C2920 1.373 . S
C2921 C2937 1.377 . S
C2922 C2920 1.389 1_565 S
C2922 C2923 1.524 . S
C2922 C2936 1.377 . S
C2923 C2922 1.524 . S
C2923 C2924 1.397 . S
C2923 C2928 1.363 . S
C2924 H2901 0.950 . S
C2924 C2923 1.397 . S
C2924 C2925 1.334 . S
C2925 H2902 0.950 . S
C2925 C2924 1.334 . S
C2925 C2926 1.287 . S
C2926 C2925 1.287 . S
C2926 C2927 1.524 . S
C2926 H2945 0.913 . S
C2927 H2903 0.950 . S
C2927 C2926 1.524 . S
C2927 C2928 1.415 . S
C2928 H2904 0.950 . S
C2928 C2923 1.363 . S
C2928 C2927 1.415 . S
C2929 H2905 0.951 . S
C2929 C2930 1.366 1_545 S
C2929 C2931 1.388 . S
C2930 C2929 1.366 1_565 S
C2930 C2934 1.385 . S
C2931 H2906 0.951 . S
C2931 C2929 1.388 . S
C2931 C2932 1.366 1_545 S
C2932 C2931 1.366 1_565 S
C2932 C2933 1.414 . S
C2932 C2935 1.499 . S
C2933 H2907 0.950 . S
C2933 C2932 1.414 . S
C2933 C2934 1.374 . S
C2934 H2908 0.950 . S
C2934 C2930 1.385 . S
C2934 C2933 1.374 . S
C2935 C2932 1.499 . S
C2935 C2936 1.373 . S
C2935 C2937 1.389 1_565 S
C2936 H2909 0.950 . S
C2936 C2922 1.377 . S
C2936 C2935 1.373 . S
C2937 C2921 1.377 . S
C2937 C2935 1.389 1_545 S
C2937 C2938 1.524 . S
C2938 C2937 1.524 . S
C2938 C2939 1.397 . S
C2938 C2943 1.363 . S
C2939 H2910 0.950 . S
C2939 C2938 1.397 . S
C2939 C2940 1.334 . S
C2940 H2911 0.950 . S
C2940 C2939 1.334 . S
C2940 C2941 1.287 . S
C2941 C2940 1.287 . S
C2941 C2942 1.524 . S
C2941 H2944 0.999 . S
C2942 H2912 0.950 . S
C2942 C2941 1.524 . S
C2942 C2943 1.415 . S
C2943 H2913 0.950 . S
C2943 C2938 1.363 . S
C2943 C2942 1.415 . S
H2944 C2941 0.999 . S
H2945 C2926 0.913 . S
H2946 C2964 0.951 . S
H2947 C2966 0.951 . S
H2948 C2968 0.950 . S
H2949 C2969 0.950 . S
H2950 C2971 0.950 . S
H2951 C2974 0.950 . S
H2952 C2975 0.950 . S
H2953 C2977 0.950 . S
H2954 C2978 0.950 . S
H2955 C2979 0.951 . S
H2956 C2981 0.951 . S
H2957 C2983 0.950 . S
H2958 C2984 0.950 . S
H2959 C2986 0.950 . S
H2960 C2989 0.950 . S
H2961 C2990 0.950 . S
H2962 C2992 0.950 . S
H2963 C2993 0.950 . S
C2964 H2946 0.951 . S
C2964 C2965 1.366 . S
C2964 C2966 1.388 . S
C2965 C2964 1.366 . S
C2965 C2969 1.385 . S
C2966 H2947 0.951 . S
C2966 C2964 1.388 . S
C2966 C2967 1.366 . S
C2967 C2966 1.366 . S
C2967 C2968 1.414 . S
C2967 C2970 1.511 . S
C2968 H2948 0.950 . S
C2968 C2967 1.414 . S
C2968 C2969 1.374 . S
C2969 H2949 0.950 . S
C2969 C2965 1.385 . S
C2969 C2968 1.374 . S
C2970 C2967 1.511 . S
C2970 C2971 1.449 . S
C2970 C2972 1.309 1_565 S
C2971 H2950 0.950 . S
C2971 C2970 1.449 . S
C2971 C2987 1.377 . S
C2972 C2970 1.309 1_545 S
C2972 C2973 1.524 . S
C2972 C2986 1.377 . S
C2973 C2972 1.524 . S
C2973 C2974 1.397 . S
C2973 C2978 1.363 . S
C2974 H2951 0.950 . S
C2974 C2973 1.397 . S
C2974 C2975 1.334 . S
C2975 H2952 0.950 . S
C2975 C2974 1.334 . S
C2975 C2976 1.287 . S
C2976 C2975 1.287 . S
C2976 C2977 1.524 . S
C2976 H2995 0.913 . S
C2977 H2953 0.950 . S
C2977 C2976 1.524 . S
C2977 C2978 1.415 . S
C2978 H2954 0.950 . S
C2978 C2973 1.363 . S
C2978 C2977 1.415 . S
C2979 H2955 0.951 . S
C2979 C2980 1.366 . S
C2979 C2981 1.388 . S
C2980 C2979 1.366 . S
C2980 C2984 1.385 . S
C2981 H2956 0.951 . S
C2981 C2979 1.388 . S
C2981 C2982 1.366 . S
C2982 C2981 1.366 . S
C2982 C2983 1.414 . S
C2982 C2985 1.510 . S
C2983 H2957 0.950 . S
C2983 C2982 1.414 . S
C2983 C2984 1.374 . S
C2984 H2958 0.950 . S
C2984 C2980 1.385 . S
C2984 C2983 1.374 . S
C2985 C2982 1.510 . S
C2985 C2986 1.448 . S
C2985 C2987 1.310 1_545 S
C2986 H2959 0.950 . S
C2986 C2972 1.377 . S
C2986 C2985 1.448 . S
C2987 C2971 1.377 . S
C2987 C2985 1.310 1_565 S
C2987 C2988 1.524 . S
C2988 C2987 1.524 . S
C2988 C2989 1.397 . S
C2988 C2993 1.363 . S
C2989 H2960 0.950 . S
C2989 C2988 1.397 . S
C2989 C2990 1.334 . S
C2990 H2961 0.950 . S
C2990 C2989 1.334 . S
C2990 C2991 1.287 . S
C2991 C2990 1.287 . S
C2991 C2992 1.524 . S
C2991 H2994 0.999 . S
C2992 H2962 0.950 . S
C2992 C2991 1.524 . S
C2992 C2993 1.415 . S
C2993 H2963 0.950 . S
C2993 C2988 1.363 . S
C2993 C2992 1.415 . S
H2994 C2991 0.999 . S
H2995 C2976 0.913 . S
H2996 C3014 0.944 . S
H2997 C3016 0.973 1_455 S
H2998 C3018 0.950 . S
H2999 C3019 0.950 . S
H3000 C3021 0.950 . S
H3001 C3024 0.950 . S
H3002 C3025 0.950 . S
H3003 C3027 0.950 . S
H3004 C3028 0.950 . S
H3005 C3029 0.942 . S
H3006 C3031 0.951 1_655 S
H3007 C3033 0.950 . S
H3008 C3034 0.950 . S
H3009 C3036 0.950 . S
H3010 C3039 0.950 . S
H3011 C3040 0.950 . S
H3012 C3042 0.950 . S
H3013 C3043 0.950 . S
C3014 H2996 0.944 . S
C3014 C3015 1.366 . S
C3014 C3016 1.403 . S
C3015 C3014 1.366 . S
C3015 C3019 1.385 . S
C3016 H2997 0.973 1_655 S
C3016 C3014 1.403 . S
C3016 C3017 1.345 . S
C3017 C3016 1.345 . S
C3017 C3018 1.414 . S
C3017 C3020 1.499 . S
C3018 H2998 0.950 . S
C3018 C3017 1.414 . S
C3018 C3019 1.374 . S
C3019 H2999 0.950 . S
C3019 C3015 1.385 . S
C3019 C3018 1.374 . S
C3020 C3017 1.499 . S
C3020 C3021 1.373 1_655 S
C3020 C3022 1.389 . S
C3021 H3000 0.950 . S
C3021 C3020 1.373 1_455 S
C3021 C3037 1.377 . S
C3022 C3020 1.389 . S
C3022 C3023 1.524 . S
C3022 C3036 1.377 . S
C3023 C3022 1.524 . S
C3023 C3024 1.397 . S
C3023 C3028 1.363 . S
C3024 H3001 0.950 . S
C3024 C3023 1.397 . S
C3024 C3025 1.334 . S
C3025 H3002 0.950 . S
C3025 C3024 1.334 . S
C3025 C3026 1.287 . S
C3026 C3025 1.287 . S
C3026 C3027 1.524 . S
C3026 H3045 0.913 . S
C3027 H3003 0.950 . S
C3027 C3026 1.524 . S
C3027 C3028 1.415 . S
C3028 H3004 0.950 . S
C3028 C3023 1.363 . S
C3028 C3027 1.415 . S
C3029 H3005 0.942 . S
C3029 C3030 1.366 . S
C3029 C3031 1.388 . S
C3030 C3029 1.366 . S
C3030 C3034 1.385 . S
C3031 H3006 0.951 1_455 S
C3031 C3029 1.388 . S
C3031 C3032 1.366 . S
C3032 C3031 1.366 . S
C3032 C3033 1.414 . S
C3032 C3035 1.499 . S
C3033 H3007 0.950 . S
C3033 C3032 1.414 . S
C3033 C3034 1.374 . S
C3034 H3008 0.950 . S
C3034 C3030 1.385 . S
C3034 C3033 1.374 . S
C3035 C3032 1.499 . S
C3035 C3036 1.373 1_455 S
C3035 C3037 1.389 . S
C3036 H3009 0.950 . S
C3036 C3022 1.377 . S
C3036 C3035 1.373 1_655 S
C3037 C3021 1.377 . S
C3037 C3035 1.389 . S
C3037 C3038 1.524 . S
C3038 C3037 1.524 . S
C3038 C3039 1.397 . S
C3038 C3043 1.363 . S
C3039 H3010 0.950 . S
C3039 C3038 1.397 . S
C3039 C3040 1.334 . S
C3040 H3011 0.950 . S
C3040 C3039 1.334 . S
C3040 C3041 1.287 . S
C3041 C3040 1.287 . S
C3041 C3042 1.524 . S
C3041 H3044 0.999 . S
C3042 H3012 0.950 . S
C3042 C3041 1.524 . S
C3042 C3043 1.415 . S
C3043 H3013 0.950 . S
C3043 C3038 1.363 . S
C3043 C3042 1.415 . S
H3044 C3041 0.999 . S
H3045 C3026 0.913 . S
H3046 C3064 0.951 . S
H3047 C3066 0.951 . S
H3048 C3068 0.950 . S
H3049 C3069 0.950 . S
H3050 C3071 0.950 . S
H3051 C3074 0.950 . S
H3052 C3075 0.950 . S
H3053 C3077 0.950 . S
H3054 C3078 0.950 . S
H3055 C3079 0.951 . S
H3056 C3081 0.951 . S
H3057 C3083 0.950 . S
H3058 C3084 0.950 . S
H3059 C3086 0.950 . S
H3060 C3089 0.950 . S
H3061 C3090 0.950 . S
H3062 C3092 0.950 . S
H3063 C3093 0.950 . S
C3064 H3046 0.951 . S
C3064 C3065 1.366 . S
C3064 C3066 1.388 . S
C3065 C3064 1.366 . S
C3065 C3069 1.385 . S
C3066 H3047 0.951 . S
C3066 C3064 1.388 . S
C3066 C3067 1.366 . S
C3067 C3066 1.366 . S
C3067 C3068 1.414 . S
C3067 C3070 1.499 . S
C3068 H3048 0.950 . S
C3068 C3067 1.414 . S
C3068 C3069 1.374 . S
C3069 H3049 0.950 . S
C3069 C3065 1.385 . S
C3069 C3068 1.374 . S
C3070 C3067 1.499 . S
C3070 C3071 1.373 . S
C3070 C3072 1.389 . S
C3071 H3050 0.950 . S
C3071 C3070 1.373 . S
C3071 C3087 1.377 . S
C3072 C3070 1.389 . S
C3072 C3073 1.524 . S
C3072 C3086 1.377 . S
C3073 C3072 1.524 . S
C3073 C3074 1.397 . S
C3073 C3078 1.363 . S
C3074 H3051 0.950 . S
C3074 C3073 1.397 . S
C3074 C3075 1.334 . S
C3075 H3052 0.950 . S
C3075 C3074 1.334 . S
C3075 C3076 1.287 . S
C3076 C3075 1.287 . S
C3076 C3077 1.524 . S
C3076 H3095 0.913 . S
C3077 H3053 0.950 . S
C3077 C3076 1.524 . S
C3077 C3078 1.415 . S
C3078 H3054 0.950 . S
C3078 C3073 1.363 . S
C3078 C3077 1.415 . S
C3079 H3055 0.951 . S
C3079 C3080 1.366 . S
C3079 C3081 1.388 . S
C3080 C3079 1.366 . S
C3080 C3084 1.385 . S
C3081 H3056 0.951 . S
C3081 C3079 1.388 . S
C3081 C3082 1.366 . S
C3082 C3081 1.366 . S
C3082 C3083 1.414 . S
C3082 C3085 1.499 . S
C3083 H3057 0.950 . S
C3083 C3082 1.414 . S
C3083 C3084 1.374 . S
C3084 H3058 0.950 . S
C3084 C3080 1.385 . S
C3084 C3083 1.374 . S
C3085 C3082 1.499 . S
C3085 C3086 1.373 . S
C3085 C3087 1.389 . S
C3086 H3059 0.950 . S
C3086 C3072 1.377 . S
C3086 C3085 1.373 . S
C3087 C3071 1.377 . S
C3087 C3085 1.389 . S
C3087 C3088 1.524 . S
C3088 C3087 1.524 . S
C3088 C3089 1.397 . S
C3088 C3093 1.363 . S
C3089 H3060 0.950 . S
C3089 C3088 1.397 . S
C3089 C3090 1.334 . S
C3090 H3061 0.950 . S
C3090 C3089 1.334 . S
C3090 C3091 1.287 . S
C3091 C3090 1.287 . S
C3091 C3092 1.524 . S
C3091 H3094 0.999 . S
C3092 H3062 0.950 . S
C3092 C3091 1.524 . S
C3092 C3093 1.415 . S
C3093 H3063 0.950 . S
C3093 C3088 1.363 . S
C3093 C3092 1.415 . S
H3094 C3091 0.999 . S
H3095 C3076 0.913 . S
C415 C63 1.545 . S
C430 C8 1.545 . S
C465 C41 1.545 . S
C480 C19 1.545 . S
C515 C30 1.545 . S
C530 C52 1.545 . S
C565 C74 1.530 . S
C580 C129 1.530 . S
C615 C107 1.529 . S
C630 C85 1.530 . S
C665 C96 1.530 . S
C680 C118 1.530 . S
C715 C195 1.545 . S
C730 C140 1.545 . S
C765 C173 1.545 . S
C780 C151 1.545 . S
C815 C184 1.545 . S
C830 C162 1.545 . S
C865 C261 1.530 . S
C880 C206 1.529 . S
C915 C217 1.529 . S
C930 C239 1.529 . S
C965 C250 1.530 . S
C980 C228 1.530 . S
C1015 C272 1.545 . S
C1030 C327 1.545 . S
C1065 C283 1.545 . S
C1080 C305 1.545 . S
C1115 C316 1.545 . S
C1130 C294 1.545 . S
C1165 C393 1.530 . S
C1180 C338 1.530 . S
C1215 C349 1.529 . S
C1230 C371 1.530 . S
C1265 C360 1.530 . S
C1280 C382 1.530 . S
C1315 C5 1.397 . S
C1330 C203 1.287 . S
C1365 C214 1.288 . S
C1380 C16 1.397 . S
C1415 C225 1.287 . S
C1430 C27 1.397 . S
C1465 C38 1.397 . S
C1480 C368 1.287 . S
C1515 C49 1.396 . S
C1530 C379 1.289 . S
C1565 C390 1.288 . S
C1580 C60 1.397 . S
C1615 C71 1.287 . S
C1630 C269 1.397 . S
C1665 C82 1.286 . S
C1680 C280 1.398 . S
C1715 C93 1.289 . S
C1730 C291 1.396 . S
C1765 C170 1.397 . S
C1780 C104 1.287 . S
C1815 C181 1.397 . S
C1830 C115 1.286 . S
C1865 C126 1.286 . S
C1880 C192 1.397 . S
C1915 C335 1.288 . S
C1930 C137 1.451 . S
C1965 C346 1.288 . S
C1980 C148 1.395 . S
C2015 C159 1.386 . S
C2030 C357 1.287 . S
C2065 C236 1.287 . S
C2080 C302 1.455 . S
C2115 C247 1.287 . S
C2130 C313 1.384 . S
C2165 C258 1.287 . S
C2180 C324 1.396 . S
C2215 C7 1.498 . S
C2230 C183 1.499 . S
C2265 C194 1.499 . S
C2280 C18 1.499 . S
C2315 C172 1.499 . S
C2330 C29 1.498 . S
C2365 C40 1.499 . S
C2380 C293 1.498 . S
C2415 C271 1.499 . S
C2430 C51 1.498 . S
C2465 C282 1.498 . S
C2480 C62 1.499 . S
C2515 C381 1.462 . S
C2530 C73 1.461 . S
C2565 C84 1.462 . S
C2580 C392 1.461 . S
C2615 C370 1.462 . S
C2630 C95 1.461 . S
C2665 C227 1.461 . S
C2680 C106 1.461 . S
C2715 C117 1.462 . S
C2730 C205 1.461 . S
C2765 C216 1.461 . S
C2780 C128 1.462 . S
C2815 C315 1.498 . S
C2830 C139 1.498 . S
C2865 C326 1.498 . S
C2880 C150 1.498 . S
C2915 C161 1.498 . S
C2930 C304 1.499 . S
C2965 C359 1.460 . S
C2980 C238 1.461 . S
C3015 C249 1.462 . S
C3030 C337 1.461 . S
C3065 C260 1.462 . S
C3080 C348 1.462 . S
