# Generated by pormake.
# Topology uns, (4)-cn, num edge types: 1
# Building blocks:
#     Node 0, Type 0, BuildingBlock: KUFVIS_clean_sbu_0, # of connection points: 4
#     Node 1, Type 0, BuildingBlock: KUFVIS_clean_sbu_0, # of connection points: 4
#     Node 2, Type 0, BuildingBlock: KUFVIS_clean_sbu_0, # of connection points: 4
#     Node 3, Type 0, BuildingBlock: KUFVIS_clean_sbu_0, # of connection points: 4
#     Node 4, Type 0, BuildingBlock: KUFVIS_clean_sbu_0, # of connection points: 4
#     Node 5, Type 0, BuildingBlock: KUFVIS_clean_sbu_0, # of connection points: 4
#     Node 6, Type 0, BuildingBlock: KUFVIS_clean_sbu_0, # of connection points: 4
#     Node 7, Type 0, BuildingBlock: KUFVIS_clean_sbu_0, # of connection points: 4
#     Node 8, Type 0, BuildingBlock: KUFVIS_clean_sbu_0, # of connection points: 4
#     Node 9, Type 0, BuildingBlock: KUFVIS_clean_sbu_0, # of connection points: 4
#     Node 10, Type 0, BuildingBlock: KUFVIS_clean_sbu_0, # of connection points: 4
#     Node 11, Type 0, BuildingBlock: KUFVIS_clean_sbu_0, # of connection points: 4
#     Node 12, Type 0, BuildingBlock: KUFVIS_clean_sbu_0, # of connection points: 4
#     Node 13, Type 0, BuildingBlock: KUFVIS_clean_sbu_0, # of connection points: 4
#     Node 14, Type 0, BuildingBlock: KUFVIS_clean_sbu_0, # of connection points: 4
#     Node 15, Type 0, BuildingBlock: KUFVIS_clean_sbu_0, # of connection points: 4
#     Node 16, Type 0, BuildingBlock: KUFVIS_clean_sbu_0, # of connection points: 4
#     Node 17, Type 0, BuildingBlock: KUFVIS_clean_sbu_0, # of connection points: 4
#     Node 18, Type 0, BuildingBlock: KUFVIS_clean_sbu_0, # of connection points: 4
#     Node 19, Type 0, BuildingBlock: KUFVIS_clean_sbu_0, # of connection points: 4
#     Node 20, Type 0, BuildingBlock: KUFVIS_clean_sbu_0, # of connection points: 4
#     Node 21, Type 0, BuildingBlock: KUFVIS_clean_sbu_0, # of connection points: 4
#     Node 22, Type 0, BuildingBlock: KUFVIS_clean_sbu_0, # of connection points: 4
#     Node 23, Type 0, BuildingBlock: KUFVIS_clean_sbu_0, # of connection points: 4
#     Node 24, Type 0, BuildingBlock: KUFVIS_clean_sbu_0, # of connection points: 4
#     Node 25, Type 0, BuildingBlock: KUFVIS_clean_sbu_0, # of connection points: 4
#     Node 26, Type 0, BuildingBlock: KUFVIS_clean_sbu_0, # of connection points: 4
#     Node 27, Type 0, BuildingBlock: KUFVIS_clean_sbu_0, # of connection points: 4
#     Node 28, Type 0, BuildingBlock: KUFVIS_clean_sbu_0, # of connection points: 4
#     Node 29, Type 0, BuildingBlock: KUFVIS_clean_sbu_0, # of connection points: 4
#     Node 30, Type 0, BuildingBlock: KUFVIS_clean_sbu_0, # of connection points: 4
#     Node 31, Type 0, BuildingBlock: KUFVIS_clean_sbu_0, # of connection points: 4
#     Node 32, Type 0, BuildingBlock: KUFVIS_clean_sbu_0, # of connection points: 4
#     Node 33, Type 0, BuildingBlock: KUFVIS_clean_sbu_0, # of connection points: 4
#     Node 34, Type 0, BuildingBlock: KUFVIS_clean_sbu_0, # of connection points: 4
#     Node 35, Type 0, BuildingBlock: KUFVIS_clean_sbu_0, # of connection points: 4
#     Edge 36, Type (0, 0), None
#     Edge 37, Type (0, 0), None
#     Edge 38, Type (0, 0), None
#     Edge 39, Type (0, 0), None
#     Edge 40, Type (0, 0), None
#     Edge 41, Type (0, 0), None
#     Edge 42, Type (0, 0), None
#     Edge 43, Type (0, 0), None
#     Edge 44, Type (0, 0), None
#     Edge 45, Type (0, 0), None
#     Edge 46, Type (0, 0), None
#     Edge 47, Type (0, 0), None
#     Edge 48, Type (0, 0), None
#     Edge 49, Type (0, 0), None
#     Edge 50, Type (0, 0), None
#     Edge 51, Type (0, 0), None
#     Edge 52, Type (0, 0), None
#     Edge 53, Type (0, 0), None
#     Edge 54, Type (0, 0), None
#     Edge 55, Type (0, 0), None
#     Edge 56, Type (0, 0), None
#     Edge 57, Type (0, 0), None
#     Edge 58, Type (0, 0), None
#     Edge 59, Type (0, 0), None
#     Edge 60, Type (0, 0), None
#     Edge 61, Type (0, 0), None
#     Edge 62, Type (0, 0), None
#     Edge 63, Type (0, 0), None
#     Edge 64, Type (0, 0), None
#     Edge 65, Type (0, 0), None
#     Edge 66, Type (0, 0), None
#     Edge 67, Type (0, 0), None
#     Edge 68, Type (0, 0), None
#     Edge 69, Type (0, 0), None
#     Edge 70, Type (0, 0), None
#     Edge 71, Type (0, 0), None
#     Edge 72, Type (0, 0), None
#     Edge 73, Type (0, 0), None
#     Edge 74, Type (0, 0), None
#     Edge 75, Type (0, 0), None
#     Edge 76, Type (0, 0), None
#     Edge 77, Type (0, 0), None
#     Edge 78, Type (0, 0), None
#     Edge 79, Type (0, 0), None
#     Edge 80, Type (0, 0), None
#     Edge 81, Type (0, 0), None
#     Edge 82, Type (0, 0), None
#     Edge 83, Type (0, 0), None
#     Edge 84, Type (0, 0), None
#     Edge 85, Type (0, 0), None
#     Edge 86, Type (0, 0), None
#     Edge 87, Type (0, 0), None
#     Edge 88, Type (0, 0), None
#     Edge 89, Type (0, 0), None
#     Edge 90, Type (0, 0), None
#     Edge 91, Type (0, 0), None
#     Edge 92, Type (0, 0), None
#     Edge 93, Type (0, 0), None
#     Edge 94, Type (0, 0), None
#     Edge 95, Type (0, 0), None
#     Edge 96, Type (0, 0), None
#     Edge 97, Type (0, 0), None
#     Edge 98, Type (0, 0), None
#     Edge 99, Type (0, 0), None
#     Edge 100, Type (0, 0), None
#     Edge 101, Type (0, 0), None
#     Edge 102, Type (0, 0), None
#     Edge 103, Type (0, 0), None
#     Edge 104, Type (0, 0), None
#     Edge 105, Type (0, 0), None
#     Edge 106, Type (0, 0), None
#     Edge 107, Type (0, 0), None
# Relax obj value: 0.150
# Max RMSD: 0.299
# Mean RMSD: 0.272
data_MOF--net-uns--node1-KUFVIS_clean_sbu_0--edge1-none
_symmetry_space_group_name_H-M    P1
_symmetry_Int_Tables_number       1
_symmetry_cell_setting            triclinic
loop_
_symmetry_equiv_pos_as_xyz
'x, y, z'
_cell_length_a     24.784378
_cell_length_b     25.494306
_cell_length_c     27.476047
_cell_angle_alpha  84.976188
_cell_angle_beta   90.534398
_cell_angle_gamma 119.14061
loop_
_atom_site_label
_atom_site_type_symbol
_atom_site_fract_x
_atom_site_fract_y
_atom_site_fract_z
_atom_type_partial_charge
Mn0 Mn 0.21711 0.18802 0.06159 0.0
Mn1 Mn 0.10059 0.06753 0.12001 0.0
C2 C 0.11787 0.17587 0.03506 0.0
C3 C 0.28859 0.28963 0.07265 0.0
C4 C 0.16428 0.06105 0.02589 0.0
O5 O 0.26133 0.17038 0.1224 0.0
O6 O 0.17782 0.10468 0.16479 0.0
C7 C 0.07421 0.09449 0.21718 0.0
N8 N 0.05457 0.07447 0.17235 0.0
C9 C 0.95063 0.04901 0.19391 0.0
C10 C -0.0288 0.0726 0.23878 0.0
C11 C 0.0326 0.09425 0.25098 0.0
C12 C -0.00654 0.04643 0.16306 0.0
H13 H 0.12147 0.11186 0.22742 0.0
C14 C 0.23569 0.14543 0.16437 0.0
O15 O 0.30158 0.26114 0.04176 0.0
O16 O 0.23484 0.26065 0.09322 0.0
N17 N 0.02226 0.02805 0.0886 0.0
C18 C 0.00773 0.00062 0.04617 0.0
C19 C 0.94684 0.97407 0.03043 0.0
C20 C 0.90058 0.97455 0.05885 0.0
C21 C 0.91535 -0.00044 0.10363 0.0
C22 C -0.0233 0.02373 0.11821 0.0
H23 H 0.04152 -0.00234 0.02439 0.0
O24 O 0.16965 0.20621 0.01095 0.0
O25 O 0.12422 0.14999 0.07856 0.0
O26 O 0.20588 0.11707 0.01783 0.0
O27 O 0.1367 0.0425 0.06808 0.0
C28 C 0.8717 0.00243 0.13394 0.0
C29 C 0.88967 0.02824 0.17853 0.0
H30 H 0.93982 0.0719 0.26555 0.0
H31 H 0.04775 0.11079 0.28631 0.0
H32 H 0.93567 0.95319 -0.00358 0.0
H33 H 0.85376 0.95475 0.04631 0.0
H34 H 0.82429 0.98518 0.12327 0.0
H35 H 0.85583 0.03094 0.20084 0.0
Mn36 Mn 0.75547 0.0237 0.08366 0.0
Mn37 Mn 0.69532 0.10215 0.01807 0.0
C38 C 0.64432 -0.00752 0.07914 0.0
C39 C 0.70965 0.92084 0.04901 0.0
C40 C 0.76309 0.13587 0.12475 0.0
O41 O 0.83459 0.09698 0.05098 0.0
O42 O 0.78421 0.11236 -0.01053 0.0
C43 C 0.66057 0.18672 0.89191 0.0
N44 N 0.64404 0.16301 0.93976 0.0
C45 C 0.56333 0.19289 0.93709 0.0
C46 C 0.58349 0.21795 0.88918 0.0
C47 C 0.63161 0.21496 0.86722 0.0
C48 C 0.59025 0.16081 0.96335 0.0
H49 H 0.69679 0.18522 0.87202 0.0
C50 C 0.83618 0.12193 0.00833 0.0
O51 O 0.69455 0.92728 0.09188 0.0
O52 O 0.75113 0.9707 0.02858 0.0
N53 N 0.60857 0.09263 0.06471 0.0
C54 C 0.63996 0.1053 0.11486 0.0
C55 C 0.65972 0.17067 0.13557 0.0
C56 C 0.61818 0.23745 0.08151 0.0
C57 C 0.57814 0.20385 0.03386 0.0
C58 C 0.57284 0.13645 0.02017 0.0
H59 H 0.64505 0.07084 0.13682 0.0
O60 O 0.66354 0.96371 0.10855 0.0
O61 O 0.68915 0.03432 0.05395 0.0
O62 O 0.75946 0.08338 0.13616 0.0
O63 O 0.74978 0.14879 0.0797 0.0
C64 C 0.54724 0.22934 0.00792 0.0
C65 C 0.5303 0.21433 0.9614 0.0
H66 H 0.56418 0.24314 0.8691 0.0
H67 H 0.64646 0.23449 0.83037 0.0
H68 H 0.67418 0.17331 0.17334 0.0
H69 H 0.61795 0.27878 0.08875 0.0
H70 H 0.54038 0.26386 0.02251 0.0
H71 H 0.50779 0.2363 0.9412 0.0
Mn72 Mn 0.90046 0.75436 0.07694 0.0
Mn73 Mn 0.80166 0.59575 0.09321 0.0
C74 C 0.93982 0.68278 0.07457 0.0
C75 C -0.02796 0.82939 0.00587 0.0
C76 C 0.84031 0.67705 0.1661 0.0
O77 O 0.82261 0.76246 0.05247 0.0
O78 O 0.75698 0.66168 0.0628 0.0
C79 C 0.7198 0.47541 -0.0111 0.0
N80 N 0.75692 0.50323 0.04066 0.0
C81 C 0.78877 0.39305 0.06008 0.0
C82 C 0.74812 0.36932 0.0062 0.0
C83 C 0.71472 0.40769 0.97215 0.0
C84 C 0.79699 0.4541 0.08186 0.0
H85 H 0.71381 0.50023 0.95827 0.0
C86 C 0.76741 0.7196 0.04646 0.0
O87 O -0.02975 0.84299 0.04945 0.0
O88 O 0.93274 0.77502 0.00372 0.0
N89 N 0.8578 0.55211 0.14601 0.0
C90 C 0.90171 0.57523 0.18239 0.0
C91 C 0.92287 0.53462 0.20499 0.0
C92 C 0.90277 0.47215 0.19095 0.0
C93 C 0.8655 0.44671 0.14891 0.0
C94 C 0.83817 0.47896 0.12515 0.0
H95 H 0.9168 0.61949 0.19415 0.0
O96 O -0.03001 0.73457 0.09094 0.0
O97 O 0.88362 0.66794 0.06466 0.0
O98 O 0.86873 0.73462 0.15723 0.0
O99 O 0.84427 0.65987 0.12738 0.0
C100 C 0.86015 0.39682 0.12759 0.0
C101 C 0.83082 0.37828 0.0828 0.0
H102 H 0.74631 0.3312 -0.00947 0.0
H103 H 0.69443 0.39156 0.93782 0.0
H104 H 0.95421 0.55021 0.23468 0.0
H105 H 0.92185 0.44666 0.21082 0.0
H106 H 0.88906 0.37914 0.14056 0.0
H107 H 0.8517 0.36219 0.06082 0.0
Mn108 Mn 0.13323 0.21947 0.40301 0.0
Mn109 Mn 0.1923 0.37867 0.38267 0.0
C110 C 0.24462 0.29117 0.40121 0.0
C111 C 0.12872 0.14508 0.47596 0.0
C112 C 0.14506 0.29422 0.31437 0.0
O113 O 0.04898 0.21386 0.42661 0.0
O114 O 0.08327 0.3147 0.41441 0.0
C115 C 0.23692 0.50371 0.4825 0.0
N116 N 0.24389 0.47332 0.43217 0.0
C117 C 0.38814 0.58083 0.41093 0.0
C118 C 0.37168 0.60668 0.46445 0.0
C119 C 0.30065 0.57077 0.49813 0.0
C120 C 0.3326 0.51908 0.39044 0.0
H121 H 0.20628 0.48105 0.51323 0.0
C122 C 0.03654 0.25677 0.43126 0.0
O123 O 0.11094 0.13008 0.43281 0.0
O124 O 0.14749 0.2006 0.47632 0.0
N125 N 0.28965 0.41828 0.32888 0.0
C126 C 0.30735 0.39225 0.29356 0.0
C127 C 0.36803 0.43025 0.26952 0.0
C128 C 0.4126 0.49278 0.28176 0.0
C129 C 0.40402 0.52065 0.32321 0.0
C130 C 0.34566 0.49198 0.34773 0.0
H131 H 0.2763 0.34757 0.28327 0.0
O132 O 0.22098 0.23757 0.38802 0.0
O133 O 0.20406 0.30701 0.41182 0.0
O134 O 0.11816 0.23671 0.32285 0.0
O135 O 0.16644 0.31228 0.35273 0.0
C136 C 0.45011 0.57139 0.34099 0.0
C137 C 0.44417 0.59904 0.38153 0.0
H138 H 0.40528 0.64255 0.48343 0.0
H139 H 0.29772 0.58822 0.53192 0.0
H140 H 0.38123 0.41254 0.24022 0.0
H141 H 0.45619 0.51655 0.26087 0.0
H142 H 0.4943 0.58668 0.32464 0.0
H143 H 0.48754 0.63842 0.38146 0.0
Mn144 Mn 0.71944 0.9628 0.37957 0.0
Mn145 Mn 0.58871 0.88678 0.45336 0.0
C146 C 0.63878 0.98992 0.38582 0.0
C147 C 0.77438 0.05214 0.43567 0.0
C148 C 0.61037 0.83979 0.35084 0.0
O149 O 0.7451 0.90667 0.423 0.0
O150 O 0.66838 0.87638 0.47868 0.0
C151 C 0.47747 0.80187 0.58268 0.0
N152 N 0.48261 0.82916 0.53623 0.0
C153 C 0.37067 0.79405 0.54155 0.0
C154 C 0.36767 0.76178 0.58596 0.0
C155 C 0.42035 0.76584 0.6059 0.0
C156 C 0.4285 0.82826 0.51398 0.0
H157 H 0.51656 0.80453 0.60173 0.0
C158 C 0.71785 0.87626 0.46376 0.0
O159 O 0.79339 0.0491 0.39517 0.0
O160 O 0.72802 0.00278 0.44791 0.0
N161 N 0.50658 0.89108 0.4088 0.0
C162 C 0.52153 0.87392 0.35945 0.0
C163 C 0.47419 0.80556 0.34292 0.0
C164 C 0.37151 0.74262 0.40223 0.0
C165 C 0.36829 0.77997 0.44726 0.0
C166 C 0.43085 0.84902 0.45671 0.0
H167 H 0.55924 0.9065 0.33525 0.0
O168 O 0.67827 0.01257 0.34983 0.0
O169 O 0.6477 0.9536 0.41376 0.0
O170 O 0.66053 0.88951 0.33825 0.0
O171 O 0.58707 0.83056 0.396 0.0
C172 C 0.31298 0.7575 0.4735 0.0
C173 C 0.31474 0.77528 0.51917 0.0
H174 H 0.32382 0.73224 0.60547 0.0
H175 H 0.41664 0.74188 0.64063 0.0
H176 H 0.48276 0.79931 0.30555 0.0
H177 H 0.32906 0.70098 0.3977 0.0
H178 H 0.27029 0.7224 0.46057 0.0
H179 H 0.27162 0.75442 0.54069 0.0
Mn180 Mn 0.01679 0.79093 0.41338 0.0
Mn181 Mn 0.02705 0.91392 0.35366 0.0
C182 C 0.93356 0.80903 0.43793 0.0
C183 C -0.01841 0.68785 0.40176 0.0
C184 C 0.09334 0.91648 0.45051 0.0
O185 O 0.07935 0.80603 0.35497 0.0
O186 O 0.06617 0.87462 0.31152 0.0
C187 C -0.02464 0.88714 0.25503 0.0
N188 N -0.0244 0.90794 0.29936 0.0
C189 C 0.90081 0.93735 0.27347 0.0
C190 C 0.89787 0.91343 0.22887 0.0
C191 C 0.93607 0.88936 0.21918 0.0
C192 C 0.94487 0.93861 0.30614 0.0
H193 H 0.00349 0.8673 0.24686 0.0
C194 C 0.08158 0.83263 0.31296 0.0
O195 O 0.02274 0.71427 0.4339 0.0
O196 O -0.04023 0.71955 0.38072 0.0
N197 N -0.01017 0.95591 0.38223 0.0
C198 C 0.00141 0.98229 0.42507 0.0
C199 C -0.03243 0.00976 0.43908 0.0
C200 C 0.92269 0.01113 0.40854 0.0
C201 C 0.91387 0.98701 0.36346 0.0
C202 C 0.95077 0.96219 0.35058 0.0
H203 H 0.03651 0.98334 0.4486 0.0
O204 O 0.9525 0.77655 0.46263 0.0
O205 O -0.03497 0.83276 0.39434 0.0
O206 O 0.07735 0.86 0.45815 0.0
O207 O 0.08628 0.93687 0.40803 0.0
C208 C 0.86812 0.98447 0.33169 0.0
C209 C 0.86082 0.95856 0.28731 0.0
H210 H 0.86706 0.91394 0.2012 0.0
H211 H 0.9346 0.87182 0.18442 0.0
H212 H -0.024 0.02966 0.47349 0.0
H213 H 0.8956 0.03111 0.41992 0.0
H214 H 0.83799 0.00191 0.34095 0.0
H215 H 0.82546 0.957 0.26362 0.0
Mn216 Mn 0.6341 0.77682 0.96929 0.0
Mn217 Mn 0.67046 0.76624 0.90804 0.0
C218 C 0.71793 0.7425 0.01677 0.0
C219 C 0.67841 0.86538 0.02126 0.0
C220 C 0.54952 0.68397 0.91245 0.0
O221 O 0.58088 0.8069 0.92193 0.0
O222 O 0.66015 0.83595 0.87712 0.0
C223 C 0.74436 0.82196 0.78359 0.0
N224 N 0.74423 0.79157 0.82603 0.0
C225 C 0.79393 0.73928 0.78932 0.0
C226 C 0.78913 0.76885 0.74466 0.0
C227 C 0.76668 0.81052 0.74202 0.0
C228 C 0.77042 0.7472 0.82791 0.0
H229 H 0.72216 0.84954 0.78126 0.0
C230 C 0.60458 0.82681 0.87832 0.0
O231 O 0.62746 0.81698 0.0324 0.0
O232 O 0.70077 0.86391 0.98068 0.0
N233 N 0.68427 0.67961 0.93478 0.0
C234 C 0.62453 0.61267 0.94582 0.0
C235 C 0.63517 0.5433 0.90327 0.0
C236 C 0.70064 0.56394 0.86568 0.0
C237 C 0.75352 0.63567 0.85275 0.0
C238 C 0.75455 0.69414 0.87357 0.0
H239 H 0.61977 0.5826 0.93295 0.0
O240 O 0.66134 0.72145 0.02144 0.0
O241 O 0.72291 0.78436 0.98162 0.0
O242 O 0.56428 0.6921 0.95722 0.0
O243 O 0.58707 0.72109 0.88046 0.0
C244 C 0.80612 0.65288 0.8301 0.0
C245 C 0.82588 0.70475 0.8004 0.0
H246 H 0.79765 0.75618 0.71067 0.0
H247 H 0.76207 0.83028 0.70685 0.0
H248 H 0.66781 0.54713 0.88272 0.0
H249 H 0.71769 0.53326 0.8469 0.0
H250 H 0.82809 0.62554 0.83132 0.0
H251 H 0.85943 0.70607 0.78212 0.0
Mn252 Mn 0.13152 0.93544 0.89939 0.0
Mn253 Mn 0.14562 0.89339 0.00938 0.0
C254 C 0.24395 0.97204 0.91102 0.0
C255 C 0.10869 0.8469 0.83456 0.0
C256 C 0.14933 0.009 -0.00772 0.0
O257 O 0.04066 0.89455 0.93402 0.0
O258 O 0.06886 0.84158 0.98002 0.0
C259 C 0.14478 0.79077 0.97265 0.0
N260 N 0.17158 0.83637 0.00234 0.0
C261 C 0.27171 0.86224 0.97296 0.0
C262 C 0.2453 0.82125 0.938 0.0
C263 C 0.18166 0.78253 0.93965 0.0
C264 C 0.23306 0.86908 0.00512 0.0
H265 H 0.09533 0.76569 0.96981 0.0
C266 C 0.02967 0.85831 0.97231 0.0
O267 O 0.11048 0.89671 0.82877 0.0
O268 O 0.11666 0.84416 0.87982 0.0
N269 N 0.21351 0.93587 0.04407 0.0
C270 C 0.22795 0.98669 0.06596 0.0
C271 C 0.28796 0.03402 0.06059 0.0
C272 C 0.33023 0.02524 0.03445 0.0
C273 C 0.314 0.96795 0.02012 0.0
C274 C 0.25478 0.92273 0.02698 0.0
H275 H 0.19316 0.99042 0.08595 0.0
O276 O 0.21928 0.97637 0.87194 0.0
O277 O 0.19863 0.93932 0.94498 0.0
O278 O 0.15532 0.01249 0.94439 0.0
O279 O 0.12253 0.95654 0.01563 0.0
C280 C 0.35385 0.95666 -0.00473 0.0
C281 C 0.33381 0.90456 0.97037 0.0
H282 H 0.27316 0.82323 0.90719 0.0
H283 H 0.1605 0.75074 0.91266 0.0
H284 H 0.30007 0.07721 0.07336 0.0
H285 H 0.37303 0.06323 0.02125 0.0
H286 H 0.39875 -0.00825 -0.00318 0.0
H287 H 0.36376 0.89871 0.94596 0.0
Mn288 Mn 0.01484 0.24107 0.92033 0.0
Mn289 Mn 0.02661 0.26892 0.98761 0.0
C290 C -0.03098 0.31271 0.90014 0.0
C291 C 0.12144 0.30994 0.86558 0.0
C292 C 0.90079 0.16874 0.98414 0.0
O293 O 0.06251 0.2013 0.96777 0.0
O294 O 0.05105 0.22483 0.03805 0.0
C295 C 0.16531 0.31784 0.96915 0.0
N296 N 0.11611 0.32523 0.9828 0.0
C297 C 0.18588 0.42709 -0.00303 0.0
C298 C 0.23589 0.42074 0.98222 0.0
C299 C 0.22548 0.36586 0.96764 0.0
C300 C 0.1272 0.37754 -0.00148 0.0
H301 H 0.15964 0.27848 0.95356 0.0
C302 C 0.0683 0.19425 0.01494 0.0
O303 O 0.07758 0.25888 0.85855 0.0
O304 O 0.09989 0.3252 0.89808 0.0
N305 N 0.02307 0.32953 0.01973 0.0
C306 C -0.02913 0.33448 0.02067 0.0
C307 C -0.02526 0.3894 0.02775 0.0
C308 C 0.0309 0.44033 0.03076 0.0
C309 C 0.08324 0.43669 0.02288 0.0
C310 C 0.07785 0.38066 0.01585 0.0
H311 H 0.92634 0.29618 0.01766 0.0
O312 O -0.0389 0.26951 0.87643 0.0
O313 O 0.00431 0.31643 0.93568 0.0
O314 O 0.92454 0.16572 0.94394 0.0
O315 O 0.937 0.21236 0.00733 0.0
C316 C 0.14082 0.48692 0.02198 0.0
C317 C 0.19156 0.47999 0.01241 0.0
H318 H 0.28261 0.45697 0.98242 0.0
H319 H 0.2637 0.36054 0.95512 0.0
H320 H 0.9352 0.39161 0.0348 0.0
H321 H 0.034 0.48207 0.03892 0.0
H322 H 0.14666 0.52854 0.03397 0.0
H323 H 0.23285 0.5119 0.02519 0.0
Mn324 Mn 0.76898 0.74852 0.55217 0.0
Mn325 Mn 0.75166 0.72193 0.48376 0.0
C326 C 0.65143 0.67539 0.57307 0.0
C327 C 0.80328 0.675 0.60504 0.0
C328 C 0.73423 0.82748 0.48765 0.0
O329 O 0.85487 0.78623 0.50432 0.0
O330 O 0.81875 0.76548 0.43314 0.0
C331 C 0.83719 0.668 0.50179 0.0
N332 N 0.78184 0.66344 0.48696 0.0
C333 C 0.74655 0.56205 0.46996 0.0
C334 C 0.80135 0.56521 0.48625 0.0
C335 C 0.8471 0.61865 0.50245 0.0
C336 C 0.74 0.61315 0.4686 0.0
H337 H 0.87121 0.70596 0.519 0.0
C338 C 0.86699 0.79369 0.45713 0.0
O339 O 0.81513 0.72746 0.61218 0.0
O340 O 0.76603 0.6622 0.57233 0.0
N341 N 0.68596 0.66449 0.44997 0.0
C342 C 0.62957 0.6611 0.45337 0.0
C343 C 0.57584 0.60746 0.44832 0.0
C344 C 0.57859 0.55524 0.44498 0.0
C345 C 0.63486 0.5571 0.44748 0.0
C346 C 0.68791 0.6125 0.45164 0.0
H347 H 0.62548 0.69948 0.46125 0.0
O348 O 0.6869 0.71895 0.5969 0.0
O349 O 0.68247 0.67413 0.53624 0.0
O350 O 0.75832 0.82714 0.52913 0.0
O351 O 0.72251 0.78228 0.46508 0.0
C352 C 0.63986 0.50536 0.4476 0.0
C353 C 0.69738 0.50997 0.45513 0.0
H354 H 0.80949 0.52744 0.48617 0.0
H355 H 0.88957 0.6216 0.51601 0.0
H356 H 0.53377 0.60824 0.44363 0.0
H357 H 0.53815 0.51392 0.43979 0.0
H358 H 0.60152 0.46353 0.4381 0.0
H359 H 0.7046 0.47605 0.44352 0.0
Mn360 Mn 0.1772 0.03174 0.58176 0.0
Mn361 Mn 0.24066 0.08533 0.47784 0.0
C362 C 0.26238 0.00348 0.57361 0.0
C363 C 0.23855 0.12162 0.64626 0.0
C364 C 0.12892 0.96618 0.48638 0.0
O365 O 0.12642 0.07216 0.54538 0.0
O366 O 0.21171 0.13303 0.50818 0.0
C367 C 0.33841 0.18635 0.52168 0.0
N368 N 0.32216 0.14372 0.48945 0.0
C369 C 0.40332 0.12451 0.51418 0.0
C370 C 0.41754 0.16399 0.55037 0.0
C371 C 0.3861 0.19654 0.55322 0.0
C372 C 0.3547 0.11542 0.4837 0.0
H373 H 0.31117 0.20813 0.5269 0.0
C374 C 0.15511 0.11458 0.51152 0.0
O375 O 0.19273 0.07006 0.65317 0.0
O376 O 0.25002 0.12346 0.60172 0.0
N377 N 0.27013 0.04778 0.44217 0.0
C378 C 0.23564 -0.00285 0.4192 0.0
C379 C 0.25302 0.95316 0.42149 0.0
C380 C 0.30699 0.96543 0.44521 0.0
C381 C 0.34491 0.02242 0.4619 0.0
C382 C 0.32589 0.0639 0.45871 0.0
H383 H 0.19629 -0.00815 0.39909 0.0
O384 O 0.22624 -0.00908 0.60949 0.0
O385 O 0.24832 0.03651 0.54061 0.0
O386 O 0.12959 0.95844 0.53396 0.0
O387 O 0.15531 0.02046 0.46608 0.0
C388 C 0.39854 0.0368 0.48482 0.0
C389 C 0.42827 0.08639 0.51253 0.0
H390 H 0.44917 0.1661 0.5783 0.0
H391 H 0.39426 0.22511 0.58229 0.0
H392 H 0.22434 0.91026 0.40715 0.0
H393 H 0.31587 0.92946 0.45588 0.0
H394 H 0.41412 0.00794 0.47732 0.0
H395 H 0.46694 0.09285 0.53462 0.0
Mn396 Mn 0.84841 0.19834 0.5105 0.0
Mn397 Mn 0.89587 0.21193 0.56766 0.0
C398 C -0.03516 0.23341 0.46054 0.0
C399 C 0.80029 0.10709 0.46328 0.0
C400 C 0.85558 0.29244 0.56224 0.0
O401 O 0.76508 0.17064 0.55421 0.0
O402 O 0.81618 0.14211 0.599 0.0
C403 C 0.91243 0.1544 0.69438 0.0
N404 N 0.94372 0.18695 0.65029 0.0
C405 C 0.04727 0.24011 0.68696 0.0
C406 C 0.01221 0.2149 0.73176 0.0
C407 C 0.94852 0.17141 0.73741 0.0
C408 C 0.0165 0.2324 0.6485 0.0
H409 H 0.91763 0.17123 0.65577 0.0
C410 C 0.76941 0.15077 0.59756 0.0
O411 O 0.79982 0.1562 0.44958 0.0
O412 O 0.82683 0.10989 0.50315 0.0
N413 N -0.00334 0.29953 0.54097 0.0
C414 C 0.00294 0.36593 0.52931 0.0
C415 C 0.0821 0.43616 0.57195 0.0
C416 C 0.12774 0.41674 0.61089 0.0
C417 C 0.11026 0.34505 0.62498 0.0
C418 C 0.0532 0.28593 0.60335 0.0
H419 H 0.02857 0.39622 0.54225 0.0
O420 O 0.92973 0.25504 0.45781 0.0
O421 O 0.92905 0.19147 0.49542 0.0
O422 O 0.86171 0.28327 0.51795 0.0
O423 O 0.85766 0.25658 0.59495 0.0
C424 C 0.1455 0.32845 0.65173 0.0
C425 C 0.11365 0.27139 0.67649 0.0
H426 H 0.0341 0.22979 0.76528 0.0
H427 H 0.90614 0.13943 0.72257 0.0
H428 H 0.11103 0.43276 0.59321 0.0
H429 H 0.17549 0.44863 0.62953 0.0
H430 H 0.19384 0.34893 0.64116 0.0
H431 H 0.12874 0.24976 0.65208 0.0
Mn432 Mn 0.87817 0.51917 0.38874 0.0
Mn433 Mn 0.7639 0.3985 0.44914 0.0
C434 C 0.77668 0.49815 0.35894 0.0
C435 C 0.94722 0.62253 0.39766 0.0
C436 C 0.82912 0.39126 0.35705 0.0
O437 O 0.92367 0.50713 0.45143 0.0
O438 O 0.84193 0.43677 0.49317 0.0
C439 C 0.73947 0.43121 0.54421 0.0
N440 N 0.71911 0.40922 0.50009 0.0
C441 C 0.61561 0.38525 0.52158 0.0
C442 C 0.63653 0.40933 0.56619 0.0
C443 C 0.6982 0.43172 0.57793 0.0
C444 C 0.65806 0.38185 0.49093 0.0
H445 H 0.78688 0.44891 0.55412 0.0
C446 C 0.89911 0.47931 0.49301 0.0
O447 O -0.03766 0.59344 0.36889 0.0
O448 O 0.89233 0.59357 0.41621 0.0
N449 N 0.68519 0.35733 0.41885 0.0
C450 C 0.66956 0.32514 0.37897 0.0
C451 C 0.60846 0.29787 0.36365 0.0
C452 C 0.56305 0.30186 0.39045 0.0
C453 C 0.57887 0.33111 0.43333 0.0
C454 C 0.64052 0.35655 0.44721 0.0
H455 H 0.70272 0.31885 0.35918 0.0
O456 O 0.82876 0.52981 0.33516 0.0
O457 O 0.78463 0.47768 0.40433 0.0
O458 O 0.87091 0.44721 0.34907 0.0
O459 O 0.79985 0.37232 0.39848 0.0
C460 C 0.53582 0.33591 0.46292 0.0
C461 C 0.55448 0.36402 0.50653 0.0
H462 H 0.60512 0.408 0.59322 0.0
H463 H 0.71371 0.449 0.61298 0.0
H464 H 0.59634 0.2733 0.33149 0.0
H465 H 0.51595 0.28088 0.37851 0.0
H466 H 0.48815 0.31752 0.45288 0.0
H467 H 0.52109 0.36814 0.52837 0.0
Mn468 Mn 0.41975 0.35276 0.42374 0.0
Mn469 Mn 0.35938 0.42724 0.35527 0.0
C470 C 0.30812 0.31991 0.41841 0.0
C471 C 0.37548 0.25121 0.38733 0.0
C472 C 0.42806 0.4663 0.46129 0.0
O473 O 0.49799 0.42704 0.39199 0.0
O474 O 0.44649 0.43423 0.32844 0.0
C475 C 0.33013 0.514 0.22746 0.0
N476 N 0.311 0.48869 0.27468 0.0
C477 C 0.23296 0.52209 0.27061 0.0
C478 C 0.25659 0.54962 0.22381 0.0
C479 C 0.30479 0.54586 0.20298 0.0
C480 C 0.2579 0.48845 0.29753 0.0
H481 H 0.36631 0.51178 0.20813 0.0
C482 C 0.49878 0.45064 0.34908 0.0
O483 O 0.35969 0.25628 0.43032 0.0
O484 O 0.41718 0.30144 0.36795 0.0
N485 N 0.27407 0.42089 0.40038 0.0
C486 C 0.30545 0.43447 0.45066 0.0
C487 C 0.32608 0.50088 0.47008 0.0
C488 C 0.28643 0.56719 0.41395 0.0
C489 C 0.24639 0.53312 0.36687 0.0
C490 C 0.23983 0.46501 0.35452 0.0
H491 H 0.30981 0.40019 0.47351 0.0
O492 O 0.32732 0.29125 0.44795 0.0
O493 O 0.35338 0.36248 0.39437 0.0
O494 O 0.42302 0.41351 0.47455 0.0
O495 O 0.41545 0.47816 0.41549 0.0
C496 C 0.21569 0.55855 0.34058 0.0
C497 C 0.19922 0.54332 0.29411 0.0
H498 H 0.23959 0.57684 0.20369 0.0
H499 H 0.32221 0.56714 0.16695 0.0
H500 H 0.34044 0.50439 0.50788 0.0
H501 H 0.28577 0.60834 0.42044 0.0
H502 H 0.20913 0.59351 0.35468 0.0
H503 H 0.17753 0.56576 0.27337 0.0
Mn504 Mn 0.5683 0.09125 0.40884 0.0
Mn505 Mn 0.46871 0.93405 0.42685 0.0
C506 C 0.60628 0.01945 0.40434 0.0
C507 C 0.63883 0.16406 0.3356 0.0
C508 C 0.50949 0.01705 0.49824 0.0
O509 O 0.48961 0.09889 0.38684 0.0
O510 O 0.42317 -0.00221 0.39613 0.0
C511 C 0.381 0.80125 0.33158 0.0
N512 N 0.4221 0.8357 0.37995 0.0
C513 C 0.45956 0.72933 0.40538 0.0
C514 C 0.41448 0.69958 0.35374 0.0
C515 C 0.3771 0.73298 0.31882 0.0
C516 C 0.46753 0.79289 0.42278 0.0
H517 H 0.36435 0.81841 0.3024 0.0
C518 C 0.43427 0.05597 0.38101 0.0
O519 O 0.63889 0.17876 0.379 0.0
O520 O 0.59812 0.10992 0.33474 0.0
N521 N 0.52927 0.89694 0.47979 0.0
C522 C 0.57506 0.92491 0.51383 0.0
C523 C 0.59922 0.88838 0.53872 0.0
C524 C 0.58002 0.82508 0.52915 0.0
C525 C 0.54123 0.79494 0.48906 0.0
C526 C 0.51035 0.82253 0.46353 0.0
H527 H 0.58969 0.97036 0.52244 0.0
O528 O 0.63699 0.07082 0.42132 0.0
O529 O 0.54953 0.00406 0.39554 0.0
O530 O 0.54033 0.07443 0.49002 0.0
O531 O 0.50996 0.00028 0.45841 0.0
C532 C 0.53312 0.74156 0.47494 0.0
C533 C 0.49543 0.71093 0.43695 0.0
H534 H 0.41082 0.66155 0.33763 0.0
H535 H 0.35344 0.71225 0.28674 0.0
H536 H 0.632 0.90791 0.56693 0.0
H537 H 0.60048 0.80216 0.5509 0.0
H538 H 0.5598 0.72437 0.49346 0.0
H539 H 0.49173 0.66825 0.44283 0.0
Mn540 Mn 0.79667 0.55478 0.73174 0.0
Mn541 Mn 0.8563 0.71339 0.71398 0.0
C542 C 0.90846 0.62607 0.73071 0.0
C543 C 0.79308 0.48139 0.80532 0.0
C544 C 0.80922 0.63054 0.64372 0.0
O545 O 0.71217 0.54814 0.75593 0.0
O546 O 0.74683 0.649 0.74542 0.0
C547 C 0.90004 0.83528 0.81628 0.0
N548 N 0.90759 0.80652 0.76519 0.0
C549 C 0.05209 0.91381 0.74612 0.0
C550 C 0.03489 0.93807 0.80031 0.0
C551 C -0.03651 0.90145 0.83329 0.0
C552 C -0.00331 0.85304 0.72423 0.0
H553 H 0.86952 0.81133 0.84688 0.0
C554 C 0.69996 0.59088 0.7619 0.0
O555 O 0.77651 0.46623 0.76215 0.0
O556 O 0.81058 0.53654 0.80526 0.0
N557 N 0.95443 0.75403 0.66079 0.0
C558 C -0.02736 0.72884 0.6251 0.0
C559 C 0.03357 0.76743 0.60161 0.0
C560 C 0.07761 0.82982 0.6145 0.0
C561 C 0.06857 0.85658 0.65656 0.0
C562 C 0.01005 0.82727 0.68073 0.0
H563 H 0.94184 0.68441 0.6142 0.0
O564 O 0.88456 0.57302 0.71651 0.0
O565 O 0.86803 0.64157 0.74233 0.0
O566 O 0.78266 0.57301 0.65162 0.0
O567 O 0.82994 0.64817 0.68237 0.0
C568 C 0.11485 0.90561 0.6762 0.0
C569 C 0.10869 0.93208 0.71749 0.0
H570 H 0.0682 0.97285 0.82041 0.0
H571 H -0.03976 0.91761 0.86766 0.0
H572 H 0.04726 0.75039 0.5721 0.0
H573 H 0.12145 0.85403 0.594 0.0
H574 H 0.15942 0.91868 0.6619 0.0
H575 H 0.15293 0.9697 0.71969 0.0
Mn576 Mn 0.38222 0.29503 0.71284 0.0
Mn577 Mn 0.2514 0.2198 0.78677 0.0
C578 C 0.30117 0.32175 0.71786 0.0
C579 C 0.43655 0.38498 0.76877 0.0
C580 C 0.27158 0.17119 0.68516 0.0
O581 O 0.40885 0.24019 0.75713 0.0
O582 O 0.33052 0.20786 0.81149 0.0
C583 C 0.14348 0.14178 0.91819 0.0
N584 N 0.14706 0.16554 0.87066 0.0
C585 C 0.03545 0.13121 0.87721 0.0
C586 C 0.03392 0.10291 0.92329 0.0
C587 C 0.08721 0.10802 0.94309 0.0
C588 C 0.09253 0.16389 0.84859 0.0
H589 H 0.18319 0.14572 0.93706 0.0
C590 C 0.38111 0.20916 0.79756 0.0
O591 O 0.45612 0.38136 0.72866 0.0
O592 O 0.38973 0.33579 0.78079 0.0
N593 N 0.16875 0.22361 0.74222 0.0
C594 C 0.18257 0.20503 0.69321 0.0
C595 C 0.13464 0.13624 0.67798 0.0
C596 C 0.03291 0.07508 0.73855 0.0
C597 C 0.03083 0.11389 0.78299 0.0
C598 C 0.09381 0.18314 0.791 0.0
H599 H 0.22001 0.23697 0.66847 0.0
O600 O 0.34091 0.34401 0.68202 0.0
O601 O 0.31039 0.28628 0.74668 0.0
O602 O 0.32217 0.2206 0.67244 0.0
O603 O 0.24851 0.16253 0.73026 0.0
C604 C -0.02388 0.09223 0.80992 0.0
C605 C -0.02113 0.11074 0.85548 0.0
H606 H -0.00935 0.07506 0.94405 0.0
H607 H 0.08493 0.08649 0.97879 0.0
H608 H 0.14258 0.12875 0.64084 0.0
H609 H -0.00987 0.03356 0.73475 0.0
H610 H 0.93307 0.05687 0.79773 0.0
H611 H 0.93618 0.09025 0.87752 0.0
Mn612 Mn 0.68136 0.12697 0.74604 0.0
Mn613 Mn 0.68973 0.24832 0.68417 0.0
C614 C 0.59769 0.14457 0.76976 0.0
C615 C 0.64709 0.02326 0.7374 0.0
C616 C 0.75739 0.2539 0.78063 0.0
O617 O 0.74278 0.14079 0.68718 0.0
O618 O 0.72905 0.20861 0.64289 0.0
C619 C 0.6387 0.22091 0.5854 0.0
N620 N 0.6384 0.24174 0.62962 0.0
C621 C 0.56521 0.27274 0.60227 0.0
C622 C 0.56261 0.24859 0.55784 0.0
C623 C 0.60031 0.22371 0.54895 0.0
C624 C 0.60828 0.2732 0.63565 0.0
H625 H 0.66657 0.2006 0.57778 0.0
C626 C 0.74469 0.16678 0.64495 0.0
O627 O 0.68897 0.05149 0.76854 0.0
O628 O 0.62434 0.05377 0.71576 0.0
N629 N 0.65225 0.29044 0.71211 0.0
C630 C 0.66309 0.31656 0.75505 0.0
C631 C 0.62957 0.34463 0.76836 0.0
C632 C 0.58564 0.34673 0.7371 0.0
C633 C 0.57734 0.32259 0.69207 0.0
C634 C 0.61391 0.29714 0.6799 0.0
H635 H 0.69753 0.31715 0.77912 0.0
O636 O 0.61796 0.11383 0.79537 0.0
O637 O 0.62827 0.16729 0.7257 0.0
O638 O 0.74222 0.19776 0.78912 0.0
O639 O 0.74936 0.27302 0.73805 0.0
C640 C 0.53238 0.32063 0.65967 0.0
C641 C 0.52563 0.29476 0.61533 0.0
H642 H 0.53192 0.24888 0.52995 0.0
H643 H 0.59909 0.20593 0.51435 0.0
H644 H 0.63755 0.36448 0.80278 0.0
H645 H 0.55884 0.36724 0.74793 0.0
H646 H 0.50248 0.33857 0.66844 0.0
H647 H 0.49105 0.29387 0.59099 0.0
Mn648 Mn 0.30167 0.11047 0.30496 0.0
Mn649 Mn 0.34106 0.10021 0.24342 0.0
C650 C 0.38534 0.07846 0.35186 0.0
C651 C 0.34455 0.19717 0.35833 0.0
C652 C 0.22015 0.01823 0.24598 0.0
O653 O 0.25074 0.14152 0.25654 0.0
O654 O 0.33092 0.16991 0.21282 0.0
C655 C 0.41497 0.15652 0.1202 0.0
N656 N 0.41629 0.12696 0.16263 0.0
C657 C 0.4651 0.07438 0.12535 0.0
C658 C 0.45861 0.10309 0.08077 0.0
C659 C 0.43602 0.14453 0.0784 0.0
C660 C 0.44325 0.08306 0.16455 0.0
H661 H 0.39216 0.18356 0.11817 0.0
C662 C 0.27539 0.16079 0.21322 0.0
O663 O 0.29319 0.1489 0.36835 0.0
O664 O 0.36776 0.19696 0.31778 0.0
N665 N 0.35595 0.01372 0.27086 0.0
C666 C 0.29652 0.94662 0.28108 0.0
C667 C 0.30792 0.8783 0.23857 0.0
C668 C 0.37394 0.89952 0.20124 0.0
C669 C 0.42712 0.97146 0.18899 0.0
C670 C 0.42763 0.02965 0.21031 0.0
H671 H 0.29262 0.91666 0.26774 0.0
O672 O 0.32866 0.05582 0.35695 0.0
O673 O 0.3914 0.12032 0.31662 0.0
O674 O 0.23306 0.02618 0.29107 0.0
O675 O 0.25874 0.05528 0.2145 0.0
C676 C 0.47904 0.98887 0.16496 0.0
C677 C 0.49786 0.04069 0.13532 0.0
H678 H 0.46682 0.09049 0.04665 0.0
H679 H 0.43025 0.16367 0.04334 0.0
H680 H 0.34088 0.88246 0.21808 0.0
H681 H 0.3912 0.86918 0.18221 0.0
H682 H 0.50026 0.96102 0.16419 0.0
H683 H 0.53056 0.04248 0.11534 0.0
Mn684 Mn 0.80037 0.27076 0.23038 0.0
Mn685 Mn 0.81022 0.22345 0.33919 0.0
C686 C 0.9123 0.30503 0.24328 0.0
C687 C 0.77891 0.18316 0.16532 0.0
C688 C 0.81552 0.34013 0.32364 0.0
O689 O 0.70866 0.22972 0.26406 0.0
O690 O 0.73412 0.17336 0.30821 0.0
C691 C 0.80858 0.12148 0.30081 0.0
N692 N 0.83508 0.16578 0.33167 0.0
C693 C 0.93548 0.19068 0.30372 0.0
C694 C 0.90945 0.15187 0.26713 0.0
C695 C 0.84571 0.11426 0.26745 0.0
C696 C 0.8964 0.19725 0.33577 0.0
H697 H 0.75935 0.09761 0.29666 0.0
C698 C 0.69561 0.19096 0.30088 0.0
O699 O 0.78028 0.23278 0.15979 0.0
O700 O 0.7863 0.17998 0.21053 0.0
N701 N 0.87715 0.26397 0.37539 0.0
C702 C 0.89182 0.31503 0.39709 0.0
C703 C 0.95229 0.3615 0.39293 0.0
C704 C -0.00527 0.35178 0.36809 0.0
C705 C -0.02216 0.29456 0.3532 0.0
C706 C 0.91821 0.25009 0.35889 0.0
H707 H 0.85696 0.31956 0.41626 0.0
O708 O 0.88932 0.31331 0.20432 0.0
O709 O 0.86578 0.27145 0.27618 0.0
O710 O 0.82307 0.34535 0.27606 0.0
O711 O 0.78799 0.28713 0.3461 0.0
C712 C 0.0178 0.28274 0.32909 0.0
C713 C -0.00202 0.23161 0.30308 0.0
H714 H 0.93773 0.15441 0.23637 0.0
H715 H 0.82455 0.08458 0.23912 0.0
H716 H -0.03512 0.40471 0.4059 0.0
H717 H 0.0384 0.38915 0.35614 0.0
H718 H 0.06265 0.31682 0.33195 0.0
H719 H 0.02879 0.22589 0.27943 0.0
Mn720 Mn 0.6728 0.55297 0.24471 0.0
Mn721 Mn 0.68238 0.60716 0.34117 0.0
C722 C 0.63549 0.6322 0.23716 0.0
C723 C 0.78584 0.63174 0.20141 0.0
C724 C 0.5617 0.50018 0.32547 0.0
O725 O 0.72292 0.5191 0.28921 0.0
O726 O 0.70203 0.538 0.3589 0.0
C727 C 0.81681 0.65241 0.32059 0.0
N728 N 0.76895 0.66257 0.33048 0.0
C729 C 0.83823 0.76755 0.32757 0.0
C730 C 0.88757 0.75792 0.317 0.0
C731 C 0.87586 0.70023 0.30991 0.0
C732 C 0.77889 0.71901 0.32921 0.0
H733 H 0.81024 0.60983 0.31445 0.0
C734 C 0.72438 0.51135 0.33593 0.0
O735 O 0.7435 0.58427 0.18785 0.0
O736 O 0.76101 0.63978 0.23663 0.0
N737 N 0.67298 0.67561 0.3396 0.0
C738 C 0.62194 0.67665 0.35335 0.0
C739 C 0.62723 0.72909 0.36847 0.0
C740 C 0.68447 0.78081 0.36646 0.0
C741 C 0.73568 0.78057 0.34833 0.0
C742 C 0.72846 0.72595 0.33603 0.0
H743 H 0.57922 0.6356 0.35851 0.0
O744 O 0.62459 0.5938 0.20658 0.0
O745 O 0.66892 0.62098 0.27023 0.0
O746 O 0.58703 0.49305 0.28701 0.0
O747 O 0.59206 0.54718 0.34861 0.0
C748 C 0.79474 0.82866 0.35222 0.0
C749 C 0.84538 0.82086 0.34291 0.0
H750 H 0.93469 0.79329 0.31498 0.0
H751 H 0.9127 0.6921 0.29867 0.0
H752 H 0.58883 0.72738 0.38727 0.0
H753 H 0.69015 0.81861 0.3838 0.0
H754 H 0.80147 0.86829 0.36854 0.0
H755 H 0.88707 0.84928 0.35903 0.0
Mn756 Mn 0.43467 0.08229 0.88592 0.0
Mn757 Mn 0.41622 0.05562 0.81681 0.0
C758 C 0.3176 0.00873 0.90741 0.0
C759 C 0.47139 0.00981 0.93854 0.0
C760 C 0.39778 0.16039 0.82133 0.0
O761 O 0.51934 0.12059 0.83652 0.0
O762 O 0.48251 0.09941 0.76534 0.0
C763 C 0.5026 0.00271 0.83453 0.0
N764 N 0.44683 -0.00247 0.82024 0.0
C765 C 0.41095 0.8952 0.80576 0.0
C766 C 0.46591 0.89883 0.82217 0.0
C767 C 0.51211 0.95303 0.83687 0.0
C768 C 0.40449 0.94643 0.80316 0.0
H769 H 0.53709 0.04133 0.85069 0.0
C770 C 0.53088 0.12802 0.78919 0.0
O771 O 0.48298 0.06235 0.94516 0.0
O772 O 0.4333 -0.00359 0.90636 0.0
N773 N 0.34985 -0.00288 0.78413 0.0
C774 C 0.29335 -0.00661 0.78815 0.0
C775 C 0.23967 0.93948 0.7837 0.0
C776 C 0.24256 0.88725 0.7806 0.0
C777 C 0.29891 0.88938 0.78322 0.0
C778 C 0.35201 0.94516 0.78641 0.0
H779 H 0.28901 0.03164 0.79631 0.0
O780 O 0.35322 0.05189 0.93159 0.0
O781 O 0.34824 0.00804 0.87006 0.0
O782 O 0.42242 0.16018 0.86264 0.0
O783 O 0.38617 0.11533 0.79857 0.0
C784 C 0.30383 0.83746 0.7847 0.0
C785 C 0.36151 0.84245 0.79212 0.0
H786 H 0.47382 0.86082 0.82336 0.0
H787 H 0.55471 0.95639 0.85051 0.0
H788 H 0.19744 0.94008 0.77991 0.0
H789 H 0.2022 0.84556 0.776 0.0
H790 H 0.26522 0.7951 0.77631 0.0
H791 H 0.3688 0.80845 0.78088 0.0
Mn792 Mn 0.84455 0.37047 0.9108 0.0
Mn793 Mn 0.90546 0.42339 0.80473 0.0
C794 C 0.92606 0.34218 0.89958 0.0
C795 C 0.91399 0.45783 0.97527 0.0
C796 C 0.79335 0.30461 0.81544 0.0
O797 O 0.79432 0.41211 0.87593 0.0
O798 O 0.87763 0.4715 0.83529 0.0
C799 C 0.00433 0.52465 0.84777 0.0
N800 N -0.01276 0.48125 0.8161 0.0
C801 C 0.06912 0.46287 0.83998 0.0
C802 C 0.08478 0.50384 0.87518 0.0
C803 C 0.05382 0.53685 0.87773 0.0
C804 C 0.01951 0.45269 0.81035 0.0
H805 H -0.02298 0.54622 0.85348 0.0
C806 C 0.82125 0.45282 0.84058 0.0
O807 O 0.86702 0.40767 0.98136 0.0
O808 O 0.92088 0.46211 0.92981 0.0
N809 N 0.93408 0.38443 0.76977 0.0
C810 C 0.89876 0.33285 0.74817 0.0
C811 C 0.91474 0.28779 0.7526 0.0
C812 C -0.03166 0.29986 0.77686 0.0
C813 C 0.00753 0.35776 0.79148 0.0
C814 C -0.0103 0.4002 0.78657 0.0
H815 H 0.85957 0.32746 0.72773 0.0
O816 O 0.89245 0.3291 0.93765 0.0
O817 O 0.91207 0.37543 0.86732 0.0
O818 O 0.79476 0.29768 0.86304 0.0
O819 O 0.81964 0.35852 0.7942 0.0
C820 C 0.06157 0.37251 0.81378 0.0
C821 C 0.09344 0.42422 0.83898 0.0
H822 H 0.11604 0.5058 0.90343 0.0
H823 H 0.06352 0.56715 0.90569 0.0
H824 H 0.8853 0.24431 0.73943 0.0
H825 H -0.02332 0.26362 0.78848 0.0
H826 H 0.07512 0.34146 0.8083 0.0
H827 H 0.13296 0.4318 0.86033 0.0
Mn828 Mn 0.51284 0.53131 0.84431 0.0
Mn829 Mn 0.56064 0.54456 0.90019 0.0
C830 C 0.62845 0.56694 0.79218 0.0
C831 C 0.46336 0.44 0.79664 0.0
C832 C 0.51992 0.62454 0.89779 0.0
O833 O 0.43059 0.50181 0.89016 0.0
O834 O 0.4833 0.47309 0.93211 0.0
C835 C 0.58169 0.49145 0.02441 0.0
N836 N 0.61144 0.52042 0.98174 0.0
C837 C 0.71415 0.5731 0.01808 0.0
C838 C 0.68047 0.54415 0.0628 0.0
C839 C 0.61607 0.50421 0.06598 0.0
C840 C 0.68195 0.56545 0.97986 0.0
H841 H 0.53185 0.46446 0.02675 0.0
C842 C 0.4364 0.48123 0.93283 0.0
O843 O 0.46228 0.48904 0.78391 0.0
O844 O 0.49169 0.44309 0.83562 0.0
N845 N 0.66026 0.63269 0.87321 0.0
C846 C 0.66643 0.69927 0.86225 0.0
C847 C 0.74711 0.76933 0.90458 0.0
C848 C 0.79326 0.74932 0.94229 0.0
C849 C 0.77547 0.67769 0.95525 0.0
C850 C 0.71793 0.61893 0.9344 0.0
H851 H 0.692 0.7294 0.87502 0.0
O852 O 0.59349 0.58881 0.79109 0.0
O853 O 0.59306 0.52455 0.82708 0.0
O854 O 0.52552 0.6161 0.85314 0.0
O855 O 0.52205 0.58795 0.92964 0.0
C856 C 0.81154 0.66056 0.97799 0.0
C857 C 0.78041 0.60757 0.00679 0.0
H858 H 0.70263 0.55657 0.09658 0.0
H859 H 0.59235 0.48626 0.10134 0.0
H860 H 0.77661 0.76591 0.92521 0.0
H861 H 0.8412 0.78033 0.96119 0.0
H862 H 0.86089 0.68744 0.97586 0.0
H863 H 0.81278 0.60349 0.02337 0.0
Mn864 Mn 0.54422 0.85375 0.72546 0.0
Mn865 Mn 0.42907 0.73247 0.78437 0.0
C866 C 0.44288 0.83429 0.69592 0.0
C867 C 0.61353 0.95754 0.73452 0.0
C868 C 0.49562 0.7263 0.6919 0.0
O869 O 0.58909 0.84082 0.78817 0.0
O870 O 0.50684 0.77003 0.82923 0.0
C871 C 0.40307 0.76299 0.88008 0.0
N872 N 0.38324 0.7413 0.8358 0.0
C873 C 0.27874 0.7141 0.85782 0.0
C874 C 0.29906 0.73771 0.90261 0.0
C875 C 0.36102 0.76169 0.91413 0.0
C876 C 0.32211 0.71296 0.82656 0.0
H877 H 0.45065 0.78183 0.88984 0.0
C878 C 0.56414 0.81255 0.82956 0.0
O879 O 0.62839 0.92843 0.70562 0.0
O880 O 0.55885 0.92821 0.75343 0.0
N881 N 0.35068 0.69211 0.75326 0.0
C882 C 0.33607 0.66277 0.71179 0.0
C883 C 0.27506 0.63522 0.69628 0.0
C884 C 0.22869 0.63618 0.72424 0.0
C885 C 0.24356 0.66298 0.76827 0.0
C886 C 0.30525 0.689 0.78227 0.0
H887 H 0.36985 0.65861 0.69093 0.0
O888 O 0.49513 0.86528 0.67222 0.0
O889 O 0.45026 0.81278 0.74105 0.0
O890 O 0.53741 0.78234 0.68473 0.0
O891 O 0.46531 0.70708 0.73294 0.0
C892 C 0.19945 0.6649 0.79879 0.0
C893 C 0.21724 0.69127 0.84319 0.0
H894 H 0.26699 0.7355 0.92959 0.0
H895 H 0.3762 0.7789 0.94926 0.0
H896 H 0.26375 0.61272 0.66305 0.0
H897 H 0.18165 0.61498 0.71214 0.0
H898 H 0.1517 0.64593 0.78867 0.0
H899 H 0.18295 0.69291 0.86595 0.0
Mn900 Mn 0.08353 0.68625 0.75406 0.0
Mn901 Mn 0.02417 0.76278 0.68718 0.0
C902 C -0.02808 0.65396 0.74816 0.0
C903 C 0.03953 0.58578 0.71568 0.0
C904 C 0.09156 0.79878 0.79427 0.0
O905 O 0.16257 0.76058 0.72362 0.0
O906 O 0.11244 0.77147 0.66031 0.0
C907 C -0.00644 0.84906 0.5598 0.0
N908 N -0.02407 0.82528 0.60751 0.0
C909 C 0.89746 0.85804 0.60397 0.0
C910 C 0.91913 0.88365 0.55641 0.0
C911 C -0.03329 0.87928 0.53496 0.0
C912 C 0.92264 0.8245 0.63055 0.0
H913 H 0.02926 0.84632 0.54023 0.0
C914 C 0.16437 0.78521 0.68093 0.0
O915 O 0.0232 0.59016 0.75859 0.0
O916 O 0.08162 0.63627 0.69709 0.0
N917 N 0.93794 0.75484 0.7324 0.0
C918 C -0.03141 0.76679 0.78298 0.0
C919 C -0.01086 0.83243 0.80369 0.0
C920 C 0.95054 0.90066 0.74881 0.0
C921 C 0.9111 0.86806 0.70083 0.0
C922 C 0.90433 0.80018 0.6873 0.0
H923 H -0.02715 0.73197 0.8051 0.0
O924 O -0.00932 0.6245 0.77718 0.0
O925 O 0.01757 0.6969 0.72478 0.0
O926 O 0.08662 0.74577 0.80634 0.0
O927 O 0.07912 0.81167 0.74869 0.0
C928 C 0.88135 0.89463 0.67465 0.0
C929 C 0.86496 0.88028 0.62792 0.0
H930 H 0.90133 0.9101 0.53618 0.0
H931 H -0.01739 0.89903 0.49831 0.0
H932 H 0.00321 0.83481 0.84158 0.0
H933 H 0.94984 0.94146 0.75623 0.0
H934 H 0.87516 0.92956 0.68919 0.0
H935 H 0.84362 0.90327 0.60748 0.0
Mn936 Mn 0.23243 0.42465 0.73821 0.0
Mn937 Mn 0.1312 0.26728 0.75914 0.0
C938 C 0.26931 0.35215 0.73568 0.0
C939 C 0.3034 0.49833 0.66729 0.0
C940 C 0.17262 0.3524 0.8269 0.0
O941 O 0.15356 0.43216 0.7165 0.0
O942 O 0.086 0.3313 0.72767 0.0
C943 C 0.04136 0.13209 0.66715 0.0
N944 N 0.08351 0.1677 0.71464 0.0
C945 C 0.12077 0.06141 0.7415 0.0
C946 C 0.07472 0.03048 0.69056 0.0
C947 C 0.03688 0.06326 0.65542 0.0
C948 C 0.12937 0.12561 0.75789 0.0
H949 H 0.02276 0.14811 0.63868 0.0
C950 C 0.09773 0.38953 0.7117 0.0
O951 O 0.30143 0.51291 0.71063 0.0
O952 O 0.26356 0.44389 0.665 0.0
N953 N 0.1927 0.23145 0.81281 0.0
C954 C 0.23935 0.2604 0.84604 0.0
C955 C 0.26382 0.22429 0.87133 0.0
C956 C 0.24346 0.16017 0.86343 0.0
C957 C 0.20375 0.12883 0.82408 0.0
C958 C 0.17287 0.1562 0.79806 0.0
H959 H 0.25446 0.30629 0.85369 0.0
O960 O 0.30094 0.40438 0.75111 0.0
O961 O 0.21228 0.33664 0.72746 0.0
O962 O 0.20484 0.4096 0.81869 0.0
O963 O 0.17302 0.33444 0.78788 0.0
C964 C 0.19477 0.07459 0.81107 0.0
C965 C 0.15694 0.04352 0.77322 0.0
H966 H 0.07084 -0.00787 0.67486 0.0
H967 H 0.01231 0.04157 0.62395 0.0
H968 H 0.29738 0.24465 0.89888 0.0
H969 H 0.26393 0.13759 0.88561 0.0
H970 H 0.22043 0.05667 0.83055 0.0
H971 H 0.15318 0.0009 0.77957 0.0
Mn972 Mn 0.46963 0.89084 0.06651 0.0
Mn973 Mn 0.52685 0.04988 0.04719 0.0
C974 C 0.58052 0.96353 0.06297 0.0
C975 C 0.46769 0.81648 0.13956 0.0
C976 C 0.47915 0.96617 0.97741 0.0
O977 O 0.38554 0.88434 0.09185 0.0
O978 O 0.41868 0.98497 0.07995 0.0
C979 C 0.57067 0.17264 0.14962 0.0
N980 N 0.5773 0.14343 0.09808 0.0
C981 C 0.71969 0.25173 0.07725 0.0
C982 C 0.70512 0.27659 0.13101 0.0
C983 C 0.63462 0.23994 0.16544 0.0
C984 C 0.66525 0.19107 0.05607 0.0
H985 H 0.54223 0.14864 0.18124 0.0
C986 C 0.37266 0.92688 0.09708 0.0
O987 O 0.44923 0.80161 0.09655 0.0
O988 O 0.48604 0.87194 0.13974 0.0
N989 N 0.62453 0.09209 -0.00706 0.0
C990 C 0.6433 0.06798 0.9566 0.0
C991 C 0.70399 0.10801 0.93278 0.0
C992 C 0.74744 0.17076 0.94593 0.0
C993 C 0.738 0.19682 -0.01179 0.0
C994 C 0.67926 0.16562 0.01267 0.0
H995 H 0.61315 0.02347 0.94553 0.0
O996 O 0.55706 0.91 0.04966 0.0
O997 O 0.53998 0.97867 0.07523 0.0
O998 O 0.45311 0.90862 0.98649 0.0
O999 O 0.50129 0.98481 0.01546 0.0
C1000 C 0.78464 0.24443 0.01029 0.0
C1001 C 0.77553 0.26295 0.05521 0.0
H1002 H 0.74218 0.31351 0.14737 0.0
H1003 H 0.63233 0.25654 0.19983 0.0
H1004 H 0.71807 0.09175 0.90294 0.0
H1005 H 0.79129 0.19566 0.92551 0.0
H1006 H 0.83082 0.25709 -0.00083 0.0
H1007 H 0.81285 0.27559 0.07745 0.0
Mn1008 Mn 0.0519 0.62478 0.05133 0.0
Mn1009 Mn 0.91777 0.54269 0.11988 0.0
C1010 C -0.02783 0.6524 0.05745 0.0
C1011 C 0.11153 0.71787 0.10385 0.0
C1012 C 0.94712 0.5044 0.01582 0.0
O1013 O 0.07763 0.56826 0.09351 0.0
O1014 O -0.00375 0.53071 0.14601 0.0
C1015 C 0.80086 0.45391 0.24532 0.0
N1016 N 0.80734 0.48033 0.19844 0.0
C1017 C 0.69633 0.44858 0.20128 0.0
C1018 C 0.69174 0.41815 0.24713 0.0
C1019 C 0.74349 0.42145 0.26876 0.0
C1020 C 0.75516 0.48296 0.17543 0.0
H1021 H 0.83923 0.45568 0.26494 0.0
C1022 C 0.04894 0.5355 0.13305 0.0
O1023 O 0.12693 0.71325 0.06249 0.0
O1024 O 0.0674 0.66825 0.11854 0.0
N1025 N 0.8397 0.55282 0.07426 0.0
C1026 C 0.85719 0.54005 0.02375 0.0
C1027 C 0.81016 0.47515 0.00246 0.0
C1028 C 0.70281 0.40916 0.05624 0.0
C1029 C 0.69796 0.44206 0.10434 0.0
C1030 C 0.76105 0.50864 0.11885 0.0
H1031 H 0.89735 0.5734 0.00222 0.0
O1032 O 0.01199 0.67504 0.02176 0.0
O1033 O -0.02085 0.61437 0.08521 0.0
O1034 O -0.00227 0.55462 0.00529 0.0
O1035 O 0.92087 0.49347 0.05976 0.0
C1036 C 0.64208 0.4163 0.13023 0.0
C1037 C 0.64144 0.42965 0.17724 0.0
H1038 H 0.64731 0.39018 0.26628 0.0
H1039 H 0.73923 0.39917 0.30449 0.0
H1040 H 0.82181 0.47158 0.96512 0.0
H1041 H 0.66074 0.36815 0.04883 0.0
H1042 H 0.60017 0.38257 0.11521 0.0
H1043 H 0.59735 0.40705 0.19749 0.0
Mn1044 Mn 0.35433 0.45729 0.08366 0.0
Mn1045 Mn 0.36168 0.57956 0.0224 0.0
C1046 C 0.27164 0.47484 0.10922 0.0
C1047 C 0.32132 0.3549 0.07472 0.0
C1048 C 0.42983 0.58428 0.11831 0.0
O1049 O 0.41366 0.47113 0.02325 0.0
O1050 O 0.40088 0.5406 0.98074 0.0
C1051 C 0.31167 0.55302 0.92298 0.0
N1052 N 0.31099 0.57345 0.96731 0.0
C1053 C 0.23549 0.60166 0.94074 0.0
C1054 C 0.23432 0.57902 0.8958 0.0
C1055 C 0.27318 0.55557 0.88657 0.0
C1056 C 0.27916 0.60318 0.97391 0.0
H1057 H 0.34052 0.53396 0.91489 0.0
C1058 C 0.41478 0.49773 0.9815 0.0
O1059 O 0.36412 0.38358 0.10516 0.0
O1060 O 0.29656 0.38407 0.05366 0.0
N1061 N 0.32325 0.62076 0.05044 0.0
C1062 C 0.33462 0.64783 0.09294 0.0
C1063 C 0.29994 0.67462 0.10655 0.0
C1064 C 0.25456 0.67472 0.07589 0.0
C1065 C 0.24625 0.65032 0.03097 0.0
C1066 C 0.28388 0.62616 0.01851 0.0
H1067 H 0.37043 0.65019 0.11631 0.0
O1068 O 0.29168 0.44346 0.13428 0.0
O1069 O 0.30242 0.49812 0.06515 0.0
O1070 O 0.41616 0.52842 0.12599 0.0
O1071 O 0.42064 0.60382 0.07636 0.0
C1072 C 0.2005 0.64705 -0.00117 0.0
C1073 C 0.19435 0.62158 0.95433 0.0
H1074 H 0.2046 0.58022 0.86744 0.0
H1075 H 0.27299 0.53892 0.85161 0.0
H1076 H 0.30819 0.69506 0.14069 0.0
H1077 H 0.2269 0.69424 0.08697 0.0
H1078 H 0.16961 0.66375 0.00785 0.0
H1079 H 0.15907 0.61945 0.93027 0.0
Mn1080 Mn -0.03355 0.44493 0.63358 0.0
Mn1081 Mn 0.00533 0.43333 0.57328 0.0
C1082 C 0.04922 0.41245 0.68221 0.0
C1083 C 0.00892 0.53195 0.68641 0.0
C1084 C 0.88427 0.35205 0.57596 0.0
O1085 O 0.91515 0.47544 0.58512 0.0
O1086 O -0.00516 0.50252 0.541 0.0
C1087 C 0.08064 0.4873 0.45015 0.0
N1088 N 0.08093 0.45803 0.49306 0.0
C1089 C 0.13099 0.40524 0.45793 0.0
C1090 C 0.1255 0.43356 0.41276 0.0
C1091 C 0.10262 0.4748 0.40908 0.0
C1092 C 0.10751 0.4138 0.4962 0.0
H1093 H 0.05793 0.51442 0.44714 0.0
C1094 C 0.93944 0.49405 0.54165 0.0
O1095 O -0.04248 0.48366 0.69641 0.0
O1096 O 0.03262 0.53158 0.64609 0.0
N1097 N 0.01932 0.34659 0.60239 0.0
C1098 C -0.04048 0.27976 0.61317 0.0
C1099 C -0.02964 0.21022 0.57193 0.0
C1100 C 0.03644 0.23032 0.53507 0.0
C1101 C 0.09001 0.30204 0.52213 0.0
C1102 C 0.09093 0.36085 0.54241 0.0
H1103 H 0.95537 0.24942 0.60032 0.0
O1104 O -0.00756 0.38966 0.68615 0.0
O1105 O 0.05562 0.45416 0.64674 0.0
O1106 O 0.89713 0.36067 0.62094 0.0
O1107 O 0.9231 0.38838 0.54426 0.0
C1108 C 0.14251 0.31886 0.4992 0.0
C1109 C 0.16294 0.37096 0.46948 0.0
H1110 H 0.1337 0.42009 0.37909 0.0
H1111 H 0.0973 0.49327 0.37356 0.0
H1112 H 0.0033 0.21375 0.55179 0.0
H1113 H 0.05355 0.1993 0.51696 0.0
H1114 H 0.16369 0.29084 0.49993 0.0
H1115 H 0.19675 0.37261 0.45123 0.0
Mn1116 Mn 0.46596 0.6044 0.56387 0.0
Mn1117 Mn 0.47624 0.55899 0.67335 0.0
C1118 C 0.57774 0.63914 0.57629 0.0
C1119 C 0.44501 0.51517 0.50051 0.0
C1120 C 0.48175 0.67527 0.65767 0.0
O1121 O 0.37455 0.56443 0.59705 0.0
O1122 O 0.39992 0.50862 0.64243 0.0
C1123 C 0.47464 0.45622 0.63653 0.0
N1124 N 0.50144 0.50141 0.66655 0.0
C1125 C 0.60156 0.52739 0.63715 0.0
C1126 C 0.57501 0.48738 0.60146 0.0
C1127 C 0.51143 0.44856 0.60311 0.0
C1128 C 0.5629 0.53364 0.66981 0.0
H1129 H 0.42528 0.43175 0.63326 0.0
C1130 C 0.36151 0.52635 0.63431 0.0
O1131 O 0.4477 0.56522 0.49351 0.0
O1132 O 0.4504 0.51248 0.54602 0.0
N1133 N 0.54322 0.59998 0.70942 0.0
C1134 C 0.55757 0.65091 0.73117 0.0
C1135 C 0.61752 0.69831 0.72578 0.0
C1136 C 0.6598 0.68966 0.69959 0.0
C1137 C 0.64369 0.63245 0.68511 0.0
C1138 C 0.58458 0.58695 0.69225 0.0
H1139 H 0.5227 0.65465 0.7511 0.0
O1140 O 0.55382 0.64436 0.53717 0.0
O1141 O 0.53188 0.60627 0.60988 0.0
O1142 O 0.4896 0.68015 0.60994 0.0
O1143 O 0.45364 0.62231 0.67995 0.0
C1144 C 0.68363 0.62147 0.65998 0.0
C1145 C 0.66369 0.56971 0.6347 0.0
H1146 H 0.6026 0.4903 0.57009 0.0
H1147 H 0.4901 0.41751 0.57565 0.0
H1148 H 0.62957 0.74147 0.73858 0.0
H1149 H 0.70261 0.72772 0.68657 0.0
H1150 H 0.7284 0.65681 0.66126 0.0
H1151 H 0.69374 0.56437 0.60999 0.0
Mn1152 Mn 0.34421 0.89367 0.58109 0.0
Mn1153 Mn 0.34566 0.94164 0.67847 0.0
C1154 C 0.30207 0.96845 0.57345 0.0
C1155 C 0.45694 0.97216 0.5356 0.0
C1156 C 0.22795 0.8358 0.65898 0.0
O1157 O 0.39502 0.86187 0.62595 0.0
O1158 O 0.36425 0.87087 0.6956 0.0
C1159 C 0.48082 0.98712 0.66533 0.0
N1160 N 0.43205 -0.00268 0.66896 0.0
C1161 C 0.50075 0.10248 0.65873 0.0
C1162 C 0.54978 0.09208 0.64878 0.0
C1163 C 0.53826 0.03329 0.64818 0.0
C1164 C 0.44144 0.05369 0.66236 0.0
H1165 H 0.47784 0.94573 0.67606 0.0
C1166 C 0.3914 0.84867 0.67227 0.0
O1167 O 0.41318 0.92504 0.52293 0.0
O1168 O 0.43419 0.9802 0.57222 0.0
N1169 N 0.33605 0.01015 0.67535 0.0
C1170 C 0.28526 0.01157 0.68912 0.0
C1171 C 0.29115 0.0641 0.70434 0.0
C1172 C 0.34829 0.11601 0.70052 0.0
C1173 C 0.39881 0.11579 0.68088 0.0
C1174 C 0.39119 0.06077 0.66932 0.0
H1175 H 0.24281 0.97061 0.69514 0.0
O1176 O 0.2951 0.93239 0.54184 0.0
O1177 O 0.33438 0.95731 0.60746 0.0
O1178 O 0.25665 0.83028 0.62154 0.0
O1179 O 0.25575 0.88201 0.68332 0.0
C1180 C 0.45806 0.16422 0.68342 0.0
C1181 C 0.50843 0.15619 0.67361 0.0
H1182 H 0.59687 0.12739 0.64493 0.0
H1183 H 0.57499 0.02368 0.63988 0.0
H1184 H 0.25327 0.06256 0.72402 0.0
H1185 H 0.35454 0.15413 0.71746 0.0
H1186 H 0.46531 0.20436 0.6992 0.0
H1187 H 0.5504 0.18448 0.68952 0.0
Mn1188 Mn 0.10407 0.41202 0.22264 0.0
Mn1189 Mn 0.08919 0.38609 0.15402 0.0
C1190 C -0.01392 0.33954 0.2416 0.0
C1191 C 0.13841 0.33855 0.27593 0.0
C1192 C 0.06851 0.48946 0.15695 0.0
O1193 O 0.19136 0.45063 0.17551 0.0
O1194 O 0.15699 0.42882 0.10424 0.0
C1195 C 0.17381 0.33171 0.17335 0.0
N1196 N 0.11852 0.32713 0.1585 0.0
C1197 C 0.08122 0.22461 0.14419 0.0
C1198 C 0.1362 0.22786 0.16043 0.0
C1199 C 0.18261 0.28165 0.17567 0.0
C1200 C 0.07579 0.27626 0.14151 0.0
H1201 H 0.20857 0.37044 0.18928 0.0
C1202 C 0.2045 0.458 0.1284 0.0
O1203 O 0.1495 0.3907 0.28321 0.0
O1204 O 0.10138 0.32576 0.24315 0.0
N1205 N 0.02462 0.32934 0.11976 0.0
C1206 C -0.03081 0.32778 0.12107 0.0
C1207 C 0.9153 0.27448 0.11757 0.0
C1208 C 0.91635 0.22173 0.11204 0.0
C1209 C -0.02838 0.22196 0.11678 0.0
C1210 C 0.02496 0.27655 0.12294 0.0
H1211 H -0.03409 0.36669 0.12801 0.0
O1212 O 0.02131 0.38205 0.26643 0.0
O1213 O 0.01795 0.3385 0.20524 0.0
O1214 O 0.09123 0.48922 0.19906 0.0
O1215 O 0.06102 0.44638 0.13351 0.0
C1216 C -0.02487 0.16936 0.11875 0.0
C1217 C 0.03174 0.17282 0.12879 0.0
H1218 H 0.14428 0.19012 0.16091 0.0
H1219 H 0.22499 0.2845 0.18934 0.0
H1220 H 0.87453 0.27556 0.12191 0.0
H1221 H 0.87497 0.18051 0.10788 0.0
H1222 H 0.93694 0.12817 0.10796 0.0
H1223 H 0.03928 0.13987 0.11575 0.0
Mn1224 Mn 0.51636 0.70258 0.24628 0.0
Mn1225 Mn 0.57755 0.75304 0.14156 0.0
C1226 C 0.59891 0.67063 0.2376 0.0
C1227 C 0.57782 0.79098 0.3114 0.0
C1228 C 0.46567 0.63473 0.15305 0.0
O1229 O 0.46605 0.74398 0.20973 0.0
O1230 O 0.55059 0.80296 0.17098 0.0
C1231 C 0.67694 0.85489 0.18287 0.0
N1232 N 0.65969 0.81121 0.15152 0.0
C1233 C 0.73818 0.78917 0.17855 0.0
C1234 C 0.75276 0.82925 0.21429 0.0
C1235 C 0.72347 0.86401 0.21534 0.0
C1236 C 0.69083 0.7813 0.14699 0.0
H1237 H 0.65095 0.87818 0.18696 0.0
C1238 C 0.49428 0.78559 0.17509 0.0
O1239 O 0.53149 0.7397 0.31782 0.0
O1240 O 0.58988 0.79359 0.26679 0.0
N1241 N 0.60521 0.7138 0.10629 0.0
C1242 C 0.56959 0.66285 0.08407 0.0
C1243 C 0.58605 0.6182 0.08656 0.0
C1244 C 0.63998 0.62983 0.11018 0.0
C1245 C 0.67846 0.68666 0.12686 0.0
C1246 C 0.66085 0.72918 0.12277 0.0
H1247 H 0.53027 0.65801 0.06409 0.0
O1248 O 0.56413 0.66036 0.27397 0.0
O1249 O 0.58554 0.70434 0.2046 0.0
O1250 O 0.46647 0.62801 0.20061 0.0
O1251 O 0.49157 0.68857 0.13188 0.0
C1252 C 0.73134 0.70001 0.15052 0.0
C1253 C 0.76116 0.74935 0.17846 0.0
H1254 H 0.78293 0.83029 0.24321 0.0
H1255 H 0.732 0.8934 0.24379 0.0
H1256 H 0.55657 0.5753 0.07257 0.0
H1257 H 0.64874 0.59367 0.12064 0.0
H1258 H 0.74616 0.67044 0.1436 0.0
H1259 H 0.79835 0.75447 0.20188 0.0
Mn1260 Mn 0.18498 0.86592 0.17777 0.0
Mn1261 Mn 0.23305 0.87941 0.23507 0.0
C1262 C 0.30143 0.90296 0.12727 0.0
C1263 C 0.13842 0.77404 0.13034 0.0
C1264 C 0.1918 0.95894 0.23142 0.0
O1265 O 0.10166 0.8371 0.22193 0.0
O1266 O 0.15353 0.80901 0.26625 0.0
C1267 C 0.25006 0.82081 0.36087 0.0
N1268 N 0.28144 0.85353 0.31688 0.0
C1269 C 0.38473 0.90757 0.35384 0.0
C1270 C 0.34961 0.88136 0.3984 0.0
C1271 C 0.28602 0.83767 0.40391 0.0
C1272 C 0.35414 0.89953 0.31524 0.0
H1273 H 0.25543 0.83765 0.32226 0.0
C1274 C 0.10645 0.81723 0.26519 0.0
O1275 O 0.13654 0.82247 0.11681 0.0
O1276 O 0.16493 0.77771 0.17027 0.0
N1277 N 0.33349 0.96785 0.20877 0.0
C1278 C 0.33906 0.03401 0.19819 0.0
C1279 C 0.41814 0.10386 0.24121 0.0
C1280 C 0.46406 0.08433 0.2796 0.0
C1281 C 0.44732 0.0128 0.29264 0.0
C1282 C 0.39055 0.95374 0.27045 0.0
H1283 H 0.36455 0.06412 0.21133 0.0
O1284 O 0.26573 0.92393 0.12493 0.0
O1285 O 0.26626 0.86053 0.16209 0.0
O1286 O 0.19787 0.95059 0.18682 0.0
O1287 O 0.19437 0.92286 0.2636 0.0
C1288 C 0.48276 -0.00346 0.31937 0.0
C1289 C 0.45119 0.93944 0.34377 0.0
H1290 H 0.37153 0.89569 0.43193 0.0
H1291 H 0.24349 0.80592 0.38908 0.0
H1292 H 0.44715 0.10037 0.26226 0.0
H1293 H 0.51135 0.11612 0.29885 0.0
H1294 H 0.53095 0.0168 0.30834 0.0
H1295 H 0.46705 0.91864 0.31913 0.0
loop_
_geom_bond_atom_site_label_1
_geom_bond_atom_site_label_2
_geom_bond_distance
_geom_bond_site_symmetry_2
_ccdc_geom_bond_type
Mn0 O5 2.095 . S
Mn0 O15 2.162 . S
Mn0 O16 2.297 . S
Mn0 O24 2.385 . S
Mn0 O25 2.209 . S
Mn0 O26 2.094 . S
Mn1 O6 2.121 . S
Mn1 N8 2.257 . S
Mn1 N17 2.282 . S
Mn1 O25 2.215 . S
Mn1 O27 2.117 . S
C2 O24 1.234 . S
C2 O25 1.283 . S
C3 O15 1.281 . S
C3 O16 1.236 . S
C4 O26 1.240 . S
C4 O27 1.264 . S
O5 Mn0 2.095 . S
O5 C14 1.250 . S
O6 Mn1 2.121 . S
O6 C14 1.258 . S
C7 N8 1.326 . S
C7 C11 1.460 1_455 S
C7 H13 0.929 . S
N8 Mn1 2.257 . S
N8 C7 1.326 . S
N8 C12 1.362 1_455 S
C9 C10 1.258 . S
C9 C12 1.431 . S
C9 C29 1.449 . S
C10 C9 1.258 . S
C10 C11 1.477 . S
C10 H30 0.931 . S
C11 C7 1.460 1_655 S
C11 C10 1.477 . S
C11 H31 0.930 . S
C12 N8 1.362 1_655 S
C12 C9 1.431 . S
C12 C22 1.476 1_655 S
H13 C7 0.929 . S
C14 O5 1.250 . S
C14 O6 1.258 . S
O15 Mn0 2.162 . S
O15 C3 1.281 . S
O16 Mn0 2.297 . S
O16 C3 1.236 . S
N17 Mn1 2.282 . S
N17 C18 1.328 1_554 S
N17 C22 1.318 . S
C18 N17 1.328 1_556 S
C18 C19 1.457 . S
C18 H23 0.929 . S
C19 C18 1.457 . S
C19 C20 1.291 1_455 S
C19 H32 0.931 . S
C20 C19 1.291 1_655 S
C20 C21 1.373 1_556 S
C20 H33 0.929 . S
C21 C20 1.373 1_554 S
C21 C22 1.396 1_655 S
C21 C28 1.403 . S
C22 C12 1.476 1_455 S
C22 N17 1.318 . S
C22 C21 1.396 1_455 S
H23 C18 0.929 . S
O24 Mn0 2.385 . S
O24 C2 1.234 . S
O25 Mn0 2.209 . S
O25 Mn1 2.215 . S
O25 C2 1.283 . S
O26 Mn0 2.094 . S
O26 C4 1.240 . S
O27 Mn1 2.117 . S
O27 C4 1.264 . S
C28 C21 1.403 . S
C28 C29 1.399 . S
C28 H34 0.929 1_545 S
C29 C9 1.449 . S
C29 C28 1.399 . S
C29 H35 0.930 . S
H30 C10 0.931 . S
H31 C11 0.930 . S
H32 C19 0.931 . S
H33 C20 0.929 . S
H34 C28 0.929 1_565 S
H35 C29 0.930 . S
Mn36 O41 2.095 . S
Mn36 O51 2.162 1_545 S
Mn36 O52 2.297 1_545 S
Mn36 O60 2.385 . S
Mn36 O61 2.209 . S
Mn36 O62 2.094 . S
Mn37 O42 2.121 . S
Mn37 N44 2.257 . S
Mn37 N53 2.282 . S
Mn37 O61 2.215 . S
Mn37 O63 2.117 . S
C38 O60 1.234 . S
C38 O61 1.283 . S
C39 O51 1.281 . S
C39 O52 1.236 . S
C40 O62 1.240 . S
C40 O63 1.264 . S
O41 Mn36 2.095 . S
O41 C50 1.250 . S
O42 Mn37 2.121 . S
O42 C50 1.258 . S
C43 N44 1.326 1_556 S
C43 C47 1.460 . S
C43 H49 0.929 . S
N44 Mn37 2.257 . S
N44 C43 1.326 1_554 S
N44 C48 1.362 . S
C45 C46 1.258 1_554 S
C45 C48 1.431 . S
C45 C65 1.449 . S
C46 C45 1.258 1_556 S
C46 C47 1.477 . S
C46 H66 0.931 . S
C47 C43 1.460 . S
C47 C46 1.477 . S
C47 H67 0.930 . S
C48 N44 1.362 . S
C48 C45 1.431 . S
C48 C58 1.476 . S
H49 C43 0.929 . S
C50 O41 1.250 . S
C50 O42 1.258 . S
O51 Mn36 2.162 1_565 S
O51 C39 1.281 . S
O52 Mn36 2.297 1_565 S
O52 C39 1.236 . S
N53 Mn37 2.282 . S
N53 C54 1.328 . S
N53 C58 1.318 . S
C54 N53 1.328 . S
C54 C55 1.457 . S
C54 H59 0.929 . S
C55 C54 1.457 . S
C55 C56 1.291 . S
C55 H68 0.931 . S
C56 C55 1.291 . S
C56 C57 1.373 . S
C56 H69 0.929 . S
C57 C56 1.373 . S
C57 C58 1.396 . S
C57 C64 1.403 . S
C58 C48 1.476 . S
C58 N53 1.318 . S
C58 C57 1.396 . S
H59 C54 0.929 . S
O60 Mn36 2.385 . S
O60 C38 1.234 . S
O61 Mn36 2.209 . S
O61 Mn37 2.215 . S
O61 C38 1.283 . S
O62 Mn36 2.094 . S
O62 C40 1.240 . S
O63 Mn37 2.117 . S
O63 C40 1.264 . S
C64 C57 1.403 . S
C64 C65 1.399 . S
C64 H70 0.929 . S
C65 C45 1.449 . S
C65 C64 1.399 . S
C65 H71 0.930 . S
H66 C46 0.931 . S
H67 C47 0.930 . S
H68 C55 0.931 . S
H69 C56 0.929 . S
H70 C64 0.929 . S
H71 C65 0.930 . S
Mn72 O77 2.095 . S
Mn72 O87 2.162 1_655 S
Mn72 O88 2.297 1_654 S
Mn72 O96 2.395 . S
Mn72 O97 2.209 . S
Mn72 O98 2.094 . S
Mn73 O78 2.121 . S
Mn73 N80 2.257 . S
Mn73 N89 2.282 . S
Mn73 O97 2.215 . S
Mn73 O99 2.117 . S
C74 O96 1.238 . S
C74 O97 1.283 . S
C75 O87 1.281 . S
C75 O88 1.236 1_554 S
C76 O98 1.240 . S
C76 O99 1.264 . S
O77 Mn72 2.095 . S
O77 C86 1.250 . S
O78 Mn73 2.121 . S
O78 C86 1.258 . S
C79 N80 1.326 1_556 S
C79 C83 1.460 . S
C79 H85 0.929 . S
N80 Mn73 2.257 . S
N80 C79 1.326 1_554 S
N80 C84 1.362 . S
C81 C82 1.258 . S
C81 C84 1.431 1_556 S
C81 C101 1.449 1_556 S
C82 C81 1.258 . S
C82 C83 1.477 . S
C82 H102 0.931 . S
C83 C79 1.460 . S
C83 C82 1.477 . S
C83 H103 0.930 . S
C84 N80 1.362 . S
C84 C81 1.431 1_554 S
C84 C94 1.476 . S
H85 C79 0.929 . S
C86 O77 1.250 . S
C86 O78 1.258 . S
O87 Mn72 2.162 1_455 S
O87 C75 1.281 . S
O88 Mn72 2.297 1_456 S
O88 C75 1.236 1_556 S
N89 Mn73 2.282 . S
N89 C90 1.328 . S
N89 C94 1.318 . S
C90 N89 1.328 . S
C90 C91 1.457 . S
C90 H95 0.929 . S
C91 C90 1.457 . S
C91 C92 1.291 . S
C91 H104 0.931 . S
C92 C91 1.291 . S
C92 C93 1.373 . S
C92 H105 0.929 . S
C93 C92 1.373 . S
C93 C94 1.396 . S
C93 C100 1.403 . S
C94 C84 1.476 . S
C94 N89 1.318 . S
C94 C93 1.396 . S
H95 C90 0.929 . S
O96 Mn72 2.395 . S
O96 C74 1.238 . S
O97 Mn72 2.209 . S
O97 Mn73 2.215 . S
O97 C74 1.283 . S
O98 Mn72 2.094 . S
O98 C76 1.240 . S
O99 Mn73 2.117 . S
O99 C76 1.264 . S
C100 C93 1.403 . S
C100 C101 1.399 . S
C100 H106 0.929 . S
C101 C81 1.449 1_554 S
C101 C100 1.399 . S
C101 H107 0.930 . S
H102 C82 0.931 . S
H103 C83 0.930 . S
H104 C91 0.931 . S
H105 C92 0.929 . S
H106 C100 0.929 . S
H107 C101 0.930 . S
Mn108 O113 2.095 . S
Mn108 O123 2.162 . S
Mn108 O124 2.297 . S
Mn108 O132 2.385 . S
Mn108 O133 2.209 . S
Mn108 O134 2.094 . S
Mn109 O114 2.121 . S
Mn109 N116 2.257 . S
Mn109 N125 2.282 . S
Mn109 O133 2.215 . S
Mn109 O135 2.117 . S
C110 O132 1.234 . S
C110 O133 1.283 . S
C111 O123 1.281 . S
C111 O124 1.236 . S
C112 O134 1.240 . S
C112 O135 1.264 . S
O113 Mn108 2.095 . S
O113 C122 1.250 . S
O114 Mn109 2.121 . S
O114 C122 1.258 . S
C115 N116 1.326 . S
C115 C119 1.460 . S
C115 H121 0.929 . S
N116 Mn109 2.257 . S
N116 C115 1.326 . S
N116 C120 1.362 . S
C117 C118 1.258 . S
C117 C120 1.431 . S
C117 C137 1.449 . S
C118 C117 1.258 . S
C118 C119 1.477 . S
C118 H138 0.931 . S
C119 C115 1.460 . S
C119 C118 1.477 . S
C119 H139 0.930 . S
C120 N116 1.362 . S
C120 C117 1.431 . S
C120 C130 1.476 . S
H121 C115 0.929 . S
C122 O113 1.250 . S
C122 O114 1.258 . S
O123 Mn108 2.162 . S
O123 C111 1.281 . S
O124 Mn108 2.297 . S
O124 C111 1.236 . S
N125 Mn109 2.282 . S
N125 C126 1.328 . S
N125 C130 1.318 . S
C126 N125 1.328 . S
C126 C127 1.457 . S
C126 H131 0.929 . S
C127 C126 1.457 . S
C127 C128 1.291 . S
C127 H140 0.931 . S
C128 C127 1.291 . S
C128 C129 1.373 . S
C128 H141 0.929 . S
C129 C128 1.373 . S
C129 C130 1.396 . S
C129 C136 1.403 . S
C130 C120 1.476 . S
C130 N125 1.318 . S
C130 C129 1.396 . S
H131 C126 0.929 . S
O132 Mn108 2.385 . S
O132 C110 1.234 . S
O133 Mn108 2.209 . S
O133 Mn109 2.215 . S
O133 C110 1.283 . S
O134 Mn108 2.094 . S
O134 C112 1.240 . S
O135 Mn109 2.117 . S
O135 C112 1.264 . S
C136 C129 1.403 . S
C136 C137 1.399 . S
C136 H142 0.929 . S
C137 C117 1.449 . S
C137 C136 1.399 . S
C137 H143 0.930 . S
H138 C118 0.931 . S
H139 C119 0.930 . S
H140 C127 0.931 . S
H141 C128 0.929 . S
H142 C136 0.929 . S
H143 C137 0.930 . S
Mn144 O149 2.095 . S
Mn144 O159 2.162 1_565 S
Mn144 O160 2.297 1_565 S
Mn144 O168 2.385 . S
Mn144 O169 2.209 . S
Mn144 O170 2.094 . S
Mn145 O150 2.121 . S
Mn145 N152 2.257 . S
Mn145 N161 2.282 . S
Mn145 O169 2.215 . S
Mn145 O171 2.117 . S
C146 O168 1.234 . S
C146 O169 1.283 . S
C147 O159 1.281 . S
C147 O160 1.236 . S
C148 O170 1.240 . S
C148 O171 1.264 . S
O149 Mn144 2.095 . S
O149 C158 1.250 . S
O150 Mn145 2.121 . S
O150 C158 1.258 . S
C151 N152 1.326 . S
C151 C155 1.460 . S
C151 H157 0.929 . S
N152 Mn145 2.257 . S
N152 C151 1.326 . S
N152 C156 1.362 . S
C153 C154 1.258 . S
C153 C156 1.431 . S
C153 C173 1.449 . S
C154 C153 1.258 . S
C154 C155 1.477 . S
C154 H174 0.931 . S
C155 C151 1.460 . S
C155 C154 1.477 . S
C155 H175 0.930 . S
C156 N152 1.362 . S
C156 C153 1.431 . S
C156 C166 1.476 . S
H157 C151 0.929 . S
C158 O149 1.250 . S
C158 O150 1.258 . S
O159 Mn144 2.162 1_545 S
O159 C147 1.281 . S
O160 Mn144 2.297 1_545 S
O160 C147 1.236 . S
N161 Mn145 2.282 . S
N161 C162 1.328 . S
N161 C166 1.318 . S
C162 N161 1.328 . S
C162 C163 1.457 . S
C162 H167 0.929 . S
C163 C162 1.457 . S
C163 C164 1.291 . S
C163 H176 0.931 . S
C164 C163 1.291 . S
C164 C165 1.373 . S
C164 H177 0.929 . S
C165 C164 1.373 . S
C165 C166 1.396 . S
C165 C172 1.403 . S
C166 C156 1.476 . S
C166 N161 1.318 . S
C166 C165 1.396 . S
H167 C162 0.929 . S
O168 Mn144 2.385 . S
O168 C146 1.234 . S
O169 Mn144 2.209 . S
O169 Mn145 2.215 . S
O169 C146 1.283 . S
O170 Mn144 2.094 . S
O170 C148 1.240 . S
O171 Mn145 2.117 . S
O171 C148 1.264 . S
C172 C165 1.403 . S
C172 C173 1.399 . S
C172 H178 0.929 . S
C173 C153 1.449 . S
C173 C172 1.399 . S
C173 H179 0.930 . S
H174 C154 0.931 . S
H175 C155 0.930 . S
H176 C163 0.931 . S
H177 C164 0.929 . S
H178 C172 0.929 . S
H179 C173 0.930 . S
Mn180 O185 2.095 . S
Mn180 O195 2.162 . S
Mn180 O196 2.297 . S
Mn180 O204 2.385 1_455 S
Mn180 O205 2.209 . S
Mn180 O206 2.094 . S
Mn181 O186 2.121 . S
Mn181 N188 2.257 1_455 S
Mn181 N197 2.282 . S
Mn181 O205 2.215 . S
Mn181 O207 2.117 . S
C182 O204 1.234 . S
C182 O205 1.283 1_655 S
C183 O195 1.281 . S
C183 O196 1.236 . S
C184 O206 1.240 . S
C184 O207 1.264 . S
O185 Mn180 2.095 . S
O185 C194 1.250 . S
O186 Mn181 2.121 . S
O186 C194 1.258 . S
C187 N188 1.326 . S
C187 C191 1.460 . S
C187 H193 0.929 1_655 S
N188 Mn181 2.257 1_655 S
N188 C187 1.326 . S
N188 C192 1.362 . S
C189 C190 1.258 . S
C189 C192 1.431 . S
C189 C209 1.449 . S
C190 C189 1.258 . S
C190 C191 1.477 . S
C190 H210 0.931 . S
C191 C187 1.460 . S
C191 C190 1.477 . S
C191 H211 0.930 . S
C192 N188 1.362 . S
C192 C189 1.431 . S
C192 C202 1.476 . S
H193 C187 0.929 1_455 S
C194 O185 1.250 . S
C194 O186 1.258 . S
O195 Mn180 2.162 . S
O195 C183 1.281 . S
O196 Mn180 2.297 . S
O196 C183 1.236 . S
N197 Mn181 2.282 . S
N197 C198 1.328 . S
N197 C202 1.318 1_455 S
C198 N197 1.328 . S
C198 C199 1.457 1_455 S
C198 H203 0.929 . S
C199 C198 1.457 1_655 S
C199 C200 1.291 . S
C199 H212 0.931 . S
C200 C199 1.291 . S
C200 C201 1.373 . S
C200 H213 0.929 . S
C201 C200 1.373 . S
C201 C202 1.396 . S
C201 C208 1.403 . S
C202 C192 1.476 . S
C202 N197 1.318 1_655 S
C202 C201 1.396 . S
H203 C198 0.929 . S
O204 Mn180 2.385 1_655 S
O204 C182 1.234 . S
O205 Mn180 2.209 . S
O205 Mn181 2.215 . S
O205 C182 1.283 1_455 S
O206 Mn180 2.094 . S
O206 C184 1.240 . S
O207 Mn181 2.117 . S
O207 C184 1.264 . S
C208 C201 1.403 . S
C208 C209 1.399 . S
C208 H214 0.929 1_565 S
C209 C189 1.449 . S
C209 C208 1.399 . S
C209 H215 0.930 . S
H210 C190 0.931 . S
H211 C191 0.930 . S
H212 C199 0.931 . S
H213 C200 0.929 . S
H214 C208 0.929 1_545 S
H215 C209 0.930 . S
Mn216 O221 2.095 . S
Mn216 O231 2.162 1_556 S
Mn216 O232 2.297 . S
Mn216 O240 2.385 1_556 S
Mn216 O241 2.209 . S
Mn216 O242 2.094 . S
Mn217 O222 2.121 . S
Mn217 N224 2.257 . S
Mn217 N233 2.282 . S
Mn217 O241 2.215 . S
Mn217 O243 2.117 . S
C218 O240 1.234 1_556 S
C218 O241 1.283 . S
C219 O231 1.281 . S
C219 O232 1.236 1_554 S
C220 O242 1.240 . S
C220 O243 1.264 . S
O221 Mn216 2.095 . S
O221 C230 1.250 . S
O222 Mn217 2.121 . S
O222 C230 1.258 . S
C223 N224 1.326 . S
C223 C227 1.460 . S
C223 H229 0.929 . S
N224 Mn217 2.257 . S
N224 C223 1.326 . S
N224 C228 1.362 . S
C225 C226 1.258 . S
C225 C228 1.431 . S
C225 C245 1.449 1_655 S
C226 C225 1.258 . S
C226 C227 1.477 . S
C226 H246 0.931 1_655 S
C227 C223 1.460 . S
C227 C226 1.477 . S
C227 H247 0.930 . S
C228 N224 1.362 . S
C228 C225 1.431 . S
C228 C238 1.476 . S
H229 C223 0.929 . S
C230 O221 1.250 . S
C230 O222 1.258 . S
O231 Mn216 2.162 1_554 S
O231 C219 1.281 . S
O232 Mn216 2.297 . S
O232 C219 1.236 1_556 S
N233 Mn217 2.282 . S
N233 C234 1.328 . S
N233 C238 1.318 . S
C234 N233 1.328 . S
C234 C235 1.457 . S
C234 H239 0.929 . S
C235 C234 1.457 . S
C235 C236 1.291 . S
C235 H248 0.931 . S
C236 C235 1.291 . S
C236 C237 1.373 . S
C236 H249 0.929 . S
C237 C236 1.373 . S
C237 C238 1.396 . S
C237 C244 1.403 . S
C238 C228 1.476 . S
C238 N233 1.318 . S
C238 C237 1.396 . S
H239 C234 0.929 . S
O240 Mn216 2.385 1_554 S
O240 C218 1.234 1_554 S
O241 Mn216 2.209 . S
O241 Mn217 2.215 . S
O241 C218 1.283 . S
O242 Mn216 2.094 . S
O242 C220 1.240 . S
O243 Mn217 2.117 . S
O243 C220 1.264 . S
C244 C237 1.403 . S
C244 C245 1.399 1_655 S
C244 H250 0.929 1_655 S
C245 C225 1.449 1_455 S
C245 C244 1.399 1_455 S
C245 H251 0.930 . S
H246 C226 0.931 1_455 S
H247 C227 0.930 . S
H248 C235 0.931 . S
H249 C236 0.929 . S
H250 C244 0.929 1_455 S
H251 C245 0.930 . S
Mn252 O257 2.095 . S
Mn252 O267 2.162 . S
Mn252 O268 2.297 . S
Mn252 O276 2.385 . S
Mn252 O277 2.209 . S
Mn252 O278 2.094 1_565 S
Mn253 O258 2.121 . S
Mn253 N260 2.257 . S
Mn253 N269 2.282 1_565 S
Mn253 O277 2.215 1_554 S
Mn253 O279 2.117 1_565 S
C254 O276 1.234 . S
C254 O277 1.283 . S
C255 O267 1.281 . S
C255 O268 1.236 . S
C256 O278 1.240 . S
C256 O279 1.264 1_556 S
O257 Mn252 2.095 . S
O257 C266 1.250 1_556 S
O258 Mn253 2.121 . S
O258 C266 1.258 . S
C259 N260 1.326 . S
C259 C263 1.460 . S
C259 H265 0.929 . S
N260 Mn253 2.257 . S
N260 C259 1.326 . S
N260 C264 1.362 . S
C261 C262 1.258 . S
C261 C264 1.431 . S
C261 C281 1.449 . S
C262 C261 1.258 . S
C262 C263 1.477 . S
C262 H282 0.931 . S
C263 C259 1.460 . S
C263 C262 1.477 . S
C263 H283 0.930 . S
C264 N260 1.362 . S
C264 C261 1.431 . S
C264 C274 1.476 1_565 S
H265 C259 0.929 . S
C266 O257 1.250 1_554 S
C266 O258 1.258 . S
O267 Mn252 2.162 . S
O267 C255 1.281 . S
O268 Mn252 2.297 . S
O268 C255 1.236 . S
N269 Mn253 2.282 1_545 S
N269 C270 1.328 . S
N269 C274 1.318 . S
C270 N269 1.328 . S
C270 C271 1.457 . S
C270 H275 0.929 . S
C271 C270 1.457 . S
C271 C272 1.291 . S
C271 H284 0.931 . S
C272 C271 1.291 . S
C272 C273 1.373 . S
C272 H285 0.929 . S
C273 C272 1.373 . S
C273 C274 1.396 . S
C273 C280 1.403 . S
C274 C264 1.476 1_545 S
C274 N269 1.318 . S
C274 C273 1.396 . S
H275 C270 0.929 . S
O276 Mn252 2.385 . S
O276 C254 1.234 . S
O277 Mn252 2.209 . S
O277 Mn253 2.215 1_556 S
O277 C254 1.283 . S
O278 Mn252 2.094 1_545 S
O278 C256 1.240 . S
O279 Mn253 2.117 1_545 S
O279 C256 1.264 1_554 S
C280 C273 1.403 . S
C280 C281 1.399 1_545 S
C280 H286 0.929 . S
C281 C261 1.449 . S
C281 C280 1.399 1_565 S
C281 H287 0.930 . S
H282 C262 0.931 . S
H283 C263 0.930 . S
H284 C271 0.931 . S
H285 C272 0.929 . S
H286 C280 0.929 . S
H287 C281 0.930 . S
Mn288 O293 2.095 . S
Mn288 O303 2.162 . S
Mn288 O304 2.297 . S
Mn288 O312 2.385 . S
Mn288 O313 2.209 . S
Mn288 O314 2.094 1_455 S
Mn289 O294 2.121 . S
Mn289 N296 2.257 . S
Mn289 N305 2.282 1_455 S
Mn289 O313 2.215 1_554 S
Mn289 O315 2.117 1_455 S
C290 O312 1.234 . S
C290 O313 1.283 . S
C291 O303 1.281 . S
C291 O304 1.236 . S
C292 O314 1.240 . S
C292 O315 1.264 1_556 S
O293 Mn288 2.095 . S
O293 C302 1.250 1_556 S
O294 Mn289 2.121 . S
O294 C302 1.258 . S
C295 N296 1.326 . S
C295 C299 1.460 . S
C295 H301 0.929 . S
N296 Mn289 2.257 . S
N296 C295 1.326 . S
N296 C300 1.362 . S
C297 C298 1.258 . S
C297 C300 1.431 . S
C297 C317 1.449 . S
C298 C297 1.258 . S
C298 C299 1.477 . S
C298 H318 0.931 . S
C299 C295 1.460 . S
C299 C298 1.477 . S
C299 H319 0.930 . S
C300 N296 1.362 . S
C300 C297 1.431 . S
C300 C310 1.476 1_455 S
H301 C295 0.929 . S
C302 O293 1.250 1_554 S
C302 O294 1.258 . S
O303 Mn288 2.162 . S
O303 C291 1.281 . S
O304 Mn288 2.297 . S
O304 C291 1.236 . S
N305 Mn289 2.282 1_655 S
N305 C306 1.328 . S
N305 C310 1.318 . S
C306 N305 1.328 . S
C306 C307 1.457 . S
C306 H311 0.929 . S
C307 C306 1.457 . S
C307 C308 1.291 . S
C307 H320 0.931 . S
C308 C307 1.291 . S
C308 C309 1.373 . S
C308 H321 0.929 . S
C309 C308 1.373 . S
C309 C310 1.396 . S
C309 C316 1.403 . S
C310 C300 1.476 1_655 S
C310 N305 1.318 . S
C310 C309 1.396 . S
H311 C306 0.929 . S
O312 Mn288 2.385 . S
O312 C290 1.234 . S
O313 Mn288 2.209 . S
O313 Mn289 2.215 1_556 S
O313 C290 1.283 . S
O314 Mn288 2.094 1_655 S
O314 C292 1.240 . S
O315 Mn289 2.117 1_655 S
O315 C292 1.264 1_554 S
C316 C309 1.403 . S
C316 C317 1.399 1_655 S
C316 H322 0.929 . S
C317 C297 1.449 . S
C317 C316 1.399 1_455 S
C317 H323 0.930 . S
H318 C298 0.931 . S
H319 C299 0.930 . S
H320 C307 0.931 . S
H321 C308 0.929 . S
H322 C316 0.929 . S
H323 C317 0.930 . S
Mn324 O329 2.095 . S
Mn324 O339 2.162 . S
Mn324 O340 2.297 . S
Mn324 O348 2.385 . S
Mn324 O349 2.209 . S
Mn324 O350 2.094 . S
Mn325 O330 2.121 . S
Mn325 N332 2.257 . S
Mn325 N341 2.282 . S
Mn325 O349 2.215 . S
Mn325 O351 2.117 . S
C326 O348 1.234 . S
C326 O349 1.283 . S
C327 O339 1.281 . S
C327 O340 1.236 . S
C328 O350 1.240 . S
C328 O351 1.264 . S
O329 Mn324 2.095 . S
O329 C338 1.250 . S
O330 Mn325 2.121 . S
O330 C338 1.258 . S
C331 N332 1.326 . S
C331 C335 1.460 . S
C331 H337 0.929 . S
N332 Mn325 2.257 . S
N332 C331 1.326 . S
N332 C336 1.362 . S
C333 C334 1.258 . S
C333 C336 1.431 . S
C333 C353 1.449 . S
C334 C333 1.258 . S
C334 C335 1.477 . S
C334 H354 0.931 . S
C335 C331 1.460 . S
C335 C334 1.477 . S
C335 H355 0.930 . S
C336 N332 1.362 . S
C336 C333 1.431 . S
C336 C346 1.476 . S
H337 C331 0.929 . S
C338 O329 1.250 . S
C338 O330 1.258 . S
O339 Mn324 2.162 . S
O339 C327 1.281 . S
O340 Mn324 2.297 . S
O340 C327 1.236 . S
N341 Mn325 2.282 . S
N341 C342 1.328 . S
N341 C346 1.318 . S
C342 N341 1.328 . S
C342 C343 1.457 . S
C342 H347 0.929 . S
C343 C342 1.457 . S
C343 C344 1.291 . S
C343 H356 0.931 . S
C344 C343 1.291 . S
C344 C345 1.373 . S
C344 H357 0.929 . S
C345 C344 1.373 . S
C345 C346 1.396 . S
C345 C352 1.403 . S
C346 C336 1.476 . S
C346 N341 1.318 . S
C346 C345 1.396 . S
H347 C342 0.929 . S
O348 Mn324 2.385 . S
O348 C326 1.234 . S
O349 Mn324 2.209 . S
O349 Mn325 2.215 . S
O349 C326 1.283 . S
O350 Mn324 2.094 . S
O350 C328 1.240 . S
O351 Mn325 2.117 . S
O351 C328 1.264 . S
C352 C345 1.403 . S
C352 C353 1.399 . S
C352 H358 0.929 . S
C353 C333 1.449 . S
C353 C352 1.399 . S
C353 H359 0.930 . S
H354 C334 0.931 . S
H355 C335 0.930 . S
H356 C343 0.931 . S
H357 C344 0.929 . S
H358 C352 0.929 . S
H359 C353 0.930 . S
Mn360 O365 2.095 . S
Mn360 O375 2.162 . S
Mn360 O376 2.297 . S
Mn360 O384 2.385 . S
Mn360 O385 2.209 . S
Mn360 O386 2.094 1_545 S
Mn361 O366 2.121 . S
Mn361 N368 2.257 . S
Mn361 N377 2.282 1_545 S
Mn361 O385 2.215 . S
Mn361 O387 2.117 1_545 S
C362 O384 1.234 . S
C362 O385 1.283 . S
C363 O375 1.281 . S
C363 O376 1.236 . S
C364 O386 1.240 . S
C364 O387 1.264 . S
O365 Mn360 2.095 . S
O365 C374 1.250 . S
O366 Mn361 2.121 . S
O366 C374 1.258 . S
C367 N368 1.326 . S
C367 C371 1.460 . S
C367 H373 0.929 . S
N368 Mn361 2.257 . S
N368 C367 1.326 . S
N368 C372 1.362 . S
C369 C370 1.258 . S
C369 C372 1.431 . S
C369 C389 1.449 . S
C370 C369 1.258 . S
C370 C371 1.477 . S
C370 H390 0.931 . S
C371 C367 1.460 . S
C371 C370 1.477 . S
C371 H391 0.930 . S
C372 N368 1.362 . S
C372 C369 1.431 . S
C372 C382 1.476 1_545 S
H373 C367 0.929 . S
C374 O365 1.250 . S
C374 O366 1.258 . S
O375 Mn360 2.162 . S
O375 C363 1.281 . S
O376 Mn360 2.297 . S
O376 C363 1.236 . S
N377 Mn361 2.282 1_565 S
N377 C378 1.328 . S
N377 C382 1.318 . S
C378 N377 1.328 . S
C378 C379 1.457 . S
C378 H383 0.929 . S
C379 C378 1.457 . S
C379 C380 1.291 . S
C379 H392 0.931 . S
C380 C379 1.291 . S
C380 C381 1.373 . S
C380 H393 0.929 . S
C381 C380 1.373 . S
C381 C382 1.396 . S
C381 C388 1.403 . S
C382 C372 1.476 1_565 S
C382 N377 1.318 . S
C382 C381 1.396 . S
H383 C378 0.929 . S
O384 Mn360 2.385 . S
O384 C362 1.234 . S
O385 Mn360 2.209 . S
O385 Mn361 2.215 . S
O385 C362 1.283 . S
O386 Mn360 2.094 1_565 S
O386 C364 1.240 . S
O387 Mn361 2.117 1_565 S
O387 C364 1.264 . S
C388 C381 1.403 . S
C388 C389 1.399 1_565 S
C388 H394 0.929 . S
C389 C369 1.449 . S
C389 C388 1.399 1_545 S
C389 H395 0.930 . S
H390 C370 0.931 . S
H391 C371 0.930 . S
H392 C379 0.931 . S
H393 C380 0.929 . S
H394 C388 0.929 . S
H395 C389 0.930 . S
Mn396 O401 2.095 . S
Mn396 O411 2.162 . S
Mn396 O412 2.297 . S
Mn396 O420 2.385 . S
Mn396 O421 2.209 . S
Mn396 O422 2.094 . S
Mn397 O402 2.121 1_455 S
Mn397 N404 2.257 . S
Mn397 N413 2.282 . S
Mn397 O421 2.215 1_455 S
Mn397 O423 2.117 1_455 S
C398 O420 1.234 1_455 S
C398 O421 1.283 1_455 S
C399 O411 1.281 . S
C399 O412 1.236 . S
C400 O422 1.240 . S
C400 O423 1.264 . S
O401 Mn396 2.095 . S
O401 C410 1.250 . S
O402 Mn397 2.121 1_655 S
O402 C410 1.258 . S
C403 N404 1.326 . S
C403 C407 1.460 . S
C403 H409 0.929 . S
N404 Mn397 2.257 . S
N404 C403 1.326 . S
N404 C408 1.362 . S
C405 C406 1.258 . S
C405 C408 1.431 . S
C405 C425 1.449 . S
C406 C405 1.258 . S
C406 C407 1.477 . S
C406 H426 0.931 . S
C407 C403 1.460 . S
C407 C406 1.477 . S
C407 H427 0.930 . S
C408 N404 1.362 . S
C408 C405 1.431 . S
C408 C418 1.476 . S
H409 C403 0.929 . S
C410 O401 1.250 . S
C410 O402 1.258 . S
O411 Mn396 2.162 . S
O411 C399 1.281 . S
O412 Mn396 2.297 . S
O412 C399 1.236 . S
N413 Mn397 2.282 . S
N413 C414 1.328 . S
N413 C418 1.318 . S
C414 N413 1.328 . S
C414 C415 1.457 . S
C414 H419 0.929 . S
C415 C414 1.457 . S
C415 C416 1.291 . S
C415 H428 0.931 . S
C416 C415 1.291 . S
C416 C417 1.373 . S
C416 H429 0.929 . S
C417 C416 1.373 . S
C417 C418 1.396 . S
C417 C424 1.403 . S
C418 C408 1.476 . S
C418 N413 1.318 . S
C418 C417 1.396 . S
H419 C414 0.929 . S
O420 Mn396 2.385 . S
O420 C398 1.234 1_655 S
O421 Mn396 2.209 . S
O421 Mn397 2.215 1_655 S
O421 C398 1.283 1_655 S
O422 Mn396 2.094 . S
O422 C400 1.240 . S
O423 Mn397 2.117 1_655 S
O423 C400 1.264 . S
C424 C417 1.403 . S
C424 C425 1.399 . S
C424 H430 0.929 . S
C425 C405 1.449 . S
C425 C424 1.399 . S
C425 H431 0.930 . S
H426 C406 0.931 . S
H427 C407 0.930 . S
H428 C415 0.931 . S
H429 C416 0.929 . S
H430 C424 0.929 . S
H431 C425 0.930 . S
Mn432 O437 2.095 . S
Mn432 O447 2.162 1_655 S
Mn432 O448 2.297 . S
Mn432 O456 2.385 . S
Mn432 O457 2.209 . S
Mn432 O458 2.094 . S
Mn433 O438 2.121 . S
Mn433 N440 2.257 . S
Mn433 N449 2.282 . S
Mn433 O457 2.215 . S
Mn433 O459 2.117 . S
C434 O456 1.234 . S
C434 O457 1.283 . S
C435 O447 1.281 . S
C435 O448 1.236 1_455 S
C436 O458 1.240 . S
C436 O459 1.264 . S
O437 Mn432 2.095 . S
O437 C446 1.250 . S
O438 Mn433 2.121 . S
O438 C446 1.258 . S
C439 N440 1.326 . S
C439 C443 1.460 . S
C439 H445 0.929 . S
N440 Mn433 2.257 . S
N440 C439 1.326 . S
N440 C444 1.362 . S
C441 C442 1.258 . S
C441 C444 1.431 . S
C441 C461 1.449 . S
C442 C441 1.258 . S
C442 C443 1.477 . S
C442 H462 0.931 . S
C443 C439 1.460 . S
C443 C442 1.477 . S
C443 H463 0.930 . S
C444 N440 1.362 . S
C444 C441 1.431 . S
C444 C454 1.476 . S
H445 C439 0.929 . S
C446 O437 1.250 . S
C446 O438 1.258 . S
O447 Mn432 2.162 1_455 S
O447 C435 1.281 . S
O448 Mn432 2.297 . S
O448 C435 1.236 1_655 S
N449 Mn433 2.282 . S
N449 C450 1.328 . S
N449 C454 1.318 . S
C450 N449 1.328 . S
C450 C451 1.457 . S
C450 H455 0.929 . S
C451 C450 1.457 . S
C451 C452 1.291 . S
C451 H464 0.931 . S
C452 C451 1.291 . S
C452 C453 1.373 . S
C452 H465 0.929 . S
C453 C452 1.373 . S
C453 C454 1.396 . S
C453 C460 1.403 . S
C454 C444 1.476 . S
C454 N449 1.318 . S
C454 C453 1.396 . S
H455 C450 0.929 . S
O456 Mn432 2.385 . S
O456 C434 1.234 . S
O457 Mn432 2.209 . S
O457 Mn433 2.215 . S
O457 C434 1.283 . S
O458 Mn432 2.094 . S
O458 C436 1.240 . S
O459 Mn433 2.117 . S
O459 C436 1.264 . S
C460 C453 1.403 . S
C460 C461 1.399 . S
C460 H466 0.929 . S
C461 C441 1.449 . S
C461 C460 1.399 . S
C461 H467 0.930 . S
H462 C442 0.931 . S
H463 C443 0.930 . S
H464 C451 0.931 . S
H465 C452 0.929 . S
H466 C460 0.929 . S
H467 C461 0.930 . S
Mn468 O473 2.095 . S
Mn468 O483 2.162 . S
Mn468 O484 2.297 . S
Mn468 O492 2.385 . S
Mn468 O493 2.209 . S
Mn468 O494 2.094 . S
Mn469 O474 2.121 . S
Mn469 N476 2.257 . S
Mn469 N485 2.282 . S
Mn469 O493 2.215 . S
Mn469 O495 2.117 . S
C470 O492 1.234 . S
C470 O493 1.283 . S
C471 O483 1.281 . S
C471 O484 1.236 . S
C472 O494 1.240 . S
C472 O495 1.264 . S
O473 Mn468 2.095 . S
O473 C482 1.250 . S
O474 Mn469 2.121 . S
O474 C482 1.258 . S
C475 N476 1.326 . S
C475 C479 1.460 . S
C475 H481 0.929 . S
N476 Mn469 2.257 . S
N476 C475 1.326 . S
N476 C480 1.362 . S
C477 C478 1.258 . S
C477 C480 1.431 . S
C477 C497 1.449 . S
C478 C477 1.258 . S
C478 C479 1.477 . S
C478 H498 0.931 . S
C479 C475 1.460 . S
C479 C478 1.477 . S
C479 H499 0.930 . S
C480 N476 1.362 . S
C480 C477 1.431 . S
C480 C490 1.476 . S
H481 C475 0.929 . S
C482 O473 1.250 . S
C482 O474 1.258 . S
O483 Mn468 2.162 . S
O483 C471 1.281 . S
O484 Mn468 2.297 . S
O484 C471 1.236 . S
N485 Mn469 2.282 . S
N485 C486 1.328 . S
N485 C490 1.318 . S
C486 N485 1.328 . S
C486 C487 1.457 . S
C486 H491 0.929 . S
C487 C486 1.457 . S
C487 C488 1.291 . S
C487 H500 0.931 . S
C488 C487 1.291 . S
C488 C489 1.373 . S
C488 H501 0.929 . S
C489 C488 1.373 . S
C489 C490 1.396 . S
C489 C496 1.403 . S
C490 C480 1.476 . S
C490 N485 1.318 . S
C490 C489 1.396 . S
H491 C486 0.929 . S
O492 Mn468 2.385 . S
O492 C470 1.234 . S
O493 Mn468 2.209 . S
O493 Mn469 2.215 . S
O493 C470 1.283 . S
O494 Mn468 2.094 . S
O494 C472 1.240 . S
O495 Mn469 2.117 . S
O495 C472 1.264 . S
C496 C489 1.403 . S
C496 C497 1.399 . S
C496 H502 0.929 . S
C497 C477 1.449 . S
C497 C496 1.399 . S
C497 H503 0.930 . S
H498 C478 0.931 . S
H499 C479 0.930 . S
H500 C487 0.931 . S
H501 C488 0.929 . S
H502 C496 0.929 . S
H503 C497 0.930 . S
Mn504 O509 2.095 . S
Mn504 O519 2.162 . S
Mn504 O520 2.297 . S
Mn504 O528 2.385 . S
Mn504 O529 2.209 1_545 S
Mn504 O530 2.094 . S
Mn505 O510 2.121 . S
Mn505 N512 2.257 . S
Mn505 N521 2.282 . S
Mn505 O529 2.215 . S
Mn505 O531 2.117 . S
C506 O528 1.234 1_565 S
C506 O529 1.283 . S
C507 O519 1.281 . S
C507 O520 1.236 . S
C508 O530 1.240 . S
C508 O531 1.264 1_545 S
O509 Mn504 2.095 . S
O509 C518 1.250 . S
O510 Mn505 2.121 . S
O510 C518 1.258 1_565 S
C511 N512 1.326 . S
C511 C515 1.460 . S
C511 H517 0.929 . S
N512 Mn505 2.257 . S
N512 C511 1.326 . S
N512 C516 1.362 . S
C513 C514 1.258 . S
C513 C516 1.431 . S
C513 C533 1.449 . S
C514 C513 1.258 . S
C514 C515 1.477 . S
C514 H534 0.931 . S
C515 C511 1.460 . S
C515 C514 1.477 . S
C515 H535 0.930 . S
C516 N512 1.362 . S
C516 C513 1.431 . S
C516 C526 1.476 . S
H517 C511 0.929 . S
C518 O509 1.250 . S
C518 O510 1.258 1_545 S
O519 Mn504 2.162 . S
O519 C507 1.281 . S
O520 Mn504 2.297 . S
O520 C507 1.236 . S
N521 Mn505 2.282 . S
N521 C522 1.328 . S
N521 C526 1.318 . S
C522 N521 1.328 . S
C522 C523 1.457 . S
C522 H527 0.929 . S
C523 C522 1.457 . S
C523 C524 1.291 . S
C523 H536 0.931 . S
C524 C523 1.291 . S
C524 C525 1.373 . S
C524 H537 0.929 . S
C525 C524 1.373 . S
C525 C526 1.396 . S
C525 C532 1.403 . S
C526 C516 1.476 . S
C526 N521 1.318 . S
C526 C525 1.396 . S
H527 C522 0.929 . S
O528 Mn504 2.385 . S
O528 C506 1.234 1_545 S
O529 Mn504 2.209 1_565 S
O529 Mn505 2.215 . S
O529 C506 1.283 . S
O530 Mn504 2.094 . S
O530 C508 1.240 . S
O531 Mn505 2.117 . S
O531 C508 1.264 1_565 S
C532 C525 1.403 . S
C532 C533 1.399 . S
C532 H538 0.929 . S
C533 C513 1.449 . S
C533 C532 1.399 . S
C533 H539 0.930 . S
H534 C514 0.931 . S
H535 C515 0.930 . S
H536 C523 0.931 . S
H537 C524 0.929 . S
H538 C532 0.929 . S
H539 C533 0.930 . S
Mn540 O545 2.095 . S
Mn540 O555 2.162 . S
Mn540 O556 2.297 . S
Mn540 O564 2.385 . S
Mn540 O565 2.209 . S
Mn540 O566 2.094 . S
Mn541 O546 2.121 . S
Mn541 N548 2.257 . S
Mn541 N557 2.282 . S
Mn541 O565 2.215 . S
Mn541 O567 2.117 . S
C542 O564 1.234 . S
C542 O565 1.283 . S
C543 O555 1.281 . S
C543 O556 1.236 . S
C544 O566 1.240 . S
C544 O567 1.264 . S
O545 Mn540 2.095 . S
O545 C554 1.250 . S
O546 Mn541 2.121 . S
O546 C554 1.258 . S
C547 N548 1.326 . S
C547 C551 1.460 . S
C547 H553 0.929 . S
N548 Mn541 2.257 . S
N548 C547 1.326 . S
N548 C552 1.362 . S
C549 C550 1.258 1_455 S
C549 C552 1.431 1_455 S
C549 C569 1.449 . S
C550 C549 1.258 1_655 S
C550 C551 1.477 . S
C550 H570 0.931 1_655 S
C551 C547 1.460 . S
C551 C550 1.477 . S
C551 H571 0.930 . S
C552 N548 1.362 . S
C552 C549 1.431 1_655 S
C552 C562 1.476 . S
H553 C547 0.929 . S
C554 O545 1.250 . S
C554 O546 1.258 . S
O555 Mn540 2.162 . S
O555 C543 1.281 . S
O556 Mn540 2.297 . S
O556 C543 1.236 . S
N557 Mn541 2.282 . S
N557 C558 1.328 . S
N557 C562 1.318 . S
C558 N557 1.328 . S
C558 C559 1.457 1_655 S
C558 H563 0.929 . S
C559 C558 1.457 1_455 S
C559 C560 1.291 . S
C559 H572 0.931 . S
C560 C559 1.291 . S
C560 C561 1.373 . S
C560 H573 0.929 . S
C561 C560 1.373 . S
C561 C562 1.396 1_455 S
C561 C568 1.403 . S
C562 C552 1.476 . S
C562 N557 1.318 . S
C562 C561 1.396 1_655 S
H563 C558 0.929 . S
O564 Mn540 2.385 . S
O564 C542 1.234 . S
O565 Mn540 2.209 . S
O565 Mn541 2.215 . S
O565 C542 1.283 . S
O566 Mn540 2.094 . S
O566 C544 1.240 . S
O567 Mn541 2.117 . S
O567 C544 1.264 . S
C568 C561 1.403 . S
C568 C569 1.399 . S
C568 H574 0.929 . S
C569 C549 1.449 . S
C569 C568 1.399 . S
C569 H575 0.930 . S
H570 C550 0.931 1_455 S
H571 C551 0.930 . S
H572 C559 0.931 . S
H573 C560 0.929 . S
H574 C568 0.929 . S
H575 C569 0.930 . S
Mn576 O581 2.095 . S
Mn576 O591 2.162 . S
Mn576 O592 2.297 . S
Mn576 O600 2.385 . S
Mn576 O601 2.209 . S
Mn576 O602 2.094 . S
Mn577 O582 2.121 . S
Mn577 N584 2.257 . S
Mn577 N593 2.282 . S
Mn577 O601 2.215 . S
Mn577 O603 2.117 . S
C578 O600 1.234 . S
C578 O601 1.283 . S
C579 O591 1.281 . S
C579 O592 1.236 . S
C580 O602 1.240 . S
C580 O603 1.264 . S
O581 Mn576 2.095 . S
O581 C590 1.250 . S
O582 Mn577 2.121 . S
O582 C590 1.258 . S
C583 N584 1.326 . S
C583 C587 1.460 . S
C583 H589 0.929 . S
N584 Mn577 2.257 . S
N584 C583 1.326 . S
N584 C588 1.362 . S
C585 C586 1.258 . S
C585 C588 1.431 . S
C585 C605 1.449 . S
C586 C585 1.258 . S
C586 C587 1.477 . S
C586 H606 0.931 . S
C587 C583 1.460 . S
C587 C586 1.477 . S
C587 H607 0.930 . S
C588 N584 1.362 . S
C588 C585 1.431 . S
C588 C598 1.476 . S
H589 C583 0.929 . S
C590 O581 1.250 . S
C590 O582 1.258 . S
O591 Mn576 2.162 . S
O591 C579 1.281 . S
O592 Mn576 2.297 . S
O592 C579 1.236 . S
N593 Mn577 2.282 . S
N593 C594 1.328 . S
N593 C598 1.318 . S
C594 N593 1.328 . S
C594 C595 1.457 . S
C594 H599 0.929 . S
C595 C594 1.457 . S
C595 C596 1.291 . S
C595 H608 0.931 . S
C596 C595 1.291 . S
C596 C597 1.373 . S
C596 H609 0.929 . S
C597 C596 1.373 . S
C597 C598 1.396 . S
C597 C604 1.403 . S
C598 C588 1.476 . S
C598 N593 1.318 . S
C598 C597 1.396 . S
H599 C594 0.929 . S
O600 Mn576 2.385 . S
O600 C578 1.234 . S
O601 Mn576 2.209 . S
O601 Mn577 2.215 . S
O601 C578 1.283 . S
O602 Mn576 2.094 . S
O602 C580 1.240 . S
O603 Mn577 2.117 . S
O603 C580 1.264 . S
C604 C597 1.403 . S
C604 C605 1.399 . S
C604 H610 0.929 1_455 S
C605 C585 1.449 . S
C605 C604 1.399 . S
C605 H611 0.930 1_455 S
H606 C586 0.931 . S
H607 C587 0.930 . S
H608 C595 0.931 . S
H609 C596 0.929 . S
H610 C604 0.929 1_655 S
H611 C605 0.930 1_655 S
Mn612 O617 2.095 . S
Mn612 O627 2.162 . S
Mn612 O628 2.297 . S
Mn612 O636 2.385 . S
Mn612 O637 2.209 . S
Mn612 O638 2.094 . S
Mn613 O618 2.121 . S
Mn613 N620 2.257 . S
Mn613 N629 2.282 . S
Mn613 O637 2.215 . S
Mn613 O639 2.117 . S
C614 O636 1.234 . S
C614 O637 1.283 . S
C615 O627 1.281 . S
C615 O628 1.236 . S
C616 O638 1.240 . S
C616 O639 1.264 . S
O617 Mn612 2.095 . S
O617 C626 1.250 . S
O618 Mn613 2.121 . S
O618 C626 1.258 . S
C619 N620 1.326 . S
C619 C623 1.460 . S
C619 H625 0.929 . S
N620 Mn613 2.257 . S
N620 C619 1.326 . S
N620 C624 1.362 . S
C621 C622 1.258 . S
C621 C624 1.431 . S
C621 C641 1.449 . S
C622 C621 1.258 . S
C622 C623 1.477 . S
C622 H642 0.931 . S
C623 C619 1.460 . S
C623 C622 1.477 . S
C623 H643 0.930 . S
C624 N620 1.362 . S
C624 C621 1.431 . S
C624 C634 1.476 . S
H625 C619 0.929 . S
C626 O617 1.250 . S
C626 O618 1.258 . S
O627 Mn612 2.162 . S
O627 C615 1.281 . S
O628 Mn612 2.297 . S
O628 C615 1.236 . S
N629 Mn613 2.282 . S
N629 C630 1.328 . S
N629 C634 1.318 . S
C630 N629 1.328 . S
C630 C631 1.457 . S
C630 H635 0.929 . S
C631 C630 1.457 . S
C631 C632 1.291 . S
C631 H644 0.931 . S
C632 C631 1.291 . S
C632 C633 1.373 . S
C632 H645 0.929 . S
C633 C632 1.373 . S
C633 C634 1.396 . S
C633 C640 1.403 . S
C634 C624 1.476 . S
C634 N629 1.318 . S
C634 C633 1.396 . S
H635 C630 0.929 . S
O636 Mn612 2.385 . S
O636 C614 1.234 . S
O637 Mn612 2.209 . S
O637 Mn613 2.215 . S
O637 C614 1.283 . S
O638 Mn612 2.094 . S
O638 C616 1.240 . S
O639 Mn613 2.117 . S
O639 C616 1.264 . S
C640 C633 1.403 . S
C640 C641 1.399 . S
C640 H646 0.929 . S
C641 C621 1.449 . S
C641 C640 1.399 . S
C641 H647 0.930 . S
H642 C622 0.931 . S
H643 C623 0.930 . S
H644 C631 0.931 . S
H645 C632 0.929 . S
H646 C640 0.929 . S
H647 C641 0.930 . S
Mn648 O653 2.095 . S
Mn648 O663 2.162 . S
Mn648 O664 2.297 . S
Mn648 O672 2.385 . S
Mn648 O673 2.209 . S
Mn648 O674 2.094 . S
Mn649 O654 2.121 . S
Mn649 N656 2.257 . S
Mn649 N665 2.282 . S
Mn649 O673 2.215 . S
Mn649 O675 2.117 . S
C650 O672 1.234 . S
C650 O673 1.283 . S
C651 O663 1.281 . S
C651 O664 1.236 . S
C652 O674 1.240 . S
C652 O675 1.264 . S
O653 Mn648 2.095 . S
O653 C662 1.250 . S
O654 Mn649 2.121 . S
O654 C662 1.258 . S
C655 N656 1.326 . S
C655 C659 1.460 . S
C655 H661 0.929 . S
N656 Mn649 2.257 . S
N656 C655 1.326 . S
N656 C660 1.362 . S
C657 C658 1.258 . S
C657 C660 1.431 . S
C657 C677 1.449 . S
C658 C657 1.258 . S
C658 C659 1.477 . S
C658 H678 0.931 . S
C659 C655 1.460 . S
C659 C658 1.477 . S
C659 H679 0.930 . S
C660 N656 1.362 . S
C660 C657 1.431 . S
C660 C670 1.476 . S
H661 C655 0.929 . S
C662 O653 1.250 . S
C662 O654 1.258 . S
O663 Mn648 2.162 . S
O663 C651 1.281 . S
O664 Mn648 2.297 . S
O664 C651 1.236 . S
N665 Mn649 2.282 . S
N665 C666 1.328 1_545 S
N665 C670 1.318 . S
C666 N665 1.328 1_565 S
C666 C667 1.457 . S
C666 H671 0.929 . S
C667 C666 1.457 . S
C667 C668 1.291 . S
C667 H680 0.931 . S
C668 C667 1.291 . S
C668 C669 1.373 1_565 S
C668 H681 0.929 . S
C669 C668 1.373 1_545 S
C669 C670 1.396 . S
C669 C676 1.403 . S
C670 C660 1.476 . S
C670 N665 1.318 . S
C670 C669 1.396 . S
H671 C666 0.929 . S
O672 Mn648 2.385 . S
O672 C650 1.234 . S
O673 Mn648 2.209 . S
O673 Mn649 2.215 . S
O673 C650 1.283 . S
O674 Mn648 2.094 . S
O674 C652 1.240 . S
O675 Mn649 2.117 . S
O675 C652 1.264 . S
C676 C669 1.403 . S
C676 C677 1.399 . S
C676 H682 0.929 . S
C677 C657 1.449 . S
C677 C676 1.399 . S
C677 H683 0.930 . S
H678 C658 0.931 . S
H679 C659 0.930 . S
H680 C667 0.931 . S
H681 C668 0.929 . S
H682 C676 0.929 . S
H683 C677 0.930 . S
Mn684 O689 2.095 . S
Mn684 O699 2.162 . S
Mn684 O700 2.297 . S
Mn684 O708 2.385 . S
Mn684 O709 2.209 . S
Mn684 O710 2.094 . S
Mn685 O690 2.121 . S
Mn685 N692 2.257 . S
Mn685 N701 2.282 1_655 S
Mn685 O709 2.215 . S
Mn685 O711 2.117 . S
C686 O708 1.234 . S
C686 O709 1.283 . S
C687 O699 1.281 . S
C687 O700 1.236 . S
C688 O710 1.240 . S
C688 O711 1.264 . S
O689 Mn684 2.095 . S
O689 C698 1.250 . S
O690 Mn685 2.121 . S
O690 C698 1.258 . S
C691 N692 1.326 . S
C691 C695 1.460 1_655 S
C691 H697 0.929 . S
N692 Mn685 2.257 . S
N692 C691 1.326 . S
N692 C696 1.362 1_655 S
C693 C694 1.258 . S
C693 C696 1.431 . S
C693 C713 1.449 . S
C694 C693 1.258 . S
C694 C695 1.477 . S
C694 H714 0.931 . S
C695 C691 1.460 1_455 S
C695 C694 1.477 . S
C695 H715 0.930 1_455 S
C696 N692 1.362 1_455 S
C696 C693 1.431 . S
C696 C706 1.476 . S
H697 C691 0.929 . S
C698 O689 1.250 . S
C698 O690 1.258 . S
O699 Mn684 2.162 . S
O699 C687 1.281 . S
O700 Mn684 2.297 . S
O700 C687 1.236 . S
N701 Mn685 2.282 1_455 S
N701 C702 1.328 . S
N701 C706 1.318 . S
C702 N701 1.328 . S
C702 C703 1.457 . S
C702 H707 0.929 . S
C703 C702 1.457 . S
C703 C704 1.291 . S
C703 H716 0.931 . S
C704 C703 1.291 . S
C704 C705 1.373 . S
C704 H717 0.929 . S
C705 C704 1.373 . S
C705 C706 1.396 . S
C705 C712 1.403 . S
C706 C696 1.476 . S
C706 N701 1.318 . S
C706 C705 1.396 . S
H707 C702 0.929 . S
O708 Mn684 2.385 . S
O708 C686 1.234 . S
O709 Mn684 2.209 . S
O709 Mn685 2.215 . S
O709 C686 1.283 . S
O710 Mn684 2.094 . S
O710 C688 1.240 . S
O711 Mn685 2.117 . S
O711 C688 1.264 . S
C712 C705 1.403 . S
C712 C713 1.399 . S
C712 H718 0.929 . S
C713 C693 1.449 . S
C713 C712 1.399 . S
C713 H719 0.930 . S
H714 C694 0.931 . S
H715 C695 0.930 1_655 S
H716 C703 0.931 . S
H717 C704 0.929 . S
H718 C712 0.929 . S
H719 C713 0.930 . S
Mn720 O725 2.095 . S
Mn720 O735 2.162 . S
Mn720 O736 2.297 . S
Mn720 O744 2.385 . S
Mn720 O745 2.209 . S
Mn720 O746 2.094 . S
Mn721 O726 2.121 . S
Mn721 N728 2.257 . S
Mn721 N737 2.282 . S
Mn721 O745 2.215 . S
Mn721 O747 2.117 . S
C722 O744 1.234 . S
C722 O745 1.283 . S
C723 O735 1.281 . S
C723 O736 1.236 . S
C724 O746 1.240 . S
C724 O747 1.264 . S
O725 Mn720 2.095 . S
O725 C734 1.250 . S
O726 Mn721 2.121 . S
O726 C734 1.258 . S
C727 N728 1.326 . S
C727 C731 1.460 . S
C727 H733 0.929 . S
N728 Mn721 2.257 . S
N728 C727 1.326 . S
N728 C732 1.362 . S
C729 C730 1.258 . S
C729 C732 1.431 . S
C729 C749 1.449 . S
C730 C729 1.258 . S
C730 C731 1.477 . S
C730 H750 0.931 . S
C731 C727 1.460 . S
C731 C730 1.477 . S
C731 H751 0.930 . S
C732 N728 1.362 . S
C732 C729 1.431 . S
C732 C742 1.476 . S
H733 C727 0.929 . S
C734 O725 1.250 . S
C734 O726 1.258 . S
O735 Mn720 2.162 . S
O735 C723 1.281 . S
O736 Mn720 2.297 . S
O736 C723 1.236 . S
N737 Mn721 2.282 . S
N737 C738 1.328 . S
N737 C742 1.318 . S
C738 N737 1.328 . S
C738 C739 1.457 . S
C738 H743 0.929 . S
C739 C738 1.457 . S
C739 C740 1.291 . S
C739 H752 0.931 . S
C740 C739 1.291 . S
C740 C741 1.373 . S
C740 H753 0.929 . S
C741 C740 1.373 . S
C741 C742 1.396 . S
C741 C748 1.403 . S
C742 C732 1.476 . S
C742 N737 1.318 . S
C742 C741 1.396 . S
H743 C738 0.929 . S
O744 Mn720 2.385 . S
O744 C722 1.234 . S
O745 Mn720 2.209 . S
O745 Mn721 2.215 . S
O745 C722 1.283 . S
O746 Mn720 2.094 . S
O746 C724 1.240 . S
O747 Mn721 2.117 . S
O747 C724 1.264 . S
C748 C741 1.403 . S
C748 C749 1.399 . S
C748 H754 0.929 . S
C749 C729 1.449 . S
C749 C748 1.399 . S
C749 H755 0.930 . S
H750 C730 0.931 . S
H751 C731 0.930 . S
H752 C739 0.931 . S
H753 C740 0.929 . S
H754 C748 0.929 . S
H755 C749 0.930 . S
Mn756 O761 2.095 . S
Mn756 O771 2.162 . S
Mn756 O772 2.290 1_545 S
Mn756 O780 2.385 . S
Mn756 O781 2.209 1_545 S
Mn756 O782 2.094 . S
Mn757 O762 2.121 . S
Mn757 N764 2.257 1_545 S
Mn757 N773 2.282 . S
Mn757 O781 2.215 1_545 S
Mn757 O783 2.117 . S
C758 O780 1.234 1_565 S
C758 O781 1.283 . S
C759 O771 1.281 . S
C759 O772 1.231 1_545 S
C760 O782 1.240 . S
C760 O783 1.264 . S
O761 Mn756 2.095 . S
O761 C770 1.250 . S
O762 Mn757 2.121 . S
O762 C770 1.258 . S
C763 N764 1.326 . S
C763 C767 1.460 . S
C763 H769 0.929 . S
N764 Mn757 2.257 1_565 S
N764 C763 1.326 . S
N764 C768 1.362 . S
C765 C766 1.258 . S
C765 C768 1.431 . S
C765 C785 1.449 . S
C766 C765 1.258 . S
C766 C767 1.477 . S
C766 H786 0.931 . S
C767 C763 1.460 . S
C767 C766 1.477 . S
C767 H787 0.930 . S
C768 N764 1.362 . S
C768 C765 1.431 . S
C768 C778 1.476 . S
H769 C763 0.929 . S
C770 O761 1.250 . S
C770 O762 1.258 . S
O771 Mn756 2.162 . S
O771 C759 1.281 . S
O772 Mn756 2.290 1_565 S
O772 C759 1.231 1_565 S
N773 Mn757 2.282 . S
N773 C774 1.328 . S
N773 C778 1.318 1_545 S
C774 N773 1.328 . S
C774 C775 1.457 . S
C774 H779 0.929 . S
C775 C774 1.457 . S
C775 C776 1.291 1_545 S
C775 H788 0.931 . S
C776 C775 1.291 1_565 S
C776 C777 1.373 . S
C776 H789 0.929 . S
C777 C776 1.373 . S
C777 C778 1.396 . S
C777 C784 1.403 . S
C778 C768 1.476 . S
C778 N773 1.318 1_565 S
C778 C777 1.396 . S
H779 C774 0.929 . S
O780 Mn756 2.385 . S
O780 C758 1.234 1_545 S
O781 Mn756 2.209 1_565 S
O781 Mn757 2.215 1_565 S
O781 C758 1.283 . S
O782 Mn756 2.094 . S
O782 C760 1.240 . S
O783 Mn757 2.117 . S
O783 C760 1.264 . S
C784 C777 1.403 . S
C784 C785 1.399 . S
C784 H790 0.929 . S
C785 C765 1.449 . S
C785 C784 1.399 . S
C785 H791 0.930 . S
H786 C766 0.931 . S
H787 C767 0.930 . S
H788 C775 0.931 . S
H789 C776 0.929 . S
H790 C784 0.929 . S
H791 C785 0.930 . S
Mn792 O797 2.095 . S
Mn792 O807 2.162 . S
Mn792 O808 2.297 1_655 S
Mn792 O816 2.385 . S
Mn792 O817 2.209 1_655 S
Mn792 O818 2.094 . S
Mn793 O798 2.121 . S
Mn793 N800 2.257 1_655 S
Mn793 N809 2.282 1_655 S
Mn793 O817 2.215 1_655 S
Mn793 O819 2.117 . S
C794 O816 1.234 1_455 S
C794 O817 1.283 . S
C795 O807 1.281 . S
C795 O808 1.236 1_655 S
C796 O818 1.240 . S
C796 O819 1.264 . S
O797 Mn792 2.095 . S
O797 C806 1.250 . S
O798 Mn793 2.121 . S
O798 C806 1.258 . S
C799 N800 1.326 . S
C799 C803 1.460 . S
C799 H805 0.929 . S
N800 Mn793 2.257 1_455 S
N800 C799 1.326 . S
N800 C804 1.362 . S
C801 C802 1.258 . S
C801 C804 1.431 . S
C801 C821 1.449 . S
C802 C801 1.258 . S
C802 C803 1.477 . S
C802 H822 0.931 . S
C803 C799 1.460 . S
C803 C802 1.477 . S
C803 H823 0.930 . S
C804 N800 1.362 . S
C804 C801 1.431 . S
C804 C814 1.476 . S
H805 C799 0.929 . S
C806 O797 1.250 . S
C806 O798 1.258 . S
O807 Mn792 2.162 . S
O807 C795 1.281 . S
O808 Mn792 2.297 1_455 S
O808 C795 1.236 1_455 S
N809 Mn793 2.282 1_455 S
N809 C810 1.328 1_455 S
N809 C814 1.318 . S
C810 N809 1.328 1_655 S
C810 C811 1.457 1_655 S
C810 H815 0.929 . S
C811 C810 1.457 1_455 S
C811 C812 1.291 . S
C811 H824 0.931 1_455 S
C812 C811 1.291 . S
C812 C813 1.373 . S
C812 H825 0.929 . S
C813 C812 1.373 . S
C813 C814 1.396 . S
C813 C820 1.403 . S
C814 C804 1.476 . S
C814 N809 1.318 . S
C814 C813 1.396 . S
H815 C810 0.929 . S
O816 Mn792 2.385 . S
O816 C794 1.234 1_655 S
O817 Mn792 2.209 1_455 S
O817 Mn793 2.215 1_455 S
O817 C794 1.283 . S
O818 Mn792 2.094 . S
O818 C796 1.240 . S
O819 Mn793 2.117 . S
O819 C796 1.264 . S
C820 C813 1.403 . S
C820 C821 1.399 . S
C820 H826 0.929 . S
C821 C801 1.449 . S
C821 C820 1.399 . S
C821 H827 0.930 . S
H822 C802 0.931 . S
H823 C803 0.930 . S
H824 C811 0.931 1_655 S
H825 C812 0.929 . S
H826 C820 0.929 . S
H827 C821 0.930 . S
Mn828 O833 2.095 . S
Mn828 O843 2.162 . S
Mn828 O844 2.297 . S
Mn828 O852 2.385 . S
Mn828 O853 2.209 . S
Mn828 O854 2.094 . S
Mn829 O834 2.121 1_556 S
Mn829 N836 2.257 1_556 S
Mn829 N845 2.282 . S
Mn829 O853 2.215 . S
Mn829 O855 2.117 . S
C830 O852 1.234 . S
C830 O853 1.283 . S
C831 O843 1.281 . S
C831 O844 1.236 . S
C832 O854 1.240 . S
C832 O855 1.264 . S
O833 Mn828 2.095 . S
O833 C842 1.250 . S
O834 Mn829 2.121 1_554 S
O834 C842 1.258 1_554 S
C835 N836 1.326 . S
C835 C839 1.460 . S
C835 H841 0.929 . S
N836 Mn829 2.257 1_554 S
N836 C835 1.326 . S
N836 C840 1.362 1_554 S
C837 C838 1.258 . S
C837 C840 1.431 1_554 S
C837 C857 1.449 1_554 S
C838 C837 1.258 . S
C838 C839 1.477 . S
C838 H858 0.931 . S
C839 C835 1.460 . S
C839 C838 1.477 . S
C839 H859 0.930 . S
C840 N836 1.362 1_556 S
C840 C837 1.431 1_556 S
C840 C850 1.476 . S
H841 C835 0.929 . S
C842 O833 1.250 . S
C842 O834 1.258 1_556 S
O843 Mn828 2.162 . S
O843 C831 1.281 . S
O844 Mn828 2.297 . S
O844 C831 1.236 . S
N845 Mn829 2.282 . S
N845 C846 1.328 . S
N845 C850 1.318 . S
C846 N845 1.328 . S
C846 C847 1.457 . S
C846 H851 0.929 . S
C847 C846 1.457 . S
C847 C848 1.291 . S
C847 H860 0.931 . S
C848 C847 1.291 . S
C848 C849 1.373 . S
C848 H861 0.929 . S
C849 C848 1.373 . S
C849 C850 1.396 . S
C849 C856 1.403 . S
C850 C840 1.476 . S
C850 N845 1.318 . S
C850 C849 1.396 . S
H851 C846 0.929 . S
O852 Mn828 2.385 . S
O852 C830 1.234 . S
O853 Mn828 2.209 . S
O853 Mn829 2.215 . S
O853 C830 1.283 . S
O854 Mn828 2.094 . S
O854 C832 1.240 . S
O855 Mn829 2.117 . S
O855 C832 1.264 . S
C856 C849 1.403 . S
C856 C857 1.399 . S
C856 H862 0.929 . S
C857 C837 1.449 1_556 S
C857 C856 1.399 . S
C857 H863 0.930 1_556 S
H858 C838 0.931 . S
H859 C839 0.930 . S
H860 C847 0.931 . S
H861 C848 0.929 . S
H862 C856 0.929 . S
H863 C857 0.930 1_554 S
Mn864 O869 2.095 . S
Mn864 O879 2.162 . S
Mn864 O880 2.297 . S
Mn864 O888 2.385 . S
Mn864 O889 2.209 . S
Mn864 O890 2.094 . S
Mn865 O870 2.121 . S
Mn865 N872 2.257 . S
Mn865 N881 2.282 . S
Mn865 O889 2.215 . S
Mn865 O891 2.117 . S
C866 O888 1.234 . S
C866 O889 1.283 . S
C867 O879 1.281 . S
C867 O880 1.236 . S
C868 O890 1.240 . S
C868 O891 1.264 . S
O869 Mn864 2.095 . S
O869 C878 1.250 . S
O870 Mn865 2.121 . S
O870 C878 1.258 . S
C871 N872 1.326 . S
C871 C875 1.460 . S
C871 H877 0.929 . S
N872 Mn865 2.257 . S
N872 C871 1.326 . S
N872 C876 1.362 . S
C873 C874 1.258 . S
C873 C876 1.431 . S
C873 C893 1.449 . S
C874 C873 1.258 . S
C874 C875 1.477 . S
C874 H894 0.931 . S
C875 C871 1.460 . S
C875 C874 1.477 . S
C875 H895 0.930 . S
C876 N872 1.362 . S
C876 C873 1.431 . S
C876 C886 1.476 . S
H877 C871 0.929 . S
C878 O869 1.250 . S
C878 O870 1.258 . S
O879 Mn864 2.162 . S
O879 C867 1.281 . S
O880 Mn864 2.297 . S
O880 C867 1.236 . S
N881 Mn865 2.282 . S
N881 C882 1.328 . S
N881 C886 1.318 . S
C882 N881 1.328 . S
C882 C883 1.457 . S
C882 H887 0.929 . S
C883 C882 1.457 . S
C883 C884 1.291 . S
C883 H896 0.931 . S
C884 C883 1.291 . S
C884 C885 1.373 . S
C884 H897 0.929 . S
C885 C884 1.373 . S
C885 C886 1.396 . S
C885 C892 1.403 . S
C886 C876 1.476 . S
C886 N881 1.318 . S
C886 C885 1.396 . S
H887 C882 0.929 . S
O888 Mn864 2.385 . S
O888 C866 1.234 . S
O889 Mn864 2.209 . S
O889 Mn865 2.215 . S
O889 C866 1.283 . S
O890 Mn864 2.094 . S
O890 C868 1.240 . S
O891 Mn865 2.117 . S
O891 C868 1.264 . S
C892 C885 1.403 . S
C892 C893 1.399 . S
C892 H898 0.929 . S
C893 C873 1.449 . S
C893 C892 1.399 . S
C893 H899 0.930 . S
H894 C874 0.931 . S
H895 C875 0.930 . S
H896 C883 0.931 . S
H897 C884 0.929 . S
H898 C892 0.929 . S
H899 C893 0.930 . S
Mn900 O905 2.095 . S
Mn900 O915 2.162 . S
Mn900 O916 2.297 . S
Mn900 O924 2.385 . S
Mn900 O925 2.209 . S
Mn900 O926 2.094 . S
Mn901 O906 2.121 . S
Mn901 N908 2.257 . S
Mn901 N917 2.282 . S
Mn901 O925 2.215 . S
Mn901 O927 2.117 . S
C902 O924 1.234 . S
C902 O925 1.283 . S
C903 O915 1.281 . S
C903 O916 1.236 . S
C904 O926 1.240 . S
C904 O927 1.264 . S
O905 Mn900 2.095 . S
O905 C914 1.250 . S
O906 Mn901 2.121 . S
O906 C914 1.258 . S
C907 N908 1.326 . S
C907 C911 1.460 . S
C907 H913 0.929 . S
N908 Mn901 2.257 . S
N908 C907 1.326 . S
N908 C912 1.362 1_455 S
C909 C910 1.258 . S
C909 C912 1.431 . S
C909 C929 1.449 . S
C910 C909 1.258 . S
C910 C911 1.477 1_655 S
C910 H930 0.931 . S
C911 C907 1.460 . S
C911 C910 1.477 1_455 S
C911 H931 0.930 . S
C912 N908 1.362 1_655 S
C912 C909 1.431 . S
C912 C922 1.476 . S
H913 C907 0.929 . S
C914 O905 1.250 . S
C914 O906 1.258 . S
O915 Mn900 2.162 . S
O915 C903 1.281 . S
O916 Mn900 2.297 . S
O916 C903 1.236 . S
N917 Mn901 2.282 . S
N917 C918 1.328 . S
N917 C922 1.318 1_455 S
C918 N917 1.328 . S
C918 C919 1.457 1_455 S
C918 H923 0.929 . S
C919 C918 1.457 1_655 S
C919 C920 1.291 . S
C919 H932 0.931 . S
C920 C919 1.291 . S
C920 C921 1.373 . S
C920 H933 0.929 . S
C921 C920 1.373 . S
C921 C922 1.396 . S
C921 C928 1.403 . S
C922 C912 1.476 . S
C922 N917 1.318 1_655 S
C922 C921 1.396 . S
H923 C918 0.929 . S
O924 Mn900 2.385 . S
O924 C902 1.234 . S
O925 Mn900 2.209 . S
O925 Mn901 2.215 . S
O925 C902 1.283 . S
O926 Mn900 2.094 . S
O926 C904 1.240 . S
O927 Mn901 2.117 . S
O927 C904 1.264 . S
C928 C921 1.403 . S
C928 C929 1.399 . S
C928 H934 0.929 . S
C929 C909 1.449 . S
C929 C928 1.399 . S
C929 H935 0.930 . S
H930 C910 0.931 . S
H931 C911 0.930 . S
H932 C919 0.931 . S
H933 C920 0.929 . S
H934 C928 0.929 . S
H935 C929 0.930 . S
Mn936 O941 2.095 . S
Mn936 O951 2.162 . S
Mn936 O952 2.297 . S
Mn936 O960 2.385 . S
Mn936 O961 2.209 . S
Mn936 O962 2.094 . S
Mn937 O942 2.121 . S
Mn937 N944 2.257 . S
Mn937 N953 2.282 . S
Mn937 O961 2.215 . S
Mn937 O963 2.117 . S
C938 O960 1.234 . S
C938 O961 1.283 . S
C939 O951 1.281 . S
C939 O952 1.236 . S
C940 O962 1.240 . S
C940 O963 1.264 . S
O941 Mn936 2.095 . S
O941 C950 1.250 . S
O942 Mn937 2.121 . S
O942 C950 1.258 . S
C943 N944 1.326 . S
C943 C947 1.460 . S
C943 H949 0.929 . S
N944 Mn937 2.257 . S
N944 C943 1.326 . S
N944 C948 1.362 . S
C945 C946 1.258 . S
C945 C948 1.431 . S
C945 C965 1.449 . S
C946 C945 1.258 . S
C946 C947 1.477 . S
C946 H966 0.931 . S
C947 C943 1.460 . S
C947 C946 1.477 . S
C947 H967 0.930 . S
C948 N944 1.362 . S
C948 C945 1.431 . S
C948 C958 1.476 . S
H949 C943 0.929 . S
C950 O941 1.250 . S
C950 O942 1.258 . S
O951 Mn936 2.162 . S
O951 C939 1.281 . S
O952 Mn936 2.297 . S
O952 C939 1.236 . S
N953 Mn937 2.282 . S
N953 C954 1.328 . S
N953 C958 1.318 . S
C954 N953 1.328 . S
C954 C955 1.457 . S
C954 H959 0.929 . S
C955 C954 1.457 . S
C955 C956 1.291 . S
C955 H968 0.931 . S
C956 C955 1.291 . S
C956 C957 1.373 . S
C956 H969 0.929 . S
C957 C956 1.373 . S
C957 C958 1.396 . S
C957 C964 1.403 . S
C958 C948 1.476 . S
C958 N953 1.318 . S
C958 C957 1.396 . S
H959 C954 0.929 . S
O960 Mn936 2.385 . S
O960 C938 1.234 . S
O961 Mn936 2.209 . S
O961 Mn937 2.215 . S
O961 C938 1.283 . S
O962 Mn936 2.094 . S
O962 C940 1.240 . S
O963 Mn937 2.117 . S
O963 C940 1.264 . S
C964 C957 1.403 . S
C964 C965 1.399 . S
C964 H970 0.929 . S
C965 C945 1.449 . S
C965 C964 1.399 . S
C965 H971 0.930 . S
H966 C946 0.931 . S
H967 C947 0.930 . S
H968 C955 0.931 . S
H969 C956 0.929 . S
H970 C964 0.929 . S
H971 C965 0.930 . S
Mn972 O977 2.095 . S
Mn972 O987 2.162 . S
Mn972 O988 2.297 . S
Mn972 O996 2.385 . S
Mn972 O997 2.209 1_565 S
Mn972 O998 2.094 . S
Mn973 O978 2.121 . S
Mn973 N980 2.257 . S
Mn973 N989 2.282 . S
Mn973 O997 2.215 . S
Mn973 O999 2.117 . S
C974 O996 1.234 1_545 S
C974 O997 1.283 . S
C975 O987 1.281 . S
C975 O988 1.236 . S
C976 O998 1.240 . S
C976 O999 1.264 1_565 S
O977 Mn972 2.095 . S
O977 C986 1.250 . S
O978 Mn973 2.121 . S
O978 C986 1.258 1_545 S
C979 N980 1.326 . S
C979 C983 1.460 . S
C979 H985 0.929 . S
N980 Mn973 2.257 . S
N980 C979 1.326 . S
N980 C984 1.362 . S
C981 C982 1.258 . S
C981 C984 1.431 . S
C981 C1001 1.449 . S
C982 C981 1.258 . S
C982 C983 1.477 . S
C982 H1002 0.931 . S
C983 C979 1.460 . S
C983 C982 1.477 . S
C983 H1003 0.930 . S
C984 N980 1.362 . S
C984 C981 1.431 . S
C984 C994 1.476 . S
H985 C979 0.929 . S
C986 O977 1.250 . S
C986 O978 1.258 1_565 S
O987 Mn972 2.162 . S
O987 C975 1.281 . S
O988 Mn972 2.297 . S
O988 C975 1.236 . S
N989 Mn973 2.282 . S
N989 C990 1.328 . S
N989 C994 1.318 . S
C990 N989 1.328 . S
C990 C991 1.457 1_554 S
C990 H995 0.929 1_554 S
C991 C990 1.457 1_556 S
C991 C992 1.291 1_556 S
C991 H1004 0.931 . S
C992 C991 1.291 1_554 S
C992 C993 1.373 . S
C992 H1005 0.929 . S
C993 C992 1.373 . S
C993 C994 1.396 . S
C993 C1000 1.403 . S
C994 C984 1.476 . S
C994 N989 1.318 . S
C994 C993 1.396 . S
H995 C990 0.929 1_556 S
O996 Mn972 2.385 . S
O996 C974 1.234 1_565 S
O997 Mn972 2.209 1_545 S
O997 Mn973 2.215 . S
O997 C974 1.283 . S
O998 Mn972 2.094 . S
O998 C976 1.240 . S
O999 Mn973 2.117 . S
O999 C976 1.264 1_545 S
C1000 C993 1.403 . S
C1000 C1001 1.399 . S
C1000 H1006 0.929 . S
C1001 C981 1.449 . S
C1001 C1000 1.399 . S
C1001 H1007 0.930 . S
H1002 C982 0.931 . S
H1003 C983 0.930 . S
H1004 C991 0.931 . S
H1005 C992 0.929 . S
H1006 C1000 0.929 . S
H1007 C1001 0.930 . S
Mn1008 O1013 2.095 . S
Mn1008 O1023 2.162 . S
Mn1008 O1024 2.297 . S
Mn1008 O1032 2.385 . S
Mn1008 O1033 2.209 1_455 S
Mn1008 O1034 2.094 . S
Mn1009 O1014 2.121 . S
Mn1009 N1016 2.257 . S
Mn1009 N1025 2.282 . S
Mn1009 O1033 2.215 . S
Mn1009 O1035 2.117 . S
C1010 O1032 1.234 1_655 S
C1010 O1033 1.283 . S
C1011 O1023 1.281 . S
C1011 O1024 1.236 . S
C1012 O1034 1.240 . S
C1012 O1035 1.264 1_455 S
O1013 Mn1008 2.095 . S
O1013 C1022 1.250 . S
O1014 Mn1009 2.121 . S
O1014 C1022 1.258 1_655 S
C1015 N1016 1.326 . S
C1015 C1019 1.460 . S
C1015 H1021 0.929 . S
N1016 Mn1009 2.257 . S
N1016 C1015 1.326 . S
N1016 C1020 1.362 . S
C1017 C1018 1.258 . S
C1017 C1020 1.431 . S
C1017 C1037 1.449 . S
C1018 C1017 1.258 . S
C1018 C1019 1.477 . S
C1018 H1038 0.931 . S
C1019 C1015 1.460 . S
C1019 C1018 1.477 . S
C1019 H1039 0.930 . S
C1020 N1016 1.362 . S
C1020 C1017 1.431 . S
C1020 C1030 1.476 . S
H1021 C1015 0.929 . S
C1022 O1013 1.250 . S
C1022 O1014 1.258 1_455 S
O1023 Mn1008 2.162 . S
O1023 C1011 1.281 . S
O1024 Mn1008 2.297 . S
O1024 C1011 1.236 . S
N1025 Mn1009 2.282 . S
N1025 C1026 1.328 . S
N1025 C1030 1.318 . S
C1026 N1025 1.328 . S
C1026 C1027 1.457 1_554 S
C1026 H1031 0.929 1_554 S
C1027 C1026 1.457 1_556 S
C1027 C1028 1.291 1_556 S
C1027 H1040 0.931 . S
C1028 C1027 1.291 1_554 S
C1028 C1029 1.373 . S
C1028 H1041 0.929 1_554 S
C1029 C1028 1.373 . S
C1029 C1030 1.396 . S
C1029 C1036 1.403 . S
C1030 C1020 1.476 . S
C1030 N1025 1.318 . S
C1030 C1029 1.396 . S
H1031 C1026 0.929 1_556 S
O1032 Mn1008 2.385 . S
O1032 C1010 1.234 1_455 S
O1033 Mn1008 2.209 1_655 S
O1033 Mn1009 2.215 . S
O1033 C1010 1.283 . S
O1034 Mn1008 2.094 . S
O1034 C1012 1.240 . S
O1035 Mn1009 2.117 . S
O1035 C1012 1.264 1_655 S
C1036 C1029 1.403 . S
C1036 C1037 1.399 . S
C1036 H1042 0.929 . S
C1037 C1017 1.449 . S
C1037 C1036 1.399 . S
C1037 H1043 0.930 . S
H1038 C1018 0.931 . S
H1039 C1019 0.930 . S
H1040 C1027 0.931 . S
H1041 C1028 0.929 1_556 S
H1042 C1036 0.929 . S
H1043 C1037 0.930 . S
Mn1044 O1049 2.095 . S
Mn1044 O1059 2.162 . S
Mn1044 O1060 2.297 . S
Mn1044 O1068 2.385 . S
Mn1044 O1069 2.209 . S
Mn1044 O1070 2.094 . S
Mn1045 O1050 2.121 . S
Mn1045 N1052 2.257 . S
Mn1045 N1061 2.282 . S
Mn1045 O1069 2.215 . S
Mn1045 O1071 2.117 . S
C1046 O1068 1.234 . S
C1046 O1069 1.283 . S
C1047 O1059 1.281 . S
C1047 O1060 1.236 . S
C1048 O1070 1.240 . S
C1048 O1071 1.264 . S
O1049 Mn1044 2.095 . S
O1049 C1058 1.250 . S
O1050 Mn1045 2.121 . S
O1050 C1058 1.258 . S
C1051 N1052 1.326 1_556 S
C1051 C1055 1.460 . S
C1051 H1057 0.929 . S
N1052 Mn1045 2.257 . S
N1052 C1051 1.326 1_554 S
N1052 C1056 1.362 . S
C1053 C1054 1.258 1_554 S
C1053 C1056 1.431 . S
C1053 C1073 1.449 . S
C1054 C1053 1.258 1_556 S
C1054 C1055 1.477 . S
C1054 H1074 0.931 . S
C1055 C1051 1.460 . S
C1055 C1054 1.477 . S
C1055 H1075 0.930 . S
C1056 N1052 1.362 . S
C1056 C1053 1.431 . S
C1056 C1066 1.476 . S
H1057 C1051 0.929 . S
C1058 O1049 1.250 . S
C1058 O1050 1.258 . S
O1059 Mn1044 2.162 . S
O1059 C1047 1.281 . S
O1060 Mn1044 2.297 . S
O1060 C1047 1.236 . S
N1061 Mn1045 2.282 . S
N1061 C1062 1.328 . S
N1061 C1066 1.318 . S
C1062 N1061 1.328 . S
C1062 C1063 1.457 . S
C1062 H1067 0.929 . S
C1063 C1062 1.457 . S
C1063 C1064 1.291 . S
C1063 H1076 0.931 . S
C1064 C1063 1.291 . S
C1064 C1065 1.373 . S
C1064 H1077 0.929 . S
C1065 C1064 1.373 . S
C1065 C1066 1.396 . S
C1065 C1072 1.403 . S
C1066 C1056 1.476 . S
C1066 N1061 1.318 . S
C1066 C1065 1.396 . S
H1067 C1062 0.929 . S
O1068 Mn1044 2.385 . S
O1068 C1046 1.234 . S
O1069 Mn1044 2.209 . S
O1069 Mn1045 2.215 . S
O1069 C1046 1.283 . S
O1070 Mn1044 2.094 . S
O1070 C1048 1.240 . S
O1071 Mn1045 2.117 . S
O1071 C1048 1.264 . S
C1072 C1065 1.403 . S
C1072 C1073 1.399 . S
C1072 H1078 0.929 . S
C1073 C1053 1.449 . S
C1073 C1072 1.399 . S
C1073 H1079 0.930 . S
H1074 C1054 0.931 . S
H1075 C1055 0.930 . S
H1076 C1063 0.931 . S
H1077 C1064 0.929 . S
H1078 C1072 0.929 . S
H1079 C1073 0.930 . S
Mn1080 O1085 2.095 . S
Mn1080 O1095 2.162 . S
Mn1080 O1096 2.297 . S
Mn1080 O1104 2.385 . S
Mn1080 O1105 2.209 . S
Mn1080 O1106 2.094 1_455 S
Mn1081 O1086 2.121 . S
Mn1081 N1088 2.257 . S
Mn1081 N1097 2.282 . S
Mn1081 O1105 2.215 . S
Mn1081 O1107 2.117 . S
C1082 O1104 1.234 . S
C1082 O1105 1.283 . S
C1083 O1095 1.281 . S
C1083 O1096 1.236 . S
C1084 O1106 1.240 . S
C1084 O1107 1.264 1_655 S
O1085 Mn1080 2.095 . S
O1085 C1094 1.250 . S
O1086 Mn1081 2.121 . S
O1086 C1094 1.258 . S
C1087 N1088 1.326 . S
C1087 C1091 1.460 . S
C1087 H1093 0.929 . S
N1088 Mn1081 2.257 . S
N1088 C1087 1.326 . S
N1088 C1092 1.362 . S
C1089 C1090 1.258 . S
C1089 C1092 1.431 . S
C1089 C1109 1.449 . S
C1090 C1089 1.258 . S
C1090 C1091 1.477 . S
C1090 H1110 0.931 . S
C1091 C1087 1.460 . S
C1091 C1090 1.477 . S
C1091 H1111 0.930 . S
C1092 N1088 1.362 . S
C1092 C1089 1.431 . S
C1092 C1102 1.476 . S
H1093 C1087 0.929 . S
C1094 O1085 1.250 . S
C1094 O1086 1.258 . S
O1095 Mn1080 2.162 . S
O1095 C1083 1.281 . S
O1096 Mn1080 2.297 . S
O1096 C1083 1.236 . S
N1097 Mn1081 2.282 . S
N1097 C1098 1.328 . S
N1097 C1102 1.318 . S
C1098 N1097 1.328 . S
C1098 C1099 1.457 . S
C1098 H1103 0.929 . S
C1099 C1098 1.457 . S
C1099 C1100 1.291 . S
C1099 H1112 0.931 . S
C1100 C1099 1.291 . S
C1100 C1101 1.373 . S
C1100 H1113 0.929 . S
C1101 C1100 1.373 . S
C1101 C1102 1.396 . S
C1101 C1108 1.403 . S
C1102 C1092 1.476 . S
C1102 N1097 1.318 . S
C1102 C1101 1.396 . S
H1103 C1098 0.929 . S
O1104 Mn1080 2.385 . S
O1104 C1082 1.234 . S
O1105 Mn1080 2.209 . S
O1105 Mn1081 2.215 . S
O1105 C1082 1.283 . S
O1106 Mn1080 2.094 1_655 S
O1106 C1084 1.240 . S
O1107 Mn1081 2.117 . S
O1107 C1084 1.264 1_455 S
C1108 C1101 1.403 . S
C1108 C1109 1.399 . S
C1108 H1114 0.929 . S
C1109 C1089 1.449 . S
C1109 C1108 1.399 . S
C1109 H1115 0.930 . S
H1110 C1090 0.931 . S
H1111 C1091 0.930 . S
H1112 C1099 0.931 . S
H1113 C1100 0.929 . S
H1114 C1108 0.929 . S
H1115 C1109 0.930 . S
Mn1116 O1121 2.095 . S
Mn1116 O1131 2.162 . S
Mn1116 O1132 2.297 . S
Mn1116 O1140 2.385 . S
Mn1116 O1141 2.209 . S
Mn1116 O1142 2.094 . S
Mn1117 O1122 2.121 . S
Mn1117 N1124 2.257 . S
Mn1117 N1133 2.282 . S
Mn1117 O1141 2.215 . S
Mn1117 O1143 2.117 . S
C1118 O1140 1.234 . S
C1118 O1141 1.283 . S
C1119 O1131 1.281 . S
C1119 O1132 1.236 . S
C1120 O1142 1.240 . S
C1120 O1143 1.264 . S
O1121 Mn1116 2.095 . S
O1121 C1130 1.250 . S
O1122 Mn1117 2.121 . S
O1122 C1130 1.258 . S
C1123 N1124 1.326 . S
C1123 C1127 1.460 . S
C1123 H1129 0.929 . S
N1124 Mn1117 2.257 . S
N1124 C1123 1.326 . S
N1124 C1128 1.362 . S
C1125 C1126 1.258 . S
C1125 C1128 1.431 . S
C1125 C1145 1.449 . S
C1126 C1125 1.258 . S
C1126 C1127 1.477 . S
C1126 H1146 0.931 . S
C1127 C1123 1.460 . S
C1127 C1126 1.477 . S
C1127 H1147 0.930 . S
C1128 N1124 1.362 . S
C1128 C1125 1.431 . S
C1128 C1138 1.476 . S
H1129 C1123 0.929 . S
C1130 O1121 1.250 . S
C1130 O1122 1.258 . S
O1131 Mn1116 2.162 . S
O1131 C1119 1.281 . S
O1132 Mn1116 2.297 . S
O1132 C1119 1.236 . S
N1133 Mn1117 2.282 . S
N1133 C1134 1.328 . S
N1133 C1138 1.318 . S
C1134 N1133 1.328 . S
C1134 C1135 1.457 . S
C1134 H1139 0.929 . S
C1135 C1134 1.457 . S
C1135 C1136 1.291 . S
C1135 H1148 0.931 . S
C1136 C1135 1.291 . S
C1136 C1137 1.373 . S
C1136 H1149 0.929 . S
C1137 C1136 1.373 . S
C1137 C1138 1.396 . S
C1137 C1144 1.403 . S
C1138 C1128 1.476 . S
C1138 N1133 1.318 . S
C1138 C1137 1.396 . S
H1139 C1134 0.929 . S
O1140 Mn1116 2.385 . S
O1140 C1118 1.234 . S
O1141 Mn1116 2.209 . S
O1141 Mn1117 2.215 . S
O1141 C1118 1.283 . S
O1142 Mn1116 2.094 . S
O1142 C1120 1.240 . S
O1143 Mn1117 2.117 . S
O1143 C1120 1.264 . S
C1144 C1137 1.403 . S
C1144 C1145 1.399 . S
C1144 H1150 0.929 . S
C1145 C1125 1.449 . S
C1145 C1144 1.399 . S
C1145 H1151 0.930 . S
H1146 C1126 0.931 . S
H1147 C1127 0.930 . S
H1148 C1135 0.931 . S
H1149 C1136 0.929 . S
H1150 C1144 0.929 . S
H1151 C1145 0.930 . S
Mn1152 O1157 2.095 . S
Mn1152 O1167 2.162 . S
Mn1152 O1168 2.295 1_565 S
Mn1152 O1176 2.385 . S
Mn1152 O1177 2.209 1_565 S
Mn1152 O1178 2.094 . S
Mn1153 O1158 2.121 . S
Mn1153 N1160 2.257 1_565 S
Mn1153 N1169 2.282 . S
Mn1153 O1177 2.215 1_565 S
Mn1153 O1179 2.117 . S
C1154 O1176 1.234 1_545 S
C1154 O1177 1.283 . S
C1155 O1167 1.281 . S
C1155 O1168 1.233 1_565 S
C1156 O1178 1.240 . S
C1156 O1179 1.264 . S
O1157 Mn1152 2.095 . S
O1157 C1166 1.250 . S
O1158 Mn1153 2.121 . S
O1158 C1166 1.258 . S
C1159 N1160 1.326 . S
C1159 C1163 1.460 . S
C1159 H1165 0.929 . S
N1160 Mn1153 2.257 1_545 S
N1160 C1159 1.326 . S
N1160 C1164 1.362 . S
C1161 C1162 1.258 . S
C1161 C1164 1.431 . S
C1161 C1181 1.449 . S
C1162 C1161 1.258 . S
C1162 C1163 1.477 . S
C1162 H1182 0.931 . S
C1163 C1159 1.460 . S
C1163 C1162 1.477 . S
C1163 H1183 0.930 . S
C1164 N1160 1.362 . S
C1164 C1161 1.431 . S
C1164 C1174 1.476 . S
H1165 C1159 0.929 . S
C1166 O1157 1.250 . S
C1166 O1158 1.258 . S
O1167 Mn1152 2.162 . S
O1167 C1155 1.281 . S
O1168 Mn1152 2.295 1_545 S
O1168 C1155 1.233 1_545 S
N1169 Mn1153 2.282 . S
N1169 C1170 1.328 . S
N1169 C1174 1.318 1_565 S
C1170 N1169 1.328 . S
C1170 C1171 1.457 . S
C1170 H1175 0.929 . S
C1171 C1170 1.457 . S
C1171 C1172 1.291 1_565 S
C1171 H1184 0.931 . S
C1172 C1171 1.291 1_545 S
C1172 C1173 1.373 . S
C1172 H1185 0.929 . S
C1173 C1172 1.373 . S
C1173 C1174 1.396 . S
C1173 C1180 1.403 . S
C1174 C1164 1.476 . S
C1174 N1169 1.318 1_545 S
C1174 C1173 1.396 . S
H1175 C1170 0.929 . S
O1176 Mn1152 2.385 . S
O1176 C1154 1.234 1_565 S
O1177 Mn1152 2.209 1_545 S
O1177 Mn1153 2.215 1_545 S
O1177 C1154 1.283 . S
O1178 Mn1152 2.094 . S
O1178 C1156 1.240 . S
O1179 Mn1153 2.117 . S
O1179 C1156 1.264 . S
C1180 C1173 1.403 . S
C1180 C1181 1.399 . S
C1180 H1186 0.929 . S
C1181 C1161 1.449 . S
C1181 C1180 1.399 . S
C1181 H1187 0.930 . S
H1182 C1162 0.931 . S
H1183 C1163 0.930 . S
H1184 C1171 0.931 . S
H1185 C1172 0.929 . S
H1186 C1180 0.929 . S
H1187 C1181 0.930 . S
Mn1188 O1193 2.095 . S
Mn1188 O1203 2.162 . S
Mn1188 O1204 2.297 . S
Mn1188 O1212 2.385 . S
Mn1188 O1213 2.209 . S
Mn1188 O1214 2.094 . S
Mn1189 O1194 2.121 . S
Mn1189 N1196 2.257 . S
Mn1189 N1205 2.282 1_455 S
Mn1189 O1213 2.215 . S
Mn1189 O1215 2.117 . S
C1190 O1212 1.234 . S
C1190 O1213 1.283 . S
C1191 O1203 1.281 . S
C1191 O1204 1.236 . S
C1192 O1214 1.240 . S
C1192 O1215 1.264 . S
O1193 Mn1188 2.095 . S
O1193 C1202 1.250 . S
O1194 Mn1189 2.121 . S
O1194 C1202 1.258 . S
C1195 N1196 1.326 . S
C1195 C1199 1.460 . S
C1195 H1201 0.929 . S
N1196 Mn1189 2.257 . S
N1196 C1195 1.326 . S
N1196 C1200 1.362 1_455 S
C1197 C1198 1.258 . S
C1197 C1200 1.431 . S
C1197 C1217 1.449 . S
C1198 C1197 1.258 . S
C1198 C1199 1.477 1_655 S
C1198 H1218 0.931 . S
C1199 C1195 1.460 . S
C1199 C1198 1.477 1_455 S
C1199 H1219 0.930 . S
C1200 N1196 1.362 1_655 S
C1200 C1197 1.431 . S
C1200 C1210 1.476 . S
H1201 C1195 0.929 . S
C1202 O1193 1.250 . S
C1202 O1194 1.258 . S
O1203 Mn1188 2.162 . S
O1203 C1191 1.281 . S
O1204 Mn1188 2.297 . S
O1204 C1191 1.236 . S
N1205 Mn1189 2.282 1_655 S
N1205 C1206 1.328 . S
N1205 C1210 1.318 . S
C1206 N1205 1.328 . S
C1206 C1207 1.457 . S
C1206 H1211 0.929 . S
C1207 C1206 1.457 . S
C1207 C1208 1.291 . S
C1207 H1220 0.931 . S
C1208 C1207 1.291 . S
C1208 C1209 1.373 . S
C1208 H1221 0.929 . S
C1209 C1208 1.373 . S
C1209 C1210 1.396 . S
C1209 C1216 1.403 . S
C1210 C1200 1.476 . S
C1210 N1205 1.318 . S
C1210 C1209 1.396 . S
H1211 C1206 0.929 . S
O1212 Mn1188 2.385 . S
O1212 C1190 1.234 . S
O1213 Mn1188 2.209 . S
O1213 Mn1189 2.215 . S
O1213 C1190 1.283 . S
O1214 Mn1188 2.094 . S
O1214 C1192 1.240 . S
O1215 Mn1189 2.117 . S
O1215 C1192 1.264 . S
C1216 C1209 1.403 . S
C1216 C1217 1.399 . S
C1216 H1222 0.929 . S
C1217 C1197 1.449 . S
C1217 C1216 1.399 . S
C1217 H1223 0.930 . S
H1218 C1198 0.931 . S
H1219 C1199 0.930 . S
H1220 C1207 0.931 . S
H1221 C1208 0.929 . S
H1222 C1216 0.929 . S
H1223 C1217 0.930 . S
Mn1224 O1229 2.095 . S
Mn1224 O1239 2.162 . S
Mn1224 O1240 2.297 . S
Mn1224 O1248 2.385 . S
Mn1224 O1249 2.209 . S
Mn1224 O1250 2.094 . S
Mn1225 O1230 2.121 . S
Mn1225 N1232 2.257 . S
Mn1225 N1241 2.282 . S
Mn1225 O1249 2.215 . S
Mn1225 O1251 2.117 . S
C1226 O1248 1.234 . S
C1226 O1249 1.283 . S
C1227 O1239 1.281 . S
C1227 O1240 1.236 . S
C1228 O1250 1.240 . S
C1228 O1251 1.264 . S
O1229 Mn1224 2.095 . S
O1229 C1238 1.250 . S
O1230 Mn1225 2.121 . S
O1230 C1238 1.258 . S
C1231 N1232 1.326 . S
C1231 C1235 1.460 . S
C1231 H1237 0.929 . S
N1232 Mn1225 2.257 . S
N1232 C1231 1.326 . S
N1232 C1236 1.362 . S
C1233 C1234 1.258 . S
C1233 C1236 1.431 . S
C1233 C1253 1.449 . S
C1234 C1233 1.258 . S
C1234 C1235 1.477 . S
C1234 H1254 0.931 . S
C1235 C1231 1.460 . S
C1235 C1234 1.477 . S
C1235 H1255 0.930 . S
C1236 N1232 1.362 . S
C1236 C1233 1.431 . S
C1236 C1246 1.476 . S
H1237 C1231 0.929 . S
C1238 O1229 1.250 . S
C1238 O1230 1.258 . S
O1239 Mn1224 2.162 . S
O1239 C1227 1.281 . S
O1240 Mn1224 2.297 . S
O1240 C1227 1.236 . S
N1241 Mn1225 2.282 . S
N1241 C1242 1.328 . S
N1241 C1246 1.318 . S
C1242 N1241 1.328 . S
C1242 C1243 1.457 . S
C1242 H1247 0.929 . S
C1243 C1242 1.457 . S
C1243 C1244 1.291 . S
C1243 H1256 0.931 . S
C1244 C1243 1.291 . S
C1244 C1245 1.373 . S
C1244 H1257 0.929 . S
C1245 C1244 1.373 . S
C1245 C1246 1.396 . S
C1245 C1252 1.403 . S
C1246 C1236 1.476 . S
C1246 N1241 1.318 . S
C1246 C1245 1.396 . S
H1247 C1242 0.929 . S
O1248 Mn1224 2.385 . S
O1248 C1226 1.234 . S
O1249 Mn1224 2.209 . S
O1249 Mn1225 2.215 . S
O1249 C1226 1.283 . S
O1250 Mn1224 2.094 . S
O1250 C1228 1.240 . S
O1251 Mn1225 2.117 . S
O1251 C1228 1.264 . S
C1252 C1245 1.403 . S
C1252 C1253 1.399 . S
C1252 H1258 0.929 . S
C1253 C1233 1.449 . S
C1253 C1252 1.399 . S
C1253 H1259 0.930 . S
H1254 C1234 0.931 . S
H1255 C1235 0.930 . S
H1256 C1243 0.931 . S
H1257 C1244 0.929 . S
H1258 C1252 0.929 . S
H1259 C1253 0.930 . S
Mn1260 O1265 2.095 . S
Mn1260 O1275 2.162 . S
Mn1260 O1276 2.297 . S
Mn1260 O1284 2.385 . S
Mn1260 O1285 2.209 . S
Mn1260 O1286 2.094 . S
Mn1261 O1266 2.121 . S
Mn1261 N1268 2.257 . S
Mn1261 N1277 2.282 . S
Mn1261 O1285 2.215 . S
Mn1261 O1287 2.117 . S
C1262 O1284 1.234 . S
C1262 O1285 1.283 . S
C1263 O1275 1.281 . S
C1263 O1276 1.236 . S
C1264 O1286 1.240 . S
C1264 O1287 1.264 . S
O1265 Mn1260 2.095 . S
O1265 C1274 1.250 . S
O1266 Mn1261 2.121 . S
O1266 C1274 1.258 . S
C1267 N1268 1.326 . S
C1267 C1271 1.460 . S
C1267 H1273 0.929 . S
N1268 Mn1261 2.257 . S
N1268 C1267 1.326 . S
N1268 C1272 1.362 . S
C1269 C1270 1.258 . S
C1269 C1272 1.431 . S
C1269 C1289 1.449 . S
C1270 C1269 1.258 . S
C1270 C1271 1.477 . S
C1270 H1290 0.931 . S
C1271 C1267 1.460 . S
C1271 C1270 1.477 . S
C1271 H1291 0.930 . S
C1272 N1268 1.362 . S
C1272 C1269 1.431 . S
C1272 C1282 1.476 . S
H1273 C1267 0.929 . S
C1274 O1265 1.250 . S
C1274 O1266 1.258 . S
O1275 Mn1260 2.162 . S
O1275 C1263 1.281 . S
O1276 Mn1260 2.297 . S
O1276 C1263 1.236 . S
N1277 Mn1261 2.282 . S
N1277 C1278 1.328 1_565 S
N1277 C1282 1.318 . S
C1278 N1277 1.328 1_545 S
C1278 C1279 1.457 . S
C1278 H1283 0.929 . S
C1279 C1278 1.457 . S
C1279 C1280 1.291 . S
C1279 H1292 0.931 . S
C1280 C1279 1.291 . S
C1280 C1281 1.373 1_545 S
C1280 H1293 0.929 . S
C1281 C1280 1.373 1_565 S
C1281 C1282 1.396 . S
C1281 C1288 1.403 . S
C1282 C1272 1.476 . S
C1282 N1277 1.318 . S
C1282 C1281 1.396 . S
H1283 C1278 0.929 . S
O1284 Mn1260 2.385 . S
O1284 C1262 1.234 . S
O1285 Mn1260 2.209 . S
O1285 Mn1261 2.215 . S
O1285 C1262 1.283 . S
O1286 Mn1260 2.094 . S
O1286 C1264 1.240 . S
O1287 Mn1261 2.117 . S
O1287 C1264 1.264 . S
C1288 C1281 1.403 . S
C1288 C1289 1.399 . S
C1288 H1294 0.929 . S
C1289 C1269 1.449 . S
C1289 C1288 1.399 . S
C1289 H1295 0.930 . S
H1290 C1270 0.931 . S
H1291 C1271 0.930 . S
H1292 C1279 0.931 . S
H1293 C1280 0.929 . S
H1294 C1288 0.929 . S
H1295 C1289 0.930 . S
C14 C662 2.408 . S
C40 C687 1.762 . S
C723 C76 1.697 . S
C112 C1191 1.698 . S
C1227 C148 1.761 . S
C194 C1274 2.409 . S
C878 C230 2.409 . S
C255 C904 1.762 . S
C291 C940 1.697 . S
C327 C544 1.697 . S
C580 C363 1.761 . S
C410 C626 2.408 . S
C446 C1094 2.409 1_655 S
C472 C1119 1.762 . S
C508 C1155 1.697 1_545 S
C759 C976 1.698 1_546 S
C795 C1012 1.761 1_656 S
C842 C1058 2.409 1_556 S
C256 C4 1.523 1_556 S
C292 C50 1.746 1_556 S
C86 C218 2.063 1_554 S
C398 C122 2.063 . S
C328 C158 1.747 . S
C364 C184 1.523 . S
C219 C39 1.832 . S
C266 C75 1.777 . S
C302 C2 1.897 . S
C338 C182 1.897 . S
C111 C374 1.777 . S
C147 C399 1.832 . S
C436 C688 1.523 . S
C482 C724 1.746 . S
C518 C650 2.063 . S
C830 C554 2.063 . S
C590 C760 1.747 . S
C796 C616 1.523 . S
C651 C471 1.833 . S
C507 C698 1.777 . S
C434 C734 1.897 . S
C770 C614 1.897 . S
C806 C543 1.777 . S
C831 C579 1.832 . S
C1120 C868 1.524 . S
C914 C1156 1.746 . S
C950 C1082 2.063 . S
C1262 C986 2.063 . S
C1192 C1022 1.747 . S
C1228 C1048 1.523 . S
C903 C1083 1.833 . S
C939 C1130 1.777 . S
C866 C1166 1.897 . S
C1202 C1046 1.897 . S
C975 C1238 1.778 . S
C1263 C1011 1.832 . S
C3 C1047 1.217 . S
C974 C38 1.214 . S
C74 C1010 1.214 . S
C110 C470 1.214 . S
C506 C146 1.214 . S
C183 C435 1.217 . S
C832 C220 1.207 . S
C254 C758 1.393 . S
C290 C794 1.394 . S
C326 C1118 1.393 . S
C362 C1154 1.393 . S
C1084 C400 1.207 . S
C542 C902 1.214 1_655 S
C938 C578 1.214 . S
C867 C615 1.218 1_565 S
C1264 C652 1.207 1_565 S
C686 C1190 1.393 1_655 S
C722 C1226 1.394 . S
