# Generated by pormake.
# Topology mmt, (4)-cn, num edge types: 1
# Building blocks:
#     Node 0, Type 0, BuildingBlock: UXUYUI_clean_sbu_0, # of connection points: 4
#     Node 1, Type 0, BuildingBlock: UXUYUI_clean_sbu_0, # of connection points: 4
#     Node 2, Type 0, BuildingBlock: UXUYUI_clean_sbu_0, # of connection points: 4
#     Node 3, Type 0, BuildingBlock: UXUYUI_clean_sbu_0, # of connection points: 4
#     Node 4, Type 0, BuildingBlock: UXUYUI_clean_sbu_0, # of connection points: 4
#     Node 5, Type 0, BuildingBlock: UXUYUI_clean_sbu_0, # of connection points: 4
#     Node 6, Type 0, BuildingBlock: UXUYUI_clean_sbu_0, # of connection points: 4
#     Node 7, Type 0, BuildingBlock: UXUYUI_clean_sbu_0, # of connection points: 4
#     Edge 8, Type (0, 0), BuildingBlock: XUDNAN_clean_linker_2, # of connection points: 2
#     Edge 9, Type (0, 0), BuildingBlock: XUDNAN_clean_linker_2, # of connection points: 2
#     Edge 10, Type (0, 0), BuildingBlock: XUDNAN_clean_linker_2, # of connection points: 2
#     Edge 11, Type (0, 0), BuildingBlock: XUDNAN_clean_linker_2, # of connection points: 2
#     Edge 12, Type (0, 0), BuildingBlock: XUDNAN_clean_linker_2, # of connection points: 2
#     Edge 13, Type (0, 0), BuildingBlock: XUDNAN_clean_linker_2, # of connection points: 2
#     Edge 14, Type (0, 0), BuildingBlock: XUDNAN_clean_linker_2, # of connection points: 2
#     Edge 15, Type (0, 0), BuildingBlock: XUDNAN_clean_linker_2, # of connection points: 2
#     Edge 16, Type (0, 0), BuildingBlock: XUDNAN_clean_linker_2, # of connection points: 2
#     Edge 17, Type (0, 0), BuildingBlock: XUDNAN_clean_linker_2, # of connection points: 2
#     Edge 18, Type (0, 0), BuildingBlock: XUDNAN_clean_linker_2, # of connection points: 2
#     Edge 19, Type (0, 0), BuildingBlock: XUDNAN_clean_linker_2, # of connection points: 2
#     Edge 20, Type (0, 0), BuildingBlock: XUDNAN_clean_linker_2, # of connection points: 2
#     Edge 21, Type (0, 0), BuildingBlock: XUDNAN_clean_linker_2, # of connection points: 2
#     Edge 22, Type (0, 0), BuildingBlock: XUDNAN_clean_linker_2, # of connection points: 2
#     Edge 23, Type (0, 0), BuildingBlock: XUDNAN_clean_linker_2, # of connection points: 2
# Relax obj value: 0.161
# Max RMSD: 0.176
# Mean RMSD: 0.176
data_MOF--net-mmt--node1-UXUYUI_clean_sbu_0--edge1-XUDNAN_clean_linker_2
_symmetry_space_group_name_H-M    P1
_symmetry_Int_Tables_number       1
_symmetry_cell_setting            triclinic
loop_
_symmetry_equiv_pos_as_xyz
'x, y, z'
_cell_length_a     31.616692
_cell_length_b     57.371756
_cell_length_c     63.554238
_cell_angle_alpha  90.003953
_cell_angle_beta   89.990271
_cell_angle_gamma 89.991267
loop_
_atom_site_label
_atom_site_type_symbol
_atom_site_fract_x
_atom_site_fract_y
_atom_site_fract_z
_atom_type_partial_charge
Li0 Li 0.08746 0.56659 0.33497 0.0
Li1 Li 0.11105 0.55845 0.37085 0.0
Li2 Li 0.14159 0.59116 0.35002 0.0
Li3 Li 0.15943 0.55125 0.34094 0.0
C4 C 0.04405 0.59696 0.36 0.0
N5 N 0.96469 0.61713 0.35939 0.0
C6 C 0.01108 0.58724 0.37173 0.0
C7 C 0.03688 0.61719 0.3483 0.0
C8 C 0.97112 0.59762 0.37112 0.0
C9 C 0.99649 0.62706 0.3481 0.0
C10 C 0.11098 0.51365 0.35406 0.0
C11 C 0.14918 0.48627 0.37569 0.0
N12 N 0.12565 0.4686 0.36754 0.0
C13 C 0.08718 0.49524 0.3459 0.0
C14 C 0.14225 0.50917 0.36908 0.0
C15 C 0.09507 0.47257 0.35292 0.0
C16 C 0.04437 0.56809 0.29575 0.0
N17 N 0.03979 0.56433 0.31676 0.0
C18 C 0.96712 0.55415 0.31204 0.0
C19 C 0.00231 0.55717 0.325 0.0
C20 C 0.97088 0.55792 0.2903 0.0
C21 C 0.01013 0.56493 0.28214 0.0
H22 H 0.07481 0.57306 0.28947 0.0
H23 H 0.99999 0.55327 0.34159 0.0
C24 C 0.1098 0.55878 0.4152 0.0
N25 N 0.09216 0.54877 0.39795 0.0
C26 C 0.09495 0.55327 0.43529 0.0
C27 C 0.04402 0.52719 0.41949 0.0
C28 C 0.06006 0.53312 0.39969 0.0
C29 C 0.0612 0.5375 0.43766 0.0
H30 H 0.13489 0.57139 0.41332 0.0
H31 H 0.04614 0.5257 0.38567 0.0
C32 C 0.15374 0.59223 0.30712 0.0
N33 N 0.17976 0.6248 0.27782 0.0
C34 C 0.19262 0.58963 0.2969 0.0
C35 C 0.12782 0.61118 0.30219 0.0
C36 C 0.20528 0.60634 0.2822 0.0
C37 C 0.14161 0.62752 0.28741 0.0
C38 C 0.213 0.57442 0.37099 0.0
C39 C 0.23939 0.57856 0.35376 0.0
C40 C 0.22864 0.57749 0.39136 0.0
C41 C 0.28101 0.58578 0.35718 0.0
C42 C 0.27046 0.58473 0.39415 0.0
N43 N 0.29556 0.5887 0.37714 0.0
C44 C 0.14244 0.63639 0.36679 0.0
C45 C 0.19701 0.63011 0.34191 0.0
C46 C 0.15695 0.65901 0.37055 0.0
N47 N 0.16255 0.62243 0.3527 0.0
C48 C 0.21267 0.65258 0.34521 0.0
C49 C 0.19278 0.66734 0.35983 0.0
H50 H 0.11535 0.62985 0.37533 0.0
H51 H 0.21301 0.61871 0.331 0.0
C52 C 0.19459 0.52515 0.3086 0.0
N53 N 0.20061 0.53094 0.3291 0.0
C54 C 0.22419 0.51144 0.29803 0.0
C55 C 0.26531 0.50943 0.33004 0.0
C56 C 0.23463 0.52302 0.34005 0.0
C57 C 0.26059 0.50367 0.30863 0.0
H58 H 0.16694 0.53152 0.30038 0.0
H59 H 0.2384 0.52764 0.35644 0.0
O60 O 0.08337 0.587 0.36037 0.0
O61 O 0.10358 0.5359 0.34726 0.0
O62 O 0.14095 0.57613 0.32168 0.0
O63 O 0.17199 0.56753 0.36799 0.0
H64 H 0.01615 0.57173 0.38104 0.0
H65 H 0.06229 0.62531 0.33961 0.0
H66 H 0.94521 0.59016 0.37997 0.0
H67 H 0.99046 0.64266 0.33903 0.0
H68 H 0.17328 0.48255 0.3873 0.0
H69 H 0.06286 0.49845 0.33426 0.0
H70 H 0.16096 0.52318 0.37561 0.0
H71 H 0.07689 0.45814 0.34675 0.0
H72 H 0.93761 0.54823 0.31886 0.0
H73 H 0.01428 0.5679 0.26544 0.0
H74 H 0.10966 0.56141 0.4488 0.0
H75 H 0.01761 0.51524 0.42046 0.0
H76 H 0.21291 0.57493 0.30032 0.0
H77 H 0.09733 0.61319 0.30963 0.0
H78 H 0.2354 0.60463 0.27427 0.0
H79 H 0.12193 0.64233 0.28352 0.0
H80 H 0.22783 0.57627 0.33792 0.0
H81 H 0.20875 0.5743 0.4049 0.0
H82 H 0.30171 0.58908 0.34396 0.0
H83 H 0.28296 0.58719 0.40984 0.0
H84 H 0.14024 0.66983 0.38177 0.0
H85 H 0.24074 0.65808 0.33681 0.0
H86 H 0.21861 0.50705 0.2817 0.0
H87 H 0.29293 0.50405 0.33885 0.0
Li88 Li 0.33402 0.94183 0.34469 0.0
Li89 Li 0.36165 0.90202 0.35203 0.0
Li90 Li 0.38969 0.93766 0.37046 0.0
Li91 Li 0.4053 0.9308 0.33373 0.0
C92 C 0.29067 0.92729 0.37731 0.0
N93 N 0.20655 0.93441 0.38719 0.0
C94 C 0.26111 0.90953 0.37407 0.0
C95 C 0.27752 0.94859 0.38574 0.0
C96 C 0.21871 0.91349 0.37914 0.0
C97 C 0.23483 0.95188 0.39058 0.0
C98 C 0.35353 0.91568 0.30329 0.0
C99 C 0.37745 0.8961 0.27188 0.0
N100 N 0.36232 0.914 0.26005 0.0
C101 C 0.33787 0.9338 0.2908 0.0
C102 C 0.37317 0.89658 0.29375 0.0
C103 C 0.34275 0.93266 0.26898 0.0
C104 C 0.28981 0.9824 0.33301 0.0
N105 N 0.28564 0.95904 0.33581 0.0
C106 C 0.21569 0.96001 0.32155 0.0
C107 C 0.24953 0.9477 0.33032 0.0
C108 C 0.21932 0.98416 0.31821 0.0
C109 C 0.25687 0.99537 0.3243 0.0
H110 H 0.31932 0.99088 0.33677 0.0
H111 H 0.24749 0.929 0.33218 0.0
C112 C 0.35856 0.85823 0.37229 0.0
N113 N 0.34545 0.87033 0.35513 0.0
C114 C 0.34417 0.83552 0.37573 0.0
C115 C 0.30361 0.83809 0.34357 0.0
C116 C 0.31891 0.86072 0.34072 0.0
C117 C 0.3158 0.82525 0.36141 0.0
H118 H 0.37966 0.86638 0.38349 0.0
H119 H 0.3087 0.87089 0.32732 0.0
C120 C 0.40401 0.97967 0.35502 0.0
N121 N 0.44112 0.01874 0.37256 0.0
C122 C 0.44573 0.98556 0.34997 0.0
C123 C 0.38116 0.99375 0.36893 0.0
C124 C 0.4639 0.00538 0.35899 0.0
C125 C 0.4005 0.01338 0.37767 0.0
C126 C 0.45502 0.89661 0.35353 0.0
C127 C 0.49512 0.90129 0.36178 0.0
C128 C 0.44912 0.87701 0.34081 0.0
C129 C 0.52876 0.88643 0.35694 0.0
C130 C 0.48353 0.86255 0.33635 0.0
N131 N 0.52232 0.86754 0.34443 0.0
C132 C 0.38952 0.95381 0.41331 0.0
C133 C 0.45465 0.95629 0.39497 0.0
C134 C 0.4071 0.96527 0.43069 0.0
N135 N 0.41329 0.94993 0.39581 0.0
C136 C 0.47326 0.96802 0.41178 0.0
C137 C 0.44925 0.97297 0.4298 0.0
H138 H 0.35668 0.94856 0.41357 0.0
H139 H 0.47276 0.95305 0.38086 0.0
C140 C 0.43269 0.95729 0.30097 0.0
N141 N 0.44482 0.938 0.31181 0.0
C142 C 0.46013 0.9679 0.28681 0.0
C143 C 0.51178 0.93796 0.29419 0.0
C144 C 0.48308 0.92781 0.30829 0.0
C145 C 0.50083 0.95875 0.28384 0.0
H146 H 0.40236 0.96521 0.30421 0.0
H147 H 0.49232 0.91253 0.317 0.0
O148 O 0.3322 0.92389 0.37211 0.0
O149 O 0.34967 0.91666 0.32472 0.0
O150 O 0.38585 0.96008 0.34666 0.0
O151 O 0.42171 0.91093 0.35821 0.0
H152 H 0.27071 0.89293 0.36759 0.0
H153 H 0.29997 0.96249 0.38838 0.0
H154 H 0.19546 0.89994 0.37663 0.0
H155 H 0.22417 0.96832 0.39699 0.0
H156 H 0.39278 0.88147 0.26431 0.0
H157 H 0.32261 0.94873 0.29787 0.0
H158 H 0.385 0.88228 0.3031 0.0
H159 H 0.33106 0.94663 0.25914 0.0
H160 H 0.18727 0.95067 0.31716 0.0
H161 H 0.26151 0.01382 0.32157 0.0
H162 H 0.35495 0.82617 0.38953 0.0
H163 H 0.2814 0.83106 0.33226 0.0
H164 H 0.46421 0.97476 0.33949 0.0
H165 H 0.34897 0.98942 0.37311 0.0
H166 H 0.4962 0.01005 0.35531 0.0
H167 H 0.38325 0.02432 0.38856 0.0
H168 H 0.5003 0.91623 0.37181 0.0
H169 H 0.41836 0.87297 0.33444 0.0
H170 H 0.55998 0.88992 0.36316 0.0
H171 H 0.47939 0.84736 0.32648 0.0
H172 H 0.38758 0.96883 0.44432 0.0
H173 H 0.50599 0.97344 0.41058 0.0
H174 H 0.45019 0.9837 0.27891 0.0
H175 H 0.54295 0.9304 0.29234 0.0
Li176 Li 0.66183 0.44977 0.15691 0.0
Li177 Li 0.64469 0.40863 0.14956 0.0
Li178 Li 0.61423 0.44181 0.12825 0.0
Li179 Li 0.58879 0.43481 0.16406 0.0
C180 C 0.71587 0.43715 0.12785 0.0
N181 N 0.79982 0.44916 0.12257 0.0
C182 C 0.74778 0.42147 0.13342 0.0
C183 C 0.72662 0.45883 0.11937 0.0
C184 C 0.79005 0.42789 0.13068 0.0
C185 C 0.76925 0.46462 0.1169 0.0
C186 C 0.64601 0.41181 0.19463 0.0
C187 C 0.61715 0.38209 0.21733 0.0
N188 N 0.65082 0.38459 0.23045 0.0
C189 C 0.68006 0.41428 0.20848 0.0
C190 C 0.61409 0.39574 0.19921 0.0
C191 C 0.68203 0.40029 0.22645 0.0
C192 C 0.69562 0.49266 0.1708 0.0
N193 N 0.70418 0.46959 0.16854 0.0
C194 C 0.76823 0.47366 0.18818 0.0
C195 C 0.74001 0.46001 0.1766 0.0
C196 C 0.75931 0.49737 0.19158 0.0
C197 C 0.72299 0.50697 0.18221 0.0
H198 H 0.66665 0.49979 0.1645 0.0
H199 H 0.74568 0.44153 0.17489 0.0
C200 C 0.65372 0.36219 0.13413 0.0
N201 N 0.66626 0.37745 0.1493 0.0
C202 C 0.66702 0.33892 0.13481 0.0
C203 C 0.70677 0.34776 0.16629 0.0
C204 C 0.69334 0.37084 0.16481 0.0
C205 C 0.69305 0.33144 0.15136 0.0
H206 H 0.63252 0.36796 0.12183 0.0
H207 H 0.70428 0.38342 0.17618 0.0
C208 C 0.58746 0.4832 0.14157 0.0
N209 N 0.54839 0.51983 0.1211 0.0
C210 C 0.54449 0.48762 0.14485 0.0
C211 C 0.61067 0.49758 0.12809 0.0
C212 C 0.52529 0.50619 0.13431 0.0
C213 C 0.59031 0.51595 0.11781 0.0
C214 C 0.55091 0.39891 0.13981 0.0
C215 C 0.51434 0.40477 0.12864 0.0
C216 C 0.55242 0.37784 0.15083 0.0
C217 C 0.47952 0.38979 0.12916 0.0
C218 C 0.51698 0.3633 0.15096 0.0
N219 N 0.48152 0.36955 0.14024 0.0
C220 C 0.62645 0.45054 0.08487 0.0
C221 C 0.55661 0.45755 0.09676 0.0
C222 C 0.61515 0.45673 0.06436 0.0
N223 N 0.59724 0.451 0.10055 0.0
C224 C 0.54388 0.46382 0.07649 0.0
C225 C 0.57325 0.46333 0.05989 0.0
H226 H 0.65855 0.44525 0.08826 0.0
H227 H 0.53395 0.45786 0.10947 0.0
C228 C 0.55455 0.44271 0.20385 0.0
N229 N 0.54318 0.43755 0.18374 0.0
C230 C 0.5239 0.44549 0.21942 0.0
C231 C 0.46992 0.43894 0.19316 0.0
C232 C 0.50177 0.4358 0.17813 0.0
C233 C 0.481 0.44367 0.21413 0.0
H234 H 0.58754 0.44493 0.20779 0.0
H235 H 0.49334 0.43253 0.16195 0.0
O236 O 0.67432 0.43132 0.13071 0.0
O237 O 0.64375 0.42532 0.17689 0.0
O238 O 0.6067 0.46494 0.15157 0.0
O239 O 0.58548 0.41331 0.13926 0.0
H240 H 0.74004 0.40459 0.13992 0.0
H241 H 0.70231 0.4711 0.11485 0.0
H242 H 0.81509 0.41598 0.13504 0.0
H243 H 0.77803 0.48139 0.11047 0.0
H244 H 0.59263 0.3696 0.22103 0.0
H245 H 0.70483 0.4268 0.20539 0.0
H246 H 0.58684 0.39416 0.18911 0.0
H247 H 0.70835 0.40193 0.23722 0.0
H248 H 0.79549 0.46543 0.19533 0.0
H249 H 0.71512 0.52521 0.1842 0.0
H250 H 0.65586 0.32674 0.12303 0.0
H251 H 0.72742 0.34265 0.17909 0.0
H252 H 0.5261 0.47676 0.15531 0.0
H253 H 0.64398 0.49448 0.12546 0.0
H254 H 0.492 0.50974 0.13662 0.0
H255 H 0.60783 0.5271 0.10722 0.0
H256 H 0.51263 0.42079 0.11979 0.0
H257 H 0.58072 0.37257 0.15906 0.0
H258 H 0.45091 0.39425 0.12073 0.0
H259 H 0.51773 0.347 0.1595 0.0
H260 H 0.63908 0.45644 0.05218 0.0
H261 H 0.51115 0.46852 0.0738 0.0
H262 H 0.53362 0.44963 0.23533 0.0
H263 H 0.43706 0.43764 0.18849 0.0
Li264 Li 0.83928 0.05684 0.15883 0.0
Li265 Li 0.86643 0.09729 0.15088 0.0
Li266 Li 0.89409 0.06092 0.13137 0.0
Li267 Li 0.91119 0.06775 0.16783 0.0
C268 C 0.79942 0.07184 0.12073 0.0
N269 N 0.72506 0.06616 0.09842 0.0
C270 C 0.76562 0.08717 0.12383 0.0
C271 C 0.79566 0.0539 0.10595 0.0
C272 C 0.72821 0.08393 0.1125 0.0
C273 C 0.75775 0.05124 0.09492 0.0
C274 C 0.86507 0.08174 0.19973 0.0
C275 C 0.90139 0.09699 0.2302 0.0
N276 N 0.88225 0.08066 0.24242 0.0
C277 C 0.84574 0.06514 0.21265 0.0
C278 C 0.89306 0.09785 0.20862 0.0
C279 C 0.85481 0.06487 0.23416 0.0
C280 C 0.79092 0.02015 0.1781 0.0
N281 N 0.78956 0.04161 0.16898 0.0
C282 C 0.71896 0.04744 0.18121 0.0
C283 C 0.75438 0.05511 0.17019 0.0
C284 C 0.72012 0.02595 0.19181 0.0
C285 C 0.75626 0.01189 0.1896 0.0
H286 H 0.81988 0.01014 0.17779 0.0
H287 H 0.75474 0.0725 0.16378 0.0
C288 C 0.82971 0.13818 0.13188 0.0
N289 N 0.84878 0.12915 0.14927 0.0
C290 C 0.81078 0.16028 0.13268 0.0
C291 C 0.83386 0.16377 0.16876 0.0
C292 C 0.85187 0.14169 0.16731 0.0
C293 C 0.81168 0.17306 0.15156 0.0
H294 H 0.82747 0.12781 0.11771 0.0
H295 H 0.86693 0.13423 0.1809 0.0
C296 C 0.88941 0.01586 0.14803 0.0
N297 N 0.88579 0.9706 0.13327 0.0
C298 C 0.9225 1.00036 0.15217 0.0
C299 C 0.85438 0.00829 0.13653 0.0
C300 C 0.92013 0.97757 0.14452 0.0
C301 C 0.85314 0.98535 0.12918 0.0
C302 C 0.96484 0.09696 0.14533 0.0
C303 C 0.9999 0.08261 0.14192 0.0
C304 C 0.97078 0.12039 0.15056 0.0
C305 C 0.0405 0.09194 0.14402 0.0
C306 C 0.01189 0.12906 0.15248 0.0
N307 N 0.0456 0.11477 0.14921 0.0
C308 C 0.90482 0.05738 0.08641 0.0
C309 C 0.95066 0.03472 0.10762 0.0
C310 C 0.92559 0.04981 0.06816 0.0
N311 N 0.91774 0.04976 0.10564 0.0
C312 C 0.97203 0.02663 0.08991 0.0
C313 C 0.96011 0.03442 0.06982 0.0
H314 H 0.87904 0.06971 0.08527 0.0
H315 H 0.96104 0.02938 0.12306 0.0
C316 C 0.95124 0.04088 0.19831 0.0
N317 N 0.95383 0.06206 0.1888 0.0
C318 C 0.97932 0.03486 0.21434 0.0
C319 C 0.01209 0.07269 0.21082 0.0
C320 C 0.9834 0.07797 0.1948 0.0
C321 C 0.01027 0.05087 0.22082 0.0
H322 H 0.92676 0.02878 0.19367 0.0
H323 H 0.98418 0.09498 0.18761 0.0
O324 O 0.83649 0.07492 0.13152 0.0
O325 O 0.85712 0.08199 0.17851 0.0
O326 O 0.89157 0.03833 0.15522 0.0
O327 O 0.92484 0.08828 0.14323 0.0
H328 H 0.76805 0.10129 0.13505 0.0
H329 H 0.8218 0.04224 0.10289 0.0
H330 H 0.70169 0.09554 0.1149 0.0
H331 H 0.75438 0.03737 0.08352 0.0
H332 H 0.92339 0.10918 0.23718 0.0
H333 H 0.82399 0.05254 0.20622 0.0
H334 H 0.90945 0.11039 0.1989 0.0
H335 H 0.84006 0.05208 0.24429 0.0
H336 H 0.69165 0.05878 0.18224 0.0
H337 H 0.75887 0.9954 0.19778 0.0
H338 H 0.79395 0.16675 0.11904 0.0
H339 H 0.83628 0.1732 0.18348 0.0
H340 H 0.94995 0.00595 0.161 0.0
H341 H 0.82816 0.01988 0.13359 0.0
H342 H 0.94562 0.96543 0.1475 0.0
H343 H 0.82615 0.97926 0.12028 0.0
H344 H 0.99582 0.06444 0.13792 0.0
H345 H 0.94392 0.13173 0.15316 0.0
H346 H 0.06795 0.08102 0.14154 0.0
H347 H 0.017 0.14714 0.15658 0.0
H348 H 0.91558 0.05648 0.05302 0.0
H349 H 0.99794 0.0145 0.09202 0.0
H350 H 0.97625 0.01802 0.22189 0.0
H351 H 0.0355 0.08554 0.21529 0.0
Li352 Li 0.83926 0.44589 0.66016 0.0
Li353 Li 0.91087 0.43244 0.66569 0.0
Li354 Li 0.88884 0.43957 0.63037 0.0
Li355 Li 0.86269 0.40451 0.65046 0.0
C356 C 0.8846 0.48453 0.64692 0.0
N357 N 0.86882 0.52943 0.63333 0.0
C358 C 0.90856 0.50309 0.65469 0.0
C359 C 0.85264 0.48878 0.63223 0.0
C360 C 0.90008 0.52568 0.64763 0.0
C361 C 0.84515 0.5116 0.62555 0.0
C362 C 0.86254 0.41554 0.69923 0.0
C363 C 0.8731 0.38891 0.7281 0.0
N364 N 0.87079 0.40708 0.74181 0.0
C365 C 0.86001 0.43394 0.71359 0.0
C366 C 0.86894 0.39282 0.7065 0.0
C367 C 0.86438 0.42931 0.73506 0.0
C368 C 0.75361 0.45809 0.66917 0.0
N369 N 0.7948 0.46441 0.67148 0.0
C370 C 0.77494 0.49779 0.69168 0.0
C371 C 0.80588 0.48373 0.68256 0.0
C372 C 0.73213 0.49174 0.68965 0.0
C373 C 0.72153 0.47156 0.67825 0.0
H374 H 0.74575 0.44249 0.66044 0.0
H375 H 0.83888 0.48806 0.68461 0.0
C376 C 0.98405 0.45525 0.67486 0.0
N377 N 0.9589 0.43856 0.68339 0.0
C378 C 0.01589 0.46559 0.68671 0.0
C379 C 0.99751 0.44042 0.71576 0.0
C380 C 0.96625 0.43023 0.70312 0.0
C381 C 0.02161 0.45906 0.70781 0.0
H382 H 0.9781 0.46128 0.65902 0.0
H383 H 0.94686 0.4165 0.70948 0.0
C384 C 0.80609 0.42444 0.61596 0.0
N385 N 0.75916 0.41665 0.57998 0.0
C386 C 0.81505 0.4053 0.60311 0.0
C387 C 0.77311 0.43954 0.6106 0.0
C388 C 0.79098 0.40167 0.58497 0.0
C389 C 0.74983 0.43534 0.59231 0.0
C390 C 0.95914 0.40344 0.64648 0.0
C391 C 0.99616 0.41292 0.63807 0.0
C392 C 0.96165 0.38573 0.66152 0.0
C393 C 0.03528 0.40461 0.645 0.0
C394 C 0.00138 0.37789 0.66804 0.0
N395 N 0.03706 0.38743 0.65973 0.0
C396 C 0.94332 0.46604 0.60645 0.0
C397 C 0.88957 0.44965 0.58512 0.0
C398 C 0.96008 0.47798 0.58926 0.0
N399 N 0.90837 0.45246 0.60422 0.0
C400 C 0.90572 0.46106 0.56736 0.0
C401 C 0.94106 0.47572 0.56943 0.0
H402 H 0.95782 0.46792 0.62175 0.0
H403 H 0.86179 0.43891 0.58359 0.0
C404 C 0.8097 0.36615 0.65986 0.0
N405 N 0.84391 0.37307 0.6485 0.0
C406 C 0.79387 0.34351 0.65772 0.0
C407 C 0.84895 0.33557 0.63232 0.0
C408 C 0.86405 0.35823 0.63517 0.0
C409 C 0.81316 0.32803 0.64353 0.0
H410 H 0.79431 0.37837 0.67033 0.0
H411 H 0.89128 0.3642 0.62639 0.0
O412 O 0.89271 0.46233 0.65369 0.0
O413 O 0.85784 0.41963 0.6782 0.0
O414 O 0.82886 0.42816 0.63394 0.0
O415 O 0.92057 0.41176 0.64037 0.0
H416 H 0.93339 0.50009 0.6661 0.0
H417 H 0.83395 0.47464 0.626 0.0
H418 H 0.91834 0.54022 0.65353 0.0
H419 H 0.82055 0.51514 0.61416 0.0
H420 H 0.8782 0.37143 0.73397 0.0
H421 H 0.85509 0.45161 0.7082 0.0
H422 H 0.87078 0.37838 0.69558 0.0
H423 H 0.86272 0.44338 0.74636 0.0
H424 H 0.78452 0.51293 0.70068 0.0
H425 H 0.68884 0.46634 0.67632 0.0
H426 H 0.03466 0.47931 0.67964 0.0
H427 H 0.00102 0.43466 0.73188 0.0
H428 H 0.84072 0.39361 0.6069 0.0
H429 H 0.76553 0.45434 0.62047 0.0
H430 H 0.79769 0.387 0.57481 0.0
H431 H 0.72429 0.44691 0.58793 0.0
H432 H 0.99468 0.42668 0.62644 0.0
H433 H 0.93322 0.3783 0.66822 0.0
H434 H 0.06423 0.41185 0.63872 0.0
H435 H 0.00384 0.36428 0.67975 0.0
H436 H 0.98767 0.4889 0.59148 0.0
H437 H 0.89006 0.45898 0.55232 0.0
H438 H 0.76604 0.33842 0.66653 0.0
H439 H 0.86494 0.32408 0.62137 0.0
Li440 Li 0.58567 0.06569 0.66259 0.0
Li441 Li 0.65716 0.05396 0.658 0.0
Li442 Li 0.63307 0.09545 0.65045 0.0
Li443 Li 0.60982 0.06227 0.62755 0.0
C444 C 0.6287 0.0781 0.69829 0.0
N445 N 0.61241 0.07747 0.74096 0.0
C446 C 0.62534 0.05687 0.70894 0.0
C447 C 0.62416 0.09901 0.70933 0.0
C448 C 0.61694 0.05692 0.73052 0.0
C449 C 0.61587 0.09832 0.73091 0.0
C450 C 0.61866 0.01655 0.63901 0.0
C451 C 0.66616 0.99574 0.61591 0.0
N452 N 0.64486 0.97565 0.61994 0.0
C453 C 0.59733 0.99563 0.64292 0.0
C454 C 0.65349 0.01656 0.62541 0.0
C455 C 0.61103 0.97517 0.63314 0.0
C456 C 0.52056 0.03748 0.6764 0.0
N457 N 0.53816 0.05861 0.6804 0.0
C458 C 0.49635 0.0626 0.71161 0.0
C459 C 0.52539 0.07169 0.69713 0.0
C460 C 0.48072 0.03993 0.70872 0.0
C461 C 0.49193 0.02768 0.69048 0.0
H462 H 0.53012 0.02778 0.66267 0.0
H463 H 0.53918 0.08864 0.69985 0.0
C464 C 0.74118 0.04485 0.67177 0.0
N465 N 0.70175 0.03571 0.6696 0.0
C466 C 0.773 0.03204 0.68179 0.0
C467 C 0.72302 1.00069 0.68698 0.0
C468 C 0.69218 0.01415 0.6771 0.0
C469 C 0.76399 0.00964 0.68954 0.0
H470 H 0.74763 0.06227 0.66612 0.0
H471 H 0.66025 0.0076 0.67596 0.0
C472 C 0.53841 0.09739 0.64632 0.0
N473 N 0.4627 0.11454 0.66155 0.0
C474 C 0.50014 0.08761 0.63975 0.0
C475 C 0.53819 0.11591 0.6606 0.0
C476 C 0.4622 0.09651 0.64766 0.0
C477 C 0.49958 0.12435 0.66811 0.0
C478 C 0.69387 0.08399 0.61826 0.0
C479 C 0.6773 0.10105 0.60491 0.0
C480 C 0.73629 0.07749 0.61641 0.0
C481 C 0.70367 0.1115 0.59 0.0
C482 C 0.76159 0.08828 0.60125 0.0
N483 N 0.74491 0.10495 0.58849 0.0
C484 C 0.68592 0.1337 0.66132 0.0
C485 C 0.63189 0.14212 0.6366 0.0
C486 C 0.70245 0.15621 0.65915 0.0
N487 N 0.6516 0.12707 0.6499 0.0
C488 C 0.64758 0.16464 0.63379 0.0
C489 C 0.68372 0.17182 0.64489 0.0
H490 H 0.70116 0.12128 0.67164 0.0
H491 H 0.60472 0.13635 0.62767 0.0
C492 C 0.55488 0.04442 0.5972 0.0
N493 N 0.59469 0.05294 0.59966 0.0
C494 C 0.5404 0.03767 0.57735 0.0
C495 C 0.60874 0.04777 0.56299 0.0
C496 C 0.62192 0.05424 0.58314 0.0
C497 C 0.5673 0.0396 0.55985 0.0
H498 H 0.53432 0.0429 0.61071 0.0
H499 H 0.65394 0.06016 0.58551 0.0
O500 O 0.63657 0.07846 0.67716 0.0
O501 O 0.60536 0.0367 0.64859 0.0
O502 O 0.57597 0.08864 0.63912 0.0
O503 O 0.66878 0.0736 0.63306 0.0
H504 H 0.6285 0.04055 0.70057 0.0
H505 H 0.62675 0.11557 0.70126 0.0
H506 H 0.61389 0.04063 0.73895 0.0
H507 H 0.61209 0.11436 0.73967 0.0
H508 H 0.69299 0.99556 0.60535 0.0
H509 H 0.57059 0.99509 0.65352 0.0
H510 H 0.67074 0.03235 0.62214 0.0
H511 H 0.5948 0.95889 0.63607 0.0
H512 H 0.4882 0.07258 0.7255 0.0
H513 H 0.47982 0.01032 0.68754 0.0
H514 H 0.80423 0.03957 0.6835 0.0
H515 H 0.71449 0.98373 0.69316 0.0
H516 H 0.49969 0.07324 0.62877 0.0
H517 H 0.56752 0.12347 0.66609 0.0
H518 H 0.43235 0.08906 0.64277 0.0
H519 H 0.49894 0.13861 0.67924 0.0
H520 H 0.64431 0.10593 0.60589 0.0
H521 H 0.74947 0.06414 0.6265 0.0
H522 H 0.69129 0.12475 0.57957 0.0
H523 H 0.79448 0.08339 0.59962 0.0
H524 H 0.73054 0.16102 0.66788 0.0
H525 H 0.63197 0.17623 0.6228 0.0
H526 H 0.50824 0.03146 0.57568 0.0
H527 H 0.63088 0.04899 0.55003 0.0
Li528 Li 0.39453 0.5617 0.86927 0.0
Li529 Li 0.36851 0.59806 0.8534 0.0
Li530 Li 0.3392 0.56008 0.84299 0.0
Li531 Li 0.41111 0.57168 0.83284 0.0
C532 C 0.29696 0.57168 0.87783 0.0
N533 N 0.21419 0.56408 0.88997 0.0
C534 C 0.26811 0.59015 0.87816 0.0
C535 C 0.28381 0.5494 0.88382 0.0
C536 C 0.22639 0.58594 0.88432 0.0
C537 C 0.24179 0.54589 0.88986 0.0
C538 C 0.44368 0.60808 0.86773 0.0
C539 C 0.46819 0.64779 0.86531 0.0
N540 N 0.47161 0.64861 0.88663 0.0
C541 C 0.44751 0.60928 0.88961 0.0
C542 C 0.45421 0.62743 0.85545 0.0
C543 C 0.46169 0.62994 0.89887 0.0
C544 C 0.46055 0.54334 0.89315 0.0
N545 N 0.4182 0.54736 0.89365 0.0
C546 C 0.41308 0.52988 0.92772 0.0
C547 C 0.39435 0.54113 0.91054 0.0
C548 C 0.45659 0.52488 0.92731 0.0
C549 C 0.48041 0.53191 0.90979 0.0
H550 H 0.47881 0.54883 0.87963 0.0
H551 H 0.3608 0.54474 0.91063 0.0
C552 C 0.33928 0.64294 0.84199 0.0
N553 N 0.35246 0.6297 0.85847 0.0
C554 C 0.32245 0.66514 0.84543 0.0
C555 C 0.3338 0.65987 0.88272 0.0
C556 C 0.35042 0.63777 0.87856 0.0
C557 C 0.31879 0.67372 0.86606 0.0
H558 H 0.34028 0.63594 0.82623 0.0
H559 H 0.36035 0.6267 0.89142 0.0
C560 C 0.40834 0.5211 0.85056 0.0
N561 N 0.44482 0.4807 0.86572 0.0
C562 C 0.45111 0.51652 0.84681 0.0
C563 C 0.38402 0.50503 0.86181 0.0
C564 C 0.46898 0.49601 0.85465 0.0
C565 C 0.40308 0.48474 0.86941 0.0
C566 C 0.36307 0.58974 0.80392 0.0
C567 C 0.34475 0.5745 0.78939 0.0
C568 C 0.38939 0.60768 0.79685 0.0
C569 C 0.35331 0.57739 0.76798 0.0
C570 C 0.39723 0.60996 0.77531 0.0
N571 N 0.3792 0.59489 0.76145 0.0
C572 C 0.25466 0.55886 0.83027 0.0
C573 C 0.29194 0.52381 0.82357 0.0
C574 C 0.22009 0.55091 0.81875 0.0
N575 N 0.2898 0.54544 0.83225 0.0
C576 C 0.25828 0.51531 0.8115 0.0
C577 C 0.22221 0.52927 0.80841 0.0
H578 H 0.25435 0.57631 0.83666 0.0
H579 H 0.3208 0.51379 0.82486 0.0
C580 C 0.48806 0.58084 0.8108 0.0
N581 N 0.45217 0.56784 0.81125 0.0
C582 C 0.51867 0.5768 0.79535 0.0
C583 C 0.47456 0.54618 0.78113 0.0
C584 C 0.4449 0.55081 0.79684 0.0
C585 C 0.51225 0.55912 0.78033 0.0
H586 H 0.49324 0.59406 0.82263 0.0
H587 H 0.41615 0.54063 0.79773 0.0
O588 O 0.33788 0.57541 0.87172 0.0
O589 O 0.42922 0.58815 0.85838 0.0
O590 O 0.3905 0.54133 0.84347 0.0
O591 O 0.35594 0.58687 0.825 0.0
H592 H 0.27767 0.60749 0.87351 0.0
H593 H 0.30571 0.53493 0.88366 0.0
H594 H 0.20367 0.60004 0.88455 0.0
H595 H 0.23113 0.52871 0.89443 0.0
H596 H 0.47623 0.66295 0.85601 0.0
H597 H 0.43926 0.59452 0.89936 0.0
H598 H 0.4512 0.62683 0.83851 0.0
H599 H 0.46467 0.63116 0.91579 0.0
H600 H 0.39363 0.52469 0.94094 0.0
H601 H 0.51414 0.52871 0.90901 0.0
H602 H 0.31066 0.675 0.83214 0.0
H603 H 0.33193 0.66584 0.89886 0.0
H604 H 0.47043 0.52882 0.83821 0.0
H605 H 0.35083 0.50827 0.86474 0.0
H606 H 0.50211 0.49231 0.852 0.0
H607 H 0.3847 0.47222 0.87826 0.0
H608 H 0.32442 0.56048 0.79455 0.0
H609 H 0.40406 0.61953 0.8079 0.0
H610 H 0.33949 0.56566 0.75656 0.0
H611 H 0.41777 0.62366 0.76963 0.0
H612 H 0.19273 0.56213 0.81719 0.0
H613 H 0.26166 0.49868 0.80364 0.0
H614 H 0.54751 0.58696 0.79552 0.0
H615 H 0.46805 0.5326 0.76976 0.0
Li616 Li 0.10979 0.93947 0.87193 0.0
Li617 Li 0.13092 0.90416 0.85368 0.0
Li618 Li 0.15782 0.94204 0.84183 0.0
Li619 Li 0.08262 0.93055 0.83501 0.0
C620 C 0.18892 0.92993 0.88715 0.0
N621 N 0.23122 0.93756 0.92456 0.0
C622 C 0.19637 0.91143 0.90098 0.0
C623 C 0.20329 0.95226 0.89226 0.0
C624 C 0.21774 0.91566 0.91984 0.0
C625 C 0.22451 0.95578 0.91127 0.0
C626 C 0.04564 0.89616 0.86673 0.0
C627 C 0.99322 0.86791 0.85631 0.0
N628 N 0.9903 0.86057 0.87661 0.0
C629 C 0.04199 0.88845 0.8875 0.0
C630 C 0.02095 0.88593 0.85099 0.0
C631 C 0.01388 0.87038 0.89217 0.0
C632 C 0.07373 0.97344 0.89903 0.0
N633 N 0.09407 0.95254 0.89844 0.0
C634 C 0.09332 0.95019 0.93598 0.0
C635 C 0.10299 0.94062 0.91638 0.0
C636 C 0.07309 0.97191 0.93708 0.0
C637 C 0.06261 0.98344 0.91833 0.0
H638 H 0.06629 0.98237 0.88451 0.0
H639 H 0.11771 0.92367 0.9155 0.0
C640 C 0.19164 0.86898 0.85775 0.0
N641 N 0.149 0.87229 0.85758 0.0
C642 C 0.20862 0.84672 0.86068 0.0
C643 C 0.13759 0.83153 0.86325 0.0
C644 C 0.12198 0.85401 0.85993 0.0
C645 C 0.18142 0.82771 0.86377 0.0
H646 H 0.21252 0.88374 0.85571 0.0
H647 H 0.08835 0.85666 0.85921 0.0
C648 C 0.11252 0.98267 0.84084 0.0
N649 N 0.1282 0.0278 0.82787 0.0
C650 C 0.09794 0.99036 0.82127 0.0
C651 C 0.13462 0.99799 0.85391 0.0
C652 C 0.10632 0.01323 0.81497 0.0
C653 C 0.14236 0.02072 0.84704 0.0
C654 C 0.15177 0.89744 0.81423 0.0
C655 C 0.195 0.89653 0.80973 0.0
C656 C 0.12594 0.87845 0.80927 0.0
C657 C 0.21177 0.8765 0.80041 0.0
C658 C 0.14395 0.85872 0.8 0.0
N659 N 0.18613 0.85816 0.7958 0.0
C660 C 0.2435 0.9558 0.83829 0.0
C661 C 0.19906 0.96831 0.81046 0.0
C662 C 0.27896 0.96484 0.82805 0.0
N663 N 0.2046 0.95759 0.82934 0.0
C664 C 0.23357 0.97782 0.79978 0.0
C665 C 0.27427 0.97575 0.8084 0.0
H666 H 0.24727 0.9466 0.853 0.0
H667 H 0.16808 0.96868 0.8033 0.0
C668 C 0.00402 0.94809 0.82117 0.0
N669 N 0.03751 0.9345 0.81576 0.0
C670 C 0.97228 0.95285 0.80648 0.0
C671 C 0.0098 0.92915 0.78114 0.0
C672 C 0.04093 0.92501 0.79625 0.0
C673 C 0.97511 0.94342 0.78611 0.0
H674 H 0.00247 0.9556 0.83677 0.0
H675 H 0.06833 0.91465 0.79226 0.0
O676 O 0.16794 0.92614 0.86865 0.0
O677 O 0.07252 0.91401 0.8619 0.0
O678 O 0.10461 0.96035 0.84727 0.0
O679 O 0.13498 0.91662 0.82388 0.0
H680 H 0.18532 0.89406 0.89732 0.0
H681 H 0.19818 0.96669 0.88163 0.0
H682 H 0.22353 0.90154 0.93074 0.0
H683 H 0.2357 0.97298 0.91545 0.0
H684 H 0.97404 0.85975 0.84429 0.0
H685 H 0.06074 0.89628 0.89986 0.0
H686 H 0.02337 0.89172 0.83484 0.0
H687 H 0.0108 0.86416 0.90816 0.0
H688 H 0.10132 0.94066 0.95015 0.0
H689 H 0.04693 1.00023 0.91863 0.0
H690 H 0.24263 0.8445 0.86104 0.0
H691 H 0.11557 0.81723 0.86524 0.0
H692 H 0.08068 0.97873 0.81098 0.0
H693 H 0.1455 0.99243 0.86923 0.0
H694 H 0.09546 0.01938 0.79982 0.0
H695 H 0.15953 0.03276 0.85698 0.0
H696 H 0.21544 0.91105 0.81355 0.0
H697 H 0.09248 0.87881 0.81286 0.0
H698 H 0.24521 0.87551 0.7969 0.0
H699 H 0.12442 0.84382 0.79622 0.0
H700 H 0.30985 0.96287 0.83521 0.0
H701 H 0.22875 0.98566 0.78446 0.0
H702 H 0.94589 0.96381 0.81099 0.0
H703 H 0.01352 0.92183 0.76554 0.0
H704 H 0.28768 0.50961 0.26785 0.0
H705 H 0.30932 0.46747 0.32361 0.0
H706 H 0.36644 0.44654 0.30507 0.0
H707 H 0.30509 0.46288 0.22989 0.0
H708 H 0.33042 0.48192 0.21118 0.0
H709 H 0.29072 0.49327 0.22876 0.0
H710 H 0.34365 0.52446 0.24204 0.0
H711 H 0.3835 0.51321 0.22455 0.0
H712 H 0.39417 0.51538 0.25234 0.0
H713 H 0.4238 0.43166 0.28101 0.0
H714 H 0.47566 0.42324 0.25282 0.0
H715 H 0.41364 0.4735 0.2123 0.0
C716 C 0.30376 0.49569 0.2761 0.0
C717 C 0.29385 0.49026 0.29726 0.0
C718 C 0.31661 0.47225 0.30753 0.0
C719 C 0.34892 0.46011 0.29707 0.0
C720 C 0.35788 0.46601 0.27628 0.0
C721 C 0.33575 0.48326 0.26586 0.0
C722 C 0.35202 0.48656 0.24364 0.0
C723 C 0.3175 0.48081 0.22741 0.0
C724 C 0.36937 0.51137 0.24047 0.0
C725 C 0.38712 0.46863 0.24325 0.0
C726 C 0.39006 0.45699 0.26224 0.0
C727 C 0.42148 0.44047 0.266 0.0
C728 C 0.4508 0.43584 0.24996 0.0
C729 C 0.44825 0.44756 0.2304 0.0
C730 C 0.41572 0.46397 0.22698 0.0
H731 H 0.05163 0.00943 0.22721 0.0
H732 H 0.03632 0.07881 0.25335 0.0
H733 H 0.08613 0.06886 0.28194 0.0
H734 H 0.05802 0.9788 0.27702 0.0
H735 H 0.09718 0.95842 0.26772 0.0
H736 H 0.05966 0.97087 0.24959 0.0
H737 H 0.12119 0.98581 0.22624 0.0
H738 H 0.15885 0.97333 0.24424 0.0
H739 H 0.16169 0.00388 0.23775 0.0
H740 H 0.13822 0.05139 0.30745 0.0
H741 H 0.19054 0.02819 0.32731 0.0
H742 H 0.17192 0.97039 0.28419 0.0
C743 C 0.05837 0.02245 0.23907 0.0
C744 C 0.04006 0.0449 0.23805 0.0
C745 C 0.05033 0.06159 0.25368 0.0
C746 C 0.07832 0.05604 0.27006 0.0
C747 C 0.09574 0.03374 0.2706 0.0
C748 C 0.08624 0.01723 0.25549 0.0
C749 C 0.1101 0.99474 0.25932 0.0
C750 C 0.0794 0.97452 0.26367 0.0
C751 C 0.13971 0.98912 0.24079 0.0
C752 C 0.13477 0.00123 0.27887 0.0
C753 C 0.12587 0.02374 0.2852 0.0
C754 C 0.14542 0.03374 0.30264 0.0
C755 C 0.17523 0.02046 0.31376 0.0
C756 C 0.18537 0.99745 0.30734 0.0
C757 C 0.16442 0.98775 0.28975 0.0
H758 H 0.84614 0.49731 0.19591 0.0
H759 H 0.73176 0.5286 0.22109 0.0
H760 H 0.77418 0.54966 0.24745 0.0
H761 H 0.89541 0.4874 0.24482 0.0
H762 H 0.94815 0.49396 0.23582 0.0
H763 H 0.90939 0.483 0.2176 0.0
H764 H 0.92129 0.51886 0.19353 0.0
H765 H 0.96019 0.52994 0.21168 0.0
H766 H 0.91567 0.54777 0.20429 0.0
H767 H 0.82778 0.56453 0.27308 0.0
H768 H 0.88978 0.5733 0.29544 0.0
H769 H 0.96944 0.5326 0.25375 0.0
C770 C 0.83005 0.50875 0.20684 0.0
C771 C 0.78559 0.51143 0.20627 0.0
C772 C 0.76582 0.52661 0.22088 0.0
C773 C 0.78962 0.53856 0.23602 0.0
C774 C 0.83324 0.53527 0.23633 0.0
C775 C 0.85336 0.52088 0.22205 0.0
C776 C 0.90044 0.51963 0.22639 0.0
C777 C 0.91413 0.49451 0.23146 0.0
C778 C 0.92589 0.52965 0.20787 0.0
C779 C 0.90345 0.53519 0.24559 0.0
C780 C 0.86432 0.54408 0.25103 0.0
C781 C 0.85868 0.55791 0.26884 0.0
C782 C 0.89396 0.5627 0.28149 0.0
C783 C 0.93432 0.55376 0.27621 0.0
C784 C 0.93907 0.54002 0.25791 0.0
H785 H 0.68516 0.98245 0.19954 0.0
H786 H 0.67828 0.0551 0.21861 0.0
H787 H 0.62193 0.04546 0.2437 0.0
H788 H 0.57378 0.96999 0.20339 0.0
H789 H 0.58099 0.94114 0.21403 0.0
H790 H 0.62071 0.95356 0.19708 0.0
H791 H 0.67747 0.94681 0.22583 0.0
H792 H 0.63791 0.93439 0.24288 0.0
H793 H 0.66938 0.95865 0.2518 0.0
H794 H 0.56703 0.02868 0.26662 0.0
H795 H 0.51584 0.00523 0.28665 0.0
H796 H 0.55787 0.94287 0.25404 0.0
C797 C 0.67186 0.9963 0.20904 0.0
C798 C 0.68577 0.01963 0.20676 0.0
C799 C 0.66747 0.03723 0.21954 0.0
C800 C 0.63566 0.03191 0.23403 0.0
C801 C 0.62257 0.00886 0.23577 0.0
C802 C 0.64003 0.99128 0.22374 0.0
C803 C 0.62007 0.96792 0.22902 0.0
C804 C 0.59755 0.95755 0.20973 0.0
C805 C 0.65319 0.95094 0.23791 0.0
C806 C 0.58861 0.97525 0.24581 0.0
C807 C 0.59076 0.99898 0.24938 0.0
C808 C 0.56488 0.01009 0.26395 0.0
C809 C 0.53572 0.99663 0.27514 0.0
C810 C 0.53253 0.97228 0.27173 0.0
C811 C 0.55968 0.96144 0.25698 0.0
H812 H 0.53818 0.51599 0.76673 0.0
H813 H 0.56125 0.58995 0.75799 0.0
H814 H 0.61783 0.58078 0.73247 0.0
H815 H 0.64476 0.49792 0.76462 0.0
H816 H 0.6341 0.47127 0.75056 0.0
H817 H 0.5942 0.48371 0.76735 0.0
H818 H 0.54144 0.48433 0.73615 0.0
H819 H 0.58123 0.47188 0.71923 0.0
H820 H 0.55595 0.4989 0.71207 0.0
H821 H 0.67393 0.56347 0.70913 0.0
H822 H 0.72562 0.5393 0.68975 0.0
H823 H 0.66485 0.47671 0.71328 0.0
C824 C 0.55456 0.5303 0.75918 0.0
C825 C 0.54518 0.55372 0.76435 0.0
C826 C 0.56814 0.57188 0.75445 0.0
C827 C 0.60012 0.56685 0.73983 0.0
C828 C 0.60864 0.54357 0.7352 0.0
C829 C 0.58646 0.5256 0.74454 0.0
C830 C 0.60275 0.50206 0.73739 0.0
C831 C 0.61998 0.48792 0.75609 0.0
C832 C 0.56828 0.4885 0.7255 0.0
C833 C 0.63794 0.50959 0.72274 0.0
C834 C 0.64073 0.53361 0.72164 0.0
C835 C 0.67186 0.54466 0.70976 0.0
C836 C 0.70116 0.5308 0.69889 0.0
C837 C 0.69912 0.50615 0.69996 0.0
C838 C 0.66673 0.4955 0.71187 0.0
H839 H 0.81812 0.02478 0.72038 0.0
H840 H 0.78224 0.96333 0.68482 0.0
H841 H 0.83274 0.93971 0.70547 0.0
H842 H 0.93002 0.01055 0.72551 0.0
H843 H 0.93353 0.02191 0.75189 0.0
H844 H 0.89592 0.03407 0.73365 0.0
H845 H 0.83542 0.02584 0.76015 0.0
H846 H 0.87277 0.01347 0.77839 0.0
H847 H 0.82779 0.99662 0.76989 0.0
H848 H 0.88587 0.92266 0.73049 0.0
H849 H 0.93824 0.91336 0.75811 0.0
H850 H 0.93922 0.98591 0.77744 0.0
C851 C 0.82143 0.00643 0.71671 0.0
C852 C 0.79639 0.99587 0.70096 0.0
C853 C 0.80097 0.97172 0.69691 0.0
C854 C 0.82963 0.95819 0.7085 0.0
C855 C 0.85339 0.96908 0.72412 0.0
C856 C 0.84969 0.99265 0.72822 0.0
C857 C 0.87806 0.99992 0.74627 0.0
C858 C 0.91136 0.01766 0.73888 0.0
C859 C 0.85194 0.00953 0.76477 0.0
C860 C 0.89812 0.97673 0.75174 0.0
C861 C 0.88361 0.95919 0.73872 0.0
C862 C 0.89759 0.93627 0.74073 0.0
C863 C 0.92741 0.93117 0.75641 0.0
C864 C 0.94276 0.94889 0.76993 0.0
C865 C 0.92769 0.97194 0.76752 0.0
H866 H 0.19 0.4853 0.79957 0.0
H867 H 0.18055 0.55811 0.78119 0.0
H868 H 0.12735 0.54784 0.7547 0.0
H869 H 0.18275 0.46243 0.74705 0.0
H870 H 0.15202 0.43726 0.75442 0.0
H871 H 0.18791 0.45022 0.77306 0.0
H872 H 0.12656 0.455 0.79974 0.0
H873 H 0.09048 0.44204 0.78117 0.0
H874 H 0.07943 0.47045 0.79197 0.0
H875 H 0.07643 0.53038 0.73004 0.0
H876 H 0.03067 0.5063 0.7077 0.0
H877 H 0.07481 0.44402 0.73985 0.0
C878 C 0.17672 0.49909 0.79 0.0
C879 C 0.18908 0.52263 0.79286 0.0
C880 C 0.17084 0.54008 0.7799 0.0
C881 C 0.1408 0.53441 0.76461 0.0
C882 C 0.12939 0.51116 0.76224 0.0
C883 C 0.14673 0.49372 0.77447 0.0
C884 C 0.12951 0.47003 0.76809 0.0
C885 C 0.16518 0.45405 0.76018 0.0
C886 C 0.10504 0.45872 0.78633 0.0
C887 C 0.10002 0.477 0.75032 0.0
C888 C 0.10047 0.50085 0.74736 0.0
C889 C 0.076 0.51166 0.73205 0.0
C890 C 0.05038 0.49774 0.71929 0.0
C891 C 0.04959 0.47316 0.72169 0.0
C892 C 0.07464 0.46272 0.73758 0.0
H893 H 0.28614 0.01663 0.78645 0.0
H894 H 0.34668 0.95099 0.80213 0.0
H895 H 0.40744 0.96141 0.7797 0.0
H896 H 0.31644 0.01819 0.73299 0.0
H897 H 0.3259 0.04916 0.73212 0.0
H898 H 0.28822 0.0374 0.75052 0.0
H899 H 0.32831 0.05705 0.78132 0.0
H900 H 0.36607 0.06896 0.76299 0.0
H901 H 0.38398 0.05143 0.78478 0.0
H902 H 0.45838 0.97709 0.7536 0.0
H903 H 0.49906 0.99832 0.72657 0.0
H904 H 0.40749 0.05459 0.7282 0.0
C905 C 0.31241 0.00459 0.78528 0.0
C906 C 0.31188 0.98306 0.79613 0.0
C907 C 0.34677 0.96773 0.79424 0.0
C908 C 0.38131 0.97343 0.78146 0.0
C909 C 0.38069 0.99465 0.77083 0.0
C910 C 0.34744 0.01013 0.77274 0.0
C911 C 0.35448 0.03157 0.7592 0.0
C912 C 0.31916 0.03422 0.74273 0.0
C913 C 0.35845 0.05355 0.7729 0.0
C914 C 0.39635 0.0254 0.74899 0.0
C915 C 0.41082 0.00401 0.75598 0.0
C916 C 0.44767 0.99397 0.74817 0.0
C917 C 0.47039 0.00607 0.73277 0.0
C918 C 0.45632 0.02802 0.72539 0.0
C919 C 0.41906 0.03793 0.73378 0.0
H920 H 0.03119 0.49561 0.45313 0.0
H921 H 0.04961 0.56823 0.47022 0.0
H922 H 0.02042 0.56026 0.50542 0.0
H923 H 0.93116 0.48857 0.48029 0.0
H924 H 0.94225 0.45909 0.48841 0.0
H925 H 0.96507 0.47034 0.4645 0.0
H926 H 0.03999 0.45993 0.47809 0.0
H927 H 0.01742 0.44865 0.50202 0.0
H928 H 0.05731 0.47105 0.50318 0.0
H929 H 0.99061 0.5445 0.53893 0.0
H930 H 0.96083 0.52193 0.56852 0.0
H931 H 0.95884 0.45987 0.52952 0.0
C932 C 0.02875 0.50991 0.46417 0.0
C933 C 0.04315 0.53254 0.45886 0.0
C934 C 0.03973 0.55064 0.47397 0.0
C935 C 0.02283 0.54635 0.49398 0.0
C936 C 0.00912 0.52389 0.49868 0.0
C937 C 0.0117 0.50597 0.48422 0.0
C938 C 0.99469 0.48341 0.49334 0.0
C939 C 0.95599 0.47485 0.48089 0.0
C940 C 0.02943 0.46466 0.49421 0.0
C941 C 0.98231 0.49145 0.51521 0.0
C942 C 0.99105 0.51486 0.51795 0.0
C943 C 0.98349 0.52618 0.53697 0.0
C944 C 0.96675 0.51321 0.55369 0.0
C945 C 0.95755 0.4892 0.55128 0.0
C946 C 0.96514 0.47827 0.53171 0.0
H947 H 0.44751 0.96381 0.47229 0.0
H948 H 0.49332 0.01354 0.42619 0.0
H949 H 0.52716 0.03636 0.45451 0.0
H950 H 0.4258 0.00558 0.51404 0.0
H951 H 0.44368 0.9864 0.53467 0.0
H952 H 0.4216 0.97443 0.51087 0.0
H953 H 0.48953 0.94993 0.50526 0.0
H954 H 0.51185 0.96187 0.529 0.0
H955 H 0.54018 0.96435 0.50448 0.0
H956 H 0.55735 0.05324 0.48749 0.0
H957 H 0.58203 0.06325 0.52319 0.0
H958 H 0.51798 0.00222 0.54801 0.0
C959 C 0.46427 0.97965 0.46824 0.0
C960 C 0.46794 0.98693 0.44708 0.0
C961 C 0.49056 0.00757 0.44231 0.0
C962 C 0.50969 0.02069 0.45827 0.0
C963 C 0.50601 0.0129 0.47894 0.0
C964 C 0.48389 0.99288 0.484 0.0
C965 C 0.48598 0.98802 0.50743 0.0
C966 C 0.44162 0.98865 0.51733 0.0
C967 C 0.50822 0.96466 0.51179 0.0
C968 C 0.51267 0.00843 0.5147 0.0
C969 C 0.52381 0.02257 0.49801 0.0
C970 C 0.54888 0.0423 0.5007 0.0
C971 C 0.56299 0.04775 0.52102 0.0
C972 C 0.5521 0.0335 0.53841 0.0
C973 C 0.52648 0.01361 0.53511 0.0
H974 H 0.51792 0.49764 0.0469 0.0
H975 H 0.59847 0.44216 0.02326 0.0
H976 H 0.57712 0.4518 0.98699 0.0
H977 H 0.4325 0.48856 0.00999 0.0
H978 H 0.42088 0.51918 0.00737 0.0
H979 H 0.44292 0.50817 0.03154 0.0
H980 H 0.50473 0.53765 0.02865 0.0
H981 H 0.48288 0.54876 0.00448 0.0
H982 H 0.53656 0.5382 0.00511 0.0
H983 H 0.54774 0.4676 0.95327 0.0
H984 H 0.51156 0.48834 0.92434 0.0
H985 H 0.44832 0.53272 0.96981 0.0
C986 C 0.53081 0.48735 0.03414 0.0
C987 C 0.56013 0.46919 0.03801 0.0
C988 C 0.5766 0.45642 0.02075 0.0
C989 C 0.56441 0.46164 1.00007 0.0
C990 C 0.53553 0.47961 0.99685 0.0
C991 C 0.51884 0.49225 0.01339 0.0
C992 C 0.48833 0.51072 0.00559 0.0
C993 C 0.4435 0.50639 0.01413 0.0
C994 C 0.50408 0.53529 0.0113 0.0
C995 C 0.49052 0.50649 0.98208 0.0
C996 C 0.51805 0.48851 0.97739 0.0
C997 C 0.52606 0.48168 0.95674 0.0
C998 C 0.50553 0.49362 0.94043 0.0
C999 C 0.47719 0.51211 0.94485 0.0
C1000 C 0.46946 0.51848 0.96599 0.0
H1001 H 0.99678 0.9874 0.95226 0.0
H1002 H 0.12931 0.98013 0.9685 0.0
H1003 H 0.11515 0.9972 0.00352 0.0
H1004 H 0.97704 0.04188 0.9801 0.0
H1005 H 0.92517 0.03326 0.98894 0.0
H1006 H 0.94601 0.02184 0.96464 0.0
H1007 H 0.93426 0.97973 0.97816 0.0
H1008 H 0.91334 0.99102 0.00247 0.0
H1009 H 0.95725 0.97099 0.00289 0.0
H1010 H 0.08693 0.01457 0.03655 0.0
H1011 H 0.0459 0.0291 0.06671 0.0
H1012 H 0.93029 0.02313 0.03017 0.0
C1013 C 0.02277 0.9897 0.96317 0.0
C1014 C 0.06419 0.98265 0.95776 0.0
C1015 C 0.0974 0.98544 0.97245 0.0
C1016 C 0.08968 0.99518 0.9923 0.0
C1017 C 0.04848 0.00183 0.99724 0.0
C1018 C 0.01546 0.99907 0.98321 0.0
C1019 C 0.97379 0.00647 0.993 0.0
C1020 C 0.95437 0.02709 0.98095 0.0
C1021 C 0.94285 0.98582 0.9942 0.0
C1022 C 0.9886 0.01379 0.01472 0.0
C1023 C 0.03185 0.01114 0.0167 0.0
C1024 C 0.053 0.01658 0.03525 0.0
C1025 C 0.02929 0.02466 0.05236 0.0
C1026 C 0.9847 0.02699 0.05098 0.0
C1027 C 0.96429 0.02171 0.03174 0.0
H1028 H 0.22594 0.69904 0.33171 0.0
H1029 H 0.19898 0.68916 0.39812 0.0
H1030 H 0.22759 0.72825 0.40569 0.0
H1031 H 0.32504 0.72928 0.33897 0.0
H1032 H 0.31668 0.74875 0.3171 0.0
H1033 H 0.29356 0.72005 0.31684 0.0
H1034 H 0.21937 0.7382 0.31112 0.0
H1035 H 0.24225 0.76694 0.31138 0.0
H1036 H 0.20011 0.75979 0.32936 0.0
H1037 H 0.25903 0.76842 0.40609 0.0
H1038 H 0.29042 0.80702 0.39926 0.0
H1039 H 0.29948 0.79024 0.33277 0.0
C1040 C 0.22632 0.70499 0.34788 0.0
C1041 C 0.20996 0.69099 0.3643 0.0
C1042 C 0.21062 0.69965 0.3852 0.0
C1043 C 0.22711 0.72179 0.38969 0.0
C1044 C 0.24297 0.73508 0.37314 0.0
C1045 C 0.24275 0.72703 0.35266 0.0
C1046 C 0.26169 0.74483 0.33776 0.0
C1047 C 0.30161 0.73515 0.32704 0.0
C1048 C 0.22889 0.75292 0.32145 0.0
C1049 C 0.27248 0.76417 0.35308 0.0
C1050 C 0.26148 0.75817 0.37341 0.0
C1051 C 0.26803 0.77326 0.39026 0.0
C1052 C 0.2862 0.79511 0.38622 0.0
C1053 C 0.29773 0.8017 0.3655 0.0
C1054 C 0.29076 0.78588 0.34877 0.0
H1055 H 0.80383 0.20973 0.12342 0.0
H1056 H 0.76442 0.18632 0.18539 0.0
H1057 H 0.72761 0.22352 0.19112 0.0
H1058 H 0.82319 0.26857 0.13708 0.0
H1059 H 0.80263 0.28079 0.11304 0.0
H1060 H 0.82445 0.2518 0.1131 0.0
H1061 H 0.75447 0.23558 0.09778 0.0
H1062 H 0.73245 0.26456 0.09761 0.0
H1063 H 0.70533 0.24138 0.11119 0.0
H1064 H 0.69955 0.26374 0.19152 0.0
H1065 H 0.67889 0.30476 0.18578 0.0
H1066 H 0.73269 0.30237 0.12305 0.0
C1067 C 0.78694 0.21232 0.13805 0.0
C1068 C 0.78759 0.19518 0.15407 0.0
C1069 C 0.7653 0.19935 0.17307 0.0
C1070 C 0.74393 0.22037 0.17643 0.0
C1071 C 0.74461 0.23704 0.16056 0.0
C1072 C 0.76514 0.23328 0.14166 0.0
C1073 C 0.76163 0.2545 0.12749 0.0
C1074 C 0.80559 0.2645 0.12238 0.0
C1075 C 0.737 0.24865 0.10732 0.0
C1076 C 0.73663 0.27084 0.14158 0.0
C1077 C 0.72718 0.26031 0.16057 0.0
C1078 C 0.70628 0.27212 0.17664 0.0
C1079 C 0.69484 0.29539 0.17329 0.0
C1080 C 0.70406 0.30656 0.15398 0.0
C1081 C 0.72481 0.29405 0.13783 0.0
H1082 H 0.71219 0.20425 0.67358 0.0
H1083 H 0.69894 0.19155 0.6066 0.0
H1084 H 0.7313 0.22981 0.59907 0.0
H1085 H 0.68723 0.26546 0.67165 0.0
H1086 H 0.72487 0.27348 0.69168 0.0
H1087 H 0.70143 0.24487 0.69188 0.0
H1088 H 0.77604 0.22618 0.69151 0.0
H1089 H 0.79972 0.25474 0.6913 0.0
H1090 H 0.81285 0.234 0.67103 0.0
H1091 H 0.76608 0.26897 0.5987 0.0
H1092 H 0.79782 0.30757 0.60555 0.0
H1093 H 0.78708 0.29564 0.67275 0.0
C1094 C 0.71631 0.20952 0.65735 0.0
C1095 C 0.70297 0.19497 0.64066 0.0
C1096 C 0.70849 0.20254 0.61962 0.0
C1097 C 0.72705 0.22417 0.61519 0.0
C1098 C 0.73976 0.23812 0.63197 0.0
C1099 C 0.73443 0.23121 0.65263 0.0
C1100 C 0.75004 0.24981 0.66771 0.0
C1101 C 0.71372 0.25894 0.68155 0.0
C1102 C 0.78685 0.24063 0.68118 0.0
C1103 C 0.76494 0.26823 0.65229 0.0
C1104 C 0.75902 0.26101 0.63175 0.0
C1105 C 0.77084 0.27483 0.61471 0.0
C1106 C 0.78903 0.29666 0.61875 0.0
C1107 C 0.79494 0.30457 0.63966 0.0
C1108 C 0.78264 0.29011 0.65661 0.0
H1109 H 0.32456 0.71484 0.84372 0.0
H1110 H 0.26212 0.68324 0.89748 0.0
H1111 H 0.22205 0.71954 0.90332 0.0
H1112 H 0.33245 0.7734 0.86535 0.0
H1113 H 0.32191 0.78738 0.8405 0.0
H1114 H 0.34727 0.75926 0.84111 0.0
H1115 H 0.28895 0.74258 0.81675 0.0
H1116 H 0.26335 0.77061 0.81612 0.0
H1117 H 0.23424 0.74521 0.8244 0.0
H1118 H 0.18547 0.75826 0.90208 0.0
H1119 H 0.15751 0.7977 0.89486 0.0
H1120 H 0.24378 0.80444 0.84213 0.0
C1121 C 0.30257 0.71557 0.85677 0.0
C1122 C 0.29673 0.69618 0.87022 0.0
C1123 C 0.26778 0.69795 0.88718 0.0
C1124 C 0.2446 0.71846 0.89055 0.0
C1125 C 0.25079 0.73711 0.87687 0.0
C1126 C 0.27925 0.73595 0.8604 0.0
C1127 C 0.27932 0.75839 0.84779 0.0
C1128 C 0.32283 0.77031 0.84876 0.0
C1129 C 0.26564 0.75392 0.82491 0.0
C1130 C 0.24622 0.77227 0.85966 0.0
C1131 C 0.23006 0.75962 0.87633 0.0
C1132 C 0.19807 0.7684 0.88916 0.0
C1133 C 0.18224 0.79073 0.88488 0.0
C1134 C 0.19856 0.80409 0.868 0.0
C1135 C 0.2311 0.79471 0.8553 0.0
loop_
_geom_bond_atom_site_label_1
_geom_bond_atom_site_label_2
_geom_bond_distance
_geom_bond_site_symmetry_2
_ccdc_geom_bond_type
Li0 N17 1.990 . S
Li0 O60 1.956 . S
Li0 O61 1.970 . S
Li0 O62 1.961 . S
Li1 N25 1.990 . S
Li1 O60 1.970 . S
Li1 O61 1.956 . S
Li1 O63 1.961 . S
Li2 N47 1.990 . S
Li2 O60 1.961 . S
Li2 O62 1.956 . S
Li2 O63 1.970 . S
Li3 N53 1.990 . S
Li3 O61 1.961 . S
Li3 O62 1.970 . S
Li3 O63 1.956 . S
C4 C6 1.348 . S
C4 C7 1.356 . S
C4 O60 1.325 . S
N5 C8 1.314 . S
N5 C9 1.279 . S
C6 C4 1.348 . S
C6 C8 1.353 1_455 S
C6 H64 0.929 . S
C7 C4 1.356 . S
C7 C9 1.358 1_455 S
C7 H65 0.930 . S
C8 N5 1.314 . S
C8 C6 1.353 1_655 S
C8 H66 0.930 . S
C9 N5 1.279 . S
C9 C7 1.358 1_655 S
C9 H67 0.930 . S
C10 C13 1.348 . S
C10 C14 1.356 . S
C10 O61 1.325 . S
C11 N12 1.279 . S
C11 C14 1.358 . S
C11 H68 0.930 . S
N12 C11 1.279 . S
N12 C15 1.314 . S
C13 C10 1.348 . S
C13 C15 1.353 . S
C13 H69 0.929 . S
C14 C10 1.356 . S
C14 C11 1.358 . S
C14 H70 0.930 . S
C15 N12 1.314 . S
C15 C13 1.353 . S
C15 H71 0.930 . S
C16 N17 1.314 . S
C16 C21 1.353 . S
C16 H22 0.930 . S
N17 Li0 1.990 . S
N17 C16 1.314 . S
N17 C19 1.279 1_455 S
C18 C19 1.358 . S
C18 C20 1.356 . S
C18 H72 0.930 . S
C19 N17 1.279 1_655 S
C19 C18 1.358 . S
C19 H23 0.930 . S
C20 C18 1.356 . S
C20 C21 1.348 1_655 S
C21 C16 1.353 . S
C21 C20 1.348 1_455 S
C21 H73 0.929 . S
H22 C16 0.930 . S
H23 C19 0.930 . S
C24 N25 1.314 . S
C24 C26 1.353 . S
C24 H30 0.930 . S
N25 Li1 1.990 . S
N25 C24 1.314 . S
N25 C28 1.279 . S
C26 C24 1.353 . S
C26 C29 1.348 . S
C26 H74 0.929 . S
C27 C28 1.358 . S
C27 C29 1.356 . S
C27 H75 0.930 . S
C28 N25 1.279 . S
C28 C27 1.358 . S
C28 H31 0.930 . S
C29 C26 1.348 . S
C29 C27 1.356 . S
H30 C24 0.930 . S
H31 C28 0.930 . S
C32 C34 1.348 . S
C32 C35 1.356 . S
C32 O62 1.325 . S
N33 C36 1.314 . S
N33 C37 1.279 . S
C34 C32 1.348 . S
C34 C36 1.353 . S
C34 H76 0.929 . S
C35 C32 1.356 . S
C35 C37 1.358 . S
C35 H77 0.930 . S
C36 N33 1.314 . S
C36 C34 1.353 . S
C36 H78 0.930 . S
C37 N33 1.279 . S
C37 C35 1.358 . S
C37 H79 0.930 . S
C38 C39 1.348 . S
C38 C40 1.356 . S
C38 O63 1.325 . S
C39 C38 1.348 . S
C39 C41 1.353 . S
C39 H80 0.929 . S
C40 C38 1.356 . S
C40 C42 1.358 . S
C40 H81 0.930 . S
C41 C39 1.353 . S
C41 N43 1.314 . S
C41 H82 0.930 . S
C42 C40 1.358 . S
C42 N43 1.279 . S
C42 H83 0.930 . S
N43 C41 1.314 . S
N43 C42 1.279 . S
C44 C46 1.353 . S
C44 N47 1.314 . S
C44 H50 0.930 . S
C45 N47 1.279 . S
C45 C48 1.358 . S
C45 H51 0.930 . S
C46 C44 1.353 . S
C46 C49 1.348 . S
C46 H84 0.929 . S
N47 Li2 1.990 . S
N47 C44 1.314 . S
N47 C45 1.279 . S
C48 C45 1.358 . S
C48 C49 1.356 . S
C48 H85 0.930 . S
C49 C46 1.348 . S
C49 C48 1.356 . S
H50 C44 0.930 . S
H51 C45 0.930 . S
C52 N53 1.314 . S
C52 C54 1.353 . S
C52 H58 0.930 . S
N53 Li3 1.990 . S
N53 C52 1.314 . S
N53 C56 1.279 . S
C54 C52 1.353 . S
C54 C57 1.348 . S
C54 H86 0.929 . S
C55 C56 1.358 . S
C55 C57 1.356 . S
C55 H87 0.930 . S
C56 N53 1.279 . S
C56 C55 1.358 . S
C56 H59 0.930 . S
C57 C54 1.348 . S
C57 C55 1.356 . S
H58 C52 0.930 . S
H59 C56 0.930 . S
O60 Li0 1.956 . S
O60 Li1 1.970 . S
O60 Li2 1.961 . S
O60 C4 1.325 . S
O61 Li0 1.970 . S
O61 Li1 1.956 . S
O61 Li3 1.961 . S
O61 C10 1.325 . S
O62 Li0 1.961 . S
O62 Li2 1.956 . S
O62 Li3 1.970 . S
O62 C32 1.325 . S
O63 Li1 1.961 . S
O63 Li2 1.970 . S
O63 Li3 1.956 . S
O63 C38 1.325 . S
H64 C6 0.929 . S
H65 C7 0.930 . S
H66 C8 0.930 . S
H67 C9 0.930 . S
H68 C11 0.930 . S
H69 C13 0.929 . S
H70 C14 0.930 . S
H71 C15 0.930 . S
H72 C18 0.930 . S
H73 C21 0.929 . S
H74 C26 0.929 . S
H75 C27 0.930 . S
H76 C34 0.929 . S
H77 C35 0.930 . S
H78 C36 0.930 . S
H79 C37 0.930 . S
H80 C39 0.929 . S
H81 C40 0.930 . S
H82 C41 0.930 . S
H83 C42 0.930 . S
H84 C46 0.929 . S
H85 C48 0.930 . S
H86 C54 0.929 . S
H87 C55 0.930 . S
Li88 N105 1.990 . S
Li88 O148 1.956 . S
Li88 O149 1.970 . S
Li88 O150 1.961 . S
Li89 N113 1.990 . S
Li89 O148 1.970 . S
Li89 O149 1.956 . S
Li89 O151 1.961 . S
Li90 N135 1.990 . S
Li90 O148 1.961 . S
Li90 O150 1.956 . S
Li90 O151 1.970 . S
Li91 N141 1.990 . S
Li91 O149 1.961 . S
Li91 O150 1.970 . S
Li91 O151 1.956 . S
C92 C94 1.348 . S
C92 C95 1.356 . S
C92 O148 1.325 . S
N93 C96 1.314 . S
N93 C97 1.279 . S
C94 C92 1.348 . S
C94 C96 1.353 . S
C94 H152 0.929 . S
C95 C92 1.356 . S
C95 C97 1.358 . S
C95 H153 0.930 . S
C96 N93 1.314 . S
C96 C94 1.353 . S
C96 H154 0.930 . S
C97 N93 1.279 . S
C97 C95 1.358 . S
C97 H155 0.930 . S
C98 C101 1.348 . S
C98 C102 1.356 . S
C98 O149 1.325 . S
C99 N100 1.279 . S
C99 C102 1.358 . S
C99 H156 0.930 . S
N100 C99 1.279 . S
N100 C103 1.314 . S
C101 C98 1.348 . S
C101 C103 1.353 . S
C101 H157 0.929 . S
C102 C98 1.356 . S
C102 C99 1.358 . S
C102 H158 0.930 . S
C103 N100 1.314 . S
C103 C101 1.353 . S
C103 H159 0.930 . S
C104 N105 1.314 . S
C104 C109 1.353 . S
C104 H110 0.930 . S
N105 Li88 1.990 . S
N105 C104 1.314 . S
N105 C107 1.279 . S
C106 C107 1.358 . S
C106 C108 1.356 . S
C106 H160 0.930 . S
C107 N105 1.279 . S
C107 C106 1.358 . S
C107 H111 0.930 . S
C108 C106 1.356 . S
C108 C109 1.348 . S
C109 C104 1.353 . S
C109 C108 1.348 . S
C109 H161 0.929 1_565 S
H110 C104 0.930 . S
H111 C107 0.930 . S
C112 N113 1.314 . S
C112 C114 1.353 . S
C112 H118 0.930 . S
N113 Li89 1.990 . S
N113 C112 1.314 . S
N113 C116 1.279 . S
C114 C112 1.353 . S
C114 C117 1.348 . S
C114 H162 0.929 . S
C115 C116 1.358 . S
C115 C117 1.356 . S
C115 H163 0.930 . S
C116 N113 1.279 . S
C116 C115 1.358 . S
C116 H119 0.930 . S
C117 C114 1.348 . S
C117 C115 1.356 . S
H118 C112 0.930 . S
H119 C116 0.930 . S
C120 C122 1.348 . S
C120 C123 1.356 1_565 S
C120 O150 1.325 . S
N121 C124 1.314 . S
N121 C125 1.279 . S
C122 C120 1.348 . S
C122 C124 1.353 1_565 S
C122 H164 0.929 . S
C123 C120 1.356 1_545 S
C123 C125 1.358 . S
C123 H165 0.930 1_545 S
C124 N121 1.314 . S
C124 C122 1.353 1_545 S
C124 H166 0.930 . S
C125 N121 1.279 . S
C125 C123 1.358 . S
C125 H167 0.930 . S
C126 C127 1.348 . S
C126 C128 1.356 . S
C126 O151 1.325 . S
C127 C126 1.348 . S
C127 C129 1.353 . S
C127 H168 0.929 . S
C128 C126 1.356 . S
C128 C130 1.358 . S
C128 H169 0.930 . S
C129 C127 1.353 . S
C129 N131 1.314 . S
C129 H170 0.930 . S
C130 C128 1.358 . S
C130 N131 1.279 . S
C130 H171 0.930 . S
N131 C129 1.314 . S
N131 C130 1.279 . S
C132 C134 1.353 . S
C132 N135 1.314 . S
C132 H138 0.930 . S
C133 N135 1.279 . S
C133 C136 1.358 . S
C133 H139 0.930 . S
C134 C132 1.353 . S
C134 C137 1.348 . S
C134 H172 0.929 . S
N135 Li90 1.990 . S
N135 C132 1.314 . S
N135 C133 1.279 . S
C136 C133 1.358 . S
C136 C137 1.356 . S
C136 H173 0.901 1_565 S
C137 C134 1.348 . S
C137 C136 1.356 . S
H138 C132 0.930 . S
H139 C133 0.930 . S
C140 N141 1.314 . S
C140 C142 1.353 . S
C140 H146 0.930 . S
N141 Li91 1.990 . S
N141 C140 1.314 . S
N141 C144 1.279 . S
C142 C140 1.353 . S
C142 C145 1.348 . S
C142 H174 0.929 . S
C143 C144 1.358 . S
C143 C145 1.356 . S
C143 H175 0.930 . S
C144 N141 1.279 . S
C144 C143 1.358 . S
C144 H147 0.930 . S
C145 C142 1.348 . S
C145 C143 1.356 . S
H146 C140 0.930 . S
H147 C144 0.930 . S
O148 Li88 1.956 . S
O148 Li89 1.970 . S
O148 Li90 1.961 . S
O148 C92 1.325 . S
O149 Li88 1.970 . S
O149 Li89 1.956 . S
O149 Li91 1.961 . S
O149 C98 1.325 . S
O150 Li88 1.961 . S
O150 Li90 1.956 . S
O150 Li91 1.970 . S
O150 C120 1.325 . S
O151 Li89 1.961 . S
O151 Li90 1.970 . S
O151 Li91 1.956 . S
O151 C126 1.325 . S
H152 C94 0.929 . S
H153 C95 0.930 . S
H154 C96 0.930 . S
H155 C97 0.930 . S
H156 C99 0.930 . S
H157 C101 0.929 . S
H158 C102 0.930 . S
H159 C103 0.930 . S
H160 C106 0.930 . S
H161 C109 0.929 1_545 S
H162 C114 0.929 . S
H163 C115 0.930 . S
H164 C122 0.929 . S
H165 C123 0.930 1_565 S
H166 C124 0.930 . S
H167 C125 0.930 . S
H168 C127 0.929 . S
H169 C128 0.930 . S
H170 C129 0.930 . S
H171 C130 0.930 . S
H172 C134 0.929 . S
H173 C136 0.901 1_545 S
H174 C142 0.929 . S
H175 C143 0.930 . S
Li176 N193 1.990 . S
Li176 O236 1.956 . S
Li176 O237 1.970 . S
Li176 O238 1.961 . S
Li177 N201 1.990 . S
Li177 O236 1.970 . S
Li177 O237 1.956 . S
Li177 O239 1.961 . S
Li178 N223 1.990 . S
Li178 O236 1.961 . S
Li178 O238 1.956 . S
Li178 O239 1.970 . S
Li179 N229 1.990 . S
Li179 O237 1.961 . S
Li179 O238 1.970 . S
Li179 O239 1.956 . S
C180 C182 1.348 . S
C180 C183 1.356 . S
C180 O236 1.325 . S
N181 C184 1.314 . S
N181 C185 1.279 . S
C182 C180 1.348 . S
C182 C184 1.353 . S
C182 H240 0.929 . S
C183 C180 1.356 . S
C183 C185 1.358 . S
C183 H241 0.930 . S
C184 N181 1.314 . S
C184 C182 1.353 . S
C184 H242 0.930 . S
C185 N181 1.279 . S
C185 C183 1.358 . S
C185 H243 0.930 . S
C186 C189 1.348 . S
C186 C190 1.356 . S
C186 O237 1.325 . S
C187 N188 1.279 . S
C187 C190 1.358 . S
C187 H244 0.930 . S
N188 C187 1.279 . S
N188 C191 1.314 . S
C189 C186 1.348 . S
C189 C191 1.353 . S
C189 H245 0.929 . S
C190 C186 1.356 . S
C190 C187 1.358 . S
C190 H246 0.930 . S
C191 N188 1.314 . S
C191 C189 1.353 . S
C191 H247 0.930 . S
C192 N193 1.314 . S
C192 C197 1.353 . S
C192 H198 0.930 . S
N193 Li176 1.990 . S
N193 C192 1.314 . S
N193 C195 1.279 . S
C194 C195 1.358 . S
C194 C196 1.356 . S
C194 H248 0.930 . S
C195 N193 1.279 . S
C195 C194 1.358 . S
C195 H199 0.930 . S
C196 C194 1.356 . S
C196 C197 1.348 . S
C197 C192 1.353 . S
C197 C196 1.348 . S
C197 H249 0.929 . S
H198 C192 0.930 . S
H199 C195 0.930 . S
C200 N201 1.314 . S
C200 C202 1.353 . S
C200 H206 0.930 . S
N201 Li177 1.990 . S
N201 C200 1.314 . S
N201 C204 1.279 . S
C202 C200 1.353 . S
C202 C205 1.348 . S
C202 H250 0.929 . S
C203 C204 1.358 . S
C203 C205 1.356 . S
C203 H251 0.930 . S
C204 N201 1.279 . S
C204 C203 1.358 . S
C204 H207 0.930 . S
C205 C202 1.348 . S
C205 C203 1.356 . S
H206 C200 0.930 . S
H207 C204 0.930 . S
C208 C210 1.348 . S
C208 C211 1.356 . S
C208 O238 1.325 . S
N209 C212 1.314 . S
N209 C213 1.279 . S
C210 C208 1.348 . S
C210 C212 1.353 . S
C210 H252 0.929 . S
C211 C208 1.356 . S
C211 C213 1.358 . S
C211 H253 0.930 . S
C212 N209 1.314 . S
C212 C210 1.353 . S
C212 H254 0.930 . S
C213 N209 1.279 . S
C213 C211 1.358 . S
C213 H255 0.930 . S
C214 C215 1.348 . S
C214 C216 1.356 . S
C214 O239 1.325 . S
C215 C214 1.348 . S
C215 C217 1.353 . S
C215 H256 0.929 . S
C216 C214 1.356 . S
C216 C218 1.358 . S
C216 H257 0.930 . S
C217 C215 1.353 . S
C217 N219 1.314 . S
C217 H258 0.930 . S
C218 C216 1.358 . S
C218 N219 1.279 . S
C218 H259 0.930 . S
N219 C217 1.314 . S
N219 C218 1.279 . S
C220 C222 1.353 . S
C220 N223 1.314 . S
C220 H226 0.930 . S
C221 N223 1.279 . S
C221 C224 1.358 . S
C221 H227 0.930 . S
C222 C220 1.353 . S
C222 C225 1.348 . S
C222 H260 0.929 . S
N223 Li178 1.990 . S
N223 C220 1.314 . S
N223 C221 1.279 . S
C224 C221 1.358 . S
C224 C225 1.356 . S
C224 H261 0.930 . S
C225 C222 1.348 . S
C225 C224 1.356 . S
H226 C220 0.930 . S
H227 C221 0.930 . S
C228 N229 1.314 . S
C228 C230 1.353 . S
C228 H234 0.930 . S
N229 Li179 1.990 . S
N229 C228 1.314 . S
N229 C232 1.279 . S
C230 C228 1.353 . S
C230 C233 1.348 . S
C230 H262 0.929 . S
C231 C232 1.358 . S
C231 C233 1.356 . S
C231 H263 0.930 . S
C232 N229 1.279 . S
C232 C231 1.358 . S
C232 H235 0.930 . S
C233 C230 1.348 . S
C233 C231 1.356 . S
H234 C228 0.930 . S
H235 C232 0.930 . S
O236 Li176 1.956 . S
O236 Li177 1.970 . S
O236 Li178 1.961 . S
O236 C180 1.325 . S
O237 Li176 1.970 . S
O237 Li177 1.956 . S
O237 Li179 1.961 . S
O237 C186 1.325 . S
O238 Li176 1.961 . S
O238 Li178 1.956 . S
O238 Li179 1.970 . S
O238 C208 1.325 . S
O239 Li177 1.961 . S
O239 Li178 1.970 . S
O239 Li179 1.956 . S
O239 C214 1.325 . S
H240 C182 0.929 . S
H241 C183 0.930 . S
H242 C184 0.930 . S
H243 C185 0.930 . S
H244 C187 0.930 . S
H245 C189 0.929 . S
H246 C190 0.930 . S
H247 C191 0.930 . S
H248 C194 0.930 . S
H249 C197 0.929 . S
H250 C202 0.929 . S
H251 C203 0.930 . S
H252 C210 0.929 . S
H253 C211 0.930 . S
H254 C212 0.930 . S
H255 C213 0.930 . S
H256 C215 0.929 . S
H257 C216 0.930 . S
H258 C217 0.930 . S
H259 C218 0.930 . S
H260 C222 0.929 . S
H261 C224 0.930 . S
H262 C230 0.929 . S
H263 C231 0.930 . S
Li264 N281 1.990 . S
Li264 O324 1.956 . S
Li264 O325 1.970 . S
Li264 O326 1.961 . S
Li265 N289 1.990 . S
Li265 O324 1.970 . S
Li265 O325 1.956 . S
Li265 O327 1.961 . S
Li266 N311 1.990 . S
Li266 O324 1.961 . S
Li266 O326 1.956 . S
Li266 O327 1.970 . S
Li267 N317 1.990 . S
Li267 O325 1.961 . S
Li267 O326 1.970 . S
Li267 O327 1.956 . S
C268 C270 1.348 . S
C268 C271 1.356 . S
C268 O324 1.325 . S
N269 C272 1.314 . S
N269 C273 1.279 . S
C270 C268 1.348 . S
C270 C272 1.353 . S
C270 H328 0.929 . S
C271 C268 1.356 . S
C271 C273 1.358 . S
C271 H329 0.930 . S
C272 N269 1.314 . S
C272 C270 1.353 . S
C272 H330 0.930 . S
C273 N269 1.279 . S
C273 C271 1.358 . S
C273 H331 0.930 . S
C274 C277 1.348 . S
C274 C278 1.356 . S
C274 O325 1.325 . S
C275 N276 1.279 . S
C275 C278 1.358 . S
C275 H332 0.930 . S
N276 C275 1.279 . S
N276 C279 1.314 . S
C277 C274 1.348 . S
C277 C279 1.353 . S
C277 H333 0.929 . S
C278 C274 1.356 . S
C278 C275 1.358 . S
C278 H334 0.930 . S
C279 N276 1.314 . S
C279 C277 1.353 . S
C279 H335 0.930 . S
C280 N281 1.314 . S
C280 C285 1.353 . S
C280 H286 0.930 . S
N281 Li264 1.990 . S
N281 C280 1.314 . S
N281 C283 1.279 . S
C282 C283 1.358 . S
C282 C284 1.356 . S
C282 H336 0.930 . S
C283 N281 1.279 . S
C283 C282 1.358 . S
C283 H287 0.930 . S
C284 C282 1.356 . S
C284 C285 1.348 . S
C285 C280 1.353 . S
C285 C284 1.348 . S
C285 H337 0.929 1_545 S
H286 C280 0.930 . S
H287 C283 0.930 . S
C288 N289 1.314 . S
C288 C290 1.353 . S
C288 H294 0.930 . S
N289 Li265 1.990 . S
N289 C288 1.314 . S
N289 C292 1.279 . S
C290 C288 1.353 . S
C290 C293 1.348 . S
C290 H338 0.929 . S
C291 C292 1.358 . S
C291 C293 1.356 . S
C291 H339 0.930 . S
C292 N289 1.279 . S
C292 C291 1.358 . S
C292 H295 0.930 . S
C293 C290 1.348 . S
C293 C291 1.356 . S
H294 C288 0.930 . S
H295 C292 0.930 . S
C296 C298 1.348 . S
C296 C299 1.356 1_545 S
C296 O326 1.325 . S
N297 C300 1.314 . S
N297 C301 1.279 . S
C298 C296 1.348 . S
C298 C300 1.353 1_545 S
C298 H340 0.929 . S
C299 C296 1.356 1_565 S
C299 C301 1.358 . S
C299 H341 0.930 1_565 S
C300 N297 1.314 . S
C300 C298 1.353 1_565 S
C300 H342 0.930 . S
C301 N297 1.279 . S
C301 C299 1.358 . S
C301 H343 0.930 . S
C302 C303 1.348 . S
C302 C304 1.356 . S
C302 O327 1.325 . S
C303 C302 1.348 . S
C303 C305 1.353 1_655 S
C303 H344 0.929 . S
C304 C302 1.356 . S
C304 C306 1.358 1_655 S
C304 H345 0.930 . S
C305 C303 1.353 1_455 S
C305 N307 1.314 . S
C305 H346 0.930 . S
C306 C304 1.358 1_455 S
C306 N307 1.279 . S
C306 H347 0.930 . S
N307 C305 1.314 . S
N307 C306 1.279 . S
C308 C310 1.353 . S
C308 N311 1.314 . S
C308 H314 0.930 . S
C309 N311 1.279 . S
C309 C312 1.358 . S
C309 H315 0.930 . S
C310 C308 1.353 . S
C310 C313 1.348 . S
C310 H348 0.929 . S
N311 Li266 1.990 . S
N311 C308 1.314 . S
N311 C309 1.279 . S
C312 C309 1.358 . S
C312 C313 1.356 . S
C312 H349 0.901 1_545 S
C313 C310 1.348 . S
C313 C312 1.356 . S
H314 C308 0.930 . S
H315 C309 0.930 . S
C316 N317 1.314 . S
C316 C318 1.353 . S
C316 H322 0.930 . S
N317 Li267 1.990 . S
N317 C316 1.314 . S
N317 C320 1.279 1_655 S
C318 C316 1.353 . S
C318 C321 1.348 1_655 S
C318 H350 0.929 . S
C319 C320 1.358 . S
C319 C321 1.356 . S
C319 H351 0.930 . S
C320 N317 1.279 1_455 S
C320 C319 1.358 . S
C320 H323 0.930 . S
C321 C318 1.348 1_455 S
C321 C319 1.356 . S
H322 C316 0.930 . S
H323 C320 0.930 . S
O324 Li264 1.956 . S
O324 Li265 1.970 . S
O324 Li266 1.961 . S
O324 C268 1.325 . S
O325 Li264 1.970 . S
O325 Li265 1.956 . S
O325 Li267 1.961 . S
O325 C274 1.325 . S
O326 Li264 1.961 . S
O326 Li266 1.956 . S
O326 Li267 1.970 . S
O326 C296 1.325 . S
O327 Li265 1.961 . S
O327 Li266 1.970 . S
O327 Li267 1.956 . S
O327 C302 1.325 . S
H328 C270 0.929 . S
H329 C271 0.930 . S
H330 C272 0.930 . S
H331 C273 0.930 . S
H332 C275 0.930 . S
H333 C277 0.929 . S
H334 C278 0.930 . S
H335 C279 0.930 . S
H336 C282 0.930 . S
H337 C285 0.929 1_565 S
H338 C290 0.929 . S
H339 C291 0.930 . S
H340 C298 0.929 . S
H341 C299 0.930 1_545 S
H342 C300 0.930 . S
H343 C301 0.930 . S
H344 C303 0.929 . S
H345 C304 0.930 . S
H346 C305 0.930 . S
H347 C306 0.930 . S
H348 C310 0.929 . S
H349 C312 0.901 1_565 S
H350 C318 0.929 . S
H351 C319 0.930 . S
Li352 N369 1.990 . S
Li352 O412 1.956 . S
Li352 O413 1.970 . S
Li352 O414 1.961 . S
Li353 N377 1.990 . S
Li353 O412 1.970 . S
Li353 O413 1.956 . S
Li353 O415 1.961 . S
Li354 N399 1.990 . S
Li354 O412 1.961 . S
Li354 O414 1.956 . S
Li354 O415 1.970 . S
Li355 N405 1.990 . S
Li355 O413 1.961 . S
Li355 O414 1.970 . S
Li355 O415 1.956 . S
C356 C358 1.348 . S
C356 C359 1.356 . S
C356 O412 1.325 . S
N357 C360 1.314 . S
N357 C361 1.279 . S
C358 C356 1.348 . S
C358 C360 1.353 . S
C358 H416 0.929 . S
C359 C356 1.356 . S
C359 C361 1.358 . S
C359 H417 0.930 . S
C360 N357 1.314 . S
C360 C358 1.353 . S
C360 H418 0.930 . S
C361 N357 1.279 . S
C361 C359 1.358 . S
C361 H419 0.930 . S
C362 C365 1.348 . S
C362 C366 1.356 . S
C362 O413 1.325 . S
C363 N364 1.279 . S
C363 C366 1.358 . S
C363 H420 0.930 . S
N364 C363 1.279 . S
N364 C367 1.314 . S
C365 C362 1.348 . S
C365 C367 1.353 . S
C365 H421 0.929 . S
C366 C362 1.356 . S
C366 C363 1.358 . S
C366 H422 0.930 . S
C367 N364 1.314 . S
C367 C365 1.353 . S
C367 H423 0.930 . S
C368 N369 1.314 . S
C368 C373 1.353 . S
C368 H374 0.930 . S
N369 Li352 1.990 . S
N369 C368 1.314 . S
N369 C371 1.279 . S
C370 C371 1.358 . S
C370 C372 1.356 . S
C370 H424 0.930 . S
C371 N369 1.279 . S
C371 C370 1.358 . S
C371 H375 0.930 . S
C372 C370 1.356 . S
C372 C373 1.348 . S
C373 C368 1.353 . S
C373 C372 1.348 . S
C373 H425 0.929 . S
H374 C368 0.930 . S
H375 C371 0.930 . S
C376 N377 1.314 1_455 S
C376 C378 1.353 . S
C376 H382 0.930 . S
N377 Li353 1.990 . S
N377 C376 1.314 1_655 S
N377 C380 1.279 . S
C378 C376 1.353 . S
C378 C381 1.348 . S
C378 H426 0.929 . S
C379 C380 1.361 1_455 S
C379 C381 1.354 . S
C379 H427 0.930 1_455 S
C380 N377 1.279 . S
C380 C379 1.361 1_655 S
C380 H383 0.930 . S
C381 C378 1.348 . S
C381 C379 1.354 . S
H382 C376 0.930 . S
H383 C380 0.930 . S
C384 C386 1.348 . S
C384 C387 1.356 . S
C384 O414 1.325 . S
N385 C388 1.314 . S
N385 C389 1.279 . S
C386 C384 1.348 . S
C386 C388 1.353 . S
C386 H428 0.929 . S
C387 C384 1.356 . S
C387 C389 1.358 . S
C387 H429 0.930 . S
C388 N385 1.314 . S
C388 C386 1.353 . S
C388 H430 0.930 . S
C389 N385 1.279 . S
C389 C387 1.358 . S
C389 H431 0.930 . S
C390 C391 1.348 . S
C390 C392 1.356 . S
C390 O415 1.325 . S
C391 C390 1.348 . S
C391 C393 1.353 . S
C391 H432 0.929 . S
C392 C390 1.356 . S
C392 C394 1.358 1_655 S
C392 H433 0.930 . S
C393 C391 1.353 . S
C393 N395 1.314 1_655 S
C393 H434 0.925 1_655 S
C394 C392 1.358 1_455 S
C394 N395 1.279 . S
C394 H435 0.930 . S
N395 C393 1.314 1_455 S
N395 C394 1.279 . S
C396 C398 1.353 . S
C396 N399 1.314 . S
C396 H402 0.930 . S
C397 N399 1.279 . S
C397 C400 1.358 . S
C397 H403 0.930 . S
C398 C396 1.353 . S
C398 C401 1.348 . S
C398 H436 0.929 . S
N399 Li354 1.990 . S
N399 C396 1.314 . S
N399 C397 1.279 . S
C400 C397 1.358 . S
C400 C401 1.356 . S
C400 H437 0.930 . S
C401 C398 1.348 . S
C401 C400 1.356 . S
H402 C396 0.930 . S
H403 C397 0.930 . S
C404 N405 1.314 . S
C404 C406 1.353 . S
C404 H410 0.930 . S
N405 Li355 1.990 . S
N405 C404 1.314 . S
N405 C408 1.279 . S
C406 C404 1.353 . S
C406 C409 1.348 . S
C406 H438 0.929 . S
C407 C408 1.358 . S
C407 C409 1.356 . S
C407 H439 0.930 . S
C408 N405 1.279 . S
C408 C407 1.358 . S
C408 H411 0.930 . S
C409 C406 1.348 . S
C409 C407 1.356 . S
H410 C404 0.930 . S
H411 C408 0.930 . S
O412 Li352 1.956 . S
O412 Li353 1.970 . S
O412 Li354 1.961 . S
O412 C356 1.325 . S
O413 Li352 1.970 . S
O413 Li353 1.956 . S
O413 Li355 1.961 . S
O413 C362 1.325 . S
O414 Li352 1.961 . S
O414 Li354 1.956 . S
O414 Li355 1.970 . S
O414 C384 1.325 . S
O415 Li353 1.961 . S
O415 Li354 1.970 . S
O415 Li355 1.956 . S
O415 C390 1.325 . S
H416 C358 0.929 . S
H417 C359 0.930 . S
H418 C360 0.930 . S
H419 C361 0.930 . S
H420 C363 0.930 . S
H421 C365 0.929 . S
H422 C366 0.930 . S
H423 C367 0.930 . S
H424 C370 0.930 . S
H425 C373 0.929 . S
H426 C378 0.929 . S
H427 C379 0.930 1_655 S
H428 C386 0.929 . S
H429 C387 0.930 . S
H430 C388 0.930 . S
H431 C389 0.930 . S
H432 C391 0.929 . S
H433 C392 0.930 . S
H434 C393 0.925 1_455 S
H435 C394 0.930 . S
H436 C398 0.929 . S
H437 C400 0.930 . S
H438 C406 0.929 . S
H439 C407 0.930 . S
Li440 N457 1.990 . S
Li440 O500 1.956 . S
Li440 O501 1.970 . S
Li440 O502 1.961 . S
Li441 N465 1.990 . S
Li441 O500 1.970 . S
Li441 O501 1.956 . S
Li441 O503 1.961 . S
Li442 N487 1.990 . S
Li442 O500 1.961 . S
Li442 O502 1.956 . S
Li442 O503 1.970 . S
Li443 N493 1.990 . S
Li443 O501 1.961 . S
Li443 O502 1.970 . S
Li443 O503 1.956 . S
C444 C446 1.348 . S
C444 C447 1.356 . S
C444 O500 1.325 . S
N445 C448 1.314 . S
N445 C449 1.279 . S
C446 C444 1.348 . S
C446 C448 1.353 . S
C446 H504 0.929 . S
C447 C444 1.356 . S
C447 C449 1.358 . S
C447 H505 0.930 . S
C448 N445 1.314 . S
C448 C446 1.353 . S
C448 H506 0.930 . S
C449 N445 1.279 . S
C449 C447 1.358 . S
C449 H507 0.930 . S
C450 C453 1.348 . S
C450 C454 1.356 1_545 S
C450 O501 1.325 . S
C451 N452 1.279 . S
C451 C454 1.358 . S
C451 H508 0.930 . S
N452 C451 1.279 . S
N452 C455 1.314 . S
C453 C450 1.348 . S
C453 C455 1.353 1_545 S
C453 H509 0.929 . S
C454 C450 1.356 1_565 S
C454 C451 1.358 . S
C454 H510 0.930 1_565 S
C455 N452 1.314 . S
C455 C453 1.353 1_565 S
C455 H511 0.930 . S
C456 N457 1.314 . S
C456 C461 1.353 . S
C456 H462 0.930 . S
N457 Li440 1.990 . S
N457 C456 1.314 . S
N457 C459 1.279 . S
C458 C459 1.358 . S
C458 C460 1.356 . S
C458 H512 0.930 . S
C459 N457 1.279 . S
C459 C458 1.358 . S
C459 H463 0.930 . S
C460 C458 1.356 . S
C460 C461 1.348 . S
C461 C456 1.353 . S
C461 C460 1.348 . S
C461 H513 0.929 . S
H462 C456 0.930 . S
H463 C459 0.930 . S
C464 N465 1.314 . S
C464 C466 1.353 . S
C464 H470 0.930 . S
N465 Li441 1.990 . S
N465 C464 1.314 . S
N465 C468 1.279 . S
C466 C464 1.353 . S
C466 C469 1.348 . S
C466 H514 0.929 . S
C467 C468 1.358 . S
C467 C469 1.356 . S
C467 H515 0.930 1_545 S
C468 N465 1.279 . S
C468 C467 1.358 . S
C468 H471 0.930 . S
C469 C466 1.348 . S
C469 C467 1.356 . S
H470 C464 0.930 . S
H471 C468 0.930 . S
C472 C474 1.348 . S
C472 C475 1.356 . S
C472 O502 1.325 . S
N473 C476 1.314 . S
N473 C477 1.279 . S
C474 C472 1.348 . S
C474 C476 1.353 . S
C474 H516 0.929 . S
C475 C472 1.356 . S
C475 C477 1.358 . S
C475 H517 0.930 . S
C476 N473 1.314 . S
C476 C474 1.353 . S
C476 H518 0.930 . S
C477 N473 1.279 . S
C477 C475 1.358 . S
C477 H519 0.930 . S
C478 C479 1.348 . S
C478 C480 1.356 . S
C478 O503 1.325 . S
C479 C478 1.348 . S
C479 C481 1.353 . S
C479 H520 0.929 . S
C480 C478 1.356 . S
C480 C482 1.358 . S
C480 H521 0.930 . S
C481 C479 1.353 . S
C481 N483 1.314 . S
C481 H522 0.930 . S
C482 C480 1.358 . S
C482 N483 1.279 . S
C482 H523 0.930 . S
N483 C481 1.314 . S
N483 C482 1.279 . S
C484 C486 1.353 . S
C484 N487 1.314 . S
C484 H490 0.930 . S
C485 N487 1.279 . S
C485 C488 1.358 . S
C485 H491 0.930 . S
C486 C484 1.353 . S
C486 C489 1.348 . S
C486 H524 0.929 . S
N487 Li442 1.990 . S
N487 C484 1.314 . S
N487 C485 1.279 . S
C488 C485 1.358 . S
C488 C489 1.356 . S
C488 H525 0.930 . S
C489 C486 1.348 . S
C489 C488 1.356 . S
H490 C484 0.930 . S
H491 C485 0.930 . S
C492 N493 1.314 . S
C492 C494 1.353 . S
C492 H498 0.930 . S
N493 Li443 1.990 . S
N493 C492 1.314 . S
N493 C496 1.279 . S
C494 C492 1.353 . S
C494 C497 1.348 . S
C494 H526 0.929 . S
C495 C496 1.358 . S
C495 C497 1.356 . S
C495 H527 0.930 . S
C496 N493 1.279 . S
C496 C495 1.358 . S
C496 H499 0.930 . S
C497 C494 1.348 . S
C497 C495 1.356 . S
H498 C492 0.930 . S
H499 C496 0.930 . S
O500 Li440 1.956 . S
O500 Li441 1.970 . S
O500 Li442 1.961 . S
O500 C444 1.325 . S
O501 Li440 1.970 . S
O501 Li441 1.956 . S
O501 Li443 1.961 . S
O501 C450 1.325 . S
O502 Li440 1.961 . S
O502 Li442 1.956 . S
O502 Li443 1.970 . S
O502 C472 1.325 . S
O503 Li441 1.961 . S
O503 Li442 1.970 . S
O503 Li443 1.956 . S
O503 C478 1.325 . S
H504 C446 0.929 . S
H505 C447 0.930 . S
H506 C448 0.930 . S
H507 C449 0.930 . S
H508 C451 0.930 . S
H509 C453 0.929 . S
H510 C454 0.930 1_545 S
H511 C455 0.930 . S
H512 C458 0.930 . S
H513 C461 0.929 . S
H514 C466 0.929 . S
H515 C467 0.930 1_565 S
H516 C474 0.929 . S
H517 C475 0.930 . S
H518 C476 0.930 . S
H519 C477 0.930 . S
H520 C479 0.929 . S
H521 C480 0.930 . S
H522 C481 0.930 . S
H523 C482 0.930 . S
H524 C486 0.929 . S
H525 C488 0.930 . S
H526 C494 0.929 . S
H527 C495 0.930 . S
Li528 N545 1.990 . S
Li528 O588 1.956 . S
Li528 O589 1.970 . S
Li528 O590 1.961 . S
Li529 N553 1.990 . S
Li529 O588 1.970 . S
Li529 O589 1.956 . S
Li529 O591 1.961 . S
Li530 N575 1.990 . S
Li530 O588 1.961 . S
Li530 O590 1.956 . S
Li530 O591 1.970 . S
Li531 N581 1.990 . S
Li531 O589 1.961 . S
Li531 O590 1.970 . S
Li531 O591 1.956 . S
C532 C534 1.348 . S
C532 C535 1.356 . S
C532 O588 1.325 . S
N533 C536 1.314 . S
N533 C537 1.279 . S
C534 C532 1.348 . S
C534 C536 1.353 . S
C534 H592 0.929 . S
C535 C532 1.356 . S
C535 C537 1.358 . S
C535 H593 0.930 . S
C536 N533 1.314 . S
C536 C534 1.353 . S
C536 H594 0.930 . S
C537 N533 1.279 . S
C537 C535 1.358 . S
C537 H595 0.930 . S
C538 C541 1.348 . S
C538 C542 1.356 . S
C538 O589 1.325 . S
C539 N540 1.279 . S
C539 C542 1.358 . S
C539 H596 0.930 . S
N540 C539 1.279 . S
N540 C543 1.314 . S
C541 C538 1.348 . S
C541 C543 1.353 . S
C541 H597 0.929 . S
C542 C538 1.356 . S
C542 C539 1.358 . S
C542 H598 0.930 . S
C543 N540 1.314 . S
C543 C541 1.353 . S
C543 H599 0.930 . S
C544 N545 1.314 . S
C544 C549 1.353 . S
C544 H550 0.930 . S
N545 Li528 1.990 . S
N545 C544 1.314 . S
N545 C547 1.279 . S
C546 C547 1.358 . S
C546 C548 1.356 . S
C546 H600 0.930 . S
C547 N545 1.279 . S
C547 C546 1.358 . S
C547 H551 0.930 . S
C548 C546 1.356 . S
C548 C549 1.348 . S
C549 C544 1.353 . S
C549 C548 1.348 . S
C549 H601 0.929 . S
H550 C544 0.930 . S
H551 C547 0.930 . S
C552 N553 1.314 . S
C552 C554 1.353 . S
C552 H558 0.930 . S
N553 Li529 1.990 . S
N553 C552 1.314 . S
N553 C556 1.279 . S
C554 C552 1.353 . S
C554 C557 1.348 . S
C554 H602 0.929 . S
C555 C556 1.358 . S
C555 C557 1.356 . S
C555 H603 0.930 . S
C556 N553 1.279 . S
C556 C555 1.358 . S
C556 H559 0.930 . S
C557 C554 1.348 . S
C557 C555 1.356 . S
H558 C552 0.930 . S
H559 C556 0.930 . S
C560 C562 1.348 . S
C560 C563 1.356 . S
C560 O590 1.325 . S
N561 C564 1.314 . S
N561 C565 1.279 . S
C562 C560 1.348 . S
C562 C564 1.353 . S
C562 H604 0.929 . S
C563 C560 1.356 . S
C563 C565 1.358 . S
C563 H605 0.930 . S
C564 N561 1.314 . S
C564 C562 1.353 . S
C564 H606 0.930 . S
C565 N561 1.279 . S
C565 C563 1.358 . S
C565 H607 0.930 . S
C566 C567 1.348 . S
C566 C568 1.356 . S
C566 O591 1.325 . S
C567 C566 1.348 . S
C567 C569 1.353 . S
C567 H608 0.929 . S
C568 C566 1.356 . S
C568 C570 1.358 . S
C568 H609 0.930 . S
C569 C567 1.353 . S
C569 N571 1.314 . S
C569 H610 0.930 . S
C570 C568 1.358 . S
C570 N571 1.279 . S
C570 H611 0.930 . S
N571 C569 1.314 . S
N571 C570 1.279 . S
C572 C574 1.353 . S
C572 N575 1.314 . S
C572 H578 0.930 . S
C573 N575 1.279 . S
C573 C576 1.358 . S
C573 H579 0.930 . S
C574 C572 1.353 . S
C574 C577 1.348 . S
C574 H612 0.929 . S
N575 Li530 1.990 . S
N575 C572 1.314 . S
N575 C573 1.279 . S
C576 C573 1.358 . S
C576 C577 1.356 . S
C576 H613 0.930 . S
C577 C574 1.348 . S
C577 C576 1.356 . S
H578 C572 0.930 . S
H579 C573 0.930 . S
C580 N581 1.314 . S
C580 C582 1.353 . S
C580 H586 0.930 . S
N581 Li531 1.990 . S
N581 C580 1.314 . S
N581 C584 1.279 . S
C582 C580 1.353 . S
C582 C585 1.348 . S
C582 H614 0.929 . S
C583 C584 1.358 . S
C583 C585 1.356 . S
C583 H615 0.930 . S
C584 N581 1.279 . S
C584 C583 1.358 . S
C584 H587 0.930 . S
C585 C582 1.348 . S
C585 C583 1.356 . S
H586 C580 0.930 . S
H587 C584 0.930 . S
O588 Li528 1.956 . S
O588 Li529 1.970 . S
O588 Li530 1.961 . S
O588 C532 1.325 . S
O589 Li528 1.970 . S
O589 Li529 1.956 . S
O589 Li531 1.961 . S
O589 C538 1.325 . S
O590 Li528 1.961 . S
O590 Li530 1.956 . S
O590 Li531 1.970 . S
O590 C560 1.325 . S
O591 Li529 1.961 . S
O591 Li530 1.970 . S
O591 Li531 1.956 . S
O591 C566 1.325 . S
H592 C534 0.929 . S
H593 C535 0.930 . S
H594 C536 0.930 . S
H595 C537 0.930 . S
H596 C539 0.930 . S
H597 C541 0.929 . S
H598 C542 0.930 . S
H599 C543 0.930 . S
H600 C546 0.930 . S
H601 C549 0.929 . S
H602 C554 0.929 . S
H603 C555 0.930 . S
H604 C562 0.929 . S
H605 C563 0.930 . S
H606 C564 0.930 . S
H607 C565 0.930 . S
H608 C567 0.929 . S
H609 C568 0.930 . S
H610 C569 0.930 . S
H611 C570 0.930 . S
H612 C574 0.929 . S
H613 C576 0.930 . S
H614 C582 0.929 . S
H615 C583 0.930 . S
Li616 N633 1.990 . S
Li616 O676 1.956 . S
Li616 O677 1.970 . S
Li616 O678 1.961 . S
Li617 N641 1.990 . S
Li617 O676 1.970 . S
Li617 O677 1.956 . S
Li617 O679 1.961 . S
Li618 N663 1.990 . S
Li618 O676 1.961 . S
Li618 O678 1.956 . S
Li618 O679 1.970 . S
Li619 N669 1.990 . S
Li619 O677 1.961 . S
Li619 O678 1.970 . S
Li619 O679 1.956 . S
C620 C622 1.348 . S
C620 C623 1.356 . S
C620 O676 1.325 . S
N621 C624 1.314 . S
N621 C625 1.279 . S
C622 C620 1.348 . S
C622 C624 1.353 . S
C622 H680 0.929 . S
C623 C620 1.356 . S
C623 C625 1.358 . S
C623 H681 0.930 . S
C624 N621 1.314 . S
C624 C622 1.353 . S
C624 H682 0.930 . S
C625 N621 1.279 . S
C625 C623 1.358 . S
C625 H683 0.930 . S
C626 C629 1.348 . S
C626 C630 1.356 . S
C626 O677 1.325 . S
C627 N628 1.279 . S
C627 C630 1.358 1_655 S
C627 H684 0.930 . S
N628 C627 1.279 . S
N628 C631 1.314 1_655 S
C629 C626 1.348 . S
C629 C631 1.353 . S
C629 H685 0.929 . S
C630 C626 1.356 . S
C630 C627 1.358 1_455 S
C630 H686 0.930 . S
C631 N628 1.314 1_455 S
C631 C629 1.353 . S
C631 H687 0.925 1_455 S
C632 N633 1.314 . S
C632 C637 1.353 . S
C632 H638 0.930 . S
N633 Li616 1.990 . S
N633 C632 1.314 . S
N633 C635 1.279 . S
C634 C635 1.358 . S
C634 C636 1.356 . S
C634 H688 0.930 . S
C635 N633 1.279 . S
C635 C634 1.358 . S
C635 H639 0.930 . S
C636 C634 1.356 . S
C636 C637 1.348 . S
C637 C632 1.353 . S
C637 C636 1.348 . S
C637 H689 0.929 . S
H638 C632 0.930 . S
H639 C635 0.930 . S
C640 N641 1.314 . S
C640 C642 1.353 . S
C640 H646 0.930 . S
N641 Li617 1.990 . S
N641 C640 1.314 . S
N641 C644 1.279 . S
C642 C640 1.353 . S
C642 C645 1.348 . S
C642 H690 0.929 . S
C643 C644 1.358 . S
C643 C645 1.356 . S
C643 H691 0.930 . S
C644 N641 1.279 . S
C644 C643 1.358 . S
C644 H647 0.930 . S
C645 C642 1.348 . S
C645 C643 1.356 . S
H646 C640 0.930 . S
H647 C644 0.930 . S
C648 C650 1.348 . S
C648 C651 1.356 1_565 S
C648 O678 1.325 . S
N649 C652 1.314 . S
N649 C653 1.279 . S
C650 C648 1.348 . S
C650 C652 1.353 1_565 S
C650 H692 0.929 . S
C651 C648 1.356 1_545 S
C651 C653 1.358 . S
C651 H693 0.930 1_545 S
C652 N649 1.314 . S
C652 C650 1.353 1_545 S
C652 H694 0.930 . S
C653 N649 1.279 . S
C653 C651 1.358 . S
C653 H695 0.930 . S
C654 C655 1.348 . S
C654 C656 1.356 . S
C654 O679 1.325 . S
C655 C654 1.348 . S
C655 C657 1.353 . S
C655 H696 0.929 . S
C656 C654 1.356 . S
C656 C658 1.358 . S
C656 H697 0.930 . S
C657 C655 1.353 . S
C657 N659 1.314 . S
C657 H698 0.930 . S
C658 C656 1.358 . S
C658 N659 1.279 . S
C658 H699 0.930 . S
N659 C657 1.314 . S
N659 C658 1.279 . S
C660 C662 1.353 . S
C660 N663 1.314 . S
C660 H666 0.930 . S
C661 N663 1.279 . S
C661 C664 1.358 . S
C661 H667 0.930 . S
C662 C660 1.353 . S
C662 C665 1.348 . S
C662 H700 0.929 . S
N663 Li618 1.990 . S
N663 C660 1.314 . S
N663 C661 1.279 . S
C664 C661 1.358 . S
C664 C665 1.356 . S
C664 H701 0.930 1_565 S
C665 C662 1.348 . S
C665 C664 1.356 . S
H666 C660 0.930 . S
H667 C661 0.930 . S
C668 N669 1.314 1_655 S
C668 C670 1.353 . S
C668 H674 0.930 . S
N669 Li619 1.990 . S
N669 C668 1.314 1_455 S
N669 C672 1.279 . S
C670 C668 1.353 . S
C670 C673 1.348 . S
C670 H702 0.929 . S
C671 C672 1.361 1_655 S
C671 C673 1.354 . S
C671 H703 0.930 1_655 S
C672 N669 1.279 . S
C672 C671 1.361 1_455 S
C672 H675 0.930 . S
C673 C670 1.348 . S
C673 C671 1.354 . S
H674 C668 0.930 . S
H675 C672 0.930 . S
O676 Li616 1.956 . S
O676 Li617 1.970 . S
O676 Li618 1.961 . S
O676 C620 1.325 . S
O677 Li616 1.970 . S
O677 Li617 1.956 . S
O677 Li619 1.961 . S
O677 C626 1.325 . S
O678 Li616 1.961 . S
O678 Li618 1.956 . S
O678 Li619 1.970 . S
O678 C648 1.325 . S
O679 Li617 1.961 . S
O679 Li618 1.970 . S
O679 Li619 1.956 . S
O679 C654 1.325 . S
H680 C622 0.929 . S
H681 C623 0.930 . S
H682 C624 0.930 . S
H683 C625 0.930 . S
H684 C627 0.930 . S
H685 C629 0.929 . S
H686 C630 0.930 . S
H687 C631 0.925 1_655 S
H688 C634 0.930 . S
H689 C637 0.929 . S
H690 C642 0.929 . S
H691 C643 0.930 . S
H692 C650 0.929 . S
H693 C651 0.930 1_565 S
H694 C652 0.930 . S
H695 C653 0.930 . S
H696 C655 0.929 . S
H697 C656 0.930 . S
H698 C657 0.930 . S
H699 C658 0.930 . S
H700 C662 0.929 . S
H701 C664 0.930 1_545 S
H702 C670 0.929 . S
H703 C671 0.930 1_455 S
H704 C716 0.930 . S
H705 C718 0.930 . S
H706 C719 0.930 . S
H707 C723 0.959 . S
H708 C723 0.959 . S
H709 C723 0.961 . S
H710 C724 0.960 . S
H711 C724 0.961 . S
H712 C724 0.959 . S
H713 C727 0.929 . S
H714 C728 0.931 . S
H715 C730 0.930 . S
C716 H704 0.930 . S
C716 C717 1.399 . S
C716 C721 1.399 . S
C717 C716 1.399 . S
C717 C718 1.376 . S
C718 H705 0.930 . S
C718 C717 1.376 . S
C718 C719 1.388 . S
C719 H706 0.930 . S
C719 C718 1.388 . S
C719 C720 1.390 . S
C720 C719 1.390 . S
C720 C721 1.394 . S
C720 C726 1.465 . S
C721 C716 1.399 . S
C721 C720 1.394 . S
C721 C722 1.516 . S
C722 C721 1.516 . S
C722 C723 1.502 . S
C722 C724 1.561 . S
C722 C725 1.526 . S
C723 H707 0.959 . S
C723 H708 0.959 . S
C723 H709 0.961 . S
C723 C722 1.502 . S
C724 H710 0.960 . S
C724 H711 0.961 . S
C724 H712 0.959 . S
C724 C722 1.561 . S
C725 C722 1.526 . S
C725 C726 1.396 . S
C725 C730 1.390 . S
C726 C720 1.465 . S
C726 C725 1.396 . S
C726 C727 1.399 . S
C727 H713 0.929 . S
C727 C726 1.399 . S
C727 C728 1.385 . S
C728 H714 0.931 . S
C728 C727 1.385 . S
C728 C729 1.389 . S
C729 C728 1.389 . S
C729 C730 1.387 . S
C730 H715 0.930 . S
C730 C725 1.390 . S
C730 C729 1.387 . S
H731 C743 0.930 . S
H732 C745 0.930 . S
H733 C746 0.930 . S
H734 C750 0.959 . S
H735 C750 0.959 . S
H736 C750 0.961 . S
H737 C751 0.960 . S
H738 C751 0.961 . S
H739 C751 0.959 . S
H740 C754 0.929 . S
H741 C755 0.931 . S
H742 C757 0.930 . S
C743 H731 0.930 . S
C743 C744 1.399 . S
C743 C748 1.399 . S
C744 C743 1.399 . S
C744 C745 1.376 . S
C745 H732 0.930 . S
C745 C744 1.376 . S
C745 C746 1.388 . S
C746 H733 0.930 . S
C746 C745 1.388 . S
C746 C747 1.390 . S
C747 C746 1.390 . S
C747 C748 1.394 . S
C747 C753 1.465 . S
C748 C743 1.399 . S
C748 C747 1.394 . S
C748 C749 1.516 1_545 S
C749 C748 1.516 1_565 S
C749 C750 1.502 . S
C749 C751 1.561 . S
C749 C752 1.527 . S
C750 H734 0.959 . S
C750 H735 0.959 . S
C750 H736 0.961 . S
C750 C749 1.502 . S
C751 H737 0.960 . S
C751 H738 0.961 . S
C751 H739 0.959 . S
C751 C749 1.561 . S
C752 C749 1.527 . S
C752 C753 1.393 1_565 S
C752 C757 1.391 . S
C753 C747 1.465 . S
C753 C752 1.393 1_545 S
C753 C754 1.399 . S
C754 H740 0.929 . S
C754 C753 1.399 . S
C754 C755 1.385 . S
C755 H741 0.931 . S
C755 C754 1.385 . S
C755 C756 1.389 1_545 S
C756 C755 1.389 1_565 S
C756 C757 1.387 . S
C757 H742 0.930 . S
C757 C752 1.391 . S
C757 C756 1.387 . S
H758 C770 0.930 . S
H759 C772 0.930 . S
H760 C773 0.930 . S
H761 C777 0.959 . S
H762 C777 0.959 . S
H763 C777 0.961 . S
H764 C778 0.960 . S
H765 C778 0.961 . S
H766 C778 0.959 . S
H767 C781 0.929 . S
H768 C782 0.931 . S
H769 C784 0.930 . S
C770 H758 0.930 . S
C770 C771 1.399 . S
C770 C775 1.399 . S
C771 C770 1.399 . S
C771 C772 1.376 . S
C772 H759 0.930 . S
C772 C771 1.376 . S
C772 C773 1.388 . S
C773 H760 0.930 . S
C773 C772 1.388 . S
C773 C774 1.390 . S
C774 C773 1.390 . S
C774 C775 1.394 . S
C774 C780 1.465 . S
C775 C770 1.399 . S
C775 C774 1.394 . S
C775 C776 1.516 . S
C776 C775 1.516 . S
C776 C777 1.502 . S
C776 C778 1.561 . S
C776 C779 1.526 . S
C777 H761 0.959 . S
C777 H762 0.959 . S
C777 H763 0.961 . S
C777 C776 1.502 . S
C778 H764 0.960 . S
C778 H765 0.961 . S
C778 H766 0.959 . S
C778 C776 1.561 . S
C779 C776 1.526 . S
C779 C780 1.396 . S
C779 C784 1.390 . S
C780 C774 1.465 . S
C780 C779 1.396 . S
C780 C781 1.399 . S
C781 H767 0.929 . S
C781 C780 1.399 . S
C781 C782 1.385 . S
C782 H768 0.931 . S
C782 C781 1.385 . S
C782 C783 1.389 . S
C783 C782 1.389 . S
C783 C784 1.387 . S
C784 H769 0.930 . S
C784 C779 1.390 . S
C784 C783 1.387 . S
H785 C797 0.930 . S
H786 C799 0.930 . S
H787 C800 0.930 . S
H788 C804 0.959 . S
H789 C804 0.959 . S
H790 C804 0.961 . S
H791 C805 0.960 . S
H792 C805 0.961 . S
H793 C805 0.959 . S
H794 C808 0.929 1_545 S
H795 C809 0.931 . S
H796 C811 0.930 . S
C797 H785 0.930 . S
C797 C798 1.399 1_565 S
C797 C802 1.399 . S
C798 C797 1.399 1_545 S
C798 C799 1.376 . S
C799 H786 0.930 . S
C799 C798 1.376 . S
C799 C800 1.388 . S
C800 H787 0.930 . S
C800 C799 1.388 . S
C800 C801 1.390 1_545 S
C801 C800 1.390 1_565 S
C801 C802 1.394 . S
C801 C807 1.465 . S
C802 C797 1.399 . S
C802 C801 1.394 . S
C802 C803 1.516 . S
C803 C802 1.516 . S
C803 C804 1.502 . S
C803 C805 1.561 . S
C803 C806 1.526 . S
C804 H788 0.959 . S
C804 H789 0.959 . S
C804 H790 0.961 . S
C804 C803 1.502 . S
C805 H791 0.960 . S
C805 H792 0.961 . S
C805 H793 0.959 . S
C805 C803 1.561 . S
C806 C803 1.526 . S
C806 C807 1.396 . S
C806 C811 1.390 . S
C807 C801 1.465 . S
C807 C806 1.396 . S
C807 C808 1.399 . S
C808 H794 0.929 1_565 S
C808 C807 1.399 . S
C808 C809 1.385 . S
C809 H795 0.931 . S
C809 C808 1.385 . S
C809 C810 1.389 . S
C810 C809 1.389 . S
C810 C811 1.387 . S
C811 H796 0.930 . S
C811 C806 1.390 . S
C811 C810 1.387 . S
H812 C824 0.930 . S
H813 C826 0.930 . S
H814 C827 0.930 . S
H815 C831 0.959 . S
H816 C831 0.959 . S
H817 C831 0.961 . S
H818 C832 0.960 . S
H819 C832 0.961 . S
H820 C832 0.959 . S
H821 C835 0.929 . S
H822 C836 0.931 . S
H823 C838 0.930 . S
C824 H812 0.930 . S
C824 C825 1.399 . S
C824 C829 1.399 . S
C825 C824 1.399 . S
C825 C826 1.376 . S
C826 H813 0.930 . S
C826 C825 1.376 . S
C826 C827 1.388 . S
C827 H814 0.930 . S
C827 C826 1.388 . S
C827 C828 1.390 . S
C828 C827 1.390 . S
C828 C829 1.394 . S
C828 C834 1.465 . S
C829 C824 1.399 . S
C829 C828 1.394 . S
C829 C830 1.516 . S
C830 C829 1.516 . S
C830 C831 1.502 . S
C830 C832 1.561 . S
C830 C833 1.526 . S
C831 H815 0.959 . S
C831 H816 0.959 . S
C831 H817 0.961 . S
C831 C830 1.502 . S
C832 H818 0.960 . S
C832 H819 0.961 . S
C832 H820 0.959 . S
C832 C830 1.561 . S
C833 C830 1.526 . S
C833 C834 1.396 . S
C833 C838 1.390 . S
C834 C828 1.465 . S
C834 C833 1.396 . S
C834 C835 1.399 . S
C835 H821 0.929 . S
C835 C834 1.399 . S
C835 C836 1.385 . S
C836 H822 0.931 . S
C836 C835 1.385 . S
C836 C837 1.389 . S
C837 C836 1.389 . S
C837 C838 1.387 . S
C838 H823 0.930 . S
C838 C833 1.390 . S
C838 C837 1.387 . S
H839 C851 0.930 . S
H840 C853 0.930 . S
H841 C854 0.930 . S
H842 C858 0.959 . S
H843 C858 0.959 . S
H844 C858 0.961 . S
H845 C859 0.960 . S
H846 C859 0.961 . S
H847 C859 0.959 1_565 S
H848 C862 0.929 . S
H849 C863 0.931 . S
H850 C865 0.930 . S
C851 H839 0.930 . S
C851 C852 1.399 . S
C851 C856 1.399 1_545 S
C852 C851 1.399 . S
C852 C853 1.376 1_545 S
C853 H840 0.930 . S
C853 C852 1.376 1_565 S
C853 C854 1.388 . S
C854 H841 0.930 . S
C854 C853 1.388 . S
C854 C855 1.390 . S
C855 C854 1.390 . S
C855 C856 1.394 . S
C855 C861 1.465 . S
C856 C851 1.399 1_565 S
C856 C855 1.394 . S
C856 C857 1.516 1_565 S
C857 C856 1.516 1_545 S
C857 C858 1.502 . S
C857 C859 1.561 . S
C857 C860 1.526 1_545 S
C858 H842 0.959 . S
C858 H843 0.959 . S
C858 H844 0.961 . S
C858 C857 1.502 . S
C859 H845 0.960 . S
C859 H846 0.961 . S
C859 H847 0.959 1_545 S
C859 C857 1.561 . S
C860 C857 1.526 1_565 S
C860 C861 1.396 . S
C860 C865 1.390 . S
C861 C855 1.465 . S
C861 C860 1.396 . S
C861 C862 1.399 . S
C862 H848 0.929 . S
C862 C861 1.399 . S
C862 C863 1.385 . S
C863 H849 0.931 . S
C863 C862 1.385 . S
C863 C864 1.389 . S
C864 C863 1.389 . S
C864 C865 1.387 . S
C865 H850 0.930 . S
C865 C860 1.390 . S
C865 C864 1.387 . S
H866 C878 0.930 . S
H867 C880 0.930 . S
H868 C881 0.930 . S
H869 C885 0.959 . S
H870 C885 0.959 . S
H871 C885 0.961 . S
H872 C886 0.960 . S
H873 C886 0.961 . S
H874 C886 0.959 . S
H875 C889 0.929 . S
H876 C890 0.931 . S
H877 C892 0.930 . S
C878 H866 0.930 . S
C878 C879 1.399 . S
C878 C883 1.399 . S
C879 C878 1.399 . S
C879 C880 1.376 . S
C880 H867 0.930 . S
C880 C879 1.376 . S
C880 C881 1.388 . S
C881 H868 0.930 . S
C881 C880 1.388 . S
C881 C882 1.390 . S
C882 C881 1.390 . S
C882 C883 1.394 . S
C882 C888 1.465 . S
C883 C878 1.399 . S
C883 C882 1.394 . S
C883 C884 1.516 . S
C884 C883 1.516 . S
C884 C885 1.502 . S
C884 C886 1.561 . S
C884 C887 1.526 . S
C885 H869 0.959 . S
C885 H870 0.959 . S
C885 H871 0.961 . S
C885 C884 1.502 . S
C886 H872 0.960 . S
C886 H873 0.961 . S
C886 H874 0.959 . S
C886 C884 1.561 . S
C887 C884 1.526 . S
C887 C888 1.396 . S
C887 C892 1.390 . S
C888 C882 1.465 . S
C888 C887 1.396 . S
C888 C889 1.399 . S
C889 H875 0.929 . S
C889 C888 1.399 . S
C889 C890 1.385 . S
C890 H876 0.931 . S
C890 C889 1.385 . S
C890 C891 1.389 . S
C891 C890 1.389 . S
C891 C892 1.387 . S
C892 H877 0.930 . S
C892 C887 1.390 . S
C892 C891 1.387 . S
H893 C905 0.930 . S
H894 C907 0.930 . S
H895 C908 0.930 . S
H896 C912 0.959 . S
H897 C912 0.959 . S
H898 C912 0.961 . S
H899 C913 0.960 . S
H900 C913 0.961 . S
H901 C913 0.959 . S
H902 C916 0.929 1_565 S
H903 C917 0.931 . S
H904 C919 0.930 . S
C905 H893 0.930 . S
C905 C906 1.399 1_545 S
C905 C910 1.399 . S
C906 C905 1.399 1_565 S
C906 C907 1.376 . S
C907 H894 0.930 . S
C907 C906 1.376 . S
C907 C908 1.388 . S
C908 H895 0.930 . S
C908 C907 1.388 . S
C908 C909 1.390 1_565 S
C909 C908 1.390 1_545 S
C909 C910 1.394 . S
C909 C915 1.465 . S
C910 C905 1.399 . S
C910 C909 1.394 . S
C910 C911 1.516 . S
C911 C910 1.516 . S
C911 C912 1.502 . S
C911 C913 1.561 . S
C911 C914 1.526 . S
C912 H896 0.959 . S
C912 H897 0.959 . S
C912 H898 0.961 . S
C912 C911 1.502 . S
C913 H899 0.960 . S
C913 H900 0.961 . S
C913 H901 0.959 . S
C913 C911 1.561 . S
C914 C911 1.526 . S
C914 C915 1.396 . S
C914 C919 1.390 . S
C915 C909 1.465 . S
C915 C914 1.396 . S
C915 C916 1.399 . S
C916 H902 0.929 1_545 S
C916 C915 1.399 . S
C916 C917 1.385 . S
C917 H903 0.931 . S
C917 C916 1.385 . S
C917 C918 1.389 . S
C918 C917 1.389 . S
C918 C919 1.387 . S
C919 H904 0.930 . S
C919 C914 1.390 . S
C919 C918 1.387 . S
H920 C932 0.930 . S
H921 C934 0.930 . S
H922 C935 0.930 . S
H923 C939 0.959 . S
H924 C939 0.959 . S
H925 C939 0.961 1_455 S
H926 C940 0.960 . S
H927 C940 0.961 . S
H928 C940 0.959 . S
H929 C943 0.929 . S
H930 C944 0.931 . S
H931 C946 0.930 . S
C932 H920 0.930 . S
C932 C933 1.399 . S
C932 C937 1.399 . S
C933 C932 1.399 . S
C933 C934 1.376 . S
C934 H921 0.930 . S
C934 C933 1.376 . S
C934 C935 1.388 . S
C935 H922 0.930 . S
C935 C934 1.388 . S
C935 C936 1.390 . S
C936 C935 1.390 . S
C936 C937 1.394 . S
C936 C942 1.465 1_455 S
C937 C932 1.399 . S
C937 C936 1.394 . S
C937 C938 1.516 . S
C938 C937 1.516 . S
C938 C939 1.502 1_455 S
C938 C940 1.561 . S
C938 C941 1.526 1_455 S
C939 H923 0.959 . S
C939 H924 0.959 . S
C939 H925 0.961 1_655 S
C939 C938 1.502 1_655 S
C940 H926 0.960 . S
C940 H927 0.961 . S
C940 H928 0.959 . S
C940 C938 1.561 . S
C941 C938 1.526 1_655 S
C941 C942 1.396 . S
C941 C946 1.390 . S
C942 C936 1.465 1_655 S
C942 C941 1.396 . S
C942 C943 1.399 . S
C943 H929 0.929 . S
C943 C942 1.399 . S
C943 C944 1.385 . S
C944 H930 0.931 . S
C944 C943 1.385 . S
C944 C945 1.389 . S
C945 C944 1.389 . S
C945 C946 1.387 . S
C946 H931 0.930 . S
C946 C941 1.390 . S
C946 C945 1.387 . S
H947 C959 0.930 . S
H948 C961 0.930 . S
H949 C962 0.930 . S
H950 C966 0.959 . S
H951 C966 0.959 . S
H952 C966 0.961 . S
H953 C967 0.960 . S
H954 C967 0.961 . S
H955 C967 0.959 . S
H956 C970 0.929 . S
H957 C971 0.931 . S
H958 C973 0.943 . S
C959 H947 0.930 . S
C959 C960 1.399 . S
C959 C964 1.399 . S
C960 C959 1.399 . S
C960 C961 1.376 1_565 S
C961 H948 0.930 . S
C961 C960 1.376 1_545 S
C961 C962 1.388 . S
C962 H949 0.930 . S
C962 C961 1.388 . S
C962 C963 1.390 . S
C963 C962 1.390 . S
C963 C964 1.394 1_545 S
C963 C969 1.465 . S
C964 C959 1.399 . S
C964 C963 1.394 1_565 S
C964 C965 1.516 . S
C965 C964 1.516 . S
C965 C966 1.502 . S
C965 C967 1.561 . S
C965 C968 1.526 . S
C966 H950 0.959 . S
C966 H951 0.959 . S
C966 H952 0.961 . S
C966 C965 1.502 . S
C967 H953 0.960 . S
C967 H954 0.961 . S
C967 H955 0.959 . S
C967 C965 1.561 . S
C968 C965 1.526 . S
C968 C969 1.396 1_565 S
C968 C973 1.392 . S
C969 C963 1.465 . S
C969 C968 1.396 1_545 S
C969 C970 1.399 . S
C970 H956 0.929 . S
C970 C969 1.399 . S
C970 C971 1.385 . S
C971 H957 0.931 . S
C971 C970 1.385 . S
C971 C972 1.389 . S
C972 C971 1.389 . S
C972 C973 1.371 1_545 S
C973 H958 0.943 . S
C973 C968 1.392 . S
C973 C972 1.371 1_565 S
H974 C986 0.930 . S
H975 C988 0.930 . S
H976 C989 0.930 1_556 S
H977 C993 0.959 . S
H978 C993 0.959 . S
H979 C993 0.961 . S
H980 C994 0.960 . S
H981 C994 0.951 1_556 S
H982 C994 0.959 1_556 S
H983 C997 0.929 . S
H984 C998 0.931 . S
H985 C1000 0.930 . S
C986 H974 0.930 . S
C986 C987 1.399 . S
C986 C991 1.399 . S
C987 C986 1.399 . S
C987 C988 1.376 . S
C988 H975 0.930 . S
C988 C987 1.376 . S
C988 C989 1.388 . S
C989 H976 0.930 1_554 S
C989 C988 1.388 . S
C989 C990 1.390 . S
C990 C989 1.390 . S
C990 C991 1.394 . S
C990 C996 1.465 1_554 S
C991 C986 1.399 . S
C991 C990 1.394 . S
C991 C992 1.516 . S
C992 C991 1.516 . S
C992 C993 1.502 . S
C992 C994 1.561 . S
C992 C995 1.526 1_554 S
C993 H977 0.959 . S
C993 H978 0.959 . S
C993 H979 0.961 . S
C993 C992 1.502 . S
C994 H980 0.960 . S
C994 H981 0.951 1_554 S
C994 H982 0.959 1_554 S
C994 C992 1.561 . S
C995 C992 1.526 1_556 S
C995 C996 1.396 . S
C995 C1000 1.390 . S
C996 C990 1.465 1_556 S
C996 C995 1.396 . S
C996 C997 1.399 . S
C997 H983 0.929 . S
C997 C996 1.399 . S
C997 C998 1.385 . S
C998 H984 0.931 . S
C998 C997 1.385 . S
C998 C999 1.389 . S
C999 C998 1.389 . S
C999 C1000 1.387 . S
C1000 H985 0.930 . S
C1000 C995 1.390 . S
C1000 C999 1.387 . S
H1001 C1013 0.930 . S
H1002 C1015 0.930 . S
H1003 C1016 0.930 1_554 S
H1004 C1020 0.959 . S
H1005 C1020 0.959 . S
H1006 C1020 0.974 . S
H1007 C1021 0.960 . S
H1008 C1021 0.961 . S
H1009 C1021 0.959 . S
H1010 C1024 0.929 . S
H1011 C1025 0.931 . S
H1012 C1027 0.930 . S
C1013 H1001 0.930 . S
C1013 C1014 1.399 . S
C1013 C1018 1.399 . S
C1014 C1013 1.399 . S
C1014 C1015 1.376 . S
C1015 H1002 0.930 . S
C1015 C1014 1.376 . S
C1015 C1016 1.388 . S
C1016 H1003 0.930 1_556 S
C1016 C1015 1.388 . S
C1016 C1017 1.390 . S
C1017 C1016 1.390 . S
C1017 C1018 1.394 . S
C1017 C1023 1.465 1_566 S
C1018 C1013 1.399 . S
C1018 C1017 1.394 . S
C1018 C1019 1.516 1_455 S
C1019 C1018 1.516 1_655 S
C1019 C1020 1.502 1_565 S
C1019 C1021 1.561 . S
C1019 C1022 1.526 1_566 S
C1020 H1004 0.959 . S
C1020 H1005 0.959 . S
C1020 H1006 0.974 . S
C1020 C1019 1.502 1_545 S
C1021 H1007 0.960 . S
C1021 H1008 0.961 . S
C1021 H1009 0.959 . S
C1021 C1019 1.561 . S
C1022 C1019 1.526 1_544 S
C1022 C1023 1.396 1_655 S
C1022 C1027 1.390 . S
C1023 C1017 1.465 1_544 S
C1023 C1022 1.396 1_455 S
C1023 C1024 1.399 . S
C1024 H1010 0.929 . S
C1024 C1023 1.399 . S
C1024 C1025 1.385 1_455 S
C1025 H1011 0.931 . S
C1025 C1024 1.385 1_655 S
C1025 C1026 1.389 . S
C1026 C1025 1.389 . S
C1026 C1027 1.387 . S
C1027 H1012 0.930 . S
C1027 C1022 1.390 . S
C1027 C1026 1.387 . S
H1028 C1040 0.930 . S
H1029 C1042 0.930 . S
H1030 C1043 0.930 . S
H1031 C1047 0.959 . S
H1032 C1047 0.959 . S
H1033 C1047 0.961 . S
H1034 C1048 0.960 . S
H1035 C1048 0.961 . S
H1036 C1048 0.959 . S
H1037 C1051 0.929 . S
H1038 C1052 0.931 . S
H1039 C1054 0.930 . S
C1040 H1028 0.930 . S
C1040 C1041 1.399 . S
C1040 C1045 1.399 . S
C1041 C1040 1.399 . S
C1041 C1042 1.376 . S
C1042 H1029 0.930 . S
C1042 C1041 1.376 . S
C1042 C1043 1.388 . S
C1043 H1030 0.930 . S
C1043 C1042 1.388 . S
C1043 C1044 1.390 . S
C1044 C1043 1.390 . S
C1044 C1045 1.394 . S
C1044 C1050 1.465 . S
C1045 C1040 1.399 . S
C1045 C1044 1.394 . S
C1045 C1046 1.516 . S
C1046 C1045 1.516 . S
C1046 C1047 1.502 . S
C1046 C1048 1.561 . S
C1046 C1049 1.526 . S
C1047 H1031 0.959 . S
C1047 H1032 0.959 . S
C1047 H1033 0.961 . S
C1047 C1046 1.502 . S
C1048 H1034 0.960 . S
C1048 H1035 0.961 . S
C1048 H1036 0.959 . S
C1048 C1046 1.561 . S
C1049 C1046 1.526 . S
C1049 C1050 1.396 . S
C1049 C1054 1.390 . S
C1050 C1044 1.465 . S
C1050 C1049 1.396 . S
C1050 C1051 1.399 . S
C1051 H1037 0.929 . S
C1051 C1050 1.399 . S
C1051 C1052 1.385 . S
C1052 H1038 0.931 . S
C1052 C1051 1.385 . S
C1052 C1053 1.389 . S
C1053 C1052 1.389 . S
C1053 C1054 1.387 . S
C1054 H1039 0.930 . S
C1054 C1049 1.390 . S
C1054 C1053 1.387 . S
H1055 C1067 0.930 . S
H1056 C1069 0.930 . S
H1057 C1070 0.930 . S
H1058 C1074 0.959 . S
H1059 C1074 0.959 . S
H1060 C1074 0.961 . S
H1061 C1075 0.960 . S
H1062 C1075 0.961 . S
H1063 C1075 0.959 . S
H1064 C1078 0.929 . S
H1065 C1079 0.931 . S
H1066 C1081 0.930 . S
C1067 H1055 0.930 . S
C1067 C1068 1.399 . S
C1067 C1072 1.399 . S
C1068 C1067 1.399 . S
C1068 C1069 1.376 . S
C1069 H1056 0.930 . S
C1069 C1068 1.376 . S
C1069 C1070 1.388 . S
C1070 H1057 0.930 . S
C1070 C1069 1.388 . S
C1070 C1071 1.390 . S
C1071 C1070 1.390 . S
C1071 C1072 1.394 . S
C1071 C1077 1.465 . S
C1072 C1067 1.399 . S
C1072 C1071 1.394 . S
C1072 C1073 1.516 . S
C1073 C1072 1.516 . S
C1073 C1074 1.502 . S
C1073 C1075 1.561 . S
C1073 C1076 1.526 . S
C1074 H1058 0.959 . S
C1074 H1059 0.959 . S
C1074 H1060 0.961 . S
C1074 C1073 1.502 . S
C1075 H1061 0.960 . S
C1075 H1062 0.961 . S
C1075 H1063 0.959 . S
C1075 C1073 1.561 . S
C1076 C1073 1.526 . S
C1076 C1077 1.396 . S
C1076 C1081 1.390 . S
C1077 C1071 1.465 . S
C1077 C1076 1.396 . S
C1077 C1078 1.399 . S
C1078 H1064 0.929 . S
C1078 C1077 1.399 . S
C1078 C1079 1.385 . S
C1079 H1065 0.931 . S
C1079 C1078 1.385 . S
C1079 C1080 1.389 . S
C1080 C1079 1.389 . S
C1080 C1081 1.387 . S
C1081 H1066 0.930 . S
C1081 C1076 1.390 . S
C1081 C1080 1.387 . S
H1082 C1094 0.930 . S
H1083 C1096 0.930 . S
H1084 C1097 0.930 . S
H1085 C1101 0.959 . S
H1086 C1101 0.959 . S
H1087 C1101 0.961 . S
H1088 C1102 0.960 . S
H1089 C1102 0.961 . S
H1090 C1102 0.959 . S
H1091 C1105 0.929 . S
H1092 C1106 0.931 . S
H1093 C1108 0.930 . S
C1094 H1082 0.930 . S
C1094 C1095 1.399 . S
C1094 C1099 1.399 . S
C1095 C1094 1.399 . S
C1095 C1096 1.376 . S
C1096 H1083 0.930 . S
C1096 C1095 1.376 . S
C1096 C1097 1.388 . S
C1097 H1084 0.930 . S
C1097 C1096 1.388 . S
C1097 C1098 1.390 . S
C1098 C1097 1.390 . S
C1098 C1099 1.394 . S
C1098 C1104 1.465 . S
C1099 C1094 1.399 . S
C1099 C1098 1.394 . S
C1099 C1100 1.516 . S
C1100 C1099 1.516 . S
C1100 C1101 1.502 . S
C1100 C1102 1.561 . S
C1100 C1103 1.526 . S
C1101 H1085 0.959 . S
C1101 H1086 0.959 . S
C1101 H1087 0.961 . S
C1101 C1100 1.502 . S
C1102 H1088 0.960 . S
C1102 H1089 0.961 . S
C1102 H1090 0.959 . S
C1102 C1100 1.561 . S
C1103 C1100 1.526 . S
C1103 C1104 1.396 . S
C1103 C1108 1.390 . S
C1104 C1098 1.465 . S
C1104 C1103 1.396 . S
C1104 C1105 1.399 . S
C1105 H1091 0.929 . S
C1105 C1104 1.399 . S
C1105 C1106 1.385 . S
C1106 H1092 0.931 . S
C1106 C1105 1.385 . S
C1106 C1107 1.389 . S
C1107 C1106 1.389 . S
C1107 C1108 1.387 . S
C1108 H1093 0.930 . S
C1108 C1103 1.390 . S
C1108 C1107 1.387 . S
H1109 C1121 0.930 . S
H1110 C1123 0.930 . S
H1111 C1124 0.930 . S
H1112 C1128 0.959 . S
H1113 C1128 0.959 . S
H1114 C1128 0.961 . S
H1115 C1129 0.960 . S
H1116 C1129 0.961 . S
H1117 C1129 0.959 . S
H1118 C1132 0.929 . S
H1119 C1133 0.931 . S
H1120 C1135 0.930 . S
C1121 H1109 0.930 . S
C1121 C1122 1.399 . S
C1121 C1126 1.399 . S
C1122 C1121 1.399 . S
C1122 C1123 1.376 . S
C1123 H1110 0.930 . S
C1123 C1122 1.376 . S
C1123 C1124 1.388 . S
C1124 H1111 0.930 . S
C1124 C1123 1.388 . S
C1124 C1125 1.390 . S
C1125 C1124 1.390 . S
C1125 C1126 1.394 . S
C1125 C1131 1.465 . S
C1126 C1121 1.399 . S
C1126 C1125 1.394 . S
C1126 C1127 1.516 . S
C1127 C1126 1.516 . S
C1127 C1128 1.502 . S
C1127 C1129 1.561 . S
C1127 C1130 1.526 . S
C1128 H1112 0.959 . S
C1128 H1113 0.959 . S
C1128 H1114 0.961 . S
C1128 C1127 1.502 . S
C1129 H1115 0.960 . S
C1129 H1116 0.961 . S
C1129 H1117 0.959 . S
C1129 C1127 1.561 . S
C1130 C1127 1.526 . S
C1130 C1131 1.396 . S
C1130 C1135 1.390 . S
C1131 C1125 1.465 . S
C1131 C1130 1.396 . S
C1131 C1132 1.399 . S
C1132 H1118 0.929 . S
C1132 C1131 1.399 . S
C1132 C1133 1.385 . S
C1133 H1119 0.931 . S
C1133 C1132 1.385 . S
C1133 C1134 1.389 . S
C1134 C1133 1.389 . S
C1134 C1135 1.387 . S
C1135 H1120 0.930 . S
C1135 C1130 1.390 . S
C1135 C1134 1.387 . S
C717 C57 0.989 . S
C729 C233 0.952 . S
C744 C321 0.986 . S
C756 C108 0.949 . S
C771 C196 0.935 . S
C783 C20 0.986 . S
C798 C284 0.926 . S
C810 C145 0.938 . S
C825 C585 0.948 . S
C837 C372 0.965 . S
C852 C469 0.951 . S
C864 C673 0.961 . S
C879 C577 0.951 . S
C891 C381 0.925 . S
C906 C665 0.958 . S
C918 C460 0.921 . S
C933 C29 1.702 . S
C945 C401 1.693 . S
C960 C137 1.669 . S
C972 C497 1.707 . S
C987 C225 1.710 . S
C999 C548 1.685 . S
C1014 C636 1.719 . S
C1026 C313 1.663 . S
C1041 C49 1.706 . S
C1053 C117 1.684 . S
C1068 C293 1.663 . S
C1080 C205 1.697 . S
C1095 C489 1.700 . S
C1107 C409 1.693 . S
C1122 C557 1.679 . S
C1134 C645 1.714 . S
