# Generated by pormake.
# Topology ske, (6)-cn, num edge types: 1
# Building blocks:
#     Node 0, Type 0, BuildingBlock: KUMBOL_clean_sbu_1, # of connection points: 6
#     Node 1, Type 0, BuildingBlock: KUMBOL_clean_sbu_1, # of connection points: 6
#     Node 2, Type 0, BuildingBlock: KUMBOL_clean_sbu_1, # of connection points: 6
#     Node 3, Type 0, BuildingBlock: KUMBOL_clean_sbu_1, # of connection points: 6
#     Node 4, Type 0, BuildingBlock: KUMBOL_clean_sbu_1, # of connection points: 6
#     Node 5, Type 0, BuildingBlock: KUMBOL_clean_sbu_1, # of connection points: 6
#     Node 6, Type 0, BuildingBlock: KUMBOL_clean_sbu_1, # of connection points: 6
#     Node 7, Type 0, BuildingBlock: KUMBOL_clean_sbu_1, # of connection points: 6
#     Edge 8, Type (0, 0), BuildingBlock: EZIPEK_clean_linker_0, # of connection points: 2
#     Edge 9, Type (0, 0), BuildingBlock: EZIPEK_clean_linker_0, # of connection points: 2
#     Edge 10, Type (0, 0), BuildingBlock: EZIPEK_clean_linker_0, # of connection points: 2
#     Edge 11, Type (0, 0), BuildingBlock: EZIPEK_clean_linker_0, # of connection points: 2
#     Edge 12, Type (0, 0), BuildingBlock: EZIPEK_clean_linker_0, # of connection points: 2
#     Edge 13, Type (0, 0), BuildingBlock: EZIPEK_clean_linker_0, # of connection points: 2
#     Edge 14, Type (0, 0), BuildingBlock: EZIPEK_clean_linker_0, # of connection points: 2
#     Edge 15, Type (0, 0), BuildingBlock: EZIPEK_clean_linker_0, # of connection points: 2
#     Edge 16, Type (0, 0), BuildingBlock: EZIPEK_clean_linker_0, # of connection points: 2
#     Edge 17, Type (0, 0), BuildingBlock: EZIPEK_clean_linker_0, # of connection points: 2
#     Edge 18, Type (0, 0), BuildingBlock: EZIPEK_clean_linker_0, # of connection points: 2
#     Edge 19, Type (0, 0), BuildingBlock: EZIPEK_clean_linker_0, # of connection points: 2
#     Edge 20, Type (0, 0), BuildingBlock: EZIPEK_clean_linker_0, # of connection points: 2
#     Edge 21, Type (0, 0), BuildingBlock: EZIPEK_clean_linker_0, # of connection points: 2
#     Edge 22, Type (0, 0), BuildingBlock: EZIPEK_clean_linker_0, # of connection points: 2
#     Edge 23, Type (0, 0), BuildingBlock: EZIPEK_clean_linker_0, # of connection points: 2
#     Edge 24, Type (0, 0), BuildingBlock: EZIPEK_clean_linker_0, # of connection points: 2
#     Edge 25, Type (0, 0), BuildingBlock: EZIPEK_clean_linker_0, # of connection points: 2
#     Edge 26, Type (0, 0), BuildingBlock: EZIPEK_clean_linker_0, # of connection points: 2
#     Edge 27, Type (0, 0), BuildingBlock: EZIPEK_clean_linker_0, # of connection points: 2
#     Edge 28, Type (0, 0), BuildingBlock: EZIPEK_clean_linker_0, # of connection points: 2
#     Edge 29, Type (0, 0), BuildingBlock: EZIPEK_clean_linker_0, # of connection points: 2
#     Edge 30, Type (0, 0), BuildingBlock: EZIPEK_clean_linker_0, # of connection points: 2
#     Edge 31, Type (0, 0), BuildingBlock: EZIPEK_clean_linker_0, # of connection points: 2
# Relax obj value: 0.211
# Max RMSD: 0.238
# Mean RMSD: 0.234
data_MOF--net-ske--node1-KUMBOL_clean_sbu_1--edge1-EZIPEK_clean_linker_0
_symmetry_space_group_name_H-M    P1
_symmetry_Int_Tables_number       1
_symmetry_cell_setting            triclinic
loop_
_symmetry_equiv_pos_as_xyz
'x, y, z'
_cell_length_a     84.130093
_cell_length_b     21.812942
_cell_length_c     11.278211
_cell_angle_alpha  99.252919
_cell_angle_beta   89.991706
_cell_angle_gamma 90.043023
loop_
_atom_site_label
_atom_site_type_symbol
_atom_site_fract_x
_atom_site_fract_y
_atom_site_fract_z
_atom_type_partial_charge
C0 C 0.08639 0.20865 0.75814 0.0
C1 C 0.07596 0.30412 0.8722 0.0
C2 C 0.0847 0.27303 0.77375 0.0
C3 C 0.06923 0.27007 0.95517 0.0
C4 C 0.07913 0.17419 0.83889 0.0
C5 C 0.07074 0.20534 0.93815 0.0
N6 N 0.09481 0.17963 0.66239 0.0
C7 C 0.09495 0.11642 0.63484 0.0
C8 C 0.08017 0.10927 0.81576 0.0
C9 C 0.08787 0.08024 0.71206 0.0
Gd10 Gd 0.15277 0.27389 0.5358 0.0
Gd11 Gd 0.10553 0.24377 0.53564 0.0
N12 N 0.09132 0.30493 0.69157 0.0
C13 C 0.07399 0.36846 0.88326 0.0
C14 C 0.08869 0.36719 0.69889 0.0
C15 C 0.08024 0.39996 0.79551 0.0
H16 H 0.0928 0.39204 0.63018 0.0
H17 H 0.07841 0.44948 0.80157 0.0
H18 H 0.16857 0.13604 0.43287 0.0
H19 H 0.10051 0.09362 0.55327 0.0
H20 H 0.18129 0.08232 0.24668 0.0
H21 H 0.06739 0.39401 0.95771 0.0
H22 H 0.06253 0.29322 0.03155 0.0
H23 H 0.15229 0.42738 0.50908 0.0
H24 H 0.0747 0.08117 0.87553 0.0
H25 H 0.08832 0.03005 0.69128 0.0
H26 H 0.18329 0.23777 0.98975 0.0
H27 H 0.06511 0.1797 1.00103 0.0
H28 H 0.16518 0.44252 0.14925 0.0
H29 H 0.15577 0.49101 0.3501 0.0
N30 N 0.15691 0.3417 0.39509 0.0
C31 C 0.16352 0.31509 0.28875 0.0
C32 C 0.15511 0.40466 0.41983 0.0
C33 C 0.16306 0.41385 0.2177 0.0
C34 C 0.15766 0.44135 0.33073 0.0
C35 C 0.16654 0.35033 0.19663 0.0
H36 H 0.17562 0.34789 0.01604 0.0
N37 N 0.16514 0.2201 0.36448 0.0
C38 C 0.16807 0.25295 0.27398 0.0
C39 C 0.17997 0.16216 0.15653 0.0
C40 C 0.17536 0.22449 0.16668 0.0
C41 C 0.17023 0.16038 0.35756 0.0
C42 C 0.17754 0.13017 0.25289 0.0
O43 O 0.117 0.24989 0.72284 0.0
O44 O 0.14379 0.27739 0.72785 0.0
O45 O 0.17533 0.23947 0.59513 0.0
O46 O 0.17145 0.33793 0.60677 0.0
O47 O 0.11359 0.3386 0.50434 0.0
O48 O 0.13702 0.35638 0.60772 0.0
O49 O 0.13943 0.23071 0.36325 0.0
O50 O 0.11558 0.27985 0.37138 0.0
O51 O 0.08092 0.25993 0.48819 0.0
O52 O 0.09358 0.17642 0.40195 0.0
O53 O 0.14572 0.18092 0.58758 0.0
O54 O 0.12188 0.16041 0.48736 0.0
C55 C 0.13049 0.26462 0.78136 0.0
C56 C 0.12374 0.37701 0.56577 0.0
C57 C 0.1978 0.30221 0.57169 0.0
C58 C 0.22658 0.29555 0.59397 0.0
C59 C 0.21545 0.3364 0.42439 0.0
C60 C 0.20013 0.32786 0.46642 0.0
C61 C 0.22864 0.32036 0.48776 0.0
C62 C 0.21112 0.28612 0.63546 0.0
C63 C 0.18165 0.29452 0.61845 0.0
C64 C 0.17783 0.25899 0.07338 0.0
C65 C 0.17339 0.32165 0.08817 0.0
H66 H 0.18557 0.13857 0.07536 0.0
C67 C 0.12807 0.2574 0.30859 0.0
C68 C 0.13389 0.14303 0.5493 0.0
C69 C 0.06592 0.18688 0.34362 0.0
C70 C 0.03709 0.18604 0.3185 0.0
C71 C 0.05361 0.11748 0.17905 0.0
C72 C 0.06719 0.14066 0.24183 0.0
C73 C 0.03865 0.14002 0.21694 0.0
C74 C 0.05077 0.20981 0.38159 0.0
C75 C 0.0803 0.20771 0.41374 0.0
H76 H 0.21709 0.35615 0.34313 0.0
H77 H 0.19016 0.34226 0.41755 0.0
H78 H 0.24046 0.32781 0.45474 0.0
H79 H 0.20951 0.26708 0.71774 0.0
H80 H 0.0547 0.08182 0.10078 0.0
H81 H 0.07868 0.12213 0.211 0.0
H82 H 0.02822 0.12116 0.16761 0.0
H83 H 0.04954 0.24461 0.46126 0.0
C84 C 0.83224 0.31207 0.34326 0.0
C85 C 0.82185 0.22134 0.21267 0.0
C86 C 0.83068 0.24774 0.3145 0.0
C87 C 0.81457 0.26016 0.1407 0.0
C88 C 0.82475 0.35111 0.27185 0.0
C89 C 0.81598 0.3248 0.17036 0.0
N90 N 0.84109 0.33643 0.44053 0.0
C91 C 0.84208 0.3992 0.47554 0.0
C92 C 0.82628 0.41554 0.3047 0.0
C93 C 0.83489 0.43965 0.40745 0.0
Gd94 Gd 0.8998 0.23982 0.54804 0.0
Gd95 Gd 0.85202 0.26417 0.55014 0.0
N96 N 0.83801 0.21105 0.38504 0.0
C97 C 0.82058 0.15659 0.18617 0.0
C98 C 0.83634 0.14802 0.36182 0.0
C99 C 0.82778 0.11986 0.26144 0.0
H100 H 0.84135 0.11908 0.42099 0.0
H101 H 0.82662 0.06981 0.24275 0.0
H102 H 0.90963 0.38109 0.69183 0.0
H103 H 0.84796 0.41846 0.55809 0.0
H104 H 0.91958 0.42789 0.89318 0.0
H105 H 0.81392 0.13455 0.10862 0.0
H106 H 0.80775 0.24066 0.06211 0.0
H107 H 0.90264 0.08314 0.5343 0.0
H108 H 0.82068 0.44705 0.25231 0.0
H109 H 0.83582 0.4894 0.43522 0.0
H110 H 0.92614 0.25395 0.09922 0.0
H111 H 0.81021 0.35407 0.11424 0.0
H112 H 0.91782 0.04966 0.8793 0.0
H113 H 0.90942 0.01002 0.67101 0.0
N114 N 0.90555 0.16384 0.66695 0.0
C115 C 0.91154 0.18673 0.77759 0.0
C116 C 0.90547 0.10126 0.62655 0.0
C117 C 0.91467 0.08211 0.81984 0.0
C118 C 0.90976 0.05954 0.70287 0.0
C119 C 0.91579 0.14631 0.85796 0.0
H120 H 0.92289 0.1403 0.03883 0.0
N121 N 0.90925 0.28944 0.73311 0.0
C122 C 0.91349 0.25089 0.81146 0.0
C123 C 0.92104 0.34001 0.95694 0.0
C124 C 0.91909 0.27554 0.92689 0.0
C125 C 0.91208 0.35183 0.75839 0.0
C126 C 0.91776 0.37821 0.87164 0.0
O127 O 0.86294 0.25469 0.36123 0.0
O128 O 0.89054 0.24118 0.35651 0.0
O129 O 0.92172 0.28448 0.49887 0.0
O130 O 0.92098 0.18577 0.49767 0.0
O131 O 0.86041 0.16803 0.56871 0.0
O132 O 0.88445 0.15696 0.46816 0.0
O133 O 0.88572 0.27791 0.72081 0.0
O134 O 0.8624 0.22549 0.70975 0.0
O135 O 0.82857 0.23591 0.60194 0.0
O136 O 0.83856 0.32356 0.68779 0.0
O137 O 0.89264 0.33149 0.49934 0.0
O138 O 0.86874 0.34691 0.59875 0.0
C139 C 0.87668 0.24772 0.30295 0.0
C140 C 0.87181 0.1332 0.51406 0.0
C141 C 0.94218 0.22208 0.39141 0.0
C142 C 0.97042 0.21534 0.34016 0.0
C143 C 0.95065 0.17533 0.19169 0.0
C144 C 0.9385 0.19228 0.27519 0.0
C145 C 0.96646 0.18703 0.22363 0.0
C146 C 0.95823 0.23374 0.42388 0.0
C147 C 0.92979 0.23299 0.48457 0.0
C148 C 0.92235 0.23538 1.00897 0.0
C149 C 0.92069 0.17103 0.9745 0.0
H150 H 0.92528 0.36064 0.04508 0.0
C151 C 0.87474 0.24827 0.77303 0.0
C152 C 0.88022 0.36634 0.53347 0.0
C153 C 0.8102 0.31554 0.67453 0.0
C154 C 0.78146 0.3085 0.70331 0.0
C155 C 0.79314 0.40359 0.65675 0.0
C156 C 0.80827 0.37707 0.65456 0.0
C157 C 0.7798 0.36966 0.68141 0.0
C158 C 0.79667 0.28134 0.69856 0.0
C159 C 0.82614 0.28703 0.67676 0.0
H160 H 0.94803 0.15142 0.10255 0.0
H161 H 0.92628 0.18095 0.25049 0.0
H162 H 0.97569 0.1722 0.15824 0.0
H163 H 0.96126 0.25436 0.51501 0.0
H164 H 0.79178 0.45096 0.64095 0.0
H165 H 0.8184 0.40514 0.6391 0.0
H166 H 0.76818 0.39124 0.68456 0.0
H167 H 0.79799 0.23419 0.71623 0.0
C168 C 0.09577 0.80735 0.27788 0.0
C169 C 0.08362 0.71443 0.16552 0.0
C170 C 0.0912 0.74527 0.26975 0.0
C171 C 0.08066 0.74654 0.06946 0.0
C172 C 0.09245 0.83992 0.1823 0.0
C173 C 0.08505 0.80904 0.07784 0.0
N174 N 0.10339 0.83579 0.37886 0.0
C175 C 0.1061 0.89831 0.39511 0.0
C176 C 0.09647 0.90289 0.19506 0.0
C177 C 0.10303 0.93245 0.30285 0.0
Gd178 Gd 0.15535 0.74248 0.51841 0.0
Gd179 Gd 0.10794 0.77191 0.52543 0.0
N180 N 0.0947 0.71443 0.36229 0.0
C181 C 0.07934 0.65198 0.16057 0.0
C182 C 0.0901 0.65434 0.35991 0.0
C183 C 0.08247 0.62199 0.25862 0.0
H184 H 0.09231 0.63149 0.43644 0.0
H185 H 0.07904 0.57398 0.25619 0.0
H186 H 0.16835 0.88464 0.64288 0.0
H187 H 0.10999 0.92302 0.48024 0.0
H188 H 0.18402 0.93124 0.81893 0.0
H189 H 0.07353 0.62665 0.08189 0.0
H190 H 0.07494 0.72348 0.98831 0.0
H191 H 0.15967 0.58784 0.49859 0.0
H192 H 0.09408 0.92953 0.1238 0.0
H193 H 0.10548 0.9818 0.31579 0.0
H194 H 0.2 0.75733 1.00265 0.0
H195 H 0.08255 0.83326 1.00323 0.0
H196 H 0.18606 0.55339 0.80497 0.0
H197 H 0.17174 0.51421 0.61643 0.0
N198 N 0.16603 0.6679 0.62346 0.0
C199 C 0.17479 0.69063 0.72219 0.0
C200 C 0.16544 0.60557 0.58251 0.0
C201 C 0.18059 0.58599 0.75436 0.0
C202 C 0.17249 0.56366 0.64815 0.0
C203 C 0.18207 0.65015 0.79159 0.0
H204 H 0.1965 0.64439 0.94864 0.0
N205 N 0.17029 0.79258 0.68091 0.0
C206 C 0.17702 0.7546 0.75163 0.0
C207 C 0.18853 0.84365 0.87771 0.0
C208 C 0.18621 0.7793 0.85265 0.0
C209 C 0.17303 0.85503 0.70213 0.0
C210 C 0.18205 0.88156 0.80142 0.0
O211 O 0.12095 0.73211 0.34988 0.0
O212 O 0.14469 0.78184 0.36077 0.0
O213 O 0.17906 0.76797 0.46565 0.0
O214 O 0.16786 0.68401 0.37432 0.0
O215 O 0.11508 0.67954 0.57838 0.0
O216 O 0.1384 0.66053 0.47143 0.0
O217 O 0.14476 0.75901 0.71054 0.0
O218 O 0.11701 0.75968 0.71048 0.0
O219 O 0.0832 0.74869 0.56304 0.0
O220 O 0.09263 0.83959 0.62919 0.0
O221 O 0.14755 0.83899 0.49836 0.0
O222 O 0.12349 0.8554 0.5942 0.0
C223 C 0.13241 0.75883 0.29669 0.0
C224 C 0.12704 0.64261 0.53907 0.0
C225 C 0.19628 0.68551 0.38317 0.0
C226 C 0.22525 0.68815 0.36285 0.0
C227 C 0.21179 0.59081 0.37458 0.0
C228 C 0.19713 0.6211 0.38307 0.0
C229 C 0.22578 0.624 0.36433 0.0
C230 C 0.21046 0.71885 0.37285 0.0
C231 C 0.18075 0.71788 0.38661 0.0
C232 C 0.19296 0.73914 0.92438 0.0
C233 C 0.19093 0.67478 0.89377 0.0
H234 H 0.1955 0.86441 0.95455 0.0
C235 C 0.13082 0.76075 0.76692 0.0
C236 C 0.13719 0.87625 0.55984 0.0
C237 C 0.06533 0.8351 0.57807 0.0
C238 C 0.03625 0.84315 0.57526 0.0
C239 C 0.05265 0.92546 0.5177 0.0
C240 C 0.06634 0.89293 0.53819 0.0
C241 C 0.03774 0.90134 0.53771 0.0
C242 C 0.05018 0.80955 0.59346 0.0
C243 C 0.07996 0.80496 0.61459 0.0
H244 H 0.21231 0.54125 0.37494 0.0
H245 H 0.18648 0.59378 0.38795 0.0
H246 H 0.23705 0.59966 0.35733 0.0
H247 H 0.21002 0.76839 0.37139 0.0
H248 H 0.05361 0.97022 0.48844 0.0
H249 H 0.07771 0.91417 0.52586 0.0
H250 H 0.02729 0.92825 0.52367 0.0
H251 H 0.04921 0.76494 0.62353 0.0
C252 C 0.83308 0.7491 0.70327 0.0
C253 C 0.82499 0.85576 0.76845 0.0
C254 C 0.83298 0.81062 0.68607 0.0
C255 C 0.81757 0.83832 0.86966 0.0
C256 C 0.82525 0.73097 0.80257 0.0
C257 C 0.81768 0.77606 0.88659 0.0
N258 N 0.84073 0.70673 0.62169 0.0
C259 C 0.83977 0.6449 0.62749 0.0
C260 C 0.82502 0.66787 0.81313 0.0
C261 C 0.83212 0.62453 0.72414 0.0
Gd262 Gd 0.90093 0.74592 0.45456 0.0
Gd263 Gd 0.85322 0.74389 0.46193 0.0
N264 N 0.84026 0.82593 0.58707 0.0
C265 C 0.82446 0.91689 0.74563 0.0
C266 C 0.83872 0.88454 0.56017 0.0
C267 C 0.83114 0.93108 0.64008 0.0
H268 H 0.84297 0.89569 0.476 0.0
H269 H 0.83025 0.97769 0.61923 0.0
H270 H 0.90937 0.59355 0.39687 0.0
H271 H 0.845 0.61126 0.55776 0.0
H272 H 0.92193 0.52006 0.23522 0.0
H273 H 0.81851 0.95298 0.80693 0.0
H274 H 0.81151 0.87248 0.93439 0.0
H275 H 0.90403 0.88836 0.36986 0.0
H276 H 0.8191 0.65202 0.88799 0.0
H277 H 0.83165 0.57548 0.72966 0.0
H278 H 0.93723 0.64646 0.94351 0.0
H279 H 0.81171 0.76315 0.96408 0.0
H280 H 0.92412 0.86262 0.01866 0.0
H281 H 0.91258 0.9315 0.19234 0.0
N282 N 0.9084 0.79446 0.29174 0.0
C283 C 0.91574 0.75613 0.20036 0.0
C284 C 0.90799 0.85702 0.29212 0.0
C285 C 0.91995 0.84299 0.09516 0.0
C286 C 0.9133 0.88198 0.19263 0.0
C287 C 0.92166 0.7796 0.0995 0.0
H288 H 0.93398 0.75675 0.92954 0.0
N289 N 0.91131 0.67067 0.30406 0.0
C290 C 0.9175 0.69304 0.20776 0.0
C291 C 0.92664 0.58993 0.12472 0.0
C292 C 0.92525 0.65292 0.1151 0.0
C293 C 0.91322 0.60996 0.31639 0.0
C294 C 0.92064 0.56844 0.22596 0.0
O295 O 0.86485 0.73996 0.64534 0.0
O296 O 0.89156 0.76893 0.6486 0.0
O297 O 0.92127 0.70785 0.54052 0.0
O298 O 0.92327 0.79526 0.47566 0.0
O299 O 0.86531 0.83046 0.41959 0.0
O300 O 0.88953 0.83995 0.51704 0.0
O301 O 0.88675 0.70958 0.27993 0.0
O302 O 0.86567 0.77335 0.30124 0.0
O303 O 0.82994 0.76499 0.39541 0.0
O304 O 0.84025 0.6743 0.33898 0.0
O305 O 0.89029 0.66227 0.52028 0.0
O306 O 0.86605 0.65081 0.42227 0.0
C307 C 0.87834 0.75539 0.70351 0.0
C308 C 0.87666 0.86452 0.47729 0.0
C309 C 0.94192 0.77823 0.62091 0.0
C310 C 0.96963 0.80502 0.67234 0.0
C311 C 0.94808 0.85048 0.80163 0.0
C312 C 0.93688 0.81797 0.72417 0.0
C313 C 0.9643 0.84473 0.77535 0.0
C314 C 0.9583 0.77027 0.59748 0.0
C315 C 0.93057 0.75377 0.52584 0.0
C316 C 0.93124 0.67661 0.01553 0.0
C317 C 0.92934 0.73952 1.00733 0.0
H318 H 0.93242 0.55762 0.05499 0.0
C319 C 0.87532 0.73793 0.22901 0.0
C320 C 0.87772 0.62895 0.48173 0.0
C321 C 0.81191 0.6814 0.3534 0.0
C322 C 0.78295 0.6865 0.33718 0.0
C323 C 0.79538 0.59977 0.41188 0.0
C324 C 0.81041 0.62485 0.39717 0.0
C325 C 0.78171 0.63036 0.38218 0.0
C326 C 0.79809 0.71195 0.32321 0.0
C327 C 0.82768 0.7092 0.3376 0.0
H328 H 0.94419 0.88198 0.88019 0.0
H329 H 0.92433 0.82537 0.7426 0.0
H330 H 0.9727 0.87234 0.83421 0.0
H331 H 0.96221 0.74049 0.51635 0.0
H332 H 0.79434 0.5563 0.44597 0.0
H333 H 0.82079 0.59986 0.41969 0.0
H334 H 0.77016 0.61013 0.39364 0.0
H335 H 0.79908 0.75536 0.2885 0.0
C336 C 0.5955 0.68805 0.27877 0.0
C337 C 0.58806 0.77737 0.42714 0.0
C338 C 0.59371 0.7523 0.31211 0.0
C339 C 0.58454 0.73752 0.50924 0.0
C340 C 0.59102 0.64795 0.35922 0.0
C341 C 0.58599 0.67305 0.47525 0.0
N342 N 0.60155 0.66476 0.16853 0.0
C343 C 0.60156 0.60212 0.12873 0.0
C344 C 0.59202 0.58369 0.32165 0.0
C345 C 0.59706 0.56072 0.2052 0.0
Gd346 Gd 0.65525 0.76423 0.05093 0.0
Gd347 Gd 0.60748 0.74021 0.04885 0.0
N348 N 0.59814 0.79053 0.23361 0.0
C349 C 0.5863 0.84193 0.45674 0.0
C350 C 0.59548 0.85304 0.25842 0.0
C351 C 0.58979 0.87983 0.37133 0.0
H352 H 0.59806 0.88206 0.19167 0.0
H353 H 0.58811 0.92959 0.39248 0.0
H354 H 0.66593 0.61911 0.92235 0.0
H355 H 0.6045 0.58369 0.03683 0.0
H356 H 0.68073 0.56979 0.74462 0.0
H357 H 0.58202 0.86286 0.5446 0.0
H358 H 0.58068 0.75647 0.59906 0.0
H359 H 0.65942 0.91849 0.05899 0.0
H360 H 0.58868 0.55148 0.38117 0.0
H361 H 0.59735 0.51115 0.17382 0.0
H362 H 0.69979 0.74055 0.56422 0.0
H363 H 0.58345 0.64254 0.53948 0.0
H364 H 0.68689 0.947 0.75397 0.0
H365 H 0.67169 0.98938 0.93649 0.0
N366 N 0.6663 0.83644 0.94162 0.0
C367 C 0.67518 0.81205 0.84459 0.0
C368 C 0.66533 0.89921 0.97661 0.0
C369 C 0.68124 0.91551 0.80619 0.0
C370 C 0.67259 0.93964 0.90872 0.0
C371 C 0.68274 0.85106 0.77338 0.0
H372 H 0.69737 0.85397 0.61618 0.0
N373 N 0.66934 0.71106 0.88637 0.0
C374 C 0.67672 0.74772 0.81595 0.0
C375 C 0.68685 0.65654 0.68805 0.0
C376 C 0.68559 0.72129 0.71441 0.0
C377 C 0.67099 0.64804 0.8633 0.0
C378 C 0.67959 0.61984 0.76319 0.0
O379 O 0.62161 0.77795 0.22149 0.0
O380 O 0.64486 0.72533 0.21038 0.0
O381 O 0.6787 0.73632 0.10319 0.0
O382 O 0.66858 0.82359 0.18949 0.0
O383 O 0.6147 0.8314 0.99835 0.0
O384 O 0.63854 0.84704 0.09827 0.0
O385 O 0.6444 0.75416 0.86166 0.0
O386 O 0.61674 0.74207 0.85747 0.0
O387 O 0.58544 0.78514 1.00428 0.0
O388 O 0.58644 0.68577 0.99437 0.0
O389 O 0.64682 0.66807 0.06927 0.0
O390 O 0.62272 0.65703 0.96949 0.0
C391 C 0.63252 0.74804 0.27363 0.0
C392 C 0.62711 0.86631 0.03239 0.0
C393 C 0.69696 0.81614 0.17797 0.0
C394 C 0.72566 0.80969 0.20924 0.0
C395 C 0.71398 0.90469 0.16255 0.0
C396 C 0.69888 0.8778 0.15875 0.0
C397 C 0.72731 0.87099 0.18807 0.0
C398 C 0.71047 0.78218 0.20292 0.0
C399 C 0.68103 0.78729 0.17872 0.0
C400 C 0.69294 0.76008 0.6426 0.0
C401 C 0.69155 0.82472 0.67215 0.0
H402 H 0.69354 0.63447 0.61073 0.0
C403 C 0.63063 0.74777 0.80361 0.0
C404 C 0.63539 0.63329 0.01487 0.0
C405 C 0.56486 0.72447 0.89503 0.0
C406 C 0.53651 0.72177 0.84752 0.0
C407 C 0.55576 0.68347 0.69382 0.0
C408 C 0.56816 0.69715 0.7766 0.0
C409 C 0.54008 0.69596 0.72877 0.0
C410 C 0.54895 0.7367 0.9306 0.0
C411 C 0.57749 0.73332 0.9863 0.0
H412 H 0.71533 0.95218 0.14734 0.0
H413 H 0.68875 0.9057 0.14264 0.0
H414 H 0.73891 0.89286 0.19244 0.0
H415 H 0.70917 0.73492 0.22006 0.0
H416 H 0.55811 0.66178 0.60267 0.0
H417 H 0.58027 0.68546 0.7494 0.0
H418 H 0.53064 0.6838 0.66383 0.0
H419 H 0.54621 0.75547 0.02326 0.0
C420 C 0.33321 0.796 0.83637 0.0
C421 C 0.32323 0.69891 0.72602 0.0
C422 C 0.33135 0.73191 0.82569 0.0
C423 C 0.3175 0.73077 0.636 0.0
C424 C 0.32683 0.82849 0.74909 0.0
C425 C 0.31924 0.7954 0.64771 0.0
N426 N 0.34139 0.82648 0.93204 0.0
C427 C 0.34221 0.88975 0.95263 0.0
C428 C 0.32821 0.89334 0.76673 0.0
C429 C 0.33573 0.92415 0.86994 0.0
Gd430 Gd 0.39883 0.73345 0.06514 0.0
Gd431 Gd 0.3516 0.76528 0.0661 0.0
N432 N 0.3373 0.70213 0.9134 0.0
C433 C 0.32098 0.63493 0.72034 0.0
C434 C 0.33421 0.64055 0.91198 0.0
C435 C 0.32627 0.60587 0.81465 0.0
H436 H 0.33752 0.61783 0.98625 0.0
H437 H 0.32411 0.55681 0.81301 0.0
H438 H 0.41003 0.87185 0.21356 0.0
H439 H 0.34785 0.91384 0.03279 0.0
H440 H 0.42037 0.9153 0.41553 0.0
H441 H 0.31481 0.60791 0.64521 0.0
H442 H 0.31151 0.70587 0.55774 0.0
H443 H 0.40037 0.57619 0.0453 0.0
H444 H 0.32336 0.92002 0.70206 0.0
H445 H 0.3366 0.97431 0.88553 0.0
H446 H 0.42543 0.73797 0.61388 0.0
H447 H 0.3146 0.81949 0.57832 0.0
H448 H 0.41494 0.53672 0.38768 0.0
H449 H 0.40628 0.50043 0.17866 0.0
N450 N 0.4038 0.65523 0.18098 0.0
C451 C 0.40982 0.67615 0.29244 0.0
C452 C 0.40323 0.59294 0.1381 0.0
C453 C 0.41206 0.57036 0.33001 0.0
C454 C 0.40703 0.54969 0.21253 0.0
C455 C 0.41375 0.63414 0.37067 0.0
H456 H 0.42142 0.62524 0.54961 0.0
N457 N 0.40854 0.77978 0.25186 0.0
C458 C 0.4123 0.7398 0.32863 0.0
C459 C 0.42085 0.82648 0.47618 0.0
C460 C 0.41822 0.76249 0.44412 0.0
C461 C 0.4121 0.84156 0.27897 0.0
C462 C 0.418 0.86605 0.39256 0.0
O463 O 0.3634 0.76033 0.88077 0.0
O464 O 0.39008 0.73103 0.87167 0.0
O465 O 0.42063 0.77737 1.01258 0.0
O466 O 0.42011 0.67924 0.01939 0.0
O467 O 0.35951 0.66984 0.09422 0.0
O468 O 0.38265 0.65316 0.98493 0.0
O469 O 0.38487 0.77453 0.23644 0.0
O470 O 0.36098 0.72619 0.22874 0.0
O471 O 0.32685 0.75229 0.11715 0.0
O472 O 0.34019 0.83505 0.19775 0.0
O473 O 0.39274 0.82686 0.01853 0.0
O474 O 0.36851 0.84763 0.11237 0.0
C475 C 0.37671 0.74559 0.81996 0.0
C476 C 0.36985 0.63206 0.03351 0.0
C477 C 0.44092 0.7138 0.90689 0.0
C478 C 0.46901 0.71158 0.85248 0.0
C479 C 0.44949 0.66094 0.7116 0.0
C480 C 0.43735 0.6787 0.79471 0.0
C481 C 0.46521 0.67733 0.74009 0.0
C482 C 0.4568 0.73049 0.93543 0.0
C483 C 0.42876 0.72607 1.00129 0.0
C484 C 0.4213 0.72089 0.52386 0.0
C485 C 0.4191 0.65695 0.48716 0.0
H486 H 0.42535 0.84563 0.56442 0.0
C487 C 0.37375 0.74624 0.29008 0.0
C488 C 0.38092 0.86481 0.05322 0.0
C489 C 0.31259 0.82881 0.2622 0.0
C490 C 0.28505 0.81821 0.32716 0.0
C491 C 0.29985 0.91271 0.39711 0.0
C492 C 0.3131 0.88845 0.3314 0.0
C493 C 0.28591 0.87795 0.39504 0.0
C494 C 0.29844 0.79362 0.2605 0.0
C495 C 0.3267 0.805 0.19028 0.0
H496 H 0.44687 0.6331 0.62572 0.0
H497 H 0.42525 0.66404 0.77269 0.0
H498 H 0.47449 0.66209 0.6754 0.0
H499 H 0.45976 0.75569 0.02354 0.0
H500 H 0.3004 0.95873 0.4499 0.0
H501 H 0.32374 0.91671 0.33424 0.0
H502 H 0.27577 0.89747 0.44714 0.0
H503 H 0.29781 0.74745 0.20815 0.0
C504 C 0.59188 0.25943 0.69623 0.0
C505 C 0.58231 0.1569 0.60651 0.0
C506 C 0.59002 0.19605 0.70087 0.0
C507 C 0.57646 0.18182 0.50803 0.0
C508 C 0.58607 0.28415 0.59651 0.0
C509 C 0.57845 0.24499 0.50262 0.0
N510 N 0.59914 0.29684 0.78937 0.0
C511 C 0.5995 0.35966 0.79274 0.0
C512 C 0.58778 0.34784 0.59516 0.0
C513 C 0.59428 0.38586 0.6945 0.0
Gd514 Gd 0.65404 0.24326 0.95727 0.0
Gd515 Gd 0.60635 0.24614 0.94988 0.0
N516 N 0.59609 0.17246 0.79615 0.0
C517 C 0.58086 0.0936 0.61334 0.0
C518 C 0.59412 0.11142 0.80575 0.0
C519 C 0.58675 0.07083 0.71352 0.0
H520 H 0.59792 0.09403 0.88534 0.0
H521 H 0.58542 0.02218 0.72054 0.0
H522 H 0.66439 0.3954 0.97684 0.0
H523 H 0.60329 0.39024 0.87204 0.0
H524 H 0.67716 0.47612 0.12266 0.0
H525 H 0.57511 0.06202 0.54219 0.0
H526 H 0.57051 0.15245 0.43469 0.0
H527 H 0.66226 0.10915 0.04734 0.0
H528 H 0.58365 0.36846 0.51968 0.0
H529 H 0.59496 0.43559 0.69667 0.0
H530 H 0.69602 0.36716 0.43193 0.0
H531 H 0.57391 0.26313 0.42571 0.0
H532 H 0.68835 0.14652 0.3771 0.0
H533 H 0.67569 0.07144 0.21665 0.0
N534 N 0.6666 0.20425 0.11455 0.0
C535 C 0.67432 0.24588 0.19724 0.0
C536 C 0.66753 0.14217 0.11792 0.0
C537 C 0.68239 0.16322 0.30331 0.0
C538 C 0.67524 0.12071 0.21313 0.0
C539 C 0.68218 0.22663 0.29531 0.0
H540 H 0.69578 0.25719 0.45725 0.0
N541 N 0.66715 0.32418 0.08451 0.0
C542 C 0.67446 0.30775 0.18243 0.0
C543 C 0.68301 0.41372 0.24588 0.0
C544 C 0.68249 0.35215 0.26615 0.0
C545 C 0.66868 0.38328 0.0601 0.0
C546 C 0.67628 0.42911 0.14148 0.0
O547 O 0.62059 0.20946 0.77571 0.0
O548 O 0.64162 0.27348 0.7973 0.0
O549 O 0.67735 0.26425 0.89096 0.0
O550 O 0.66679 0.17414 0.83207 0.0
O551 O 0.61674 0.16191 0.01507 0.0
O552 O 0.64104 0.15046 0.91787 0.0
O553 O 0.64244 0.23973 0.14088 0.0
O554 O 0.6157 0.26821 0.1442 0.0
O555 O 0.5859 0.20793 0.03456 0.0
O556 O 0.58402 0.29537 0.97005 0.0
O557 O 0.64211 0.33046 0.91668 0.0
O558 O 0.61793 0.3396 0.01455 0.0
C559 C 0.632 0.23807 0.72486 0.0
C560 C 0.62937 0.12874 0.97778 0.0
C561 C 0.69515 0.18014 0.84528 0.0
C562 C 0.7241 0.18448 0.82799 0.0
C563 C 0.71152 0.09693 0.89892 0.0
C564 C 0.69654 0.12278 0.88612 0.0
C565 C 0.72524 0.12755 0.87018 0.0
C566 C 0.70903 0.21069 0.81592 0.0
C567 C 0.67945 0.20873 0.83135 0.0
C568 C 0.68992 0.33359 0.36619 0.0
C569 C 0.68979 0.27096 0.38065 0.0
H570 H 0.68899 0.44927 0.3083 0.0
C571 C 0.62895 0.25495 0.19906 0.0
C572 C 0.63078 0.36435 0.97484 0.0
C573 C 0.56533 0.27864 0.11498 0.0
C574 C 0.53772 0.30561 0.16874 0.0
C575 C 0.55943 0.3501 0.29728 0.0
C576 C 0.57051 0.31787 0.21848 0.0
C577 C 0.54318 0.34447 0.27234 0.0
C578 C 0.54892 0.27137 0.09197 0.0
C579 C 0.57663 0.25391 0.01977 0.0
H580 H 0.71248 0.05283 0.93076 0.0
H581 H 0.68611 0.09774 0.90776 0.0
H582 H 0.73675 0.10675 0.88013 0.0
H583 H 0.70812 0.2547 0.78334 0.0
H584 H 0.56344 0.38103 0.37628 0.0
H585 H 0.58309 0.32491 0.23639 0.0
H586 H 0.53485 0.37152 0.33271 0.0
H587 H 0.54488 0.24229 1.01039 0.0
C588 C 0.33401 0.19748 0.22509 0.0
C589 C 0.32398 0.2933 0.34082 0.0
C590 C 0.33262 0.26194 0.24227 0.0
C591 C 0.31704 0.25928 0.42311 0.0
C592 C 0.3266 0.1631 0.3054 0.0
C593 C 0.31834 0.19441 0.40543 0.0
N594 N 0.34203 0.16832 0.12697 0.0
C595 C 0.34181 0.10506 0.09851 0.0
C596 C 0.32727 0.09816 0.28073 0.0
C597 C 0.33468 0.06906 0.17585 0.0
Gd598 Gd 0.40107 0.25746 1.01339 0.0
Gd599 Gd 0.35293 0.23352 1.00123 0.0
N600 N 0.33976 0.29389 0.16247 0.0
C601 C 0.32245 0.35794 0.35317 0.0
C602 C 0.33771 0.35647 0.17111 0.0
C603 C 0.32923 0.38955 0.26732 0.0
H604 H 0.34235 0.38105 0.10318 0.0
H605 H 0.32783 0.43934 0.27469 0.0
H606 H 0.41333 0.10627 0.9904 0.0
H607 H 0.34695 0.08205 0.01552 0.0
H608 H 0.42646 0.02891 0.841 0.0
H609 H 0.3159 0.38373 0.42763 0.0
H610 H 0.31046 0.28264 0.49987 0.0
H611 H 0.40568 0.39282 0.91801 0.0
H612 H 0.32169 0.07009 0.34005 0.0
H613 H 0.3348 0.01889 0.15397 0.0
H614 H 0.44157 0.14169 0.52771 0.0
H615 H 0.31266 0.16878 0.46848 0.0
H616 H 0.43028 0.35962 0.58105 0.0
H617 H 0.41731 0.43247 0.74326 0.0
N618 N 0.41139 0.29882 0.85133 0.0
C619 C 0.41926 0.2584 0.76725 0.0
C620 C 0.41117 0.36092 0.84657 0.0
C621 C 0.42514 0.34209 0.65709 0.0
C622 C 0.41781 0.38338 0.74833 0.0
C623 C 0.42613 0.27892 0.66652 0.0
H624 H 0.43919 0.25097 0.50109 0.0
N625 N 0.41403 0.1781 0.88211 0.0
C626 C 0.42056 0.19649 0.78275 0.0
C627 C 0.43054 0.09264 0.71695 0.0
C628 C 0.42886 0.15397 0.69709 0.0
C629 C 0.41678 0.11952 0.90604 0.0
C630 C 0.42467 0.07563 0.82264 0.0
O631 O 0.36397 0.24612 0.19182 0.0
O632 O 0.3916 0.24723 0.1969 0.0
O633 O 0.42591 0.24338 0.05993 0.0
O634 O 0.41402 0.32917 0.12916 0.0
O635 O 0.36227 0.3267 0.96383 0.0
O636 O 0.38622 0.344 0.066 0.0
O637 O 0.38791 0.27078 0.84022 0.0
O638 O 0.36638 0.20521 0.82547 0.0
O639 O 0.3327 0.27642 0.92345 0.0
O640 O 0.33457 0.17686 0.90343 0.0
O641 O 0.39116 0.16668 0.06023 0.0
O642 O 0.36801 0.14776 0.95048 0.0
C643 C 0.37768 0.24742 0.25064 0.0
C644 C 0.37363 0.36389 0.01421 0.0
C645 C 0.44179 0.33521 0.09355 0.0
C646 C 0.47081 0.34627 0.09101 0.0
C647 C 0.4538 0.43234 0.05943 0.0
C648 C 0.44033 0.39672 0.07188 0.0
C649 C 0.46891 0.40767 0.07015 0.0
C650 C 0.45714 0.30972 0.1006 0.0
C651 C 0.42749 0.29948 0.11826 0.0
C652 C 0.43532 0.17393 0.59487 0.0
C653 C 0.43395 0.23618 0.57963 0.0
H654 H 0.43674 0.05855 0.65293 0.0
C655 C 0.37683 0.23801 0.77564 0.0
C656 C 0.37974 0.12901 1.01273 0.0
C657 C 0.30859 0.21817 0.91582 0.0
C658 C 0.28067 0.23204 0.86665 0.0
C659 C 0.28761 0.1769 0.02939 0.0
C660 C 0.30369 0.18508 1.00669 0.0
C661 C 0.27613 0.20002 0.9595 0.0
C662 C 0.29693 0.24203 0.84598 0.0
C663 C 0.32568 0.22348 0.88741 0.0
H664 H 0.45252 0.4797 0.04339 0.0
H665 H 0.42878 0.41797 0.06662 0.0
H666 H 0.47919 0.4367 0.06245 0.0
H667 H 0.45846 0.26242 0.11729 0.0
H668 H 0.28405 0.15134 0.09972 0.0
H669 H 0.3122 0.16384 0.05832 0.0
H670 H 0.26368 0.19212 0.97649 0.0
H671 H 0.30046 0.26632 0.77353 0.0
C672 C 0.24605 0.32307 0.76324 0.0
C673 C 0.24078 0.28048 0.66228 0.0
C674 C 0.26365 0.21304 0.6819 0.0
C675 C 0.26805 0.25252 0.7895 0.0
N676 N 0.26317 0.34271 0.93864 0.0
N677 N 0.24324 0.18191 0.53215 0.0
C678 C 0.2592 0.30706 0.83165 0.0
C679 C 0.24928 0.22476 0.62293 0.0
N680 N 0.23873 0.3795 0.79166 0.0
N681 N 0.27328 0.16449 0.6359 0.0
H682 H 0.23278 0.18901 0.48656 0.0
H683 H 0.24785 0.1374 0.50782 0.0
H684 H 0.28364 0.15332 0.67842 0.0
H685 H 0.27173 0.13813 0.55121 0.0
H686 H 0.243 0.41538 0.85586 0.0
H687 H 0.2289 0.39237 0.74499 0.0
H688 H 0.25611 0.37851 0.98237 0.0
H689 H 0.27327 0.33444 0.98745 0.0
C690 C 0.74839 0.24971 0.88763 0.0
C691 C 0.73881 0.21623 0.79553 0.0
C692 C 0.75712 0.24365 0.64228 0.0
C693 C 0.76717 0.27397 0.73477 0.0
N694 N 0.77374 0.29895 0.94511 0.0
N695 N 0.73488 0.17379 0.58677 0.0
C696 C 0.76321 0.2748 0.85745 0.0
C697 C 0.7434 0.2112 0.67312 0.0
N698 N 0.743 0.25943 1.00357 0.0
N699 N 0.7606 0.2468 0.52493 0.0
H700 H 0.72464 0.15013 0.60568 0.0
H701 H 0.73849 0.16251 0.49769 0.0
H702 H 0.77094 0.26735 0.49864 0.0
H703 H 0.75286 0.23237 0.45393 0.0
H704 H 0.7485 0.28909 0.07304 0.0
H705 H 0.73224 0.2416 0.02908 0.0
H706 H 0.77247 0.29452 0.03515 0.0
H707 H 0.78446 0.31966 0.92693 0.0
C708 C 0.25901 0.77612 0.23518 0.0
C709 C 0.27011 0.78144 0.33124 0.0
C710 C 0.25099 0.73248 0.45177 0.0
C711 C 0.24039 0.72269 0.35266 0.0
N712 N 0.23507 0.72693 0.14402 0.0
N713 N 0.27787 0.75518 0.52238 0.0
C714 C 0.24461 0.74228 0.24253 0.0
C715 C 0.26643 0.75675 0.43701 0.0
N716 N 0.26201 0.80512 0.13869 0.0
N717 N 0.24608 0.72064 0.56146 0.0
H718 H 0.28926 0.77283 0.5145 0.0
H719 H 0.27658 0.73163 0.59513 0.0
H720 H 0.2348 0.70344 0.5762 0.0
H721 H 0.2526 0.73306 0.64016 0.0
H722 H 0.25366 0.80915 0.07227 0.0
H723 H 0.27254 0.82914 0.12914 0.0
H724 H 0.23827 0.73386 0.05799 0.0
H725 H 0.22438 0.70291 0.1463 0.0
C726 C 0.74381 0.77643 0.36438 0.0
C727 C 0.73994 0.7754 0.2415 0.0
C728 C 0.76378 0.71289 0.1812 0.0
C729 C 0.76828 0.71819 0.30383 0.0
N730 N 0.76396 0.76192 0.51143 0.0
N731 N 0.74672 0.74826 0.03204 0.0
C732 C 0.75864 0.75172 0.39533 0.0
C733 C 0.75008 0.74518 0.14959 0.0
N734 N 0.73319 0.80038 0.4515 0.0
N735 N 0.77232 0.67531 0.09539 0.0
H736 H 0.7364 0.76872 1.00517 0.0
H737 H 0.75454 0.73391 0.96152 0.0
H738 H 0.78252 0.65163 0.11485 0.0
H739 H 0.76876 0.66386 1.00622 0.0
H740 H 0.7344 0.79607 0.54164 0.0
H741 H 0.72246 0.82073 0.43271 0.0
H742 H 0.75839 0.79163 0.58044 0.0
H743 H 0.77474 0.74454 0.53746 0.0
C744 C 0.14702 0.97312 0.48032 0.0
C745 C 0.13948 0.94615 0.57282 0.0
C746 C 0.13106 0.05209 0.66409 0.0
C747 C 0.13565 0.07522 0.55825 0.0
N748 N 0.1451 0.05208 0.35455 0.0
N749 N 0.12548 0.96356 0.76268 0.0
C750 C 0.14268 0.03391 0.46305 0.0
C751 C 0.13188 0.98688 0.6679 0.0
N752 N 0.15915 0.94365 0.41358 0.0
N753 N 0.12592 0.09244 0.76156 0.0
H754 H 0.12786 0.91896 0.77942 0.0
H755 H 0.11759 0.98805 0.82388 0.0
H756 H 0.12408 0.13925 0.75875 0.0
H757 H 0.12422 0.0805 0.84637 0.0
H758 H 0.16537 0.96412 0.35016 0.0
H759 H 0.16488 0.90458 0.43427 0.0
H760 H 0.14862 0.02149 0.27828 0.0
H761 H 0.14227 0.09643 0.33944 0.0
C762 C 0.88408 0.45317 0.40874 0.0
C763 C 0.88112 0.43413 0.52194 0.0
C764 C 0.87643 0.54363 0.61027 0.0
C765 C 0.87793 0.56147 0.49479 0.0
N766 N 0.88001 0.53049 0.28053 0.0
N767 N 0.87979 0.46438 0.73661 0.0
C768 C 0.88085 0.51544 0.39328 0.0
C769 C 0.87864 0.48031 0.6245 0.0
N770 N 0.8909 0.41337 0.31684 0.0
N771 N 0.87208 0.58689 0.70587 0.0
H772 H 0.88267 0.4197 0.75053 0.0
H773 H 0.8798 0.49613 0.81602 0.0
H774 H 0.87045 0.63326 0.69868 0.0
H775 H 0.86873 0.57656 0.78926 0.0
H776 H 0.89535 0.42776 0.23956 0.0
H777 H 0.89332 0.367 0.31959 0.0
H778 H 0.88 0.49755 0.20257 0.0
H779 H 0.87783 0.57538 0.26498 0.0
C780 C 0.87334 0.97157 0.59619 0.0
C781 C 0.8756 0.93356 0.48332 0.0
C782 C 0.87262 0.02651 0.38558 0.0
C783 C 0.87011 0.06356 0.49944 0.0
N784 N 0.85927 0.06054 0.69758 0.0
N785 N 0.87426 0.92368 0.26655 0.0
C786 C 0.86781 0.03327 0.60057 0.0
C787 C 0.87424 0.96065 0.37652 0.0
N788 N 0.87636 0.9493 0.70023 0.0
N789 N 0.87287 0.05427 0.2855 0.0
H790 H 0.87658 0.87632 0.25472 0.0
H791 H 0.87134 0.93921 0.18677 0.0
H792 H 0.86913 0.09999 0.28749 0.0
H793 H 0.87681 0.0325 0.20174 0.0
H794 H 0.87602 0.97748 0.7842 0.0
H795 H 0.88088 0.90503 0.70173 0.0
H796 H 0.85616 0.03702 0.76775 0.0
H797 H 0.85366 0.10325 0.70216 0.0
C798 C 0.11849 0.53265 0.45778 0.0
C799 C 0.12568 0.57494 0.55056 0.0
C800 C 0.12906 0.48887 0.66704 0.0
C801 C 0.12155 0.4469 0.57333 0.0
N802 N 0.10205 0.44207 0.41207 0.0
N803 N 0.1366 0.59469 0.75019 0.0
C804 C 0.11413 0.47235 0.47831 0.0
C805 C 0.13051 0.5534 0.6576 0.0
N806 N 0.11596 0.54938 0.34806 0.0
N807 N 0.13466 0.46716 0.76616 0.0
H808 H 0.13899 0.6406 0.74233 0.0
H809 H 0.13885 0.58475 0.83574 0.0
H810 H 0.13144 0.424 0.78666 0.0
H811 H 0.14244 0.49145 0.82838 0.0
H812 H 0.11234 0.51805 0.27317 0.0
H813 H 0.11878 0.59329 0.33015 0.0
H814 H 0.0957 0.46203 0.34862 0.0
H815 H 0.09659 0.40212 0.43113 0.0
C816 C 0.63932 0.53316 0.10053 0.0
C817 C 0.63709 0.56369 0.99965 0.0
C818 C 0.63322 0.46095 0.87544 0.0
C819 C 0.63183 0.43345 0.98175 0.0
N820 N 0.63075 0.44865 0.19862 0.0
N821 N 0.63442 0.555 0.78568 0.0
C822 C 0.6339 0.47125 0.0951 0.0
C823 C 0.63471 0.5269 0.88535 0.0
N824 N 0.64768 0.56051 0.19848 0.0
N825 N 0.63331 0.42432 0.76513 0.0
H826 H 0.63803 0.60095 0.78826 0.0
H827 H 0.63056 0.53329 0.70166 0.0
H828 H 0.63101 0.37692 0.75253 0.0
H829 H 0.63629 0.44021 0.68581 0.0
H830 H 0.65075 0.53686 0.26853 0.0
H831 H 0.65319 0.60351 0.20409 0.0
H832 H 0.63093 0.47669 0.28278 0.0
H833 H 0.62627 0.40424 0.19946 0.0
C834 C 0.38017 0.97797 0.14889 0.0
C835 C 0.38301 0.93275 0.04565 0.0
C836 C 0.38445 0.01619 0.92229 0.0
C837 C 0.38079 0.06124 0.02412 0.0
N838 N 0.37264 0.08312 0.23139 0.0
N839 N 0.39437 0.91385 0.84516 0.0
C840 C 0.37818 0.04164 0.13702 0.0
C841 C 0.38714 0.95317 0.93571 0.0
N842 N 0.38068 0.96063 0.25998 0.0
N843 N 0.38454 0.03265 0.81056 0.0
H844 H 0.39639 0.86702 0.84633 0.0
H845 H 0.39959 0.92897 0.77116 0.0
H846 H 0.38239 0.07771 0.79634 0.0
H847 H 0.38511 1.00065 0.73142 0.0
H848 H 0.3804 0.99173 0.34028 0.0
H849 H 0.38346 0.91557 0.2721 0.0
H850 H 0.36863 0.07098 0.31179 0.0
H851 H 0.37041 0.12917 0.22457 0.0
C852 C 0.37252 0.45823 0.90692 0.0
C853 C 0.37182 0.43253 0.01549 0.0
C854 C 0.36368 0.53421 0.12368 0.0
C855 C 0.3674 0.56263 0.02218 0.0
N856 N 0.36975 0.54947 0.80806 0.0
N857 N 0.36995 0.45093 0.23202 0.0
C858 C 0.37032 0.52376 0.91072 0.0
C859 C 0.3684 0.47199 0.12506 0.0
N860 N 0.37586 0.42027 0.80137 0.0
N861 N 0.35447 0.56371 0.21502 0.0
H862 H 0.37385 0.40639 0.23818 0.0
H863 H 0.36903 0.48003 0.31468 0.0
H864 H 0.34909 0.60644 0.21431 0.0
H865 H 0.35039 0.54172 0.28476 0.0
H866 H 0.37747 0.43503 0.71911 0.0
H867 H 0.3777 0.37288 0.79648 0.0
H868 H 0.37141 0.52541 0.72173 0.0
H869 H 0.3662 0.59538 0.8091 0.0
C870 C 0.62626 0.015 0.89051 0.0
C871 C 0.6292 0.06132 0.99154 0.0
C872 C 0.62875 0.9805 0.12211 0.0
C873 C 0.62623 0.93401 0.02004 0.0
N874 N 0.6164 0.9125 0.81505 0.0
N875 N 0.63536 0.0872 0.20201 0.0
C876 C 0.62317 0.9527 0.90661 0.0
C877 C 0.63088 0.04375 0.10711 0.0
N878 N 0.62699 0.0298 0.77752 0.0
N879 N 0.62772 0.96495 0.2346 0.0
H880 H 0.63698 0.1335 0.19423 0.0
H881 H 0.63886 0.07705 0.28518 0.0
H882 H 0.62496 0.92029 0.2494 0.0
H883 H 0.62769 0.99699 0.31361 0.0
H884 H 0.62703 0.99672 0.69977 0.0
H885 H 0.62906 0.0747 0.76155 0.0
H886 H 0.61185 0.92657 0.73779 0.0
H887 H 0.61411 0.86605 0.81798 0.0
C888 C 0.12414 0.31409 0.12569 0.0
C889 C 0.12899 0.26018 0.17302 0.0
C890 C 0.13838 0.21714 0.96784 0.0
C891 C 0.13072 0.26513 0.91729 0.0
N892 N 0.11455 0.35737 0.95371 0.0
N893 N 0.13674 0.15285 0.12303 0.0
C894 C 0.12293 0.31263 0.99801 0.0
C895 C 0.13512 0.20973 0.08954 0.0
N896 N 0.12185 0.3685 0.20177 0.0
N897 N 0.14889 0.17843 0.90101 0.0
H898 H 0.13216 0.14382 0.20402 0.0
H899 H 0.14023 0.11342 0.06385 0.0
H900 H 0.15177 0.18239 0.8128 0.0
H901 H 0.15573 0.14619 0.93737 0.0
H902 H 0.11975 0.41057 0.17202 0.0
H903 H 0.12429 0.37296 0.29314 0.0
H904 H 0.10733 0.38939 1.00729 0.0
H905 H 0.1139 0.35929 0.86224 0.0
C906 C 0.88127 0.19567 0.0836 0.0
C907 C 0.87639 0.24853 0.16683 0.0
C908 C 0.87112 0.30269 0.9915 0.0
C909 C 0.87497 0.24834 0.90908 0.0
N910 N 0.8799 0.13862 0.88081 0.0
N911 N 0.86379 0.34934 0.19398 0.0
C912 C 0.8788 0.19358 0.95684 0.0
C913 C 0.87044 0.30101 0.1187 0.0
N914 N 0.88864 0.14736 0.12447 0.0
N915 N 0.86802 0.35648 0.94843 0.0
H916 H 0.86395 0.35246 0.2868 0.0
H917 H 0.85743 0.38494 0.16448 0.0
H918 H 0.86701 0.35823 0.85698 0.0
H919 H 0.86734 0.39979 1.00272 0.0
H920 H 0.89359 0.10973 0.06813 0.0
H921 H 0.8911 0.14704 0.21469 0.0
H922 H 0.88035 0.09561 0.90964 0.0
H923 H 0.87958 0.13634 0.78814 0.0
C924 C 0.12597 0.70879 0.07904 0.0
C925 C 0.13189 0.76021 0.16087 0.0
C926 C 0.13825 0.81055 0.98361 0.0
C927 C 0.13065 0.76185 0.90353 0.0
N928 N 0.1127 0.67369 0.8908 0.0
N929 N 0.13946 0.86815 0.1864 0.0
C930 C 0.12295 0.71431 0.9562 0.0
C931 C 0.13695 0.8133 0.11172 0.0
N932 N 0.12439 0.65247 0.11531 0.0
N933 N 0.14644 0.85556 0.93847 0.0
H934 H 0.13732 0.87357 0.27833 0.0
H935 H 0.14164 0.90991 0.15559 0.0
H936 H 0.14672 0.85841 0.8474 0.0
H937 H 0.15376 0.88766 0.99107 0.0
H938 H 0.1212 0.61218 0.0573 0.0
H939 H 0.12871 0.6446 0.19785 0.0
H940 H 0.10565 0.64303 0.92991 0.0
H941 H 0.11027 0.67344 0.80052 0.0
C942 C 0.86805 0.79221 0.91779 0.0
C943 C 0.87848 0.75356 0.83938 0.0
C944 C 0.88443 0.69666 1.00902 0.0
C945 C 0.87494 0.73839 0.0908 0.0
N946 N 0.85164 0.80431 0.09576 0.0
N947 N 0.89877 0.67462 0.81987 0.0
C948 C 0.86513 0.78074 0.03816 0.0
C949 C 0.88738 0.7079 0.88839 0.0
N950 N 0.86116 0.84182 0.87839 0.0
N951 N 0.88889 0.64135 0.04044 0.0
H952 H 0.90133 0.6806 0.73233 0.0
H953 H 0.90656 0.6443 0.85258 0.0
H954 H 0.88516 0.62739 0.11964 0.0
H955 H 0.89416 0.60552 0.98141 0.0
H956 H 0.8553 0.87714 0.93496 0.0
H957 H 0.86259 0.85064 0.79105 0.0
H958 H 0.84362 0.8325 0.05944 0.0
H959 H 0.84673 0.78685 0.168 0.0
C960 C 0.62826 0.69364 0.45763 0.0
C961 C 0.63228 0.74818 0.40969 0.0
C962 C 0.63698 0.80076 0.61916 0.0
C963 C 0.6309 0.74852 0.66748 0.0
N964 N 0.61825 0.64801 0.62552 0.0
N965 N 0.63946 0.85616 0.4488 0.0
C966 C 0.62581 0.69591 0.58444 0.0
C967 C 0.63628 0.80244 0.49197 0.0
N968 N 0.62698 0.63869 0.38175 0.0
N969 N 0.64374 0.84892 0.69429 0.0
H970 H 0.64038 0.85795 0.3573 0.0
H971 H 0.64028 0.89943 0.5031 0.0
H972 H 0.64356 0.85216 0.78713 0.0
H973 H 0.65019 0.88429 0.66462 0.0
H974 H 0.62636 0.59575 0.41075 0.0
H975 H 0.62736 0.63631 0.28907 0.0
H976 H 0.61309 0.61081 0.56925 0.0
H977 H 0.61587 0.64768 0.71588 0.0
C978 C 0.37175 0.80096 0.63635 0.0
C979 C 0.37642 0.74641 0.68357 0.0
C980 C 0.37721 0.69051 0.47302 0.0
C981 C 0.37424 0.74621 0.426 0.0
N982 N 0.36922 0.85586 0.46514 0.0
N983 N 0.38605 0.64093 0.63929 0.0
C984 C 0.37175 0.80178 0.50872 0.0
C985 C 0.37986 0.6918 0.59952 0.0
N986 N 0.36698 0.85231 0.71339 0.0
N987 N 0.37732 0.63545 0.39641 0.0
H988 H 0.3883 0.63914 0.72924 0.0
H989 H 0.39029 0.60205 0.58234 0.0
H990 H 0.37681 0.63326 0.30374 0.0
H991 H 0.37711 0.59229 0.42465 0.0
H992 H 0.36172 0.89092 0.68638 0.0
H993 H 0.36764 0.85552 0.80603 0.0
H994 H 0.36973 0.89971 0.51747 0.0
H995 H 0.36726 0.85697 0.37433 0.0
C996 C 0.63926 0.29211 0.41323 0.0
C997 C 0.62884 0.25324 0.335 0.0
C998 C 0.623 0.19634 0.50485 0.0
C999 C 0.6324 0.23847 0.58662 0.0
N1000 N 0.65562 0.30493 0.59156 0.0
N1001 N 0.60867 0.17372 0.31574 0.0
C1002 C 0.64217 0.28096 0.53385 0.0
C1003 C 0.62002 0.20741 0.38418 0.0
N1004 N 0.64618 0.3416 0.37339 0.0
N1005 N 0.61869 0.14086 0.53632 0.0
H1006 H 0.60607 0.17962 0.22823 0.0
H1007 H 0.60097 0.14303 0.34845 0.0
H1008 H 0.62249 0.12711 0.61551 0.0
H1009 H 0.6135 0.10478 0.4773 0.0
H1010 H 0.652 0.37713 0.42973 0.0
H1011 H 0.64483 0.35005 0.28574 0.0
H1012 H 0.66365 0.33308 0.55502 0.0
H1013 H 0.66052 0.28789 0.66429 0.0
C1014 C 0.36745 0.28476 0.46563 0.0
C1015 C 0.37741 0.24412 0.38575 0.0
C1016 C 0.38614 0.19663 0.56183 0.0
C1017 C 0.37638 0.23785 0.64047 0.0
N1018 N 0.3542 0.30812 0.65882 0.0
N1019 N 0.39825 0.16598 0.36717 0.0
C1020 C 0.36603 0.27811 0.58976 0.0
C1021 C 0.38731 0.20148 0.43666 0.0
N1022 N 0.36034 0.33378 0.42585 0.0
N1023 N 0.39332 0.14871 0.60496 0.0
H1024 H 0.39855 0.16007 0.27416 0.0
H1025 H 0.40763 0.14356 0.40263 0.0
H1026 H 0.39281 0.14415 0.69508 0.0
H1027 H 0.39856 0.11087 0.55104 0.0
H1028 H 0.35477 0.3699 0.48233 0.0
H1029 H 0.36143 0.34181 0.33808 0.0
H1030 H 0.34501 0.33196 0.62425 0.0
H1031 H 0.35265 0.30393 0.74869 0.0
C1032 C 0.01182 0.1684 0.42455 0.0
C1033 C 0.02083 0.20648 0.35902 0.0
C1034 C 0.99689 0.26623 0.32903 0.0
C1035 C 0.98756 0.22059 0.37282 0.0
N1036 N 0.98579 0.12852 0.46517 0.0
N1037 N 0.02254 0.29371 0.25331 0.0
C1038 C 0.99494 0.17252 0.42415 0.0
C1039 C 0.01358 0.25693 0.31463 0.0
N1040 N 0.01947 0.12787 0.48568 0.0
N1041 N 0.98965 0.31788 0.30008 0.0
H1042 H 0.03486 0.2893 0.2452 0.0
H1043 H 0.01779 0.32675 0.20636 0.0
H1044 H 0.97743 0.32526 0.31035 0.0
H1045 H 0.99577 0.35553 0.27623 0.0
H1046 H 0.01377 0.10246 0.54384 0.0
H1047 H 0.03183 0.12388 0.48648 0.0
H1048 H 0.99034 0.08795 0.48946 0.0
H1049 H 0.97342 0.13104 0.4695 0.0
C1050 C 0.99853 0.79181 0.72512 0.0
C1051 C 0.98695 0.80384 0.63998 0.0
C1052 C 0.00856 0.81737 0.5005 0.0
C1053 C 0.01985 0.81952 0.59456 0.0
N1054 N 0.02481 0.81685 0.8052 0.0
N1055 N 0.98155 0.84074 0.45234 0.0
C1056 C 0.0147 0.80816 0.70922 0.0
C1057 C 0.99209 0.81938 0.52834 0.0
N1058 N 0.99412 0.76432 0.82063 0.0
N1059 N 0.01358 0.81394 0.38447 0.0
H1060 H 0.96955 0.84802 0.47229 0.0
H1061 H 0.98512 0.85802 0.37555 0.0
H1062 H 0.02558 0.81073 0.36089 0.0
H1063 H 0.00579 0.80733 0.31159 0.0
H1064 H 1.00231 0.74972 0.87956 0.0
H1065 H 0.98248 0.75008 0.83287 0.0
H1066 H 0.02107 0.81524 0.89274 0.0
H1067 H 0.03654 0.83148 0.7999 0.0
C1068 C 0.51073 0.77948 0.85628 0.0
C1069 C 0.51952 0.72811 0.88349 0.0
C1070 C 0.4948 0.67733 0.93086 0.0
C1071 C 0.48604 0.72341 0.88358 0.0
N1072 N 0.4851 0.81962 0.80516 0.0
N1073 N 0.52039 0.62825 0.94863 0.0
C1074 C 0.49384 0.77553 0.84933 0.0
C1075 C 0.51169 0.67758 0.92382 0.0
N1076 N 0.51863 0.83165 0.8365 0.0
N1077 N 0.48691 0.6331 0.98126 0.0
H1078 H 0.53279 0.62792 0.94877 0.0
H1079 H 0.51543 0.58645 0.9636 0.0
H1080 H 0.47454 0.6312 0.98576 0.0
H1081 H 0.49251 0.60149 0.02731 0.0
H1082 H 0.51304 0.87287 0.82549 0.0
H1083 H 0.531 0.83527 0.84108 0.0
H1084 H 0.49004 0.85508 0.76544 0.0
H1085 H 0.4727 0.81923 0.8039 0.0
C1086 C 0.49828 0.32462 1.00783 0.0
C1087 C 0.48733 0.32218 0.10262 0.0
C1088 C 0.50908 0.28881 0.22276 0.0
C1089 C 0.52034 0.30459 0.13868 0.0
N1090 N 0.52525 0.34801 0.95736 0.0
N1091 N 0.48289 0.3086 0.30886 0.0
C1092 C 0.51486 0.32462 0.03189 0.0
C1093 C 0.49282 0.30525 0.21216 0.0
N1094 N 0.49282 0.32716 0.89468 0.0
N1095 N 0.51391 0.25773 0.31231 0.0
H1096 H 0.47106 0.32238 0.30723 0.0
H1097 H 0.48682 0.3031 0.39413 0.0
H1098 H 0.52567 0.24383 0.3208 0.0
H1099 H 0.506 0.24016 0.36959 0.0
H1100 H 0.50029 0.32368 0.82012 0.0
H1101 H 0.48073 0.32582 0.87378 0.0
H1102 H 0.52154 0.3689 0.88523 0.0
H1103 H 0.53739 0.35269 0.97423 0.0
loop_
_geom_bond_atom_site_label_1
_geom_bond_atom_site_label_2
_geom_bond_distance
_geom_bond_site_symmetry_2
_ccdc_geom_bond_type
C0 C2 1.422 . S
C0 C4 1.415 . S
C0 N6 1.369 . S
C1 C2 1.421 . S
C1 C3 1.417 . S
C1 C13 1.422 . S
C2 C0 1.422 . S
C2 C1 1.421 . S
C2 N12 1.359 . S
C3 C1 1.417 . S
C3 C5 1.329 . S
C3 H22 0.930 1_556 S
C4 C0 1.415 . S
C4 C5 1.437 . S
C4 C8 1.413 . S
C5 C3 1.329 . S
C5 C4 1.437 . S
C5 H27 0.929 . S
N6 C0 1.369 . S
N6 C7 1.338 . S
N6 Gd11 2.622 . S
C7 N6 1.338 . S
C7 C9 1.378 . S
C7 H19 0.929 . S
C8 C4 1.413 . S
C8 C9 1.348 . S
C8 H24 0.931 . S
C9 C7 1.378 . S
C9 C8 1.348 . S
C9 H25 0.930 . S
Gd10 N30 2.622 . S
Gd10 N37 2.570 . S
Gd10 O44 2.353 . S
Gd10 O45 2.468 . S
Gd10 O46 2.427 . S
Gd10 O48 2.388 . S
Gd10 O49 2.386 . S
Gd10 O53 2.307 . S
Gd10 C63 2.805 . S
Gd11 N6 2.622 . S
Gd11 N12 2.570 . S
Gd11 O43 2.386 . S
Gd11 O47 2.307 . S
Gd11 O50 2.353 . S
Gd11 O51 2.468 . S
Gd11 O52 2.427 . S
Gd11 O54 2.388 . S
Gd11 C75 2.805 . S
N12 C2 1.359 . S
N12 Gd11 2.570 . S
N12 C14 1.343 . S
C13 C1 1.422 . S
C13 C15 1.321 . S
C13 H21 0.931 . S
C14 N12 1.343 . S
C14 C15 1.390 . S
C14 H16 0.931 . S
C15 C13 1.321 . S
C15 C14 1.390 . S
C15 H17 0.930 . S
H16 C14 0.931 . S
H17 C15 0.930 . S
H18 C41 0.931 . S
H19 C7 0.929 . S
H20 C42 0.930 . S
H21 C13 0.931 . S
H22 C3 0.930 1_554 S
H23 C32 0.929 . S
H24 C8 0.931 . S
H25 C9 0.930 . S
H26 C64 0.930 . S
H27 C5 0.929 . S
H28 C33 0.931 . S
H29 C34 0.930 . S
N30 Gd10 2.622 . S
N30 C31 1.369 . S
N30 C32 1.338 . S
C31 N30 1.369 . S
C31 C35 1.415 . S
C31 C38 1.422 . S
C32 H23 0.929 . S
C32 N30 1.338 . S
C32 C34 1.378 . S
C33 H28 0.931 . S
C33 C34 1.348 . S
C33 C35 1.413 . S
C34 H29 0.930 . S
C34 C32 1.378 . S
C34 C33 1.348 . S
C35 C31 1.415 . S
C35 C33 1.413 . S
C35 C65 1.437 . S
H36 C65 0.929 1_556 S
N37 Gd10 2.570 . S
N37 C38 1.359 . S
N37 C41 1.343 . S
C38 C31 1.422 . S
C38 N37 1.359 . S
C38 C40 1.421 . S
C39 C40 1.422 . S
C39 C42 1.321 . S
C39 H66 0.931 1_554 S
C40 C38 1.421 . S
C40 C39 1.422 . S
C40 C64 1.417 1_554 S
C41 H18 0.931 . S
C41 N37 1.343 . S
C41 C42 1.390 . S
C42 H20 0.930 . S
C42 C39 1.321 . S
C42 C41 1.390 . S
O43 Gd11 2.386 . S
O43 C55 1.265 . S
O44 Gd10 2.353 . S
O44 C55 1.242 . S
O45 Gd10 2.468 . S
O45 C63 1.263 . S
O46 Gd10 2.427 . S
O46 C63 1.252 . S
O47 Gd11 2.307 . S
O47 C56 1.261 . S
O48 Gd10 2.388 . S
O48 C56 1.252 . S
O49 Gd10 2.386 . S
O49 C67 1.265 . S
O50 Gd11 2.353 . S
O50 C67 1.242 . S
O51 Gd11 2.468 . S
O51 C75 1.263 . S
O52 Gd11 2.427 . S
O52 C75 1.252 . S
O53 Gd10 2.307 . S
O53 C68 1.261 . S
O54 Gd11 2.388 . S
O54 C68 1.252 . S
C55 O43 1.265 . S
C55 O44 1.242 . S
C56 O47 1.261 . S
C56 O48 1.252 . S
C57 C60 1.394 . S
C57 C62 1.370 . S
C57 C63 1.500 . S
C58 C61 1.383 . S
C58 C62 1.395 . S
C59 C60 1.396 . S
C59 C61 1.365 . S
C59 H76 0.929 . S
C60 C57 1.394 . S
C60 C59 1.396 . S
C60 H77 0.930 . S
C61 C58 1.383 . S
C61 C59 1.365 . S
C61 H78 0.931 . S
C62 C57 1.370 . S
C62 C58 1.395 . S
C62 H79 0.930 . S
C63 Gd10 2.805 . S
C63 O45 1.263 . S
C63 O46 1.252 . S
C63 C57 1.500 . S
C64 H26 0.930 . S
C64 C40 1.417 1_556 S
C64 C65 1.329 1_556 S
C65 C35 1.437 . S
C65 H36 0.929 1_554 S
C65 C64 1.329 1_554 S
H66 C39 0.931 1_556 S
C67 O49 1.265 . S
C67 O50 1.242 . S
C68 O53 1.261 . S
C68 O54 1.252 . S
C69 C72 1.394 . S
C69 C74 1.370 . S
C69 C75 1.500 . S
C70 C73 1.383 . S
C70 C74 1.395 . S
C71 C72 1.396 . S
C71 C73 1.365 . S
C71 H80 0.929 . S
C72 C69 1.394 . S
C72 C71 1.396 . S
C72 H81 0.930 . S
C73 C70 1.383 . S
C73 C71 1.365 . S
C73 H82 0.931 . S
C74 C69 1.370 . S
C74 C70 1.395 . S
C74 H83 0.930 . S
C75 Gd11 2.805 . S
C75 O51 1.263 . S
C75 O52 1.252 . S
C75 C69 1.500 . S
H76 C59 0.929 . S
H77 C60 0.930 . S
H78 C61 0.931 . S
H79 C62 0.930 . S
H80 C71 0.929 . S
H81 C72 0.930 . S
H82 C73 0.931 . S
H83 C74 0.930 . S
C84 C86 1.422 . S
C84 C88 1.415 . S
C84 N90 1.369 . S
C85 C86 1.421 . S
C85 C87 1.417 1_554 S
C85 C97 1.422 . S
C86 C84 1.422 . S
C86 C85 1.421 . S
C86 N96 1.359 . S
C87 C85 1.417 1_556 S
C87 C89 1.329 1_556 S
C87 H106 0.930 . S
C88 C84 1.415 . S
C88 C89 1.437 . S
C88 C92 1.413 . S
C89 C87 1.329 1_554 S
C89 C88 1.437 . S
C89 H111 0.929 1_554 S
N90 C84 1.369 . S
N90 C91 1.338 . S
N90 Gd95 2.622 . S
C91 N90 1.338 . S
C91 C93 1.378 . S
C91 H103 0.929 . S
C92 C88 1.413 . S
C92 C93 1.348 . S
C92 H108 0.931 . S
C93 C91 1.378 . S
C93 C92 1.348 . S
C93 H109 0.930 . S
Gd94 N114 2.622 . S
Gd94 N121 2.570 . S
Gd94 O128 2.353 . S
Gd94 O129 2.468 . S
Gd94 O130 2.427 . S
Gd94 O132 2.388 . S
Gd94 O133 2.386 . S
Gd94 O137 2.307 . S
Gd94 C147 2.805 . S
Gd95 N90 2.622 . S
Gd95 N96 2.570 . S
Gd95 O127 2.386 . S
Gd95 O131 2.307 . S
Gd95 O134 2.353 . S
Gd95 O135 2.468 . S
Gd95 O136 2.427 . S
Gd95 O138 2.388 . S
Gd95 C159 2.805 . S
N96 C86 1.359 . S
N96 Gd95 2.570 . S
N96 C98 1.343 . S
C97 C85 1.422 . S
C97 C99 1.321 . S
C97 H105 0.931 1_554 S
C98 N96 1.343 . S
C98 C99 1.390 . S
C98 H100 0.931 . S
C99 C97 1.321 . S
C99 C98 1.390 . S
C99 H101 0.930 . S
H100 C98 0.931 . S
H101 C99 0.930 . S
H102 C125 0.931 . S
H103 C91 0.929 . S
H104 C126 0.930 . S
H105 C97 0.931 1_556 S
H106 C87 0.930 . S
H107 C116 0.929 . S
H108 C92 0.931 . S
H109 C93 0.930 . S
H110 C148 0.930 1_554 S
H111 C89 0.929 1_556 S
H112 C117 0.931 . S
H113 C118 0.930 . S
N114 Gd94 2.622 . S
N114 C115 1.369 . S
N114 C116 1.338 . S
C115 N114 1.369 . S
C115 C119 1.415 . S
C115 C122 1.422 . S
C116 H107 0.929 . S
C116 N114 1.338 . S
C116 C118 1.378 . S
C117 H112 0.931 . S
C117 C118 1.348 . S
C117 C119 1.413 . S
C118 H113 0.930 . S
C118 C116 1.378 . S
C118 C117 1.348 . S
C119 C115 1.415 . S
C119 C117 1.413 . S
C119 C149 1.437 . S
H120 C149 0.929 . S
N121 Gd94 2.570 . S
N121 C122 1.359 . S
N121 C125 1.343 . S
C122 C115 1.422 . S
C122 N121 1.359 . S
C122 C124 1.421 . S
C123 C124 1.422 . S
C123 C126 1.321 . S
C123 H150 0.931 . S
C124 C122 1.421 . S
C124 C123 1.422 . S
C124 C148 1.417 . S
C125 H102 0.931 . S
C125 N121 1.343 . S
C125 C126 1.390 . S
C126 H104 0.930 . S
C126 C123 1.321 . S
C126 C125 1.390 . S
O127 Gd95 2.386 . S
O127 C139 1.265 . S
O128 Gd94 2.353 . S
O128 C139 1.242 . S
O129 Gd94 2.468 . S
O129 C147 1.263 . S
O130 Gd94 2.427 . S
O130 C147 1.252 . S
O131 Gd95 2.307 . S
O131 C140 1.261 . S
O132 Gd94 2.388 . S
O132 C140 1.252 . S
O133 Gd94 2.386 . S
O133 C151 1.265 . S
O134 Gd95 2.353 . S
O134 C151 1.242 . S
O135 Gd95 2.468 . S
O135 C159 1.263 . S
O136 Gd95 2.427 . S
O136 C159 1.252 . S
O137 Gd94 2.307 . S
O137 C152 1.261 . S
O138 Gd95 2.388 . S
O138 C152 1.252 . S
C139 O127 1.265 . S
C139 O128 1.242 . S
C140 O131 1.261 . S
C140 O132 1.252 . S
C141 C144 1.394 . S
C141 C146 1.370 . S
C141 C147 1.500 . S
C142 C145 1.383 . S
C142 C146 1.395 . S
C143 C144 1.396 . S
C143 C145 1.365 . S
C143 H160 0.929 . S
C144 C141 1.394 . S
C144 C143 1.396 . S
C144 H161 0.930 . S
C145 C142 1.383 . S
C145 C143 1.365 . S
C145 H162 0.931 . S
C146 C141 1.370 . S
C146 C142 1.395 . S
C146 H163 0.930 . S
C147 Gd94 2.805 . S
C147 O129 1.263 . S
C147 O130 1.252 . S
C147 C141 1.500 . S
C148 H110 0.930 1_556 S
C148 C124 1.417 . S
C148 C149 1.329 . S
C149 C119 1.437 . S
C149 H120 0.929 . S
C149 C148 1.329 . S
H150 C123 0.931 . S
C151 O133 1.265 . S
C151 O134 1.242 . S
C152 O137 1.261 . S
C152 O138 1.252 . S
C153 C156 1.394 . S
C153 C158 1.370 . S
C153 C159 1.500 . S
C154 C157 1.383 . S
C154 C158 1.395 . S
C155 C156 1.396 . S
C155 C157 1.365 . S
C155 H164 0.929 . S
C156 C153 1.394 . S
C156 C155 1.396 . S
C156 H165 0.930 . S
C157 C154 1.383 . S
C157 C155 1.365 . S
C157 H166 0.931 . S
C158 C153 1.370 . S
C158 C154 1.395 . S
C158 H167 0.930 . S
C159 Gd95 2.805 . S
C159 O135 1.263 . S
C159 O136 1.252 . S
C159 C153 1.500 . S
H160 C143 0.929 . S
H161 C144 0.930 . S
H162 C145 0.931 . S
H163 C146 0.930 . S
H164 C155 0.929 . S
H165 C156 0.930 . S
H166 C157 0.931 . S
H167 C158 0.930 . S
C168 C170 1.422 . S
C168 C172 1.415 . S
C168 N174 1.369 . S
C169 C170 1.421 . S
C169 C171 1.417 . S
C169 C181 1.422 . S
C170 C168 1.422 . S
C170 C169 1.421 . S
C170 N180 1.359 . S
C171 C169 1.417 . S
C171 C173 1.329 . S
C171 H190 0.930 1_554 S
C172 C168 1.415 . S
C172 C173 1.437 . S
C172 C176 1.413 . S
C173 C171 1.329 . S
C173 C172 1.437 . S
C173 H195 0.929 . S
N174 C168 1.369 . S
N174 C175 1.338 . S
N174 Gd179 2.622 . S
C175 N174 1.338 . S
C175 C177 1.378 . S
C175 H187 0.929 . S
C176 C172 1.413 . S
C176 C177 1.348 . S
C176 H192 0.931 . S
C177 C175 1.378 . S
C177 C176 1.348 . S
C177 H193 0.930 . S
Gd178 N198 2.622 . S
Gd178 N205 2.570 . S
Gd178 O212 2.353 . S
Gd178 O213 2.468 . S
Gd178 O214 2.427 . S
Gd178 O216 2.388 . S
Gd178 O217 2.386 . S
Gd178 O221 2.307 . S
Gd178 C231 2.805 . S
Gd179 N174 2.622 . S
Gd179 N180 2.570 . S
Gd179 O211 2.386 . S
Gd179 O215 2.307 . S
Gd179 O218 2.353 . S
Gd179 O219 2.468 . S
Gd179 O220 2.427 . S
Gd179 O222 2.388 . S
Gd179 C243 2.805 . S
N180 C170 1.359 . S
N180 Gd179 2.570 . S
N180 C182 1.343 . S
C181 C169 1.422 . S
C181 C183 1.321 . S
C181 H189 0.931 . S
C182 N180 1.343 . S
C182 C183 1.390 . S
C182 H184 0.931 . S
C183 C181 1.321 . S
C183 C182 1.390 . S
C183 H185 0.930 . S
H184 C182 0.931 . S
H185 C183 0.930 . S
H186 C209 0.931 . S
H187 C175 0.929 . S
H188 C210 0.930 . S
H189 C181 0.931 . S
H190 C171 0.930 1_556 S
H191 C200 0.929 . S
H192 C176 0.931 . S
H193 C177 0.930 . S
H194 C232 0.930 . S
H195 C173 0.929 . S
H196 C201 0.931 . S
H197 C202 0.930 . S
N198 Gd178 2.622 . S
N198 C199 1.369 . S
N198 C200 1.338 . S
C199 N198 1.369 . S
C199 C203 1.415 . S
C199 C206 1.422 . S
C200 H191 0.929 . S
C200 N198 1.338 . S
C200 C202 1.378 . S
C201 H196 0.931 . S
C201 C202 1.348 . S
C201 C203 1.413 . S
C202 H197 0.930 . S
C202 C200 1.378 . S
C202 C201 1.348 . S
C203 C199 1.415 . S
C203 C201 1.413 . S
C203 C233 1.437 . S
H204 C233 0.929 1_554 S
N205 Gd178 2.570 . S
N205 C206 1.359 . S
N205 C209 1.343 . S
C206 C199 1.422 . S
C206 N205 1.359 . S
C206 C208 1.421 . S
C207 C208 1.422 . S
C207 C210 1.321 . S
C207 H234 0.931 1_556 S
C208 C206 1.421 . S
C208 C207 1.422 . S
C208 C232 1.417 1_556 S
C209 H186 0.931 . S
C209 N205 1.343 . S
C209 C210 1.390 . S
C210 H188 0.930 . S
C210 C207 1.321 . S
C210 C209 1.390 . S
O211 Gd179 2.386 . S
O211 C223 1.265 . S
O212 Gd178 2.353 . S
O212 C223 1.242 . S
O213 Gd178 2.468 . S
O213 C231 1.263 . S
O214 Gd178 2.427 . S
O214 C231 1.252 . S
O215 Gd179 2.307 . S
O215 C224 1.261 . S
O216 Gd178 2.388 . S
O216 C224 1.252 . S
O217 Gd178 2.386 . S
O217 C235 1.265 . S
O218 Gd179 2.353 . S
O218 C235 1.242 . S
O219 Gd179 2.468 . S
O219 C243 1.263 . S
O220 Gd179 2.427 . S
O220 C243 1.252 . S
O221 Gd178 2.307 . S
O221 C236 1.261 . S
O222 Gd179 2.388 . S
O222 C236 1.252 . S
C223 O211 1.265 . S
C223 O212 1.242 . S
C224 O215 1.261 . S
C224 O216 1.252 . S
C225 C228 1.394 . S
C225 C230 1.370 . S
C225 C231 1.500 . S
C226 C229 1.383 . S
C226 C230 1.395 . S
C227 C228 1.396 . S
C227 C229 1.365 . S
C227 H244 0.929 . S
C228 C225 1.394 . S
C228 C227 1.396 . S
C228 H245 0.930 . S
C229 C226 1.383 . S
C229 C227 1.365 . S
C229 H246 0.931 . S
C230 C225 1.370 . S
C230 C226 1.395 . S
C230 H247 0.930 . S
C231 Gd178 2.805 . S
C231 O213 1.263 . S
C231 O214 1.252 . S
C231 C225 1.500 . S
C232 H194 0.930 . S
C232 C208 1.417 1_554 S
C232 C233 1.329 1_554 S
C233 C203 1.437 . S
C233 H204 0.929 1_556 S
C233 C232 1.329 1_556 S
H234 C207 0.931 1_554 S
C235 O217 1.265 . S
C235 O218 1.242 . S
C236 O221 1.261 . S
C236 O222 1.252 . S
C237 C240 1.394 . S
C237 C242 1.370 . S
C237 C243 1.500 . S
C238 C241 1.383 . S
C238 C242 1.395 . S
C239 C240 1.396 . S
C239 C241 1.365 . S
C239 H248 0.929 . S
C240 C237 1.394 . S
C240 C239 1.396 . S
C240 H249 0.930 . S
C241 C238 1.383 . S
C241 C239 1.365 . S
C241 H250 0.931 . S
C242 C237 1.370 . S
C242 C238 1.395 . S
C242 H251 0.930 . S
C243 Gd179 2.805 . S
C243 O219 1.263 . S
C243 O220 1.252 . S
C243 C237 1.500 . S
H244 C227 0.929 . S
H245 C228 0.930 . S
H246 C229 0.931 . S
H247 C230 0.930 . S
H248 C239 0.929 . S
H249 C240 0.930 . S
H250 C241 0.931 . S
H251 C242 0.930 . S
C252 C254 1.422 . S
C252 C256 1.415 . S
C252 N258 1.369 . S
C253 C254 1.421 . S
C253 C255 1.417 1_556 S
C253 C265 1.422 . S
C254 C252 1.422 . S
C254 C253 1.421 . S
C254 N264 1.359 . S
C255 C253 1.417 1_554 S
C255 C257 1.329 1_554 S
C255 H274 0.930 . S
C256 C252 1.415 . S
C256 C257 1.437 . S
C256 C260 1.413 . S
C257 C255 1.329 1_556 S
C257 C256 1.437 . S
C257 H279 0.929 1_556 S
N258 C252 1.369 . S
N258 C259 1.338 . S
N258 Gd263 2.622 . S
C259 N258 1.338 . S
C259 C261 1.378 . S
C259 H271 0.929 . S
C260 C256 1.413 . S
C260 C261 1.348 . S
C260 H276 0.931 . S
C261 C259 1.378 . S
C261 C260 1.348 . S
C261 H277 0.930 . S
Gd262 N282 2.622 . S
Gd262 N289 2.570 . S
Gd262 O296 2.353 . S
Gd262 O297 2.468 . S
Gd262 O298 2.427 . S
Gd262 O300 2.388 . S
Gd262 O301 2.386 . S
Gd262 O305 2.307 . S
Gd262 C315 2.805 . S
Gd263 N258 2.622 . S
Gd263 N264 2.570 . S
Gd263 O295 2.386 . S
Gd263 O299 2.307 . S
Gd263 O302 2.353 . S
Gd263 O303 2.468 . S
Gd263 O304 2.427 . S
Gd263 O306 2.388 . S
Gd263 C327 2.805 . S
N264 C254 1.359 . S
N264 Gd263 2.570 . S
N264 C266 1.343 . S
C265 C253 1.422 . S
C265 C267 1.321 . S
C265 H273 0.931 1_556 S
C266 N264 1.343 . S
C266 C267 1.390 . S
C266 H268 0.931 . S
C267 C265 1.321 . S
C267 C266 1.390 . S
C267 H269 0.930 . S
H268 C266 0.931 . S
H269 C267 0.930 . S
H270 C293 0.931 . S
H271 C259 0.929 . S
H272 C294 0.930 . S
H273 C265 0.931 1_554 S
H274 C255 0.930 . S
H275 C284 0.929 . S
H276 C260 0.931 . S
H277 C261 0.930 . S
H278 C316 0.930 1_556 S
H279 C257 0.929 1_554 S
H280 C285 0.931 . S
H281 C286 0.930 . S
N282 Gd262 2.622 . S
N282 C283 1.369 . S
N282 C284 1.338 . S
C283 N282 1.369 . S
C283 C287 1.415 . S
C283 C290 1.422 . S
C284 H275 0.929 . S
C284 N282 1.338 . S
C284 C286 1.378 . S
C285 H280 0.931 . S
C285 C286 1.348 . S
C285 C287 1.413 . S
C286 H281 0.930 . S
C286 C284 1.378 . S
C286 C285 1.348 . S
C287 C283 1.415 . S
C287 C285 1.413 . S
C287 C317 1.437 . S
H288 C317 0.929 . S
N289 Gd262 2.570 . S
N289 C290 1.359 . S
N289 C293 1.343 . S
C290 C283 1.422 . S
C290 N289 1.359 . S
C290 C292 1.421 . S
C291 C292 1.422 . S
C291 C294 1.321 . S
C291 H318 0.931 . S
C292 C290 1.421 . S
C292 C291 1.422 . S
C292 C316 1.417 . S
C293 H270 0.931 . S
C293 N289 1.343 . S
C293 C294 1.390 . S
C294 H272 0.930 . S
C294 C291 1.321 . S
C294 C293 1.390 . S
O295 Gd263 2.386 . S
O295 C307 1.265 . S
O296 Gd262 2.353 . S
O296 C307 1.242 . S
O297 Gd262 2.468 . S
O297 C315 1.263 . S
O298 Gd262 2.427 . S
O298 C315 1.252 . S
O299 Gd263 2.307 . S
O299 C308 1.261 . S
O300 Gd262 2.388 . S
O300 C308 1.252 . S
O301 Gd262 2.386 . S
O301 C319 1.265 . S
O302 Gd263 2.353 . S
O302 C319 1.242 . S
O303 Gd263 2.468 . S
O303 C327 1.263 . S
O304 Gd263 2.427 . S
O304 C327 1.252 . S
O305 Gd262 2.307 . S
O305 C320 1.261 . S
O306 Gd263 2.388 . S
O306 C320 1.252 . S
C307 O295 1.265 . S
C307 O296 1.242 . S
C308 O299 1.261 . S
C308 O300 1.252 . S
C309 C312 1.394 . S
C309 C314 1.370 . S
C309 C315 1.500 . S
C310 C313 1.383 . S
C310 C314 1.395 . S
C311 C312 1.396 . S
C311 C313 1.365 . S
C311 H328 0.929 . S
C312 C309 1.394 . S
C312 C311 1.396 . S
C312 H329 0.930 . S
C313 C310 1.383 . S
C313 C311 1.365 . S
C313 H330 0.931 . S
C314 C309 1.370 . S
C314 C310 1.395 . S
C314 H331 0.930 . S
C315 Gd262 2.805 . S
C315 O297 1.263 . S
C315 O298 1.252 . S
C315 C309 1.500 . S
C316 H278 0.930 1_554 S
C316 C292 1.417 . S
C316 C317 1.329 . S
C317 C287 1.437 . S
C317 H288 0.929 . S
C317 C316 1.329 . S
H318 C291 0.931 . S
C319 O301 1.265 . S
C319 O302 1.242 . S
C320 O305 1.261 . S
C320 O306 1.252 . S
C321 C324 1.394 . S
C321 C326 1.370 . S
C321 C327 1.500 . S
C322 C325 1.383 . S
C322 C326 1.395 . S
C323 C324 1.396 . S
C323 C325 1.365 . S
C323 H332 0.929 . S
C324 C321 1.394 . S
C324 C323 1.396 . S
C324 H333 0.930 . S
C325 C322 1.383 . S
C325 C323 1.365 . S
C325 H334 0.931 . S
C326 C321 1.370 . S
C326 C322 1.395 . S
C326 H335 0.930 . S
C327 Gd263 2.805 . S
C327 O303 1.263 . S
C327 O304 1.252 . S
C327 C321 1.500 . S
H328 C311 0.929 . S
H329 C312 0.930 . S
H330 C313 0.931 . S
H331 C314 0.930 . S
H332 C323 0.929 . S
H333 C324 0.930 . S
H334 C325 0.931 . S
H335 C326 0.930 . S
C336 C338 1.422 . S
C336 C340 1.415 . S
C336 N342 1.369 . S
C337 C338 1.421 . S
C337 C339 1.417 . S
C337 C349 1.422 . S
C338 C336 1.422 . S
C338 C337 1.421 . S
C338 N348 1.359 . S
C339 C337 1.417 . S
C339 C341 1.329 . S
C339 H358 0.930 . S
C340 C336 1.415 . S
C340 C341 1.437 . S
C340 C344 1.413 . S
C341 C339 1.329 . S
C341 C340 1.437 . S
C341 H363 0.929 . S
N342 C336 1.369 . S
N342 C343 1.338 . S
N342 Gd347 2.622 . S
C343 N342 1.338 . S
C343 C345 1.378 . S
C343 H355 0.929 . S
C344 C340 1.413 . S
C344 C345 1.348 . S
C344 H360 0.931 . S
C345 C343 1.378 . S
C345 C344 1.348 . S
C345 H361 0.930 . S
Gd346 N366 2.622 . S
Gd346 N373 2.570 . S
Gd346 O380 2.353 1_556 S
Gd346 O381 2.468 1_556 S
Gd346 O382 2.427 1_556 S
Gd346 O384 2.388 1_556 S
Gd346 O385 2.386 . S
Gd346 O389 2.307 . S
Gd346 C399 2.805 1_556 S
Gd347 N342 2.622 . S
Gd347 N348 2.570 . S
Gd347 O379 2.386 . S
Gd347 O383 2.307 . S
Gd347 O386 2.353 1_554 S
Gd347 O387 2.468 1_554 S
Gd347 O388 2.427 1_554 S
Gd347 O390 2.388 1_554 S
Gd347 C411 2.805 1_554 S
N348 C338 1.359 . S
N348 Gd347 2.570 . S
N348 C350 1.343 . S
C349 C337 1.422 . S
C349 C351 1.321 . S
C349 H357 0.931 . S
C350 N348 1.343 . S
C350 C351 1.390 . S
C350 H352 0.931 . S
C351 C349 1.321 . S
C351 C350 1.390 . S
C351 H353 0.930 . S
H352 C350 0.931 . S
H353 C351 0.930 . S
H354 C377 0.931 . S
H355 C343 0.929 . S
H356 C378 0.930 . S
H357 C349 0.931 . S
H358 C339 0.930 . S
H359 C368 0.929 . S
H360 C344 0.931 . S
H361 C345 0.930 . S
H362 C400 0.930 . S
H363 C341 0.929 . S
H364 C369 0.931 . S
H365 C370 0.930 1_545 S
N366 Gd346 2.622 . S
N366 C367 1.369 . S
N366 C368 1.338 . S
C367 N366 1.369 . S
C367 C371 1.415 . S
C367 C374 1.422 . S
C368 H359 0.929 . S
C368 N366 1.338 . S
C368 C370 1.378 . S
C369 H364 0.931 . S
C369 C370 1.348 . S
C369 C371 1.413 . S
C370 H365 0.930 1_565 S
C370 C368 1.378 . S
C370 C369 1.348 . S
C371 C367 1.415 . S
C371 C369 1.413 . S
C371 C401 1.437 . S
H372 C401 0.929 . S
N373 Gd346 2.570 . S
N373 C374 1.359 . S
N373 C377 1.343 . S
C374 C367 1.422 . S
C374 N373 1.359 . S
C374 C376 1.421 . S
C375 C376 1.422 . S
C375 C378 1.321 . S
C375 H402 0.931 . S
C376 C374 1.421 . S
C376 C375 1.422 . S
C376 C400 1.417 . S
C377 H354 0.931 . S
C377 N373 1.343 . S
C377 C378 1.390 . S
C378 H356 0.930 . S
C378 C375 1.321 . S
C378 C377 1.390 . S
O379 Gd347 2.386 . S
O379 C391 1.265 . S
O380 Gd346 2.353 1_554 S
O380 C391 1.242 . S
O381 Gd346 2.468 1_554 S
O381 C399 1.263 . S
O382 Gd346 2.427 1_554 S
O382 C399 1.252 . S
O383 Gd347 2.307 . S
O383 C392 1.261 . S
O384 Gd346 2.388 1_554 S
O384 C392 1.252 . S
O385 Gd346 2.386 . S
O385 C403 1.265 . S
O386 Gd347 2.353 1_556 S
O386 C403 1.242 . S
O387 Gd347 2.468 1_556 S
O387 C411 1.263 . S
O388 Gd347 2.427 1_556 S
O388 C411 1.252 . S
O389 Gd346 2.307 . S
O389 C404 1.261 . S
O390 Gd347 2.388 1_556 S
O390 C404 1.252 . S
C391 O379 1.265 . S
C391 O380 1.242 . S
C392 O383 1.261 . S
C392 O384 1.252 . S
C393 C396 1.394 . S
C393 C398 1.370 . S
C393 C399 1.500 . S
C394 C397 1.383 . S
C394 C398 1.395 . S
C395 C396 1.396 . S
C395 C397 1.365 . S
C395 H412 0.929 . S
C396 C393 1.394 . S
C396 C395 1.396 . S
C396 H413 0.930 . S
C397 C394 1.383 . S
C397 C395 1.365 . S
C397 H414 0.931 . S
C398 C393 1.370 . S
C398 C394 1.395 . S
C398 H415 0.930 . S
C399 Gd346 2.805 1_554 S
C399 O381 1.263 . S
C399 O382 1.252 . S
C399 C393 1.500 . S
C400 H362 0.930 . S
C400 C376 1.417 . S
C400 C401 1.329 . S
C401 C371 1.437 . S
C401 H372 0.929 . S
C401 C400 1.329 . S
H402 C375 0.931 . S
C403 O385 1.265 . S
C403 O386 1.242 . S
C404 O389 1.261 . S
C404 O390 1.252 . S
C405 C408 1.394 . S
C405 C410 1.370 . S
C405 C411 1.500 . S
C406 C409 1.383 . S
C406 C410 1.395 . S
C407 C408 1.396 . S
C407 C409 1.365 . S
C407 H416 0.929 . S
C408 C405 1.394 . S
C408 C407 1.396 . S
C408 H417 0.930 . S
C409 C406 1.383 . S
C409 C407 1.365 . S
C409 H418 0.931 . S
C410 C405 1.370 . S
C410 C406 1.395 . S
C410 H419 0.930 . S
C411 Gd347 2.805 1_556 S
C411 O387 1.263 . S
C411 O388 1.252 . S
C411 C405 1.500 . S
H412 C395 0.929 . S
H413 C396 0.930 . S
H414 C397 0.931 . S
H415 C398 0.930 . S
H416 C407 0.929 . S
H417 C408 0.930 . S
H418 C409 0.931 . S
H419 C410 0.930 . S
C420 C422 1.422 . S
C420 C424 1.415 . S
C420 N426 1.369 . S
C421 C422 1.421 . S
C421 C423 1.417 . S
C421 C433 1.422 . S
C422 C420 1.422 . S
C422 C421 1.421 . S
C422 N432 1.359 . S
C423 C421 1.417 . S
C423 C425 1.329 . S
C423 H442 0.930 . S
C424 C420 1.415 . S
C424 C425 1.437 . S
C424 C428 1.413 . S
C425 C423 1.329 . S
C425 C424 1.437 . S
C425 H447 0.929 . S
N426 C420 1.369 . S
N426 C427 1.338 . S
N426 Gd431 2.622 . S
C427 N426 1.338 . S
C427 C429 1.378 . S
C427 H439 0.929 . S
C428 C424 1.413 . S
C428 C429 1.348 . S
C428 H444 0.931 . S
C429 C427 1.378 . S
C429 C428 1.348 . S
C429 H445 0.930 1_565 S
Gd430 N450 2.622 . S
Gd430 N457 2.570 . S
Gd430 O464 2.353 1_554 S
Gd430 O465 2.468 1_554 S
Gd430 O466 2.427 1_554 S
Gd430 O468 2.388 1_554 S
Gd430 O469 2.386 . S
Gd430 O473 2.307 . S
Gd430 C483 2.805 1_554 S
Gd431 N426 2.622 . S
Gd431 N432 2.570 . S
Gd431 O463 2.386 . S
Gd431 O467 2.307 . S
Gd431 O470 2.353 1_556 S
Gd431 O471 2.468 1_556 S
Gd431 O472 2.427 1_556 S
Gd431 O474 2.388 1_556 S
Gd431 C495 2.805 1_556 S
N432 C422 1.359 . S
N432 Gd431 2.570 . S
N432 C434 1.343 . S
C433 C421 1.422 . S
C433 C435 1.321 . S
C433 H441 0.931 . S
C434 N432 1.343 . S
C434 C435 1.390 . S
C434 H436 0.931 . S
C435 C433 1.321 . S
C435 C434 1.390 . S
C435 H437 0.930 . S
H436 C434 0.931 . S
H437 C435 0.930 . S
H438 C461 0.931 . S
H439 C427 0.929 . S
H440 C462 0.930 . S
H441 C433 0.931 . S
H442 C423 0.930 . S
H443 C452 0.929 . S
H444 C428 0.931 . S
H445 C429 0.930 1_545 S
H446 C484 0.930 . S
H447 C425 0.929 . S
H448 C453 0.931 . S
H449 C454 0.930 . S
N450 Gd430 2.622 . S
N450 C451 1.369 . S
N450 C452 1.338 . S
C451 N450 1.369 . S
C451 C455 1.415 . S
C451 C458 1.422 . S
C452 H443 0.929 . S
C452 N450 1.338 . S
C452 C454 1.378 . S
C453 H448 0.931 . S
C453 C454 1.348 . S
C453 C455 1.413 . S
C454 H449 0.930 . S
C454 C452 1.378 . S
C454 C453 1.348 . S
C455 C451 1.415 . S
C455 C453 1.413 . S
C455 C485 1.437 . S
H456 C485 0.929 . S
N457 Gd430 2.570 . S
N457 C458 1.359 . S
N457 C461 1.343 . S
C458 C451 1.422 . S
C458 N457 1.359 . S
C458 C460 1.421 . S
C459 C460 1.422 . S
C459 C462 1.321 . S
C459 H486 0.931 . S
C460 C458 1.421 . S
C460 C459 1.422 . S
C460 C484 1.417 . S
C461 H438 0.931 . S
C461 N457 1.343 . S
C461 C462 1.390 . S
C462 H440 0.930 . S
C462 C459 1.321 . S
C462 C461 1.390 . S
O463 Gd431 2.386 . S
O463 C475 1.265 . S
O464 Gd430 2.353 1_556 S
O464 C475 1.242 . S
O465 Gd430 2.468 1_556 S
O465 C483 1.263 . S
O466 Gd430 2.427 1_556 S
O466 C483 1.252 . S
O467 Gd431 2.307 . S
O467 C476 1.261 . S
O468 Gd430 2.388 1_556 S
O468 C476 1.252 . S
O469 Gd430 2.386 . S
O469 C487 1.265 . S
O470 Gd431 2.353 1_554 S
O470 C487 1.242 . S
O471 Gd431 2.468 1_554 S
O471 C495 1.263 . S
O472 Gd431 2.427 1_554 S
O472 C495 1.252 . S
O473 Gd430 2.307 . S
O473 C488 1.261 . S
O474 Gd431 2.388 1_554 S
O474 C488 1.252 . S
C475 O463 1.265 . S
C475 O464 1.242 . S
C476 O467 1.261 . S
C476 O468 1.252 . S
C477 C480 1.394 . S
C477 C482 1.370 . S
C477 C483 1.500 . S
C478 C481 1.383 . S
C478 C482 1.395 . S
C479 C480 1.396 . S
C479 C481 1.365 . S
C479 H496 0.929 . S
C480 C477 1.394 . S
C480 C479 1.396 . S
C480 H497 0.930 . S
C481 C478 1.383 . S
C481 C479 1.365 . S
C481 H498 0.931 . S
C482 C477 1.370 . S
C482 C478 1.395 . S
C482 H499 0.930 . S
C483 Gd430 2.805 1_556 S
C483 O465 1.263 . S
C483 O466 1.252 . S
C483 C477 1.500 . S
C484 H446 0.930 . S
C484 C460 1.417 . S
C484 C485 1.329 . S
C485 C455 1.437 . S
C485 H456 0.929 . S
C485 C484 1.329 . S
H486 C459 0.931 . S
C487 O469 1.265 . S
C487 O470 1.242 . S
C488 O473 1.261 . S
C488 O474 1.252 . S
C489 C492 1.394 . S
C489 C494 1.370 . S
C489 C495 1.500 . S
C490 C493 1.383 . S
C490 C494 1.395 . S
C491 C492 1.396 . S
C491 C493 1.365 . S
C491 H500 0.929 . S
C492 C489 1.394 . S
C492 C491 1.396 . S
C492 H501 0.930 . S
C493 C490 1.383 . S
C493 C491 1.365 . S
C493 H502 0.931 . S
C494 C489 1.370 . S
C494 C490 1.395 . S
C494 H503 0.930 . S
C495 Gd431 2.805 1_554 S
C495 O471 1.263 . S
C495 O472 1.252 . S
C495 C489 1.500 . S
H496 C479 0.929 . S
H497 C480 0.930 . S
H498 C481 0.931 . S
H499 C482 0.930 . S
H500 C491 0.929 . S
H501 C492 0.930 . S
H502 C493 0.931 . S
H503 C494 0.930 . S
C504 C506 1.422 . S
C504 C508 1.415 . S
C504 N510 1.369 . S
C505 C506 1.421 . S
C505 C507 1.417 . S
C505 C517 1.422 . S
C506 C504 1.422 . S
C506 C505 1.421 . S
C506 N516 1.359 . S
C507 C505 1.417 . S
C507 C509 1.329 . S
C507 H526 0.930 . S
C508 C504 1.415 . S
C508 C509 1.437 . S
C508 C512 1.413 . S
C509 C507 1.329 . S
C509 C508 1.437 . S
C509 H531 0.929 . S
N510 C504 1.369 . S
N510 C511 1.338 . S
N510 Gd515 2.622 . S
C511 N510 1.338 . S
C511 C513 1.378 . S
C511 H523 0.929 . S
C512 C508 1.413 . S
C512 C513 1.348 . S
C512 H528 0.931 . S
C513 C511 1.378 . S
C513 C512 1.348 . S
C513 H529 0.930 . S
Gd514 N534 2.622 . S
Gd514 N541 2.570 . S
Gd514 O548 2.353 1_554 S
Gd514 O549 2.468 1_554 S
Gd514 O550 2.427 1_554 S
Gd514 O552 2.388 1_554 S
Gd514 O553 2.386 . S
Gd514 O557 2.307 . S
Gd514 C567 2.805 1_554 S
Gd515 N510 2.622 . S
Gd515 N516 2.570 . S
Gd515 O547 2.386 . S
Gd515 O551 2.307 . S
Gd515 O554 2.353 1_556 S
Gd515 O555 2.468 1_556 S
Gd515 O556 2.427 1_556 S
Gd515 O558 2.388 1_556 S
Gd515 C579 2.805 1_556 S
N516 C506 1.359 . S
N516 Gd515 2.570 . S
N516 C518 1.343 . S
C517 C505 1.422 . S
C517 C519 1.321 . S
C517 H525 0.931 . S
C518 N516 1.343 . S
C518 C519 1.390 . S
C518 H520 0.931 . S
C519 C517 1.321 . S
C519 C518 1.390 . S
C519 H521 0.930 . S
H520 C518 0.931 . S
H521 C519 0.930 . S
H522 C545 0.931 . S
H523 C511 0.929 . S
H524 C546 0.930 . S
H525 C517 0.931 . S
H526 C507 0.930 . S
H527 C536 0.929 . S
H528 C512 0.931 . S
H529 C513 0.930 . S
H530 C568 0.930 . S
H531 C509 0.929 . S
H532 C537 0.931 . S
H533 C538 0.930 1_565 S
N534 Gd514 2.622 . S
N534 C535 1.369 . S
N534 C536 1.338 . S
C535 N534 1.369 . S
C535 C539 1.415 . S
C535 C542 1.422 . S
C536 H527 0.929 . S
C536 N534 1.338 . S
C536 C538 1.378 . S
C537 H532 0.931 . S
C537 C538 1.348 . S
C537 C539 1.413 . S
C538 H533 0.930 1_545 S
C538 C536 1.378 . S
C538 C537 1.348 . S
C539 C535 1.415 . S
C539 C537 1.413 . S
C539 C569 1.437 . S
H540 C569 0.929 . S
N541 Gd514 2.570 . S
N541 C542 1.359 . S
N541 C545 1.343 . S
C542 C535 1.422 . S
C542 N541 1.359 . S
C542 C544 1.421 . S
C543 C544 1.422 . S
C543 C546 1.321 . S
C543 H570 0.931 . S
C544 C542 1.421 . S
C544 C543 1.422 . S
C544 C568 1.417 . S
C545 H522 0.931 . S
C545 N541 1.343 . S
C545 C546 1.390 . S
C546 H524 0.930 . S
C546 C543 1.321 . S
C546 C545 1.390 . S
O547 Gd515 2.386 . S
O547 C559 1.265 . S
O548 Gd514 2.353 1_556 S
O548 C559 1.242 . S
O549 Gd514 2.468 1_556 S
O549 C567 1.263 . S
O550 Gd514 2.427 1_556 S
O550 C567 1.252 . S
O551 Gd515 2.307 . S
O551 C560 1.261 . S
O552 Gd514 2.388 1_556 S
O552 C560 1.252 . S
O553 Gd514 2.386 . S
O553 C571 1.265 . S
O554 Gd515 2.353 1_554 S
O554 C571 1.242 . S
O555 Gd515 2.468 1_554 S
O555 C579 1.263 . S
O556 Gd515 2.427 1_554 S
O556 C579 1.252 . S
O557 Gd514 2.307 . S
O557 C572 1.261 . S
O558 Gd515 2.388 1_554 S
O558 C572 1.252 . S
C559 O547 1.265 . S
C559 O548 1.242 . S
C560 O551 1.261 . S
C560 O552 1.252 . S
C561 C564 1.394 . S
C561 C566 1.370 . S
C561 C567 1.500 . S
C562 C565 1.383 . S
C562 C566 1.395 . S
C563 C564 1.396 . S
C563 C565 1.365 . S
C563 H580 0.929 . S
C564 C561 1.394 . S
C564 C563 1.396 . S
C564 H581 0.930 . S
C565 C562 1.383 . S
C565 C563 1.365 . S
C565 H582 0.931 . S
C566 C561 1.370 . S
C566 C562 1.395 . S
C566 H583 0.930 . S
C567 Gd514 2.805 1_556 S
C567 O549 1.263 . S
C567 O550 1.252 . S
C567 C561 1.500 . S
C568 H530 0.930 . S
C568 C544 1.417 . S
C568 C569 1.329 . S
C569 C539 1.437 . S
C569 H540 0.929 . S
C569 C568 1.329 . S
H570 C543 0.931 . S
C571 O553 1.265 . S
C571 O554 1.242 . S
C572 O557 1.261 . S
C572 O558 1.252 . S
C573 C576 1.394 . S
C573 C578 1.370 . S
C573 C579 1.500 . S
C574 C577 1.383 . S
C574 C578 1.395 . S
C575 C576 1.396 . S
C575 C577 1.365 . S
C575 H584 0.929 . S
C576 C573 1.394 . S
C576 C575 1.396 . S
C576 H585 0.930 . S
C577 C574 1.383 . S
C577 C575 1.365 . S
C577 H586 0.931 . S
C578 C573 1.370 . S
C578 C574 1.395 . S
C578 H587 0.930 . S
C579 Gd515 2.805 1_554 S
C579 O555 1.263 . S
C579 O556 1.252 . S
C579 C573 1.500 . S
H580 C563 0.929 . S
H581 C564 0.930 . S
H582 C565 0.931 . S
H583 C566 0.930 . S
H584 C575 0.929 . S
H585 C576 0.930 . S
H586 C577 0.931 . S
H587 C578 0.930 . S
C588 C590 1.422 . S
C588 C592 1.415 . S
C588 N594 1.369 . S
C589 C590 1.421 . S
C589 C591 1.417 . S
C589 C601 1.422 . S
C590 C588 1.422 . S
C590 C589 1.421 . S
C590 N600 1.359 . S
C591 C589 1.417 . S
C591 C593 1.329 . S
C591 H610 0.930 . S
C592 C588 1.415 . S
C592 C593 1.437 . S
C592 C596 1.413 . S
C593 C591 1.329 . S
C593 C592 1.437 . S
C593 H615 0.929 . S
N594 C588 1.369 . S
N594 C595 1.338 . S
N594 Gd599 2.622 . S
C595 N594 1.338 . S
C595 C597 1.378 . S
C595 H607 0.929 . S
C596 C592 1.413 . S
C596 C597 1.348 . S
C596 H612 0.931 . S
C597 C595 1.378 . S
C597 C596 1.348 . S
C597 H613 0.930 1_545 S
Gd598 N618 2.622 . S
Gd598 N625 2.570 . S
Gd598 O632 2.353 1_556 S
Gd598 O633 2.468 1_556 S
Gd598 O634 2.427 1_556 S
Gd598 O636 2.388 1_556 S
Gd598 O637 2.386 . S
Gd598 O641 2.307 . S
Gd598 C651 2.805 1_556 S
Gd599 N594 2.622 . S
Gd599 N600 2.570 . S
Gd599 O631 2.386 . S
Gd599 O635 2.307 . S
Gd599 O638 2.353 1_554 S
Gd599 O639 2.468 1_554 S
Gd599 O640 2.427 1_554 S
Gd599 O642 2.388 1_554 S
Gd599 C663 2.805 1_554 S
N600 C590 1.359 . S
N600 Gd599 2.570 . S
N600 C602 1.343 . S
C601 C589 1.422 . S
C601 C603 1.321 . S
C601 H609 0.931 . S
C602 N600 1.343 . S
C602 C603 1.390 . S
C602 H604 0.931 . S
C603 C601 1.321 . S
C603 C602 1.390 . S
C603 H605 0.930 . S
H604 C602 0.931 . S
H605 C603 0.930 . S
H606 C629 0.931 . S
H607 C595 0.929 . S
H608 C630 0.930 . S
H609 C601 0.931 . S
H610 C591 0.930 . S
H611 C620 0.929 . S
H612 C596 0.931 . S
H613 C597 0.930 1_565 S
H614 C652 0.930 . S
H615 C593 0.929 . S
H616 C621 0.931 . S
H617 C622 0.930 . S
N618 Gd598 2.622 . S
N618 C619 1.369 . S
N618 C620 1.338 . S
C619 N618 1.369 . S
C619 C623 1.415 . S
C619 C626 1.422 . S
C620 H611 0.929 . S
C620 N618 1.338 . S
C620 C622 1.378 . S
C621 H616 0.931 . S
C621 C622 1.348 . S
C621 C623 1.413 . S
C622 H617 0.930 . S
C622 C620 1.378 . S
C622 C621 1.348 . S
C623 C619 1.415 . S
C623 C621 1.413 . S
C623 C653 1.437 . S
H624 C653 0.929 . S
N625 Gd598 2.570 . S
N625 C626 1.359 . S
N625 C629 1.343 . S
C626 C619 1.422 . S
C626 N625 1.359 . S
C626 C628 1.421 . S
C627 C628 1.422 . S
C627 C630 1.321 . S
C627 H654 0.931 . S
C628 C626 1.421 . S
C628 C627 1.422 . S
C628 C652 1.417 . S
C629 H606 0.931 . S
C629 N625 1.343 . S
C629 C630 1.390 . S
C630 H608 0.930 . S
C630 C627 1.321 . S
C630 C629 1.390 . S
O631 Gd599 2.386 . S
O631 C643 1.265 . S
O632 Gd598 2.353 1_554 S
O632 C643 1.242 . S
O633 Gd598 2.468 1_554 S
O633 C651 1.263 . S
O634 Gd598 2.427 1_554 S
O634 C651 1.252 . S
O635 Gd599 2.307 . S
O635 C644 1.261 . S
O636 Gd598 2.388 1_554 S
O636 C644 1.252 . S
O637 Gd598 2.386 . S
O637 C655 1.265 . S
O638 Gd599 2.353 1_556 S
O638 C655 1.242 . S
O639 Gd599 2.468 1_556 S
O639 C663 1.263 . S
O640 Gd599 2.427 1_556 S
O640 C663 1.252 . S
O641 Gd598 2.307 . S
O641 C656 1.261 . S
O642 Gd599 2.388 1_556 S
O642 C656 1.252 . S
C643 O631 1.265 . S
C643 O632 1.242 . S
C644 O635 1.261 . S
C644 O636 1.252 . S
C645 C648 1.394 . S
C645 C650 1.370 . S
C645 C651 1.500 . S
C646 C649 1.383 . S
C646 C650 1.395 . S
C647 C648 1.396 . S
C647 C649 1.365 . S
C647 H664 0.929 . S
C648 C645 1.394 . S
C648 C647 1.396 . S
C648 H665 0.930 . S
C649 C646 1.383 . S
C649 C647 1.365 . S
C649 H666 0.931 . S
C650 C645 1.370 . S
C650 C646 1.395 . S
C650 H667 0.930 . S
C651 Gd598 2.805 1_554 S
C651 O633 1.263 . S
C651 O634 1.252 . S
C651 C645 1.500 . S
C652 H614 0.930 . S
C652 C628 1.417 . S
C652 C653 1.329 . S
C653 C623 1.437 . S
C653 H624 0.929 . S
C653 C652 1.329 . S
H654 C627 0.931 . S
C655 O637 1.265 . S
C655 O638 1.242 . S
C656 O641 1.261 . S
C656 O642 1.252 . S
C657 C660 1.394 . S
C657 C662 1.370 . S
C657 C663 1.500 . S
C658 C661 1.383 . S
C658 C662 1.395 . S
C659 C660 1.396 . S
C659 C661 1.365 . S
C659 H668 0.929 . S
C660 C657 1.394 . S
C660 C659 1.396 . S
C660 H669 0.930 . S
C661 C658 1.383 . S
C661 C659 1.365 . S
C661 H670 0.931 . S
C662 C657 1.370 . S
C662 C658 1.395 . S
C662 H671 0.930 . S
C663 Gd599 2.805 1_556 S
C663 O639 1.263 . S
C663 O640 1.252 . S
C663 C657 1.500 . S
H664 C647 0.929 . S
H665 C648 0.930 . S
H666 C649 0.931 . S
H667 C650 0.930 . S
H668 C659 0.929 . S
H669 C660 0.930 . S
H670 C661 0.931 . S
H671 C662 0.930 . S
C672 C673 1.363 . S
C672 C678 1.379 . S
C672 N680 1.356 . S
C673 C672 1.363 . S
C673 C679 1.363 . S
C674 C675 1.363 . S
C674 C679 1.379 . S
C674 N681 1.356 . S
C675 C674 1.363 . S
C675 C678 1.363 . S
N676 C678 1.356 . S
N676 H688 0.984 1_556 S
N676 H689 0.985 . S
N677 C679 1.356 . S
N677 H682 0.984 . S
N677 H683 0.985 . S
C678 C672 1.379 . S
C678 C675 1.363 . S
C678 N676 1.356 . S
C679 C673 1.363 . S
C679 C674 1.379 . S
C679 N677 1.356 . S
N680 C672 1.356 . S
N680 H686 0.984 . S
N680 H687 0.984 . S
N681 C674 1.356 . S
N681 H684 0.984 . S
N681 H685 0.985 . S
H682 N677 0.984 . S
H683 N677 0.985 . S
H684 N681 0.984 . S
H685 N681 0.985 . S
H686 N680 0.984 . S
H687 N680 0.984 . S
H688 N676 0.984 1_554 S
H689 N676 0.985 . S
C690 C691 1.363 . S
C690 C696 1.379 . S
C690 N698 1.356 . S
C691 C690 1.363 . S
C691 C697 1.363 . S
C692 C693 1.363 . S
C692 C697 1.379 . S
C692 N699 1.356 . S
C693 C692 1.363 . S
C693 C696 1.363 . S
N694 C696 1.356 . S
N694 H706 0.984 . S
N694 H707 0.985 . S
N695 C697 1.356 . S
N695 H700 0.984 . S
N695 H701 0.985 . S
C696 C690 1.379 . S
C696 C693 1.363 . S
C696 N694 1.356 . S
C697 C691 1.363 . S
C697 C692 1.379 . S
C697 N695 1.356 . S
N698 C690 1.356 . S
N698 H704 0.994 . S
N698 H705 0.984 . S
N699 C692 1.356 . S
N699 H702 0.984 . S
N699 H703 0.985 . S
H700 N695 0.984 . S
H701 N695 0.985 . S
H702 N699 0.984 . S
H703 N699 0.985 . S
H704 N698 0.994 . S
H705 N698 0.984 . S
H706 N694 0.984 . S
H707 N694 0.985 . S
C708 C709 1.363 . S
C708 C714 1.379 . S
C708 N716 1.356 . S
C709 C708 1.363 . S
C709 C715 1.363 . S
C710 C711 1.363 . S
C710 C715 1.379 . S
C710 N717 1.356 . S
C711 C710 1.363 . S
C711 C714 1.363 . S
N712 C714 1.356 . S
N712 H724 0.984 . S
N712 H725 0.985 . S
N713 C715 1.356 . S
N713 H718 0.984 . S
N713 H719 0.985 . S
C714 C708 1.379 . S
C714 C711 1.363 . S
C714 N712 1.356 . S
C715 C709 1.363 . S
C715 C710 1.379 . S
C715 N713 1.356 . S
N716 C708 1.356 . S
N716 H722 0.984 . S
N716 H723 0.984 . S
N717 C710 1.356 . S
N717 H720 0.984 . S
N717 H721 0.985 . S
H718 N713 0.984 . S
H719 N713 0.985 . S
H720 N717 0.984 . S
H721 N717 0.985 . S
H722 N716 0.984 . S
H723 N716 0.984 . S
H724 N712 0.984 . S
H725 N712 0.985 . S
C726 C727 1.363 . S
C726 C732 1.379 . S
C726 N734 1.356 . S
C727 C726 1.363 . S
C727 C733 1.363 . S
C728 C729 1.363 . S
C728 C733 1.379 . S
C728 N735 1.356 . S
C729 C728 1.363 . S
C729 C732 1.363 . S
N730 C732 1.356 . S
N730 H742 0.984 . S
N730 H743 0.985 . S
N731 C733 1.356 . S
N731 H736 0.984 . S
N731 H737 0.985 1_554 S
C732 C726 1.379 . S
C732 C729 1.363 . S
C732 N730 1.356 . S
C733 C727 1.363 . S
C733 C728 1.379 . S
C733 N731 1.356 . S
N734 C726 1.356 . S
N734 H740 0.984 . S
N734 H741 0.984 . S
N735 C728 1.356 . S
N735 H738 0.984 . S
N735 H739 0.985 . S
H736 N731 0.984 . S
H737 N731 0.985 1_556 S
H738 N735 0.984 . S
H739 N735 0.985 . S
H740 N734 0.984 . S
H741 N734 0.984 . S
H742 N730 0.984 . S
H743 N730 0.985 . S
C744 C745 1.363 . S
C744 C750 1.379 1_565 S
C744 N752 1.356 . S
C745 C744 1.363 . S
C745 C751 1.363 . S
C746 C747 1.363 . S
C746 C751 1.379 1_545 S
C746 N753 1.356 . S
C747 C746 1.363 . S
C747 C750 1.363 . S
N748 C750 1.356 . S
N748 H760 0.984 . S
N748 H761 0.985 . S
N749 C751 1.356 . S
N749 H754 0.984 . S
N749 H755 0.985 . S
C750 C744 1.379 1_545 S
C750 C747 1.363 . S
C750 N748 1.356 . S
C751 C745 1.363 . S
C751 C746 1.379 1_565 S
C751 N749 1.356 . S
N752 C744 1.356 . S
N752 H758 0.984 . S
N752 H759 0.984 . S
N753 C746 1.356 . S
N753 H756 0.984 . S
N753 H757 0.985 . S
H754 N749 0.984 . S
H755 N749 0.985 . S
H756 N753 0.984 . S
H757 N753 0.985 . S
H758 N752 0.984 . S
H759 N752 0.984 . S
H760 N748 0.984 . S
H761 N748 0.985 . S
C762 C763 1.363 . S
C762 C768 1.379 . S
C762 N770 1.356 . S
C763 C762 1.363 . S
C763 C769 1.363 . S
C764 C765 1.363 . S
C764 C769 1.379 . S
C764 N771 1.356 . S
C765 C764 1.363 . S
C765 C768 1.363 . S
N766 C768 1.356 . S
N766 H778 0.984 . S
N766 H779 0.985 . S
N767 C769 1.356 . S
N767 H772 0.984 . S
N767 H773 0.985 . S
C768 C762 1.379 . S
C768 C765 1.363 . S
C768 N766 1.356 . S
C769 C763 1.363 . S
C769 C764 1.379 . S
C769 N767 1.356 . S
N770 C762 1.356 . S
N770 H776 0.984 . S
N770 H777 0.984 . S
N771 C764 1.356 . S
N771 H774 0.984 . S
N771 H775 0.985 . S
H772 N767 0.984 . S
H773 N767 0.985 . S
H774 N771 0.984 . S
H775 N771 0.985 . S
H776 N770 0.984 . S
H777 N770 0.984 . S
H778 N766 0.984 . S
H779 N766 0.985 . S
C780 C781 1.363 . S
C780 C786 1.379 1_565 S
C780 N788 1.356 . S
C781 C780 1.363 . S
C781 C787 1.363 . S
C782 C783 1.363 . S
C782 C787 1.379 1_545 S
C782 N789 1.356 . S
C783 C782 1.363 . S
C783 C786 1.363 . S
N784 C786 1.356 . S
N784 H796 0.984 . S
N784 H797 0.985 . S
N785 C787 1.356 . S
N785 H790 0.984 . S
N785 H791 0.985 . S
C786 C780 1.379 1_545 S
C786 C783 1.363 . S
C786 N784 1.356 . S
C787 C781 1.363 . S
C787 C782 1.379 1_565 S
C787 N785 1.356 . S
N788 C780 1.356 . S
N788 H794 0.984 . S
N788 H795 0.984 . S
N789 C782 1.356 . S
N789 H792 0.984 . S
N789 H793 0.985 . S
H790 N785 0.984 . S
H791 N785 0.985 . S
H792 N789 0.984 . S
H793 N789 0.985 . S
H794 N788 0.984 . S
H795 N788 0.984 . S
H796 N784 0.984 . S
H797 N784 0.985 . S
C798 C799 1.363 . S
C798 C804 1.379 . S
C798 N806 1.356 . S
C799 C798 1.363 . S
C799 C805 1.363 . S
C800 C801 1.363 . S
C800 C805 1.379 . S
C800 N807 1.356 . S
C801 C800 1.363 . S
C801 C804 1.363 . S
N802 C804 1.356 . S
N802 H814 0.984 . S
N802 H815 0.985 . S
N803 C805 1.356 . S
N803 H808 0.984 . S
N803 H809 0.985 . S
C804 C798 1.379 . S
C804 C801 1.363 . S
C804 N802 1.356 . S
C805 C799 1.363 . S
C805 C800 1.379 . S
C805 N803 1.356 . S
N806 C798 1.356 . S
N806 H812 0.984 . S
N806 H813 0.984 . S
N807 C800 1.356 . S
N807 H810 0.984 . S
N807 H811 0.985 . S
H808 N803 0.984 . S
H809 N803 0.985 . S
H810 N807 0.984 . S
H811 N807 0.985 . S
H812 N806 0.984 . S
H813 N806 0.984 . S
H814 N802 0.984 . S
H815 N802 0.985 . S
C816 C817 1.363 1_554 S
C816 C822 1.379 . S
C816 N824 1.356 . S
C817 C816 1.363 1_556 S
C817 C823 1.363 . S
C818 C819 1.363 1_556 S
C818 C823 1.379 . S
C818 N825 1.356 . S
C819 C818 1.363 1_554 S
C819 C822 1.363 . S
N820 C822 1.356 . S
N820 H832 0.984 . S
N820 H833 0.985 . S
N821 C823 1.356 . S
N821 H826 0.984 . S
N821 H827 0.985 . S
C822 C816 1.379 . S
C822 C819 1.363 . S
C822 N820 1.356 . S
C823 C817 1.363 . S
C823 C818 1.379 . S
C823 N821 1.356 . S
N824 C816 1.356 . S
N824 H830 0.984 . S
N824 H831 0.984 . S
N825 C818 1.356 . S
N825 H828 0.984 . S
N825 H829 0.985 . S
H826 N821 0.984 . S
H827 N821 0.985 . S
H828 N825 0.984 . S
H829 N825 0.985 . S
H830 N824 0.984 . S
H831 N824 0.984 . S
H832 N820 0.984 . S
H833 N820 0.985 . S
C834 C835 1.363 . S
C834 C840 1.379 1_565 S
C834 N842 1.356 . S
C835 C834 1.363 . S
C835 C841 1.363 1_554 S
C836 C837 1.363 . S
C836 C841 1.379 1_545 S
C836 N843 1.356 . S
C837 C836 1.363 . S
C837 C840 1.363 1_556 S
N838 C840 1.356 . S
N838 H850 0.984 . S
N838 H851 0.985 . S
N839 C841 1.356 . S
N839 H844 0.984 . S
N839 H845 0.985 . S
C840 C834 1.379 1_545 S
C840 C837 1.363 1_554 S
C840 N838 1.356 . S
C841 C835 1.363 1_556 S
C841 C836 1.379 1_565 S
C841 N839 1.356 . S
N842 C834 1.356 . S
N842 H848 0.984 . S
N842 H849 0.984 . S
N843 C836 1.356 . S
N843 H846 0.984 . S
N843 H847 0.985 . S
H844 N839 0.984 . S
H845 N839 0.985 . S
H846 N843 0.984 . S
H847 N843 0.985 . S
H848 N842 0.984 . S
H849 N842 0.984 . S
H850 N838 0.984 . S
H851 N838 0.985 . S
C852 C853 1.363 1_556 S
C852 C858 1.379 . S
C852 N860 1.356 . S
C853 C852 1.363 1_554 S
C853 C859 1.363 . S
C854 C855 1.363 1_554 S
C854 C859 1.379 . S
C854 N861 1.356 . S
C855 C854 1.363 1_556 S
C855 C858 1.363 . S
N856 C858 1.356 . S
N856 H868 0.984 . S
N856 H869 0.985 . S
N857 C859 1.356 . S
N857 H862 0.984 . S
N857 H863 0.985 . S
C858 C852 1.379 . S
C858 C855 1.363 . S
C858 N856 1.356 . S
C859 C853 1.363 . S
C859 C854 1.379 . S
C859 N857 1.356 . S
N860 C852 1.356 . S
N860 H866 0.984 . S
N860 H867 0.984 . S
N861 C854 1.356 . S
N861 H864 0.984 . S
N861 H865 0.985 . S
H862 N857 0.984 . S
H863 N857 0.985 . S
H864 N861 0.984 . S
H865 N861 0.985 . S
H866 N860 0.984 . S
H867 N860 0.984 . S
H868 N856 0.984 . S
H869 N856 0.985 . S
C870 C871 1.363 . S
C870 C876 1.379 1_545 S
C870 N878 1.356 . S
C871 C870 1.363 . S
C871 C877 1.363 1_556 S
C872 C873 1.363 . S
C872 C877 1.379 1_565 S
C872 N879 1.356 . S
C873 C872 1.363 . S
C873 C876 1.363 1_554 S
N874 C876 1.356 . S
N874 H886 0.984 . S
N874 H887 0.985 . S
N875 C877 1.356 . S
N875 H880 0.984 . S
N875 H881 0.985 . S
C876 C870 1.379 1_565 S
C876 C873 1.363 1_556 S
C876 N874 1.356 . S
C877 C871 1.363 1_554 S
C877 C872 1.379 1_545 S
C877 N875 1.356 . S
N878 C870 1.356 . S
N878 H884 0.984 . S
N878 H885 0.984 . S
N879 C872 1.356 . S
N879 H882 0.984 . S
N879 H883 0.985 . S
H880 N875 0.984 . S
H881 N875 0.985 . S
H882 N879 0.984 . S
H883 N879 0.985 . S
H884 N878 0.984 . S
H885 N878 0.984 . S
H886 N874 0.984 . S
H887 N874 0.985 . S
C888 C889 1.363 . S
C888 C894 1.379 1_554 S
C888 N896 1.356 . S
C889 C888 1.363 . S
C889 C895 1.363 . S
C890 C891 1.363 . S
C890 C895 1.379 1_556 S
C890 N897 1.356 . S
C891 C890 1.363 . S
C891 C894 1.363 . S
N892 C894 1.356 . S
N892 H904 0.984 . S
N892 H905 0.985 . S
N893 C895 1.356 . S
N893 H898 0.984 . S
N893 H899 0.985 . S
C894 C888 1.379 1_556 S
C894 C891 1.363 . S
C894 N892 1.356 . S
C895 C889 1.363 . S
C895 C890 1.379 1_554 S
C895 N893 1.356 . S
N896 C888 1.356 . S
N896 H902 0.984 . S
N896 H903 0.984 . S
N897 C890 1.356 . S
N897 H900 0.984 . S
N897 H901 0.985 . S
H898 N893 0.984 . S
H899 N893 0.985 . S
H900 N897 0.984 . S
H901 N897 0.985 . S
H902 N896 0.984 . S
H903 N896 0.984 . S
H904 N892 0.984 . S
H905 N892 0.985 . S
C906 C907 1.363 1_556 S
C906 C912 1.379 . S
C906 N914 1.356 1_556 S
C907 C906 1.363 1_554 S
C907 C913 1.363 . S
C908 C909 1.363 . S
C908 C913 1.379 1_556 S
C908 N915 1.356 . S
C909 C908 1.363 . S
C909 C912 1.363 . S
N910 C912 1.356 . S
N910 H922 0.984 . S
N910 H923 0.985 . S
N911 C913 1.356 . S
N911 H916 0.984 . S
N911 H917 0.985 . S
C912 C906 1.379 . S
C912 C909 1.363 . S
C912 N910 1.356 . S
C913 C907 1.363 . S
C913 C908 1.379 1_554 S
C913 N911 1.356 . S
N914 C906 1.356 1_554 S
N914 H920 0.984 1_554 S
N914 H921 0.984 . S
N915 C908 1.356 . S
N915 H918 0.984 . S
N915 H919 0.985 . S
H916 N911 0.984 . S
H917 N911 0.985 . S
H918 N915 0.984 . S
H919 N915 0.985 . S
H920 N914 0.984 1_556 S
H921 N914 0.984 . S
H922 N910 0.984 . S
H923 N910 0.985 . S
C924 C925 1.363 . S
C924 C930 1.379 1_554 S
C924 N932 1.356 . S
C925 C924 1.363 . S
C925 C931 1.363 . S
C926 C927 1.363 1_554 S
C926 C931 1.379 . S
C926 N933 1.356 1_554 S
C927 C926 1.363 1_556 S
C927 C930 1.363 . S
N928 C930 1.356 . S
N928 H940 0.984 . S
N928 H941 0.985 . S
N929 C931 1.356 . S
N929 H934 0.984 . S
N929 H935 0.985 . S
C930 C924 1.379 1_556 S
C930 C927 1.363 . S
C930 N928 1.356 . S
C931 C925 1.363 . S
C931 C926 1.379 . S
C931 N929 1.356 . S
N932 C924 1.356 . S
N932 H938 0.984 . S
N932 H939 0.984 . S
N933 C926 1.356 1_556 S
N933 H936 0.984 . S
N933 H937 0.985 1_556 S
H934 N929 0.984 . S
H935 N929 0.985 . S
H936 N933 0.984 . S
H937 N933 0.985 1_554 S
H938 N932 0.984 . S
H939 N932 0.984 . S
H940 N928 0.984 . S
H941 N928 0.985 . S
C942 C943 1.363 . S
C942 C948 1.379 1_556 S
C942 N950 1.356 . S
C943 C942 1.363 . S
C943 C949 1.363 . S
C944 C945 1.363 . S
C944 C949 1.379 1_554 S
C944 N951 1.356 . S
C945 C944 1.363 . S
C945 C948 1.363 . S
N946 C948 1.356 . S
N946 H958 0.984 . S
N946 H959 0.985 . S
N947 C949 1.356 . S
N947 H952 0.984 . S
N947 H953 0.985 . S
C948 C942 1.379 1_554 S
C948 C945 1.363 . S
C948 N946 1.356 . S
C949 C943 1.363 . S
C949 C944 1.379 1_556 S
C949 N947 1.356 . S
N950 C942 1.356 . S
N950 H956 0.984 . S
N950 H957 0.984 . S
N951 C944 1.356 . S
N951 H954 0.984 . S
N951 H955 0.985 . S
H952 N947 0.984 . S
H953 N947 0.985 . S
H954 N951 0.984 . S
H955 N951 0.985 . S
H956 N950 0.984 . S
H957 N950 0.984 . S
H958 N946 0.984 . S
H959 N946 0.985 . S
C960 C961 1.363 . S
C960 C966 1.379 . S
C960 N968 1.356 . S
C961 C960 1.363 . S
C961 C967 1.363 . S
C962 C963 1.363 . S
C962 C967 1.379 . S
C962 N969 1.356 . S
C963 C962 1.363 . S
C963 C966 1.363 . S
N964 C966 1.356 . S
N964 H976 0.984 . S
N964 H977 0.985 . S
N965 C967 1.356 . S
N965 H970 0.984 . S
N965 H971 0.985 . S
C966 C960 1.379 . S
C966 C963 1.363 . S
C966 N964 1.356 . S
C967 C961 1.363 . S
C967 C962 1.379 . S
C967 N965 1.356 . S
N968 C960 1.356 . S
N968 H974 0.984 . S
N968 H975 0.984 . S
N969 C962 1.356 . S
N969 H972 0.984 . S
N969 H973 0.985 . S
H970 N965 0.984 . S
H971 N965 0.985 . S
H972 N969 0.984 . S
H973 N969 0.985 . S
H974 N968 0.984 . S
H975 N968 0.984 . S
H976 N964 0.984 . S
H977 N964 0.985 . S
C978 C979 1.363 . S
C978 C984 1.379 . S
C978 N986 1.356 . S
C979 C978 1.363 . S
C979 C985 1.363 . S
C980 C981 1.363 . S
C980 C985 1.379 . S
C980 N987 1.356 . S
C981 C980 1.363 . S
C981 C984 1.363 . S
N982 C984 1.356 . S
N982 H994 0.984 . S
N982 H995 0.985 . S
N983 C985 1.356 . S
N983 H988 0.984 . S
N983 H989 0.985 . S
C984 C978 1.379 . S
C984 C981 1.363 . S
C984 N982 1.356 . S
C985 C979 1.363 . S
C985 C980 1.379 . S
C985 N983 1.356 . S
N986 C978 1.356 . S
N986 H992 0.984 . S
N986 H993 0.984 . S
N987 C980 1.356 . S
N987 H990 0.984 . S
N987 H991 0.985 . S
H988 N983 0.984 . S
H989 N983 0.985 . S
H990 N987 0.984 . S
H991 N987 0.985 . S
H992 N986 0.984 . S
H993 N986 0.984 . S
H994 N982 0.984 . S
H995 N982 0.985 . S
C996 C997 1.363 . S
C996 C1002 1.379 . S
C996 N1004 1.356 . S
C997 C996 1.363 . S
C997 C1003 1.363 . S
C998 C999 1.363 . S
C998 C1003 1.379 . S
C998 N1005 1.356 . S
C999 C998 1.363 . S
C999 C1002 1.363 . S
N1000 C1002 1.356 . S
N1000 H1012 0.984 . S
N1000 H1013 0.985 . S
N1001 C1003 1.356 . S
N1001 H1006 0.984 . S
N1001 H1007 0.985 . S
C1002 C996 1.379 . S
C1002 C999 1.363 . S
C1002 N1000 1.356 . S
C1003 C997 1.363 . S
C1003 C998 1.379 . S
C1003 N1001 1.356 . S
N1004 C996 1.356 . S
N1004 H1010 0.984 . S
N1004 H1011 0.984 . S
N1005 C998 1.356 . S
N1005 H1008 0.984 . S
N1005 H1009 0.985 . S
H1006 N1001 0.984 . S
H1007 N1001 0.985 . S
H1008 N1005 0.984 . S
H1009 N1005 0.985 . S
H1010 N1004 0.984 . S
H1011 N1004 0.984 . S
H1012 N1000 0.984 . S
H1013 N1000 0.985 . S
C1014 C1015 1.363 . S
C1014 C1020 1.379 . S
C1014 N1022 1.356 . S
C1015 C1014 1.363 . S
C1015 C1021 1.363 . S
C1016 C1017 1.363 . S
C1016 C1021 1.379 . S
C1016 N1023 1.356 . S
C1017 C1016 1.363 . S
C1017 C1020 1.363 . S
N1018 C1020 1.356 . S
N1018 H1030 0.984 . S
N1018 H1031 0.985 . S
N1019 C1021 1.356 . S
N1019 H1024 0.984 . S
N1019 H1025 0.985 . S
C1020 C1014 1.379 . S
C1020 C1017 1.363 . S
C1020 N1018 1.356 . S
C1021 C1015 1.363 . S
C1021 C1016 1.379 . S
C1021 N1019 1.356 . S
N1022 C1014 1.356 . S
N1022 H1028 0.984 . S
N1022 H1029 0.984 . S
N1023 C1016 1.356 . S
N1023 H1026 0.984 . S
N1023 H1027 0.985 . S
H1024 N1019 0.984 . S
H1025 N1019 0.985 . S
H1026 N1023 0.984 . S
H1027 N1023 0.985 . S
H1028 N1022 0.984 . S
H1029 N1022 0.984 . S
H1030 N1018 0.984 . S
H1031 N1018 0.985 . S
C1032 C1033 1.363 . S
C1032 C1038 1.379 1_455 S
C1032 N1040 1.356 . S
C1033 C1032 1.363 . S
C1033 C1039 1.363 . S
C1034 C1035 1.363 . S
C1034 C1039 1.379 1_655 S
C1034 N1041 1.356 . S
C1035 C1034 1.363 . S
C1035 C1038 1.363 . S
N1036 C1038 1.356 . S
N1036 H1048 0.984 . S
N1036 H1049 0.985 . S
N1037 C1039 1.356 . S
N1037 H1042 0.984 . S
N1037 H1043 0.985 . S
C1038 C1032 1.379 1_655 S
C1038 C1035 1.363 . S
C1038 N1036 1.356 . S
C1039 C1033 1.363 . S
C1039 C1034 1.379 1_455 S
C1039 N1037 1.356 . S
N1040 C1032 1.356 . S
N1040 H1046 0.984 . S
N1040 H1047 0.984 . S
N1041 C1034 1.356 . S
N1041 H1044 0.984 . S
N1041 H1045 0.985 . S
H1042 N1037 0.984 . S
H1043 N1037 0.985 . S
H1044 N1041 0.984 . S
H1045 N1041 0.985 . S
H1046 N1040 0.984 . S
H1047 N1040 0.984 . S
H1048 N1036 0.984 . S
H1049 N1036 0.985 . S
C1050 C1051 1.363 . S
C1050 C1056 1.379 1_655 S
C1050 N1058 1.356 . S
C1051 C1050 1.363 . S
C1051 C1057 1.363 . S
C1052 C1053 1.363 . S
C1052 C1057 1.379 1_455 S
C1052 N1059 1.356 . S
C1053 C1052 1.363 . S
C1053 C1056 1.363 . S
N1054 C1056 1.356 . S
N1054 H1066 0.984 . S
N1054 H1067 0.985 . S
N1055 C1057 1.356 . S
N1055 H1060 0.984 . S
N1055 H1061 0.985 . S
C1056 C1050 1.379 1_455 S
C1056 C1053 1.363 . S
C1056 N1054 1.356 . S
C1057 C1051 1.363 . S
C1057 C1052 1.379 1_655 S
C1057 N1055 1.356 . S
N1058 C1050 1.356 . S
N1058 H1064 0.984 . S
N1058 H1065 0.984 . S
N1059 C1052 1.356 . S
N1059 H1062 0.984 . S
N1059 H1063 0.985 . S
H1060 N1055 0.984 . S
H1061 N1055 0.985 . S
H1062 N1059 0.984 . S
H1063 N1059 0.985 . S
H1064 N1058 0.984 . S
H1065 N1058 0.984 . S
H1066 N1054 0.984 . S
H1067 N1054 0.985 . S
C1068 C1069 1.363 . S
C1068 C1074 1.379 . S
C1068 N1076 1.356 . S
C1069 C1068 1.363 . S
C1069 C1075 1.363 . S
C1070 C1071 1.363 . S
C1070 C1075 1.379 . S
C1070 N1077 1.356 . S
C1071 C1070 1.363 . S
C1071 C1074 1.363 . S
N1072 C1074 1.356 . S
N1072 H1084 0.984 . S
N1072 H1085 0.985 . S
N1073 C1075 1.356 . S
N1073 H1078 0.984 . S
N1073 H1079 0.985 . S
C1074 C1068 1.379 . S
C1074 C1071 1.363 . S
C1074 N1072 1.356 . S
C1075 C1069 1.363 . S
C1075 C1070 1.379 . S
C1075 N1073 1.356 . S
N1076 C1068 1.356 . S
N1076 H1082 0.984 . S
N1076 H1083 0.984 . S
N1077 C1070 1.356 . S
N1077 H1080 0.984 . S
N1077 H1081 0.985 . S
H1078 N1073 0.984 . S
H1079 N1073 0.985 . S
H1080 N1077 0.984 . S
H1081 N1077 0.985 . S
H1082 N1076 0.984 . S
H1083 N1076 0.984 . S
H1084 N1072 0.984 . S
H1085 N1072 0.985 . S
C1086 C1087 1.363 . S
C1086 C1092 1.379 . S
C1086 N1094 1.356 . S
C1087 C1086 1.363 . S
C1087 C1093 1.363 . S
C1088 C1089 1.363 . S
C1088 C1093 1.379 . S
C1088 N1095 1.356 . S
C1089 C1088 1.363 . S
C1089 C1092 1.363 . S
N1090 C1092 1.356 . S
N1090 H1102 0.984 1_554 S
N1090 H1103 0.985 . S
N1091 C1093 1.356 . S
N1091 H1096 0.984 . S
N1091 H1097 0.985 . S
C1092 C1086 1.379 . S
C1092 C1089 1.363 . S
C1092 N1090 1.356 . S
C1093 C1087 1.363 . S
C1093 C1088 1.379 . S
C1093 N1091 1.356 . S
N1094 C1086 1.356 . S
N1094 H1100 0.984 1_554 S
N1094 H1101 0.984 . S
N1095 C1088 1.356 . S
N1095 H1098 0.984 . S
N1095 H1099 0.985 . S
H1096 N1091 0.984 . S
H1097 N1091 0.985 . S
H1098 N1095 0.984 . S
H1099 N1095 0.985 . S
H1100 N1094 0.984 1_556 S
H1101 N1094 0.984 . S
H1102 N1090 0.984 1_556 S
H1103 N1090 0.985 . S
C673 C58 1.515 . S
C675 C658 1.514 . S
C691 C562 1.515 . S
C693 C154 1.515 . S
C709 C490 1.515 . S
C711 C226 1.515 . S
C727 C394 1.515 . S
C729 C322 1.514 . S
C745 C236 2.320 . S
C747 C68 2.320 . S
C763 C152 0.787 . S
C765 C320 0.787 . S
C781 C308 2.320 . S
C783 C140 2.320 . S
C799 C224 0.787 . S
C801 C56 0.787 . S
C817 C404 2.314 . S
C819 C572 2.313 . S
C835 C488 0.756 . S
C837 C656 0.757 . S
C853 C644 2.314 . S
C855 C476 2.313 . S
C871 C560 0.756 . S
C873 C392 0.757 . S
C889 C67 1.810 . S
C891 C55 1.810 . S
C907 C139 1.810 . S
C909 C151 1.810 . S
C925 C223 1.810 . S
C927 C235 1.810 . S
C943 C307 1.810 . S
C945 C319 1.810 . S
C961 C391 1.810 . S
C963 C403 1.810 . S
C979 C475 1.810 . S
C981 C487 1.810 . S
C997 C571 1.810 . S
C999 C559 1.810 . S
C1015 C643 1.810 . S
C1017 C655 1.810 . S
C1033 C70 1.948 . S
C1035 C142 1.948 . S
C1051 C310 1.948 . S
C1053 C238 1.948 . S
C1069 C406 1.949 . S
C1071 C478 1.949 . S
C1087 C646 1.949 . S
C1089 C574 1.949 . S
