# Generated by pormake.
# Topology uoh, (4)-cn, num edge types: 1
# Building blocks:
#     Node 0, Type 0, BuildingBlock: GALJAG_clean_sbu_0, # of connection points: 4
#     Node 1, Type 0, BuildingBlock: GALJAG_clean_sbu_0, # of connection points: 4
#     Node 2, Type 0, BuildingBlock: GALJAG_clean_sbu_0, # of connection points: 4
#     Node 3, Type 0, BuildingBlock: GALJAG_clean_sbu_0, # of connection points: 4
#     Node 4, Type 0, BuildingBlock: GALJAG_clean_sbu_0, # of connection points: 4
#     Node 5, Type 0, BuildingBlock: GALJAG_clean_sbu_0, # of connection points: 4
#     Node 6, Type 0, BuildingBlock: GALJAG_clean_sbu_0, # of connection points: 4
#     Node 7, Type 0, BuildingBlock: GALJAG_clean_sbu_0, # of connection points: 4
#     Node 8, Type 0, BuildingBlock: GALJAG_clean_sbu_0, # of connection points: 4
#     Node 9, Type 0, BuildingBlock: GALJAG_clean_sbu_0, # of connection points: 4
#     Node 10, Type 0, BuildingBlock: GALJAG_clean_sbu_0, # of connection points: 4
#     Node 11, Type 0, BuildingBlock: GALJAG_clean_sbu_0, # of connection points: 4
#     Node 12, Type 0, BuildingBlock: GALJAG_clean_sbu_0, # of connection points: 4
#     Node 13, Type 0, BuildingBlock: GALJAG_clean_sbu_0, # of connection points: 4
#     Node 14, Type 0, BuildingBlock: GALJAG_clean_sbu_0, # of connection points: 4
#     Node 15, Type 0, BuildingBlock: GALJAG_clean_sbu_0, # of connection points: 4
#     Node 16, Type 0, BuildingBlock: GALJAG_clean_sbu_0, # of connection points: 4
#     Node 17, Type 0, BuildingBlock: GALJAG_clean_sbu_0, # of connection points: 4
#     Node 18, Type 0, BuildingBlock: GALJAG_clean_sbu_0, # of connection points: 4
#     Node 19, Type 0, BuildingBlock: GALJAG_clean_sbu_0, # of connection points: 4
#     Node 20, Type 0, BuildingBlock: GALJAG_clean_sbu_0, # of connection points: 4
#     Node 21, Type 0, BuildingBlock: GALJAG_clean_sbu_0, # of connection points: 4
#     Node 22, Type 0, BuildingBlock: GALJAG_clean_sbu_0, # of connection points: 4
#     Node 23, Type 0, BuildingBlock: GALJAG_clean_sbu_0, # of connection points: 4
#     Node 24, Type 0, BuildingBlock: GALJAG_clean_sbu_0, # of connection points: 4
#     Node 25, Type 0, BuildingBlock: GALJAG_clean_sbu_0, # of connection points: 4
#     Node 26, Type 0, BuildingBlock: GALJAG_clean_sbu_0, # of connection points: 4
#     Node 27, Type 0, BuildingBlock: GALJAG_clean_sbu_0, # of connection points: 4
#     Node 28, Type 0, BuildingBlock: GALJAG_clean_sbu_0, # of connection points: 4
#     Node 29, Type 0, BuildingBlock: GALJAG_clean_sbu_0, # of connection points: 4
#     Node 30, Type 0, BuildingBlock: GALJAG_clean_sbu_0, # of connection points: 4
#     Node 31, Type 0, BuildingBlock: GALJAG_clean_sbu_0, # of connection points: 4
#     Node 32, Type 0, BuildingBlock: GALJAG_clean_sbu_0, # of connection points: 4
#     Node 33, Type 0, BuildingBlock: GALJAG_clean_sbu_0, # of connection points: 4
#     Node 34, Type 0, BuildingBlock: GALJAG_clean_sbu_0, # of connection points: 4
#     Node 35, Type 0, BuildingBlock: GALJAG_clean_sbu_0, # of connection points: 4
#     Edge 36, Type (0, 0), BuildingBlock: EZIPEK_clean_linker_0, # of connection points: 2
#     Edge 37, Type (0, 0), BuildingBlock: EZIPEK_clean_linker_0, # of connection points: 2
#     Edge 38, Type (0, 0), BuildingBlock: EZIPEK_clean_linker_0, # of connection points: 2
#     Edge 39, Type (0, 0), BuildingBlock: EZIPEK_clean_linker_0, # of connection points: 2
#     Edge 40, Type (0, 0), BuildingBlock: EZIPEK_clean_linker_0, # of connection points: 2
#     Edge 41, Type (0, 0), BuildingBlock: EZIPEK_clean_linker_0, # of connection points: 2
#     Edge 42, Type (0, 0), BuildingBlock: EZIPEK_clean_linker_0, # of connection points: 2
#     Edge 43, Type (0, 0), BuildingBlock: EZIPEK_clean_linker_0, # of connection points: 2
#     Edge 44, Type (0, 0), BuildingBlock: EZIPEK_clean_linker_0, # of connection points: 2
#     Edge 45, Type (0, 0), BuildingBlock: EZIPEK_clean_linker_0, # of connection points: 2
#     Edge 46, Type (0, 0), BuildingBlock: EZIPEK_clean_linker_0, # of connection points: 2
#     Edge 47, Type (0, 0), BuildingBlock: EZIPEK_clean_linker_0, # of connection points: 2
#     Edge 48, Type (0, 0), BuildingBlock: EZIPEK_clean_linker_0, # of connection points: 2
#     Edge 49, Type (0, 0), BuildingBlock: EZIPEK_clean_linker_0, # of connection points: 2
#     Edge 50, Type (0, 0), BuildingBlock: EZIPEK_clean_linker_0, # of connection points: 2
#     Edge 51, Type (0, 0), BuildingBlock: EZIPEK_clean_linker_0, # of connection points: 2
#     Edge 52, Type (0, 0), BuildingBlock: EZIPEK_clean_linker_0, # of connection points: 2
#     Edge 53, Type (0, 0), BuildingBlock: EZIPEK_clean_linker_0, # of connection points: 2
#     Edge 54, Type (0, 0), BuildingBlock: EZIPEK_clean_linker_0, # of connection points: 2
#     Edge 55, Type (0, 0), BuildingBlock: EZIPEK_clean_linker_0, # of connection points: 2
#     Edge 56, Type (0, 0), BuildingBlock: EZIPEK_clean_linker_0, # of connection points: 2
#     Edge 57, Type (0, 0), BuildingBlock: EZIPEK_clean_linker_0, # of connection points: 2
#     Edge 58, Type (0, 0), BuildingBlock: EZIPEK_clean_linker_0, # of connection points: 2
#     Edge 59, Type (0, 0), BuildingBlock: EZIPEK_clean_linker_0, # of connection points: 2
#     Edge 60, Type (0, 0), BuildingBlock: EZIPEK_clean_linker_0, # of connection points: 2
#     Edge 61, Type (0, 0), BuildingBlock: EZIPEK_clean_linker_0, # of connection points: 2
#     Edge 62, Type (0, 0), BuildingBlock: EZIPEK_clean_linker_0, # of connection points: 2
#     Edge 63, Type (0, 0), BuildingBlock: EZIPEK_clean_linker_0, # of connection points: 2
#     Edge 64, Type (0, 0), BuildingBlock: EZIPEK_clean_linker_0, # of connection points: 2
#     Edge 65, Type (0, 0), BuildingBlock: EZIPEK_clean_linker_0, # of connection points: 2
#     Edge 66, Type (0, 0), BuildingBlock: EZIPEK_clean_linker_0, # of connection points: 2
#     Edge 67, Type (0, 0), BuildingBlock: EZIPEK_clean_linker_0, # of connection points: 2
#     Edge 68, Type (0, 0), BuildingBlock: EZIPEK_clean_linker_0, # of connection points: 2
#     Edge 69, Type (0, 0), BuildingBlock: EZIPEK_clean_linker_0, # of connection points: 2
#     Edge 70, Type (0, 0), BuildingBlock: EZIPEK_clean_linker_0, # of connection points: 2
#     Edge 71, Type (0, 0), BuildingBlock: EZIPEK_clean_linker_0, # of connection points: 2
#     Edge 72, Type (0, 0), BuildingBlock: EZIPEK_clean_linker_0, # of connection points: 2
#     Edge 73, Type (0, 0), BuildingBlock: EZIPEK_clean_linker_0, # of connection points: 2
#     Edge 74, Type (0, 0), BuildingBlock: EZIPEK_clean_linker_0, # of connection points: 2
#     Edge 75, Type (0, 0), BuildingBlock: EZIPEK_clean_linker_0, # of connection points: 2
#     Edge 76, Type (0, 0), BuildingBlock: EZIPEK_clean_linker_0, # of connection points: 2
#     Edge 77, Type (0, 0), BuildingBlock: EZIPEK_clean_linker_0, # of connection points: 2
#     Edge 78, Type (0, 0), BuildingBlock: EZIPEK_clean_linker_0, # of connection points: 2
#     Edge 79, Type (0, 0), BuildingBlock: EZIPEK_clean_linker_0, # of connection points: 2
#     Edge 80, Type (0, 0), BuildingBlock: EZIPEK_clean_linker_0, # of connection points: 2
#     Edge 81, Type (0, 0), BuildingBlock: EZIPEK_clean_linker_0, # of connection points: 2
#     Edge 82, Type (0, 0), BuildingBlock: EZIPEK_clean_linker_0, # of connection points: 2
#     Edge 83, Type (0, 0), BuildingBlock: EZIPEK_clean_linker_0, # of connection points: 2
#     Edge 84, Type (0, 0), BuildingBlock: EZIPEK_clean_linker_0, # of connection points: 2
#     Edge 85, Type (0, 0), BuildingBlock: EZIPEK_clean_linker_0, # of connection points: 2
#     Edge 86, Type (0, 0), BuildingBlock: EZIPEK_clean_linker_0, # of connection points: 2
#     Edge 87, Type (0, 0), BuildingBlock: EZIPEK_clean_linker_0, # of connection points: 2
#     Edge 88, Type (0, 0), BuildingBlock: EZIPEK_clean_linker_0, # of connection points: 2
#     Edge 89, Type (0, 0), BuildingBlock: EZIPEK_clean_linker_0, # of connection points: 2
#     Edge 90, Type (0, 0), BuildingBlock: EZIPEK_clean_linker_0, # of connection points: 2
#     Edge 91, Type (0, 0), BuildingBlock: EZIPEK_clean_linker_0, # of connection points: 2
#     Edge 92, Type (0, 0), BuildingBlock: EZIPEK_clean_linker_0, # of connection points: 2
#     Edge 93, Type (0, 0), BuildingBlock: EZIPEK_clean_linker_0, # of connection points: 2
#     Edge 94, Type (0, 0), BuildingBlock: EZIPEK_clean_linker_0, # of connection points: 2
#     Edge 95, Type (0, 0), BuildingBlock: EZIPEK_clean_linker_0, # of connection points: 2
#     Edge 96, Type (0, 0), BuildingBlock: EZIPEK_clean_linker_0, # of connection points: 2
#     Edge 97, Type (0, 0), BuildingBlock: EZIPEK_clean_linker_0, # of connection points: 2
#     Edge 98, Type (0, 0), BuildingBlock: EZIPEK_clean_linker_0, # of connection points: 2
#     Edge 99, Type (0, 0), BuildingBlock: EZIPEK_clean_linker_0, # of connection points: 2
#     Edge 100, Type (0, 0), BuildingBlock: EZIPEK_clean_linker_0, # of connection points: 2
#     Edge 101, Type (0, 0), BuildingBlock: EZIPEK_clean_linker_0, # of connection points: 2
#     Edge 102, Type (0, 0), BuildingBlock: EZIPEK_clean_linker_0, # of connection points: 2
#     Edge 103, Type (0, 0), BuildingBlock: EZIPEK_clean_linker_0, # of connection points: 2
#     Edge 104, Type (0, 0), BuildingBlock: EZIPEK_clean_linker_0, # of connection points: 2
#     Edge 105, Type (0, 0), BuildingBlock: EZIPEK_clean_linker_0, # of connection points: 2
#     Edge 106, Type (0, 0), BuildingBlock: EZIPEK_clean_linker_0, # of connection points: 2
#     Edge 107, Type (0, 0), BuildingBlock: EZIPEK_clean_linker_0, # of connection points: 2
# Relax obj value: 0.044
# Max RMSD: 0.095
# Mean RMSD: 0.095
data_MOF--net-uoh--node1-GALJAG_clean_sbu_0--edge1-EZIPEK_clean_linker_0
_symmetry_space_group_name_H-M    P1
_symmetry_Int_Tables_number       1
_symmetry_cell_setting            triclinic
loop_
_symmetry_equiv_pos_as_xyz
'x, y, z'
_cell_length_a     63.764474
_cell_length_b     63.766154
_cell_length_c     21.09838
_cell_angle_alpha  89.987271
_cell_angle_beta   89.998151
_cell_angle_gamma 120.03739
loop_
_atom_site_label
_atom_site_type_symbol
_atom_site_fract_x
_atom_site_fract_y
_atom_site_fract_z
_atom_type_partial_charge
In0 In 0.22427 0.12493 0.19563 0.0
O1 O 0.22951 0.16207 0.21593 0.0
O2 O 0.19333 0.13167 0.21118 0.0
C3 C 0.27072 0.13653 0.18759 0.0
C4 C 0.20922 0.10234 0.30755 0.0
C5 C 0.21261 0.11452 0.07267 0.0
O6 O 0.26442 0.15239 0.1905 0.0
O7 O 0.25367 0.11483 0.18993 0.0
O8 O 0.21034 0.09836 0.11153 0.0
O9 O 0.2192 0.13493 0.09681 0.0
C10 C 0.20698 0.15408 0.22104 0.0
O11 O 0.19842 0.09197 0.25666 0.0
O12 O 0.22758 0.12305 0.30088 0.0
In13 In 0.85948 0.09454 0.17663 0.0
O14 O 0.8232 0.06038 0.19217 0.0
O15 O 0.85527 0.05768 0.19279 0.0
C16 C 0.84712 0.12879 0.17005 0.0
C17 C 0.88054 0.10611 0.29097 0.0
C18 C 0.87427 0.09632 0.05596 0.0
O19 O 0.8315 0.10649 0.16949 0.0
O20 O 0.86894 0.13386 0.17373 0.0
O21 O 0.88837 0.10055 0.10251 0.0
O22 O 0.85293 0.09065 0.07078 0.0
C23 C 0.83259 0.0472 0.19963 0.0
O24 O 0.89285 0.10865 0.24146 0.0
O25 O 0.85832 0.09838 0.28224 0.0
In26 In 0.89993 0.76421 0.18131 0.0
O27 O 0.88882 0.7872 0.24252 0.0
O28 O 0.88984 0.75716 0.284 0.0
C29 C 0.90154 0.77581 0.05764 0.0
C30 C 0.94629 0.78507 0.21314 0.0
C31 C 0.86754 0.71685 0.1726 0.0
O32 O 0.88745 0.77788 0.09621 0.0
O33 O 0.91545 0.76942 0.08236 0.0
O34 O 0.88959 0.72447 0.18498 0.0
O35 O 0.86191 0.73305 0.16481 0.0
C36 C 0.88634 0.77474 0.29175 0.0
O37 O 0.93388 0.76261 0.20186 0.0
O38 O 0.93552 0.79704 0.20685 0.0
In39 In 0.1346 0.22848 0.31805 0.0
O40 O 0.16974 0.22851 0.30734 0.0
O41 O 0.13625 0.19477 0.29716 0.0
C42 C 0.14709 0.27496 0.33253 0.0
C43 C 0.11559 0.22202 0.20151 0.0
C44 C 0.12295 0.21625 0.43959 0.0
O45 O 0.16196 0.26881 0.31273 0.0
O46 O 0.1262 0.2577 0.34519 0.0
O47 O 0.10673 0.21132 0.398 0.0
O48 O 0.14429 0.22541 0.41853 0.0
C49 C 0.15918 0.20604 0.29552 0.0
O50 O 0.1021 0.21161 0.24906 0.0
O51 O 0.13777 0.2352 0.21398 0.0
In52 In 0.75885 0.89952 0.2955 0.0
O53 O 0.7589 0.934 0.26925 0.0
O54 O 0.79236 0.93659 0.29702 0.0
C55 C 0.71157 0.86892 0.31026 0.0
C56 C 0.76896 0.89001 0.17915 0.0
C57 C 0.76971 0.89257 0.41327 0.0
O58 O 0.72034 0.89165 0.31165 0.0
O59 O 0.72649 0.86179 0.29967 0.0
O60 O 0.77358 0.88272 0.36599 0.0
O61 O 0.76135 0.90629 0.40057 0.0
C62 C 0.7815 0.94721 0.27678 0.0
O63 O 0.78278 0.89311 0.22565 0.0
O64 O 0.74994 0.89043 0.19264 0.0
In65 In 0.09152 0.85975 0.32792 0.0
O66 O 0.10316 0.8936 0.26559 0.0
O67 O 0.10048 0.86172 0.22458 0.0
C68 C 0.09209 0.8713 0.45093 0.0
C69 C 0.04471 0.83443 0.29987 0.0
C70 C 0.12345 0.84424 0.33558 0.0
O71 O 0.10412 0.88732 0.40967 0.0
O72 O 0.07924 0.85016 0.42949 0.0
O73 O 0.10119 0.82992 0.32545 0.0
O74 O 0.12957 0.86628 0.34146 0.0
C75 C 0.1048 0.88307 0.21648 0.0
O76 O 0.0573 0.8244 0.30786 0.0
O77 O 0.05549 0.85709 0.30802 0.0
In78 In 0.75674 0.85405 0.7994 0.0
O79 O 0.7575 0.81902 0.79207 0.0
O80 O 0.79106 0.85274 0.78632 0.0
C81 C 0.71061 0.84252 0.81532 0.0
C82 C 0.76223 0.86889 0.67877 0.0
C83 C 0.77202 0.87166 0.91544 0.0
O84 O 0.71671 0.82651 0.81016 0.0
O85 O 0.72773 0.86418 0.81252 0.0
O86 O 0.77959 0.88522 0.86692 0.0
O87 O 0.75781 0.84947 0.9046 0.0
C88 C 0.78024 0.82988 0.78421 0.0
O89 O 0.77129 0.88399 0.72389 0.0
O90 O 0.75038 0.84698 0.69535 0.0
In91 In 0.13603 0.90065 0.82934 0.0
O92 O 0.10323 0.89154 0.76488 0.0
O93 O 0.1348 0.8929 0.7258 0.0
C94 C 0.12485 0.90203 0.95179 0.0
C95 C 0.16488 0.9467 0.79982 0.0
C96 C 0.14721 0.86567 0.83908 0.0
O97 O 0.10882 0.88887 0.91173 0.0
O98 O 0.1457 0.91522 0.92903 0.0
O99 O 0.16331 0.8878 0.83702 0.0
O100 O 0.1256 0.86124 0.83737 0.0
C101 C 0.11394 0.88974 0.71623 0.0
O102 O 0.17283 0.93216 0.80474 0.0
O103 O 0.14262 0.93821 0.81146 0.0
In104 In 0.09197 0.23288 0.81479 0.0
O105 O 0.05944 0.2373 0.79529 0.0
O106 O 0.05452 0.20157 0.79431 0.0
C107 C 0.12609 0.27965 0.82444 0.0
C108 C 0.10378 0.22154 0.70313 0.0
C109 C 0.09294 0.21994 0.93593 0.0
O110 O 0.10384 0.27293 0.8206 0.0
O111 O 0.13119 0.26292 0.82248 0.0
O112 O 0.10243 0.21415 0.89163 0.0
O113 O 0.08268 0.2315 0.91876 0.0
C114 C 0.04535 0.21493 0.78684 0.0
O115 O 0.10119 0.209 0.75214 0.0
O116 O 0.10119 0.23967 0.71148 0.0
In117 In 0.85866 0.76175 0.68101 0.0
O118 O 0.82291 0.75928 0.70447 0.0
O119 O 0.85498 0.79435 0.70217 0.0
C120 C 0.84395 0.71451 0.67083 0.0
C121 C 0.88281 0.77296 0.79147 0.0
C122 C 0.86866 0.77382 0.55755 0.0
O123 O 0.82947 0.72198 0.6839 0.0
O124 O 0.86578 0.7308 0.66307 0.0
O125 O 0.88493 0.7762 0.5962 0.0
O126 O 0.84813 0.76658 0.58198 0.0
C127 C 0.83242 0.78192 0.71165 0.0
O128 O 0.89256 0.78542 0.74212 0.0
O129 O 0.86198 0.75495 0.78382 0.0
In130 In 0.22363 0.09019 0.68949 0.0
O131 O 0.23256 0.0606 0.71048 0.0
O132 O 0.19536 0.05128 0.70707 0.0
C133 C 0.26769 0.12837 0.67248 0.0
C134 C 0.21368 0.10048 0.80478 0.0
C135 C 0.20682 0.08736 0.57115 0.0
O136 O 0.26386 0.10692 0.6732 0.0
O137 O 0.24929 0.1307 0.68002 0.0
O138 O 0.19729 0.09176 0.61818 0.0
O139 O 0.22406 0.08384 0.58461 0.0
C140 C 0.21059 0.04451 0.71622 0.0
O141 O 0.20043 0.09837 0.75769 0.0
O142 O 0.23183 0.09827 0.7928 0.0
In143 In 0.90018 0.13854 0.67786 0.0
O144 O 0.93272 0.17572 0.69448 0.0
O145 O 0.93756 0.14476 0.69649 0.0
C146 C 0.86581 0.15105 0.66442 0.0
C147 C 0.89106 0.11672 0.79161 0.0
C148 C 0.90028 0.12593 0.55617 0.0
O149 O 0.88796 0.16638 0.67199 0.0
O150 O 0.86116 0.12937 0.66759 0.0
O151 O 0.88687 0.11052 0.5972 0.0
O152 O 0.91439 0.14677 0.57762 0.0
C153 C 0.94681 0.16739 0.70316 0.0
O154 O 0.89212 0.10604 0.74205 0.0
O155 O 0.8937 0.13745 0.78277 0.0
In156 In 0.89681 0.47025 0.52361 0.0
O157 O 0.89541 0.50441 0.54253 0.0
O158 O 0.86199 0.47061 0.54037 0.0
C159 C 0.94476 0.48867 0.51658 0.0
C160 C 0.8871 0.44646 0.63465 0.0
C161 C 0.88708 0.45825 0.40028 0.0
O162 O 0.93553 0.50182 0.52755 0.0
O163 O 0.9299 0.46632 0.51023 0.0
O164 O 0.88288 0.44244 0.44231 0.0
O165 O 0.89512 0.47946 0.42089 0.0
C166 C 0.87265 0.49325 0.54827 0.0
O167 O 0.87552 0.43589 0.58485 0.0
O168 O 0.90357 0.46814 0.62747 0.0
In169 In 0.52464 0.42538 0.52101 0.0
O170 O 0.487 0.39232 0.52564 0.0
O171 O 0.51762 0.38798 0.5436 0.0
C172 C 0.5147 0.46105 0.50743 0.0
C173 C 0.54235 0.43392 0.6392 0.0
C174 C 0.54224 0.42779 0.40406 0.0
O175 O 0.49824 0.43907 0.50988 0.0
O176 O 0.53615 0.4651 0.51267 0.0
O177 O 0.55603 0.43549 0.45194 0.0
O178 O 0.51994 0.41779 0.41606 0.0
C179 C 0.49488 0.37839 0.54126 0.0
O180 O 0.55428 0.43228 0.5933 0.0
O181 O 0.52233 0.4321 0.62461 0.0
In182 In 0.56437 0.09535 0.51162 0.0
O183 O 0.59587 0.09043 0.53835 0.0
O184 O 0.6012 0.12648 0.53673 0.0
C185 C 0.52997 0.04898 0.49888 0.0
C186 C 0.55148 0.10579 0.62301 0.0
C187 C 0.56767 0.1082 0.38874 0.0
O188 O 0.55198 0.05526 0.50678 0.0
O189 O 0.52531 0.06602 0.49696 0.0
O190 O 0.55358 0.11054 0.42671 0.0
O191 O 0.58101 0.10118 0.41394 0.0
C192 C 0.6099 0.11284 0.54753 0.0
O193 O 0.55396 0.11854 0.57433 0.0
O194 O 0.55474 0.08812 0.61401 0.0
In195 In 0.79865 0.56552 0.65366 0.0
O196 O 0.83294 0.56509 0.6303 0.0
O197 O 0.79965 0.53113 0.63646 0.0
C198 C 0.81544 0.61322 0.66175 0.0
C199 C 0.775 0.55565 0.54268 0.0
C200 C 0.78851 0.55518 0.77761 0.0
O201 O 0.8292 0.60476 0.64978 0.0
O202 O 0.79335 0.59767 0.66934 0.0
O203 O 0.77231 0.55245 0.73824 0.0
O204 O 0.80902 0.56181 0.7537 0.0
C205 C 0.82217 0.54227 0.62576 0.0
O206 O 0.76435 0.54384 0.59223 0.0
O207 O 0.79657 0.57227 0.55021 0.0
In208 In 0.41487 0.23119 0.63911 0.0
O209 O 0.4167 0.26681 0.61645 0.0
O210 O 0.44984 0.2669 0.63296 0.0
C211 C 0.36707 0.2024 0.64609 0.0
C212 C 0.42436 0.21985 0.52375 0.0
C213 C 0.42391 0.22508 0.7599 0.0
O214 O 0.37668 0.22519 0.64221 0.0
O215 O 0.38153 0.19424 0.64592 0.0
O216 O 0.42847 0.21489 0.7147 0.0
O217 O 0.41556 0.2385 0.74382 0.0
C218 C 0.43958 0.27868 0.61763 0.0
O219 O 0.43863 0.22402 0.5699 0.0
O220 O 0.40518 0.21984 0.53757 0.0
In221 In 0.75439 0.18505 0.66434 0.0
O222 O 0.7206 0.14885 0.64653 0.0
O223 O 0.7174 0.18069 0.6493 0.0
C224 C 0.78842 0.17262 0.68455 0.0
C225 C 0.76671 0.20327 0.54686 0.0
C226 C 0.75655 0.20254 0.78123 0.0
O227 O 0.76608 0.15728 0.68115 0.0
O228 O 0.79335 0.1942 0.67514 0.0
O229 O 0.76298 0.21614 0.73286 0.0
O230 O 0.74802 0.18032 0.76986 0.0
C231 C 0.70725 0.15813 0.6406 0.0
O232 O 0.76749 0.21643 0.59284 0.0
O233 O 0.76042 0.18172 0.5609 0.0
In234 In 0.41907 0.18437 0.14162 0.0
O235 O 0.42295 0.15118 0.13075 0.0
O236 O 0.45487 0.1862 0.1252 0.0
C237 C 0.37168 0.16705 0.15612 0.0
C238 C 0.42359 0.20218 0.02431 0.0
C239 C 0.43131 0.20129 0.25994 0.0
O240 O 0.38037 0.15318 0.14928 0.0
O241 O 0.38679 0.18947 0.15525 0.0
O242 O 0.43743 0.21541 0.21262 0.0
O243 O 0.42027 0.179 0.24692 0.0
C244 C 0.44558 0.1635 0.12215 0.0
O245 O 0.43457 0.21597 0.07074 0.0
O246 O 0.41035 0.18008 0.03772 0.0
In247 In 0.80109 0.23163 0.15944 0.0
O248 O 0.83473 0.26719 0.13554 0.0
O249 O 0.80247 0.26774 0.15995 0.0
C250 C 0.81818 0.20107 0.1625 0.0
C251 C 0.77998 0.2217 0.04447 0.0
C252 C 0.78749 0.22579 0.28139 0.0
O253 O 0.8321 0.22376 0.15862 0.0
O254 O 0.79576 0.19389 0.16479 0.0
O255 O 0.77205 0.2162 0.23723 0.0
O256 O 0.80922 0.23851 0.26365 0.0
C257 C 0.82416 0.27938 0.1413 0.0
O258 O 0.76919 0.2236 0.0927 0.0
O259 O 0.80018 0.22348 0.05574 0.0
In260 In 0.7592 0.56943 0.15409 0.0
O261 O 0.72554 0.57156 0.13236 0.0
O262 O 0.72329 0.53685 0.13091 0.0
C263 C 0.79216 0.61657 0.16365 0.0
C264 C 0.77204 0.55828 0.04343 0.0
C265 C 0.75736 0.55716 0.27735 0.0
O266 O 0.77013 0.60933 0.152 0.0
O267 O 0.79748 0.6001 0.17033 0.0
O268 O 0.77127 0.55502 0.23832 0.0
O269 O 0.74382 0.56418 0.25334 0.0
C270 C 0.71278 0.549 0.12276 0.0
O271 O 0.76967 0.54599 0.09292 0.0
O272 O 0.76886 0.57607 0.05097 0.0
In273 In 0.52522 0.09742 0.01303 0.0
O274 O 0.49024 0.0961 0.03853 0.0
O275 O 0.52253 0.13083 0.03171 0.0
C276 C 0.50962 0.05009 0.00215 0.0
C277 C 0.54942 0.10746 0.12317 0.0
C278 C 0.53503 0.10841 0.88937 0.0
O279 O 0.4955 0.05794 0.01597 0.0
O280 O 0.53158 0.06607 0.99458 0.0
O281 O 0.55167 0.11263 0.92887 0.0
O282 O 0.51415 0.09983 0.91288 0.0
C283 C 0.50011 0.11883 0.04339 0.0
O284 O 0.55939 0.12 0.07409 0.0
O285 O 0.52829 0.08996 0.11545 0.0
In286 In 0.89659 0.42448 0.02127 0.0
O287 O 0.87677 0.43775 0.08702 0.0
O288 O 0.90536 0.43295 0.12406 0.0
C289 C 0.88454 0.4239 0.89873 0.0
C290 C 0.87378 0.37826 0.05523 0.0
C291 C 0.94367 0.45612 0.00602 0.0
O292 O 0.88243 0.43756 0.93879 0.0
O293 O 0.8908 0.40962 0.92165 0.0
O294 O 0.93558 0.43352 0.00808 0.0
O295 O 0.92808 0.46265 0.01213 0.0
C296 C 0.88925 0.43844 0.13477 0.0
O297 O 0.89649 0.39004 0.04687 0.0
O298 O 0.8626 0.38959 0.04429 0.0
In299 In 0.56594 0.46945 0.02245 0.0
O300 O 0.59904 0.50536 0.0486 0.0
O301 O 0.60417 0.47604 0.02094 0.0
C302 C 0.53226 0.48218 0.01001 0.0
C303 C 0.55759 0.45004 0.13933 0.0
C304 C 0.56138 0.45225 0.90444 0.0
O305 O 0.55466 0.49761 0.00881 0.0
O306 O 0.52685 0.46036 0.01758 0.0
O307 O 0.55461 0.43828 0.95217 0.0
O308 O 0.57082 0.4745 0.91695 0.0
C309 C 0.61348 0.49744 0.0412 0.0
O310 O 0.56155 0.43992 0.0929 0.0
O311 O 0.5564 0.4686 0.12542 0.0
In312 In 0.56516 0.80546 0.87655 0.0
O313 O 0.5512 0.77617 0.95368 0.0
O314 O 0.57005 0.81353 0.98022 0.0
C315 C 0.55009 0.78731 0.76116 0.0
C316 C 0.54124 0.82923 0.88758 0.0
C317 C 0.61151 0.81751 0.86244 0.0
O318 O 0.54265 0.77387 0.80993 0.0
O319 O 0.5642 0.80956 0.77142 0.0
O320 O 0.60509 0.83331 0.86578 0.0
O321 O 0.59461 0.79577 0.86627 0.0
C322 C 0.55919 0.79173 0.99795 0.0
O323 O 0.56408 0.84025 0.8821 0.0
O324 O 0.53052 0.80638 0.88494 0.0
In325 In 0.1848 0.75666 0.84832 0.0
O326 O 0.21727 0.77145 0.91635 0.0
O327 O 0.18187 0.75991 0.95313 0.0
C328 C 0.20087 0.75998 0.7293 0.0
C329 C 0.15972 0.70911 0.86665 0.0
C330 C 0.17134 0.78998 0.8425 0.0
O331 O 0.21493 0.76542 0.7765 0.0
O332 O 0.17891 0.75217 0.74261 0.0
O333 O 0.15605 0.76767 0.84781 0.0
O334 O 0.19326 0.79541 0.83914 0.0
C335 C 0.20409 0.76847 0.96431 0.0
O336 O 0.14936 0.72122 0.85574 0.0
O337 O 0.18258 0.72083 0.86579 0.0
In338 In 0.23081 0.42674 0.87319 0.0
O339 O 0.2175 0.44555 0.94213 0.0
O340 O 0.22598 0.41924 0.97749 0.0
C341 C 0.22553 0.43934 0.75534 0.0
C342 C 0.27831 0.45009 0.89334 0.0
C343 C 0.20013 0.37913 0.86017 0.0
O344 O 0.21575 0.44328 0.80253 0.0
O345 O 0.23833 0.42998 0.76818 0.0
O346 O 0.22279 0.38807 0.856 0.0
O347 O 0.19308 0.39399 0.87214 0.0
C348 C 0.21902 0.43416 0.98951 0.0
O349 O 0.26621 0.42734 0.88758 0.0
O350 O 0.26663 0.46114 0.8873 0.0
In351 In 0.46571 0.90172 0.97562 0.0
O352 O 0.50021 0.90206 0.9496 0.0
O353 O 0.46794 0.86778 0.96393 0.0
C354 C 0.48092 0.94899 0.98391 0.0
C355 C 0.44149 0.89081 0.86568 0.0
C356 C 0.45604 0.89202 0.09955 0.0
O357 O 0.49524 0.94123 0.9715 0.0
O358 O 0.45896 0.93295 0.99109 0.0
O359 O 0.43924 0.88618 0.05933 0.0
O360 O 0.47715 0.90177 0.07682 0.0
C361 C 0.49013 0.87923 0.9495 0.0
O362 O 0.43116 0.8795 0.91601 0.0
O363 O 0.46311 0.90752 0.87182 0.0
In364 In 0.0908 0.56153 0.96081 0.0
O365 O 0.1156 0.55531 0.89335 0.0
O366 O 0.0828 0.55239 0.85842 0.0
C367 C 0.10122 0.56215 0.08344 0.0
C368 C 0.11188 0.60849 0.93645 0.0
C369 C 0.0446 0.52747 0.97457 0.0
O370 O 0.10462 0.54896 0.04438 0.0
O371 O 0.09412 0.57564 0.0595 0.0
O372 O 0.05097 0.54963 0.96802 0.0
O373 O 0.06149 0.52254 0.97348 0.0
C374 C 0.10208 0.55232 0.84602 0.0
O375 O 0.08919 0.59469 0.9309 0.0
O376 O 0.12358 0.59867 0.95654 0.0
In377 In 0.42712 0.52473 0.97576 0.0
O378 O 0.39127 0.48965 0.969 0.0
O379 O 0.39149 0.52309 0.95722 0.0
C380 C 0.45978 0.51043 0.9855 0.0
C381 C 0.43978 0.5434 0.85903 0.0
C382 C 0.43 0.54069 0.09519 0.0
O383 O 0.43742 0.49547 0.97901 0.0
O384 O 0.46564 0.53251 0.98711 0.0
O385 O 0.43429 0.55453 0.04793 0.0
O386 O 0.42366 0.51908 0.08153 0.0
C387 C 0.37943 0.50026 0.95764 0.0
O388 O 0.44332 0.55696 0.90654 0.0
O389 O 0.43037 0.52113 0.87106 0.0
In390 In 0.08915 0.52288 0.46285 0.0
O391 O 0.11269 0.55485 0.39701 0.0
O392 O 0.08151 0.52373 0.35949 0.0
C393 C 0.10544 0.53782 0.58053 0.0
C394 C 0.1039 0.49153 0.43725 0.0
C395 C 0.04422 0.51473 0.48175 0.0
O396 O 0.11301 0.55222 0.53386 0.0
O397 O 0.0907 0.51604 0.56712 0.0
O398 O 0.04899 0.49776 0.47908 0.0
O399 O 0.06204 0.53584 0.47451 0.0
C400 C 0.09973 0.54424 0.34916 0.0
O401 O 0.08169 0.48496 0.44066 0.0
O402 O 0.11851 0.51365 0.4475 0.0
In403 In 0.47465 0.56769 0.47177 0.0
O404 O 0.44153 0.55763 0.40839 0.0
O405 O 0.47425 0.56293 0.3662 0.0
C406 C 0.46162 0.56456 0.59398 0.0
C407 C 0.50028 0.61531 0.45496 0.0
C408 C 0.48935 0.53524 0.47603 0.0
O409 O 0.44593 0.555 0.55046 0.0
O410 O 0.48331 0.57599 0.57549 0.0
O411 O 0.50393 0.55749 0.46666 0.0
O412 O 0.46733 0.52927 0.48161 0.0
C413 C 0.4528 0.55839 0.35817 0.0
O414 O 0.51034 0.60263 0.46 0.0
O415 O 0.47752 0.60408 0.46072 0.0
In416 In 0.42385 0.90126 0.47805 0.0
O417 O 0.43778 0.88148 0.41414 0.0
O418 O 0.43132 0.9087 0.37483 0.0
C419 C 0.42188 0.8895 0.60118 0.0
C420 C 0.37757 0.87802 0.44596 0.0
C421 C 0.45612 0.94832 0.48916 0.0
O422 O 0.43602 0.88737 0.56281 0.0
O423 O 0.40798 0.89587 0.57632 0.0
O424 O 0.43381 0.9408 0.48112 0.0
O425 O 0.46203 0.93218 0.49203 0.0
C426 C 0.43768 0.89317 0.36547 0.0
O427 O 0.38907 0.9007 0.45497 0.0
O428 O 0.38929 0.86708 0.45494 0.0
In429 In 0.18116 0.42047 0.37353 0.0
O430 O 0.1441 0.41646 0.38093 0.0
O431 O 0.17518 0.45234 0.37841 0.0
C432 C 0.17066 0.3743 0.36645 0.0
C433 C 0.19912 0.43122 0.49169 0.0
C434 C 0.19551 0.43273 0.25325 0.0
O435 O 0.15459 0.38001 0.37569 0.0
O436 O 0.19202 0.39184 0.36197 0.0
O437 O 0.21067 0.44081 0.29841 0.0
O438 O 0.17367 0.41972 0.26962 0.0
C439 C 0.15242 0.43909 0.38303 0.0
O440 O 0.21309 0.43865 0.44398 0.0
O441 O 0.17691 0.41913 0.47879 0.0
In442 In 0.56589 0.76427 0.3805 0.0
O443 O 0.54032 0.76775 0.45093 0.0
O444 O 0.57426 0.77305 0.48367 0.0
C445 C 0.55348 0.77028 0.26388 0.0
C446 C 0.54649 0.71672 0.39586 0.0
C447 C 0.61256 0.7971 0.36492 0.0
O448 O 0.54935 0.77975 0.31156 0.0
O449 O 0.56293 0.75746 0.27567 0.0
O450 O 0.60505 0.7746 0.36367 0.0
O451 O 0.59668 0.80296 0.3756 0.0
C452 C 0.55437 0.77162 0.49737 0.0
O453 O 0.56881 0.73121 0.40431 0.0
O454 O 0.53425 0.7261 0.37706 0.0
In455 In 0.23024 0.80338 0.34998 0.0
O456 O 0.26552 0.83745 0.37255 0.0
O457 O 0.26643 0.80517 0.35024 0.0
C458 C 0.19746 0.81753 0.3437 0.0
C459 C 0.22054 0.78331 0.46566 0.0
C460 C 0.22609 0.79035 0.22839 0.0
O461 O 0.21986 0.83259 0.34958 0.0
O462 O 0.19173 0.79547 0.34142 0.0
O463 O 0.21687 0.77461 0.27205 0.0
O464 O 0.23763 0.81213 0.24655 0.0
C465 C 0.2779 0.82704 0.36751 0.0
O466 O 0.22174 0.77184 0.41796 0.0
O467 O 0.22313 0.80381 0.45366 0.0
C468 C 0.22745 0.1274 0.89791 0.0
C469 C 0.20936 0.10576 0.87001 0.0
C470 C 0.19055 0.09136 0.97426 0.0
C471 C 0.21102 0.11121 0.00292 0.0
N472 N 0.25168 0.14549 0.99097 0.0
N473 N 0.17428 0.066 0.88086 0.0
C474 C 0.23016 0.12869 0.96452 0.0
C475 C 0.19087 0.08745 0.90783 0.0
N476 N 0.24207 0.14675 0.86042 0.0
N477 N 0.17061 0.0767 0.00993 0.0
H478 H 0.17356 0.06288 0.83216 0.0
H479 H 0.16221 0.05088 0.9071 0.0
H480 H 0.1696 0.07932 0.05837 0.0
H481 H 0.15434 0.06337 0.99051 0.0
H482 H 0.25432 0.16378 0.87852 0.0
H483 H 0.23995 0.14636 0.81127 0.0
H484 H 0.26688 0.15695 0.96407 0.0
H485 H 0.25546 0.14619 0.03921 0.0
C486 C 0.90784 0.12263 0.90046 0.0
C487 C 0.88959 0.10752 0.85691 0.0
C488 C 0.86627 0.08075 0.94431 0.0
C489 C 0.88182 0.09874 0.9884 0.0
N490 N 0.91653 0.13865 0.00671 0.0
N491 N 0.85079 0.07213 0.83674 0.0
C492 C 0.90267 0.12002 0.96629 0.0
C493 C 0.86876 0.08629 0.87841 0.0
N494 N 0.9302 0.1395 0.87863 0.0
N495 N 0.84939 0.05829 0.96544 0.0
H496 H 0.8522 0.07542 0.78808 0.0
H497 H 0.83392 0.05806 0.85092 0.0
H498 H 0.84769 0.05346 0.01317 0.0
H499 H 0.83895 0.04381 0.9353 0.0
H500 H 0.94493 0.14965 0.90837 0.0
H501 H 0.93464 0.14128 0.83058 0.0
H502 H 0.93019 0.15552 0.99111 0.0
H503 H 0.91312 0.13833 0.05502 0.0
C504 C 0.89816 0.7583 0.94892 0.0
C505 C 0.8998 0.77737 0.98761 0.0
C506 C 0.89453 0.79676 0.89308 0.0
C507 C 0.89414 0.77825 0.85492 0.0
N508 N 0.90289 0.74595 0.84387 0.0
N509 N 0.9051 0.81751 0.99452 0.0
C510 C 0.89859 0.76066 0.88216 0.0
C511 C 0.89971 0.79751 0.95908 0.0
N512 N 0.89408 0.73702 0.9754 0.0
N513 N 0.88884 0.81288 0.86695 0.0
H514 H 0.90943 0.81883 0.04258 0.0
H515 H 0.90748 0.83357 0.97508 0.0
H516 H 0.88575 0.81329 0.81853 0.0
H517 H 0.88587 0.82487 0.89371 0.0
H518 H 0.89044 0.72181 0.94873 0.0
H519 H 0.89131 0.73341 0.02371 0.0
H520 H 0.90826 0.73405 0.86111 0.0
H521 H 0.90359 0.74765 0.79456 0.0
C522 C 0.13346 0.23692 0.54502 0.0
C523 C 0.11842 0.21585 0.5087 0.0
C524 C 0.09429 0.19631 0.60384 0.0
C525 C 0.11061 0.2168 0.64011 0.0
N526 N 0.14959 0.25291 0.6487 0.0
N527 N 0.08742 0.17367 0.50606 0.0
C528 C 0.13154 0.2358 0.61171 0.0
C529 C 0.09966 0.19492 0.53885 0.0
N530 N 0.1482 0.25862 0.51605 0.0
N531 N 0.07321 0.1788 0.63042 0.0
H532 H 0.09115 0.17199 0.4588 0.0
H533 H 0.07514 0.15729 0.52725 0.0
H534 H 0.06897 0.17901 0.67807 0.0
H535 H 0.05931 0.16496 0.60431 0.0
H536 H 0.15778 0.27485 0.5409 0.0
H537 H 0.14849 0.2611 0.46723 0.0
H538 H 0.1662 0.26612 0.63046 0.0
H539 H 0.14887 0.25213 0.69814 0.0
C540 C 0.74782 0.86593 0.5039 0.0
C541 C 0.76973 0.88493 0.47917 0.0
C542 C 0.78807 0.89221 0.58467 0.0
C543 C 0.76498 0.87566 0.61074 0.0
N544 N 0.72168 0.85069 0.59502 0.0
N545 N 0.81018 0.91812 0.49583 0.0
C546 C 0.74452 0.86353 0.57028 0.0
C547 C 0.78973 0.89872 0.51953 0.0
N548 N 0.73017 0.84997 0.46396 0.0
N549 N 0.80852 0.90064 0.62073 0.0
H550 H 0.81229 0.92261 0.44776 0.0
H551 H 0.8243 0.9305 0.52437 0.0
H552 H 0.80834 0.89547 0.66766 0.0
H553 H 0.82593 0.91085 0.6022 0.0
H554 H 0.71474 0.83439 0.47968 0.0
H555 H 0.73213 0.85094 0.41487 0.0
H556 H 0.70606 0.84372 0.56737 0.0
H557 H 0.71811 0.84925 0.64343 0.0
C558 C 0.09795 0.89851 0.61612 0.0
C559 C 0.1031 0.88284 0.65227 0.0
C560 C 0.10274 0.86137 0.55625 0.0
C561 C 0.09584 0.87573 0.52015 0.0
N562 N 0.08254 0.90507 0.5172 0.0
N563 N 0.10367 0.84545 0.65951 0.0
C564 C 0.0921 0.89346 0.55053 0.0
C565 C 0.10313 0.8629 0.62309 0.0
N566 N 0.09983 0.91881 0.64343 0.0
N567 N 0.11073 0.84758 0.52673 0.0
H568 H 0.10356 0.84588 0.70897 0.0
H569 H 0.10159 0.82938 0.64083 0.0
H570 H 0.11282 0.84755 0.47778 0.0
H571 H 0.11813 0.83858 0.55102 0.0
H572 H 0.09911 0.93238 0.61775 0.0
H573 H 0.10367 0.92282 0.69141 0.0
H574 H 0.07721 0.91644 0.53821 0.0
H575 H 0.07807 0.90175 0.46927 0.0
C576 C 0.78139 0.87133 0.09166 0.0
C577 C 0.77524 0.88876 0.11217 0.0
C578 C 0.77068 0.89796 0.002 0.0
C579 C 0.77714 0.88079 0.9813 0.0
N580 N 0.79502 0.85618 0.00473 0.0
N581 N 0.77183 0.92391 0.08681 0.0
C582 C 0.78467 0.86918 0.02576 0.0
C583 C 0.77253 0.90384 0.06724 0.0
N584 N 0.78255 0.85578 0.13423 0.0
N585 N 0.76092 0.9073 0.96072 0.0
H586 H 0.77302 0.92892 0.13424 0.0
H587 H 0.77256 0.93693 0.05556 0.0
H588 H 0.7586 0.90334 0.91252 0.0
H589 H 0.75309 0.91744 0.9754 0.0
H590 H 0.7842 0.84095 0.12089 0.0
H591 H 0.77999 0.8565 0.18276 0.0
H592 H 0.80287 0.84907 0.03479 0.0
H593 H 0.79795 0.85464 0.95668 0.0
C594 C 0.09473 0.89537 0.11291 0.0
C595 C 0.11199 0.89437 0.15324 0.0
C596 C 0.13708 0.89789 0.0622 0.0
C597 C 0.12057 0.9002 0.02135 0.0
N598 N 0.08668 0.9069 0.01009 0.0
N599 N 0.15255 0.90216 0.16905 0.0
C600 C 0.10026 0.90071 0.04736 0.0
C601 C 0.13423 0.89831 0.12862 0.0
N602 N 0.07273 0.89022 0.13664 0.0
N603 N 0.15429 0.89326 0.03819 0.0
H604 H 0.15086 0.90277 0.21816 0.0
H605 H 0.16998 0.9072 0.15368 0.0
H606 H 0.15597 0.89064 0.99017 0.0
H607 H 0.16505 0.88909 0.06668 0.0
H608 H 0.05831 0.88775 0.10821 0.0
H609 H 0.06852 0.88709 0.18476 0.0
H610 H 0.07302 0.90967 0.02784 0.0
H611 H 0.09059 0.91154 0.96241 0.0
C612 C 0.11582 0.24093 0.03262 0.0
C613 C 0.09856 0.21907 0.00347 0.0
C614 C 0.09166 0.19791 0.10517 0.0
C615 C 0.10696 0.22052 0.13535 0.0
N616 N 0.12819 0.26429 0.1288 0.0
N617 N 0.06745 0.17724 0.01237 0.0
C618 C 0.11737 0.24225 0.09932 0.0
C619 C 0.08561 0.19766 0.03989 0.0
N620 N 0.13147 0.26029 0.99652 0.0
N621 N 0.08404 0.17671 0.13731 0.0
H622 H 0.0632 0.17639 0.96431 0.0
H623 H 0.05562 0.16182 0.038 0.0
H624 H 0.08846 0.17601 0.18447 0.0
H625 H 0.07502 0.15977 0.11563 0.0
H626 H 0.14604 0.27586 0.01557 0.0
H627 H 0.13153 0.25975 0.94719 0.0
H628 H 0.13391 0.28053 0.10463 0.0
H629 H 0.12897 0.26621 0.17788 0.0
C630 C 0.89697 0.79776 0.39457 0.0
C631 C 0.87948 0.77931 0.35502 0.0
C632 C 0.85536 0.75764 0.44734 0.0
C633 C 0.87228 0.77641 0.48765 0.0
N634 N 0.90612 0.81707 0.49799 0.0
N635 N 0.83883 0.74647 0.34142 0.0
C636 C 0.89219 0.79738 0.46078 0.0
C637 C 0.85752 0.76096 0.38086 0.0
N638 N 0.91849 0.81501 0.36937 0.0
N639 N 0.83847 0.73578 0.47189 0.0
H640 H 0.84005 0.74889 0.29232 0.0
H641 H 0.82157 0.73399 0.35775 0.0
H642 H 0.83758 0.73153 0.51979 0.0
H643 H 0.8273 0.72085 0.44383 0.0
H644 H 0.93319 0.82712 0.3968 0.0
H645 H 0.92204 0.81632 0.32082 0.0
H646 H 0.9195 0.83362 0.48 0.0
H647 H 0.90279 0.81756 0.54621 0.0
C648 C 0.19776 0.10677 0.47852 0.0
C649 C 0.19956 0.08712 0.50418 0.0
C650 C 0.20093 0.07296 0.39681 0.0
C651 C 0.20001 0.09306 0.37184 0.0
N652 N 0.18809 0.12301 0.38639 0.0
N653 N 0.19437 0.04733 0.48832 0.0
C654 C 0.1951 0.10782 0.41209 0.0
C655 C 0.19826 0.06876 0.46332 0.0
N656 N 0.20064 0.12552 0.51601 0.0
N657 N 0.20568 0.05877 0.35775 0.0
H658 H 0.19157 0.04353 0.53672 0.0
H659 H 0.1914 0.03255 0.46073 0.0
H660 H 0.20706 0.06106 0.30868 0.0
H661 H 0.20947 0.04563 0.37428 0.0
H662 H 0.20244 0.14152 0.49775 0.0
H663 H 0.20325 0.12621 0.56476 0.0
H664 H 0.18226 0.13279 0.41347 0.0
H665 H 0.18556 0.12362 0.33772 0.0
C666 C 0.89473 0.13775 0.44688 0.0
C667 C 0.89742 0.12127 0.4869 0.0
C668 C 0.89203 0.09551 0.39485 0.0
C669 C 0.89097 0.1129 0.35513 0.0
N670 N 0.89813 0.15333 0.34047 0.0
N671 N 0.9036 0.08705 0.49716 0.0
C672 C 0.89474 0.135 0.38033 0.0
C673 C 0.89755 0.10086 0.46038 0.0
N674 N 0.89021 0.15487 0.47207 0.0
N675 N 0.88702 0.07366 0.37033 0.0
H676 H 0.90817 0.09074 0.54493 0.0
H677 H 0.90618 0.07332 0.47907 0.0
H678 H 0.88392 0.06967 0.32208 0.0
H679 H 0.88466 0.05914 0.39816 0.0
H680 H 0.8858 0.16566 0.44447 0.0
H681 H 0.88791 0.1564 0.52042 0.0
H682 H 0.90308 0.17068 0.35627 0.0
H683 H 0.89844 0.15179 0.29125 0.0
C684 C 0.9071 0.46484 0.22862 0.0
C685 C 0.88637 0.44571 0.19937 0.0
C686 C 0.86462 0.43645 0.30088 0.0
C687 C 0.88646 0.45343 0.33131 0.0
N688 N 0.92982 0.47996 0.3256 0.0
N689 N 0.846 0.4113 0.20827 0.0
C690 C 0.90805 0.46674 0.29553 0.0
C691 C 0.86515 0.43105 0.23546 0.0
N692 N 0.92588 0.48132 0.19217 0.0
N693 N 0.84335 0.42592 0.334 0.0
H694 H 0.84558 0.40698 0.16046 0.0
H695 H 0.83124 0.39833 0.23397 0.0
H696 H 0.84239 0.42942 0.3819 0.0
H697 H 0.82649 0.4153 0.31289 0.0
H698 H 0.94051 0.49698 0.21058 0.0
H699 H 0.92555 0.48064 0.14272 0.0
H700 H 0.9464 0.48809 0.30198 0.0
H701 H 0.9316 0.4805 0.37475 0.0
C702 C 0.57108 0.46148 0.25133 0.0
C703 C 0.55722 0.44298 0.20655 0.0
C704 C 0.54092 0.41347 0.29321 0.0
C705 C 0.55094 0.43273 0.33771 0.0
N706 N 0.5731 0.47593 0.35792 0.0
N707 N 0.52728 0.40125 0.18533 0.0
C708 C 0.5657 0.45695 0.31672 0.0
C709 C 0.54195 0.4188 0.22738 0.0
N710 N 0.58959 0.48341 0.23161 0.0
N711 N 0.53049 0.39009 0.31411 0.0
H712 H 0.52706 0.40442 0.13696 0.0
H713 H 0.51386 0.384 0.19913 0.0
H714 H 0.52992 0.38578 0.36204 0.0
H715 H 0.52475 0.3753 0.28389 0.0
H716 H 0.60187 0.49646 0.2628 0.0
H717 H 0.59433 0.48767 0.18418 0.0
H718 H 0.58119 0.4939 0.34304 0.0
H719 H 0.56936 0.47393 0.40624 0.0
C720 C 0.56489 0.09154 0.27897 0.0
C721 C 0.5666 0.1104 0.31877 0.0
C722 C 0.56145 0.13053 0.2257 0.0
C723 C 0.56081 0.11218 0.18644 0.0
N724 N 0.56917 0.07972 0.17277 0.0
N725 N 0.57243 0.15071 0.32784 0.0
C726 C 0.56514 0.0943 0.2123 0.0
C727 C 0.56673 0.13084 0.29146 0.0
N728 N 0.56097 0.0701 0.30418 0.0
N729 N 0.5559 0.14694 0.20086 0.0
H730 H 0.57697 0.15176 0.37569 0.0
H731 H 0.57494 0.16694 0.30925 0.0
H732 H 0.55275 0.1477 0.15261 0.0
H733 H 0.55308 0.15884 0.22853 0.0
H734 H 0.55709 0.05504 0.27657 0.0
H735 H 0.55871 0.06615 0.35241 0.0
H736 H 0.57453 0.06766 0.18884 0.0
H737 H 0.56966 0.08165 0.12354 0.0
C738 C 0.80201 0.57327 0.88589 0.0
C739 C 0.78495 0.55385 0.84749 0.0
C740 C 0.76046 0.53424 0.94215 0.0
C741 C 0.77829 0.55313 0.98006 0.0
N742 N 0.81906 0.58612 0.99076 0.0
N743 N 0.75081 0.51321 0.84111 0.0
C744 C 0.80015 0.57104 0.95265 0.0
C745 C 0.765 0.53346 0.87622 0.0
N746 N 0.8188 0.5947 0.85906 0.0
N747 N 0.73882 0.51773 0.96843 0.0
H748 H 0.75392 0.51188 0.79314 0.0
H749 H 0.73741 0.49703 0.86078 0.0
H750 H 0.73528 0.51733 0.01683 0.0
H751 H 0.72401 0.50534 0.9418 0.0
H752 H 0.8301 0.61009 0.88553 0.0
H753 H 0.81943 0.59815 0.81067 0.0
H754 H 0.83623 0.59832 0.97334 0.0
H755 H 0.81814 0.58445 0.04008 0.0
C756 C 0.40246 0.207 0.86124 0.0
C757 C 0.42461 0.21914 0.82734 0.0
C758 C 0.44693 0.22102 0.92389 0.0
C759 C 0.42488 0.21074 0.95855 0.0
N760 N 0.38259 0.19893 0.96327 0.0
N761 N 0.46825 0.2408 0.82695 0.0
C762 C 0.40292 0.20525 0.92806 0.0
C763 C 0.447 0.22705 0.85879 0.0
N764 N 0.38093 0.19614 0.82923 0.0
N765 N 0.46752 0.22401 0.95224 0.0
H766 H 0.46888 0.24511 0.77901 0.0
H767 H 0.48513 0.24934 0.84895 0.0
H768 H 0.46827 0.22012 0.99991 0.0
H769 H 0.48342 0.22873 0.92755 0.0
H770 H 0.3643 0.18497 0.85091 0.0
H771 H 0.37988 0.19617 0.77993 0.0
H772 H 0.36665 0.19698 0.94414 0.0
H773 H 0.38242 0.19809 0.01269 0.0
C774 C 0.74215 0.20003 0.89276 0.0
C775 C 0.76096 0.21164 0.84733 0.0
C776 C 0.78894 0.23539 0.93209 0.0
C777 C 0.77165 0.22022 0.97799 0.0
N778 N 0.73179 0.18669 0.00158 0.0
N779 N 0.80363 0.23831 0.82542 0.0
C780 C 0.74805 0.20239 0.95846 0.0
C781 C 0.78466 0.22909 0.86713 0.0
N782 N 0.71864 0.18688 0.87295 0.0
N783 N 0.80954 0.25593 0.95043 0.0
H784 H 0.80193 0.23387 0.77753 0.0
H785 H 0.82163 0.24873 0.83969 0.0
H786 H 0.81348 0.26134 0.99758 0.0
H787 H 0.8214 0.26889 0.91837 0.0
H788 H 0.70393 0.17974 0.90385 0.0
H789 H 0.71382 0.18531 0.82518 0.0
H790 H 0.71537 0.17163 0.98875 0.0
H791 H 0.7354 0.18751 0.04993 0.0
C792 C 0.42504 0.23074 0.40974 0.0
C793 C 0.43028 0.21797 0.45662 0.0
C794 C 0.44329 0.20042 0.37256 0.0
C795 C 0.43378 0.20963 0.32642 0.0
N796 N 0.41122 0.23 0.30312 0.0
N797 N 0.44213 0.18837 0.48196 0.0
C798 C 0.42371 0.22406 0.3453 0.0
C799 C 0.43913 0.20241 0.43804 0.0
N800 N 0.42163 0.24955 0.42632 0.0
N801 N 0.45646 0.18998 0.35371 0.0
H802 H 0.4387 0.1887 0.5301 0.0
H803 H 0.44598 0.17481 0.46991 0.0
H804 H 0.46011 0.18862 0.30612 0.0
H805 H 0.46575 0.18495 0.38519 0.0
H806 H 0.42038 0.26096 0.39304 0.0
H807 H 0.42268 0.25551 0.47277 0.0
H808 H 0.40109 0.23795 0.31689 0.0
H809 H 0.40874 0.22486 0.25566 0.0
C810 C 0.76024 0.22057 0.44595 0.0
C811 C 0.77349 0.212 0.48094 0.0
C812 C 0.79282 0.20944 0.38356 0.0
C813 C 0.78146 0.22017 0.34933 0.0
N814 N 0.75724 0.23951 0.3491 0.0
N815 N 0.80649 0.20378 0.48563 0.0
C816 C 0.76596 0.22678 0.38082 0.0
C817 C 0.79107 0.20816 0.45046 0.0
N818 N 0.74148 0.22168 0.47387 0.0
N819 N 0.80421 0.19924 0.35191 0.0
H820 H 0.80619 0.20338 0.53508 0.0
H821 H 0.82117 0.20313 0.46614 0.0
H822 H 0.80458 0.19847 0.30261 0.0
H823 H 0.8108 0.18913 0.37425 0.0
H824 H 0.72947 0.22515 0.4488 0.0
H825 H 0.73674 0.21732 0.52132 0.0
H826 H 0.74799 0.24706 0.37128 0.0
H827 H 0.76092 0.24414 0.30133 0.0
C828 C 0.76326 0.53343 0.43894 0.0
C829 C 0.7637 0.5514 0.47936 0.0
C830 C 0.76016 0.57292 0.38819 0.0
C831 C 0.75857 0.55445 0.34715 0.0
N832 N 0.75278 0.51422 0.3355 0.0
N833 N 0.75534 0.58377 0.49504 0.0
C834 C 0.75832 0.53375 0.37313 0.0
C835 C 0.75951 0.56952 0.45464 0.0
N836 N 0.76855 0.51671 0.46291 0.0
N837 N 0.7644 0.59463 0.3643 0.0
H838 H 0.75466 0.58141 0.54414 0.0
H839 H 0.75012 0.59601 0.47967 0.0
H840 H 0.76728 0.59899 0.31637 0.0
H841 H 0.76803 0.60943 0.39274 0.0
H842 H 0.77148 0.50504 0.43462 0.0
H843 H 0.7713 0.51547 0.51121 0.0
H844 H 0.7502 0.49783 0.35305 0.0
H845 H 0.74847 0.51361 0.28759 0.0
C846 C 0.55994 0.13076 0.72272 0.0
C847 C 0.54445 0.10975 0.68685 0.0
C848 C 0.52415 0.08813 0.78358 0.0
C849 C 0.53858 0.10939 0.81967 0.0
N850 N 0.56689 0.15233 0.82249 0.0
N851 N 0.50752 0.07132 0.68072 0.0
C852 C 0.55549 0.1312 0.7889 0.0
C853 C 0.52503 0.08947 0.71667 0.0
N854 N 0.57957 0.14971 0.69456 0.0
N855 N 0.51098 0.0662 0.81297 0.0
H856 H 0.50755 0.07203 0.63126 0.0
H857 H 0.49179 0.05702 0.69992 0.0
H858 H 0.51145 0.06398 0.86175 0.0
H859 H 0.50199 0.04984 0.78848 0.0
H860 H 0.59315 0.16417 0.71981 0.0
H861 H 0.58306 0.15029 0.64615 0.0
H862 H 0.5776 0.1692 0.80148 0.0
H863 H 0.564 0.1532 0.87085 0.0
C864 C 0.90147 0.43171 0.72365 0.0
C865 C 0.88281 0.43479 0.69757 0.0
C866 C 0.86255 0.4257 0.80114 0.0
C867 C 0.88326 0.42662 0.82907 0.0
N868 N 0.92438 0.4343 0.81712 0.0
N869 N 0.84565 0.4355 0.71018 0.0
C870 C 0.90315 0.43032 0.79035 0.0
C871 C 0.86317 0.43173 0.73578 0.0
N872 N 0.91761 0.43007 0.68427 0.0
N873 N 0.84212 0.41846 0.83659 0.0
H874 H 0.84502 0.43879 0.66198 0.0
H875 H 0.83254 0.4366 0.73705 0.0
H876 H 0.84097 0.4136 0.88421 0.0
H877 H 0.82569 0.41523 0.81761 0.0
H878 H 0.93032 0.42552 0.69992 0.0
H879 H 0.91654 0.43076 0.63499 0.0
H880 H 0.94021 0.43987 0.79121 0.0
H881 H 0.9272 0.4346 0.86578 0.0
C882 C 0.53214 0.41941 0.75048 0.0
C883 C 0.54962 0.43552 0.70649 0.0
C884 C 0.57739 0.45633 0.79431 0.0
C885 C 0.55803 0.44376 0.83785 0.0
N886 N 0.51546 0.41508 0.85536 0.0
N887 N 0.58873 0.4708 0.68672 0.0
C888 C 0.53504 0.42548 0.81572 0.0
C889 C 0.5724 0.45421 0.72823 0.0
N890 N 0.51291 0.39814 0.72993 0.0
N891 N 0.60056 0.47002 0.81615 0.0
H892 H 0.58573 0.47013 0.63804 0.0
H893 H 0.60442 0.48635 0.70126 0.0
H894 H 0.60491 0.47125 0.86422 0.0
H895 H 0.61563 0.47789 0.78641 0.0
H896 H 0.50072 0.38479 0.76068 0.0
H897 H 0.51084 0.39266 0.68265 0.0
H898 H 0.49786 0.4037 0.83922 0.0
H899 H 0.51618 0.41948 0.90312 0.0
C900 C 0.5363 0.78918 0.65213 0.0
C901 C 0.54475 0.77809 0.69556 0.0
C902 C 0.55119 0.75686 0.60813 0.0
C903 C 0.54752 0.77167 0.56438 0.0
N904 N 0.53756 0.80298 0.54448 0.0
N905 N 0.56244 0.7528 0.71468 0.0
C906 C 0.53986 0.78781 0.58606 0.0
C907 C 0.55234 0.76191 0.67379 0.0
N908 N 0.52492 0.80103 0.67442 0.0
N909 N 0.5535 0.73785 0.58698 0.0
H910 H 0.56389 0.75595 0.76331 0.0
H911 H 0.57119 0.74359 0.69961 0.0
H912 H 0.55303 0.73359 0.53915 0.0
H913 H 0.55349 0.72488 0.61709 0.0
H914 H 0.51644 0.80771 0.64518 0.0
H915 H 0.5219 0.80203 0.72268 0.0
H916 H 0.53477 0.81703 0.55869 0.0
H917 H 0.54024 0.80277 0.49583 0.0
C918 C 0.19957 0.75184 0.55152 0.0
C919 C 0.21838 0.77501 0.53224 0.0
C920 C 0.22746 0.78777 0.64317 0.0
C921 C 0.20931 0.76434 0.66269 0.0
N922 N 0.18274 0.72235 0.63638 0.0
N923 N 0.25494 0.81209 0.5602 0.0
C924 C 0.1969 0.74579 0.61704 0.0
C925 C 0.23391 0.79195 0.57829 0.0
N926 N 0.18328 0.73621 0.50832 0.0
N927 N 0.23729 0.80664 0.68519 0.0
H928 H 0.26045 0.81597 0.51311 0.0
H929 H 0.26808 0.82358 0.5924 0.0
H930 H 0.23261 0.80498 0.73293 0.0
H931 H 0.24842 0.82458 0.67126 0.0
H932 H 0.16763 0.72028 0.52112 0.0
H933 H 0.18421 0.73999 0.46006 0.0
H934 H 0.17504 0.70772 0.6052 0.0
H935 H 0.1808 0.71735 0.684 0.0
C936 C 0.19547 0.41395 0.59967 0.0
C937 C 0.20734 0.43425 0.55857 0.0
C938 C 0.23171 0.459 0.64827 0.0
C939 C 0.21778 0.43931 0.68953 0.0
N940 N 0.18249 0.40006 0.70649 0.0
N941 N 0.23386 0.47743 0.54612 0.0
C942 C 0.19836 0.41747 0.66582 0.0
C943 C 0.2248 0.45721 0.58332 0.0
N944 N 0.18241 0.39101 0.57562 0.0
N945 N 0.25161 0.47923 0.67095 0.0
H946 H 0.22881 0.47703 0.49898 0.0
H947 H 0.24478 0.4949 0.56356 0.0
H948 H 0.25643 0.48139 0.71879 0.0
H949 H 0.26404 0.4931 0.64184 0.0
H950 H 0.17552 0.37551 0.60372 0.0
H951 H 0.18088 0.38725 0.52728 0.0
H952 H 0.16664 0.38478 0.6914 0.0
H953 H 0.18384 0.40206 0.75557 0.0
C954 C 0.46461 0.91279 0.20451 0.0
C955 C 0.45206 0.89104 0.16897 0.0
C956 C 0.43162 0.86889 0.26586 0.0
C957 C 0.44539 0.89047 0.30137 0.0
N958 N 0.47951 0.93097 0.30732 0.0
N959 N 0.42721 0.84752 0.16701 0.0
C960 C 0.46347 0.91172 0.27145 0.0
C961 C 0.43663 0.86876 0.20001 0.0
N962 N 0.47622 0.93471 0.17438 0.0
N963 N 0.41299 0.84898 0.29405 0.0
H964 H 0.43055 0.84684 0.11886 0.0
H965 H 0.41781 0.83054 0.18841 0.0
H966 H 0.40911 0.84828 0.34226 0.0
H967 H 0.4005 0.83374 0.26895 0.0
H968 H 0.48367 0.95122 0.19819 0.0
H969 H 0.47594 0.9365 0.12536 0.0
H970 H 0.49445 0.94619 0.28822 0.0
H971 H 0.47931 0.93055 0.3568 0.0
C972 C 0.08363 0.55829 0.19198 0.0
C973 C 0.10287 0.5604 0.15309 0.0
C974 C 0.12313 0.55621 0.24708 0.0
C975 C 0.10421 0.55489 0.28522 0.0
N976 N 0.07129 0.56267 0.29729 0.0
N977 N 0.14372 0.56752 0.14552 0.0
C978 C 0.08612 0.55868 0.25857 0.0
C979 C 0.12353 0.56122 0.18117 0.0
N980 N 0.06222 0.55412 0.16597 0.0
N981 N 0.14013 0.55178 0.27324 0.0
H982 H 0.14488 0.57199 0.0976 0.0
H983 H 0.16006 0.57057 0.1647 0.0
H984 H 0.1409 0.54907 0.32174 0.0
H985 H 0.15256 0.54948 0.2465 0.0
H986 H 0.04693 0.54987 0.19303 0.0
H987 H 0.05858 0.55215 0.11759 0.0
H988 H 0.05907 0.56769 0.28046 0.0
H989 H 0.07323 0.56359 0.34653 0.0
C990 C 0.4545 0.56956 0.18335 0.0
C991 C 0.43299 0.54869 0.16239 0.0
C992 C 0.42173 0.53567 0.27285 0.0
C993 C 0.44312 0.55657 0.2933 0.0
N994 N 0.47458 0.59734 0.27011 0.0
N995 N 0.39268 0.51654 0.18793 0.0
C996 C 0.4577 0.57485 0.24908 0.0
C997 C 0.41544 0.53328 0.20753 0.0
N998 N 0.47277 0.58335 0.14193 0.0
N999 N 0.40817 0.51747 0.31462 0.0
H1000 H 0.3873 0.5149 0.14066 0.0
H1001 H 0.37853 0.50624 0.21915 0.0
H1002 H 0.41211 0.51853 0.36284 0.0
H1003 H 0.39402 0.50063 0.30058 0.0
H1004 H 0.48977 0.59701 0.15671 0.0
H1005 H 0.47204 0.5799 0.09357 0.0
H1006 H 0.48435 0.612 0.23985 0.0
H1007 H 0.47671 0.60195 0.31808 0.0
C1008 C 0.10633 0.56793 0.73607 0.0
C1009 C 0.1091 0.55232 0.77905 0.0
C1010 C 0.1181 0.5336 0.68968 0.0
C1011 C 0.11055 0.54582 0.64725 0.0
N1012 N 0.09423 0.57253 0.63125 0.0
N1013 N 0.11675 0.51937 0.79705 0.0
C1014 C 0.10423 0.56279 0.67046 0.0
C1015 C 0.11521 0.53516 0.75615 0.0
N1016 N 0.10557 0.58772 0.75795 0.0
N1017 N 0.12807 0.52058 0.66618 0.0
H1018 H 0.11477 0.51994 0.84593 0.0
H1019 H 0.11835 0.50466 0.78221 0.0
H1020 H 0.13062 0.51942 0.6177 0.0
H1021 H 0.13589 0.51299 0.6946 0.0
H1022 H 0.10641 0.60117 0.72822 0.0
H1023 H 0.10655 0.59199 0.80584 0.0
H1024 H 0.08646 0.58248 0.64786 0.0
H1025 H 0.0915 0.56898 0.58291 0.0
C1026 C 0.43614 0.56296 0.7589 0.0
C1027 C 0.44753 0.55237 0.79376 0.0
C1028 C 0.46555 0.54758 0.69663 0.0
C1029 C 0.45576 0.5598 0.66218 0.0
N1030 N 0.435 0.58265 0.66136 0.0
N1031 N 0.47775 0.54028 0.79898 0.0
C1032 C 0.44197 0.56855 0.69353 0.0
C1033 C 0.46373 0.54649 0.76351 0.0
N1034 N 0.41903 0.56668 0.78737 0.0
N1035 N 0.47545 0.53585 0.66525 0.0
H1036 H 0.47736 0.53999 0.84843 0.0
H1037 H 0.49152 0.53797 0.77983 0.0
H1038 H 0.47594 0.53508 0.61596 0.0
H1039 H 0.48072 0.52467 0.68773 0.0
H1040 H 0.40812 0.57175 0.7627 0.0
H1041 H 0.4146 0.56316 0.83527 0.0
H1042 H 0.42711 0.59166 0.68318 0.0
H1043 H 0.43879 0.58684 0.6134 0.0
C1044 C 0.42453 0.90319 0.77788 0.0
C1045 C 0.42976 0.88583 0.80296 0.0
C1046 C 0.42391 0.86729 0.69791 0.0
C1047 C 0.42317 0.88736 0.67108 0.0
N1048 N 0.42695 0.92689 0.68642 0.0
N1049 N 0.43578 0.8518 0.78785 0.0
C1050 C 0.42422 0.90584 0.71127 0.0
C1051 C 0.42957 0.86779 0.7634 0.0
N1052 N 0.42023 0.91742 0.81807 0.0
N1053 N 0.4186 0.84755 0.66139 0.0
H1054 H 0.43908 0.85114 0.83605 0.0
H1055 H 0.43892 0.84017 0.75994 0.0
H1056 H 0.41366 0.84629 0.61381 0.0
H1057 H 0.41676 0.83155 0.67972 0.0
H1058 H 0.41416 0.929 0.80276 0.0
H1059 H 0.42031 0.91566 0.86728 0.0
H1060 H 0.43045 0.94182 0.71413 0.0
H1061 H 0.42849 0.93076 0.63817 0.0
C1062 C 0.21711 0.45712 0.15541 0.0
C1063 C 0.20243 0.43445 0.18565 0.0
C1064 C 0.19381 0.41403 0.0833 0.0
C1065 C 0.21114 0.43584 0.05423 0.0
N1066 N 0.24149 0.47809 0.06324 0.0
N1067 N 0.18264 0.39076 0.1796 0.0
C1068 C 0.22337 0.4575 0.09028 0.0
C1069 C 0.19235 0.41272 0.14992 0.0
N1070 N 0.22444 0.47815 0.18807 0.0
N1071 N 0.17839 0.39462 0.04706 0.0
H1072 H 0.18324 0.38907 0.2286 0.0
H1073 H 0.17689 0.37456 0.15524 0.0
H1074 H 0.17823 0.39547 0.99768 0.0
H1075 H 0.16408 0.37886 0.06616 0.0
H1076 H 0.23313 0.49516 0.16671 0.0
H1077 H 0.2201 0.47845 0.23559 0.0
H1078 H 0.25285 0.49363 0.08905 0.0
H1079 H 0.24621 0.47907 0.01556 0.0
C1080 C 0.53405 0.7683 0.09274 0.0
C1081 C 0.55675 0.78562 0.06629 0.0
C1082 C 0.57378 0.79718 0.17282 0.0
C1083 C 0.55253 0.77751 0.1982 0.0
N1084 N 0.51304 0.74258 0.18285 0.0
N1085 N 0.59978 0.8127 0.08155 0.0
C1086 C 0.5328 0.76248 0.1583 0.0
C1087 C 0.57705 0.79909 0.10645 0.0
N1088 N 0.51355 0.75836 0.0565 0.0
N1089 N 0.59088 0.81414 0.21214 0.0
H1090 H 0.60341 0.81368 0.0332 0.0
H1091 H 0.6154 0.82079 0.10928 0.0
H1092 H 0.58888 0.81349 0.26122 0.0
H1093 H 0.60573 0.83008 0.19572 0.0
H1094 H 0.49627 0.74744 0.07512 0.0
H1095 H 0.51343 0.76286 0.00909 0.0
H1096 H 0.49929 0.72942 0.15484 0.0
H1097 H 0.51118 0.73858 0.23121 0.0
C1098 C 0.20976 0.79504 0.12566 0.0
C1099 C 0.22113 0.78443 0.16037 0.0
C1100 C 0.22316 0.76397 0.06409 0.0
C1101 C 0.21352 0.77621 0.02904 0.0
N1102 N 0.20373 0.80807 0.02312 0.0
N1103 N 0.24236 0.762 0.1616 0.0
C1104 C 0.2088 0.79327 0.05888 0.0
C1105 C 0.22894 0.76978 0.12933 0.0
N1106 N 0.19861 0.80562 0.15668 0.0
N1107 N 0.22582 0.74616 0.03588 0.0
H1108 H 0.24676 0.76584 0.20943 0.0
H1109 H 0.25067 0.75338 0.13989 0.0
H1110 H 0.22219 0.74178 0.98799 0.0
H1111 H 0.23013 0.7347 0.06076 0.0
H1112 H 0.18808 0.8116 0.13378 0.0
H1113 H 0.19751 0.80588 0.20592 0.0
H1114 H 0.20226 0.82237 0.04214 0.0
H1115 H 0.2036 0.8077 0.97366 0.0
C1116 C 0.17052 0.18598 0.21216 0.0
C1117 C 0.17268 0.19409 0.27568 0.0
C1118 C 0.20103 0.17991 0.29966 0.0
C1119 C 0.19692 0.16962 0.23804 0.0
N1120 N 0.17731 0.1616 0.13594 0.0
N1121 N 0.18763 0.19707 0.38208 0.0
C1122 C 0.18152 0.17229 0.19435 0.0
C1123 C 0.18751 0.19085 0.31994 0.0
N1124 N 0.15875 0.19221 0.16835 0.0
N1125 N 0.21764 0.17902 0.33894 0.0
H1126 H 0.17798 0.2052 0.39857 0.0
H1127 H 0.19575 0.19261 0.41836 0.0
H1128 H 0.22685 0.16986 0.3277 0.0
H1129 H 0.22346 0.18856 0.38135 0.0
H1130 H 0.15877 0.18918 0.11991 0.0
H1131 H 0.15045 0.20226 0.17953 0.0
H1132 H 0.16378 0.15999 0.10531 0.0
H1133 H 0.18667 0.15325 0.11881 0.0
C1134 C 0.81093 0.98021 0.20588 0.0
C1135 C 0.79461 0.97287 0.2579 0.0
C1136 C 0.80411 0.01471 0.27397 0.0
C1137 C 0.81843 0.0215 0.21805 0.0
N1138 N 0.83149 0.01 0.1236 0.0
N1139 N 0.77329 0.98221 0.33741 0.0
C1140 C 0.82079 0.00406 0.18205 0.0
C1141 C 0.7903 0.98981 0.29036 0.0
N1142 N 0.81723 0.96458 0.17931 0.0
N1143 N 0.8049 0.03206 0.31363 0.0
H1144 H 0.76405 0.96443 0.35411 0.0
H1145 H 0.76729 0.99323 0.35726 0.0
H1146 H 0.81539 0.05058 0.30476 0.0
H1147 H 0.79696 0.02827 0.3584 0.0
H1148 H 0.83122 0.96998 0.14654 0.0
H1149 H 0.80984 0.94656 0.193 0.0
H1150 H 0.83132 -0.00267 0.09213 0.0
H1151 H 0.8384 0.02718 0.10373 0.0
C1152 C 0.97623 0.80305 0.30053 0.0
C1153 C 0.97136 0.79647 0.23577 0.0
C1154 C 0.01444 0.81256 0.21477 0.0
C1155 C 0.01945 0.82085 0.27843 0.0
N1156 N 0.00612 0.82638 0.38084 0.0
N1157 N 0.98504 0.7966 0.12928 0.0
C1158 C 0.00062 0.81682 0.32105 0.0
C1159 C 0.99023 0.80149 0.19232 0.0
N1160 N 0.95747 0.79532 0.34268 0.0
N1161 N 0.03285 0.81537 0.17585 0.0
H1162 H 0.96742 0.7881 0.11141 0.0
H1163 H -0.00188 0.80227 0.09388 0.0
H1164 H 0.05103 0.82476 0.18914 0.0
H1165 H 0.03013 0.8073 0.13147 0.0
H1166 H 0.95974 0.7974 0.39155 0.0
H1167 H 0.93935 0.78499 0.32928 0.0
H1168 H 0.99348 0.82662 0.41162 0.0
H1169 H 0.02373 0.83546 0.39875 0.0
C1170 C 0.80913 0.79042 0.79248 0.0
C1171 C 0.81816 0.79326 0.72967 0.0
C1172 C 0.80193 0.81968 0.70273 0.0
C1173 C 0.79303 0.81701 0.76572 0.0
N1174 N 0.78559 0.79856 0.86905 0.0
N1175 N 0.8253 0.81151 0.62602 0.0
C1176 C 0.79583 0.80192 0.81019 0.0
C1177 C 0.81513 0.80813 0.68502 0.0
N1178 N 0.81459 0.7779 0.83593 0.0
N1179 N 0.79662 0.83223 0.65907 0.0
H1180 H 0.83358 0.80198 0.60963 0.0
H1181 H 0.82663 0.82445 0.59378 0.0
H1182 H 0.78712 0.84109 0.67006 0.0
H1183 H 0.80013 0.83278 0.6108 0.0
H1184 H 0.81081 0.77708 0.8841 0.0
H1185 H 0.82438 0.76932 0.82468 0.0
H1186 H 0.78459 0.78588 0.90171 0.0
H1187 H 0.7769 0.80777 0.8847 0.0
C1188 C 0.19879 0.00171 0.69471 0.0
C1189 C 0.20303 0.02006 0.73901 0.0
C1190 C 0.18752 0.99052 0.82526 0.0
C1191 C 0.18028 0.97188 0.77972 0.0
N1192 N 0.17766 0.9587 0.67134 0.0
N1193 N 0.20161 0.03292 0.84568 0.0
C1194 C 0.18585 0.97716 0.7145 0.0
C1195 C 0.19767 0.01479 0.80429 0.0
N1196 N 0.2071 0.00786 0.63394 0.0
N1197 N 0.18498 0.98493 0.88844 0.0
H1198 H 0.21031 0.05113 0.83261 0.0
H1199 H 0.19531 0.02995 0.89216 0.0
H1200 H 0.17755 0.9672 0.90511 0.0
H1201 H 0.19193 -0.00219 0.9244 0.0
H1202 H 0.20662 0.99557 0.60068 0.0
H1203 H 0.2163 0.02576 0.61801 0.0
H1204 H 0.17859 0.96129 0.6225 0.0
H1205 H 0.16854 0.94047 0.68428 0.0
C1206 C 0.97824 0.19377 0.78202 0.0
C1207 C 0.97237 0.18272 0.72121 0.0
C1208 C 0.01512 0.19685 0.70015 0.0
C1209 C 0.0205 0.20523 0.76355 0.0
N1210 N 0.00786 0.21067 0.86682 0.0
N1211 N 0.98443 0.17308 0.62205 0.0
C1212 C 0.00231 0.20374 0.80487 0.0
C1213 C 0.99062 0.18414 0.68006 0.0
N1214 N 0.96079 0.19449 0.81813 0.0
N1215 N 0.03356 0.20177 0.65876 0.0
H1216 H 0.96697 0.16536 0.60341 0.0
H1217 H -0.00371 0.17062 0.59329 0.0
H1218 H 0.05178 0.21126 0.6718 0.0
H1219 H 0.03113 0.19828 0.61034 0.0
H1220 H 0.96446 0.20458 0.85957 0.0
H1221 H 0.94263 0.18621 0.80496 0.0
H1222 H -0.00503 0.20738 0.90153 0.0
H1223 H 0.0254 0.21837 0.8849 0.0
C1224 C 0.84113 0.53015 0.54117 0.0
C1225 C 0.83488 0.52953 0.60596 0.0
C1226 C 0.85306 0.50478 0.63248 0.0
C1227 C 0.85953 0.50561 0.56779 0.0
N1228 N 0.86238 0.52041 0.46129 0.0
N1229 N 0.83186 0.51457 0.7124 0.0
C1230 C 0.85427 0.51864 0.52222 0.0
C1231 C 0.83996 0.51632 0.65145 0.0
N1232 N 0.83342 0.54074 0.49757 0.0
N1233 N 0.86053 0.49394 0.67596 0.0
H1234 H 0.82314 0.5237 0.72855 0.0
H1235 H 0.83255 0.50319 0.74661 0.0
H1236 H 0.87032 0.48546 0.6637 0.0
H1237 H 0.85848 0.49446 0.72471 0.0
H1238 H 0.83506 0.53973 0.44879 0.0
H1239 H 0.82378 0.54938 0.50981 0.0
H1240 H 0.86158 0.53172 0.42705 0.0
H1241 H 0.87125 0.51141 0.44532 0.0
C1242 C 0.45118 0.32196 0.63233 0.0
C1243 C 0.45345 0.30418 0.59765 0.0
C1244 C 0.48171 0.33497 0.52352 0.0
C1245 C 0.47893 0.35267 0.5572 0.0
N1246 N 0.45948 0.36335 0.63938 0.0
N1247 N 0.46891 0.29261 0.50772 0.0
C1248 C 0.46302 0.34624 0.61001 0.0
C1249 C 0.4683 0.31038 0.54274 0.0
N1250 N 0.43892 0.31585 0.68876 0.0
N1251 N 0.49733 0.3418 0.47317 0.0
H1252 H 0.4604 0.27452 0.52147 0.0
H1253 H 0.47673 0.2953 0.46303 0.0
H1254 H 0.50535 0.35904 0.45307 0.0
H1255 H 0.50303 0.33077 0.45206 0.0
H1256 H 0.43877 0.32832 0.72025 0.0
H1257 H 0.43033 0.2983 0.7071 0.0
H1258 H 0.44592 0.35929 0.6726 0.0
H1259 H 0.46923 0.38174 0.62849 0.0
C1260 C 0.65286 0.12329 0.53371 0.0
C1261 C 0.63443 0.12239 0.57306 0.0
C1262 C 0.66321 0.14087 0.66049 0.0
C1263 C 0.68204 0.14413 0.61897 0.0
N1264 N 0.69589 0.14123 0.5145 0.0
N1265 N 0.6213 0.13052 0.67275 0.0
C1266 C 0.67717 0.13584 0.55531 0.0
C1267 C 0.63938 0.13122 0.63624 0.0
N1268 N 0.64712 0.11229 0.47562 0.0
N1269 N 0.66809 0.14633 0.72341 0.0
H1270 H 0.60324 0.12192 0.65841 0.0
H1271 H 0.62423 0.13933 0.71611 0.0
H1272 H 0.6854 0.15325 0.74256 0.0
H1273 H 0.65486 0.14229 0.75769 0.0
H1274 H 0.65924 0.10985 0.4479 0.0
H1275 H 0.62967 0.104 0.4567 0.0
H1276 H 0.69372 0.13838 0.46579 0.0
H1277 H 0.714 0.15027 0.52834 0.0
C1278 C 0.46536 0.13928 0.14752 0.0
C1279 C 0.45982 0.15232 0.10259 0.0
C1280 C 0.48125 0.14389 0.01908 0.0
C1281 C 0.48649 0.13056 0.06377 0.0
N1282 N 0.48732 0.1182 0.17132 0.0
N1283 N 0.4594 0.16499 0.99501 0.0
C1284 C 0.47943 0.12881 0.12824 0.0
C1285 C 0.46713 0.15429 0.03825 0.0
N1286 N 0.45679 0.13669 0.2082 0.0
N1287 N 0.49012 0.14682 0.95862 0.0
H1288 H 0.4489 0.1727 0.00715 0.0
H1289 H 0.46191 0.165 0.94632 0.0
H1290 H 0.49943 0.13836 0.94192 0.0
H1291 H 0.48949 0.15857 0.9255 0.0
H1292 H 0.45785 0.12536 0.24191 0.0
H1293 H 0.44742 0.14514 0.22457 0.0
H1294 H 0.48494 0.11827 0.22005 0.0
H1295 H 0.49781 0.11049 0.15886 0.0
C1296 C 0.84112 0.33524 0.04319 0.0
C1297 C 0.86107 0.35306 0.07806 0.0
C1298 C 0.8569 0.32248 0.15506 0.0
C1299 C 0.83587 0.30505 0.12261 0.0
N1300 N 0.80483 0.29599 0.04369 0.0
N1301 N 0.88472 0.36506 0.17437 0.0
C1302 C 0.8269 0.3118 0.0694 0.0
C1303 C 0.86819 0.34711 0.13595 0.0
N1304 N 0.83653 0.34028 0.98342 0.0
N1305 N 0.86596 0.31556 0.20445 0.0
H1306 H 0.89285 0.38341 0.16318 0.0
H1307 H 0.88871 0.36199 0.22012 0.0
H1308 H 0.85715 0.29807 0.22321 0.0
H1309 H 0.88287 0.32683 0.22465 0.0
H1310 H 0.82392 0.32715 0.95303 0.0
H1311 H 0.84702 0.35704 0.96148 0.0
H1312 H 0.79636 0.30109 0.00978 0.0
H1313 H 0.79396 0.27825 0.05925 0.0
C1314 C 0.68039 0.54443 0.04726 0.0
C1315 C 0.68719 0.53723 0.1037 0.0
C1316 C 0.6463 0.50274 0.11512 0.0
C1317 C 0.63889 0.51111 0.06195 0.0
N1318 N 0.64774 0.54148 0.98192 0.0
N1319 N 0.67561 0.51329 0.19932 0.0
C1320 C 0.65555 0.53259 0.02974 0.0
C1321 C 0.66986 0.51744 0.13991 0.0
N1322 N 0.69773 0.56146 0.00842 0.0
N1323 N 0.63106 0.48067 0.14173 0.0
H1324 H 0.69253 0.5242 0.22012 0.0
H1325 H 0.6629 0.5007 0.2306 0.0
H1326 H 0.61324 0.46946 0.1272 0.0
H1327 H 0.63667 0.4726 0.17549 0.0
H1328 H 0.69406 0.56546 0.96334 0.0
H1329 H 0.71619 0.57016 0.0186 0.0
H1330 H 0.65848 0.55851 0.96177 0.0
H1331 H 0.62999 0.53249 0.96498 0.0
C1332 C 0.50766 0.85374 0.98147 0.0
C1333 C 0.50338 0.86667 0.93352 0.0
C1334 C 0.52528 0.85632 0.85601 0.0
C1335 C 0.52812 0.84202 0.90291 0.0
N1336 N 0.51972 0.82438 0.00789 0.0
N1337 N 0.50434 0.87752 0.82361 0.0
C1338 C 0.51854 0.83984 0.96492 0.0
C1339 C 0.51125 0.86734 0.87032 0.0
N1340 N 0.50225 0.85562 0.04326 0.0
N1341 N 0.53597 0.8593 0.79795 0.0
H1342 H 0.49395 0.88568 0.83233 0.0
H1343 H 0.50721 0.87627 0.77553 0.0
H1344 H 0.54525 0.8504 0.7846 0.0
H1345 H 0.53691 0.87167 0.76425 0.0
H1346 H 0.50745 0.84892 0.08143 0.0
H1347 H 0.49423 0.86567 0.05727 0.0
H1348 H 0.5104 0.8197 0.05078 0.0
H1349 H 0.52876 0.81486 0.99932 0.0
C1350 C 0.14187 0.64312 0.87027 0.0
C1351 C 0.12405 0.63428 0.91895 0.0
C1352 C 0.13047 0.67506 0.93558 0.0
C1353 C 0.1463 0.6832 0.88259 0.0
N1354 N 0.16335 0.67424 0.79169 0.0
N1355 N 0.09968 0.64107 0.99489 0.0
C1356 C 0.151 0.66703 0.8478 0.0
C1357 C 0.11763 0.64997 0.95021 0.0
N1358 N 0.15038 0.62893 0.84574 0.0
N1359 N 0.12894 0.69141 0.97451 0.0
H1360 H 0.09144 0.62336 0.01193 0.0
H1361 H 0.09205 0.65096 0.01287 0.0
H1362 H 0.13857 0.71005 0.96684 0.0
H1363 H 0.11988 0.68679 0.01778 0.0
H1364 H 0.16544 0.63563 0.8161 0.0
H1365 H 0.14376 0.61091 0.85817 0.0
H1366 H 0.16493 0.66243 0.76057 0.0
H1367 H 0.16995 0.69156 0.77303 0.0
C1368 C 0.31159 0.47445 0.96944 0.0
C1369 C 0.30415 0.46279 0.90977 0.0
C1370 C 0.34582 0.47382 0.88414 0.0
C1371 C 0.35349 0.48697 0.9419 0.0
N1372 N 0.34467 0.50267 0.03605 0.0
N1373 N 0.31377 0.45397 0.8063 0.0
C1374 C 0.33667 0.48823 0.98343 0.0
C1375 C 0.32112 0.46302 0.86609 0.0
N1376 N 0.29462 0.4714 0.01383 0.0
N1377 N 0.36217 0.47182 0.84631 0.0
H1378 H 0.2958 0.44603 0.79132 0.0
H1379 H 0.3256 0.45596 0.76979 0.0
H1380 H 0.38075 0.48096 0.85509 0.0
H1381 H 0.35726 0.46005 0.8079 0.0
H1382 H 0.29881 0.47723 0.06059 0.0
H1383 H 0.27602 0.46115 0.00572 0.0
H1384 H 0.33363 0.50667 0.06384 0.0
H1385 H 0.36278 0.51202 0.04993 0.0
C1386 C 0.11206 0.45844 0.46518 0.0
C1387 C 0.11251 0.47493 0.41956 0.0
C1388 C 0.13443 0.4635 0.34501 0.0
C1389 C 0.13677 0.4495 0.39364 0.0
N1390 N 0.12938 0.43431 0.50103 0.0
N1391 N 0.12314 0.49334 0.31605 0.0
C1392 C 0.12567 0.44678 0.45374 0.0
C1393 C 0.12329 0.4774 0.3592 0.0
N1394 N 0.09882 0.45416 0.51954 0.0
N1395 N 0.14235 0.46292 0.28509 0.0
H1396 H 0.11347 0.50236 0.32309 0.0
H1397 H 0.13319 0.49835 0.27433 0.0
H1398 H 0.15044 0.45271 0.27329 0.0
H1399 H 0.1393 0.47095 0.24591 0.0
H1400 H 0.09563 0.44047 0.55161 0.0
H1401 H 0.08937 0.46312 0.53052 0.0
H1402 H 0.12439 0.43423 0.54803 0.0
H1403 H 0.13893 0.42517 0.49448 0.0
C1404 C 0.51 0.65711 0.48183 0.0
C1405 C 0.51386 0.64148 0.44211 0.0
C1406 C 0.54128 0.6758 0.37547 0.0
C1407 C 0.53513 0.69081 0.41106 0.0
N1408 N 0.51052 0.69505 0.49193 0.0
N1409 N 0.52995 0.63487 0.34512 0.0
C1410 C 0.5185 0.68126 0.46227 0.0
C1411 C 0.52883 0.6505 0.38755 0.0
N1412 N 0.4991 0.64914 0.53959 0.0
N1413 N 0.55871 0.6856 0.32951 0.0
H1414 H 0.52082 0.61615 0.35124 0.0
H1415 H 0.53823 0.64022 0.30092 0.0
H1416 H 0.56699 0.70373 0.31585 0.0
H1417 H 0.56602 0.67607 0.30754 0.0
H1418 H 0.4981 0.6605 0.57342 0.0
H1419 H 0.49335 0.63173 0.55661 0.0
H1420 H 0.4963 0.68799 0.52438 0.0
H1421 H 0.5167 0.71314 0.48096 0.0
C1422 C 0.33491 0.8452 0.46155 0.0
C1423 C 0.35217 0.86502 0.42523 0.0
C1424 C 0.32062 0.86012 0.35073 0.0
C1425 C 0.30372 0.83922 0.38465 0.0
N1426 N 0.29583 0.80875 0.46445 0.0
N1427 N 0.36288 0.88834 0.32842 0.0
C1428 C 0.3112 0.83069 0.43736 0.0
C1429 C 0.34545 0.87178 0.36798 0.0
N1430 N 0.34077 0.841 0.52078 0.0
N1431 N 0.31301 0.86868 0.30165 0.0
H1432 H 0.38136 0.89681 0.33844 0.0
H1433 H 0.35929 0.89207 0.28295 0.0
H1434 H 0.29537 0.85954 0.28399 0.0
H1435 H 0.32389 0.88549 0.28052 0.0
H1436 H 0.3281 0.82852 0.5523 0.0
H1437 H 0.3578 0.85167 0.5412 0.0
H1438 H 0.30144 0.80056 0.49788 0.0
H1439 H 0.27791 0.79768 0.45051 0.0
C1440 C 0.3128 0.15545 0.23098 0.0
C1441 C 0.2963 0.14301 0.18094 0.0
C1442 C 0.32934 0.14631 0.11442 0.0
C1443 C 0.34562 0.15782 0.16537 0.0
N1444 N 0.35297 0.17013 0.2749 0.0
N1445 N 0.28772 0.12366 0.07827 0.0
C1446 C 0.3374 0.16157 0.22445 0.0
C1447 C 0.30421 0.1374 0.12376 0.0
N1448 N 0.30492 0.16144 0.28464 0.0
N1449 N 0.33811 0.14507 0.05617 0.0
H1450 H 0.26932 0.11798 0.08128 0.0
H1451 H 0.29193 0.11654 0.0391 0.0
H1452 H 0.35638 0.15121 0.04757 0.0
H1453 H 0.32769 0.13964 0.01507 0.0
H1454 H 0.31645 0.17307 0.31941 0.0
H1455 H 0.28673 0.1557 0.29334 0.0
H1456 H 0.34768 0.17102 0.321 0.0
H1457 H 0.3711 0.17466 0.27189 0.0
C1458 C 0.82119 0.16735 0.1109 0.0
C1459 C 0.82723 0.18382 0.16222 0.0
C1460 C 0.84505 0.16323 0.2199 0.0
C1461 C 0.84033 0.14773 0.16715 0.0
N1462 N 0.82793 0.13739 0.05834 0.0
N1463 N 0.84888 0.20054 0.26015 0.0
C1464 C 0.82945 0.15038 0.11147 0.0
C1465 C 0.84055 0.18283 0.21488 0.0
N1466 N 0.80756 0.16794 0.06159 0.0
N1467 N 0.85253 0.15837 0.27597 0.0
H1468 H 0.84542 0.21487 0.25938 0.0
H1469 H 0.86087 0.20214 0.29586 0.0
H1470 H 0.85516 0.14363 0.28199 0.0
H1471 H 0.85385 0.16745 0.31812 0.0
H1472 H 0.79992 0.1545 0.02708 0.0
H1473 H 0.80282 0.1813 0.05661 0.0
H1474 H 0.82263 0.14037 0.01416 0.0
H1475 H 0.83389 0.12486 0.05694 0.0
C1476 C 0.82988 0.65133 0.11947 0.0
C1477 C 0.81094 0.64247 0.16497 0.0
C1478 C 0.8301 0.68201 0.21768 0.0
C1479 C 0.84901 0.69085 0.17211 0.0
N1480 N 0.8696 0.68333 0.08684 0.0
N1481 N 0.79067 0.64974 0.2515 0.0
C1482 C 0.84973 0.67532 0.12515 0.0
C1483 C 0.81033 0.65793 0.21237 0.0
N1484 N 0.82794 0.63729 0.06828 0.0
N1485 N 0.832 0.69617 0.26854 0.0
H1486 H 0.77616 0.63206 0.25038 0.0
H1487 H 0.78771 0.66077 0.28218 0.0
H1488 H 0.84686 0.71342 0.27549 0.0
H1489 H 0.82024 0.69025 0.30705 0.0
H1490 H 0.83971 0.64334 0.02979 0.0
H1491 H 0.81304 0.62009 0.06099 0.0
H1492 H 0.87253 0.67218 0.05657 0.0
H1493 H 0.88431 0.70088 0.08873 0.0
C1494 C 0.17711 0.33968 0.39399 0.0
C1495 C 0.16478 0.34895 0.3578 0.0
C1496 C 0.13977 0.30927 0.30846 0.0
C1497 C 0.15347 0.30051 0.34056 0.0
N1498 N 0.18702 0.30801 0.40887 0.0
N1499 N 0.13816 0.3442 0.27062 0.0
C1500 C 0.17282 0.31596 0.38142 0.0
C1501 C 0.14707 0.33419 0.31249 0.0
N1502 N 0.19194 0.35301 0.44276 0.0
N1503 N 0.11968 0.29389 0.27408 0.0
H1504 H 0.14313 0.36244 0.27082 0.0
H1505 H 0.12763 0.33498 0.23145 0.0
H1506 H 0.11421 0.27579 0.26588 0.0
H1507 H 0.1073 0.29868 0.25716 0.0
H1508 H 0.19899 0.34611 0.47594 0.0
H1509 H 0.19564 0.37045 0.45379 0.0
H1510 H 0.20325 0.31944 0.43191 0.0
H1511 H 0.18351 0.29025 0.40574 0.0
C1512 C 0.65203 0.83252 0.39851 0.0
C1513 C 0.63796 0.81541 0.35115 0.0
C1514 C 0.67157 0.83475 0.27537 0.0
C1515 C 0.68578 0.85161 0.32306 0.0
N1516 N 0.69124 0.86548 0.43146 0.0
N1517 N 0.63239 0.80161 0.24269 0.0
C1518 C 0.67638 0.85044 0.38485 0.0
C1519 C 0.64727 0.81673 0.28916 0.0
N1520 N 0.64196 0.83167 0.45645 0.0
N1521 N 0.68153 0.83588 0.21707 0.0
H1522 H 0.61453 0.7881 0.25079 0.0
H1523 H 0.63694 0.80315 0.19493 0.0
H1524 H 0.69849 0.85001 0.20346 0.0
H1525 H 0.67357 0.82256 0.18246 0.0
H1526 H 0.64985 0.84523 0.49049 0.0
H1527 H 0.62493 0.81768 0.4701 0.0
H1528 H 0.68664 0.86382 0.47921 0.0
H1529 H 0.7091 0.87899 0.42352 0.0
C1530 C 0.16049 0.8158 0.3892 0.0
C1531 C 0.17886 0.82486 0.34205 0.0
C1532 C 0.15978 0.84515 0.28844 0.0
C1533 C 0.14157 0.83627 0.33593 0.0
N1534 N 0.12154 0.80953 0.42416 0.0
N1535 N 0.19802 0.85026 0.25088 0.0
C1536 C 0.14099 0.82048 0.38413 0.0
C1537 C 0.17914 0.8402 0.29287 0.0
N1538 N 0.16261 0.8041 0.44113 0.0
N1539 N 0.1575 0.8568 0.23669 0.0
H1540 H 0.21186 0.8461 0.24997 0.0
H1541 H 0.20094 0.86388 0.21891 0.0
H1542 H 0.14287 0.8596 0.23046 0.0
H1543 H 0.16864 0.86176 0.197 0.0
H1544 H 0.15144 0.79944 0.48075 0.0
H1545 H 0.177 0.80094 0.44771 0.0
H1546 H 0.1186 0.7957 0.45544 0.0
H1547 H 0.1071 0.81279 0.42292 0.0
C1548 C 0.67372 0.8238 0.88411 0.0
C1549 C 0.68533 0.83636 0.82761 0.0
C1550 C 0.6485 0.8364 0.79421 0.0
C1551 C 0.6369 0.82392 0.85077 0.0
N1552 N 0.63679 0.80283 0.94593 0.0
N1553 N 0.68565 0.85831 0.73397 0.0
C1554 C 0.64902 0.81674 0.89467 0.0
C1555 C 0.67328 0.84378 0.7842 0.0
N1556 N 0.68689 0.8202 0.92974 0.0
N1557 N 0.63531 0.83959 0.74788 0.0
H1558 H 0.70346 0.86331 0.72303 0.0
H1559 H 0.67895 0.86695 0.70546 0.0
H1560 H 0.61693 0.83387 0.75237 0.0
H1561 H 0.6418 0.84586 0.7025 0.0
H1562 H 0.68049 0.81368 0.975 0.0
H1563 H 0.70518 0.82567 0.92467 0.0
H1564 H 0.64339 0.79432 0.97521 0.0
H1565 H 0.61919 0.79843 0.95758 0.0
C1566 C 0.15432 0.81312 0.8961 0.0
C1567 C 0.16423 0.80865 0.84099 0.0
C1568 C 0.1641 0.84236 0.78582 0.0
C1569 C 0.15317 0.84615 0.83997 0.0
N1570 N 0.1351 0.83386 0.94369 0.0
N1571 N 0.17522 0.81595 0.73059 0.0
C1572 C 0.14735 0.83106 0.89416 0.0
C1573 C 0.16832 0.82251 0.78509 0.0
N1574 N 0.15264 0.80099 0.9511 0.0
N1575 N 0.17033 0.8577 0.73503 0.0
H1576 H 0.17831 0.80137 0.72822 0.0
H1577 H 0.17608 0.82359 0.68642 0.0
H1578 H 0.16589 0.87132 0.73144 0.0
H1579 H 0.18102 0.85784 0.69757 0.0
H1580 H 0.14843 0.80545 0.9949 0.0
H1581 H 0.15716 0.78742 0.95425 0.0
H1582 H 0.12772 0.82164 0.98107 0.0
H1583 H 0.13096 0.84773 0.9459 0.0
C1584 C 0.16802 0.3397 0.90315 0.0
C1585 C 0.18275 0.35312 0.85139 0.0
C1586 C 0.16113 0.3178 0.78205 0.0
C1587 C 0.14493 0.30525 0.83257 0.0
N1588 N 0.13024 0.30542 0.93799 0.0
N1589 N 0.19249 0.35629 0.74005 0.0
C1590 C 0.14751 0.31657 0.89216 0.0
C1591 C 0.17925 0.34249 0.7904 0.0
N1592 N 0.17435 0.34865 0.96328 0.0
N1593 N 0.15903 0.30613 0.72603 0.0
H1594 H 0.20633 0.37424 0.7446 0.0
H1595 H 0.18885 0.35055 0.69312 0.0
H1596 H 0.14476 0.28875 0.71648 0.0
H1597 H 0.17193 0.31315 0.69008 0.0
H1598 H 0.16568 0.33876 0.00378 0.0
H1599 H 0.19 0.36507 0.97299 0.0
H1600 H 0.12993 0.31393 0.97981 0.0
H1601 H 0.11505 0.28829 0.93227 0.0
C1602 C 0.81933 0.67315 0.62286 0.0
C1603 C 0.83637 0.68848 0.66883 0.0
C1604 C 0.84119 0.65482 0.70765 0.0
C1605 C 0.82398 0.63946 0.66205 0.0
N1606 N 0.80095 0.63472 0.56725 0.0
N1607 N 0.85995 0.69339 0.76272 0.0
C1608 C 0.81406 0.64878 0.61744 0.0
C1609 C 0.84656 0.67925 0.71295 0.0
N1610 N 0.80782 0.68174 0.58523 0.0
N1611 N 0.85267 0.64617 0.74517 0.0
H1612 H 0.86336 0.711 0.76973 0.0
H1613 H 0.86585 0.6872 0.80049 0.0
H1614 H 0.84877 0.62825 0.74418 0.0
H1615 H 0.86738 0.65702 0.77413 0.0
H1616 H 0.79315 0.67084 0.55622 0.0
H1617 H 0.8117 0.69965 0.5861 0.0
H1618 H 0.79522 0.64098 0.52924 0.0
H1619 H 0.79773 0.61718 0.56011 0.0
C1620 C 0.30361 0.15269 0.60376 0.0
C1621 C 0.29216 0.14924 0.66342 0.0
C1622 C 0.3281 0.18473 0.70596 0.0
C1623 C 0.34066 0.18603 0.64931 0.0
N1624 N 0.34114 0.17138 0.54417 0.0
N1625 N 0.29386 0.15978 0.77379 0.0
C1626 C 0.3286 0.17008 0.59801 0.0
C1627 C 0.30437 0.16485 0.71509 0.0
N1628 N 0.29038 0.13976 0.55235 0.0
N1629 N 0.33889 0.20232 0.75115 0.0
H1630 H 0.27669 0.14504 0.78249 0.0
H1631 H 0.30287 0.16886 0.81487 0.0
H1632 H 0.35651 0.21685 0.74696 0.0
H1633 H 0.32975 0.20364 0.79047 0.0
H1634 H 0.29699 0.1431 0.50615 0.0
H1635 H 0.27196 0.12695 0.55501 0.0
H1636 H 0.33429 0.15838 0.50844 0.0
H1637 H 0.35897 0.185 0.53631 0.0
C1638 C 0.85124 0.1813 0.67577 0.0
C1639 C 0.84629 0.15755 0.66077 0.0
C1640 C 0.80287 0.14227 0.67511 0.0
C1641 C 0.8078 0.16602 0.68988 0.0
N1642 N 0.83723 0.20518 0.73084 0.0
N1643 N 0.81669 0.1187 0.61809 0.0
C1644 C 0.83217 0.18474 0.69788 0.0
C1645 C 0.82189 0.1389 0.65244 0.0
N1646 N 0.87345 0.20091 0.66347 0.0
N1647 N 0.78067 0.12264 0.68737 0.0
H1648 H 0.82993 0.1171 0.59307 0.0
H1649 H 0.79909 0.1055 0.60628 0.0
H1650 H 0.76743 0.12378 0.71348 0.0
H1651 H 0.77693 0.10485 0.68141 0.0
H1652 H 0.87726 0.21872 0.66939 0.0
H1653 H 0.88668 0.19973 0.63735 0.0
H1654 H 0.85476 0.21849 0.74277 0.0
H1655 H 0.82382 0.20703 0.75423 0.0
C1656 C 0.00771 0.49917 0.55114 0.0
C1657 C 0.01947 0.51013 0.49338 0.0
C1658 C 0.98406 0.51254 0.45905 0.0
C1659 C 0.97113 0.49843 0.51235 0.0
N1660 N 0.96996 0.47794 0.60949 0.0
N1661 N 0.01815 0.52449 0.3885 0.0
C1662 C 0.98278 0.49164 0.55858 0.0
C1663 C 0.00759 0.51635 0.4465 0.0
N1664 N 0.02064 0.49685 0.59967 0.0
N1665 N 0.9739 0.52221 0.42034 0.0
H1666 H 0.03506 0.5268 0.37682 0.0
H1667 H 0.00929 0.52681 0.35001 0.0
H1668 H 0.95653 0.5195 0.42724 0.0
H1669 H 0.98343 0.53466 0.3846 0.0
H1670 H 0.01377 0.49125 0.64515 0.0
H1671 H 0.03906 0.50258 0.59621 0.0
H1672 H 0.97639 0.46972 0.64041 0.0
H1673 H 0.95231 0.47392 0.61943 0.0
C1674 C 0.49005 0.49881 0.43537 0.0
C1675 C 0.49742 0.51734 0.48159 0.0
C1676 C 0.51555 0.49852 0.54572 0.0
C1677 C 0.50925 0.4807 0.49804 0.0
N1678 N 0.49503 0.46633 0.39221 0.0
N1679 N 0.52071 0.53752 0.57515 0.0
C1680 C 0.49769 0.48146 0.44137 0.0
C1681 C 0.51141 0.51812 0.53485 0.0
N1682 N 0.47575 0.4978 0.38577 0.0
N1683 N 0.52428 0.49601 0.60276 0.0
H1684 H 0.51726 0.5518 0.57082 0.0
H1685 H 0.53331 0.54041 0.61038 0.0
H1686 H 0.52737 0.48177 0.61287 0.0
H1687 H 0.52652 0.5068 0.64208 0.0
H1688 H 0.46726 0.48308 0.35513 0.0
H1689 H 0.47127 0.51118 0.37697 0.0
H1690 H 0.48911 0.46769 0.34724 0.0
H1691 H 0.5008 0.45365 0.39445 0.0
C1692 C 0.50524 0.00901 0.55201 0.0
C1693 C 0.51073 0.02336 0.49644 0.0
C1694 C 0.4796 0.98873 0.43685 0.0
C1695 C 0.47438 0.97428 0.49224 0.0
N1696 N 0.48357 0.96915 0.6001 0.0
N1697 N 0.50176 0.02861 0.38854 0.0
C1698 C 0.48758 0.984 0.54919 0.0
C1699 C 0.49747 0.01372 0.43956 0.0
N1700 N 0.51594 0.01968 0.60832 0.0
N1701 N 0.46857 0.97814 0.38078 0.0
H1702 H 0.51549 0.0467 0.38768 0.0
H1703 H 0.49101 0.02363 0.3481 0.0
H1704 H 0.45548 0.95988 0.37675 0.0
H1705 H 0.4734 0.9868 0.33703 0.0
H1706 H 0.5108 0.01105 0.65208 0.0
H1707 H 0.52886 0.03799 0.61248 0.0
H1708 H 0.4945 0.97423 0.64023 0.0
H1709 H 0.47001 0.951 0.60109 0.0
C1710 C 0.51148 0.01418 0.0417 0.0
C1711 C 0.50148 0.02398 0.99878 0.0
C1712 C 0.47893 0.98486 0.94467 0.0
C1713 C 0.48894 0.97505 0.98751 0.0
N1714 N 0.51715 0.98058 0.07106 0.0
N1715 N 0.47273 0.01822 0.91655 0.0
C1716 C 0.50597 0.98979 0.03431 0.0
C1717 C 0.48429 0.00918 0.95239 0.0
N1718 N 0.52481 0.02774 0.09229 0.0
N1719 N 0.46565 0.97135 0.89393 0.0
H1720 H 0.47661 0.03611 0.9191 0.0
H1721 H 0.45799 0.00766 0.88739 0.0
H1722 H 0.46219 0.9538 0.88526 0.0
H1723 H 0.45993 0.97808 0.85695 0.0
H1724 H 0.53062 0.02111 0.12929 0.0
H1725 H 0.52828 0.04529 0.10081 0.0
H1726 H 0.53184 0.99104 0.10046 0.0
H1727 H 0.51288 0.96254 0.06953 0.0
C1728 C 0.98661 0.47573 0.04368 0.0
C1729 C 0.96962 0.47386 0.99728 0.0
C1730 C 0.00233 0.50515 0.93294 0.0
C1731 C 0.01899 0.50849 0.98173 0.0
N1732 N 0.02732 0.49891 0.08606 0.0
N1733 N 0.96049 0.48824 0.90089 0.0
C1734 C 0.01129 0.49414 0.03757 0.0
C1735 C 0.97723 0.48906 0.94293 0.0
N1736 N 0.97912 0.46007 0.09396 0.0
N1737 N 0.01065 0.51642 0.87571 0.0
H1738 H 0.94204 0.47574 0.9038 0.0
H1739 H 0.96464 0.50096 0.86506 0.0
H1740 H 0.02898 0.52798 0.86606 0.0
H1741 H -0.00024 0.51265 0.83576 0.0
H1742 H 0.99092 0.45831 0.12468 0.0
H1743 H 0.96098 0.44781 0.10366 0.0
H1744 H 0.02232 0.49134 0.13108 0.0
H1745 H 0.04567 0.51176 0.08303 0.0
C1746 C 0.51035 0.50234 0.05348 0.0
C1747 C 0.51357 0.48921 0.00381 0.0
C1748 C 0.48212 0.49085 0.94083 0.0
C1749 C 0.47791 0.50268 0.99207 0.0
N1750 N 0.4848 0.51626 0.1007 0.0
N1751 N 0.50125 0.46851 0.90321 0.0
C1752 C 0.49123 0.50761 0.04932 0.0
C1753 C 0.49897 0.48262 0.94847 0.0
N1754 N 0.52557 0.50976 0.10465 0.0
N1755 N 0.47089 0.48856 0.8839 0.0
H1756 H 0.51446 0.46344 0.90491 0.0
H1757 H 0.4892 0.46061 0.8657 0.0
H1758 H 0.45834 0.49425 0.87649 0.0
H1759 H 0.47526 0.48272 0.84249 0.0
H1760 H 0.52615 0.52192 0.13846 0.0
H1761 H 0.53876 0.50489 0.1117 0.0
H1762 H 0.49197 0.51777 0.14587 0.0
H1763 H 0.47069 0.52008 0.09977 0.0
loop_
_geom_bond_atom_site_label_1
_geom_bond_atom_site_label_2
_geom_bond_distance
_geom_bond_site_symmetry_2
_ccdc_geom_bond_type
In0 O1 2.294 . S
In0 O2 2.326 . S
In0 O6 2.266 . S
In0 O7 2.326 . S
In0 O8 2.266 . S
In0 O9 2.326 . S
In0 O11 2.294 . S
In0 O12 2.326 . S
O1 In0 2.294 . S
O1 C10 1.240 . S
O2 In0 2.326 . S
O2 C10 1.252 . S
C3 O6 1.252 . S
C3 O7 1.260 . S
C4 O11 1.240 . S
C4 O12 1.252 . S
C5 O8 1.252 . S
C5 O9 1.260 . S
O6 In0 2.266 . S
O6 C3 1.252 . S
O7 In0 2.326 . S
O7 C3 1.260 . S
O8 In0 2.266 . S
O8 C5 1.252 . S
O9 In0 2.326 . S
O9 C5 1.260 . S
C10 O1 1.240 . S
C10 O2 1.252 . S
O11 In0 2.294 . S
O11 C4 1.240 . S
O12 In0 2.326 . S
O12 C4 1.252 . S
In13 O14 2.294 . S
In13 O15 2.326 . S
In13 O19 2.266 . S
In13 O20 2.326 . S
In13 O21 2.266 . S
In13 O22 2.326 . S
In13 O24 2.294 . S
In13 O25 2.326 . S
O14 In13 2.294 . S
O14 C23 1.240 . S
O15 In13 2.326 . S
O15 C23 1.252 . S
C16 O19 1.252 . S
C16 O20 1.260 . S
C17 O24 1.240 . S
C17 O25 1.252 . S
C18 O21 1.252 . S
C18 O22 1.260 . S
O19 In13 2.266 . S
O19 C16 1.252 . S
O20 In13 2.326 . S
O20 C16 1.260 . S
O21 In13 2.266 . S
O21 C18 1.252 . S
O22 In13 2.326 . S
O22 C18 1.260 . S
C23 O14 1.240 . S
C23 O15 1.252 . S
O24 In13 2.294 . S
O24 C17 1.240 . S
O25 In13 2.326 . S
O25 C17 1.252 . S
In26 O27 2.294 . S
In26 O28 2.326 . S
In26 O32 2.266 . S
In26 O33 2.326 . S
In26 O34 2.266 . S
In26 O35 2.326 . S
In26 O37 2.294 . S
In26 O38 2.326 . S
O27 In26 2.294 . S
O27 C36 1.240 . S
O28 In26 2.326 . S
O28 C36 1.252 . S
C29 O32 1.252 . S
C29 O33 1.260 . S
C30 O37 1.240 . S
C30 O38 1.252 . S
C31 O34 1.252 . S
C31 O35 1.260 . S
O32 In26 2.266 . S
O32 C29 1.252 . S
O33 In26 2.326 . S
O33 C29 1.260 . S
O34 In26 2.266 . S
O34 C31 1.252 . S
O35 In26 2.326 . S
O35 C31 1.260 . S
C36 O27 1.240 . S
C36 O28 1.252 . S
O37 In26 2.294 . S
O37 C30 1.240 . S
O38 In26 2.326 . S
O38 C30 1.252 . S
In39 O40 2.294 . S
In39 O41 2.326 . S
In39 O45 2.266 . S
In39 O46 2.326 . S
In39 O47 2.266 . S
In39 O48 2.326 . S
In39 O50 2.294 . S
In39 O51 2.326 . S
O40 In39 2.294 . S
O40 C49 1.240 . S
O41 In39 2.326 . S
O41 C49 1.252 . S
C42 O45 1.252 . S
C42 O46 1.260 . S
C43 O50 1.240 . S
C43 O51 1.252 . S
C44 O47 1.252 . S
C44 O48 1.260 . S
O45 In39 2.266 . S
O45 C42 1.252 . S
O46 In39 2.326 . S
O46 C42 1.260 . S
O47 In39 2.266 . S
O47 C44 1.252 . S
O48 In39 2.326 . S
O48 C44 1.260 . S
C49 O40 1.240 . S
C49 O41 1.252 . S
O50 In39 2.294 . S
O50 C43 1.240 . S
O51 In39 2.326 . S
O51 C43 1.252 . S
In52 O53 2.294 . S
In52 O54 2.326 . S
In52 O58 2.266 . S
In52 O59 2.326 . S
In52 O60 2.266 . S
In52 O61 2.326 . S
In52 O63 2.294 . S
In52 O64 2.326 . S
O53 In52 2.294 . S
O53 C62 1.240 . S
O54 In52 2.326 . S
O54 C62 1.252 . S
C55 O58 1.252 . S
C55 O59 1.260 . S
C56 O63 1.240 . S
C56 O64 1.252 . S
C57 O60 1.252 . S
C57 O61 1.260 . S
O58 In52 2.266 . S
O58 C55 1.252 . S
O59 In52 2.326 . S
O59 C55 1.260 . S
O60 In52 2.266 . S
O60 C57 1.252 . S
O61 In52 2.326 . S
O61 C57 1.260 . S
C62 O53 1.240 . S
C62 O54 1.252 . S
O63 In52 2.294 . S
O63 C56 1.240 . S
O64 In52 2.326 . S
O64 C56 1.252 . S
In65 O66 2.294 . S
In65 O67 2.326 . S
In65 O71 2.266 . S
In65 O72 2.326 . S
In65 O73 2.266 . S
In65 O74 2.326 . S
In65 O76 2.294 . S
In65 O77 2.326 . S
O66 In65 2.294 . S
O66 C75 1.240 . S
O67 In65 2.326 . S
O67 C75 1.252 . S
C68 O71 1.252 . S
C68 O72 1.260 . S
C69 O76 1.240 . S
C69 O77 1.252 . S
C70 O73 1.252 . S
C70 O74 1.260 . S
O71 In65 2.266 . S
O71 C68 1.252 . S
O72 In65 2.326 . S
O72 C68 1.260 . S
O73 In65 2.266 . S
O73 C70 1.252 . S
O74 In65 2.326 . S
O74 C70 1.260 . S
C75 O66 1.240 . S
C75 O67 1.252 . S
O76 In65 2.294 . S
O76 C69 1.240 . S
O77 In65 2.326 . S
O77 C69 1.252 . S
In78 O79 2.294 . S
In78 O80 2.326 . S
In78 O84 2.266 . S
In78 O85 2.326 . S
In78 O86 2.266 . S
In78 O87 2.326 . S
In78 O89 2.294 . S
In78 O90 2.326 . S
O79 In78 2.294 . S
O79 C88 1.240 . S
O80 In78 2.326 . S
O80 C88 1.252 . S
C81 O84 1.252 . S
C81 O85 1.260 . S
C82 O89 1.240 . S
C82 O90 1.252 . S
C83 O86 1.252 . S
C83 O87 1.260 . S
O84 In78 2.266 . S
O84 C81 1.252 . S
O85 In78 2.326 . S
O85 C81 1.260 . S
O86 In78 2.266 . S
O86 C83 1.252 . S
O87 In78 2.326 . S
O87 C83 1.260 . S
C88 O79 1.240 . S
C88 O80 1.252 . S
O89 In78 2.294 . S
O89 C82 1.240 . S
O90 In78 2.326 . S
O90 C82 1.252 . S
In91 O92 2.294 . S
In91 O93 2.326 . S
In91 O97 2.266 . S
In91 O98 2.326 . S
In91 O99 2.266 . S
In91 O100 2.326 . S
In91 O102 2.294 . S
In91 O103 2.326 . S
O92 In91 2.294 . S
O92 C101 1.240 . S
O93 In91 2.326 . S
O93 C101 1.252 . S
C94 O97 1.252 . S
C94 O98 1.260 . S
C95 O102 1.240 . S
C95 O103 1.252 . S
C96 O99 1.252 . S
C96 O100 1.260 . S
O97 In91 2.266 . S
O97 C94 1.252 . S
O98 In91 2.326 . S
O98 C94 1.260 . S
O99 In91 2.266 . S
O99 C96 1.252 . S
O100 In91 2.326 . S
O100 C96 1.260 . S
C101 O92 1.240 . S
C101 O93 1.252 . S
O102 In91 2.294 . S
O102 C95 1.240 . S
O103 In91 2.326 . S
O103 C95 1.252 . S
In104 O105 2.294 . S
In104 O106 2.326 . S
In104 O110 2.266 . S
In104 O111 2.326 . S
In104 O112 2.266 . S
In104 O113 2.326 . S
In104 O115 2.294 . S
In104 O116 2.326 . S
O105 In104 2.294 . S
O105 C114 1.240 . S
O106 In104 2.326 . S
O106 C114 1.252 . S
C107 O110 1.252 . S
C107 O111 1.260 . S
C108 O115 1.240 . S
C108 O116 1.252 . S
C109 O112 1.252 . S
C109 O113 1.260 . S
O110 In104 2.266 . S
O110 C107 1.252 . S
O111 In104 2.326 . S
O111 C107 1.260 . S
O112 In104 2.266 . S
O112 C109 1.252 . S
O113 In104 2.326 . S
O113 C109 1.260 . S
C114 O105 1.240 . S
C114 O106 1.252 . S
O115 In104 2.294 . S
O115 C108 1.240 . S
O116 In104 2.326 . S
O116 C108 1.252 . S
In117 O118 2.294 . S
In117 O119 2.326 . S
In117 O123 2.266 . S
In117 O124 2.326 . S
In117 O125 2.266 . S
In117 O126 2.326 . S
In117 O128 2.294 . S
In117 O129 2.326 . S
O118 In117 2.294 . S
O118 C127 1.240 . S
O119 In117 2.326 . S
O119 C127 1.252 . S
C120 O123 1.252 . S
C120 O124 1.260 . S
C121 O128 1.240 . S
C121 O129 1.252 . S
C122 O125 1.252 . S
C122 O126 1.260 . S
O123 In117 2.266 . S
O123 C120 1.252 . S
O124 In117 2.326 . S
O124 C120 1.260 . S
O125 In117 2.266 . S
O125 C122 1.252 . S
O126 In117 2.326 . S
O126 C122 1.260 . S
C127 O118 1.240 . S
C127 O119 1.252 . S
O128 In117 2.294 . S
O128 C121 1.240 . S
O129 In117 2.326 . S
O129 C121 1.252 . S
In130 O131 2.294 . S
In130 O132 2.326 . S
In130 O136 2.266 . S
In130 O137 2.326 . S
In130 O138 2.266 . S
In130 O139 2.326 . S
In130 O141 2.294 . S
In130 O142 2.326 . S
O131 In130 2.294 . S
O131 C140 1.240 . S
O132 In130 2.326 . S
O132 C140 1.252 . S
C133 O136 1.252 . S
C133 O137 1.260 . S
C134 O141 1.240 . S
C134 O142 1.252 . S
C135 O138 1.252 . S
C135 O139 1.260 . S
O136 In130 2.266 . S
O136 C133 1.252 . S
O137 In130 2.326 . S
O137 C133 1.260 . S
O138 In130 2.266 . S
O138 C135 1.252 . S
O139 In130 2.326 . S
O139 C135 1.260 . S
C140 O131 1.240 . S
C140 O132 1.252 . S
O141 In130 2.294 . S
O141 C134 1.240 . S
O142 In130 2.326 . S
O142 C134 1.252 . S
In143 O144 2.294 . S
In143 O145 2.326 . S
In143 O149 2.266 . S
In143 O150 2.326 . S
In143 O151 2.266 . S
In143 O152 2.326 . S
In143 O154 2.294 . S
In143 O155 2.326 . S
O144 In143 2.294 . S
O144 C153 1.240 . S
O145 In143 2.326 . S
O145 C153 1.252 . S
C146 O149 1.252 . S
C146 O150 1.260 . S
C147 O154 1.240 . S
C147 O155 1.252 . S
C148 O151 1.252 . S
C148 O152 1.260 . S
O149 In143 2.266 . S
O149 C146 1.252 . S
O150 In143 2.326 . S
O150 C146 1.260 . S
O151 In143 2.266 . S
O151 C148 1.252 . S
O152 In143 2.326 . S
O152 C148 1.260 . S
C153 O144 1.240 . S
C153 O145 1.252 . S
O154 In143 2.294 . S
O154 C147 1.240 . S
O155 In143 2.326 . S
O155 C147 1.252 . S
In156 O157 2.294 . S
In156 O158 2.326 . S
In156 O162 2.266 . S
In156 O163 2.326 . S
In156 O164 2.266 . S
In156 O165 2.326 . S
In156 O167 2.294 . S
In156 O168 2.326 . S
O157 In156 2.294 . S
O157 C166 1.240 . S
O158 In156 2.326 . S
O158 C166 1.252 . S
C159 O162 1.252 . S
C159 O163 1.260 . S
C160 O167 1.240 . S
C160 O168 1.252 . S
C161 O164 1.252 . S
C161 O165 1.260 . S
O162 In156 2.266 . S
O162 C159 1.252 . S
O163 In156 2.326 . S
O163 C159 1.260 . S
O164 In156 2.266 . S
O164 C161 1.252 . S
O165 In156 2.326 . S
O165 C161 1.260 . S
C166 O157 1.240 . S
C166 O158 1.252 . S
O167 In156 2.294 . S
O167 C160 1.240 . S
O168 In156 2.326 . S
O168 C160 1.252 . S
In169 O170 2.294 . S
In169 O171 2.326 . S
In169 O175 2.266 . S
In169 O176 2.326 . S
In169 O177 2.266 . S
In169 O178 2.326 . S
In169 O180 2.294 . S
In169 O181 2.326 . S
O170 In169 2.294 . S
O170 C179 1.240 . S
O171 In169 2.326 . S
O171 C179 1.252 . S
C172 O175 1.252 . S
C172 O176 1.260 . S
C173 O180 1.240 . S
C173 O181 1.252 . S
C174 O177 1.252 . S
C174 O178 1.260 . S
O175 In169 2.266 . S
O175 C172 1.252 . S
O176 In169 2.326 . S
O176 C172 1.260 . S
O177 In169 2.266 . S
O177 C174 1.252 . S
O178 In169 2.326 . S
O178 C174 1.260 . S
C179 O170 1.240 . S
C179 O171 1.252 . S
O180 In169 2.294 . S
O180 C173 1.240 . S
O181 In169 2.326 . S
O181 C173 1.252 . S
In182 O183 2.294 . S
In182 O184 2.326 . S
In182 O188 2.266 . S
In182 O189 2.326 . S
In182 O190 2.266 . S
In182 O191 2.326 . S
In182 O193 2.294 . S
In182 O194 2.326 . S
O183 In182 2.294 . S
O183 C192 1.240 . S
O184 In182 2.326 . S
O184 C192 1.252 . S
C185 O188 1.252 . S
C185 O189 1.260 . S
C186 O193 1.240 . S
C186 O194 1.252 . S
C187 O190 1.252 . S
C187 O191 1.260 . S
O188 In182 2.266 . S
O188 C185 1.252 . S
O189 In182 2.326 . S
O189 C185 1.260 . S
O190 In182 2.266 . S
O190 C187 1.252 . S
O191 In182 2.326 . S
O191 C187 1.260 . S
C192 O183 1.240 . S
C192 O184 1.252 . S
O193 In182 2.294 . S
O193 C186 1.240 . S
O194 In182 2.326 . S
O194 C186 1.252 . S
In195 O196 2.294 . S
In195 O197 2.326 . S
In195 O201 2.266 . S
In195 O202 2.326 . S
In195 O203 2.266 . S
In195 O204 2.326 . S
In195 O206 2.294 . S
In195 O207 2.326 . S
O196 In195 2.294 . S
O196 C205 1.240 . S
O197 In195 2.326 . S
O197 C205 1.252 . S
C198 O201 1.252 . S
C198 O202 1.260 . S
C199 O206 1.240 . S
C199 O207 1.252 . S
C200 O203 1.252 . S
C200 O204 1.260 . S
O201 In195 2.266 . S
O201 C198 1.252 . S
O202 In195 2.326 . S
O202 C198 1.260 . S
O203 In195 2.266 . S
O203 C200 1.252 . S
O204 In195 2.326 . S
O204 C200 1.260 . S
C205 O196 1.240 . S
C205 O197 1.252 . S
O206 In195 2.294 . S
O206 C199 1.240 . S
O207 In195 2.326 . S
O207 C199 1.252 . S
In208 O209 2.294 . S
In208 O210 2.326 . S
In208 O214 2.266 . S
In208 O215 2.326 . S
In208 O216 2.266 . S
In208 O217 2.326 . S
In208 O219 2.294 . S
In208 O220 2.326 . S
O209 In208 2.294 . S
O209 C218 1.240 . S
O210 In208 2.326 . S
O210 C218 1.252 . S
C211 O214 1.252 . S
C211 O215 1.260 . S
C212 O219 1.240 . S
C212 O220 1.252 . S
C213 O216 1.252 . S
C213 O217 1.260 . S
O214 In208 2.266 . S
O214 C211 1.252 . S
O215 In208 2.326 . S
O215 C211 1.260 . S
O216 In208 2.266 . S
O216 C213 1.252 . S
O217 In208 2.326 . S
O217 C213 1.260 . S
C218 O209 1.240 . S
C218 O210 1.252 . S
O219 In208 2.294 . S
O219 C212 1.240 . S
O220 In208 2.326 . S
O220 C212 1.252 . S
In221 O222 2.294 . S
In221 O223 2.326 . S
In221 O227 2.266 . S
In221 O228 2.326 . S
In221 O229 2.266 . S
In221 O230 2.326 . S
In221 O232 2.294 . S
In221 O233 2.326 . S
O222 In221 2.294 . S
O222 C231 1.240 . S
O223 In221 2.326 . S
O223 C231 1.252 . S
C224 O227 1.252 . S
C224 O228 1.260 . S
C225 O232 1.240 . S
C225 O233 1.252 . S
C226 O229 1.252 . S
C226 O230 1.260 . S
O227 In221 2.266 . S
O227 C224 1.252 . S
O228 In221 2.326 . S
O228 C224 1.260 . S
O229 In221 2.266 . S
O229 C226 1.252 . S
O230 In221 2.326 . S
O230 C226 1.260 . S
C231 O222 1.240 . S
C231 O223 1.252 . S
O232 In221 2.294 . S
O232 C225 1.240 . S
O233 In221 2.326 . S
O233 C225 1.252 . S
In234 O235 2.294 . S
In234 O236 2.326 . S
In234 O240 2.266 . S
In234 O241 2.326 . S
In234 O242 2.266 . S
In234 O243 2.326 . S
In234 O245 2.294 . S
In234 O246 2.326 . S
O235 In234 2.294 . S
O235 C244 1.240 . S
O236 In234 2.326 . S
O236 C244 1.252 . S
C237 O240 1.252 . S
C237 O241 1.260 . S
C238 O245 1.240 . S
C238 O246 1.252 . S
C239 O242 1.252 . S
C239 O243 1.260 . S
O240 In234 2.266 . S
O240 C237 1.252 . S
O241 In234 2.326 . S
O241 C237 1.260 . S
O242 In234 2.266 . S
O242 C239 1.252 . S
O243 In234 2.326 . S
O243 C239 1.260 . S
C244 O235 1.240 . S
C244 O236 1.252 . S
O245 In234 2.294 . S
O245 C238 1.240 . S
O246 In234 2.326 . S
O246 C238 1.252 . S
In247 O248 2.294 . S
In247 O249 2.326 . S
In247 O253 2.266 . S
In247 O254 2.326 . S
In247 O255 2.266 . S
In247 O256 2.326 . S
In247 O258 2.294 . S
In247 O259 2.326 . S
O248 In247 2.294 . S
O248 C257 1.240 . S
O249 In247 2.326 . S
O249 C257 1.252 . S
C250 O253 1.252 . S
C250 O254 1.260 . S
C251 O258 1.240 . S
C251 O259 1.252 . S
C252 O255 1.252 . S
C252 O256 1.260 . S
O253 In247 2.266 . S
O253 C250 1.252 . S
O254 In247 2.326 . S
O254 C250 1.260 . S
O255 In247 2.266 . S
O255 C252 1.252 . S
O256 In247 2.326 . S
O256 C252 1.260 . S
C257 O248 1.240 . S
C257 O249 1.252 . S
O258 In247 2.294 . S
O258 C251 1.240 . S
O259 In247 2.326 . S
O259 C251 1.252 . S
In260 O261 2.294 . S
In260 O262 2.326 . S
In260 O266 2.266 . S
In260 O267 2.326 . S
In260 O268 2.266 . S
In260 O269 2.326 . S
In260 O271 2.294 . S
In260 O272 2.326 . S
O261 In260 2.294 . S
O261 C270 1.240 . S
O262 In260 2.326 . S
O262 C270 1.252 . S
C263 O266 1.252 . S
C263 O267 1.260 . S
C264 O271 1.240 . S
C264 O272 1.252 . S
C265 O268 1.252 . S
C265 O269 1.260 . S
O266 In260 2.266 . S
O266 C263 1.252 . S
O267 In260 2.326 . S
O267 C263 1.260 . S
O268 In260 2.266 . S
O268 C265 1.252 . S
O269 In260 2.326 . S
O269 C265 1.260 . S
C270 O261 1.240 . S
C270 O262 1.252 . S
O271 In260 2.294 . S
O271 C264 1.240 . S
O272 In260 2.326 . S
O272 C264 1.252 . S
In273 O274 2.294 . S
In273 O275 2.326 . S
In273 O279 2.266 . S
In273 O280 2.326 . S
In273 O281 2.266 1_554 S
In273 O282 2.326 1_554 S
In273 O284 2.294 . S
In273 O285 2.326 . S
O274 In273 2.294 . S
O274 C283 1.240 . S
O275 In273 2.326 . S
O275 C283 1.252 . S
C276 O279 1.252 . S
C276 O280 1.260 . S
C277 O284 1.240 . S
C277 O285 1.252 . S
C278 O281 1.252 . S
C278 O282 1.260 . S
O279 In273 2.266 . S
O279 C276 1.252 . S
O280 In273 2.326 . S
O280 C276 1.260 . S
O281 In273 2.266 1_556 S
O281 C278 1.252 . S
O282 In273 2.326 1_556 S
O282 C278 1.260 . S
C283 O274 1.240 . S
C283 O275 1.252 . S
O284 In273 2.294 . S
O284 C277 1.240 . S
O285 In273 2.326 . S
O285 C277 1.252 . S
In286 O287 2.294 . S
In286 O288 2.326 . S
In286 O292 2.266 1_554 S
In286 O293 2.326 1_554 S
In286 O294 2.266 . S
In286 O295 2.326 . S
In286 O297 2.294 . S
In286 O298 2.326 . S
O287 In286 2.294 . S
O287 C296 1.240 . S
O288 In286 2.326 . S
O288 C296 1.252 . S
C289 O292 1.252 . S
C289 O293 1.260 . S
C290 O297 1.240 . S
C290 O298 1.252 . S
C291 O294 1.252 . S
C291 O295 1.260 . S
O292 In286 2.266 1_556 S
O292 C289 1.252 . S
O293 In286 2.326 1_556 S
O293 C289 1.260 . S
O294 In286 2.266 . S
O294 C291 1.252 . S
O295 In286 2.326 . S
O295 C291 1.260 . S
C296 O287 1.240 . S
C296 O288 1.252 . S
O297 In286 2.294 . S
O297 C290 1.240 . S
O298 In286 2.326 . S
O298 C290 1.252 . S
In299 O300 2.294 . S
In299 O301 2.326 . S
In299 O305 2.266 . S
In299 O306 2.326 . S
In299 O307 2.266 1_554 S
In299 O308 2.326 1_554 S
In299 O310 2.294 . S
In299 O311 2.326 . S
O300 In299 2.294 . S
O300 C309 1.240 . S
O301 In299 2.326 . S
O301 C309 1.252 . S
C302 O305 1.252 . S
C302 O306 1.260 . S
C303 O310 1.240 . S
C303 O311 1.252 . S
C304 O307 1.252 . S
C304 O308 1.260 . S
O305 In299 2.266 . S
O305 C302 1.252 . S
O306 In299 2.326 . S
O306 C302 1.260 . S
O307 In299 2.266 1_556 S
O307 C304 1.252 . S
O308 In299 2.326 1_556 S
O308 C304 1.260 . S
C309 O300 1.240 . S
C309 O301 1.252 . S
O310 In299 2.294 . S
O310 C303 1.240 . S
O311 In299 2.326 . S
O311 C303 1.252 . S
In312 O313 2.294 . S
In312 O314 2.326 . S
In312 O318 2.266 . S
In312 O319 2.326 . S
In312 O320 2.266 . S
In312 O321 2.326 . S
In312 O323 2.294 . S
In312 O324 2.326 . S
O313 In312 2.294 . S
O313 C322 1.240 . S
O314 In312 2.326 . S
O314 C322 1.252 . S
C315 O318 1.252 . S
C315 O319 1.260 . S
C316 O323 1.240 . S
C316 O324 1.252 . S
C317 O320 1.252 . S
C317 O321 1.260 . S
O318 In312 2.266 . S
O318 C315 1.252 . S
O319 In312 2.326 . S
O319 C315 1.260 . S
O320 In312 2.266 . S
O320 C317 1.252 . S
O321 In312 2.326 . S
O321 C317 1.260 . S
C322 O313 1.240 . S
C322 O314 1.252 . S
O323 In312 2.294 . S
O323 C316 1.240 . S
O324 In312 2.326 . S
O324 C316 1.252 . S
In325 O326 2.294 . S
In325 O327 2.326 . S
In325 O331 2.266 . S
In325 O332 2.326 . S
In325 O333 2.266 . S
In325 O334 2.326 . S
In325 O336 2.294 . S
In325 O337 2.326 . S
O326 In325 2.294 . S
O326 C335 1.240 . S
O327 In325 2.326 . S
O327 C335 1.252 . S
C328 O331 1.252 . S
C328 O332 1.260 . S
C329 O336 1.240 . S
C329 O337 1.252 . S
C330 O333 1.252 . S
C330 O334 1.260 . S
O331 In325 2.266 . S
O331 C328 1.252 . S
O332 In325 2.326 . S
O332 C328 1.260 . S
O333 In325 2.266 . S
O333 C330 1.252 . S
O334 In325 2.326 . S
O334 C330 1.260 . S
C335 O326 1.240 . S
C335 O327 1.252 . S
O336 In325 2.294 . S
O336 C329 1.240 . S
O337 In325 2.326 . S
O337 C329 1.252 . S
In338 O339 2.294 . S
In338 O340 2.326 . S
In338 O344 2.266 . S
In338 O345 2.326 . S
In338 O346 2.266 . S
In338 O347 2.326 . S
In338 O349 2.294 . S
In338 O350 2.326 . S
O339 In338 2.294 . S
O339 C348 1.240 . S
O340 In338 2.326 . S
O340 C348 1.252 . S
C341 O344 1.252 . S
C341 O345 1.260 . S
C342 O349 1.240 . S
C342 O350 1.252 . S
C343 O346 1.252 . S
C343 O347 1.260 . S
O344 In338 2.266 . S
O344 C341 1.252 . S
O345 In338 2.326 . S
O345 C341 1.260 . S
O346 In338 2.266 . S
O346 C343 1.252 . S
O347 In338 2.326 . S
O347 C343 1.260 . S
C348 O339 1.240 . S
C348 O340 1.252 . S
O349 In338 2.294 . S
O349 C342 1.240 . S
O350 In338 2.326 . S
O350 C342 1.252 . S
In351 O352 2.294 . S
In351 O353 2.326 . S
In351 O357 2.266 . S
In351 O358 2.326 . S
In351 O359 2.266 1_556 S
In351 O360 2.326 1_556 S
In351 O362 2.294 . S
In351 O363 2.326 . S
O352 In351 2.294 . S
O352 C361 1.240 . S
O353 In351 2.326 . S
O353 C361 1.252 . S
C354 O357 1.252 . S
C354 O358 1.260 . S
C355 O362 1.240 . S
C355 O363 1.252 . S
C356 O359 1.252 . S
C356 O360 1.260 . S
O357 In351 2.266 . S
O357 C354 1.252 . S
O358 In351 2.326 . S
O358 C354 1.260 . S
O359 In351 2.266 1_554 S
O359 C356 1.252 . S
O360 In351 2.326 1_554 S
O360 C356 1.260 . S
C361 O352 1.240 . S
C361 O353 1.252 . S
O362 In351 2.294 . S
O362 C355 1.240 . S
O363 In351 2.326 . S
O363 C355 1.252 . S
In364 O365 2.294 . S
In364 O366 2.326 . S
In364 O370 2.266 1_556 S
In364 O371 2.326 1_556 S
In364 O372 2.266 . S
In364 O373 2.326 . S
In364 O375 2.294 . S
In364 O376 2.326 . S
O365 In364 2.294 . S
O365 C374 1.240 . S
O366 In364 2.326 . S
O366 C374 1.252 . S
C367 O370 1.252 . S
C367 O371 1.260 . S
C368 O375 1.240 . S
C368 O376 1.252 . S
C369 O372 1.252 . S
C369 O373 1.260 . S
O370 In364 2.266 1_554 S
O370 C367 1.252 . S
O371 In364 2.326 1_554 S
O371 C367 1.260 . S
O372 In364 2.266 . S
O372 C369 1.252 . S
O373 In364 2.326 . S
O373 C369 1.260 . S
C374 O365 1.240 . S
C374 O366 1.252 . S
O375 In364 2.294 . S
O375 C368 1.240 . S
O376 In364 2.326 . S
O376 C368 1.252 . S
In377 O378 2.294 . S
In377 O379 2.326 . S
In377 O383 2.266 . S
In377 O384 2.326 . S
In377 O385 2.266 1_556 S
In377 O386 2.326 1_556 S
In377 O388 2.294 . S
In377 O389 2.326 . S
O378 In377 2.294 . S
O378 C387 1.240 . S
O379 In377 2.326 . S
O379 C387 1.252 . S
C380 O383 1.252 . S
C380 O384 1.260 . S
C381 O388 1.240 . S
C381 O389 1.252 . S
C382 O385 1.252 . S
C382 O386 1.260 . S
O383 In377 2.266 . S
O383 C380 1.252 . S
O384 In377 2.326 . S
O384 C380 1.260 . S
O385 In377 2.266 1_554 S
O385 C382 1.252 . S
O386 In377 2.326 1_554 S
O386 C382 1.260 . S
C387 O378 1.240 . S
C387 O379 1.252 . S
O388 In377 2.294 . S
O388 C381 1.240 . S
O389 In377 2.326 . S
O389 C381 1.252 . S
In390 O391 2.294 . S
In390 O392 2.326 . S
In390 O396 2.266 . S
In390 O397 2.326 . S
In390 O398 2.266 . S
In390 O399 2.326 . S
In390 O401 2.294 . S
In390 O402 2.326 . S
O391 In390 2.294 . S
O391 C400 1.240 . S
O392 In390 2.326 . S
O392 C400 1.252 . S
C393 O396 1.252 . S
C393 O397 1.260 . S
C394 O401 1.240 . S
C394 O402 1.252 . S
C395 O398 1.252 . S
C395 O399 1.260 . S
O396 In390 2.266 . S
O396 C393 1.252 . S
O397 In390 2.326 . S
O397 C393 1.260 . S
O398 In390 2.266 . S
O398 C395 1.252 . S
O399 In390 2.326 . S
O399 C395 1.260 . S
C400 O391 1.240 . S
C400 O392 1.252 . S
O401 In390 2.294 . S
O401 C394 1.240 . S
O402 In390 2.326 . S
O402 C394 1.252 . S
In403 O404 2.294 . S
In403 O405 2.326 . S
In403 O409 2.266 . S
In403 O410 2.326 . S
In403 O411 2.266 . S
In403 O412 2.326 . S
In403 O414 2.294 . S
In403 O415 2.326 . S
O404 In403 2.294 . S
O404 C413 1.240 . S
O405 In403 2.326 . S
O405 C413 1.252 . S
C406 O409 1.252 . S
C406 O410 1.260 . S
C407 O414 1.240 . S
C407 O415 1.252 . S
C408 O411 1.252 . S
C408 O412 1.260 . S
O409 In403 2.266 . S
O409 C406 1.252 . S
O410 In403 2.326 . S
O410 C406 1.260 . S
O411 In403 2.266 . S
O411 C408 1.252 . S
O412 In403 2.326 . S
O412 C408 1.260 . S
C413 O404 1.240 . S
C413 O405 1.252 . S
O414 In403 2.294 . S
O414 C407 1.240 . S
O415 In403 2.326 . S
O415 C407 1.252 . S
In416 O417 2.294 . S
In416 O418 2.326 . S
In416 O422 2.266 . S
In416 O423 2.326 . S
In416 O424 2.266 . S
In416 O425 2.326 . S
In416 O427 2.294 . S
In416 O428 2.326 . S
O417 In416 2.294 . S
O417 C426 1.240 . S
O418 In416 2.326 . S
O418 C426 1.252 . S
C419 O422 1.252 . S
C419 O423 1.260 . S
C420 O427 1.240 . S
C420 O428 1.252 . S
C421 O424 1.252 . S
C421 O425 1.260 . S
O422 In416 2.266 . S
O422 C419 1.252 . S
O423 In416 2.326 . S
O423 C419 1.260 . S
O424 In416 2.266 . S
O424 C421 1.252 . S
O425 In416 2.326 . S
O425 C421 1.260 . S
C426 O417 1.240 . S
C426 O418 1.252 . S
O427 In416 2.294 . S
O427 C420 1.240 . S
O428 In416 2.326 . S
O428 C420 1.252 . S
In429 O430 2.294 . S
In429 O431 2.326 . S
In429 O435 2.266 . S
In429 O436 2.326 . S
In429 O437 2.266 . S
In429 O438 2.326 . S
In429 O440 2.294 . S
In429 O441 2.326 . S
O430 In429 2.294 . S
O430 C439 1.240 . S
O431 In429 2.326 . S
O431 C439 1.252 . S
C432 O435 1.252 . S
C432 O436 1.260 . S
C433 O440 1.240 . S
C433 O441 1.252 . S
C434 O437 1.252 . S
C434 O438 1.260 . S
O435 In429 2.266 . S
O435 C432 1.252 . S
O436 In429 2.326 . S
O436 C432 1.260 . S
O437 In429 2.266 . S
O437 C434 1.252 . S
O438 In429 2.326 . S
O438 C434 1.260 . S
C439 O430 1.240 . S
C439 O431 1.252 . S
O440 In429 2.294 . S
O440 C433 1.240 . S
O441 In429 2.326 . S
O441 C433 1.252 . S
In442 O443 2.294 . S
In442 O444 2.326 . S
In442 O448 2.266 . S
In442 O449 2.326 . S
In442 O450 2.266 . S
In442 O451 2.326 . S
In442 O453 2.294 . S
In442 O454 2.326 . S
O443 In442 2.294 . S
O443 C452 1.240 . S
O444 In442 2.326 . S
O444 C452 1.252 . S
C445 O448 1.252 . S
C445 O449 1.260 . S
C446 O453 1.240 . S
C446 O454 1.252 . S
C447 O450 1.252 . S
C447 O451 1.260 . S
O448 In442 2.266 . S
O448 C445 1.252 . S
O449 In442 2.326 . S
O449 C445 1.260 . S
O450 In442 2.266 . S
O450 C447 1.252 . S
O451 In442 2.326 . S
O451 C447 1.260 . S
C452 O443 1.240 . S
C452 O444 1.252 . S
O453 In442 2.294 . S
O453 C446 1.240 . S
O454 In442 2.326 . S
O454 C446 1.252 . S
In455 O456 2.294 . S
In455 O457 2.326 . S
In455 O461 2.266 . S
In455 O462 2.326 . S
In455 O463 2.266 . S
In455 O464 2.326 . S
In455 O466 2.294 . S
In455 O467 2.326 . S
O456 In455 2.294 . S
O456 C465 1.240 . S
O457 In455 2.326 . S
O457 C465 1.252 . S
C458 O461 1.252 . S
C458 O462 1.260 . S
C459 O466 1.240 . S
C459 O467 1.252 . S
C460 O463 1.252 . S
C460 O464 1.260 . S
O461 In455 2.266 . S
O461 C458 1.252 . S
O462 In455 2.326 . S
O462 C458 1.260 . S
O463 In455 2.266 . S
O463 C460 1.252 . S
O464 In455 2.326 . S
O464 C460 1.260 . S
C465 O456 1.240 . S
C465 O457 1.252 . S
O466 In455 2.294 . S
O466 C459 1.240 . S
O467 In455 2.326 . S
O467 C459 1.252 . S
C468 C469 1.363 . S
C468 C474 1.379 . S
C468 N476 1.356 . S
C469 C468 1.363 . S
C469 C475 1.363 . S
C470 C471 1.363 1_556 S
C470 C475 1.379 . S
C470 N477 1.356 1_556 S
C471 C470 1.363 1_554 S
C471 C474 1.363 1_554 S
N472 C474 1.356 1_554 S
N472 H484 0.984 . S
N472 H485 0.985 . S
N473 C475 1.356 . S
N473 H478 0.984 . S
N473 H479 0.985 . S
C474 C468 1.379 . S
C474 C471 1.363 1_556 S
C474 N472 1.356 1_556 S
C475 C469 1.363 . S
C475 C470 1.379 . S
C475 N473 1.356 . S
N476 C468 1.356 . S
N476 H482 0.984 . S
N476 H483 0.984 . S
N477 C470 1.356 1_554 S
N477 H480 0.984 . S
N477 H481 0.985 . S
H478 N473 0.984 . S
H479 N473 0.985 . S
H480 N477 0.984 . S
H481 N477 0.985 . S
H482 N476 0.984 . S
H483 N476 0.984 . S
H484 N472 0.984 . S
H485 N472 0.985 . S
C486 C487 1.363 . S
C486 C492 1.379 . S
C486 N494 1.356 . S
C487 C486 1.363 . S
C487 C493 1.363 . S
C488 C489 1.363 1_556 S
C488 C493 1.379 . S
C488 N495 1.356 1_556 S
C489 C488 1.363 1_554 S
C489 C492 1.363 1_554 S
N490 C492 1.356 1_554 S
N490 H502 0.984 . S
N490 H503 0.985 . S
N491 C493 1.356 . S
N491 H496 0.984 . S
N491 H497 0.985 . S
C492 C486 1.379 . S
C492 C489 1.363 1_556 S
C492 N490 1.356 1_556 S
C493 C487 1.363 . S
C493 C488 1.379 . S
C493 N491 1.356 . S
N494 C486 1.356 . S
N494 H500 0.984 . S
N494 H501 0.984 . S
N495 C488 1.356 1_554 S
N495 H498 0.984 . S
N495 H499 0.985 . S
H496 N491 0.984 . S
H497 N491 0.985 . S
H498 N495 0.984 . S
H499 N495 0.985 . S
H500 N494 0.984 . S
H501 N494 0.984 . S
H502 N490 0.984 . S
H503 N490 0.985 . S
C504 C505 1.363 1_556 S
C504 C510 1.379 . S
C504 N512 1.356 1_556 S
C505 C504 1.363 1_554 S
C505 C511 1.363 1_554 S
C506 C507 1.363 . S
C506 C511 1.379 . S
C506 N513 1.356 . S
C507 C506 1.363 . S
C507 C510 1.363 . S
N508 C510 1.356 . S
N508 H520 0.984 . S
N508 H521 0.985 . S
N509 C511 1.356 1_554 S
N509 H514 0.984 . S
N509 H515 0.985 . S
C510 C504 1.379 . S
C510 C507 1.363 . S
C510 N508 1.356 . S
C511 C505 1.363 1_556 S
C511 C506 1.379 . S
C511 N509 1.356 1_556 S
N512 C504 1.356 1_554 S
N512 H518 0.984 . S
N512 H519 0.984 . S
N513 C506 1.356 . S
N513 H516 0.984 . S
N513 H517 0.985 . S
H514 N509 0.984 . S
H515 N509 0.985 . S
H516 N513 0.984 . S
H517 N513 0.985 . S
H518 N512 0.984 . S
H519 N512 0.984 . S
H520 N508 0.984 . S
H521 N508 0.985 . S
C522 C523 1.363 . S
C522 C528 1.379 . S
C522 N530 1.356 . S
C523 C522 1.363 . S
C523 C529 1.363 . S
C524 C525 1.363 . S
C524 C529 1.379 . S
C524 N531 1.356 . S
C525 C524 1.363 . S
C525 C528 1.363 . S
N526 C528 1.356 . S
N526 H538 0.984 . S
N526 H539 0.985 . S
N527 C529 1.356 . S
N527 H532 0.984 . S
N527 H533 0.985 . S
C528 C522 1.379 . S
C528 C525 1.363 . S
C528 N526 1.356 . S
C529 C523 1.363 . S
C529 C524 1.379 . S
C529 N527 1.356 . S
N530 C522 1.356 . S
N530 H536 0.984 . S
N530 H537 0.984 . S
N531 C524 1.356 . S
N531 H534 0.984 . S
N531 H535 0.985 . S
H532 N527 0.984 . S
H533 N527 0.985 . S
H534 N531 0.984 . S
H535 N531 0.985 . S
H536 N530 0.984 . S
H537 N530 0.984 . S
H538 N526 0.984 . S
H539 N526 0.985 . S
C540 C541 1.363 . S
C540 C546 1.379 . S
C540 N548 1.356 . S
C541 C540 1.363 . S
C541 C547 1.363 . S
C542 C543 1.363 . S
C542 C547 1.379 . S
C542 N549 1.356 . S
C543 C542 1.363 . S
C543 C546 1.363 . S
N544 C546 1.356 . S
N544 H556 0.984 . S
N544 H557 0.985 . S
N545 C547 1.356 . S
N545 H550 0.984 . S
N545 H551 0.985 . S
C546 C540 1.379 . S
C546 C543 1.363 . S
C546 N544 1.356 . S
C547 C541 1.363 . S
C547 C542 1.379 . S
C547 N545 1.356 . S
N548 C540 1.356 . S
N548 H554 0.984 . S
N548 H555 0.984 . S
N549 C542 1.356 . S
N549 H552 0.984 . S
N549 H553 0.985 . S
H550 N545 0.984 . S
H551 N545 0.985 . S
H552 N549 0.984 . S
H553 N549 0.985 . S
H554 N548 0.984 . S
H555 N548 0.984 . S
H556 N544 0.984 . S
H557 N544 0.985 . S
C558 C559 1.363 . S
C558 C564 1.379 . S
C558 N566 1.356 . S
C559 C558 1.363 . S
C559 C565 1.363 . S
C560 C561 1.363 . S
C560 C565 1.379 . S
C560 N567 1.356 . S
C561 C560 1.363 . S
C561 C564 1.363 . S
N562 C564 1.356 . S
N562 H574 0.984 . S
N562 H575 0.985 . S
N563 C565 1.356 . S
N563 H568 0.984 . S
N563 H569 0.985 . S
C564 C558 1.379 . S
C564 C561 1.363 . S
C564 N562 1.356 . S
C565 C559 1.363 . S
C565 C560 1.379 . S
C565 N563 1.356 . S
N566 C558 1.356 . S
N566 H572 0.984 . S
N566 H573 0.984 . S
N567 C560 1.356 . S
N567 H570 0.984 . S
N567 H571 0.985 . S
H568 N563 0.984 . S
H569 N563 0.985 . S
H570 N567 0.984 . S
H571 N567 0.985 . S
H572 N566 0.984 . S
H573 N566 0.984 . S
H574 N562 0.984 . S
H575 N562 0.985 . S
C576 C577 1.363 . S
C576 C582 1.379 . S
C576 N584 1.356 . S
C577 C576 1.363 . S
C577 C583 1.363 . S
C578 C579 1.363 1_554 S
C578 C583 1.379 . S
C578 N585 1.356 1_554 S
C579 C578 1.363 1_556 S
C579 C582 1.363 1_556 S
N580 C582 1.356 1_556 S
N580 H592 0.984 . S
N580 H593 0.985 . S
N581 C583 1.356 . S
N581 H586 0.984 . S
N581 H587 0.985 . S
C582 C576 1.379 . S
C582 C579 1.363 1_554 S
C582 N580 1.356 1_554 S
C583 C577 1.363 . S
C583 C578 1.379 . S
C583 N581 1.356 . S
N584 C576 1.356 . S
N584 H590 0.984 . S
N584 H591 0.984 . S
N585 C578 1.356 1_556 S
N585 H588 0.984 . S
N585 H589 0.985 . S
H586 N581 0.984 . S
H587 N581 0.985 . S
H588 N585 0.984 . S
H589 N585 0.985 . S
H590 N584 0.984 . S
H591 N584 0.984 . S
H592 N580 0.984 . S
H593 N580 0.985 . S
C594 C595 1.363 . S
C594 C600 1.379 . S
C594 N602 1.356 . S
C595 C594 1.363 . S
C595 C601 1.363 . S
C596 C597 1.363 1_554 S
C596 C601 1.379 . S
C596 N603 1.356 1_554 S
C597 C596 1.363 1_556 S
C597 C600 1.363 1_556 S
N598 C600 1.356 1_556 S
N598 H610 0.984 . S
N598 H611 0.985 . S
N599 C601 1.356 . S
N599 H604 0.984 . S
N599 H605 0.985 . S
C600 C594 1.379 . S
C600 C597 1.363 1_554 S
C600 N598 1.356 1_554 S
C601 C595 1.363 . S
C601 C596 1.379 . S
C601 N599 1.356 . S
N602 C594 1.356 . S
N602 H608 0.984 . S
N602 H609 0.984 . S
N603 C596 1.356 1_556 S
N603 H606 0.984 . S
N603 H607 0.985 . S
H604 N599 0.984 . S
H605 N599 0.985 . S
H606 N603 0.984 . S
H607 N603 0.985 . S
H608 N602 0.984 . S
H609 N602 0.984 . S
H610 N598 0.984 . S
H611 N598 0.985 . S
C612 C613 1.363 1_554 S
C612 C618 1.379 . S
C612 N620 1.356 1_554 S
C613 C612 1.363 1_556 S
C613 C619 1.363 1_556 S
C614 C615 1.363 . S
C614 C619 1.379 . S
C614 N621 1.356 . S
C615 C614 1.363 . S
C615 C618 1.363 . S
N616 C618 1.356 . S
N616 H628 0.984 . S
N616 H629 0.985 . S
N617 C619 1.356 1_556 S
N617 H622 0.984 . S
N617 H623 0.985 . S
C618 C612 1.379 . S
C618 C615 1.363 . S
C618 N616 1.356 . S
C619 C613 1.363 1_554 S
C619 C614 1.379 . S
C619 N617 1.356 1_554 S
N620 C612 1.356 1_556 S
N620 H626 0.984 . S
N620 H627 0.984 . S
N621 C614 1.356 . S
N621 H624 0.984 . S
N621 H625 0.985 . S
H622 N617 0.984 . S
H623 N617 0.985 . S
H624 N621 0.984 . S
H625 N621 0.985 . S
H626 N620 0.984 . S
H627 N620 0.984 . S
H628 N616 0.984 . S
H629 N616 0.985 . S
C630 C631 1.363 . S
C630 C636 1.379 . S
C630 N638 1.356 . S
C631 C630 1.363 . S
C631 C637 1.363 . S
C632 C633 1.363 . S
C632 C637 1.379 . S
C632 N639 1.356 . S
C633 C632 1.363 . S
C633 C636 1.363 . S
N634 C636 1.356 . S
N634 H646 0.984 . S
N634 H647 0.985 . S
N635 C637 1.356 . S
N635 H640 0.984 . S
N635 H641 0.985 . S
C636 C630 1.379 . S
C636 C633 1.363 . S
C636 N634 1.356 . S
C637 C631 1.363 . S
C637 C632 1.379 . S
C637 N635 1.356 . S
N638 C630 1.356 . S
N638 H644 0.984 . S
N638 H645 0.984 . S
N639 C632 1.356 . S
N639 H642 0.984 . S
N639 H643 0.985 . S
H640 N635 0.984 . S
H641 N635 0.985 . S
H642 N639 0.984 . S
H643 N639 0.985 . S
H644 N638 0.984 . S
H645 N638 0.984 . S
H646 N634 0.984 . S
H647 N634 0.985 . S
C648 C649 1.363 . S
C648 C654 1.379 . S
C648 N656 1.356 . S
C649 C648 1.363 . S
C649 C655 1.363 . S
C650 C651 1.363 . S
C650 C655 1.379 . S
C650 N657 1.356 . S
C651 C650 1.363 . S
C651 C654 1.363 . S
N652 C654 1.356 . S
N652 H664 0.984 . S
N652 H665 0.985 . S
N653 C655 1.356 . S
N653 H658 0.984 . S
N653 H659 0.985 . S
C654 C648 1.379 . S
C654 C651 1.363 . S
C654 N652 1.356 . S
C655 C649 1.363 . S
C655 C650 1.379 . S
C655 N653 1.356 . S
N656 C648 1.356 . S
N656 H662 0.984 . S
N656 H663 0.984 . S
N657 C650 1.356 . S
N657 H660 0.984 . S
N657 H661 0.985 . S
H658 N653 0.984 . S
H659 N653 0.985 . S
H660 N657 0.984 . S
H661 N657 0.985 . S
H662 N656 0.984 . S
H663 N656 0.984 . S
H664 N652 0.984 . S
H665 N652 0.985 . S
C666 C667 1.363 . S
C666 C672 1.379 . S
C666 N674 1.356 . S
C667 C666 1.363 . S
C667 C673 1.363 . S
C668 C669 1.363 . S
C668 C673 1.379 . S
C668 N675 1.356 . S
C669 C668 1.363 . S
C669 C672 1.363 . S
N670 C672 1.356 . S
N670 H682 0.984 . S
N670 H683 0.985 . S
N671 C673 1.356 . S
N671 H676 0.984 . S
N671 H677 0.985 . S
C672 C666 1.379 . S
C672 C669 1.363 . S
C672 N670 1.356 . S
C673 C667 1.363 . S
C673 C668 1.379 . S
C673 N671 1.356 . S
N674 C666 1.356 . S
N674 H680 0.984 . S
N674 H681 0.984 . S
N675 C668 1.356 . S
N675 H678 0.984 . S
N675 H679 0.985 . S
H676 N671 0.984 . S
H677 N671 0.985 . S
H678 N675 0.984 . S
H679 N675 0.985 . S
H680 N674 0.984 . S
H681 N674 0.984 . S
H682 N670 0.984 . S
H683 N670 0.985 . S
C684 C685 1.363 . S
C684 C690 1.379 . S
C684 N692 1.356 . S
C685 C684 1.363 . S
C685 C691 1.363 . S
C686 C687 1.363 . S
C686 C691 1.379 . S
C686 N693 1.356 . S
C687 C686 1.363 . S
C687 C690 1.363 . S
N688 C690 1.356 . S
N688 H700 0.984 . S
N688 H701 0.985 . S
N689 C691 1.356 . S
N689 H694 0.984 . S
N689 H695 0.985 . S
C690 C684 1.379 . S
C690 C687 1.363 . S
C690 N688 1.356 . S
C691 C685 1.363 . S
C691 C686 1.379 . S
C691 N689 1.356 . S
N692 C684 1.356 . S
N692 H698 0.984 . S
N692 H699 0.984 . S
N693 C686 1.356 . S
N693 H696 0.984 . S
N693 H697 0.985 . S
H694 N689 0.984 . S
H695 N689 0.985 . S
H696 N693 0.984 . S
H697 N693 0.985 . S
H698 N692 0.984 . S
H699 N692 0.984 . S
H700 N688 0.984 . S
H701 N688 0.985 . S
C702 C703 1.363 . S
C702 C708 1.379 . S
C702 N710 1.356 . S
C703 C702 1.363 . S
C703 C709 1.363 . S
C704 C705 1.363 . S
C704 C709 1.379 . S
C704 N711 1.356 . S
C705 C704 1.363 . S
C705 C708 1.363 . S
N706 C708 1.356 . S
N706 H718 0.984 . S
N706 H719 0.985 . S
N707 C709 1.356 . S
N707 H712 0.984 . S
N707 H713 0.985 . S
C708 C702 1.379 . S
C708 C705 1.363 . S
C708 N706 1.356 . S
C709 C703 1.363 . S
C709 C704 1.379 . S
C709 N707 1.356 . S
N710 C702 1.356 . S
N710 H716 0.984 . S
N710 H717 0.984 . S
N711 C704 1.356 . S
N711 H714 0.984 . S
N711 H715 0.985 . S
H712 N707 0.984 . S
H713 N707 0.985 . S
H714 N711 0.984 . S
H715 N711 0.985 . S
H716 N710 0.984 . S
H717 N710 0.984 . S
H718 N706 0.984 . S
H719 N706 0.985 . S
C720 C721 1.363 . S
C720 C726 1.379 . S
C720 N728 1.356 . S
C721 C720 1.363 . S
C721 C727 1.363 . S
C722 C723 1.363 . S
C722 C727 1.379 . S
C722 N729 1.356 . S
C723 C722 1.363 . S
C723 C726 1.363 . S
N724 C726 1.356 . S
N724 H736 0.984 . S
N724 H737 0.985 . S
N725 C727 1.356 . S
N725 H730 0.984 . S
N725 H731 0.985 . S
C726 C720 1.379 . S
C726 C723 1.363 . S
C726 N724 1.356 . S
C727 C721 1.363 . S
C727 C722 1.379 . S
C727 N725 1.356 . S
N728 C720 1.356 . S
N728 H734 0.984 . S
N728 H735 0.984 . S
N729 C722 1.356 . S
N729 H732 0.984 . S
N729 H733 0.985 . S
H730 N725 0.984 . S
H731 N725 0.985 . S
H732 N729 0.984 . S
H733 N729 0.985 . S
H734 N728 0.984 . S
H735 N728 0.984 . S
H736 N724 0.984 . S
H737 N724 0.985 . S
C738 C739 1.363 . S
C738 C744 1.379 . S
C738 N746 1.356 . S
C739 C738 1.363 . S
C739 C745 1.363 . S
C740 C741 1.363 . S
C740 C745 1.379 . S
C740 N747 1.356 . S
C741 C740 1.363 . S
C741 C744 1.363 . S
N742 C744 1.356 . S
N742 H754 0.984 . S
N742 H755 0.985 . S
N743 C745 1.356 . S
N743 H748 0.984 . S
N743 H749 0.985 . S
C744 C738 1.379 . S
C744 C741 1.363 . S
C744 N742 1.356 . S
C745 C739 1.363 . S
C745 C740 1.379 . S
C745 N743 1.356 . S
N746 C738 1.356 . S
N746 H752 0.984 . S
N746 H753 0.984 . S
N747 C740 1.356 . S
N747 H750 0.984 . S
N747 H751 0.985 . S
H748 N743 0.984 . S
H749 N743 0.985 . S
H750 N747 0.984 . S
H751 N747 0.985 . S
H752 N746 0.984 . S
H753 N746 0.984 . S
H754 N742 0.984 . S
H755 N742 0.985 . S
C756 C757 1.363 . S
C756 C762 1.379 . S
C756 N764 1.356 . S
C757 C756 1.363 . S
C757 C763 1.363 . S
C758 C759 1.363 . S
C758 C763 1.379 . S
C758 N765 1.356 . S
C759 C758 1.363 . S
C759 C762 1.363 . S
N760 C762 1.356 . S
N760 H772 0.984 . S
N760 H773 0.984 1_556 S
N761 C763 1.356 . S
N761 H766 0.984 . S
N761 H767 0.985 . S
C762 C756 1.379 . S
C762 C759 1.363 . S
C762 N760 1.356 . S
C763 C757 1.363 . S
C763 C758 1.379 . S
C763 N761 1.356 . S
N764 C756 1.356 . S
N764 H770 0.984 . S
N764 H771 0.984 . S
N765 C758 1.356 . S
N765 H768 0.984 . S
N765 H769 0.985 . S
H766 N761 0.984 . S
H767 N761 0.985 . S
H768 N765 0.984 . S
H769 N765 0.985 . S
H770 N764 0.984 . S
H771 N764 0.984 . S
H772 N760 0.984 . S
H773 N760 0.984 1_554 S
C774 C775 1.363 . S
C774 C780 1.379 . S
C774 N782 1.356 . S
C775 C774 1.363 . S
C775 C781 1.363 . S
C776 C777 1.363 . S
C776 C781 1.379 . S
C776 N783 1.356 . S
C777 C776 1.363 . S
C777 C780 1.363 . S
N778 C780 1.356 . S
N778 H790 0.984 . S
N778 H791 0.985 . S
N779 C781 1.356 . S
N779 H784 0.984 . S
N779 H785 0.985 . S
C780 C774 1.379 . S
C780 C777 1.363 . S
C780 N778 1.356 . S
C781 C775 1.363 . S
C781 C776 1.379 . S
C781 N779 1.356 . S
N782 C774 1.356 . S
N782 H788 0.984 . S
N782 H789 0.984 . S
N783 C776 1.356 . S
N783 H786 0.974 1_556 S
N783 H787 0.985 . S
H784 N779 0.984 . S
H785 N779 0.985 . S
H786 N783 0.974 1_554 S
H787 N783 0.985 . S
H788 N782 0.984 . S
H789 N782 0.984 . S
H790 N778 0.984 . S
H791 N778 0.985 . S
C792 C793 1.363 . S
C792 C798 1.379 . S
C792 N800 1.356 . S
C793 C792 1.363 . S
C793 C799 1.363 . S
C794 C795 1.363 . S
C794 C799 1.379 . S
C794 N801 1.356 . S
C795 C794 1.363 . S
C795 C798 1.363 . S
N796 C798 1.356 . S
N796 H808 0.984 . S
N796 H809 0.985 . S
N797 C799 1.356 . S
N797 H802 0.984 . S
N797 H803 0.985 . S
C798 C792 1.379 . S
C798 C795 1.363 . S
C798 N796 1.356 . S
C799 C793 1.363 . S
C799 C794 1.379 . S
C799 N797 1.356 . S
N800 C792 1.356 . S
N800 H806 0.984 . S
N800 H807 0.984 . S
N801 C794 1.356 . S
N801 H804 0.984 . S
N801 H805 0.985 . S
H802 N797 0.984 . S
H803 N797 0.985 . S
H804 N801 0.984 . S
H805 N801 0.985 . S
H806 N800 0.984 . S
H807 N800 0.984 . S
H808 N796 0.984 . S
H809 N796 0.985 . S
C810 C811 1.363 . S
C810 C816 1.379 . S
C810 N818 1.356 . S
C811 C810 1.363 . S
C811 C817 1.363 . S
C812 C813 1.363 . S
C812 C817 1.379 . S
C812 N819 1.356 . S
C813 C812 1.363 . S
C813 C816 1.363 . S
N814 C816 1.356 . S
N814 H826 0.984 . S
N814 H827 0.985 . S
N815 C817 1.356 . S
N815 H820 0.984 . S
N815 H821 0.985 . S
C816 C810 1.379 . S
C816 C813 1.363 . S
C816 N814 1.356 . S
C817 C811 1.363 . S
C817 C812 1.379 . S
C817 N815 1.356 . S
N818 C810 1.356 . S
N818 H824 0.984 . S
N818 H825 0.984 . S
N819 C812 1.356 . S
N819 H822 0.984 . S
N819 H823 0.985 . S
H820 N815 0.984 . S
H821 N815 0.985 . S
H822 N819 0.984 . S
H823 N819 0.985 . S
H824 N818 0.984 . S
H825 N818 0.984 . S
H826 N814 0.984 . S
H827 N814 0.985 . S
C828 C829 1.363 . S
C828 C834 1.379 . S
C828 N836 1.356 . S
C829 C828 1.363 . S
C829 C835 1.363 . S
C830 C831 1.363 . S
C830 C835 1.379 . S
C830 N837 1.356 . S
C831 C830 1.363 . S
C831 C834 1.363 . S
N832 C834 1.356 . S
N832 H844 0.984 . S
N832 H845 0.985 . S
N833 C835 1.356 . S
N833 H838 0.984 . S
N833 H839 0.985 . S
C834 C828 1.379 . S
C834 C831 1.363 . S
C834 N832 1.356 . S
C835 C829 1.363 . S
C835 C830 1.379 . S
C835 N833 1.356 . S
N836 C828 1.356 . S
N836 H842 0.984 . S
N836 H843 0.984 . S
N837 C830 1.356 . S
N837 H840 0.984 . S
N837 H841 0.985 . S
H838 N833 0.984 . S
H839 N833 0.985 . S
H840 N837 0.984 . S
H841 N837 0.985 . S
H842 N836 0.984 . S
H843 N836 0.984 . S
H844 N832 0.984 . S
H845 N832 0.985 . S
C846 C847 1.363 . S
C846 C852 1.379 . S
C846 N854 1.356 . S
C847 C846 1.363 . S
C847 C853 1.363 . S
C848 C849 1.363 . S
C848 C853 1.379 . S
C848 N855 1.356 . S
C849 C848 1.363 . S
C849 C852 1.363 . S
N850 C852 1.356 . S
N850 H862 0.984 . S
N850 H863 0.985 . S
N851 C853 1.356 . S
N851 H856 0.984 . S
N851 H857 0.985 . S
C852 C846 1.379 . S
C852 C849 1.363 . S
C852 N850 1.356 . S
C853 C847 1.363 . S
C853 C848 1.379 . S
C853 N851 1.356 . S
N854 C846 1.356 . S
N854 H860 0.984 . S
N854 H861 0.984 . S
N855 C848 1.356 . S
N855 H858 0.984 . S
N855 H859 0.985 . S
H856 N851 0.984 . S
H857 N851 0.985 . S
H858 N855 0.984 . S
H859 N855 0.985 . S
H860 N854 0.984 . S
H861 N854 0.984 . S
H862 N850 0.984 . S
H863 N850 0.985 . S
C864 C865 1.363 . S
C864 C870 1.379 . S
C864 N872 1.356 . S
C865 C864 1.363 . S
C865 C871 1.363 . S
C866 C867 1.363 . S
C866 C871 1.379 . S
C866 N873 1.356 . S
C867 C866 1.363 . S
C867 C870 1.363 . S
N868 C870 1.356 . S
N868 H880 0.984 . S
N868 H881 0.985 . S
N869 C871 1.356 . S
N869 H874 0.984 . S
N869 H875 0.985 . S
C870 C864 1.379 . S
C870 C867 1.363 . S
C870 N868 1.356 . S
C871 C865 1.363 . S
C871 C866 1.379 . S
C871 N869 1.356 . S
N872 C864 1.356 . S
N872 H878 0.984 . S
N872 H879 0.984 . S
N873 C866 1.356 . S
N873 H876 0.984 . S
N873 H877 0.985 . S
H874 N869 0.984 . S
H875 N869 0.985 . S
H876 N873 0.984 . S
H877 N873 0.985 . S
H878 N872 0.984 . S
H879 N872 0.984 . S
H880 N868 0.984 . S
H881 N868 0.985 . S
C882 C883 1.363 . S
C882 C888 1.379 . S
C882 N890 1.356 . S
C883 C882 1.363 . S
C883 C889 1.363 . S
C884 C885 1.363 . S
C884 C889 1.379 . S
C884 N891 1.356 . S
C885 C884 1.363 . S
C885 C888 1.363 . S
N886 C888 1.356 . S
N886 H898 0.984 . S
N886 H899 0.985 . S
N887 C889 1.356 . S
N887 H892 0.984 . S
N887 H893 0.985 . S
C888 C882 1.379 . S
C888 C885 1.363 . S
C888 N886 1.356 . S
C889 C883 1.363 . S
C889 C884 1.379 . S
C889 N887 1.356 . S
N890 C882 1.356 . S
N890 H896 0.984 . S
N890 H897 0.984 . S
N891 C884 1.356 . S
N891 H894 0.984 . S
N891 H895 0.985 . S
H892 N887 0.984 . S
H893 N887 0.985 . S
H894 N891 0.984 . S
H895 N891 0.985 . S
H896 N890 0.984 . S
H897 N890 0.984 . S
H898 N886 0.984 . S
H899 N886 0.985 . S
C900 C901 1.363 . S
C900 C906 1.379 . S
C900 N908 1.356 . S
C901 C900 1.363 . S
C901 C907 1.363 . S
C902 C903 1.363 . S
C902 C907 1.379 . S
C902 N909 1.356 . S
C903 C902 1.363 . S
C903 C906 1.363 . S
N904 C906 1.356 . S
N904 H916 0.984 . S
N904 H917 0.985 . S
N905 C907 1.356 . S
N905 H910 0.984 . S
N905 H911 0.985 . S
C906 C900 1.379 . S
C906 C903 1.363 . S
C906 N904 1.356 . S
C907 C901 1.363 . S
C907 C902 1.379 . S
C907 N905 1.356 . S
N908 C900 1.356 . S
N908 H914 0.984 . S
N908 H915 0.984 . S
N909 C902 1.356 . S
N909 H912 0.984 . S
N909 H913 0.985 . S
H910 N905 0.984 . S
H911 N905 0.985 . S
H912 N909 0.984 . S
H913 N909 0.985 . S
H914 N908 0.984 . S
H915 N908 0.984 . S
H916 N904 0.984 . S
H917 N904 0.985 . S
C918 C919 1.363 . S
C918 C924 1.379 . S
C918 N926 1.356 . S
C919 C918 1.363 . S
C919 C925 1.363 . S
C920 C921 1.363 . S
C920 C925 1.379 . S
C920 N927 1.356 . S
C921 C920 1.363 . S
C921 C924 1.363 . S
N922 C924 1.356 . S
N922 H934 0.984 . S
N922 H935 0.985 . S
N923 C925 1.356 . S
N923 H928 0.984 . S
N923 H929 0.985 . S
C924 C918 1.379 . S
C924 C921 1.363 . S
C924 N922 1.356 . S
C925 C919 1.363 . S
C925 C920 1.379 . S
C925 N923 1.356 . S
N926 C918 1.356 . S
N926 H932 0.984 . S
N926 H933 0.984 . S
N927 C920 1.356 . S
N927 H930 0.984 . S
N927 H931 0.985 . S
H928 N923 0.984 . S
H929 N923 0.985 . S
H930 N927 0.984 . S
H931 N927 0.985 . S
H932 N926 0.984 . S
H933 N926 0.984 . S
H934 N922 0.984 . S
H935 N922 0.985 . S
C936 C937 1.363 . S
C936 C942 1.379 . S
C936 N944 1.356 . S
C937 C936 1.363 . S
C937 C943 1.363 . S
C938 C939 1.363 . S
C938 C943 1.379 . S
C938 N945 1.356 . S
C939 C938 1.363 . S
C939 C942 1.363 . S
N940 C942 1.356 . S
N940 H952 0.984 . S
N940 H953 0.985 . S
N941 C943 1.356 . S
N941 H946 0.984 . S
N941 H947 0.985 . S
C942 C936 1.379 . S
C942 C939 1.363 . S
C942 N940 1.356 . S
C943 C937 1.363 . S
C943 C938 1.379 . S
C943 N941 1.356 . S
N944 C936 1.356 . S
N944 H950 0.984 . S
N944 H951 0.984 . S
N945 C938 1.356 . S
N945 H948 0.984 . S
N945 H949 0.985 . S
H946 N941 0.984 . S
H947 N941 0.985 . S
H948 N945 0.984 . S
H949 N945 0.985 . S
H950 N944 0.984 . S
H951 N944 0.984 . S
H952 N940 0.984 . S
H953 N940 0.985 . S
C954 C955 1.363 . S
C954 C960 1.379 . S
C954 N962 1.356 . S
C955 C954 1.363 . S
C955 C961 1.363 . S
C956 C957 1.363 . S
C956 C961 1.379 . S
C956 N963 1.356 . S
C957 C956 1.363 . S
C957 C960 1.363 . S
N958 C960 1.356 . S
N958 H970 0.984 . S
N958 H971 0.985 . S
N959 C961 1.356 . S
N959 H964 0.984 . S
N959 H965 0.985 . S
C960 C954 1.379 . S
C960 C957 1.363 . S
C960 N958 1.356 . S
C961 C955 1.363 . S
C961 C956 1.379 . S
C961 N959 1.356 . S
N962 C954 1.356 . S
N962 H968 0.984 . S
N962 H969 0.984 . S
N963 C956 1.356 . S
N963 H966 0.984 . S
N963 H967 0.985 . S
H964 N959 0.984 . S
H965 N959 0.985 . S
H966 N963 0.984 . S
H967 N963 0.985 . S
H968 N962 0.984 . S
H969 N962 0.984 . S
H970 N958 0.984 . S
H971 N958 0.985 . S
C972 C973 1.363 . S
C972 C978 1.379 . S
C972 N980 1.356 . S
C973 C972 1.363 . S
C973 C979 1.363 . S
C974 C975 1.363 . S
C974 C979 1.379 . S
C974 N981 1.356 . S
C975 C974 1.363 . S
C975 C978 1.363 . S
N976 C978 1.356 . S
N976 H988 0.984 . S
N976 H989 0.985 . S
N977 C979 1.356 . S
N977 H982 0.984 . S
N977 H983 0.985 . S
C978 C972 1.379 . S
C978 C975 1.363 . S
C978 N976 1.356 . S
C979 C973 1.363 . S
C979 C974 1.379 . S
C979 N977 1.356 . S
N980 C972 1.356 . S
N980 H986 0.984 . S
N980 H987 0.984 . S
N981 C974 1.356 . S
N981 H984 0.984 . S
N981 H985 0.985 . S
H982 N977 0.984 . S
H983 N977 0.985 . S
H984 N981 0.984 . S
H985 N981 0.985 . S
H986 N980 0.984 . S
H987 N980 0.984 . S
H988 N976 0.984 . S
H989 N976 0.985 . S
C990 C991 1.363 . S
C990 C996 1.379 . S
C990 N998 1.356 . S
C991 C990 1.363 . S
C991 C997 1.363 . S
C992 C993 1.363 . S
C992 C997 1.379 . S
C992 N999 1.356 . S
C993 C992 1.363 . S
C993 C996 1.363 . S
N994 C996 1.356 . S
N994 H1006 0.984 . S
N994 H1007 0.985 . S
N995 C997 1.356 . S
N995 H1000 0.984 . S
N995 H1001 0.985 . S
C996 C990 1.379 . S
C996 C993 1.363 . S
C996 N994 1.356 . S
C997 C991 1.363 . S
C997 C992 1.379 . S
C997 N995 1.356 . S
N998 C990 1.356 . S
N998 H1004 0.984 . S
N998 H1005 0.984 . S
N999 C992 1.356 . S
N999 H1002 0.984 . S
N999 H1003 0.985 . S
H1000 N995 0.984 . S
H1001 N995 0.985 . S
H1002 N999 0.984 . S
H1003 N999 0.985 . S
H1004 N998 0.984 . S
H1005 N998 0.984 . S
H1006 N994 0.984 . S
H1007 N994 0.985 . S
C1008 C1009 1.363 . S
C1008 C1014 1.379 . S
C1008 N1016 1.356 . S
C1009 C1008 1.363 . S
C1009 C1015 1.363 . S
C1010 C1011 1.363 . S
C1010 C1015 1.379 . S
C1010 N1017 1.356 . S
C1011 C1010 1.363 . S
C1011 C1014 1.363 . S
N1012 C1014 1.356 . S
N1012 H1024 0.984 . S
N1012 H1025 0.985 . S
N1013 C1015 1.356 . S
N1013 H1018 0.984 . S
N1013 H1019 0.985 . S
C1014 C1008 1.379 . S
C1014 C1011 1.363 . S
C1014 N1012 1.356 . S
C1015 C1009 1.363 . S
C1015 C1010 1.379 . S
C1015 N1013 1.356 . S
N1016 C1008 1.356 . S
N1016 H1022 0.984 . S
N1016 H1023 0.984 . S
N1017 C1010 1.356 . S
N1017 H1020 0.984 . S
N1017 H1021 0.985 . S
H1018 N1013 0.984 . S
H1019 N1013 0.985 . S
H1020 N1017 0.984 . S
H1021 N1017 0.985 . S
H1022 N1016 0.984 . S
H1023 N1016 0.984 . S
H1024 N1012 0.984 . S
H1025 N1012 0.985 . S
C1026 C1027 1.363 . S
C1026 C1032 1.379 . S
C1026 N1034 1.356 . S
C1027 C1026 1.363 . S
C1027 C1033 1.363 . S
C1028 C1029 1.363 . S
C1028 C1033 1.379 . S
C1028 N1035 1.356 . S
C1029 C1028 1.363 . S
C1029 C1032 1.363 . S
N1030 C1032 1.356 . S
N1030 H1042 0.984 . S
N1030 H1043 0.985 . S
N1031 C1033 1.356 . S
N1031 H1036 0.984 . S
N1031 H1037 0.985 . S
C1032 C1026 1.379 . S
C1032 C1029 1.363 . S
C1032 N1030 1.356 . S
C1033 C1027 1.363 . S
C1033 C1028 1.379 . S
C1033 N1031 1.356 . S
N1034 C1026 1.356 . S
N1034 H1040 0.984 . S
N1034 H1041 0.984 . S
N1035 C1028 1.356 . S
N1035 H1038 0.984 . S
N1035 H1039 0.985 . S
H1036 N1031 0.984 . S
H1037 N1031 0.985 . S
H1038 N1035 0.984 . S
H1039 N1035 0.985 . S
H1040 N1034 0.984 . S
H1041 N1034 0.984 . S
H1042 N1030 0.984 . S
H1043 N1030 0.985 . S
C1044 C1045 1.363 . S
C1044 C1050 1.379 . S
C1044 N1052 1.356 . S
C1045 C1044 1.363 . S
C1045 C1051 1.363 . S
C1046 C1047 1.363 . S
C1046 C1051 1.379 . S
C1046 N1053 1.356 . S
C1047 C1046 1.363 . S
C1047 C1050 1.363 . S
N1048 C1050 1.356 . S
N1048 H1060 0.984 . S
N1048 H1061 0.985 . S
N1049 C1051 1.356 . S
N1049 H1054 0.984 . S
N1049 H1055 0.985 . S
C1050 C1044 1.379 . S
C1050 C1047 1.363 . S
C1050 N1048 1.356 . S
C1051 C1045 1.363 . S
C1051 C1046 1.379 . S
C1051 N1049 1.356 . S
N1052 C1044 1.356 . S
N1052 H1058 0.984 . S
N1052 H1059 0.984 . S
N1053 C1046 1.356 . S
N1053 H1056 0.984 . S
N1053 H1057 0.985 . S
H1054 N1049 0.984 . S
H1055 N1049 0.985 . S
H1056 N1053 0.984 . S
H1057 N1053 0.985 . S
H1058 N1052 0.984 . S
H1059 N1052 0.984 . S
H1060 N1048 0.984 . S
H1061 N1048 0.985 . S
C1062 C1063 1.363 . S
C1062 C1068 1.379 . S
C1062 N1070 1.356 . S
C1063 C1062 1.363 . S
C1063 C1069 1.363 . S
C1064 C1065 1.363 . S
C1064 C1069 1.379 . S
C1064 N1071 1.356 . S
C1065 C1064 1.363 . S
C1065 C1068 1.363 . S
N1066 C1068 1.356 . S
N1066 H1078 0.984 . S
N1066 H1079 0.985 . S
N1067 C1069 1.356 . S
N1067 H1072 0.984 . S
N1067 H1073 0.985 . S
C1068 C1062 1.379 . S
C1068 C1065 1.363 . S
C1068 N1066 1.356 . S
C1069 C1063 1.363 . S
C1069 C1064 1.379 . S
C1069 N1067 1.356 . S
N1070 C1062 1.356 . S
N1070 H1076 0.984 . S
N1070 H1077 0.984 . S
N1071 C1064 1.356 . S
N1071 H1074 0.977 1_554 S
N1071 H1075 0.985 . S
H1072 N1067 0.984 . S
H1073 N1067 0.985 . S
H1074 N1071 0.977 1_556 S
H1075 N1071 0.985 . S
H1076 N1070 0.984 . S
H1077 N1070 0.984 . S
H1078 N1066 0.984 . S
H1079 N1066 0.985 . S
C1080 C1081 1.363 . S
C1080 C1086 1.379 . S
C1080 N1088 1.356 . S
C1081 C1080 1.363 . S
C1081 C1087 1.363 . S
C1082 C1083 1.363 . S
C1082 C1087 1.379 . S
C1082 N1089 1.356 . S
C1083 C1082 1.363 . S
C1083 C1086 1.363 . S
N1084 C1086 1.356 . S
N1084 H1096 0.984 . S
N1084 H1097 0.985 . S
N1085 C1087 1.356 . S
N1085 H1090 0.984 1_554 S
N1085 H1091 0.985 . S
C1086 C1080 1.379 . S
C1086 C1083 1.363 . S
C1086 N1084 1.356 . S
C1087 C1081 1.363 . S
C1087 C1082 1.379 . S
C1087 N1085 1.356 . S
N1088 C1080 1.356 . S
N1088 H1094 0.984 . S
N1088 H1095 0.984 . S
N1089 C1082 1.356 . S
N1089 H1092 0.984 . S
N1089 H1093 0.985 . S
H1090 N1085 0.984 1_556 S
H1091 N1085 0.985 . S
H1092 N1089 0.984 . S
H1093 N1089 0.985 . S
H1094 N1088 0.984 . S
H1095 N1088 0.984 . S
H1096 N1084 0.984 . S
H1097 N1084 0.985 . S
C1098 C1099 1.363 . S
C1098 C1104 1.379 . S
C1098 N1106 1.356 . S
C1099 C1098 1.363 . S
C1099 C1105 1.363 . S
C1100 C1101 1.363 . S
C1100 C1105 1.379 . S
C1100 N1107 1.356 . S
C1101 C1100 1.363 . S
C1101 C1104 1.363 . S
N1102 C1104 1.356 . S
N1102 H1114 0.984 . S
N1102 H1115 0.985 . S
N1103 C1105 1.356 . S
N1103 H1108 0.984 . S
N1103 H1109 0.985 . S
C1104 C1098 1.379 . S
C1104 C1101 1.363 . S
C1104 N1102 1.356 . S
C1105 C1099 1.363 . S
C1105 C1100 1.379 . S
C1105 N1103 1.356 . S
N1106 C1098 1.356 . S
N1106 H1112 0.984 . S
N1106 H1113 0.984 . S
N1107 C1100 1.356 . S
N1107 H1110 0.984 . S
N1107 H1111 0.985 . S
H1108 N1103 0.984 . S
H1109 N1103 0.985 . S
H1110 N1107 0.984 . S
H1111 N1107 0.985 . S
H1112 N1106 0.984 . S
H1113 N1106 0.984 . S
H1114 N1102 0.984 . S
H1115 N1102 0.985 . S
C1116 C1117 1.363 . S
C1116 C1122 1.379 . S
C1116 N1124 1.356 . S
C1117 C1116 1.363 . S
C1117 C1123 1.363 . S
C1118 C1119 1.363 . S
C1118 C1123 1.379 . S
C1118 N1125 1.356 . S
C1119 C1118 1.363 . S
C1119 C1122 1.363 . S
N1120 C1122 1.356 . S
N1120 H1132 0.984 . S
N1120 H1133 0.985 . S
N1121 C1123 1.356 . S
N1121 H1126 0.984 . S
N1121 H1127 0.985 . S
C1122 C1116 1.379 . S
C1122 C1119 1.363 . S
C1122 N1120 1.356 . S
C1123 C1117 1.363 . S
C1123 C1118 1.379 . S
C1123 N1121 1.356 . S
N1124 C1116 1.356 . S
N1124 H1130 0.984 . S
N1124 H1131 0.984 . S
N1125 C1118 1.356 . S
N1125 H1128 0.984 . S
N1125 H1129 0.985 . S
H1126 N1121 0.984 . S
H1127 N1121 0.985 . S
H1128 N1125 0.984 . S
H1129 N1125 0.985 . S
H1130 N1124 0.984 . S
H1131 N1124 0.984 . S
H1132 N1120 0.984 . S
H1133 N1120 0.985 . S
C1134 C1135 1.363 . S
C1134 C1140 1.379 1_565 S
C1134 N1142 1.356 . S
C1135 C1134 1.363 . S
C1135 C1141 1.363 . S
C1136 C1137 1.363 . S
C1136 C1141 1.379 1_545 S
C1136 N1143 1.356 . S
C1137 C1136 1.363 . S
C1137 C1140 1.363 . S
N1138 C1140 1.356 . S
N1138 H1150 0.984 . S
N1138 H1151 0.985 . S
N1139 C1141 1.356 . S
N1139 H1144 0.984 . S
N1139 H1145 0.985 . S
C1140 C1134 1.379 1_545 S
C1140 C1137 1.363 . S
C1140 N1138 1.356 . S
C1141 C1135 1.363 . S
C1141 C1136 1.379 1_565 S
C1141 N1139 1.356 . S
N1142 C1134 1.356 . S
N1142 H1148 0.984 . S
N1142 H1149 0.984 . S
N1143 C1136 1.356 . S
N1143 H1146 0.984 . S
N1143 H1147 0.985 . S
H1144 N1139 0.984 . S
H1145 N1139 0.985 . S
H1146 N1143 0.984 . S
H1147 N1143 0.985 . S
H1148 N1142 0.984 . S
H1149 N1142 0.984 . S
H1150 N1138 0.984 . S
H1151 N1138 0.985 . S
C1152 C1153 1.363 . S
C1152 C1158 1.379 1_655 S
C1152 N1160 1.356 . S
C1153 C1152 1.363 . S
C1153 C1159 1.363 . S
C1154 C1155 1.363 . S
C1154 C1159 1.379 1_455 S
C1154 N1161 1.356 . S
C1155 C1154 1.363 . S
C1155 C1158 1.363 . S
N1156 C1158 1.356 . S
N1156 H1168 0.984 . S
N1156 H1169 0.985 . S
N1157 C1159 1.356 . S
N1157 H1162 0.984 . S
N1157 H1163 0.985 . S
C1158 C1152 1.379 1_455 S
C1158 C1155 1.363 . S
C1158 N1156 1.356 . S
C1159 C1153 1.363 . S
C1159 C1154 1.379 1_655 S
C1159 N1157 1.356 . S
N1160 C1152 1.356 . S
N1160 H1166 0.984 . S
N1160 H1167 0.984 . S
N1161 C1154 1.356 . S
N1161 H1164 0.984 . S
N1161 H1165 0.985 . S
H1162 N1157 0.984 . S
H1163 N1157 0.985 . S
H1164 N1161 0.984 . S
H1165 N1161 0.985 . S
H1166 N1160 0.984 . S
H1167 N1160 0.984 . S
H1168 N1156 0.984 . S
H1169 N1156 0.985 . S
C1170 C1171 1.363 . S
C1170 C1176 1.379 . S
C1170 N1178 1.356 . S
C1171 C1170 1.363 . S
C1171 C1177 1.363 . S
C1172 C1173 1.363 . S
C1172 C1177 1.379 . S
C1172 N1179 1.356 . S
C1173 C1172 1.363 . S
C1173 C1176 1.363 . S
N1174 C1176 1.356 . S
N1174 H1186 0.984 . S
N1174 H1187 0.985 . S
N1175 C1177 1.356 . S
N1175 H1180 0.984 . S
N1175 H1181 0.985 . S
C1176 C1170 1.379 . S
C1176 C1173 1.363 . S
C1176 N1174 1.356 . S
C1177 C1171 1.363 . S
C1177 C1172 1.379 . S
C1177 N1175 1.356 . S
N1178 C1170 1.356 . S
N1178 H1184 0.984 . S
N1178 H1185 0.984 . S
N1179 C1172 1.356 . S
N1179 H1182 0.984 . S
N1179 H1183 0.985 . S
H1180 N1175 0.984 . S
H1181 N1175 0.985 . S
H1182 N1179 0.984 . S
H1183 N1179 0.985 . S
H1184 N1178 0.984 . S
H1185 N1178 0.984 . S
H1186 N1174 0.984 . S
H1187 N1174 0.985 . S
C1188 C1189 1.363 . S
C1188 C1194 1.379 1_545 S
C1188 N1196 1.356 . S
C1189 C1188 1.363 . S
C1189 C1195 1.363 . S
C1190 C1191 1.363 . S
C1190 C1195 1.379 1_565 S
C1190 N1197 1.356 . S
C1191 C1190 1.363 . S
C1191 C1194 1.363 . S
N1192 C1194 1.356 . S
N1192 H1204 0.984 . S
N1192 H1205 0.985 . S
N1193 C1195 1.356 . S
N1193 H1198 0.984 . S
N1193 H1199 0.985 . S
C1194 C1188 1.379 1_565 S
C1194 C1191 1.363 . S
C1194 N1192 1.356 . S
C1195 C1189 1.363 . S
C1195 C1190 1.379 1_545 S
C1195 N1193 1.356 . S
N1196 C1188 1.356 . S
N1196 H1202 0.984 . S
N1196 H1203 0.984 . S
N1197 C1190 1.356 . S
N1197 H1200 0.984 . S
N1197 H1201 0.985 . S
H1198 N1193 0.984 . S
H1199 N1193 0.985 . S
H1200 N1197 0.984 . S
H1201 N1197 0.985 . S
H1202 N1196 0.984 . S
H1203 N1196 0.984 . S
H1204 N1192 0.984 . S
H1205 N1192 0.985 . S
C1206 C1207 1.363 . S
C1206 C1212 1.379 1_655 S
C1206 N1214 1.356 . S
C1207 C1206 1.363 . S
C1207 C1213 1.363 . S
C1208 C1209 1.363 . S
C1208 C1213 1.379 1_455 S
C1208 N1215 1.356 . S
C1209 C1208 1.363 . S
C1209 C1212 1.363 . S
N1210 C1212 1.356 . S
N1210 H1222 0.984 . S
N1210 H1223 0.985 . S
N1211 C1213 1.356 . S
N1211 H1216 0.984 . S
N1211 H1217 0.985 . S
C1212 C1206 1.379 1_455 S
C1212 C1209 1.363 . S
C1212 N1210 1.356 . S
C1213 C1207 1.363 . S
C1213 C1208 1.379 1_655 S
C1213 N1211 1.356 . S
N1214 C1206 1.356 . S
N1214 H1220 0.984 . S
N1214 H1221 0.984 . S
N1215 C1208 1.356 . S
N1215 H1218 0.984 . S
N1215 H1219 0.985 . S
H1216 N1211 0.984 . S
H1217 N1211 0.985 . S
H1218 N1215 0.984 . S
H1219 N1215 0.985 . S
H1220 N1214 0.984 . S
H1221 N1214 0.984 . S
H1222 N1210 0.984 . S
H1223 N1210 0.985 . S
C1224 C1225 1.363 . S
C1224 C1230 1.379 . S
C1224 N1232 1.356 . S
C1225 C1224 1.363 . S
C1225 C1231 1.363 . S
C1226 C1227 1.363 . S
C1226 C1231 1.379 . S
C1226 N1233 1.356 . S
C1227 C1226 1.363 . S
C1227 C1230 1.363 . S
N1228 C1230 1.356 . S
N1228 H1240 0.984 . S
N1228 H1241 0.985 . S
N1229 C1231 1.356 . S
N1229 H1234 0.984 . S
N1229 H1235 0.985 . S
C1230 C1224 1.379 . S
C1230 C1227 1.363 . S
C1230 N1228 1.356 . S
C1231 C1225 1.363 . S
C1231 C1226 1.379 . S
C1231 N1229 1.356 . S
N1232 C1224 1.356 . S
N1232 H1238 0.984 . S
N1232 H1239 0.984 . S
N1233 C1226 1.356 . S
N1233 H1236 0.984 . S
N1233 H1237 0.985 . S
H1234 N1229 0.984 . S
H1235 N1229 0.985 . S
H1236 N1233 0.984 . S
H1237 N1233 0.985 . S
H1238 N1232 0.984 . S
H1239 N1232 0.984 . S
H1240 N1228 0.984 . S
H1241 N1228 0.985 . S
C1242 C1243 1.363 . S
C1242 C1248 1.379 . S
C1242 N1250 1.356 . S
C1243 C1242 1.363 . S
C1243 C1249 1.363 . S
C1244 C1245 1.363 . S
C1244 C1249 1.379 . S
C1244 N1251 1.356 . S
C1245 C1244 1.363 . S
C1245 C1248 1.363 . S
N1246 C1248 1.356 . S
N1246 H1258 0.984 . S
N1246 H1259 0.985 . S
N1247 C1249 1.356 . S
N1247 H1252 0.984 . S
N1247 H1253 0.985 . S
C1248 C1242 1.379 . S
C1248 C1245 1.363 . S
C1248 N1246 1.356 . S
C1249 C1243 1.363 . S
C1249 C1244 1.379 . S
C1249 N1247 1.356 . S
N1250 C1242 1.356 . S
N1250 H1256 0.984 . S
N1250 H1257 0.984 . S
N1251 C1244 1.356 . S
N1251 H1254 0.984 . S
N1251 H1255 0.985 . S
H1252 N1247 0.984 . S
H1253 N1247 0.985 . S
H1254 N1251 0.984 . S
H1255 N1251 0.985 . S
H1256 N1250 0.984 . S
H1257 N1250 0.984 . S
H1258 N1246 0.984 . S
H1259 N1246 0.985 . S
C1260 C1261 1.363 . S
C1260 C1266 1.379 . S
C1260 N1268 1.356 . S
C1261 C1260 1.363 . S
C1261 C1267 1.363 . S
C1262 C1263 1.363 . S
C1262 C1267 1.379 . S
C1262 N1269 1.356 . S
C1263 C1262 1.363 . S
C1263 C1266 1.363 . S
N1264 C1266 1.356 . S
N1264 H1276 0.984 . S
N1264 H1277 0.985 . S
N1265 C1267 1.356 . S
N1265 H1270 0.984 . S
N1265 H1271 0.985 . S
C1266 C1260 1.379 . S
C1266 C1263 1.363 . S
C1266 N1264 1.356 . S
C1267 C1261 1.363 . S
C1267 C1262 1.379 . S
C1267 N1265 1.356 . S
N1268 C1260 1.356 . S
N1268 H1274 0.984 . S
N1268 H1275 0.984 . S
N1269 C1262 1.356 . S
N1269 H1272 0.984 . S
N1269 H1273 0.985 . S
H1270 N1265 0.984 . S
H1271 N1265 0.985 . S
H1272 N1269 0.984 . S
H1273 N1269 0.985 . S
H1274 N1268 0.984 . S
H1275 N1268 0.984 . S
H1276 N1264 0.984 . S
H1277 N1264 0.985 . S
C1278 C1279 1.363 . S
C1278 C1284 1.379 . S
C1278 N1286 1.356 . S
C1279 C1278 1.363 . S
C1279 C1285 1.363 . S
C1280 C1281 1.363 . S
C1280 C1285 1.379 . S
C1280 N1287 1.356 . S
C1281 C1280 1.363 . S
C1281 C1284 1.363 . S
N1282 C1284 1.356 . S
N1282 H1294 0.984 . S
N1282 H1295 0.985 . S
N1283 C1285 1.356 . S
N1283 H1288 0.984 . S
N1283 H1289 0.985 . S
C1284 C1278 1.379 . S
C1284 C1281 1.363 . S
C1284 N1282 1.356 . S
C1285 C1279 1.363 . S
C1285 C1280 1.379 . S
C1285 N1283 1.356 . S
N1286 C1278 1.356 . S
N1286 H1292 0.984 . S
N1286 H1293 0.984 . S
N1287 C1280 1.356 . S
N1287 H1290 0.984 . S
N1287 H1291 0.985 . S
H1288 N1283 0.984 . S
H1289 N1283 0.985 . S
H1290 N1287 0.984 . S
H1291 N1287 0.985 . S
H1292 N1286 0.984 . S
H1293 N1286 0.984 . S
H1294 N1282 0.984 . S
H1295 N1282 0.985 . S
C1296 C1297 1.363 . S
C1296 C1302 1.379 . S
C1296 N1304 1.356 1_554 S
C1297 C1296 1.363 . S
C1297 C1303 1.363 . S
C1298 C1299 1.363 . S
C1298 C1303 1.379 . S
C1298 N1305 1.356 . S
C1299 C1298 1.363 . S
C1299 C1302 1.363 . S
N1300 C1302 1.356 . S
N1300 H1312 0.984 1_554 S
N1300 H1313 0.985 . S
N1301 C1303 1.356 . S
N1301 H1306 0.984 . S
N1301 H1307 0.985 . S
C1302 C1296 1.379 . S
C1302 C1299 1.363 . S
C1302 N1300 1.356 . S
C1303 C1297 1.363 . S
C1303 C1298 1.379 . S
C1303 N1301 1.356 . S
N1304 C1296 1.356 1_556 S
N1304 H1310 0.984 . S
N1304 H1311 0.984 . S
N1305 C1298 1.356 . S
N1305 H1308 0.984 . S
N1305 H1309 0.985 . S
H1306 N1301 0.984 . S
H1307 N1301 0.985 . S
H1308 N1305 0.984 . S
H1309 N1305 0.985 . S
H1310 N1304 0.984 . S
H1311 N1304 0.984 . S
H1312 N1300 0.984 1_556 S
H1313 N1300 0.985 . S
C1314 C1315 1.363 . S
C1314 C1320 1.379 . S
C1314 N1322 1.356 . S
C1315 C1314 1.363 . S
C1315 C1321 1.363 . S
C1316 C1317 1.363 . S
C1316 C1321 1.379 . S
C1316 N1323 1.356 . S
C1317 C1316 1.363 . S
C1317 C1320 1.363 . S
N1318 C1320 1.356 . S
N1318 H1330 0.984 1_554 S
N1318 H1331 0.985 . S
N1319 C1321 1.356 . S
N1319 H1324 0.984 . S
N1319 H1325 0.985 . S
C1320 C1314 1.379 . S
C1320 C1317 1.363 . S
C1320 N1318 1.356 . S
C1321 C1315 1.363 . S
C1321 C1316 1.379 . S
C1321 N1319 1.356 . S
N1322 C1314 1.356 . S
N1322 H1328 0.984 1_554 S
N1322 H1329 0.984 . S
N1323 C1316 1.356 . S
N1323 H1326 0.984 . S
N1323 H1327 0.985 . S
H1324 N1319 0.984 . S
H1325 N1319 0.985 . S
H1326 N1323 0.984 . S
H1327 N1323 0.985 . S
H1328 N1322 0.984 1_556 S
H1329 N1322 0.984 . S
H1330 N1318 0.984 1_556 S
H1331 N1318 0.985 . S
C1332 C1333 1.363 . S
C1332 C1338 1.379 . S
C1332 N1340 1.356 1_556 S
C1333 C1332 1.363 . S
C1333 C1339 1.363 . S
C1334 C1335 1.363 . S
C1334 C1339 1.379 . S
C1334 N1341 1.356 . S
C1335 C1334 1.363 . S
C1335 C1338 1.363 . S
N1336 C1338 1.356 1_554 S
N1336 H1348 0.984 . S
N1336 H1349 0.985 1_554 S
N1337 C1339 1.356 . S
N1337 H1342 0.984 . S
N1337 H1343 0.985 . S
C1338 C1332 1.379 . S
C1338 C1335 1.363 . S
C1338 N1336 1.356 1_556 S
C1339 C1333 1.363 . S
C1339 C1334 1.379 . S
C1339 N1337 1.356 . S
N1340 C1332 1.356 1_554 S
N1340 H1346 0.984 . S
N1340 H1347 0.984 . S
N1341 C1334 1.356 . S
N1341 H1344 0.984 . S
N1341 H1345 0.985 . S
H1342 N1337 0.984 . S
H1343 N1337 0.985 . S
H1344 N1341 0.984 . S
H1345 N1341 0.985 . S
H1346 N1340 0.984 . S
H1347 N1340 0.984 . S
H1348 N1336 0.984 . S
H1349 N1336 0.985 1_556 S
C1350 C1351 1.363 . S
C1350 C1356 1.379 . S
C1350 N1358 1.356 . S
C1351 C1350 1.363 . S
C1351 C1357 1.363 . S
C1352 C1353 1.363 . S
C1352 C1357 1.379 . S
C1352 N1359 1.348 1_556 S
C1353 C1352 1.363 . S
C1353 C1356 1.363 . S
N1354 C1356 1.356 . S
N1354 H1366 0.984 . S
N1354 H1367 0.985 . S
N1355 C1357 1.356 1_554 S
N1355 H1360 0.984 . S
N1355 H1361 0.985 . S
C1356 C1350 1.379 . S
C1356 C1353 1.363 . S
C1356 N1354 1.356 . S
C1357 C1351 1.363 . S
C1357 C1352 1.379 . S
C1357 N1355 1.356 1_556 S
N1358 C1350 1.356 . S
N1358 H1364 0.984 . S
N1358 H1365 0.984 . S
N1359 C1352 1.348 1_554 S
N1359 H1362 0.979 1_554 S
N1359 H1363 0.999 . S
H1360 N1355 0.984 . S
H1361 N1355 0.985 . S
H1362 N1359 0.979 1_556 S
H1363 N1359 0.999 . S
H1364 N1358 0.984 . S
H1365 N1358 0.984 . S
H1366 N1354 0.984 . S
H1367 N1354 0.985 . S
C1368 C1369 1.363 . S
C1368 C1374 1.379 . S
C1368 N1376 1.356 . S
C1369 C1368 1.363 . S
C1369 C1375 1.363 . S
C1370 C1371 1.363 . S
C1370 C1375 1.379 . S
C1370 N1377 1.356 . S
C1371 C1370 1.363 . S
C1371 C1374 1.363 . S
N1372 C1374 1.356 1_554 S
N1372 H1384 0.984 . S
N1372 H1385 0.985 . S
N1373 C1375 1.356 . S
N1373 H1378 0.984 . S
N1373 H1379 0.985 . S
C1374 C1368 1.379 . S
C1374 C1371 1.363 . S
C1374 N1372 1.356 1_556 S
C1375 C1369 1.363 . S
C1375 C1370 1.379 . S
C1375 N1373 1.356 . S
N1376 C1368 1.356 . S
N1376 H1382 0.984 1_556 S
N1376 H1383 0.984 . S
N1377 C1370 1.356 . S
N1377 H1380 0.984 . S
N1377 H1381 0.985 . S
H1378 N1373 0.984 . S
H1379 N1373 0.985 . S
H1380 N1377 0.984 . S
H1381 N1377 0.985 . S
H1382 N1376 0.984 1_554 S
H1383 N1376 0.984 . S
H1384 N1372 0.984 . S
H1385 N1372 0.985 . S
C1386 C1387 1.363 . S
C1386 C1392 1.379 . S
C1386 N1394 1.356 . S
C1387 C1386 1.363 . S
C1387 C1393 1.363 . S
C1388 C1389 1.363 . S
C1388 C1393 1.379 . S
C1388 N1395 1.356 . S
C1389 C1388 1.363 . S
C1389 C1392 1.363 . S
N1390 C1392 1.356 . S
N1390 H1402 0.984 . S
N1390 H1403 0.985 . S
N1391 C1393 1.356 . S
N1391 H1396 0.984 . S
N1391 H1397 0.985 . S
C1392 C1386 1.379 . S
C1392 C1389 1.363 . S
C1392 N1390 1.356 . S
C1393 C1387 1.363 . S
C1393 C1388 1.379 . S
C1393 N1391 1.356 . S
N1394 C1386 1.356 . S
N1394 H1400 0.984 . S
N1394 H1401 0.984 . S
N1395 C1388 1.356 . S
N1395 H1398 0.984 . S
N1395 H1399 0.985 . S
H1396 N1391 0.984 . S
H1397 N1391 0.985 . S
H1398 N1395 0.984 . S
H1399 N1395 0.985 . S
H1400 N1394 0.984 . S
H1401 N1394 0.984 . S
H1402 N1390 0.984 . S
H1403 N1390 0.985 . S
C1404 C1405 1.363 . S
C1404 C1410 1.379 . S
C1404 N1412 1.356 . S
C1405 C1404 1.363 . S
C1405 C1411 1.363 . S
C1406 C1407 1.363 . S
C1406 C1411 1.379 . S
C1406 N1413 1.356 . S
C1407 C1406 1.363 . S
C1407 C1410 1.363 . S
N1408 C1410 1.356 . S
N1408 H1420 0.984 . S
N1408 H1421 0.985 . S
N1409 C1411 1.356 . S
N1409 H1414 0.984 . S
N1409 H1415 0.985 . S
C1410 C1404 1.379 . S
C1410 C1407 1.363 . S
C1410 N1408 1.356 . S
C1411 C1405 1.363 . S
C1411 C1406 1.379 . S
C1411 N1409 1.356 . S
N1412 C1404 1.356 . S
N1412 H1418 0.984 . S
N1412 H1419 0.984 . S
N1413 C1406 1.356 . S
N1413 H1416 0.984 . S
N1413 H1417 0.985 . S
H1414 N1409 0.984 . S
H1415 N1409 0.985 . S
H1416 N1413 0.984 . S
H1417 N1413 0.985 . S
H1418 N1412 0.984 . S
H1419 N1412 0.984 . S
H1420 N1408 0.984 . S
H1421 N1408 0.985 . S
C1422 C1423 1.363 . S
C1422 C1428 1.379 . S
C1422 N1430 1.356 . S
C1423 C1422 1.363 . S
C1423 C1429 1.363 . S
C1424 C1425 1.363 . S
C1424 C1429 1.379 . S
C1424 N1431 1.356 . S
C1425 C1424 1.363 . S
C1425 C1428 1.363 . S
N1426 C1428 1.356 . S
N1426 H1438 0.984 . S
N1426 H1439 0.985 . S
N1427 C1429 1.356 . S
N1427 H1432 0.984 . S
N1427 H1433 0.985 . S
C1428 C1422 1.379 . S
C1428 C1425 1.363 . S
C1428 N1426 1.356 . S
C1429 C1423 1.363 . S
C1429 C1424 1.379 . S
C1429 N1427 1.356 . S
N1430 C1422 1.356 . S
N1430 H1436 0.984 . S
N1430 H1437 0.984 . S
N1431 C1424 1.356 . S
N1431 H1434 0.984 . S
N1431 H1435 0.985 . S
H1432 N1427 0.984 . S
H1433 N1427 0.985 . S
H1434 N1431 0.984 . S
H1435 N1431 0.985 . S
H1436 N1430 0.984 . S
H1437 N1430 0.984 . S
H1438 N1426 0.984 . S
H1439 N1426 0.985 . S
C1440 C1441 1.363 . S
C1440 C1446 1.379 . S
C1440 N1448 1.356 . S
C1441 C1440 1.363 . S
C1441 C1447 1.363 . S
C1442 C1443 1.363 . S
C1442 C1447 1.379 . S
C1442 N1449 1.356 . S
C1443 C1442 1.363 . S
C1443 C1446 1.363 . S
N1444 C1446 1.356 . S
N1444 H1456 0.984 . S
N1444 H1457 0.985 . S
N1445 C1447 1.356 . S
N1445 H1450 0.984 . S
N1445 H1451 0.985 . S
C1446 C1440 1.379 . S
C1446 C1443 1.363 . S
C1446 N1444 1.356 . S
C1447 C1441 1.363 . S
C1447 C1442 1.379 . S
C1447 N1445 1.356 . S
N1448 C1440 1.356 . S
N1448 H1454 0.984 . S
N1448 H1455 0.984 . S
N1449 C1442 1.356 . S
N1449 H1452 0.984 . S
N1449 H1453 0.985 . S
H1450 N1445 0.984 . S
H1451 N1445 0.985 . S
H1452 N1449 0.984 . S
H1453 N1449 0.985 . S
H1454 N1448 0.984 . S
H1455 N1448 0.984 . S
H1456 N1444 0.984 . S
H1457 N1444 0.985 . S
C1458 C1459 1.363 . S
C1458 C1464 1.379 . S
C1458 N1466 1.356 . S
C1459 C1458 1.363 . S
C1459 C1465 1.363 . S
C1460 C1461 1.363 . S
C1460 C1465 1.379 . S
C1460 N1467 1.356 . S
C1461 C1460 1.363 . S
C1461 C1464 1.363 . S
N1462 C1464 1.356 . S
N1462 H1474 0.984 . S
N1462 H1475 0.985 . S
N1463 C1465 1.356 . S
N1463 H1468 0.984 . S
N1463 H1469 0.985 . S
C1464 C1458 1.379 . S
C1464 C1461 1.363 . S
C1464 N1462 1.356 . S
C1465 C1459 1.363 . S
C1465 C1460 1.379 . S
C1465 N1463 1.356 . S
N1466 C1458 1.356 . S
N1466 H1472 0.984 . S
N1466 H1473 0.984 . S
N1467 C1460 1.356 . S
N1467 H1470 0.984 . S
N1467 H1471 0.985 . S
H1468 N1463 0.984 . S
H1469 N1463 0.985 . S
H1470 N1467 0.984 . S
H1471 N1467 0.985 . S
H1472 N1466 0.984 . S
H1473 N1466 0.984 . S
H1474 N1462 0.984 . S
H1475 N1462 0.985 . S
C1476 C1477 1.363 . S
C1476 C1482 1.379 . S
C1476 N1484 1.356 . S
C1477 C1476 1.363 . S
C1477 C1483 1.363 . S
C1478 C1479 1.363 . S
C1478 C1483 1.379 . S
C1478 N1485 1.356 . S
C1479 C1478 1.363 . S
C1479 C1482 1.363 . S
N1480 C1482 1.356 . S
N1480 H1492 0.984 . S
N1480 H1493 0.985 . S
N1481 C1483 1.356 . S
N1481 H1486 0.984 . S
N1481 H1487 0.985 . S
C1482 C1476 1.379 . S
C1482 C1479 1.363 . S
C1482 N1480 1.356 . S
C1483 C1477 1.363 . S
C1483 C1478 1.379 . S
C1483 N1481 1.356 . S
N1484 C1476 1.356 . S
N1484 H1490 0.984 . S
N1484 H1491 0.984 . S
N1485 C1478 1.356 . S
N1485 H1488 0.984 . S
N1485 H1489 0.985 . S
H1486 N1481 0.984 . S
H1487 N1481 0.985 . S
H1488 N1485 0.984 . S
H1489 N1485 0.985 . S
H1490 N1484 0.984 . S
H1491 N1484 0.984 . S
H1492 N1480 0.984 . S
H1493 N1480 0.985 . S
C1494 C1495 1.363 . S
C1494 C1500 1.379 . S
C1494 N1502 1.356 . S
C1495 C1494 1.363 . S
C1495 C1501 1.363 . S
C1496 C1497 1.363 . S
C1496 C1501 1.379 . S
C1496 N1503 1.356 . S
C1497 C1496 1.363 . S
C1497 C1500 1.363 . S
N1498 C1500 1.356 . S
N1498 H1510 0.984 . S
N1498 H1511 0.985 . S
N1499 C1501 1.356 . S
N1499 H1504 0.984 . S
N1499 H1505 0.985 . S
C1500 C1494 1.379 . S
C1500 C1497 1.363 . S
C1500 N1498 1.356 . S
C1501 C1495 1.363 . S
C1501 C1496 1.379 . S
C1501 N1499 1.356 . S
N1502 C1494 1.356 . S
N1502 H1508 0.984 . S
N1502 H1509 0.984 . S
N1503 C1496 1.356 . S
N1503 H1506 0.984 . S
N1503 H1507 0.985 . S
H1504 N1499 0.984 . S
H1505 N1499 0.985 . S
H1506 N1503 0.984 . S
H1507 N1503 0.985 . S
H1508 N1502 0.984 . S
H1509 N1502 0.984 . S
H1510 N1498 0.984 . S
H1511 N1498 0.985 . S
C1512 C1513 1.363 . S
C1512 C1518 1.379 . S
C1512 N1520 1.356 . S
C1513 C1512 1.363 . S
C1513 C1519 1.363 . S
C1514 C1515 1.363 . S
C1514 C1519 1.379 . S
C1514 N1521 1.356 . S
C1515 C1514 1.363 . S
C1515 C1518 1.363 . S
N1516 C1518 1.356 . S
N1516 H1528 0.984 . S
N1516 H1529 0.985 . S
N1517 C1519 1.356 . S
N1517 H1522 0.984 . S
N1517 H1523 0.985 . S
C1518 C1512 1.379 . S
C1518 C1515 1.363 . S
C1518 N1516 1.356 . S
C1519 C1513 1.363 . S
C1519 C1514 1.379 . S
C1519 N1517 1.356 . S
N1520 C1512 1.356 . S
N1520 H1526 0.984 . S
N1520 H1527 0.984 . S
N1521 C1514 1.356 . S
N1521 H1524 0.984 . S
N1521 H1525 0.985 . S
H1522 N1517 0.984 . S
H1523 N1517 0.985 . S
H1524 N1521 0.984 . S
H1525 N1521 0.985 . S
H1526 N1520 0.984 . S
H1527 N1520 0.984 . S
H1528 N1516 0.984 . S
H1529 N1516 0.985 . S
C1530 C1531 1.363 . S
C1530 C1536 1.379 . S
C1530 N1538 1.356 . S
C1531 C1530 1.363 . S
C1531 C1537 1.363 . S
C1532 C1533 1.363 . S
C1532 C1537 1.379 . S
C1532 N1539 1.356 . S
C1533 C1532 1.363 . S
C1533 C1536 1.363 . S
N1534 C1536 1.356 . S
N1534 H1546 0.984 . S
N1534 H1547 0.985 . S
N1535 C1537 1.356 . S
N1535 H1540 0.984 . S
N1535 H1541 0.985 . S
C1536 C1530 1.379 . S
C1536 C1533 1.363 . S
C1536 N1534 1.356 . S
C1537 C1531 1.363 . S
C1537 C1532 1.379 . S
C1537 N1535 1.356 . S
N1538 C1530 1.356 . S
N1538 H1544 0.984 . S
N1538 H1545 0.984 . S
N1539 C1532 1.356 . S
N1539 H1542 0.984 . S
N1539 H1543 0.985 . S
H1540 N1535 0.984 . S
H1541 N1535 0.985 . S
H1542 N1539 0.984 . S
H1543 N1539 0.985 . S
H1544 N1538 0.984 . S
H1545 N1538 0.984 . S
H1546 N1534 0.984 . S
H1547 N1534 0.985 . S
C1548 C1549 1.363 . S
C1548 C1554 1.379 . S
C1548 N1556 1.356 . S
C1549 C1548 1.363 . S
C1549 C1555 1.363 . S
C1550 C1551 1.363 . S
C1550 C1555 1.379 . S
C1550 N1557 1.356 . S
C1551 C1550 1.363 . S
C1551 C1554 1.363 . S
N1552 C1554 1.356 . S
N1552 H1564 0.984 . S
N1552 H1565 0.985 . S
N1553 C1555 1.356 . S
N1553 H1558 0.984 . S
N1553 H1559 0.985 . S
C1554 C1548 1.379 . S
C1554 C1551 1.363 . S
C1554 N1552 1.356 . S
C1555 C1549 1.363 . S
C1555 C1550 1.379 . S
C1555 N1553 1.356 . S
N1556 C1548 1.356 . S
N1556 H1562 0.984 . S
N1556 H1563 0.984 . S
N1557 C1550 1.356 . S
N1557 H1560 0.984 . S
N1557 H1561 0.985 . S
H1558 N1553 0.984 . S
H1559 N1553 0.985 . S
H1560 N1557 0.984 . S
H1561 N1557 0.985 . S
H1562 N1556 0.984 . S
H1563 N1556 0.984 . S
H1564 N1552 0.984 . S
H1565 N1552 0.985 . S
C1566 C1567 1.363 . S
C1566 C1572 1.379 . S
C1566 N1574 1.356 . S
C1567 C1566 1.363 . S
C1567 C1573 1.363 . S
C1568 C1569 1.363 . S
C1568 C1573 1.379 . S
C1568 N1575 1.356 . S
C1569 C1568 1.363 . S
C1569 C1572 1.363 . S
N1570 C1572 1.356 . S
N1570 H1582 0.984 . S
N1570 H1583 0.985 . S
N1571 C1573 1.356 . S
N1571 H1576 0.984 . S
N1571 H1577 0.985 . S
C1572 C1566 1.379 . S
C1572 C1569 1.363 . S
C1572 N1570 1.356 . S
C1573 C1567 1.363 . S
C1573 C1568 1.379 . S
C1573 N1571 1.356 . S
N1574 C1566 1.356 . S
N1574 H1580 0.984 . S
N1574 H1581 0.984 . S
N1575 C1568 1.356 . S
N1575 H1578 0.984 . S
N1575 H1579 0.985 . S
H1576 N1571 0.984 . S
H1577 N1571 0.985 . S
H1578 N1575 0.984 . S
H1579 N1575 0.985 . S
H1580 N1574 0.984 . S
H1581 N1574 0.984 . S
H1582 N1570 0.984 . S
H1583 N1570 0.985 . S
C1584 C1585 1.363 . S
C1584 C1590 1.379 . S
C1584 N1592 1.356 . S
C1585 C1584 1.363 . S
C1585 C1591 1.363 . S
C1586 C1587 1.363 . S
C1586 C1591 1.379 . S
C1586 N1593 1.356 . S
C1587 C1586 1.363 . S
C1587 C1590 1.363 . S
N1588 C1590 1.356 . S
N1588 H1600 0.984 . S
N1588 H1601 0.985 . S
N1589 C1591 1.356 . S
N1589 H1594 0.984 . S
N1589 H1595 0.985 . S
C1590 C1584 1.379 . S
C1590 C1587 1.363 . S
C1590 N1588 1.356 . S
C1591 C1585 1.363 . S
C1591 C1586 1.379 . S
C1591 N1589 1.356 . S
N1592 C1584 1.356 . S
N1592 H1598 0.984 . S
N1592 H1599 0.984 . S
N1593 C1586 1.356 . S
N1593 H1596 0.984 . S
N1593 H1597 0.985 . S
H1594 N1589 0.984 . S
H1595 N1589 0.985 . S
H1596 N1593 0.984 . S
H1597 N1593 0.985 . S
H1598 N1592 0.984 . S
H1599 N1592 0.984 . S
H1600 N1588 0.984 . S
H1601 N1588 0.985 . S
C1602 C1603 1.363 . S
C1602 C1608 1.379 . S
C1602 N1610 1.356 . S
C1603 C1602 1.363 . S
C1603 C1609 1.363 . S
C1604 C1605 1.363 . S
C1604 C1609 1.379 . S
C1604 N1611 1.356 . S
C1605 C1604 1.363 . S
C1605 C1608 1.363 . S
N1606 C1608 1.356 . S
N1606 H1618 0.984 . S
N1606 H1619 0.985 . S
N1607 C1609 1.356 . S
N1607 H1612 0.984 . S
N1607 H1613 0.985 . S
C1608 C1602 1.379 . S
C1608 C1605 1.363 . S
C1608 N1606 1.356 . S
C1609 C1603 1.363 . S
C1609 C1604 1.379 . S
C1609 N1607 1.356 . S
N1610 C1602 1.356 . S
N1610 H1616 0.984 . S
N1610 H1617 0.984 . S
N1611 C1604 1.356 . S
N1611 H1614 0.984 . S
N1611 H1615 0.985 . S
H1612 N1607 0.984 . S
H1613 N1607 0.985 . S
H1614 N1611 0.984 . S
H1615 N1611 0.985 . S
H1616 N1610 0.984 . S
H1617 N1610 0.984 . S
H1618 N1606 0.984 . S
H1619 N1606 0.985 . S
C1620 C1621 1.363 . S
C1620 C1626 1.379 . S
C1620 N1628 1.356 . S
C1621 C1620 1.363 . S
C1621 C1627 1.363 . S
C1622 C1623 1.363 . S
C1622 C1627 1.379 . S
C1622 N1629 1.356 . S
C1623 C1622 1.363 . S
C1623 C1626 1.363 . S
N1624 C1626 1.356 . S
N1624 H1636 0.984 . S
N1624 H1637 0.985 . S
N1625 C1627 1.356 . S
N1625 H1630 0.984 . S
N1625 H1631 0.985 . S
C1626 C1620 1.379 . S
C1626 C1623 1.363 . S
C1626 N1624 1.356 . S
C1627 C1621 1.363 . S
C1627 C1622 1.379 . S
C1627 N1625 1.356 . S
N1628 C1620 1.356 . S
N1628 H1634 0.984 . S
N1628 H1635 0.984 . S
N1629 C1622 1.356 . S
N1629 H1632 0.984 . S
N1629 H1633 0.985 . S
H1630 N1625 0.984 . S
H1631 N1625 0.985 . S
H1632 N1629 0.984 . S
H1633 N1629 0.985 . S
H1634 N1628 0.984 . S
H1635 N1628 0.984 . S
H1636 N1624 0.984 . S
H1637 N1624 0.985 . S
C1638 C1639 1.363 . S
C1638 C1644 1.379 . S
C1638 N1646 1.356 . S
C1639 C1638 1.363 . S
C1639 C1645 1.363 . S
C1640 C1641 1.363 . S
C1640 C1645 1.379 . S
C1640 N1647 1.356 . S
C1641 C1640 1.363 . S
C1641 C1644 1.363 . S
N1642 C1644 1.356 . S
N1642 H1654 0.984 . S
N1642 H1655 0.985 . S
N1643 C1645 1.356 . S
N1643 H1648 0.984 . S
N1643 H1649 0.985 . S
C1644 C1638 1.379 . S
C1644 C1641 1.363 . S
C1644 N1642 1.356 . S
C1645 C1639 1.363 . S
C1645 C1640 1.379 . S
C1645 N1643 1.356 . S
N1646 C1638 1.356 . S
N1646 H1652 0.984 . S
N1646 H1653 0.984 . S
N1647 C1640 1.356 . S
N1647 H1650 0.984 . S
N1647 H1651 0.985 . S
H1648 N1643 0.984 . S
H1649 N1643 0.985 . S
H1650 N1647 0.984 . S
H1651 N1647 0.985 . S
H1652 N1646 0.984 . S
H1653 N1646 0.984 . S
H1654 N1642 0.984 . S
H1655 N1642 0.985 . S
C1656 C1657 1.363 . S
C1656 C1662 1.379 1_455 S
C1656 N1664 1.356 . S
C1657 C1656 1.363 . S
C1657 C1663 1.363 . S
C1658 C1659 1.363 . S
C1658 C1663 1.379 1_655 S
C1658 N1665 1.356 . S
C1659 C1658 1.363 . S
C1659 C1662 1.363 . S
N1660 C1662 1.356 . S
N1660 H1672 0.984 . S
N1660 H1673 0.985 . S
N1661 C1663 1.356 . S
N1661 H1666 0.984 . S
N1661 H1667 0.985 . S
C1662 C1656 1.379 1_655 S
C1662 C1659 1.363 . S
C1662 N1660 1.356 . S
C1663 C1657 1.363 . S
C1663 C1658 1.379 1_455 S
C1663 N1661 1.356 . S
N1664 C1656 1.356 . S
N1664 H1670 0.984 . S
N1664 H1671 0.984 . S
N1665 C1658 1.356 . S
N1665 H1668 0.984 . S
N1665 H1669 0.985 . S
H1666 N1661 0.984 . S
H1667 N1661 0.985 . S
H1668 N1665 0.984 . S
H1669 N1665 0.985 . S
H1670 N1664 0.984 . S
H1671 N1664 0.984 . S
H1672 N1660 0.984 . S
H1673 N1660 0.985 . S
C1674 C1675 1.363 . S
C1674 C1680 1.379 . S
C1674 N1682 1.356 . S
C1675 C1674 1.363 . S
C1675 C1681 1.363 . S
C1676 C1677 1.363 . S
C1676 C1681 1.379 . S
C1676 N1683 1.356 . S
C1677 C1676 1.363 . S
C1677 C1680 1.363 . S
N1678 C1680 1.356 . S
N1678 H1690 0.984 . S
N1678 H1691 0.985 . S
N1679 C1681 1.356 . S
N1679 H1684 0.984 . S
N1679 H1685 0.985 . S
C1680 C1674 1.379 . S
C1680 C1677 1.363 . S
C1680 N1678 1.356 . S
C1681 C1675 1.363 . S
C1681 C1676 1.379 . S
C1681 N1679 1.356 . S
N1682 C1674 1.356 . S
N1682 H1688 0.984 . S
N1682 H1689 0.984 . S
N1683 C1676 1.356 . S
N1683 H1686 0.984 . S
N1683 H1687 0.985 . S
H1684 N1679 0.984 . S
H1685 N1679 0.985 . S
H1686 N1683 0.984 . S
H1687 N1683 0.985 . S
H1688 N1682 0.984 . S
H1689 N1682 0.984 . S
H1690 N1678 0.984 . S
H1691 N1678 0.985 . S
C1692 C1693 1.363 . S
C1692 C1698 1.379 1_545 S
C1692 N1700 1.356 . S
C1693 C1692 1.363 . S
C1693 C1699 1.363 . S
C1694 C1695 1.363 . S
C1694 C1699 1.379 1_565 S
C1694 N1701 1.356 . S
C1695 C1694 1.363 . S
C1695 C1698 1.363 . S
N1696 C1698 1.356 . S
N1696 H1708 0.984 . S
N1696 H1709 0.985 . S
N1697 C1699 1.356 . S
N1697 H1702 0.984 . S
N1697 H1703 0.985 . S
C1698 C1692 1.379 1_565 S
C1698 C1695 1.363 . S
C1698 N1696 1.356 . S
C1699 C1693 1.363 . S
C1699 C1694 1.379 1_545 S
C1699 N1697 1.356 . S
N1700 C1692 1.356 . S
N1700 H1706 0.984 . S
N1700 H1707 0.984 . S
N1701 C1694 1.356 . S
N1701 H1704 0.984 . S
N1701 H1705 0.985 . S
H1702 N1697 0.984 . S
H1703 N1697 0.985 . S
H1704 N1701 0.984 . S
H1705 N1701 0.985 . S
H1706 N1700 0.984 . S
H1707 N1700 0.984 . S
H1708 N1696 0.984 . S
H1709 N1696 0.985 . S
C1710 C1711 1.363 . S
C1710 C1716 1.379 1_545 S
C1710 N1718 1.356 . S
C1711 C1710 1.363 . S
C1711 C1717 1.363 1_554 S
C1712 C1713 1.363 . S
C1712 C1717 1.379 1_565 S
C1712 N1719 1.356 . S
C1713 C1712 1.363 . S
C1713 C1716 1.363 1_556 S
N1714 C1716 1.356 . S
N1714 H1726 0.984 . S
N1714 H1727 0.985 . S
N1715 C1717 1.356 . S
N1715 H1720 0.984 . S
N1715 H1721 0.985 . S
C1716 C1710 1.379 1_565 S
C1716 C1713 1.363 1_554 S
C1716 N1714 1.356 . S
C1717 C1711 1.363 1_556 S
C1717 C1712 1.379 1_545 S
C1717 N1715 1.356 . S
N1718 C1710 1.356 . S
N1718 H1724 0.984 . S
N1718 H1725 0.984 . S
N1719 C1712 1.356 . S
N1719 H1722 0.984 . S
N1719 H1723 0.985 . S
H1720 N1715 0.984 . S
H1721 N1715 0.985 . S
H1722 N1719 0.984 . S
H1723 N1719 0.985 . S
H1724 N1718 0.984 . S
H1725 N1718 0.984 . S
H1726 N1714 0.984 . S
H1727 N1714 0.985 . S
C1728 C1729 1.363 . S
C1728 C1734 1.379 1_655 S
C1728 N1736 1.356 . S
C1729 C1728 1.363 . S
C1729 C1735 1.363 1_554 S
C1730 C1731 1.363 . S
C1730 C1735 1.379 1_455 S
C1730 N1737 1.356 . S
C1731 C1730 1.363 . S
C1731 C1734 1.363 1_556 S
N1732 C1734 1.356 . S
N1732 H1744 0.986 . S
N1732 H1745 0.983 1_554 S
N1733 C1735 1.356 . S
N1733 H1738 0.983 1_556 S
N1733 H1739 0.986 . S
C1734 C1728 1.379 1_455 S
C1734 C1731 1.363 1_554 S
C1734 N1732 1.356 . S
C1735 C1729 1.363 1_556 S
C1735 C1730 1.379 1_655 S
C1735 N1733 1.356 . S
N1736 C1728 1.356 . S
N1736 H1742 0.984 . S
N1736 H1743 0.984 . S
N1737 C1730 1.356 . S
N1737 H1740 0.984 . S
N1737 H1741 0.985 . S
H1738 N1733 0.983 1_554 S
H1739 N1733 0.986 . S
H1740 N1737 0.984 . S
H1741 N1737 0.985 . S
H1742 N1736 0.984 . S
H1743 N1736 0.984 . S
H1744 N1732 0.986 . S
H1745 N1732 0.983 1_556 S
C1746 C1747 1.363 . S
C1746 C1752 1.379 . S
C1746 N1754 1.356 . S
C1747 C1746 1.363 . S
C1747 C1753 1.363 1_554 S
C1748 C1749 1.363 . S
C1748 C1753 1.379 . S
C1748 N1755 1.356 . S
C1749 C1748 1.363 . S
C1749 C1752 1.363 1_556 S
N1750 C1752 1.356 . S
N1750 H1762 0.984 . S
N1750 H1763 0.985 . S
N1751 C1753 1.356 . S
N1751 H1756 0.984 . S
N1751 H1757 0.985 . S
C1752 C1746 1.379 . S
C1752 C1749 1.363 1_554 S
C1752 N1750 1.356 . S
C1753 C1747 1.363 1_556 S
C1753 C1748 1.379 . S
C1753 N1751 1.356 . S
N1754 C1746 1.356 . S
N1754 H1760 0.984 . S
N1754 H1761 0.984 . S
N1755 C1748 1.356 . S
N1755 H1758 0.984 . S
N1755 H1759 0.985 . S
H1756 N1751 0.984 . S
H1757 N1751 0.985 . S
H1758 N1755 0.984 . S
H1759 N1755 0.985 . S
H1760 N1754 0.984 . S
H1761 N1754 0.984 . S
H1762 N1750 0.984 . S
H1763 N1750 0.985 . S
C469 C134 1.434 . S
C471 C5 1.433 . S
C487 C147 1.434 . S
C489 C18 1.433 . S
C505 C29 1.433 . S
C507 C121 1.434 . S
C523 C44 1.433 . S
C525 C108 1.434 . S
C541 C57 1.432 . S
C543 C82 1.434 . S
C559 C101 1.434 . S
C561 C68 1.433 . S
C577 C56 1.434 . S
C579 C83 1.433 . S
C595 C75 1.434 . S
C597 C94 1.433 . S
C613 C109 1.433 . S
C615 C43 1.434 . S
C631 C36 1.434 . S
C633 C122 1.433 . S
C649 C135 1.432 . S
C651 C4 1.434 . S
C667 C148 1.433 . S
C669 C17 1.434 . S
C685 C296 1.434 . S
C687 C161 1.433 . S
C703 C303 1.434 . S
C705 C174 1.433 . S
C721 C187 1.433 . S
C723 C277 1.434 . S
C739 C200 1.433 . S
C741 C264 1.434 1_556 S
C757 C213 1.432 . S
C759 C238 1.434 1_556 S
C775 C226 1.433 . S
C777 C251 1.434 1_556 S
C793 C212 1.434 . S
C795 C239 1.433 . S
C811 C225 1.434 . S
C813 C252 1.433 . S
C829 C199 1.434 . S
C831 C265 1.433 . S
C847 C186 1.434 . S
C849 C278 1.433 . S
C865 C160 1.434 . S
C867 C289 1.432 . S
C883 C173 1.434 . S
C885 C304 1.433 . S
C901 C315 1.433 . S
C903 C452 1.434 . S
C919 C459 1.434 . S
C921 C328 1.433 . S
C937 C433 1.434 . S
C939 C341 1.433 . S
C955 C356 1.433 . S
C957 C426 1.434 . S
C973 C367 1.432 . S
C975 C400 1.434 . S
C991 C382 1.433 . S
C993 C413 1.434 . S
C1009 C374 1.434 . S
C1011 C393 1.433 . S
C1027 C381 1.434 . S
C1029 C406 1.433 . S
C1045 C355 1.434 . S
C1047 C419 1.433 . S
C1063 C434 1.433 . S
C1065 C348 1.434 1_554 S
C1081 C322 1.434 1_554 S
C1083 C445 1.432 . S
C1099 C460 1.433 . S
C1101 C335 1.434 1_554 S
C1117 C49 1.553 . S
C1119 C10 1.553 . S
C1135 C62 1.553 . S
C1137 C23 1.553 . S
C1153 C30 1.553 . S
C1155 C69 1.553 . S
C1171 C127 1.553 . S
C1173 C88 1.553 . S
C1189 C140 1.553 . S
C1191 C95 1.553 . S
C1207 C153 1.553 . S
C1209 C114 1.553 . S
C1225 C205 1.553 . S
C1227 C166 1.553 . S
C1243 C218 1.553 . S
C1245 C179 1.553 . S
C1261 C192 1.553 . S
C1263 C231 1.553 . S
C1279 C244 1.553 . S
C1281 C283 1.553 . S
C1297 C290 1.553 . S
C1299 C257 1.553 . S
C1315 C270 1.553 . S
C1317 C309 1.553 . S
C1333 C361 1.553 . S
C1335 C316 1.553 . S
C1351 C368 1.553 . S
C1353 C329 1.553 . S
C1369 C342 1.553 . S
C1371 C387 1.553 . S
C1387 C394 1.553 . S
C1389 C439 1.553 . S
C1405 C407 1.553 . S
C1407 C446 1.553 . S
C1423 C420 1.553 . S
C1425 C465 1.553 . S
C1441 C3 1.540 . S
C1443 C237 1.540 . S
C1459 C250 1.541 . S
C1461 C16 1.541 . S
C1477 C263 1.540 . S
C1479 C31 1.540 . S
C1495 C432 1.540 . S
C1497 C42 1.540 . S
C1513 C447 1.540 . S
C1515 C55 1.540 . S
C1531 C458 1.541 . S
C1533 C70 1.541 . S
C1549 C81 1.540 . S
C1551 C317 1.541 . S
C1567 C330 1.541 . S
C1569 C96 1.541 . S
C1585 C343 1.540 . S
C1587 C107 1.540 . S
C1603 C120 1.540 . S
C1605 C198 1.540 . S
C1621 C133 1.540 . S
C1623 C211 1.540 . S
C1639 C146 1.541 . S
C1641 C224 1.541 . S
C1657 C395 1.540 . S
C1659 C159 1.540 . S
C1675 C408 1.541 . S
C1677 C172 1.541 . S
C1693 C185 1.540 . S
C1695 C421 1.540 . S
C1711 C276 1.540 . S
C1713 C354 1.540 . S
C1729 C291 1.540 . S
C1731 C369 1.540 . S
C1747 C302 1.541 . S
C1749 C380 1.541 . S
