# Generated by pormake.
# Topology gis, (4)-cn, num edge types: 1
# Building blocks:
#     Node 0, Type 0, BuildingBlock: QUQFOY_clean_sbu_3, # of connection points: 4
#     Node 1, Type 0, BuildingBlock: QUQFOY_clean_sbu_3, # of connection points: 4
#     Node 2, Type 0, BuildingBlock: QUQFOY_clean_sbu_3, # of connection points: 4
#     Node 3, Type 0, BuildingBlock: QUQFOY_clean_sbu_3, # of connection points: 4
#     Node 4, Type 0, BuildingBlock: QUQFOY_clean_sbu_3, # of connection points: 4
#     Node 5, Type 0, BuildingBlock: QUQFOY_clean_sbu_3, # of connection points: 4
#     Node 6, Type 0, BuildingBlock: QUQFOY_clean_sbu_3, # of connection points: 4
#     Node 7, Type 0, BuildingBlock: QUQFOY_clean_sbu_3, # of connection points: 4
#     Node 8, Type 0, BuildingBlock: QUQFOY_clean_sbu_3, # of connection points: 4
#     Node 9, Type 0, BuildingBlock: QUQFOY_clean_sbu_3, # of connection points: 4
#     Node 10, Type 0, BuildingBlock: QUQFOY_clean_sbu_3, # of connection points: 4
#     Node 11, Type 0, BuildingBlock: QUQFOY_clean_sbu_3, # of connection points: 4
#     Node 12, Type 0, BuildingBlock: QUQFOY_clean_sbu_3, # of connection points: 4
#     Node 13, Type 0, BuildingBlock: QUQFOY_clean_sbu_3, # of connection points: 4
#     Node 14, Type 0, BuildingBlock: QUQFOY_clean_sbu_3, # of connection points: 4
#     Node 15, Type 0, BuildingBlock: QUQFOY_clean_sbu_3, # of connection points: 4
#     Edge 16, Type (0, 0), None
#     Edge 17, Type (0, 0), None
#     Edge 18, Type (0, 0), None
#     Edge 19, Type (0, 0), None
#     Edge 20, Type (0, 0), None
#     Edge 21, Type (0, 0), None
#     Edge 22, Type (0, 0), None
#     Edge 23, Type (0, 0), None
#     Edge 24, Type (0, 0), None
#     Edge 25, Type (0, 0), None
#     Edge 26, Type (0, 0), None
#     Edge 27, Type (0, 0), None
#     Edge 28, Type (0, 0), None
#     Edge 29, Type (0, 0), None
#     Edge 30, Type (0, 0), None
#     Edge 31, Type (0, 0), None
#     Edge 32, Type (0, 0), None
#     Edge 33, Type (0, 0), None
#     Edge 34, Type (0, 0), None
#     Edge 35, Type (0, 0), None
#     Edge 36, Type (0, 0), None
#     Edge 37, Type (0, 0), None
#     Edge 38, Type (0, 0), None
#     Edge 39, Type (0, 0), None
#     Edge 40, Type (0, 0), None
#     Edge 41, Type (0, 0), None
#     Edge 42, Type (0, 0), None
#     Edge 43, Type (0, 0), None
#     Edge 44, Type (0, 0), None
#     Edge 45, Type (0, 0), None
#     Edge 46, Type (0, 0), None
#     Edge 47, Type (0, 0), None
# Relax obj value: 0.064
# Max RMSD: 0.135
# Mean RMSD: 0.127
data_MOF--net-gis--node1-QUQFOY_clean_sbu_3--edge1-none
_symmetry_space_group_name_H-M    P1
_symmetry_Int_Tables_number       1
_symmetry_cell_setting            triclinic
loop_
_symmetry_equiv_pos_as_xyz
'x, y, z'
_cell_length_a     24.220359
_cell_length_b     23.376262
_cell_length_c     24.642057
_cell_angle_alpha  89.975655
_cell_angle_beta   90.145385
_cell_angle_gamma 89.981004
loop_
_atom_site_label
_atom_site_type_symbol
_atom_site_fract_x
_atom_site_fract_y
_atom_site_fract_z
_atom_type_partial_charge
C0 C 0.20795 0.59724 0.07953 0.0
O1 O 0.16406 0.59484 0.10736 0.0
Cd2 Cd 0.07864 0.63006 0.06885 0.0
O3 O 0.20577 0.60881 0.02919 0.0
Cd4 Cd 0.13533 0.62313 -0.04153 0.0
C5 C 0.12505 0.75482 0.00697 0.0
O6 O 0.04156 0.58885 -0.012 0.0
O7 O 0.04937 0.65744 -0.07106 0.0
O8 O 0.1583 0.53425 -0.08683 0.0
C9 C 0.01846 0.62337 -0.0452 0.0
O10 O 0.09814 0.72794 0.04327 0.0
C11 C 0.16838 0.55675 -0.1326 0.0
O12 O 0.14954 0.728 -0.03119 0.0
O13 O 0.16692 0.61109 -0.13552 0.0
C14 C 0.70707 0.96611 0.11007 0.0
O15 O 0.66314 0.9682 0.08202 0.0
Cd16 Cd 0.57732 0.93332 0.11963 0.0
O17 O 0.70505 0.95437 0.16034 0.0
Cd18 Cd 0.63515 0.93908 0.23062 0.0
C19 C 0.62327 0.80738 0.17903 0.0
O20 O 0.5419 0.97483 0.20099 0.0
O21 O 0.5489 0.90729 0.26132 0.0
O22 O 0.66071 1.02777 0.27558 0.0
C23 C 0.51845 0.94143 0.23484 0.0
O24 O 0.5959 0.8346 0.14314 0.0
C25 C 0.67031 1.00527 0.32151 0.0
O26 O 0.64804 0.83387 0.2174 0.0
O27 O 0.66736 0.95099 0.32465 0.0
C28 C 0.27683 0.46285 0.58072 0.0
O29 O 0.32012 0.45938 0.60956 0.0
Cd30 Cd 0.40316 0.42205 0.56936 0.0
O31 O 0.27917 0.45508 0.52975 0.0
Cd32 Cd 0.34929 0.43928 0.45933 0.0
C33 C 0.34925 0.30426 0.50244 0.0
O34 O 0.43918 0.47611 0.49475 0.0
O35 O 0.44032 0.41103 0.43216 0.0
O36 O 0.32284 0.52747 0.41421 0.0
C37 C 0.46668 0.44709 0.4605 0.0
O38 O 0.37892 0.32525 0.54027 0.0
C39 C 0.31537 0.50479 0.36801 0.0
O40 O 0.32815 0.33627 0.46599 0.0
O41 O 0.32021 0.45075 0.36477 0.0
C42 C 0.77518 0.09592 0.61039 0.0
O43 O 0.81944 0.09489 0.58306 0.0
Cd44 Cd 0.90344 0.13159 0.62333 0.0
O45 O 0.77654 0.10749 0.66075 0.0
Cd46 Cd 0.84629 0.12418 0.73206 0.0
C47 C 0.85406 0.25576 0.68333 0.0
O48 O 0.941 0.09081 0.70457 0.0
O49 O 0.93184 0.15947 0.76328 0.0
O50 O 0.82312 0.03512 0.77671 0.0
C51 C 0.96336 0.12531 0.73826 0.0
O52 O 0.88168 0.22934 0.64726 0.0
C53 C 0.81215 0.05746 0.82233 0.0
O54 O 0.83026 0.22858 0.72165 0.0
O55 O 0.81336 0.11179 0.8254 0.0
C56 C 0.22258 0.46369 0.60693 0.0
O57 O 0.18008 0.45481 0.57796 0.0
Cd58 Cd 0.09469 0.42163 0.61504 0.0
O59 O 0.21954 0.46279 0.65846 0.0
Cd60 Cd 0.14513 0.45205 0.72651 0.0
C61 C 0.14597 0.31248 0.69544 0.0
O62 O 0.05788 0.48418 0.68212 0.0
O63 O 0.0522 0.42501 0.74939 0.0
O64 O 0.16597 0.54291 0.77165 0.0
C65 C 0.02789 0.45799 0.71626 0.0
O66 O 0.1174 0.32868 0.65476 0.0
C67 C 0.1706 0.52102 0.81858 0.0
O68 O 0.16588 0.34866 0.72888 0.0
O69 O 0.16739 0.4669 0.82205 0.0
C70 C 0.761 0.96594 0.08312 0.0
O71 O 0.80379 0.95642 0.1115 0.0
Cd72 Cd 0.88927 0.92401 0.07374 0.0
O73 O 0.76335 0.96529 0.03154 0.0
Cd74 Cd 0.83681 0.95301 -0.03741 0.0
C75 C 0.83716 0.81381 -0.00411 0.0
O76 O 0.92432 0.98587 0.00492 0.0
O77 O 0.9297 0.92708 -0.06267 0.0
O78 O 0.81472 0.04352 -0.08209 0.0
C79 C 0.95408 0.96031 -0.02988 0.0
O80 O 0.86624 0.8305 0.03599 0.0
C81 C 0.80976 1.02165 -0.12898 0.0
O82 O 0.81685 0.84953 -0.03782 0.0
O83 O 0.81305 0.96753 -0.13253 0.0
C84 C 0.26191 0.59769 0.10676 0.0
O85 O 0.3046 0.60778 0.07864 0.0
Cd86 Cd 0.39 0.63933 0.11743 0.0
O87 O 0.26442 0.59762 0.15838 0.0
Cd88 Cd 0.33847 0.60916 0.22768 0.0
C89 C 0.33976 0.74847 0.19839 0.0
O90 O 0.42546 0.57577 0.18461 0.0
O91 O 0.43202 0.63481 0.25181 0.0
O92 O 0.31801 0.51856 0.27248 0.0
C93 C 0.45584 0.60121 0.21907 0.0
O94 O 0.36812 0.73185 0.15788 0.0
C95 C 0.31267 0.54046 0.31928 0.0
O96 O 0.31891 0.71259 0.23142 0.0
O97 O 0.315 0.59461 0.32274 0.0
C98 C 0.72147 0.09467 0.58254 0.0
O99 O 0.67781 0.09868 0.61061 0.0
Cd100 Cd 0.59092 0.13017 0.57378 0.0
O101 O 0.71954 0.09953 0.53114 0.0
Cd102 Cd 0.64619 0.111 0.46137 0.0
C103 C 0.63732 0.24752 0.50029 0.0
O104 O 0.5544 0.07992 0.49803 0.0
O105 O 0.55792 0.14262 0.43321 0.0
O106 O 0.66504 1.01964 0.41692 0.0
C107 C 0.52893 0.11093 0.46351 0.0
O108 O 0.61089 0.22484 0.53941 0.0
C109 C 0.67302 0.04114 0.3703 0.0
O110 O 0.66036 0.21664 0.46404 0.0
O111 O 0.67304 0.09544 0.3668 0.0
C112 C 0.77624 0.46862 0.59357 0.0
O113 O 0.81938 0.46616 0.56463 0.0
Cd114 Cd 0.9046 0.43374 0.60452 0.0
O115 O 0.77935 0.463 0.64486 0.0
Cd116 Cd 0.85017 0.45467 0.71714 0.0
C117 C 0.85456 0.31859 0.68048 0.0
O118 O 0.94006 0.48709 0.67912 0.0
O119 O 0.94047 0.42707 0.74637 0.0
O120 O 0.82594 0.54898 0.74736 0.0
C121 C 0.96741 0.45894 0.71439 0.0
O122 O 0.88115 0.34068 0.64116 0.0
C123 C 0.81922 0.53662 0.79702 0.0
O124 O 0.83291 0.34992 0.71719 0.0
O125 O 0.82291 0.48406 0.8102 0.0
C126 C 0.31803 0.05097 0.37424 0.0
O127 O 0.32281 0.0976 0.34834 0.0
Cd128 Cd 0.36064 0.18169 0.3897 0.0
O129 O 0.32405 0.04971 0.42562 0.0
Cd130 Cd 0.33799 0.11961 0.50091 0.0
C131 C 0.46869 0.11711 0.4613 0.0
O132 O 0.31209 0.21636 0.46613 0.0
O133 O 0.37176 0.21073 0.5315 0.0
O134 O 0.24911 0.09622 0.54184 0.0
C135 C 0.34236 0.24183 0.50083 0.0
O136 O 0.44934 0.14911 0.42394 0.0
C137 C 0.26789 0.08876 0.58946 0.0
O138 O 0.43719 0.09449 0.49677 0.0
O139 O 0.32 0.09134 0.59545 0.0
C140 C 0.69132 0.59089 0.08023 0.0
O141 O 0.64385 0.59634 0.059 0.0
Cd142 Cd 0.56382 0.62904 0.10542 0.0
O143 O 0.69784 0.59519 0.1315 0.0
Cd144 Cd 0.63416 0.6071 0.21168 0.0
C145 C 0.62149 0.74445 0.17598 0.0
O146 O 0.54246 0.57155 0.18101 0.0
O147 O 0.54424 0.63351 0.246 0.0
O148 O 0.66017 0.51747 0.25685 0.0
C149 C 0.51631 0.59958 0.21682 0.0
O150 O 0.59037 0.72275 0.13963 0.0
C151 C 0.67091 0.5405 0.3023 0.0
O152 O 0.64781 0.71266 0.20933 0.0
O153 O 0.66952 0.59481 0.30433 0.0
C154 C 0.19023 0.96625 0.10742 0.0
O155 O 0.14293 0.96273 0.12912 0.0
Cd156 Cd 0.06261 0.93045 0.08283 0.0
O157 O 0.19593 0.96164 0.05615 0.0
Cd158 Cd 0.13231 0.95463 -0.02458 0.0
C159 C 0.12281 0.81767 0.00933 0.0
O160 O 0.04123 0.98863 0.00805 0.0
O161 O 0.04212 0.93032 -0.06002 0.0
O162 O 0.16074 0.04814 -0.05442 0.0
C163 C 0.01456 0.96225 -0.02862 0.0
O164 O 0.09221 0.83918 0.04605 0.0
C165 C 0.16855 0.03538 -0.10384 0.0
O166 O 0.14799 0.84949 -0.02474 0.0
O167 O 0.16465 0.98276 -0.1166 0.0
C168 C 0.81764 0.58287 0.83734 0.0
O169 O 0.82311 0.63368 0.82013 0.0
Cd170 Cd 0.85972 0.70856 -0.12532 0.0
O171 O 0.82071 0.57185 -0.11205 0.0
Cd172 Cd 0.82537 0.63059 -0.0264 0.0
C173 C 0.95855 0.63017 -0.05127 0.0
O174 O 0.80299 0.73113 -0.05156 0.0
O175 O 0.85598 0.71715 0.01796 0.0
O176 O 0.73153 0.60478 -0.00612 0.0
C177 C 0.82958 0.75202 -0.01171 0.0
O178 O 0.94249 0.66693 -0.0861 0.0
C179 C 0.7391 0.59303 0.04362 0.0
O180 O 0.92406 0.60349 -0.02145 0.0
O181 O 0.78867 0.59355 0.06091 0.0
C182 C 0.16962 0.08129 -0.14469 0.0
O183 O 0.1618 0.13193 -0.12799 0.0
Cd184 Cd 0.12482 0.20682 0.81739 0.0
O185 O 0.16715 0.06975 0.80474 0.0
Cd186 Cd 0.15734 0.12904 0.71942 0.0
C187 C 0.02325 0.13172 0.74563 0.0
O188 O 0.18117 0.23009 0.74308 0.0
O189 O 0.12457 0.21573 0.67659 0.0
O190 O 0.24837 0.1043 0.68294 0.0
C191 C 0.15302 0.25071 0.70412 0.0
O192 O 0.03921 0.16887 0.7801 0.0
C193 C 0.23054 0.09026 0.63632 0.0
O194 O 0.05795 0.10414 0.71687 0.0
O195 O 0.17849 0.08911 0.62985 0.0
C196 C 0.72167 0.46762 0.56748 0.0
O197 O 0.67899 0.46637 0.59719 0.0
Cd198 Cd 0.59125 0.43316 0.56495 0.0
O199 O 0.71808 0.45879 0.51658 0.0
Cd200 Cd 0.64433 0.44283 0.4477 0.0
C201 C 0.63712 0.31042 0.49771 0.0
O202 O 0.55693 0.48079 0.48698 0.0
O203 O 0.55176 0.41441 0.4259 0.0
O204 O 0.66764 0.53001 0.39821 0.0
C205 C 0.52706 0.44954 0.45649 0.0
O206 O 0.61163 0.33644 0.53557 0.0
C207 C 0.67243 0.50612 0.35224 0.0
O208 O 0.65871 0.33793 0.45831 0.0
O209 O 0.66814 0.4519 0.35092 0.0
C210 C 0.31657 0.99712 0.34352 0.0
O211 O 0.3207 0.94988 0.36847 0.0
Cd212 Cd 0.35701 0.86909 0.31953 0.0
O213 O 0.32064 0.99883 0.29207 0.0
Cd214 Cd 0.32606 0.93159 0.21442 0.0
C215 C 0.4585 0.93651 0.24159 0.0
O216 O 0.30548 0.83196 0.24528 0.0
O217 O 0.35967 0.84452 0.17622 0.0
O218 O 0.23157 0.95338 0.19354 0.0
C219 C 0.33346 0.81033 0.20661 0.0
O220 O 0.44201 0.90382 0.27961 0.0
C221 C 0.23851 0.9638 0.1435 0.0
O222 O 0.42433 0.95978 0.20881 0.0
O223 O 0.28788 0.96332 0.12582 0.0
loop_
_geom_bond_atom_site_label_1
_geom_bond_atom_site_label_2
_geom_bond_distance
_geom_bond_site_symmetry_2
_ccdc_geom_bond_type
C0 O1 1.306 . S
C0 O3 1.160 . S
O1 C0 1.306 . S
O1 Cd2 2.228 . S
Cd2 O1 2.228 . S
Cd2 O6 2.273 . S
Cd2 O10 2.277 . S
O3 C0 1.160 . S
O3 Cd4 2.203 . S
Cd4 O3 2.203 . S
Cd4 O6 2.411 . S
Cd4 O7 2.333 . S
Cd4 O8 2.352 . S
Cd4 O12 2.277 . S
Cd4 O13 2.356 1_554 S
C5 O10 1.209 . S
C5 O12 1.226 . S
O6 Cd2 2.273 . S
O6 Cd4 2.411 . S
O6 C9 1.320 . S
O7 Cd4 2.333 . S
O7 C9 1.214 . S
O8 Cd4 2.352 . S
O8 C11 1.258 . S
C9 O6 1.320 . S
C9 O7 1.214 . S
O10 Cd2 2.277 . S
O10 C5 1.209 . S
C11 O8 1.258 . S
C11 O13 1.282 1_554 S
O12 Cd4 2.277 . S
O12 C5 1.226 . S
O13 Cd4 2.356 1_556 S
O13 C11 1.282 1_556 S
C14 O15 1.306 . S
C14 O17 1.160 . S
O15 C14 1.306 . S
O15 Cd16 2.228 . S
Cd16 O15 2.228 . S
Cd16 O20 2.273 . S
Cd16 O24 2.277 . S
O17 C14 1.160 . S
O17 Cd18 2.203 . S
Cd18 O17 2.203 . S
Cd18 O20 2.411 . S
Cd18 O21 2.333 . S
Cd18 O22 2.352 . S
Cd18 O26 2.277 . S
Cd18 O27 2.356 . S
C19 O24 1.209 . S
C19 O26 1.226 . S
O20 Cd16 2.273 . S
O20 Cd18 2.411 . S
O20 C23 1.320 . S
O21 Cd18 2.333 . S
O21 C23 1.214 . S
O22 Cd18 2.352 . S
O22 C25 1.258 . S
C23 O20 1.320 . S
C23 O21 1.214 . S
O24 Cd16 2.277 . S
O24 C19 1.209 . S
C25 O22 1.258 . S
C25 O27 1.282 . S
O26 Cd18 2.277 . S
O26 C19 1.226 . S
O27 Cd18 2.356 . S
O27 C25 1.282 . S
C28 O29 1.306 . S
C28 O31 1.160 . S
O29 C28 1.306 . S
O29 Cd30 2.228 . S
Cd30 O29 2.228 . S
Cd30 O34 2.273 . S
Cd30 O38 2.277 . S
O31 C28 1.160 . S
O31 Cd32 2.203 . S
Cd32 O31 2.203 . S
Cd32 O34 2.411 . S
Cd32 O35 2.333 . S
Cd32 O36 2.352 . S
Cd32 O40 2.277 . S
Cd32 O41 2.356 . S
C33 O38 1.209 . S
C33 O40 1.226 . S
O34 Cd30 2.273 . S
O34 Cd32 2.411 . S
O34 C37 1.320 . S
O35 Cd32 2.333 . S
O35 C37 1.214 . S
O36 Cd32 2.352 . S
O36 C39 1.258 . S
C37 O34 1.320 . S
C37 O35 1.214 . S
O38 Cd30 2.277 . S
O38 C33 1.209 . S
C39 O36 1.258 . S
C39 O41 1.282 . S
O40 Cd32 2.277 . S
O40 C33 1.226 . S
O41 Cd32 2.356 . S
O41 C39 1.282 . S
C42 O43 1.306 . S
C42 O45 1.160 . S
O43 C42 1.306 . S
O43 Cd44 2.228 . S
Cd44 O43 2.228 . S
Cd44 O48 2.273 . S
Cd44 O52 2.277 . S
O45 C42 1.160 . S
O45 Cd46 2.203 . S
Cd46 O45 2.203 . S
Cd46 O48 2.411 . S
Cd46 O49 2.333 . S
Cd46 O50 2.352 . S
Cd46 O54 2.277 . S
Cd46 O55 2.356 1_556 S
C47 O52 1.209 . S
C47 O54 1.226 . S
O48 Cd44 2.273 . S
O48 Cd46 2.411 . S
O48 C51 1.320 . S
O49 Cd46 2.333 . S
O49 C51 1.214 . S
O50 Cd46 2.352 . S
O50 C53 1.258 . S
C51 O48 1.320 . S
C51 O49 1.214 . S
O52 Cd44 2.277 . S
O52 C47 1.209 . S
C53 O50 1.258 . S
C53 O55 1.282 1_556 S
O54 Cd46 2.277 . S
O54 C47 1.226 . S
O55 Cd46 2.356 1_554 S
O55 C53 1.282 1_554 S
C56 O57 1.306 . S
C56 O59 1.160 . S
O57 C56 1.306 . S
O57 Cd58 2.228 . S
Cd58 O57 2.228 . S
Cd58 O62 2.273 . S
Cd58 O66 2.277 . S
O59 C56 1.160 . S
O59 Cd60 2.203 . S
Cd60 O59 2.203 . S
Cd60 O62 2.411 . S
Cd60 O63 2.333 . S
Cd60 O64 2.352 . S
Cd60 O68 2.277 . S
Cd60 O69 2.356 1_556 S
C61 O66 1.209 . S
C61 O68 1.226 . S
O62 Cd58 2.273 . S
O62 Cd60 2.411 . S
O62 C65 1.320 . S
O63 Cd60 2.333 . S
O63 C65 1.214 . S
O64 Cd60 2.352 . S
O64 C67 1.258 . S
C65 O62 1.320 . S
C65 O63 1.214 . S
O66 Cd58 2.277 . S
O66 C61 1.209 . S
C67 O64 1.258 . S
C67 O69 1.282 1_556 S
O68 Cd60 2.277 . S
O68 C61 1.226 . S
O69 Cd60 2.356 1_554 S
O69 C67 1.282 1_554 S
C70 O71 1.306 . S
C70 O73 1.160 . S
O71 C70 1.306 . S
O71 Cd72 2.228 . S
Cd72 O71 2.228 . S
Cd72 O76 2.273 . S
Cd72 O80 2.277 . S
O73 C70 1.160 . S
O73 Cd74 2.203 . S
Cd74 O73 2.203 . S
Cd74 O76 2.411 . S
Cd74 O77 2.333 . S
Cd74 O78 2.352 . S
Cd74 O82 2.277 . S
Cd74 O83 2.356 1_554 S
C75 O80 1.209 . S
C75 O82 1.226 . S
O76 Cd72 2.273 . S
O76 Cd74 2.411 . S
O76 C79 1.320 . S
O77 Cd74 2.333 . S
O77 C79 1.214 . S
O78 Cd74 2.352 . S
O78 C81 1.258 . S
C79 O76 1.320 . S
C79 O77 1.214 . S
O80 Cd72 2.277 . S
O80 C75 1.209 . S
C81 O78 1.258 . S
C81 O83 1.282 1_554 S
O82 Cd74 2.277 . S
O82 C75 1.226 . S
O83 Cd74 2.356 1_556 S
O83 C81 1.282 1_556 S
C84 O85 1.306 . S
C84 O87 1.160 . S
O85 C84 1.306 . S
O85 Cd86 2.228 . S
Cd86 O85 2.228 . S
Cd86 O90 2.273 . S
Cd86 O94 2.277 . S
O87 C84 1.160 . S
O87 Cd88 2.203 . S
Cd88 O87 2.203 . S
Cd88 O90 2.411 . S
Cd88 O91 2.333 . S
Cd88 O92 2.352 . S
Cd88 O96 2.277 . S
Cd88 O97 2.356 . S
C89 O94 1.209 . S
C89 O96 1.226 . S
O90 Cd86 2.273 . S
O90 Cd88 2.411 . S
O90 C93 1.320 . S
O91 Cd88 2.333 . S
O91 C93 1.214 . S
O92 Cd88 2.352 . S
O92 C95 1.258 . S
C93 O90 1.320 . S
C93 O91 1.214 . S
O94 Cd86 2.277 . S
O94 C89 1.209 . S
C95 O92 1.258 . S
C95 O97 1.282 . S
O96 Cd88 2.277 . S
O96 C89 1.226 . S
O97 Cd88 2.356 . S
O97 C95 1.282 . S
C98 O99 1.306 . S
C98 O101 1.160 . S
O99 C98 1.306 . S
O99 Cd100 2.228 . S
Cd100 O99 2.228 . S
Cd100 O104 2.273 . S
Cd100 O108 2.277 . S
O101 C98 1.160 . S
O101 Cd102 2.203 . S
Cd102 O101 2.203 . S
Cd102 O104 2.411 . S
Cd102 O105 2.333 . S
Cd102 O106 2.352 . S
Cd102 O110 2.277 . S
Cd102 O111 2.356 . S
C103 O108 1.209 . S
C103 O110 1.226 . S
O104 Cd100 2.273 . S
O104 Cd102 2.411 . S
O104 C107 1.320 . S
O105 Cd102 2.333 . S
O105 C107 1.214 . S
O106 Cd102 2.352 . S
O106 C109 1.258 . S
C107 O104 1.320 . S
C107 O105 1.214 . S
O108 Cd100 2.277 . S
O108 C103 1.209 . S
C109 O106 1.258 . S
C109 O111 1.282 . S
O110 Cd102 2.277 . S
O110 C103 1.226 . S
O111 Cd102 2.356 . S
O111 C109 1.282 . S
C112 O113 1.306 . S
C112 O115 1.160 . S
O113 C112 1.306 . S
O113 Cd114 2.228 . S
Cd114 O113 2.228 . S
Cd114 O118 2.273 . S
Cd114 O122 2.277 . S
O115 C112 1.160 . S
O115 Cd116 2.203 . S
Cd116 O115 2.203 . S
Cd116 O118 2.411 . S
Cd116 O119 2.333 . S
Cd116 O120 2.352 . S
Cd116 O124 2.277 . S
Cd116 O125 2.356 1_556 S
C117 O122 1.209 . S
C117 O124 1.226 . S
O118 Cd114 2.273 . S
O118 Cd116 2.411 . S
O118 C121 1.320 . S
O119 Cd116 2.333 . S
O119 C121 1.214 . S
O120 Cd116 2.352 . S
O120 C123 1.258 . S
C121 O118 1.320 . S
C121 O119 1.214 . S
O122 Cd114 2.277 . S
O122 C117 1.209 . S
C123 O120 1.258 . S
C123 O125 1.282 1_556 S
O124 Cd116 2.277 . S
O124 C117 1.226 . S
O125 Cd116 2.356 1_554 S
O125 C123 1.282 1_554 S
C126 O127 1.306 . S
C126 O129 1.160 . S
O127 C126 1.306 . S
O127 Cd128 2.228 . S
Cd128 O127 2.228 . S
Cd128 O132 2.273 . S
Cd128 O136 2.277 . S
O129 C126 1.160 . S
O129 Cd130 2.203 . S
Cd130 O129 2.203 . S
Cd130 O132 2.411 . S
Cd130 O133 2.333 . S
Cd130 O134 2.352 . S
Cd130 O138 2.277 . S
Cd130 O139 2.356 . S
C131 O136 1.209 . S
C131 O138 1.226 . S
O132 Cd128 2.273 . S
O132 Cd130 2.411 . S
O132 C135 1.320 . S
O133 Cd130 2.333 . S
O133 C135 1.214 . S
O134 Cd130 2.352 . S
O134 C137 1.258 . S
C135 O132 1.320 . S
C135 O133 1.214 . S
O136 Cd128 2.277 . S
O136 C131 1.209 . S
C137 O134 1.258 . S
C137 O139 1.282 . S
O138 Cd130 2.277 . S
O138 C131 1.226 . S
O139 Cd130 2.356 . S
O139 C137 1.282 . S
C140 O141 1.306 . S
C140 O143 1.160 . S
O141 C140 1.306 . S
O141 Cd142 2.228 . S
Cd142 O141 2.228 . S
Cd142 O146 2.273 . S
Cd142 O150 2.277 . S
O143 C140 1.160 . S
O143 Cd144 2.203 . S
Cd144 O143 2.203 . S
Cd144 O146 2.411 . S
Cd144 O147 2.333 . S
Cd144 O148 2.352 . S
Cd144 O152 2.277 . S
Cd144 O153 2.356 . S
C145 O150 1.209 . S
C145 O152 1.226 . S
O146 Cd142 2.273 . S
O146 Cd144 2.411 . S
O146 C149 1.320 . S
O147 Cd144 2.333 . S
O147 C149 1.214 . S
O148 Cd144 2.352 . S
O148 C151 1.258 . S
C149 O146 1.320 . S
C149 O147 1.214 . S
O150 Cd142 2.277 . S
O150 C145 1.209 . S
C151 O148 1.258 . S
C151 O153 1.282 . S
O152 Cd144 2.277 . S
O152 C145 1.226 . S
O153 Cd144 2.356 . S
O153 C151 1.282 . S
C154 O155 1.306 . S
C154 O157 1.160 . S
O155 C154 1.306 . S
O155 Cd156 2.228 . S
Cd156 O155 2.228 . S
Cd156 O160 2.273 . S
Cd156 O164 2.277 . S
O157 C154 1.160 . S
O157 Cd158 2.203 . S
Cd158 O157 2.203 . S
Cd158 O160 2.411 . S
Cd158 O161 2.333 . S
Cd158 O162 2.352 . S
Cd158 O166 2.277 . S
Cd158 O167 2.356 1_554 S
C159 O164 1.209 . S
C159 O166 1.226 . S
O160 Cd156 2.273 . S
O160 Cd158 2.411 . S
O160 C163 1.320 . S
O161 Cd158 2.333 . S
O161 C163 1.214 . S
O162 Cd158 2.352 . S
O162 C165 1.258 . S
C163 O160 1.320 . S
C163 O161 1.214 . S
O164 Cd156 2.277 . S
O164 C159 1.209 . S
C165 O162 1.258 . S
C165 O167 1.282 1_554 S
O166 Cd158 2.277 . S
O166 C159 1.226 . S
O167 Cd158 2.356 1_556 S
O167 C165 1.282 1_556 S
C168 O169 1.306 1_554 S
C168 O171 1.160 . S
O169 C168 1.306 1_556 S
O169 Cd170 2.228 . S
Cd170 O169 2.228 . S
Cd170 O174 2.273 1_556 S
Cd170 O178 2.277 1_556 S
O171 C168 1.160 . S
O171 Cd172 2.203 . S
Cd172 O171 2.203 . S
Cd172 O174 2.411 . S
Cd172 O175 2.333 . S
Cd172 O176 2.352 . S
Cd172 O180 2.277 . S
Cd172 O181 2.356 . S
C173 O178 1.209 . S
C173 O180 1.226 . S
O174 Cd170 2.273 1_554 S
O174 Cd172 2.411 . S
O174 C177 1.320 . S
O175 Cd172 2.333 . S
O175 C177 1.214 . S
O176 Cd172 2.352 . S
O176 C179 1.258 . S
C177 O174 1.320 . S
C177 O175 1.214 . S
O178 Cd170 2.277 1_554 S
O178 C173 1.209 . S
C179 O176 1.258 . S
C179 O181 1.282 . S
O180 Cd172 2.277 . S
O180 C173 1.226 . S
O181 Cd172 2.356 . S
O181 C179 1.282 . S
C182 O183 1.306 1_556 S
C182 O185 1.160 . S
O183 C182 1.306 1_554 S
O183 Cd184 2.228 . S
Cd184 O183 2.228 . S
Cd184 O188 2.273 1_554 S
Cd184 O192 2.277 1_554 S
O185 C182 1.160 . S
O185 Cd186 2.203 . S
Cd186 O185 2.203 . S
Cd186 O188 2.411 . S
Cd186 O189 2.333 . S
Cd186 O190 2.352 . S
Cd186 O194 2.277 . S
Cd186 O195 2.356 . S
C187 O192 1.209 . S
C187 O194 1.226 . S
O188 Cd184 2.273 1_556 S
O188 Cd186 2.411 . S
O188 C191 1.320 . S
O189 Cd186 2.333 . S
O189 C191 1.214 . S
O190 Cd186 2.352 . S
O190 C193 1.258 . S
C191 O188 1.320 . S
C191 O189 1.214 . S
O192 Cd184 2.277 1_556 S
O192 C187 1.209 . S
C193 O190 1.258 . S
C193 O195 1.282 . S
O194 Cd186 2.277 . S
O194 C187 1.226 . S
O195 Cd186 2.356 . S
O195 C193 1.282 . S
C196 O197 1.306 . S
C196 O199 1.160 . S
O197 C196 1.306 . S
O197 Cd198 2.228 . S
Cd198 O197 2.228 . S
Cd198 O202 2.273 . S
Cd198 O206 2.277 . S
O199 C196 1.160 . S
O199 Cd200 2.203 . S
Cd200 O199 2.203 . S
Cd200 O202 2.411 . S
Cd200 O203 2.333 . S
Cd200 O204 2.352 . S
Cd200 O208 2.277 . S
Cd200 O209 2.356 . S
C201 O206 1.209 . S
C201 O208 1.226 . S
O202 Cd198 2.273 . S
O202 Cd200 2.411 . S
O202 C205 1.320 . S
O203 Cd200 2.333 . S
O203 C205 1.214 . S
O204 Cd200 2.352 . S
O204 C207 1.258 . S
C205 O202 1.320 . S
C205 O203 1.214 . S
O206 Cd198 2.277 . S
O206 C201 1.209 . S
C207 O204 1.258 . S
C207 O209 1.282 . S
O208 Cd200 2.277 . S
O208 C201 1.226 . S
O209 Cd200 2.356 . S
O209 C207 1.282 . S
C210 O211 1.306 . S
C210 O213 1.160 . S
O211 C210 1.306 . S
O211 Cd212 2.228 . S
Cd212 O211 2.228 . S
Cd212 O216 2.273 . S
Cd212 O220 2.277 . S
O213 C210 1.160 . S
O213 Cd214 2.203 . S
Cd214 O213 2.203 . S
Cd214 O216 2.411 . S
Cd214 O217 2.333 . S
Cd214 O218 2.352 . S
Cd214 O222 2.277 . S
Cd214 O223 2.356 . S
C215 O220 1.209 . S
C215 O222 1.226 . S
O216 Cd212 2.273 . S
O216 Cd214 2.411 . S
O216 C219 1.320 . S
O217 Cd214 2.333 . S
O217 C219 1.214 . S
O218 Cd214 2.352 . S
O218 C221 1.258 . S
C219 O216 1.320 . S
C219 O217 1.214 . S
O220 Cd212 2.277 . S
O220 C215 1.209 . S
C221 O218 1.258 . S
C221 O223 1.282 . S
O222 Cd214 2.277 . S
O222 C215 1.226 . S
O223 Cd214 2.356 . S
O223 C221 1.282 . S
C159 C5 1.380 . S
C215 C23 1.377 . S
C33 C135 1.438 . S
C187 C51 1.318 1_455 S
C61 C191 1.380 . S
C79 C163 1.387 1_655 S
C89 C219 1.448 . S
C107 C131 1.332 . S
C47 C117 1.384 . S
C145 C19 1.315 . S
C177 C75 1.381 . S
C201 C103 1.332 . S
C65 C121 1.445 1_455 S
C149 C93 1.385 . S
C205 C37 1.436 . S
C9 C173 1.374 1_455 S
C11 C67 1.423 1_554 S
C14 C70 1.406 . S
C39 C95 1.553 . S
C98 C42 1.266 . S
C123 C168 1.456 1_556 S
C193 C137 1.293 . S
C151 C207 1.358 . S
C221 C154 1.381 . S
C109 C25 1.311 1_545 S
C28 C56 1.538 . S
C53 C81 1.447 1_546 S
C0 C84 1.401 . S
C126 C210 1.561 1_545 S
C179 C140 1.382 . S
C165 C182 1.453 1_564 S
C196 C112 1.477 . S
