# Generated by pormake.
# Topology som, (6)-cn, num edge types: 1
# Building blocks:
#     Node 0, Type 0, BuildingBlock: HISSIN_clean_sbu_0, # of connection points: 6
#     Node 1, Type 0, BuildingBlock: HISSIN_clean_sbu_0, # of connection points: 6
#     Node 2, Type 0, BuildingBlock: HISSIN_clean_sbu_0, # of connection points: 6
#     Node 3, Type 0, BuildingBlock: HISSIN_clean_sbu_0, # of connection points: 6
#     Node 4, Type 0, BuildingBlock: HISSIN_clean_sbu_0, # of connection points: 6
#     Node 5, Type 0, BuildingBlock: HISSIN_clean_sbu_0, # of connection points: 6
#     Node 6, Type 0, BuildingBlock: HISSIN_clean_sbu_0, # of connection points: 6
#     Node 7, Type 0, BuildingBlock: HISSIN_clean_sbu_0, # of connection points: 6
#     Node 8, Type 0, BuildingBlock: HISSIN_clean_sbu_0, # of connection points: 6
#     Node 9, Type 0, BuildingBlock: HISSIN_clean_sbu_0, # of connection points: 6
#     Node 10, Type 0, BuildingBlock: HISSIN_clean_sbu_0, # of connection points: 6
#     Node 11, Type 0, BuildingBlock: HISSIN_clean_sbu_0, # of connection points: 6
#     Node 12, Type 0, BuildingBlock: HISSIN_clean_sbu_0, # of connection points: 6
#     Node 13, Type 0, BuildingBlock: HISSIN_clean_sbu_0, # of connection points: 6
#     Node 14, Type 0, BuildingBlock: HISSIN_clean_sbu_0, # of connection points: 6
#     Node 15, Type 0, BuildingBlock: HISSIN_clean_sbu_0, # of connection points: 6
#     Node 16, Type 0, BuildingBlock: HISSIN_clean_sbu_0, # of connection points: 6
#     Node 17, Type 0, BuildingBlock: HISSIN_clean_sbu_0, # of connection points: 6
#     Node 18, Type 0, BuildingBlock: HISSIN_clean_sbu_0, # of connection points: 6
#     Node 19, Type 0, BuildingBlock: HISSIN_clean_sbu_0, # of connection points: 6
#     Node 20, Type 0, BuildingBlock: HISSIN_clean_sbu_0, # of connection points: 6
#     Node 21, Type 0, BuildingBlock: HISSIN_clean_sbu_0, # of connection points: 6
#     Node 22, Type 0, BuildingBlock: HISSIN_clean_sbu_0, # of connection points: 6
#     Node 23, Type 0, BuildingBlock: HISSIN_clean_sbu_0, # of connection points: 6
#     Node 24, Type 0, BuildingBlock: HISSIN_clean_sbu_0, # of connection points: 6
#     Node 25, Type 0, BuildingBlock: HISSIN_clean_sbu_0, # of connection points: 6
#     Node 26, Type 0, BuildingBlock: HISSIN_clean_sbu_0, # of connection points: 6
#     Node 27, Type 0, BuildingBlock: HISSIN_clean_sbu_0, # of connection points: 6
#     Node 28, Type 0, BuildingBlock: HISSIN_clean_sbu_0, # of connection points: 6
#     Node 29, Type 0, BuildingBlock: HISSIN_clean_sbu_0, # of connection points: 6
#     Node 30, Type 0, BuildingBlock: HISSIN_clean_sbu_0, # of connection points: 6
#     Node 31, Type 0, BuildingBlock: HISSIN_clean_sbu_0, # of connection points: 6
#     Edge 32, Type (0, 0), None
#     Edge 33, Type (0, 0), None
#     Edge 34, Type (0, 0), None
#     Edge 35, Type (0, 0), None
#     Edge 36, Type (0, 0), None
#     Edge 37, Type (0, 0), None
#     Edge 38, Type (0, 0), None
#     Edge 39, Type (0, 0), None
#     Edge 40, Type (0, 0), None
#     Edge 41, Type (0, 0), None
#     Edge 42, Type (0, 0), None
#     Edge 43, Type (0, 0), None
#     Edge 44, Type (0, 0), None
#     Edge 45, Type (0, 0), None
#     Edge 46, Type (0, 0), None
#     Edge 47, Type (0, 0), None
#     Edge 48, Type (0, 0), None
#     Edge 49, Type (0, 0), None
#     Edge 50, Type (0, 0), None
#     Edge 51, Type (0, 0), None
#     Edge 52, Type (0, 0), None
#     Edge 53, Type (0, 0), None
#     Edge 54, Type (0, 0), None
#     Edge 55, Type (0, 0), None
#     Edge 56, Type (0, 0), None
#     Edge 57, Type (0, 0), None
#     Edge 58, Type (0, 0), None
#     Edge 59, Type (0, 0), None
#     Edge 60, Type (0, 0), None
#     Edge 61, Type (0, 0), None
#     Edge 62, Type (0, 0), None
#     Edge 63, Type (0, 0), None
#     Edge 64, Type (0, 0), None
#     Edge 65, Type (0, 0), None
#     Edge 66, Type (0, 0), None
#     Edge 67, Type (0, 0), None
#     Edge 68, Type (0, 0), None
#     Edge 69, Type (0, 0), None
#     Edge 70, Type (0, 0), None
#     Edge 71, Type (0, 0), None
#     Edge 72, Type (0, 0), None
#     Edge 73, Type (0, 0), None
#     Edge 74, Type (0, 0), None
#     Edge 75, Type (0, 0), None
#     Edge 76, Type (0, 0), None
#     Edge 77, Type (0, 0), None
#     Edge 78, Type (0, 0), None
#     Edge 79, Type (0, 0), None
#     Edge 80, Type (0, 0), None
#     Edge 81, Type (0, 0), None
#     Edge 82, Type (0, 0), None
#     Edge 83, Type (0, 0), None
#     Edge 84, Type (0, 0), None
#     Edge 85, Type (0, 0), None
#     Edge 86, Type (0, 0), None
#     Edge 87, Type (0, 0), None
#     Edge 88, Type (0, 0), None
#     Edge 89, Type (0, 0), None
#     Edge 90, Type (0, 0), None
#     Edge 91, Type (0, 0), None
#     Edge 92, Type (0, 0), None
#     Edge 93, Type (0, 0), None
#     Edge 94, Type (0, 0), None
#     Edge 95, Type (0, 0), None
#     Edge 96, Type (0, 0), None
#     Edge 97, Type (0, 0), None
#     Edge 98, Type (0, 0), None
#     Edge 99, Type (0, 0), None
#     Edge 100, Type (0, 0), None
#     Edge 101, Type (0, 0), None
#     Edge 102, Type (0, 0), None
#     Edge 103, Type (0, 0), None
#     Edge 104, Type (0, 0), None
#     Edge 105, Type (0, 0), None
#     Edge 106, Type (0, 0), None
#     Edge 107, Type (0, 0), None
#     Edge 108, Type (0, 0), None
#     Edge 109, Type (0, 0), None
#     Edge 110, Type (0, 0), None
#     Edge 111, Type (0, 0), None
#     Edge 112, Type (0, 0), None
#     Edge 113, Type (0, 0), None
#     Edge 114, Type (0, 0), None
#     Edge 115, Type (0, 0), None
#     Edge 116, Type (0, 0), None
#     Edge 117, Type (0, 0), None
#     Edge 118, Type (0, 0), None
#     Edge 119, Type (0, 0), None
#     Edge 120, Type (0, 0), None
#     Edge 121, Type (0, 0), None
#     Edge 122, Type (0, 0), None
#     Edge 123, Type (0, 0), None
#     Edge 124, Type (0, 0), None
#     Edge 125, Type (0, 0), None
#     Edge 126, Type (0, 0), None
#     Edge 127, Type (0, 0), None
# Relax obj value: 0.086
# Max RMSD: 0.180
# Mean RMSD: 0.180
data_MOF--net-som--node1-HISSIN_clean_sbu_0--edge1-none
_symmetry_space_group_name_H-M    P1
_symmetry_Int_Tables_number       1
_symmetry_cell_setting            triclinic
loop_
_symmetry_equiv_pos_as_xyz
'x, y, z'
_cell_length_a     16.089675
_cell_length_b     23.152246
_cell_length_c     51.028177
_cell_angle_alpha  89.999043
_cell_angle_beta   89.999975
_cell_angle_gamma 90.000152
loop_
_atom_site_label
_atom_site_type_symbol
_atom_site_fract_x
_atom_site_fract_y
_atom_site_fract_z
_atom_type_partial_charge
Eu0 Eu 1.01711 0.48235 0.0505 0.0
Eu1 Eu 0.16763 0.40412 0.0363 0.0
C2 C 0.07845 0.45348 -0.00904 0.0
C3 C 0.79165 0.5088 0.05036 0.0
C4 C 0.7742 0.47819 0.02718 0.0
C5 C 0.64983 0.49423 0.06451 0.0
C6 C 0.69467 0.45509 0.02295 0.0
C7 C 0.72966 0.51524 0.06891 0.0
C8 C 0.63126 0.46286 0.04172 0.0
C9 C 0.87478 0.53158 0.05653 0.0
O10 O 0.21346 0.49921 0.03956 0.0
O11 O 0.09427 0.55307 0.03588 0.0
C12 C 0.17447 0.54946 0.03605 0.0
O13 O 0.11841 0.49634 0.08328 0.0
O14 O 0.26328 0.36835 0.01041 0.0
O15 O 0.26565 0.34962 0.05196 0.0
O16 O 0.15521 0.40404 0.07928 0.0
C17 C 0.16652 0.45309 0.0909 0.0
O18 O 0.96888 0.39353 0.05896 0.0
O19 O 1.0508 0.34604 0.02978 0.0
O20 O 0.1532 0.45071 -0.00039 0.0
O21 O 0.91371 0.50636 0.07595 0.0
O22 O 0.92282 0.54198 0.03651 0.0
O23 O 1.01502 0.45262 0.00743 0.0
C24 C 0.39095 0.38191 0.03296 0.0
C25 C 0.4251 0.39176 0.05792 0.0
C26 C 0.51133 0.42905 0.0136 0.0
C27 C 0.50267 0.41759 0.06062 0.0
C28 C 0.43445 0.40144 0.01079 0.0
C29 C 0.54722 0.43664 0.0385 0.0
C30 C 0.3089 0.35358 0.03044 0.0
C31 C 0.97966 0.35029 0.04298 0.0
H32 H 0.82213 0.47117 0.01261 0.0
H33 H 0.6023 0.5031 0.0789 0.0
H34 H 0.68373 0.43015 0.00534 0.0
H35 H 0.74392 0.53843 0.08654 0.0
H36 H 0.39329 0.3777 0.07551 0.0
H37 H 0.54248 0.44441 -0.00373 0.0
H38 H 0.52832 0.42095 0.08017 0.0
H39 H 0.40915 0.3954 -0.00869 0.0
Eu40 Eu 0.37792 0.67112 0.0505 0.0
Eu41 Eu 0.2274 0.74936 0.0363 0.0
C42 C 0.31656 0.69999 -0.00904 0.0
C43 C 0.6034 0.64467 0.05036 0.0
C44 C 0.62079 0.67537 0.02719 0.0
C45 C 0.74526 0.65914 0.06447 0.0
C46 C 0.70033 0.69847 0.02296 0.0
C47 C 0.66543 0.63814 0.06888 0.0
C48 C 0.76378 0.69061 0.04171 0.0
C49 C 0.52026 0.62189 0.05653 0.0
O50 O 0.18158 0.65426 0.03956 0.0
O51 O 0.30077 0.6004 0.03589 0.0
C52 C 0.22057 0.60401 0.03605 0.0
O53 O 0.27663 0.65713 0.08328 0.0
O54 O 0.13176 0.78513 0.01041 0.0
O55 O 0.12938 0.80386 0.05196 0.0
O56 O 0.23982 0.74942 0.07928 0.0
C57 C 0.22851 0.70037 0.0909 0.0
O58 O 0.42615 0.75994 0.05896 0.0
O59 O 0.34424 0.80743 0.02978 0.0
O60 O 0.24182 0.70276 -0.00039 0.0
O61 O 0.48134 0.64713 0.07595 0.0
O62 O 0.47222 0.61149 0.03651 0.0
O63 O 0.38001 0.70085 0.00743 0.0
C64 C 1.00408 0.77157 0.03295 0.0
C65 C 0.96996 0.76166 0.05792 0.0
C66 C 0.88367 0.72449 0.01358 0.0
C67 C 0.89239 0.73583 0.06061 0.0
C68 C 0.96055 0.7521 0.01078 0.0
C69 C 0.84782 0.71684 0.03849 0.0
C70 C 0.08613 0.7999 0.03044 0.0
C71 C 0.41537 0.80318 0.04298 0.0
H72 H 0.57282 0.68246 0.01264 0.0
H73 H 0.79284 0.6502 0.07884 0.0
H74 H 0.71123 0.72347 0.00537 0.0
H75 H 0.65121 0.61489 0.0865 0.0
H76 H 1.0018 0.77567 0.07551 0.0
H77 H 0.85248 0.70919 -0.00375 0.0
H78 H 0.86676 0.73241 0.08016 0.0
H79 H 0.98582 0.75819 -0.0087 0.0
Eu80 Eu 1.01711 0.6711 0.15331 0.0
Eu81 Eu 0.16763 0.74934 0.1675 0.0
C82 C 0.07845 0.69998 0.21285 0.0
C83 C 0.79164 0.64465 0.15344 0.0
C84 C 0.7742 0.67526 0.17663 0.0
C85 C 0.64983 0.65923 0.1393 0.0
C86 C 0.69466 0.69837 0.18086 0.0
C87 C 0.72966 0.63822 0.13489 0.0
C88 C 0.63126 0.6906 0.16208 0.0
C89 C 0.87478 0.62187 0.14728 0.0
O90 O 0.21346 0.65425 0.16425 0.0
O91 O 0.09427 0.60039 0.16792 0.0
C92 C 0.17447 0.60399 0.16775 0.0
O93 O 0.11841 0.65712 0.12053 0.0
O94 O 0.26328 0.7851 0.19339 0.0
O95 O 0.26565 0.80384 0.15184 0.0
O96 O 0.15521 0.74942 0.12452 0.0
C97 C 0.1665 0.70037 0.11291 0.0
O98 O 0.96887 0.75992 0.14485 0.0
O99 O 1.0508 0.80742 0.17403 0.0
O100 O 0.1532 0.70275 0.2042 0.0
O101 O 0.91371 0.6471 0.12786 0.0
O102 O 0.92281 0.61147 0.1673 0.0
O103 O 1.01501 0.70084 0.19638 0.0
C104 C 0.39095 0.77155 0.17085 0.0
C105 C 0.42511 0.7617 0.14588 0.0
C106 C 0.51133 0.72441 0.19021 0.0
C107 C 0.50267 0.73587 0.14318 0.0
C108 C 0.43445 0.75202 0.19301 0.0
C109 C 0.54721 0.71682 0.1653 0.0
C110 C 0.3089 0.79988 0.17336 0.0
C111 C 0.97966 0.80317 0.16083 0.0
H112 H 0.82212 0.68228 0.1912 0.0
H113 H 0.6023 0.65036 0.1249 0.0
H114 H 0.68372 0.7233 0.19846 0.0
H115 H 0.74392 0.61502 0.11726 0.0
H116 H 0.39329 0.77576 0.12829 0.0
H117 H 0.54248 0.70905 0.20754 0.0
H118 H 0.52832 0.73251 0.12364 0.0
H119 H 0.40915 0.75806 0.2125 0.0
Eu120 Eu 0.37793 0.48234 0.15331 0.0
Eu121 Eu 0.2274 0.4041 0.1675 0.0
C122 C 0.31657 0.45347 0.21284 0.0
C123 C 0.6034 0.50879 0.15345 0.0
C124 C 0.62079 0.4781 0.17662 0.0
C125 C 0.74526 0.49432 0.13934 0.0
C126 C 0.70033 0.45499 0.18085 0.0
C127 C 0.66543 0.51532 0.13492 0.0
C128 C 0.76378 0.46285 0.1621 0.0
C129 C 0.52026 0.53157 0.14728 0.0
O130 O 0.18158 0.4992 0.16425 0.0
O131 O 0.30077 0.55305 0.16792 0.0
C132 C 0.22057 0.54945 0.16776 0.0
O133 O 0.27663 0.49633 0.12053 0.0
O134 O 0.13176 0.36833 0.19339 0.0
O135 O 0.12938 0.3496 0.15184 0.0
O136 O 0.23982 0.40403 0.12452 0.0
C137 C 0.22853 0.45308 0.11291 0.0
O138 O 0.42615 0.39352 0.14485 0.0
O139 O 0.34424 0.34603 0.17403 0.0
O140 O 0.24182 0.45069 0.2042 0.0
O141 O 0.48134 0.50633 0.12786 0.0
O142 O 0.47222 0.54197 0.1673 0.0
O143 O 0.38001 0.45261 0.19638 0.0
C144 C 1.00408 0.38189 0.17085 0.0
C145 C 0.96996 0.3918 0.14589 0.0
C146 C 0.88367 0.42896 0.19022 0.0
C147 C 0.89239 0.41763 0.14319 0.0
C148 C 0.96055 0.40136 0.19302 0.0
C149 C 0.84782 0.43662 0.16532 0.0
C150 C 0.08613 0.35356 0.17336 0.0
C151 C 0.41537 0.35027 0.16083 0.0
H152 H 0.57283 0.47101 0.19116 0.0
H153 H 0.79284 0.50325 0.12497 0.0
H154 H 0.71123 0.42999 0.19844 0.0
H155 H 0.65121 0.53857 0.11731 0.0
H156 H 1.00179 0.37779 0.12829 0.0
H157 H 0.85249 0.44426 0.20755 0.0
H158 H 0.86676 0.42105 0.12365 0.0
H159 H 0.98583 0.39526 0.21251 0.0
Eu160 Eu 0.97739 0.49934 0.9175 0.0
Eu161 Eu 0.12791 0.4211 0.90331 0.0
C162 C 0.9785 0.45036 0.86291 0.0
C163 C 0.75407 0.52155 0.92084 0.0
C164 C 0.71991 0.51171 0.89588 0.0
C165 C 0.6337 0.4744 0.94021 0.0
C166 C 0.64235 0.48588 0.89318 0.0
C167 C 0.71057 0.50201 0.94301 0.0
C168 C 0.59781 0.46682 0.9153 0.0
C169 C 0.83612 0.54988 0.92336 0.0
O170 O 0.17614 0.50992 0.89485 0.0
O171 O 0.09422 0.55741 0.92403 0.0
C172 C 0.16536 0.55317 0.91083 0.0
O173 O 0.99181 0.45275 0.9542 0.0
O174 O 0.2313 0.3971 0.87785 0.0
O175 O 0.22221 0.36147 0.9173 0.0
O176 O 0.13 0.45083 0.94638 0.0
C177 C 1.06656 0.44997 0.96284 0.0
O178 O 0.93156 0.40425 0.91425 0.0
O179 O 1.05075 0.35039 0.91792 0.0
O180 O 1.02661 0.40712 0.87053 0.0
O181 O 0.88174 0.53511 0.94339 0.0
O182 O 0.87937 0.55384 0.90184 0.0
O183 O 0.98982 0.49942 0.87452 0.0
C184 C 0.35337 0.39466 0.90344 0.0
C185 C 0.37082 0.42525 0.92663 0.0
C186 C 0.49518 0.40924 0.88929 0.0
C187 C 0.45036 0.44836 0.93085 0.0
C188 C 0.41535 0.38823 0.88489 0.0
C189 C 0.51376 0.4406 0.91208 0.0
C190 C 0.27024 0.37187 0.89728 0.0
C191 C 0.97055 0.35399 0.91775 0.0
H192 H 0.75172 0.52578 0.87829 0.0
H193 H 0.60255 0.45903 0.95753 0.0
H194 H 0.61669 0.48253 0.87364 0.0
H195 H 0.73587 0.50805 0.96249 0.0
H196 H 0.32291 0.43227 0.9412 0.0
H197 H 0.54271 0.40037 0.87489 0.0
H198 H 0.4613 0.47329 0.94846 0.0
H199 H 0.40109 0.36504 0.86726 0.0
Eu200 Eu 0.91762 0.1541 0.91751 0.0
Eu201 Eu 0.7671 0.23234 0.90331 0.0
C202 C 0.91652 0.20309 0.86291 0.0
C203 C 0.14094 0.13189 0.92086 0.0
C204 C 0.17506 0.14181 0.89589 0.0
C205 C 0.26136 0.17896 0.94023 0.0
C206 C 0.25262 0.16764 0.8932 0.0
C207 C 0.18447 0.15135 0.94303 0.0
C208 C 0.2972 0.18662 0.91532 0.0
C209 C 1.05889 0.10356 0.92337 0.0
O210 O 0.71887 0.14351 0.89484 0.0
O211 O 0.80078 0.09603 0.92403 0.0
C212 C 0.72965 0.10027 0.91083 0.0
O213 O 0.9032 0.2007 0.9542 0.0
O214 O 0.66368 0.25632 0.87786 0.0
O215 O 0.6728 0.29197 0.9173 0.0
O216 O 0.76501 0.20261 0.94638 0.0
C217 C 0.82845 0.20347 0.96285 0.0
O218 O 0.96344 0.2492 0.91425 0.0
O219 O 0.84425 0.30305 0.91792 0.0
O220 O 0.86839 0.24633 0.87053 0.0
O221 O 1.01326 0.11833 0.9434 0.0
O222 O 1.01564 0.0996 0.90185 0.0
O223 O 0.90521 0.15403 0.87452 0.0
C224 C 0.54162 0.25878 0.90345 0.0
C225 C 0.52424 0.22808 0.92662 0.0
C226 C 0.39975 0.24433 0.88934 0.0
C227 C 0.4447 0.20498 0.93085 0.0
C228 C 0.47958 0.26533 0.88493 0.0
C229 C 0.38124 0.21285 0.9121 0.0
C230 C 0.62476 0.28156 0.89728 0.0
C231 C 0.92445 0.29945 0.91776 0.0
H232 H 0.14321 0.1278 0.8783 0.0
H233 H 0.29255 0.19425 0.95756 0.0
H234 H 0.27824 0.17106 0.87365 0.0
H235 H 0.15921 0.14525 0.96251 0.0
H236 H 0.57221 0.22098 0.94116 0.0
H237 H 0.35217 0.25328 0.87497 0.0
H238 H 0.4338 0.17997 0.94844 0.0
H239 H 0.4938 0.28858 0.86731 0.0
Eu240 Eu 0.97739 0.15412 0.7863 0.0
Eu241 Eu 0.12791 0.23235 0.8005 0.0
C242 C 0.97852 0.20309 0.8409 0.0
C243 C 0.75407 0.13191 0.78296 0.0
C244 C 0.71991 0.14175 0.80792 0.0
C245 C 0.6337 0.17905 0.7636 0.0
C246 C 0.64235 0.16758 0.81062 0.0
C247 C 0.71058 0.15145 0.7608 0.0
C248 C 0.59781 0.18663 0.78851 0.0
C249 C 0.83612 0.10358 0.78045 0.0
O250 O 0.17615 0.14354 0.80896 0.0
O251 O 0.09422 0.09604 0.77978 0.0
C252 C 0.16536 0.10029 0.79298 0.0
O253 O 0.99182 0.2007 0.74961 0.0
O254 O 0.23131 0.25636 0.82595 0.0
O255 O 0.22221 0.29198 0.7865 0.0
O256 O 0.13 0.20262 0.75743 0.0
C257 C 1.06657 0.20348 0.74096 0.0
O258 O 0.93156 0.24921 0.78956 0.0
O259 O 1.05075 0.30306 0.78588 0.0
O260 O 1.02661 0.24634 0.83327 0.0
O261 O 0.88174 0.11835 0.76042 0.0
O262 O 0.87937 0.09962 0.80196 0.0
O263 O 0.98982 0.15404 0.82929 0.0
C264 C 0.35338 0.2588 0.80036 0.0
C265 C 0.37083 0.22821 0.77717 0.0
C266 C 0.49518 0.24422 0.81452 0.0
C267 C 0.45036 0.2051 0.77295 0.0
C268 C 0.41535 0.26522 0.81892 0.0
C269 C 0.51376 0.21285 0.79173 0.0
C270 C 0.27024 0.28159 0.80653 0.0
C271 C 0.97055 0.29946 0.78605 0.0
H272 H 0.75172 0.12768 0.82552 0.0
H273 H 0.60255 0.19442 0.74627 0.0
H274 H 0.61669 0.17093 0.83017 0.0
H275 H 0.73588 0.14541 0.74131 0.0
H276 H 0.32291 0.2212 0.76261 0.0
H277 H 0.5427 0.25308 0.82891 0.0
H278 H 0.46131 0.18017 0.75534 0.0
H279 H 0.40109 0.28841 0.83655 0.0
Eu280 Eu 0.91762 0.49935 0.7863 0.0
Eu281 Eu 0.76709 0.42112 0.8005 0.0
C282 C 0.91649 0.45037 0.8409 0.0
C283 C 0.14094 0.52156 0.78295 0.0
C284 C 0.17506 0.51165 0.80791 0.0
C285 C 0.26135 0.4745 0.76358 0.0
C286 C 0.25262 0.48582 0.81061 0.0
C287 C 0.18447 0.5021 0.76078 0.0
C288 C 0.2972 0.46684 0.78849 0.0
C289 C 1.05889 0.5499 0.78044 0.0
O290 O 0.71887 0.50994 0.80896 0.0
O291 O 0.80078 0.55743 0.77978 0.0
C292 C 0.72965 0.55318 0.79298 0.0
O293 O 0.9032 0.45276 0.74961 0.0
O294 O 0.66368 0.39713 0.82595 0.0
O295 O 0.6728 0.36149 0.78651 0.0
O296 O 0.76501 0.45085 0.75743 0.0
C297 C 0.82845 0.44998 0.74096 0.0
O298 O 0.96344 0.40426 0.78956 0.0
O299 O 0.84425 0.3504 0.78589 0.0
O300 O 0.86839 0.40713 0.83328 0.0
O301 O 1.01326 0.53512 0.76041 0.0
O302 O 1.01564 0.55385 0.80196 0.0
O303 O 0.90521 0.49943 0.82928 0.0
C304 C 0.54162 0.39467 0.80035 0.0
C305 C 0.52424 0.42537 0.77719 0.0
C306 C 0.39975 0.40913 0.81446 0.0
C307 C 0.4447 0.44847 0.77296 0.0
C308 C 0.47958 0.38813 0.81888 0.0
C309 C 0.38124 0.4406 0.7917 0.0
C310 C 0.62476 0.37189 0.80653 0.0
C311 C 0.92445 0.35401 0.78605 0.0
H312 H 0.14322 0.52565 0.82551 0.0
H313 H 0.29254 0.4592 0.74625 0.0
H314 H 0.27825 0.48239 0.83016 0.0
H315 H 0.1592 0.50821 0.7413 0.0
H316 H 0.5722 0.43247 0.76264 0.0
H317 H 0.35217 0.40018 0.82883 0.0
H318 H 0.4338 0.47348 0.75537 0.0
H319 H 0.4938 0.36487 0.83649 0.0
Eu320 Eu 1.01711 -0.01765 0.5505 0.0
Eu321 Eu 0.16763 0.90412 0.5363 0.0
C322 C 0.07845 -0.04652 0.49096 0.0
C323 C 0.79165 0.0088 0.55036 0.0
C324 C 0.77421 -0.02181 0.52718 0.0
C325 C 0.64983 -0.00577 0.56451 0.0
C326 C 0.69467 -0.04491 0.52295 0.0
C327 C 0.72966 0.01524 0.56892 0.0
C328 C 0.63126 -0.03714 0.54172 0.0
C329 C 0.87478 0.03158 0.55653 0.0
O330 O 0.21346 -0.00079 0.53956 0.0
O331 O 0.09427 0.05307 0.53588 0.0
C332 C 0.17447 0.04946 0.53605 0.0
O333 O 0.11841 -0.00366 0.58328 0.0
O334 O 0.26328 0.86835 0.51041 0.0
O335 O 0.26565 0.84962 0.55196 0.0
O336 O 0.15521 0.90404 0.57928 0.0
C337 C 0.16652 -0.04691 0.5909 0.0
O338 O 0.96888 0.89353 0.55896 0.0
O339 O 1.0508 0.84604 0.52978 0.0
O340 O 0.1532 0.95071 0.49961 0.0
O341 O 0.91371 0.00635 0.57595 0.0
O342 O 0.92282 0.04198 0.53651 0.0
O343 O 1.01502 -0.04738 0.50743 0.0
C344 C 0.39095 0.88191 0.53296 0.0
C345 C 0.4251 0.89176 0.55792 0.0
C346 C 0.51133 0.92905 0.5136 0.0
C347 C 0.50267 0.91759 0.56062 0.0
C348 C 0.43445 0.90144 0.51079 0.0
C349 C 0.54722 0.93663 0.5385 0.0
C350 C 0.3089 0.85358 0.53044 0.0
C351 C 0.97966 0.85029 0.54298 0.0
H352 H 0.82213 -0.02883 0.51261 0.0
H353 H 0.6023 0.0031 0.5789 0.0
H354 H 0.68373 0.93015 0.50534 0.0
H355 H 0.74392 0.03843 0.58654 0.0
H356 H 0.39329 0.8777 0.57551 0.0
H357 H 0.54248 0.94441 0.49627 0.0
H358 H 0.52832 0.92095 0.58017 0.0
H359 H 0.40916 0.8954 0.49131 0.0
Eu360 Eu 0.37792 0.17112 0.5505 0.0
Eu361 Eu 0.2274 0.24936 0.5363 0.0
C362 C 0.31656 0.19999 0.49096 0.0
C363 C 0.60339 0.14467 0.55036 0.0
C364 C 0.62078 0.17537 0.52719 0.0
C365 C 0.74526 0.15914 0.56447 0.0
C366 C 0.70032 0.19847 0.52296 0.0
C367 C 0.66543 0.13814 0.56888 0.0
C368 C 0.76377 0.19061 0.54171 0.0
C369 C 0.52026 0.12189 0.55653 0.0
O370 O 0.18158 0.15426 0.53956 0.0
O371 O 0.30077 0.1004 0.53589 0.0
C372 C 0.22057 0.10401 0.53605 0.0
O373 O 0.27662 0.15713 0.58328 0.0
O374 O 0.13176 0.28513 0.51041 0.0
O375 O 0.12938 0.30386 0.55196 0.0
O376 O 0.23982 0.24942 0.57928 0.0
C377 C 0.22851 0.20037 0.5909 0.0
O378 O 0.42615 0.25994 0.55896 0.0
O379 O 0.34424 0.30743 0.52978 0.0
O380 O 0.24182 0.20276 0.49961 0.0
O381 O 0.48134 0.14713 0.57595 0.0
O382 O 0.47222 0.11149 0.53651 0.0
O383 O 0.38 0.20085 0.50743 0.0
C384 C 1.00408 0.27157 0.53295 0.0
C385 C 0.96996 0.26166 0.55792 0.0
C386 C 0.88367 0.22449 0.51358 0.0
C387 C 0.89239 0.23583 0.56061 0.0
C388 C 0.96055 0.2521 0.51078 0.0
C389 C 0.84782 0.21684 0.53849 0.0
C390 C 0.08613 0.2999 0.53044 0.0
C391 C 0.41537 0.30318 0.54298 0.0
H392 H 0.57282 0.18246 0.51264 0.0
H393 H 0.79284 0.1502 0.57884 0.0
H394 H 0.71123 0.22347 0.50537 0.0
H395 H 0.65121 0.11489 0.5865 0.0
H396 H 1.0018 0.27567 0.57551 0.0
H397 H 0.85248 0.20919 0.49625 0.0
H398 H 0.86676 0.23241 0.58016 0.0
H399 H 0.98582 0.2582 0.4913 0.0
Eu400 Eu 1.01711 0.1711 0.65331 0.0
Eu401 Eu 0.16763 0.24934 0.6675 0.0
C402 C 0.07845 0.19997 0.71284 0.0
C403 C 0.79164 0.14465 0.65344 0.0
C404 C 0.7742 0.17526 0.67663 0.0
C405 C 0.64983 0.15923 0.6393 0.0
C406 C 0.69466 0.19837 0.68085 0.0
C407 C 0.72966 0.13822 0.63489 0.0
C408 C 0.63126 0.1906 0.66208 0.0
C409 C 0.87478 0.12187 0.64728 0.0
O410 O 0.21346 0.15425 0.66425 0.0
O411 O 0.09427 0.10039 0.66792 0.0
C412 C 0.17447 0.10399 0.66775 0.0
O413 O 0.1184 0.15712 0.62053 0.0
O414 O 0.26328 0.28511 0.69339 0.0
O415 O 0.26565 0.30384 0.65184 0.0
O416 O 0.1552 0.24942 0.62452 0.0
C417 C 0.1665 0.20037 0.61291 0.0
O418 O 0.96887 0.25992 0.64485 0.0
O419 O 1.0508 0.30741 0.67403 0.0
O420 O 0.1532 0.20275 0.7042 0.0
O421 O 0.91371 0.1471 0.62785 0.0
O422 O 0.92281 0.11147 0.6673 0.0
O423 O 1.01501 0.20083 0.69638 0.0
C424 C 0.39095 0.27155 0.67085 0.0
C425 C 0.42511 0.2617 0.64588 0.0
C426 C 0.51133 0.22441 0.69021 0.0
C427 C 0.50267 0.23587 0.64318 0.0
C428 C 0.43445 0.25202 0.69301 0.0
C429 C 0.54721 0.21682 0.6653 0.0
C430 C 0.3089 0.29988 0.67336 0.0
C431 C 0.97966 0.30317 0.66083 0.0
H432 H 0.82212 0.18228 0.6912 0.0
H433 H 0.6023 0.15036 0.6249 0.0
H434 H 0.68372 0.2233 0.69846 0.0
H435 H 0.74392 0.11503 0.61726 0.0
H436 H 0.39329 0.27576 0.62829 0.0
H437 H 0.54248 0.20904 0.70754 0.0
H438 H 0.52832 0.23251 0.62364 0.0
H439 H 0.40915 0.25806 0.7125 0.0
Eu440 Eu 0.37793 -0.01766 0.65331 0.0
Eu441 Eu 0.22741 0.9041 0.6675 0.0
C442 C 0.31657 -0.04653 0.71284 0.0
C443 C 0.6034 0.00879 0.65345 0.0
C444 C 0.62079 -0.0219 0.67662 0.0
C445 C 0.74526 -0.00568 0.63934 0.0
C446 C 0.70033 -0.04501 0.68085 0.0
C447 C 0.66543 0.01532 0.63492 0.0
C448 C 0.76378 -0.03715 0.6621 0.0
C449 C 0.52026 0.03157 0.64728 0.0
O450 O 0.18158 -0.0008 0.66425 0.0
O451 O 0.30077 0.05306 0.66792 0.0
C452 C 0.22057 0.04945 0.66775 0.0
O453 O 0.27663 -0.00367 0.62053 0.0
O454 O 0.13176 0.86833 0.69339 0.0
O455 O 0.12938 0.8496 0.65184 0.0
O456 O 0.23982 0.90403 0.62452 0.0
C457 C 0.22853 -0.04691 0.61291 0.0
O458 O 0.42616 0.89352 0.64485 0.0
O459 O 0.34424 0.84603 0.67403 0.0
O460 O 0.24182 0.95069 0.7042 0.0
O461 O 0.48134 0.00633 0.62786 0.0
O462 O 0.47222 0.04197 0.6673 0.0
O463 O 0.38001 -0.04739 0.69638 0.0
C464 C 1.00408 0.88189 0.67085 0.0
C465 C 0.96996 0.8918 0.64589 0.0
C466 C 0.88367 0.92896 0.69022 0.0
C467 C 0.89239 0.91763 0.64319 0.0
C468 C 0.96056 0.90136 0.69302 0.0
C469 C 0.84782 0.93662 0.66532 0.0
C470 C 0.08613 0.85356 0.67336 0.0
C471 C 0.41537 0.85027 0.66083 0.0
H472 H 0.57283 -0.02899 0.69117 0.0
H473 H 0.79284 0.00325 0.62497 0.0
H474 H 0.71123 0.92999 0.69844 0.0
H475 H 0.65121 0.03857 0.61731 0.0
H476 H 1.00179 0.87778 0.62829 0.0
H477 H 0.85249 0.94427 0.70755 0.0
H478 H 0.86676 0.92104 0.62365 0.0
H479 H 0.98583 0.89526 0.7125 0.0
Eu480 Eu 0.97739 -0.00066 0.41751 0.0
Eu481 Eu 0.12791 0.9211 0.40331 0.0
C482 C 0.9785 0.95036 0.36291 0.0
C483 C 0.75407 0.02155 0.42084 0.0
C484 C 0.71991 0.01171 0.39588 0.0
C485 C 0.6337 -0.0256 0.44021 0.0
C486 C 0.64235 -0.01412 0.39318 0.0
C487 C 0.71057 0.00201 0.44301 0.0
C488 C 0.5978 -0.03318 0.4153 0.0
C489 C 0.83612 0.04988 0.42336 0.0
O490 O 0.17614 0.00992 0.39485 0.0
O491 O 0.09422 0.05741 0.42403 0.0
C492 C 0.16536 0.05317 0.41083 0.0
O493 O 0.99181 -0.04725 0.4542 0.0
O494 O 0.2313 0.8971 0.37785 0.0
O495 O 0.22221 0.86147 0.4173 0.0
O496 O 0.13 0.95083 0.44638 0.0
C497 C 1.06656 0.94997 0.46285 0.0
O498 O 0.93156 0.90425 0.41425 0.0
O499 O 1.05075 0.85039 0.41792 0.0
O500 O 1.02661 0.90712 0.37053 0.0
O501 O 0.88174 0.03511 0.44339 0.0
O502 O 0.87937 0.05384 0.40184 0.0
O503 O 0.98982 -0.00058 0.37452 0.0
C504 C 0.35337 0.89466 0.40344 0.0
C505 C 0.37082 0.92526 0.42663 0.0
C506 C 0.49518 0.90924 0.38929 0.0
C507 C 0.45036 0.94836 0.43085 0.0
C508 C 0.41535 0.88823 0.38489 0.0
C509 C 0.51376 0.9406 0.41208 0.0
C510 C 0.27024 0.87187 0.39728 0.0
C511 C 0.97055 0.85399 0.41775 0.0
H512 H 0.75172 0.02578 0.37829 0.0
H513 H 0.60255 -0.04097 0.45753 0.0
H514 H 0.61669 -0.01747 0.37364 0.0
H515 H 0.73587 0.00805 0.46249 0.0
H516 H 0.32291 0.93227 0.4412 0.0
H517 H 0.54271 0.90038 0.37489 0.0
H518 H 0.4613 -0.02671 0.44846 0.0
H519 H 0.40109 0.86504 0.36726 0.0
Eu520 Eu 0.91762 0.6541 0.41751 0.0
Eu521 Eu 0.7671 0.73234 0.40331 0.0
C522 C 0.91652 0.70309 0.36291 0.0
C523 C 0.14094 0.63189 0.42086 0.0
C524 C 0.17506 0.64181 0.39589 0.0
C525 C 0.26136 0.67896 0.44023 0.0
C526 C 0.25262 0.66764 0.3932 0.0
C527 C 0.18448 0.65135 0.44303 0.0
C528 C 0.2972 0.68662 0.41532 0.0
C529 C 1.05889 0.60356 0.42337 0.0
O530 O 0.71887 0.64351 0.39484 0.0
O531 O 0.80078 0.59603 0.42403 0.0
C532 C 0.72965 0.60027 0.41083 0.0
O533 O 0.9032 0.7007 0.4542 0.0
O534 O 0.66368 0.75632 0.37786 0.0
O535 O 0.6728 0.79197 0.4173 0.0
O536 O 0.76501 0.70261 0.44638 0.0
C537 C 0.82845 0.70347 0.46285 0.0
O538 O 0.96344 0.7492 0.41425 0.0
O539 O 0.84425 0.80305 0.41792 0.0
O540 O 0.86839 0.74633 0.37053 0.0
O541 O 1.01326 0.61833 0.4434 0.0
O542 O 1.01564 0.5996 0.40185 0.0
O543 O 0.90521 0.65403 0.37452 0.0
C544 C 0.54162 0.75878 0.40345 0.0
C545 C 0.52424 0.72808 0.42662 0.0
C546 C 0.39975 0.74433 0.38934 0.0
C547 C 0.4447 0.70498 0.43085 0.0
C548 C 0.47958 0.76533 0.38493 0.0
C549 C 0.38125 0.71285 0.4121 0.0
C550 C 0.62476 0.78156 0.39728 0.0
C551 C 0.92445 0.79945 0.41776 0.0
H552 H 0.14321 0.6278 0.3783 0.0
H553 H 0.29255 0.69425 0.45756 0.0
H554 H 0.27824 0.67106 0.37365 0.0
H555 H 0.15921 0.64525 0.46251 0.0
H556 H 0.57221 0.72098 0.44116 0.0
H557 H 0.35216 0.75328 0.37498 0.0
H558 H 0.4338 0.67997 0.44844 0.0
H559 H 0.4938 0.78859 0.36731 0.0
Eu560 Eu 0.97739 0.65412 0.2863 0.0
Eu561 Eu 0.12791 0.73235 0.3005 0.0
C562 C 0.97852 0.70309 0.3409 0.0
C563 C 0.75407 0.63191 0.28296 0.0
C564 C 0.71991 0.64174 0.30793 0.0
C565 C 0.6337 0.67906 0.2636 0.0
C566 C 0.64235 0.66757 0.31063 0.0
C567 C 0.71058 0.65145 0.2608 0.0
C568 C 0.59781 0.68663 0.28851 0.0
C569 C 0.83612 0.60358 0.28045 0.0
O570 O 0.17615 0.64354 0.30896 0.0
O571 O 0.09422 0.59604 0.27978 0.0
C572 C 0.16536 0.60029 0.29298 0.0
O573 O 0.99182 0.7007 0.24961 0.0
O574 O 0.23131 0.75636 0.32595 0.0
O575 O 0.22221 0.79198 0.28651 0.0
O576 O 0.13 0.70262 0.25743 0.0
C577 C 1.06656 0.70348 0.24096 0.0
O578 O 0.93156 0.74921 0.28956 0.0
O579 O 1.05075 0.80306 0.28588 0.0
O580 O 1.02662 0.74634 0.33328 0.0
O581 O 0.88174 0.61835 0.26042 0.0
O582 O 0.87937 0.59962 0.30197 0.0
O583 O 0.98982 0.65404 0.32929 0.0
C584 C 0.35338 0.7588 0.30036 0.0
C585 C 0.37083 0.72821 0.27717 0.0
C586 C 0.49518 0.74422 0.31452 0.0
C587 C 0.45036 0.7051 0.27295 0.0
C588 C 0.41535 0.76522 0.31892 0.0
C589 C 0.51376 0.71285 0.29173 0.0
C590 C 0.27024 0.78159 0.30653 0.0
C591 C 0.97055 0.79946 0.28605 0.0
H592 H 0.75172 0.62768 0.32552 0.0
H593 H 0.60255 0.69442 0.24627 0.0
H594 H 0.61669 0.67092 0.33017 0.0
H595 H 0.73588 0.64541 0.24131 0.0
H596 H 0.32291 0.7212 0.26261 0.0
H597 H 0.54271 0.75308 0.32891 0.0
H598 H 0.46131 0.68017 0.25534 0.0
H599 H 0.40109 0.78841 0.33655 0.0
Eu600 Eu 0.91761 -0.00065 0.2863 0.0
Eu601 Eu 0.76709 0.92112 0.3005 0.0
C602 C 0.91649 0.95037 0.3409 0.0
C603 C 0.14094 0.02156 0.28295 0.0
C604 C 0.17506 0.01165 0.30791 0.0
C605 C 0.26135 -0.0255 0.26358 0.0
C606 C 0.25262 -0.01418 0.31061 0.0
C607 C 0.18447 0.0021 0.26078 0.0
C608 C 0.2972 -0.03316 0.28849 0.0
C609 C 1.05889 0.0499 0.28044 0.0
O610 O 0.71887 0.00994 0.30896 0.0
O611 O 0.80078 0.05743 0.27978 0.0
C612 C 0.72965 0.05318 0.29298 0.0
O613 O 0.9032 -0.04724 0.24961 0.0
O614 O 0.66367 0.89713 0.32595 0.0
O615 O 0.6728 0.86148 0.28651 0.0
O616 O 0.76501 0.95085 0.25743 0.0
C617 C 0.82845 0.94998 0.24096 0.0
O618 O 0.96344 0.90426 0.28956 0.0
O619 O 0.84425 0.8504 0.28589 0.0
O620 O 0.86839 0.90713 0.33328 0.0
O621 O 1.01326 0.03512 0.26041 0.0
O622 O 1.01564 0.05385 0.30196 0.0
O623 O 0.90521 -0.00057 0.32928 0.0
C624 C 0.54162 0.89467 0.30035 0.0
C625 C 0.52424 0.92537 0.27719 0.0
C626 C 0.39975 0.90913 0.31446 0.0
C627 C 0.4447 0.94847 0.27296 0.0
C628 C 0.47958 0.88813 0.31888 0.0
C629 C 0.38124 0.9406 0.2917 0.0
C630 C 0.62476 0.87189 0.30653 0.0
C631 C 0.92445 0.85401 0.28605 0.0
H632 H 0.14322 0.02566 0.32551 0.0
H633 H 0.29254 -0.0408 0.24625 0.0
H634 H 0.27825 -0.0176 0.33016 0.0
H635 H 0.1592 0.0082 0.2413 0.0
H636 H 0.5722 0.93246 0.26264 0.0
H637 H 0.35217 0.90018 0.32883 0.0
H638 H 0.4338 -0.02652 0.25537 0.0
H639 H 0.4938 0.86487 0.33649 0.0
Eu640 Eu 0.51711 0.48235 0.5505 0.0
Eu641 Eu 0.66763 0.40412 0.5363 0.0
C642 C 0.57845 0.45348 0.49096 0.0
C643 C 0.29165 0.5088 0.55036 0.0
C644 C 0.27421 0.47818 0.52718 0.0
C645 C 0.14982 0.49425 0.5645 0.0
C646 C 0.19467 0.45508 0.52295 0.0
C647 C 0.22966 0.51525 0.56891 0.0
C648 C 0.13126 0.46286 0.54172 0.0
C649 C 0.37478 0.53159 0.55653 0.0
O650 O 0.71346 0.49921 0.53956 0.0
O651 O 0.59427 0.55306 0.53588 0.0
C652 C 0.67447 0.54946 0.53605 0.0
O653 O 0.61841 0.49633 0.58328 0.0
O654 O 0.76328 0.36835 0.51041 0.0
O655 O 0.76566 0.34962 0.55196 0.0
O656 O 0.65521 0.40404 0.57928 0.0
C657 C 0.66652 0.45309 0.5909 0.0
O658 O 0.46887 0.39353 0.55896 0.0
O659 O 0.5508 0.34604 0.52978 0.0
O660 O 0.6532 0.45071 0.49961 0.0
O661 O 0.41371 0.50636 0.57595 0.0
O662 O 0.42282 0.54199 0.53651 0.0
O663 O 0.51502 0.45262 0.50743 0.0
C664 C 0.89095 0.38191 0.53296 0.0
C665 C 0.9251 0.39176 0.55792 0.0
C666 C 1.01134 0.42904 0.51359 0.0
C667 C 1.00267 0.4176 0.56062 0.0
C668 C 0.93446 0.40143 0.51079 0.0
C669 C 1.04722 0.43664 0.5385 0.0
C670 C 0.8089 0.35358 0.53044 0.0
C671 C 0.47967 0.35028 0.54298 0.0
H672 H 0.32214 0.47115 0.51262 0.0
H673 H 0.10229 0.50313 0.57889 0.0
H674 H 0.18374 0.43013 0.50535 0.0
H675 H 0.24391 0.53846 0.58654 0.0
H676 H 0.89328 0.37771 0.57551 0.0
H677 H 1.04249 0.4444 0.49627 0.0
H678 H 1.02832 0.42096 0.58017 0.0
H679 H 0.90916 0.39538 0.49131 0.0
Eu680 Eu 0.87792 0.67112 0.5505 0.0
Eu681 Eu 0.7274 0.74936 0.5363 0.0
C682 C 0.81657 0.69998 0.49096 0.0
C683 C 0.10339 0.64467 0.55036 0.0
C684 C 0.12079 0.67536 0.52719 0.0
C685 C 0.24526 0.65916 0.56448 0.0
C686 C 0.20033 0.69846 0.52296 0.0
C687 C 0.16542 0.63815 0.56889 0.0
C688 C 0.26377 0.69061 0.54171 0.0
C689 C 1.02026 0.62189 0.55653 0.0
O690 O 0.68158 0.65426 0.53956 0.0
O691 O 0.80077 0.6004 0.53589 0.0
C692 C 0.72057 0.60401 0.53605 0.0
O693 O 0.77662 0.65713 0.58328 0.0
O694 O 0.63176 0.78512 0.51041 0.0
O695 O 0.62938 0.80386 0.55195 0.0
O696 O 0.7398 0.74943 0.57928 0.0
C697 C 0.7285 0.70037 0.59089 0.0
O698 O 0.92615 0.75994 0.55896 0.0
O699 O 0.84424 0.80743 0.52978 0.0
O700 O 0.74182 0.70276 0.49961 0.0
O701 O 0.98134 0.64713 0.57595 0.0
O702 O 0.97222 0.61149 0.53651 0.0
O703 O 0.88001 0.70084 0.50743 0.0
C704 C 0.50408 0.77157 0.53295 0.0
C705 C 0.46996 0.76166 0.55791 0.0
C706 C 0.38367 0.72449 0.51358 0.0
C707 C 0.3924 0.73583 0.56061 0.0
C708 C 0.46055 0.7521 0.51078 0.0
C709 C 0.34782 0.71684 0.53849 0.0
C710 C 0.58613 0.7999 0.53044 0.0
C711 C 0.91537 0.80319 0.54298 0.0
H712 H 0.07283 0.68244 0.51264 0.0
H713 H 0.29283 0.65022 0.57885 0.0
H714 H 0.21123 0.72346 0.50537 0.0
H715 H 0.1512 0.61491 0.58651 0.0
H716 H 0.50181 0.77567 0.57551 0.0
H717 H 0.35248 0.70919 0.49625 0.0
H718 H 0.36678 0.73242 0.58016 0.0
H719 H 0.48581 0.75819 0.4913 0.0
Eu720 Eu 0.51711 0.6711 0.65331 0.0
Eu721 Eu 0.66763 0.74934 0.6675 0.0
C722 C 0.57845 0.69998 0.71285 0.0
C723 C 0.29164 0.64465 0.65345 0.0
C724 C 0.27421 0.67527 0.67663 0.0
C725 C 0.14982 0.65921 0.6393 0.0
C726 C 0.19467 0.69838 0.68085 0.0
C727 C 0.22966 0.6382 0.6349 0.0
C728 C 0.13126 0.69059 0.66209 0.0
C729 C 0.37478 0.62187 0.64728 0.0
O730 O 0.71346 0.65425 0.66424 0.0
O731 O 0.59427 0.60039 0.66792 0.0
C732 C 0.67447 0.60399 0.66775 0.0
O733 O 0.6184 0.65712 0.62053 0.0
O734 O 0.76328 0.7851 0.69339 0.0
O735 O 0.76566 0.80384 0.65184 0.0
O736 O 0.65521 0.74942 0.62452 0.0
C737 C 0.6665 0.70037 0.61291 0.0
O738 O 0.46886 0.75992 0.64485 0.0
O739 O 0.5508 0.80742 0.67402 0.0
O740 O 0.6532 0.70275 0.7042 0.0
O741 O 0.41371 0.6471 0.62786 0.0
O742 O 0.42281 0.61147 0.6673 0.0
O743 O 0.51501 0.70084 0.69638 0.0
C744 C 0.89095 0.77155 0.67085 0.0
C745 C 0.9251 0.76169 0.64589 0.0
C746 C 1.01133 0.72441 0.69021 0.0
C747 C 1.00267 0.73586 0.64319 0.0
C748 C 0.93445 0.75202 0.69302 0.0
C749 C 1.04722 0.71682 0.66531 0.0
C750 C 0.8089 0.79988 0.67336 0.0
C751 C 0.47967 0.80317 0.66083 0.0
H752 H 0.32213 0.6823 0.69119 0.0
H753 H 0.10229 0.65033 0.62491 0.0
H754 H 0.18374 0.72332 0.69846 0.0
H755 H 0.24391 0.615 0.61727 0.0
H756 H 0.89329 0.77575 0.62829 0.0
H757 H 1.04249 0.70906 0.70754 0.0
H758 H 1.02832 0.7325 0.62364 0.0
H759 H 0.90916 0.75807 0.7125 0.0
Eu760 Eu 0.87793 0.48234 0.65331 0.0
Eu761 Eu 0.7274 0.4041 0.66751 0.0
C762 C 0.81657 0.45348 0.71285 0.0
C763 C 0.1034 0.50879 0.65345 0.0
C764 C 0.12079 0.4781 0.67662 0.0
C765 C 0.24526 0.4943 0.63933 0.0
C766 C 0.20033 0.455 0.68085 0.0
C767 C 0.16542 0.5153 0.63492 0.0
C768 C 0.26377 0.46285 0.6621 0.0
C769 C 1.02026 0.53157 0.64728 0.0
O770 O 0.68158 0.4992 0.66425 0.0
O771 O 0.80077 0.55305 0.66792 0.0
C772 C 0.72057 0.54945 0.66775 0.0
O773 O 0.77663 0.49633 0.62053 0.0
O774 O 0.63176 0.36834 0.6934 0.0
O775 O 0.62938 0.3496 0.65185 0.0
O776 O 0.7398 0.40403 0.62452 0.0
C777 C 0.72852 0.45308 0.61291 0.0
O778 O 0.92616 0.39352 0.64485 0.0
O779 O 0.84423 0.34603 0.67403 0.0
O780 O 0.74182 0.4507 0.7042 0.0
O781 O 0.98134 0.50633 0.62786 0.0
O782 O 0.97222 0.54197 0.6673 0.0
O783 O 0.88001 0.45261 0.69638 0.0
C784 C 0.50408 0.38189 0.67086 0.0
C785 C 0.46996 0.3918 0.64589 0.0
C786 C 0.38367 0.42897 0.69022 0.0
C787 C 0.3924 0.41763 0.64319 0.0
C788 C 0.46055 0.40136 0.69303 0.0
C789 C 0.34782 0.43662 0.66532 0.0
C790 C 0.58613 0.35356 0.67337 0.0
C791 C 0.91537 0.35027 0.66083 0.0
H792 H 0.07284 0.47102 0.69117 0.0
H793 H 0.29283 0.50323 0.62496 0.0
H794 H 0.21124 0.43001 0.69844 0.0
H795 H 0.1512 0.53855 0.6173 0.0
H796 H 0.50181 0.37779 0.6283 0.0
H797 H 0.35248 0.44427 0.70755 0.0
H798 H 0.36677 0.42104 0.62365 0.0
H799 H 0.48582 0.39527 0.71251 0.0
Eu800 Eu 0.47739 0.49934 0.4175 0.0
Eu801 Eu 0.62791 0.4211 0.40331 0.0
C802 C 0.4785 0.45037 0.36291 0.0
C803 C 0.25407 0.52155 0.42085 0.0
C804 C 0.21991 0.5117 0.39588 0.0
C805 C 0.13369 0.47441 0.44021 0.0
C806 C 0.14235 0.48587 0.39318 0.0
C807 C 0.21057 0.50202 0.44301 0.0
C808 C 0.0978 0.46682 0.4153 0.0
C809 C 0.33612 0.54988 0.42336 0.0
O810 O 0.67615 0.50992 0.39485 0.0
O811 O 0.59422 0.55742 0.42403 0.0
C812 C 0.66536 0.55317 0.41083 0.0
O813 O 0.49181 0.45275 0.4542 0.0
O814 O 0.73131 0.3971 0.37785 0.0
O815 O 0.7222 0.36147 0.4173 0.0
O816 O 0.63 0.45083 0.44638 0.0
C817 C 0.56656 0.44997 0.46284 0.0
O818 O 0.43156 0.40425 0.41425 0.0
O819 O 0.55075 0.35039 0.41792 0.0
O820 O 0.52661 0.40712 0.37053 0.0
O821 O 0.38174 0.53511 0.44339 0.0
O822 O 0.37937 0.55384 0.40184 0.0
O823 O 0.48982 0.49942 0.37452 0.0
C824 C 0.85337 0.39465 0.40344 0.0
C825 C 0.87081 0.42527 0.42663 0.0
C826 C 0.99519 0.40922 0.3893 0.0
C827 C 0.95035 0.44837 0.43085 0.0
C828 C 0.91536 0.38822 0.38489 0.0
C829 C 1.01375 0.4406 0.41208 0.0
C830 C 0.77024 0.37187 0.39728 0.0
C831 C 0.47055 0.35399 0.41775 0.0
H832 H 0.25173 0.52576 0.37829 0.0
H833 H 0.10254 0.45905 0.45753 0.0
H834 H 0.11669 0.48251 0.37364 0.0
H835 H 0.23586 0.50806 0.46249 0.0
H836 H 0.82289 0.43229 0.44119 0.0
H837 H 1.04272 0.40035 0.3749 0.0
H838 H 0.96129 0.47331 0.44846 0.0
H839 H 0.9011 0.36502 0.36726 0.0
Eu840 Eu 0.41762 0.1541 0.41751 0.0
Eu841 Eu 0.26709 0.23233 0.40331 0.0
C842 C 0.41653 0.20308 0.36291 0.0
C843 C 0.64094 0.13189 0.42086 0.0
C844 C 0.67505 0.14181 0.3959 0.0
C845 C 0.76136 0.17896 0.44023 0.0
C846 C 0.75261 0.16764 0.3932 0.0
C847 C 0.68448 0.15135 0.44303 0.0
C848 C 0.7972 0.18662 0.41532 0.0
C849 C 0.55889 0.10356 0.42338 0.0
O850 O 0.21887 0.14351 0.39485 0.0
O851 O 0.30078 0.09603 0.42403 0.0
C852 C 0.22966 0.10027 0.41083 0.0
O853 O 0.4032 0.2007 0.4542 0.0
O854 O 0.16368 0.25632 0.37785 0.0
O855 O 0.1728 0.29197 0.41729 0.0
O856 O 0.26501 0.20261 0.44638 0.0
C857 C 0.32845 0.20348 0.46285 0.0
O858 O 0.46344 0.24919 0.41425 0.0
O859 O 0.34425 0.30305 0.41792 0.0
O860 O 0.3684 0.24632 0.37053 0.0
O861 O 0.51326 0.11834 0.4434 0.0
O862 O 0.51564 0.09959 0.40186 0.0
O863 O 0.40523 0.15403 0.37453 0.0
C864 C 1.04163 0.25878 0.40345 0.0
C865 C 1.02424 0.22809 0.42662 0.0
C866 C 0.89976 0.24431 0.38934 0.0
C867 C 0.9447 0.20499 0.43085 0.0
C868 C 0.97959 0.26531 0.38492 0.0
C869 C 0.88125 0.21285 0.4121 0.0
C870 C 0.12476 0.28156 0.39728 0.0
C871 C 0.42445 0.29945 0.41776 0.0
H872 H 0.6432 0.1278 0.3783 0.0
H873 H 0.79256 0.19425 0.45756 0.0
H874 H 0.77823 0.17106 0.37365 0.0
H875 H 0.65922 0.14525 0.46251 0.0
H876 H 1.0722 0.221 0.44116 0.0
H877 H 0.85218 0.25325 0.37497 0.0
H878 H 0.9338 0.17998 0.44844 0.0
H879 H 0.99381 0.28856 0.36731 0.0
Eu880 Eu 0.47739 0.15412 0.2863 0.0
Eu881 Eu 0.62791 0.23235 0.3005 0.0
C882 C 0.47852 0.20309 0.3409 0.0
C883 C 0.25407 0.13191 0.28296 0.0
C884 C 0.21991 0.14175 0.30792 0.0
C885 C 0.13369 0.17905 0.2636 0.0
C886 C 0.14235 0.16758 0.31062 0.0
C887 C 0.21057 0.15144 0.26079 0.0
C888 C 0.0978 0.18663 0.28851 0.0
C889 C 0.33612 0.10358 0.28045 0.0
O890 O 0.67616 0.14354 0.30896 0.0
O891 O 0.59422 0.09604 0.27978 0.0
C892 C 0.66536 0.10028 0.29298 0.0
O893 O 0.49182 0.2007 0.24961 0.0
O894 O 0.73131 0.25636 0.32595 0.0
O895 O 0.72221 0.29198 0.2865 0.0
O896 O 0.63001 0.20262 0.25743 0.0
C897 C 0.56657 0.20348 0.24096 0.0
O898 O 0.43156 0.24921 0.28956 0.0
O899 O 0.55075 0.30306 0.28588 0.0
O900 O 0.52662 0.24633 0.33328 0.0
O901 O 0.38174 0.11835 0.26042 0.0
O902 O 0.37937 0.09962 0.30196 0.0
O903 O 0.48982 0.15403 0.32929 0.0
C904 C 0.85338 0.2588 0.30036 0.0
C905 C 0.87082 0.22819 0.27717 0.0
C906 C 0.99519 0.24423 0.31451 0.0
C907 C 0.95036 0.20509 0.27295 0.0
C908 C 0.91536 0.26524 0.31891 0.0
C909 C 1.01376 0.21286 0.29172 0.0
C910 C 0.77024 0.28159 0.30653 0.0
C911 C 0.47055 0.29946 0.28606 0.0
H912 H 0.25173 0.12769 0.32552 0.0
H913 H 0.10254 0.19441 0.24627 0.0
H914 H 0.1167 0.17094 0.33017 0.0
H915 H 0.23587 0.14539 0.24131 0.0
H916 H 0.8229 0.22117 0.26261 0.0
H917 H 1.04272 0.2531 0.3289 0.0
H918 H 0.96129 0.18015 0.25534 0.0
H919 H 0.9011 0.28843 0.33654 0.0
Eu920 Eu 0.41762 0.49935 0.2863 0.0
Eu921 Eu 0.26709 0.42112 0.3005 0.0
C922 C 0.4165 0.45037 0.3409 0.0
C923 C 0.64094 0.52156 0.28295 0.0
C924 C 0.67505 0.51165 0.30791 0.0
C925 C 0.76136 0.4745 0.26358 0.0
C926 C 0.75262 0.48582 0.31061 0.0
C927 C 0.68448 0.5021 0.26078 0.0
C928 C 0.7972 0.46684 0.28849 0.0
C929 C 0.55889 0.54989 0.28043 0.0
O930 O 0.21886 0.50994 0.30896 0.0
O931 O 0.30079 0.55743 0.27978 0.0
C932 C 0.22966 0.55319 0.29298 0.0
O933 O 0.40319 0.45276 0.24961 0.0
O934 O 0.16368 0.39713 0.32595 0.0
O935 O 0.1728 0.36148 0.28651 0.0
O936 O 0.26501 0.45084 0.25743 0.0
C937 C 0.32845 0.44998 0.24096 0.0
O938 O 0.46344 0.40426 0.28956 0.0
O939 O 0.34425 0.3504 0.28589 0.0
O940 O 0.36839 0.40713 0.33327 0.0
O941 O 0.51326 0.53511 0.26041 0.0
O942 O 0.51564 0.55386 0.30195 0.0
O943 O 0.40522 0.49943 0.32928 0.0
C944 C 1.04162 0.39467 0.30036 0.0
C945 C 1.02423 0.42536 0.27719 0.0
C946 C 0.89976 0.40914 0.31447 0.0
C947 C 0.9447 0.44847 0.27296 0.0
C948 C 0.97959 0.38814 0.31888 0.0
C949 C 0.88125 0.44061 0.29171 0.0
C950 C 0.12476 0.37189 0.30653 0.0
C951 C 0.42445 0.35401 0.28605 0.0
H952 H 0.6432 0.52565 0.32551 0.0
H953 H 0.79255 0.4592 0.24625 0.0
H954 H 0.77824 0.4824 0.33016 0.0
H955 H 0.65921 0.5082 0.24129 0.0
H956 H 1.0722 0.43245 0.26264 0.0
H957 H 0.85218 0.4002 0.32884 0.0
H958 H 0.9338 0.47347 0.25537 0.0
H959 H 0.99381 0.36489 0.3365 0.0
Eu960 Eu 0.51711 -0.01765 0.0505 0.0
Eu961 Eu 0.66763 0.90412 0.0363 0.0
C962 C 0.57845 -0.04652 -0.00904 0.0
C963 C 0.29165 0.0088 0.05036 0.0
C964 C 0.27421 -0.02182 0.02718 0.0
C965 C 0.14982 -0.00575 0.0645 0.0
C966 C 0.19467 -0.04492 0.02295 0.0
C967 C 0.22966 0.01525 0.06891 0.0
C968 C 0.13126 -0.03714 0.04172 0.0
C969 C 0.37478 0.03158 0.05653 0.0
O970 O 0.71346 -0.00079 0.03956 0.0
O971 O 0.59427 0.05306 0.03588 0.0
C972 C 0.67447 0.04946 0.03605 0.0
O973 O 0.61841 -0.00367 0.08328 0.0
O974 O 0.76328 0.86835 0.01041 0.0
O975 O 0.76566 0.84962 0.05196 0.0
O976 O 0.65521 0.90404 0.07928 0.0
C977 C 0.66652 -0.04691 0.0909 0.0
O978 O 0.46887 0.89353 0.05896 0.0
O979 O 0.5508 0.84604 0.02978 0.0
O980 O 0.6532 0.95071 -0.00039 0.0
O981 O 0.41371 0.00635 0.07595 0.0
O982 O 0.42282 0.04199 0.03651 0.0
O983 O 0.51502 -0.04738 0.00743 0.0
C984 C 0.89095 0.88191 0.03296 0.0
C985 C 0.9251 0.89176 0.05792 0.0
C986 C 1.01134 0.92904 0.01359 0.0
C987 C 1.00267 0.91759 0.06062 0.0
C988 C 0.93446 0.90143 0.01079 0.0
C989 C 1.04722 0.93663 0.0385 0.0
C990 C 0.8089 0.85358 0.03044 0.0
C991 C 0.47967 0.85028 0.04298 0.0
H992 H 0.32214 -0.02885 0.01262 0.0
H993 H 0.10229 0.00313 0.07889 0.0
H994 H 0.18374 0.93013 0.00535 0.0
H995 H 0.24391 0.03845 0.08654 0.0
H996 H 0.89328 0.87771 0.07551 0.0
H997 H 1.04249 0.9444 -0.00373 0.0
H998 H 1.02831 0.92096 0.08017 0.0
H999 H 0.90917 0.89538 -0.00869 0.0
Eu1000 Eu 0.87792 0.17112 0.0505 0.0
Eu1001 Eu 0.7274 0.24936 0.0363 0.0
C1002 C 0.81657 0.19998 -0.00904 0.0
C1003 C 0.10339 0.14467 0.05036 0.0
C1004 C 0.12079 0.17536 0.02719 0.0
C1005 C 0.24526 0.15916 0.06448 0.0
C1006 C 0.20033 0.19846 0.02296 0.0
C1007 C 0.16542 0.13815 0.06889 0.0
C1008 C 0.26377 0.19061 0.04171 0.0
C1009 C 1.02026 0.12189 0.05653 0.0
O1010 O 0.68157 0.15426 0.03956 0.0
O1011 O 0.80077 0.1004 0.03589 0.0
C1012 C 0.72057 0.10401 0.03605 0.0
O1013 O 0.77662 0.15713 0.08328 0.0
O1014 O 0.63176 0.28512 0.01041 0.0
O1015 O 0.62938 0.30386 0.05195 0.0
O1016 O 0.7398 0.24943 0.07928 0.0
C1017 C 0.7285 0.20037 0.09089 0.0
O1018 O 0.92615 0.25994 0.05896 0.0
O1019 O 0.84424 0.30743 0.02978 0.0
O1020 O 0.74182 0.20276 -0.00039 0.0
O1021 O 0.98134 0.14713 0.07595 0.0
O1022 O 0.97222 0.11149 0.03651 0.0
O1023 O 0.88001 0.20084 0.00743 0.0
C1024 C 0.50408 0.27157 0.03295 0.0
C1025 C 0.46996 0.26166 0.05791 0.0
C1026 C 0.38366 0.22449 0.01358 0.0
C1027 C 0.3924 0.23583 0.06061 0.0
C1028 C 0.46055 0.2521 0.01078 0.0
C1029 C 0.34782 0.21684 0.03849 0.0
C1030 C 0.58613 0.2999 0.03044 0.0
C1031 C 0.91536 0.30319 0.04298 0.0
H1032 H 0.07283 0.18244 0.01264 0.0
H1033 H 0.29283 0.15022 0.07885 0.0
H1034 H 0.21123 0.22346 0.00537 0.0
H1035 H 0.1512 0.11491 0.08651 0.0
H1036 H 0.50181 0.27567 0.07551 0.0
H1037 H 0.35248 0.20919 -0.00375 0.0
H1038 H 0.36678 0.23241 0.08016 0.0
H1039 H 0.48581 0.25819 -0.0087 0.0
Eu1040 Eu 0.51711 0.1711 0.15331 0.0
Eu1041 Eu 0.66763 0.24934 0.1675 0.0
C1042 C 0.57845 0.19998 0.21284 0.0
C1043 C 0.29164 0.14465 0.15345 0.0
C1044 C 0.27421 0.17527 0.17663 0.0
C1045 C 0.14982 0.15921 0.1393 0.0
C1046 C 0.19467 0.19838 0.18085 0.0
C1047 C 0.22966 0.1382 0.1349 0.0
C1048 C 0.13126 0.19059 0.16208 0.0
C1049 C 0.37478 0.12187 0.14728 0.0
O1050 O 0.71346 0.15425 0.16424 0.0
O1051 O 0.59427 0.10039 0.16792 0.0
C1052 C 0.67447 0.10399 0.16775 0.0
O1053 O 0.6184 0.15712 0.12053 0.0
O1054 O 0.76328 0.28511 0.19339 0.0
O1055 O 0.76566 0.30384 0.15184 0.0
O1056 O 0.6552 0.24942 0.12452 0.0
C1057 C 0.6665 0.20037 0.11291 0.0
O1058 O 0.46886 0.25992 0.14485 0.0
O1059 O 0.5508 0.30742 0.17402 0.0
O1060 O 0.6532 0.20275 0.2042 0.0
O1061 O 0.41371 0.1471 0.12786 0.0
O1062 O 0.42281 0.11147 0.1673 0.0
O1063 O 0.51501 0.20083 0.19638 0.0
C1064 C 0.89095 0.27155 0.17085 0.0
C1065 C 0.9251 0.2617 0.14588 0.0
C1066 C 1.01133 0.22441 0.19021 0.0
C1067 C 1.00267 0.23586 0.14319 0.0
C1068 C 0.93445 0.25202 0.19301 0.0
C1069 C 1.04722 0.21682 0.1653 0.0
C1070 C 0.8089 0.29988 0.17336 0.0
C1071 C 0.47966 0.30317 0.16083 0.0
H1072 H 0.32213 0.1823 0.19119 0.0
H1073 H 0.10229 0.15033 0.12491 0.0
H1074 H 0.18373 0.22332 0.19846 0.0
H1075 H 0.24391 0.115 0.11727 0.0
H1076 H 0.89329 0.27575 0.12829 0.0
H1077 H 1.04249 0.20906 0.20754 0.0
H1078 H 1.02832 0.2325 0.12364 0.0
H1079 H 0.90916 0.25807 0.2125 0.0
Eu1080 Eu 0.87793 -0.01766 0.15331 0.0
Eu1081 Eu 0.7274 0.9041 0.16751 0.0
C1082 C 0.81657 -0.04652 0.21285 0.0
C1083 C 0.1034 0.00879 0.15345 0.0
C1084 C 0.12079 -0.0219 0.17662 0.0
C1085 C 0.24526 -0.0057 0.13933 0.0
C1086 C 0.20033 -0.045 0.18085 0.0
C1087 C 0.16542 0.0153 0.13492 0.0
C1088 C 0.26378 -0.03715 0.1621 0.0
C1089 C 1.02026 0.03157 0.14728 0.0
O1090 O 0.68158 -0.0008 0.16425 0.0
O1091 O 0.80077 0.05305 0.16792 0.0
C1092 C 0.72057 0.04945 0.16775 0.0
O1093 O 0.77663 -0.00367 0.12053 0.0
O1094 O 0.63176 0.86834 0.1934 0.0
O1095 O 0.62938 0.8496 0.15185 0.0
O1096 O 0.7398 0.90403 0.12452 0.0
C1097 C 0.72852 -0.04692 0.11291 0.0
O1098 O 0.92616 0.89352 0.14485 0.0
O1099 O 0.84424 0.84603 0.17403 0.0
O1100 O 0.74182 0.9507 0.2042 0.0
O1101 O 0.98134 0.00633 0.12786 0.0
O1102 O 0.97222 0.04197 0.1673 0.0
O1103 O 0.88001 -0.04739 0.19638 0.0
C1104 C 0.50408 0.88189 0.17086 0.0
C1105 C 0.46996 0.8918 0.14589 0.0
C1106 C 0.38367 0.92897 0.19022 0.0
C1107 C 0.3924 0.91763 0.14319 0.0
C1108 C 0.46055 0.90136 0.19303 0.0
C1109 C 0.34782 0.93662 0.16532 0.0
C1110 C 0.58613 0.85356 0.17337 0.0
C1111 C 0.91537 0.85027 0.16083 0.0
H1112 H 0.07284 -0.02898 0.19117 0.0
H1113 H 0.29283 0.00323 0.12496 0.0
H1114 H 0.21124 0.93001 0.19844 0.0
H1115 H 0.1512 0.03855 0.1173 0.0
H1116 H 0.50181 0.87779 0.1283 0.0
H1117 H 0.35248 0.94427 0.20755 0.0
H1118 H 0.36677 0.92104 0.12365 0.0
H1119 H 0.48582 0.89527 0.21251 0.0
Eu1120 Eu 0.47739 -0.00066 0.91751 0.0
Eu1121 Eu 0.62791 0.9211 0.90331 0.0
C1122 C 0.4785 0.95037 0.86291 0.0
C1123 C 0.25407 0.02155 0.92085 0.0
C1124 C 0.21991 0.0117 0.89588 0.0
C1125 C 0.13369 -0.02559 0.94021 0.0
C1126 C 0.14235 -0.01413 0.89318 0.0
C1127 C 0.21057 0.00202 0.94301 0.0
C1128 C 0.0978 -0.03318 0.9153 0.0
C1129 C 0.33612 0.04988 0.92336 0.0
O1130 O 0.67615 0.00992 0.89485 0.0
O1131 O 0.59422 0.05742 0.92403 0.0
C1132 C 0.66535 0.05317 0.91083 0.0
O1133 O 0.49181 -0.04725 0.9542 0.0
O1134 O 0.73131 0.8971 0.87785 0.0
O1135 O 0.7222 0.86147 0.9173 0.0
O1136 O 0.63 0.95083 0.94638 0.0
C1137 C 0.56656 0.94997 0.96284 0.0
O1138 O 0.43156 0.90425 0.91425 0.0
O1139 O 0.55075 0.85039 0.91792 0.0
O1140 O 0.52661 0.90712 0.87053 0.0
O1141 O 0.38174 0.03511 0.94339 0.0
O1142 O 0.37937 0.05384 0.90184 0.0
O1143 O 0.48981 -0.00058 0.87452 0.0
C1144 C 0.85337 0.89465 0.90344 0.0
C1145 C 0.87081 0.92527 0.92663 0.0
C1146 C 0.99519 0.90922 0.88929 0.0
C1147 C 0.95035 0.94837 0.93085 0.0
C1148 C 0.91536 0.88822 0.88489 0.0
C1149 C 1.01375 0.9406 0.91208 0.0
C1150 C 0.77024 0.87187 0.89728 0.0
C1151 C 0.47055 0.85399 0.91775 0.0
H1152 H 0.25173 0.02576 0.87829 0.0
H1153 H 0.10254 -0.04095 0.95753 0.0
H1154 H 0.1167 -0.01749 0.87364 0.0
H1155 H 0.23586 0.00806 0.96249 0.0
H1156 H 0.82289 0.93229 0.94119 0.0
H1157 H 1.04272 0.90035 0.8749 0.0
H1158 H 0.96129 -0.02669 0.94846 0.0
H1159 H 0.9011 0.86502 0.86726 0.0
Eu1160 Eu 0.41762 0.6541 0.91751 0.0
Eu1161 Eu 0.2671 0.73233 0.90331 0.0
C1162 C 0.41653 0.70308 0.86291 0.0
C1163 C 0.64094 0.63189 0.92086 0.0
C1164 C 0.67505 0.64181 0.8959 0.0
C1165 C 0.76136 0.67896 0.94023 0.0
C1166 C 0.75261 0.66764 0.8932 0.0
C1167 C 0.68448 0.65135 0.94303 0.0
C1168 C 0.7972 0.68662 0.91532 0.0
C1169 C 0.55889 0.60356 0.92338 0.0
O1170 O 0.21887 0.64351 0.89485 0.0
O1171 O 0.30078 0.59603 0.92403 0.0
C1172 C 0.22966 0.60027 0.91083 0.0
O1173 O 0.4032 0.7007 0.9542 0.0
O1174 O 0.16368 0.75632 0.87785 0.0
O1175 O 0.1728 0.79197 0.91729 0.0
O1176 O 0.26501 0.70261 0.94638 0.0
C1177 C 0.32845 0.70348 0.96285 0.0
O1178 O 0.46344 0.74919 0.91425 0.0
O1179 O 0.34425 0.80305 0.91792 0.0
O1180 O 0.3684 0.74632 0.87053 0.0
O1181 O 0.51326 0.61834 0.9434 0.0
O1182 O 0.51564 0.59959 0.90186 0.0
O1183 O 0.40523 0.65403 0.87453 0.0
C1184 C 1.04163 0.75878 0.90345 0.0
C1185 C 1.02424 0.72809 0.92662 0.0
C1186 C 0.89976 0.74431 0.88934 0.0
C1187 C 0.9447 0.70499 0.93085 0.0
C1188 C 0.97959 0.76531 0.88492 0.0
C1189 C 0.88125 0.71285 0.9121 0.0
C1190 C 0.12476 0.78156 0.89728 0.0
C1191 C 0.42445 0.79944 0.91776 0.0
H1192 H 0.6432 0.6278 0.8783 0.0
H1193 H 0.79256 0.69425 0.95756 0.0
H1194 H 0.77823 0.67106 0.87365 0.0
H1195 H 0.65922 0.64525 0.96251 0.0
H1196 H 1.0722 0.721 0.94116 0.0
H1197 H 0.85218 0.75325 0.87497 0.0
H1198 H 0.9338 0.67998 0.94844 0.0
H1199 H 0.99381 0.78857 0.86731 0.0
Eu1200 Eu 0.47739 0.65412 0.7863 0.0
Eu1201 Eu 0.62791 0.73235 0.8005 0.0
C1202 C 0.47853 0.70309 0.8409 0.0
C1203 C 0.25407 0.63191 0.78296 0.0
C1204 C 0.21991 0.64175 0.80792 0.0
C1205 C 0.13369 0.67905 0.7636 0.0
C1206 C 0.14235 0.66758 0.81062 0.0
C1207 C 0.21057 0.65144 0.7608 0.0
C1208 C 0.0978 0.68663 0.78851 0.0
C1209 C 0.33612 0.60358 0.78045 0.0
O1210 O 0.67616 0.64354 0.80896 0.0
O1211 O 0.59422 0.59604 0.77978 0.0
C1212 C 0.66536 0.60028 0.79298 0.0
O1213 O 0.49182 0.7007 0.74961 0.0
O1214 O 0.73131 0.75636 0.82595 0.0
O1215 O 0.72221 0.79199 0.7865 0.0
O1216 O 0.63 0.70262 0.75743 0.0
C1217 C 0.56656 0.70348 0.74096 0.0
O1218 O 0.43156 0.74921 0.78956 0.0
O1219 O 0.55075 0.80306 0.78588 0.0
O1220 O 0.52662 0.74633 0.83328 0.0
O1221 O 0.38174 0.61835 0.76042 0.0
O1222 O 0.37937 0.59962 0.80197 0.0
O1223 O 0.48982 0.65403 0.82929 0.0
C1224 C 0.85338 0.7588 0.80036 0.0
C1225 C 0.87082 0.7282 0.77718 0.0
C1226 C 0.99519 0.74423 0.81451 0.0
C1227 C 0.95036 0.70509 0.77295 0.0
C1228 C 0.91536 0.76524 0.81891 0.0
C1229 C 1.01376 0.71286 0.79173 0.0
C1230 C 0.77024 0.78159 0.80653 0.0
C1231 C 0.47055 0.79946 0.78606 0.0
H1232 H 0.25173 0.62769 0.82552 0.0
H1233 H 0.10254 0.69441 0.74627 0.0
H1234 H 0.11669 0.67094 0.83017 0.0
H1235 H 0.23587 0.64539 0.74131 0.0
H1236 H 0.8229 0.72118 0.76261 0.0
H1237 H 1.04272 0.7531 0.82891 0.0
H1238 H 0.9613 0.68015 0.75534 0.0
H1239 H 0.9011 0.78843 0.83654 0.0
Eu1240 Eu 0.41762 -0.00065 0.7863 0.0
Eu1241 Eu 0.26709 0.92112 0.8005 0.0
C1242 C 0.4165 0.95037 0.8409 0.0
C1243 C 0.64094 0.02156 0.78295 0.0
C1244 C 0.67505 0.01165 0.80791 0.0
C1245 C 0.76136 -0.0255 0.76358 0.0
C1246 C 0.75262 -0.01418 0.81061 0.0
C1247 C 0.68448 0.0021 0.76078 0.0
C1248 C 0.7972 -0.03316 0.78849 0.0
C1249 C 0.55889 0.04989 0.78043 0.0
O1250 O 0.21886 0.00994 0.80896 0.0
O1251 O 0.30078 0.05743 0.77978 0.0
C1252 C 0.22965 0.05319 0.79298 0.0
O1253 O 0.40319 -0.04724 0.74961 0.0
O1254 O 0.16368 0.89713 0.82595 0.0
O1255 O 0.1728 0.86148 0.78651 0.0
O1256 O 0.26501 0.95084 0.75743 0.0
C1257 C 0.32845 0.94998 0.74096 0.0
O1258 O 0.46344 0.90426 0.78956 0.0
O1259 O 0.34425 0.8504 0.78589 0.0
O1260 O 0.36839 0.90713 0.83327 0.0
O1261 O 0.51326 0.03511 0.76041 0.0
O1262 O 0.51564 0.05386 0.80195 0.0
O1263 O 0.40522 -0.00057 0.82928 0.0
C1264 C 1.04162 0.89467 0.80036 0.0
C1265 C 1.02423 0.92536 0.77719 0.0
C1266 C 0.89976 0.90914 0.81447 0.0
C1267 C 0.9447 0.94846 0.77296 0.0
C1268 C 0.97959 0.88814 0.81888 0.0
C1269 C 0.88125 0.94061 0.79171 0.0
C1270 C 0.12476 0.87189 0.80653 0.0
C1271 C 0.42445 0.85401 0.78605 0.0
H1272 H 0.6432 0.02565 0.82551 0.0
H1273 H 0.79255 -0.0408 0.74625 0.0
H1274 H 0.77824 -0.0176 0.83016 0.0
H1275 H 0.65921 0.0082 0.74129 0.0
H1276 H 1.07219 0.93245 0.76264 0.0
H1277 H 0.85218 0.9002 0.82884 0.0
H1278 H 0.93379 -0.02653 0.75537 0.0
H1279 H 0.99381 0.86489 0.8365 0.0
loop_
_geom_bond_atom_site_label_1
_geom_bond_atom_site_label_2
_geom_bond_distance
_geom_bond_site_symmetry_2
_ccdc_geom_bond_type
Eu0 C9 2.828 . S
Eu0 O11 2.392 1_655 S
Eu0 O13 2.418 . S
Eu0 O18 2.373 . S
Eu0 O21 2.488 . S
Eu0 O22 2.471 . S
Eu0 O23 2.349 . S
Eu1 O10 2.373 . S
Eu1 O14 2.488 . S
Eu1 O15 2.471 . S
Eu1 O16 2.349 . S
Eu1 O19 2.392 . S
Eu1 O20 2.418 . S
Eu1 C30 2.828 . S
C2 O20 1.244 . S
C2 O23 1.265 1_455 S
C3 C4 1.379 . S
C3 C7 1.373 . S
C3 C9 1.505 . S
C4 C3 1.379 . S
C4 C6 1.369 . S
C4 H32 0.930 . S
C5 C7 1.383 . S
C5 C8 1.382 . S
C5 H33 0.930 . S
C6 C4 1.369 . S
C6 C8 1.392 . S
C6 H34 0.930 . S
C7 C3 1.373 . S
C7 C5 1.383 . S
C7 H35 0.931 . S
C8 C5 1.382 . S
C8 C6 1.392 . S
C9 Eu0 2.828 . S
C9 C3 1.505 . S
C9 O21 1.249 . S
C9 O22 1.244 . S
O10 Eu1 2.373 . S
O10 C12 1.258 . S
O11 Eu0 2.392 1_455 S
O11 C12 1.242 . S
C12 O10 1.258 . S
C12 O11 1.242 . S
O13 Eu0 2.418 . S
O13 C17 1.244 1_655 S
O14 Eu1 2.488 . S
O14 C30 1.249 . S
O15 Eu1 2.471 . S
O15 C30 1.244 . S
O16 Eu1 2.349 . S
O16 C17 1.265 . S
C17 O13 1.244 1_455 S
C17 O16 1.265 . S
O18 Eu0 2.373 . S
O18 C31 1.258 . S
O19 Eu1 2.392 . S
O19 C31 1.242 1_455 S
O20 Eu1 2.418 . S
O20 C2 1.244 . S
O21 Eu0 2.488 . S
O21 C9 1.249 . S
O22 Eu0 2.471 . S
O22 C9 1.244 . S
O23 Eu0 2.349 . S
O23 C2 1.265 1_655 S
C24 C25 1.379 . S
C24 C28 1.373 . S
C24 C30 1.505 . S
C25 C24 1.379 . S
C25 C27 1.369 . S
C25 H36 0.930 . S
C26 C28 1.383 . S
C26 C29 1.382 . S
C26 H37 0.930 . S
C27 C25 1.369 . S
C27 C29 1.392 . S
C27 H38 0.930 . S
C28 C24 1.373 . S
C28 C26 1.383 . S
C28 H39 0.931 . S
C29 C26 1.382 . S
C29 C27 1.392 . S
C30 Eu1 2.828 . S
C30 O14 1.249 . S
C30 O15 1.244 . S
C30 C24 1.505 . S
C31 O18 1.258 . S
C31 O19 1.242 1_655 S
H32 C4 0.930 . S
H33 C5 0.930 . S
H34 C6 0.930 . S
H35 C7 0.931 . S
H36 C25 0.930 . S
H37 C26 0.930 . S
H38 C27 0.930 . S
H39 C28 0.931 . S
Eu40 C49 2.828 . S
Eu40 O51 2.392 . S
Eu40 O53 2.418 . S
Eu40 O58 2.373 . S
Eu40 O61 2.488 . S
Eu40 O62 2.471 . S
Eu40 O63 2.349 . S
Eu41 O50 2.373 . S
Eu41 O54 2.488 . S
Eu41 O55 2.471 . S
Eu41 O56 2.349 . S
Eu41 O59 2.392 . S
Eu41 O60 2.418 . S
Eu41 C70 2.828 1_455 S
C42 O60 1.244 . S
C42 O63 1.265 . S
C43 C44 1.379 . S
C43 C47 1.373 . S
C43 C49 1.505 . S
C44 C43 1.379 . S
C44 C46 1.369 . S
C44 H72 0.930 . S
C45 C47 1.383 . S
C45 C48 1.382 . S
C45 H73 0.930 . S
C46 C44 1.369 . S
C46 C48 1.392 . S
C46 H74 0.930 . S
C47 C43 1.373 . S
C47 C45 1.383 . S
C47 H75 0.931 . S
C48 C45 1.382 . S
C48 C46 1.392 . S
C49 Eu40 2.828 . S
C49 C43 1.505 . S
C49 O61 1.249 . S
C49 O62 1.244 . S
O50 Eu41 2.373 . S
O50 C52 1.258 . S
O51 Eu40 2.392 . S
O51 C52 1.242 . S
C52 O50 1.258 . S
C52 O51 1.242 . S
O53 Eu40 2.418 . S
O53 C57 1.244 . S
O54 Eu41 2.488 . S
O54 C70 1.249 1_455 S
O55 Eu41 2.471 . S
O55 C70 1.244 1_455 S
O56 Eu41 2.349 . S
O56 C57 1.265 . S
C57 O53 1.244 . S
C57 O56 1.265 . S
O58 Eu40 2.373 . S
O58 C71 1.258 . S
O59 Eu41 2.392 . S
O59 C71 1.242 . S
O60 Eu41 2.418 . S
O60 C42 1.244 . S
O61 Eu40 2.488 . S
O61 C49 1.249 . S
O62 Eu40 2.471 . S
O62 C49 1.244 . S
O63 Eu40 2.349 . S
O63 C42 1.265 . S
C64 C65 1.379 . S
C64 C68 1.373 . S
C64 C70 1.505 . S
C65 C64 1.379 . S
C65 C67 1.369 . S
C65 H76 0.930 . S
C66 C68 1.383 . S
C66 C69 1.382 . S
C66 H77 0.930 . S
C67 C65 1.369 . S
C67 C69 1.392 . S
C67 H78 0.930 . S
C68 C64 1.373 . S
C68 C66 1.383 . S
C68 H79 0.931 . S
C69 C66 1.382 . S
C69 C67 1.392 . S
C70 Eu41 2.828 1_655 S
C70 O54 1.249 1_655 S
C70 O55 1.244 1_655 S
C70 C64 1.505 . S
C71 O58 1.258 . S
C71 O59 1.242 . S
H72 C44 0.930 . S
H73 C45 0.930 . S
H74 C46 0.930 . S
H75 C47 0.931 . S
H76 C65 0.930 . S
H77 C66 0.930 . S
H78 C67 0.930 . S
H79 C68 0.931 . S
Eu80 C89 2.828 . S
Eu80 O91 2.392 1_655 S
Eu80 O93 2.418 . S
Eu80 O98 2.373 . S
Eu80 O101 2.488 . S
Eu80 O102 2.471 . S
Eu80 O103 2.349 . S
Eu81 O90 2.373 . S
Eu81 O94 2.488 . S
Eu81 O95 2.471 . S
Eu81 O96 2.349 . S
Eu81 O99 2.392 . S
Eu81 O100 2.418 . S
Eu81 C110 2.828 . S
C82 O100 1.244 . S
C82 O103 1.265 1_455 S
C83 C84 1.379 . S
C83 C87 1.373 . S
C83 C89 1.505 . S
C84 C83 1.379 . S
C84 C86 1.369 . S
C84 H112 0.930 . S
C85 C87 1.383 . S
C85 C88 1.382 . S
C85 H113 0.930 . S
C86 C84 1.369 . S
C86 C88 1.392 . S
C86 H114 0.930 . S
C87 C83 1.373 . S
C87 C85 1.383 . S
C87 H115 0.931 . S
C88 C85 1.382 . S
C88 C86 1.392 . S
C89 Eu80 2.828 . S
C89 C83 1.505 . S
C89 O101 1.249 . S
C89 O102 1.244 . S
O90 Eu81 2.373 . S
O90 C92 1.258 . S
O91 Eu80 2.392 1_455 S
O91 C92 1.242 . S
C92 O90 1.258 . S
C92 O91 1.242 . S
O93 Eu80 2.418 . S
O93 C97 1.244 1_655 S
O94 Eu81 2.488 . S
O94 C110 1.249 . S
O95 Eu81 2.471 . S
O95 C110 1.244 . S
O96 Eu81 2.349 . S
O96 C97 1.265 . S
C97 O93 1.244 1_455 S
C97 O96 1.265 . S
O98 Eu80 2.373 . S
O98 C111 1.258 . S
O99 Eu81 2.392 . S
O99 C111 1.242 1_455 S
O100 Eu81 2.418 . S
O100 C82 1.244 . S
O101 Eu80 2.488 . S
O101 C89 1.249 . S
O102 Eu80 2.471 . S
O102 C89 1.244 . S
O103 Eu80 2.349 . S
O103 C82 1.265 1_655 S
C104 C105 1.379 . S
C104 C108 1.373 . S
C104 C110 1.505 . S
C105 C104 1.379 . S
C105 C107 1.369 . S
C105 H116 0.930 . S
C106 C108 1.383 . S
C106 C109 1.382 . S
C106 H117 0.930 . S
C107 C105 1.369 . S
C107 C109 1.392 . S
C107 H118 0.930 . S
C108 C104 1.373 . S
C108 C106 1.383 . S
C108 H119 0.931 . S
C109 C106 1.382 . S
C109 C107 1.392 . S
C110 Eu81 2.828 . S
C110 O94 1.249 . S
C110 O95 1.244 . S
C110 C104 1.505 . S
C111 O98 1.258 . S
C111 O99 1.242 1_655 S
H112 C84 0.930 . S
H113 C85 0.930 . S
H114 C86 0.930 . S
H115 C87 0.931 . S
H116 C105 0.930 . S
H117 C106 0.930 . S
H118 C107 0.930 . S
H119 C108 0.931 . S
Eu120 C129 2.828 . S
Eu120 O131 2.392 . S
Eu120 O133 2.418 . S
Eu120 O138 2.373 . S
Eu120 O141 2.488 . S
Eu120 O142 2.471 . S
Eu120 O143 2.349 . S
Eu121 O130 2.373 . S
Eu121 O134 2.488 . S
Eu121 O135 2.471 . S
Eu121 O136 2.349 . S
Eu121 O139 2.392 . S
Eu121 O140 2.418 . S
Eu121 C150 2.828 1_455 S
C122 O140 1.244 . S
C122 O143 1.265 . S
C123 C124 1.379 . S
C123 C127 1.373 . S
C123 C129 1.505 . S
C124 C123 1.379 . S
C124 C126 1.369 . S
C124 H152 0.930 . S
C125 C127 1.383 . S
C125 C128 1.382 . S
C125 H153 0.930 . S
C126 C124 1.369 . S
C126 C128 1.392 . S
C126 H154 0.930 . S
C127 C123 1.373 . S
C127 C125 1.383 . S
C127 H155 0.931 . S
C128 C125 1.382 . S
C128 C126 1.392 . S
C129 Eu120 2.828 . S
C129 C123 1.505 . S
C129 O141 1.249 . S
C129 O142 1.244 . S
O130 Eu121 2.373 . S
O130 C132 1.258 . S
O131 Eu120 2.392 . S
O131 C132 1.242 . S
C132 O130 1.258 . S
C132 O131 1.242 . S
O133 Eu120 2.418 . S
O133 C137 1.244 . S
O134 Eu121 2.488 . S
O134 C150 1.249 1_455 S
O135 Eu121 2.471 . S
O135 C150 1.244 1_455 S
O136 Eu121 2.349 . S
O136 C137 1.265 . S
C137 O133 1.244 . S
C137 O136 1.265 . S
O138 Eu120 2.373 . S
O138 C151 1.258 . S
O139 Eu121 2.392 . S
O139 C151 1.242 . S
O140 Eu121 2.418 . S
O140 C122 1.244 . S
O141 Eu120 2.488 . S
O141 C129 1.249 . S
O142 Eu120 2.471 . S
O142 C129 1.244 . S
O143 Eu120 2.349 . S
O143 C122 1.265 . S
C144 C145 1.379 . S
C144 C148 1.373 . S
C144 C150 1.505 . S
C145 C144 1.379 . S
C145 C147 1.369 . S
C145 H156 0.930 . S
C146 C148 1.383 . S
C146 C149 1.382 . S
C146 H157 0.930 . S
C147 C145 1.369 . S
C147 C149 1.392 . S
C147 H158 0.930 . S
C148 C144 1.373 . S
C148 C146 1.383 . S
C148 H159 0.931 . S
C149 C146 1.382 . S
C149 C147 1.392 . S
C150 Eu121 2.828 1_655 S
C150 O134 1.249 1_655 S
C150 O135 1.244 1_655 S
C150 C144 1.505 . S
C151 O138 1.258 . S
C151 O139 1.242 . S
H152 C124 0.930 . S
H153 C125 0.930 . S
H154 C126 0.930 . S
H155 C127 0.931 . S
H156 C145 0.930 . S
H157 C146 0.930 . S
H158 C147 0.930 . S
H159 C148 0.931 . S
Eu160 C169 2.828 . S
Eu160 O171 2.392 . S
Eu160 O173 2.418 . S
Eu160 O178 2.373 . S
Eu160 O181 2.488 . S
Eu160 O182 2.471 . S
Eu160 O183 2.349 . S
Eu161 O170 2.373 . S
Eu161 O174 2.488 . S
Eu161 O175 2.471 . S
Eu161 O176 2.349 . S
Eu161 O179 2.392 1_455 S
Eu161 O180 2.418 . S
Eu161 C190 2.828 . S
C162 O180 1.244 1_655 S
C162 O183 1.265 . S
C163 C164 1.379 . S
C163 C167 1.373 . S
C163 C169 1.505 . S
C164 C163 1.379 . S
C164 C166 1.369 . S
C164 H192 0.930 . S
C165 C167 1.383 . S
C165 C168 1.382 . S
C165 H193 0.930 . S
C166 C164 1.369 . S
C166 C168 1.392 . S
C166 H194 0.930 . S
C167 C163 1.373 . S
C167 C165 1.383 . S
C167 H195 0.931 . S
C168 C165 1.382 . S
C168 C166 1.392 . S
C169 Eu160 2.828 . S
C169 C163 1.505 . S
C169 O181 1.249 . S
C169 O182 1.244 . S
O170 Eu161 2.373 . S
O170 C172 1.258 . S
O171 Eu160 2.392 . S
O171 C172 1.242 1_655 S
C172 O170 1.258 . S
C172 O171 1.242 1_455 S
O173 Eu160 2.418 . S
O173 C177 1.244 . S
O174 Eu161 2.488 . S
O174 C190 1.249 . S
O175 Eu161 2.471 . S
O175 C190 1.244 . S
O176 Eu161 2.349 . S
O176 C177 1.265 1_455 S
C177 O173 1.244 . S
C177 O176 1.265 1_655 S
O178 Eu160 2.373 . S
O178 C191 1.258 . S
O179 Eu161 2.392 1_655 S
O179 C191 1.242 . S
O180 Eu161 2.418 . S
O180 C162 1.244 1_455 S
O181 Eu160 2.488 . S
O181 C169 1.249 . S
O182 Eu160 2.471 . S
O182 C169 1.244 . S
O183 Eu160 2.349 . S
O183 C162 1.265 . S
C184 C185 1.379 . S
C184 C188 1.373 . S
C184 C190 1.505 . S
C185 C184 1.379 . S
C185 C187 1.369 . S
C185 H196 0.930 . S
C186 C188 1.383 . S
C186 C189 1.382 . S
C186 H197 0.930 . S
C187 C185 1.369 . S
C187 C189 1.392 . S
C187 H198 0.930 . S
C188 C184 1.373 . S
C188 C186 1.383 . S
C188 H199 0.931 . S
C189 C186 1.382 . S
C189 C187 1.392 . S
C190 Eu161 2.828 . S
C190 O174 1.249 . S
C190 O175 1.244 . S
C190 C184 1.505 . S
C191 O178 1.258 . S
C191 O179 1.242 . S
H192 C164 0.930 . S
H193 C165 0.930 . S
H194 C166 0.930 . S
H195 C167 0.931 . S
H196 C185 0.930 . S
H197 C186 0.930 . S
H198 C187 0.930 . S
H199 C188 0.931 . S
Eu200 C209 2.828 1_655 S
Eu200 O211 2.392 . S
Eu200 O213 2.418 . S
Eu200 O218 2.373 . S
Eu200 O221 2.488 . S
Eu200 O222 2.471 . S
Eu200 O223 2.349 . S
Eu201 O210 2.373 . S
Eu201 O214 2.488 . S
Eu201 O215 2.471 . S
Eu201 O216 2.349 . S
Eu201 O219 2.392 . S
Eu201 O220 2.418 . S
Eu201 C230 2.828 . S
C202 O220 1.244 . S
C202 O223 1.265 . S
C203 C204 1.379 . S
C203 C207 1.373 . S
C203 C209 1.505 . S
C204 C203 1.379 . S
C204 C206 1.369 . S
C204 H232 0.930 . S
C205 C207 1.383 . S
C205 C208 1.382 . S
C205 H233 0.930 . S
C206 C204 1.369 . S
C206 C208 1.392 . S
C206 H234 0.930 . S
C207 C203 1.373 . S
C207 C205 1.383 . S
C207 H235 0.931 . S
C208 C205 1.382 . S
C208 C206 1.392 . S
C209 Eu200 2.828 1_455 S
C209 C203 1.505 . S
C209 O221 1.249 1_455 S
C209 O222 1.244 1_455 S
O210 Eu201 2.373 . S
O210 C212 1.258 . S
O211 Eu200 2.392 . S
O211 C212 1.242 . S
C212 O210 1.258 . S
C212 O211 1.242 . S
O213 Eu200 2.418 . S
O213 C217 1.244 . S
O214 Eu201 2.488 . S
O214 C230 1.249 . S
O215 Eu201 2.471 . S
O215 C230 1.244 . S
O216 Eu201 2.349 . S
O216 C217 1.265 . S
C217 O213 1.244 . S
C217 O216 1.265 . S
O218 Eu200 2.373 . S
O218 C231 1.258 . S
O219 Eu201 2.392 . S
O219 C231 1.242 . S
O220 Eu201 2.418 . S
O220 C202 1.244 . S
O221 Eu200 2.488 . S
O221 C209 1.249 1_655 S
O222 Eu200 2.471 . S
O222 C209 1.244 1_655 S
O223 Eu200 2.349 . S
O223 C202 1.265 . S
C224 C225 1.379 . S
C224 C228 1.373 . S
C224 C230 1.505 . S
C225 C224 1.379 . S
C225 C227 1.369 . S
C225 H236 0.930 . S
C226 C228 1.383 . S
C226 C229 1.382 . S
C226 H237 0.930 . S
C227 C225 1.369 . S
C227 C229 1.392 . S
C227 H238 0.930 . S
C228 C224 1.373 . S
C228 C226 1.383 . S
C228 H239 0.931 . S
C229 C226 1.382 . S
C229 C227 1.392 . S
C230 Eu201 2.828 . S
C230 O214 1.249 . S
C230 O215 1.244 . S
C230 C224 1.505 . S
C231 O218 1.258 . S
C231 O219 1.242 . S
H232 C204 0.930 . S
H233 C205 0.930 . S
H234 C206 0.930 . S
H235 C207 0.931 . S
H236 C225 0.930 . S
H237 C226 0.930 . S
H238 C227 0.930 . S
H239 C228 0.931 . S
Eu240 C249 2.828 . S
Eu240 O251 2.392 . S
Eu240 O253 2.418 . S
Eu240 O258 2.373 . S
Eu240 O261 2.488 . S
Eu240 O262 2.471 . S
Eu240 O263 2.349 . S
Eu241 O250 2.373 . S
Eu241 O254 2.488 . S
Eu241 O255 2.471 . S
Eu241 O256 2.349 . S
Eu241 O259 2.392 1_455 S
Eu241 O260 2.418 . S
Eu241 C270 2.828 . S
C242 O260 1.244 1_655 S
C242 O263 1.265 . S
C243 C244 1.379 . S
C243 C247 1.373 . S
C243 C249 1.505 . S
C244 C243 1.379 . S
C244 C246 1.369 . S
C244 H272 0.930 . S
C245 C247 1.383 . S
C245 C248 1.382 . S
C245 H273 0.930 . S
C246 C244 1.369 . S
C246 C248 1.392 . S
C246 H274 0.930 . S
C247 C243 1.373 . S
C247 C245 1.383 . S
C247 H275 0.931 . S
C248 C245 1.382 . S
C248 C246 1.392 . S
C249 Eu240 2.828 . S
C249 C243 1.505 . S
C249 O261 1.249 . S
C249 O262 1.244 . S
O250 Eu241 2.373 . S
O250 C252 1.258 . S
O251 Eu240 2.392 . S
O251 C252 1.242 1_655 S
C252 O250 1.258 . S
C252 O251 1.242 1_455 S
O253 Eu240 2.418 . S
O253 C257 1.244 . S
O254 Eu241 2.488 . S
O254 C270 1.249 . S
O255 Eu241 2.471 . S
O255 C270 1.244 . S
O256 Eu241 2.349 . S
O256 C257 1.265 1_455 S
C257 O253 1.244 . S
C257 O256 1.265 1_655 S
O258 Eu240 2.373 . S
O258 C271 1.258 . S
O259 Eu241 2.392 1_655 S
O259 C271 1.242 . S
O260 Eu241 2.418 . S
O260 C242 1.244 1_455 S
O261 Eu240 2.488 . S
O261 C249 1.249 . S
O262 Eu240 2.471 . S
O262 C249 1.244 . S
O263 Eu240 2.349 . S
O263 C242 1.265 . S
C264 C265 1.379 . S
C264 C268 1.373 . S
C264 C270 1.505 . S
C265 C264 1.379 . S
C265 C267 1.369 . S
C265 H276 0.930 . S
C266 C268 1.383 . S
C266 C269 1.382 . S
C266 H277 0.930 . S
C267 C265 1.369 . S
C267 C269 1.392 . S
C267 H278 0.930 . S
C268 C264 1.373 . S
C268 C266 1.383 . S
C268 H279 0.931 . S
C269 C266 1.382 . S
C269 C267 1.392 . S
C270 Eu241 2.828 . S
C270 O254 1.249 . S
C270 O255 1.244 . S
C270 C264 1.505 . S
C271 O258 1.258 . S
C271 O259 1.242 . S
H272 C244 0.930 . S
H273 C245 0.930 . S
H274 C246 0.930 . S
H275 C247 0.931 . S
H276 C265 0.930 . S
H277 C266 0.930 . S
H278 C267 0.930 . S
H279 C268 0.931 . S
Eu280 C289 2.828 1_655 S
Eu280 O291 2.392 . S
Eu280 O293 2.418 . S
Eu280 O298 2.373 . S
Eu280 O301 2.488 . S
Eu280 O302 2.471 . S
Eu280 O303 2.349 . S
Eu281 O290 2.373 . S
Eu281 O294 2.488 . S
Eu281 O295 2.471 . S
Eu281 O296 2.349 . S
Eu281 O299 2.392 . S
Eu281 O300 2.418 . S
Eu281 C310 2.828 . S
C282 O300 1.244 . S
C282 O303 1.265 . S
C283 C284 1.379 . S
C283 C287 1.373 . S
C283 C289 1.505 . S
C284 C283 1.379 . S
C284 C286 1.369 . S
C284 H312 0.930 . S
C285 C287 1.383 . S
C285 C288 1.382 . S
C285 H313 0.930 . S
C286 C284 1.369 . S
C286 C288 1.392 . S
C286 H314 0.930 . S
C287 C283 1.373 . S
C287 C285 1.383 . S
C287 H315 0.931 . S
C288 C285 1.382 . S
C288 C286 1.392 . S
C289 Eu280 2.828 1_455 S
C289 C283 1.505 . S
C289 O301 1.249 1_455 S
C289 O302 1.244 1_455 S
O290 Eu281 2.373 . S
O290 C292 1.258 . S
O291 Eu280 2.392 . S
O291 C292 1.242 . S
C292 O290 1.258 . S
C292 O291 1.242 . S
O293 Eu280 2.418 . S
O293 C297 1.244 . S
O294 Eu281 2.488 . S
O294 C310 1.249 . S
O295 Eu281 2.471 . S
O295 C310 1.244 . S
O296 Eu281 2.349 . S
O296 C297 1.265 . S
C297 O293 1.244 . S
C297 O296 1.265 . S
O298 Eu280 2.373 . S
O298 C311 1.258 . S
O299 Eu281 2.392 . S
O299 C311 1.242 . S
O300 Eu281 2.418 . S
O300 C282 1.244 . S
O301 Eu280 2.488 . S
O301 C289 1.249 1_655 S
O302 Eu280 2.471 . S
O302 C289 1.244 1_655 S
O303 Eu280 2.349 . S
O303 C282 1.265 . S
C304 C305 1.379 . S
C304 C308 1.373 . S
C304 C310 1.505 . S
C305 C304 1.379 . S
C305 C307 1.369 . S
C305 H316 0.930 . S
C306 C308 1.383 . S
C306 C309 1.382 . S
C306 H317 0.930 . S
C307 C305 1.369 . S
C307 C309 1.392 . S
C307 H318 0.930 . S
C308 C304 1.373 . S
C308 C306 1.383 . S
C308 H319 0.931 . S
C309 C306 1.382 . S
C309 C307 1.392 . S
C310 Eu281 2.828 . S
C310 O294 1.249 . S
C310 O295 1.244 . S
C310 C304 1.505 . S
C311 O298 1.258 . S
C311 O299 1.242 . S
H312 C284 0.930 . S
H313 C285 0.930 . S
H314 C286 0.930 . S
H315 C287 0.931 . S
H316 C305 0.930 . S
H317 C306 0.930 . S
H318 C307 0.930 . S
H319 C308 0.931 . S
Eu320 C329 2.828 . S
Eu320 O331 2.392 1_655 S
Eu320 O333 2.418 1_545 S
Eu320 O338 2.373 1_545 S
Eu320 O341 2.488 . S
Eu320 O342 2.471 . S
Eu320 O343 2.349 1_545 S
Eu321 O330 2.373 1_565 S
Eu321 O334 2.488 . S
Eu321 O335 2.471 . S
Eu321 O336 2.349 . S
Eu321 O339 2.392 . S
Eu321 O340 2.418 . S
Eu321 C350 2.828 . S
C322 O340 1.244 . S
C322 O343 1.265 1_455 S
C323 C324 1.379 1_545 S
C323 C327 1.373 . S
C323 C329 1.505 . S
C324 C323 1.379 1_565 S
C324 C326 1.369 . S
C324 H352 0.930 . S
C325 C327 1.383 . S
C325 C328 1.382 1_545 S
C325 H353 0.930 . S
C326 C324 1.369 . S
C326 C328 1.392 . S
C326 H354 0.930 . S
C327 C323 1.373 . S
C327 C325 1.383 . S
C327 H355 0.931 . S
C328 C325 1.382 1_565 S
C328 C326 1.392 . S
C329 Eu320 2.828 . S
C329 C323 1.505 . S
C329 O341 1.249 . S
C329 O342 1.244 . S
O330 Eu321 2.373 1_545 S
O330 C332 1.258 . S
O331 Eu320 2.392 1_455 S
O331 C332 1.242 . S
C332 O330 1.258 . S
C332 O331 1.242 . S
O333 Eu320 2.418 1_565 S
O333 C337 1.244 1_655 S
O334 Eu321 2.488 . S
O334 C350 1.249 . S
O335 Eu321 2.471 . S
O335 C350 1.244 . S
O336 Eu321 2.349 . S
O336 C337 1.265 . S
C337 O333 1.244 1_455 S
C337 O336 1.265 . S
O338 Eu320 2.373 1_565 S
O338 C351 1.258 . S
O339 Eu321 2.392 . S
O339 C351 1.242 1_455 S
O340 Eu321 2.418 . S
O340 C322 1.244 . S
O341 Eu320 2.488 . S
O341 C329 1.249 . S
O342 Eu320 2.471 . S
O342 C329 1.244 . S
O343 Eu320 2.349 1_565 S
O343 C322 1.265 1_655 S
C344 C345 1.379 . S
C344 C348 1.373 . S
C344 C350 1.505 . S
C345 C344 1.379 . S
C345 C347 1.369 . S
C345 H356 0.930 . S
C346 C348 1.383 . S
C346 C349 1.382 . S
C346 H357 0.930 . S
C347 C345 1.369 . S
C347 C349 1.392 . S
C347 H358 0.930 . S
C348 C344 1.373 . S
C348 C346 1.383 . S
C348 H359 0.931 . S
C349 C346 1.382 . S
C349 C347 1.392 . S
C350 Eu321 2.828 . S
C350 O334 1.249 . S
C350 O335 1.244 . S
C350 C344 1.505 . S
C351 O338 1.258 . S
C351 O339 1.242 1_655 S
H352 C324 0.930 . S
H353 C325 0.930 . S
H354 C326 0.930 . S
H355 C327 0.931 . S
H356 C345 0.930 . S
H357 C346 0.930 . S
H358 C347 0.930 . S
H359 C348 0.931 . S
Eu360 C369 2.828 . S
Eu360 O371 2.392 . S
Eu360 O373 2.418 . S
Eu360 O378 2.373 . S
Eu360 O381 2.488 . S
Eu360 O382 2.471 . S
Eu360 O383 2.349 . S
Eu361 O370 2.373 . S
Eu361 O374 2.488 . S
Eu361 O375 2.471 . S
Eu361 O376 2.349 . S
Eu361 O379 2.392 . S
Eu361 O380 2.418 . S
Eu361 C390 2.828 1_455 S
C362 O380 1.244 . S
C362 O383 1.265 . S
C363 C364 1.379 . S
C363 C367 1.373 . S
C363 C369 1.505 . S
C364 C363 1.379 . S
C364 C366 1.369 . S
C364 H392 0.930 . S
C365 C367 1.383 . S
C365 C368 1.382 . S
C365 H393 0.930 . S
C366 C364 1.369 . S
C366 C368 1.392 . S
C366 H394 0.930 . S
C367 C363 1.373 . S
C367 C365 1.383 . S
C367 H395 0.931 . S
C368 C365 1.382 . S
C368 C366 1.392 . S
C369 Eu360 2.828 . S
C369 C363 1.505 . S
C369 O381 1.249 . S
C369 O382 1.244 . S
O370 Eu361 2.373 . S
O370 C372 1.258 . S
O371 Eu360 2.392 . S
O371 C372 1.242 . S
C372 O370 1.258 . S
C372 O371 1.242 . S
O373 Eu360 2.418 . S
O373 C377 1.244 . S
O374 Eu361 2.488 . S
O374 C390 1.249 1_455 S
O375 Eu361 2.471 . S
O375 C390 1.244 1_455 S
O376 Eu361 2.349 . S
O376 C377 1.265 . S
C377 O373 1.244 . S
C377 O376 1.265 . S
O378 Eu360 2.373 . S
O378 C391 1.258 . S
O379 Eu361 2.392 . S
O379 C391 1.242 . S
O380 Eu361 2.418 . S
O380 C362 1.244 . S
O381 Eu360 2.488 . S
O381 C369 1.249 . S
O382 Eu360 2.471 . S
O382 C369 1.244 . S
O383 Eu360 2.349 . S
O383 C362 1.265 . S
C384 C385 1.379 . S
C384 C388 1.373 . S
C384 C390 1.505 . S
C385 C384 1.379 . S
C385 C387 1.369 . S
C385 H396 0.930 . S
C386 C388 1.383 . S
C386 C389 1.382 . S
C386 H397 0.930 . S
C387 C385 1.369 . S
C387 C389 1.392 . S
C387 H398 0.930 . S
C388 C384 1.373 . S
C388 C386 1.383 . S
C388 H399 0.931 . S
C389 C386 1.382 . S
C389 C387 1.392 . S
C390 Eu361 2.828 1_655 S
C390 O374 1.249 1_655 S
C390 O375 1.244 1_655 S
C390 C384 1.505 . S
C391 O378 1.258 . S
C391 O379 1.242 . S
H392 C364 0.930 . S
H393 C365 0.930 . S
H394 C366 0.930 . S
H395 C367 0.931 . S
H396 C385 0.930 . S
H397 C386 0.930 . S
H398 C387 0.930 . S
H399 C388 0.931 . S
Eu400 C409 2.828 . S
Eu400 O411 2.392 1_655 S
Eu400 O413 2.418 . S
Eu400 O418 2.373 . S
Eu400 O421 2.488 . S
Eu400 O422 2.471 . S
Eu400 O423 2.349 . S
Eu401 O410 2.373 . S
Eu401 O414 2.488 . S
Eu401 O415 2.471 . S
Eu401 O416 2.349 . S
Eu401 O419 2.392 . S
Eu401 O420 2.418 . S
Eu401 C430 2.828 . S
C402 O420 1.244 . S
C402 O423 1.265 1_455 S
C403 C404 1.379 . S
C403 C407 1.373 . S
C403 C409 1.505 . S
C404 C403 1.379 . S
C404 C406 1.369 . S
C404 H432 0.930 . S
C405 C407 1.383 . S
C405 C408 1.382 . S
C405 H433 0.930 . S
C406 C404 1.369 . S
C406 C408 1.392 . S
C406 H434 0.930 . S
C407 C403 1.373 . S
C407 C405 1.383 . S
C407 H435 0.931 . S
C408 C405 1.382 . S
C408 C406 1.392 . S
C409 Eu400 2.828 . S
C409 C403 1.505 . S
C409 O421 1.249 . S
C409 O422 1.244 . S
O410 Eu401 2.373 . S
O410 C412 1.258 . S
O411 Eu400 2.392 1_455 S
O411 C412 1.242 . S
C412 O410 1.258 . S
C412 O411 1.242 . S
O413 Eu400 2.418 . S
O413 C417 1.244 1_655 S
O414 Eu401 2.488 . S
O414 C430 1.249 . S
O415 Eu401 2.471 . S
O415 C430 1.244 . S
O416 Eu401 2.349 . S
O416 C417 1.265 . S
C417 O413 1.244 1_455 S
C417 O416 1.265 . S
O418 Eu400 2.373 . S
O418 C431 1.258 . S
O419 Eu401 2.392 . S
O419 C431 1.242 1_455 S
O420 Eu401 2.418 . S
O420 C402 1.244 . S
O421 Eu400 2.488 . S
O421 C409 1.249 . S
O422 Eu400 2.471 . S
O422 C409 1.244 . S
O423 Eu400 2.349 . S
O423 C402 1.265 1_655 S
C424 C425 1.379 . S
C424 C428 1.373 . S
C424 C430 1.505 . S
C425 C424 1.379 . S
C425 C427 1.369 . S
C425 H436 0.930 . S
C426 C428 1.383 . S
C426 C429 1.382 . S
C426 H437 0.930 . S
C427 C425 1.369 . S
C427 C429 1.392 . S
C427 H438 0.930 . S
C428 C424 1.373 . S
C428 C426 1.383 . S
C428 H439 0.931 . S
C429 C426 1.382 . S
C429 C427 1.392 . S
C430 Eu401 2.828 . S
C430 O414 1.249 . S
C430 O415 1.244 . S
C430 C424 1.505 . S
C431 O418 1.258 . S
C431 O419 1.242 1_655 S
H432 C404 0.930 . S
H433 C405 0.930 . S
H434 C406 0.930 . S
H435 C407 0.931 . S
H436 C425 0.930 . S
H437 C426 0.930 . S
H438 C427 0.930 . S
H439 C428 0.931 . S
Eu440 C449 2.828 . S
Eu440 O451 2.392 . S
Eu440 O453 2.418 1_545 S
Eu440 O458 2.373 1_545 S
Eu440 O461 2.488 . S
Eu440 O462 2.471 . S
Eu440 O463 2.349 1_545 S
Eu441 O450 2.373 1_565 S
Eu441 O454 2.488 . S
Eu441 O455 2.471 . S
Eu441 O456 2.349 . S
Eu441 O459 2.392 . S
Eu441 O460 2.418 . S
Eu441 C470 2.828 1_455 S
C442 O460 1.244 . S
C442 O463 1.265 . S
C443 C444 1.379 1_545 S
C443 C447 1.373 . S
C443 C449 1.505 . S
C444 C443 1.379 1_565 S
C444 C446 1.369 . S
C444 H472 0.930 . S
C445 C447 1.383 . S
C445 C448 1.382 1_545 S
C445 H473 0.930 . S
C446 C444 1.369 . S
C446 C448 1.392 . S
C446 H474 0.930 . S
C447 C443 1.373 . S
C447 C445 1.383 . S
C447 H475 0.931 . S
C448 C445 1.382 1_565 S
C448 C446 1.392 . S
C449 Eu440 2.828 . S
C449 C443 1.505 . S
C449 O461 1.249 . S
C449 O462 1.244 . S
O450 Eu441 2.373 1_545 S
O450 C452 1.258 . S
O451 Eu440 2.392 . S
O451 C452 1.242 . S
C452 O450 1.258 . S
C452 O451 1.242 . S
O453 Eu440 2.418 1_565 S
O453 C457 1.244 . S
O454 Eu441 2.488 . S
O454 C470 1.249 1_455 S
O455 Eu441 2.471 . S
O455 C470 1.244 1_455 S
O456 Eu441 2.349 . S
O456 C457 1.265 . S
C457 O453 1.244 . S
C457 O456 1.265 . S
O458 Eu440 2.373 1_565 S
O458 C471 1.258 . S
O459 Eu441 2.392 . S
O459 C471 1.242 . S
O460 Eu441 2.418 . S
O460 C442 1.244 . S
O461 Eu440 2.488 . S
O461 C449 1.249 . S
O462 Eu440 2.471 . S
O462 C449 1.244 . S
O463 Eu440 2.349 1_565 S
O463 C442 1.265 . S
C464 C465 1.379 . S
C464 C468 1.373 . S
C464 C470 1.505 . S
C465 C464 1.379 . S
C465 C467 1.369 . S
C465 H476 0.930 . S
C466 C468 1.383 . S
C466 C469 1.382 . S
C466 H477 0.930 . S
C467 C465 1.369 . S
C467 C469 1.392 . S
C467 H478 0.930 . S
C468 C464 1.373 . S
C468 C466 1.383 . S
C468 H479 0.931 . S
C469 C466 1.382 . S
C469 C467 1.392 . S
C470 Eu441 2.828 1_655 S
C470 O454 1.249 1_655 S
C470 O455 1.244 1_655 S
C470 C464 1.505 . S
C471 O458 1.258 . S
C471 O459 1.242 . S
H472 C444 0.930 . S
H473 C445 0.930 . S
H474 C446 0.930 . S
H475 C447 0.931 . S
H476 C465 0.930 . S
H477 C466 0.930 . S
H478 C467 0.930 . S
H479 C468 0.931 . S
Eu480 C489 2.828 . S
Eu480 O491 2.392 . S
Eu480 O493 2.418 . S
Eu480 O498 2.373 1_545 S
Eu480 O501 2.488 . S
Eu480 O502 2.471 . S
Eu480 O503 2.349 . S
Eu481 O490 2.373 1_565 S
Eu481 O494 2.488 . S
Eu481 O495 2.471 . S
Eu481 O496 2.349 1_565 S
Eu481 O499 2.392 1_455 S
Eu481 O500 2.418 1_565 S
Eu481 C510 2.828 . S
C482 O500 1.244 1_655 S
C482 O503 1.265 . S
C483 C484 1.379 . S
C483 C487 1.373 . S
C483 C489 1.505 . S
C484 C483 1.379 . S
C484 C486 1.369 . S
C484 H512 0.930 . S
C485 C487 1.383 . S
C485 C488 1.382 . S
C485 H513 0.930 . S
C486 C484 1.369 . S
C486 C488 1.392 . S
C486 H514 0.930 . S
C487 C483 1.373 . S
C487 C485 1.383 . S
C487 H515 0.931 . S
C488 C485 1.382 . S
C488 C486 1.392 . S
C489 Eu480 2.828 . S
C489 C483 1.505 . S
C489 O501 1.249 . S
C489 O502 1.244 . S
O490 Eu481 2.373 1_545 S
O490 C492 1.258 . S
O491 Eu480 2.392 . S
O491 C492 1.242 1_655 S
C492 O490 1.258 . S
C492 O491 1.242 1_455 S
O493 Eu480 2.418 . S
O493 C497 1.244 . S
O494 Eu481 2.488 . S
O494 C510 1.249 . S
O495 Eu481 2.471 . S
O495 C510 1.244 . S
O496 Eu481 2.349 1_545 S
O496 C497 1.265 1_455 S
C497 O493 1.244 . S
C497 O496 1.265 1_655 S
O498 Eu480 2.373 1_565 S
O498 C511 1.258 . S
O499 Eu481 2.392 1_655 S
O499 C511 1.242 . S
O500 Eu481 2.418 1_545 S
O500 C482 1.244 1_455 S
O501 Eu480 2.488 . S
O501 C489 1.249 . S
O502 Eu480 2.471 . S
O502 C489 1.244 . S
O503 Eu480 2.349 . S
O503 C482 1.265 . S
C504 C505 1.379 1_565 S
C504 C508 1.373 . S
C504 C510 1.505 . S
C505 C504 1.379 1_545 S
C505 C507 1.369 . S
C505 H516 0.930 . S
C506 C508 1.383 . S
C506 C509 1.382 1_565 S
C506 H517 0.930 . S
C507 C505 1.369 . S
C507 C509 1.392 . S
C507 H518 0.930 . S
C508 C504 1.373 . S
C508 C506 1.383 . S
C508 H519 0.931 . S
C509 C506 1.382 1_545 S
C509 C507 1.392 . S
C510 Eu481 2.828 . S
C510 O494 1.249 . S
C510 O495 1.244 . S
C510 C504 1.505 . S
C511 O498 1.258 . S
C511 O499 1.242 . S
H512 C484 0.930 . S
H513 C485 0.930 . S
H514 C486 0.930 . S
H515 C487 0.931 . S
H516 C505 0.930 . S
H517 C506 0.930 . S
H518 C507 0.930 . S
H519 C508 0.931 . S
Eu520 C529 2.828 1_655 S
Eu520 O531 2.392 . S
Eu520 O533 2.418 . S
Eu520 O538 2.373 . S
Eu520 O541 2.488 . S
Eu520 O542 2.471 . S
Eu520 O543 2.349 . S
Eu521 O530 2.373 . S
Eu521 O534 2.488 . S
Eu521 O535 2.471 . S
Eu521 O536 2.349 . S
Eu521 O539 2.392 . S
Eu521 O540 2.418 . S
Eu521 C550 2.828 . S
C522 O540 1.244 . S
C522 O543 1.265 . S
C523 C524 1.379 . S
C523 C527 1.373 . S
C523 C529 1.505 . S
C524 C523 1.379 . S
C524 C526 1.369 . S
C524 H552 0.930 . S
C525 C527 1.383 . S
C525 C528 1.382 . S
C525 H553 0.930 . S
C526 C524 1.369 . S
C526 C528 1.392 . S
C526 H554 0.930 . S
C527 C523 1.373 . S
C527 C525 1.383 . S
C527 H555 0.931 . S
C528 C525 1.382 . S
C528 C526 1.392 . S
C529 Eu520 2.828 1_455 S
C529 C523 1.505 . S
C529 O541 1.249 1_455 S
C529 O542 1.244 1_455 S
O530 Eu521 2.373 . S
O530 C532 1.258 . S
O531 Eu520 2.392 . S
O531 C532 1.242 . S
C532 O530 1.258 . S
C532 O531 1.242 . S
O533 Eu520 2.418 . S
O533 C537 1.244 . S
O534 Eu521 2.488 . S
O534 C550 1.249 . S
O535 Eu521 2.471 . S
O535 C550 1.244 . S
O536 Eu521 2.349 . S
O536 C537 1.265 . S
C537 O533 1.244 . S
C537 O536 1.265 . S
O538 Eu520 2.373 . S
O538 C551 1.258 . S
O539 Eu521 2.392 . S
O539 C551 1.242 . S
O540 Eu521 2.418 . S
O540 C522 1.244 . S
O541 Eu520 2.488 . S
O541 C529 1.249 1_655 S
O542 Eu520 2.471 . S
O542 C529 1.244 1_655 S
O543 Eu520 2.349 . S
O543 C522 1.265 . S
C544 C545 1.379 . S
C544 C548 1.373 . S
C544 C550 1.505 . S
C545 C544 1.379 . S
C545 C547 1.369 . S
C545 H556 0.930 . S
C546 C548 1.383 . S
C546 C549 1.382 . S
C546 H557 0.930 . S
C547 C545 1.369 . S
C547 C549 1.392 . S
C547 H558 0.930 . S
C548 C544 1.373 . S
C548 C546 1.383 . S
C548 H559 0.931 . S
C549 C546 1.382 . S
C549 C547 1.392 . S
C550 Eu521 2.828 . S
C550 O534 1.249 . S
C550 O535 1.244 . S
C550 C544 1.505 . S
C551 O538 1.258 . S
C551 O539 1.242 . S
H552 C524 0.930 . S
H553 C525 0.930 . S
H554 C526 0.930 . S
H555 C527 0.931 . S
H556 C545 0.930 . S
H557 C546 0.930 . S
H558 C547 0.930 . S
H559 C548 0.931 . S
Eu560 C569 2.828 . S
Eu560 O571 2.392 . S
Eu560 O573 2.418 . S
Eu560 O578 2.373 . S
Eu560 O581 2.488 . S
Eu560 O582 2.471 . S
Eu560 O583 2.349 . S
Eu561 O570 2.373 . S
Eu561 O574 2.488 . S
Eu561 O575 2.471 . S
Eu561 O576 2.349 . S
Eu561 O579 2.392 1_455 S
Eu561 O580 2.418 . S
Eu561 C590 2.828 . S
C562 O580 1.244 1_655 S
C562 O583 1.265 . S
C563 C564 1.379 . S
C563 C567 1.373 . S
C563 C569 1.505 . S
C564 C563 1.379 . S
C564 C566 1.369 . S
C564 H592 0.930 . S
C565 C567 1.383 . S
C565 C568 1.382 . S
C565 H593 0.930 . S
C566 C564 1.369 . S
C566 C568 1.392 . S
C566 H594 0.930 . S
C567 C563 1.373 . S
C567 C565 1.383 . S
C567 H595 0.931 . S
C568 C565 1.382 . S
C568 C566 1.392 . S
C569 Eu560 2.828 . S
C569 C563 1.505 . S
C569 O581 1.249 . S
C569 O582 1.244 . S
O570 Eu561 2.373 . S
O570 C572 1.258 . S
O571 Eu560 2.392 . S
O571 C572 1.242 1_655 S
C572 O570 1.258 . S
C572 O571 1.242 1_455 S
O573 Eu560 2.418 . S
O573 C577 1.244 . S
O574 Eu561 2.488 . S
O574 C590 1.249 . S
O575 Eu561 2.471 . S
O575 C590 1.244 . S
O576 Eu561 2.349 . S
O576 C577 1.265 1_455 S
C577 O573 1.244 . S
C577 O576 1.265 1_655 S
O578 Eu560 2.373 . S
O578 C591 1.258 . S
O579 Eu561 2.392 1_655 S
O579 C591 1.242 . S
O580 Eu561 2.418 . S
O580 C562 1.244 1_455 S
O581 Eu560 2.488 . S
O581 C569 1.249 . S
O582 Eu560 2.471 . S
O582 C569 1.244 . S
O583 Eu560 2.349 . S
O583 C562 1.265 . S
C584 C585 1.379 . S
C584 C588 1.373 . S
C584 C590 1.505 . S
C585 C584 1.379 . S
C585 C587 1.369 . S
C585 H596 0.930 . S
C586 C588 1.383 . S
C586 C589 1.382 . S
C586 H597 0.930 . S
C587 C585 1.369 . S
C587 C589 1.392 . S
C587 H598 0.930 . S
C588 C584 1.373 . S
C588 C586 1.383 . S
C588 H599 0.931 . S
C589 C586 1.382 . S
C589 C587 1.392 . S
C590 Eu561 2.828 . S
C590 O574 1.249 . S
C590 O575 1.244 . S
C590 C584 1.505 . S
C591 O578 1.258 . S
C591 O579 1.242 . S
H592 C564 0.930 . S
H593 C565 0.930 . S
H594 C566 0.930 . S
H595 C567 0.931 . S
H596 C585 0.930 . S
H597 C586 0.930 . S
H598 C587 0.930 . S
H599 C588 0.931 . S
Eu600 C609 2.828 1_655 S
Eu600 O611 2.392 . S
Eu600 O613 2.418 . S
Eu600 O618 2.373 1_545 S
Eu600 O621 2.488 . S
Eu600 O622 2.471 . S
Eu600 O623 2.349 . S
Eu601 O610 2.373 1_565 S
Eu601 O614 2.488 . S
Eu601 O615 2.471 . S
Eu601 O616 2.349 1_565 S
Eu601 O619 2.392 . S
Eu601 O620 2.418 1_565 S
Eu601 C630 2.828 . S
C602 O620 1.244 . S
C602 O623 1.265 . S
C603 C604 1.379 . S
C603 C607 1.373 . S
C603 C609 1.505 . S
C604 C603 1.379 . S
C604 C606 1.369 . S
C604 H632 0.930 . S
C605 C607 1.383 . S
C605 C608 1.382 . S
C605 H633 0.930 . S
C606 C604 1.369 . S
C606 C608 1.392 . S
C606 H634 0.930 . S
C607 C603 1.373 . S
C607 C605 1.383 . S
C607 H635 0.931 . S
C608 C605 1.382 . S
C608 C606 1.392 . S
C609 Eu600 2.828 1_455 S
C609 C603 1.505 . S
C609 O621 1.249 1_455 S
C609 O622 1.244 1_455 S
O610 Eu601 2.373 1_545 S
O610 C612 1.258 . S
O611 Eu600 2.392 . S
O611 C612 1.242 . S
C612 O610 1.258 . S
C612 O611 1.242 . S
O613 Eu600 2.418 . S
O613 C617 1.244 . S
O614 Eu601 2.488 . S
O614 C630 1.249 . S
O615 Eu601 2.471 . S
O615 C630 1.244 . S
O616 Eu601 2.349 1_545 S
O616 C617 1.265 . S
C617 O613 1.244 . S
C617 O616 1.265 . S
O618 Eu600 2.373 1_565 S
O618 C631 1.258 . S
O619 Eu601 2.392 . S
O619 C631 1.242 . S
O620 Eu601 2.418 1_545 S
O620 C602 1.244 . S
O621 Eu600 2.488 . S
O621 C609 1.249 1_655 S
O622 Eu600 2.471 . S
O622 C609 1.244 1_655 S
O623 Eu600 2.349 . S
O623 C602 1.265 . S
C624 C625 1.379 1_565 S
C624 C628 1.373 . S
C624 C630 1.505 . S
C625 C624 1.379 1_545 S
C625 C627 1.369 . S
C625 H636 0.930 . S
C626 C628 1.383 . S
C626 C629 1.382 1_565 S
C626 H637 0.930 . S
C627 C625 1.369 . S
C627 C629 1.392 . S
C627 H638 0.930 . S
C628 C624 1.373 . S
C628 C626 1.383 . S
C628 H639 0.931 . S
C629 C626 1.382 1_545 S
C629 C627 1.392 . S
C630 Eu601 2.828 . S
C630 O614 1.249 . S
C630 O615 1.244 . S
C630 C624 1.505 . S
C631 O618 1.258 . S
C631 O619 1.242 . S
H632 C604 0.930 . S
H633 C605 0.930 . S
H634 C606 0.930 . S
H635 C607 0.931 . S
H636 C625 0.930 . S
H637 C626 0.930 . S
H638 C627 0.930 . S
H639 C628 0.931 . S
Eu640 C649 2.828 . S
Eu640 O651 2.392 . S
Eu640 O653 2.418 . S
Eu640 O658 2.373 . S
Eu640 O661 2.488 . S
Eu640 O662 2.471 . S
Eu640 O663 2.349 . S
Eu641 O650 2.373 . S
Eu641 O654 2.488 . S
Eu641 O655 2.471 . S
Eu641 O656 2.349 . S
Eu641 O659 2.392 . S
Eu641 O660 2.418 . S
Eu641 C670 2.828 . S
C642 O660 1.244 . S
C642 O663 1.265 . S
C643 C644 1.379 . S
C643 C647 1.373 . S
C643 C649 1.505 . S
C644 C643 1.379 . S
C644 C646 1.369 . S
C644 H672 0.930 . S
C645 C647 1.383 . S
C645 C648 1.382 . S
C645 H673 0.930 . S
C646 C644 1.369 . S
C646 C648 1.392 . S
C646 H674 0.930 . S
C647 C643 1.373 . S
C647 C645 1.383 . S
C647 H675 0.931 . S
C648 C645 1.382 . S
C648 C646 1.392 . S
C649 Eu640 2.828 . S
C649 C643 1.505 . S
C649 O661 1.249 . S
C649 O662 1.244 . S
O650 Eu641 2.373 . S
O650 C652 1.258 . S
O651 Eu640 2.392 . S
O651 C652 1.242 . S
C652 O650 1.258 . S
C652 O651 1.242 . S
O653 Eu640 2.418 . S
O653 C657 1.244 . S
O654 Eu641 2.488 . S
O654 C670 1.249 . S
O655 Eu641 2.471 . S
O655 C670 1.244 . S
O656 Eu641 2.349 . S
O656 C657 1.265 . S
C657 O653 1.244 . S
C657 O656 1.265 . S
O658 Eu640 2.373 . S
O658 C671 1.258 . S
O659 Eu641 2.392 . S
O659 C671 1.242 . S
O660 Eu641 2.418 . S
O660 C642 1.244 . S
O661 Eu640 2.488 . S
O661 C649 1.249 . S
O662 Eu640 2.471 . S
O662 C649 1.244 . S
O663 Eu640 2.349 . S
O663 C642 1.265 . S
C664 C665 1.379 . S
C664 C668 1.373 . S
C664 C670 1.505 . S
C665 C664 1.379 . S
C665 C667 1.369 . S
C665 H676 0.930 . S
C666 C668 1.383 . S
C666 C669 1.382 . S
C666 H677 0.930 . S
C667 C665 1.369 . S
C667 C669 1.392 . S
C667 H678 0.930 . S
C668 C664 1.373 . S
C668 C666 1.383 . S
C668 H679 0.931 . S
C669 C666 1.382 . S
C669 C667 1.392 . S
C670 Eu641 2.828 . S
C670 O654 1.249 . S
C670 O655 1.244 . S
C670 C664 1.505 . S
C671 O658 1.258 . S
C671 O659 1.242 . S
H672 C644 0.930 . S
H673 C645 0.930 . S
H674 C646 0.930 . S
H675 C647 0.931 . S
H676 C665 0.930 . S
H677 C666 0.930 . S
H678 C667 0.930 . S
H679 C668 0.931 . S
Eu680 C689 2.828 . S
Eu680 O691 2.392 . S
Eu680 O693 2.418 . S
Eu680 O698 2.373 . S
Eu680 O701 2.488 . S
Eu680 O702 2.471 . S
Eu680 O703 2.349 . S
Eu681 O690 2.373 . S
Eu681 O694 2.488 . S
Eu681 O695 2.471 . S
Eu681 O696 2.349 . S
Eu681 O699 2.392 . S
Eu681 O700 2.418 . S
Eu681 C710 2.828 . S
C682 O700 1.244 . S
C682 O703 1.265 . S
C683 C684 1.379 . S
C683 C687 1.373 . S
C683 C689 1.505 1_455 S
C684 C683 1.379 . S
C684 C686 1.369 . S
C684 H712 0.930 . S
C685 C687 1.383 . S
C685 C688 1.382 . S
C685 H713 0.930 . S
C686 C684 1.369 . S
C686 C688 1.392 . S
C686 H714 0.930 . S
C687 C683 1.373 . S
C687 C685 1.383 . S
C687 H715 0.931 . S
C688 C685 1.382 . S
C688 C686 1.392 . S
C689 Eu680 2.828 . S
C689 C683 1.505 1_655 S
C689 O701 1.249 . S
C689 O702 1.244 . S
O690 Eu681 2.373 . S
O690 C692 1.258 . S
O691 Eu680 2.392 . S
O691 C692 1.242 . S
C692 O690 1.258 . S
C692 O691 1.242 . S
O693 Eu680 2.418 . S
O693 C697 1.244 . S
O694 Eu681 2.488 . S
O694 C710 1.249 . S
O695 Eu681 2.471 . S
O695 C710 1.244 . S
O696 Eu681 2.349 . S
O696 C697 1.265 . S
C697 O693 1.244 . S
C697 O696 1.265 . S
O698 Eu680 2.373 . S
O698 C711 1.258 . S
O699 Eu681 2.392 . S
O699 C711 1.242 . S
O700 Eu681 2.418 . S
O700 C682 1.244 . S
O701 Eu680 2.488 . S
O701 C689 1.249 . S
O702 Eu680 2.471 . S
O702 C689 1.244 . S
O703 Eu680 2.349 . S
O703 C682 1.265 . S
C704 C705 1.379 . S
C704 C708 1.373 . S
C704 C710 1.505 . S
C705 C704 1.379 . S
C705 C707 1.369 . S
C705 H716 0.930 . S
C706 C708 1.383 . S
C706 C709 1.382 . S
C706 H717 0.930 . S
C707 C705 1.369 . S
C707 C709 1.392 . S
C707 H718 0.930 . S
C708 C704 1.373 . S
C708 C706 1.383 . S
C708 H719 0.931 . S
C709 C706 1.382 . S
C709 C707 1.392 . S
C710 Eu681 2.828 . S
C710 O694 1.249 . S
C710 O695 1.244 . S
C710 C704 1.505 . S
C711 O698 1.258 . S
C711 O699 1.242 . S
H712 C684 0.930 . S
H713 C685 0.930 . S
H714 C686 0.930 . S
H715 C687 0.931 . S
H716 C705 0.930 . S
H717 C706 0.930 . S
H718 C707 0.930 . S
H719 C708 0.931 . S
Eu720 C729 2.828 . S
Eu720 O731 2.392 . S
Eu720 O733 2.418 . S
Eu720 O738 2.373 . S
Eu720 O741 2.488 . S
Eu720 O742 2.471 . S
Eu720 O743 2.349 . S
Eu721 O730 2.373 . S
Eu721 O734 2.488 . S
Eu721 O735 2.471 . S
Eu721 O736 2.349 . S
Eu721 O739 2.392 . S
Eu721 O740 2.418 . S
Eu721 C750 2.828 . S
C722 O740 1.244 . S
C722 O743 1.265 . S
C723 C724 1.379 . S
C723 C727 1.373 . S
C723 C729 1.505 . S
C724 C723 1.379 . S
C724 C726 1.369 . S
C724 H752 0.930 . S
C725 C727 1.383 . S
C725 C728 1.382 . S
C725 H753 0.930 . S
C726 C724 1.369 . S
C726 C728 1.392 . S
C726 H754 0.930 . S
C727 C723 1.373 . S
C727 C725 1.383 . S
C727 H755 0.931 . S
C728 C725 1.382 . S
C728 C726 1.392 . S
C729 Eu720 2.828 . S
C729 C723 1.505 . S
C729 O741 1.249 . S
C729 O742 1.244 . S
O730 Eu721 2.373 . S
O730 C732 1.258 . S
O731 Eu720 2.392 . S
O731 C732 1.242 . S
C732 O730 1.258 . S
C732 O731 1.242 . S
O733 Eu720 2.418 . S
O733 C737 1.244 . S
O734 Eu721 2.488 . S
O734 C750 1.249 . S
O735 Eu721 2.471 . S
O735 C750 1.244 . S
O736 Eu721 2.349 . S
O736 C737 1.265 . S
C737 O733 1.244 . S
C737 O736 1.265 . S
O738 Eu720 2.373 . S
O738 C751 1.258 . S
O739 Eu721 2.392 . S
O739 C751 1.242 . S
O740 Eu721 2.418 . S
O740 C722 1.244 . S
O741 Eu720 2.488 . S
O741 C729 1.249 . S
O742 Eu720 2.471 . S
O742 C729 1.244 . S
O743 Eu720 2.349 . S
O743 C722 1.265 . S
C744 C745 1.379 . S
C744 C748 1.373 . S
C744 C750 1.505 . S
C745 C744 1.379 . S
C745 C747 1.369 . S
C745 H756 0.930 . S
C746 C748 1.383 . S
C746 C749 1.382 . S
C746 H757 0.930 . S
C747 C745 1.369 . S
C747 C749 1.392 . S
C747 H758 0.930 . S
C748 C744 1.373 . S
C748 C746 1.383 . S
C748 H759 0.931 . S
C749 C746 1.382 . S
C749 C747 1.392 . S
C750 Eu721 2.828 . S
C750 O734 1.249 . S
C750 O735 1.244 . S
C750 C744 1.505 . S
C751 O738 1.258 . S
C751 O739 1.242 . S
H752 C724 0.930 . S
H753 C725 0.930 . S
H754 C726 0.930 . S
H755 C727 0.931 . S
H756 C745 0.930 . S
H757 C746 0.930 . S
H758 C747 0.930 . S
H759 C748 0.931 . S
Eu760 C769 2.828 . S
Eu760 O771 2.392 . S
Eu760 O773 2.418 . S
Eu760 O778 2.373 . S
Eu760 O781 2.488 . S
Eu760 O782 2.471 . S
Eu760 O783 2.349 . S
Eu761 O770 2.373 . S
Eu761 O774 2.488 . S
Eu761 O775 2.471 . S
Eu761 O776 2.349 . S
Eu761 O779 2.392 . S
Eu761 O780 2.418 . S
Eu761 C790 2.828 . S
C762 O780 1.244 . S
C762 O783 1.265 . S
C763 C764 1.379 . S
C763 C767 1.373 . S
C763 C769 1.505 1_455 S
C764 C763 1.379 . S
C764 C766 1.369 . S
C764 H792 0.930 . S
C765 C767 1.383 . S
C765 C768 1.382 . S
C765 H793 0.930 . S
C766 C764 1.369 . S
C766 C768 1.392 . S
C766 H794 0.930 . S
C767 C763 1.373 . S
C767 C765 1.383 . S
C767 H795 0.931 . S
C768 C765 1.382 . S
C768 C766 1.392 . S
C769 Eu760 2.828 . S
C769 C763 1.505 1_655 S
C769 O781 1.249 . S
C769 O782 1.244 . S
O770 Eu761 2.373 . S
O770 C772 1.258 . S
O771 Eu760 2.392 . S
O771 C772 1.242 . S
C772 O770 1.258 . S
C772 O771 1.242 . S
O773 Eu760 2.418 . S
O773 C777 1.244 . S
O774 Eu761 2.488 . S
O774 C790 1.249 . S
O775 Eu761 2.471 . S
O775 C790 1.244 . S
O776 Eu761 2.349 . S
O776 C777 1.265 . S
C777 O773 1.244 . S
C777 O776 1.265 . S
O778 Eu760 2.373 . S
O778 C791 1.258 . S
O779 Eu761 2.392 . S
O779 C791 1.242 . S
O780 Eu761 2.418 . S
O780 C762 1.244 . S
O781 Eu760 2.488 . S
O781 C769 1.249 . S
O782 Eu760 2.471 . S
O782 C769 1.244 . S
O783 Eu760 2.349 . S
O783 C762 1.265 . S
C784 C785 1.379 . S
C784 C788 1.373 . S
C784 C790 1.505 . S
C785 C784 1.379 . S
C785 C787 1.369 . S
C785 H796 0.930 . S
C786 C788 1.383 . S
C786 C789 1.382 . S
C786 H797 0.930 . S
C787 C785 1.369 . S
C787 C789 1.392 . S
C787 H798 0.930 . S
C788 C784 1.373 . S
C788 C786 1.383 . S
C788 H799 0.931 . S
C789 C786 1.382 . S
C789 C787 1.392 . S
C790 Eu761 2.828 . S
C790 O774 1.249 . S
C790 O775 1.244 . S
C790 C784 1.505 . S
C791 O778 1.258 . S
C791 O779 1.242 . S
H792 C764 0.930 . S
H793 C765 0.930 . S
H794 C766 0.930 . S
H795 C767 0.931 . S
H796 C785 0.930 . S
H797 C786 0.930 . S
H798 C787 0.930 . S
H799 C788 0.931 . S
Eu800 C809 2.828 . S
Eu800 O811 2.392 . S
Eu800 O813 2.418 . S
Eu800 O818 2.373 . S
Eu800 O821 2.488 . S
Eu800 O822 2.471 . S
Eu800 O823 2.349 . S
Eu801 O810 2.373 . S
Eu801 O814 2.488 . S
Eu801 O815 2.471 . S
Eu801 O816 2.349 . S
Eu801 O819 2.392 . S
Eu801 O820 2.418 . S
Eu801 C830 2.828 . S
C802 O820 1.244 . S
C802 O823 1.265 . S
C803 C804 1.379 . S
C803 C807 1.373 . S
C803 C809 1.505 . S
C804 C803 1.379 . S
C804 C806 1.369 . S
C804 H832 0.930 . S
C805 C807 1.383 . S
C805 C808 1.382 . S
C805 H833 0.930 . S
C806 C804 1.369 . S
C806 C808 1.392 . S
C806 H834 0.930 . S
C807 C803 1.373 . S
C807 C805 1.383 . S
C807 H835 0.931 . S
C808 C805 1.382 . S
C808 C806 1.392 . S
C809 Eu800 2.828 . S
C809 C803 1.505 . S
C809 O821 1.249 . S
C809 O822 1.244 . S
O810 Eu801 2.373 . S
O810 C812 1.258 . S
O811 Eu800 2.392 . S
O811 C812 1.242 . S
C812 O810 1.258 . S
C812 O811 1.242 . S
O813 Eu800 2.418 . S
O813 C817 1.244 . S
O814 Eu801 2.488 . S
O814 C830 1.249 . S
O815 Eu801 2.471 . S
O815 C830 1.244 . S
O816 Eu801 2.349 . S
O816 C817 1.265 . S
C817 O813 1.244 . S
C817 O816 1.265 . S
O818 Eu800 2.373 . S
O818 C831 1.258 . S
O819 Eu801 2.392 . S
O819 C831 1.242 . S
O820 Eu801 2.418 . S
O820 C802 1.244 . S
O821 Eu800 2.488 . S
O821 C809 1.249 . S
O822 Eu800 2.471 . S
O822 C809 1.244 . S
O823 Eu800 2.349 . S
O823 C802 1.265 . S
C824 C825 1.379 . S
C824 C828 1.373 . S
C824 C830 1.505 . S
C825 C824 1.379 . S
C825 C827 1.369 . S
C825 H836 0.930 . S
C826 C828 1.383 . S
C826 C829 1.382 . S
C826 H837 0.930 . S
C827 C825 1.369 . S
C827 C829 1.392 . S
C827 H838 0.930 . S
C828 C824 1.373 . S
C828 C826 1.383 . S
C828 H839 0.931 . S
C829 C826 1.382 . S
C829 C827 1.392 . S
C830 Eu801 2.828 . S
C830 O814 1.249 . S
C830 O815 1.244 . S
C830 C824 1.505 . S
C831 O818 1.258 . S
C831 O819 1.242 . S
H832 C804 0.930 . S
H833 C805 0.930 . S
H834 C806 0.930 . S
H835 C807 0.931 . S
H836 C825 0.930 . S
H837 C826 0.930 . S
H838 C827 0.930 . S
H839 C828 0.931 . S
Eu840 C849 2.828 . S
Eu840 O851 2.392 . S
Eu840 O853 2.418 . S
Eu840 O858 2.373 . S
Eu840 O861 2.488 . S
Eu840 O862 2.471 . S
Eu840 O863 2.349 . S
Eu841 O850 2.373 . S
Eu841 O854 2.488 . S
Eu841 O855 2.471 . S
Eu841 O856 2.349 . S
Eu841 O859 2.392 . S
Eu841 O860 2.418 . S
Eu841 C870 2.828 . S
C842 O860 1.244 . S
C842 O863 1.265 . S
C843 C844 1.379 . S
C843 C847 1.373 . S
C843 C849 1.505 . S
C844 C843 1.379 . S
C844 C846 1.369 . S
C844 H872 0.930 . S
C845 C847 1.383 . S
C845 C848 1.382 . S
C845 H873 0.930 . S
C846 C844 1.369 . S
C846 C848 1.392 . S
C846 H874 0.930 . S
C847 C843 1.373 . S
C847 C845 1.383 . S
C847 H875 0.931 . S
C848 C845 1.382 . S
C848 C846 1.392 . S
C849 Eu840 2.828 . S
C849 C843 1.505 . S
C849 O861 1.249 . S
C849 O862 1.244 . S
O850 Eu841 2.373 . S
O850 C852 1.258 . S
O851 Eu840 2.392 . S
O851 C852 1.242 . S
C852 O850 1.258 . S
C852 O851 1.242 . S
O853 Eu840 2.418 . S
O853 C857 1.244 . S
O854 Eu841 2.488 . S
O854 C870 1.249 . S
O855 Eu841 2.471 . S
O855 C870 1.244 . S
O856 Eu841 2.349 . S
O856 C857 1.265 . S
C857 O853 1.244 . S
C857 O856 1.265 . S
O858 Eu840 2.373 . S
O858 C871 1.258 . S
O859 Eu841 2.392 . S
O859 C871 1.242 . S
O860 Eu841 2.418 . S
O860 C842 1.244 . S
O861 Eu840 2.488 . S
O861 C849 1.249 . S
O862 Eu840 2.471 . S
O862 C849 1.244 . S
O863 Eu840 2.349 . S
O863 C842 1.265 . S
C864 C865 1.379 . S
C864 C868 1.373 . S
C864 C870 1.505 1_655 S
C865 C864 1.379 . S
C865 C867 1.369 . S
C865 H876 0.930 . S
C866 C868 1.383 . S
C866 C869 1.382 . S
C866 H877 0.930 . S
C867 C865 1.369 . S
C867 C869 1.392 . S
C867 H878 0.930 . S
C868 C864 1.373 . S
C868 C866 1.383 . S
C868 H879 0.931 . S
C869 C866 1.382 . S
C869 C867 1.392 . S
C870 Eu841 2.828 . S
C870 O854 1.249 . S
C870 O855 1.244 . S
C870 C864 1.505 1_455 S
C871 O858 1.258 . S
C871 O859 1.242 . S
H872 C844 0.930 . S
H873 C845 0.930 . S
H874 C846 0.930 . S
H875 C847 0.931 . S
H876 C865 0.930 . S
H877 C866 0.930 . S
H878 C867 0.930 . S
H879 C868 0.931 . S
Eu880 C889 2.828 . S
Eu880 O891 2.392 . S
Eu880 O893 2.418 . S
Eu880 O898 2.373 . S
Eu880 O901 2.488 . S
Eu880 O902 2.471 . S
Eu880 O903 2.349 . S
Eu881 O890 2.373 . S
Eu881 O894 2.488 . S
Eu881 O895 2.471 . S
Eu881 O896 2.349 . S
Eu881 O899 2.392 . S
Eu881 O900 2.418 . S
Eu881 C910 2.828 . S
C882 O900 1.244 . S
C882 O903 1.265 . S
C883 C884 1.379 . S
C883 C887 1.373 . S
C883 C889 1.505 . S
C884 C883 1.379 . S
C884 C886 1.369 . S
C884 H912 0.930 . S
C885 C887 1.383 . S
C885 C888 1.382 . S
C885 H913 0.930 . S
C886 C884 1.369 . S
C886 C888 1.392 . S
C886 H914 0.930 . S
C887 C883 1.373 . S
C887 C885 1.383 . S
C887 H915 0.931 . S
C888 C885 1.382 . S
C888 C886 1.392 . S
C889 Eu880 2.828 . S
C889 C883 1.505 . S
C889 O901 1.249 . S
C889 O902 1.244 . S
O890 Eu881 2.373 . S
O890 C892 1.258 . S
O891 Eu880 2.392 . S
O891 C892 1.242 . S
C892 O890 1.258 . S
C892 O891 1.242 . S
O893 Eu880 2.418 . S
O893 C897 1.244 . S
O894 Eu881 2.488 . S
O894 C910 1.249 . S
O895 Eu881 2.471 . S
O895 C910 1.244 . S
O896 Eu881 2.349 . S
O896 C897 1.265 . S
C897 O893 1.244 . S
C897 O896 1.265 . S
O898 Eu880 2.373 . S
O898 C911 1.258 . S
O899 Eu881 2.392 . S
O899 C911 1.242 . S
O900 Eu881 2.418 . S
O900 C882 1.244 . S
O901 Eu880 2.488 . S
O901 C889 1.249 . S
O902 Eu880 2.471 . S
O902 C889 1.244 . S
O903 Eu880 2.349 . S
O903 C882 1.265 . S
C904 C905 1.379 . S
C904 C908 1.373 . S
C904 C910 1.505 . S
C905 C904 1.379 . S
C905 C907 1.369 . S
C905 H916 0.930 . S
C906 C908 1.383 . S
C906 C909 1.382 . S
C906 H917 0.930 . S
C907 C905 1.369 . S
C907 C909 1.392 . S
C907 H918 0.930 . S
C908 C904 1.373 . S
C908 C906 1.383 . S
C908 H919 0.931 . S
C909 C906 1.382 . S
C909 C907 1.392 . S
C910 Eu881 2.828 . S
C910 O894 1.249 . S
C910 O895 1.244 . S
C910 C904 1.505 . S
C911 O898 1.258 . S
C911 O899 1.242 . S
H912 C884 0.930 . S
H913 C885 0.930 . S
H914 C886 0.930 . S
H915 C887 0.931 . S
H916 C905 0.930 . S
H917 C906 0.930 . S
H918 C907 0.930 . S
H919 C908 0.931 . S
Eu920 C929 2.828 . S
Eu920 O931 2.392 . S
Eu920 O933 2.418 . S
Eu920 O938 2.373 . S
Eu920 O941 2.488 . S
Eu920 O942 2.471 . S
Eu920 O943 2.349 . S
Eu921 O930 2.373 . S
Eu921 O934 2.488 . S
Eu921 O935 2.471 . S
Eu921 O936 2.349 . S
Eu921 O939 2.392 . S
Eu921 O940 2.418 . S
Eu921 C950 2.828 . S
C922 O940 1.244 . S
C922 O943 1.265 . S
C923 C924 1.379 . S
C923 C927 1.373 . S
C923 C929 1.505 . S
C924 C923 1.379 . S
C924 C926 1.369 . S
C924 H952 0.930 . S
C925 C927 1.383 . S
C925 C928 1.382 . S
C925 H953 0.930 . S
C926 C924 1.369 . S
C926 C928 1.392 . S
C926 H954 0.930 . S
C927 C923 1.373 . S
C927 C925 1.383 . S
C927 H955 0.931 . S
C928 C925 1.382 . S
C928 C926 1.392 . S
C929 Eu920 2.828 . S
C929 C923 1.505 . S
C929 O941 1.249 . S
C929 O942 1.244 . S
O930 Eu921 2.373 . S
O930 C932 1.258 . S
O931 Eu920 2.392 . S
O931 C932 1.242 . S
C932 O930 1.258 . S
C932 O931 1.242 . S
O933 Eu920 2.418 . S
O933 C937 1.244 . S
O934 Eu921 2.488 . S
O934 C950 1.249 . S
O935 Eu921 2.471 . S
O935 C950 1.244 . S
O936 Eu921 2.349 . S
O936 C937 1.265 . S
C937 O933 1.244 . S
C937 O936 1.265 . S
O938 Eu920 2.373 . S
O938 C951 1.258 . S
O939 Eu921 2.392 . S
O939 C951 1.242 . S
O940 Eu921 2.418 . S
O940 C922 1.244 . S
O941 Eu920 2.488 . S
O941 C929 1.249 . S
O942 Eu920 2.471 . S
O942 C929 1.244 . S
O943 Eu920 2.349 . S
O943 C922 1.265 . S
C944 C945 1.379 . S
C944 C948 1.373 . S
C944 C950 1.505 1_655 S
C945 C944 1.379 . S
C945 C947 1.369 . S
C945 H956 0.930 . S
C946 C948 1.383 . S
C946 C949 1.382 . S
C946 H957 0.930 . S
C947 C945 1.369 . S
C947 C949 1.392 . S
C947 H958 0.930 . S
C948 C944 1.373 . S
C948 C946 1.383 . S
C948 H959 0.931 . S
C949 C946 1.382 . S
C949 C947 1.392 . S
C950 Eu921 2.828 . S
C950 O934 1.249 . S
C950 O935 1.244 . S
C950 C944 1.505 1_455 S
C951 O938 1.258 . S
C951 O939 1.242 . S
H952 C924 0.930 . S
H953 C925 0.930 . S
H954 C926 0.930 . S
H955 C927 0.931 . S
H956 C945 0.930 . S
H957 C946 0.930 . S
H958 C947 0.930 . S
H959 C948 0.931 . S
Eu960 C969 2.828 . S
Eu960 O971 2.392 . S
Eu960 O973 2.418 1_545 S
Eu960 O978 2.373 1_545 S
Eu960 O981 2.488 . S
Eu960 O982 2.471 . S
Eu960 O983 2.349 1_545 S
Eu961 O970 2.373 1_565 S
Eu961 O974 2.488 . S
Eu961 O975 2.471 . S
Eu961 O976 2.349 . S
Eu961 O979 2.392 . S
Eu961 O980 2.418 . S
Eu961 C990 2.828 . S
C962 O980 1.244 . S
C962 O983 1.265 . S
C963 C964 1.379 1_545 S
C963 C967 1.373 . S
C963 C969 1.505 . S
C964 C963 1.379 1_565 S
C964 C966 1.369 . S
C964 H992 0.930 . S
C965 C967 1.383 . S
C965 C968 1.382 1_545 S
C965 H993 0.930 . S
C966 C964 1.369 . S
C966 C968 1.392 . S
C966 H994 0.930 . S
C967 C963 1.373 . S
C967 C965 1.383 . S
C967 H995 0.931 . S
C968 C965 1.382 1_565 S
C968 C966 1.392 . S
C969 Eu960 2.828 . S
C969 C963 1.505 . S
C969 O981 1.249 . S
C969 O982 1.244 . S
O970 Eu961 2.373 1_545 S
O970 C972 1.258 . S
O971 Eu960 2.392 . S
O971 C972 1.242 . S
C972 O970 1.258 . S
C972 O971 1.242 . S
O973 Eu960 2.418 1_565 S
O973 C977 1.244 . S
O974 Eu961 2.488 . S
O974 C990 1.249 . S
O975 Eu961 2.471 . S
O975 C990 1.244 . S
O976 Eu961 2.349 . S
O976 C977 1.265 . S
C977 O973 1.244 . S
C977 O976 1.265 . S
O978 Eu960 2.373 1_565 S
O978 C991 1.258 . S
O979 Eu961 2.392 . S
O979 C991 1.242 . S
O980 Eu961 2.418 . S
O980 C962 1.244 . S
O981 Eu960 2.488 . S
O981 C969 1.249 . S
O982 Eu960 2.471 . S
O982 C969 1.244 . S
O983 Eu960 2.349 1_565 S
O983 C962 1.265 . S
C984 C985 1.379 . S
C984 C988 1.373 . S
C984 C990 1.505 . S
C985 C984 1.379 . S
C985 C987 1.369 . S
C985 H996 0.930 . S
C986 C988 1.383 . S
C986 C989 1.382 . S
C986 H997 0.930 . S
C987 C985 1.369 . S
C987 C989 1.392 . S
C987 H998 0.930 . S
C988 C984 1.373 . S
C988 C986 1.383 . S
C988 H999 0.931 . S
C989 C986 1.382 . S
C989 C987 1.392 . S
C990 Eu961 2.828 . S
C990 O974 1.249 . S
C990 O975 1.244 . S
C990 C984 1.505 . S
C991 O978 1.258 . S
C991 O979 1.242 . S
H992 C964 0.930 . S
H993 C965 0.930 . S
H994 C966 0.930 . S
H995 C967 0.931 . S
H996 C985 0.930 . S
H997 C986 0.930 . S
H998 C987 0.930 . S
H999 C988 0.931 . S
Eu1000 C1009 2.828 . S
Eu1000 O1011 2.392 . S
Eu1000 O1013 2.418 . S
Eu1000 O1018 2.373 . S
Eu1000 O1021 2.488 . S
Eu1000 O1022 2.471 . S
Eu1000 O1023 2.349 . S
Eu1001 O1010 2.373 . S
Eu1001 O1014 2.488 . S
Eu1001 O1015 2.471 . S
Eu1001 O1016 2.349 . S
Eu1001 O1019 2.392 . S
Eu1001 O1020 2.418 . S
Eu1001 C1030 2.828 . S
C1002 O1020 1.244 . S
C1002 O1023 1.265 . S
C1003 C1004 1.379 . S
C1003 C1007 1.373 . S
C1003 C1009 1.505 1_455 S
C1004 C1003 1.379 . S
C1004 C1006 1.369 . S
C1004 H1032 0.930 . S
C1005 C1007 1.383 . S
C1005 C1008 1.382 . S
C1005 H1033 0.930 . S
C1006 C1004 1.369 . S
C1006 C1008 1.392 . S
C1006 H1034 0.930 . S
C1007 C1003 1.373 . S
C1007 C1005 1.383 . S
C1007 H1035 0.931 . S
C1008 C1005 1.382 . S
C1008 C1006 1.392 . S
C1009 Eu1000 2.828 . S
C1009 C1003 1.505 1_655 S
C1009 O1021 1.249 . S
C1009 O1022 1.244 . S
O1010 Eu1001 2.373 . S
O1010 C1012 1.258 . S
O1011 Eu1000 2.392 . S
O1011 C1012 1.242 . S
C1012 O1010 1.258 . S
C1012 O1011 1.242 . S
O1013 Eu1000 2.418 . S
O1013 C1017 1.244 . S
O1014 Eu1001 2.488 . S
O1014 C1030 1.249 . S
O1015 Eu1001 2.471 . S
O1015 C1030 1.244 . S
O1016 Eu1001 2.349 . S
O1016 C1017 1.265 . S
C1017 O1013 1.244 . S
C1017 O1016 1.265 . S
O1018 Eu1000 2.373 . S
O1018 C1031 1.258 . S
O1019 Eu1001 2.392 . S
O1019 C1031 1.242 . S
O1020 Eu1001 2.418 . S
O1020 C1002 1.244 . S
O1021 Eu1000 2.488 . S
O1021 C1009 1.249 . S
O1022 Eu1000 2.471 . S
O1022 C1009 1.244 . S
O1023 Eu1000 2.349 . S
O1023 C1002 1.265 . S
C1024 C1025 1.379 . S
C1024 C1028 1.373 . S
C1024 C1030 1.505 . S
C1025 C1024 1.379 . S
C1025 C1027 1.369 . S
C1025 H1036 0.930 . S
C1026 C1028 1.383 . S
C1026 C1029 1.382 . S
C1026 H1037 0.930 . S
C1027 C1025 1.369 . S
C1027 C1029 1.392 . S
C1027 H1038 0.930 . S
C1028 C1024 1.373 . S
C1028 C1026 1.383 . S
C1028 H1039 0.931 . S
C1029 C1026 1.382 . S
C1029 C1027 1.392 . S
C1030 Eu1001 2.828 . S
C1030 O1014 1.249 . S
C1030 O1015 1.244 . S
C1030 C1024 1.505 . S
C1031 O1018 1.258 . S
C1031 O1019 1.242 . S
H1032 C1004 0.930 . S
H1033 C1005 0.930 . S
H1034 C1006 0.930 . S
H1035 C1007 0.931 . S
H1036 C1025 0.930 . S
H1037 C1026 0.930 . S
H1038 C1027 0.930 . S
H1039 C1028 0.931 . S
Eu1040 C1049 2.828 . S
Eu1040 O1051 2.392 . S
Eu1040 O1053 2.418 . S
Eu1040 O1058 2.373 . S
Eu1040 O1061 2.488 . S
Eu1040 O1062 2.471 . S
Eu1040 O1063 2.349 . S
Eu1041 O1050 2.373 . S
Eu1041 O1054 2.488 . S
Eu1041 O1055 2.471 . S
Eu1041 O1056 2.349 . S
Eu1041 O1059 2.392 . S
Eu1041 O1060 2.418 . S
Eu1041 C1070 2.828 . S
C1042 O1060 1.244 . S
C1042 O1063 1.265 . S
C1043 C1044 1.379 . S
C1043 C1047 1.373 . S
C1043 C1049 1.505 . S
C1044 C1043 1.379 . S
C1044 C1046 1.369 . S
C1044 H1072 0.930 . S
C1045 C1047 1.383 . S
C1045 C1048 1.382 . S
C1045 H1073 0.930 . S
C1046 C1044 1.369 . S
C1046 C1048 1.392 . S
C1046 H1074 0.930 . S
C1047 C1043 1.373 . S
C1047 C1045 1.383 . S
C1047 H1075 0.931 . S
C1048 C1045 1.382 . S
C1048 C1046 1.392 . S
C1049 Eu1040 2.828 . S
C1049 C1043 1.505 . S
C1049 O1061 1.249 . S
C1049 O1062 1.244 . S
O1050 Eu1041 2.373 . S
O1050 C1052 1.258 . S
O1051 Eu1040 2.392 . S
O1051 C1052 1.242 . S
C1052 O1050 1.258 . S
C1052 O1051 1.242 . S
O1053 Eu1040 2.418 . S
O1053 C1057 1.244 . S
O1054 Eu1041 2.488 . S
O1054 C1070 1.249 . S
O1055 Eu1041 2.471 . S
O1055 C1070 1.244 . S
O1056 Eu1041 2.349 . S
O1056 C1057 1.265 . S
C1057 O1053 1.244 . S
C1057 O1056 1.265 . S
O1058 Eu1040 2.373 . S
O1058 C1071 1.258 . S
O1059 Eu1041 2.392 . S
O1059 C1071 1.242 . S
O1060 Eu1041 2.418 . S
O1060 C1042 1.244 . S
O1061 Eu1040 2.488 . S
O1061 C1049 1.249 . S
O1062 Eu1040 2.471 . S
O1062 C1049 1.244 . S
O1063 Eu1040 2.349 . S
O1063 C1042 1.265 . S
C1064 C1065 1.379 . S
C1064 C1068 1.373 . S
C1064 C1070 1.505 . S
C1065 C1064 1.379 . S
C1065 C1067 1.369 . S
C1065 H1076 0.930 . S
C1066 C1068 1.383 . S
C1066 C1069 1.382 . S
C1066 H1077 0.930 . S
C1067 C1065 1.369 . S
C1067 C1069 1.392 . S
C1067 H1078 0.930 . S
C1068 C1064 1.373 . S
C1068 C1066 1.383 . S
C1068 H1079 0.931 . S
C1069 C1066 1.382 . S
C1069 C1067 1.392 . S
C1070 Eu1041 2.828 . S
C1070 O1054 1.249 . S
C1070 O1055 1.244 . S
C1070 C1064 1.505 . S
C1071 O1058 1.258 . S
C1071 O1059 1.242 . S
H1072 C1044 0.930 . S
H1073 C1045 0.930 . S
H1074 C1046 0.930 . S
H1075 C1047 0.931 . S
H1076 C1065 0.930 . S
H1077 C1066 0.930 . S
H1078 C1067 0.930 . S
H1079 C1068 0.931 . S
Eu1080 C1089 2.828 . S
Eu1080 O1091 2.392 . S
Eu1080 O1093 2.418 1_545 S
Eu1080 O1098 2.373 1_545 S
Eu1080 O1101 2.488 . S
Eu1080 O1102 2.471 . S
Eu1080 O1103 2.349 1_545 S
Eu1081 O1090 2.373 1_565 S
Eu1081 O1094 2.488 . S
Eu1081 O1095 2.471 . S
Eu1081 O1096 2.349 . S
Eu1081 O1099 2.392 . S
Eu1081 O1100 2.418 . S
Eu1081 C1110 2.828 . S
C1082 O1100 1.244 . S
C1082 O1103 1.265 . S
C1083 C1084 1.379 1_545 S
C1083 C1087 1.373 . S
C1083 C1089 1.505 1_455 S
C1084 C1083 1.379 1_565 S
C1084 C1086 1.369 . S
C1084 H1112 0.930 . S
C1085 C1087 1.383 . S
C1085 C1088 1.382 1_545 S
C1085 H1113 0.930 . S
C1086 C1084 1.369 . S
C1086 C1088 1.392 . S
C1086 H1114 0.930 . S
C1087 C1083 1.373 . S
C1087 C1085 1.383 . S
C1087 H1115 0.931 . S
C1088 C1085 1.382 1_565 S
C1088 C1086 1.392 . S
C1089 Eu1080 2.828 . S
C1089 C1083 1.505 1_655 S
C1089 O1101 1.249 . S
C1089 O1102 1.244 . S
O1090 Eu1081 2.373 1_545 S
O1090 C1092 1.258 . S
O1091 Eu1080 2.392 . S
O1091 C1092 1.242 . S
C1092 O1090 1.258 . S
C1092 O1091 1.242 . S
O1093 Eu1080 2.418 1_565 S
O1093 C1097 1.244 . S
O1094 Eu1081 2.488 . S
O1094 C1110 1.249 . S
O1095 Eu1081 2.471 . S
O1095 C1110 1.244 . S
O1096 Eu1081 2.349 . S
O1096 C1097 1.265 . S
C1097 O1093 1.244 . S
C1097 O1096 1.265 . S
O1098 Eu1080 2.373 1_565 S
O1098 C1111 1.258 . S
O1099 Eu1081 2.392 . S
O1099 C1111 1.242 . S
O1100 Eu1081 2.418 . S
O1100 C1082 1.244 . S
O1101 Eu1080 2.488 . S
O1101 C1089 1.249 . S
O1102 Eu1080 2.471 . S
O1102 C1089 1.244 . S
O1103 Eu1080 2.349 1_565 S
O1103 C1082 1.265 . S
C1104 C1105 1.379 . S
C1104 C1108 1.373 . S
C1104 C1110 1.505 . S
C1105 C1104 1.379 . S
C1105 C1107 1.369 . S
C1105 H1116 0.930 . S
C1106 C1108 1.383 . S
C1106 C1109 1.382 . S
C1106 H1117 0.930 . S
C1107 C1105 1.369 . S
C1107 C1109 1.392 . S
C1107 H1118 0.930 . S
C1108 C1104 1.373 . S
C1108 C1106 1.383 . S
C1108 H1119 0.931 . S
C1109 C1106 1.382 . S
C1109 C1107 1.392 . S
C1110 Eu1081 2.828 . S
C1110 O1094 1.249 . S
C1110 O1095 1.244 . S
C1110 C1104 1.505 . S
C1111 O1098 1.258 . S
C1111 O1099 1.242 . S
H1112 C1084 0.930 . S
H1113 C1085 0.930 . S
H1114 C1086 0.930 . S
H1115 C1087 0.931 . S
H1116 C1105 0.930 . S
H1117 C1106 0.930 . S
H1118 C1107 0.930 . S
H1119 C1108 0.931 . S
Eu1120 C1129 2.828 . S
Eu1120 O1131 2.392 . S
Eu1120 O1133 2.418 . S
Eu1120 O1138 2.373 1_545 S
Eu1120 O1141 2.488 . S
Eu1120 O1142 2.471 . S
Eu1120 O1143 2.349 . S
Eu1121 O1130 2.373 1_565 S
Eu1121 O1134 2.488 . S
Eu1121 O1135 2.471 . S
Eu1121 O1136 2.349 1_565 S
Eu1121 O1139 2.392 . S
Eu1121 O1140 2.418 1_565 S
Eu1121 C1150 2.828 . S
C1122 O1140 1.244 . S
C1122 O1143 1.265 . S
C1123 C1124 1.379 . S
C1123 C1127 1.373 . S
C1123 C1129 1.505 . S
C1124 C1123 1.379 . S
C1124 C1126 1.369 . S
C1124 H1152 0.930 . S
C1125 C1127 1.383 . S
C1125 C1128 1.382 . S
C1125 H1153 0.930 . S
C1126 C1124 1.369 . S
C1126 C1128 1.392 . S
C1126 H1154 0.930 . S
C1127 C1123 1.373 . S
C1127 C1125 1.383 . S
C1127 H1155 0.931 . S
C1128 C1125 1.382 . S
C1128 C1126 1.392 . S
C1129 Eu1120 2.828 . S
C1129 C1123 1.505 . S
C1129 O1141 1.249 . S
C1129 O1142 1.244 . S
O1130 Eu1121 2.373 1_545 S
O1130 C1132 1.258 . S
O1131 Eu1120 2.392 . S
O1131 C1132 1.242 . S
C1132 O1130 1.258 . S
C1132 O1131 1.242 . S
O1133 Eu1120 2.418 . S
O1133 C1137 1.244 . S
O1134 Eu1121 2.488 . S
O1134 C1150 1.249 . S
O1135 Eu1121 2.471 . S
O1135 C1150 1.244 . S
O1136 Eu1121 2.349 1_545 S
O1136 C1137 1.265 . S
C1137 O1133 1.244 . S
C1137 O1136 1.265 . S
O1138 Eu1120 2.373 1_565 S
O1138 C1151 1.258 . S
O1139 Eu1121 2.392 . S
O1139 C1151 1.242 . S
O1140 Eu1121 2.418 1_545 S
O1140 C1122 1.244 . S
O1141 Eu1120 2.488 . S
O1141 C1129 1.249 . S
O1142 Eu1120 2.471 . S
O1142 C1129 1.244 . S
O1143 Eu1120 2.349 . S
O1143 C1122 1.265 . S
C1144 C1145 1.379 1_565 S
C1144 C1148 1.373 . S
C1144 C1150 1.505 . S
C1145 C1144 1.379 1_545 S
C1145 C1147 1.369 . S
C1145 H1156 0.930 . S
C1146 C1148 1.383 . S
C1146 C1149 1.382 1_565 S
C1146 H1157 0.930 . S
C1147 C1145 1.369 . S
C1147 C1149 1.392 . S
C1147 H1158 0.930 . S
C1148 C1144 1.373 . S
C1148 C1146 1.383 . S
C1148 H1159 0.931 . S
C1149 C1146 1.382 1_545 S
C1149 C1147 1.392 . S
C1150 Eu1121 2.828 . S
C1150 O1134 1.249 . S
C1150 O1135 1.244 . S
C1150 C1144 1.505 . S
C1151 O1138 1.258 . S
C1151 O1139 1.242 . S
H1152 C1124 0.930 . S
H1153 C1125 0.930 . S
H1154 C1126 0.930 . S
H1155 C1127 0.931 . S
H1156 C1145 0.930 . S
H1157 C1146 0.930 . S
H1158 C1147 0.930 . S
H1159 C1148 0.931 . S
Eu1160 C1169 2.828 . S
Eu1160 O1171 2.392 . S
Eu1160 O1173 2.418 . S
Eu1160 O1178 2.373 . S
Eu1160 O1181 2.488 . S
Eu1160 O1182 2.471 . S
Eu1160 O1183 2.349 . S
Eu1161 O1170 2.373 . S
Eu1161 O1174 2.488 . S
Eu1161 O1175 2.471 . S
Eu1161 O1176 2.349 . S
Eu1161 O1179 2.392 . S
Eu1161 O1180 2.418 . S
Eu1161 C1190 2.828 . S
C1162 O1180 1.244 . S
C1162 O1183 1.265 . S
C1163 C1164 1.379 . S
C1163 C1167 1.373 . S
C1163 C1169 1.505 . S
C1164 C1163 1.379 . S
C1164 C1166 1.369 . S
C1164 H1192 0.930 . S
C1165 C1167 1.383 . S
C1165 C1168 1.382 . S
C1165 H1193 0.930 . S
C1166 C1164 1.369 . S
C1166 C1168 1.392 . S
C1166 H1194 0.930 . S
C1167 C1163 1.373 . S
C1167 C1165 1.383 . S
C1167 H1195 0.931 . S
C1168 C1165 1.382 . S
C1168 C1166 1.392 . S
C1169 Eu1160 2.828 . S
C1169 C1163 1.505 . S
C1169 O1181 1.249 . S
C1169 O1182 1.244 . S
O1170 Eu1161 2.373 . S
O1170 C1172 1.258 . S
O1171 Eu1160 2.392 . S
O1171 C1172 1.242 . S
C1172 O1170 1.258 . S
C1172 O1171 1.242 . S
O1173 Eu1160 2.418 . S
O1173 C1177 1.244 . S
O1174 Eu1161 2.488 . S
O1174 C1190 1.249 . S
O1175 Eu1161 2.471 . S
O1175 C1190 1.244 . S
O1176 Eu1161 2.349 . S
O1176 C1177 1.265 . S
C1177 O1173 1.244 . S
C1177 O1176 1.265 . S
O1178 Eu1160 2.373 . S
O1178 C1191 1.258 . S
O1179 Eu1161 2.392 . S
O1179 C1191 1.242 . S
O1180 Eu1161 2.418 . S
O1180 C1162 1.244 . S
O1181 Eu1160 2.488 . S
O1181 C1169 1.249 . S
O1182 Eu1160 2.471 . S
O1182 C1169 1.244 . S
O1183 Eu1160 2.349 . S
O1183 C1162 1.265 . S
C1184 C1185 1.379 . S
C1184 C1188 1.373 . S
C1184 C1190 1.505 1_655 S
C1185 C1184 1.379 . S
C1185 C1187 1.369 . S
C1185 H1196 0.930 . S
C1186 C1188 1.383 . S
C1186 C1189 1.382 . S
C1186 H1197 0.930 . S
C1187 C1185 1.369 . S
C1187 C1189 1.392 . S
C1187 H1198 0.930 . S
C1188 C1184 1.373 . S
C1188 C1186 1.383 . S
C1188 H1199 0.931 . S
C1189 C1186 1.382 . S
C1189 C1187 1.392 . S
C1190 Eu1161 2.828 . S
C1190 O1174 1.249 . S
C1190 O1175 1.244 . S
C1190 C1184 1.505 1_455 S
C1191 O1178 1.258 . S
C1191 O1179 1.242 . S
H1192 C1164 0.930 . S
H1193 C1165 0.930 . S
H1194 C1166 0.930 . S
H1195 C1167 0.931 . S
H1196 C1185 0.930 . S
H1197 C1186 0.930 . S
H1198 C1187 0.930 . S
H1199 C1188 0.931 . S
Eu1200 C1209 2.828 . S
Eu1200 O1211 2.392 . S
Eu1200 O1213 2.418 . S
Eu1200 O1218 2.373 . S
Eu1200 O1221 2.488 . S
Eu1200 O1222 2.471 . S
Eu1200 O1223 2.349 . S
Eu1201 O1210 2.373 . S
Eu1201 O1214 2.488 . S
Eu1201 O1215 2.471 . S
Eu1201 O1216 2.349 . S
Eu1201 O1219 2.392 . S
Eu1201 O1220 2.418 . S
Eu1201 C1230 2.828 . S
C1202 O1220 1.244 . S
C1202 O1223 1.265 . S
C1203 C1204 1.379 . S
C1203 C1207 1.373 . S
C1203 C1209 1.505 . S
C1204 C1203 1.379 . S
C1204 C1206 1.369 . S
C1204 H1232 0.930 . S
C1205 C1207 1.383 . S
C1205 C1208 1.382 . S
C1205 H1233 0.930 . S
C1206 C1204 1.369 . S
C1206 C1208 1.392 . S
C1206 H1234 0.930 . S
C1207 C1203 1.373 . S
C1207 C1205 1.383 . S
C1207 H1235 0.931 . S
C1208 C1205 1.382 . S
C1208 C1206 1.392 . S
C1209 Eu1200 2.828 . S
C1209 C1203 1.505 . S
C1209 O1221 1.249 . S
C1209 O1222 1.244 . S
O1210 Eu1201 2.373 . S
O1210 C1212 1.258 . S
O1211 Eu1200 2.392 . S
O1211 C1212 1.242 . S
C1212 O1210 1.258 . S
C1212 O1211 1.242 . S
O1213 Eu1200 2.418 . S
O1213 C1217 1.244 . S
O1214 Eu1201 2.488 . S
O1214 C1230 1.249 . S
O1215 Eu1201 2.471 . S
O1215 C1230 1.244 . S
O1216 Eu1201 2.349 . S
O1216 C1217 1.265 . S
C1217 O1213 1.244 . S
C1217 O1216 1.265 . S
O1218 Eu1200 2.373 . S
O1218 C1231 1.258 . S
O1219 Eu1201 2.392 . S
O1219 C1231 1.242 . S
O1220 Eu1201 2.418 . S
O1220 C1202 1.244 . S
O1221 Eu1200 2.488 . S
O1221 C1209 1.249 . S
O1222 Eu1200 2.471 . S
O1222 C1209 1.244 . S
O1223 Eu1200 2.349 . S
O1223 C1202 1.265 . S
C1224 C1225 1.379 . S
C1224 C1228 1.373 . S
C1224 C1230 1.505 . S
C1225 C1224 1.379 . S
C1225 C1227 1.369 . S
C1225 H1236 0.930 . S
C1226 C1228 1.383 . S
C1226 C1229 1.382 . S
C1226 H1237 0.930 . S
C1227 C1225 1.369 . S
C1227 C1229 1.392 . S
C1227 H1238 0.930 . S
C1228 C1224 1.373 . S
C1228 C1226 1.383 . S
C1228 H1239 0.931 . S
C1229 C1226 1.382 . S
C1229 C1227 1.392 . S
C1230 Eu1201 2.828 . S
C1230 O1214 1.249 . S
C1230 O1215 1.244 . S
C1230 C1224 1.505 . S
C1231 O1218 1.258 . S
C1231 O1219 1.242 . S
H1232 C1204 0.930 . S
H1233 C1205 0.930 . S
H1234 C1206 0.930 . S
H1235 C1207 0.931 . S
H1236 C1225 0.930 . S
H1237 C1226 0.930 . S
H1238 C1227 0.930 . S
H1239 C1228 0.931 . S
Eu1240 C1249 2.828 . S
Eu1240 O1251 2.392 . S
Eu1240 O1253 2.418 . S
Eu1240 O1258 2.373 1_545 S
Eu1240 O1261 2.488 . S
Eu1240 O1262 2.471 . S
Eu1240 O1263 2.349 . S
Eu1241 O1250 2.373 1_565 S
Eu1241 O1254 2.488 . S
Eu1241 O1255 2.471 . S
Eu1241 O1256 2.349 1_565 S
Eu1241 O1259 2.392 . S
Eu1241 O1260 2.418 1_565 S
Eu1241 C1270 2.828 . S
C1242 O1260 1.244 . S
C1242 O1263 1.265 . S
C1243 C1244 1.379 . S
C1243 C1247 1.373 . S
C1243 C1249 1.505 . S
C1244 C1243 1.379 . S
C1244 C1246 1.369 . S
C1244 H1272 0.930 . S
C1245 C1247 1.383 . S
C1245 C1248 1.382 . S
C1245 H1273 0.930 . S
C1246 C1244 1.369 . S
C1246 C1248 1.392 . S
C1246 H1274 0.930 . S
C1247 C1243 1.373 . S
C1247 C1245 1.383 . S
C1247 H1275 0.931 . S
C1248 C1245 1.382 . S
C1248 C1246 1.392 . S
C1249 Eu1240 2.828 . S
C1249 C1243 1.505 . S
C1249 O1261 1.249 . S
C1249 O1262 1.244 . S
O1250 Eu1241 2.373 1_545 S
O1250 C1252 1.258 . S
O1251 Eu1240 2.392 . S
O1251 C1252 1.242 . S
C1252 O1250 1.258 . S
C1252 O1251 1.242 . S
O1253 Eu1240 2.418 . S
O1253 C1257 1.244 . S
O1254 Eu1241 2.488 . S
O1254 C1270 1.249 . S
O1255 Eu1241 2.471 . S
O1255 C1270 1.244 . S
O1256 Eu1241 2.349 1_545 S
O1256 C1257 1.265 . S
C1257 O1253 1.244 . S
C1257 O1256 1.265 . S
O1258 Eu1240 2.373 1_565 S
O1258 C1271 1.258 . S
O1259 Eu1241 2.392 . S
O1259 C1271 1.242 . S
O1260 Eu1241 2.418 1_545 S
O1260 C1242 1.244 . S
O1261 Eu1240 2.488 . S
O1261 C1249 1.249 . S
O1262 Eu1240 2.471 . S
O1262 C1249 1.244 . S
O1263 Eu1240 2.349 . S
O1263 C1242 1.265 . S
C1264 C1265 1.379 1_565 S
C1264 C1268 1.373 . S
C1264 C1270 1.505 1_655 S
C1265 C1264 1.379 1_545 S
C1265 C1267 1.369 . S
C1265 H1276 0.930 . S
C1266 C1268 1.383 . S
C1266 C1269 1.382 1_565 S
C1266 H1277 0.930 . S
C1267 C1265 1.369 . S
C1267 C1269 1.392 . S
C1267 H1278 0.930 . S
C1268 C1264 1.373 . S
C1268 C1266 1.383 . S
C1268 H1279 0.931 . S
C1269 C1266 1.382 1_545 S
C1269 C1267 1.392 . S
C1270 Eu1241 2.828 . S
C1270 O1254 1.249 . S
C1270 O1255 1.244 . S
C1270 C1264 1.505 1_455 S
C1271 O1258 1.258 . S
C1271 O1259 1.242 . S
H1272 C1244 0.930 . S
H1273 C1245 0.930 . S
H1274 C1246 0.930 . S
H1275 C1247 0.931 . S
H1276 C1265 0.930 . S
H1277 C1266 0.930 . S
H1278 C1267 0.930 . S
H1279 C1268 0.931 . S
C31 C1031 2.530 . S
C991 C71 2.530 . S
C1111 C111 2.530 . S
C151 C1071 2.530 . S
C172 C1172 2.530 . S
C212 C1132 2.530 . S
C252 C1252 2.530 . S
C1212 C292 2.530 . S
C351 C711 2.530 . S
C391 C671 2.530 . S
C431 C791 2.530 . S
C751 C471 2.530 . S
C492 C852 2.530 . S
C532 C812 2.530 . S
C932 C572 2.530 . S
C612 C892 2.530 . S
C17 C137 2.816 . S
C57 C97 2.816 . S
C282 C162 2.816 . S
C242 C202 2.816 . S
C337 C457 2.816 . S
C377 C417 2.816 . S
C482 C602 2.816 . S
C562 C522 2.816 . S
C657 C777 2.816 . S
C697 C737 2.816 . S
C922 C802 2.816 . S
C842 C882 2.816 . S
C1097 C977 2.816 . S
C1017 C1057 2.816 . S
C1242 C1122 2.816 . S
C1202 C1162 2.816 . S
C52 C12 1.795 . S
C92 C132 1.795 . S
C231 C191 1.795 . S
C311 C271 1.795 . S
C332 C372 1.795 . S
C412 C452 1.795 . S
C551 C511 1.795 . S
C591 C631 1.795 . S
C652 C692 1.795 . S
C772 C732 1.795 . S
C831 C871 1.795 . S
C911 C951 1.795 . S
C972 C1012 1.795 . S
C1052 C1092 1.795 . S
C1191 C1151 1.795 . S
C1231 C1271 1.795 . S
C8 C29 2.307 . S
C48 C69 2.307 . S
C88 C109 2.307 . S
C149 C128 2.307 . S
C168 C189 2.307 . S
C229 C208 2.307 . S
C248 C269 2.307 . S
C288 C309 2.307 . S
C349 C328 2.307 . S
C368 C389 2.307 . S
C408 C429 2.307 . S
C469 C448 2.307 . S
C488 C509 2.307 . S
C549 C528 2.307 . S
C589 C568 2.307 . S
C608 C629 2.307 . S
C648 C669 2.307 1_455 S
C709 C688 2.307 . S
C749 C728 2.307 1_655 S
C768 C789 2.307 . S
C829 C808 2.307 1_655 S
C869 C848 2.307 . S
C888 C909 2.307 1_455 S
C949 C928 2.307 . S
C989 C968 2.307 1_655 S
C1008 C1029 2.307 . S
C1069 C1048 2.307 1_655 S
C1109 C1088 2.307 . S
C1149 C1128 2.307 1_655 S
C1189 C1168 2.307 . S
C1208 C1229 2.307 1_455 S
C1248 C1269 2.307 . S
C2 C177 1.532 1_454 S
C1177 C42 1.532 1_556 S
C577 C82 1.532 1_655 S
C122 C937 1.532 . S
C217 C1002 1.532 1_556 S
C257 C402 1.532 1_655 S
C297 C762 1.532 . S
C322 C497 1.532 1_465 S
C857 C362 1.532 . S
C1257 C442 1.532 1_545 S
C537 C682 1.532 . S
C1082 C617 1.532 1_565 S
C642 C817 1.532 . S
C1217 C722 1.532 . S
C897 C1042 1.532 . S
C962 C1137 1.532 1_564 S
