# Generated by pormake.
# Topology ukv, (4)-cn, num edge types: 1
# Building blocks:
#     Node 0, Type 0, BuildingBlock: QUQFOY_clean_sbu_1, # of connection points: 4
#     Node 1, Type 0, BuildingBlock: QUQFOY_clean_sbu_1, # of connection points: 4
#     Node 2, Type 0, BuildingBlock: QUQFOY_clean_sbu_1, # of connection points: 4
#     Node 3, Type 0, BuildingBlock: QUQFOY_clean_sbu_1, # of connection points: 4
#     Node 4, Type 0, BuildingBlock: QUQFOY_clean_sbu_1, # of connection points: 4
#     Node 5, Type 0, BuildingBlock: QUQFOY_clean_sbu_1, # of connection points: 4
#     Node 6, Type 0, BuildingBlock: QUQFOY_clean_sbu_1, # of connection points: 4
#     Node 7, Type 0, BuildingBlock: QUQFOY_clean_sbu_1, # of connection points: 4
#     Node 8, Type 0, BuildingBlock: QUQFOY_clean_sbu_1, # of connection points: 4
#     Node 9, Type 0, BuildingBlock: QUQFOY_clean_sbu_1, # of connection points: 4
#     Node 10, Type 0, BuildingBlock: QUQFOY_clean_sbu_1, # of connection points: 4
#     Node 11, Type 0, BuildingBlock: QUQFOY_clean_sbu_1, # of connection points: 4
#     Node 12, Type 0, BuildingBlock: QUQFOY_clean_sbu_1, # of connection points: 4
#     Node 13, Type 0, BuildingBlock: QUQFOY_clean_sbu_1, # of connection points: 4
#     Node 14, Type 0, BuildingBlock: QUQFOY_clean_sbu_1, # of connection points: 4
#     Node 15, Type 0, BuildingBlock: QUQFOY_clean_sbu_1, # of connection points: 4
#     Node 16, Type 0, BuildingBlock: QUQFOY_clean_sbu_1, # of connection points: 4
#     Node 17, Type 0, BuildingBlock: QUQFOY_clean_sbu_1, # of connection points: 4
#     Node 18, Type 0, BuildingBlock: QUQFOY_clean_sbu_1, # of connection points: 4
#     Node 19, Type 0, BuildingBlock: QUQFOY_clean_sbu_1, # of connection points: 4
#     Node 20, Type 0, BuildingBlock: QUQFOY_clean_sbu_1, # of connection points: 4
#     Node 21, Type 0, BuildingBlock: QUQFOY_clean_sbu_1, # of connection points: 4
#     Node 22, Type 0, BuildingBlock: QUQFOY_clean_sbu_1, # of connection points: 4
#     Node 23, Type 0, BuildingBlock: QUQFOY_clean_sbu_1, # of connection points: 4
#     Node 24, Type 0, BuildingBlock: QUQFOY_clean_sbu_1, # of connection points: 4
#     Node 25, Type 0, BuildingBlock: QUQFOY_clean_sbu_1, # of connection points: 4
#     Node 26, Type 0, BuildingBlock: QUQFOY_clean_sbu_1, # of connection points: 4
#     Node 27, Type 0, BuildingBlock: QUQFOY_clean_sbu_1, # of connection points: 4
#     Node 28, Type 0, BuildingBlock: QUQFOY_clean_sbu_1, # of connection points: 4
#     Node 29, Type 0, BuildingBlock: QUQFOY_clean_sbu_1, # of connection points: 4
#     Node 30, Type 0, BuildingBlock: QUQFOY_clean_sbu_1, # of connection points: 4
#     Node 31, Type 0, BuildingBlock: QUQFOY_clean_sbu_1, # of connection points: 4
#     Node 32, Type 0, BuildingBlock: QUQFOY_clean_sbu_1, # of connection points: 4
#     Node 33, Type 0, BuildingBlock: QUQFOY_clean_sbu_1, # of connection points: 4
#     Node 34, Type 0, BuildingBlock: QUQFOY_clean_sbu_1, # of connection points: 4
#     Node 35, Type 0, BuildingBlock: QUQFOY_clean_sbu_1, # of connection points: 4
#     Edge 36, Type (0, 0), BuildingBlock: XIVTED_clean_linker_0, # of connection points: 2
#     Edge 37, Type (0, 0), BuildingBlock: XIVTED_clean_linker_0, # of connection points: 2
#     Edge 38, Type (0, 0), BuildingBlock: XIVTED_clean_linker_0, # of connection points: 2
#     Edge 39, Type (0, 0), BuildingBlock: XIVTED_clean_linker_0, # of connection points: 2
#     Edge 40, Type (0, 0), BuildingBlock: XIVTED_clean_linker_0, # of connection points: 2
#     Edge 41, Type (0, 0), BuildingBlock: XIVTED_clean_linker_0, # of connection points: 2
#     Edge 42, Type (0, 0), BuildingBlock: XIVTED_clean_linker_0, # of connection points: 2
#     Edge 43, Type (0, 0), BuildingBlock: XIVTED_clean_linker_0, # of connection points: 2
#     Edge 44, Type (0, 0), BuildingBlock: XIVTED_clean_linker_0, # of connection points: 2
#     Edge 45, Type (0, 0), BuildingBlock: XIVTED_clean_linker_0, # of connection points: 2
#     Edge 46, Type (0, 0), BuildingBlock: XIVTED_clean_linker_0, # of connection points: 2
#     Edge 47, Type (0, 0), BuildingBlock: XIVTED_clean_linker_0, # of connection points: 2
#     Edge 48, Type (0, 0), BuildingBlock: XIVTED_clean_linker_0, # of connection points: 2
#     Edge 49, Type (0, 0), BuildingBlock: XIVTED_clean_linker_0, # of connection points: 2
#     Edge 50, Type (0, 0), BuildingBlock: XIVTED_clean_linker_0, # of connection points: 2
#     Edge 51, Type (0, 0), BuildingBlock: XIVTED_clean_linker_0, # of connection points: 2
#     Edge 52, Type (0, 0), BuildingBlock: XIVTED_clean_linker_0, # of connection points: 2
#     Edge 53, Type (0, 0), BuildingBlock: XIVTED_clean_linker_0, # of connection points: 2
#     Edge 54, Type (0, 0), BuildingBlock: XIVTED_clean_linker_0, # of connection points: 2
#     Edge 55, Type (0, 0), BuildingBlock: XIVTED_clean_linker_0, # of connection points: 2
#     Edge 56, Type (0, 0), BuildingBlock: XIVTED_clean_linker_0, # of connection points: 2
#     Edge 57, Type (0, 0), BuildingBlock: XIVTED_clean_linker_0, # of connection points: 2
#     Edge 58, Type (0, 0), BuildingBlock: XIVTED_clean_linker_0, # of connection points: 2
#     Edge 59, Type (0, 0), BuildingBlock: XIVTED_clean_linker_0, # of connection points: 2
#     Edge 60, Type (0, 0), BuildingBlock: XIVTED_clean_linker_0, # of connection points: 2
#     Edge 61, Type (0, 0), BuildingBlock: XIVTED_clean_linker_0, # of connection points: 2
#     Edge 62, Type (0, 0), BuildingBlock: XIVTED_clean_linker_0, # of connection points: 2
#     Edge 63, Type (0, 0), BuildingBlock: XIVTED_clean_linker_0, # of connection points: 2
#     Edge 64, Type (0, 0), BuildingBlock: XIVTED_clean_linker_0, # of connection points: 2
#     Edge 65, Type (0, 0), BuildingBlock: XIVTED_clean_linker_0, # of connection points: 2
#     Edge 66, Type (0, 0), BuildingBlock: XIVTED_clean_linker_0, # of connection points: 2
#     Edge 67, Type (0, 0), BuildingBlock: XIVTED_clean_linker_0, # of connection points: 2
#     Edge 68, Type (0, 0), BuildingBlock: XIVTED_clean_linker_0, # of connection points: 2
#     Edge 69, Type (0, 0), BuildingBlock: XIVTED_clean_linker_0, # of connection points: 2
#     Edge 70, Type (0, 0), BuildingBlock: XIVTED_clean_linker_0, # of connection points: 2
#     Edge 71, Type (0, 0), BuildingBlock: XIVTED_clean_linker_0, # of connection points: 2
#     Edge 72, Type (0, 0), BuildingBlock: XIVTED_clean_linker_0, # of connection points: 2
#     Edge 73, Type (0, 0), BuildingBlock: XIVTED_clean_linker_0, # of connection points: 2
#     Edge 74, Type (0, 0), BuildingBlock: XIVTED_clean_linker_0, # of connection points: 2
#     Edge 75, Type (0, 0), BuildingBlock: XIVTED_clean_linker_0, # of connection points: 2
#     Edge 76, Type (0, 0), BuildingBlock: XIVTED_clean_linker_0, # of connection points: 2
#     Edge 77, Type (0, 0), BuildingBlock: XIVTED_clean_linker_0, # of connection points: 2
#     Edge 78, Type (0, 0), BuildingBlock: XIVTED_clean_linker_0, # of connection points: 2
#     Edge 79, Type (0, 0), BuildingBlock: XIVTED_clean_linker_0, # of connection points: 2
#     Edge 80, Type (0, 0), BuildingBlock: XIVTED_clean_linker_0, # of connection points: 2
#     Edge 81, Type (0, 0), BuildingBlock: XIVTED_clean_linker_0, # of connection points: 2
#     Edge 82, Type (0, 0), BuildingBlock: XIVTED_clean_linker_0, # of connection points: 2
#     Edge 83, Type (0, 0), BuildingBlock: XIVTED_clean_linker_0, # of connection points: 2
#     Edge 84, Type (0, 0), BuildingBlock: XIVTED_clean_linker_0, # of connection points: 2
#     Edge 85, Type (0, 0), BuildingBlock: XIVTED_clean_linker_0, # of connection points: 2
#     Edge 86, Type (0, 0), BuildingBlock: XIVTED_clean_linker_0, # of connection points: 2
#     Edge 87, Type (0, 0), BuildingBlock: XIVTED_clean_linker_0, # of connection points: 2
#     Edge 88, Type (0, 0), BuildingBlock: XIVTED_clean_linker_0, # of connection points: 2
#     Edge 89, Type (0, 0), BuildingBlock: XIVTED_clean_linker_0, # of connection points: 2
#     Edge 90, Type (0, 0), BuildingBlock: XIVTED_clean_linker_0, # of connection points: 2
#     Edge 91, Type (0, 0), BuildingBlock: XIVTED_clean_linker_0, # of connection points: 2
#     Edge 92, Type (0, 0), BuildingBlock: XIVTED_clean_linker_0, # of connection points: 2
#     Edge 93, Type (0, 0), BuildingBlock: XIVTED_clean_linker_0, # of connection points: 2
#     Edge 94, Type (0, 0), BuildingBlock: XIVTED_clean_linker_0, # of connection points: 2
#     Edge 95, Type (0, 0), BuildingBlock: XIVTED_clean_linker_0, # of connection points: 2
#     Edge 96, Type (0, 0), BuildingBlock: XIVTED_clean_linker_0, # of connection points: 2
#     Edge 97, Type (0, 0), BuildingBlock: XIVTED_clean_linker_0, # of connection points: 2
#     Edge 98, Type (0, 0), BuildingBlock: XIVTED_clean_linker_0, # of connection points: 2
#     Edge 99, Type (0, 0), BuildingBlock: XIVTED_clean_linker_0, # of connection points: 2
#     Edge 100, Type (0, 0), BuildingBlock: XIVTED_clean_linker_0, # of connection points: 2
#     Edge 101, Type (0, 0), BuildingBlock: XIVTED_clean_linker_0, # of connection points: 2
#     Edge 102, Type (0, 0), BuildingBlock: XIVTED_clean_linker_0, # of connection points: 2
#     Edge 103, Type (0, 0), BuildingBlock: XIVTED_clean_linker_0, # of connection points: 2
#     Edge 104, Type (0, 0), BuildingBlock: XIVTED_clean_linker_0, # of connection points: 2
#     Edge 105, Type (0, 0), BuildingBlock: XIVTED_clean_linker_0, # of connection points: 2
#     Edge 106, Type (0, 0), BuildingBlock: XIVTED_clean_linker_0, # of connection points: 2
#     Edge 107, Type (0, 0), BuildingBlock: XIVTED_clean_linker_0, # of connection points: 2
# Relax obj value: 0.147
# Max RMSD: 0.532
# Mean RMSD: 0.391
data_MOF--net-ukv--node1-QUQFOY_clean_sbu_1--edge1-XIVTED_clean_linker_0
_symmetry_space_group_name_H-M    P1
_symmetry_Int_Tables_number       1
_symmetry_cell_setting            triclinic
loop_
_symmetry_equiv_pos_as_xyz
'x, y, z'
_cell_length_a     73.915926
_cell_length_b     80.104233
_cell_length_c     22.671454
_cell_angle_alpha  89.369216
_cell_angle_beta   89.183911
_cell_angle_gamma 120.97549
loop_
_atom_site_label
_atom_site_type_symbol
_atom_site_fract_x
_atom_site_fract_y
_atom_site_fract_z
_atom_type_partial_charge
O0 O 0.32834 0.09425 0.11283 0.0
Cd1 Cd 0.31889 0.10826 0.16914 0.0
Cd2 Cd 0.36043 0.12332 0.1918 0.0
O3 O 0.35955 0.10106 0.1438 0.0
O4 O 0.28765 0.09103 0.1608 0.0
O5 O 0.304 0.09234 0.24291 0.0
C6 C 0.28707 0.08372 0.21226 0.0
C7 C 0.36746 0.13087 0.28996 0.0
C8 C 0.34386 0.09161 0.11059 0.0
C9 C 0.34762 0.14935 0.13063 0.0
O10 O 0.36188 0.14552 0.14245 0.0
O11 O 0.32832 0.137 0.14388 0.0
O12 O 0.38278 0.13617 0.25201 0.0
O13 O 0.34831 0.11973 0.27272 0.0
O14 O 0.92983 0.22747 0.11528 0.0
Cd15 Cd 0.91952 0.20476 0.17448 0.0
Cd16 Cd 0.89827 0.22228 0.20776 0.0
O17 O 0.91771 0.24551 0.15095 0.0
O18 O 0.94274 0.19886 0.16555 0.0
O19 O 0.93686 0.21008 0.24763 0.0
C20 C 0.94888 0.2059 0.21727 0.0
C21 C 0.89017 0.21933 0.30809 0.0
C22 C 0.92859 0.24269 0.11257 0.0
C23 C 0.87437 0.18361 0.14605 0.0
O24 O 0.87569 0.19927 0.1627 0.0
O25 O 0.88989 0.18102 0.15297 0.0
O26 O 0.88203 0.22618 0.27215 0.0
O27 O 0.90463 0.21626 0.28783 0.0
O28 O 0.72656 0.6523 0.18751 0.0
Cd29 Cd 0.7547 0.67469 0.15594 0.0
Cd30 Cd 0.73546 0.62609 0.20611 0.0
O31 O 0.7079 0.62191 0.16921 0.0
O32 O 0.75541 0.69856 0.12612 0.0
O33 O 0.76706 0.69626 0.21371 0.0
C34 C 0.76288 0.70614 0.17662 0.0
C35 C 0.74225 0.62444 0.30464 0.0
C36 C 0.71202 0.63903 0.15746 0.0
C37 C 0.77464 0.65056 0.11755 0.0
O38 O 0.76093 0.6354 0.14685 0.0
O39 O 0.77488 0.66667 0.11802 0.0
O40 O 0.73565 0.60932 0.27192 0.0
O41 O 0.7434 0.63986 0.28201 0.0
O42 O 0.10947 0.32451 0.41178 0.0
Cd43 Cd 0.12537 0.31549 0.35872 0.0
Cd44 Cd 0.14136 0.35328 0.32624 0.0
O45 O 0.11687 0.35282 0.37324 0.0
O46 O 0.10677 0.28659 0.3715 0.0
O47 O 0.10922 0.30134 0.28647 0.0
C48 C 0.09964 0.28576 0.31934 0.0
C49 C 0.14919 0.35737 0.22619 0.0
C50 C 0.10653 0.33879 0.41 0.0
C51 C 0.16956 0.34316 0.39324 0.0
O52 O 0.16528 0.35595 0.37706 0.0
O53 O 0.15658 0.32516 0.3837 0.0
O54 O 0.15496 0.37236 0.25883 0.0
O55 O 0.13751 0.34019 0.2498 0.0
O56 O 0.65134 0.74836 0.34023 0.0
Cd57 Cd 0.67431 0.77587 0.3597 0.0
Cd58 Cd 0.62203 0.75464 0.31967 0.0
O59 O 0.61889 0.73078 0.36676 0.0
O60 O 0.70126 0.77824 0.38411 0.0
O61 O 0.69587 0.78594 0.29429 0.0
C62 C 0.70757 0.78296 0.32968 0.0
C63 C 0.62312 0.75904 0.21809 0.0
C64 C 0.63782 0.73563 0.37593 0.0
C65 C 0.64601 0.79229 0.39685 0.0
O66 O 0.62987 0.77854 0.37184 0.0
O67 O 0.66419 0.7939 0.39457 0.0
O68 O 0.60553 0.75234 0.24763 0.0
O69 O 0.63966 0.76221 0.2462 0.0
O70 O 0.23905 0.93049 0.39706 0.0
Cd71 Cd 0.21421 0.9179 0.34145 0.0
Cd72 Cd 0.23812 0.90238 0.31065 0.0
O73 O 0.26203 0.92297 0.36278 0.0
O74 O 0.20296 0.93569 0.35511 0.0
O75 O 0.21675 0.93429 0.2697 0.0
C76 C 0.20996 0.94298 0.30296 0.0
C77 C 0.23509 0.89829 0.20923 0.0
C78 C 0.25701 0.93209 0.39887 0.0
C79 C 0.1967 0.87626 0.37499 0.0
O80 O 0.2148 0.87952 0.35895 0.0
O81 O 0.19163 0.88908 0.36562 0.0
O82 O 0.24491 0.8917 0.23944 0.0
O83 O 0.22888 0.90869 0.2361 0.0
O84 O 0.68333 0.90595 0.8953 0.0
Cd85 Cd 0.69038 0.89008 0.83957 0.0
Cd86 Cd 0.64823 0.87535 0.8225 0.0
O87 O 0.65119 0.89842 0.87094 0.0
O88 O 0.72198 0.90666 0.83423 0.0
O89 O 0.7013 0.90277 0.75986 0.0
C90 C 0.7199 0.91182 0.78182 0.0
C91 C 0.63982 0.86818 0.72448 0.0
C92 C 0.66784 0.90858 0.90024 0.0
C93 C 0.66142 0.84935 0.88233 0.0
O94 O 0.64699 0.85295 0.8706 0.0
O95 O 0.68065 0.86174 0.86864 0.0
O96 O 0.625 0.86295 0.76406 0.0
O97 O 0.65919 0.87883 0.74029 0.0
O98 O 0.08362 0.78167 0.9031 0.0
Cd99 Cd 0.09603 0.80521 0.84607 0.0
Cd100 Cd 0.11952 0.78874 0.82076 0.0
O101 O 0.09792 0.7649 0.87201 0.0
O102 O 0.07271 0.81126 0.84636 0.0
O103 O 0.08085 0.79976 0.76898 0.0
C104 C 0.06801 0.80398 0.79439 0.0
C105 C 0.12624 0.79103 0.71997 0.0
C106 C 0.085 0.76652 0.90578 0.0
C107 C 0.14128 0.82746 0.88159 0.0
O108 O 0.14121 0.81213 0.86733 0.0
O109 O 0.12523 0.82904 0.87139 0.0
O110 O 0.13497 0.78442 0.75471 0.0
O111 O 0.11263 0.79482 0.7424 0.0
O112 O 0.26732 0.32897 0.88256 0.0
Cd113 Cd 0.24166 0.322 0.83173 0.0
Cd114 Cd 0.26712 0.36155 0.81419 0.0
O115 O 0.29023 0.35984 0.85993 0.0
O116 O 0.22774 0.29286 0.82787 0.0
O117 O 0.24229 0.31252 0.75039 0.0
C118 C 0.23376 0.29521 0.77319 0.0
C119 C 0.26632 0.36814 0.71465 0.0
C120 C 0.28546 0.34412 0.8876 0.0
C121 C 0.22574 0.3465 0.88189 0.0
O122 O 0.24381 0.36081 0.86678 0.0
O123 O 0.22042 0.32924 0.86728 0.0
O124 O 0.27523 0.38229 0.75121 0.0
O125 O 0.25939 0.35064 0.73426 0.0
O126 O 0.90124 0.66137 0.65223 0.0
Cd127 Cd 0.89303 0.68403 0.65231 0.0
Cd128 Cd 0.86973 0.64406 0.69577 0.0
O129 O 0.90081 0.66051 0.65321 0.0
O130 O 0.91768 0.70898 0.62031 0.0
O131 O 0.9074 0.70421 0.7144 0.0
C132 C 0.92109 0.7151 0.67384 0.0
C133 C 0.86106 0.64193 0.79514 0.0
C134 C 0.9089 0.65546 0.61244 0.0
C135 C 0.84697 0.65741 0.6167 0.0
O136 O 0.84751 0.64344 0.64244 0.0
O137 O 0.86265 0.67501 0.61862 0.0
O138 O 0.85899 0.62684 0.76876 0.0
O139 O 0.8695 0.65826 0.766 0.0
O140 O 0.35428 0.2515 0.67459 0.0
Cd141 Cd 0.33071 0.22615 0.64202 0.0
Cd142 Cd 0.38334 0.24478 0.6933 0.0
O143 O 0.38716 0.26988 0.65296 0.0
O144 O 0.30906 0.22839 0.59728 0.0
O145 O 0.30392 0.21648 0.6889 0.0
C146 C 0.29746 0.22236 0.64496 0.0
C147 C 0.38448 0.23969 0.79381 0.0
C148 C 0.36843 0.26572 0.64403 0.0
C149 C 0.35788 0.20806 0.61024 0.0
O150 O 0.3739 0.22109 0.63773 0.0
O151 O 0.34014 0.20736 0.60995 0.0
O152 O 0.40114 0.24565 0.7605 0.0
O153 O 0.36764 0.23761 0.77013 0.0
O154 O 0.77442 0.08001 0.69309 0.0
Cd155 Cd 0.80103 0.08029 0.67029 0.0
Cd156 Cd 0.78075 0.11208 0.71567 0.0
O157 O 0.75409 0.09083 0.67221 0.0
O158 O 0.79471 0.05638 0.62687 0.0
O159 O 0.80697 0.06246 0.7178 0.0
C160 C 0.79957 0.05056 0.67427 0.0
C161 C 0.78319 0.12125 0.81293 0.0
C162 C 0.76029 0.07917 0.65986 0.0
C163 C 0.82319 0.12364 0.63646 0.0
O164 O 0.80858 0.1249 0.66345 0.0
O165 O 0.82365 0.10781 0.63548 0.0
O166 O 0.77963 0.13055 0.77204 0.0
O167 O 0.78418 0.10614 0.79861 0.0
O168 O 0.92516 0.38509 0.33608 0.0
Cd169 Cd 0.89301 0.36971 0.35202 0.0
Cd170 Cd 0.90126 0.40301 0.40772 0.0
O171 O 0.93213 0.41084 0.38799 0.0
O172 O 0.88321 0.34141 0.35309 0.0
O173 O 0.88233 0.35704 0.4321 0.0
C174 C 0.87929 0.34113 0.40893 0.0
C175 C 0.89338 0.41661 0.48773 0.0
C176 C 0.93833 0.4018 0.35549 0.0
C177 C 0.8752 0.39136 0.29638 0.0
O178 O 0.88432 0.40313 0.33769 0.0
O179 O 0.87579 0.37581 0.29321 0.0
O180 O 0.90514 0.42708 0.44399 0.0
O181 O 0.88735 0.39836 0.4889 0.0
O182 O 0.56879 0.56774 0.41439 0.0
Cd183 Cd 0.5533 0.5427 0.46465 0.0
Cd184 Cd 0.53289 0.56196 0.4892 0.0
O185 O 0.55816 0.58686 0.45039 0.0
O186 O 0.57409 0.53384 0.45461 0.0
O187 O 0.56864 0.54411 0.53912 0.0
C188 C 0.58 0.53944 0.50768 0.0
C189 C 0.52388 0.55418 0.58883 0.0
C190 C 0.57043 0.58428 0.41687 0.0
C191 C 0.50998 0.5259 0.41802 0.0
O192 O 0.51221 0.54232 0.42987 0.0
O193 O 0.52337 0.52148 0.43576 0.0
O194 O 0.51665 0.56333 0.55928 0.0
O195 O 0.53712 0.55062 0.5627 0.0
O196 O 0.42116 0.04332 0.37563 0.0
Cd197 Cd 0.4475 0.05306 0.42583 0.0
Cd198 Cd 0.42305 0.01663 0.46039 0.0
O199 O 0.39763 0.01658 0.42352 0.0
O200 O 0.46087 0.082 0.41537 0.0
O201 O 0.44705 0.06633 0.50014 0.0
C202 C 0.45482 0.08221 0.46892 0.0
C203 C 0.43087 0.01371 0.55687 0.0
C204 C 0.40221 0.02943 0.38325 0.0
C205 C 0.46054 0.02548 0.38751 0.0
O206 O 0.44156 0.01273 0.40086 0.0
O207 O 0.46793 0.04321 0.40157 0.0
O208 O 0.41802 0.99843 0.52779 0.0
O209 O 0.43744 0.03065 0.53308 0.0
O210 O 0.73244 0.6581 0.73812 0.0
Cd211 Cd 0.74919 0.65297 0.67536 0.0
Cd212 Cd 0.76076 0.69095 0.65365 0.0
O213 O 0.73762 0.68713 0.7147 0.0
O214 O 0.73327 0.62367 0.67848 0.0
O215 O 0.73404 0.64067 0.60022 0.0
C216 C 0.72618 0.624 0.62708 0.0
C217 C 0.76359 0.6965 0.55232 0.0
C218 C 0.72881 0.67174 0.74709 0.0
C219 C 0.79354 0.68302 0.70301 0.0
O220 O 0.78764 0.69505 0.69152 0.0
O221 O 0.78119 0.66486 0.69423 0.0
O222 O 0.76948 0.71084 0.58789 0.0
O223 O 0.75448 0.67905 0.57468 0.0
O224 O 0.34189 0.11126 0.72043 0.0
Cd225 Cd 0.34824 0.13467 0.66727 0.0
Cd226 Cd 0.30547 0.10931 0.65702 0.0
O227 O 0.30895 0.08865 0.70287 0.0
O228 O 0.37987 0.14852 0.66617 0.0
O229 O 0.36093 0.1352 0.58734 0.0
C230 C 0.37901 0.14318 0.61235 0.0
C231 C 0.29883 0.10946 0.55761 0.0
C232 C 0.32637 0.094 0.7278 0.0
C233 C 0.31968 0.14746 0.71746 0.0
O234 O 0.30484 0.13021 0.70747 0.0
O235 O 0.33852 0.15328 0.69957 0.0
O236 O 0.2833 0.10057 0.59532 0.0
O237 O 0.31787 0.11725 0.57632 0.0
O238 O 0.91995 0.22732 0.66555 0.0
Cd239 Cd 0.88966 0.2176 0.69047 0.0
Cd240 Cd 0.92063 0.19744 0.64039 0.0
O241 O 0.94434 0.22134 0.68417 0.0
O242 O 0.88066 0.23716 0.70283 0.0
O243 O 0.87608 0.22122 0.62002 0.0
C244 C 0.87485 0.23447 0.64854 0.0
C245 C 0.92005 0.19017 0.54155 0.0
C246 C 0.93558 0.23093 0.69687 0.0
C247 C 0.87851 0.17581 0.72305 0.0
O248 O 0.8947 0.17817 0.69403 0.0
O249 O 0.87378 0.18913 0.72559 0.0
O250 O 0.92765 0.18351 0.58007 0.0
O251 O 0.91384 0.20179 0.55902 0.0
O252 O 0.34552 0.24694 0.24289 0.0
Cd253 Cd 0.3543 0.23394 0.18093 0.0
Cd254 Cd 0.31311 0.21988 0.15957 0.0
O255 O 0.31428 0.24101 0.21482 0.0
O256 O 0.38576 0.25176 0.1828 0.0
O257 O 0.36685 0.24994 0.10595 0.0
C258 C 0.38465 0.25886 0.13252 0.0
C259 C 0.30686 0.21489 0.05942 0.0
C260 C 0.33001 0.24947 0.2486 0.0
C261 C 0.32534 0.19252 0.21454 0.0
O262 O 0.31122 0.19663 0.20383 0.0
O263 O 0.34471 0.20489 0.20196 0.0
O264 O 0.29127 0.20882 0.09694 0.0
O265 O 0.32583 0.22528 0.07856 0.0
O266 O 0.77248 0.08613 0.23672 0.0
Cd267 Cd 0.78792 0.10842 0.17565 0.0
Cd268 Cd 0.80402 0.08544 0.1529 0.0
O269 O 0.78104 0.06463 0.20976 0.0
O270 O 0.76998 0.12047 0.18071 0.0
O271 O 0.77211 0.10591 0.10112 0.0
C272 C 0.76309 0.11371 0.12922 0.0
C273 C 0.8097 0.0848 0.05251 0.0
C274 C 0.77063 0.06955 0.24318 0.0
C275 C 0.83277 0.12438 0.20729 0.0
O276 O 0.82906 0.10748 0.19517 0.0
O277 O 0.81898 0.12907 0.19711 0.0
O278 O 0.81642 0.07689 0.0894 0.0
O279 O 0.7982 0.09144 0.07262 0.0
O280 O 0.88362 0.67788 0.2111 0.0
Cd281 Cd 0.85808 0.66976 0.15826 0.0
Cd282 Cd 0.88184 0.71043 0.14154 0.0
O283 O 0.90437 0.70951 0.19233 0.0
O284 O 0.84473 0.64056 0.15174 0.0
O285 O 0.86049 0.66126 0.0771 0.0
C286 C 0.85154 0.64367 0.09768 0.0
C287 C 0.88276 0.71523 0.04033 0.0
C288 C 0.90077 0.6939 0.21853 0.0
C289 C 0.83911 0.69328 0.20144 0.0
O290 O 0.85676 0.70841 0.18805 0.0
O291 O 0.83563 0.67636 0.18892 0.0
O292 O 0.89058 0.73007 0.07451 0.0
O293 O 0.87565 0.69819 0.06384 0.0
O294 O 0.5957 0.01346 0.91662 0.0
Cd295 Cd 0.58553 0.02846 0.9668 0.0
Cd296 Cd 0.5572 0.98943 0.98954 0.0
O297 O 0.57681 0.98246 0.94427 0.0
O298 O 0.61057 0.05535 0.95349 0.0
O299 O 0.60188 0.04063 0.04085 0.0
C300 C 0.6153 0.05513 0.00782 0.0
C301 C 0.54951 0.98791 0.08913 0.0
C302 C 0.59175 0.99607 0.91336 0.0
C303 C 0.54262 0.01274 0.9202 0.0
O304 O 0.54007 0.9963 0.93488 0.0
O305 O 0.55908 0.0285 0.93506 0.0
O306 O 0.53844 0.97286 0.05706 0.0
O307 O 0.56572 1.00307 0.06532 0.0
O308 O 0.91552 0.54358 0.8256 0.0
Cd309 Cd 0.88326 0.52757 0.8393 0.0
Cd310 Cd 0.89363 0.50275 0.90004 0.0
O311 O 0.92388 0.52526 0.87847 0.0
O312 O 0.87339 0.54628 0.82716 0.0
O313 O 0.87063 0.53171 0.91311 0.0
C314 C 0.86815 0.54409 0.88248 0.0
C315 C 0.88843 0.48182 0.98023 0.0
C316 C 0.9293 0.54014 0.84547 0.0
C317 C 0.86745 0.48873 0.78838 0.0
O318 O 0.87669 0.48619 0.83111 0.0
O319 O 0.86736 0.5045 0.7827 0.0
O320 O 0.89972 0.48328 0.93473 0.0
O321 O 0.88113 0.49337 0.98269 0.0
O322 O 0.42161 0.4021 0.91864 0.0
Cd323 Cd 0.44783 0.41898 0.96665 0.0
Cd324 Cd 0.42141 0.43085 0.99775 0.0
O325 O 0.39697 0.4061 0.95997 0.0
O326 O 0.46141 0.40297 0.95888 0.0
O327 O 0.44818 0.40609 0.04324 0.0
C328 C 0.45547 0.39718 0.01282 0.0
C329 C 0.42513 0.44173 0.09393 0.0
C330 C 0.40242 0.39732 0.9239 0.0
C331 C 0.45907 0.4576 0.91897 0.0
O332 O 0.44055 0.45232 0.93762 0.0
O333 O 0.4673 0.44742 0.93222 0.0
O334 O 0.41319 0.44403 0.05772 0.0
O335 O 0.4334 0.43169 0.07696 0.0
O336 O 0.664 0.76162 0.7909 0.0
Cd337 Cd 0.65784 0.77687 0.85176 0.0
Cd338 Cd 0.70071 0.79046 0.8648 0.0
O339 O 0.69679 0.76899 0.80648 0.0
O340 O 0.62616 0.75977 0.86289 0.0
O341 O 0.64871 0.76459 0.93272 0.0
C342 C 0.62964 0.75507 0.91437 0.0
C343 C 0.70733 0.79369 0.96538 0.0
C344 C 0.67954 0.7595 0.77902 0.0
C345 C 0.68793 0.81796 0.81221 0.0
O346 O 0.70209 0.81396 0.82374 0.0
O347 O 0.66852 0.8057 0.82484 0.0
O348 O 0.7229 0.80031 0.92755 0.0
O349 O 0.68843 0.78406 0.94577 0.0
O350 O 0.23735 0.93188 0.83538 0.0
Cd351 Cd 0.23334 0.90623 0.80699 0.0
Cd352 Cd 0.19948 0.92373 0.85691 0.0
O353 O 0.22291 0.94825 0.81156 0.0
O354 O 0.25853 0.90702 0.77058 0.0
O355 O 0.24654 0.89588 0.86149 0.0
C356 C 0.26091 0.90061 0.82071 0.0
C357 C 0.18882 0.9225 0.95399 0.0
C358 C 0.23769 0.94491 0.80227 0.0
C359 C 0.18582 0.88643 0.77743 0.0
O360 O 0.1832 0.89866 0.80664 0.0
O361 O 0.20362 0.88732 0.77339 0.0
O362 O 0.17996 0.9266 0.91201 0.0
O363 O 0.20432 0.91997 0.94063 0.0
O364 O 0.12524 0.34113 0.80476 0.0
Cd365 Cd 0.14963 0.34504 0.85659 0.0
Cd366 Cd 0.12124 0.30548 0.86943 0.0
O367 O 0.10032 0.31056 0.82388 0.0
O368 O 0.16653 0.37414 0.86574 0.0
O369 O 0.14914 0.35347 0.93938 0.0
C370 C 0.16008 0.37125 0.92009 0.0
C371 C 0.11932 0.29619 0.96775 0.0
C372 C 0.10655 0.32694 0.79822 0.0
C373 C 0.16274 0.31832 0.80566 0.0
O374 O 0.14401 0.30468 0.81828 0.0
O375 O 0.16913 0.3357 0.82154 0.0
O376 O 0.10973 0.28313 0.92832 0.0
O377 O 0.12871 0.3143 0.9515 0.0
O378 O 0.41538 0.99864 0.02463 0.0
Cd379 Cd 0.43104 0.98666 0.98453 0.0
Cd380 Cd 0.45399 0.02589 0.95055 0.0
O381 O 0.42813 0.02727 0.97981 0.0
O382 O 0.41005 0.95798 0.99684 0.0
O383 O 0.41773 0.97279 0.90956 0.0
C384 C 0.40587 0.95743 0.94154 0.0
C385 C 0.46288 0.02137 0.85648 0.0
C386 C 0.41471 0.01396 0.01483 0.0
C387 C 0.47543 0.0122 0.02852 0.0
O388 O 0.47383 0.02677 0.01435 0.0
O389 O 0.46139 0.99496 0.01392 0.0
O390 O 0.46983 0.03888 0.87438 0.0
O391 O 0.4499 0.00698 0.89005 0.0
O392 O 0.09678 0.47041 0.18921 0.0
Cd393 Cd 0.12907 0.48705 0.17729 0.0
Cd394 Cd 0.11827 0.5115 0.11624 0.0
O395 O 0.08813 0.48856 0.13654 0.0
O396 O 0.13947 0.4687 0.18861 0.0
O397 O 0.14254 0.48391 0.10364 0.0
C398 C 0.14511 0.47146 0.13355 0.0
C399 C 0.1234 0.53253 0.03641 0.0
C400 C 0.08286 0.47359 0.16893 0.0
C401 C 0.14381 0.52558 0.22909 0.0
O402 O 0.13467 0.52803 0.18589 0.0
O403 O 0.1442 0.50996 0.23488 0.0
O404 O 0.11178 0.53069 0.08151 0.0
O405 O 0.1311 0.5213 0.03406 0.0
O406 O 0.59677 0.59582 0.00558 0.0
Cd407 Cd 0.57183 0.59347 0.05256 0.0
Cd408 Cd 0.58683 0.56093 0.9853 0.0
O409 O 0.61595 0.58306 0.01332 0.0
O410 O 0.57689 0.61746 0.09331 0.0
O411 O 0.55886 0.60703 0.0111 0.0
C412 C 0.56756 0.62042 0.0502 0.0
C413 C 0.58058 0.54667 0.89351 0.0
C414 C 0.61233 0.59615 0.02966 0.0
C415 C 0.55275 0.55024 0.09152 0.0
O416 O 0.56358 0.54748 0.0524 0.0
O417 O 0.55394 0.5667 0.09775 0.0
O418 O 0.58754 0.54079 0.93612 0.0
O419 O 0.57795 0.56122 0.90261 0.0
O420 O 0.08709 0.63031 0.68112 0.0
Cd421 Cd 0.11944 0.64659 0.66995 0.0
Cd422 Cd 0.11183 0.61283 0.61073 0.0
O423 O 0.08081 0.6046 0.62987 0.0
O424 O 0.12711 0.67407 0.68229 0.0
O425 O 0.13202 0.66368 0.59697 0.0
C426 C 0.13292 0.67764 0.62742 0.0
C427 C 0.11965 0.5989 0.53124 0.0
C428 C 0.07424 0.61357 0.66136 0.0
C429 C 0.13724 0.62445 0.72388 0.0
O430 O 0.12886 0.61311 0.68115 0.0
O431 O 0.13604 0.63966 0.72855 0.0
O432 O 0.10818 0.58866 0.57566 0.0
O433 O 0.12555 0.61712 0.52927 0.0
O434 O 0.43122 0.42575 0.56592 0.0
Cd435 Cd 0.44788 0.45196 0.52196 0.0
Cd436 Cd 0.46836 0.4325 0.49484 0.0
O437 O 0.44116 0.40704 0.52312 0.0
O438 O 0.42826 0.46175 0.53833 0.0
O439 O 0.4327 0.4529 0.45005 0.0
C440 C 0.42204 0.45752 0.48482 0.0
C441 C 0.48132 0.44513 0.40089 0.0
C442 C 0.42863 0.40903 0.55743 0.0
C443 C 0.4903 0.46668 0.57209 0.0
O444 O 0.48725 0.44993 0.56057 0.0
O445 O 0.47792 0.47204 0.55251 0.0
O446 O 0.48645 0.43357 0.42562 0.0
O447 O 0.46759 0.44794 0.42751 0.0
O448 O 0.59987 0.9924 0.47667 0.0
Cd449 Cd 0.57268 0.97094 0.51559 0.0
Cd450 Cd 0.59209 0.01859 0.44681 0.0
O451 O 0.62006 0.02327 0.48214 0.0
O452 O 0.57411 0.95048 0.56285 0.0
O453 O 0.56169 0.94597 0.47227 0.0
C454 C 0.56727 0.93963 0.51707 0.0
C455 C 0.58344 0.01792 0.34932 0.0
C456 C 0.61513 0.00659 0.50206 0.0
C457 C 0.55287 0.99631 0.53855 0.0
O458 O 0.56694 0.01059 0.50678 0.0
O459 O 0.55221 0.98003 0.54398 0.0
O460 O 0.5921 0.03419 0.37706 0.0
O461 O 0.58171 1.00273 0.37557 0.0
O462 O 0.27124 0.34197 0.27996 0.0
Cd463 Cd 0.25251 0.34733 0.33466 0.0
Cd464 Cd 0.24041 0.30949 0.36059 0.0
O465 O 0.26619 0.3136 0.31069 0.0
O466 O 0.26821 0.37649 0.32754 0.0
O467 O 0.2663 0.36068 0.40996 0.0
C468 C 0.27466 0.37693 0.38039 0.0
C469 C 0.23409 0.30364 0.46128 0.0
C470 C 0.2759 0.32878 0.27767 0.0
C471 C 0.20934 0.31734 0.29847 0.0
O472 O 0.21516 0.30544 0.31268 0.0
O473 O 0.22109 0.33543 0.30924 0.0
O474 O 0.22908 0.28936 0.42617 0.0
O475 O 0.24394 0.32118 0.43938 0.0
O476 O 0.66855 0.89363 0.29126 0.0
Cd477 Cd 0.661 0.87075 0.34788 0.0
Cd478 Cd 0.70401 0.89555 0.36343 0.0
O479 O 0.70127 0.9159 0.31305 0.0
O480 O 0.62947 0.85854 0.3571 0.0
O481 O 0.65181 0.87383 0.42828 0.0
C482 C 0.6329 0.86599 0.40889 0.0
C483 C 0.71121 0.8971 0.4632 0.0
C484 C 0.68444 0.91074 0.28497 0.0
C485 C 0.68917 0.85646 0.30664 0.0
O486 O 0.70413 0.87358 0.31752 0.0
O487 O 0.67012 0.85115 0.32075 0.0
O488 O 0.72656 0.90507 0.42468 0.0
O489 O 0.69216 0.88931 0.44489 0.0
O490 O 0.09684 0.77956 0.30048 0.0
Cd491 Cd 0.11978 0.80064 0.35152 0.0
Cd492 Cd 0.08611 0.80689 0.36424 0.0
O493 O 0.06812 0.78035 0.32366 0.0
O494 O 0.14071 0.79172 0.35888 0.0
O495 O 0.12132 0.7918 0.43358 0.0
C496 C 0.13445 0.78712 0.41319 0.0
C497 C 0.08797 0.81566 0.46172 0.0
C498 C 0.0771 0.77261 0.29652 0.0
C499 C 0.12494 0.83747 0.29833 0.0
O500 O 0.10522 0.82978 0.30836 0.0
O501 O 0.13472 0.82928 0.31758 0.0
O502 O 0.07412 0.81601 0.42834 0.0
O503 O 0.09906 0.80877 0.44071 0.0
H504 H 0.21809 0.96033 0.19274 0.0
H505 H 0.2539 0.05839 0.14515 0.0
H506 H 0.21247 0.9709 0.37634 0.0
H507 H 0.28008 0.06351 0.31754 0.0
H508 H 0.22999 0.02356 0.16449 0.0
H509 H 0.23213 0.99492 0.17038 0.0
C510 C 0.21926 0.96981 0.22809 0.0
C511 C 0.21396 0.96264 0.28643 0.0
C512 C 0.24085 0.03234 0.19825 0.0
C513 C 0.23038 1.00238 0.2614 0.0
C514 C 0.25435 0.05232 0.18764 0.0
C515 C 0.26927 0.06396 0.22954 0.0
C516 C 0.24211 0.02386 0.25138 0.0
C517 C 0.26899 0.05513 0.28376 0.0
C518 C 0.22725 0.98958 0.21531 0.0
C519 C 0.21614 0.97571 0.33063 0.0
N520 N 0.25574 0.0356 0.29297 0.0
N521 N 0.22461 0.99499 0.31742 0.0
H522 H 0.96493 0.2153 0.32873 0.0
H523 H 0.07116 0.2551 0.38964 0.0
H524 H 0.98259 0.2117 0.14926 0.0
H525 H 0.08017 0.27831 0.2119 0.0
H526 H 0.03424 0.23174 0.36867 0.0
H527 H 1.00212 0.23106 0.35526 0.0
C528 C 0.97655 0.2174 0.29521 0.0
C529 C 0.97055 0.21203 0.23676 0.0
C530 C 0.04431 0.24187 0.33417 0.0
C531 C 0.0133 0.23035 0.2666 0.0
C532 C 0.06553 0.25507 0.34578 0.0
C533 C 0.07885 0.2689 0.30265 0.0
C534 C 0.03627 0.24233 0.27881 0.0
C535 C 0.0705 0.26805 0.24666 0.0
C536 C 0.99782 0.22636 0.3104 0.0
C537 C 0.98641 0.21539 0.195 0.0
N538 N 0.04974 0.25508 0.23646 0.0
N539 N 0.00705 0.22466 0.21045 0.0
H540 H 0.7344 0.77559 0.39145 0.0
H541 H 0.75551 0.73045 0.10875 0.0
H542 H 0.72024 0.7848 0.21424 0.0
H543 H 0.77193 0.72311 0.28512 0.0
H544 H 0.74969 0.75606 0.14368 0.0
H545 H 0.75544 0.7627 0.35109 0.0
C546 C 0.73617 0.77541 0.34399 0.0
C547 C 0.72516 0.78093 0.30625 0.0
C548 C 0.75494 0.74912 0.1746 0.0
C549 C 0.7489 0.76575 0.25968 0.0
C550 C 0.75831 0.73448 0.15462 0.0
C551 C 0.76387 0.72436 0.19425 0.0
C552 C 0.7569 0.75355 0.23483 0.0
C553 C 0.76742 0.73036 0.25308 0.0
C554 C 0.74812 0.76792 0.32092 0.0
C555 C 0.7282 0.78048 0.24511 0.0
N556 N 0.76351 0.74431 0.27179 0.0
N557 N 0.73941 0.7726 0.22378 0.0
H558 H 0.72051 0.92724 0.67252 0.0
H559 H 0.80766 0.03326 0.76737 0.0
H560 H 0.75815 0.93835 0.82713 0.0
H561 H 0.77852 0.0208 0.59724 0.0
H562 H 0.79289 0.99835 0.78476 0.0
H563 H 0.74468 0.96067 0.63799 0.0
C564 C 0.73416 0.93652 0.6985 0.0
C565 C 0.73713 0.92996 0.75316 0.0
C566 C 0.79002 1.00326 0.74318 0.0
C567 C 0.76462 0.96856 0.71462 0.0
C568 C 0.79849 0.02323 0.73319 0.0
C569 C 0.79418 0.03002 0.681 0.0
C570 C 0.77688 0.98991 0.70104 0.0
C571 C 0.78219 0.01629 0.6383 0.0
C572 C 0.74792 0.95571 0.67891 0.0
C573 C 0.75511 0.94276 0.78491 0.0
N574 N 0.77371 0.99691 0.64964 0.0
N575 N 0.76792 0.96152 0.76578 0.0
H576 H 0.03494 0.8055 0.84505 0.0
H577 H 0.93305 0.73283 0.7811 0.0
H578 H 0.05236 0.78638 0.68856 0.0
H579 H 0.95578 0.73735 0.60188 0.0
H580 H 0.96826 0.75846 0.80849 0.0
H581 H 0.99823 0.78786 0.81472 0.0
C582 C 0.03112 0.79782 0.80383 0.0
C583 C 0.04681 0.79722 0.76983 0.0
C584 C 0.96552 0.75434 0.76276 0.0
C585 C 1.00444 0.7762 0.7358 0.0
C586 C 0.94533 0.73954 0.74715 0.0
C587 C 0.94135 0.73286 0.68907 0.0
C588 C 0.98203 0.76252 0.72005 0.0
C589 C 0.95802 0.74203 0.64718 0.0
C590 C 0.01001 0.78743 0.78697 0.0
C591 C 0.04082 0.78711 0.71659 0.0
N592 N 0.97763 0.75613 0.66366 0.0
N593 N 0.02013 0.77686 0.70159 0.0
H594 H 0.28047 0.23515 0.56204 0.0
H595 H 0.24946 0.29692 0.66203 0.0
H596 H 0.27395 0.21755 0.74543 0.0
H597 H 0.221 0.25814 0.81276 0.0
H598 H 0.25814 0.27428 0.61925 0.0
H599 H 0.25764 0.24826 0.58106 0.0
C600 C 0.27397 0.23376 0.60618 0.0
C601 C 0.27954 0.2256 0.65248 0.0
C602 C 0.24927 0.2702 0.66056 0.0
C603 C 0.25412 0.24145 0.67528 0.0
C604 C 0.24422 0.28324 0.68508 0.0
C605 C 0.23437 0.27947 0.74099 0.0
C606 C 0.24471 0.25328 0.69257 0.0
C607 C 0.22862 0.2617 0.76955 0.0
C608 C 0.26115 0.24154 0.61725 0.0
C609 C 0.27035 0.22396 0.70853 0.0
N610 N 0.23429 0.24948 0.74563 0.0
N611 N 0.2584 0.23212 0.71856 0.0
H612 H 0.87425 0.26601 0.69249 0.0
H613 H 0.86835 0.30484 0.37155 0.0
H614 H 0.86357 0.23333 0.53351 0.0
H615 H 0.87648 0.33716 0.52991 0.0
H616 H 0.86254 0.27704 0.43194 0.0
H617 H 0.87094 0.29051 0.63608 0.0
C618 C 0.87084 0.2638 0.64596 0.0
C619 C 0.86936 0.24764 0.61766 0.0
C620 C 0.86537 0.29012 0.45366 0.0
C621 C 0.86582 0.27579 0.55261 0.0
C622 C 0.86869 0.30603 0.41912 0.0
C623 C 0.87309 0.32345 0.44562 0.0
C624 C 0.86664 0.29161 0.51534 0.0
C625 C 0.8732 0.32406 0.50754 0.0
C626 C 0.86904 0.27785 0.6137 0.0
C627 C 0.86496 0.24558 0.55722 0.0
N628 N 0.87028 0.30845 0.54026 0.0
N629 N 0.86358 0.25957 0.52669 0.0
H630 H 0.61237 0.54213 0.43985 0.0
H631 H 0.71187 0.61688 0.51371 0.0
H632 H 0.59689 0.54961 0.61808 0.0
H633 H 0.6964 0.59206 0.69009 0.0
H634 H 0.67682 0.59155 0.48265 0.0
H635 H 0.64968 0.55896 0.4649 0.0
C636 C 0.61672 0.54687 0.48469 0.0
C637 C 0.60142 0.54464 0.52673 0.0
C638 C 0.6813 0.59127 0.52774 0.0
C639 C 0.64427 0.56435 0.55521 0.0
C640 C 0.70131 0.60579 0.54552 0.0
C641 C 0.70713 0.60657 0.60453 0.0
C642 C 0.66681 0.57765 0.56955 0.0
C643 C 0.69267 0.59194 0.64404 0.0
C644 C 0.6381 0.55674 0.49865 0.0
C645 C 0.60812 0.55115 0.58409 0.0
N646 N 0.67303 0.57837 0.62618 0.0
N647 N 0.62906 0.56084 0.59652 0.0
H648 H 0.38419 0.13604 0.49719 0.0
H649 H 0.4567 0.1119 0.4029 0.0
H650 H 0.41397 0.14728 0.66597 0.0
H651 H 0.4471 0.08946 0.58175 0.0
H652 H 0.44371 0.13321 0.43298 0.0
H653 H 0.40926 0.12749 0.45875 0.0
C654 C 0.39645 0.13742 0.52556 0.0
C655 C 0.39699 0.14258 0.58471 0.0
C656 C 0.44476 0.12382 0.46574 0.0
C657 C 0.4255 0.13217 0.54159 0.0
C658 C 0.45242 0.11181 0.44885 0.0
C659 C 0.45271 0.09864 0.48973 0.0
C660 C 0.43752 0.12277 0.52403 0.0
C661 C 0.44693 0.09921 0.54863 0.0
C662 C 0.41081 0.13248 0.50362 0.0
C663 C 0.413 0.14352 0.61994 0.0
N664 N 0.43939 0.11093 0.56392 0.0
N665 N 0.42624 0.13785 0.59832 0.0
H666 H 0.41751 0.28644 0.1959 0.0
H667 H 0.4485 0.38258 0.12671 0.0
H668 H 0.38992 0.27673 0.02397 0.0
H669 H 0.45466 0.36838 0.9474 0.0
H670 H 0.4361 0.34883 0.15696 0.0
H671 H 0.44006 0.32108 0.1702 0.0
C672 C 0.41652 0.29147 0.1522 0.0
C673 C 0.40162 0.27861 0.11219 0.0
C674 C 0.44076 0.35324 0.11129 0.0
C675 C 0.42721 0.3184 0.08298 0.0
C676 C 0.44784 0.37253 0.094 0.0
C677 C 0.45278 0.37842 0.03449 0.0
C678 C 0.43816 0.33961 0.06854 0.0
C679 C 0.45125 0.36461 0.99386 0.0
C680 C 0.42922 0.31133 0.13794 0.0
C681 C 0.40106 0.28609 0.05634 0.0
N682 N 0.44362 0.34578 0.01138 0.0
N683 N 0.41358 0.30549 0.04349 0.0
H684 H 0.73523 0.12012 0.19094 0.0
H685 H 0.6295 0.06203 0.12153 0.0
H686 H 0.74501 0.10214 0.02062 0.0
H687 H 0.65034 0.07963 0.94074 0.0
H688 H 0.66631 0.0809 0.1518 0.0
H689 H 0.69914 0.11002 0.16404 0.0
C690 C 0.72995 0.1144 0.14741 0.0
C691 C 0.74315 0.11175 0.10824 0.0
C692 C 0.66279 0.08109 0.1057 0.0
C693 C 0.70161 0.09978 0.07774 0.0
C694 C 0.64175 0.07024 0.08839 0.0
C695 C 0.63677 0.06928 0.02854 0.0
C696 C 0.67901 0.09076 0.06272 0.0
C697 C 0.65338 0.08004 0.98742 0.0
C698 C 0.70922 0.10839 0.13247 0.0
C699 C 0.73536 0.10427 0.05243 0.0
N700 N 0.67375 0.08999 0.00511 0.0
N701 N 0.71507 0.09845 0.03897 0.0
H702 H 0.87373 0.64802 0.99632 0.0
H703 H 0.86373 0.57258 0.82969 0.0
H704 H 0.82933 0.60396 0.11929 0.0
H705 H 0.85694 0.54438 0.99879 0.0
H706 H 0.85678 0.59591 0.87758 0.0
H707 H 0.87459 0.62287 0.93942 0.0
C708 C 0.86373 0.63297 0.01058 0.0
C709 C 0.85096 0.62806 0.06173 0.0
C710 C 0.85687 0.58465 0.90424 0.0
C711 C 0.85222 0.59905 0.99716 0.0
C712 C 0.86065 0.57119 0.87688 0.0
C713 C 0.86126 0.55665 0.91038 0.0
C714 C 0.85372 0.58365 0.9657 0.0
C715 C 0.85686 0.55548 0.97133 0.0
C716 C 0.86425 0.61858 0.97801 0.0
C717 C 0.83913 0.60835 0.07957 0.0
N718 N 0.85338 0.5689 0.99715 0.0
N719 N 0.84018 0.59454 0.04757 0.0
H720 H 0.59184 0.72567 0.87381 0.0
H721 H 0.58615 0.65169 0.12297 0.0
H722 H 0.63162 0.74253 0.02554 0.0
H723 H 0.55433 0.63357 0.9572 0.0
H724 H 0.59593 0.68514 0.09919 0.0
H725 H 0.57119 0.69251 0.91536 0.0
C726 C 0.59586 0.72259 0.91673 0.0
C727 C 0.61365 0.73693 0.94596 0.0
C728 C 0.58651 0.67382 0.06838 0.0
C729 C 0.59023 0.69889 0.99336 0.0
C730 C 0.58083 0.65464 0.08205 0.0
C731 C 0.56959 0.63975 0.04172 0.0
C732 C 0.58101 0.67826 0.01384 0.0
C733 C 0.56311 0.64456 0.98949 0.0
C734 C 0.58415 0.70358 0.94018 0.0
C735 C 0.61811 0.73199 1.00129 0.0
N736 N 0.56916 0.66342 0.97669 0.0
N737 N 0.60669 0.71337 0.02275 0.0
H738 H 0.39371 0.95099 0.82651 0.0
H739 H 0.27268 0.89123 0.9245 0.0
H740 H 0.37178 0.92831 0.00327 0.0
H741 H 0.29509 0.91215 0.7466 0.0
H742 H 0.30821 0.89901 0.94995 0.0
H743 H 0.35765 0.9311 0.79234 0.0
C744 C 0.3814 0.94144 0.85793 0.0
C745 C 0.38577 0.94155 0.91804 0.0
C746 C 0.30528 0.90157 0.90505 0.0
C747 C 0.34422 0.91904 0.8794 0.0
C748 C 0.28495 0.89707 0.89042 0.0
C749 C 0.28092 0.90129 0.8335 0.0
C750 C 0.32177 0.91048 0.8626 0.0
C751 C 0.29747 0.90881 0.7912 0.0
C752 C 0.36074 0.93014 0.83842 0.0
C753 C 0.36915 0.9288 0.9566 0.0
N754 N 0.31719 0.91344 0.80683 0.0
N755 N 0.34906 0.91836 0.93686 0.0
H756 H 0.14442 0.36927 0.03149 0.0
H757 H 0.16026 0.47442 0.01985 0.0
H758 H 0.18098 0.41036 0.8914 0.0
H759 H 0.14656 0.44079 0.18179 0.0
H760 H 0.16821 0.45163 0.97116 0.0
H761 H 0.14551 0.39549 0.08738 0.0
C762 C 0.15324 0.3839 0.01316 0.0
C763 C 0.16298 0.38759 0.9571 0.0
C764 C 0.16376 0.44944 0.01756 0.0
C765 C 0.16326 0.41771 0.01969 0.0
C766 C 0.15918 0.46241 0.04536 0.0
C767 C 0.15257 0.45944 0.10492 0.0
C768 C 0.16137 0.43323 0.04932 0.0
C769 C 0.15149 0.44364 0.13577 0.0
C770 C 0.15364 0.39889 0.04488 0.0
C771 C 0.17335 0.40682 0.93461 0.0
N772 N 0.15555 0.43101 0.10746 0.0
N773 N 0.17296 0.42112 0.96559 0.0
H774 H 0.13196 0.70793 0.67825 0.0
H775 H 0.1588 0.77174 0.38039 0.0
H776 H 0.14659 0.69066 0.51315 0.0
H777 H 0.12158 0.77332 0.52611 0.0
H778 H 0.16272 0.74719 0.43516 0.0
H779 H 0.13684 0.73733 0.62951 0.0
C780 C 0.13648 0.71042 0.63189 0.0
C781 C 0.13864 0.69665 0.59963 0.0
C782 C 0.15404 0.75324 0.4554 0.0
C783 C 0.14426 0.73041 0.54352 0.0
C784 C 0.15188 0.76732 0.42438 0.0
C785 C 0.13999 0.7748 0.44887 0.0
C786 C 0.14445 0.74679 0.51155 0.0
C787 C 0.13122 0.76834 0.50582 0.0
C788 C 0.1392 0.72721 0.60407 0.0
C789 C 0.14461 0.70079 0.53965 0.0
N790 N 0.13358 0.75472 0.53507 0.0
N791 N 0.14708 0.71725 0.51338 0.0
H792 H 0.3916 0.45682 0.55686 0.0
H793 H 0.29 0.38479 0.49271 0.0
H794 H 0.40366 0.4484 0.37606 0.0
H795 H 0.3039 0.40854 0.31503 0.0
H796 H 0.32557 0.40977 0.52054 0.0
H797 H 0.35408 0.44165 0.53594 0.0
C798 C 0.38648 0.45222 0.51234 0.0
C799 C 0.40084 0.45363 0.46837 0.0
C800 C 0.32064 0.40995 0.47591 0.0
C801 C 0.35772 0.43579 0.44462 0.0
C802 C 0.30028 0.39561 0.45999 0.0
C803 C 0.29387 0.39454 0.40149 0.0
C804 C 0.33487 0.4231 0.43274 0.0
C805 C 0.30807 0.40885 0.36074 0.0
C806 C 0.36496 0.4433 0.50073 0.0
C807 C 0.39317 0.44744 0.41151 0.0
N808 N 0.32804 0.42222 0.37676 0.0
N809 N 0.3721 0.43861 0.40143 0.0
H810 H 0.5778 0.92227 0.60385 0.0
H811 H 0.63675 0.88342 0.51451 0.0
H812 H 0.56109 0.91699 0.42056 0.0
H813 H 0.59384 0.85738 0.37126 0.0
H814 H 0.61524 0.89572 0.55281 0.0
H815 H 0.58818 0.89812 0.59065 0.0
C816 C 0.57606 0.91585 0.56094 0.0
C817 C 0.56897 0.922 0.51293 0.0
C818 C 0.6099 0.88667 0.51437 0.0
C819 C 0.58171 0.89487 0.49679 0.0
C820 C 0.62226 0.8795 0.49249 0.0
C821 C 0.61706 0.86909 0.4399 0.0
C822 C 0.59229 0.88378 0.4829 0.0
C823 C 0.59845 0.86524 0.41211 0.0
C824 C 0.58227 0.90221 0.55322 0.0
C825 C 0.56674 0.9129 0.45865 0.0
N826 N 0.58702 0.87297 0.43318 0.0
N827 N 0.5734 0.90003 0.45183 0.0
H828 H 0.40871 0.22686 0.84428 0.0
H829 H 0.32263 0.1625 0.08276 0.0
H830 H 0.35832 0.23735 0.88331 0.0
H831 H 0.38752 0.17768 0.09809 0.0
H832 H 0.3343 0.18957 0.01071 0.0
H833 H 0.4012 0.20884 0.93807 0.0
C834 C 0.3963 0.22569 0.87322 0.0
C835 C 0.38361 0.23305 0.85549 0.0
C836 C 0.34594 0.18709 0.03082 0.0
C837 C 0.37456 0.21204 0.96204 0.0
C838 C 0.33929 0.17164 0.07184 0.0
C839 C 0.35401 0.16747 0.09568 0.0
C840 C 0.36736 0.19815 0.01307 0.0
C841 C 0.37546 0.17998 0.08018 0.0
C842 C 0.39192 0.2153 0.92664 0.0
C843 C 0.36785 0.23118 0.89484 0.0
N844 N 0.3814 0.19444 0.03917 0.0
N845 N 0.36338 0.22045 0.94573 0.0
H846 H 0.80522 0.1594 0.84381 0.0
H847 H 0.86546 0.14972 0.08919 0.0
H848 H 0.7748 0.1012 0.91743 0.0
H849 H 0.84021 0.18686 0.12375 0.0
H850 H 0.83732 0.13221 0.01739 0.0
H851 H 0.82318 0.17189 0.93745 0.0
C852 C 0.80195 0.14928 0.8802 0.0
C853 C 0.78911 0.12916 0.87269 0.0
C854 C 0.83783 0.14393 0.04201 0.0
C855 C 0.81004 0.14324 0.9783 0.0
C856 C 0.85387 0.15395 0.08272 0.0
C857 C 0.8555 0.17003 0.11193 0.0
C858 C 0.8238 0.15037 0.02976 0.0
C859 C 0.83989 0.17479 0.10174 0.0
C860 C 0.81233 0.15639 0.93324 0.0
C861 C 0.78538 0.11672 0.92122 0.0
N862 N 0.82509 0.16539 0.06041 0.0
N863 N 0.79629 0.12387 0.97174 0.0
H864 H 0.82638 0.61049 0.84868 0.0
H865 H 0.8113 0.67994 0.06553 0.0
H866 H 0.87427 0.67025 0.87463 0.0
H867 H 0.77286 0.61727 0.08086 0.0
H868 H 0.83444 0.67653 0.99493 0.0
H869 H 0.80664 0.61187 0.93491 0.0
C870 C 0.83294 0.62379 0.87336 0.0
C871 C 0.85174 0.64052 0.85422 0.0
C872 C 0.82104 0.66352 0.01415 0.0
C873 C 0.82908 0.64241 0.95108 0.0
C874 C 0.80777 0.66547 0.05432 0.0
C875 C 0.78997 0.64888 0.07881 0.0
C876 C 0.81636 0.64485 0.99767 0.0
C877 C 0.78636 0.63048 0.06303 0.0
C878 C 0.82158 0.62465 0.92209 0.0
C879 C 0.85951 0.65732 0.88744 0.0
N880 N 0.79928 0.62896 0.02297 0.0
N881 N 0.848 0.65799 0.93356 0.0
H882 H 0.27002 0.35264 0.61218 0.0
H883 H 0.19477 0.3791 0.43847 0.0
H884 H 0.24897 0.3896 0.68242 0.0
H885 H 0.18855 0.32254 0.42906 0.0
H886 H 0.22377 0.38935 0.50593 0.0
H887 H 0.25054 0.3495 0.52114 0.0
C888 C 0.26157 0.36029 0.60784 0.0
C889 C 0.26072 0.37107 0.65484 0.0
C890 C 0.21623 0.3748 0.48848 0.0
C891 C 0.23797 0.36685 0.55309 0.0
C892 C 0.19964 0.36885 0.44979 0.0
C893 C 0.18886 0.34974 0.42845 0.0
C894 C 0.2225 0.36174 0.50559 0.0
C895 C 0.19616 0.33729 0.44487 0.0
C896 C 0.25032 0.35827 0.55665 0.0
C897 C 0.24999 0.38112 0.64706 0.0
N898 N 0.2125 0.34349 0.48276 0.0
N899 N 0.23867 0.37847 0.59757 0.0
H900 H 0.60901 0.78571 0.4467 0.0
H901 H 0.66015 0.88534 0.62074 0.0
H902 H 0.67545 0.82903 0.43364 0.0
H903 H 0.60916 0.83149 0.69379 0.0
H904 H 0.661 0.86788 0.53312 0.0
H905 H 0.60417 0.80582 0.51812 0.0
C906 C 0.62255 0.7996 0.45807 0.0
C907 C 0.64275 0.80559 0.43455 0.0
C908 C 0.6494 0.86002 0.56786 0.0
C909 C 0.63714 0.82868 0.51591 0.0
C910 C 0.64904 0.86988 0.61781 0.0
C911 C 0.63532 0.85965 0.66528 0.0
C912 C 0.63515 0.83999 0.56418 0.0
C913 C 0.62018 0.8399 0.65822 0.0
C914 C 0.61973 0.81098 0.49904 0.0
C915 C 0.65966 0.82373 0.45118 0.0
N916 N 0.62061 0.83062 0.60871 0.0
N917 N 0.65648 0.83464 0.49096 0.0
H918 H 0.20594 0.84918 0.41465 0.0
H919 H 0.1048 0.79504 0.62991 0.0
H920 H 0.15656 0.86287 0.42056 0.0
H921 H 0.16436 0.80031 0.6693 0.0
H922 H 0.11989 0.81175 0.53498 0.0
H923 H 0.18675 0.82377 0.48988 0.0
C924 C 0.19088 0.84668 0.43095 0.0
C925 C 0.18306 0.85853 0.41188 0.0
C926 C 0.12956 0.80929 0.56456 0.0
C927 C 0.16105 0.82929 0.49817 0.0
C928 C 0.12099 0.79962 0.61835 0.0
C929 C 0.13351 0.79673 0.65801 0.0
C930 C 0.15073 0.81614 0.55013 0.0
C931 C 0.15419 0.80237 0.64008 0.0
C932 C 0.18003 0.8322 0.47419 0.0
C933 C 0.16336 0.85434 0.43443 0.0
N934 N 0.1623 0.8121 0.58768 0.0
N935 N 0.1531 0.84014 0.47671 0.0
H936 H 0.68719 0.83847 0.93674 0.0
H937 H 0.59603 0.76553 0.15354 0.0
H938 H 0.62171 0.81896 0.90727 0.0
H939 H 0.65487 0.76684 0.14025 0.0
H940 H 0.60433 0.7833 0.05903 0.0
H941 H 0.67588 0.81123 0.00734 0.0
C942 C 0.67048 0.82833 0.94431 0.0
C943 C 0.65542 0.83129 0.91686 0.0
C944 C 0.61535 0.77949 0.07628 0.0
C945 C 0.64238 0.8003 0.99797 0.0
C946 C 0.61055 0.76925 0.13015 0.0
C947 C 0.6252 0.76533 0.15549 0.0
C948 C 0.63506 0.78609 0.04822 0.0
C949 C 0.64364 0.77035 0.12301 0.0
C950 C 0.66402 0.81276 0.98455 0.0
C951 C 0.63394 0.81754 0.92815 0.0
N952 N 0.64833 0.78089 0.07176 0.0
N953 N 0.6281 0.80291 0.96849 0.0
H954 H 0.14632 0.86033 0.93625 0.0
H955 H 0.23207 0.86681 0.15225 0.0
H956 H 0.17754 0.82793 0.9074 0.0
H957 H 0.22205 0.91477 0.128 0.0
H958 H 0.21272 0.85241 0.06182 0.0
H959 H 0.17358 0.88036 0.00695 0.0
C960 C 0.15908 0.85767 0.94368 0.0
C961 C 0.15938 0.8422 0.91619 0.0
C962 C 0.21503 0.86626 0.07569 0.0
C963 C 0.19066 0.86518 0.99701 0.0
C964 C 0.2262 0.87455 0.12716 0.0
C965 C 0.22823 0.89185 0.14822 0.0
C966 C 0.20562 0.87521 0.04557 0.0
C967 C 0.22029 0.90117 0.11387 0.0
C968 C 0.17469 0.86918 0.98393 0.0
C969 C 0.17641 0.8395 0.92792 0.0
N970 N 0.20899 0.89259 0.06493 0.0
N971 N 0.19111 0.85063 0.96795 0.0
H972 H 0.23462 0.38104 0.92994 0.0
H973 H 0.1301 0.33436 0.13311 0.0
H974 H 0.18593 0.32022 0.92705 0.0
H975 H 0.18815 0.38524 0.18211 0.0
H976 H 0.14766 0.33303 0.04188 0.0
H977 H 0.21461 0.38611 0.00696 0.0
C978 C 0.21959 0.36876 0.94484 0.0
C979 C 0.2121 0.35007 0.92222 0.0
C980 C 0.15646 0.34434 0.07282 0.0
C981 C 0.18917 0.35594 0.01066 0.0
C982 C 0.14652 0.34516 0.12449 0.0
C983 C 0.15789 0.35946 0.16576 0.0
C984 C 0.17776 0.35809 0.06168 0.0
C985 C 0.17884 0.37386 0.15139 0.0
C986 C 0.20827 0.37171 0.9891 0.0
C987 C 0.19245 0.33483 0.94334 0.0
N988 N 0.18823 0.37271 0.10067 0.0
N989 N 0.18172 0.33809 0.98655 0.0
H990 H 0.75791 0.60234 0.34681 0.0
H991 H 0.83437 0.68148 0.5659 0.0
H992 H 0.74735 0.64842 0.39495 0.0
H993 H 0.81662 0.62116 0.58449 0.0
H994 H 0.80441 0.67143 0.49962 0.0
H995 H 0.78066 0.60967 0.43176 0.0
C996 C 0.7601 0.61383 0.37596 0.0
C997 C 0.75137 0.62533 0.36304 0.0
C998 C 0.80706 0.66047 0.51904 0.0
C999 C 0.77792 0.63422 0.45907 0.0
C1000 C 0.82418 0.6662 0.55652 0.0
C1001 C 0.82822 0.65221 0.58049 0.0
C1002 C 0.79428 0.64073 0.50464 0.0
C1003 C 0.81432 0.63255 0.56706 0.0
C1004 C 0.77323 0.61813 0.42418 0.0
C1005 C 0.7547 0.63996 0.40244 0.0
N1006 N 0.79827 0.62747 0.52951 0.0
N1007 N 0.76815 0.6444 0.44798 0.0
H1008 H 0.39913 0.16707 0.32193 0.0
H1009 H 0.32743 0.17257 0.56862 0.0
H1010 H 0.34407 0.11527 0.39014 0.0
H1011 H 0.39485 0.21237 0.567 0.0
H1012 H 0.33265 0.15207 0.49936 0.0
H1013 H 0.39852 0.18461 0.40935 0.0
C1014 C 0.38722 0.15924 0.35618 0.0
C1015 C 0.3712 0.1398 0.34856 0.0
C1016 C 0.34629 0.16511 0.51506 0.0
C1017 C 0.36999 0.15989 0.44713 0.0
C1018 C 0.34332 0.1769 0.55424 0.0
C1019 C 0.3607 0.1943 0.57343 0.0
C1020 C 0.36671 0.17091 0.49406 0.0
C1021 C 0.38097 0.19909 0.55346 0.0
C1022 C 0.38675 0.16931 0.40573 0.0
C1023 C 0.35619 0.13042 0.39402 0.0
N1024 N 0.3834 0.18763 0.51416 0.0
N1025 N 0.35559 0.14064 0.44075 0.0
H1026 H 0.83686 0.16213 0.65178 0.0
H1027 H 0.85154 0.18772 0.31982 0.0
H1028 H 0.84123 0.12317 0.53043 0.0
H1029 H 0.9039 0.22863 0.42267 0.0
H1030 H 0.83758 0.16536 0.40562 0.0
H1031 H 0.85329 0.18821 0.57616 0.0
C1032 C 0.84187 0.15922 0.60996 0.0
C1033 C 0.83776 0.14042 0.59755 0.0
C1034 C 0.85188 0.17942 0.40967 0.0
C1035 C 0.85616 0.17015 0.51127 0.0
C1036 C 0.85973 0.19223 0.36115 0.0
C1037 C 0.87912 0.20972 0.36409 0.0
C1038 C 0.86303 0.18459 0.46223 0.0
C1039 C 0.88902 0.21508 0.41869 0.0
C1040 C 0.85127 0.17414 0.56715 0.0
C1041 C 0.8443 0.13745 0.54223 0.0
N1042 N 0.88083 0.2025 0.4661 0.0
N1043 N 0.85277 0.15205 0.50063 0.0
H1044 H 0.85837 0.41452 0.3029 0.0
H1045 H 0.89664 0.45242 0.97517 0.0
H1046 H 0.87636 0.38501 0.17845 0.0
H1047 H 0.86729 0.47555 0.0869 0.0
H1048 H 0.88693 0.4263 0.04729 0.0
H1049 H 0.85748 0.43452 0.22231 0.0
C1050 C 0.86148 0.41184 0.25821 0.0
C1051 C 0.86765 0.39823 0.24729 0.0
C1052 C 0.88247 0.43698 0.05604 0.0
C1053 C 0.86735 0.4215 0.15519 0.0
C1054 C 0.8882 0.45206 0.01508 0.0
C1055 C 0.88299 0.46637 0.02533 0.0
C1056 C 0.87163 0.43623 0.10822 0.0
C1057 C 0.87179 0.46494 0.07748 0.0
C1058 C 0.86113 0.42338 0.21228 0.0
C1059 C 0.87151 0.39532 0.18874 0.0
N1060 N 0.86664 0.45022 0.11729 0.0
N1061 N 0.87175 0.40719 0.14496 0.0
H1062 H 0.48303 0.4865 0.42914 0.0
H1063 H 0.42875 0.47663 0.11785 0.0
H1064 H 0.49771 0.53596 0.31773 0.0
H1065 H 0.43699 0.43173 0.19605 0.0
H1066 H 0.44569 0.4971 0.20319 0.0
H1067 H 0.45714 0.46509 0.35603 0.0
C1068 C 0.4808 0.49278 0.38939 0.0
C1069 C 0.49288 0.51287 0.37842 0.0
C1070 C 0.44341 0.48262 0.20209 0.0
C1071 C 0.46363 0.48859 0.29575 0.0
C1072 C 0.43361 0.47087 0.1537 0.0
C1073 C 0.43155 0.45247 0.14981 0.0
C1074 C 0.45074 0.47574 0.2475 0.0
C1075 C 0.43835 0.44584 0.19716 0.0
C1076 C 0.46611 0.48064 0.34819 0.0
C1077 C 0.48888 0.52045 0.32734 0.0
N1078 N 0.44759 0.45745 0.24406 0.0
N1079 N 0.47483 0.50829 0.28735 0.0
H1080 H 0.57794 0.01283 0.18667 0.0
H1081 H 0.44708 0.9932 0.32019 0.0
H1082 H 0.50409 0.97028 0.12742 0.0
H1083 H 0.50373 0.04315 0.38302 0.0
H1084 H 0.46883 0.98263 0.26872 0.0
H1085 H 0.5452 0.02605 0.31682 0.0
C1086 C 0.56112 0.00686 0.19566 0.0
C1087 C 0.54202 0.98958 0.14774 0.0
C1088 C 0.4764 0.99578 0.29418 0.0
C1089 C 0.51232 1.00187 0.26566 0.0
C1090 C 0.46409 1.0019 0.32345 0.0
C1091 C 0.47365 0.0192 0.35576 0.0
C1092 C 0.49837 0.00684 0.2983 0.0
C1093 C 0.4957 0.02987 0.35828 0.0
C1094 C 0.53959 0.01573 0.28074 0.0
C1095 C 0.5145 0.98034 0.15977 0.0
N1096 N 0.50729 0.02346 0.33009 0.0
N1097 N 0.50358 0.98682 0.21096 0.0
H1098 H 0.81146 0.66251 0.74653 0.0
H1099 H 0.87174 0.73947 0.98686 0.0
H1100 H 0.82137 0.72049 0.73352 0.0
H1101 H 0.88509 0.6942 0.95133 0.0
H1102 H 0.85559 0.73445 0.8899 0.0
H1103 H 0.84024 0.67448 0.81675 0.0
C1104 C 0.8199 0.67779 0.75742 0.0
C1105 C 0.81361 0.69037 0.73489 0.0
C1106 C 0.86253 0.72593 0.90257 0.0
C1107 C 0.8463 0.70408 0.81596 0.0
C1108 C 0.87189 0.72891 0.95773 0.0
C1109 C 0.87929 0.71687 0.97719 0.0
C1110 C 0.86044 0.7107 0.86732 0.0
C1111 C 0.87902 0.70337 0.93806 0.0
C1112 C 0.83636 0.68464 0.79756 0.0
C1113 C 0.82533 0.71011 0.75043 0.0
N1114 N 0.86933 0.70035 0.88543 0.0
N1115 N 0.84073 0.71623 0.79087 0.0
H1116 H 0.34545 0.18635 0.74258 0.0
H1117 H 0.27513 0.1801 0.01924 0.0
H1118 H 0.28326 0.1368 0.7801 0.0
H1119 H 0.33141 0.23297 0.96145 0.0
H1120 H 0.27531 0.16516 0.92566 0.0
H1121 H 0.33852 0.20472 0.81577 0.0
C1122 C 0.3303 0.1794 0.76566 0.0
C1123 C 0.31506 0.15988 0.75555 0.0
C1124 C 0.28736 0.18018 0.93276 0.0
C1125 C 0.30722 0.18088 0.84021 0.0
C1126 C 0.28717 0.18877 0.98607 0.0
C1127 C 0.30352 0.20771 0.99836 0.0
C1128 C 0.30402 0.19064 0.89155 0.0
C1129 C 0.31874 0.21821 0.95401 0.0
C1130 C 0.32635 0.18993 0.80747 0.0
C1131 C 0.2956 0.15175 0.7866 0.0
N1132 N 0.31874 0.20947 0.90291 0.0
N1133 N 0.29239 0.16216 0.82808 0.0
H1134 H 0.88871 0.1481 0.74682 0.0
H1135 H 0.84996 0.09806 0.01381 0.0
H1136 H 0.83995 0.16148 0.78104 0.0
H1137 H 0.78874 0.0833 0.95319 0.0
H1138 H 0.86586 0.11639 0.92166 0.0
H1139 H 0.87084 0.12035 0.81552 0.0
C1140 C 0.87412 0.14514 0.76821 0.0
C1141 C 0.86609 0.1575 0.75885 0.0
C1142 C 0.84886 0.10867 0.92749 0.0
C1143 C 0.84559 0.12559 0.8378 0.0
C1144 C 0.83977 0.09808 0.97999 0.0
C1145 C 0.81806 0.08965 0.99128 0.0
C1146 C 0.8361 0.11084 0.88639 0.0
C1147 C 0.80563 0.09027 0.94638 0.0
C1148 C 0.86402 0.12931 0.80768 0.0
C1149 C 0.84696 0.15263 0.78758 0.0
N1150 N 0.81485 0.10116 0.89638 0.0
N1151 N 0.83743 0.13711 0.826 0.0
H1152 H 0.3499 0.17798 0.25543 0.0
H1153 H 0.2738 0.12277 0.51788 0.0
H1154 H 0.28569 0.16558 0.25426 0.0
H1155 H 0.31668 0.10496 0.45878 0.0
H1156 H 0.27736 0.13829 0.42105 0.0
H1157 H 0.33887 0.15148 0.32891 0.0
C1158 C 0.33348 0.16952 0.26961 0.0
C1159 C 0.31884 0.17434 0.24931 0.0
C1160 C 0.28563 0.13059 0.42861 0.0
C1161 C 0.30626 0.14429 0.33372 0.0
C1162 C 0.28345 0.1216 0.48366 0.0
C1163 C 0.29544 0.11305 0.49607 0.0
C1164 C 0.3001 0.13118 0.3864 0.0
C1165 C 0.30777 0.11201 0.45064 0.0
C1166 C 0.32718 0.15437 0.31144 0.0
C1167 C 0.29769 0.16271 0.26917 0.0
N1168 N 0.31022 0.12138 0.39803 0.0
N1169 N 0.29217 0.14858 0.31112 0.0
H1170 H 0.90714 0.15336 0.50686 0.0
H1171 H 0.86457 0.118 0.2361 0.0
H1172 H 0.92278 0.20975 0.43914 0.0
H1173 H 0.84528 0.16023 0.25467 0.0
H1174 H 0.8923 0.13577 0.30701 0.0
H1175 H 0.89135 0.13916 0.41265 0.0
C1176 C 0.90779 0.16285 0.47143 0.0
C1177 C 0.91572 0.18266 0.48099 0.0
C1178 C 0.88214 0.14124 0.29502 0.0
C1179 C 0.89754 0.16654 0.37334 0.0
C1180 C 0.86632 0.13119 0.25431 0.0
C1181 C 0.85215 0.13736 0.24035 0.0
C1182 C 0.88399 0.15772 0.32174 0.0
C1183 C 0.85557 0.15475 0.26476 0.0
C1184 C 0.89874 0.15474 0.41762 0.0
C1185 C 0.91608 0.19427 0.43379 0.0
N1186 N 0.87108 0.16425 0.3046 0.0
N1187 N 0.90656 0.18598 0.38237 0.0
H1188 H 0.79682 0.72894 0.4987 0.0
H1189 H 0.79939 0.66493 0.24046 0.0
H1190 H 0.74514 0.67142 0.46231 0.0
H1191 H 0.84395 0.72675 0.24825 0.0
H1192 H 0.77763 0.66845 0.31538 0.0
H1193 H 0.81226 0.7303 0.40099 0.0
C1194 C 0.78838 0.71683 0.46945 0.0
C1195 C 0.76987 0.69984 0.48901 0.0
C1196 C 0.79191 0.68127 0.29982 0.0
C1197 C 0.78759 0.70117 0.37769 0.0
C1198 C 0.80442 0.67928 0.25702 0.0
C1199 C 0.82374 0.69549 0.23849 0.0
C1200 C 0.79871 0.69949 0.32483 0.0
C1201 C 0.82929 0.71375 0.26157 0.0
C1202 C 0.79728 0.71756 0.41376 0.0
C1203 C 0.75966 0.68462 0.44938 0.0
N1204 N 0.81705 0.7152 0.3042 0.0
N1205 N 0.76879 0.68555 0.39603 0.0
H1206 H 0.52857 0.99073 0.82566 0.0
H1207 H 0.44098 0.03486 0.65744 0.0
H1208 H 0.52373 0.03497 0.91488 0.0
H1209 H 0.44516 0.98931 0.57476 0.0
H1210 H 0.46105 0.03495 0.73531 0.0
H1211 H 0.50657 0.98921 0.75435 0.0
C1212 C 0.52221 1.00022 0.83006 0.0
C1213 C 0.52808 0.01288 0.87649 0.0
C1214 C 0.459 0.02455 0.70201 0.0
C1215 C 0.4985 0.01162 0.78777 0.0
C1216 C 0.44646 0.02464 0.65636 0.0
C1217 C 0.44111 0.01197 0.60995 0.0
C1218 C 0.46886 0.01229 0.70297 0.0
C1219 C 0.44854 0.99931 0.61045 0.0
C1220 C 0.50861 0.99963 0.78743 0.0
C1221 C 0.51975 0.02486 0.87923 0.0
N1222 N 0.46157 1.00029 0.65338 0.0
N1223 N 0.50598 0.02361 0.83764 0.0
H1224 H 0.87056 0.40007 0.59096 0.0
H1225 H 0.86768 0.49585 0.66998 0.0
H1226 H 0.89809 0.45257 0.48303 0.0
H1227 H 0.85401 0.45012 0.79701 0.0
H1228 H 0.86961 0.47585 0.59217 0.0
H1229 H 0.85708 0.41481 0.6599 0.0
C1230 C 0.8738 0.41467 0.58185 0.0
C1231 C 0.88572 0.4252 0.53166 0.0
C1232 C 0.86571 0.47002 0.63691 0.0
C1233 C 0.86996 0.44191 0.60916 0.0
C1234 C 0.86429 0.48132 0.68116 0.0
C1235 C 0.86101 0.47474 0.74006 0.0
C1236 C 0.86379 0.45207 0.65187 0.0
C1237 C 0.85688 0.45583 0.75213 0.0
C1238 C 0.866 0.42302 0.6209 0.0
C1239 C 0.88924 0.44399 0.52158 0.0
N1240 N 0.85876 0.44528 0.70859 0.0
N1241 N 0.88143 0.45172 0.55995 0.0
H1242 H 0.54505 0.55577 0.68882 0.0
H1243 H 0.4415 0.47628 0.8655 0.0
H1244 H 0.48251 0.53178 0.62104 0.0
H1245 H 0.5008 0.4782 0.87792 0.0
H1246 H 0.45756 0.50292 0.79312 0.0
H1247 H 0.52957 0.53473 0.77809 0.0
C1248 C 0.52809 0.54625 0.69313 0.0
C1249 C 0.515 0.54529 0.64751 0.0
C1250 C 0.4671 0.49762 0.81204 0.0
C1251 C 0.49767 0.52075 0.74702 0.0
C1252 C 0.45801 0.48241 0.85362 0.0
C1253 C 0.46977 0.47481 0.87796 0.0
C1254 C 0.48828 0.50568 0.79491 0.0
C1255 C 0.49109 0.48348 0.86027 0.0
C1256 C 0.51942 0.5341 0.74324 0.0
C1257 C 0.49313 0.53292 0.65529 0.0
N1258 N 0.49969 0.49849 0.81976 0.0
N1259 N 0.48515 0.5209 0.70368 0.0
H1260 H 0.69225 0.90171 0.55982 0.0
H1261 H 0.72793 0.84595 0.77754 0.0
H1262 H 0.73747 0.88575 0.50768 0.0
H1263 H 0.66302 0.83086 0.76322 0.0
H1264 H 0.73816 0.87128 0.70174 0.0
H1265 H 0.68988 0.88752 0.65864 0.0
C1266 C 0.70194 0.89555 0.5697 0.0
C1267 C 0.71467 0.89443 0.52556 0.0
C1268 C 0.72177 0.86266 0.71617 0.0
C1269 C 0.71154 0.87798 0.63707 0.0
C1270 C 0.71581 0.84818 0.75953 0.0
C1271 C 0.69442 0.83591 0.77632 0.0
C1272 C 0.70636 0.86527 0.69011 0.0
C1273 C 0.67962 0.83978 0.75149 0.0
C1274 C 0.7004 0.88736 0.62554 0.0
C1275 C 0.72735 0.88676 0.54061 0.0
N1276 N 0.68586 0.85406 0.70926 0.0
N1277 N 0.72517 0.87844 0.59499 0.0
H1278 H 0.18885 0.87131 0.67331 0.0
H1279 H 0.07415 0.80501 0.5778 0.0
H1280 H 0.14306 0.87091 0.79455 0.0
H1281 H 0.11993 0.85223 0.46603 0.0
H1282 H 0.09576 0.8218 0.66422 0.0
H1283 H 0.16103 0.85457 0.60171 0.0
C1284 C 0.17286 0.86727 0.68552 0.0
C1285 C 0.16833 0.87272 0.73974 0.0
C1286 C 0.10064 0.82864 0.62086 0.0
C1287 C 0.13647 0.85349 0.65797 0.0
C1288 C 0.08827 0.81923 0.57187 0.0
C1289 C 0.09539 0.82738 0.51507 0.0
C1290 C 0.12047 0.84562 0.61171 0.0
C1291 C 0.114 0.84555 0.50925 0.0
C1292 C 0.15706 0.85789 0.64443 0.0
C1293 C 0.14724 0.86716 0.75286 0.0
N1294 N 0.12623 0.85379 0.55664 0.0
N1295 N 0.13199 0.85783 0.7121 0.0
H1296 H 0.20272 0.34368 0.76061 0.0
H1297 H 0.19502 0.27614 0.5041 0.0
H1298 H 0.15324 0.2831 0.76118 0.0
H1299 H 0.25498 0.32348 0.55796 0.0
H1300 H 0.17927 0.27732 0.59886 0.0
H1301 H 0.22183 0.33671 0.68539 0.0
C1302 C 0.19607 0.32886 0.74596 0.0
C1303 C 0.17621 0.31401 0.7671 0.0
C1304 C 0.19597 0.28727 0.59046 0.0
C1305 C 0.19825 0.306 0.68122 0.0
C1306 C 0.20499 0.28647 0.53664 0.0
C1307 C 0.22618 0.30022 0.52296 0.0
C1308 C 0.20821 0.3021 0.63005 0.0
C1309 C 0.23837 0.31326 0.56639 0.0
C1310 C 0.2071 0.32489 0.70327 0.0
C1311 C 0.16841 0.29508 0.746 0.0
N1312 N 0.22913 0.31428 0.61744 0.0
N1313 N 0.17929 0.29168 0.70368 0.0
H1314 H 0.59011 0.04917 0.26424 0.0
H1315 H 0.4883 0.03193 0.13111 0.0
H1316 H 0.54721 0.98086 0.31794 0.0
H1317 H 0.50386 1.00078 0.00646 0.0
H1318 H 0.51536 0.0337 0.1971 0.0
H1319 H 0.56447 0.04907 0.17797 0.0
C1320 C 0.5762 0.03538 0.25441 0.0
C1321 C 0.57135 0.01543 0.2959 0.0
C1322 C 0.51283 0.02652 0.15526 0.0
C1323 C 0.53708 0.01433 0.18589 0.0
C1324 C 0.49749 0.02552 0.11768 0.0
C1325 C 0.49323 0.01531 0.06489 0.0
C1326 C 0.52371 0.01704 0.14008 0.0
C1327 C 0.50605 0.00795 0.04819 0.0
C1328 C 0.56027 0.03562 0.2011 0.0
C1329 C 0.54993 0.99287 0.2893 0.0
N1330 N 0.5209 0.00913 0.08548 0.0
N1331 N 0.53293 0.98996 0.24205 0.0
H1332 H 0.14159 0.61489 0.42645 0.0
H1333 H 0.14362 0.51863 0.34766 0.0
H1334 H 0.11505 0.56298 0.53687 0.0
H1335 H 0.1567 0.56406 0.22009 0.0
H1336 H 0.14198 0.53879 0.42545 0.0
H1337 H 0.15429 0.5997 0.35672 0.0
C1338 C 0.13841 0.60033 0.43597 0.0
C1339 C 0.12699 0.59009 0.48711 0.0
C1340 C 0.14566 0.54452 0.38057 0.0
C1341 C 0.14185 0.57287 0.40858 0.0
C1342 C 0.14691 0.53312 0.33632 0.0
C1343 C 0.15 0.53958 0.27734 0.0
C1344 C 0.14757 0.56246 0.36552 0.0
C1345 C 0.15399 0.55844 0.26505 0.0
C1346 C 0.14576 0.59172 0.39643 0.0
C1347 C 0.12353 0.57134 0.49763 0.0
N1348 N 0.15232 0.5691 0.30861 0.0
N1349 N 0.13089 0.56335 0.45874 0.0
H1350 H 0.47292 0.4399 0.28245 0.0
H1351 H 0.54648 0.55293 0.20945 0.0
H1352 H 0.51691 0.48013 0.40647 0.0
H1353 H 0.53143 0.51096 0.07288 0.0
H1354 H 0.53033 0.52617 0.28284 0.0
H1355 H 0.4901 0.46525 0.20396 0.0
C1356 C 0.4865 0.45391 0.29267 0.0
C1357 C 0.49368 0.458 0.35057 0.0
C1358 C 0.53037 0.52283 0.2367 0.0
C1359 C 0.51256 0.48712 0.2626 0.0
C1360 C 0.53937 0.53807 0.19476 0.0
C1361 C 0.54024 0.53416 0.13494 0.0
C1362 C 0.52169 0.50349 0.21863 0.0
C1363 C 0.53109 0.5146 0.11858 0.0
C1364 C 0.49616 0.46837 0.24822 0.0
C1365 C 0.51109 0.47642 0.36208 0.0
N1366 N 0.52207 0.49997 0.1601 0.0
N1367 N 0.5197 0.49042 0.3188 0.0
H1368 H 0.15442 0.60155 0.71669 0.0
H1369 H 0.11433 0.56136 0.04172 0.0
H1370 H 0.13526 0.62991 0.84216 0.0
H1371 H 0.14526 0.53963 0.93057 0.0
H1372 H 0.12404 0.58776 0.97071 0.0
H1373 H 0.15501 0.58111 0.7964 0.0
C1374 C 0.15098 0.60388 0.76144 0.0
C1375 C 0.14456 0.6173 0.77284 0.0
C1376 C 0.12884 0.57732 0.96184 0.0
C1377 C 0.14455 0.59353 0.86389 0.0
C1378 C 0.12311 0.56208 0.00216 0.0
C1379 C 0.12878 0.5481 0.99177 0.0
C1380 C 0.14016 0.57857 0.91014 0.0
C1381 C 0.14041 0.54999 0.94007 0.0
C1382 C 0.15116 0.5921 0.80685 0.0
C1383 C 0.1403 0.61976 0.83146 0.0
N1384 N 0.14556 0.56486 0.90086 0.0
N1385 N 0.13991 0.60766 0.87468 0.0
H1386 H 0.56664 0.50828 0.87778 0.0
H1387 H 0.51567 0.50661 0.56867 0.0
H1388 H 0.5786 0.56014 0.78337 0.0
H1389 H 0.5047 0.45526 0.6643 0.0
H1390 H 0.54408 0.52665 0.63675 0.0
H1391 H 0.549 0.48907 0.79159 0.0
C1392 C 0.56598 0.51569 0.83835 0.0
C1393 C 0.57368 0.53576 0.83807 0.0
C1394 C 0.53522 0.51103 0.64322 0.0
C1395 C 0.55353 0.51387 0.739 0.0
C1396 C 0.51909 0.49961 0.60436 0.0
C1397 C 0.50765 0.47929 0.61151 0.0
C1398 C 0.53924 0.50216 0.69099 0.0
C1399 C 0.51304 0.47091 0.65754 0.0
C1400 C 0.55584 0.5047 0.78912 0.0
C1401 C 0.5725 0.54463 0.78573 0.0
N1402 N 0.52815 0.48237 0.69611 0.0
N1403 N 0.5625 0.5336 0.73832 0.0
H1404 H 0.55336 0.03038 0.55468 0.0
H1405 H 0.44944 0.98079 0.81076 0.0
H1406 H 0.51674 0.96892 0.59876 0.0
H1407 H 0.50004 0.05182 0.77008 0.0
H1408 H 0.46993 0.97268 0.71614 0.0
H1409 H 0.52949 0.03552 0.61686 0.0
C1410 C 0.54019 0.0179 0.57684 0.0
C1411 C 0.5373 0.9992 0.57206 0.0
C1412 C 0.47492 0.98755 0.727 0.0
C1413 C 0.50983 0.00508 0.64291 0.0
C1414 C 0.46217 0.99262 0.78536 0.0
C1415 C 0.47129 0.01738 0.80312 0.0
C1416 C 0.49709 0.0082 0.68725 0.0
C1417 C 0.49358 0.03664 0.75996 0.0
C1418 C 0.52656 0.02089 0.6123 0.0
C1419 C 0.5198 0.98363 0.60173 0.0
N1420 N 0.50421 0.0304 0.70711 0.0
N1421 N 0.50676 0.98694 0.63617 0.0
H1422 H 0.10733 0.30291 0.07577 0.0
H1423 H 0.187 0.28192 0.24759 0.0
H1424 H 0.14147 0.27891 0.99285 0.0
H1425 H 0.18751 0.33574 0.26745 0.0
H1426 H 0.15872 0.27126 0.17722 0.0
H1427 H 0.12416 0.30373 0.17005 0.0
C1428 C 0.11785 0.29726 0.07796 0.0
C1429 C 0.12327 0.29103 0.02673 0.0
C1430 C 0.16476 0.28522 0.19794 0.0
C1431 C 0.14296 0.29272 0.13249 0.0
C1432 C 0.18093 0.2914 0.23821 0.0
C1433 C 0.18998 0.30996 0.26304 0.0
C1434 C 0.15715 0.29744 0.18297 0.0
C1435 C 0.18124 0.32145 0.24892 0.0
C1436 C 0.12762 0.29802 0.13122 0.0
C1437 C 0.13696 0.28387 0.0315 0.0
N1438 N 0.16536 0.31504 0.20942 0.0
N1439 N 0.14666 0.28524 0.08323 0.0
H1440 H 0.73869 0.82754 0.012 0.0
H1441 H 0.66261 0.81836 0.27339 0.0
H1442 H 0.68243 0.7733 0.06026 0.0
H1443 H 0.72734 0.86571 0.25787 0.0
H1444 H 0.67074 0.80032 0.20177 0.0
H1445 H 0.7369 0.84058 0.10776 0.0
C1446 C 0.72636 0.81815 0.04358 0.0
C1447 C 0.71042 0.79944 0.0279 0.0
C1448 C 0.68322 0.81454 0.2147 0.0
C1449 C 0.70794 0.81437 0.13686 0.0
C1450 C 0.67856 0.82486 0.25564 0.0
C1451 C 0.69418 0.84376 0.27109 0.0
C1452 C 0.70352 0.82326 0.18831 0.0
C1453 C 0.71466 0.85131 0.2469 0.0
C1454 C 0.72521 0.82565 0.09813 0.0
C1455 C 0.69477 0.78796 0.07034 0.0
N1456 N 0.71861 0.84123 0.20607 0.0
N1457 N 0.6937 0.79571 0.12242 0.0
H1458 H 0.14728 0.90473 0.98725 0.0
H1459 H 0.16741 0.8603 0.26908 0.0
H1460 H 0.20951 0.92951 0.05761 0.0
H1461 H 0.10716 0.85502 0.23857 0.0
H1462 H 0.18362 0.88701 0.19555 0.0
H1463 H 0.13216 0.88836 0.08242 0.0
C1464 C 0.15774 0.90723 0.02345 0.0
C1465 C 0.17969 0.91798 0.01444 0.0
C1466 C 0.16691 0.88017 0.20571 0.0
C1467 C 0.16261 0.899 0.1228 0.0
C1468 C 0.15765 0.86488 0.24758 0.0
C1469 C 0.13583 0.85519 0.25963 0.0
C1470 C 0.15419 0.88551 0.17486 0.0
C1471 C 0.12399 0.86187 0.23047 0.0
C1472 C 0.14912 0.89775 0.07769 0.0
C1473 C 0.1925 0.92079 0.06267 0.0
N1474 N 0.13323 0.87633 0.18882 0.0
N1475 N 0.18381 0.911 0.11457 0.0
H1476 H 0.36234 0.09498 0.75805 0.0
H1477 H 0.31108 0.05772 0.07226 0.0
H1478 H 0.29571 0.06538 0.80038 0.0
H1479 H 0.37678 0.09941 0.0356 0.0
H1480 H 0.30695 0.04761 0.96977 0.0
H1481 H 0.36829 0.08379 0.85227 0.0
C1482 C 0.34884 0.08557 0.78643 0.0
C1483 C 0.32856 0.08159 0.77234 0.0
C1484 C 0.32247 0.05845 0.98452 0.0
C1485 C 0.33536 0.06901 0.88052 0.0
C1486 C 0.32489 0.06412 0.04316 0.0
C1487 C 0.34418 0.07978 0.06177 0.0
C1488 C 0.3394 0.06872 0.9443 0.0
C1489 C 0.36158 0.08746 0.02271 0.0
C1490 C 0.35228 0.07921 0.84025 0.0
C1491 C 0.31163 0.06904 0.81001 0.0
N1492 N 0.35864 0.08227 0.96511 0.0
N1493 N 0.31548 0.06362 0.86327 0.0
H1494 H 0.96659 0.25593 0.05868 0.0
H1495 H 0.91618 0.24925 0.74503 0.0
H1496 H 0.90736 0.25329 0.03789 0.0
H1497 H 0.96336 0.23447 0.78165 0.0
H1498 H 0.91878 0.26056 0.84636 0.0
H1499 H 0.97248 0.2598 0.9519 0.0
C1500 C 0.9553 0.25712 0.03174 0.0
C1501 C 0.93642 0.25419 0.05705 0.0
C1502 C 0.92868 0.25501 0.83193 0.0
C1503 C 0.94257 0.25773 0.93457 0.0
C1504 C 0.92703 0.24834 0.7743 0.0
C1505 C 0.9389 0.24015 0.75539 0.0
C1506 C 0.94269 0.25386 0.87061 0.0
C1507 C 0.9535 0.24023 0.79451 0.0
C1508 C 0.95848 0.25899 0.97068 0.0
C1509 C 0.92217 0.25561 0.02012 0.0
N1510 N 0.95483 0.24678 0.85028 0.0
N1511 N 0.92527 0.25677 0.96042 0.0
H1512 H 0.69095 0.64132 0.7838 0.0
H1513 H 0.69401 0.61436 0.06523 0.0
H1514 H 0.74097 0.69768 0.83652 0.0
H1515 H 0.7173 0.6736 0.11586 0.0
H1516 H 0.69071 0.62304 0.96478 0.0
H1517 H 0.67926 0.63294 0.88683 0.0
C1518 C 0.69902 0.65218 0.81707 0.0
C1519 C 0.71701 0.67015 0.80186 0.0
C1520 C 0.69611 0.63417 0.99777 0.0
C1521 C 0.70479 0.66017 0.92028 0.0
C1522 C 0.69821 0.62921 0.05538 0.0
C1523 C 0.70681 0.6435 0.09859 0.0
C1524 C 0.70267 0.65361 0.98292 0.0
C1525 C 0.71166 0.66241 0.08312 0.0
C1526 C 0.69265 0.64724 0.87606 0.0
C1527 C 0.72697 0.68369 0.84653 0.0
N1528 N 0.71002 0.66706 0.02625 0.0
N1529 N 0.72104 0.67825 0.90406 0.0
H1530 H 0.10994 0.3606 0.75748 0.0
H1531 H 0.06974 0.30918 0.45628 0.0
H1532 H 0.0748 0.2985 0.73295 0.0
H1533 H 0.11501 0.3702 0.47656 0.0
H1534 H 0.05848 0.307 0.55919 0.0
H1535 H 0.09885 0.36532 0.66103 0.0
C1536 C 0.09932 0.34789 0.73257 0.0
C1537 C 0.09385 0.32914 0.75235 0.0
C1538 C 0.07034 0.32105 0.54073 0.0
C1539 C 0.08139 0.33451 0.64154 0.0
C1540 C 0.07665 0.32234 0.4818 0.0
C1541 C 0.09368 0.33979 0.45852 0.0
C1542 C 0.08141 0.33726 0.57667 0.0
C1543 C 0.10199 0.35642 0.49311 0.0
C1544 C 0.09303 0.35062 0.6774 0.0
C1545 C 0.07972 0.31322 0.71891 0.0
N1546 N 0.09623 0.35462 0.55118 0.0
N1547 N 0.07444 0.3163 0.66431 0.0
H1548 H 0.61295 0.7213 0.47622 0.0
H1549 H 0.64736 0.72354 0.75301 0.0
H1550 H 0.67651 0.74307 0.41162 0.0
H1551 H 0.70633 0.77084 0.68293 0.0
H1552 H 0.63704 0.71153 0.65325 0.0
H1553 H 0.62438 0.72103 0.57603 0.0
C1554 C 0.62931 0.72581 0.48292 0.0
C1555 C 0.64398 0.73286 0.43562 0.0
C1556 C 0.65237 0.72439 0.65955 0.0
C1557 C 0.65725 0.73227 0.55043 0.0
C1558 C 0.65845 0.73099 0.71664 0.0
C1559 C 0.67765 0.74826 0.72604 0.0
C1560 C 0.66536 0.73544 0.61137 0.0
C1561 C 0.69142 0.75743 0.67748 0.0
C1562 C 0.63585 0.72548 0.54014 0.0
C1563 C 0.66493 0.73837 0.4472 0.0
N1564 N 0.6848 0.75115 0.62188 0.0
N1565 N 0.67107 0.73837 0.50357 0.0
H1566 H 0.27007 0.96888 0.43117 0.0
H1567 H 0.22922 0.95988 0.70431 0.0
H1568 H 0.27012 0.91728 0.48616 0.0
H1569 H 0.27185 0.94236 0.76715 0.0
H1570 H 0.24394 0.96348 0.60502 0.0
H1571 H 0.27289 0.9785 0.53416 0.0
C1572 C 0.27179 0.96008 0.46475 0.0
C1573 C 0.26971 0.9422 0.45031 0.0
C1574 C 0.25038 0.95914 0.64058 0.0
C1575 C 0.27173 0.95254 0.56822 0.0
C1576 C 0.24183 0.95693 0.69738 0.0
C1577 C 0.24868 0.94993 0.74372 0.0
C1578 C 0.26579 0.95418 0.62968 0.0
C1579 C 0.2653 0.94665 0.73192 0.0
C1580 C 0.27294 0.96537 0.52359 0.0
C1581 C 0.27174 0.93121 0.49553 0.0
N1582 N 0.2729 0.94824 0.67571 0.0
N1583 N 0.27208 0.93629 0.55289 0.0
H1584 H 0.7023 0.94173 0.93658 0.0
H1585 H 0.64988 0.9117 0.2515 0.0
H1586 H 0.63582 0.90375 0.97451 0.0
H1587 H 0.7163 0.93757 0.2114 0.0
H1588 H 0.64516 0.92232 0.15467 0.0
H1589 H 0.70708 0.95365 0.0371 0.0
C1590 C 0.68854 0.93648 0.96546 0.0
C1591 C 0.66874 0.9213 0.94801 0.0
C1592 C 0.6609 0.92624 0.16765 0.0
C1593 C 0.67421 0.9345 0.06324 0.0
C1594 C 0.66363 0.92022 0.22297 0.0
C1595 C 0.68341 0.92326 0.23856 0.0
C1596 C 0.67801 0.93509 0.12742 0.0
C1597 C 0.70073 0.93466 0.20063 0.0
C1598 C 0.69132 0.94322 0.02294 0.0
C1599 C 0.65141 0.91523 0.9866 0.0
N1600 N 0.69753 0.9397 0.14594 0.0
N1601 N 0.65465 0.92143 0.0432 0.0
H1602 H 0.08382 0.74357 0.26383 0.0
H1603 H 0.09845 0.74635 0.97209 0.0
H1604 H 0.04627 0.76902 0.22316 0.0
H1605 H 0.04696 0.7566 0.95502 0.0
H1606 H 0.0875 0.73582 0.07389 0.0
H1607 H 0.07673 0.72905 0.1668 0.0
C1608 C 0.07358 0.74565 0.23484 0.0
C1609 C 0.06614 0.758 0.25074 0.0
C1610 C 0.07792 0.73955 0.04783 0.0
C1611 C 0.0591 0.74253 0.13792 0.0
C1612 C 0.08421 0.74549 0.98907 0.0
C1613 C 0.07394 0.75284 0.95576 0.0
C1614 C 0.0613 0.74112 0.07313 0.0
C1615 C 0.05562 0.75147 0.97991 0.0
C1616 C 0.06983 0.73763 0.17881 0.0
C1617 C 0.0526 0.75986 0.21227 0.0
N1618 N 0.05023 0.74629 0.03755 0.0
N1619 N 0.05003 0.75271 0.15692 0.0
H1620 H 0.3105 0.36191 0.23615 0.0
H1621 H 0.28716 0.31286 0.9283 0.0
H1622 H 0.27391 0.3001 0.20801 0.0
H1623 H 0.3132 0.37412 0.95674 0.0
H1624 H 0.29654 0.30915 0.02828 0.0
H1625 H 0.32538 0.36686 0.13629 0.0
C1626 C 0.3062 0.34929 0.20958 0.0
C1627 C 0.29055 0.33061 0.22966 0.0
C1628 C 0.30084 0.32354 0.01214 0.0
C1629 C 0.30707 0.33623 0.11484 0.0
C1630 C 0.29558 0.3257 0.95489 0.0
C1631 C 0.29879 0.34372 0.93496 0.0
C1632 C 0.30912 0.33946 0.04984 0.0
C1633 C 0.31009 0.3599 0.97074 0.0
C1634 C 0.31463 0.35214 0.15244 0.0
C1635 C 0.28574 0.31476 0.19391 0.0
N1636 N 0.31429 0.35728 0.02721 0.0
N1637 N 0.2935 0.31798 0.13745 0.0
H1638 H 0.92015 0.7218 0.30093 0.0
H1639 H 0.93474 0.65363 0.52969 0.0
H1640 H 0.91063 0.66642 0.24718 0.0
H1641 H 0.89495 0.67764 0.55734 0.0
H1642 H 0.94239 0.66756 0.42817 0.0
H1643 H 0.93008 0.71623 0.39873 0.0
C1644 C 0.92116 0.70894 0.30874 0.0
C1645 C 0.91429 0.6944 0.26646 0.0
C1646 C 0.93269 0.67035 0.45791 0.0
C1647 C 0.92559 0.68804 0.37746 0.0
C1648 C 0.92826 0.66241 0.51546 0.0
C1649 C 0.91506 0.66533 0.55361 0.0
C1650 C 0.92413 0.68156 0.43928 0.0
C1651 C 0.90647 0.67623 0.53216 0.0
C1652 C 0.92666 0.70572 0.36457 0.0
C1653 C 0.91562 0.67785 0.27908 0.0
N1654 N 0.91127 0.68403 0.47681 0.0
N1655 N 0.92076 0.67492 0.33398 0.0
H1656 H 0.39329 0.28054 0.54393 0.0
H1657 H 0.36005 0.28621 0.27453 0.0
H1658 H 0.33199 0.26459 0.61533 0.0
H1659 H 0.302 0.23703 0.34192 0.0
H1660 H 0.36968 0.29771 0.37515 0.0
H1661 H 0.38206 0.28401 0.44644 0.0
C1662 C 0.37753 0.27806 0.53927 0.0
C1663 C 0.3632 0.27143 0.58731 0.0
C1664 C 0.35456 0.2847 0.36786 0.0
C1665 C 0.3502 0.27548 0.47552 0.0
C1666 C 0.34886 0.27833 0.3104 0.0
C1667 C 0.33028 0.26059 0.30015 0.0
C1668 C 0.34173 0.27302 0.41534 0.0
C1669 C 0.31644 0.25082 0.3481 0.0
C1670 C 0.37113 0.28017 0.4835 0.0
C1671 C 0.3431 0.26872 0.57863 0.0
N1672 N 0.32269 0.2569 0.40405 0.0
N1673 N 0.3369 0.27013 0.5234 0.0
H1674 H 0.79136 0.08572 0.58046 0.0
H1675 H 0.73493 0.06492 0.29591 0.0
H1676 H 0.72385 0.0579 0.59752 0.0
H1677 H 0.78363 0.0511 0.31776 0.0
H1678 H 0.72763 0.06051 0.40248 0.0
H1679 H 0.78798 0.07337 0.48222 0.0
C1680 C 0.77573 0.07628 0.5647 0.0
C1681 C 0.75787 0.07183 0.59905 0.0
C1682 C 0.73928 0.05763 0.38364 0.0
C1683 C 0.75381 0.05881 0.48328 0.0
C1684 C 0.7434 0.06005 0.32282 0.0
C1685 C 0.76011 0.05862 0.29822 0.0
C1686 C 0.75238 0.05432 0.4198 0.0
C1687 C 0.77068 0.0524 0.33495 0.0
C1688 C 0.77379 0.06941 0.50786 0.0
C1689 C 0.73803 0.06122 0.57298 0.0
N1690 N 0.76714 0.05114 0.39429 0.0
N1691 N 0.73649 0.05524 0.5161 0.0
H1692 H 0.96696 0.44087 0.35207 0.0
H1693 H 0.06309 0.43608 0.21305 0.0
H1694 H 0.96 0.38563 0.30742 0.0
H1695 H 0.05248 0.48325 0.17509 0.0
H1696 H 0.02789 0.41781 0.26056 0.0
H1697 H 1.00179 0.45753 0.30344 0.0
C1698 C 0.97288 0.43222 0.33293 0.0
C1699 C 0.96052 0.41181 0.33374 0.0
C1700 C 0.03327 0.43208 0.24125 0.0
C1701 C 1.00032 0.43083 0.27784 0.0
C1702 C 0.05327 0.44249 0.21407 0.0
C1703 C 0.0607 0.4612 0.18994 0.0
C1704 C 0.0209 0.44069 0.24564 0.0
C1705 C 0.04736 0.46883 0.19268 0.0
C1706 C 0.99265 0.44175 0.30463 0.0
C1707 C 0.96898 0.40139 0.30764 0.0
N1708 N 0.02823 0.45867 0.22079 0.0
N1709 N 0.98843 0.41102 0.28083 0.0
H1710 H 0.62231 0.58044 0.12272 0.0
H1711 H 0.61177 0.59637 0.40629 0.0
H1712 H 0.61529 0.62893 0.07439 0.0
H1713 H 0.56371 0.60467 0.33104 0.0
H1714 H 0.63221 0.60806 0.31366 0.0
H1715 H 0.62105 0.5875 0.22636 0.0
C1716 C 0.62105 0.59292 0.13388 0.0
C1717 C 0.61788 0.60361 0.09014 0.0
C1718 C 0.61756 0.60799 0.31812 0.0
C1719 C 0.61621 0.61166 0.20883 0.0
C1720 C 0.60603 0.60159 0.37112 0.0
C1721 C 0.58596 0.5994 0.37587 0.0
C1722 C 0.60879 0.61197 0.26946 0.0
C1723 C 0.57913 0.60617 0.329 0.0
C1724 C 0.62037 0.59699 0.19322 0.0
C1725 C 0.61663 0.61976 0.10731 0.0
N1726 N 0.5903 0.61171 0.27691 0.0
N1727 N 0.61491 0.62287 0.16551 0.0
H1728 H 0.41824 0.04839 0.04863 0.0
H1729 H 0.37071 0.99497 0.33988 0.0
H1730 H 0.37779 0.98605 0.06673 0.0
H1731 H 0.40092 0.0572 0.31643 0.0
H1732 H 0.3609 0.99114 0.23653 0.0
H1733 H 0.4011 0.05207 0.13633 0.0
C1734 C 0.40524 0.03551 0.0698 0.0
C1735 C 0.40002 0.01688 0.05199 0.0
C1736 C 0.36902 0.00565 0.25429 0.0
C1737 C 0.38075 0.02088 0.15315 0.0
C1738 C 0.37441 0.0078 0.31375 0.0
C1739 C 0.38745 0.02647 0.33581 0.0
C1740 C 0.37718 0.02231 0.21711 0.0
C1741 C 0.39152 0.04255 0.30021 0.0
C1742 C 0.39547 0.03757 0.12017 0.0
C1743 C 0.38285 1.0007 0.0805 0.0
N1744 N 0.38713 0.04018 0.24195 0.0
N1745 N 0.37426 1.00303 0.13069 0.0
H1746 H 0.63262 0.01853 0.87734 0.0
H1747 H 0.63009 0.03437 0.587 0.0
H1748 H 0.57492 0.96564 0.83685 0.0
H1749 H 0.61186 0.97469 0.5584 0.0
H1750 H 0.63116 0.02911 0.69252 0.0
H1751 H 0.64556 0.02009 0.77643 0.0
C1752 C 0.62303 0.00679 0.84785 0.0
C1753 C 0.60251 0.99213 0.86498 0.0
C1754 C 0.62722 0.01718 0.66319 0.0
C1755 C 0.61694 0.9942 0.74934 0.0
C1756 C 0.6265 0.02016 0.60283 0.0
C1757 C 0.61978 0.00459 0.56421 0.0
C1758 C 0.62095 0.99847 0.6853 0.0
C1759 C 0.61568 0.98662 0.58742 0.0
C1760 C 0.63034 0.00783 0.79018 0.0
C1761 C 0.59078 0.97724 0.8252 0.0
N1762 N 0.61562 0.9838 0.64683 0.0
N1763 N 0.59795 0.97892 0.76844 0.0
H1764 H 0.05175 0.62976 0.7026 0.0
H1765 H 0.9596 0.53027 0.8425 0.0
H1766 H 0.04622 0.57439 0.66922 0.0
H1767 H 0.94918 0.57711 0.79712 0.0
H1768 H 0.99447 0.54845 0.79426 0.0
H1769 H 0.01642 0.6125 0.74932 0.0
C1770 C 0.04301 0.61398 0.70447 0.0
C1771 C 0.05192 0.60348 0.68185 0.0
C1772 C 0.98456 0.55476 0.79518 0.0
C1773 C 0.01192 0.5838 0.73666 0.0
C1774 C 0.96476 0.54451 0.82326 0.0
C1775 C 0.95144 0.55218 0.82381 0.0
C1776 C 0.99127 0.57296 0.76834 0.0
C1777 C 0.95893 0.57064 0.79758 0.0
C1778 C 0.02292 0.60419 0.73121 0.0
C1779 C 0.03992 0.58306 0.68563 0.0
N1780 N 0.9784 0.58045 0.77101 0.0
N1781 N 0.02066 0.5739 0.71326 0.0
H1782 H 0.43067 0.3802 0.6181 0.0
H1783 H 0.3744 0.40149 0.85707 0.0
H1784 H 0.3894 0.40203 0.58215 0.0
H1785 H 0.39956 0.36414 0.88543 0.0
H1786 H 0.36846 0.3917 0.75428 0.0
H1787 H 0.40991 0.3642 0.70805 0.0
C1788 C 0.41665 0.38085 0.62771 0.0
C1789 C 0.41206 0.39286 0.59384 0.0
C1790 C 0.37451 0.38498 0.78336 0.0
C1791 C 0.38875 0.37536 0.69751 0.0
C1792 C 0.37759 0.3904 0.84252 0.0
C1793 C 0.38818 0.38414 0.87895 0.0
C1794 C 0.38252 0.37363 0.76099 0.0
C1795 C 0.39191 0.36973 0.85789 0.0
C1796 C 0.40484 0.37186 0.67945 0.0
C1797 C 0.39374 0.39325 0.60822 0.0
N1798 N 0.3899 0.36553 0.79966 0.0
N1799 N 0.38314 0.3852 0.65992 0.0
loop_
_geom_bond_atom_site_label_1
_geom_bond_atom_site_label_2
_geom_bond_distance
_geom_bond_site_symmetry_2
_ccdc_geom_bond_type
O0 Cd1 2.223 . S
O0 C8 1.315 . S
Cd1 O0 2.223 . S
Cd1 O4 2.297 . S
Cd1 O5 2.439 . S
Cd1 O11 2.240 . S
Cd2 O3 2.240 . S
Cd2 O10 2.223 . S
Cd2 O12 2.297 . S
Cd2 O13 2.439 . S
O3 Cd2 2.240 . S
O3 C8 1.279 . S
O4 Cd1 2.297 . S
O4 C6 1.247 . S
O5 Cd1 2.439 . S
O5 C6 1.208 . S
C6 O4 1.247 . S
C6 O5 1.208 . S
C7 O12 1.247 . S
C7 O13 1.208 . S
C8 O0 1.315 . S
C8 O3 1.279 . S
C9 O10 1.315 . S
C9 O11 1.279 . S
O10 Cd2 2.223 . S
O10 C9 1.315 . S
O11 Cd1 2.240 . S
O11 C9 1.279 . S
O12 Cd2 2.297 . S
O12 C7 1.247 . S
O13 Cd2 2.439 . S
O13 C7 1.208 . S
O14 Cd15 2.223 . S
O14 C22 1.315 . S
Cd15 O14 2.223 . S
Cd15 O18 2.297 . S
Cd15 O19 2.439 . S
Cd15 O25 2.240 . S
Cd16 O17 2.240 . S
Cd16 O24 2.223 . S
Cd16 O26 2.297 . S
Cd16 O27 2.439 . S
O17 Cd16 2.240 . S
O17 C22 1.279 . S
O18 Cd15 2.297 . S
O18 C20 1.247 . S
O19 Cd15 2.439 . S
O19 C20 1.208 . S
C20 O18 1.247 . S
C20 O19 1.208 . S
C21 O26 1.247 . S
C21 O27 1.208 . S
C22 O14 1.315 . S
C22 O17 1.279 . S
C23 O24 1.315 . S
C23 O25 1.279 . S
O24 Cd16 2.223 . S
O24 C23 1.315 . S
O25 Cd15 2.240 . S
O25 C23 1.279 . S
O26 Cd16 2.297 . S
O26 C21 1.247 . S
O27 Cd16 2.439 . S
O27 C21 1.208 . S
O28 Cd29 2.223 . S
O28 C36 1.315 . S
Cd29 O28 2.223 . S
Cd29 O32 2.297 . S
Cd29 O33 2.439 . S
Cd29 O39 2.240 . S
Cd30 O31 2.240 . S
Cd30 O38 2.223 . S
Cd30 O40 2.297 . S
Cd30 O41 2.439 . S
O31 Cd30 2.240 . S
O31 C36 1.279 . S
O32 Cd29 2.297 . S
O32 C34 1.247 . S
O33 Cd29 2.439 . S
O33 C34 1.208 . S
C34 O32 1.247 . S
C34 O33 1.208 . S
C35 O40 1.247 . S
C35 O41 1.208 . S
C36 O28 1.315 . S
C36 O31 1.279 . S
C37 O38 1.315 . S
C37 O39 1.279 . S
O38 Cd30 2.223 . S
O38 C37 1.315 . S
O39 Cd29 2.240 . S
O39 C37 1.279 . S
O40 Cd30 2.297 . S
O40 C35 1.247 . S
O41 Cd30 2.439 . S
O41 C35 1.208 . S
O42 Cd43 2.223 . S
O42 C50 1.315 . S
Cd43 O42 2.223 . S
Cd43 O46 2.297 . S
Cd43 O47 2.439 . S
Cd43 O53 2.240 . S
Cd44 O45 2.240 . S
Cd44 O52 2.223 . S
Cd44 O54 2.297 . S
Cd44 O55 2.439 . S
O45 Cd44 2.240 . S
O45 C50 1.279 . S
O46 Cd43 2.297 . S
O46 C48 1.247 . S
O47 Cd43 2.439 . S
O47 C48 1.208 . S
C48 O46 1.247 . S
C48 O47 1.208 . S
C49 O54 1.247 . S
C49 O55 1.208 . S
C50 O42 1.315 . S
C50 O45 1.279 . S
C51 O52 1.315 . S
C51 O53 1.279 . S
O52 Cd44 2.223 . S
O52 C51 1.315 . S
O53 Cd43 2.240 . S
O53 C51 1.279 . S
O54 Cd44 2.297 . S
O54 C49 1.247 . S
O55 Cd44 2.439 . S
O55 C49 1.208 . S
O56 Cd57 2.223 . S
O56 C64 1.315 . S
Cd57 O56 2.223 . S
Cd57 O60 2.297 . S
Cd57 O61 2.439 . S
Cd57 O67 2.240 . S
Cd58 O59 2.240 . S
Cd58 O66 2.223 . S
Cd58 O68 2.297 . S
Cd58 O69 2.439 . S
O59 Cd58 2.240 . S
O59 C64 1.279 . S
O60 Cd57 2.297 . S
O60 C62 1.247 . S
O61 Cd57 2.439 . S
O61 C62 1.208 . S
C62 O60 1.247 . S
C62 O61 1.208 . S
C63 O68 1.247 . S
C63 O69 1.208 . S
C64 O56 1.315 . S
C64 O59 1.279 . S
C65 O66 1.315 . S
C65 O67 1.279 . S
O66 Cd58 2.223 . S
O66 C65 1.315 . S
O67 Cd57 2.240 . S
O67 C65 1.279 . S
O68 Cd58 2.297 . S
O68 C63 1.247 . S
O69 Cd58 2.439 . S
O69 C63 1.208 . S
O70 Cd71 2.223 . S
O70 C78 1.315 . S
Cd71 O70 2.223 . S
Cd71 O74 2.297 . S
Cd71 O75 2.439 . S
Cd71 O81 2.240 . S
Cd72 O73 2.240 . S
Cd72 O80 2.223 . S
Cd72 O82 2.297 . S
Cd72 O83 2.439 . S
O73 Cd72 2.240 . S
O73 C78 1.279 . S
O74 Cd71 2.297 . S
O74 C76 1.247 . S
O75 Cd71 2.439 . S
O75 C76 1.208 . S
C76 O74 1.247 . S
C76 O75 1.208 . S
C77 O82 1.247 . S
C77 O83 1.208 . S
C78 O70 1.315 . S
C78 O73 1.279 . S
C79 O80 1.315 . S
C79 O81 1.279 . S
O80 Cd72 2.223 . S
O80 C79 1.315 . S
O81 Cd71 2.240 . S
O81 C79 1.279 . S
O82 Cd72 2.297 . S
O82 C77 1.247 . S
O83 Cd72 2.439 . S
O83 C77 1.208 . S
O84 Cd85 2.223 . S
O84 C92 1.315 . S
Cd85 O84 2.223 . S
Cd85 O88 2.297 . S
Cd85 O89 2.439 . S
Cd85 O95 2.240 . S
Cd86 O87 2.240 . S
Cd86 O94 2.223 . S
Cd86 O96 2.297 . S
Cd86 O97 2.439 . S
O87 Cd86 2.240 . S
O87 C92 1.279 . S
O88 Cd85 2.297 . S
O88 C90 1.247 . S
O89 Cd85 2.439 . S
O89 C90 1.208 . S
C90 O88 1.247 . S
C90 O89 1.208 . S
C91 O96 1.247 . S
C91 O97 1.208 . S
C92 O84 1.315 . S
C92 O87 1.279 . S
C93 O94 1.315 . S
C93 O95 1.279 . S
O94 Cd86 2.223 . S
O94 C93 1.315 . S
O95 Cd85 2.240 . S
O95 C93 1.279 . S
O96 Cd86 2.297 . S
O96 C91 1.247 . S
O97 Cd86 2.439 . S
O97 C91 1.208 . S
O98 Cd99 2.223 . S
O98 C106 1.315 . S
Cd99 O98 2.223 . S
Cd99 O102 2.297 . S
Cd99 O103 2.439 . S
Cd99 O109 2.240 . S
Cd100 O101 2.240 . S
Cd100 O108 2.223 . S
Cd100 O110 2.297 . S
Cd100 O111 2.439 . S
O101 Cd100 2.240 . S
O101 C106 1.279 . S
O102 Cd99 2.297 . S
O102 C104 1.247 . S
O103 Cd99 2.439 . S
O103 C104 1.208 . S
C104 O102 1.247 . S
C104 O103 1.208 . S
C105 O110 1.247 . S
C105 O111 1.208 . S
C106 O98 1.315 . S
C106 O101 1.279 . S
C107 O108 1.315 . S
C107 O109 1.279 . S
O108 Cd100 2.223 . S
O108 C107 1.315 . S
O109 Cd99 2.240 . S
O109 C107 1.279 . S
O110 Cd100 2.297 . S
O110 C105 1.247 . S
O111 Cd100 2.439 . S
O111 C105 1.208 . S
O112 Cd113 2.223 . S
O112 C120 1.315 . S
Cd113 O112 2.223 . S
Cd113 O116 2.297 . S
Cd113 O117 2.439 . S
Cd113 O123 2.240 . S
Cd114 O115 2.240 . S
Cd114 O122 2.223 . S
Cd114 O124 2.297 . S
Cd114 O125 2.439 . S
O115 Cd114 2.240 . S
O115 C120 1.279 . S
O116 Cd113 2.297 . S
O116 C118 1.247 . S
O117 Cd113 2.439 . S
O117 C118 1.208 . S
C118 O116 1.247 . S
C118 O117 1.208 . S
C119 O124 1.247 . S
C119 O125 1.208 . S
C120 O112 1.315 . S
C120 O115 1.279 . S
C121 O122 1.315 . S
C121 O123 1.279 . S
O122 Cd114 2.223 . S
O122 C121 1.315 . S
O123 Cd113 2.240 . S
O123 C121 1.279 . S
O124 Cd114 2.297 . S
O124 C119 1.247 . S
O125 Cd114 2.439 . S
O125 C119 1.208 . S
O126 Cd127 2.223 . S
O126 C134 1.315 . S
Cd127 O126 2.223 . S
Cd127 O130 2.297 . S
Cd127 O131 2.439 . S
Cd127 O137 2.240 . S
Cd128 O129 2.240 . S
Cd128 O136 2.223 . S
Cd128 O138 2.297 . S
Cd128 O139 2.439 . S
O129 Cd128 2.240 . S
O129 C134 1.279 . S
O130 Cd127 2.297 . S
O130 C132 1.247 . S
O131 Cd127 2.439 . S
O131 C132 1.208 . S
C132 O130 1.247 . S
C132 O131 1.208 . S
C133 O138 1.247 . S
C133 O139 1.208 . S
C134 O126 1.315 . S
C134 O129 1.279 . S
C135 O136 1.315 . S
C135 O137 1.279 . S
O136 Cd128 2.223 . S
O136 C135 1.315 . S
O137 Cd127 2.240 . S
O137 C135 1.279 . S
O138 Cd128 2.297 . S
O138 C133 1.247 . S
O139 Cd128 2.439 . S
O139 C133 1.208 . S
O140 Cd141 2.223 . S
O140 C148 1.315 . S
Cd141 O140 2.223 . S
Cd141 O144 2.297 . S
Cd141 O145 2.439 . S
Cd141 O151 2.240 . S
Cd142 O143 2.240 . S
Cd142 O150 2.223 . S
Cd142 O152 2.297 . S
Cd142 O153 2.439 . S
O143 Cd142 2.240 . S
O143 C148 1.279 . S
O144 Cd141 2.297 . S
O144 C146 1.247 . S
O145 Cd141 2.439 . S
O145 C146 1.208 . S
C146 O144 1.247 . S
C146 O145 1.208 . S
C147 O152 1.247 . S
C147 O153 1.208 . S
C148 O140 1.315 . S
C148 O143 1.279 . S
C149 O150 1.315 . S
C149 O151 1.279 . S
O150 Cd142 2.223 . S
O150 C149 1.315 . S
O151 Cd141 2.240 . S
O151 C149 1.279 . S
O152 Cd142 2.297 . S
O152 C147 1.247 . S
O153 Cd142 2.439 . S
O153 C147 1.208 . S
O154 Cd155 2.223 . S
O154 C162 1.315 . S
Cd155 O154 2.223 . S
Cd155 O158 2.297 . S
Cd155 O159 2.439 . S
Cd155 O165 2.240 . S
Cd156 O157 2.240 . S
Cd156 O164 2.223 . S
Cd156 O166 2.297 . S
Cd156 O167 2.439 . S
O157 Cd156 2.240 . S
O157 C162 1.279 . S
O158 Cd155 2.297 . S
O158 C160 1.247 . S
O159 Cd155 2.439 . S
O159 C160 1.208 . S
C160 O158 1.247 . S
C160 O159 1.208 . S
C161 O166 1.247 . S
C161 O167 1.208 . S
C162 O154 1.315 . S
C162 O157 1.279 . S
C163 O164 1.315 . S
C163 O165 1.279 . S
O164 Cd156 2.223 . S
O164 C163 1.315 . S
O165 Cd155 2.240 . S
O165 C163 1.279 . S
O166 Cd156 2.297 . S
O166 C161 1.247 . S
O167 Cd156 2.439 . S
O167 C161 1.208 . S
O168 Cd169 2.223 . S
O168 C176 1.315 . S
Cd169 O168 2.223 . S
Cd169 O172 2.297 . S
Cd169 O173 2.439 . S
Cd169 O179 2.240 . S
Cd170 O171 2.240 . S
Cd170 O178 2.223 . S
Cd170 O180 2.297 . S
Cd170 O181 2.439 . S
O171 Cd170 2.240 . S
O171 C176 1.279 . S
O172 Cd169 2.297 . S
O172 C174 1.247 . S
O173 Cd169 2.439 . S
O173 C174 1.208 . S
C174 O172 1.247 . S
C174 O173 1.208 . S
C175 O180 1.247 . S
C175 O181 1.208 . S
C176 O168 1.315 . S
C176 O171 1.279 . S
C177 O178 1.315 . S
C177 O179 1.279 . S
O178 Cd170 2.223 . S
O178 C177 1.315 . S
O179 Cd169 2.240 . S
O179 C177 1.279 . S
O180 Cd170 2.297 . S
O180 C175 1.247 . S
O181 Cd170 2.439 . S
O181 C175 1.208 . S
O182 Cd183 2.223 . S
O182 C190 1.315 . S
Cd183 O182 2.223 . S
Cd183 O186 2.297 . S
Cd183 O187 2.439 . S
Cd183 O193 2.240 . S
Cd184 O185 2.240 . S
Cd184 O192 2.223 . S
Cd184 O194 2.297 . S
Cd184 O195 2.439 . S
O185 Cd184 2.240 . S
O185 C190 1.279 . S
O186 Cd183 2.297 . S
O186 C188 1.247 . S
O187 Cd183 2.439 . S
O187 C188 1.208 . S
C188 O186 1.247 . S
C188 O187 1.208 . S
C189 O194 1.247 . S
C189 O195 1.208 . S
C190 O182 1.315 . S
C190 O185 1.279 . S
C191 O192 1.315 . S
C191 O193 1.279 . S
O192 Cd184 2.223 . S
O192 C191 1.315 . S
O193 Cd183 2.240 . S
O193 C191 1.279 . S
O194 Cd184 2.297 . S
O194 C189 1.247 . S
O195 Cd184 2.439 . S
O195 C189 1.208 . S
O196 Cd197 2.223 . S
O196 C204 1.315 1_545 S
Cd197 O196 2.223 . S
Cd197 O200 2.297 . S
Cd197 O201 2.439 . S
Cd197 O207 2.240 . S
Cd198 O199 2.240 . S
Cd198 O206 2.223 . S
Cd198 O208 2.297 . S
Cd198 O209 2.439 . S
O199 Cd198 2.240 . S
O199 C204 1.279 . S
O200 Cd197 2.297 . S
O200 C202 1.247 . S
O201 Cd197 2.439 . S
O201 C202 1.208 . S
C202 O200 1.247 . S
C202 O201 1.208 . S
C203 O208 1.247 . S
C203 O209 1.208 . S
C204 O196 1.315 1_565 S
C204 O199 1.279 . S
C205 O206 1.315 1_545 S
C205 O207 1.279 . S
O206 Cd198 2.223 . S
O206 C205 1.315 1_565 S
O207 Cd197 2.240 . S
O207 C205 1.279 . S
O208 Cd198 2.297 . S
O208 C203 1.247 . S
O209 Cd198 2.439 . S
O209 C203 1.208 . S
O210 Cd211 2.223 . S
O210 C218 1.315 . S
Cd211 O210 2.223 . S
Cd211 O214 2.297 . S
Cd211 O215 2.439 . S
Cd211 O221 2.240 . S
Cd212 O213 2.240 . S
Cd212 O220 2.223 . S
Cd212 O222 2.297 . S
Cd212 O223 2.439 . S
O213 Cd212 2.240 . S
O213 C218 1.279 . S
O214 Cd211 2.297 . S
O214 C216 1.247 . S
O215 Cd211 2.439 . S
O215 C216 1.208 . S
C216 O214 1.247 . S
C216 O215 1.208 . S
C217 O222 1.247 . S
C217 O223 1.208 . S
C218 O210 1.315 . S
C218 O213 1.279 . S
C219 O220 1.315 . S
C219 O221 1.279 . S
O220 Cd212 2.223 . S
O220 C219 1.315 . S
O221 Cd211 2.240 . S
O221 C219 1.279 . S
O222 Cd212 2.297 . S
O222 C217 1.247 . S
O223 Cd212 2.439 . S
O223 C217 1.208 . S
O224 Cd225 2.223 . S
O224 C232 1.315 . S
Cd225 O224 2.223 . S
Cd225 O228 2.297 . S
Cd225 O229 2.439 . S
Cd225 O235 2.240 . S
Cd226 O227 2.240 . S
Cd226 O234 2.223 . S
Cd226 O236 2.297 . S
Cd226 O237 2.439 . S
O227 Cd226 2.240 . S
O227 C232 1.279 . S
O228 Cd225 2.297 . S
O228 C230 1.247 . S
O229 Cd225 2.439 . S
O229 C230 1.208 . S
C230 O228 1.247 . S
C230 O229 1.208 . S
C231 O236 1.247 . S
C231 O237 1.208 . S
C232 O224 1.315 . S
C232 O227 1.279 . S
C233 O234 1.315 . S
C233 O235 1.279 . S
O234 Cd226 2.223 . S
O234 C233 1.315 . S
O235 Cd225 2.240 . S
O235 C233 1.279 . S
O236 Cd226 2.297 . S
O236 C231 1.247 . S
O237 Cd226 2.439 . S
O237 C231 1.208 . S
O238 Cd239 2.223 . S
O238 C246 1.315 . S
Cd239 O238 2.223 . S
Cd239 O242 2.297 . S
Cd239 O243 2.439 . S
Cd239 O249 2.240 . S
Cd240 O241 2.240 . S
Cd240 O248 2.223 . S
Cd240 O250 2.297 . S
Cd240 O251 2.439 . S
O241 Cd240 2.240 . S
O241 C246 1.279 . S
O242 Cd239 2.297 . S
O242 C244 1.247 . S
O243 Cd239 2.439 . S
O243 C244 1.208 . S
C244 O242 1.247 . S
C244 O243 1.208 . S
C245 O250 1.247 . S
C245 O251 1.208 . S
C246 O238 1.315 . S
C246 O241 1.279 . S
C247 O248 1.315 . S
C247 O249 1.279 . S
O248 Cd240 2.223 . S
O248 C247 1.315 . S
O249 Cd239 2.240 . S
O249 C247 1.279 . S
O250 Cd240 2.297 . S
O250 C245 1.247 . S
O251 Cd240 2.439 . S
O251 C245 1.208 . S
O252 Cd253 2.223 . S
O252 C260 1.315 . S
Cd253 O252 2.223 . S
Cd253 O256 2.297 . S
Cd253 O257 2.439 . S
Cd253 O263 2.240 . S
Cd254 O255 2.240 . S
Cd254 O262 2.223 . S
Cd254 O264 2.297 . S
Cd254 O265 2.439 . S
O255 Cd254 2.240 . S
O255 C260 1.279 . S
O256 Cd253 2.297 . S
O256 C258 1.247 . S
O257 Cd253 2.439 . S
O257 C258 1.208 . S
C258 O256 1.247 . S
C258 O257 1.208 . S
C259 O264 1.247 . S
C259 O265 1.208 . S
C260 O252 1.315 . S
C260 O255 1.279 . S
C261 O262 1.315 . S
C261 O263 1.279 . S
O262 Cd254 2.223 . S
O262 C261 1.315 . S
O263 Cd253 2.240 . S
O263 C261 1.279 . S
O264 Cd254 2.297 . S
O264 C259 1.247 . S
O265 Cd254 2.439 . S
O265 C259 1.208 . S
O266 Cd267 2.223 . S
O266 C274 1.315 . S
Cd267 O266 2.223 . S
Cd267 O270 2.297 . S
Cd267 O271 2.439 . S
Cd267 O277 2.240 . S
Cd268 O269 2.240 . S
Cd268 O276 2.223 . S
Cd268 O278 2.297 . S
Cd268 O279 2.439 . S
O269 Cd268 2.240 . S
O269 C274 1.279 . S
O270 Cd267 2.297 . S
O270 C272 1.247 . S
O271 Cd267 2.439 . S
O271 C272 1.208 . S
C272 O270 1.247 . S
C272 O271 1.208 . S
C273 O278 1.247 . S
C273 O279 1.208 . S
C274 O266 1.315 . S
C274 O269 1.279 . S
C275 O276 1.315 . S
C275 O277 1.279 . S
O276 Cd268 2.223 . S
O276 C275 1.315 . S
O277 Cd267 2.240 . S
O277 C275 1.279 . S
O278 Cd268 2.297 . S
O278 C273 1.247 . S
O279 Cd268 2.439 . S
O279 C273 1.208 . S
O280 Cd281 2.223 . S
O280 C288 1.315 . S
Cd281 O280 2.223 . S
Cd281 O284 2.297 . S
Cd281 O285 2.439 . S
Cd281 O291 2.240 . S
Cd282 O283 2.240 . S
Cd282 O290 2.223 . S
Cd282 O292 2.297 . S
Cd282 O293 2.439 . S
O283 Cd282 2.240 . S
O283 C288 1.279 . S
O284 Cd281 2.297 . S
O284 C286 1.247 . S
O285 Cd281 2.439 . S
O285 C286 1.208 . S
C286 O284 1.247 . S
C286 O285 1.208 . S
C287 O292 1.247 . S
C287 O293 1.208 . S
C288 O280 1.315 . S
C288 O283 1.279 . S
C289 O290 1.315 . S
C289 O291 1.279 . S
O290 Cd282 2.223 . S
O290 C289 1.315 . S
O291 Cd281 2.240 . S
O291 C289 1.279 . S
O292 Cd282 2.297 . S
O292 C287 1.247 . S
O293 Cd282 2.439 . S
O293 C287 1.208 . S
O294 Cd295 2.223 . S
O294 C302 1.315 1_545 S
Cd295 O294 2.223 . S
Cd295 O298 2.297 . S
Cd295 O299 2.439 1_556 S
Cd295 O305 2.240 . S
Cd296 O297 2.240 1_554 S
Cd296 O304 2.223 1_554 S
Cd296 O306 2.297 . S
Cd296 O307 2.439 . S
O297 Cd296 2.240 1_556 S
O297 C302 1.279 . S
O298 Cd295 2.297 . S
O298 C300 1.247 1_556 S
O299 Cd295 2.439 1_554 S
O299 C300 1.208 . S
C300 O298 1.247 1_554 S
C300 O299 1.208 . S
C301 O306 1.247 . S
C301 O307 1.208 . S
C302 O294 1.315 1_565 S
C302 O297 1.279 . S
C303 O304 1.315 1_545 S
C303 O305 1.279 . S
O304 Cd296 2.223 1_556 S
O304 C303 1.315 1_565 S
O305 Cd295 2.240 . S
O305 C303 1.279 . S
O306 Cd296 2.297 . S
O306 C301 1.247 . S
O307 Cd296 2.439 . S
O307 C301 1.208 . S
O308 Cd309 2.223 . S
O308 C316 1.315 . S
Cd309 O308 2.223 . S
Cd309 O312 2.297 . S
Cd309 O313 2.439 . S
Cd309 O319 2.240 . S
Cd310 O311 2.240 . S
Cd310 O318 2.223 . S
Cd310 O320 2.297 1_556 S
Cd310 O321 2.439 1_556 S
O311 Cd310 2.240 . S
O311 C316 1.279 . S
O312 Cd309 2.297 . S
O312 C314 1.247 . S
O313 Cd309 2.439 . S
O313 C314 1.208 . S
C314 O312 1.247 . S
C314 O313 1.208 . S
C315 O320 1.247 . S
C315 O321 1.208 . S
C316 O308 1.315 . S
C316 O311 1.279 . S
C317 O318 1.315 . S
C317 O319 1.279 . S
O318 Cd310 2.223 . S
O318 C317 1.315 . S
O319 Cd309 2.240 . S
O319 C317 1.279 . S
O320 Cd310 2.297 1_554 S
O320 C315 1.247 . S
O321 Cd310 2.439 1_554 S
O321 C315 1.208 . S
O322 Cd323 2.223 . S
O322 C330 1.315 . S
Cd323 O322 2.223 . S
Cd323 O326 2.297 . S
Cd323 O327 2.439 1_556 S
Cd323 O333 2.240 . S
Cd324 O325 2.240 . S
Cd324 O332 2.223 . S
Cd324 O334 2.297 1_556 S
Cd324 O335 2.439 1_556 S
O325 Cd324 2.240 . S
O325 C330 1.279 . S
O326 Cd323 2.297 . S
O326 C328 1.247 1_556 S
O327 Cd323 2.439 1_554 S
O327 C328 1.208 . S
C328 O326 1.247 1_554 S
C328 O327 1.208 . S
C329 O334 1.247 . S
C329 O335 1.208 . S
C330 O322 1.315 . S
C330 O325 1.279 . S
C331 O332 1.315 . S
C331 O333 1.279 . S
O332 Cd324 2.223 . S
O332 C331 1.315 . S
O333 Cd323 2.240 . S
O333 C331 1.279 . S
O334 Cd324 2.297 1_554 S
O334 C329 1.247 . S
O335 Cd324 2.439 1_554 S
O335 C329 1.208 . S
O336 Cd337 2.223 . S
O336 C344 1.315 . S
Cd337 O336 2.223 . S
Cd337 O340 2.297 . S
Cd337 O341 2.439 . S
Cd337 O347 2.240 . S
Cd338 O339 2.240 . S
Cd338 O346 2.223 . S
Cd338 O348 2.297 . S
Cd338 O349 2.439 . S
O339 Cd338 2.240 . S
O339 C344 1.279 . S
O340 Cd337 2.297 . S
O340 C342 1.247 . S
O341 Cd337 2.439 . S
O341 C342 1.208 . S
C342 O340 1.247 . S
C342 O341 1.208 . S
C343 O348 1.247 . S
C343 O349 1.208 . S
C344 O336 1.315 . S
C344 O339 1.279 . S
C345 O346 1.315 . S
C345 O347 1.279 . S
O346 Cd338 2.223 . S
O346 C345 1.315 . S
O347 Cd337 2.240 . S
O347 C345 1.279 . S
O348 Cd338 2.297 . S
O348 C343 1.247 . S
O349 Cd338 2.439 . S
O349 C343 1.208 . S
O350 Cd351 2.223 . S
O350 C358 1.315 . S
Cd351 O350 2.223 . S
Cd351 O354 2.297 . S
Cd351 O355 2.439 . S
Cd351 O361 2.240 . S
Cd352 O353 2.240 . S
Cd352 O360 2.223 . S
Cd352 O362 2.297 . S
Cd352 O363 2.439 . S
O353 Cd352 2.240 . S
O353 C358 1.279 . S
O354 Cd351 2.297 . S
O354 C356 1.247 . S
O355 Cd351 2.439 . S
O355 C356 1.208 . S
C356 O354 1.247 . S
C356 O355 1.208 . S
C357 O362 1.247 . S
C357 O363 1.208 . S
C358 O350 1.315 . S
C358 O353 1.279 . S
C359 O360 1.315 . S
C359 O361 1.279 . S
O360 Cd352 2.223 . S
O360 C359 1.315 . S
O361 Cd351 2.240 . S
O361 C359 1.279 . S
O362 Cd352 2.297 . S
O362 C357 1.247 . S
O363 Cd352 2.439 . S
O363 C357 1.208 . S
O364 Cd365 2.223 . S
O364 C372 1.315 . S
Cd365 O364 2.223 . S
Cd365 O368 2.297 . S
Cd365 O369 2.439 . S
Cd365 O375 2.240 . S
Cd366 O367 2.240 . S
Cd366 O374 2.223 . S
Cd366 O376 2.297 . S
Cd366 O377 2.439 . S
O367 Cd366 2.240 . S
O367 C372 1.279 . S
O368 Cd365 2.297 . S
O368 C370 1.247 . S
O369 Cd365 2.439 . S
O369 C370 1.208 . S
C370 O368 1.247 . S
C370 O369 1.208 . S
C371 O376 1.247 . S
C371 O377 1.208 . S
C372 O364 1.315 . S
C372 O367 1.279 . S
C373 O374 1.315 . S
C373 O375 1.279 . S
O374 Cd366 2.223 . S
O374 C373 1.315 . S
O375 Cd365 2.240 . S
O375 C373 1.279 . S
O376 Cd366 2.297 . S
O376 C371 1.247 . S
O377 Cd366 2.439 . S
O377 C371 1.208 . S
O378 Cd379 2.223 . S
O378 C386 1.315 1_565 S
Cd379 O378 2.223 . S
Cd379 O382 2.297 . S
Cd379 O383 2.439 1_554 S
Cd379 O389 2.240 . S
Cd380 O381 2.240 1_556 S
Cd380 O388 2.223 1_556 S
Cd380 O390 2.297 . S
Cd380 O391 2.439 . S
O381 Cd380 2.240 1_554 S
O381 C386 1.279 . S
O382 Cd379 2.297 . S
O382 C384 1.247 1_554 S
O383 Cd379 2.439 1_556 S
O383 C384 1.208 . S
C384 O382 1.247 1_556 S
C384 O383 1.208 . S
C385 O390 1.247 . S
C385 O391 1.208 . S
C386 O378 1.315 1_545 S
C386 O381 1.279 . S
C387 O388 1.315 1_565 S
C387 O389 1.279 . S
O388 Cd380 2.223 1_554 S
O388 C387 1.315 1_545 S
O389 Cd379 2.240 . S
O389 C387 1.279 . S
O390 Cd380 2.297 . S
O390 C385 1.247 . S
O391 Cd380 2.439 . S
O391 C385 1.208 . S
O392 Cd393 2.223 . S
O392 C400 1.315 . S
Cd393 O392 2.223 . S
Cd393 O396 2.297 . S
Cd393 O397 2.439 . S
Cd393 O403 2.240 . S
Cd394 O395 2.240 . S
Cd394 O402 2.223 . S
Cd394 O404 2.297 1_554 S
Cd394 O405 2.439 1_554 S
O395 Cd394 2.240 . S
O395 C400 1.279 . S
O396 Cd393 2.297 . S
O396 C398 1.247 . S
O397 Cd393 2.439 . S
O397 C398 1.208 . S
C398 O396 1.247 . S
C398 O397 1.208 . S
C399 O404 1.247 . S
C399 O405 1.208 . S
C400 O392 1.315 . S
C400 O395 1.279 . S
C401 O402 1.315 . S
C401 O403 1.279 . S
O402 Cd394 2.223 . S
O402 C401 1.315 . S
O403 Cd393 2.240 . S
O403 C401 1.279 . S
O404 Cd394 2.297 1_556 S
O404 C399 1.247 . S
O405 Cd394 2.439 1_556 S
O405 C399 1.208 . S
O406 Cd407 2.223 . S
O406 C414 1.315 . S
Cd407 O406 2.223 . S
Cd407 O410 2.297 . S
Cd407 O411 2.439 1_554 S
Cd407 O417 2.240 . S
Cd408 O409 2.240 . S
Cd408 O416 2.223 . S
Cd408 O418 2.297 1_554 S
Cd408 O419 2.439 1_554 S
O409 Cd408 2.240 . S
O409 C414 1.279 . S
O410 Cd407 2.297 . S
O410 C412 1.247 1_554 S
O411 Cd407 2.439 1_556 S
O411 C412 1.208 . S
C412 O410 1.247 1_556 S
C412 O411 1.208 . S
C413 O418 1.247 . S
C413 O419 1.208 . S
C414 O406 1.315 . S
C414 O409 1.279 . S
C415 O416 1.315 . S
C415 O417 1.279 . S
O416 Cd408 2.223 . S
O416 C415 1.315 . S
O417 Cd407 2.240 . S
O417 C415 1.279 . S
O418 Cd408 2.297 1_556 S
O418 C413 1.247 . S
O419 Cd408 2.439 1_556 S
O419 C413 1.208 . S
O420 Cd421 2.223 . S
O420 C428 1.315 . S
Cd421 O420 2.223 . S
Cd421 O424 2.297 . S
Cd421 O425 2.439 . S
Cd421 O431 2.240 . S
Cd422 O423 2.240 . S
Cd422 O430 2.223 . S
Cd422 O432 2.297 . S
Cd422 O433 2.439 . S
O423 Cd422 2.240 . S
O423 C428 1.279 . S
O424 Cd421 2.297 . S
O424 C426 1.247 . S
O425 Cd421 2.439 . S
O425 C426 1.208 . S
C426 O424 1.247 . S
C426 O425 1.208 . S
C427 O432 1.247 . S
C427 O433 1.208 . S
C428 O420 1.315 . S
C428 O423 1.279 . S
C429 O430 1.315 . S
C429 O431 1.279 . S
O430 Cd422 2.223 . S
O430 C429 1.315 . S
O431 Cd421 2.240 . S
O431 C429 1.279 . S
O432 Cd422 2.297 . S
O432 C427 1.247 . S
O433 Cd422 2.439 . S
O433 C427 1.208 . S
O434 Cd435 2.223 . S
O434 C442 1.315 . S
Cd435 O434 2.223 . S
Cd435 O438 2.297 . S
Cd435 O439 2.439 . S
Cd435 O445 2.240 . S
Cd436 O437 2.240 . S
Cd436 O444 2.223 . S
Cd436 O446 2.297 . S
Cd436 O447 2.439 . S
O437 Cd436 2.240 . S
O437 C442 1.279 . S
O438 Cd435 2.297 . S
O438 C440 1.247 . S
O439 Cd435 2.439 . S
O439 C440 1.208 . S
C440 O438 1.247 . S
C440 O439 1.208 . S
C441 O446 1.247 . S
C441 O447 1.208 . S
C442 O434 1.315 . S
C442 O437 1.279 . S
C443 O444 1.315 . S
C443 O445 1.279 . S
O444 Cd436 2.223 . S
O444 C443 1.315 . S
O445 Cd435 2.240 . S
O445 C443 1.279 . S
O446 Cd436 2.297 . S
O446 C441 1.247 . S
O447 Cd436 2.439 . S
O447 C441 1.208 . S
O448 Cd449 2.223 . S
O448 C456 1.315 1_565 S
Cd449 O448 2.223 . S
Cd449 O452 2.297 . S
Cd449 O453 2.439 . S
Cd449 O459 2.240 . S
Cd450 O451 2.240 . S
Cd450 O458 2.223 . S
Cd450 O460 2.297 . S
Cd450 O461 2.439 . S
O451 Cd450 2.240 . S
O451 C456 1.279 . S
O452 Cd449 2.297 . S
O452 C454 1.247 . S
O453 Cd449 2.439 . S
O453 C454 1.208 . S
C454 O452 1.247 . S
C454 O453 1.208 . S
C455 O460 1.247 . S
C455 O461 1.208 . S
C456 O448 1.315 1_545 S
C456 O451 1.279 . S
C457 O458 1.315 1_565 S
C457 O459 1.279 . S
O458 Cd450 2.223 . S
O458 C457 1.315 1_545 S
O459 Cd449 2.240 . S
O459 C457 1.279 . S
O460 Cd450 2.297 . S
O460 C455 1.247 . S
O461 Cd450 2.439 . S
O461 C455 1.208 . S
O462 Cd463 2.223 . S
O462 C470 1.315 . S
Cd463 O462 2.223 . S
Cd463 O466 2.297 . S
Cd463 O467 2.439 . S
Cd463 O473 2.240 . S
Cd464 O465 2.240 . S
Cd464 O472 2.223 . S
Cd464 O474 2.297 . S
Cd464 O475 2.439 . S
O465 Cd464 2.240 . S
O465 C470 1.279 . S
O466 Cd463 2.297 . S
O466 C468 1.247 . S
O467 Cd463 2.439 . S
O467 C468 1.208 . S
C468 O466 1.247 . S
C468 O467 1.208 . S
C469 O474 1.247 . S
C469 O475 1.208 . S
C470 O462 1.315 . S
C470 O465 1.279 . S
C471 O472 1.315 . S
C471 O473 1.279 . S
O472 Cd464 2.223 . S
O472 C471 1.315 . S
O473 Cd463 2.240 . S
O473 C471 1.279 . S
O474 Cd464 2.297 . S
O474 C469 1.247 . S
O475 Cd464 2.439 . S
O475 C469 1.208 . S
O476 Cd477 2.223 . S
O476 C484 1.315 . S
Cd477 O476 2.223 . S
Cd477 O480 2.297 . S
Cd477 O481 2.439 . S
Cd477 O487 2.240 . S
Cd478 O479 2.240 . S
Cd478 O486 2.223 . S
Cd478 O488 2.297 . S
Cd478 O489 2.439 . S
O479 Cd478 2.240 . S
O479 C484 1.279 . S
O480 Cd477 2.297 . S
O480 C482 1.247 . S
O481 Cd477 2.439 . S
O481 C482 1.208 . S
C482 O480 1.247 . S
C482 O481 1.208 . S
C483 O488 1.247 . S
C483 O489 1.208 . S
C484 O476 1.315 . S
C484 O479 1.279 . S
C485 O486 1.315 . S
C485 O487 1.279 . S
O486 Cd478 2.223 . S
O486 C485 1.315 . S
O487 Cd477 2.240 . S
O487 C485 1.279 . S
O488 Cd478 2.297 . S
O488 C483 1.247 . S
O489 Cd478 2.439 . S
O489 C483 1.208 . S
O490 Cd491 2.223 . S
O490 C498 1.315 . S
Cd491 O490 2.223 . S
Cd491 O494 2.297 . S
Cd491 O495 2.439 . S
Cd491 O501 2.240 . S
Cd492 O493 2.240 . S
Cd492 O500 2.223 . S
Cd492 O502 2.297 . S
Cd492 O503 2.439 . S
O493 Cd492 2.240 . S
O493 C498 1.279 . S
O494 Cd491 2.297 . S
O494 C496 1.247 . S
O495 Cd491 2.439 . S
O495 C496 1.208 . S
C496 O494 1.247 . S
C496 O495 1.208 . S
C497 O502 1.247 . S
C497 O503 1.208 . S
C498 O490 1.315 . S
C498 O493 1.279 . S
C499 O500 1.315 . S
C499 O501 1.279 . S
O500 Cd492 2.223 . S
O500 C499 1.315 . S
O501 Cd491 2.240 . S
O501 C499 1.279 . S
O502 Cd492 2.297 . S
O502 C497 1.247 . S
O503 Cd492 2.439 . S
O503 C497 1.208 . S
H504 C510 0.930 . S
H505 C514 0.930 . S
H506 C519 0.929 . S
H507 C517 0.929 . S
H508 C512 0.929 . S
H509 C518 0.929 1_545 S
C510 H504 0.930 . S
C510 C511 1.367 . S
C510 C518 1.378 . S
C511 C510 1.367 . S
C511 C519 1.433 . S
C512 H508 0.929 . S
C512 C514 1.378 . S
C512 C516 1.350 . S
C513 C516 1.463 . S
C513 C518 1.350 1_545 S
C513 N521 1.427 1_545 S
C514 H505 0.930 . S
C514 C512 1.378 . S
C514 C515 1.367 . S
C515 C514 1.367 . S
C515 C517 1.433 . S
C516 C512 1.350 . S
C516 C513 1.463 . S
C516 N520 1.427 . S
C517 H507 0.929 . S
C517 C515 1.433 . S
C517 N520 1.384 . S
C518 H509 0.929 1_565 S
C518 C510 1.378 . S
C518 C513 1.350 1_565 S
C519 H506 0.929 . S
C519 C511 1.433 . S
C519 N521 1.384 . S
N520 C516 1.427 . S
N520 C517 1.384 . S
N521 C513 1.427 1_565 S
N521 C519 1.384 . S
H522 C528 0.930 . S
H523 C532 0.930 . S
H524 C537 0.929 . S
H525 C535 0.929 . S
H526 C530 0.929 . S
H527 C536 0.929 . S
C528 H522 0.930 . S
C528 C529 1.367 . S
C528 C536 1.378 . S
C529 C528 1.367 . S
C529 C537 1.433 . S
C530 H526 0.929 . S
C530 C532 1.378 . S
C530 C534 1.350 . S
C531 C534 1.463 . S
C531 C536 1.350 1_455 S
C531 N539 1.427 1_455 S
C532 H523 0.930 . S
C532 C530 1.378 . S
C532 C533 1.367 . S
C533 C532 1.367 . S
C533 C535 1.433 . S
C534 C530 1.350 . S
C534 C531 1.463 . S
C534 N538 1.427 . S
C535 H525 0.929 . S
C535 C533 1.433 . S
C535 N538 1.384 . S
C536 H527 0.929 . S
C536 C528 1.378 . S
C536 C531 1.350 1_655 S
C537 H524 0.929 . S
C537 C529 1.433 . S
C537 N539 1.384 . S
N538 C534 1.427 . S
N538 C535 1.384 . S
N539 C531 1.427 1_655 S
N539 C537 1.384 . S
H540 C546 0.930 . S
H541 C550 0.930 . S
H542 C555 0.929 . S
H543 C553 0.929 . S
H544 C548 0.929 . S
H545 C554 0.929 . S
C546 H540 0.930 . S
C546 C547 1.367 . S
C546 C554 1.378 . S
C547 C546 1.367 . S
C547 C555 1.433 . S
C548 H544 0.929 . S
C548 C550 1.378 . S
C548 C552 1.350 . S
C549 C552 1.463 . S
C549 C554 1.350 . S
C549 N557 1.427 . S
C550 H541 0.930 . S
C550 C548 1.378 . S
C550 C551 1.367 . S
C551 C550 1.367 . S
C551 C553 1.433 . S
C552 C548 1.350 . S
C552 C549 1.463 . S
C552 N556 1.427 . S
C553 H543 0.929 . S
C553 C551 1.433 . S
C553 N556 1.384 . S
C554 H545 0.929 . S
C554 C546 1.378 . S
C554 C549 1.350 . S
C555 H542 0.929 . S
C555 C547 1.433 . S
C555 N557 1.384 . S
N556 C552 1.427 . S
N556 C553 1.384 . S
N557 C549 1.427 . S
N557 C555 1.384 . S
H558 C564 0.930 . S
H559 C568 0.930 . S
H560 C573 0.929 . S
H561 C571 0.929 . S
H562 C566 0.929 1_565 S
H563 C572 0.929 . S
C564 H558 0.930 . S
C564 C565 1.367 . S
C564 C572 1.378 . S
C565 C564 1.367 . S
C565 C573 1.433 . S
C566 H562 0.929 1_545 S
C566 C568 1.378 . S
C566 C570 1.350 1_545 S
C567 C570 1.463 . S
C567 C572 1.350 . S
C567 N575 1.427 . S
C568 H559 0.930 . S
C568 C566 1.378 . S
C568 C569 1.367 . S
C569 C568 1.367 . S
C569 C571 1.433 . S
C570 C566 1.350 1_565 S
C570 C567 1.463 . S
C570 N574 1.427 1_565 S
C571 H561 0.929 . S
C571 C569 1.433 . S
C571 N574 1.384 . S
C572 H563 0.929 . S
C572 C564 1.378 . S
C572 C567 1.350 . S
C573 H560 0.929 . S
C573 C565 1.433 . S
C573 N575 1.384 . S
N574 C570 1.427 1_545 S
N574 C571 1.384 . S
N575 C567 1.427 . S
N575 C573 1.384 . S
H576 C582 0.930 . S
H577 C586 0.930 . S
H578 C591 0.929 . S
H579 C589 0.929 . S
H580 C584 0.929 . S
H581 C590 0.929 . S
C582 H576 0.930 . S
C582 C583 1.367 . S
C582 C590 1.378 . S
C583 C582 1.367 . S
C583 C591 1.433 . S
C584 H580 0.929 . S
C584 C586 1.378 . S
C584 C588 1.350 . S
C585 C588 1.463 . S
C585 C590 1.350 1_655 S
C585 N593 1.427 1_655 S
C586 H577 0.930 . S
C586 C584 1.378 . S
C586 C587 1.367 . S
C587 C586 1.367 . S
C587 C589 1.433 . S
C588 C584 1.350 . S
C588 C585 1.463 . S
C588 N592 1.427 . S
C589 H579 0.929 . S
C589 C587 1.433 . S
C589 N592 1.384 . S
C590 H581 0.929 . S
C590 C582 1.378 . S
C590 C585 1.350 1_455 S
C591 H578 0.929 . S
C591 C583 1.433 . S
C591 N593 1.384 . S
N592 C588 1.427 . S
N592 C589 1.384 . S
N593 C585 1.427 1_455 S
N593 C591 1.384 . S
H594 C600 0.930 . S
H595 C604 0.930 . S
H596 C609 0.929 . S
H597 C607 0.929 . S
H598 C602 0.929 . S
H599 C608 0.929 . S
C600 H594 0.930 . S
C600 C601 1.367 . S
C600 C608 1.378 . S
C601 C600 1.367 . S
C601 C609 1.433 . S
C602 H598 0.929 . S
C602 C604 1.378 . S
C602 C606 1.350 . S
C603 C606 1.463 . S
C603 C608 1.350 . S
C603 N611 1.427 . S
C604 H595 0.930 . S
C604 C602 1.378 . S
C604 C605 1.367 . S
C605 C604 1.367 . S
C605 C607 1.433 . S
C606 C602 1.350 . S
C606 C603 1.463 . S
C606 N610 1.427 . S
C607 H597 0.929 . S
C607 C605 1.433 . S
C607 N610 1.384 . S
C608 H599 0.929 . S
C608 C600 1.378 . S
C608 C603 1.350 . S
C609 H596 0.929 . S
C609 C601 1.433 . S
C609 N611 1.384 . S
N610 C606 1.427 . S
N610 C607 1.384 . S
N611 C603 1.427 . S
N611 C609 1.384 . S
H612 C618 0.930 . S
H613 C622 0.930 . S
H614 C627 0.929 . S
H615 C625 0.929 . S
H616 C620 0.929 . S
H617 C626 0.929 . S
C618 H612 0.930 . S
C618 C619 1.367 . S
C618 C626 1.378 . S
C619 C618 1.367 . S
C619 C627 1.433 . S
C620 H616 0.929 . S
C620 C622 1.378 . S
C620 C624 1.350 . S
C621 C624 1.463 . S
C621 C626 1.350 . S
C621 N629 1.427 . S
C622 H613 0.930 . S
C622 C620 1.378 . S
C622 C623 1.367 . S
C623 C622 1.367 . S
C623 C625 1.433 . S
C624 C620 1.350 . S
C624 C621 1.463 . S
C624 N628 1.427 . S
C625 H615 0.929 . S
C625 C623 1.433 . S
C625 N628 1.384 . S
C626 H617 0.929 . S
C626 C618 1.378 . S
C626 C621 1.350 . S
C627 H614 0.929 . S
C627 C619 1.433 . S
C627 N629 1.384 . S
N628 C624 1.427 . S
N628 C625 1.384 . S
N629 C621 1.427 . S
N629 C627 1.384 . S
H630 C636 0.930 . S
H631 C640 0.930 . S
H632 C645 0.929 . S
H633 C643 0.929 . S
H634 C638 0.929 . S
H635 C644 0.929 . S
C636 H630 0.930 . S
C636 C637 1.367 . S
C636 C644 1.378 . S
C637 C636 1.367 . S
C637 C645 1.433 . S
C638 H634 0.929 . S
C638 C640 1.378 . S
C638 C642 1.350 . S
C639 C642 1.463 . S
C639 C644 1.350 . S
C639 N647 1.427 . S
C640 H631 0.930 . S
C640 C638 1.378 . S
C640 C641 1.367 . S
C641 C640 1.367 . S
C641 C643 1.433 . S
C642 C638 1.350 . S
C642 C639 1.463 . S
C642 N646 1.427 . S
C643 H633 0.929 . S
C643 C641 1.433 . S
C643 N646 1.384 . S
C644 H635 0.929 . S
C644 C636 1.378 . S
C644 C639 1.350 . S
C645 H632 0.929 . S
C645 C637 1.433 . S
C645 N647 1.384 . S
N646 C642 1.427 . S
N646 C643 1.384 . S
N647 C639 1.427 . S
N647 C645 1.384 . S
H648 C654 0.930 . S
H649 C658 0.930 . S
H650 C663 0.929 . S
H651 C661 0.929 . S
H652 C656 0.929 . S
H653 C662 0.929 . S
C654 H648 0.930 . S
C654 C655 1.367 . S
C654 C662 1.378 . S
C655 C654 1.367 . S
C655 C663 1.433 . S
C656 H652 0.929 . S
C656 C658 1.378 . S
C656 C660 1.350 . S
C657 C660 1.463 . S
C657 C662 1.350 . S
C657 N665 1.427 . S
C658 H649 0.930 . S
C658 C656 1.378 . S
C658 C659 1.367 . S
C659 C658 1.367 . S
C659 C661 1.433 . S
C660 C656 1.350 . S
C660 C657 1.463 . S
C660 N664 1.427 . S
C661 H651 0.929 . S
C661 C659 1.433 . S
C661 N664 1.384 . S
C662 H653 0.929 . S
C662 C654 1.378 . S
C662 C657 1.350 . S
C663 H650 0.929 . S
C663 C655 1.433 . S
C663 N665 1.384 . S
N664 C660 1.427 . S
N664 C661 1.384 . S
N665 C657 1.427 . S
N665 C663 1.384 . S
H666 C672 0.930 . S
H667 C676 0.930 . S
H668 C681 0.929 . S
H669 C679 0.929 . S
H670 C674 0.929 . S
H671 C680 0.929 . S
C672 H666 0.930 . S
C672 C673 1.367 . S
C672 C680 1.378 . S
C673 C672 1.367 . S
C673 C681 1.433 . S
C674 H670 0.929 . S
C674 C676 1.378 . S
C674 C678 1.350 . S
C675 C678 1.463 . S
C675 C680 1.350 . S
C675 N683 1.427 . S
C676 H667 0.930 . S
C676 C674 1.378 . S
C676 C677 1.367 . S
C677 C676 1.367 . S
C677 C679 1.433 . S
C678 C674 1.350 . S
C678 C675 1.463 . S
C678 N682 1.427 . S
C679 H669 0.929 . S
C679 C677 1.433 . S
C679 N682 1.384 . S
C680 H671 0.929 . S
C680 C672 1.378 . S
C680 C675 1.350 . S
C681 H668 0.929 . S
C681 C673 1.433 . S
C681 N683 1.384 . S
N682 C678 1.427 . S
N682 C679 1.384 . S
N683 C675 1.427 . S
N683 C681 1.384 . S
H684 C690 0.930 . S
H685 C694 0.930 1_565 S
H686 C699 0.929 . S
H687 C697 0.929 . S
H688 C692 0.929 . S
H689 C698 0.929 . S
C690 H684 0.930 . S
C690 C691 1.367 . S
C690 C698 1.378 . S
C691 C690 1.367 . S
C691 C699 1.433 . S
C692 H688 0.929 . S
C692 C694 1.378 . S
C692 C696 1.350 . S
C693 C696 1.463 . S
C693 C698 1.350 . S
C693 N701 1.427 . S
C694 H685 0.930 1_545 S
C694 C692 1.378 . S
C694 C695 1.367 . S
C695 C694 1.367 . S
C695 C697 1.433 . S
C696 C692 1.350 . S
C696 C693 1.463 . S
C696 N700 1.427 . S
C697 H687 0.929 . S
C697 C695 1.433 . S
C697 N700 1.384 . S
C698 H689 0.929 . S
C698 C690 1.378 . S
C698 C693 1.350 . S
C699 H686 0.929 . S
C699 C691 1.433 . S
C699 N701 1.384 . S
N700 C696 1.427 . S
N700 C697 1.384 . S
N701 C693 1.427 . S
N701 C699 1.384 . S
H702 C708 0.930 . S
H703 C712 0.930 . S
H704 C717 0.929 . S
H705 C715 0.929 . S
H706 C710 0.929 . S
H707 C716 0.929 . S
C708 H702 0.930 . S
C708 C709 1.367 . S
C708 C716 1.378 . S
C709 C708 1.367 . S
C709 C717 1.433 . S
C710 H706 0.929 . S
C710 C712 1.378 1_554 S
C710 C714 1.350 . S
C711 C714 1.463 . S
C711 C716 1.350 . S
C711 N719 1.427 . S
C712 H703 0.930 . S
C712 C710 1.378 1_556 S
C712 C713 1.367 . S
C713 C712 1.367 . S
C713 C715 1.433 1_556 S
C714 C710 1.350 . S
C714 C711 1.463 . S
C714 N718 1.427 . S
C715 H705 0.929 . S
C715 C713 1.433 1_554 S
C715 N718 1.384 . S
C716 H707 0.929 . S
C716 C708 1.378 . S
C716 C711 1.350 . S
C717 H704 0.929 . S
C717 C709 1.433 . S
C717 N719 1.384 . S
N718 C714 1.427 . S
N718 C715 1.384 . S
N719 C711 1.427 . S
N719 C717 1.384 . S
H720 C726 0.930 . S
H721 C730 0.930 1_554 S
H722 C735 0.929 . S
H723 C733 0.929 . S
H724 C728 0.929 1_554 S
H725 C734 0.929 . S
C726 H720 0.930 . S
C726 C727 1.367 . S
C726 C734 1.378 . S
C727 C726 1.367 . S
C727 C735 1.433 . S
C728 H724 0.929 1_556 S
C728 C730 1.378 . S
C728 C732 1.350 . S
C729 C732 1.463 . S
C729 C734 1.350 . S
C729 N737 1.427 . S
C730 H721 0.930 1_556 S
C730 C728 1.378 . S
C730 C731 1.367 . S
C731 C730 1.367 . S
C731 C733 1.433 . S
C732 C728 1.350 . S
C732 C729 1.463 . S
C732 N736 1.427 . S
C733 H723 0.929 . S
C733 C731 1.433 . S
C733 N736 1.384 . S
C734 H725 0.929 . S
C734 C726 1.378 . S
C734 C729 1.350 . S
C735 H722 0.929 . S
C735 C727 1.433 . S
C735 N737 1.384 . S
N736 C732 1.427 . S
N736 C733 1.384 . S
N737 C729 1.427 . S
N737 C735 1.384 . S
H738 C744 0.930 . S
H739 C748 0.930 . S
H740 C753 0.929 1_554 S
H741 C751 0.929 . S
H742 C746 0.929 . S
H743 C752 0.929 . S
C744 H738 0.930 . S
C744 C745 1.367 . S
C744 C752 1.378 . S
C745 C744 1.367 . S
C745 C753 1.433 . S
C746 H742 0.929 . S
C746 C748 1.378 . S
C746 C750 1.350 . S
C747 C750 1.463 . S
C747 C752 1.350 . S
C747 N755 1.427 . S
C748 H739 0.930 . S
C748 C746 1.378 . S
C748 C749 1.367 . S
C749 C748 1.367 . S
C749 C751 1.433 . S
C750 C746 1.350 . S
C750 C747 1.463 . S
C750 N754 1.427 . S
C751 H741 0.929 . S
C751 C749 1.433 . S
C751 N754 1.384 . S
C752 H743 0.929 . S
C752 C744 1.378 . S
C752 C747 1.350 . S
C753 H740 0.929 1_556 S
C753 C745 1.433 . S
C753 N755 1.384 . S
N754 C750 1.427 . S
N754 C751 1.384 . S
N755 C747 1.427 . S
N755 C753 1.384 . S
H756 C762 0.930 1_554 S
H757 C766 0.930 . S
H758 C771 0.929 . S
H759 C769 0.929 . S
H760 C764 0.929 . S
H761 C770 0.941 . S
C762 H756 0.930 1_556 S
C762 C763 1.367 . S
C762 C770 1.374 1_556 S
C763 C762 1.367 . S
C763 C771 1.433 . S
C764 H760 0.929 . S
C764 C766 1.378 . S
C764 C768 1.350 . S
C765 C768 1.463 . S
C765 C770 1.341 1_556 S
C765 N773 1.427 . S
C766 H757 0.930 . S
C766 C764 1.378 . S
C766 C767 1.367 1_556 S
C767 C766 1.367 1_554 S
C767 C769 1.433 . S
C768 C764 1.350 . S
C768 C765 1.463 . S
C768 N772 1.427 1_556 S
C769 H759 0.929 . S
C769 C767 1.433 . S
C769 N772 1.384 . S
C770 H761 0.941 . S
C770 C762 1.374 1_554 S
C770 C765 1.341 1_554 S
C771 H758 0.929 . S
C771 C763 1.433 . S
C771 N773 1.384 . S
N772 C768 1.427 1_554 S
N772 C769 1.384 . S
N773 C765 1.427 . S
N773 C771 1.384 . S
H774 C780 0.930 . S
H775 C784 0.930 . S
H776 C789 0.929 . S
H777 C787 0.929 . S
H778 C782 0.929 . S
H779 C788 0.929 . S
C780 H774 0.930 . S
C780 C781 1.367 . S
C780 C788 1.378 . S
C781 C780 1.367 . S
C781 C789 1.433 . S
C782 H778 0.929 . S
C782 C784 1.378 . S
C782 C786 1.350 . S
C783 C786 1.463 . S
C783 C788 1.350 . S
C783 N791 1.427 . S
C784 H775 0.930 . S
C784 C782 1.378 . S
C784 C785 1.367 . S
C785 C784 1.367 . S
C785 C787 1.433 . S
C786 C782 1.350 . S
C786 C783 1.463 . S
C786 N790 1.427 . S
C787 H777 0.929 . S
C787 C785 1.433 . S
C787 N790 1.384 . S
C788 H779 0.929 . S
C788 C780 1.378 . S
C788 C783 1.350 . S
C789 H776 0.929 . S
C789 C781 1.433 . S
C789 N791 1.384 . S
N790 C786 1.427 . S
N790 C787 1.384 . S
N791 C783 1.427 . S
N791 C789 1.384 . S
H792 C798 0.930 . S
H793 C802 0.930 . S
H794 C807 0.929 . S
H795 C805 0.929 . S
H796 C800 0.929 . S
H797 C806 0.929 . S
C798 H792 0.930 . S
C798 C799 1.367 . S
C798 C806 1.378 . S
C799 C798 1.367 . S
C799 C807 1.433 . S
C800 H796 0.929 . S
C800 C802 1.378 . S
C800 C804 1.350 . S
C801 C804 1.463 . S
C801 C806 1.350 . S
C801 N809 1.427 . S
C802 H793 0.930 . S
C802 C800 1.378 . S
C802 C803 1.367 . S
C803 C802 1.367 . S
C803 C805 1.433 . S
C804 C800 1.350 . S
C804 C801 1.463 . S
C804 N808 1.427 . S
C805 H795 0.929 . S
C805 C803 1.433 . S
C805 N808 1.384 . S
C806 H797 0.929 . S
C806 C798 1.378 . S
C806 C801 1.350 . S
C807 H794 0.929 . S
C807 C799 1.433 . S
C807 N809 1.384 . S
N808 C804 1.427 . S
N808 C805 1.384 . S
N809 C801 1.427 . S
N809 C807 1.384 . S
H810 C816 0.930 . S
H811 C820 0.930 . S
H812 C825 0.929 . S
H813 C823 0.929 . S
H814 C818 0.929 . S
H815 C824 0.929 . S
C816 H810 0.930 . S
C816 C817 1.367 . S
C816 C824 1.378 . S
C817 C816 1.367 . S
C817 C825 1.433 . S
C818 H814 0.929 . S
C818 C820 1.378 . S
C818 C822 1.350 . S
C819 C822 1.463 . S
C819 C824 1.350 . S
C819 N827 1.427 . S
C820 H811 0.930 . S
C820 C818 1.378 . S
C820 C821 1.367 . S
C821 C820 1.367 . S
C821 C823 1.433 . S
C822 C818 1.350 . S
C822 C819 1.463 . S
C822 N826 1.427 . S
C823 H813 0.929 . S
C823 C821 1.433 . S
C823 N826 1.384 . S
C824 H815 0.929 . S
C824 C816 1.378 . S
C824 C819 1.350 . S
C825 H812 0.929 . S
C825 C817 1.433 . S
C825 N827 1.384 . S
N826 C822 1.427 . S
N826 C823 1.384 . S
N827 C819 1.427 . S
N827 C825 1.384 . S
H828 C834 0.930 . S
H829 C838 0.930 . S
H830 C843 0.929 . S
H831 C841 0.929 . S
H832 C836 0.929 . S
H833 C842 0.929 . S
C834 H828 0.930 . S
C834 C835 1.367 . S
C834 C842 1.378 . S
C835 C834 1.367 . S
C835 C843 1.433 . S
C836 H832 0.929 . S
C836 C838 1.378 1_556 S
C836 C840 1.350 . S
C837 C840 1.463 . S
C837 C842 1.350 . S
C837 N845 1.427 . S
C838 H829 0.930 . S
C838 C836 1.378 1_554 S
C838 C839 1.367 . S
C839 C838 1.367 . S
C839 C841 1.433 1_554 S
C840 C836 1.350 . S
C840 C837 1.463 . S
C840 N844 1.427 . S
C841 H831 0.929 . S
C841 C839 1.433 1_556 S
C841 N844 1.384 . S
C842 H833 0.929 . S
C842 C834 1.378 . S
C842 C837 1.350 . S
C843 H830 0.929 . S
C843 C835 1.433 . S
C843 N845 1.384 . S
N844 C840 1.427 . S
N844 C841 1.384 . S
N845 C837 1.427 . S
N845 C843 1.384 . S
H846 C852 0.930 . S
H847 C856 0.930 . S
H848 C861 0.929 . S
H849 C859 0.929 . S
H850 C854 0.929 . S
H851 C860 0.929 . S
C852 H846 0.930 . S
C852 C853 1.367 . S
C852 C860 1.378 . S
C853 C852 1.367 . S
C853 C861 1.433 . S
C854 H850 0.929 . S
C854 C856 1.378 1_556 S
C854 C858 1.350 . S
C855 C858 1.463 . S
C855 C860 1.350 . S
C855 N863 1.427 . S
C856 H847 0.930 . S
C856 C854 1.378 1_554 S
C856 C857 1.367 . S
C857 C856 1.367 . S
C857 C859 1.433 . S
C858 C854 1.350 . S
C858 C855 1.463 . S
C858 N862 1.427 1_556 S
C859 H849 0.929 . S
C859 C857 1.433 . S
C859 N862 1.384 . S
C860 H851 0.929 . S
C860 C852 1.378 . S
C860 C855 1.350 . S
C861 H848 0.929 . S
C861 C853 1.433 . S
C861 N863 1.384 . S
N862 C858 1.427 1_554 S
N862 C859 1.384 . S
N863 C855 1.427 . S
N863 C861 1.384 . S
H864 C870 0.930 . S
H865 C874 0.930 . S
H866 C879 0.929 . S
H867 C877 0.929 . S
H868 C872 0.929 . S
H869 C878 0.929 . S
C870 H864 0.930 . S
C870 C871 1.367 . S
C870 C878 1.378 . S
C871 C870 1.367 . S
C871 C879 1.433 . S
C872 H868 0.929 . S
C872 C874 1.378 . S
C872 C876 1.350 . S
C873 C876 1.463 . S
C873 C878 1.350 . S
C873 N881 1.427 . S
C874 H865 0.930 . S
C874 C872 1.378 . S
C874 C875 1.367 1_556 S
C875 C874 1.367 1_554 S
C875 C877 1.433 . S
C876 C872 1.350 . S
C876 C873 1.463 . S
C876 N880 1.427 1_556 S
C877 H867 0.929 . S
C877 C875 1.433 . S
C877 N880 1.384 . S
C878 H869 0.929 . S
C878 C870 1.378 . S
C878 C873 1.350 . S
C879 H866 0.929 . S
C879 C871 1.433 . S
C879 N881 1.384 . S
N880 C876 1.427 1_554 S
N880 C877 1.384 . S
N881 C873 1.427 . S
N881 C879 1.384 . S
H882 C888 0.930 . S
H883 C892 0.930 . S
H884 C897 0.929 . S
H885 C895 0.929 . S
H886 C890 0.929 . S
H887 C896 0.929 . S
C888 H882 0.930 . S
C888 C889 1.367 . S
C888 C896 1.378 . S
C889 C888 1.367 . S
C889 C897 1.433 . S
C890 H886 0.929 . S
C890 C892 1.378 . S
C890 C894 1.350 . S
C891 C894 1.463 . S
C891 C896 1.350 . S
C891 N899 1.427 . S
C892 H883 0.930 . S
C892 C890 1.378 . S
C892 C893 1.367 . S
C893 C892 1.367 . S
C893 C895 1.433 . S
C894 C890 1.350 . S
C894 C891 1.463 . S
C894 N898 1.427 . S
C895 H885 0.929 . S
C895 C893 1.433 . S
C895 N898 1.384 . S
C896 H887 0.929 . S
C896 C888 1.378 . S
C896 C891 1.350 . S
C897 H884 0.929 . S
C897 C889 1.433 . S
C897 N899 1.384 . S
N898 C894 1.427 . S
N898 C895 1.384 . S
N899 C891 1.427 . S
N899 C897 1.384 . S
H900 C906 0.930 . S
H901 C910 0.930 . S
H902 C915 0.929 . S
H903 C913 0.929 . S
H904 C908 0.929 . S
H905 C914 0.929 . S
C906 H900 0.930 . S
C906 C907 1.367 . S
C906 C914 1.378 . S
C907 C906 1.367 . S
C907 C915 1.433 . S
C908 H904 0.929 . S
C908 C910 1.378 . S
C908 C912 1.350 . S
C909 C912 1.463 . S
C909 C914 1.350 . S
C909 N917 1.427 . S
C910 H901 0.930 . S
C910 C908 1.378 . S
C910 C911 1.367 . S
C911 C910 1.367 . S
C911 C913 1.433 . S
C912 C908 1.350 . S
C912 C909 1.463 . S
C912 N916 1.427 . S
C913 H903 0.929 . S
C913 C911 1.433 . S
C913 N916 1.384 . S
C914 H905 0.929 . S
C914 C906 1.378 . S
C914 C909 1.350 . S
C915 H902 0.929 . S
C915 C907 1.433 . S
C915 N917 1.384 . S
N916 C912 1.427 . S
N916 C913 1.384 . S
N917 C909 1.427 . S
N917 C915 1.384 . S
H918 C924 0.930 . S
H919 C928 0.930 . S
H920 C933 0.929 . S
H921 C931 0.929 . S
H922 C926 0.929 . S
H923 C932 0.929 . S
C924 H918 0.930 . S
C924 C925 1.367 . S
C924 C932 1.378 . S
C925 C924 1.367 . S
C925 C933 1.433 . S
C926 H922 0.929 . S
C926 C928 1.378 . S
C926 C930 1.350 . S
C927 C930 1.463 . S
C927 C932 1.350 . S
C927 N935 1.427 . S
C928 H919 0.930 . S
C928 C926 1.378 . S
C928 C929 1.367 . S
C929 C928 1.367 . S
C929 C931 1.433 . S
C930 C926 1.350 . S
C930 C927 1.463 . S
C930 N934 1.427 . S
C931 H921 0.929 . S
C931 C929 1.433 . S
C931 N934 1.384 . S
C932 H923 0.929 . S
C932 C924 1.378 . S
C932 C927 1.350 . S
C933 H920 0.929 . S
C933 C925 1.433 . S
C933 N935 1.384 . S
N934 C930 1.427 . S
N934 C931 1.384 . S
N935 C927 1.427 . S
N935 C933 1.384 . S
H936 C942 0.927 1_556 S
H937 C946 0.930 . S
H938 C951 0.929 1_556 S
H939 C949 0.929 . S
H940 C944 0.929 . S
H941 C950 0.929 . S
C942 H936 0.927 1_554 S
C942 C943 1.364 1_554 S
C942 C950 1.384 . S
C943 C942 1.364 1_556 S
C943 C951 1.433 1_556 S
C944 H940 0.929 . S
C944 C946 1.378 . S
C944 C948 1.350 . S
C945 C948 1.463 . S
C945 C950 1.350 . S
C945 N953 1.427 . S
C946 H937 0.930 . S
C946 C944 1.378 . S
C946 C947 1.367 . S
C947 C946 1.367 . S
C947 C949 1.433 . S
C948 C944 1.350 . S
C948 C945 1.463 . S
C948 N952 1.427 . S
C949 H939 0.929 . S
C949 C947 1.433 . S
C949 N952 1.384 . S
C950 H941 0.929 . S
C950 C942 1.384 . S
C950 C945 1.350 . S
C951 H938 0.929 1_554 S
C951 C943 1.433 1_554 S
C951 N953 1.384 . S
N952 C948 1.427 . S
N952 C949 1.384 . S
N953 C945 1.427 . S
N953 C951 1.384 . S
H954 C960 0.930 . S
H955 C964 0.930 . S
H956 C969 0.929 . S
H957 C967 0.929 . S
H958 C962 0.929 . S
H959 C968 0.929 1_554 S
C960 H954 0.930 . S
C960 C961 1.367 . S
C960 C968 1.378 . S
C961 C960 1.367 . S
C961 C969 1.433 . S
C962 H958 0.929 . S
C962 C964 1.378 . S
C962 C966 1.350 . S
C963 C966 1.463 . S
C963 C968 1.350 1_554 S
C963 N971 1.427 . S
C964 H955 0.930 . S
C964 C962 1.378 . S
C964 C965 1.367 . S
C965 C964 1.367 . S
C965 C967 1.433 . S
C966 C962 1.350 . S
C966 C963 1.463 . S
C966 N970 1.427 . S
C967 H957 0.929 . S
C967 C965 1.433 . S
C967 N970 1.384 . S
C968 H959 0.929 1_556 S
C968 C960 1.378 . S
C968 C963 1.350 1_556 S
C969 H956 0.929 . S
C969 C961 1.433 . S
C969 N971 1.384 1_556 S
N970 C966 1.427 . S
N970 C967 1.384 . S
N971 C963 1.427 . S
N971 C969 1.384 1_554 S
H972 C978 0.930 . S
H973 C982 0.930 . S
H974 C987 0.929 . S
H975 C985 0.929 . S
H976 C980 0.929 . S
H977 C986 0.929 . S
C978 H972 0.930 . S
C978 C979 1.367 . S
C978 C986 1.378 . S
C979 C978 1.367 . S
C979 C987 1.433 1_556 S
C980 H976 0.929 . S
C980 C982 1.378 . S
C980 C984 1.350 . S
C981 C984 1.463 . S
C981 C986 1.350 1_554 S
C981 N989 1.427 . S
C982 H973 0.930 . S
C982 C980 1.378 . S
C982 C983 1.367 . S
C983 C982 1.367 . S
C983 C985 1.433 . S
C984 C980 1.350 . S
C984 C981 1.463 . S
C984 N988 1.427 . S
C985 H975 0.929 . S
C985 C983 1.433 . S
C985 N988 1.384 . S
C986 H977 0.929 . S
C986 C978 1.378 . S
C986 C981 1.350 1_556 S
C987 H974 0.929 . S
C987 C979 1.433 1_554 S
C987 N989 1.384 . S
N988 C984 1.427 . S
N988 C985 1.384 . S
N989 C981 1.427 . S
N989 C987 1.384 . S
H990 C996 0.930 . S
H991 C1000 0.930 . S
H992 C1005 0.929 . S
H993 C1003 0.929 . S
H994 C998 0.929 . S
H995 C1004 0.929 . S
C996 H990 0.930 . S
C996 C997 1.367 . S
C996 C1004 1.378 . S
C997 C996 1.367 . S
C997 C1005 1.433 . S
C998 H994 0.929 . S
C998 C1000 1.378 . S
C998 C1002 1.350 . S
C999 C1002 1.463 . S
C999 C1004 1.350 . S
C999 N1007 1.427 . S
C1000 H991 0.930 . S
C1000 C998 1.378 . S
C1000 C1001 1.367 . S
C1001 C1000 1.367 . S
C1001 C1003 1.433 . S
C1002 C998 1.350 . S
C1002 C999 1.463 . S
C1002 N1006 1.427 . S
C1003 H993 0.929 . S
C1003 C1001 1.433 . S
C1003 N1006 1.384 . S
C1004 H995 0.929 . S
C1004 C996 1.378 . S
C1004 C999 1.350 . S
C1005 H992 0.929 . S
C1005 C997 1.433 . S
C1005 N1007 1.384 . S
N1006 C1002 1.427 . S
N1006 C1003 1.384 . S
N1007 C999 1.427 . S
N1007 C1005 1.384 . S
H1008 C1014 0.930 . S
H1009 C1018 0.930 . S
H1010 C1023 0.929 . S
H1011 C1021 0.929 . S
H1012 C1016 0.929 . S
H1013 C1022 0.929 . S
C1014 H1008 0.930 . S
C1014 C1015 1.367 . S
C1014 C1022 1.378 . S
C1015 C1014 1.367 . S
C1015 C1023 1.433 . S
C1016 H1012 0.929 . S
C1016 C1018 1.378 . S
C1016 C1020 1.350 . S
C1017 C1020 1.463 . S
C1017 C1022 1.350 . S
C1017 N1025 1.427 . S
C1018 H1009 0.930 . S
C1018 C1016 1.378 . S
C1018 C1019 1.367 . S
C1019 C1018 1.367 . S
C1019 C1021 1.433 . S
C1020 C1016 1.350 . S
C1020 C1017 1.463 . S
C1020 N1024 1.427 . S
C1021 H1011 0.929 . S
C1021 C1019 1.433 . S
C1021 N1024 1.384 . S
C1022 H1013 0.929 . S
C1022 C1014 1.378 . S
C1022 C1017 1.350 . S
C1023 H1010 0.929 . S
C1023 C1015 1.433 . S
C1023 N1025 1.384 . S
N1024 C1020 1.427 . S
N1024 C1021 1.384 . S
N1025 C1017 1.427 . S
N1025 C1023 1.384 . S
H1026 C1032 0.930 . S
H1027 C1036 0.930 . S
H1028 C1041 0.929 . S
H1029 C1039 0.929 . S
H1030 C1034 0.929 . S
H1031 C1040 0.929 . S
C1032 H1026 0.930 . S
C1032 C1033 1.367 . S
C1032 C1040 1.378 . S
C1033 C1032 1.367 . S
C1033 C1041 1.433 . S
C1034 H1030 0.929 . S
C1034 C1036 1.378 . S
C1034 C1038 1.350 . S
C1035 C1038 1.463 . S
C1035 C1040 1.350 . S
C1035 N1043 1.427 . S
C1036 H1027 0.930 . S
C1036 C1034 1.378 . S
C1036 C1037 1.367 . S
C1037 C1036 1.367 . S
C1037 C1039 1.433 . S
C1038 C1034 1.350 . S
C1038 C1035 1.463 . S
C1038 N1042 1.427 . S
C1039 H1029 0.929 . S
C1039 C1037 1.433 . S
C1039 N1042 1.384 . S
C1040 H1031 0.929 . S
C1040 C1032 1.378 . S
C1040 C1035 1.350 . S
C1041 H1028 0.929 . S
C1041 C1033 1.433 . S
C1041 N1043 1.384 . S
N1042 C1038 1.427 . S
N1042 C1039 1.384 . S
N1043 C1035 1.427 . S
N1043 C1041 1.384 . S
H1044 C1050 0.930 . S
H1045 C1054 0.930 . S
H1046 C1059 0.929 . S
H1047 C1057 0.929 . S
H1048 C1052 0.929 . S
H1049 C1058 0.929 . S
C1050 H1044 0.930 . S
C1050 C1051 1.367 . S
C1050 C1058 1.378 . S
C1051 C1050 1.367 . S
C1051 C1059 1.433 . S
C1052 H1048 0.929 . S
C1052 C1054 1.378 . S
C1052 C1056 1.350 . S
C1053 C1056 1.463 . S
C1053 C1058 1.350 . S
C1053 N1061 1.427 . S
C1054 H1045 0.930 . S
C1054 C1052 1.378 . S
C1054 C1055 1.367 . S
C1055 C1054 1.367 . S
C1055 C1057 1.433 . S
C1056 C1052 1.350 . S
C1056 C1053 1.463 . S
C1056 N1060 1.427 . S
C1057 H1047 0.929 . S
C1057 C1055 1.433 . S
C1057 N1060 1.384 . S
C1058 H1049 0.929 . S
C1058 C1050 1.378 . S
C1058 C1053 1.350 . S
C1059 H1046 0.929 . S
C1059 C1051 1.433 . S
C1059 N1061 1.384 . S
N1060 C1056 1.427 . S
N1060 C1057 1.384 . S
N1061 C1053 1.427 . S
N1061 C1059 1.384 . S
H1062 C1068 0.930 . S
H1063 C1072 0.930 . S
H1064 C1077 0.929 . S
H1065 C1075 0.929 . S
H1066 C1070 0.929 . S
H1067 C1076 0.929 . S
C1068 H1062 0.930 . S
C1068 C1069 1.367 . S
C1068 C1076 1.378 . S
C1069 C1068 1.367 . S
C1069 C1077 1.433 . S
C1070 H1066 0.929 . S
C1070 C1072 1.378 . S
C1070 C1074 1.350 . S
C1071 C1074 1.463 . S
C1071 C1076 1.350 . S
C1071 N1079 1.427 . S
C1072 H1063 0.930 . S
C1072 C1070 1.378 . S
C1072 C1073 1.367 . S
C1073 C1072 1.367 . S
C1073 C1075 1.433 . S
C1074 C1070 1.350 . S
C1074 C1071 1.463 . S
C1074 N1078 1.427 . S
C1075 H1065 0.929 . S
C1075 C1073 1.433 . S
C1075 N1078 1.384 . S
C1076 H1067 0.929 . S
C1076 C1068 1.378 . S
C1076 C1071 1.350 . S
C1077 H1064 0.929 . S
C1077 C1069 1.433 . S
C1077 N1079 1.384 . S
N1078 C1074 1.427 . S
N1078 C1075 1.384 . S
N1079 C1071 1.427 . S
N1079 C1077 1.384 . S
H1080 C1086 0.930 . S
H1081 C1090 0.930 . S
H1082 C1095 0.929 . S
H1083 C1093 0.929 . S
H1084 C1088 0.929 . S
H1085 C1094 0.929 . S
C1086 H1080 0.930 . S
C1086 C1087 1.367 1_545 S
C1086 C1094 1.378 . S
C1087 C1086 1.367 1_565 S
C1087 C1095 1.433 . S
C1088 H1084 0.929 . S
C1088 C1090 1.378 . S
C1088 C1092 1.362 . S
C1089 C1092 1.477 . S
C1089 C1094 1.350 1_565 S
C1089 N1097 1.427 . S
C1090 H1081 0.930 . S
C1090 C1088 1.378 . S
C1090 C1091 1.367 1_565 S
C1091 C1090 1.367 1_545 S
C1091 C1093 1.433 . S
C1092 C1088 1.362 . S
C1092 C1089 1.477 . S
C1092 N1096 1.401 1_565 S
C1093 H1083 0.929 . S
C1093 C1091 1.433 . S
C1093 N1096 1.384 . S
C1094 H1085 0.929 . S
C1094 C1086 1.378 . S
C1094 C1089 1.350 1_545 S
C1095 H1082 0.929 . S
C1095 C1087 1.433 . S
C1095 N1097 1.384 . S
N1096 C1092 1.401 1_545 S
N1096 C1093 1.384 . S
N1097 C1089 1.427 . S
N1097 C1095 1.384 . S
H1098 C1104 0.930 . S
H1099 C1108 0.930 . S
H1100 C1113 0.929 . S
H1101 C1111 0.929 1_554 S
H1102 C1106 0.929 . S
H1103 C1112 0.929 . S
C1104 H1098 0.930 . S
C1104 C1105 1.367 . S
C1104 C1112 1.378 . S
C1105 C1104 1.367 . S
C1105 C1113 1.433 . S
C1106 H1102 0.929 . S
C1106 C1108 1.378 . S
C1106 C1110 1.350 . S
C1107 C1110 1.463 . S
C1107 C1112 1.350 . S
C1107 N1115 1.427 . S
C1108 H1099 0.930 . S
C1108 C1106 1.378 . S
C1108 C1109 1.367 . S
C1109 C1108 1.367 . S
C1109 C1111 1.433 . S
C1110 C1106 1.350 . S
C1110 C1107 1.463 . S
C1110 N1114 1.427 . S
C1111 H1101 0.929 1_556 S
C1111 C1109 1.433 . S
C1111 N1114 1.384 . S
C1112 H1103 0.929 . S
C1112 C1104 1.378 . S
C1112 C1107 1.350 . S
C1113 H1100 0.929 . S
C1113 C1105 1.433 . S
C1113 N1115 1.384 . S
N1114 C1110 1.427 . S
N1114 C1111 1.384 . S
N1115 C1107 1.427 . S
N1115 C1113 1.384 . S
H1116 C1122 0.930 . S
H1117 C1126 0.930 . S
H1118 C1131 0.929 . S
H1119 C1129 0.929 . S
H1120 C1124 0.929 . S
H1121 C1130 0.929 . S
C1122 H1116 0.930 . S
C1122 C1123 1.367 . S
C1122 C1130 1.378 . S
C1123 C1122 1.367 . S
C1123 C1131 1.433 . S
C1124 H1120 0.929 . S
C1124 C1126 1.378 1_556 S
C1124 C1128 1.350 . S
C1125 C1128 1.463 . S
C1125 C1130 1.350 . S
C1125 N1133 1.427 . S
C1126 H1117 0.930 . S
C1126 C1124 1.378 1_554 S
C1126 C1127 1.367 . S
C1127 C1126 1.367 . S
C1127 C1129 1.433 1_554 S
C1128 C1124 1.350 . S
C1128 C1125 1.463 . S
C1128 N1132 1.427 . S
C1129 H1119 0.929 . S
C1129 C1127 1.433 1_556 S
C1129 N1132 1.384 . S
C1130 H1121 0.929 . S
C1130 C1122 1.378 . S
C1130 C1125 1.350 . S
C1131 H1118 0.929 . S
C1131 C1123 1.433 . S
C1131 N1133 1.384 . S
N1132 C1128 1.427 . S
N1132 C1129 1.384 . S
N1133 C1125 1.427 . S
N1133 C1131 1.384 . S
H1134 C1140 0.930 . S
H1135 C1144 0.925 1_554 S
H1136 C1149 0.929 . S
H1137 C1147 0.929 . S
H1138 C1142 0.929 . S
H1139 C1148 0.929 . S
C1140 H1134 0.930 . S
C1140 C1141 1.367 . S
C1140 C1148 1.378 . S
C1141 C1140 1.367 . S
C1141 C1149 1.433 . S
C1142 H1138 0.929 . S
C1142 C1144 1.382 . S
C1142 C1146 1.350 . S
C1143 C1146 1.463 . S
C1143 C1148 1.350 . S
C1143 N1151 1.427 . S
C1144 H1135 0.925 1_556 S
C1144 C1142 1.382 . S
C1144 C1145 1.368 . S
C1145 C1144 1.368 . S
C1145 C1147 1.433 . S
C1146 C1142 1.350 . S
C1146 C1143 1.463 . S
C1146 N1150 1.427 . S
C1147 H1137 0.929 . S
C1147 C1145 1.433 . S
C1147 N1150 1.384 . S
C1148 H1139 0.929 . S
C1148 C1140 1.378 . S
C1148 C1143 1.350 . S
C1149 H1136 0.929 . S
C1149 C1141 1.433 . S
C1149 N1151 1.384 . S
N1150 C1146 1.427 . S
N1150 C1147 1.384 . S
N1151 C1143 1.427 . S
N1151 C1149 1.384 . S
H1152 C1158 0.930 . S
H1153 C1162 0.930 . S
H1154 C1167 0.929 . S
H1155 C1165 0.929 . S
H1156 C1160 0.929 . S
H1157 C1166 0.929 . S
C1158 H1152 0.930 . S
C1158 C1159 1.367 . S
C1158 C1166 1.378 . S
C1159 C1158 1.367 . S
C1159 C1167 1.433 . S
C1160 H1156 0.929 . S
C1160 C1162 1.378 . S
C1160 C1164 1.350 . S
C1161 C1164 1.463 . S
C1161 C1166 1.350 . S
C1161 N1169 1.427 . S
C1162 H1153 0.930 . S
C1162 C1160 1.378 . S
C1162 C1163 1.367 . S
C1163 C1162 1.367 . S
C1163 C1165 1.433 . S
C1164 C1160 1.350 . S
C1164 C1161 1.463 . S
C1164 N1168 1.427 . S
C1165 H1155 0.929 . S
C1165 C1163 1.433 . S
C1165 N1168 1.384 . S
C1166 H1157 0.929 . S
C1166 C1158 1.378 . S
C1166 C1161 1.350 . S
C1167 H1154 0.929 . S
C1167 C1159 1.433 . S
C1167 N1169 1.384 . S
N1168 C1164 1.427 . S
N1168 C1165 1.384 . S
N1169 C1161 1.427 . S
N1169 C1167 1.384 . S
H1170 C1176 0.930 . S
H1171 C1180 0.930 . S
H1172 C1185 0.929 . S
H1173 C1183 0.929 . S
H1174 C1178 0.929 . S
H1175 C1184 0.929 . S
C1176 H1170 0.930 . S
C1176 C1177 1.367 . S
C1176 C1184 1.378 . S
C1177 C1176 1.367 . S
C1177 C1185 1.433 . S
C1178 H1174 0.929 . S
C1178 C1180 1.378 . S
C1178 C1182 1.350 . S
C1179 C1182 1.463 . S
C1179 C1184 1.350 . S
C1179 N1187 1.427 . S
C1180 H1171 0.930 . S
C1180 C1178 1.378 . S
C1180 C1181 1.367 . S
C1181 C1180 1.367 . S
C1181 C1183 1.433 . S
C1182 C1178 1.350 . S
C1182 C1179 1.463 . S
C1182 N1186 1.427 . S
C1183 H1173 0.929 . S
C1183 C1181 1.433 . S
C1183 N1186 1.384 . S
C1184 H1175 0.929 . S
C1184 C1176 1.378 . S
C1184 C1179 1.350 . S
C1185 H1172 0.929 . S
C1185 C1177 1.433 . S
C1185 N1187 1.384 . S
N1186 C1182 1.427 . S
N1186 C1183 1.384 . S
N1187 C1179 1.427 . S
N1187 C1185 1.384 . S
H1188 C1194 0.930 . S
H1189 C1198 0.930 . S
H1190 C1203 0.929 . S
H1191 C1201 0.929 . S
H1192 C1196 0.929 . S
H1193 C1202 0.929 . S
C1194 H1188 0.930 . S
C1194 C1195 1.367 . S
C1194 C1202 1.378 . S
C1195 C1194 1.367 . S
C1195 C1203 1.433 . S
C1196 H1192 0.929 . S
C1196 C1198 1.378 . S
C1196 C1200 1.350 . S
C1197 C1200 1.463 . S
C1197 C1202 1.350 . S
C1197 N1205 1.427 . S
C1198 H1189 0.930 . S
C1198 C1196 1.378 . S
C1198 C1199 1.367 . S
C1199 C1198 1.367 . S
C1199 C1201 1.433 . S
C1200 C1196 1.350 . S
C1200 C1197 1.463 . S
C1200 N1204 1.427 . S
C1201 H1191 0.929 . S
C1201 C1199 1.433 . S
C1201 N1204 1.384 . S
C1202 H1193 0.929 . S
C1202 C1194 1.378 . S
C1202 C1197 1.350 . S
C1203 H1190 0.929 . S
C1203 C1195 1.433 . S
C1203 N1205 1.384 . S
N1204 C1200 1.427 . S
N1204 C1201 1.384 . S
N1205 C1197 1.427 . S
N1205 C1203 1.384 . S
H1206 C1212 0.930 . S
H1207 C1216 0.887 1_545 S
H1208 C1221 0.929 . S
H1209 C1219 0.929 . S
H1210 C1214 0.929 . S
H1211 C1220 0.929 . S
C1212 H1206 0.930 . S
C1212 C1213 1.367 1_565 S
C1212 C1220 1.378 . S
C1213 C1212 1.367 1_545 S
C1213 C1221 1.433 . S
C1214 H1210 0.929 . S
C1214 C1216 1.386 1_545 S
C1214 C1218 1.350 1_545 S
C1215 C1218 1.463 1_545 S
C1215 C1220 1.350 1_545 S
C1215 N1223 1.427 . S
C1216 H1207 0.887 1_565 S
C1216 C1214 1.386 1_565 S
C1216 C1217 1.404 . S
C1217 C1216 1.404 . S
C1217 C1219 1.433 . S
C1218 C1214 1.350 1_565 S
C1218 C1215 1.463 1_565 S
C1218 N1222 1.427 . S
C1219 H1209 0.929 . S
C1219 C1217 1.433 . S
C1219 N1222 1.384 . S
C1220 H1211 0.929 . S
C1220 C1212 1.378 . S
C1220 C1215 1.350 1_565 S
C1221 H1208 0.929 . S
C1221 C1213 1.433 . S
C1221 N1223 1.384 . S
N1222 C1218 1.427 . S
N1222 C1219 1.384 . S
N1223 C1215 1.427 . S
N1223 C1221 1.384 . S
H1224 C1230 0.930 . S
H1225 C1234 0.930 . S
H1226 C1239 0.929 . S
H1227 C1237 0.929 . S
H1228 C1232 0.929 . S
H1229 C1238 0.929 . S
C1230 H1224 0.930 . S
C1230 C1231 1.367 . S
C1230 C1238 1.378 . S
C1231 C1230 1.367 . S
C1231 C1239 1.433 . S
C1232 H1228 0.929 . S
C1232 C1234 1.378 . S
C1232 C1236 1.350 . S
C1233 C1236 1.463 . S
C1233 C1238 1.350 . S
C1233 N1241 1.427 . S
C1234 H1225 0.930 . S
C1234 C1232 1.378 . S
C1234 C1235 1.367 . S
C1235 C1234 1.367 . S
C1235 C1237 1.433 . S
C1236 C1232 1.350 . S
C1236 C1233 1.463 . S
C1236 N1240 1.427 . S
C1237 H1227 0.929 . S
C1237 C1235 1.433 . S
C1237 N1240 1.384 . S
C1238 H1229 0.929 . S
C1238 C1230 1.378 . S
C1238 C1233 1.350 . S
C1239 H1226 0.929 . S
C1239 C1231 1.433 . S
C1239 N1241 1.384 . S
N1240 C1236 1.427 . S
N1240 C1237 1.384 . S
N1241 C1233 1.427 . S
N1241 C1239 1.384 . S
H1242 C1248 0.930 . S
H1243 C1252 0.930 . S
H1244 C1257 0.929 . S
H1245 C1255 0.929 . S
H1246 C1250 0.929 . S
H1247 C1256 0.929 . S
C1248 H1242 0.930 . S
C1248 C1249 1.367 . S
C1248 C1256 1.378 . S
C1249 C1248 1.367 . S
C1249 C1257 1.433 . S
C1250 H1246 0.929 . S
C1250 C1252 1.378 . S
C1250 C1254 1.350 . S
C1251 C1254 1.463 . S
C1251 C1256 1.350 . S
C1251 N1259 1.427 . S
C1252 H1243 0.930 . S
C1252 C1250 1.378 . S
C1252 C1253 1.367 . S
C1253 C1252 1.367 . S
C1253 C1255 1.433 . S
C1254 C1250 1.350 . S
C1254 C1251 1.463 . S
C1254 N1258 1.427 . S
C1255 H1245 0.929 . S
C1255 C1253 1.433 . S
C1255 N1258 1.384 . S
C1256 H1247 0.929 . S
C1256 C1248 1.378 . S
C1256 C1251 1.350 . S
C1257 H1244 0.929 . S
C1257 C1249 1.433 . S
C1257 N1259 1.384 . S
N1258 C1254 1.427 . S
N1258 C1255 1.384 . S
N1259 C1251 1.427 . S
N1259 C1257 1.384 . S
H1260 C1266 0.930 . S
H1261 C1270 0.930 . S
H1262 C1275 0.929 . S
H1263 C1273 0.929 . S
H1264 C1268 0.929 . S
H1265 C1274 0.929 . S
C1266 H1260 0.930 . S
C1266 C1267 1.367 . S
C1266 C1274 1.378 . S
C1267 C1266 1.367 . S
C1267 C1275 1.433 . S
C1268 H1264 0.929 . S
C1268 C1270 1.378 . S
C1268 C1272 1.350 . S
C1269 C1272 1.463 . S
C1269 C1274 1.350 . S
C1269 N1277 1.427 . S
C1270 H1261 0.930 . S
C1270 C1268 1.378 . S
C1270 C1271 1.367 . S
C1271 C1270 1.367 . S
C1271 C1273 1.433 . S
C1272 C1268 1.350 . S
C1272 C1269 1.463 . S
C1272 N1276 1.427 . S
C1273 H1263 0.929 . S
C1273 C1271 1.433 . S
C1273 N1276 1.384 . S
C1274 H1265 0.929 . S
C1274 C1266 1.378 . S
C1274 C1269 1.350 . S
C1275 H1262 0.929 . S
C1275 C1267 1.433 . S
C1275 N1277 1.384 . S
N1276 C1272 1.427 . S
N1276 C1273 1.384 . S
N1277 C1269 1.427 . S
N1277 C1275 1.384 . S
H1278 C1284 0.930 . S
H1279 C1288 0.930 . S
H1280 C1293 0.929 . S
H1281 C1291 0.929 . S
H1282 C1286 0.929 . S
H1283 C1292 0.929 . S
C1284 H1278 0.930 . S
C1284 C1285 1.367 . S
C1284 C1292 1.378 . S
C1285 C1284 1.367 . S
C1285 C1293 1.433 . S
C1286 H1282 0.929 . S
C1286 C1288 1.378 . S
C1286 C1290 1.350 . S
C1287 C1290 1.463 . S
C1287 C1292 1.350 . S
C1287 N1295 1.427 . S
C1288 H1279 0.930 . S
C1288 C1286 1.378 . S
C1288 C1289 1.367 . S
C1289 C1288 1.367 . S
C1289 C1291 1.433 . S
C1290 C1286 1.350 . S
C1290 C1287 1.463 . S
C1290 N1294 1.427 . S
C1291 H1281 0.929 . S
C1291 C1289 1.433 . S
C1291 N1294 1.384 . S
C1292 H1283 0.929 . S
C1292 C1284 1.378 . S
C1292 C1287 1.350 . S
C1293 H1280 0.929 . S
C1293 C1285 1.433 . S
C1293 N1295 1.384 . S
N1294 C1290 1.427 . S
N1294 C1291 1.384 . S
N1295 C1287 1.427 . S
N1295 C1293 1.384 . S
H1296 C1302 0.930 . S
H1297 C1306 0.930 . S
H1298 C1311 0.929 . S
H1299 C1309 0.929 . S
H1300 C1304 0.929 . S
H1301 C1310 0.929 . S
C1302 H1296 0.930 . S
C1302 C1303 1.367 . S
C1302 C1310 1.378 . S
C1303 C1302 1.367 . S
C1303 C1311 1.433 . S
C1304 H1300 0.929 . S
C1304 C1306 1.378 . S
C1304 C1308 1.350 . S
C1305 C1308 1.463 . S
C1305 C1310 1.350 . S
C1305 N1313 1.427 . S
C1306 H1297 0.930 . S
C1306 C1304 1.378 . S
C1306 C1307 1.367 . S
C1307 C1306 1.367 . S
C1307 C1309 1.433 . S
C1308 C1304 1.350 . S
C1308 C1305 1.463 . S
C1308 N1312 1.427 . S
C1309 H1299 0.929 . S
C1309 C1307 1.433 . S
C1309 N1312 1.384 . S
C1310 H1301 0.929 . S
C1310 C1302 1.378 . S
C1310 C1305 1.350 . S
C1311 H1298 0.929 . S
C1311 C1303 1.433 . S
C1311 N1313 1.384 . S
N1312 C1308 1.427 . S
N1312 C1309 1.384 . S
N1313 C1305 1.427 . S
N1313 C1311 1.384 . S
H1314 C1320 0.930 . S
H1315 C1324 0.930 . S
H1316 C1329 0.929 . S
H1317 C1327 0.929 . S
H1318 C1322 0.929 . S
H1319 C1328 0.929 . S
C1320 H1314 0.930 . S
C1320 C1321 1.367 . S
C1320 C1328 1.378 . S
C1321 C1320 1.367 . S
C1321 C1329 1.433 1_545 S
C1322 H1318 0.929 . S
C1322 C1324 1.378 . S
C1322 C1326 1.350 . S
C1323 C1326 1.463 1_545 S
C1323 C1328 1.350 . S
C1323 N1331 1.427 1_545 S
C1324 H1315 0.930 . S
C1324 C1322 1.378 . S
C1324 C1325 1.367 . S
C1325 C1324 1.367 . S
C1325 C1327 1.433 1_565 S
C1326 C1322 1.350 . S
C1326 C1323 1.463 1_565 S
C1326 N1330 1.427 1_565 S
C1327 H1317 0.929 . S
C1327 C1325 1.433 1_545 S
C1327 N1330 1.384 . S
C1328 H1319 0.929 . S
C1328 C1320 1.378 . S
C1328 C1323 1.350 . S
C1329 H1316 0.929 . S
C1329 C1321 1.433 1_565 S
C1329 N1331 1.384 . S
N1330 C1326 1.427 1_545 S
N1330 C1327 1.384 . S
N1331 C1323 1.427 1_565 S
N1331 C1329 1.384 . S
H1332 C1338 0.930 . S
H1333 C1342 0.930 . S
H1334 C1347 0.929 . S
H1335 C1345 0.929 . S
H1336 C1340 0.929 . S
H1337 C1346 0.929 . S
C1338 H1332 0.930 . S
C1338 C1339 1.367 . S
C1338 C1346 1.378 . S
C1339 C1338 1.367 . S
C1339 C1347 1.433 . S
C1340 H1336 0.929 . S
C1340 C1342 1.378 . S
C1340 C1344 1.350 . S
C1341 C1344 1.463 . S
C1341 C1346 1.350 . S
C1341 N1349 1.427 . S
C1342 H1333 0.930 . S
C1342 C1340 1.378 . S
C1342 C1343 1.367 . S
C1343 C1342 1.367 . S
C1343 C1345 1.433 . S
C1344 C1340 1.350 . S
C1344 C1341 1.463 . S
C1344 N1348 1.427 . S
C1345 H1335 0.929 . S
C1345 C1343 1.433 . S
C1345 N1348 1.384 . S
C1346 H1337 0.929 . S
C1346 C1338 1.378 . S
C1346 C1341 1.350 . S
C1347 H1334 0.929 . S
C1347 C1339 1.433 . S
C1347 N1349 1.384 . S
N1348 C1344 1.427 . S
N1348 C1345 1.384 . S
N1349 C1341 1.427 . S
N1349 C1347 1.384 . S
H1350 C1356 0.930 . S
H1351 C1360 0.930 . S
H1352 C1365 0.929 . S
H1353 C1363 0.929 . S
H1354 C1358 0.929 . S
H1355 C1364 0.929 . S
C1356 H1350 0.930 . S
C1356 C1357 1.367 . S
C1356 C1364 1.378 . S
C1357 C1356 1.367 . S
C1357 C1365 1.433 . S
C1358 H1354 0.929 . S
C1358 C1360 1.378 . S
C1358 C1362 1.350 . S
C1359 C1362 1.463 . S
C1359 C1364 1.350 . S
C1359 N1367 1.427 . S
C1360 H1351 0.930 . S
C1360 C1358 1.378 . S
C1360 C1361 1.367 . S
C1361 C1360 1.367 . S
C1361 C1363 1.433 . S
C1362 C1358 1.350 . S
C1362 C1359 1.463 . S
C1362 N1366 1.427 . S
C1363 H1353 0.929 . S
C1363 C1361 1.433 . S
C1363 N1366 1.384 . S
C1364 H1355 0.929 . S
C1364 C1356 1.378 . S
C1364 C1359 1.350 . S
C1365 H1352 0.929 . S
C1365 C1357 1.433 . S
C1365 N1367 1.384 . S
N1366 C1362 1.427 . S
N1366 C1363 1.384 . S
N1367 C1359 1.427 . S
N1367 C1365 1.384 . S
H1368 C1374 0.930 . S
H1369 C1378 0.930 . S
H1370 C1383 0.929 . S
H1371 C1381 0.929 . S
H1372 C1376 0.929 . S
H1373 C1382 0.929 . S
C1374 H1368 0.930 . S
C1374 C1375 1.367 . S
C1374 C1382 1.378 . S
C1375 C1374 1.367 . S
C1375 C1383 1.433 . S
C1376 H1372 0.929 . S
C1376 C1378 1.378 . S
C1376 C1380 1.350 . S
C1377 C1380 1.463 . S
C1377 C1382 1.350 . S
C1377 N1385 1.427 . S
C1378 H1369 0.930 . S
C1378 C1376 1.378 . S
C1378 C1379 1.367 . S
C1379 C1378 1.367 . S
C1379 C1381 1.433 . S
C1380 C1376 1.350 . S
C1380 C1377 1.463 . S
C1380 N1384 1.427 . S
C1381 H1371 0.929 . S
C1381 C1379 1.433 . S
C1381 N1384 1.384 . S
C1382 H1373 0.929 . S
C1382 C1374 1.378 . S
C1382 C1377 1.350 . S
C1383 H1370 0.929 . S
C1383 C1375 1.433 . S
C1383 N1385 1.384 . S
N1384 C1380 1.427 . S
N1384 C1381 1.384 . S
N1385 C1377 1.427 . S
N1385 C1383 1.384 . S
H1386 C1392 0.930 . S
H1387 C1396 0.930 . S
H1388 C1401 0.929 . S
H1389 C1399 0.929 . S
H1390 C1394 0.929 . S
H1391 C1400 0.929 . S
C1392 H1386 0.930 . S
C1392 C1393 1.367 . S
C1392 C1400 1.378 . S
C1393 C1392 1.367 . S
C1393 C1401 1.433 . S
C1394 H1390 0.929 . S
C1394 C1396 1.378 . S
C1394 C1398 1.350 . S
C1395 C1398 1.463 . S
C1395 C1400 1.350 . S
C1395 N1403 1.427 . S
C1396 H1387 0.930 . S
C1396 C1394 1.378 . S
C1396 C1397 1.367 . S
C1397 C1396 1.367 . S
C1397 C1399 1.433 . S
C1398 C1394 1.350 . S
C1398 C1395 1.463 . S
C1398 N1402 1.427 . S
C1399 H1389 0.929 . S
C1399 C1397 1.433 . S
C1399 N1402 1.384 . S
C1400 H1391 0.929 . S
C1400 C1392 1.378 . S
C1400 C1395 1.350 . S
C1401 H1388 0.929 . S
C1401 C1393 1.433 . S
C1401 N1403 1.384 . S
N1402 C1398 1.427 . S
N1402 C1399 1.384 . S
N1403 C1395 1.427 . S
N1403 C1401 1.384 . S
H1404 C1410 0.930 . S
H1405 C1414 0.930 . S
H1406 C1419 0.929 . S
H1407 C1417 0.929 . S
H1408 C1412 0.929 . S
H1409 C1418 0.929 . S
C1410 H1404 0.930 . S
C1410 C1411 1.367 1_545 S
C1410 C1418 1.378 . S
C1411 C1410 1.367 1_565 S
C1411 C1419 1.433 . S
C1412 H1408 0.929 . S
C1412 C1414 1.378 . S
C1412 C1416 1.350 1_565 S
C1413 C1416 1.471 . S
C1413 C1418 1.359 . S
C1413 N1421 1.410 1_545 S
C1414 H1405 0.930 . S
C1414 C1412 1.378 . S
C1414 C1415 1.367 1_565 S
C1415 C1414 1.367 1_545 S
C1415 C1417 1.433 . S
C1416 C1412 1.350 1_545 S
C1416 C1413 1.471 . S
C1416 N1420 1.427 . S
C1417 H1407 0.929 . S
C1417 C1415 1.433 . S
C1417 N1420 1.384 . S
C1418 H1409 0.929 . S
C1418 C1410 1.378 . S
C1418 C1413 1.359 . S
C1419 H1406 0.929 . S
C1419 C1411 1.433 . S
C1419 N1421 1.384 . S
N1420 C1416 1.427 . S
N1420 C1417 1.384 . S
N1421 C1413 1.410 1_565 S
N1421 C1419 1.384 . S
H1422 C1428 0.930 . S
H1423 C1432 0.930 . S
H1424 C1437 0.929 . S
H1425 C1435 0.929 . S
H1426 C1430 0.929 . S
H1427 C1436 0.929 . S
C1428 H1422 0.930 . S
C1428 C1429 1.367 . S
C1428 C1436 1.378 . S
C1429 C1428 1.367 . S
C1429 C1437 1.433 . S
C1430 H1426 0.929 . S
C1430 C1432 1.378 . S
C1430 C1434 1.350 . S
C1431 C1434 1.463 . S
C1431 C1436 1.350 . S
C1431 N1439 1.427 . S
C1432 H1423 0.930 . S
C1432 C1430 1.378 . S
C1432 C1433 1.367 . S
C1433 C1432 1.367 . S
C1433 C1435 1.433 . S
C1434 C1430 1.350 . S
C1434 C1431 1.463 . S
C1434 N1438 1.427 . S
C1435 H1425 0.929 . S
C1435 C1433 1.433 . S
C1435 N1438 1.384 . S
C1436 H1427 0.929 . S
C1436 C1428 1.378 . S
C1436 C1431 1.350 . S
C1437 H1424 0.929 . S
C1437 C1429 1.433 . S
C1437 N1439 1.384 . S
N1438 C1434 1.427 . S
N1438 C1435 1.384 . S
N1439 C1431 1.427 . S
N1439 C1437 1.384 . S
H1440 C1446 0.930 . S
H1441 C1450 0.930 . S
H1442 C1455 0.929 . S
H1443 C1453 0.929 . S
H1444 C1448 0.929 . S
H1445 C1454 0.929 . S
C1446 H1440 0.930 . S
C1446 C1447 1.367 1_554 S
C1446 C1454 1.378 . S
C1447 C1446 1.367 1_556 S
C1447 C1455 1.433 . S
C1448 H1444 0.929 . S
C1448 C1450 1.378 . S
C1448 C1452 1.350 . S
C1449 C1452 1.463 . S
C1449 C1454 1.350 . S
C1449 N1457 1.427 . S
C1450 H1441 0.930 . S
C1450 C1448 1.378 . S
C1450 C1451 1.367 . S
C1451 C1450 1.367 . S
C1451 C1453 1.433 . S
C1452 C1448 1.350 . S
C1452 C1449 1.463 . S
C1452 N1456 1.427 . S
C1453 H1443 0.929 . S
C1453 C1451 1.433 . S
C1453 N1456 1.384 . S
C1454 H1445 0.929 . S
C1454 C1446 1.378 . S
C1454 C1449 1.350 . S
C1455 H1442 0.929 . S
C1455 C1447 1.433 . S
C1455 N1457 1.384 1_556 S
N1456 C1452 1.427 . S
N1456 C1453 1.384 . S
N1457 C1449 1.427 . S
N1457 C1455 1.384 1_554 S
H1458 C1464 0.930 . S
H1459 C1468 0.930 . S
H1460 C1473 0.929 1_556 S
H1461 C1471 0.929 . S
H1462 C1466 0.929 . S
H1463 C1472 0.929 . S
C1464 H1458 0.930 . S
C1464 C1465 1.367 . S
C1464 C1472 1.378 . S
C1465 C1464 1.367 . S
C1465 C1473 1.433 . S
C1466 H1462 0.929 . S
C1466 C1468 1.378 . S
C1466 C1470 1.350 . S
C1467 C1470 1.463 . S
C1467 C1472 1.350 . S
C1467 N1475 1.427 . S
C1468 H1459 0.930 . S
C1468 C1466 1.378 . S
C1468 C1469 1.367 . S
C1469 C1468 1.367 . S
C1469 C1471 1.433 . S
C1470 C1466 1.350 . S
C1470 C1467 1.463 . S
C1470 N1474 1.427 . S
C1471 H1461 0.929 . S
C1471 C1469 1.433 . S
C1471 N1474 1.384 . S
C1472 H1463 0.929 . S
C1472 C1464 1.378 . S
C1472 C1467 1.350 . S
C1473 H1460 0.929 1_554 S
C1473 C1465 1.433 . S
C1473 N1475 1.384 . S
N1474 C1470 1.427 . S
N1474 C1471 1.384 . S
N1475 C1467 1.427 . S
N1475 C1473 1.384 . S
H1476 C1482 0.930 . S
H1477 C1486 0.930 . S
H1478 C1491 0.929 . S
H1479 C1489 0.929 . S
H1480 C1484 0.933 . S
H1481 C1490 0.929 . S
C1482 H1476 0.930 . S
C1482 C1483 1.367 . S
C1482 C1490 1.378 . S
C1483 C1482 1.367 . S
C1483 C1491 1.433 . S
C1484 H1480 0.933 . S
C1484 C1486 1.378 1_556 S
C1484 C1488 1.350 . S
C1485 C1488 1.463 . S
C1485 C1490 1.350 . S
C1485 N1493 1.427 . S
C1486 H1477 0.930 . S
C1486 C1484 1.378 1_554 S
C1486 C1487 1.367 1_554 S
C1487 C1486 1.367 1_556 S
C1487 C1489 1.433 . S
C1488 C1484 1.350 . S
C1488 C1485 1.463 . S
C1488 N1492 1.427 . S
C1489 H1479 0.929 . S
C1489 C1487 1.433 . S
C1489 N1492 1.384 . S
C1490 H1481 0.929 . S
C1490 C1482 1.378 . S
C1490 C1485 1.350 . S
C1491 H1478 0.929 . S
C1491 C1483 1.433 . S
C1491 N1493 1.384 . S
N1492 C1488 1.427 . S
N1492 C1489 1.384 . S
N1493 C1485 1.427 . S
N1493 C1491 1.384 . S
H1494 C1500 0.930 1_554 S
H1495 C1504 0.930 . S
H1496 C1509 0.929 . S
H1497 C1507 0.929 . S
H1498 C1502 0.929 . S
H1499 C1508 0.929 . S
C1500 H1494 0.930 1_556 S
C1500 C1501 1.367 1_556 S
C1500 C1508 1.378 . S
C1501 C1500 1.367 1_554 S
C1501 C1509 1.433 1_554 S
C1502 H1498 0.929 . S
C1502 C1504 1.378 . S
C1502 C1506 1.350 . S
C1503 C1506 1.463 . S
C1503 C1508 1.350 . S
C1503 N1511 1.427 . S
C1504 H1495 0.930 . S
C1504 C1502 1.378 . S
C1504 C1505 1.367 . S
C1505 C1504 1.367 . S
C1505 C1507 1.433 . S
C1506 C1502 1.350 . S
C1506 C1503 1.463 . S
C1506 N1510 1.427 . S
C1507 H1497 0.929 . S
C1507 C1505 1.433 . S
C1507 N1510 1.384 . S
C1508 H1499 0.929 . S
C1508 C1500 1.378 . S
C1508 C1503 1.350 . S
C1509 H1496 0.929 . S
C1509 C1501 1.433 1_556 S
C1509 N1511 1.384 . S
N1510 C1506 1.427 . S
N1510 C1507 1.384 . S
N1511 C1503 1.427 . S
N1511 C1509 1.384 . S
H1512 C1518 0.930 . S
H1513 C1522 0.930 . S
H1514 C1527 0.929 . S
H1515 C1525 0.929 . S
H1516 C1520 0.929 . S
H1517 C1526 0.929 . S
C1518 H1512 0.930 . S
C1518 C1519 1.367 . S
C1518 C1526 1.378 . S
C1519 C1518 1.367 . S
C1519 C1527 1.433 . S
C1520 H1516 0.929 . S
C1520 C1522 1.378 1_556 S
C1520 C1524 1.350 . S
C1521 C1524 1.463 . S
C1521 C1526 1.350 . S
C1521 N1529 1.427 . S
C1522 H1513 0.930 . S
C1522 C1520 1.378 1_554 S
C1522 C1523 1.367 1_554 S
C1523 C1522 1.367 1_556 S
C1523 C1525 1.433 . S
C1524 C1520 1.350 . S
C1524 C1521 1.463 . S
C1524 N1528 1.427 . S
C1525 H1515 0.929 . S
C1525 C1523 1.433 . S
C1525 N1528 1.384 . S
C1526 H1517 0.929 . S
C1526 C1518 1.378 . S
C1526 C1521 1.350 . S
C1527 H1514 0.929 . S
C1527 C1519 1.433 . S
C1527 N1529 1.384 . S
N1528 C1524 1.427 . S
N1528 C1525 1.384 . S
N1529 C1521 1.427 . S
N1529 C1527 1.384 . S
H1530 C1536 0.930 . S
H1531 C1540 0.930 . S
H1532 C1545 0.929 . S
H1533 C1543 0.929 . S
H1534 C1538 0.929 . S
H1535 C1544 0.929 . S
C1536 H1530 0.930 . S
C1536 C1537 1.367 . S
C1536 C1544 1.378 . S
C1537 C1536 1.367 . S
C1537 C1545 1.433 . S
C1538 H1534 0.929 . S
C1538 C1540 1.378 . S
C1538 C1542 1.350 . S
C1539 C1542 1.463 . S
C1539 C1544 1.350 . S
C1539 N1547 1.427 . S
C1540 H1531 0.930 . S
C1540 C1538 1.378 . S
C1540 C1541 1.367 . S
C1541 C1540 1.367 . S
C1541 C1543 1.433 . S
C1542 C1538 1.350 . S
C1542 C1539 1.463 . S
C1542 N1546 1.427 . S
C1543 H1533 0.929 . S
C1543 C1541 1.433 . S
C1543 N1546 1.384 . S
C1544 H1535 0.929 . S
C1544 C1536 1.378 . S
C1544 C1539 1.350 . S
C1545 H1532 0.929 . S
C1545 C1537 1.433 . S
C1545 N1547 1.384 . S
N1546 C1542 1.427 . S
N1546 C1543 1.384 . S
N1547 C1539 1.427 . S
N1547 C1545 1.384 . S
H1548 C1554 0.930 . S
H1549 C1558 0.930 . S
H1550 C1563 0.929 . S
H1551 C1561 0.929 . S
H1552 C1556 0.929 . S
H1553 C1562 0.929 . S
C1554 H1548 0.930 . S
C1554 C1555 1.367 . S
C1554 C1562 1.378 . S
C1555 C1554 1.367 . S
C1555 C1563 1.433 . S
C1556 H1552 0.929 . S
C1556 C1558 1.378 . S
C1556 C1560 1.350 . S
C1557 C1560 1.463 . S
C1557 C1562 1.350 . S
C1557 N1565 1.427 . S
C1558 H1549 0.930 . S
C1558 C1556 1.378 . S
C1558 C1559 1.367 . S
C1559 C1558 1.367 . S
C1559 C1561 1.433 . S
C1560 C1556 1.350 . S
C1560 C1557 1.463 . S
C1560 N1564 1.427 . S
C1561 H1551 0.929 . S
C1561 C1559 1.433 . S
C1561 N1564 1.384 . S
C1562 H1553 0.929 . S
C1562 C1554 1.378 . S
C1562 C1557 1.350 . S
C1563 H1550 0.929 . S
C1563 C1555 1.433 . S
C1563 N1565 1.384 . S
N1564 C1560 1.427 . S
N1564 C1561 1.384 . S
N1565 C1557 1.427 . S
N1565 C1563 1.384 . S
H1566 C1572 0.930 . S
H1567 C1576 0.930 . S
H1568 C1581 0.929 . S
H1569 C1579 0.929 . S
H1570 C1574 0.929 . S
H1571 C1580 0.929 . S
C1572 H1566 0.930 . S
C1572 C1573 1.367 . S
C1572 C1580 1.378 . S
C1573 C1572 1.367 . S
C1573 C1581 1.433 . S
C1574 H1570 0.929 . S
C1574 C1576 1.378 . S
C1574 C1578 1.350 . S
C1575 C1578 1.463 . S
C1575 C1580 1.350 . S
C1575 N1583 1.427 . S
C1576 H1567 0.930 . S
C1576 C1574 1.378 . S
C1576 C1577 1.367 . S
C1577 C1576 1.367 . S
C1577 C1579 1.433 . S
C1578 C1574 1.350 . S
C1578 C1575 1.463 . S
C1578 N1582 1.427 . S
C1579 H1569 0.929 . S
C1579 C1577 1.433 . S
C1579 N1582 1.384 . S
C1580 H1571 0.929 . S
C1580 C1572 1.378 . S
C1580 C1575 1.350 . S
C1581 H1568 0.929 . S
C1581 C1573 1.433 . S
C1581 N1583 1.384 . S
N1582 C1578 1.427 . S
N1582 C1579 1.384 . S
N1583 C1575 1.427 . S
N1583 C1581 1.384 . S
H1584 C1590 0.930 . S
H1585 C1594 0.930 . S
H1586 C1599 0.929 . S
H1587 C1597 0.929 . S
H1588 C1592 0.929 . S
H1589 C1598 0.929 1_556 S
C1590 H1584 0.930 . S
C1590 C1591 1.367 1_556 S
C1590 C1598 1.378 1_556 S
C1591 C1590 1.367 1_554 S
C1591 C1599 1.433 . S
C1592 H1588 0.929 . S
C1592 C1594 1.378 . S
C1592 C1596 1.350 . S
C1593 C1596 1.463 . S
C1593 C1598 1.350 . S
C1593 N1601 1.427 . S
C1594 H1585 0.930 . S
C1594 C1592 1.378 . S
C1594 C1595 1.367 . S
C1595 C1594 1.367 . S
C1595 C1597 1.433 . S
C1596 C1592 1.350 . S
C1596 C1593 1.463 . S
C1596 N1600 1.427 . S
C1597 H1587 0.929 . S
C1597 C1595 1.433 . S
C1597 N1600 1.384 . S
C1598 H1589 0.929 1_554 S
C1598 C1590 1.378 1_554 S
C1598 C1593 1.350 . S
C1599 H1586 0.929 . S
C1599 C1591 1.433 . S
C1599 N1601 1.384 . S
N1600 C1596 1.427 . S
N1600 C1597 1.384 . S
N1601 C1593 1.427 . S
N1601 C1599 1.384 . S
H1602 C1608 0.930 . S
H1603 C1612 0.930 . S
H1604 C1617 0.929 . S
H1605 C1615 0.925 1_556 S
H1606 C1610 0.929 . S
H1607 C1616 0.929 . S
C1608 H1602 0.930 . S
C1608 C1609 1.367 . S
C1608 C1616 1.378 . S
C1609 C1608 1.367 . S
C1609 C1617 1.433 . S
C1610 H1606 0.929 . S
C1610 C1612 1.378 . S
C1610 C1614 1.350 . S
C1611 C1614 1.463 . S
C1611 C1616 1.350 . S
C1611 N1619 1.427 . S
C1612 H1603 0.930 . S
C1612 C1610 1.378 . S
C1612 C1613 1.367 1_554 S
C1613 C1612 1.367 1_556 S
C1613 C1615 1.433 1_556 S
C1614 C1610 1.350 . S
C1614 C1611 1.463 . S
C1614 N1618 1.427 . S
C1615 H1605 0.925 1_554 S
C1615 C1613 1.433 1_554 S
C1615 N1618 1.384 . S
C1616 H1607 0.929 . S
C1616 C1608 1.378 . S
C1616 C1611 1.350 . S
C1617 H1604 0.929 . S
C1617 C1609 1.433 . S
C1617 N1619 1.384 . S
N1618 C1614 1.427 . S
N1618 C1615 1.384 . S
N1619 C1611 1.427 . S
N1619 C1617 1.384 . S
H1620 C1626 0.930 . S
H1621 C1630 0.930 . S
H1622 C1635 0.929 . S
H1623 C1633 0.929 . S
H1624 C1628 0.929 1_556 S
H1625 C1634 0.929 . S
C1626 H1620 0.930 . S
C1626 C1627 1.367 . S
C1626 C1634 1.378 . S
C1627 C1626 1.367 . S
C1627 C1635 1.433 . S
C1628 H1624 0.929 1_554 S
C1628 C1630 1.378 1_554 S
C1628 C1632 1.350 . S
C1629 C1632 1.463 . S
C1629 C1634 1.350 . S
C1629 N1637 1.427 . S
C1630 H1621 0.930 . S
C1630 C1628 1.378 1_556 S
C1630 C1631 1.367 1_556 S
C1631 C1630 1.367 1_554 S
C1631 C1633 1.433 . S
C1632 C1628 1.350 . S
C1632 C1629 1.463 . S
C1632 N1636 1.427 . S
C1633 H1623 0.929 . S
C1633 C1631 1.433 . S
C1633 N1636 1.384 . S
C1634 H1625 0.929 . S
C1634 C1626 1.378 . S
C1634 C1629 1.350 . S
C1635 H1622 0.929 . S
C1635 C1627 1.433 . S
C1635 N1637 1.384 . S
N1636 C1632 1.427 . S
N1636 C1633 1.384 . S
N1637 C1629 1.427 . S
N1637 C1635 1.384 . S
H1638 C1644 0.930 . S
H1639 C1648 0.930 . S
H1640 C1653 0.929 . S
H1641 C1651 0.929 . S
H1642 C1646 0.929 . S
H1643 C1652 0.929 . S
C1644 H1638 0.930 . S
C1644 C1645 1.367 . S
C1644 C1652 1.378 . S
C1645 C1644 1.367 . S
C1645 C1653 1.433 . S
C1646 H1642 0.929 . S
C1646 C1648 1.378 . S
C1646 C1650 1.350 . S
C1647 C1650 1.463 . S
C1647 C1652 1.350 . S
C1647 N1655 1.427 . S
C1648 H1639 0.930 . S
C1648 C1646 1.378 . S
C1648 C1649 1.367 . S
C1649 C1648 1.367 . S
C1649 C1651 1.433 . S
C1650 C1646 1.350 . S
C1650 C1647 1.463 . S
C1650 N1654 1.427 . S
C1651 H1641 0.929 . S
C1651 C1649 1.433 . S
C1651 N1654 1.384 . S
C1652 H1643 0.929 . S
C1652 C1644 1.378 . S
C1652 C1647 1.350 . S
C1653 H1640 0.929 . S
C1653 C1645 1.433 . S
C1653 N1655 1.384 . S
N1654 C1650 1.427 . S
N1654 C1651 1.384 . S
N1655 C1647 1.427 . S
N1655 C1653 1.384 . S
H1656 C1662 0.930 . S
H1657 C1666 0.930 . S
H1658 C1671 0.929 . S
H1659 C1669 0.929 . S
H1660 C1664 0.929 . S
H1661 C1670 0.929 . S
C1662 H1656 0.930 . S
C1662 C1663 1.367 . S
C1662 C1670 1.378 . S
C1663 C1662 1.367 . S
C1663 C1671 1.433 . S
C1664 H1660 0.929 . S
C1664 C1666 1.378 . S
C1664 C1668 1.350 . S
C1665 C1668 1.463 . S
C1665 C1670 1.350 . S
C1665 N1673 1.427 . S
C1666 H1657 0.930 . S
C1666 C1664 1.378 . S
C1666 C1667 1.367 . S
C1667 C1666 1.367 . S
C1667 C1669 1.433 . S
C1668 C1664 1.350 . S
C1668 C1665 1.463 . S
C1668 N1672 1.427 . S
C1669 H1659 0.929 . S
C1669 C1667 1.433 . S
C1669 N1672 1.384 . S
C1670 H1661 0.929 . S
C1670 C1662 1.378 . S
C1670 C1665 1.350 . S
C1671 H1658 0.929 . S
C1671 C1663 1.433 . S
C1671 N1673 1.384 . S
N1672 C1668 1.427 . S
N1672 C1669 1.384 . S
N1673 C1665 1.427 . S
N1673 C1671 1.384 . S
H1674 C1680 0.930 . S
H1675 C1684 0.930 . S
H1676 C1689 0.929 . S
H1677 C1687 0.929 . S
H1678 C1682 0.929 . S
H1679 C1688 0.929 . S
C1680 H1674 0.930 . S
C1680 C1681 1.367 . S
C1680 C1688 1.378 . S
C1681 C1680 1.367 . S
C1681 C1689 1.433 . S
C1682 H1678 0.929 . S
C1682 C1684 1.378 . S
C1682 C1686 1.350 . S
C1683 C1686 1.463 . S
C1683 C1688 1.350 . S
C1683 N1691 1.427 . S
C1684 H1675 0.930 . S
C1684 C1682 1.378 . S
C1684 C1685 1.367 . S
C1685 C1684 1.367 . S
C1685 C1687 1.433 . S
C1686 C1682 1.350 . S
C1686 C1683 1.463 . S
C1686 N1690 1.427 . S
C1687 H1677 0.929 . S
C1687 C1685 1.433 . S
C1687 N1690 1.384 . S
C1688 H1679 0.929 . S
C1688 C1680 1.378 . S
C1688 C1683 1.350 . S
C1689 H1676 0.929 . S
C1689 C1681 1.433 . S
C1689 N1691 1.384 . S
N1690 C1686 1.427 . S
N1690 C1687 1.384 . S
N1691 C1683 1.427 . S
N1691 C1689 1.384 . S
H1692 C1698 0.930 . S
H1693 C1702 0.930 . S
H1694 C1707 0.929 . S
H1695 C1705 0.929 . S
H1696 C1700 0.929 . S
H1697 C1706 0.929 . S
C1698 H1692 0.930 . S
C1698 C1699 1.367 . S
C1698 C1706 1.378 . S
C1699 C1698 1.367 . S
C1699 C1707 1.433 . S
C1700 H1696 0.929 . S
C1700 C1702 1.378 . S
C1700 C1704 1.350 . S
C1701 C1704 1.432 1_655 S
C1701 C1706 1.388 . S
C1701 N1709 1.418 . S
C1702 H1693 0.930 . S
C1702 C1700 1.378 . S
C1702 C1703 1.367 . S
C1703 C1702 1.367 . S
C1703 C1705 1.433 . S
C1704 C1700 1.350 . S
C1704 C1701 1.432 1_455 S
C1704 N1708 1.427 . S
C1705 H1695 0.929 . S
C1705 C1703 1.433 . S
C1705 N1708 1.384 . S
C1706 H1697 0.929 . S
C1706 C1698 1.378 . S
C1706 C1701 1.388 . S
C1707 H1694 0.929 . S
C1707 C1699 1.433 . S
C1707 N1709 1.384 . S
N1708 C1704 1.427 . S
N1708 C1705 1.384 . S
N1709 C1701 1.418 . S
N1709 C1707 1.384 . S
H1710 C1716 0.930 . S
H1711 C1720 0.930 . S
H1712 C1725 0.929 . S
H1713 C1723 0.929 . S
H1714 C1718 0.929 . S
H1715 C1724 0.929 . S
C1716 H1710 0.930 . S
C1716 C1717 1.367 . S
C1716 C1724 1.378 . S
C1717 C1716 1.367 . S
C1717 C1725 1.433 . S
C1718 H1714 0.929 . S
C1718 C1720 1.378 . S
C1718 C1722 1.350 . S
C1719 C1722 1.463 . S
C1719 C1724 1.350 . S
C1719 N1727 1.427 . S
C1720 H1711 0.930 . S
C1720 C1718 1.378 . S
C1720 C1721 1.367 . S
C1721 C1720 1.367 . S
C1721 C1723 1.433 . S
C1722 C1718 1.350 . S
C1722 C1719 1.463 . S
C1722 N1726 1.427 . S
C1723 H1713 0.929 . S
C1723 C1721 1.433 . S
C1723 N1726 1.384 . S
C1724 H1715 0.929 . S
C1724 C1716 1.378 . S
C1724 C1719 1.350 . S
C1725 H1712 0.929 . S
C1725 C1717 1.433 . S
C1725 N1727 1.384 . S
N1726 C1722 1.427 . S
N1726 C1723 1.384 . S
N1727 C1719 1.427 . S
N1727 C1725 1.384 . S
H1728 C1734 0.930 . S
H1729 C1738 0.930 . S
H1730 C1743 0.959 . S
H1731 C1741 0.927 . S
H1732 C1736 0.929 . S
H1733 C1742 0.929 . S
C1734 H1728 0.930 . S
C1734 C1735 1.367 . S
C1734 C1742 1.378 . S
C1735 C1734 1.367 . S
C1735 C1743 1.388 1_545 S
C1736 H1732 0.929 . S
C1736 C1738 1.378 . S
C1736 C1740 1.350 . S
C1737 C1740 1.463 1_545 S
C1737 C1742 1.350 . S
C1737 N1745 1.427 1_545 S
C1738 H1729 0.930 . S
C1738 C1736 1.378 . S
C1738 C1739 1.367 . S
C1739 C1738 1.367 . S
C1739 C1741 1.437 1_565 S
C1740 C1736 1.350 . S
C1740 C1737 1.463 1_565 S
C1740 N1744 1.427 1_565 S
C1741 H1731 0.927 . S
C1741 C1739 1.437 1_545 S
C1741 N1744 1.382 . S
C1742 H1733 0.929 . S
C1742 C1734 1.378 . S
C1742 C1737 1.350 . S
C1743 H1730 0.959 . S
C1743 C1735 1.388 1_565 S
C1743 N1745 1.400 . S
N1744 C1740 1.427 1_545 S
N1744 C1741 1.382 . S
N1745 C1737 1.427 1_565 S
N1745 C1743 1.400 . S
H1746 C1752 0.930 1_545 S
H1747 C1756 0.930 1_565 S
H1748 C1761 0.929 . S
H1749 C1759 0.929 . S
H1750 C1754 0.929 . S
H1751 C1760 0.929 . S
C1752 H1746 0.930 1_565 S
C1752 C1753 1.367 . S
C1752 C1760 1.378 1_565 S
C1753 C1752 1.367 . S
C1753 C1761 1.433 . S
C1754 H1750 0.929 . S
C1754 C1756 1.378 1_565 S
C1754 C1758 1.350 1_565 S
C1755 C1758 1.463 1_565 S
C1755 C1760 1.350 1_565 S
C1755 N1763 1.427 . S
C1756 H1747 0.930 1_545 S
C1756 C1754 1.378 1_545 S
C1756 C1757 1.367 . S
C1757 C1756 1.367 . S
C1757 C1759 1.433 . S
C1758 C1754 1.350 1_545 S
C1758 C1755 1.463 1_545 S
C1758 N1762 1.427 . S
C1759 H1749 0.929 . S
C1759 C1757 1.433 . S
C1759 N1762 1.384 . S
C1760 H1751 0.929 . S
C1760 C1752 1.378 1_545 S
C1760 C1755 1.350 1_545 S
C1761 H1748 0.929 . S
C1761 C1753 1.433 . S
C1761 N1763 1.384 . S
N1762 C1758 1.427 . S
N1762 C1759 1.384 . S
N1763 C1755 1.427 . S
N1763 C1761 1.384 . S
H1764 C1770 0.930 . S
H1765 C1774 0.930 . S
H1766 C1779 0.929 . S
H1767 C1777 0.929 . S
H1768 C1772 0.929 . S
H1769 C1778 0.929 . S
C1770 H1764 0.930 . S
C1770 C1771 1.367 . S
C1770 C1778 1.378 . S
C1771 C1770 1.367 . S
C1771 C1779 1.433 . S
C1772 H1768 0.929 . S
C1772 C1774 1.378 . S
C1772 C1776 1.350 . S
C1773 C1776 1.439 1_455 S
C1773 C1778 1.346 . S
C1773 N1781 1.457 . S
C1774 H1765 0.930 . S
C1774 C1772 1.378 . S
C1774 C1775 1.367 . S
C1775 C1774 1.367 . S
C1775 C1777 1.433 . S
C1776 C1772 1.350 . S
C1776 C1773 1.439 1_655 S
C1776 N1780 1.427 . S
C1777 H1767 0.929 . S
C1777 C1775 1.433 . S
C1777 N1780 1.384 . S
C1778 H1769 0.929 . S
C1778 C1770 1.378 . S
C1778 C1773 1.346 . S
C1779 H1766 0.929 . S
C1779 C1771 1.433 . S
C1779 N1781 1.384 . S
N1780 C1776 1.427 . S
N1780 C1777 1.384 . S
N1781 C1773 1.457 . S
N1781 C1779 1.384 . S
H1782 C1788 0.930 . S
H1783 C1792 0.930 . S
H1784 C1797 0.929 . S
H1785 C1795 0.929 . S
H1786 C1790 0.929 . S
H1787 C1796 0.929 . S
C1788 H1782 0.930 . S
C1788 C1789 1.367 . S
C1788 C1796 1.378 . S
C1789 C1788 1.367 . S
C1789 C1797 1.433 . S
C1790 H1786 0.929 . S
C1790 C1792 1.378 . S
C1790 C1794 1.350 . S
C1791 C1794 1.463 . S
C1791 C1796 1.350 . S
C1791 N1799 1.427 . S
C1792 H1783 0.930 . S
C1792 C1790 1.378 . S
C1792 C1793 1.367 . S
C1793 C1792 1.367 . S
C1793 C1795 1.433 . S
C1794 C1790 1.350 . S
C1794 C1791 1.463 . S
C1794 N1798 1.427 . S
C1795 H1785 0.929 . S
C1795 C1793 1.433 . S
C1795 N1798 1.384 . S
C1796 H1787 0.929 . S
C1796 C1788 1.378 . S
C1796 C1791 1.350 . S
C1797 H1784 0.929 . S
C1797 C1789 1.433 . S
C1797 N1799 1.384 . S
N1798 C1794 1.427 . S
N1798 C1795 1.384 . S
N1799 C1791 1.427 . S
N1799 C1797 1.384 . S
C511 C76 1.605 . S
C515 C6 1.592 . S
C529 C20 1.619 . S
C533 C48 1.609 . S
C547 C62 1.405 . S
C551 C34 1.402 . S
C565 C90 1.605 . S
C569 C160 1.613 . S
C583 C104 1.616 . S
C587 C132 1.615 . S
C601 C146 1.401 . S
C605 C118 1.410 . S
C619 C244 1.422 . S
C623 C174 1.465 . S
C637 C188 1.498 . S
C641 C216 1.493 . S
C655 C230 1.406 . S
C659 C202 1.416 . S
C673 C258 1.557 . S
C677 C328 1.562 . S
C691 C272 1.355 . S
C695 C300 1.407 . S
C709 C286 1.479 . S
C713 C314 1.513 . S
C727 C342 1.558 . S
C731 C412 1.555 . S
C745 C384 1.408 . S
C749 C356 1.367 . S
C763 C370 1.477 . S
C767 C398 1.514 . S
C781 C426 1.466 . S
C785 C496 1.423 . S
C799 C440 1.503 . S
C803 C468 1.501 . S
C817 C454 1.421 . S
C821 C482 1.398 . S
C835 C147 2.166 . S
C839 C9 2.108 . S
C853 C161 2.043 . S
C857 C23 1.977 . S
C871 C133 2.008 . S
C875 C37 1.944 . S
C889 C119 2.123 . S
C893 C51 2.080 . S
C907 C65 2.013 . S
C911 C91 2.065 . S
C925 C79 1.875 . S
C929 C105 1.997 . S
C943 C93 2.109 . S
C947 C63 2.168 . S
C961 C107 1.976 . S
C965 C77 2.041 . S
C979 C121 1.934 . S
C983 C49 1.995 . S
C997 C35 2.129 . S
C1001 C135 2.088 . S
C1015 C7 2.070 . S
C1019 C149 2.018 . S
C1033 C163 1.887 . S
C1037 C21 1.996 . S
C1051 C177 1.354 . S
C1055 C315 1.366 . S
C1069 C191 2.139 . S
C1073 C329 2.170 . S
C1087 C301 1.711 . S
C1091 C205 1.604 . S
C1105 C219 1.882 . S
C1109 C287 1.923 1_556 S
C1123 C233 2.147 . S
C1127 C259 2.156 . S
C1141 C247 2.084 . S
C1145 C273 2.054 1_556 S
C1159 C261 1.974 . S
C1163 C231 2.055 . S
C1177 C245 1.973 . S
C1181 C275 1.978 . S
C1195 C217 2.223 . S
C1199 C289 2.259 . S
C1213 C303 1.429 . S
C1217 C203 1.542 . S
C1231 C175 1.351 . S
C1235 C317 1.315 . S
C1249 C189 2.211 . S
C1253 C331 2.132 . S
C1267 C483 2.055 . S
C1271 C345 1.961 . S
C1285 C359 1.977 . S
C1289 C497 1.972 . S
C1303 C373 2.259 . S
C1307 C469 2.220 . S
C1321 C455 1.542 . S
C1325 C387 1.444 . S
C1339 C427 1.351 . S
C1343 C401 1.310 . S
C1357 C441 2.221 . S
C1361 C415 2.136 . S
C1375 C429 1.356 . S
C1379 C399 1.360 . S
C1393 C413 2.171 . S
C1397 C443 2.141 . S
C1411 C457 1.604 . S
C1415 C385 1.711 . S
C1429 C371 1.913 1_554 S
C1433 C471 1.872 . S
C1447 C343 2.160 . S
C1451 C485 2.143 . S
C1465 C357 2.065 1_554 S
C1469 C499 2.092 . S
C1483 C232 1.736 . S
C1487 C8 1.740 1_556 S
C1501 C22 1.667 . S
C1505 C246 1.604 . S
C1519 C218 1.996 . S
C1523 C36 2.037 1_556 S
C1537 C372 1.601 . S
C1541 C50 1.614 . S
C1555 C64 2.010 . S
C1559 C344 2.013 . S
C1573 C78 1.805 . S
C1577 C358 1.726 . S
C1591 C92 1.738 1_554 S
C1595 C484 1.738 . S
C1609 C498 1.619 . S
C1613 C106 1.661 . S
C1627 C470 1.991 . S
C1631 C120 2.038 1_554 S
C1645 C288 1.620 . S
C1649 C134 1.633 . S
C1663 C148 2.009 . S
C1667 C260 2.012 . S
C1681 C162 1.793 . S
C1685 C274 1.726 . S
C1699 C176 1.230 . S
C1703 C400 1.228 . S
C1717 C414 2.103 . S
C1721 C190 2.097 . S
C1735 C386 0.817 . S
C1739 C204 0.820 . S
C1753 C302 0.774 . S
C1757 C456 0.771 . S
C1771 C428 1.226 . S
C1775 C316 1.231 . S
C1789 C442 2.106 . S
C1793 C330 2.116 . S
