# Generated by pormake.
# Topology wkh, (6)-cn, num edge types: 1
# Building blocks:
#     Node 0, Type 0, BuildingBlock: VOLQOD_clean_sbu_1, # of connection points: 6
#     Node 1, Type 0, BuildingBlock: VOLQOD_clean_sbu_1, # of connection points: 6
#     Node 2, Type 0, BuildingBlock: VOLQOD_clean_sbu_1, # of connection points: 6
#     Node 3, Type 0, BuildingBlock: VOLQOD_clean_sbu_1, # of connection points: 6
#     Node 4, Type 0, BuildingBlock: VOLQOD_clean_sbu_1, # of connection points: 6
#     Node 5, Type 0, BuildingBlock: VOLQOD_clean_sbu_1, # of connection points: 6
#     Node 6, Type 0, BuildingBlock: VOLQOD_clean_sbu_1, # of connection points: 6
#     Node 7, Type 0, BuildingBlock: VOLQOD_clean_sbu_1, # of connection points: 6
#     Node 8, Type 0, BuildingBlock: VOLQOD_clean_sbu_1, # of connection points: 6
#     Node 9, Type 0, BuildingBlock: VOLQOD_clean_sbu_1, # of connection points: 6
#     Node 10, Type 0, BuildingBlock: VOLQOD_clean_sbu_1, # of connection points: 6
#     Node 11, Type 0, BuildingBlock: VOLQOD_clean_sbu_1, # of connection points: 6
#     Edge 12, Type (0, 0), BuildingBlock: OJICUG_clean_linker_0, # of connection points: 2
#     Edge 13, Type (0, 0), BuildingBlock: OJICUG_clean_linker_0, # of connection points: 2
#     Edge 14, Type (0, 0), BuildingBlock: OJICUG_clean_linker_0, # of connection points: 2
#     Edge 15, Type (0, 0), BuildingBlock: OJICUG_clean_linker_0, # of connection points: 2
#     Edge 16, Type (0, 0), BuildingBlock: OJICUG_clean_linker_0, # of connection points: 2
#     Edge 17, Type (0, 0), BuildingBlock: OJICUG_clean_linker_0, # of connection points: 2
#     Edge 18, Type (0, 0), BuildingBlock: OJICUG_clean_linker_0, # of connection points: 2
#     Edge 19, Type (0, 0), BuildingBlock: OJICUG_clean_linker_0, # of connection points: 2
#     Edge 20, Type (0, 0), BuildingBlock: OJICUG_clean_linker_0, # of connection points: 2
#     Edge 21, Type (0, 0), BuildingBlock: OJICUG_clean_linker_0, # of connection points: 2
#     Edge 22, Type (0, 0), BuildingBlock: OJICUG_clean_linker_0, # of connection points: 2
#     Edge 23, Type (0, 0), BuildingBlock: OJICUG_clean_linker_0, # of connection points: 2
#     Edge 24, Type (0, 0), BuildingBlock: OJICUG_clean_linker_0, # of connection points: 2
#     Edge 25, Type (0, 0), BuildingBlock: OJICUG_clean_linker_0, # of connection points: 2
#     Edge 26, Type (0, 0), BuildingBlock: OJICUG_clean_linker_0, # of connection points: 2
#     Edge 27, Type (0, 0), BuildingBlock: OJICUG_clean_linker_0, # of connection points: 2
#     Edge 28, Type (0, 0), BuildingBlock: OJICUG_clean_linker_0, # of connection points: 2
#     Edge 29, Type (0, 0), BuildingBlock: OJICUG_clean_linker_0, # of connection points: 2
#     Edge 30, Type (0, 0), BuildingBlock: OJICUG_clean_linker_0, # of connection points: 2
#     Edge 31, Type (0, 0), BuildingBlock: OJICUG_clean_linker_0, # of connection points: 2
#     Edge 32, Type (0, 0), BuildingBlock: OJICUG_clean_linker_0, # of connection points: 2
#     Edge 33, Type (0, 0), BuildingBlock: OJICUG_clean_linker_0, # of connection points: 2
#     Edge 34, Type (0, 0), BuildingBlock: OJICUG_clean_linker_0, # of connection points: 2
#     Edge 35, Type (0, 0), BuildingBlock: OJICUG_clean_linker_0, # of connection points: 2
#     Edge 36, Type (0, 0), BuildingBlock: OJICUG_clean_linker_0, # of connection points: 2
#     Edge 37, Type (0, 0), BuildingBlock: OJICUG_clean_linker_0, # of connection points: 2
#     Edge 38, Type (0, 0), BuildingBlock: OJICUG_clean_linker_0, # of connection points: 2
#     Edge 39, Type (0, 0), BuildingBlock: OJICUG_clean_linker_0, # of connection points: 2
#     Edge 40, Type (0, 0), BuildingBlock: OJICUG_clean_linker_0, # of connection points: 2
#     Edge 41, Type (0, 0), BuildingBlock: OJICUG_clean_linker_0, # of connection points: 2
#     Edge 42, Type (0, 0), BuildingBlock: OJICUG_clean_linker_0, # of connection points: 2
#     Edge 43, Type (0, 0), BuildingBlock: OJICUG_clean_linker_0, # of connection points: 2
#     Edge 44, Type (0, 0), BuildingBlock: OJICUG_clean_linker_0, # of connection points: 2
#     Edge 45, Type (0, 0), BuildingBlock: OJICUG_clean_linker_0, # of connection points: 2
#     Edge 46, Type (0, 0), BuildingBlock: OJICUG_clean_linker_0, # of connection points: 2
#     Edge 47, Type (0, 0), BuildingBlock: OJICUG_clean_linker_0, # of connection points: 2
# Relax obj value: 0.361
# Max RMSD: 0.263
# Mean RMSD: 0.263
data_MOF--net-wkh--node1-VOLQOD_clean_sbu_1--edge1-OJICUG_clean_linker_0
_symmetry_space_group_name_H-M    P1
_symmetry_Int_Tables_number       1
_symmetry_cell_setting            triclinic
loop_
_symmetry_equiv_pos_as_xyz
'x, y, z'
_cell_length_a     20.78955
_cell_length_b     20.837277
_cell_length_c     67.563184
_cell_angle_alpha  89.985857
_cell_angle_beta   90.006864
_cell_angle_gamma 120.00943
loop_
_atom_site_label
_atom_site_type_symbol
_atom_site_fract_x
_atom_site_fract_y
_atom_site_fract_z
_atom_type_partial_charge
O0 O 0.09678 0.31497 0.04414 0.0
Zn1 Zn 0.11481 0.29359 0.01658 0.0
O2 O 0.21906 0.33441 0.01211 0.0
Zn3 Zn 0.24354 0.25958 0.00534 0.0
Zn4 Zn 0.27086 0.37704 0.03661 0.0
Zn5 Zn 0.25178 0.40491 0.99033 0.0
O6 O 0.29788 0.27925 0.97979 0.0
O7 O 0.27386 0.36145 0.96588 0.0
O8 O 0.05735 0.18455 0.0114 0.0
O9 O 0.14954 0.16498 0.00279 0.0
O10 O 0.29807 0.23908 0.02634 0.0
O11 O 0.29091 0.30431 0.05115 0.0
O12 O 0.37239 0.4591 0.02856 0.0
O13 O 0.07497 0.34158 -0.00079 0.0
O14 O 0.35604 0.48724 -0.00227 0.0
O15 O 0.17031 0.43199 0.98299 0.0
C16 C 0.13674 0.36068 0.0575 0.0
C17 C 0.29947 0.31715 0.96487 0.0
C18 C 0.30568 0.2559 0.04457 0.0
C19 C 0.0811 0.14197 0.00581 0.0
C20 C 0.39824 0.49536 0.01249 0.0
C21 C 0.10086 0.39618 0.98736 0.0
O22 O 0.2076 0.39826 0.05591 0.0
O23 O 0.79407 0.09323 0.20956 0.0
Zn24 Zn 0.82251 0.11569 0.1811 0.0
O25 O 0.88192 0.21989 0.17719 0.0
Zn26 Zn 0.98048 0.24737 0.16919 0.0
Zn27 Zn 0.89081 0.26789 0.20201 0.0
Zn28 Zn 0.84339 0.25315 0.15599 0.0
O29 O 0.01788 0.32005 0.14688 0.0
O30 O 0.90968 0.27562 0.13151 0.0
O31 O 0.87188 0.06162 0.17023 0.0
O32 O 0.97506 0.15733 0.15835 0.0
O33 O 0.05266 0.28063 0.19182 0.0
O34 O 0.9835 0.28591 0.21594 0.0
O35 O 0.90767 0.3694 0.19531 0.0
O36 O 0.72838 0.07824 0.16645 0.0
O37 O 0.86495 0.35617 0.16432 0.0
O38 O 0.73387 0.17207 0.14935 0.0
C39 C 0.7844 0.13035 0.22305 0.0
C40 C 0.98075 0.31217 0.1312 0.0
C41 C 0.04382 0.291 0.20993 0.0
C42 C 0.93136 0.08798 0.16011 0.0
C43 C 0.89719 0.39655 0.17949 0.0
C44 C 0.6988 0.10379 0.15476 0.0
O45 O 0.80879 0.19997 0.22114 0.0
O46 O 0.68303 0.77614 0.3774 0.0
Zn47 Zn 0.70498 0.81441 0.34986 0.0
O48 O 0.66573 0.87862 0.34508 0.0
Zn49 Zn 0.74192 0.97797 0.3388 0.0
Zn50 Zn 0.6214 0.88714 0.36929 0.0
Zn51 Zn 0.59712 0.84191 0.32292 0.0
O52 O 0.72634 0.01283 0.31268 0.0
O53 O 0.64474 0.90668 0.29856 0.0
O54 O 0.81395 0.86442 0.34516 0.0
O55 O 0.83632 0.9776 0.33735 0.0
O56 O 0.76069 0.05267 0.35981 0.0
O57 O 0.69379 0.97866 0.38421 0.0
O58 O 0.54012 0.90708 0.36095 0.0
O59 O 0.65682 0.72674 0.33266 0.0
O60 O 0.51592 0.86622 0.32973 0.0
O61 O 0.5679 0.73271 0.31593 0.0
C62 C 0.63682 0.77061 0.39058 0.0
C63 C 0.6903 0.97631 0.29754 0.0
C64 C 0.74287 0.04214 0.37799 0.0
C65 C 0.85801 0.93122 0.3403 0.0
C66 C 0.50598 0.89856 0.34459 0.0
C67 C 0.60265 0.6984 0.32065 0.0
O68 O 0.59872 0.80308 0.38865 0.0
O69 O 0.9019 0.68328 0.54412 0.0
Zn70 Zn 0.88351 0.70419 0.51653 0.0
O71 O 0.77917 0.6629 0.51213 0.0
Zn72 Zn 0.75398 0.73728 0.50543 0.0
Zn73 Zn 0.72769 0.62012 0.53666 0.0
Zn74 Zn 0.74655 0.59248 0.49036 0.0
O75 O 0.69936 0.71738 0.47991 0.0
O76 O 0.72438 0.63598 0.46594 0.0
O77 O 0.94043 0.81321 0.51124 0.0
O78 O 0.84765 0.83208 0.50277 0.0
O79 O 0.6996 0.75761 0.52651 0.0
O80 O 0.70782 0.69279 0.55128 0.0
O81 O 0.62607 0.53802 0.52863 0.0
O82 O 0.92349 0.65622 0.49919 0.0
O83 O 0.64234 0.51004 0.49778 0.0
O84 O 0.82818 0.56561 0.48302 0.0
C85 C 0.8622 0.63736 0.55749 0.0
C86 C 0.69826 0.67988 0.46495 0.0
C87 C 0.69267 0.74101 0.54476 0.0
C88 C 0.91622 0.85548 0.50568 0.0
C89 C 0.60017 0.50185 0.51255 0.0
C90 C 0.89765 0.60154 0.48737 0.0
O91 O 0.79137 0.59921 0.55589 0.0
O92 O 0.20586 0.90513 0.70973 0.0
Zn93 Zn 0.17733 0.88308 0.68128 0.0
O94 O 0.11739 0.77897 0.67726 0.0
Zn95 Zn 0.01912 0.75237 0.6692 0.0
Zn96 Zn 0.10804 0.73056 0.70207 0.0
Zn97 Zn 0.15577 0.74562 0.65604 0.0
O98 O 0.98142 0.6799 0.64685 0.0
O99 O 0.0896 0.72335 0.63154 0.0
O100 O 0.12868 0.93794 0.67051 0.0
O101 O 0.02543 0.84293 0.65841 0.0
O102 O 0.94675 0.7191 0.69179 0.0
O103 O 0.01519 0.71251 0.71592 0.0
O104 O 0.09105 0.62907 0.69532 0.0
O105 O 0.27135 0.92025 0.66661 0.0
O106 O 0.13399 0.64251 0.66434 0.0
O107 O 0.26537 0.82645 0.6494 0.0
C108 C 0.21503 0.86764 0.72321 0.0
C109 C 0.01852 0.68728 0.6312 0.0
C110 C 0.95515 0.708 0.70988 0.0
C111 C 0.06947 0.91216 0.6603 0.0
C112 C 0.10164 0.60203 0.6795 0.0
C113 C 0.3007 0.89465 0.65487 0.0
O114 O 0.18999 0.79792 0.72129 0.0
O115 O 0.31555 0.221 0.87739 0.0
Zn116 Zn 0.29402 0.18272 0.84985 0.0
O117 O 0.33392 0.11904 0.84517 0.0
Zn118 Zn 0.25833 0.01939 0.83896 0.0
Zn119 Zn 0.37832 0.111 0.86941 0.0
Zn120 Zn 0.40256 0.1559 0.82304 0.0
O121 O 0.27426 0.9846 0.81288 0.0
O122 O 0.35506 0.09098 0.7987 0.0
O123 O 0.18503 0.13198 0.84506 0.0
O124 O 0.16358 0.01898 0.83742 0.0
O125 O 0.2399 0.94502 0.86006 0.0
O126 O 0.30595 0.01974 0.88442 0.0
O127 O 0.45964 0.09102 0.86112 0.0
O128 O 0.34202 0.27049 0.83264 0.0
O129 O 0.48392 0.13185 0.82989 0.0
O130 O 0.43143 0.26501 0.81603 0.0
C131 C 0.36203 0.22712 0.89057 0.0
C132 C 0.30996 0.02124 0.79771 0.0
C133 C 0.25728 0.95601 0.87826 0.0
C134 C 0.14137 0.06501 0.84026 0.0
C135 C 0.49383 0.09952 0.84477 0.0
C136 C 0.39638 0.29907 0.82069 0.0
O137 O 0.40071 0.19526 0.88865 0.0
O138 O 0.69978 0.90589 0.76752 0.0
Zn139 Zn 0.70622 0.88387 0.79595 0.0
O140 O 0.66121 0.77982 0.79999 0.0
Zn141 Zn 0.73175 0.75166 0.80798 0.0
Zn142 Zn 0.62141 0.7315 0.77526 0.0
Zn143 Zn 0.59032 0.74737 0.82134 0.0
O144 O 0.69745 0.68095 0.83077 0.0
O145 O 0.63647 0.72866 0.84593 0.0
O146 O 0.8099 0.93783 0.80663 0.0
O147 O 0.81729 0.84196 0.81832 0.0
O148 O 0.76938 0.71685 0.78541 0.0
O149 O 0.69577 0.71329 0.76126 0.0
O150 O 0.53679 0.63014 0.78214 0.0
O151 O 0.65004 0.92165 0.81061 0.0
O152 O 0.50959 0.64334 0.81338 0.0
O153 O 0.56116 0.82787 0.82766 0.0
C154 C 0.6525 0.86863 0.75412 0.0
C155 C 0.67075 0.69202 0.8465 0.0
C156 C 0.75038 0.70715 0.76728 0.0
C157 C 0.84319 0.9113 0.81657 0.0
C158 C 0.50042 0.60296 0.79814 0.0
C159 C 0.59467 0.89613 0.82224 0.0
O160 O 0.60703 0.79907 0.75613 0.0
O161 O 0.79334 0.69591 0.9337 0.0
Zn162 Zn 0.82516 0.70528 0.96205 0.0
O163 O 0.88418 0.65975 0.96601 0.0
Zn164 Zn 0.98253 0.72976 0.97436 0.0
Zn165 Zn 0.89419 0.62122 0.94115 0.0
Zn166 Zn 0.84498 0.5876 0.98716 0.0
O167 O 0.01872 0.69432 -0.00314 0.0
O168 O 0.91003 0.6301 0.01187 0.0
O169 O 0.87666 0.81013 0.97214 0.0
O170 O 0.9783 0.81569 0.98462 0.0
O171 O 0.05628 0.76711 0.95226 0.0
O172 O 0.98837 0.69578 0.92753 0.0
O173 O 0.91093 0.53656 0.94806 0.0
O174 O 0.73203 0.65079 0.97741 0.0
O175 O 0.86668 0.50609 0.9789 0.0
O176 O 0.73592 0.56028 0.99385 0.0
C177 C 0.78418 0.64913 0.92024 0.0
C178 C 0.98103 0.66444 0.0124 0.0
C179 C 0.04895 0.74922 0.93408 0.0
C180 C 0.93601 0.84284 0.98234 0.0
C181 C 0.89992 0.49859 0.96384 0.0
C182 C 0.70197 0.59519 0.98893 0.0
O183 O 0.81142 0.60615 0.92198 0.0
O184 O 0.09344 0.77561 0.09959 0.0
Zn185 Zn 0.10992 0.81581 0.12699 0.0
O186 O 0.21378 0.88008 0.1317 0.0
Zn187 Zn 0.2371 0.97921 0.13819 0.0
Zn188 Zn 0.26685 0.88948 0.10741 0.0
Zn189 Zn 0.24589 0.84308 0.15377 0.0
O190 O 0.2864 0.01312 0.16442 0.0
O191 O 0.26331 0.90712 0.17827 0.0
O192 O 0.05129 0.8666 0.13135 0.0
O193 O 0.1426 0.97952 0.13927 0.0
O194 O 0.29534 0.05482 0.11765 0.0
O195 O 0.28724 0.98221 0.09279 0.0
O196 O 0.3682 0.9093 0.11578 0.0
O197 O 0.07003 0.72871 0.14456 0.0
O198 O 0.35154 0.86762 0.14692 0.0
O199 O 0.16563 0.73403 0.16078 0.0
C200 C 0.13423 0.77053 0.08635 0.0
C201 C 0.28666 0.97652 0.17944 0.0
C202 C 0.30305 0.04561 0.09942 0.0
C203 C 0.07442 0.93352 0.13616 0.0
C204 C 0.3939 0.90048 0.13209 0.0
C205 C 0.09618 0.70019 0.15641 0.0
O206 O 0.20508 0.80493 0.08804 0.0
O207 O 0.29921 0.09173 0.26743 0.0
Zn208 Zn 0.29277 0.11352 0.29586 0.0
O209 O 0.33731 0.21749 0.29997 0.0
Zn210 Zn 0.26629 0.24491 0.30801 0.0
Zn211 Zn 0.37697 0.26606 0.27525 0.0
Zn212 Zn 0.40824 0.25005 0.32133 0.0
O213 O 0.30039 0.31566 0.33078 0.0
O214 O 0.36213 0.26872 0.34594 0.0
O215 O 0.1892 0.05892 0.30656 0.0
O216 O 0.18119 0.15426 0.3184 0.0
O217 O 0.22832 0.27955 0.28547 0.0
O218 O 0.30252 0.28438 0.26133 0.0
O219 O 0.4616 0.36736 0.28212 0.0
O220 O 0.34932 0.07603 0.31046 0.0
O221 O 0.48888 0.35408 0.31335 0.0
O222 O 0.43772 0.16975 0.32762 0.0
C223 C 0.34637 0.12922 0.25403 0.0
C224 C 0.32753 0.30505 0.3465 0.0
C225 C 0.24759 0.28994 0.26736 0.0
C226 C 0.15572 0.085 0.31659 0.0
C227 C 0.49805 0.39448 0.29811 0.0
C228 C 0.40457 0.1016 0.32212 0.0
O229 O 0.39154 0.19882 0.25604 0.0
O230 O 0.20531 0.302 0.43368 0.0
Zn231 Zn 0.17332 0.29255 0.46201 0.0
O232 O 0.11456 0.3384 0.46592 0.0
Zn233 Zn 0.01597 0.26869 0.47418 0.0
Zn234 Zn 0.10496 0.37724 0.44106 0.0
Zn235 Zn 0.15374 0.41037 0.48709 0.0
O236 O 0.97986 0.30405 0.4967 0.0
O237 O 0.08853 0.3677 0.51177 0.0
O238 O 0.12127 0.18759 0.47207 0.0
O239 O 0.01955 0.18235 0.48437 0.0
O240 O 0.94244 0.23183 0.45203 0.0
O241 O 0.01099 0.30286 0.42734 0.0
O242 O 0.08812 0.46185 0.44801 0.0
O243 O 0.26639 0.34675 0.47743 0.0
O244 O 0.13216 0.492 0.47886 0.0
O245 O 0.26271 0.43744 0.49382 0.0
C246 C 0.21481 0.34894 0.42023 0.0
C247 C 0.01753 0.33357 0.51227 0.0
C248 C 0.95016 0.24964 0.43384 0.0
C249 C 0.06162 0.15493 0.48216 0.0
C250 C 0.09898 0.49962 0.46381 0.0
C251 C 0.29653 0.40235 0.48895 0.0
O252 O 0.18789 0.3922 0.42195 0.0
O253 O 0.90581 0.22292 0.59954 0.0
Zn254 Zn 0.88975 0.18303 0.62697 0.0
O255 O 0.78602 0.11815 0.63177 0.0
Zn256 Zn 0.76378 0.01941 0.63837 0.0
Zn257 Zn 0.73258 0.10817 0.60748 0.0
Zn258 Zn 0.75372 0.15504 0.65383 0.0
O259 O 0.71425 0.98529 0.66457 0.0
O260 O 0.7363 0.09104 0.67836 0.0
O261 O 0.94924 0.13323 0.63137 0.0
O262 O 0.85882 0.02018 0.63956 0.0
O263 O 0.70618 0.94346 0.61784 0.0
O264 O 0.71205 0.01518 0.59298 0.0
O265 O 0.6313 0.08843 0.61587 0.0
O266 O 0.92925 0.27017 0.64448 0.0
O267 O 0.64805 0.13037 0.64697 0.0
O268 O 0.83367 0.26419 0.66085 0.0
C269 C 0.86474 0.22734 0.58628 0.0
C270 C 0.7134 0.02173 0.67955 0.0
C271 C 0.69734 0.95214 0.59965 0.0
C272 C 0.92682 0.06661 0.63635 0.0
C273 C 0.60565 0.09742 0.63216 0.0
C274 C 0.90303 0.2984 0.65639 0.0
O275 O 0.79389 0.19243 0.58798 0.0
C276 C 0.59487 0.52718 0.01288 0.0
C277 C 0.62584 0.57268 -0.00378 0.0
H278 H 0.49959 0.46958 0.03165 0.0
C279 C 0.58378 0.59934 0.98646 0.0
H280 H 0.62588 0.50645 0.02089 0.0
C281 C 0.51171 0.57855 0.99259 0.0
C282 C 0.47967 0.53128 0.00886 0.0
H283 H 0.60571 0.6349 0.9736 0.0
H284 H 0.48008 0.59745 0.98412 0.0
C285 C 0.52284 0.50721 0.01923 0.0
C286 C 0.06046 0.59303 0.18008 0.0
C287 C 0.04295 0.62493 0.16418 0.0
H288 H 0.02639 0.49637 0.198 0.0
C289 C 0.97232 0.5837 0.15526 0.0
H290 H 0.11379 0.6233 0.18741 0.0
C291 C 0.92237 0.51131 0.16127 0.0
C292 C 0.94086 0.47815 0.17659 0.0
H293 H 0.95625 0.60625 0.14302 0.0
H294 H 0.87044 0.48018 0.15332 0.0
C295 C 0.00967 0.52062 0.18633 0.0
C296 C 0.47181 0.0614 0.34596 0.0
C297 C 0.42828 0.04861 0.32895 0.0
H298 H 0.52798 0.02228 0.36477 0.0
C299 C 0.404 0.98176 0.31848 0.0
H300 H 0.49062 0.11165 0.3545 0.0
C301 C 0.42495 0.9305 0.32434 0.0
C302 C 0.47007 0.94391 0.34101 0.0
H303 H 0.37002 0.96955 0.30533 0.0
H304 H 0.40777 0.88143 0.31539 0.0
C305 C 0.492 0.00933 0.35201 0.0
C306 C 0.40363 0.47029 0.51291 0.0
C307 C 0.3726 0.42471 0.49626 0.0
H308 H 0.49894 0.52789 0.53167 0.0
C309 C 0.41457 0.39788 0.48654 0.0
H310 H 0.37269 0.49116 0.52088 0.0
C311 C 0.48663 0.41862 0.49268 0.0
C312 C 0.51873 0.46597 0.50893 0.0
H313 H 0.3926 0.36227 0.4737 0.0
H314 H 0.5182 0.3996 0.48424 0.0
C315 C 0.47564 0.49019 0.51927 0.0
C316 C 0.9386 0.40542 0.68008 0.0
C317 C 0.95612 0.37369 0.66415 0.0
H318 H 0.97257 0.50197 0.69804 0.0
C319 C 0.02669 0.41508 0.65521 0.0
H320 H 0.88532 0.37502 0.68743 0.0
C321 C 0.07656 0.48745 0.66122 0.0
C322 C 0.05805 0.52046 0.67658 0.0
H323 H 0.04279 0.39266 0.64295 0.0
H324 H 0.12845 0.5187 0.65327 0.0
C325 C 0.9893 0.47784 0.68634 0.0
C326 C 0.5959 0.01635 0.81871 0.0
C327 C 0.5712 0.94925 0.82911 0.0
H328 H 0.59253 0.11693 0.81568 0.0
C329 C 0.52741 0.93631 0.84607 0.0
H330 H 0.63009 0.02869 0.8056 0.0
C331 C 0.50735 0.98844 0.85214 0.0
C332 C 0.52966 0.0541 0.8412 0.0
H333 H 0.50827 0.88587 0.85455 0.0
H334 H 0.47114 0.97537 0.86485 0.0
C335 C 0.57506 0.06767 0.82458 0.0
C336 C 0.4884 0.47908 0.79094 0.0
C337 C 0.46272 0.5214 0.80102 0.0
H338 H 0.48946 0.37638 0.78944 0.0
C339 C 0.41206 0.48813 0.81655 0.0
H340 H 0.52864 0.50345 0.7791 0.0
C341 C 0.38986 0.41572 0.82241 0.0
C342 C 0.41852 0.37455 0.81313 0.0
H343 H 0.39182 0.51916 0.82474 0.0
H344 H 0.35196 0.39306 0.83481 0.0
C345 C 0.46701 0.4066 0.79704 0.0
C346 C 0.92617 0.4101 0.98234 0.0
C347 C 0.94421 0.46125 0.9669 0.0
H348 H 0.96081 0.35 0.00075 0.0
C349 C 0.01312 0.48772 0.95718 0.0
H350 H 0.8742 0.38921 0.99027 0.0
C351 C 0.06434 0.46669 0.96354 0.0
C352 C 0.04724 0.41776 0.97953 0.0
H353 H 0.02953 0.5283 0.94543 0.0
H354 H 0.11768 0.48981 0.9562 0.0
C355 C 0.97658 0.38826 0.98844 0.0
C356 C 0.51883 0.01182 0.12482 0.0
C357 C 0.47531 0.94597 0.13569 0.0
H358 H 0.62261 0.11444 0.12248 0.0
C359 C 0.50714 0.93218 0.15226 0.0
H360 H 0.49573 0.02508 0.11214 0.0
C361 C 0.57946 0.98341 0.15816 0.0
C362 C 0.62206 0.05068 0.14783 0.0
H363 H 0.47524 0.88278 0.16111 0.0
H364 H 0.60126 0.97086 0.17124 0.0
C365 C 0.59119 0.06386 0.13091 0.0
C366 C 0.51033 0.51847 0.2909 0.0
C367 C 0.53588 0.47603 0.30098 0.0
H368 H 0.50951 0.62129 0.28939 0.0
C369 C 0.58659 0.50921 0.3165 0.0
H370 H 0.47007 0.49417 0.27906 0.0
C371 C 0.60892 0.58163 0.32236 0.0
C372 C 0.58037 0.62292 0.31308 0.0
H373 H 0.60675 0.47809 0.32469 0.0
H374 H 0.64684 0.60421 0.33476 0.0
C375 C 0.53187 0.59097 0.297 0.0
C376 C 0.98568 0.51037 0.45717 0.0
C377 C 0.05457 0.53685 0.4669 0.0
H378 H 0.88105 0.50815 0.45618 0.0
C379 C 0.07247 0.58783 0.48236 0.0
H380 H 0.96935 0.4699 0.44539 0.0
C381 C 0.02198 0.60953 0.48848 0.0
C382 C 0.95134 0.58005 0.47955 0.0
H383 H 0.12442 0.60871 0.49031 0.0
H384 H 0.03765 0.64769 0.50081 0.0
C385 C 0.93436 0.53125 0.46353 0.0
C386 C 0.49253 0.06596 0.65234 0.0
C387 C 0.52425 0.05207 0.63576 0.0
H388 H 0.39849 0.02748 0.67133 0.0
C389 C 0.48058 0.98628 0.6249 0.0
H390 H 0.52453 0.11533 0.66119 0.0
C391 C 0.40819 0.93436 0.631 0.0
C392 C 0.37745 0.94762 0.64793 0.0
H393 H 0.50359 0.97295 0.61221 0.0
H394 H 0.37665 0.8838 0.62257 0.0
C395 C 0.42019 0.01485 0.65825 0.0
C396 C 0.3143 0.33104 0.92801 0.0
C397 C 0.32761 0.30529 0.94587 0.0
H398 H 0.31631 0.3275 0.89641 0.0
C399 C 0.36376 0.26334 0.9453 0.0
H400 H 0.2874 0.36411 0.92791 0.0
C401 C 0.38108 0.24289 0.92723 0.0
C402 C 0.362 0.26349 0.90937 0.0
H403 H 0.37599 0.24359 0.95883 0.0
H404 H 0.4048 0.20696 0.92728 0.0
C405 C 0.33107 0.31013 0.90996 0.0
C406 C 0.98277 0.31803 0.09409 0.0
C407 C 0.02143 0.33768 0.11213 0.0
H408 H 0.98913 0.31117 0.06267 0.0
C409 C 0.09975 0.37541 0.11173 0.0
H410 H 0.92264 0.28962 0.09379 0.0
C411 C 0.13815 0.388 0.09381 0.0
C412 C 0.099 0.36287 0.07593 0.0
H413 H 0.13149 0.39214 0.12534 0.0
H414 H 0.19808 0.41334 0.09411 0.0
C415 C 0.02108 0.33038 0.07622 0.0
C416 C 0.76574 0.13151 0.25968 0.0
C417 C 0.75013 0.09194 0.24186 0.0
H418 H 0.7593 0.12588 0.29129 0.0
C419 C 0.70812 0.01399 0.2424 0.0
H420 H 0.79806 0.19148 0.25976 0.0
C421 C 0.68555 0.97628 0.26044 0.0
C422 C 0.70533 0.01571 0.27834 0.0
H423 H 0.69468 0.98187 0.22888 0.0
H424 H 0.65549 0.91625 0.26037 0.0
C425 C 0.74396 0.09377 0.27775 0.0
C426 C 0.66701 0.68712 0.41002 0.0
C427 C 0.6365 0.73411 0.4094 0.0
H428 H 0.71011 0.63268 0.42801 0.0
C429 C 0.61749 0.75485 0.42724 0.0
H430 H 0.68169 0.66959 0.39649 0.0
C431 C 0.63449 0.73418 0.44534 0.0
C432 C 0.67029 0.6919 0.44594 0.0
H433 H 0.59407 0.79105 0.42727 0.0
H434 H 0.62235 0.75406 0.45885 0.0
C435 C 0.6835 0.66601 0.42809 0.0
C436 C 0.86105 0.6105 0.59382 0.0
C437 C 0.90014 0.63562 0.57593 0.0
H438 H 0.86781 0.60671 0.62536 0.0
C439 C 0.9781 0.66855 0.57622 0.0
H440 H 0.8011 0.58485 0.59413 0.0
C441 C 0.01648 0.68124 0.59409 0.0
C442 C 0.97785 0.66156 0.61213 0.0
H443 H 0.01 0.68778 0.56266 0.0
H444 H 0.07662 0.70995 0.59379 0.0
C445 C 0.89952 0.62347 0.61174 0.0
C446 C 0.31475 0.02138 0.76062 0.0
C447 C 0.29484 0.98188 0.77851 0.0
H448 H 0.30552 0.01597 0.72907 0.0
C449 C 0.2559 0.90382 0.7779 0.0
H450 H 0.34507 0.08141 0.76055 0.0
C451 C 0.23386 0.86617 0.75983 0.0
C452 C 0.24956 0.90584 0.74202 0.0
H453 H 0.24045 0.87164 0.79144 0.0
H454 H 0.20127 0.80621 0.7599 0.0
C455 C 0.29196 0.98377 0.74258 0.0
C456 C 0.7253 0.62873 0.86638 0.0
C457 C 0.68879 0.67033 0.86576 0.0
H458 H 0.7835 0.58859 0.88406 0.0
C459 C 0.6767 0.69723 0.8836 0.0
H460 H 0.73511 0.60665 0.85293 0.0
C461 C 0.70475 0.68709 0.9014 0.0
C462 C 0.74516 0.64937 0.90185 0.0
H463 H 0.64858 0.72915 0.88372 0.0
H464 H 0.69684 0.71114 0.91474 0.0
C465 C 0.75296 0.61814 0.88424 0.0
C466 C 0.09934 0.71951 0.03211 0.0
C467 C 0.02104 0.67877 0.03154 0.0
H468 H 0.19701 0.77987 0.04993 0.0
C469 C 0.9818 0.65898 0.04948 0.0
H470 H 0.13152 0.73503 0.01856 0.0
C471 C 0.01951 0.68456 0.06744 0.0
C472 C 0.09736 0.73041 0.06789 0.0
H473 H 0.92168 0.62707 0.04964 0.0
H474 H 0.98712 0.67136 0.08092 0.0
C475 C 0.13713 0.74498 0.05011 0.0
C476 C 0.35044 0.09364 0.19932 0.0
C477 C 0.31117 0.01559 0.19866 0.0
H478 H 0.39385 0.19106 0.21739 0.0
C479 C 0.2918 0.97589 0.21652 0.0
H480 H 0.36704 0.12595 0.1858 0.0
C481 C 0.30694 0.01331 0.23459 0.0
C482 C 0.3426 0.09123 0.2352 0.0
H483 H 0.26198 0.91586 0.21653 0.0
H484 H 0.2884 0.981 0.24809 0.0
C485 C 0.36641 0.1311 0.21741 0.0
C486 C 0.27337 0.36877 0.36635 0.0
C487 C 0.30971 0.32699 0.36575 0.0
H488 H 0.21551 0.40931 0.38401 0.0
C489 C 0.32184 0.3002 0.38361 0.0
H490 H 0.26355 0.39078 0.35288 0.0
C491 C 0.29398 0.31061 0.40141 0.0
C492 C 0.25374 0.34851 0.40184 0.0
H493 H 0.34982 0.26815 0.38375 0.0
H494 H 0.30188 0.28662 0.41477 0.0
C495 C 0.24592 0.37964 0.38421 0.0
C496 C 0.8992 0.27783 0.53199 0.0
C497 C 0.97749 0.31908 0.53141 0.0
H498 H 0.80167 0.21704 0.54984 0.0
C499 C 0.01675 0.33931 0.54934 0.0
H500 H 0.867 0.26193 0.51845 0.0
C501 C 0.97914 0.31371 0.56731 0.0
C502 C 0.90136 0.26738 0.56779 0.0
H503 H 0.07685 0.37163 0.54949 0.0
H504 H 0.01159 0.32731 0.58079 0.0
C505 C 0.86151 0.25231 0.55 0.0
C506 C 0.63296 0.86697 0.71749 0.0
C507 C 0.65654 0.90675 0.73529 0.0
H508 H 0.63284 0.8723 0.68588 0.0
C509 C 0.69232 0.98468 0.7347 0.0
H510 H 0.60545 0.80701 0.71746 0.0
C511 C 0.70776 0.0222 0.71663 0.0
C512 C 0.68862 0.98258 0.69876 0.0
H513 H 0.71071 0.01691 0.74821 0.0
H514 H 0.73765 0.08223 0.71666 0.0
C515 C 0.64926 0.90453 0.6994 0.0
C516 C 0.32404 0.17254 0.09234 0.0
C517 C 0.32021 0.10693 0.0855 0.0
H518 H 0.32305 0.27168 0.08475 0.0
C519 C 0.32369 0.09707 0.06505 0.0
H520 H 0.32225 0.18234 0.10803 0.0
C521 C 0.32455 0.14863 0.0517 0.0
C522 C 0.32151 0.21086 0.05854 0.0
H523 H 0.32169 0.04759 0.05929 0.0
H524 H 0.32314 0.13725 0.03601 0.0
C525 C 0.32448 0.2239 0.07899 0.0
C526 C 0.16714 0.30421 0.21845 0.0
C527 C 0.1015 0.30212 0.22455 0.0
H528 H 0.2652 0.3028 0.22718 0.0
C529 C 0.08861 0.3043 0.2449 0.0
H530 H 0.17908 0.30313 0.20288 0.0
C531 C 0.13796 0.30395 0.25886 0.0
C532 C 0.20137 0.30162 0.25276 0.0
H533 H 0.03881 0.30321 0.25013 0.0
H534 H 0.12484 0.30267 0.27442 0.0
C535 C 0.21659 0.30406 0.2324 0.0
C536 C 0.77538 0.08862 0.41279 0.0
C537 C 0.78742 0.10164 0.39235 0.0
H538 H 0.8171 0.12552 0.44198 0.0
C539 C 0.84828 0.16871 0.38585 0.0
H540 H 0.72876 0.0378 0.41831 0.0
C541 C 0.89915 0.21893 0.39942 0.0
C542 C 0.89013 0.20324 0.41978 0.0
H543 H 0.85892 0.18085 0.37021 0.0
H544 H 0.94731 0.26838 0.39385 0.0
C545 C 0.8262 0.13894 0.42637 0.0
C546 C 0.67363 0.84811 0.55199 0.0
C547 C 0.67734 0.78619 0.5588 0.0
H548 H 0.67648 0.94911 0.55959 0.0
C549 C 0.67568 0.77372 0.57926 0.0
H550 H 0.67404 0.85905 0.5363 0.0
C551 C 0.67672 0.82532 0.59262 0.0
C552 C 0.67983 0.89061 0.58578 0.0
H553 H 0.67769 0.7262 0.585 0.0
H554 H 0.6795 0.81595 0.60829 0.0
C555 C 0.67506 0.8999 0.56535 0.0
C556 C 0.83188 0.69504 0.71833 0.0
C557 C 0.89719 0.69647 0.72444 0.0
H558 H 0.73382 0.69647 0.72705 0.0
C559 C 0.90945 0.69307 0.74479 0.0
H560 H 0.82043 0.69706 0.70277 0.0
C561 C 0.8598 0.69286 0.75875 0.0
C562 C 0.79674 0.69586 0.75265 0.0
H563 H 0.95896 0.69359 0.75003 0.0
H564 H 0.87245 0.6932 0.77431 0.0
C565 C 0.78214 0.69464 0.73228 0.0
C566 C 0.17276 0.86026 0.92667 0.0
C567 C 0.10923 0.7956 0.92008 0.0
H568 H 0.27016 0.96145 0.91862 0.0
C569 C 0.1009 0.77939 0.89974 0.0
H570 H 0.18133 0.87408 0.94226 0.0
C571 C 0.15207 0.8294 0.88618 0.0
C572 C 0.21253 0.89678 0.89267 0.0
H573 H 0.05307 0.72966 0.89417 0.0
H574 H 0.14196 0.81682 0.87055 0.0
C575 C 0.22388 0.91037 0.9131 0.0
C576 C 0.97101 0.03691 0.9899 0.0
C577 C 0.03013 0.06308 0.00336 0.0
H578 H 0.89372 0.94434 0.97236 0.0
C579 C 0.04909 0.01404 0.01212 0.0
H580 H 0.95621 0.07468 0.98299 0.0
C581 C 0.01384 0.94062 0.00624 0.0
C582 C 0.95981 0.91542 0.99126 0.0
H583 H 0.0943 0.03359 0.02269 0.0
H584 H 0.03213 0.90473 0.01263 0.0
C585 C 0.93577 0.96287 0.98381 0.0
C586 C 0.96367 0.92785 0.15173 0.0
C587 C 0.02271 0.96075 0.13825 0.0
H588 H 0.88731 0.94363 0.16955 0.0
C589 C 0.04163 0.02876 0.12951 0.0
H590 H 0.94891 0.87529 0.15862 0.0
C591 C 0.00694 0.0673 0.1356 0.0
C592 C 0.95354 0.03872 0.15073 0.0
H593 H 0.0868 0.05437 0.11893 0.0
H594 H 0.02546 0.1217 0.12935 0.0
C595 C 0.92897 0.96697 0.15801 0.0
C596 C 0.03649 0.96441 0.31827 0.0
C597 C 0.08417 0.03551 0.32587 0.0
H598 H 0.92429 0.87351 0.31735 0.0
C599 C 0.05974 0.06347 0.34122 0.0
H600 H 0.05459 0.94162 0.30655 0.0
C601 C 0.98634 0.02511 0.34723 0.0
C602 C 0.9368 0.95795 0.33818 0.0
H603 H 0.09609 0.11735 0.34771 0.0
H604 H 0.96706 0.05031 0.358 0.0
C605 C 0.9625 0.92546 0.32447 0.0
C606 C 0.98238 0.05668 0.5058 0.0
C607 C 0.03728 0.08215 0.49105 0.0
H608 H 0.90136 0.96358 0.52209 0.0
C609 C 0.06192 0.0349 0.48381 0.0
H610 H 0.96358 0.0924 0.51203 0.0
C611 C 0.02662 0.96085 0.48992 0.0
C612 C 0.9668 0.93444 0.50316 0.0
H613 H 0.10464 0.05363 0.47256 0.0
H614 H 0.04206 0.92328 0.4832 0.0
C615 C 0.94708 0.98327 0.51169 0.0
C616 C 0.07146 0.03299 0.65859 0.0
C617 C 0.04803 0.962 0.65093 0.0
H618 H 0.05048 0.12396 0.6595 0.0
C619 C 0.99614 0.93447 0.63544 0.0
H620 H 0.11194 0.05547 0.67044 0.0
C621 C 0.96156 0.97312 0.62933 0.0
C622 C 0.97912 0.04015 0.63843 0.0
H623 H 0.97858 0.88068 0.62891 0.0
H624 H 0.91735 0.94817 0.61847 0.0
C625 C 0.03686 0.0722 0.65231 0.0
C626 C 0.01318 0.96986 0.84688 0.0
C627 C 0.06246 0.03768 0.83807 0.0
H628 H 0.90363 0.87735 0.84721 0.0
C629 C 0.03647 0.07075 0.82463 0.0
H630 H 0.03265 0.94421 0.85745 0.0
C631 C 0.96245 0.03191 0.81845 0.0
C632 C 0.91499 0.96033 0.82581 0.0
H633 H 0.07445 0.12324 0.81772 0.0
H634 H 0.94411 0.0553 0.80694 0.0
C635 C 0.93975 0.93161 0.8409 0.0
loop_
_geom_bond_atom_site_label_1
_geom_bond_atom_site_label_2
_geom_bond_distance
_geom_bond_site_symmetry_2
_ccdc_geom_bond_type
O0 Zn1 1.953 . S
O0 C16 1.225 . S
Zn1 O0 1.953 . S
Zn1 O2 1.949 . S
Zn1 O8 1.919 . S
Zn1 O13 1.924 . S
O2 Zn1 1.949 . S
O2 Zn3 1.923 . S
O2 Zn4 1.950 . S
O2 Zn5 1.945 1_554 S
Zn3 O2 1.923 . S
Zn3 O6 1.933 1_554 S
Zn3 O9 1.941 . S
Zn3 O10 1.965 . S
Zn4 O2 1.950 . S
Zn4 O11 1.938 . S
Zn4 O12 1.906 . S
Zn4 O22 1.953 . S
Zn5 O2 1.945 1_556 S
Zn5 O7 1.932 . S
Zn5 O14 1.977 . S
Zn5 O15 1.910 . S
O6 Zn3 1.933 1_556 S
O6 C17 1.226 . S
O7 Zn5 1.932 . S
O7 C17 1.307 . S
O8 Zn1 1.919 . S
O8 C19 1.253 . S
O9 Zn3 1.941 . S
O9 C19 1.283 . S
O10 Zn3 1.965 . S
O10 C18 1.303 . S
O11 Zn4 1.938 . S
O11 C18 1.247 . S
O12 Zn4 1.906 . S
O12 C20 1.304 . S
O13 Zn1 1.924 . S
O13 C21 1.311 1_554 S
O14 Zn5 1.977 . S
O14 C20 1.272 1_556 S
O15 Zn5 1.910 . S
O15 C21 1.231 . S
C16 O0 1.225 . S
C16 O22 1.298 . S
C17 O6 1.226 . S
C17 O7 1.307 . S
C18 O10 1.303 . S
C18 O11 1.247 . S
C19 O8 1.253 . S
C19 O9 1.283 . S
C20 O12 1.304 . S
C20 O14 1.272 1_554 S
C21 O13 1.311 1_556 S
C21 O15 1.231 . S
O22 Zn4 1.953 . S
O22 C16 1.298 . S
O23 Zn24 1.953 . S
O23 C39 1.225 . S
Zn24 O23 1.953 . S
Zn24 O25 1.949 . S
Zn24 O31 1.919 . S
Zn24 O36 1.924 . S
O25 Zn24 1.949 . S
O25 Zn26 1.923 1_655 S
O25 Zn27 1.950 . S
O25 Zn28 1.945 . S
Zn26 O25 1.923 1_455 S
Zn26 O29 1.933 . S
Zn26 O32 1.941 . S
Zn26 O33 1.965 . S
Zn27 O25 1.950 . S
Zn27 O34 1.938 1_655 S
Zn27 O35 1.906 . S
Zn27 O45 1.953 . S
Zn28 O25 1.945 . S
Zn28 O30 1.932 . S
Zn28 O37 1.977 . S
Zn28 O38 1.910 . S
O29 Zn26 1.933 . S
O29 C40 1.226 . S
O30 Zn28 1.932 . S
O30 C40 1.307 1_655 S
O31 Zn24 1.919 . S
O31 C42 1.253 . S
O32 Zn26 1.941 . S
O32 C42 1.283 1_455 S
O33 Zn26 1.965 . S
O33 C41 1.303 . S
O34 Zn27 1.938 1_455 S
O34 C41 1.247 . S
O35 Zn27 1.906 . S
O35 C43 1.304 . S
O36 Zn24 1.924 . S
O36 C44 1.311 . S
O37 Zn28 1.977 . S
O37 C43 1.272 . S
O38 Zn28 1.910 . S
O38 C44 1.231 . S
C39 O23 1.225 . S
C39 O45 1.298 . S
C40 O29 1.226 . S
C40 O30 1.307 1_455 S
C41 O33 1.303 . S
C41 O34 1.247 . S
C42 O31 1.253 . S
C42 O32 1.283 1_655 S
C43 O35 1.304 . S
C43 O37 1.272 . S
C44 O36 1.311 . S
C44 O38 1.231 . S
O45 Zn27 1.953 . S
O45 C39 1.298 . S
O46 Zn47 1.953 . S
O46 C62 1.225 . S
Zn47 O46 1.953 . S
Zn47 O48 1.949 . S
Zn47 O54 1.919 . S
Zn47 O59 1.924 . S
O48 Zn47 1.949 . S
O48 Zn49 1.923 1_565 S
O48 Zn50 1.950 . S
O48 Zn51 1.945 . S
Zn49 O48 1.923 1_545 S
Zn49 O52 1.933 . S
Zn49 O55 1.941 . S
Zn49 O56 1.965 . S
Zn50 O48 1.950 . S
Zn50 O57 1.938 1_565 S
Zn50 O58 1.906 . S
Zn50 O68 1.953 . S
Zn51 O48 1.945 . S
Zn51 O53 1.932 . S
Zn51 O60 1.977 . S
Zn51 O61 1.910 . S
O52 Zn49 1.933 . S
O52 C63 1.226 . S
O53 Zn51 1.932 . S
O53 C63 1.307 1_565 S
O54 Zn47 1.919 . S
O54 C65 1.253 . S
O55 Zn49 1.941 . S
O55 C65 1.283 1_545 S
O56 Zn49 1.965 . S
O56 C64 1.303 . S
O57 Zn50 1.938 1_545 S
O57 C64 1.247 . S
O58 Zn50 1.906 . S
O58 C66 1.304 . S
O59 Zn47 1.924 . S
O59 C67 1.311 . S
O60 Zn51 1.977 . S
O60 C66 1.272 . S
O61 Zn51 1.910 . S
O61 C67 1.231 . S
C62 O46 1.225 . S
C62 O68 1.298 . S
C63 O52 1.226 . S
C63 O53 1.307 1_545 S
C64 O56 1.303 . S
C64 O57 1.247 . S
C65 O54 1.253 . S
C65 O55 1.283 1_565 S
C66 O58 1.304 . S
C66 O60 1.272 . S
C67 O59 1.311 . S
C67 O61 1.231 . S
O68 Zn50 1.953 . S
O68 C62 1.298 . S
O69 Zn70 1.953 . S
O69 C85 1.225 . S
Zn70 O69 1.953 . S
Zn70 O71 1.949 . S
Zn70 O77 1.919 . S
Zn70 O82 1.924 . S
O71 Zn70 1.949 . S
O71 Zn72 1.923 . S
O71 Zn73 1.950 . S
O71 Zn74 1.945 . S
Zn72 O71 1.923 . S
Zn72 O75 1.933 . S
Zn72 O78 1.941 . S
Zn72 O79 1.965 . S
Zn73 O71 1.950 . S
Zn73 O80 1.938 . S
Zn73 O81 1.906 . S
Zn73 O91 1.953 . S
Zn74 O71 1.945 . S
Zn74 O76 1.932 . S
Zn74 O83 1.977 . S
Zn74 O84 1.910 . S
O75 Zn72 1.933 . S
O75 C86 1.226 . S
O76 Zn74 1.932 . S
O76 C86 1.307 . S
O77 Zn70 1.919 . S
O77 C88 1.253 . S
O78 Zn72 1.941 . S
O78 C88 1.283 . S
O79 Zn72 1.965 . S
O79 C87 1.303 . S
O80 Zn73 1.938 . S
O80 C87 1.247 . S
O81 Zn73 1.906 . S
O81 C89 1.304 . S
O82 Zn70 1.924 . S
O82 C90 1.311 . S
O83 Zn74 1.977 . S
O83 C89 1.272 . S
O84 Zn74 1.910 . S
O84 C90 1.231 . S
C85 O69 1.225 . S
C85 O91 1.298 . S
C86 O75 1.226 . S
C86 O76 1.307 . S
C87 O79 1.303 . S
C87 O80 1.247 . S
C88 O77 1.253 . S
C88 O78 1.283 . S
C89 O81 1.304 . S
C89 O83 1.272 . S
C90 O82 1.311 . S
C90 O84 1.231 . S
O91 Zn73 1.953 . S
O91 C85 1.298 . S
O92 Zn93 1.953 . S
O92 C108 1.225 . S
Zn93 O92 1.953 . S
Zn93 O94 1.949 . S
Zn93 O100 1.919 . S
Zn93 O105 1.924 . S
O94 Zn93 1.949 . S
O94 Zn95 1.923 1_455 S
O94 Zn96 1.950 . S
O94 Zn97 1.945 . S
Zn95 O94 1.923 1_655 S
Zn95 O98 1.933 . S
Zn95 O101 1.941 . S
Zn95 O102 1.965 . S
Zn96 O94 1.950 . S
Zn96 O103 1.938 1_455 S
Zn96 O104 1.906 . S
Zn96 O114 1.953 . S
Zn97 O94 1.945 . S
Zn97 O99 1.932 . S
Zn97 O106 1.977 . S
Zn97 O107 1.910 . S
O98 Zn95 1.933 . S
O98 C109 1.226 . S
O99 Zn97 1.932 . S
O99 C109 1.307 1_455 S
O100 Zn93 1.919 . S
O100 C111 1.253 . S
O101 Zn95 1.941 . S
O101 C111 1.283 1_655 S
O102 Zn95 1.965 . S
O102 C110 1.303 . S
O103 Zn96 1.938 1_655 S
O103 C110 1.247 . S
O104 Zn96 1.906 . S
O104 C112 1.304 . S
O105 Zn93 1.924 . S
O105 C113 1.311 . S
O106 Zn97 1.977 . S
O106 C112 1.272 . S
O107 Zn97 1.910 . S
O107 C113 1.231 . S
C108 O92 1.225 . S
C108 O114 1.298 . S
C109 O98 1.226 . S
C109 O99 1.307 1_655 S
C110 O102 1.303 . S
C110 O103 1.247 . S
C111 O100 1.253 . S
C111 O101 1.283 1_455 S
C112 O104 1.304 . S
C112 O106 1.272 . S
C113 O105 1.311 . S
C113 O107 1.231 . S
O114 Zn96 1.953 . S
O114 C108 1.298 . S
O115 Zn116 1.953 . S
O115 C131 1.225 . S
Zn116 O115 1.953 . S
Zn116 O117 1.949 . S
Zn116 O123 1.919 . S
Zn116 O128 1.924 . S
O117 Zn116 1.949 . S
O117 Zn118 1.923 1_545 S
O117 Zn119 1.950 . S
O117 Zn120 1.945 . S
Zn118 O117 1.923 1_565 S
Zn118 O121 1.933 . S
Zn118 O124 1.941 . S
Zn118 O125 1.965 . S
Zn119 O117 1.950 . S
Zn119 O126 1.938 1_545 S
Zn119 O127 1.906 . S
Zn119 O137 1.953 . S
Zn120 O117 1.945 . S
Zn120 O122 1.932 . S
Zn120 O129 1.977 . S
Zn120 O130 1.910 . S
O121 Zn118 1.933 . S
O121 C132 1.226 . S
O122 Zn120 1.932 . S
O122 C132 1.307 1_545 S
O123 Zn116 1.919 . S
O123 C134 1.253 . S
O124 Zn118 1.941 . S
O124 C134 1.283 1_565 S
O125 Zn118 1.965 . S
O125 C133 1.303 . S
O126 Zn119 1.938 1_565 S
O126 C133 1.247 . S
O127 Zn119 1.906 . S
O127 C135 1.304 . S
O128 Zn116 1.924 . S
O128 C136 1.311 . S
O129 Zn120 1.977 . S
O129 C135 1.272 . S
O130 Zn120 1.910 . S
O130 C136 1.231 . S
C131 O115 1.225 . S
C131 O137 1.298 . S
C132 O121 1.226 . S
C132 O122 1.307 1_565 S
C133 O125 1.303 . S
C133 O126 1.247 . S
C134 O123 1.253 . S
C134 O124 1.283 1_545 S
C135 O127 1.304 . S
C135 O129 1.272 . S
C136 O128 1.311 . S
C136 O130 1.231 . S
O137 Zn119 1.953 . S
O137 C131 1.298 . S
O138 Zn139 1.953 . S
O138 C154 1.225 . S
Zn139 O138 1.953 . S
Zn139 O140 1.949 . S
Zn139 O146 1.919 . S
Zn139 O151 1.924 . S
O140 Zn139 1.949 . S
O140 Zn141 1.923 . S
O140 Zn142 1.950 . S
O140 Zn143 1.945 . S
Zn141 O140 1.923 . S
Zn141 O144 1.933 . S
Zn141 O147 1.941 . S
Zn141 O148 1.965 . S
Zn142 O140 1.950 . S
Zn142 O149 1.938 . S
Zn142 O150 1.906 . S
Zn142 O160 1.953 . S
Zn143 O140 1.945 . S
Zn143 O145 1.932 . S
Zn143 O152 1.977 . S
Zn143 O153 1.910 . S
O144 Zn141 1.933 . S
O144 C155 1.226 . S
O145 Zn143 1.932 . S
O145 C155 1.307 . S
O146 Zn139 1.919 . S
O146 C157 1.253 . S
O147 Zn141 1.941 . S
O147 C157 1.283 . S
O148 Zn141 1.965 . S
O148 C156 1.303 . S
O149 Zn142 1.938 . S
O149 C156 1.247 . S
O150 Zn142 1.906 . S
O150 C158 1.304 . S
O151 Zn139 1.924 . S
O151 C159 1.311 . S
O152 Zn143 1.977 . S
O152 C158 1.272 . S
O153 Zn143 1.910 . S
O153 C159 1.231 . S
C154 O138 1.225 . S
C154 O160 1.298 . S
C155 O144 1.226 . S
C155 O145 1.307 . S
C156 O148 1.303 . S
C156 O149 1.247 . S
C157 O146 1.253 . S
C157 O147 1.283 . S
C158 O150 1.304 . S
C158 O152 1.272 . S
C159 O151 1.311 . S
C159 O153 1.231 . S
O160 Zn142 1.953 . S
O160 C154 1.298 . S
O161 Zn162 1.953 . S
O161 C177 1.225 . S
Zn162 O161 1.953 . S
Zn162 O163 1.949 . S
Zn162 O169 1.919 . S
Zn162 O174 1.924 . S
O163 Zn162 1.949 . S
O163 Zn164 1.923 1_655 S
O163 Zn165 1.950 . S
O163 Zn166 1.945 . S
Zn164 O163 1.923 1_455 S
Zn164 O167 1.933 1_556 S
Zn164 O170 1.941 . S
Zn164 O171 1.965 . S
Zn165 O163 1.950 . S
Zn165 O172 1.938 1_655 S
Zn165 O173 1.906 . S
Zn165 O183 1.953 . S
Zn166 O163 1.945 . S
Zn166 O168 1.932 1_556 S
Zn166 O175 1.977 . S
Zn166 O176 1.910 1_556 S
O167 Zn164 1.933 1_554 S
O167 C178 1.226 . S
O168 Zn166 1.932 1_554 S
O168 C178 1.307 1_655 S
O169 Zn162 1.919 . S
O169 C180 1.253 . S
O170 Zn164 1.941 . S
O170 C180 1.283 1_455 S
O171 Zn164 1.965 . S
O171 C179 1.303 . S
O172 Zn165 1.938 1_455 S
O172 C179 1.247 . S
O173 Zn165 1.906 . S
O173 C181 1.304 . S
O174 Zn162 1.924 . S
O174 C182 1.311 . S
O175 Zn166 1.977 . S
O175 C181 1.272 . S
O176 Zn166 1.910 1_554 S
O176 C182 1.231 1_554 S
C177 O161 1.225 . S
C177 O183 1.298 . S
C178 O167 1.226 . S
C178 O168 1.307 1_455 S
C179 O171 1.303 . S
C179 O172 1.247 . S
C180 O169 1.253 . S
C180 O170 1.283 1_655 S
C181 O173 1.304 . S
C181 O175 1.272 . S
C182 O174 1.311 . S
C182 O176 1.231 1_556 S
O183 Zn165 1.953 . S
O183 C177 1.298 . S
O184 Zn185 1.953 . S
O184 C200 1.225 . S
Zn185 O184 1.953 . S
Zn185 O186 1.949 . S
Zn185 O192 1.919 . S
Zn185 O197 1.924 . S
O186 Zn185 1.949 . S
O186 Zn187 1.923 1_565 S
O186 Zn188 1.950 . S
O186 Zn189 1.945 . S
Zn187 O186 1.923 1_545 S
Zn187 O190 1.933 . S
Zn187 O193 1.941 . S
Zn187 O194 1.965 . S
Zn188 O186 1.950 . S
Zn188 O195 1.938 1_565 S
Zn188 O196 1.906 . S
Zn188 O206 1.953 . S
Zn189 O186 1.945 . S
Zn189 O191 1.932 . S
Zn189 O198 1.977 . S
Zn189 O199 1.910 . S
O190 Zn187 1.933 . S
O190 C201 1.226 . S
O191 Zn189 1.932 . S
O191 C201 1.307 1_565 S
O192 Zn185 1.919 . S
O192 C203 1.253 . S
O193 Zn187 1.941 . S
O193 C203 1.283 1_545 S
O194 Zn187 1.965 . S
O194 C202 1.303 . S
O195 Zn188 1.938 1_545 S
O195 C202 1.247 . S
O196 Zn188 1.906 . S
O196 C204 1.304 . S
O197 Zn185 1.924 . S
O197 C205 1.311 . S
O198 Zn189 1.977 . S
O198 C204 1.272 . S
O199 Zn189 1.910 . S
O199 C205 1.231 . S
C200 O184 1.225 . S
C200 O206 1.298 . S
C201 O190 1.226 . S
C201 O191 1.307 1_545 S
C202 O194 1.303 . S
C202 O195 1.247 . S
C203 O192 1.253 . S
C203 O193 1.283 1_565 S
C204 O196 1.304 . S
C204 O198 1.272 . S
C205 O197 1.311 . S
C205 O199 1.231 . S
O206 Zn188 1.953 . S
O206 C200 1.298 . S
O207 Zn208 1.953 . S
O207 C223 1.225 . S
Zn208 O207 1.953 . S
Zn208 O209 1.949 . S
Zn208 O215 1.919 . S
Zn208 O220 1.924 . S
O209 Zn208 1.949 . S
O209 Zn210 1.923 . S
O209 Zn211 1.950 . S
O209 Zn212 1.945 . S
Zn210 O209 1.923 . S
Zn210 O213 1.933 . S
Zn210 O216 1.941 . S
Zn210 O217 1.965 . S
Zn211 O209 1.950 . S
Zn211 O218 1.938 . S
Zn211 O219 1.906 . S
Zn211 O229 1.953 . S
Zn212 O209 1.945 . S
Zn212 O214 1.932 . S
Zn212 O221 1.977 . S
Zn212 O222 1.910 . S
O213 Zn210 1.933 . S
O213 C224 1.226 . S
O214 Zn212 1.932 . S
O214 C224 1.307 . S
O215 Zn208 1.919 . S
O215 C226 1.253 . S
O216 Zn210 1.941 . S
O216 C226 1.283 . S
O217 Zn210 1.965 . S
O217 C225 1.303 . S
O218 Zn211 1.938 . S
O218 C225 1.247 . S
O219 Zn211 1.906 . S
O219 C227 1.304 . S
O220 Zn208 1.924 . S
O220 C228 1.311 . S
O221 Zn212 1.977 . S
O221 C227 1.272 . S
O222 Zn212 1.910 . S
O222 C228 1.231 . S
C223 O207 1.225 . S
C223 O229 1.298 . S
C224 O213 1.226 . S
C224 O214 1.307 . S
C225 O217 1.303 . S
C225 O218 1.247 . S
C226 O215 1.253 . S
C226 O216 1.283 . S
C227 O219 1.304 . S
C227 O221 1.272 . S
C228 O220 1.311 . S
C228 O222 1.231 . S
O229 Zn211 1.953 . S
O229 C223 1.298 . S
O230 Zn231 1.953 . S
O230 C246 1.225 . S
Zn231 O230 1.953 . S
Zn231 O232 1.949 . S
Zn231 O238 1.919 . S
Zn231 O243 1.924 . S
O232 Zn231 1.949 . S
O232 Zn233 1.923 1_455 S
O232 Zn234 1.950 . S
O232 Zn235 1.945 . S
Zn233 O232 1.923 1_655 S
Zn233 O236 1.933 . S
Zn233 O239 1.941 . S
Zn233 O240 1.965 . S
Zn234 O232 1.950 . S
Zn234 O241 1.938 1_455 S
Zn234 O242 1.906 . S
Zn234 O252 1.953 . S
Zn235 O232 1.945 . S
Zn235 O237 1.932 . S
Zn235 O244 1.977 . S
Zn235 O245 1.910 . S
O236 Zn233 1.933 . S
O236 C247 1.226 . S
O237 Zn235 1.932 . S
O237 C247 1.307 1_455 S
O238 Zn231 1.919 . S
O238 C249 1.253 . S
O239 Zn233 1.941 . S
O239 C249 1.283 1_655 S
O240 Zn233 1.965 . S
O240 C248 1.303 . S
O241 Zn234 1.938 1_655 S
O241 C248 1.247 . S
O242 Zn234 1.906 . S
O242 C250 1.304 . S
O243 Zn231 1.924 . S
O243 C251 1.311 . S
O244 Zn235 1.977 . S
O244 C250 1.272 . S
O245 Zn235 1.910 . S
O245 C251 1.231 . S
C246 O230 1.225 . S
C246 O252 1.298 . S
C247 O236 1.226 . S
C247 O237 1.307 1_655 S
C248 O240 1.303 . S
C248 O241 1.247 . S
C249 O238 1.253 . S
C249 O239 1.283 1_455 S
C250 O242 1.304 . S
C250 O244 1.272 . S
C251 O243 1.311 . S
C251 O245 1.231 . S
O252 Zn234 1.953 . S
O252 C246 1.298 . S
O253 Zn254 1.953 . S
O253 C269 1.225 . S
Zn254 O253 1.953 . S
Zn254 O255 1.949 . S
Zn254 O261 1.919 . S
Zn254 O266 1.924 . S
O255 Zn254 1.949 . S
O255 Zn256 1.923 1_545 S
O255 Zn257 1.950 . S
O255 Zn258 1.945 . S
Zn256 O255 1.923 1_565 S
Zn256 O259 1.933 . S
Zn256 O262 1.941 . S
Zn256 O263 1.965 . S
Zn257 O255 1.950 . S
Zn257 O264 1.938 1_545 S
Zn257 O265 1.906 . S
Zn257 O275 1.953 . S
Zn258 O255 1.945 . S
Zn258 O260 1.932 . S
Zn258 O267 1.977 . S
Zn258 O268 1.910 . S
O259 Zn256 1.933 . S
O259 C270 1.226 . S
O260 Zn258 1.932 . S
O260 C270 1.307 1_545 S
O261 Zn254 1.919 . S
O261 C272 1.253 . S
O262 Zn256 1.941 . S
O262 C272 1.283 1_565 S
O263 Zn256 1.965 . S
O263 C271 1.303 . S
O264 Zn257 1.938 1_565 S
O264 C271 1.247 . S
O265 Zn257 1.906 . S
O265 C273 1.304 . S
O266 Zn254 1.924 . S
O266 C274 1.311 . S
O267 Zn258 1.977 . S
O267 C273 1.272 . S
O268 Zn258 1.910 . S
O268 C274 1.231 . S
C269 O253 1.225 . S
C269 O275 1.298 . S
C270 O259 1.226 . S
C270 O260 1.307 1_565 S
C271 O263 1.303 . S
C271 O264 1.247 . S
C272 O261 1.253 . S
C272 O262 1.283 1_545 S
C273 O265 1.304 . S
C273 O267 1.272 . S
C274 O266 1.311 . S
C274 O268 1.231 . S
O275 Zn257 1.953 . S
O275 C269 1.298 . S
C276 C277 1.351 1_554 S
C276 H280 0.950 . S
C276 C285 1.390 . S
C277 C276 1.351 1_556 S
C277 C279 1.417 . S
H278 C285 0.950 . S
C279 C277 1.417 . S
C279 C281 1.390 . S
C279 H283 0.950 . S
H280 C276 0.950 . S
C281 C279 1.390 . S
C281 C282 1.387 1_556 S
C281 H284 0.950 . S
C282 C281 1.387 1_554 S
C282 C285 1.387 . S
H283 C279 0.950 . S
H284 C281 0.950 . S
C285 C276 1.390 . S
C285 H278 0.950 . S
C285 C282 1.387 . S
C286 C287 1.387 . S
C286 H290 0.950 . S
C286 C295 1.390 . S
C287 C286 1.387 . S
C287 C289 1.387 . S
H288 C295 0.950 . S
C289 C287 1.387 . S
C289 C291 1.390 . S
C289 H293 0.950 . S
H290 C286 0.950 . S
C291 C289 1.390 . S
C291 C292 1.387 1_455 S
C291 H294 0.950 1_455 S
C292 C291 1.387 1_655 S
C292 C295 1.387 1_655 S
H293 C289 0.950 . S
H294 C291 0.950 1_655 S
C295 C286 1.390 . S
C295 H288 0.950 . S
C295 C292 1.387 1_455 S
C296 C297 1.387 . S
C296 H300 0.950 . S
C296 C305 1.390 . S
C297 C296 1.387 . S
C297 C299 1.387 . S
H298 C305 0.950 . S
C299 C297 1.387 . S
C299 C301 1.390 . S
C299 H303 0.950 . S
H300 C296 0.950 . S
C301 C299 1.390 . S
C301 C302 1.387 1_545 S
C301 H304 0.950 1_545 S
C302 C301 1.387 1_565 S
C302 C305 1.387 1_565 S
H303 C299 0.950 . S
H304 C301 0.950 1_565 S
C305 C296 1.390 . S
C305 H298 0.950 . S
C305 C302 1.387 1_545 S
C306 C307 1.387 . S
C306 H310 0.950 . S
C306 C315 1.390 . S
C307 C306 1.387 . S
C307 C309 1.387 . S
H308 C315 0.950 . S
C309 C307 1.387 . S
C309 C311 1.390 . S
C309 H313 0.950 . S
H310 C306 0.950 . S
C311 C309 1.390 . S
C311 C312 1.387 . S
C311 H314 0.950 . S
C312 C311 1.387 . S
C312 C315 1.387 . S
H313 C309 0.950 . S
H314 C311 0.950 . S
C315 C306 1.390 . S
C315 H308 0.950 . S
C315 C312 1.387 . S
C316 C317 1.387 . S
C316 H320 0.950 . S
C316 C325 1.390 . S
C317 C316 1.387 . S
C317 C319 1.387 . S
H318 C325 0.950 . S
C319 C317 1.387 . S
C319 C321 1.390 . S
C319 H323 0.950 . S
H320 C316 0.950 . S
C321 C319 1.390 . S
C321 C322 1.387 1_655 S
C321 H324 0.950 1_655 S
C322 C321 1.387 1_455 S
C322 C325 1.387 1_455 S
H323 C319 0.950 . S
H324 C321 0.950 1_455 S
C325 C316 1.390 . S
C325 H318 0.950 . S
C325 C322 1.387 1_655 S
C326 C327 1.387 . S
C326 H330 0.951 1_565 S
C326 C335 1.390 1_565 S
C327 C326 1.387 . S
C327 C329 1.387 . S
H328 C335 0.950 . S
C329 C327 1.387 . S
C329 C331 1.390 . S
C329 H333 0.950 . S
H330 C326 0.951 1_545 S
C331 C329 1.390 . S
C331 C332 1.387 1_565 S
C331 H334 0.950 . S
C332 C331 1.387 1_545 S
C332 C335 1.387 . S
H333 C329 0.950 . S
H334 C331 0.950 . S
C335 C326 1.390 1_545 S
C335 H328 0.950 . S
C335 C332 1.387 . S
C336 C337 1.387 . S
C336 H340 0.950 . S
C336 C345 1.390 . S
C337 C336 1.387 . S
C337 C339 1.387 . S
H338 C345 0.950 . S
C339 C337 1.387 . S
C339 C341 1.390 . S
C339 H343 0.950 . S
H340 C336 0.950 . S
C341 C339 1.390 . S
C341 C342 1.387 . S
C341 H344 0.950 . S
C342 C341 1.387 . S
C342 C345 1.387 . S
H343 C339 0.950 . S
H344 C341 0.950 . S
C345 C336 1.390 . S
C345 H338 0.950 . S
C345 C342 1.387 . S
C346 C347 1.387 1_455 S
C346 H350 0.950 1_556 S
C346 C355 1.390 1_556 S
C347 C346 1.387 1_655 S
C347 C349 1.387 1_655 S
H348 C355 0.950 . S
C349 C347 1.387 1_455 S
C349 C351 1.390 . S
C349 H353 0.950 1_455 S
H350 C346 0.950 1_554 S
C351 C349 1.390 . S
C351 C352 1.387 . S
C351 H354 0.950 . S
C352 C351 1.387 . S
C352 C355 1.387 1_556 S
H353 C349 0.950 1_655 S
H354 C351 0.950 . S
C355 C346 1.390 1_554 S
C355 H348 0.950 . S
C355 C352 1.387 1_554 S
C356 C357 1.387 1_545 S
C356 H360 0.950 1_545 S
C356 C365 1.390 . S
C357 C356 1.387 1_565 S
C357 C359 1.387 1_565 S
H358 C365 0.950 . S
C359 C357 1.387 1_545 S
C359 C361 1.390 . S
C359 H363 0.950 . S
H360 C356 0.950 1_565 S
C361 C359 1.390 . S
C361 C362 1.387 . S
C361 H364 0.950 . S
C362 C361 1.387 . S
C362 C365 1.387 . S
H363 C359 0.950 . S
H364 C361 0.950 . S
C365 C356 1.390 . S
C365 H358 0.950 . S
C365 C362 1.387 . S
C366 C367 1.387 . S
C366 H370 0.950 . S
C366 C375 1.390 . S
C367 C366 1.387 . S
C367 C369 1.387 . S
H368 C375 0.950 . S
C369 C367 1.387 . S
C369 C371 1.390 . S
C369 H373 0.950 . S
H370 C366 0.950 . S
C371 C369 1.390 . S
C371 C372 1.387 . S
C371 H374 0.950 . S
C372 C371 1.387 . S
C372 C375 1.387 . S
H373 C369 0.950 . S
H374 C371 0.950 . S
C375 C366 1.390 . S
C375 H368 0.950 . S
C375 C372 1.387 . S
C376 C377 1.387 . S
C376 H380 0.950 . S
C376 C385 1.390 1_455 S
C377 C376 1.387 . S
C377 C379 1.387 1_455 S
H378 C385 0.950 . S
C379 C377 1.387 1_655 S
C379 C381 1.390 . S
C379 H383 0.950 . S
H380 C376 0.950 . S
C381 C379 1.390 . S
C381 C382 1.387 . S
C381 H384 0.950 . S
C382 C381 1.387 . S
C382 C385 1.387 . S
H383 C379 0.950 . S
H384 C381 0.950 . S
C385 C376 1.390 1_655 S
C385 H378 0.950 . S
C385 C382 1.387 . S
C386 C387 1.387 1_565 S
C386 H390 0.950 1_565 S
C386 C395 1.390 . S
C387 C386 1.387 1_545 S
C387 C389 1.387 1_545 S
H388 C395 0.950 . S
C389 C387 1.387 1_565 S
C389 C391 1.390 . S
C389 H393 0.950 . S
H390 C386 0.950 1_545 S
C391 C389 1.390 . S
C391 C392 1.387 . S
C391 H394 0.950 . S
C392 C391 1.387 . S
C392 C395 1.387 . S
H393 C389 0.950 . S
H394 C391 0.950 . S
C395 C386 1.390 . S
C395 H388 0.950 . S
C395 C392 1.387 . S
C396 C397 1.387 . S
C396 H400 0.950 . S
C396 C405 1.390 . S
C397 C396 1.387 . S
C397 C399 1.387 . S
H398 C405 0.950 . S
C399 C397 1.387 . S
C399 C401 1.390 . S
C399 H403 0.950 . S
H400 C396 0.950 . S
C401 C399 1.390 . S
C401 C402 1.387 . S
C401 H404 0.950 . S
C402 C401 1.387 . S
C402 C405 1.387 . S
H403 C399 0.950 . S
H404 C401 0.950 . S
C405 C396 1.390 . S
C405 H398 0.950 . S
C405 C402 1.387 . S
C406 C407 1.387 . S
C406 H410 0.950 . S
C406 C415 1.390 . S
C407 C406 1.387 . S
C407 C409 1.387 . S
H408 C415 0.950 . S
C409 C407 1.387 . S
C409 C411 1.390 . S
C409 H413 0.950 . S
H410 C406 0.950 . S
C411 C409 1.390 . S
C411 C412 1.387 . S
C411 H414 0.950 . S
C412 C411 1.387 . S
C412 C415 1.387 . S
H413 C409 0.950 . S
H414 C411 0.950 . S
C415 C406 1.390 . S
C415 H408 0.950 . S
C415 C412 1.387 . S
C416 C417 1.387 . S
C416 H420 0.950 . S
C416 C425 1.390 . S
C417 C416 1.387 . S
C417 C419 1.387 . S
H418 C425 0.950 . S
C419 C417 1.387 . S
C419 C421 1.390 . S
C419 H423 0.950 . S
H420 C416 0.950 . S
C421 C419 1.390 . S
C421 C422 1.387 . S
C421 H424 0.950 1_545 S
C422 C421 1.387 . S
C422 C425 1.387 . S
H423 C419 0.950 . S
H424 C421 0.950 1_565 S
C425 C416 1.390 . S
C425 H418 0.950 . S
C425 C422 1.387 . S
C426 C427 1.387 . S
C426 H430 0.950 . S
C426 C435 1.390 . S
C427 C426 1.387 . S
C427 C429 1.387 . S
H428 C435 0.950 . S
C429 C427 1.387 . S
C429 C431 1.390 . S
C429 H433 0.950 . S
H430 C426 0.950 . S
C431 C429 1.390 . S
C431 C432 1.387 . S
C431 H434 0.950 . S
C432 C431 1.387 . S
C432 C435 1.387 . S
H433 C429 0.950 . S
H434 C431 0.950 . S
C435 C426 1.390 . S
C435 H428 0.950 . S
C435 C432 1.387 . S
C436 C437 1.387 . S
C436 H440 0.950 . S
C436 C445 1.390 . S
C437 C436 1.387 . S
C437 C439 1.387 . S
H438 C445 0.950 . S
C439 C437 1.387 . S
C439 C441 1.390 . S
C439 H443 0.950 . S
H440 C436 0.950 . S
C441 C439 1.390 . S
C441 C442 1.387 . S
C441 H444 0.950 1_655 S
C442 C441 1.387 . S
C442 C445 1.387 . S
H443 C439 0.950 . S
H444 C441 0.950 1_455 S
C445 C436 1.390 . S
C445 H438 0.950 . S
C445 C442 1.387 . S
C446 C447 1.387 . S
C446 H450 0.950 . S
C446 C455 1.390 . S
C447 C446 1.387 . S
C447 C449 1.387 . S
H448 C455 0.950 . S
C449 C447 1.387 . S
C449 C451 1.390 . S
C449 H453 0.950 . S
H450 C446 0.950 . S
C451 C449 1.390 . S
C451 C452 1.387 . S
C451 H454 0.950 . S
C452 C451 1.387 . S
C452 C455 1.387 . S
H453 C449 0.950 . S
H454 C451 0.950 . S
C455 C446 1.390 . S
C455 H448 0.950 . S
C455 C452 1.387 . S
C456 C457 1.387 . S
C456 H460 0.950 . S
C456 C465 1.390 . S
C457 C456 1.387 . S
C457 C459 1.387 . S
H458 C465 0.950 . S
C459 C457 1.387 . S
C459 C461 1.390 . S
C459 H463 0.950 . S
H460 C456 0.950 . S
C461 C459 1.390 . S
C461 C462 1.387 . S
C461 H464 0.950 . S
C462 C461 1.387 . S
C462 C465 1.387 . S
H463 C459 0.950 . S
H464 C461 0.950 . S
C465 C456 1.390 . S
C465 H458 0.950 . S
C465 C462 1.387 . S
C466 C467 1.387 . S
C466 H470 0.950 . S
C466 C475 1.390 . S
C467 C466 1.387 . S
C467 C469 1.387 . S
H468 C475 0.950 . S
C469 C467 1.387 . S
C469 C471 1.390 . S
C469 H473 0.950 . S
H470 C466 0.950 . S
C471 C469 1.390 . S
C471 C472 1.387 . S
C471 H474 0.950 . S
C472 C471 1.387 . S
C472 C475 1.387 . S
H473 C469 0.950 . S
H474 C471 0.950 . S
C475 C466 1.390 . S
C475 H468 0.950 . S
C475 C472 1.387 . S
C476 C477 1.387 . S
C476 H480 0.950 . S
C476 C485 1.390 . S
C477 C476 1.387 . S
C477 C479 1.387 . S
H478 C485 0.950 . S
C479 C477 1.387 . S
C479 C481 1.390 . S
C479 H483 0.950 . S
H480 C476 0.950 . S
C481 C479 1.390 . S
C481 C482 1.387 . S
C481 H484 0.950 . S
C482 C481 1.387 . S
C482 C485 1.387 . S
H483 C479 0.950 . S
H484 C481 0.950 . S
C485 C476 1.390 . S
C485 H478 0.950 . S
C485 C482 1.387 . S
C486 C487 1.387 . S
C486 H490 0.950 . S
C486 C495 1.390 . S
C487 C486 1.387 . S
C487 C489 1.387 . S
H488 C495 0.950 . S
C489 C487 1.387 . S
C489 C491 1.390 . S
C489 H493 0.950 . S
H490 C486 0.950 . S
C491 C489 1.390 . S
C491 C492 1.387 . S
C491 H494 0.950 . S
C492 C491 1.387 . S
C492 C495 1.387 . S
H493 C489 0.950 . S
H494 C491 0.950 . S
C495 C486 1.390 . S
C495 H488 0.950 . S
C495 C492 1.387 . S
C496 C497 1.387 . S
C496 H500 0.950 . S
C496 C505 1.390 . S
C497 C496 1.387 . S
C497 C499 1.387 . S
H498 C505 0.950 . S
C499 C497 1.387 . S
C499 C501 1.390 . S
C499 H503 0.950 . S
H500 C496 0.950 . S
C501 C499 1.390 . S
C501 C502 1.387 . S
C501 H504 0.950 . S
C502 C501 1.387 . S
C502 C505 1.387 . S
H503 C499 0.950 . S
H504 C501 0.950 . S
C505 C496 1.390 . S
C505 H498 0.950 . S
C505 C502 1.387 . S
C506 C507 1.387 . S
C506 H510 0.950 . S
C506 C515 1.390 . S
C507 C506 1.387 . S
C507 C509 1.387 . S
H508 C515 0.950 . S
C509 C507 1.387 . S
C509 C511 1.390 . S
C509 H513 0.950 . S
H510 C506 0.950 . S
C511 C509 1.390 . S
C511 C512 1.387 . S
C511 H514 0.950 . S
C512 C511 1.387 . S
C512 C515 1.387 . S
H513 C509 0.950 . S
H514 C511 0.950 . S
C515 C506 1.390 . S
C515 H508 0.950 . S
C515 C512 1.387 . S
C516 C517 1.387 . S
C516 H520 0.950 . S
C516 C525 1.390 . S
C517 C516 1.387 . S
C517 C519 1.387 . S
H518 C525 0.950 . S
C519 C517 1.387 . S
C519 C521 1.390 . S
C519 H523 0.950 . S
H520 C516 0.950 . S
C521 C519 1.390 . S
C521 C522 1.387 . S
C521 H524 0.950 . S
C522 C521 1.387 . S
C522 C525 1.387 . S
H523 C519 0.950 . S
H524 C521 0.950 . S
C525 C516 1.390 . S
C525 H518 0.950 . S
C525 C522 1.387 . S
C526 C527 1.387 . S
C526 H530 0.950 . S
C526 C535 1.390 . S
C527 C526 1.387 . S
C527 C529 1.387 . S
H528 C535 0.950 . S
C529 C527 1.387 . S
C529 C531 1.390 . S
C529 H533 0.950 . S
H530 C526 0.950 . S
C531 C529 1.390 . S
C531 C532 1.387 . S
C531 H534 0.950 . S
C532 C531 1.387 . S
C532 C535 1.387 . S
H533 C529 0.950 . S
H534 C531 0.950 . S
C535 C526 1.390 . S
C535 H528 0.950 . S
C535 C532 1.387 . S
C536 C537 1.387 . S
C536 H540 0.950 . S
C536 C545 1.390 . S
C537 C536 1.387 . S
C537 C539 1.387 . S
H538 C545 0.950 . S
C539 C537 1.387 . S
C539 C541 1.390 . S
C539 H543 0.950 . S
H540 C536 0.950 . S
C541 C539 1.390 . S
C541 C542 1.387 . S
C541 H544 0.950 . S
C542 C541 1.387 . S
C542 C545 1.387 . S
H543 C539 0.950 . S
H544 C541 0.950 . S
C545 C536 1.390 . S
C545 H538 0.950 . S
C545 C542 1.387 . S
C546 C547 1.387 . S
C546 H550 0.950 . S
C546 C555 1.390 . S
C547 C546 1.387 . S
C547 C549 1.387 . S
H548 C555 0.950 . S
C549 C547 1.387 . S
C549 C551 1.390 . S
C549 H553 0.950 . S
H550 C546 0.950 . S
C551 C549 1.390 . S
C551 C552 1.387 . S
C551 H554 0.950 . S
C552 C551 1.387 . S
C552 C555 1.387 . S
H553 C549 0.950 . S
H554 C551 0.950 . S
C555 C546 1.390 . S
C555 H548 0.950 . S
C555 C552 1.387 . S
C556 C557 1.387 . S
C556 H560 0.950 . S
C556 C565 1.390 . S
C557 C556 1.387 . S
C557 C559 1.387 . S
H558 C565 0.950 . S
C559 C557 1.387 . S
C559 C561 1.390 . S
C559 H563 0.950 . S
H560 C556 0.950 . S
C561 C559 1.390 . S
C561 C562 1.387 . S
C561 H564 0.950 . S
C562 C561 1.387 . S
C562 C565 1.387 . S
H563 C559 0.950 . S
H564 C561 0.950 . S
C565 C556 1.390 . S
C565 H558 0.950 . S
C565 C562 1.387 . S
C566 C567 1.387 . S
C566 H570 0.950 . S
C566 C575 1.390 . S
C567 C566 1.387 . S
C567 C569 1.387 . S
H568 C575 0.950 . S
C569 C567 1.387 . S
C569 C571 1.390 . S
C569 H573 0.950 . S
H570 C566 0.950 . S
C571 C569 1.390 . S
C571 C572 1.387 . S
C571 H574 0.950 . S
C572 C571 1.387 . S
C572 C575 1.387 . S
H573 C569 0.950 . S
H574 C571 0.950 . S
C575 C566 1.390 . S
C575 H568 0.950 . S
C575 C572 1.387 . S
C576 C577 1.387 1_655 S
C576 H580 0.950 . S
C576 C585 1.390 1_545 S
C577 C576 1.387 1_455 S
C577 C579 1.387 . S
H578 C585 0.950 . S
C579 C577 1.387 . S
C579 C581 1.390 1_545 S
C579 H583 0.950 . S
H580 C576 0.950 . S
C581 C579 1.390 1_565 S
C581 C582 1.387 1_455 S
C581 H584 0.950 . S
C582 C581 1.387 1_655 S
C582 C585 1.387 . S
H583 C579 0.950 . S
H584 C581 0.950 . S
C585 C576 1.390 1_565 S
C585 H578 0.950 . S
C585 C582 1.387 . S
C586 C587 1.387 . S
C586 H590 0.950 . S
C586 C595 1.390 1_455 S
C587 C586 1.387 . S
C587 C589 1.387 . S
H588 C595 0.950 . S
C589 C587 1.387 . S
C589 C591 1.390 1_465 S
C589 H593 0.950 . S
H590 C586 0.950 . S
C591 C589 1.390 1_645 S
C591 C592 1.387 . S
C591 H594 0.950 . S
C592 C591 1.387 . S
C592 C595 1.387 1_545 S
H593 C589 0.950 . S
H594 C591 0.950 . S
C595 C586 1.390 1_655 S
C595 H588 0.950 . S
C595 C592 1.387 1_565 S
C596 C597 1.386 1_565 S
C596 H600 0.951 1_565 S
C596 C605 1.390 1_455 S
C597 C596 1.386 1_545 S
C597 C599 1.387 . S
H598 C605 0.950 . S
C599 C597 1.387 . S
C599 C601 1.390 1_445 S
C599 H603 0.950 . S
H600 C596 0.951 1_545 S
C601 C599 1.390 1_665 S
C601 C602 1.387 . S
C601 H604 0.950 . S
C602 C601 1.387 . S
C602 C605 1.387 . S
H603 C599 0.950 . S
H604 C601 0.950 . S
C605 C596 1.390 1_655 S
C605 H598 0.950 . S
C605 C602 1.387 . S
C606 C607 1.387 1_655 S
C606 H610 0.950 . S
C606 C615 1.390 1_545 S
C607 C606 1.387 1_455 S
C607 C609 1.387 . S
H608 C615 0.950 . S
C609 C607 1.387 . S
C609 C611 1.390 1_545 S
C609 H613 0.950 . S
H610 C606 0.950 . S
C611 C609 1.390 1_565 S
C611 C612 1.387 1_455 S
C611 H614 0.950 . S
C612 C611 1.387 1_655 S
C612 C615 1.387 . S
H613 C609 0.950 . S
H614 C611 0.950 . S
C615 C606 1.390 1_565 S
C615 H608 0.950 . S
C615 C612 1.387 . S
C616 C617 1.387 1_545 S
C616 H620 0.950 . S
C616 C625 1.390 1_455 S
C617 C616 1.387 1_565 S
C617 C619 1.387 . S
H618 C625 0.950 . S
C619 C617 1.387 . S
C619 C621 1.390 1_465 S
C619 H623 0.950 . S
H620 C616 0.950 . S
C621 C619 1.390 1_645 S
C621 C622 1.387 . S
C621 H624 0.950 . S
C622 C621 1.387 . S
C622 C625 1.387 . S
H623 C619 0.950 . S
H624 C621 0.950 . S
C625 C616 1.390 1_655 S
C625 H618 0.950 . S
C625 C622 1.387 . S
C626 C627 1.387 . S
C626 H630 0.950 . S
C626 C635 1.390 1_445 S
C627 C626 1.387 . S
C627 C629 1.387 . S
H628 C635 0.950 . S
C629 C627 1.387 . S
C629 C631 1.390 1_455 S
C629 H633 0.950 . S
H630 C626 0.950 . S
C631 C629 1.390 1_655 S
C631 C632 1.387 1_545 S
C631 H634 0.950 1_545 S
C632 C631 1.387 1_565 S
C632 C635 1.387 . S
H633 C629 0.950 . S
H634 C631 0.950 1_565 S
C635 C626 1.390 1_665 S
C635 H628 0.950 . S
C635 C632 1.387 . S
C277 C182 1.795 . S
C282 C20 1.799 . S
C287 C205 1.789 . S
C292 C43 1.799 . S
C297 C228 1.789 . S
C302 C66 1.799 . S
C307 C251 1.789 . S
C312 C89 1.799 . S
C317 C274 1.789 . S
C322 C112 1.799 . S
C327 C159 1.787 . S
C332 C135 1.798 . S
C337 C158 1.799 . S
C342 C136 1.789 . S
C347 C181 1.797 . S
C352 C21 1.787 . S
C357 C204 1.799 . S
C362 C44 1.789 . S
C367 C227 1.799 . S
C372 C67 1.789 . S
C377 C250 1.799 . S
C382 C90 1.788 . S
C387 C273 1.797 . S
C392 C113 1.787 . S
C397 C17 1.389 . S
C402 C131 1.368 . S
C407 C40 1.389 . S
C412 C16 1.367 . S
C417 C39 1.366 . S
C422 C63 1.389 . S
C427 C62 1.368 . S
C432 C86 1.389 . S
C437 C85 1.366 . S
C442 C109 1.389 . S
C447 C132 1.389 . S
C452 C108 1.368 . S
C457 C155 1.389 . S
C462 C177 1.367 . S
C467 C178 1.389 . S
C472 C200 1.366 . S
C477 C201 1.389 . S
C482 C223 1.366 . S
C487 C224 1.389 . S
C492 C246 1.368 . S
C497 C247 1.389 . S
C502 C269 1.366 . S
C507 C154 1.367 . S
C512 C270 1.389 . S
C517 C202 1.202 . S
C522 C18 1.202 . S
C527 C41 1.202 . S
C532 C225 1.202 . S
C537 C64 1.204 . S
C542 C248 1.204 . S
C547 C87 1.204 . S
C552 C271 1.203 . S
C557 C110 1.202 . S
C562 C156 1.202 . S
C567 C179 1.204 . S
C572 C133 1.203 . S
C577 C19 1.000 1_556 S
C582 C180 1.000 . S
C587 C203 1.003 . S
C592 C42 1.000 . S
C597 C226 1.000 . S
C602 C65 1.003 . S
C607 C249 1.004 . S
C612 C88 1.004 . S
C617 C111 1.000 . S
C622 C272 1.003 . S
C627 C134 1.001 . S
C632 C157 1.004 . S
