# Generated by pormake.
# Topology vby, (6)-cn, num edge types: 1
# Building blocks:
#     Node 0, Type 0, BuildingBlock: UKALOJ_clean_sbu_0, # of connection points: 6
#     Node 1, Type 0, BuildingBlock: UKALOJ_clean_sbu_0, # of connection points: 6
#     Node 2, Type 0, BuildingBlock: UKALOJ_clean_sbu_0, # of connection points: 6
#     Node 3, Type 0, BuildingBlock: UKALOJ_clean_sbu_0, # of connection points: 6
#     Node 4, Type 0, BuildingBlock: UKALOJ_clean_sbu_0, # of connection points: 6
#     Node 5, Type 0, BuildingBlock: UKALOJ_clean_sbu_0, # of connection points: 6
#     Node 6, Type 0, BuildingBlock: UKALOJ_clean_sbu_0, # of connection points: 6
#     Node 7, Type 0, BuildingBlock: UKALOJ_clean_sbu_0, # of connection points: 6
#     Edge 8, Type (0, 0), BuildingBlock: EZIPEK_clean_linker_0, # of connection points: 2
#     Edge 9, Type (0, 0), BuildingBlock: EZIPEK_clean_linker_0, # of connection points: 2
#     Edge 10, Type (0, 0), BuildingBlock: EZIPEK_clean_linker_0, # of connection points: 2
#     Edge 11, Type (0, 0), BuildingBlock: EZIPEK_clean_linker_0, # of connection points: 2
#     Edge 12, Type (0, 0), BuildingBlock: EZIPEK_clean_linker_0, # of connection points: 2
#     Edge 13, Type (0, 0), BuildingBlock: EZIPEK_clean_linker_0, # of connection points: 2
#     Edge 14, Type (0, 0), BuildingBlock: EZIPEK_clean_linker_0, # of connection points: 2
#     Edge 15, Type (0, 0), BuildingBlock: EZIPEK_clean_linker_0, # of connection points: 2
#     Edge 16, Type (0, 0), BuildingBlock: EZIPEK_clean_linker_0, # of connection points: 2
#     Edge 17, Type (0, 0), BuildingBlock: EZIPEK_clean_linker_0, # of connection points: 2
#     Edge 18, Type (0, 0), BuildingBlock: EZIPEK_clean_linker_0, # of connection points: 2
#     Edge 19, Type (0, 0), BuildingBlock: EZIPEK_clean_linker_0, # of connection points: 2
#     Edge 20, Type (0, 0), BuildingBlock: EZIPEK_clean_linker_0, # of connection points: 2
#     Edge 21, Type (0, 0), BuildingBlock: EZIPEK_clean_linker_0, # of connection points: 2
#     Edge 22, Type (0, 0), BuildingBlock: EZIPEK_clean_linker_0, # of connection points: 2
#     Edge 23, Type (0, 0), BuildingBlock: EZIPEK_clean_linker_0, # of connection points: 2
#     Edge 24, Type (0, 0), BuildingBlock: EZIPEK_clean_linker_0, # of connection points: 2
#     Edge 25, Type (0, 0), BuildingBlock: EZIPEK_clean_linker_0, # of connection points: 2
#     Edge 26, Type (0, 0), BuildingBlock: EZIPEK_clean_linker_0, # of connection points: 2
#     Edge 27, Type (0, 0), BuildingBlock: EZIPEK_clean_linker_0, # of connection points: 2
#     Edge 28, Type (0, 0), BuildingBlock: EZIPEK_clean_linker_0, # of connection points: 2
#     Edge 29, Type (0, 0), BuildingBlock: EZIPEK_clean_linker_0, # of connection points: 2
#     Edge 30, Type (0, 0), BuildingBlock: EZIPEK_clean_linker_0, # of connection points: 2
#     Edge 31, Type (0, 0), BuildingBlock: EZIPEK_clean_linker_0, # of connection points: 2
# Relax obj value: 0.065
# Max RMSD: 0.108
# Mean RMSD: 0.108
data_MOF--net-vby--node1-UKALOJ_clean_sbu_0--edge1-EZIPEK_clean_linker_0
_symmetry_space_group_name_H-M    P1
_symmetry_Int_Tables_number       1
_symmetry_cell_setting            triclinic
loop_
_symmetry_equiv_pos_as_xyz
'x, y, z'
_cell_length_a     11.210638
_cell_length_b     42.914773
_cell_length_c     31.914222
_cell_angle_alpha  89.4976
_cell_angle_beta   90.254085
_cell_angle_gamma 90.006611
loop_
_atom_site_label
_atom_site_type_symbol
_atom_site_fract_x
_atom_site_fract_y
_atom_site_fract_z
_atom_type_partial_charge
Zn0 Zn 0.1319 0.37876 0.97974 0.0
O1 O 0.31735 0.38497 0.98034 0.0
C2 C 0.17317 0.31223 1.00321 0.0
Zn3 Zn 0.13229 0.37088 0.04942 0.0
C4 C 0.37531 0.381 1.01423 0.0
O5 O 0.31982 0.37616 0.0484 0.0
C6 C 0.88869 0.36896 1.01537 0.0
O7 O 0.10426 0.41893 0.05699 0.0
O8 O 0.10544 0.42681 0.98888 0.0
N9 N 0.13476 0.36238 0.11336 0.0
C10 C 0.10081 0.37852 0.14754 0.0
C11 C 0.14334 0.33244 0.16814 0.0
N12 N 0.16202 0.33389 0.12655 0.0
N13 N 0.10424 0.36009 0.18212 0.0
C14 C 0.06498 0.37322 0.88488 0.0
C15 C 0.17933 0.4071 0.85677 0.0
N16 N 0.12969 0.38609 0.916 0.0
N17 N 0.20071 0.4071 0.89839 0.0
N18 N 0.09445 0.38603 0.84761 0.0
H19 H 0.96463 0.33367 0.86311 0.0
H20 H 0.88323 0.36066 0.89484 0.0
H21 H -0.01107 0.33466 0.91925 0.0
C22 C 0.97064 0.34893 0.89093 0.0
C23 C 0.06195 0.41192 0.14703 0.0
H24 H 0.13551 0.42668 0.13491 0.0
H25 H 0.03839 0.42006 0.17882 0.0
H26 H -0.01644 0.41472 0.12603 0.0
O27 O 0.94661 0.36539 0.04934 0.0
O28 O 0.94392 0.37321 0.98105 0.0
C29 C 0.09139 0.43714 1.02569 0.0
O30 O 0.16202 0.33011 0.97144 0.0
O31 O 0.15867 0.32301 0.0397 0.0
Zn32 Zn 0.86284 0.62295 0.08325 0.0
O33 O 0.89802 0.57505 0.08502 0.0
C34 C 0.10615 0.63167 0.0453 0.0
Zn35 Zn 0.86262 0.62544 1.01287 0.0
C36 C 0.90906 0.56152 0.04998 0.0
O37 O 0.89153 0.5766 1.01592 0.0
C38 C 0.80712 0.6863 0.04607 0.0
O39 O 0.67554 0.61993 1.01645 0.0
O40 O 0.67725 0.61497 0.08511 0.0
N41 N 0.8518 0.62508 0.94814 0.0
C42 C 0.92243 0.61359 0.91775 0.0
C43 C 0.78016 0.63793 0.88731 0.0
N44 N 0.76338 0.64008 0.929 0.0
N45 N 0.87952 0.62144 0.87949 0.0
C46 C 0.93408 0.61444 0.17894 0.0
C47 C 0.82165 0.6487 0.2063 0.0
N48 N 0.867 0.62689 0.14771 0.0
N49 N 0.79704 0.64801 0.16502 0.0
N50 N 0.9078 0.62797 0.21595 0.0
H51 H -0.01674 0.56863 0.15956 0.0
H52 H 0.06976 0.58302 0.20303 0.0
H53 H 0.09447 0.59801 0.15063 0.0
C54 C 0.02604 0.5896 0.17299 0.0
C55 C 0.03364 0.59506 0.92531 0.0
H56 H 0.10441 0.61058 0.93761 0.0
H57 H 0.06603 0.58429 0.89601 0.0
H58 H 0.01616 0.57647 0.94873 0.0
O59 O 0.83264 0.6739 1.0113 0.0
O60 O 0.82176 0.67088 0.07982 0.0
C61 C 0.61955 0.61717 0.05084 0.0
O62 O 0.05048 0.63072 0.07999 0.0
O63 O 0.04832 0.6315 1.01098 0.0
Zn64 Zn 0.11463 0.6188 0.51633 0.0
O65 O 0.08633 0.57051 0.50741 0.0
C66 C 0.87175 0.6201 0.55032 0.0
Zn67 Zn 0.11563 0.60944 0.58587 0.0
C68 C 0.07579 0.55174 0.53823 0.0
O69 O 0.08941 0.56163 0.57531 0.0
C70 C 0.15897 0.67651 0.56507 0.0
O71 O 0.30136 0.60327 0.58519 0.0
O72 O 0.30206 0.61334 0.51735 0.0
N73 N 0.11278 0.60105 0.6495 0.0
C74 C 0.04811 0.61367 0.68063 0.0
C75 C 0.15698 0.57823 0.70823 0.0
N76 N 0.18044 0.57906 0.6668 0.0
N77 N 0.07412 0.59973 0.71758 0.0
C78 C 0.08214 0.61232 0.41765 0.0
C79 C 0.11791 0.65901 0.39816 0.0
N80 N 0.11478 0.62829 0.45228 0.0
N81 N 0.13771 0.65719 0.43976 0.0
N82 N 0.08232 0.63121 0.38345 0.0
H83 H 0.12244 0.56437 0.42971 0.0
H84 H 0.02587 0.5706 0.38525 0.0
H85 H 0.96875 0.57497 0.43772 0.0
C86 C 0.04747 0.57862 0.41733 0.0
C87 C 0.95674 0.6388 0.67496 0.0
H88 H 0.95739 0.6546 0.70231 0.0
H89 H 0.86706 0.62795 0.67296 0.0
H90 H 0.9728 0.65238 0.64596 0.0
O91 O 0.1467 0.65774 0.59581 0.0
O92 O 0.14289 0.66686 0.52794 0.0
C93 C 0.35843 0.60788 0.55138 0.0
O94 O 0.92894 0.62441 0.51653 0.0
O95 O 0.92768 0.61501 0.58446 0.0
Zn96 Zn 0.88955 0.35898 0.5514 0.0
O97 O 0.70326 0.36288 0.5492 0.0
C98 C 0.8581 0.29667 0.51546 0.0
Zn99 Zn 0.89176 0.36208 0.48129 0.0
C100 C 0.64699 0.3655 0.51476 0.0
O101 O 0.70435 0.3674 0.48056 0.0
C102 C 0.13363 0.35536 0.51818 0.0
O103 O 0.91431 0.41056 0.48128 0.0
O104 O 0.91171 0.40842 0.55033 0.0
N105 N 0.8923 0.36015 0.41695 0.0
C106 C 0.95722 0.37385 0.38634 0.0
C107 C 0.84646 0.33978 0.35737 0.0
N108 N 0.8231 0.33923 0.39867 0.0
N109 N 0.93083 0.36118 0.34874 0.0
C110 C 0.9523 0.36945 0.64656 0.0
C111 C 0.8117 0.34438 0.67651 0.0
N112 N 0.88207 0.35781 0.61597 0.0
N113 N 0.79482 0.3423 0.63477 0.0
N114 N 0.91004 0.36127 0.68464 0.0
H115 H 0.04391 0.4069 0.61567 0.0
H116 H 0.13412 0.37326 0.62739 0.0
H117 H 0.09371 0.3995 0.6687 0.0
C118 C 0.06225 0.3885 0.63933 0.0
C119 C 0.04669 0.39921 0.39339 0.0
H120 H 0.00213 0.41946 0.40791 0.0
H121 H 0.08838 0.40695 0.36362 0.0
H122 H 0.11702 0.39079 0.41522 0.0
O123 O 0.07837 0.35718 0.48339 0.0
O124 O 0.07602 0.35438 0.55237 0.0
C125 C 0.92419 0.42401 0.51643 0.0
O126 O 0.86651 0.31012 0.55066 0.0
O127 O 0.86906 0.313 0.48242 0.0
Zn128 Zn 0.48701 0.86135 1.01981 0.0
O129 O 0.673 0.8685 1.01436 0.0
C130 C 0.53771 0.80014 0.06052 0.0
Zn131 Zn 0.49253 0.86389 0.08921 0.0
C132 C 0.73307 0.86816 0.04825 0.0
O133 O 0.67979 0.86722 0.08329 0.0
C134 C 0.24555 0.8564 0.05887 0.0
O135 O 0.4791 0.91297 0.08481 0.0
O136 O 0.45389 0.90995 1.01661 0.0
N137 N 0.51038 0.86532 0.15301 0.0
C138 C 0.43448 0.87011 0.18505 0.0
C139 C 0.59947 0.8547 0.21156 0.0
N140 N 0.61288 0.85599 0.16972 0.0
N141 N 0.4881 0.86324 0.2219 0.0
C142 C 0.48116 0.87388 0.92283 0.0
C143 C 0.40336 0.83132 0.90196 0.0
N144 N 0.46618 0.85554 0.95687 0.0
N145 N 0.41814 0.82912 0.94374 0.0
N146 N 0.44174 0.85924 0.88821 0.0
H147 H 0.46267 0.92262 0.93356 0.0
H148 H 0.56465 0.91314 0.89209 0.0
H149 H 0.60725 0.90682 0.9464 0.0
C150 C 0.53256 0.90599 0.92358 0.0
C151 C 0.30733 0.8803 0.18053 0.0
H152 H 0.27509 0.89099 0.20993 0.0
H153 H 0.25073 0.85975 0.17366 0.0
H154 H 0.29813 0.89725 0.1544 0.0
O155 O 0.30331 0.86042 0.09273 0.0
O156 O 0.30152 0.85404 1.02467 0.0
C157 C 0.45891 0.92629 0.04976 0.0
O158 O 0.52549 0.81347 1.02513 0.0
O159 O 0.51316 0.81493 0.09362 0.0
Zn160 Zn 0.34756 0.12377 0.04561 0.0
O161 O 0.37037 0.07549 0.05265 0.0
C162 C 0.59213 0.12462 1.01083 0.0
Zn163 Zn 0.34961 0.11797 0.97594 0.0
C164 C 0.37086 0.05756 1.02113 0.0
O165 O 0.35685 0.06885 0.9844 0.0
C166 C 0.32357 0.18399 0.99945 0.0
O167 O 0.16024 0.11706 0.9778 0.0
O168 O 0.1613 0.11866 0.04672 0.0
N169 N 0.34188 0.11384 0.91163 0.0
C170 C 0.42164 0.10652 0.88167 0.0
C171 C 0.26029 0.11952 0.85045 0.0
N172 N 0.24181 0.1218 0.89199 0.0
N173 N 0.37256 0.11004 0.84325 0.0
C174 C 0.40759 0.11636 0.14135 0.0
C175 C 0.30822 0.15386 0.16725 0.0
N176 N 0.34862 0.13043 0.10939 0.0
N177 N 0.28676 0.15363 0.12568 0.0
N178 N 0.38403 0.13076 0.17786 0.0
H179 H 0.43174 0.06757 0.13204 0.0
H180 H 0.54318 0.08485 0.16525 0.0
H181 H 0.54565 0.09163 0.1092 0.0
C182 C 0.48743 0.08862 0.13687 0.0
C183 C 0.5478 0.09671 0.88969 0.0
H184 H 0.55134 0.08015 0.91641 0.0
H185 H 0.60193 0.11753 0.89753 0.0
H186 H 0.58691 0.08558 0.86167 0.0
O187 O 0.34299 0.16677 0.96812 0.0
O188 O 0.32252 0.17205 0.03605 0.0
C189 C 0.10437 0.11751 1.01233 0.0
O190 O 0.53419 0.12898 0.04433 0.0
O191 O 0.53745 0.1194 0.97668 0.0
Zn192 Zn 0.58688 0.11497 0.47847 0.0
O193 O 0.5543 0.0674 0.4695 0.0
C194 C 0.3441 0.11954 0.51771 0.0
Zn195 Zn 0.5881 0.11217 0.54867 0.0
C196 C 0.54564 0.05123 0.50284 0.0
O197 O 0.5625 0.06387 0.53829 0.0
C198 C 0.6361 0.17557 0.52503 0.0
O199 O 0.77472 0.10801 0.54402 0.0
O200 O 0.77352 0.10818 0.475 0.0
N201 N 0.59959 0.10319 0.61177 0.0
C202 C 0.53524 0.11335 0.64452 0.0
C203 C 0.66144 0.08049 0.66855 0.0
N204 N 0.67821 0.08287 0.62682 0.0
N205 N 0.57211 0.0994 0.68031 0.0
C206 C 0.55236 0.10967 0.37966 0.0
C207 C 0.55896 0.15786 0.36295 0.0
N208 N 0.57556 0.12562 0.41516 0.0
N209 N 0.58015 0.15549 0.40436 0.0
N210 N 0.54056 0.12946 0.34669 0.0
H211 H 0.61644 0.06356 0.39249 0.0
H212 H 0.5316 0.06718 0.34438 0.0
H213 H 0.45683 0.06792 0.39435 0.0
C214 C 0.5386 0.07504 0.37733 0.0
C215 C 0.434 0.13602 0.6414 0.0
H216 H 0.42299 0.1488 0.67121 0.0
H217 H 0.35036 0.12301 0.63513 0.0
H218 H 0.44877 0.15287 0.61543 0.0
O219 O 0.61486 0.16025 0.55837 0.0
O220 O 0.62355 0.16249 0.48974 0.0
C221 C 0.83086 0.10769 0.50953 0.0
O222 O 0.39946 0.12143 0.48309 0.0
O223 O 0.40208 0.11669 0.55177 0.0
Zn224 Zn 0.35062 0.87081 0.58821 0.0
O225 O 0.16231 0.87405 0.58896 0.0
C226 C 0.31929 0.80289 0.57767 0.0
Zn227 Zn 0.34647 0.85879 0.5206 0.0
C228 C 0.1047 0.87028 0.55485 0.0
O229 O 0.16003 0.86523 0.52082 0.0
C230 C 0.5919 0.85951 0.55322 0.0
O231 O 0.37752 0.90521 0.50198 0.0
O232 O 0.36537 0.91813 0.56812 0.0
N233 N 0.34627 0.84453 0.46 0.0
C234 C 0.32174 0.85932 0.42355 0.0
C235 C 0.40998 0.81684 0.40867 0.0
N236 N 0.39968 0.81798 0.45061 0.0
N237 N 0.36261 0.84262 0.39101 0.0
C238 C 0.34107 0.87583 0.68669 0.0
C239 C 0.4555 0.91492 0.69561 0.0
N240 N 0.36992 0.88668 0.64834 0.0
N241 N 0.43995 0.91119 0.65411 0.0
N242 N 0.39419 0.89296 0.71668 0.0
H243 H 0.22393 0.84907 0.72621 0.0
H244 H 0.32357 0.82684 0.69409 0.0
H245 H 0.19574 0.84618 0.67036 0.0
C246 C 0.26592 0.84783 0.69484 0.0
C247 C 0.26302 0.89054 0.41976 0.0
H248 H 0.20038 0.89407 0.44608 0.0
H249 H 0.2144 0.89255 0.38949 0.0
H250 H 0.33196 0.90906 0.42057 0.0
O251 O 0.53264 0.85224 0.52087 0.0
O252 O 0.53781 0.8675 0.58621 0.0
C253 C 0.38261 0.92582 0.53012 0.0
O254 O 0.33716 0.82233 0.60705 0.0
O255 O 0.31833 0.81258 0.53995 0.0
C256 C 0.5762 0.3984 0.03955 0.0
C257 C 0.50707 0.37875 1.01344 0.0
C258 C 0.68768 0.3505 0.99247 0.0
C259 C 0.75725 0.37145 1.01626 0.0
N260 N 0.7715 0.41784 0.05847 0.0
N261 N 0.49705 0.33784 0.96148 0.0
C262 C 0.70256 0.39593 0.03905 0.0
C263 C 0.56288 0.35549 0.98859 0.0
N264 N 0.52102 0.41964 0.06465 0.0
N265 N 0.74018 0.32473 0.97561 0.0
H266 H 0.40434 0.33779 0.96038 0.0
H267 H 0.5347 0.32401 0.93839 0.0
H268 H 0.83107 0.32004 0.97858 0.0
H269 H 0.69295 0.30648 0.9621 0.0
H270 H 0.56391 0.43141 0.08879 0.0
H271 H 0.4302 0.42465 0.06272 0.0
H272 H 0.73824 0.43838 0.07096 0.0
H273 H 0.86414 0.417 0.0593 0.0
C274 C 0.29197 0.60218 1.02656 0.0
C275 C 0.23796 0.62872 0.04511 0.0
C276 C 0.43297 0.6459 0.07115 0.0
C277 C 0.48776 0.62017 0.05075 0.0
N278 N 0.47252 0.576 1.00478 0.0
N279 N 0.2574 0.67861 0.07815 0.0
C280 C 0.41812 0.59912 1.02693 0.0
C281 C 0.30855 0.65126 0.06573 0.0
N282 N 0.22251 0.57886 1.01069 0.0
N283 N 0.49961 0.66549 0.09542 0.0
H284 H 0.16693 0.68349 0.07396 0.0
H285 H 0.30547 0.69765 0.08906 0.0
H286 H 0.59205 0.66449 0.09763 0.0
H287 H 0.46291 0.68197 0.11532 0.0
H288 H 0.25531 0.55738 1.00119 0.0
H289 H 0.12993 0.5795 1.01074 0.0
H290 H 0.42939 0.56289 0.98198 0.0
H291 H 0.56308 0.57086 1.00743 0.0
C292 C 0.6851 0.5935 0.5259 0.0
C293 C 0.74032 0.61766 0.54931 0.0
C294 C 0.54673 0.63309 0.57757 0.0
C295 C 0.49027 0.61016 0.55216 0.0
N296 N 0.50296 0.57022 0.49961 0.0
N297 N 0.72429 0.66378 0.59116 0.0
C298 C 0.55874 0.59101 0.52539 0.0
C299 C 0.67138 0.63823 0.57368 0.0
N300 N 0.75359 0.57191 0.50587 0.0
N301 N 0.48163 0.65029 0.6052 0.0
H302 H 0.81508 0.66857 0.58821 0.0
H303 H 0.67736 0.6818 0.60518 0.0
H304 H 0.38897 0.65019 0.60644 0.0
H305 H 0.51991 0.66386 0.62856 0.0
H306 H 0.71998 0.55153 0.49289 0.0
H307 H 0.84622 0.57281 0.50495 0.0
H308 H 0.54527 0.5589 0.47509 0.0
H309 H 0.41219 0.56521 0.50136 0.0
C310 C 0.45728 0.33885 0.493 0.0
C311 C 0.51515 0.36353 0.5147 0.0
C312 C 0.32161 0.38306 0.53828 0.0
C313 C 0.26494 0.35733 0.51877 0.0
N314 N 0.27808 0.30783 0.48424 0.0
N315 N 0.50463 0.40681 0.56251 0.0
C316 C 0.33248 0.33451 0.49772 0.0
C317 C 0.44795 0.38481 0.53891 0.0
N318 N 0.52135 0.31927 0.46816 0.0
N319 N 0.25469 0.40679 0.5542 0.0
H320 H 0.59604 0.41088 0.56123 0.0
H321 H 0.4621 0.41993 0.58531 0.0
H322 H 0.16192 0.40682 0.55393 0.0
H323 H 0.29016 0.4279 0.56415 0.0
H324 H 0.48235 0.30398 0.44697 0.0
H325 H 0.6139 0.31931 0.46677 0.0
H326 H 0.32408 0.2886 0.47297 0.0
H327 H 0.18703 0.30362 0.48789 0.0
C328 C 0.92097 0.83818 0.03486 0.0
C329 C 0.86473 0.86621 0.04775 0.0
C330 C 0.05924 0.88826 0.06593 0.0
C331 C 0.11383 0.85908 0.0576 0.0
N332 N 0.09575 0.80492 0.03976 0.0
N333 N 0.87747 0.91697 0.07926 0.0
C334 C 0.04443 0.83367 0.04344 0.0
C335 C 0.93305 0.89089 0.06464 0.0
N336 N 0.85683 0.81586 1.01436 0.0
N337 N 0.12827 0.91399 0.07245 0.0
H338 H 0.78608 0.92091 0.07585 0.0
H339 H 0.92095 0.93392 0.09681 0.0
H340 H 0.22091 0.91317 0.07226 0.0
H341 H 0.09444 0.93655 0.07396 0.0
H342 H 0.89544 0.79654 1.00031 0.0
H343 H 0.76554 0.81756 1.00872 0.0
H344 H 0.04747 0.78463 0.0342 0.0
H345 H 0.18584 0.80085 0.04609 0.0
C346 C 0.905 0.09197 1.01812 0.0
C347 C 0.9733 0.11936 1.01244 0.0
C348 C 0.79109 0.15017 1.00338 0.0
C349 C 0.72309 0.12319 1.01235 0.0
N350 N 0.71476 0.07029 0.03856 0.0
N351 N -0.01696 0.17549 1.00969 0.0
C352 C 0.7798 0.09459 1.02284 0.0
C353 C 0.91691 0.14881 1.00789 0.0
N354 N 0.95923 0.06346 1.018 0.0
N355 N 0.73574 0.17695 0.99034 0.0
H356 H 0.07502 0.17527 1.0144 0.0
H357 H 0.94581 0.19771 1.01056 0.0
H358 H 0.64322 0.17894 0.98777 0.0
H359 H 0.7818 0.19638 0.97915 0.0
H360 H 0.91222 0.04252 1.01789 0.0
H361 H 0.05098 0.0608 1.01413 0.0
H362 H 0.75315 0.04999 0.05061 0.0
H363 H 0.62291 0.07154 0.04305 0.0
C364 C 0.15708 0.08929 0.53219 0.0
C365 C 0.21244 0.11716 0.51762 0.0
C366 C 0.01865 0.13758 0.49439 0.0
C367 C 0.96263 0.11017 0.51037 0.0
N368 N -0.02531 0.06208 0.54999 0.0
N369 N 0.1965 0.16993 0.49221 0.0
C370 C 0.03077 0.08675 0.53108 0.0
C371 C 0.1434 0.14183 0.5005 0.0
N372 N 0.2253 0.06457 0.54521 0.0
N373 N 0.9526 0.15981 0.47387 0.0
H374 H 0.28727 0.17395 0.49708 0.0
H375 H 0.14997 0.19009 0.4841 0.0
H376 H 0.85998 0.15932 0.47181 0.0
H377 H -0.01033 0.17821 0.45693 0.0
H378 H 0.19138 0.04238 0.55103 0.0
H379 H 0.31796 0.06516 0.54696 0.0
H380 H 0.01703 0.04665 0.57053 0.0
H381 H 0.88346 0.05795 0.54729 0.0
C382 C 0.79145 0.84106 0.57806 0.0
C383 C 0.72326 0.86113 0.5519 0.0
C384 C 0.90433 0.88946 0.53142 0.0
C385 C 0.97319 0.86803 0.55523 0.0
N386 N -0.01423 0.8197 0.59422 0.0
N387 N 0.71486 0.90152 0.4985 0.0
C388 C 0.91772 0.84289 0.57689 0.0
C389 C 0.77976 0.88435 0.5268 0.0
N390 N 0.73565 0.82011 0.60391 0.0
N391 N 0.95732 0.91544 0.51477 0.0
H392 H 0.62264 0.89984 0.49535 0.0
H393 H 0.75326 0.9161 0.47607 0.0
H394 H 0.04824 0.92003 0.51807 0.0
H395 H 0.91012 0.93381 0.50108 0.0
H396 H 0.7796 0.80779 0.62763 0.0
H397 H 0.64382 0.8162 0.60329 0.0
H398 H 0.95068 0.79894 0.60592 0.0
H399 H 0.07848 0.81993 0.5934 0.0
C400 C 0.06437 0.52045 0.06498 0.0
C401 C 0.95114 0.52888 0.04798 0.0
C402 C 0.9344 0.47814 1.01406 0.0
C403 C 0.04576 0.46913 0.03222 0.0
N404 N 0.2107 0.48 0.07873 0.0
N405 N 0.76645 0.51366 1.01557 0.0
C406 C 0.10819 0.48968 0.05919 0.0
C407 C 0.88307 0.50716 1.02498 0.0
N408 N 0.1336 0.54231 0.08438 0.0
N409 N 0.87645 0.45904 0.98657 0.0
H410 H 0.72494 0.53432 1.02442 0.0
H411 H 0.70722 0.49748 1.00307 0.0
H412 H 0.90137 0.43615 0.98074 0.0
H413 H 0.80531 0.46637 0.96786 0.0
H414 H 0.2222 0.53874 0.09299 0.0
H415 H 0.10704 0.56527 0.08865 0.0
H416 H 0.25075 0.49189 0.10335 0.0
H417 H 0.25348 0.45913 0.07179 0.0
C418 C 0.06932 0.46744 0.50135 0.0
C419 C 0.95852 0.45733 0.5183 0.0
C420 C 0.92681 0.50869 0.54918 0.0
C421 C 0.03587 0.51924 0.53117 0.0
N422 N 0.2033 0.51025 0.4855 0.0
N423 N 0.76939 0.46998 0.54895 0.0
C424 C 0.10411 0.49916 0.50549 0.0
C425 C 0.88401 0.47841 0.53973 0.0
N426 N 0.14474 0.44639 0.48342 0.0
N427 N 0.86322 0.52755 0.57524 0.0
H428 H 0.73416 0.44836 0.5409 0.0
H429 H 0.70557 0.48529 0.56039 0.0
H430 H 0.88264 0.55096 0.58 0.0
H431 H 0.79332 0.51958 0.59385 0.0
H432 H 0.23244 0.45136 0.47518 0.0
H433 H 0.12404 0.42293 0.47988 0.0
H434 H 0.24696 0.4983 0.46182 0.0
H435 H 0.239 0.53226 0.49084 0.0
C436 C 0.51501 0.97707 1.01583 0.0
C437 C 0.44704 0.9608 0.0465 0.0
C438 C 0.32526 0.00735 0.05777 0.0
C439 C 0.3938 0.02386 1.02772 0.0
N440 N 0.56704 0.02631 0.98295 0.0
N441 N 0.31599 0.96439 0.10659 0.0
C442 C 0.49186 0.00918 1.00772 0.0
C443 C 0.36105 0.97706 0.07059 0.0
N444 N 0.60511 0.96197 0.9956 0.0
N445 N 0.22238 0.02006 0.07292 0.0
H446 H 0.34059 0.94275 0.11842 0.0
H447 H 0.26341 0.97686 0.12742 0.0
H448 H 0.19171 0.0421 0.06415 0.0
H449 H 0.16116 0.00753 0.09085 0.0
H450 H 0.64588 0.97031 0.96851 0.0
H451 H 0.63855 0.94051 1.00581 0.0
H452 H 0.64694 0.01803 0.97092 0.0
H453 H 0.55551 0.04995 0.97691 0.0
C454 C 0.58687 -0.00377 0.52197 0.0
C455 C 0.51139 0.01798 0.50166 0.0
C456 C 0.35804 0.97758 0.4934 0.0
C457 C 0.42649 0.95747 0.51962 0.0
N458 N 0.60407 0.94841 0.56164 0.0
N459 N 0.32256 0.0304 0.46872 0.0
C460 C 0.54039 0.96699 0.53468 0.0
C461 C 0.39693 0.00885 0.48681 0.0
N462 N 0.70472 0.00328 0.52769 0.0
N463 N 0.25499 0.96698 0.47544 0.0
H464 H 0.3472 0.05344 0.46306 0.0
H465 H 0.23312 0.02621 0.46197 0.0
H466 H 0.21912 0.94511 0.4821 0.0
H467 H 0.20863 0.97906 0.4521 0.0
H468 H 0.7679 0.9873 0.5385 0.0
H469 H 0.74172 0.02416 0.51695 0.0
H470 H 0.67976 0.95593 0.57767 0.0
H471 H 0.57822 0.92598 0.57013 0.0
C472 C 0.32757 0.27124 1.01761 0.0
C473 C 0.21753 0.27995 0.99842 0.0
C474 C 0.19651 0.22743 0.96978 0.0
C475 C 0.29709 0.21762 0.99397 0.0
N476 N 0.4614 0.22991 0.03995 0.0
N477 N 0.04013 0.26585 0.96023 0.0
C478 C 0.36366 0.23953 1.01748 0.0
C479 C 0.15097 0.25806 0.97501 0.0
N480 N 0.39987 0.29349 0.03468 0.0
N481 N 0.14293 0.20758 0.94218 0.0
H482 H 0.00295 0.28788 0.96399 0.0
H483 H -0.01954 0.24983 0.94764 0.0
H484 H 0.16568 0.18424 0.93907 0.0
H485 H 0.07993 0.21482 0.92009 0.0
H486 H 0.48722 0.28941 0.04444 0.0
H487 H 0.37675 0.31691 0.03597 0.0
H488 H 0.5033 0.24338 0.06264 0.0
H489 H 0.49879 0.20779 0.037 0.0
C490 C 0.5522 0.74467 0.03939 0.0
C491 C 0.59998 0.76968 0.06248 0.0
C492 C 0.78565 0.74014 0.07438 0.0
C493 C 0.74185 0.71633 0.04791 0.0
N494 N 0.5859 0.69689 1.00194 0.0
N495 N 0.7645 0.79235 0.10117 0.0
C496 C 0.6261 0.71892 1.0293 0.0
C497 C 0.71668 0.76757 0.08032 0.0
N498 N 0.43382 0.74505 1.02873 0.0
N499 N 0.89387 0.73649 0.09386 0.0
H500 H 0.71654 0.81213 0.10891 0.0
H501 H 0.85418 0.79422 0.10928 0.0
H502 H 0.95294 0.71854 0.08672 0.0
H503 H 0.92386 0.75042 0.11826 0.0
H504 H 0.38866 0.72611 1.01608 0.0
H505 H 0.3772 0.76338 0.03659 0.0
H506 H 0.50974 0.69964 0.98351 0.0
H507 H 0.6315 0.67655 0.99508 0.0
C508 C 0.3196 0.71676 0.55418 0.0
C509 C 0.20809 0.70819 0.57221 0.0
C510 C 0.20307 0.75791 0.60932 0.0
C511 C 0.30051 0.7688 0.585 0.0
N512 N 0.46249 0.75767 0.53828 0.0
N513 N 0.03767 0.72182 0.61402 0.0
C514 C 0.36256 0.74773 0.5589 0.0
C515 C 0.14892 0.72894 0.59943 0.0
N516 N 0.38642 0.69506 0.53371 0.0
N517 N 0.16376 0.7747 0.64249 0.0
H518 H -0.00664 0.70127 0.6064 0.0
H519 H -0.01532 0.73757 0.63021 0.0
H520 H 0.20425 0.79527 0.65144 0.0
H521 H 0.10054 0.76651 0.66373 0.0
H522 H 0.47399 0.69869 0.52418 0.0
H523 H 0.35847 0.67226 0.52907 0.0
H524 H 0.50249 0.74556 0.51398 0.0
H525 H 0.50406 0.77884 0.545 0.0
C526 C 0.72915 0.25414 0.48502 0.0
C527 C 0.82 0.26326 0.5136 0.0
C528 C 0.79969 0.21227 0.54866 0.0
C529 C 0.69181 0.20694 0.52592 0.0
N530 N 0.54235 0.22679 0.4781 0.0
N531 N 0.94902 0.24934 0.57153 0.0
C532 C 0.65269 0.22927 0.49609 0.0
C533 C 0.85666 0.24189 0.54542 0.0
N534 N 0.72008 0.26728 0.44605 0.0
N535 N 0.85315 0.18861 0.57075 0.0
H536 H 0.00508 0.26833 0.56604 0.0
H537 H 0.96836 0.23693 0.59894 0.0
H538 H 0.81839 0.16622 0.57318 0.0
H539 H 0.93854 0.1903 0.58352 0.0
H540 H 0.65862 0.25964 0.42377 0.0
H541 H 0.78484 0.28187 0.43346 0.0
H542 H 0.50686 0.24402 0.45845 0.0
H543 H 0.48196 0.20932 0.48648 0.0
C544 C 0.942 0.37152 0.23248 0.0
C545 C 0.06431 0.36584 0.22429 0.0
C546 C 0.10164 0.35874 0.29946 0.0
C547 C -0.01882 0.3666 0.30778 0.0
N548 N 0.79534 0.38795 0.28332 0.0
N549 N 0.26519 0.36142 0.25004 0.0
C550 C 0.90445 0.37561 0.2745 0.0
C551 C 0.14572 0.362 0.25797 0.0
N552 N 0.86045 0.37081 0.20061 0.0
N553 N 0.17144 0.34614 0.33039 0.0
H554 H 0.29912 0.3642 0.21983 0.0
H555 H 0.32983 0.3613 0.2736 0.0
H556 H 0.14052 0.34201 0.36067 0.0
H557 H 0.25627 0.33715 0.32501 0.0
H558 H 0.76871 0.37181 0.20548 0.0
H559 H 0.88353 0.36617 0.1697 0.0
H560 H 0.739 0.39737 0.26046 0.0
H561 H 0.76711 0.39158 0.31403 0.0
C562 C 0.0781 0.63251 0.26577 0.0
C563 C 0.95862 0.62359 0.25727 0.0
C564 C 0.92072 0.61884 0.33264 0.0
C565 C 0.04237 0.62554 0.34106 0.0
N566 N 0.24224 0.63185 0.31562 0.0
N567 N 0.77522 0.60114 0.28167 0.0
C568 C 0.12288 0.63005 0.30746 0.0
C569 C 0.8831 0.61431 0.29055 0.0
N570 N 0.14627 0.64519 0.23466 0.0
N571 N 0.83963 0.61886 0.36443 0.0
H572 H 0.747 0.59716 0.25096 0.0
H573 H 0.72006 0.59143 0.3045 0.0
H574 H 0.86275 0.62367 0.39536 0.0
H575 H 0.74797 0.6171 0.3595 0.0
H576 H 0.22998 0.65497 0.23997 0.0
H577 H 0.11482 0.64847 0.20417 0.0
H578 H 0.3067 0.63244 0.29221 0.0
H579 H 0.27681 0.62964 0.34593 0.0
C580 C 0.88146 0.59186 0.81351 0.0
C581 C 0.92987 0.61571 0.8388 0.0
C582 C 0.07688 0.62817 0.78445 0.0
C583 C 0.02423 0.60547 0.7583 0.0
N584 N 0.87048 0.56796 0.74476 0.0
N585 N 0.06308 0.65895 0.84787 0.0
C586 C 0.92459 0.58792 0.77199 0.0
C587 C 0.0251 0.63451 0.82414 0.0
N588 N 0.79654 0.57254 0.82994 0.0
N589 N 0.17757 0.64319 0.77128 0.0
H590 H 0.02678 0.66387 0.87711 0.0
H591 H 0.1247 0.67548 0.83776 0.0
H592 H 0.21479 0.63944 0.74183 0.0
H593 H 0.22805 0.65791 0.79006 0.0
H594 H 0.76414 0.55285 0.81489 0.0
H595 H 0.76393 0.57513 0.86029 0.0
H596 H 0.79077 0.55643 0.75098 0.0
H597 H 0.90209 0.56441 0.71447 0.0
C598 C 0.05029 0.34877 0.74221 0.0
C599 C 0.95827 0.36784 0.72551 0.0
C600 C 0.95098 0.39752 0.79074 0.0
C601 C 0.04701 0.37949 0.80663 0.0
N602 N 0.19646 0.34014 0.79771 0.0
N603 N 0.82891 0.41214 0.73049 0.0
C604 C 0.09909 0.35567 0.78235 0.0
C605 C 0.91062 0.39273 0.74893 0.0
N606 N 0.08832 0.32369 0.71986 0.0
N607 N 0.89753 0.41874 0.81619 0.0
H608 H 0.798 0.40885 0.69994 0.0
H609 H 0.79742 0.43246 0.74409 0.0
H610 H 0.92714 0.42285 0.8467 0.0
H611 H 0.82018 0.43086 0.80831 0.0
H612 H 0.14755 0.307 0.73135 0.0
H613 H 0.05482 0.31856 0.69015 0.0
H614 H 0.24649 0.3244 0.7805 0.0
H615 H 0.2314 0.34434 0.8275 0.0
C616 C 0.48422 0.88183 0.29433 0.0
C617 C 0.43913 0.86159 0.26341 0.0
C618 C 0.31896 0.83478 0.31642 0.0
C619 C 0.37822 0.8518 0.34797 0.0
N620 N 0.53187 0.88828 0.36771 0.0
N621 N 0.32569 0.81594 0.24518 0.0
C622 C 0.46386 0.87482 0.33721 0.0
C623 C 0.35825 0.83748 0.27432 0.0
N624 N 0.54726 0.9076 0.2824 0.0
N625 N 0.22587 0.81587 0.3271 0.0
H626 H 0.35671 0.81652 0.21446 0.0
H627 H 0.27629 0.79606 0.25235 0.0
H628 H 0.19637 0.81366 0.35797 0.0
H629 H 0.17187 0.80478 0.30517 0.0
H630 H 0.57393 0.92484 0.30323 0.0
H631 H 0.56267 0.91307 0.25095 0.0
H632 H 0.60373 0.90293 0.3613 0.0
H633 H 0.52378 0.88262 0.39937 0.0
C634 C 0.35244 0.11384 0.25091 0.0
C635 C 0.43041 0.12493 0.2194 0.0
C636 C 0.58975 0.13024 0.27165 0.0
C637 C 0.50671 0.12373 0.30381 0.0
N638 N 0.3053 0.11243 0.32497 0.0
N639 N 0.62008 0.14658 0.19954 0.0
C640 C 0.38715 0.11591 0.29372 0.0
C641 C 0.54899 0.13356 0.22959 0.0
N642 N 0.24521 0.10136 0.23956 0.0
N643 N 0.70763 0.13323 0.28171 0.0
H644 H 0.59211 0.14966 0.16859 0.0
H645 H 0.70319 0.15635 0.20585 0.0
H646 H 0.73873 0.13066 0.31244 0.0
H647 H 0.77496 0.13537 0.2595 0.0
H648 H 0.18798 0.09031 0.26057 0.0
H649 H 0.21883 0.09962 0.20825 0.0
H650 H 0.21418 0.10992 0.31952 0.0
H651 H 0.32729 0.11446 0.35658 0.0
C652 C 0.40069 0.08033 0.77834 0.0
C653 C 0.42696 0.10683 0.80276 0.0
C654 C 0.55667 0.12723 0.74733 0.0
C655 C 0.52319 0.10191 0.72173 0.0
N656 N 0.40424 0.0563 0.70971 0.0
N657 N 0.51732 0.15727 0.80995 0.0
C658 C 0.44272 0.07891 0.73643 0.0
C659 C 0.50201 0.13077 0.78715 0.0
N660 N 0.33783 0.05632 0.79587 0.0
N661 N 0.64226 0.14746 0.73356 0.0
H662 H 0.47826 0.16033 0.83924 0.0
H663 H 0.5616 0.17697 0.79888 0.0
H664 H 0.68185 0.14547 0.70416 0.0
H665 H 0.67963 0.16482 0.752 0.0
H666 H 0.32439 0.03497 0.78136 0.0
H667 H 0.30639 0.057 0.82659 0.0
H668 H 0.33705 0.04044 0.71692 0.0
H669 H 0.43414 0.05483 0.67886 0.0
C670 C 0.32665 0.89761 0.78965 0.0
C671 C 0.40835 0.88551 0.76037 0.0
C672 C 0.52206 0.86026 0.81684 0.0
C673 C 0.43511 0.87024 0.84567 0.0
N674 N 0.25073 0.89616 0.86088 0.0
N675 N 0.57769 0.85352 0.74405 0.0
C676 C 0.3365 0.88853 0.8325 0.0
C677 C 0.50486 0.86639 0.77344 0.0
N678 N 0.24072 0.91794 0.77616 0.0
N679 N 0.62178 0.84536 0.83145 0.0
H680 H 0.56828 0.8581 0.71205 0.0
H681 H 0.64269 0.83691 0.75084 0.0
H682 H 0.63539 0.84065 0.86326 0.0
H683 H 0.6945 0.83971 0.81287 0.0
H684 H 0.18407 0.92996 0.79605 0.0
H685 H 0.23076 0.92415 0.74463 0.0
H686 H 0.17059 0.90697 0.853 0.0
H687 H 0.25729 0.89008 0.89254 0.0
loop_
_geom_bond_atom_site_label_1
_geom_bond_atom_site_label_2
_geom_bond_distance
_geom_bond_site_symmetry_2
_ccdc_geom_bond_type
Zn0 O1 2.055 . S
Zn0 O8 2.046 . S
Zn0 N16 2.036 . S
Zn0 O28 2.053 1_455 S
Zn0 O30 2.066 . S
O1 Zn0 2.055 . S
O1 C4 1.259 1_556 S
C2 O30 1.256 . S
C2 O31 1.244 1_556 S
Zn3 O5 2.046 . S
Zn3 O7 2.055 . S
Zn3 N9 2.036 . S
Zn3 O27 2.066 1_455 S
Zn3 O31 2.053 . S
C4 O1 1.259 1_554 S
C4 O5 1.254 . S
O5 Zn3 2.046 . S
O5 C4 1.254 . S
C6 O27 1.256 . S
C6 O28 1.244 1_554 S
O7 Zn3 2.055 . S
O7 C29 1.259 . S
O8 Zn0 2.046 . S
O8 C29 1.254 1_556 S
N9 Zn3 2.036 . S
N9 C10 1.298 . S
N9 N12 1.398 . S
C10 N9 1.298 . S
C10 N13 1.367 . S
C10 C23 1.481 1_455 S
C11 N12 1.299 . S
C11 N13 1.379 . S
N12 N9 1.398 . S
N12 C11 1.299 . S
N13 C10 1.367 . S
N13 C11 1.379 . S
C14 N16 1.298 . S
C14 N18 1.367 . S
C14 C22 1.481 . S
C15 N17 1.299 . S
C15 N18 1.379 1_655 S
N16 Zn0 2.036 . S
N16 C14 1.298 . S
N16 N17 1.398 1_455 S
N17 C15 1.299 . S
N17 N16 1.398 1_655 S
N18 C14 1.367 . S
N18 C15 1.379 1_455 S
H19 C22 0.980 . S
H20 C22 0.981 . S
H21 C22 0.981 . S
C22 C14 1.481 . S
C22 H19 0.980 . S
C22 H20 0.981 . S
C22 H21 0.981 . S
C23 C10 1.481 1_655 S
C23 H24 0.980 . S
C23 H25 0.981 . S
C23 H26 0.981 . S
H24 C23 0.980 . S
H25 C23 0.981 . S
H26 C23 0.981 . S
O27 Zn3 2.066 1_655 S
O27 C6 1.256 . S
O28 Zn0 2.053 1_655 S
O28 C6 1.244 1_556 S
C29 O7 1.259 . S
C29 O8 1.254 1_554 S
O30 Zn0 2.066 . S
O30 C2 1.256 . S
O31 C2 1.244 1_554 S
O31 Zn3 2.053 . S
Zn32 O33 2.055 . S
Zn32 O40 2.046 . S
Zn32 N48 2.036 . S
Zn32 O60 2.053 . S
Zn32 O62 2.066 1_655 S
O33 Zn32 2.055 . S
O33 C36 1.259 . S
C34 O62 1.256 . S
C34 O63 1.244 1_554 S
Zn35 O37 2.046 . S
Zn35 O39 2.055 . S
Zn35 N41 2.036 . S
Zn35 O59 2.066 . S
Zn35 O63 2.053 1_655 S
C36 O33 1.259 . S
C36 O37 1.254 1_554 S
O37 Zn35 2.046 . S
O37 C36 1.254 1_556 S
C38 O59 1.256 . S
C38 O60 1.244 1_556 S
O39 Zn35 2.055 . S
O39 C61 1.259 1_556 S
O40 Zn32 2.046 . S
O40 C61 1.254 . S
N41 Zn35 2.036 . S
N41 C42 1.298 . S
N41 N44 1.398 1_655 S
C42 N41 1.298 . S
C42 N45 1.367 . S
C42 C55 1.481 . S
C43 N44 1.299 . S
C43 N45 1.379 1_455 S
N44 N41 1.398 1_455 S
N44 C43 1.299 . S
N45 C42 1.367 . S
N45 C43 1.379 1_655 S
C46 N48 1.298 . S
C46 N50 1.367 . S
C46 C54 1.481 1_655 S
C47 N49 1.299 . S
C47 N50 1.379 . S
N48 Zn32 2.036 . S
N48 C46 1.298 . S
N48 N49 1.398 . S
N49 C47 1.299 . S
N49 N48 1.398 . S
N50 C46 1.367 . S
N50 C47 1.379 . S
H51 C54 0.980 . S
H52 C54 0.981 . S
H53 C54 0.981 . S
C54 C46 1.481 1_455 S
C54 H51 0.980 . S
C54 H52 0.981 . S
C54 H53 0.981 . S
C55 C42 1.481 . S
C55 H56 0.980 . S
C55 H57 0.981 . S
C55 H58 0.981 . S
H56 C55 0.980 . S
H57 C55 0.981 . S
H58 C55 0.981 . S
O59 Zn35 2.066 . S
O59 C38 1.256 . S
O60 Zn32 2.053 . S
O60 C38 1.244 1_554 S
C61 O39 1.259 1_554 S
C61 O40 1.254 . S
O62 Zn32 2.066 1_455 S
O62 C34 1.256 . S
O63 C34 1.244 1_556 S
O63 Zn35 2.053 1_455 S
Zn64 O65 2.055 . S
Zn64 O72 2.046 . S
Zn64 N80 2.036 . S
Zn64 O92 2.053 . S
Zn64 O94 2.066 1_455 S
O65 Zn64 2.055 . S
O65 C68 1.259 . S
C66 O94 1.256 . S
C66 O95 1.244 . S
Zn67 O69 2.046 . S
Zn67 O71 2.055 . S
Zn67 N73 2.036 . S
Zn67 O91 2.066 . S
Zn67 O95 2.053 1_455 S
C68 O65 1.259 . S
C68 O69 1.254 . S
O69 Zn67 2.046 . S
O69 C68 1.254 . S
C70 O91 1.256 . S
C70 O92 1.244 . S
O71 Zn67 2.055 . S
O71 C93 1.259 . S
O72 Zn64 2.046 . S
O72 C93 1.254 . S
N73 Zn67 2.036 . S
N73 C74 1.298 . S
N73 N76 1.398 1_455 S
C74 N73 1.298 . S
C74 N77 1.367 . S
C74 C87 1.481 . S
C75 N76 1.299 . S
C75 N77 1.379 1_655 S
N76 N73 1.398 1_655 S
N76 C75 1.299 . S
N77 C74 1.367 . S
N77 C75 1.379 1_455 S
C78 N80 1.298 . S
C78 N82 1.367 . S
C78 C86 1.481 1_455 S
C79 N81 1.299 . S
C79 N82 1.379 . S
N80 Zn64 2.036 . S
N80 C78 1.298 . S
N80 N81 1.398 . S
N81 C79 1.299 . S
N81 N80 1.398 . S
N82 C78 1.367 . S
N82 C79 1.379 . S
H83 C86 0.980 . S
H84 C86 0.981 . S
H85 C86 0.981 . S
C86 C78 1.481 1_655 S
C86 H83 0.980 . S
C86 H84 0.981 . S
C86 H85 0.981 . S
C87 C74 1.481 . S
C87 H88 0.980 . S
C87 H89 0.981 . S
C87 H90 0.981 . S
H88 C87 0.980 . S
H89 C87 0.981 . S
H90 C87 0.981 . S
O91 Zn67 2.066 . S
O91 C70 1.256 . S
O92 Zn64 2.053 . S
O92 C70 1.244 . S
C93 O71 1.259 . S
C93 O72 1.254 . S
O94 Zn64 2.066 1_655 S
O94 C66 1.256 . S
O95 C66 1.244 . S
O95 Zn67 2.053 1_655 S
Zn96 O97 2.055 . S
Zn96 O104 2.046 . S
Zn96 N112 2.036 . S
Zn96 O124 2.053 1_655 S
Zn96 O126 2.066 . S
O97 Zn96 2.055 . S
O97 C100 1.259 . S
C98 O126 1.256 . S
C98 O127 1.244 . S
Zn99 O101 2.046 . S
Zn99 O103 2.055 . S
Zn99 N105 2.036 . S
Zn99 O123 2.066 1_655 S
Zn99 O127 2.053 . S
C100 O97 1.259 . S
C100 O101 1.254 . S
O101 Zn99 2.046 . S
O101 C100 1.254 . S
C102 O123 1.256 . S
C102 O124 1.244 . S
O103 Zn99 2.055 . S
O103 C125 1.259 . S
O104 Zn96 2.046 . S
O104 C125 1.254 . S
N105 Zn99 2.036 . S
N105 C106 1.298 . S
N105 N108 1.398 . S
C106 N105 1.298 . S
C106 N109 1.367 . S
C106 C119 1.481 1_655 S
C107 N108 1.299 . S
C107 N109 1.379 . S
N108 N105 1.398 . S
N108 C107 1.299 . S
N109 C106 1.367 . S
N109 C107 1.379 . S
C110 N112 1.298 . S
C110 N114 1.367 . S
C110 C118 1.481 . S
C111 N113 1.299 . S
C111 N114 1.379 1_455 S
N112 Zn96 2.036 . S
N112 C110 1.298 . S
N112 N113 1.398 1_655 S
N113 C111 1.299 . S
N113 N112 1.398 1_455 S
N114 C110 1.367 . S
N114 C111 1.379 1_655 S
H115 C118 0.980 . S
H116 C118 0.981 . S
H117 C118 0.981 . S
C118 C110 1.481 . S
C118 H115 0.980 . S
C118 H116 0.981 . S
C118 H117 0.981 . S
C119 C106 1.481 1_455 S
C119 H120 0.980 . S
C119 H121 0.981 . S
C119 H122 0.981 . S
H120 C119 0.980 . S
H121 C119 0.981 . S
H122 C119 0.981 . S
O123 Zn99 2.066 1_455 S
O123 C102 1.256 . S
O124 Zn96 2.053 1_455 S
O124 C102 1.244 . S
C125 O103 1.259 . S
C125 O104 1.254 . S
O126 Zn96 2.066 . S
O126 C98 1.256 . S
O127 C98 1.244 . S
O127 Zn99 2.053 . S
Zn128 O129 2.055 . S
Zn128 O136 2.046 . S
Zn128 N144 2.036 . S
Zn128 O156 2.053 . S
Zn128 O158 2.066 . S
O129 Zn128 2.055 . S
O129 C132 1.259 1_556 S
C130 O158 1.256 . S
C130 O159 1.244 1_556 S
Zn131 O133 2.046 . S
Zn131 O135 2.055 . S
Zn131 N137 2.036 . S
Zn131 O155 2.066 . S
Zn131 O159 2.053 . S
C132 O129 1.259 1_554 S
C132 O133 1.254 . S
O133 Zn131 2.046 . S
O133 C132 1.254 . S
C134 O155 1.256 . S
C134 O156 1.244 1_554 S
O135 Zn131 2.055 . S
O135 C157 1.259 . S
O136 Zn128 2.046 . S
O136 C157 1.254 1_556 S
N137 Zn131 2.036 . S
N137 C138 1.298 . S
N137 N140 1.398 . S
C138 N137 1.298 . S
C138 N141 1.367 . S
C138 C151 1.481 . S
C139 N140 1.299 . S
C139 N141 1.379 . S
N140 N137 1.398 . S
N140 C139 1.299 . S
N141 C138 1.367 . S
N141 C139 1.379 . S
C142 N144 1.298 . S
C142 N146 1.367 . S
C142 C150 1.481 . S
C143 N145 1.299 . S
C143 N146 1.379 . S
N144 Zn128 2.036 . S
N144 C142 1.298 . S
N144 N145 1.398 . S
N145 C143 1.299 . S
N145 N144 1.398 . S
N146 C142 1.367 . S
N146 C143 1.379 . S
H147 C150 0.980 . S
H148 C150 0.981 . S
H149 C150 0.981 . S
C150 C142 1.481 . S
C150 H147 0.980 . S
C150 H148 0.981 . S
C150 H149 0.981 . S
C151 C138 1.481 . S
C151 H152 0.980 . S
C151 H153 0.981 . S
C151 H154 0.981 . S
H152 C151 0.980 . S
H153 C151 0.981 . S
H154 C151 0.981 . S
O155 Zn131 2.066 . S
O155 C134 1.256 . S
O156 Zn128 2.053 . S
O156 C134 1.244 1_556 S
C157 O135 1.259 . S
C157 O136 1.254 1_554 S
O158 Zn128 2.066 . S
O158 C130 1.256 . S
O159 C130 1.244 1_554 S
O159 Zn131 2.053 . S
Zn160 O161 2.055 . S
Zn160 O168 2.046 . S
Zn160 N176 2.036 . S
Zn160 O188 2.053 . S
Zn160 O190 2.066 . S
O161 Zn160 2.055 . S
O161 C164 1.259 . S
C162 O190 1.256 . S
C162 O191 1.244 1_554 S
Zn163 O165 2.046 . S
Zn163 O167 2.055 . S
Zn163 N169 2.036 . S
Zn163 O187 2.066 . S
Zn163 O191 2.053 . S
C164 O161 1.259 . S
C164 O165 1.254 1_554 S
O165 Zn163 2.046 . S
O165 C164 1.254 1_556 S
C166 O187 1.256 . S
C166 O188 1.244 1_556 S
O167 Zn163 2.055 . S
O167 C189 1.259 1_556 S
O168 Zn160 2.046 . S
O168 C189 1.254 . S
N169 Zn163 2.036 . S
N169 C170 1.298 . S
N169 N172 1.398 . S
C170 N169 1.298 . S
C170 N173 1.367 . S
C170 C183 1.481 . S
C171 N172 1.299 . S
C171 N173 1.379 . S
N172 N169 1.398 . S
N172 C171 1.299 . S
N173 C170 1.367 . S
N173 C171 1.379 . S
C174 N176 1.298 . S
C174 N178 1.367 . S
C174 C182 1.481 . S
C175 N177 1.299 . S
C175 N178 1.379 . S
N176 Zn160 2.036 . S
N176 C174 1.298 . S
N176 N177 1.398 . S
N177 C175 1.299 . S
N177 N176 1.398 . S
N178 C174 1.367 . S
N178 C175 1.379 . S
H179 C182 0.980 . S
H180 C182 0.981 . S
H181 C182 0.981 . S
C182 C174 1.481 . S
C182 H179 0.980 . S
C182 H180 0.981 . S
C182 H181 0.981 . S
C183 C170 1.481 . S
C183 H184 0.980 . S
C183 H185 0.981 . S
C183 H186 0.981 . S
H184 C183 0.980 . S
H185 C183 0.981 . S
H186 C183 0.981 . S
O187 Zn163 2.066 . S
O187 C166 1.256 . S
O188 Zn160 2.053 . S
O188 C166 1.244 1_554 S
C189 O167 1.259 1_554 S
C189 O168 1.254 . S
O190 Zn160 2.066 . S
O190 C162 1.256 . S
O191 C162 1.244 1_556 S
O191 Zn163 2.053 . S
Zn192 O193 2.055 . S
Zn192 O200 2.046 . S
Zn192 N208 2.036 . S
Zn192 O220 2.053 . S
Zn192 O222 2.066 . S
O193 Zn192 2.055 . S
O193 C196 1.259 . S
C194 O222 1.256 . S
C194 O223 1.244 . S
Zn195 O197 2.046 . S
Zn195 O199 2.055 . S
Zn195 N201 2.036 . S
Zn195 O219 2.066 . S
Zn195 O223 2.053 . S
C196 O193 1.259 . S
C196 O197 1.254 . S
O197 Zn195 2.046 . S
O197 C196 1.254 . S
C198 O219 1.256 . S
C198 O220 1.244 . S
O199 Zn195 2.055 . S
O199 C221 1.259 . S
O200 Zn192 2.046 . S
O200 C221 1.254 . S
N201 Zn195 2.036 . S
N201 C202 1.298 . S
N201 N204 1.398 . S
C202 N201 1.298 . S
C202 N205 1.367 . S
C202 C215 1.481 . S
C203 N204 1.299 . S
C203 N205 1.379 . S
N204 N201 1.398 . S
N204 C203 1.299 . S
N205 C202 1.367 . S
N205 C203 1.379 . S
C206 N208 1.298 . S
C206 N210 1.367 . S
C206 C214 1.481 . S
C207 N209 1.299 . S
C207 N210 1.379 . S
N208 Zn192 2.036 . S
N208 C206 1.298 . S
N208 N209 1.398 . S
N209 C207 1.299 . S
N209 N208 1.398 . S
N210 C206 1.367 . S
N210 C207 1.379 . S
H211 C214 0.980 . S
H212 C214 0.981 . S
H213 C214 0.981 . S
C214 C206 1.481 . S
C214 H211 0.980 . S
C214 H212 0.981 . S
C214 H213 0.981 . S
C215 C202 1.481 . S
C215 H216 0.980 . S
C215 H217 0.981 . S
C215 H218 0.981 . S
H216 C215 0.980 . S
H217 C215 0.981 . S
H218 C215 0.981 . S
O219 Zn195 2.066 . S
O219 C198 1.256 . S
O220 Zn192 2.053 . S
O220 C198 1.244 . S
C221 O199 1.259 . S
C221 O200 1.254 . S
O222 Zn192 2.066 . S
O222 C194 1.256 . S
O223 C194 1.244 . S
O223 Zn195 2.053 . S
Zn224 O225 2.055 . S
Zn224 O232 2.046 . S
Zn224 N240 2.036 . S
Zn224 O252 2.053 . S
Zn224 O254 2.066 . S
O225 Zn224 2.055 . S
O225 C228 1.259 . S
C226 O254 1.256 . S
C226 O255 1.244 . S
Zn227 O229 2.046 . S
Zn227 O231 2.055 . S
Zn227 N233 2.036 . S
Zn227 O251 2.066 . S
Zn227 O255 2.053 . S
C228 O225 1.259 . S
C228 O229 1.254 . S
O229 Zn227 2.046 . S
O229 C228 1.254 . S
C230 O251 1.256 . S
C230 O252 1.244 . S
O231 Zn227 2.055 . S
O231 C253 1.259 . S
O232 Zn224 2.046 . S
O232 C253 1.254 . S
N233 Zn227 2.036 . S
N233 C234 1.298 . S
N233 N236 1.398 . S
C234 N233 1.298 . S
C234 N237 1.367 . S
C234 C247 1.481 . S
C235 N236 1.299 . S
C235 N237 1.379 . S
N236 N233 1.398 . S
N236 C235 1.299 . S
N237 C234 1.367 . S
N237 C235 1.379 . S
C238 N240 1.298 . S
C238 N242 1.367 . S
C238 C246 1.481 . S
C239 N241 1.299 . S
C239 N242 1.379 . S
N240 Zn224 2.036 . S
N240 C238 1.298 . S
N240 N241 1.398 . S
N241 C239 1.299 . S
N241 N240 1.398 . S
N242 C238 1.367 . S
N242 C239 1.379 . S
H243 C246 0.980 . S
H244 C246 0.981 . S
H245 C246 0.981 . S
C246 C238 1.481 . S
C246 H243 0.980 . S
C246 H244 0.981 . S
C246 H245 0.981 . S
C247 C234 1.481 . S
C247 H248 0.980 . S
C247 H249 0.981 . S
C247 H250 0.981 . S
H248 C247 0.980 . S
H249 C247 0.981 . S
H250 C247 0.981 . S
O251 Zn227 2.066 . S
O251 C230 1.256 . S
O252 Zn224 2.053 . S
O252 C230 1.244 . S
C253 O231 1.259 . S
C253 O232 1.254 . S
O254 Zn224 2.066 . S
O254 C226 1.256 . S
O255 C226 1.244 . S
O255 Zn227 2.053 . S
C256 C257 1.363 . S
C256 C262 1.379 . S
C256 N264 1.356 . S
C257 C256 1.363 . S
C257 C263 1.363 1_554 S
C258 C259 1.363 1_556 S
C258 C263 1.379 . S
C258 N265 1.356 . S
C259 C258 1.363 1_554 S
C259 C262 1.363 . S
N260 C262 1.356 . S
N260 H272 0.984 . S
N260 H273 0.985 . S
N261 C263 1.356 . S
N261 H266 0.984 . S
N261 H267 0.985 . S
C262 C256 1.379 . S
C262 C259 1.363 . S
C262 N260 1.356 . S
C263 C257 1.363 1_556 S
C263 C258 1.379 . S
C263 N261 1.356 . S
N264 C256 1.356 . S
N264 H270 0.984 . S
N264 H271 0.984 . S
N265 C258 1.356 . S
N265 H268 0.984 . S
N265 H269 0.985 . S
H266 N261 0.984 . S
H267 N261 0.985 . S
H268 N265 0.984 . S
H269 N265 0.985 . S
H270 N264 0.984 . S
H271 N264 0.984 . S
H272 N260 0.984 . S
H273 N260 0.985 . S
C274 C275 1.363 . S
C274 C280 1.379 . S
C274 N282 1.356 . S
C275 C274 1.363 . S
C275 C281 1.363 . S
C276 C277 1.363 1_556 S
C276 C281 1.379 1_556 S
C276 N283 1.356 . S
C277 C276 1.363 1_554 S
C277 C280 1.363 . S
N278 C280 1.356 . S
N278 H290 0.984 . S
N278 H291 0.985 . S
N279 C281 1.356 1_556 S
N279 H284 0.984 1_556 S
N279 H285 0.985 . S
C280 C274 1.379 . S
C280 C277 1.363 . S
C280 N278 1.356 . S
C281 C275 1.363 . S
C281 C276 1.379 1_554 S
C281 N279 1.356 1_554 S
N282 C274 1.356 . S
N282 H288 0.984 . S
N282 H289 0.984 . S
N283 C276 1.356 . S
N283 H286 0.984 . S
N283 H287 0.985 . S
H284 N279 0.984 1_554 S
H285 N279 0.985 . S
H286 N283 0.984 . S
H287 N283 0.985 . S
H288 N282 0.984 . S
H289 N282 0.984 . S
H290 N278 0.984 . S
H291 N278 0.985 . S
C292 C293 1.363 . S
C292 C298 1.379 . S
C292 N300 1.356 . S
C293 C292 1.363 . S
C293 C299 1.363 . S
C294 C295 1.363 . S
C294 C299 1.379 . S
C294 N301 1.356 . S
C295 C294 1.363 . S
C295 C298 1.363 . S
N296 C298 1.356 . S
N296 H308 0.984 . S
N296 H309 0.985 . S
N297 C299 1.356 . S
N297 H302 0.984 . S
N297 H303 0.985 . S
C298 C292 1.379 . S
C298 C295 1.363 . S
C298 N296 1.356 . S
C299 C293 1.363 . S
C299 C294 1.379 . S
C299 N297 1.356 . S
N300 C292 1.356 . S
N300 H306 0.984 . S
N300 H307 0.984 . S
N301 C294 1.356 . S
N301 H304 0.984 . S
N301 H305 0.985 . S
H302 N297 0.984 . S
H303 N297 0.985 . S
H304 N301 0.984 . S
H305 N301 0.985 . S
H306 N300 0.984 . S
H307 N300 0.984 . S
H308 N296 0.984 . S
H309 N296 0.985 . S
C310 C311 1.363 . S
C310 C316 1.379 . S
C310 N318 1.356 . S
C311 C310 1.363 . S
C311 C317 1.363 . S
C312 C313 1.363 . S
C312 C317 1.379 . S
C312 N319 1.356 . S
C313 C312 1.363 . S
C313 C316 1.363 . S
N314 C316 1.356 . S
N314 H326 0.984 . S
N314 H327 0.985 . S
N315 C317 1.356 . S
N315 H320 0.984 . S
N315 H321 0.985 . S
C316 C310 1.379 . S
C316 C313 1.363 . S
C316 N314 1.356 . S
C317 C311 1.363 . S
C317 C312 1.379 . S
C317 N315 1.356 . S
N318 C310 1.356 . S
N318 H324 0.984 . S
N318 H325 0.984 . S
N319 C312 1.356 . S
N319 H322 0.984 . S
N319 H323 0.985 . S
H320 N315 0.984 . S
H321 N315 0.985 . S
H322 N319 0.984 . S
H323 N319 0.985 . S
H324 N318 0.984 . S
H325 N318 0.984 . S
H326 N314 0.984 . S
H327 N314 0.985 . S
C328 C329 1.363 1_456 S
C328 C334 1.379 . S
C328 N336 1.356 1_455 S
C329 C328 1.363 1_654 S
C329 C335 1.363 1_655 S
C330 C331 1.363 . S
C330 C335 1.379 . S
C330 N337 1.356 . S
C331 C330 1.363 . S
C331 C334 1.363 1_554 S
N332 C334 1.356 . S
N332 H344 0.984 . S
N332 H345 0.985 . S
N333 C335 1.356 1_655 S
N333 H338 0.984 . S
N333 H339 0.985 . S
C334 C328 1.379 . S
C334 C331 1.363 1_556 S
C334 N332 1.356 . S
C335 C329 1.363 1_455 S
C335 C330 1.379 . S
C335 N333 1.356 1_455 S
N336 C328 1.356 1_655 S
N336 H342 0.984 . S
N336 H343 0.984 . S
N337 C330 1.356 . S
N337 H340 0.984 . S
N337 H341 0.985 . S
H338 N333 0.984 . S
H339 N333 0.985 . S
H340 N337 0.984 . S
H341 N337 0.985 . S
H342 N336 0.984 . S
H343 N336 0.984 . S
H344 N332 0.984 . S
H345 N332 0.985 . S
C346 C347 1.363 1_656 S
C346 C352 1.381 . S
C346 N354 1.356 1_655 S
C347 C346 1.363 1_454 S
C347 C353 1.363 1_455 S
C348 C349 1.363 . S
C348 C353 1.379 . S
C348 N355 1.356 . S
C349 C348 1.363 . S
C349 C352 1.356 1_554 S
N350 C352 1.360 . S
N350 H362 0.984 . S
N350 H363 0.989 . S
N351 C353 1.356 1_455 S
N351 H356 0.984 . S
N351 H357 0.985 . S
C352 C346 1.381 . S
C352 C349 1.356 1_556 S
C352 N350 1.360 . S
C353 C347 1.363 1_655 S
C353 C348 1.379 . S
C353 N351 1.356 1_655 S
N354 C346 1.356 1_455 S
N354 H360 0.984 . S
N354 H361 0.984 . S
N355 C348 1.356 . S
N355 H358 0.984 . S
N355 H359 0.985 . S
H356 N351 0.984 . S
H357 N351 0.985 . S
H358 N355 0.984 . S
H359 N355 0.985 . S
H360 N354 0.984 . S
H361 N354 0.984 . S
H362 N350 0.984 . S
H363 N350 0.989 . S
C364 C365 1.363 . S
C364 C370 1.379 . S
C364 N372 1.356 . S
C365 C364 1.363 . S
C365 C371 1.363 . S
C366 C367 1.363 1_455 S
C366 C371 1.379 . S
C366 N373 1.356 1_455 S
C367 C366 1.363 1_655 S
C367 C370 1.363 1_655 S
N368 C370 1.356 1_655 S
N368 H380 0.984 . S
N368 H381 0.985 . S
N369 C371 1.356 . S
N369 H374 0.984 . S
N369 H375 0.985 . S
C370 C364 1.379 . S
C370 C367 1.363 1_455 S
C370 N368 1.356 1_455 S
C371 C365 1.363 . S
C371 C366 1.379 . S
C371 N369 1.356 . S
N372 C364 1.356 . S
N372 H378 0.984 . S
N372 H379 0.984 . S
N373 C366 1.356 1_655 S
N373 H376 0.984 . S
N373 H377 0.985 . S
H374 N369 0.984 . S
H375 N369 0.985 . S
H376 N373 0.984 . S
H377 N373 0.985 . S
H378 N372 0.984 . S
H379 N372 0.984 . S
H380 N368 0.984 . S
H381 N368 0.985 . S
C382 C383 1.363 . S
C382 C388 1.379 . S
C382 N390 1.356 . S
C383 C382 1.363 . S
C383 C389 1.363 . S
C384 C385 1.363 1_655 S
C384 C389 1.379 . S
C384 N391 1.356 1_655 S
C385 C384 1.363 1_455 S
C385 C388 1.363 1_455 S
N386 C388 1.356 1_455 S
N386 H398 0.984 . S
N386 H399 0.985 . S
N387 C389 1.356 . S
N387 H392 0.984 . S
N387 H393 0.985 . S
C388 C382 1.379 . S
C388 C385 1.363 1_655 S
C388 N386 1.356 1_655 S
C389 C383 1.363 . S
C389 C384 1.379 . S
C389 N387 1.356 . S
N390 C382 1.356 . S
N390 H396 0.984 . S
N390 H397 0.984 . S
N391 C384 1.356 1_455 S
N391 H394 0.984 . S
N391 H395 0.985 . S
H392 N387 0.984 . S
H393 N387 0.985 . S
H394 N391 0.984 . S
H395 N391 0.985 . S
H396 N390 0.984 . S
H397 N390 0.984 . S
H398 N386 0.984 . S
H399 N386 0.985 . S
C400 C401 1.363 1_455 S
C400 C406 1.379 . S
C400 N408 1.356 . S
C401 C400 1.363 1_655 S
C401 C407 1.363 1_554 S
C402 C403 1.363 1_656 S
C402 C407 1.379 . S
C402 N409 1.356 . S
C403 C402 1.363 1_454 S
C403 C406 1.363 . S
N404 C406 1.356 . S
N404 H416 0.984 . S
N404 H417 0.985 . S
N405 C407 1.356 . S
N405 H410 0.984 . S
N405 H411 0.985 . S
C406 C400 1.379 . S
C406 C403 1.363 . S
C406 N404 1.356 . S
C407 C401 1.363 1_556 S
C407 C402 1.379 . S
C407 N405 1.356 . S
N408 C400 1.356 . S
N408 H414 0.984 . S
N408 H415 0.984 . S
N409 C402 1.356 . S
N409 H412 0.984 . S
N409 H413 0.985 . S
H410 N405 0.984 . S
H411 N405 0.985 . S
H412 N409 0.984 . S
H413 N409 0.985 . S
H414 N408 0.984 . S
H415 N408 0.984 . S
H416 N404 0.984 . S
H417 N404 0.985 . S
C418 C419 1.363 1_455 S
C418 C424 1.379 . S
C418 N426 1.356 . S
C419 C418 1.363 1_655 S
C419 C425 1.363 . S
C420 C421 1.363 1_655 S
C420 C425 1.379 . S
C420 N427 1.356 . S
C421 C420 1.363 1_455 S
C421 C424 1.363 . S
N422 C424 1.356 . S
N422 H434 0.984 . S
N422 H435 0.985 . S
N423 C425 1.356 . S
N423 H428 0.984 . S
N423 H429 0.985 . S
C424 C418 1.379 . S
C424 C421 1.363 . S
C424 N422 1.356 . S
C425 C419 1.363 . S
C425 C420 1.379 . S
C425 N423 1.356 . S
N426 C418 1.356 . S
N426 H432 0.984 . S
N426 H433 0.984 . S
N427 C420 1.356 . S
N427 H430 0.984 . S
N427 H431 0.985 . S
H428 N423 0.984 . S
H429 N423 0.985 . S
H430 N427 0.984 . S
H431 N427 0.985 . S
H432 N426 0.984 . S
H433 N426 0.984 . S
H434 N422 0.984 . S
H435 N422 0.985 . S
C436 C437 1.363 1_556 S
C436 C442 1.379 1_565 S
C436 N444 1.356 . S
C437 C436 1.363 1_554 S
C437 C443 1.363 . S
C438 C439 1.363 . S
C438 C443 1.379 1_545 S
C438 N445 1.356 . S
C439 C438 1.363 . S
C439 C442 1.363 1_554 S
N440 C442 1.356 . S
N440 H452 0.984 . S
N440 H453 0.985 . S
N441 C443 1.356 . S
N441 H446 0.984 . S
N441 H447 0.985 . S
C442 C436 1.379 1_545 S
C442 C439 1.363 1_556 S
C442 N440 1.356 . S
C443 C437 1.363 . S
C443 C438 1.379 1_565 S
C443 N441 1.356 . S
N444 C436 1.356 . S
N444 H450 0.984 . S
N444 H451 0.984 . S
N445 C438 1.356 . S
N445 H448 0.984 . S
N445 H449 0.985 . S
H446 N441 0.984 . S
H447 N441 0.985 . S
H448 N445 0.984 . S
H449 N445 0.985 . S
H450 N444 0.984 . S
H451 N444 0.984 . S
H452 N440 0.984 . S
H453 N440 0.985 . S
C454 C455 1.363 . S
C454 C460 1.379 1_545 S
C454 N462 1.356 . S
C455 C454 1.363 . S
C455 C461 1.363 . S
C456 C457 1.363 . S
C456 C461 1.379 1_565 S
C456 N463 1.356 . S
C457 C456 1.363 . S
C457 C460 1.363 . S
N458 C460 1.356 . S
N458 H470 0.984 . S
N458 H471 0.985 . S
N459 C461 1.356 . S
N459 H464 0.984 . S
N459 H465 0.985 . S
C460 C454 1.379 1_565 S
C460 C457 1.363 . S
C460 N458 1.356 . S
C461 C455 1.363 . S
C461 C456 1.379 1_545 S
C461 N459 1.356 . S
N462 C454 1.356 . S
N462 H468 0.984 . S
N462 H469 0.984 . S
N463 C456 1.356 . S
N463 H466 0.984 . S
N463 H467 0.985 . S
H464 N459 0.984 . S
H465 N459 0.985 . S
H466 N463 0.984 . S
H467 N463 0.985 . S
H468 N462 0.984 . S
H469 N462 0.984 . S
H470 N458 0.984 . S
H471 N458 0.985 . S
C472 C473 1.363 1_554 S
C472 C478 1.379 . S
C472 N480 1.356 . S
C473 C472 1.363 1_556 S
C473 C479 1.363 . S
C474 C475 1.363 . S
C474 C479 1.379 . S
C474 N481 1.356 . S
C475 C474 1.363 . S
C475 C478 1.363 1_556 S
N476 C478 1.356 . S
N476 H488 0.984 . S
N476 H489 0.985 . S
N477 C479 1.356 . S
N477 H482 0.984 . S
N477 H483 0.985 . S
C478 C472 1.379 . S
C478 C475 1.363 1_554 S
C478 N476 1.356 . S
C479 C473 1.363 . S
C479 C474 1.379 . S
C479 N477 1.356 . S
N480 C472 1.356 . S
N480 H486 0.984 . S
N480 H487 0.984 . S
N481 C474 1.356 . S
N481 H484 0.984 . S
N481 H485 0.985 . S
H482 N477 0.984 . S
H483 N477 0.985 . S
H484 N481 0.984 . S
H485 N481 0.985 . S
H486 N480 0.984 . S
H487 N480 0.984 . S
H488 N476 0.984 . S
H489 N476 0.985 . S
C490 C491 1.363 . S
C490 C496 1.379 . S
C490 N498 1.356 . S
C491 C490 1.363 . S
C491 C497 1.363 1_556 S
C492 C493 1.363 1_554 S
C492 C497 1.379 . S
C492 N499 1.356 . S
C493 C492 1.363 1_556 S
C493 C496 1.363 . S
N494 C496 1.356 . S
N494 H506 0.984 . S
N494 H507 0.985 . S
N495 C497 1.356 . S
N495 H500 0.984 . S
N495 H501 0.985 . S
C496 C490 1.379 . S
C496 C493 1.363 . S
C496 N494 1.356 . S
C497 C491 1.363 1_554 S
C497 C492 1.379 . S
C497 N495 1.356 . S
N498 C490 1.356 . S
N498 H504 0.984 . S
N498 H505 0.984 . S
N499 C492 1.356 . S
N499 H502 0.984 . S
N499 H503 0.985 . S
H500 N495 0.984 . S
H501 N495 0.985 . S
H502 N499 0.984 . S
H503 N499 0.985 . S
H504 N498 0.984 . S
H505 N498 0.984 . S
H506 N494 0.984 . S
H507 N494 0.985 . S
C508 C509 1.363 . S
C508 C514 1.379 . S
C508 N516 1.356 . S
C509 C508 1.363 . S
C509 C515 1.363 . S
C510 C511 1.363 . S
C510 C515 1.379 . S
C510 N517 1.356 . S
C511 C510 1.363 . S
C511 C514 1.363 . S
N512 C514 1.356 . S
N512 H524 0.984 . S
N512 H525 0.985 . S
N513 C515 1.356 . S
N513 H518 0.984 . S
N513 H519 0.985 . S
C514 C508 1.379 . S
C514 C511 1.363 . S
C514 N512 1.356 . S
C515 C509 1.363 . S
C515 C510 1.379 . S
C515 N513 1.356 . S
N516 C508 1.356 . S
N516 H522 0.984 . S
N516 H523 0.984 . S
N517 C510 1.356 . S
N517 H520 0.984 . S
N517 H521 0.985 . S
H518 N513 0.984 . S
H519 N513 0.985 . S
H520 N517 0.984 . S
H521 N517 0.985 . S
H522 N516 0.984 . S
H523 N516 0.984 . S
H524 N512 0.984 . S
H525 N512 0.985 . S
C526 C527 1.363 . S
C526 C532 1.379 . S
C526 N534 1.356 . S
C527 C526 1.363 . S
C527 C533 1.363 . S
C528 C529 1.363 . S
C528 C533 1.379 . S
C528 N535 1.356 . S
C529 C528 1.363 . S
C529 C532 1.363 . S
N530 C532 1.356 . S
N530 H542 0.984 . S
N530 H543 0.985 . S
N531 C533 1.356 . S
N531 H536 0.984 . S
N531 H537 0.985 . S
C532 C526 1.379 . S
C532 C529 1.363 . S
C532 N530 1.356 . S
C533 C527 1.363 . S
C533 C528 1.379 . S
C533 N531 1.356 . S
N534 C526 1.356 . S
N534 H540 0.984 . S
N534 H541 0.984 . S
N535 C528 1.356 . S
N535 H538 0.984 . S
N535 H539 0.985 . S
H536 N531 0.984 . S
H537 N531 0.985 . S
H538 N535 0.984 . S
H539 N535 0.985 . S
H540 N534 0.984 . S
H541 N534 0.984 . S
H542 N530 0.984 . S
H543 N530 0.985 . S
C544 C545 1.366 . S
C544 C550 1.379 . S
C544 N552 1.356 . S
C545 C544 1.366 . S
C545 C551 1.360 1_655 S
C546 C547 1.366 . S
C546 C551 1.379 . S
C546 N553 1.356 . S
C547 C546 1.366 . S
C547 C550 1.360 1_455 S
N548 C550 1.356 . S
N548 H560 0.984 . S
N548 H561 0.985 . S
N549 C551 1.356 . S
N549 H554 0.984 . S
N549 H555 0.985 . S
C550 C544 1.379 . S
C550 C547 1.360 1_655 S
C550 N548 1.356 . S
C551 C545 1.360 1_455 S
C551 C546 1.379 . S
C551 N549 1.356 . S
N552 C544 1.356 . S
N552 H558 0.984 . S
N552 H559 0.984 . S
N553 C546 1.356 . S
N553 H556 0.984 . S
N553 H557 0.985 . S
H554 N549 0.984 . S
H555 N549 0.985 . S
H556 N553 0.984 . S
H557 N553 0.985 . S
H558 N552 0.984 . S
H559 N552 0.984 . S
H560 N548 0.984 . S
H561 N548 0.985 . S
C562 C563 1.366 . S
C562 C568 1.379 . S
C562 N570 1.356 . S
C563 C562 1.366 . S
C563 C569 1.360 1_455 S
C564 C565 1.366 . S
C564 C569 1.379 . S
C564 N571 1.356 . S
C565 C564 1.366 . S
C565 C568 1.360 1_655 S
N566 C568 1.356 . S
N566 H578 0.984 . S
N566 H579 0.985 . S
N567 C569 1.356 . S
N567 H572 0.984 . S
N567 H573 0.985 . S
C568 C562 1.379 . S
C568 C565 1.360 1_455 S
C568 N566 1.356 . S
C569 C563 1.360 1_655 S
C569 C564 1.379 . S
C569 N567 1.356 . S
N570 C562 1.356 . S
N570 H576 0.984 . S
N570 H577 0.984 . S
N571 C564 1.356 . S
N571 H574 0.984 . S
N571 H575 0.985 . S
H572 N567 0.984 . S
H573 N567 0.985 . S
H574 N571 0.984 . S
H575 N571 0.985 . S
H576 N570 0.984 . S
H577 N570 0.984 . S
H578 N566 0.984 . S
H579 N566 0.985 . S
C580 C581 1.363 . S
C580 C586 1.379 . S
C580 N588 1.356 . S
C581 C580 1.363 . S
C581 C587 1.363 1_655 S
C582 C583 1.363 . S
C582 C587 1.379 . S
C582 N589 1.356 . S
C583 C582 1.363 . S
C583 C586 1.363 1_455 S
N584 C586 1.356 . S
N584 H596 0.984 . S
N584 H597 0.985 1_655 S
N585 C587 1.356 . S
N585 H590 0.984 1_455 S
N585 H591 0.985 . S
C586 C580 1.379 . S
C586 C583 1.363 1_655 S
C586 N584 1.356 . S
C587 C581 1.363 1_455 S
C587 C582 1.379 . S
C587 N585 1.356 . S
N588 C580 1.356 . S
N588 H594 0.984 . S
N588 H595 0.984 . S
N589 C582 1.356 . S
N589 H592 0.984 . S
N589 H593 0.985 . S
H590 N585 0.984 1_655 S
H591 N585 0.985 . S
H592 N589 0.984 . S
H593 N589 0.985 . S
H594 N588 0.984 . S
H595 N588 0.984 . S
H596 N584 0.984 . S
H597 N584 0.985 1_455 S
C598 C599 1.363 1_455 S
C598 C604 1.379 . S
C598 N606 1.356 . S
C599 C598 1.363 1_655 S
C599 C605 1.363 . S
C600 C601 1.363 1_655 S
C600 C605 1.379 . S
C600 N607 1.356 . S
C601 C600 1.363 1_455 S
C601 C604 1.363 . S
N602 C604 1.356 . S
N602 H614 0.984 . S
N602 H615 0.985 . S
N603 C605 1.356 . S
N603 H608 0.984 . S
N603 H609 0.985 . S
C604 C598 1.379 . S
C604 C601 1.363 . S
C604 N602 1.356 . S
C605 C599 1.363 . S
C605 C600 1.379 . S
C605 N603 1.356 . S
N606 C598 1.356 . S
N606 H612 0.984 . S
N606 H613 0.984 1_455 S
N607 C600 1.356 . S
N607 H610 0.984 1_655 S
N607 H611 0.985 . S
H608 N603 0.984 . S
H609 N603 0.985 . S
H610 N607 0.984 1_455 S
H611 N607 0.985 . S
H612 N606 0.984 . S
H613 N606 0.984 1_655 S
H614 N602 0.984 . S
H615 N602 0.985 . S
C616 C617 1.363 . S
C616 C622 1.379 . S
C616 N624 1.356 . S
C617 C616 1.363 . S
C617 C623 1.363 . S
C618 C619 1.363 . S
C618 C623 1.379 . S
C618 N625 1.356 . S
C619 C618 1.363 . S
C619 C622 1.363 . S
N620 C622 1.356 . S
N620 H632 0.984 . S
N620 H633 0.985 . S
N621 C623 1.356 . S
N621 H626 0.984 . S
N621 H627 0.985 . S
C622 C616 1.379 . S
C622 C619 1.363 . S
C622 N620 1.356 . S
C623 C617 1.363 . S
C623 C618 1.379 . S
C623 N621 1.356 . S
N624 C616 1.356 . S
N624 H630 0.984 . S
N624 H631 0.984 . S
N625 C618 1.356 . S
N625 H628 0.984 . S
N625 H629 0.985 . S
H626 N621 0.984 . S
H627 N621 0.985 . S
H628 N625 0.984 . S
H629 N625 0.985 . S
H630 N624 0.984 . S
H631 N624 0.984 . S
H632 N620 0.984 . S
H633 N620 0.985 . S
C634 C635 1.363 . S
C634 C640 1.379 . S
C634 N642 1.356 . S
C635 C634 1.363 . S
C635 C641 1.363 . S
C636 C637 1.363 . S
C636 C641 1.379 . S
C636 N643 1.356 . S
C637 C636 1.363 . S
C637 C640 1.363 . S
N638 C640 1.356 . S
N638 H650 0.984 . S
N638 H651 0.985 . S
N639 C641 1.356 . S
N639 H644 0.984 . S
N639 H645 0.985 . S
C640 C634 1.379 . S
C640 C637 1.363 . S
C640 N638 1.356 . S
C641 C635 1.363 . S
C641 C636 1.379 . S
C641 N639 1.356 . S
N642 C634 1.356 . S
N642 H648 0.984 . S
N642 H649 0.984 . S
N643 C636 1.356 . S
N643 H646 0.984 . S
N643 H647 0.985 . S
H644 N639 0.984 . S
H645 N639 0.985 . S
H646 N643 0.984 . S
H647 N643 0.985 . S
H648 N642 0.984 . S
H649 N642 0.984 . S
H650 N638 0.984 . S
H651 N638 0.985 . S
C652 C653 1.363 . S
C652 C658 1.379 . S
C652 N660 1.356 . S
C653 C652 1.363 . S
C653 C659 1.363 . S
C654 C655 1.363 . S
C654 C659 1.379 . S
C654 N661 1.356 . S
C655 C654 1.363 . S
C655 C658 1.363 . S
N656 C658 1.356 . S
N656 H668 0.984 . S
N656 H669 0.985 . S
N657 C659 1.356 . S
N657 H662 0.984 . S
N657 H663 0.985 . S
C658 C652 1.379 . S
C658 C655 1.363 . S
C658 N656 1.356 . S
C659 C653 1.363 . S
C659 C654 1.379 . S
C659 N657 1.356 . S
N660 C652 1.356 . S
N660 H666 0.984 . S
N660 H667 0.984 . S
N661 C654 1.356 . S
N661 H664 0.984 . S
N661 H665 0.985 . S
H662 N657 0.984 . S
H663 N657 0.985 . S
H664 N661 0.984 . S
H665 N661 0.985 . S
H666 N660 0.984 . S
H667 N660 0.984 . S
H668 N656 0.984 . S
H669 N656 0.985 . S
C670 C671 1.363 . S
C670 C676 1.379 . S
C670 N678 1.356 . S
C671 C670 1.363 . S
C671 C677 1.363 . S
C672 C673 1.363 . S
C672 C677 1.379 . S
C672 N679 1.356 . S
C673 C672 1.363 . S
C673 C676 1.363 . S
N674 C676 1.356 . S
N674 H686 0.984 . S
N674 H687 0.985 . S
N675 C677 1.356 . S
N675 H680 0.984 . S
N675 H681 0.985 . S
C676 C670 1.379 . S
C676 C673 1.363 . S
C676 N674 1.356 . S
C677 C671 1.363 . S
C677 C672 1.379 . S
C677 N675 1.356 . S
N678 C670 1.356 . S
N678 H684 0.984 . S
N678 H685 0.984 . S
N679 C672 1.356 . S
N679 H682 0.984 . S
N679 H683 0.985 . S
H680 N675 0.984 . S
H681 N675 0.985 . S
H682 N679 0.984 . S
H683 N679 0.985 . S
H684 N678 0.984 . S
H685 N678 0.984 . S
H686 N674 0.984 . S
H687 N674 0.985 . S
C257 C4 1.368 . S
C259 C6 1.369 . S
C275 C34 1.369 . S
C277 C61 1.368 . S
C293 C66 1.369 . S
C295 C93 1.368 . S
C311 C100 1.368 . S
C313 C102 1.369 . S
C329 C132 1.368 . S
C331 C134 1.369 . S
C347 C189 1.368 . S
C349 C162 1.369 . S
C365 C194 1.369 . S
C367 C221 1.368 . S
C383 C230 1.369 . S
C385 C228 1.368 . S
C401 C36 1.514 . S
C403 C29 1.514 . S
C419 C125 1.513 . S
C421 C68 1.513 . S
C437 C157 1.514 . S
C439 C164 1.514 . S
C455 C196 1.513 . S
C457 C253 1.513 . S
C473 C2 1.595 . S
C475 C166 1.595 . S
C491 C130 1.595 . S
C493 C38 1.595 . S
C509 C70 1.595 . S
C511 C226 1.595 . S
C527 C98 1.595 . S
C529 C198 1.595 . S
C545 N13 1.459 1_655 S
C547 N109 1.459 1_455 S
C563 N50 1.459 1_455 S
C565 N82 1.459 1_655 S
C581 N45 1.546 . S
C583 N77 1.546 . S
C599 N114 1.546 . S
C601 N18 1.546 . S
C617 N141 1.461 . S
C619 N237 1.461 . S
C635 N178 1.461 . S
C637 N210 1.461 . S
C653 N173 1.546 . S
C655 N205 1.546 . S
C671 N242 1.546 . S
C673 N146 1.546 . S
