# Generated by pormake.
# Topology wiv, (6)-cn, num edge types: 1
# Building blocks:
#     Node 0, Type 0, BuildingBlock: BETDIP_clean_sbu_0, # of connection points: 6
#     Node 1, Type 0, BuildingBlock: BETDIP_clean_sbu_0, # of connection points: 6
#     Node 2, Type 0, BuildingBlock: BETDIP_clean_sbu_0, # of connection points: 6
#     Node 3, Type 0, BuildingBlock: BETDIP_clean_sbu_0, # of connection points: 6
#     Node 4, Type 0, BuildingBlock: BETDIP_clean_sbu_0, # of connection points: 6
#     Node 5, Type 0, BuildingBlock: BETDIP_clean_sbu_0, # of connection points: 6
#     Node 6, Type 0, BuildingBlock: BETDIP_clean_sbu_0, # of connection points: 6
#     Node 7, Type 0, BuildingBlock: BETDIP_clean_sbu_0, # of connection points: 6
#     Node 8, Type 0, BuildingBlock: BETDIP_clean_sbu_0, # of connection points: 6
#     Node 9, Type 0, BuildingBlock: BETDIP_clean_sbu_0, # of connection points: 6
#     Node 10, Type 0, BuildingBlock: BETDIP_clean_sbu_0, # of connection points: 6
#     Node 11, Type 0, BuildingBlock: BETDIP_clean_sbu_0, # of connection points: 6
#     Node 12, Type 0, BuildingBlock: BETDIP_clean_sbu_0, # of connection points: 6
#     Node 13, Type 0, BuildingBlock: BETDIP_clean_sbu_0, # of connection points: 6
#     Node 14, Type 0, BuildingBlock: BETDIP_clean_sbu_0, # of connection points: 6
#     Node 15, Type 0, BuildingBlock: BETDIP_clean_sbu_0, # of connection points: 6
#     Edge 16, Type (0, 0), BuildingBlock: UVAHIK_clean_linker_0, # of connection points: 2
#     Edge 17, Type (0, 0), BuildingBlock: UVAHIK_clean_linker_0, # of connection points: 2
#     Edge 18, Type (0, 0), BuildingBlock: UVAHIK_clean_linker_0, # of connection points: 2
#     Edge 19, Type (0, 0), BuildingBlock: UVAHIK_clean_linker_0, # of connection points: 2
#     Edge 20, Type (0, 0), BuildingBlock: UVAHIK_clean_linker_0, # of connection points: 2
#     Edge 21, Type (0, 0), BuildingBlock: UVAHIK_clean_linker_0, # of connection points: 2
#     Edge 22, Type (0, 0), BuildingBlock: UVAHIK_clean_linker_0, # of connection points: 2
#     Edge 23, Type (0, 0), BuildingBlock: UVAHIK_clean_linker_0, # of connection points: 2
#     Edge 24, Type (0, 0), BuildingBlock: UVAHIK_clean_linker_0, # of connection points: 2
#     Edge 25, Type (0, 0), BuildingBlock: UVAHIK_clean_linker_0, # of connection points: 2
#     Edge 26, Type (0, 0), BuildingBlock: UVAHIK_clean_linker_0, # of connection points: 2
#     Edge 27, Type (0, 0), BuildingBlock: UVAHIK_clean_linker_0, # of connection points: 2
#     Edge 28, Type (0, 0), BuildingBlock: UVAHIK_clean_linker_0, # of connection points: 2
#     Edge 29, Type (0, 0), BuildingBlock: UVAHIK_clean_linker_0, # of connection points: 2
#     Edge 30, Type (0, 0), BuildingBlock: UVAHIK_clean_linker_0, # of connection points: 2
#     Edge 31, Type (0, 0), BuildingBlock: UVAHIK_clean_linker_0, # of connection points: 2
#     Edge 32, Type (0, 0), BuildingBlock: UVAHIK_clean_linker_0, # of connection points: 2
#     Edge 33, Type (0, 0), BuildingBlock: UVAHIK_clean_linker_0, # of connection points: 2
#     Edge 34, Type (0, 0), BuildingBlock: UVAHIK_clean_linker_0, # of connection points: 2
#     Edge 35, Type (0, 0), BuildingBlock: UVAHIK_clean_linker_0, # of connection points: 2
#     Edge 36, Type (0, 0), BuildingBlock: UVAHIK_clean_linker_0, # of connection points: 2
#     Edge 37, Type (0, 0), BuildingBlock: UVAHIK_clean_linker_0, # of connection points: 2
#     Edge 38, Type (0, 0), BuildingBlock: UVAHIK_clean_linker_0, # of connection points: 2
#     Edge 39, Type (0, 0), BuildingBlock: UVAHIK_clean_linker_0, # of connection points: 2
#     Edge 40, Type (0, 0), BuildingBlock: UVAHIK_clean_linker_0, # of connection points: 2
#     Edge 41, Type (0, 0), BuildingBlock: UVAHIK_clean_linker_0, # of connection points: 2
#     Edge 42, Type (0, 0), BuildingBlock: UVAHIK_clean_linker_0, # of connection points: 2
#     Edge 43, Type (0, 0), BuildingBlock: UVAHIK_clean_linker_0, # of connection points: 2
#     Edge 44, Type (0, 0), BuildingBlock: UVAHIK_clean_linker_0, # of connection points: 2
#     Edge 45, Type (0, 0), BuildingBlock: UVAHIK_clean_linker_0, # of connection points: 2
#     Edge 46, Type (0, 0), BuildingBlock: UVAHIK_clean_linker_0, # of connection points: 2
#     Edge 47, Type (0, 0), BuildingBlock: UVAHIK_clean_linker_0, # of connection points: 2
#     Edge 48, Type (0, 0), BuildingBlock: UVAHIK_clean_linker_0, # of connection points: 2
#     Edge 49, Type (0, 0), BuildingBlock: UVAHIK_clean_linker_0, # of connection points: 2
#     Edge 50, Type (0, 0), BuildingBlock: UVAHIK_clean_linker_0, # of connection points: 2
#     Edge 51, Type (0, 0), BuildingBlock: UVAHIK_clean_linker_0, # of connection points: 2
#     Edge 52, Type (0, 0), BuildingBlock: UVAHIK_clean_linker_0, # of connection points: 2
#     Edge 53, Type (0, 0), BuildingBlock: UVAHIK_clean_linker_0, # of connection points: 2
#     Edge 54, Type (0, 0), BuildingBlock: UVAHIK_clean_linker_0, # of connection points: 2
#     Edge 55, Type (0, 0), BuildingBlock: UVAHIK_clean_linker_0, # of connection points: 2
#     Edge 56, Type (0, 0), BuildingBlock: UVAHIK_clean_linker_0, # of connection points: 2
#     Edge 57, Type (0, 0), BuildingBlock: UVAHIK_clean_linker_0, # of connection points: 2
#     Edge 58, Type (0, 0), BuildingBlock: UVAHIK_clean_linker_0, # of connection points: 2
#     Edge 59, Type (0, 0), BuildingBlock: UVAHIK_clean_linker_0, # of connection points: 2
#     Edge 60, Type (0, 0), BuildingBlock: UVAHIK_clean_linker_0, # of connection points: 2
#     Edge 61, Type (0, 0), BuildingBlock: UVAHIK_clean_linker_0, # of connection points: 2
#     Edge 62, Type (0, 0), BuildingBlock: UVAHIK_clean_linker_0, # of connection points: 2
#     Edge 63, Type (0, 0), BuildingBlock: UVAHIK_clean_linker_0, # of connection points: 2
# Relax obj value: 0.105
# Max RMSD: 0.166
# Mean RMSD: 0.166
data_MOF--net-wiv--node1-BETDIP_clean_sbu_0--edge1-UVAHIK_clean_linker_0
_symmetry_space_group_name_H-M    P1
_symmetry_Int_Tables_number       1
_symmetry_cell_setting            triclinic
loop_
_symmetry_equiv_pos_as_xyz
'x, y, z'
_cell_length_a     67.490552
_cell_length_b     67.60214
_cell_length_c     29.431271
_cell_angle_alpha  90.072033
_cell_angle_beta   89.944779
_cell_angle_gamma 90.066093
loop_
_atom_site_label
_atom_site_type_symbol
_atom_site_fract_x
_atom_site_fract_y
_atom_site_fract_z
_atom_type_partial_charge
Tb0 Tb 0.35531 0.11509 0.15304 0.0
Tb1 Tb 0.38288 0.11813 0.07333 0.0
C2 C 0.33899 0.10796 0.22848 0.0
C3 C 0.34543 0.10604 0.27627 0.0
C4 C 0.33416 0.09466 0.30661 0.0
C5 C 0.33883 0.09432 0.353 0.0
C6 C 0.35482 0.10548 0.37002 0.0
C7 C 0.36648 0.11636 0.33918 0.0
C8 C 0.36188 0.11659 0.29279 0.0
C9 C 0.35771 0.15056 0.11588 0.0
C10 C 0.40184 0.12259 0.16795 0.0
C11 C 0.39873 0.12795 0.99903 0.0
C12 C 0.39447 0.12548 0.95016 0.0
C13 C 0.40361 0.13805 0.91866 0.0
C14 C 0.39982 0.13603 0.87213 0.0
C15 C 0.38666 0.12143 0.85601 0.0
C16 C 0.37749 0.10884 0.8879 0.0
C17 C 0.38141 0.11081 0.93448 0.0
C18 C 0.38158 0.08302 0.11162 0.0
C19 C 0.33632 0.10992 0.05711 0.0
O20 O 0.34453 0.09413 0.20009 0.0
O21 O 0.34063 0.12561 0.21083 0.0
O22 O 0.37187 0.13874 0.12235 0.0
O23 O 0.34157 0.14258 0.13112 0.0
O24 O 0.38518 0.11483 0.18401 0.0
O25 O 0.40329 0.12837 0.12519 0.0
O26 O 0.38654 0.13931 0.02178 0.0
O27 O 0.4033 0.11191 0.02151 0.0
O28 O 0.36713 0.09456 0.10588 0.0
O29 O 0.39708 0.09009 0.09142 0.0
O30 O 0.35384 0.11505 0.04051 0.0
O31 O 0.33353 0.10712 0.10124 0.0
H32 H 0.32139 0.08645 0.29463 0.0
H33 H 0.32947 0.08589 0.37577 0.0
H34 H 0.37907 0.12487 0.351 0.0
H35 H 0.37087 0.12543 0.27005 0.0
H36 H 0.41381 0.14941 0.93005 0.0
H37 H 0.40746 0.14577 0.84876 0.0
H38 H 0.3671 0.09758 0.87699 0.0
H39 H 0.37427 0.10088 0.95827 0.0
Tb40 Tb 0.11963 0.62885 0.96492 0.0
Tb41 Tb 0.11415 0.65563 0.88625 0.0
C42 C 0.13004 0.61378 0.03938 0.0
C43 C 0.12773 0.6186 0.0884 0.0
C44 C 0.14163 0.6306 0.111 0.0
C45 C 0.13976 0.63448 0.15756 0.0
C46 C 0.12399 0.62637 0.18278 0.0
C47 C 0.11005 0.61446 0.16005 0.0
C48 C 0.11194 0.61056 0.11356 0.0
C49 C 0.08337 0.62995 0.93177 0.0
C50 C 0.11084 0.67495 0.98197 0.0
C51 C 0.10341 0.67064 0.81185 0.0
C52 C 0.10564 0.66605 0.76271 0.0
C53 C 0.09136 0.65464 0.73976 0.0
C54 C 0.09308 0.65102 0.69306 0.0
C55 C 0.10906 0.65884 0.66806 0.0
C56 C 0.12337 0.67018 0.69112 0.0
C57 C 0.12165 0.67379 0.73777 0.0
C58 C 0.15095 0.65399 0.91696 0.0
C59 C 0.12338 0.60921 0.87063 0.0
O60 O 0.14146 0.62536 1.0151 0.0
O61 O 0.11396 0.6087 1.01744 0.0
O62 O 0.09488 0.64446 0.93681 0.0
O63 O 0.09161 0.61424 0.94817 0.0
O64 O 0.11781 0.65799 0.99761 0.0
O65 O 0.10574 0.67696 0.93876 0.0
O66 O 0.0923 0.65874 0.83599 0.0
O67 O 0.11941 0.67593 0.83376 0.0
O68 O 0.13908 0.63968 0.91312 0.0
O69 O 0.14241 0.66972 0.90143 0.0
O70 O 0.11614 0.62599 0.8541 0.0
O71 O 0.12882 0.60781 0.91361 0.0
H72 H 0.15412 0.63685 0.09284 0.0
H73 H 0.15094 0.64348 0.174 0.0
H74 H 0.09757 0.60818 0.17816 0.0
H75 H 0.10103 0.60113 0.09739 0.0
H76 H 0.07868 0.64867 0.75776 0.0
H77 H 0.08163 0.64247 0.67634 0.0
H78 H 0.13599 0.67623 0.67313 0.0
H79 H 0.13284 0.68278 0.75421 0.0
Tb80 Tb 0.65621 0.89844 0.15142 0.0
Tb81 Tb 0.6296 0.89278 0.07155 0.0
C82 C 0.67109 0.90976 0.22573 0.0
C83 C 0.66617 0.90816 0.27445 0.0
C84 C 0.67525 0.921 0.30554 0.0
C85 C 0.67122 0.91946 0.35207 0.0
C86 C 0.65801 0.90501 0.36853 0.0
C87 C 0.64877 0.89227 0.33706 0.0
C88 C 0.65279 0.89385 0.29045 0.0
C89 C 0.65477 0.86177 0.12047 0.0
C90 C 0.60968 0.88909 0.16576 0.0
C91 C 0.61441 0.88187 0.99736 0.0
C92 C 0.61928 0.88351 0.94859 0.0
C93 C 0.61092 0.87011 0.91771 0.0
C94 C 0.61492 0.87168 0.87116 0.0
C95 C 0.62742 0.88671 0.85446 0.0
C96 C 0.63593 0.90003 0.88575 0.0
C97 C 0.63188 0.89846 0.93233 0.0
C98 C 0.6306 0.92896 0.10518 0.0
C99 C 0.6759 0.90165 0.0559 0.0
O100 O 0.65923 0.92062 0.2011 0.0
O101 O 0.67592 0.89331 0.20516 0.0
O102 O 0.64037 0.87357 0.12367 0.0
O103 O 0.67041 0.87022 0.13701 0.0
O104 O 0.62643 0.89633 0.1827 0.0
O105 O 0.60837 0.88371 0.12268 0.0
O106 O 0.62608 0.87068 0.02182 0.0
O107 O 0.60988 0.89837 1.01817 0.0
O108 O 0.6451 0.91744 0.10037 0.0
O109 O 0.61494 0.92077 0.08807 0.0
O110 O 0.65896 0.89472 0.03972 0.0
O111 O 0.67777 0.90669 0.09923 0.0
H112 H 0.68564 0.93212 0.29385 0.0
H113 H 0.6788 0.92935 0.37524 0.0
H114 H 0.63832 0.88115 0.3484 0.0
H115 H 0.64556 0.88383 0.26696 0.0
H116 H 0.60111 0.85851 0.92956 0.0
H117 H 0.60786 0.86133 0.84817 0.0
H118 H 0.64583 0.91162 0.8743 0.0
H119 H 0.63849 0.90898 0.95562 0.0
Tb120 Tb 0.89418 0.38222 0.96939 0.0
Tb121 Tb 0.89521 0.35508 0.88912 0.0
C122 C 0.88527 0.39824 0.04409 0.0
C123 C 0.88803 0.39403 0.09281 0.0
C124 C 0.87629 0.40392 0.12487 0.0
C125 C 0.87872 0.40029 0.17133 0.0
C126 C 0.8929 0.3866 0.18669 0.0
C127 C 0.90456 0.37658 0.15431 0.0
C128 C 0.90221 0.38034 0.10779 0.0
C129 C 0.9288 0.38054 0.92861 0.0
C130 C 0.90132 0.3356 0.98428 0.0
C131 C 0.90022 0.33833 0.81334 0.0
C132 C 0.90339 0.34434 0.7656 0.0
C133 C 0.91529 0.33265 0.73725 0.0
C134 C 0.91679 0.33683 0.69078 0.0
C135 C 0.90632 0.35278 0.67157 0.0
C136 C 0.89495 0.3649 0.70054 0.0
C137 C 0.89353 0.36074 0.74703 0.0
C138 C 0.86038 0.35823 0.92965 0.0
C139 C 0.88976 0.40177 0.8754 0.0
O140 O 0.87349 0.38622 0.02197 0.0
O141 O 0.90127 0.40247 0.02091 0.0
O142 O 0.91702 0.36622 0.93432 0.0
O143 O 0.92243 0.39584 0.95067 0.0
O144 O 0.89718 0.35318 1.00177 0.0
O145 O 0.9031 0.3329 0.93986 0.0
O146 O 0.91462 0.34162 0.8421 0.0
O147 O 0.8829 0.34252 0.83067 0.0
O148 O 0.87246 0.37208 0.92192 0.0
O149 O 0.86784 0.34194 0.91415 0.0
O150 O 0.89661 0.38491 0.85839 0.0
O151 O 0.88446 0.40315 0.91852 0.0
H152 H 0.86523 0.4145 0.11395 0.0
H153 H 0.8693 0.40806 0.19522 0.0
H154 H 0.91575 0.36609 0.16495 0.0
H155 H 0.91153 0.37267 0.08355 0.0
H156 H 0.92307 0.31996 0.75086 0.0
H157 H 0.92601 0.32741 0.66982 0.0
H158 H 0.88653 0.37719 0.68711 0.0
H159 H 0.88422 0.37001 0.76816 0.0
Tb160 Tb 0.35609 0.39688 0.13486 0.0
Tb161 Tb 0.38352 0.39359 0.21437 0.0
C162 C 0.33988 0.40486 0.05991 0.0
C163 C 0.34607 0.40592 1.01174 0.0
C164 C 0.33801 0.42052 0.98351 0.0
C165 C 0.3424 0.42081 0.93699 0.0
C166 C 0.35489 0.4064 0.91756 0.0
C167 C 0.36342 0.39212 0.94636 0.0
C168 C 0.35911 0.39192 0.99292 0.0
C169 C 0.35827 0.36124 0.17103 0.0
C170 C 0.40273 0.38915 0.11964 0.0
C171 C 0.39903 0.3835 0.28866 0.0
C172 C 0.39447 0.38574 0.33747 0.0
C173 C 0.40185 0.37185 0.36842 0.0
C174 C 0.39814 0.37389 0.41499 0.0
C175 C 0.38696 0.38991 0.43168 0.0
C176 C 0.37932 0.40367 0.40033 0.0
C177 C 0.38305 0.4016 0.35369 0.0
C178 C 0.38223 0.42881 0.17673 0.0
C179 C 0.3371 0.402 0.23088 0.0
O180 O 0.34695 0.41834 0.08738 0.0
O181 O 0.33987 0.38729 0.0784 0.0
O182 O 0.37253 0.37305 0.16499 0.0
O183 O 0.3422 0.3694 0.15607 0.0
O184 O 0.3858 0.39606 0.10301 0.0
O185 O 0.40437 0.38412 0.16285 0.0
O186 O 0.38708 0.37211 0.2653 0.0
O187 O 0.4037 0.39966 0.26666 0.0
O188 O 0.3678 0.41724 0.18246 0.0
O189 O 0.39776 0.42172 0.19665 0.0
O190 O 0.35452 0.39663 0.24742 0.0
O191 O 0.33444 0.40504 0.18683 0.0
H192 H 0.32803 0.43154 0.99733 0.0
H193 H 0.33589 0.4323 0.91621 0.0
H194 H 0.37295 0.38068 0.93278 0.0
H195 H 0.36562 0.38052 1.01399 0.0
H196 H 0.41058 0.35943 0.35656 0.0
H197 H 0.40395 0.3628 0.4379 0.0
H198 H 0.3708 0.41628 0.41187 0.0
H199 H 0.37716 0.41249 0.33035 0.0
Tb200 Tb 0.3943 0.62893 0.82173 0.0
Tb201 Tb 0.39914 0.65572 0.90149 0.0
C202 C 0.38404 0.61334 0.74757 0.0
C203 C 0.38555 0.61788 0.69852 0.0
C204 C 0.38104 0.6367 0.68112 0.0
C205 C 0.38259 0.64046 0.63441 0.0
C206 C 0.3886 0.62547 0.60411 0.0
C207 C 0.39318 0.6067 0.62185 0.0
C208 C 0.39166 0.60297 0.66846 0.0
C209 C 0.43023 0.63018 0.85649 0.0
C210 C 0.403 0.67513 0.80591 0.0
C211 C 0.4094 0.67127 0.97581 0.0
C212 C 0.40782 0.66682 0.02489 0.0
C213 C 0.41225 0.64801 0.04246 0.0
C214 C 0.41076 0.64436 0.08923 0.0
C215 C 0.40487 0.65946 0.1194 0.0
C216 C 0.40035 0.67821 0.10147 0.0
C217 C 0.40183 0.68182 0.05481 0.0
C218 C 0.36271 0.65386 0.86881 0.0
C219 C 0.39039 0.60919 0.91602 0.0
O220 O 0.37236 0.62452 0.77224 0.0
O221 O 0.40069 0.60935 0.76826 0.0
O222 O 0.4187 0.64463 0.85132 0.0
O223 O 0.42223 0.61446 0.8393 0.0
O224 O 0.39628 0.65815 0.78957 0.0
O225 O 0.40766 0.67713 0.8494 0.0
O226 O 0.42097 0.65996 0.95131 0.0
O227 O 0.39282 0.67535 0.95498 0.0
O228 O 0.3746 0.63963 0.8731 0.0
O229 O 0.37096 0.66966 0.88503 0.0
O230 O 0.39729 0.62604 0.93316 0.0
O231 O 0.38528 0.60776 0.87282 0.0
H232 H 0.37622 0.64848 0.7035 0.0
H233 H 0.37875 0.65503 0.62198 0.0
H234 H 0.39817 0.59489 0.59976 0.0
H235 H 0.39529 0.58837 0.6811 0.0
H236 H 0.41698 0.63616 0.02018 0.0
H237 H 0.41456 0.62981 0.1018 0.0
H238 H 0.39545 0.6901 0.12346 0.0
H239 H 0.39828 0.69642 0.04202 0.0
Tb240 Tb 0.65667 0.61322 0.13556 0.0
Tb241 Tb 0.63016 0.61909 0.21539 0.0
C242 C 0.67148 0.60176 0.06124 0.0
C243 C 0.66668 0.60347 1.0125 0.0
C244 C 0.67595 0.59084 0.98127 0.0
C245 C 0.67198 0.59245 0.93474 0.0
C246 C 0.65863 0.60677 0.91841 0.0
C247 C 0.64922 0.61931 0.95003 0.0
C248 C 0.65319 0.61766 0.99663 0.0
C249 C 0.65533 0.65005 0.16573 0.0
C250 C 0.61014 0.62259 0.12142 0.0
C251 C 0.61499 0.62996 0.2897 0.0
C252 C 0.61992 0.62841 0.33843 0.0
C253 C 0.61121 0.64153 0.36945 0.0
C254 C 0.61522 0.63999 0.41599 0.0
C255 C 0.62809 0.62528 0.43255 0.0
C256 C 0.63695 0.61225 0.40112 0.0
C257 C 0.63289 0.61379 0.35456 0.0
C258 C 0.63109 0.5828 0.18223 0.0
C259 C 0.67642 0.61033 0.23093 0.0
O260 O 0.6594 0.59105 0.08576 0.0
O261 O 0.67655 0.61812 0.08191 0.0
O262 O 0.6409 0.63823 0.1629 0.0
O263 O 0.67094 0.64146 0.14946 0.0
O264 O 0.62685 0.61527 0.10446 0.0
O265 O 0.6089 0.62809 0.16443 0.0
O266 O 0.62657 0.64122 0.26505 0.0
O267 O 0.61054 0.61341 0.26904 0.0
O268 O 0.6456 0.59433 0.18692 0.0
O269 O 0.61543 0.59106 0.19909 0.0
O270 O 0.65956 0.61752 0.24691 0.0
O271 O 0.67817 0.60494 0.1878 0.0
H272 H 0.68642 0.57981 0.99285 0.0
H273 H 0.6797 0.58271 0.91148 0.0
H274 H 0.63867 0.63032 0.9388 0.0
H275 H 0.64582 0.62753 0.02023 0.0
H276 H 0.60111 0.65287 0.35772 0.0
H277 H 0.60789 0.6501 0.43907 0.0
H278 H 0.64713 0.60092 0.41246 0.0
H279 H 0.63977 0.60349 0.33116 0.0
Tb280 Tb 0.6189 0.38313 0.82082 0.0
Tb281 Tb 0.61256 0.35683 0.90064 0.0
C282 C 0.63041 0.39793 0.7467 0.0
C283 C 0.62872 0.39299 0.69795 0.0
C284 C 0.64247 0.40081 0.6671 0.0
C285 C 0.64083 0.39679 0.62057 0.0
C286 C 0.62537 0.38481 0.60384 0.0
C287 C 0.61171 0.37682 0.63509 0.0
C288 C 0.61336 0.38088 0.68166 0.0
C289 C 0.58232 0.38209 0.85239 0.0
C290 C 0.60999 0.3369 0.80522 0.0
C291 C 0.60074 0.34227 0.97484 0.0
C292 C 0.60256 0.34708 0.02359 0.0
C293 C 0.58934 0.33857 0.05469 0.0
C294 C 0.59108 0.34249 0.10123 0.0
C295 C 0.60612 0.35504 0.11771 0.0
C296 C 0.61925 0.36373 0.08623 0.0
C297 C 0.61745 0.35982 0.03961 0.0
C298 C 0.64965 0.3583 0.87161 0.0
C299 C 0.62192 0.40336 0.91485 0.0
O300 O 0.64126 0.38604 0.77141 0.0
O301 O 0.61398 0.40294 0.76731 0.0
O302 O 0.59396 0.36766 0.84855 0.0
O303 O 0.59063 0.39772 0.83554 0.0
O304 O 0.61716 0.35374 0.78921 0.0
O305 O 0.60456 0.33519 0.84835 0.0
O306 O 0.59026 0.3545 0.9503 0.0
O307 O 0.61701 0.33688 0.95416 0.0
O308 O 0.63772 0.37261 0.87409 0.0
O309 O 0.64098 0.34272 0.8877 0.0
O310 O 0.61452 0.38667 0.93169 0.0
O311 O 0.62761 0.40453 0.87196 0.0
H312 H 0.65439 0.41024 0.67896 0.0
H313 H 0.65146 0.40342 0.59759 0.0
H314 H 0.59978 0.36732 0.62362 0.0
H315 H 0.60259 0.37465 0.70493 0.0
H316 H 0.57776 0.32869 0.043 0.0
H317 H 0.58086 0.33536 0.12441 0.0
H318 H 0.63083 0.37367 0.0976 0.0
H319 H 0.62776 0.36665 1.01611 0.0
Tb320 Tb 0.85667 0.6155 0.65147 0.0
Tb321 Tb 0.88428 0.61668 0.57185 0.0
C322 C 0.83985 0.60983 0.72694 0.0
C323 C 0.84609 0.60799 0.77488 0.0
C324 C 0.83519 0.59596 0.80461 0.0
C325 C 0.83976 0.59545 0.85102 0.0
C326 C 0.8553 0.60706 0.86866 0.0
C327 C 0.86658 0.61863 0.83844 0.0
C328 C 0.86204 0.61908 0.79206 0.0
C329 C 0.85969 0.65027 0.61132 0.0
C330 C 0.90345 0.62195 0.66622 0.0
C331 C 0.90055 0.62527 0.49726 0.0
C332 C 0.89595 0.62325 0.44847 0.0
C333 C 0.90514 0.63591 0.41722 0.0
C334 C 0.90113 0.63425 0.37074 0.0
C335 C 0.88772 0.61992 0.35445 0.0
C336 C 0.87847 0.60727 0.38608 0.0
C337 C 0.8826 0.60889 0.43261 0.0
C338 C 0.88256 0.5823 0.61336 0.0
C339 C 0.83767 0.60928 0.55586 0.0
O340 O 0.84479 0.5955 0.6993 0.0
O341 O 0.84234 0.62722 0.70847 0.0
O342 O 0.87367 0.63835 0.61896 0.0
O343 O 0.84339 0.64273 0.62679 0.0
O344 O 0.88641 0.61541 0.68319 0.0
O345 O 0.9052 0.62652 0.62277 0.0
O346 O 0.88942 0.63756 0.52032 0.0
O347 O 0.90387 0.60887 0.51951 0.0
O348 O 0.8682 0.59387 0.6065 0.0
O349 O 0.8981 0.58879 0.59227 0.0
O350 O 0.85529 0.61375 0.53892 0.0
O351 O 0.83478 0.60726 0.60016 0.0
H352 H 0.8228 0.58734 0.7921 0.0
H353 H 0.83068 0.58649 0.87332 0.0
H354 H 0.87884 0.6275 0.85071 0.0
H355 H 0.87072 0.62846 0.76982 0.0
H356 H 0.91556 0.64703 0.42877 0.0
H357 H 0.90881 0.64402 0.34752 0.0
H358 H 0.86789 0.59623 0.37498 0.0
H359 H 0.87541 0.59891 0.4562 0.0
Tb360 Tb 0.61811 0.12895 0.46481 0.0
Tb361 Tb 0.61281 0.15544 0.38498 0.0
C362 C 0.62927 0.11373 0.53869 0.0
C363 C 0.62766 0.11832 0.5876 0.0
C364 C 0.64112 0.10982 0.61807 0.0
C365 C 0.63958 0.11352 0.66474 0.0
C366 C 0.62455 0.12586 0.68197 0.0
C367 C 0.61122 0.13458 0.65113 0.0
C368 C 0.61272 0.13079 0.6044 0.0
C369 C 0.58165 0.1306 0.43265 0.0
C370 C 0.60985 0.17522 0.48064 0.0
C371 C 0.60186 0.17055 0.31068 0.0
C372 C 0.604 0.16624 0.26179 0.0
C373 C 0.5916 0.17581 0.23067 0.0
C374 C 0.59349 0.17223 0.18403 0.0
C375 C 0.60789 0.15898 0.16744 0.0
C376 C 0.62017 0.14922 0.19897 0.0
C377 C 0.61824 0.15282 0.24571 0.0
C378 C 0.64962 0.1534 0.41537 0.0
C379 C 0.62135 0.10882 0.37062 0.0
O380 O 0.64028 0.12567 0.51441 0.0
O381 O 0.61279 0.10903 0.51796 0.0
O382 O 0.59359 0.14484 0.43638 0.0
O383 O 0.58953 0.11493 0.45022 0.0
O384 O 0.61665 0.15826 0.49671 0.0
O385 O 0.60474 0.17708 0.43735 0.0
O386 O 0.59117 0.15806 0.33408 0.0
O387 O 0.61797 0.17569 0.33229 0.0
O388 O 0.63749 0.13925 0.41223 0.0
O389 O 0.64135 0.16913 0.39908 0.0
O390 O 0.61445 0.12566 0.3536 0.0
O391 O 0.62664 0.10749 0.41371 0.0
H392 H 0.65279 0.1002 0.60576 0.0
H393 H 0.65029 0.10679 0.68733 0.0
H394 H 0.59936 0.14401 0.66316 0.0
H395 H 0.6021 0.13742 0.58144 0.0
H396 H 0.58043 0.18611 0.24246 0.0
H397 H 0.58352 0.17973 0.161 0.0
H398 H 0.63153 0.13906 0.18753 0.0
H399 H 0.62795 0.14525 0.26925 0.0
Tb400 Tb 0.15626 0.39882 0.65241 0.0
Tb401 Tb 0.12971 0.39291 0.57255 0.0
C402 C 0.17113 0.41039 0.72653 0.0
C403 C 0.1664 0.40882 0.77535 0.0
C404 C 0.17555 0.42171 0.80619 0.0
C405 C 0.17185 0.42008 0.85284 0.0
C406 C 0.15891 0.40547 0.86974 0.0
C407 C 0.14949 0.39276 0.83847 0.0
C408 C 0.15319 0.39443 0.79173 0.0
C409 C 0.15471 0.36201 0.6223 0.0
C410 C 0.10968 0.38964 0.66666 0.0
C411 C 0.11451 0.38181 0.49851 0.0
C412 C 0.1192 0.38349 0.44965 0.0
C413 C 0.11089 0.36997 0.41896 0.0
C414 C 0.1146 0.37163 0.37231 0.0
C415 C 0.12675 0.38688 0.35531 0.0
C416 C 0.13532 0.40025 0.38639 0.0
C417 C 0.13153 0.3986 0.43309 0.0
C418 C 0.13088 0.42925 0.60532 0.0
C419 C 0.176 0.40162 0.5568 0.0
O420 O 0.15909 0.42108 0.70197 0.0
O421 O 0.1761 0.39397 0.70602 0.0
O422 O 0.14035 0.37388 0.62514 0.0
O423 O 0.17034 0.37045 0.63887 0.0
O424 O 0.12637 0.39706 0.68354 0.0
O425 O 0.10854 0.38391 0.6238 0.0
O426 O 0.1264 0.37078 0.5228 0.0
O427 O 0.1098 0.39823 0.51938 0.0
O428 O 0.1453 0.41762 0.60082 0.0
O429 O 0.11518 0.42107 0.5884 0.0
O430 O 0.15907 0.3946 0.54083 0.0
O431 O 0.17786 0.40687 0.60001 0.0
H432 H 0.18568 0.43299 0.79419 0.0
H433 H 0.17908 0.43038 0.87565 0.0
H434 H 0.13958 0.38122 0.85013 0.0
H435 H 0.14593 0.38433 0.76844 0.0
H436 H 0.10139 0.35816 0.43107 0.0
H437 H 0.10802 0.36088 0.34957 0.0
H438 H 0.14459 0.41227 0.37457 0.0
H439 H 0.13805 0.40925 0.45621 0.0
Tb440 Tb 0.39428 0.88302 0.46775 0.0
Tb441 Tb 0.39914 0.85618 0.38804 0.0
C442 C 0.384 0.89857 0.54196 0.0
C443 C 0.38559 0.89403 0.591 0.0
C444 C 0.38116 0.87518 0.60842 0.0
C445 C 0.38274 0.87142 0.65512 0.0
C446 C 0.38873 0.88644 0.68539 0.0
C447 C 0.39325 0.90523 0.66762 0.0
C448 C 0.39168 0.90896 0.62102 0.0
C449 C 0.43025 0.88172 0.43305 0.0
C450 C 0.40288 0.83684 0.48371 0.0
C451 C 0.40937 0.84061 0.31369 0.0
C452 C 0.40784 0.84506 0.2646 0.0
C453 C 0.41256 0.8638 0.24694 0.0
C454 C 0.4111 0.86745 0.20018 0.0
C455 C 0.40495 0.85242 0.17009 0.0
C456 C 0.40016 0.83374 0.18809 0.0
C457 C 0.40161 0.83012 0.23475 0.0
C458 C 0.36268 0.8581 0.42066 0.0
C459 C 0.39053 0.90273 0.3735 0.0
O460 O 0.37236 0.88731 0.5174 0.0
O461 O 0.40061 0.9027 0.5211 0.0
O462 O 0.41866 0.86729 0.43823 0.0
O463 O 0.42228 0.89746 0.45021 0.0
O464 O 0.39621 0.85384 0.49996 0.0
O465 O 0.40752 0.83476 0.4402 0.0
O466 O 0.42098 0.85187 0.33819 0.0
O467 O 0.39275 0.83658 0.33454 0.0
O468 O 0.37463 0.87231 0.41635 0.0
O469 O 0.37089 0.84229 0.4045 0.0
O470 O 0.3975 0.8859 0.35643 0.0
O471 O 0.38527 0.90412 0.41663 0.0
H472 H 0.37638 0.86337 0.58607 0.0
H473 H 0.37896 0.85682 0.66756 0.0
H474 H 0.39822 0.91707 0.68967 0.0
H475 H 0.39525 0.92359 0.60836 0.0
H476 H 0.4175 0.87559 0.26917 0.0
H477 H 0.41511 0.88195 0.18754 0.0
H478 H 0.39507 0.82191 0.16615 0.0
H479 H 0.39784 0.81558 0.24759 0.0
Tb480 Tb 0.85738 0.89798 0.63627 0.0
Tb481 Tb 0.88391 0.89195 0.71598 0.0
C482 C 0.84267 0.90961 0.56212 0.0
C483 C 0.84752 0.9079 0.51337 0.0
C484 C 0.83856 0.92076 0.48227 0.0
C485 C 0.84255 0.91912 0.43573 0.0
C486 C 0.85561 0.90455 0.41924 0.0
C487 C 0.86473 0.89178 0.45071 0.0
C488 C 0.86074 0.89346 0.49733 0.0
C489 C 0.85893 0.86103 0.66541 0.0
C490 C 0.90396 0.88884 0.62185 0.0
C491 C 0.89899 0.88078 0.79002 0.0
C492 C 0.89418 0.88248 0.83884 0.0
C493 C 0.90227 0.86891 0.86961 0.0
C494 C 0.89834 0.87054 0.91619 0.0
C495 C 0.88615 0.88579 0.93307 0.0
C496 C 0.87792 0.89928 0.9019 0.0
C497 C 0.88192 0.89766 0.85529 0.0
C498 C 0.88275 0.92835 0.68383 0.0
C499 C 0.83762 0.90069 0.73182 0.0
O500 O 0.85479 0.92023 0.58677 0.0
O501 O 0.83747 0.89327 0.58265 0.0
O502 O 0.87328 0.87297 0.66299 0.0
O503 O 0.8433 0.8696 0.64932 0.0
O504 O 0.88722 0.89616 0.6051 0.0
O505 O 0.9052 0.88318 0.66471 0.0
O506 O 0.88711 0.86977 0.76552 0.0
O507 O 0.9038 0.8972 0.76929 0.0
O508 O 0.86834 0.91668 0.68815 0.0
O509 O 0.89846 0.92017 0.70059 0.0
O510 O 0.85453 0.89365 0.74773 0.0
O511 O 0.83577 0.90597 0.68866 0.0
H512 H 0.82829 0.93198 0.49397 0.0
H513 H 0.83506 0.92905 0.41256 0.0
H514 H 0.87506 0.88056 0.43936 0.0
H515 H 0.86789 0.88342 0.52082 0.0
H516 H 0.91184 0.85714 0.85764 0.0
H517 H 0.90519 0.86005 0.93907 0.0
H518 H 0.86826 0.91104 0.91344 0.0
H519 H 0.87554 0.90832 0.8321 0.0
Tb520 Tb 0.89286 0.12744 0.3231 0.0
Tb521 Tb 0.89825 0.15423 0.40281 0.0
C522 C 0.88206 0.11206 0.24898 0.0
C523 C 0.88363 0.1168 0.20013 0.0
C524 C 0.87037 0.10807 0.16941 0.0
C525 C 0.87196 0.11182 0.12277 0.0
C526 C 0.88684 0.12443 0.10579 0.0
C527 C 0.89994 0.13339 0.13689 0.0
C528 C 0.89839 0.12956 0.18358 0.0
C529 C 0.92912 0.12896 0.35618 0.0
C530 C 0.90118 0.17374 0.30714 0.0
C531 C 0.90936 0.1694 0.47701 0.0
C532 C 0.9078 0.1647 0.52585 0.0
C533 C 0.92043 0.17419 0.55674 0.0
C534 C 0.91883 0.17049 0.60339 0.0
C535 C 0.90452 0.1572 0.62024 0.0
C536 C 0.89206 0.14746 0.58892 0.0
C537 C 0.89369 0.15119 0.54219 0.0
C538 C 0.86156 0.15228 0.37183 0.0
C539 C 0.88947 0.10766 0.41742 0.0
O540 O 0.87076 0.12365 0.27346 0.0
O541 O 0.89863 0.10773 0.2697 0.0
O542 O 0.9174 0.1433 0.35164 0.0
O543 O 0.92111 0.1132 0.33921 0.0
O544 O 0.89435 0.15672 0.29122 0.0
O545 O 0.90631 0.17574 0.35038 0.0
O546 O 0.92038 0.15759 0.45251 0.0
O547 O 0.89285 0.17398 0.4564 0.0
O548 O 0.87355 0.13808 0.37535 0.0
O549 O 0.86982 0.16804 0.38822 0.0
O550 O 0.89653 0.1245 0.43423 0.0
O551 O 0.88407 0.10622 0.37439 0.0
H552 H 0.85884 0.09823 0.1815 0.0
H553 H 0.86141 0.1049 0.10001 0.0
H554 H 0.91169 0.14303 0.12509 0.0
H555 H 0.90884 0.13638 0.20671 0.0
H556 H 0.93149 0.18459 0.54478 0.0
H557 H 0.92892 0.17799 0.62624 0.0
H558 H 0.88076 0.13727 0.60055 0.0
H559 H 0.88378 0.14369 0.51888 0.0
Tb560 Tb 0.15596 0.11326 0.63484 0.0
Tb561 Tb 0.12938 0.11927 0.71453 0.0
C562 C 0.17074 0.10157 0.5607 0.0
C563 C 0.16613 0.10336 0.51186 0.0
C564 C 0.17431 0.08978 0.48114 0.0
C565 C 0.17068 0.0915 0.4345 0.0
C566 C 0.1588 0.10692 0.41746 0.0
C567 C 0.15033 0.12034 0.44861 0.0
C568 C 0.15395 0.11856 0.49535 0.0
C569 C 0.1546 0.15013 0.66463 0.0
C570 C 0.10941 0.12261 0.6204 0.0
C571 C 0.11431 0.1304 0.78872 0.0
C572 C 0.1192 0.12887 0.8375 0.0
C573 C 0.11151 0.14283 0.868 0.0
C574 C 0.11533 0.1413 0.91461 0.0
C575 C 0.12696 0.12573 0.93181 0.0
C576 C 0.13495 0.11193 0.9009 0.0
C577 C 0.13109 0.11348 0.85423 0.0
C578 C 0.13044 0.08289 0.68186 0.0
C579 C 0.1756 0.11043 0.73046 0.0
O580 O 0.15841 0.09106 0.58503 0.0
O581 O 0.17607 0.11782 0.58151 0.0
O582 O 0.14017 0.13831 0.66191 0.0
O583 O 0.1702 0.14155 0.64832 0.0
O584 O 0.12618 0.11537 0.60351 0.0
O585 O 0.1081 0.12809 0.66341 0.0
O586 O 0.126 0.14151 0.764 0.0
O587 O 0.10965 0.11389 0.76812 0.0
O588 O 0.14489 0.0945 0.68642 0.0
O589 O 0.11474 0.09112 0.69865 0.0
O590 O 0.15871 0.11758 0.74634 0.0
O591 O 0.17743 0.10508 0.6873 0.0
H592 H 0.18362 0.07785 0.49324 0.0
H593 H 0.17713 0.08066 0.4118 0.0
H594 H 0.14125 0.13248 0.43685 0.0
H595 H 0.14743 0.12919 0.51853 0.0
H596 H 0.10239 0.15488 0.85578 0.0
H597 H 0.10923 0.1524 0.93716 0.0
H598 H 0.14382 0.09965 0.91282 0.0
H599 H 0.13719 0.10252 0.83127 0.0
Tb600 Tb 0.11984 0.88322 0.32148 0.0
Tb601 Tb 0.11466 0.85651 0.40083 0.0
C602 C 0.13025 0.8987 0.24733 0.0
C603 C 0.12857 0.89417 0.19825 0.0
C604 C 0.13319 0.87541 0.18054 0.0
C605 C 0.13154 0.87168 0.13382 0.0
C606 C 0.1253 0.88664 0.10379 0.0
C607 C 0.12058 0.90535 0.12185 0.0
C608 C 0.12223 0.90905 0.16847 0.0
C609 C 0.08375 0.88201 0.3556 0.0
C610 C 0.11108 0.83702 0.30519 0.0
C611 C 0.10421 0.84106 0.47509 0.0
C612 C 0.10585 0.8455 0.52421 0.0
C613 C 0.10097 0.86416 0.54213 0.0
C614 C 0.1025 0.86779 0.58892 0.0
C615 C 0.10889 0.85282 0.61878 0.0
C616 C 0.11385 0.83422 0.60051 0.0
C617 C 0.11233 0.83062 0.55383 0.0
C618 C 0.15128 0.85825 0.36895 0.0
C619 C 0.12357 0.90302 0.41584 0.0
O620 O 0.14179 0.88735 0.2718 0.0
O621 O 0.1137 0.90296 0.26828 0.0
O622 O 0.09529 0.86756 0.35046 0.0
O623 O 0.09187 0.89774 0.3388 0.0
O624 O 0.11787 0.854 0.28903 0.0
O625 O 0.10627 0.83506 0.34861 0.0
O626 O 0.09276 0.85247 0.45067 0.0
O627 O 0.12073 0.83678 0.45414 0.0
O628 O 0.13941 0.87253 0.37307 0.0
O629 O 0.1428 0.84248 0.38462 0.0
O630 O 0.11649 0.88619 0.43268 0.0
O631 O 0.12886 0.90442 0.37272 0.0
H632 H 0.13816 0.86364 0.20269 0.0
H633 H 0.13549 0.85716 0.12116 0.0
H634 H 0.11541 0.91713 0.10001 0.0
H635 H 0.11851 0.92361 0.18134 0.0
H636 H 0.09585 0.87591 0.52011 0.0
H637 H 0.09836 0.88222 0.60176 0.0
H638 H 0.11913 0.82244 0.62225 0.0
H639 H 0.11622 0.81614 0.5408 0.0
C640 C 0.38331 0.9388 0.36315 0.0
C641 C 0.38854 0.92046 0.344 0.0
C642 C 0.38229 0.95581 0.33634 0.0
C643 C 0.37713 0.97367 0.21845 0.0
H644 H 0.40002 0.02173 0.26784 0.0
C645 C 0.38456 0.04622 0.11336 0.0
C646 C 0.38113 0.06407 0.13638 0.0
C647 C 0.38526 0.02829 0.13725 0.0
C648 C 0.39329 0.00855 0.25368 0.0
H649 H 0.39635 0.90564 0.28109 0.0
H650 H 0.39455 0.93544 0.23415 0.0
H651 H 0.40142 0.99128 0.3116 0.0
H652 H 0.37718 0.07742 0.20252 0.0
H653 H 0.37734 0.04633 0.24406 0.0
H654 H 0.36882 0.99105 0.16065 0.0
C655 C 0.39121 0.93658 0.27006 0.0
C656 C 0.39415 0.99104 0.27881 0.0
C657 C 0.39235 0.91951 0.29703 0.0
C658 C 0.37881 0.0638 0.18367 0.0
C659 C 0.37942 0.04595 0.20758 0.0
C660 C 0.37617 0.99127 0.19333 0.0
C661 C 0.3864 0.95499 0.28955 0.0
C662 C 0.38596 0.9734 0.26172 0.0
C663 C 0.38277 0.02792 0.18479 0.0
C664 C 0.38411 0.00899 0.21078 0.0
H665 H 0.38021 0.94014 0.39914 0.0
H666 H 0.37823 0.96966 0.35234 0.0
H667 H 0.37053 0.96039 0.20446 0.0
H668 H 0.38682 0.04615 0.07691 0.0
H669 H 0.38821 0.0148 0.11859 0.0
C670 C 0.9394 0.62998 0.67802 0.0
C671 C 0.92103 0.62417 0.69628 0.0
C672 C 0.95617 0.63162 0.70567 0.0
C673 C 0.98766 0.64359 0.77369 0.0
H674 H 0.99592 0.60508 0.86921 0.0
C675 C 0.05504 0.6482 0.89571 0.0
C676 C 0.06411 0.63027 0.90776 0.0
C677 C 0.037 0.64825 0.87211 0.0
C678 C 0.99396 0.61589 0.84248 0.0
H679 H 0.90597 0.61565 0.75838 0.0
H680 H 0.9351 0.61898 0.80686 0.0
H681 H 0.96592 0.60359 0.82358 0.0
H682 H 0.06143 0.59837 0.90471 0.0
H683 H 0.03028 0.59839 0.86301 0.0
H684 H 0.01607 0.65539 0.79137 0.0
C685 C 0.93663 0.62196 0.77089 0.0
C686 C 0.97655 0.61521 0.81665 0.0
C687 C 0.91985 0.62019 0.74311 0.0
C688 C 0.05473 0.61243 0.89609 0.0
C689 C 0.03678 0.61246 0.87238 0.0
C690 C 1.00512 0.64421 0.79937 0.0
C691 C 0.95507 0.62762 0.75251 0.0
C692 C 0.97321 0.62894 0.78159 0.0
C693 C 0.02763 0.63036 0.85998 0.0
C694 C 0.00861 0.63026 0.8339 0.0
H695 H 0.94097 0.63305 0.64209 0.0
H696 H 0.97012 0.63565 0.68998 0.0
H697 H 0.98554 0.65462 0.74752 0.0
H698 H 0.06189 0.66218 0.90456 0.0
H699 H 0.03032 0.66234 0.86376 0.0
C700 C 0.61295 0.95755 0.14055 0.0
C701 C 0.63086 0.94822 0.12922 0.0
C702 C 0.6129 0.97552 0.16422 0.0
C703 C 0.64436 0.00725 0.23798 0.0
H704 H 0.60387 0.04634 0.21264 0.0
C705 C 0.62934 0.0729 0.35912 0.0
C706 C 0.62373 0.09124 0.34065 0.0
C707 C 0.63116 0.05614 0.33149 0.0
C708 C 0.61545 0.03574 0.2199 0.0
H709 H 0.66281 0.95055 0.13288 0.0
H710 H 0.66282 0.98212 0.17373 0.0
H711 H 0.60557 0.01635 0.16701 0.0
H712 H 0.61589 0.1063 0.27819 0.0
H713 H 0.61942 0.07715 0.22981 0.0
H714 H 0.6545 0.02683 0.29025 0.0
C715 C 0.64874 0.97539 0.16512 0.0
C716 C 0.61625 0.01834 0.19405 0.0
C717 C 0.64877 0.95735 0.14152 0.0
C718 C 0.62017 0.09242 0.29365 0.0
C719 C 0.62208 0.07564 0.26591 0.0
C720 C 0.6436 0.02469 0.26371 0.0
C721 C 0.63078 0.98471 0.17694 0.0
C722 C 0.63058 1.00373 0.20303 0.0
C723 C 0.62752 0.05722 0.28448 0.0
C724 C 0.629 0.0391 0.2554 0.0
H725 H 0.5989 0.95082 0.13171 0.0
H726 H 0.59877 0.98198 0.17333 0.0
H727 H 0.65551 0.99633 0.24626 0.0
H728 H 0.6321 0.07136 0.39519 0.0
H729 H 0.63502 0.04222 0.3473 0.0
C730 C 0.96538 0.38603 0.92564 0.0
C731 C 0.94789 0.37986 0.90411 0.0
C732 C 0.98335 0.38656 0.90168 0.0
C733 C 1.00298 0.38931 0.78399 0.0
H734 H 0.05252 0.3732 0.83929 0.0
C735 C 0.07409 0.38019 0.67807 0.0
C736 C 0.09193 0.3875 0.69622 0.0
C737 C 0.05701 0.379 0.70481 0.0
C738 C 0.03884 0.37794 0.82351 0.0
H739 H 0.93513 0.37107 0.83996 0.0
H740 H 0.96638 0.37092 0.79856 0.0
H741 H 0.0218 0.37145 0.88321 0.0
H742 H 0.10581 0.39891 0.75735 0.0
H743 H 0.07589 0.39685 0.80411 0.0
H744 H 0.01992 0.39574 0.72434 0.0
C745 C 0.96644 0.37516 0.83406 0.0
C746 C 0.02121 0.37695 0.84869 0.0
C747 C 0.94855 0.37466 0.85806 0.0
C748 C 0.09234 0.39322 0.74221 0.0
C749 C 0.0752 0.39196 0.7691 0.0
C750 C 0.02054 0.39025 0.75886 0.0
C751 C 0.9841 0.38122 0.85544 0.0
C752 C 1.00301 0.3825 0.82915 0.0
C753 C 0.05725 0.38505 0.75053 0.0
C754 C 0.03869 0.38445 0.77813 0.0
H755 H 0.96514 0.39054 0.96098 0.0
H756 H 0.99653 0.39165 0.9191 0.0
H757 H 0.98937 0.39417 0.76807 0.0
H758 H 0.07319 0.37555 0.6429 0.0
H759 H 0.04357 0.37327 0.68959 0.0
C760 C 0.38056 0.44834 0.10503 0.0
C761 C 0.38161 0.44788 0.15257 0.0
C762 C 0.38043 0.46639 0.08186 0.0
C763 C 0.39543 0.51858 0.09197 0.0
H764 H 0.35895 0.52617 0.99187 0.0
C765 C 0.39084 0.59282 0.99299 0.0
C766 C 0.38815 0.59155 0.94569 0.0
C767 C 0.38914 0.57592 0.02036 0.0
C768 C 0.36941 0.52426 0.01937 0.0
H769 H 0.38441 0.46566 0.21333 0.0
H770 H 0.38433 0.49743 0.17286 0.0
H771 H 0.35792 0.49554 0.03528 0.0
H772 H 0.38165 0.5714 0.89019 0.0
H773 H 0.3791 0.54212 0.93741 0.0
H774 H 0.40727 0.54709 0.07543 0.0
C775 C 0.38329 0.48385 0.15345 0.0
C776 C 0.36877 0.50668 0.04436 0.0
C777 C 0.38324 0.46573 0.17662 0.0
C778 C 0.38366 0.57302 0.92651 0.0
C779 C 0.38208 0.55617 0.95375 0.0
C780 C 0.39619 0.53613 0.06672 0.0
C781 C 0.38176 0.48438 0.10575 0.0
C782 C 0.38189 0.50353 0.0807 0.0
C783 C 0.38478 0.55734 1.00108 0.0
C784 C 0.38332 0.53913 0.02973 0.0
H785 H 0.38038 0.43476 0.0856 0.0
H786 H 0.37976 0.46624 0.04509 0.0
H787 H 0.40588 0.51654 0.11949 0.0
H788 H 0.3942 0.60685 1.00896 0.0
H789 H 0.39107 0.57749 0.05671 0.0
C790 C 0.59371 0.62122 0.04465 0.0
C791 C 0.59256 0.62502 0.09157 0.0
C792 C 0.5769 0.62303 1.01701 0.0
C793 C 0.53699 0.61606 0.97159 0.0
H794 H 0.49737 0.65603 0.99731 0.0
C795 C 0.4588 0.61283 0.89252 0.0
C796 C 0.44942 0.63062 0.88077 0.0
C797 C 0.47674 0.61297 0.91628 0.0
C798 C 0.50835 0.64491 0.98921 0.0
H799 H 0.57272 0.63371 0.1461 0.0
H800 H 0.5435 0.63642 0.0984 0.0
H801 H 0.52795 0.65541 0.04105 0.0
H802 H 0.45157 0.66254 0.88388 0.0
H803 H 0.48312 0.66289 0.92481 0.0
H804 H 0.51761 0.60584 0.91907 0.0
C805 C 0.55743 0.63247 0.08256 0.0
C806 C 0.52583 0.64438 1.0148 0.0
C807 C 0.57423 0.63078 0.11007 0.0
C808 C 0.45843 0.6486 0.89284 0.0
C809 C 0.47646 0.64877 0.91648 0.0
C810 C 0.51956 0.61665 0.94586 0.0
C811 C 0.55848 0.62857 0.03564 0.0
C812 C 0.54031 0.62981 1.00671 0.0
C813 C 0.48585 0.63093 0.92863 0.0
C814 C 0.50488 0.63094 0.95462 0.0
H815 H 0.60758 0.61681 0.02917 0.0
H816 H 0.5784 0.62018 0.98097 0.0
H817 H 0.54765 0.6045 0.96453 0.0
H818 H 0.45213 0.59874 0.88389 0.0
H819 H 0.48326 0.59894 0.92569 0.0
C820 C 0.61337 0.55437 0.14618 0.0
C821 C 0.63129 0.56359 0.15792 0.0
C822 C 0.61329 0.53649 0.12215 0.0
C823 C 0.64486 0.50483 0.04834 0.0
H824 H 0.604 0.46586 0.07236 0.0
C825 C 0.63024 0.43923 0.92653 0.0
C826 C 0.62432 0.42094 0.94483 0.0
C827 C 0.632 0.45599 0.95421 0.0
C828 C 0.61568 0.47643 0.06546 0.0
H829 H 0.66324 0.56116 0.15459 0.0
H830 H 0.6632 0.52974 0.11317 0.0
H831 H 0.60566 0.49574 0.11835 0.0
H832 H 0.61593 0.40595 1.00707 0.0
H833 H 0.61939 0.43507 0.05551 0.0
H834 H 0.65516 0.48531 0.99611 0.0
C835 C 0.64913 0.53648 0.12172 0.0
C836 C 0.61646 0.49377 0.09151 0.0
C837 C 0.64919 0.55444 0.14566 0.0
C838 C 0.62043 0.4198 0.99172 0.0
C839 C 0.62231 0.43657 0.0195 0.0
C840 C 0.64413 0.48745 0.02241 0.0
C841 C 0.63116 0.52727 0.10947 0.0
C842 C 0.63094 0.50834 0.08305 0.0
C843 C 0.62802 0.45495 1.0011 0.0
C844 C 0.6294 0.47307 0.03026 0.0
H845 H 0.59933 0.56113 0.15497 0.0
H846 H 0.59915 0.53012 0.11274 0.0
H847 H 0.65612 0.51572 0.04043 0.0
H848 H 0.63325 0.44073 0.89055 0.0
H849 H 0.63609 0.46988 0.93851 0.0
C850 C 0.41884 0.39061 0.04239 0.0
C851 C 0.42023 0.38695 0.08932 0.0
C852 C 0.43558 0.389 1.01434 0.0
C853 C 0.48685 0.36818 1.01108 0.0
H854 H 0.49446 0.40645 0.9147 0.0
C855 C 0.55394 0.36383 0.88828 0.0
C856 C 0.56294 0.38178 0.87599 0.0
C857 C 0.53589 0.36371 0.91187 0.0
C858 C 0.49267 0.39571 0.94165 0.0
H859 H 0.44043 0.37872 0.1434 0.0
H860 H 0.46949 0.37632 0.09499 0.0
H861 H 0.46453 0.40769 0.96083 0.0
H862 H 0.56008 0.41366 0.87836 0.0
H863 H 0.52886 0.41354 0.92006 0.0
H864 H 0.51534 0.35669 0.99311 0.0
C865 C 0.45544 0.38002 0.07947 0.0
C866 C 0.47531 0.39625 0.96778 0.0
C867 C 0.43873 0.38153 0.1074 0.0
C868 C 0.55344 0.39959 0.88721 0.0
C869 C 0.53546 0.3995 0.91093 0.0
C870 C 0.50424 0.3677 0.9851 0.0
C871 C 0.45415 0.38377 0.03254 0.0
C872 C 0.47222 0.3826 1.00316 0.0
C873 C 0.52643 0.38156 0.92378 0.0
C874 C 0.50749 0.38155 0.95023 0.0
H875 H 0.40483 0.39476 0.02724 0.0
H876 H 0.4339 0.39173 0.97831 0.0
H877 H 0.48492 0.35722 0.03752 0.0
H878 H 0.56088 0.34987 0.87973 0.0
H879 H 0.52929 0.3496 0.92051 0.0
C880 C 0.88183 0.4377 0.86467 0.0
C881 C 0.88818 0.41961 0.84606 0.0
C882 C 0.88099 0.45478 0.838 0.0
C883 C 0.87838 0.47278 0.7197 0.0
H884 H 0.89791 0.52158 0.77267 0.0
C885 C 0.88631 0.54557 0.61584 0.0
C886 C 0.88175 0.56335 0.63813 0.0
C887 C 0.88682 0.52769 0.63991 0.0
C888 C 0.89211 0.50819 0.75746 0.0
H889 H 0.89839 0.40534 0.78427 0.0
H890 H 0.89679 0.43522 0.73756 0.0
H891 H 0.89922 0.49112 0.81641 0.0
H892 H 0.87574 0.57664 0.70347 0.0
H893 H 0.87546 0.54556 0.7452 0.0
H894 H 0.87108 0.48993 0.66085 0.0
C895 C 0.8924 0.43611 0.77291 0.0
C896 C 0.89293 0.49066 0.78259 0.0
C897 C 0.89338 0.41899 0.79975 0.0
C898 C 0.87811 0.56304 0.685 0.0
C899 C 0.87853 0.54521 0.70909 0.0
C900 C 0.87746 0.49038 0.69457 0.0
C901 C 0.88638 0.45427 0.79187 0.0
C902 C 0.88597 0.47275 0.7642 0.0
C903 C 0.883 0.52726 0.68698 0.0
C904 C 0.8842 0.50837 0.71323 0.0
H905 H 0.87765 0.4388 0.90012 0.0
H906 H 0.87599 0.46842 0.85357 0.0
H907 H 0.87273 0.45928 0.70466 0.0
H908 H 0.88963 0.54554 0.57981 0.0
H909 H 0.89069 0.51428 0.62181 0.0
C910 C 0.55473 0.14885 0.39115 0.0
C911 C 0.56202 0.13123 0.41013 0.0
C912 C 0.53684 0.14892 0.36698 0.0
C913 C 0.48911 0.12481 0.35496 0.0
H914 H 0.49096 0.1399 0.22807 0.0
C915 C 0.42171 0.11243 0.23609 0.0
C916 C 0.41919 0.1249 0.19841 0.0
C917 C 0.43867 0.11393 0.26336 0.0
C918 C 0.48991 0.13604 0.26366 0.0
H919 H 0.55572 0.10015 0.42093 0.0
H920 H 0.52404 0.1005 0.38038 0.0
H921 H 0.52084 0.14197 0.27411 0.0
H922 H 0.43204 0.14928 0.1609 0.0
H923 H 0.46091 0.15274 0.20957 0.0
H924 H 0.45815 0.11957 0.3456 0.0
C925 C 0.53244 0.11411 0.38328 0.0
C926 C 0.50717 0.13711 0.28993 0.0
C927 C 0.55056 0.11393 0.40641 0.0
C928 C 0.43368 0.13928 0.18937 0.0
C929 C 0.45039 0.14112 0.21723 0.0
C930 C 0.4717 0.12419 0.32904 0.0
C931 C 0.52557 0.13153 0.36269 0.0
C932 C 0.50698 0.13133 0.33568 0.0
C933 C 0.45337 0.12827 0.25433 0.0
C934 C 0.47183 0.1296 0.28274 0.0
H935 H 0.56299 0.16252 0.39442 0.0
H936 H 0.53175 0.16259 0.35177 0.0
H937 H 0.48857 0.12038 0.39031 0.0
H938 H 0.41085 0.1011 0.24376 0.0
H939 H 0.44039 0.10347 0.29086 0.0
C940 C 0.12172 0.59286 0.79363 0.0
C941 C 0.12573 0.59169 0.84044 0.0
C942 C 0.12344 0.57609 0.76579 0.0
C943 C 0.11653 0.53618 0.72004 0.0
H944 H 0.15674 0.49675 0.74496 0.0
C945 C 0.11344 0.45797 0.64075 0.0
C946 C 0.13127 0.44856 0.62913 0.0
C947 C 0.11354 0.47596 0.66432 0.0
C948 C 0.14555 0.50768 0.73706 0.0
H949 H 0.1347 0.57185 0.89453 0.0
H950 H 0.13728 0.54273 0.84653 0.0
H951 H 0.15613 0.52729 0.78878 0.0
H952 H 0.16324 0.45077 0.63216 0.0
H953 H 0.16353 0.48239 0.67269 0.0
H954 H 0.10623 0.51677 0.66761 0.0
C955 C 0.13322 0.55663 0.8309 0.0
C956 C 0.14502 0.52514 0.76272 0.0
C957 C 0.13161 0.57338 0.8586 0.0
C958 C 0.14926 0.45764 0.64101 0.0
C959 C 0.14939 0.47571 0.66446 0.0
C960 C 0.11712 0.51876 0.69423 0.0
C961 C 0.12913 0.55769 0.78409 0.0
C962 C 0.13036 0.53955 0.75497 0.0
C963 C 0.13151 0.48511 0.67662 0.0
C964 C 0.1315 0.50414 0.70267 0.0
H965 H 0.11721 0.60672 0.77842 0.0
H966 H 0.12042 0.57759 0.72984 0.0
H967 H 0.1049 0.54678 0.71323 0.0
H968 H 0.09933 0.45126 0.63224 0.0
H969 H 0.09947 0.48248 0.6737 0.0
C970 C 0.57374 0.88095 0.17743 0.0
C971 C 0.59213 0.88664 0.19577 0.0
C972 C 0.55698 0.87928 0.20514 0.0
C973 C 0.5368 0.89568 0.31639 0.0
H974 H 0.49695 0.8558 0.29121 0.0
C975 C 0.45879 0.89905 0.39656 0.0
C976 C 0.44939 0.88127 0.40854 0.0
C977 C 0.47667 0.89888 0.37252 0.0
C978 C 0.508 0.8669 0.29915 0.0
H979 H 0.60729 0.89469 0.25807 0.0
H980 H 0.57816 0.89135 0.30658 0.0
H981 H 0.52744 0.85637 0.247 0.0
H982 H 0.45146 0.84934 0.40557 0.0
H983 H 0.48291 0.84896 0.36413 0.0
H984 H 0.51757 0.90594 0.3692 0.0
C985 C 0.57659 0.88855 0.27053 0.0
C986 C 0.52543 0.8674 0.2733 0.0
C987 C 0.59337 0.89035 0.24271 0.0
C988 C 0.45833 0.86327 0.39644 0.0
C989 C 0.4763 0.86308 0.3725 0.0
C990 C 0.51943 0.89512 0.34237 0.0
C991 C 0.55812 0.88312 0.25207 0.0
C992 C 0.53999 0.88193 0.28121 0.0
C993 C 0.4857 0.88091 0.3601 0.0
C994 C 0.50467 0.88086 0.33381 0.0
H995 H 0.57217 0.87809 0.1414 0.0
H996 H 0.543 0.8754 0.18944 0.0
H997 H 0.54753 0.90721 0.3233 0.0
H998 H 0.45217 0.91315 0.40522 0.0
H999 H 0.48321 0.9129 0.36293 0.0
C1000 C 0.90017 0.95706 0.64828 0.0
C1001 C 0.88235 0.94762 0.66001 0.0
C1002 C 0.90002 0.97497 0.6245 0.0
C1003 C 0.86796 0.00617 0.55118 0.0
H1004 H 0.90828 0.04574 0.57494 0.0
C1005 C 0.88164 0.07173 0.42928 0.0
C1006 C 0.88724 0.09014 0.44751 0.0
C1007 C 0.88012 0.055 0.45701 0.0
C1008 C 0.89675 0.03499 0.56814 0.0
H1009 H 0.85038 0.94969 0.65704 0.0
H1010 H 0.85001 0.98116 0.61612 0.0
H1011 H 0.9071 0.01586 0.62088 0.0
H1012 H 0.89538 0.10537 0.50967 0.0
H1013 H 0.89233 0.0763 0.55824 0.0
H1014 H 0.85734 0.0255 0.49911 0.0
C1015 C 0.86417 0.97457 0.62443 0.0
C1016 C 0.89624 0.01766 0.59415 0.0
C1017 C 0.86434 0.95659 0.6481 0.0
C1018 C 0.89108 0.09143 0.49439 0.0
C1019 C 0.88946 0.07469 0.52224 0.0
C1020 C 0.86842 0.02354 0.52531 0.0
C1021 C 0.88202 0.98398 0.6121 0.0
C1022 C 0.88197 1.0029 0.58575 0.0
C1023 C 0.88406 0.0562 0.50389 0.0
C1024 C 0.88295 0.03812 0.53307 0.0
H1025 H 0.91429 0.95044 0.65683 0.0
H1026 H 0.91407 0.98153 0.61501 0.0
H1027 H 0.85686 0.99511 0.54333 0.0
H1028 H 0.87868 0.0701 0.3933 0.0
H1029 H 0.87627 0.04101 0.44138 0.0
C1030 C 0.09304 0.12121 0.5435 0.0
C1031 C 0.09183 0.12493 0.59046 0.0
C1032 C 0.07621 0.12288 0.51583 0.0
C1033 C 0.03634 0.11562 0.47021 0.0
H1034 H 0.99634 0.15516 0.49629 0.0
C1035 C 0.95806 0.1118 0.39131 0.0
C1036 C 0.94844 0.12952 0.37998 0.0
C1037 C 0.97606 0.11206 0.41484 0.0
C1038 C 0.00742 0.14416 0.48808 0.0
H1039 H 0.07187 0.13337 0.64497 0.0
H1040 H 0.04265 0.13586 0.59721 0.0
H1041 H 0.02692 0.15476 0.54 0.0
H1042 H 0.9503 0.16145 0.3835 0.0
H1043 H 0.98194 0.16201 0.42401 0.0
H1044 H 0.01703 0.10529 0.41761 0.0
C1045 C 0.05663 0.13206 0.58137 0.0
C1046 C 0.02491 0.14375 0.51366 0.0
C1047 C 0.07343 0.1305 0.60893 0.0
C1048 C 0.95732 0.14755 0.39213 0.0
C1049 C 0.97541 0.14784 0.41555 0.0
C1050 C 0.01889 0.11608 0.44449 0.0
C1051 C 0.05772 0.12822 0.53443 0.0
C1052 C 0.03954 0.12933 0.50546 0.0
C1053 C 0.98501 0.13007 0.42739 0.0
C1054 C 1.00407 0.13022 0.45336 0.0
H1055 H 0.10697 0.11697 0.52804 0.0
H1056 H 0.07775 0.12008 0.47977 0.0
H1057 H 0.04711 0.10417 0.46304 0.0
H1058 H 0.95151 0.09766 0.38259 0.0
H1059 H 0.98275 0.09807 0.42397 0.0
C1060 C 0.13121 0.93904 0.42739 0.0
C1061 C 0.12585 0.92061 0.44585 0.0
C1062 C 0.13272 0.95584 0.455 0.0
C1063 C 0.14455 0.98752 0.52294 0.0
H1064 H 0.10616 0.9952 0.61933 0.0
C1065 C 0.14881 0.05463 0.64577 0.0
C1066 C 0.13082 0.06359 0.65798 0.0
C1067 C 0.14896 0.03662 0.62205 0.0
C1068 C 0.11694 0.99339 0.59238 0.0
H1069 H 0.11825 0.90544 0.50835 0.0
H1070 H 0.12118 0.93465 0.55667 0.0
H1071 H 0.10497 0.96521 0.57354 0.0
H1072 H 0.09888 0.06071 0.65531 0.0
H1073 H 0.09906 0.02956 0.6135 0.0
H1074 H 0.15606 0.01602 0.54067 0.0
C1075 C 0.12387 0.93621 0.52058 0.0
C1076 C 0.11643 0.976 0.56644 0.0
C1077 C 0.12228 0.91939 0.49286 0.0
C1078 C 0.11299 0.0541 0.64652 0.0
C1079 C 0.11312 0.03616 0.62273 0.0
C1080 C 0.14502 1.00493 0.54878 0.0
C1081 C 0.12902 0.95472 0.502 0.0
C1082 C 0.13012 0.97287 0.53107 0.0
C1083 C 0.1311 0.02716 0.61001 0.0
C1084 C 0.13112 0.0082 0.58366 0.0
H1085 H 0.13397 0.94062 0.39132 0.0
H1086 H 0.13639 0.96983 0.4392 0.0
H1087 H 0.15554 0.98556 0.49649 0.0
H1088 H 0.16279 0.06155 0.6545 0.0
H1089 H 0.1631 0.03004 0.61349 0.0
C1090 C 0.05552 0.86358 0.39169 0.0
C1091 C 0.06454 0.88157 0.37984 0.0
C1092 C 0.03751 0.86338 0.41545 0.0
C1093 C 0.99443 0.89542 0.44575 0.0
H1094 H 0.9862 0.85648 0.54044 0.0
C1095 C 0.92035 0.89044 0.54501 0.0
C1096 C 0.92154 0.88656 0.59186 0.0
C1097 C 0.93716 0.88875 0.51724 0.0
C1098 C 0.98827 0.86757 0.51433 0.0
H1099 H 0.06184 0.91345 0.3834 0.0
H1100 H 0.03072 0.91319 0.4254 0.0
H1101 H 0.01674 0.85599 0.49641 0.0
H1102 H 0.94144 0.87786 0.64614 0.0
H1103 H 0.97065 0.87536 0.5982 0.0
H1104 H 0.96634 0.90749 0.46486 0.0
C1105 C 0.03724 0.89918 0.41575 0.0
C1106 C 1.00573 0.86711 0.48858 0.0
C1107 C 0.05516 0.89935 0.39187 0.0
C1108 C 0.9399 0.88085 0.61017 0.0
C1109 C 0.95669 0.87928 0.58252 0.0
C1110 C 0.97703 0.89594 0.47164 0.0
C1111 C 0.02813 0.8812 0.42795 0.0
C1112 C 0.00914 0.88113 0.45415 0.0
C1113 C 0.95561 0.88326 0.53566 0.0
C1114 C 0.97376 0.88212 0.50658 0.0
H1115 H 0.06237 0.84964 0.38253 0.0
H1116 H 0.03085 0.84925 0.42364 0.0
H1117 H 0.99635 0.90629 0.4191 0.0
H1118 H 0.90645 0.89481 0.52969 0.0
H1119 H 0.93563 0.89166 0.48125 0.0
C1120 C 0.34308 0.18431 0.11187 0.0
C1121 C 0.36 0.17227 0.11256 0.0
C1122 C 0.34477 0.20484 0.11526 0.0
C1123 C 0.37833 0.24378 0.15825 0.0
H1124 H 0.3414 0.27824 0.09601 0.0
C1125 C 0.37909 0.33038 0.16933 0.0
C1126 C 0.3604 0.33946 0.17224 0.0
C1127 C 0.38061 0.30987 0.16269 0.0
C1128 C 0.35173 0.26881 0.11394 0.0
H1129 H 0.39209 0.17233 0.11547 0.0
H1130 H 0.39511 0.2084 0.12079 0.0
H1131 H 0.34162 0.24304 0.0787 0.0
H1132 H 0.32874 0.33409 0.17351 0.0
H1133 H 0.33137 0.29849 0.16236 0.0
H1134 H 0.38837 0.26977 0.19347 0.0
C1135 C 0.38048 0.20189 0.11832 0.0
C1136 C 0.35187 0.24861 0.10398 0.0
C1137 C 0.37877 0.18126 0.11482 0.0
C1138 C 0.34335 0.32755 0.17097 0.0
C1139 C 0.34485 0.30716 0.16421 0.0
C1140 C 0.37825 0.2641 0.16805 0.0
C1141 C 0.36346 0.21392 0.11935 0.0
C1142 C 0.36488 0.23573 0.12663 0.0
C1143 C 0.36345 0.29814 0.15867 0.0
C1144 C 0.36465 0.27676 0.14667 0.0
H1145 H 0.32842 0.1778 0.11026 0.0
H1146 H 0.33131 0.21354 0.11649 0.0
H1147 H 0.38843 0.2343 0.17667 0.0
H1148 H 0.39249 0.33921 0.17015 0.0
H1149 H 0.39516 0.30335 0.15865 0.0
C1150 C 0.32902 0.66878 0.86556 0.0
C1151 C 0.34092 0.65177 0.86569 0.0
C1152 C 0.30841 0.66725 0.86818 0.0
C1153 C 0.26871 0.63399 0.90814 0.0
H1154 H 0.23512 0.67092 0.84346 0.0
C1155 C 0.182 0.63337 0.91607 0.0
C1156 C 0.17279 0.65201 0.91746 0.0
C1157 C 0.20258 0.63189 0.90994 0.0
C1158 C 0.24429 0.66061 0.86212 0.0
H1159 H 0.34058 0.61973 0.86713 0.0
H1160 H 0.30437 0.61699 0.8714 0.0
H1161 H 0.2706 0.67061 0.82869 0.0
H1162 H 0.17797 0.68364 0.9162 0.0
H1163 H 0.21369 0.68109 0.90616 0.0
H1164 H 0.24225 0.62412 0.94178 0.0
C1165 C 0.31104 0.63155 0.86979 0.0
C1166 C 0.26465 0.6604 0.85357 0.0
C1167 C 0.33175 0.6331 0.86692 0.0
C1168 C 0.18462 0.66907 0.91484 0.0
C1169 C 0.20508 0.6676 0.90869 0.0
C1170 C 0.24825 0.63417 0.91665 0.0
C1171 C 0.29913 0.64864 0.87104 0.0
C1172 C 0.27721 0.64737 0.87704 0.0
C1173 C 0.21428 0.64901 0.90498 0.0
C1174 C 0.23586 0.64776 0.89436 0.0
H1175 H 0.33568 0.68336 0.86472 0.0
H1176 H 0.2998 0.68074 0.86961 0.0
H1177 H 0.27795 0.62387 0.92714 0.0
H1178 H 0.17324 0.61996 0.91796 0.0
H1179 H 0.2092 0.61734 0.90726 0.0
C1180 C 0.63424 0.83067 0.11827 0.0
C1181 C 0.65287 0.83998 0.11761 0.0
C1182 C 0.63283 0.80999 0.1211 0.0
C1183 C 0.6621 0.76391 0.10504 0.0
H1184 H 0.62543 0.74113 0.19206 0.0
C1185 C 0.67055 0.68362 0.16374 0.0
C1186 C 0.65343 0.67187 0.16652 0.0
C1187 C 0.66914 0.70408 0.15807 0.0
C1188 C 0.63559 0.74723 0.16725 0.0
H1189 H 0.68456 0.83499 0.11772 0.0
H1190 H 0.68217 0.79914 0.12246 0.0
H1191 H 0.62511 0.77682 0.17816 0.0
H1192 H 0.62134 0.67243 0.16766 0.0
H1193 H 0.61881 0.70836 0.15765 0.0
H1194 H 0.67275 0.7345 0.09437 0.0
C1195 C 0.66861 0.80764 0.12065 0.0
C1196 C 0.63538 0.76769 0.15918 0.0
C1197 C 0.67 0.82823 0.11811 0.0
C1198 C 0.6348 0.68113 0.16566 0.0
C1199 C 0.63337 0.7017 0.15993 0.0
C1200 C 0.66232 0.74355 0.11311 0.0
C1201 C 0.65003 0.79823 0.12285 0.0
C1202 C 0.64887 0.77632 0.12851 0.0
C1203 C 0.65055 0.71335 0.15492 0.0
C1204 C 0.64933 0.73496 0.1449 0.0
H1205 H 0.62077 0.83938 0.118 0.0
H1206 H 0.61829 0.80321 0.12222 0.0
H1207 H 0.67241 0.76997 0.0805 0.0
H1208 H 0.68513 0.67692 0.1647 0.0
H1209 H 0.68268 0.71262 0.15551 0.0
C1210 C 0.82644 0.34421 0.93732 0.0
C1211 C 0.83871 0.36091 0.93385 0.0
C1212 C 0.80587 0.34603 0.93432 0.0
C1213 C 0.76726 0.37853 0.88674 0.0
H1214 H 0.73233 0.34391 0.95472 0.0
C1215 C 0.68063 0.3791 0.87264 0.0
C1216 C 0.67149 0.3604 0.87254 0.0
C1217 C 0.7011 0.38082 0.88026 0.0
C1218 C 0.74189 0.35359 0.93521 0.0
H1219 H 0.83905 0.3928 0.92649 0.0
H1220 H 0.80293 0.39607 0.92172 0.0
H1221 H 0.76758 0.34445 0.97205 0.0
H1222 H 0.6767 0.32886 0.87767 0.0
H1223 H 0.71221 0.33183 0.89052 0.0
H1224 H 0.74139 0.38754 0.84974 0.0
C1225 C 0.80927 0.38149 0.92614 0.0
C1226 C 0.76212 0.35392 0.94519 0.0
C1227 C 0.82994 0.37965 0.92934 0.0
C1228 C 0.68329 0.34348 0.87797 0.0
C1229 C 0.70362 0.34519 0.88571 0.0
C1230 C 0.74693 0.37826 0.87685 0.0
C1231 C 0.797 0.36464 0.92778 0.0
C1232 C 0.77517 0.36606 0.92048 0.0
C1233 C 0.71272 0.36388 0.8881 0.0
C1234 C 0.73409 0.36545 0.90033 0.0
H1235 H 0.83278 0.32957 0.94072 0.0
H1236 H 0.79698 0.33269 0.93522 0.0
H1237 H 0.77688 0.38793 0.86672 0.0
H1238 H 0.67189 0.3924 0.86857 0.0
H1239 H 0.70767 0.39543 0.88183 0.0
C1240 C 0.84542 0.68403 0.60332 0.0
C1241 C 0.86223 0.67193 0.60688 0.0
C1242 C 0.84711 0.70459 0.606 0.0
C1243 C 0.87948 0.74363 0.6527 0.0
H1244 H 0.84458 0.77791 0.58408 0.0
C1245 C 0.87978 0.83016 0.66504 0.0
C1246 C 0.86104 0.83923 0.66482 0.0
C1247 C 0.88154 0.8097 0.65784 0.0
C1248 C 0.85433 0.76854 0.60379 0.0
H1249 H 0.89417 0.6719 0.61412 0.0
H1250 H 0.89723 0.70801 0.61834 0.0
H1251 H 0.84526 0.74263 0.56756 0.0
H1252 H 0.82947 0.8339 0.6595 0.0
H1253 H 0.8325 0.7984 0.64743 0.0
H1254 H 0.88842 0.76971 0.68908 0.0
C1255 C 0.88266 0.70153 0.61408 0.0
C1256 C 0.85474 0.74829 0.59426 0.0
C1257 C 0.88095 0.68087 0.6112 0.0
C1258 C 0.84412 0.82737 0.65946 0.0
C1259 C 0.84587 0.80703 0.65215 0.0
C1260 C 0.87912 0.76398 0.66214 0.0
C1261 C 0.8657 0.71363 0.61231 0.0
C1262 C 0.867 0.73548 0.61919 0.0
C1263 C 0.8646 0.798 0.65012 0.0
C1264 C 0.86622 0.7766 0.63842 0.0
H1265 H 0.83079 0.67756 0.60007 0.0
H1266 H 0.8337 0.71334 0.60501 0.0
H1267 H 0.88897 0.7342 0.67288 0.0
H1268 H 0.8931 0.83895 0.66906 0.0
H1269 H 0.89618 0.80318 0.65653 0.0
C1270 C 0.82787 0.16716 0.3686 0.0
C1271 C 0.83978 0.15016 0.36867 0.0
C1272 C 0.80726 0.16563 0.3708 0.0
C1273 C 0.76728 0.13239 0.40927 0.0
H1274 H 0.73419 0.16943 0.34358 0.0
C1275 C 0.68045 0.13241 0.41516 0.0
C1276 C 0.67143 0.15114 0.41631 0.0
C1277 C 0.70105 0.13071 0.40946 0.0
C1278 C 0.74321 0.15908 0.36251 0.0
H1279 H 0.83944 0.11812 0.36975 0.0
H1280 H 0.8032 0.11537 0.37336 0.0
H1281 H 0.76974 0.169 0.32987 0.0
H1282 H 0.67694 0.18271 0.41513 0.0
H1283 H 0.71266 0.1798 0.40587 0.0
H1284 H 0.74059 0.12262 0.44216 0.0
C1285 C 0.80988 0.12993 0.37205 0.0
C1286 C 0.76362 0.15881 0.35457 0.0
C1287 C 0.8306 0.13148 0.36958 0.0
C1288 C 0.68344 0.16807 0.41392 0.0
C1289 C 0.70391 0.16639 0.40822 0.0
C1290 C 0.74677 0.13264 0.41719 0.0
C1291 C 0.79797 0.14702 0.3732 0.0
C1292 C 0.776 0.14575 0.37846 0.0
C1293 C 0.71294 0.14772 0.40472 0.0
C1294 C 0.73455 0.14628 0.39456 0.0
H1295 H 0.83453 0.18176 0.36801 0.0
H1296 H 0.79863 0.17911 0.37218 0.0
H1297 H 0.77639 0.12224 0.42854 0.0
H1298 H 0.67154 0.11909 0.41687 0.0
H1299 H 0.70754 0.11611 0.40695 0.0
C1300 C 0.13408 0.33098 0.61969 0.0
C1301 C 0.15274 0.34023 0.6194 0.0
C1302 C 0.1326 0.31029 0.62227 0.0
C1303 C 0.16175 0.26419 0.6058 0.0
H1304 H 0.12485 0.24121 0.692 0.0
C1305 C 0.16989 0.18367 0.66308 0.0
C1306 C 0.15274 0.17196 0.66562 0.0
C1307 C 0.16853 0.20415 0.6577 0.0
C1308 C 0.13508 0.24736 0.66741 0.0
H1309 H 0.18442 0.33515 0.61999 0.0
H1310 H 0.18191 0.29929 0.62428 0.0
H1311 H 0.12466 0.27694 0.67877 0.0
H1312 H 0.12065 0.17259 0.66662 0.0
H1313 H 0.11822 0.20855 0.65711 0.0
H1314 H 0.17233 0.23478 0.59465 0.0
C1315 C 0.16838 0.30784 0.62237 0.0
C1316 C 0.13494 0.26785 0.65973 0.0
C1317 C 0.16984 0.32843 0.62009 0.0
C1318 C 0.13413 0.18127 0.6648 0.0
C1319 C 0.13275 0.20186 0.65936 0.0
C1320 C 0.16189 0.24379 0.61346 0.0
C1321 C 0.14976 0.29848 0.62413 0.0
C1322 C 0.14853 0.27655 0.62937 0.0
C1323 C 0.14996 0.21348 0.65462 0.0
C1324 C 0.14882 0.23513 0.64496 0.0
H1325 H 0.12064 0.33973 0.61926 0.0
H1326 H 0.11804 0.30355 0.62306 0.0
H1327 H 0.17214 0.2703 0.58148 0.0
H1328 H 0.18444 0.17694 0.66402 0.0
H1329 H 0.18209 0.21267 0.65536 0.0
C1330 C 0.32891 0.84328 0.42336 0.0
C1331 C 0.3409 0.86026 0.42353 0.0
C1332 C 0.30833 0.84488 0.42036 0.0
C1333 C 0.26901 0.87831 0.37977 0.0
H1334 H 0.23493 0.84129 0.44319 0.0
C1335 C 0.18231 0.87894 0.37027 0.0
C1336 C 0.17311 0.86029 0.36832 0.0
C1337 C 0.20287 0.88044 0.37669 0.0
C1338 C 0.24424 0.85164 0.4249 0.0
H1339 H 0.34073 0.8923 0.42228 0.0
H1340 H 0.30457 0.89515 0.41738 0.0
H1341 H 0.27031 0.84155 0.45893 0.0
H1342 H 0.17829 0.82867 0.36869 0.0
H1343 H 0.21397 0.83125 0.37924 0.0
H1344 H 0.24277 0.88828 0.34557 0.0
C1345 C 0.31115 0.88057 0.41903 0.0
C1346 C 0.26455 0.8518 0.43399 0.0
C1347 C 0.33183 0.87896 0.42225 0.0
C1348 C 0.18493 0.84324 0.3705 0.0
C1349 C 0.20537 0.84473 0.37694 0.0
C1350 C 0.24861 0.87818 0.37074 0.0
C1351 C 0.29916 0.86352 0.41742 0.0
C1352 C 0.27728 0.86486 0.41095 0.0
C1353 C 0.21455 0.86332 0.38135 0.0
C1354 C 0.23605 0.86455 0.39255 0.0
H1355 H 0.33549 0.82867 0.42422 0.0
H1356 H 0.29965 0.83142 0.41867 0.0
H1357 H 0.2784 0.88845 0.3611 0.0
H1358 H 0.17355 0.89234 0.36873 0.0
H1359 H 0.20949 0.89498 0.37989 0.0
C1360 C 0.18899 0.11014 0.81002 0.0
C1361 C 0.19237 0.10807 0.763 0.0
C1362 C 0.20455 0.10872 0.8412 0.0
C1363 C 0.2586 0.11471 0.85125 0.0
H1364 H 0.25175 0.08683 0.96529 0.0
C1365 C 0.32353 0.10652 0.97742 0.0
C1366 C 0.31962 0.10745 0.02436 0.0
C1367 C 0.30812 0.10535 0.94579 0.0
C1368 C 0.25388 0.09492 0.93395 0.0
H1369 H 0.215 0.10274 0.71219 0.0
H1370 H 0.24234 0.10045 0.7668 0.0
H1371 H 0.22505 0.08686 0.90944 0.0
H1372 H 0.29617 0.10768 0.07465 0.0
H1373 H 0.26915 0.10612 0.01942 0.0
H1374 H 0.28714 0.12326 0.8759 0.0
C1375 C 0.22751 0.10318 0.77938 0.0
C1376 C 0.23856 0.09485 0.90174 0.0
C1377 C 0.21182 0.10438 0.74807 0.0
C1378 C 0.29977 0.10687 0.03883 0.0
C1379 C 0.28425 0.1059 1.00701 0.0
C1380 C 0.27385 0.11493 0.88357 0.0
C1381 C 0.22407 0.10538 0.82639 0.0
C1382 C 0.2407 0.10477 0.85996 0.0
C1383 C 0.28819 0.10532 0.95991 0.0
C1384 C 0.27177 0.10503 0.92547 0.0
H1385 H 0.17425 0.11301 0.82299 0.0
H1386 H 0.20134 0.11073 0.87697 0.0
H1387 H 0.26065 0.12279 0.81984 0.0
H1388 H 0.33858 0.10677 0.9648 0.0
H1389 H 0.31192 0.10442 0.91011 0.0
C1390 C 0.10971 0.68807 0.06172 0.0
C1391 C 0.10856 0.69166 1.01469 0.0
C1392 C 0.10858 0.70361 0.09307 0.0
C1393 C 0.09458 0.75696 0.10535 0.0
H1394 H 0.12668 0.75322 0.21423 0.0
C1395 C 0.10889 0.82356 0.22575 0.0
C1396 C 0.10866 0.82016 0.27295 0.0
C1397 C 0.10763 0.80784 0.19487 0.0
C1398 C 0.11744 0.75442 0.1843 0.0
H1399 H 0.10516 0.71458 0.96396 0.0
H1400 H 0.10372 0.74184 1.01859 0.0
H1401 H 0.12722 0.72645 0.15891 0.0
H1402 H 0.10667 0.7974 0.3245 0.0
H1403 H 0.1046 0.76984 0.27049 0.0
H1404 H 0.08526 0.78527 0.13054 0.0
C1405 C 0.10508 0.7269 0.03138 0.0
C1406 C 0.11769 0.739 0.15243 0.0
C1407 C 0.10599 0.71126 0.9999 0.0
C1408 C 0.10686 0.80057 0.28844 0.0
C1409 C 0.10582 0.78477 0.25746 0.0
C1410 C 0.09448 0.77249 0.13707 0.0
C1411 C 0.10653 0.72333 0.07851 0.0
C1412 C 0.10624 0.73997 0.11243 0.0
C1413 C 0.10628 0.7882 0.21023 0.0
C1414 C 0.1059 0.77142 0.17701 0.0
H1415 H 0.11149 0.67317 0.07456 0.0
H1416 H 0.10926 0.70006 0.1289 0.0
H1417 H 0.0853 0.75823 0.07553 0.0
H1418 H 0.11011 0.83844 0.21245 0.0
H1419 H 0.10821 0.81106 0.15885 0.0
C1420 C 0.68943 0.90279 0.97648 0.0
C1421 C 0.69278 0.904 0.02364 0.0
C1422 C 0.70513 0.90411 0.94556 0.0
C1423 C 0.75859 0.89549 0.93523 0.0
H1424 H 0.7541 0.92638 0.82477 0.0
C1425 C 0.82452 0.90234 0.81144 0.0
C1426 C 0.82087 0.9031 0.76441 0.0
C1427 C 0.80904 0.90369 0.84284 0.0
C1428 C 0.75555 0.91743 0.85506 0.0
H1429 H 0.71545 0.90768 0.07504 0.0
H1430 H 0.74303 0.90969 0.02084 0.0
H1431 H 0.72718 0.92669 0.88021 0.0
H1432 H 0.79785 0.90604 0.71368 0.0
H1433 H 0.7706 0.90778 0.76847 0.0
H1434 H 0.78657 0.88565 0.90985 0.0
C1435 C 0.72812 0.90778 1.00797 0.0
C1436 C 0.74012 0.91771 0.88703 0.0
C1437 C 0.71231 0.90674 0.03902 0.0
C1438 C 0.80122 0.9055 0.74963 0.0
C1439 C 0.78559 0.90659 0.7812 0.0
C1440 C 0.77391 0.89501 0.90308 0.0
C1441 C 0.72471 0.90642 0.96082 0.0
C1442 C 0.74145 0.90675 0.92755 0.0
C1443 C 0.78926 0.90553 0.82837 0.0
C1444 C 0.7727 0.90601 0.86248 0.0
H1445 H 0.67464 0.90066 0.96322 0.0
H1446 H 0.70196 0.90278 0.90961 0.0
H1447 H 0.75996 0.88659 0.96565 0.0
H1448 H 0.83945 0.90069 0.82427 0.0
H1449 H 0.81268 0.90335 0.87865 0.0
C1450 C 0.90468 0.32209 0.06343 0.0
C1451 C 0.90372 0.31866 1.01626 0.0
C1452 C 0.90589 0.30638 0.0942 0.0
C1453 C 0.89383 0.25348 0.10613 0.0
H1454 H 0.92804 0.25616 0.21177 0.0
C1455 C 0.90134 0.18701 0.2276 0.0
C1456 C 0.90332 0.19049 0.27454 0.0
C1457 C 0.90246 0.20252 0.19632 0.0
C1458 C 0.91819 0.25524 0.18284 0.0
H1459 H 0.90346 0.29573 0.96471 0.0
H1460 H 0.90545 0.2682 1.01858 0.0
H1461 H 0.92832 0.28305 0.15647 0.0
H1462 H 0.9082 0.21325 0.32518 0.0
H1463 H 0.90968 0.24053 0.27063 0.0
H1464 H 0.8833 0.226 0.13272 0.0
C1465 C 0.90523 0.28318 0.03164 0.0
C1466 C 0.91842 0.27066 0.15095 0.0
C1467 C 0.90422 0.29898 1.00071 0.0
C1468 C 0.9067 0.21 0.28931 0.0
C1469 C 0.90763 0.22564 0.25789 0.0
C1470 C 0.89347 0.23816 0.13816 0.0
C1471 C 0.90599 0.28669 0.07884 0.0
C1472 C 0.90625 0.26998 0.11213 0.0
C1473 C 0.90535 0.22214 0.21087 0.0
C1474 C 0.90568 0.23874 0.17701 0.0
H1475 H 0.90429 0.33699 0.07688 0.0
H1476 H 0.90622 0.30967 0.13022 0.0
H1477 H 0.884 0.25261 0.07715 0.0
H1478 H 0.89886 0.17222 0.2147 0.0
H1479 H 0.90112 0.19903 0.16055 0.0
C1480 C 0.32408 0.40494 0.31059 0.0
C1481 C 0.32038 0.40452 0.2635 0.0
C1482 C 0.30851 0.40619 0.34191 0.0
C1483 C 0.25541 0.39499 0.35458 0.0
H1484 H 0.25893 0.42815 0.46191 0.0
C1485 C 0.18921 0.40245 0.47721 0.0
C1486 C 0.19277 0.40393 0.52421 0.0
C1487 C 0.20473 0.40365 0.44585 0.0
C1488 C 0.25777 0.41858 0.4325 0.0
H1489 H 0.2972 0.40535 0.21264 0.0
H1490 H 0.26992 0.40739 0.26745 0.0
H1491 H 0.28573 0.42846 0.40611 0.0
H1492 H 0.21567 0.40807 0.57486 0.0
H1493 H 0.24297 0.40967 0.5201 0.0
H1494 H 0.22779 0.38467 0.38113 0.0
C1495 C 0.28498 0.40671 0.28003 0.0
C1496 C 0.27314 0.41884 0.40033 0.0
C1497 C 0.30062 0.40567 0.24858 0.0
C1498 C 0.21236 0.40695 0.53895 0.0
C1499 C 0.22801 0.40794 0.50742 0.0
C1500 C 0.24015 0.39459 0.38687 0.0
C1501 C 0.28873 0.40686 0.32714 0.0
C1502 C 0.27214 0.40707 0.36088 0.0
C1503 C 0.22443 0.40612 0.46033 0.0
C1504 C 0.24102 0.40644 0.42629 0.0
H1505 H 0.33907 0.40411 0.32351 0.0
H1506 H 0.31198 0.40608 0.37784 0.0
H1507 H 0.2543 0.38545 0.3251 0.0
H1508 H 0.17435 0.40031 0.46435 0.0
H1509 H 0.20116 0.4027 0.41005 0.0
C1510 C 0.40505 0.68856 0.72658 0.0
C1511 C 0.4055 0.69196 0.77378 0.0
C1512 C 0.40635 0.70426 0.69579 0.0
C1513 C 0.39743 0.7579 0.68618 0.0
H1514 H 0.42809 0.75322 0.57516 0.0
C1515 C 0.40557 0.82384 0.56318 0.0
C1516 C 0.40541 0.82013 0.51612 0.0
C1517 C 0.40678 0.80832 0.59443 0.0
C1518 C 0.41924 0.75473 0.60567 0.0
H1519 H 0.40804 0.71468 0.82544 0.0
H1520 H 0.41029 0.7422 0.77156 0.0
H1521 H 0.42825 0.72627 0.63026 0.0
H1522 H 0.40677 0.79705 0.46513 0.0
H1523 H 0.40851 0.76982 0.5197 0.0
H1524 H 0.38805 0.7861 0.66145 0.0
C1525 C 0.40879 0.7273 0.75846 0.0
C1526 C 0.41939 0.73926 0.63741 0.0
C1527 C 0.40764 0.71151 0.78937 0.0
C1528 C 0.40692 0.80044 0.5011 0.0
C1529 C 0.40799 0.78483 0.5325 0.0
C1530 C 0.39717 0.7733 0.65435 0.0
C1531 C 0.40804 0.72388 0.71123 0.0
C1532 C 0.40847 0.74063 0.67809 0.0
C1533 C 0.40772 0.78854 0.5797 0.0
C1534 C 0.40807 0.77198 0.61358 0.0
H1535 H 0.40359 0.67371 0.71321 0.0
H1536 H 0.40554 0.70104 0.65978 0.0
H1537 H 0.38857 0.75935 0.71669 0.0
H1538 H 0.40478 0.83881 0.57611 0.0
H1539 H 0.40705 0.81192 0.63028 0.0
C1540 C 0.69015 0.61094 0.31017 0.0
C1541 C 0.69326 0.60804 0.26329 0.0
C1542 C 0.70577 0.60944 0.34115 0.0
C1543 C 0.76 0.61355 0.35001 0.0
H1544 H 0.7524 0.58752 0.46609 0.0
C1545 C 0.82476 0.60494 0.47651 0.0
C1546 C 0.82091 0.60678 0.52333 0.0
C1547 C 0.8093 0.6038 0.44501 0.0
C1548 C 0.75475 0.59509 0.43414 0.0
H1549 H 0.7155 0.6012 0.21251 0.0
H1550 H 0.74296 0.59877 0.26679 0.0
H1551 H 0.72561 0.58772 0.41048 0.0
H1552 H 0.79751 0.60864 0.57358 0.0
H1553 H 0.77042 0.60712 0.51853 0.0
H1554 H 0.78888 0.62142 0.37381 0.0
C1555 C 0.72828 0.60221 0.2794 0.0
C1556 C 0.73938 0.59512 0.40209 0.0
C1557 C 0.71252 0.6035 0.2483 0.0
C1558 C 0.80105 0.60711 0.53785 0.0
C1559 C 0.7855 0.60617 0.50616 0.0
C1560 C 0.77531 0.61368 0.38217 0.0
C1561 C 0.72508 0.60518 0.32626 0.0
C1562 C 0.74177 0.60439 0.35962 0.0
C1563 C 0.7894 0.60469 0.45914 0.0
C1564 C 0.77295 0.60445 0.4248 0.0
H1565 H 0.67559 0.61454 0.32319 0.0
H1566 H 0.70277 0.61209 0.3768 0.0
H1567 H 0.76227 0.62112 0.31801 0.0
H1568 H 0.83981 0.60446 0.46391 0.0
H1569 H 0.81304 0.60218 0.40942 0.0
C1570 C 0.60812 0.18836 0.56027 0.0
C1571 C 0.60756 0.192 0.51322 0.0
C1572 C 0.60694 0.20385 0.59168 0.0
C1573 C 0.59413 0.25756 0.60369 0.0
H1574 H 0.62432 0.25253 0.71516 0.0
C1575 C 0.60918 0.32334 0.72576 0.0
C1576 C 0.60769 0.32003 0.77289 0.0
C1577 C 0.60782 0.30768 0.69477 0.0
C1578 C 0.6156 0.25408 0.68448 0.0
H1579 H 0.60515 0.21503 0.46248 0.0
H1580 H 0.60369 0.24227 0.51726 0.0
H1581 H 0.625 0.22595 0.65935 0.0
H1582 H 0.60349 0.29743 0.82414 0.0
H1583 H 0.60141 0.26992 0.76985 0.0
H1584 H 0.5853 0.28608 0.62861 0.0
C1585 C 0.6046 0.22729 0.53001 0.0
C1586 C 0.61593 0.23877 0.65231 0.0
C1587 C 0.60552 0.21166 0.49843 0.0
C1588 C 0.60465 0.30055 0.78815 0.0
C1589 C 0.60357 0.28478 0.75703 0.0
C1590 C 0.594 0.27298 0.63568 0.0
C1591 C 0.60547 0.22363 0.57722 0.0
C1592 C 0.60516 0.2402 0.61137 0.0
C1593 C 0.60519 0.28816 0.70991 0.0
C1594 C 0.60472 0.27144 0.67653 0.0
H1595 H 0.60949 0.17344 0.57313 0.0
H1596 H 0.60712 0.20021 0.62748 0.0
H1597 H 0.58536 0.2592 0.57315 0.0
H1598 H 0.61153 0.3381 0.71256 0.0
H1599 H 0.60935 0.31084 0.65886 0.0
C1600 C 0.35765 0.08946 0.44718 0.0
C1601 C 0.35875 0.10648 0.41987 0.0
C1602 C 0.36084 0.09061 0.49417 0.0
C1603 C 0.38225 0.12348 0.58371 0.0
H1604 H 0.3508 0.0911 0.66513 0.0
C1605 C 0.38166 0.13615 0.77806 0.0
C1606 C 0.3827 0.11935 0.80619 0.0
C1607 C 0.37865 0.13424 0.7312 0.0
C1608 C 0.35984 0.10011 0.64285 0.0
H1609 H 0.36375 0.13816 0.42095 0.0
H1610 H 0.36902 0.14026 0.5026 0.0
H1611 H 0.34592 0.08841 0.58322 0.0
H1612 H 0.38126 0.08727 0.80639 0.0
H1613 H 0.37572 0.084 0.72478 0.0
H1614 H 0.39594 0.13538 0.64345 0.0
C1615 C 0.36619 0.12587 0.48774 0.0
C1616 C 0.35709 0.09854 0.59577 0.0
C1617 C 0.36314 0.12469 0.44078 0.0
C1618 C 0.38028 0.10058 0.78608 0.0
C1619 C 0.37715 0.09869 0.73919 0.0
C1620 C 0.38489 0.12515 0.63074 0.0
C1621 C 0.36509 0.10886 0.5152 0.0
C1622 C 0.36822 0.11024 0.56547 0.0
C1623 C 0.37646 0.11549 0.71109 0.0
C1624 C 0.37369 0.11352 0.66095 0.0
H1625 H 0.35451 0.07517 0.43212 0.0
H1626 H 0.36019 0.07713 0.51392 0.0
H1627 H 0.39141 0.13247 0.56164 0.0
H1628 H 0.38301 0.15087 0.79226 0.0
H1629 H 0.37784 0.14752 0.71073 0.0
C1630 C 0.11687 0.67081 0.58903 0.0
C1631 C 0.11063 0.6555 0.61807 0.0
C1632 C 0.11827 0.66776 0.54211 0.0
C1633 C 0.10049 0.63495 0.44967 0.0
H1634 H 0.14462 0.65734 0.38267 0.0
C1635 C 0.11627 0.6147 0.2621 0.0
C1636 C 0.12229 0.62997 0.23268 0.0
C1637 C 0.11473 0.61797 0.30892 0.0
C1638 C 0.13207 0.65117 0.40075 0.0
H1639 H 0.10126 0.62482 0.62024 0.0
H1640 H 0.10371 0.61948 0.53844 0.0
H1641 H 0.14228 0.66257 0.46449 0.0
H1642 H 0.13115 0.66079 0.22979 0.0
H1643 H 0.12855 0.66647 0.31147 0.0
H1644 H 0.09032 0.62351 0.38593 0.0
C1645 C 0.10724 0.63398 0.55192 0.0
C1646 C 0.13073 0.65417 0.44772 0.0
C1647 C 0.10583 0.63703 0.59888 0.0
C1648 C 0.12675 0.64861 0.25142 0.0
C1649 C 0.12525 0.65187 0.2983 0.0
C1650 C 0.10185 0.63194 0.40271 0.0
C1651 C 0.11347 0.6493 0.5229 0.0
C1652 C 0.11492 0.64609 0.47283 0.0
C1653 C 0.11921 0.63659 0.32766 0.0
C1654 C 0.11767 0.63999 0.37763 0.0
H1655 H 0.12035 0.68532 0.60246 0.0
H1656 H 0.12281 0.68 0.52078 0.0
H1657 H 0.08793 0.62878 0.46772 0.0
H1658 H 0.11305 0.60006 0.24907 0.0
H1659 H 0.11035 0.60577 0.33055 0.0
C1660 C 0.65281 0.88436 0.43889 0.0
C1661 C 0.65419 0.90309 0.41834 0.0
C1662 C 0.64988 0.88258 0.48584 0.0
C1663 C 0.655 0.91065 0.59393 0.0
H1664 H 0.6208 0.86955 0.64185 0.0
C1665 C 0.63218 0.90734 0.78384 0.0
C1666 C 0.63125 0.88862 0.80461 0.0
C1667 C 0.6352 0.9091 0.7369 0.0
C1668 C 0.63058 0.88098 0.62911 0.0
H1669 H 0.65298 0.93465 0.43126 0.0
H1670 H 0.64777 0.93157 0.51291 0.0
H1671 H 0.62527 0.87263 0.55996 0.0
H1672 H 0.63333 0.85707 0.79198 0.0
H1673 H 0.63852 0.86013 0.71032 0.0
H1674 H 0.66026 0.91903 0.66311 0.0
C1675 C 0.64936 0.91822 0.49289 0.0
C1676 C 0.63315 0.88275 0.58205 0.0
C1677 C 0.65232 0.91999 0.44597 0.0
C1678 C 0.63361 0.87172 0.77716 0.0
C1679 C 0.63659 0.87347 0.73024 0.0
C1680 C 0.6524 0.9089 0.64098 0.0
C1681 C 0.6482 0.89949 0.51356 0.0
C1682 C 0.6454 0.89761 0.56377 0.0
C1683 C 0.63733 0.89218 0.70941 0.0
C1684 C 0.64016 0.89403 0.65923 0.0
H1685 H 0.65446 0.87102 0.41883 0.0
H1686 H 0.64935 0.86791 0.50054 0.0
H1687 H 0.66481 0.92206 0.58124 0.0
H1688 H 0.63013 0.92068 0.80367 0.0
H1689 H 0.63541 0.92374 0.72202 0.0
C1690 C 0.89803 0.36358 0.253 0.0
C1691 C 0.8955 0.3829 0.23629 0.0
C1692 C 0.89999 0.36015 0.29972 0.0
C1693 C 0.91298 0.38479 0.40823 0.0
H1694 H 0.88406 0.34132 0.46288 0.0
C1695 C 0.90633 0.37551 0.60345 0.0
C1696 C 0.90653 0.35622 0.62139 0.0
C1697 C 0.90568 0.37864 0.55643 0.0
C1698 C 0.89249 0.35336 0.44818 0.0
H1699 H 0.8935 0.41379 0.25574 0.0
H1700 H 0.89676 0.40779 0.33709 0.0
H1701 H 0.88188 0.34682 0.38124 0.0
H1702 H 0.90618 0.32509 0.60327 0.0
H1703 H 0.90571 0.33053 0.52164 0.0
H1704 H 0.92368 0.39131 0.47506 0.0
C1705 C 0.8973 0.39528 0.31408 0.0
C1706 C 0.8912 0.35653 0.40127 0.0
C1707 C 0.89522 0.3987 0.26744 0.0
C1708 C 0.90631 0.34016 0.5909 0.0
C1709 C 0.90574 0.34329 0.54392 0.0
C1710 C 0.91435 0.38158 0.45512 0.0
C1711 C 0.89961 0.37596 0.33087 0.0
C1712 C 0.90136 0.37233 0.3807 0.0
C1713 C 0.90526 0.36256 0.52598 0.0
C1714 C 0.90407 0.36585 0.47582 0.0
H1715 H 0.89817 0.35106 0.23001 0.0
H1716 H 0.90193 0.34509 0.31143 0.0
H1717 H 0.92123 0.39694 0.39343 0.0
H1718 H 0.90669 0.38826 0.62575 0.0
H1719 H 0.90513 0.3937 0.54402 0.0
C1720 C 0.36518 0.3989 0.49844 0.0
C1721 C 0.38356 0.39233 0.48157 0.0
C1722 C 0.36204 0.40101 0.54528 0.0
C1723 C 0.38883 0.40632 0.65493 0.0
H1724 H 0.33887 0.38951 0.70735 0.0
C1725 C 0.37702 0.40041 0.84959 0.0
C1726 C 0.35844 0.40585 0.86739 0.0
C1727 C 0.38009 0.39928 0.80256 0.0
C1728 C 0.35283 0.39453 0.69328 0.0
H1729 H 0.41314 0.38319 0.50119 0.0
H1730 H 0.40754 0.38646 0.58257 0.0
H1731 H 0.34407 0.38671 0.62566 0.0
H1732 H 0.32849 0.41429 0.84898 0.0
H1733 H 0.33399 0.41292 0.76736 0.0
H1734 H 0.39759 0.41414 0.72251 0.0
C1735 C 0.39559 0.39016 0.55961 0.0
C1736 C 0.35581 0.39291 0.64632 0.0
C1737 C 0.39872 0.38804 0.51284 0.0
C1738 C 0.34308 0.4103 0.83674 0.0
C1739 C 0.34616 0.40923 0.78976 0.0
C1740 C 0.38583 0.40797 0.70188 0.0
C1741 C 0.3772 0.39665 0.57652 0.0
C1742 C 0.37388 0.39872 0.6265 0.0
C1743 C 0.36467 0.4036 0.77196 0.0
C1744 C 0.36781 0.40205 0.72177 0.0
H1745 H 0.3531 0.40219 0.47548 0.0
H1746 H 0.34776 0.40623 0.55699 0.0
H1747 H 0.40281 0.41124 0.64083 0.0
H1748 H 0.38929 0.39707 0.87198 0.0
H1749 H 0.39449 0.39469 0.79023 0.0
C1750 C 0.40961 0.67031 0.20062 0.0
C1751 C 0.4035 0.65578 0.16933 0.0
C1752 C 0.40805 0.66707 0.24744 0.0
C1753 C 0.40306 0.62727 0.33334 0.0
H1754 H 0.3856 0.67004 0.4116 0.0
C1755 C 0.38399 0.61477 0.52277 0.0
C1756 C 0.39002 0.62926 0.55423 0.0
C1757 C 0.38561 0.6181 0.47599 0.0
C1758 C 0.39072 0.65799 0.39035 0.0
H1759 H 0.39082 0.6264 0.1632 0.0
H1760 H 0.38814 0.62072 0.24482 0.0
H1761 H 0.38851 0.67551 0.33 0.0
H1762 H 0.40261 0.65866 0.56075 0.0
H1763 H 0.40541 0.66448 0.47917 0.0
H1764 H 0.40527 0.60975 0.39368 0.0
C1765 C 0.39438 0.63457 0.23309 0.0
C1766 C 0.39239 0.66113 0.34348 0.0
C1767 C 0.39593 0.63783 0.18621 0.0
C1768 C 0.39757 0.64726 0.53758 0.0
C1769 C 0.39918 0.6506 0.49074 0.0
C1770 C 0.40139 0.62413 0.38021 0.0
C1771 C 0.40037 0.64918 0.26434 0.0
C1772 C 0.39858 0.64581 0.31432 0.0
C1773 C 0.39329 0.63603 0.45931 0.0
C1774 C 0.39518 0.63944 0.40936 0.0
H1775 H 0.41585 0.68417 0.18896 0.0
H1776 H 0.41314 0.67851 0.27044 0.0
H1777 H 0.40818 0.61523 0.31209 0.0
H1778 H 0.37776 0.60088 0.53426 0.0
H1779 H 0.38058 0.60668 0.45287 0.0
C1780 C 0.65326 0.59185 0.84079 0.0
C1781 C 0.65483 0.60872 0.8686 0.0
C1782 C 0.65031 0.59366 0.79388 0.0
C1783 C 0.63357 0.62896 0.70505 0.0
H1784 H 0.66142 0.5934 0.62366 0.0
C1785 C 0.63385 0.6403 0.51 0.0
C1786 C 0.63192 0.62339 0.48239 0.0
C1787 C 0.63683 0.63854 0.55691 0.0
C1788 C 0.65336 0.60332 0.64588 0.0
H1789 H 0.65459 0.6408 0.86843 0.0
H1790 H 0.64948 0.64397 0.78675 0.0
H1791 H 0.66596 0.59032 0.7055 0.0
H1792 H 0.63157 0.5913 0.48303 0.0
H1793 H 0.63684 0.58824 0.56466 0.0
H1794 H 0.621 0.64199 0.64538 0.0
C1795 C 0.65024 0.62928 0.8013 0.0
C1796 C 0.65595 0.60154 0.69291 0.0
C1797 C 0.65317 0.62747 0.84824 0.0
C1798 C 0.63329 0.60466 0.50299 0.0
C1799 C 0.63629 0.6029 0.54992 0.0
C1800 C 0.631 0.63075 0.65801 0.0
C1801 C 0.64887 0.6124 0.7734 0.0
C1802 C 0.64608 0.61432 0.7232 0.0
C1803 C 0.63801 0.61982 0.57757 0.0
C1804 C 0.64085 0.61795 0.62775 0.0
H1805 H 0.65413 0.57716 0.85532 0.0
H1806 H 0.64896 0.58032 0.77372 0.0
H1807 H 0.62548 0.63887 0.72724 0.0
H1808 H 0.63323 0.65496 0.49531 0.0
H1809 H 0.63843 0.65189 0.57694 0.0
C1810 C 0.64018 0.37791 0.52664 0.0
C1811 C 0.62335 0.38103 0.55399 0.0
C1812 C 0.63833 0.37497 0.47971 0.0
C1813 C 0.60381 0.38342 0.38344 0.0
H1814 H 0.63727 0.34546 0.32124 0.0
C1815 C 0.5914 0.36146 0.19513 0.0
C1816 C 0.60822 0.35875 0.16754 0.0
C1817 C 0.59331 0.36437 0.24205 0.0
C1818 C 0.62796 0.35629 0.33795 0.0
H1819 H 0.59131 0.38348 0.55291 0.0
H1820 H 0.58806 0.37796 0.47138 0.0
H1821 H 0.64033 0.34974 0.40322 0.0
H1822 H 0.6403 0.35698 0.16806 0.0
H1823 H 0.64365 0.36233 0.24972 0.0
H1824 H 0.59141 0.38992 0.31818 0.0
C1825 C 0.60275 0.37801 0.48616 0.0
C1826 C 0.62972 0.35875 0.38506 0.0
C1827 C 0.6046 0.38093 0.5331 0.0
C1828 C 0.62703 0.35919 0.18813 0.0
C1829 C 0.62894 0.36203 0.2351 0.0
C1830 C 0.60204 0.38094 0.33636 0.0
C1831 C 0.6196 0.37508 0.45874 0.0
C1832 C 0.61766 0.37235 0.4085 0.0
C1833 C 0.6121 0.36459 0.26275 0.0
C1834 C 0.61409 0.36734 0.31294 0.0
H1835 H 0.65484 0.37765 0.54152 0.0
H1836 H 0.65166 0.37294 0.45975 0.0
H1837 H 0.59451 0.39428 0.4001 0.0
H1838 H 0.57669 0.36142 0.18044 0.0
H1839 H 0.58 0.36612 0.26224 0.0
C1840 C 0.8585 0.59048 0.94509 0.0
C1841 C 0.85918 0.60775 0.91854 0.0
C1842 C 0.8617 0.59133 0.9921 0.0
C1843 C 0.88277 0.62373 0.08259 0.0
H1844 H 0.85156 0.59067 0.16309 0.0
C1845 C 0.88253 0.63514 0.27716 0.0
C1846 C 0.88361 0.61816 0.30469 0.0
C1847 C 0.87942 0.63352 0.2303 0.0
C1848 C 0.86054 0.59987 0.14106 0.0
H1849 H 0.86341 0.63953 0.92098 0.0
H1850 H 0.86879 0.64107 1.00265 0.0
H1851 H 0.84662 0.58847 0.0811 0.0
H1852 H 0.88211 0.58609 0.30395 0.0
H1853 H 0.87644 0.58331 0.2223 0.0
H1854 H 0.89651 0.63528 0.14259 0.0
C1855 C 0.86625 0.62675 0.98716 0.0
C1856 C 0.85774 0.59858 0.09397 0.0
C1857 C 0.86314 0.62588 0.9402 0.0
C1858 C 0.88112 0.59952 0.28407 0.0
C1859 C 0.8779 0.59791 0.23717 0.0
C1860 C 0.88548 0.62508 0.12963 0.0
C1861 C 0.86558 0.6095 1.01383 0.0
C1862 C 0.86878 0.61054 0.06405 0.0
C1863 C 0.87719 0.61488 0.20963 0.0
C1864 C 0.87436 0.61322 0.1595 0.0
H1865 H 0.85569 0.57624 0.92945 0.0
H1866 H 0.86137 0.57768 1.01131 0.0
H1867 H 0.89184 0.6329 0.06073 0.0
H1868 H 0.88395 0.64976 0.29184 0.0
H1869 H 0.87859 0.64692 0.21027 0.0
C1870 C 0.6255 0.11378 0.76289 0.0
C1871 C 0.6227 0.12937 0.73191 0.0
C1872 C 0.62389 0.117 0.80975 0.0
C1873 C 0.62585 0.15649 0.89702 0.0
H1874 H 0.59961 0.11754 0.97274 0.0
C1875 C 0.60806 0.17126 0.08656 0.0
C1876 C 0.61008 0.15553 0.1175 0.0
C1877 C 0.60977 0.16806 0.03972 0.0
C1878 C 0.60722 0.12847 0.95225 0.0
H1879 H 0.61608 0.16065 0.7263 0.0
H1880 H 0.61304 0.16622 0.80802 0.0
H1881 H 0.60204 0.11209 0.89104 0.0
H1882 H 0.6155 0.124 0.12289 0.0
H1883 H 0.61893 0.1185 0.04134 0.0
H1884 H 0.63112 0.17284 0.95819 0.0
C1885 C 0.61665 0.15151 0.79602 0.0
C1886 C 0.60859 0.12534 0.9053 0.0
C1887 C 0.61818 0.14827 0.7491 0.0
C1888 C 0.61402 0.13652 0.10022 0.0
C1889 C 0.61574 0.13332 0.05332 0.0
C1890 C 0.62453 0.1596 0.94399 0.0
C1891 C 0.61948 0.13591 0.82698 0.0
C1892 C 0.61792 0.13932 0.87702 0.0
C1893 C 0.61359 0.14904 0.02238 0.0
C1894 C 0.61518 0.14564 0.9723 0.0
H1895 H 0.62877 0.09899 0.75093 0.0
H1896 H 0.62636 0.10468 0.83252 0.0
H1897 H 0.63342 0.16743 0.87645 0.0
H1898 H 0.60529 0.18616 0.09853 0.0
H1899 H 0.6078 0.18051 1.01706 0.0
C1900 C 0.14898 0.39402 0.28818 0.0
C1901 C 0.13019 0.38893 0.30536 0.0
C1902 C 0.15213 0.39582 0.24128 0.0
C1903 C 0.12554 0.40345 0.13227 0.0
H1904 H 0.17378 0.38287 0.07862 0.0
C1905 C 0.13665 0.39882 0.93714 0.0
C1906 C 0.15554 0.40339 0.91975 0.0
C1907 C 0.13356 0.39699 0.98405 0.0
C1908 C 0.16032 0.38892 0.09304 0.0
H1909 H 0.0999 0.38211 0.28629 0.0
H1910 H 0.10546 0.38493 0.20476 0.0
H1911 H 0.16853 0.38009 0.16032 0.0
H1912 H 0.18606 0.40924 0.93861 0.0
H1913 H 0.18058 0.40656 0.02009 0.0
H1914 H 0.11734 0.41235 0.06506 0.0
C1915 C 0.11776 0.38766 0.22753 0.0
C1916 C 0.15731 0.38732 0.14 0.0
C1917 C 0.11463 0.38581 0.27436 0.0
C1918 C 0.17125 0.40598 0.95063 0.0
C1919 C 0.16816 0.40417 0.99748 0.0
C1920 C 0.12856 0.40509 0.08533 0.0
C1921 C 0.13656 0.39267 0.2103 0.0
C1922 C 0.13987 0.39454 0.16027 0.0
C1923 C 0.14927 0.39967 1.01491 0.0
C1924 C 0.14599 0.39784 0.06501 0.0
H1925 H 0.16135 0.39638 0.31097 0.0
H1926 H 0.16676 0.39989 0.22933 0.0
H1927 H 0.11206 0.40946 0.14672 0.0
H1928 H 0.12414 0.39688 0.91453 0.0
H1929 H 0.11885 0.39328 0.99608 0.0
C1930 C 0.4095 0.8415 0.08884 0.0
C1931 C 0.4036 0.8561 0.12015 0.0
C1932 C 0.40796 0.84475 0.04202 0.0
C1933 C 0.40332 0.8846 0.9561 0.0
H1934 H 0.38552 0.84191 0.87795 0.0
C1935 C 0.38419 0.89715 0.76679 0.0
C1936 C 0.39017 0.88265 0.73528 0.0
C1937 C 0.38582 0.89382 0.81355 0.0
C1938 C 0.39074 0.85393 0.89918 0.0
H1939 H 0.39129 0.8856 0.12635 0.0
H1940 H 0.38862 0.89129 0.04474 0.0
H1941 H 0.38841 0.83643 0.95955 0.0
H1942 H 0.40266 0.85324 0.72871 0.0
H1943 H 0.40545 0.84741 0.81027 0.0
H1944 H 0.40563 0.9021 0.89573 0.0
C1945 C 0.3947 0.87738 0.05644 0.0
C1946 C 0.39239 0.85079 0.94605 0.0
C1947 C 0.39624 0.87412 0.10331 0.0
C1948 C 0.39766 0.86464 0.7519 0.0
C1949 C 0.39927 0.8613 0.79873 0.0
C1950 C 0.40166 0.88774 0.90924 0.0
C1951 C 0.40048 0.86271 0.02515 0.0
C1952 C 0.3987 0.86608 0.97517 0.0
C1953 C 0.39344 0.87588 0.83019 0.0
C1954 C 0.39532 0.87246 0.88013 0.0
H1955 H 0.41558 0.82758 0.10048 0.0
H1956 H 0.4129 0.83325 0.01901 0.0
H1957 H 0.40853 0.89662 0.97731 0.0
H1958 H 0.378 0.91104 0.75535 0.0
H1959 H 0.38084 0.90524 0.83671 0.0
C1960 C 0.86061 0.8838 0.34882 0.0
C1961 C 0.85941 0.90256 0.36941 0.0
C1962 C 0.86354 0.88196 0.30185 0.0
C1963 C 0.8588 0.91004 0.19376 0.0
H1964 H 0.89244 0.86852 0.14576 0.0
C1965 C 0.88172 0.90646 1.00388 0.0
C1966 C 0.88237 0.88773 0.98297 0.0
C1967 C 0.87871 0.90825 0.05083 0.0
C1968 C 0.88281 0.88007 0.15852 0.0
H1969 H 0.86093 0.9341 0.35651 0.0
H1970 H 0.86614 0.93091 0.27488 0.0
H1971 H 0.88796 0.87168 0.22765 0.0
H1972 H 0.8798 0.85621 0.99541 0.0
H1973 H 0.87464 0.85933 0.07708 0.0
H1974 H 0.85373 0.91847 0.12459 0.0
C1975 C 0.86441 0.91759 0.29487 0.0
C1976 C 0.88023 0.88188 0.20558 0.0
C1977 C 0.86144 0.91942 0.34179 0.0
C1978 C 0.87975 0.87086 1.01032 0.0
C1979 C 0.87678 0.87265 0.05726 0.0
C1980 C 0.86141 0.90825 0.1467 0.0
C1981 C 0.86539 0.89883 0.27415 0.0
C1982 C 0.86819 0.8969 0.22391 0.0
C1983 C 0.8763 0.89136 0.07821 0.0
C1984 C 0.87345 0.89324 0.12841 0.0
H1985 H 0.85883 0.87049 0.36885 0.0
H1986 H 0.86392 0.86728 0.28714 0.0
H1987 H 0.84914 0.92158 0.20645 0.0
H1988 H 0.88398 0.91978 0.98415 0.0
H1989 H 0.8787 0.92289 0.06581 0.0
C1990 C 0.89327 0.14685 0.03875 0.0
C1991 C 0.88881 0.12793 0.05585 0.0
C1992 C 0.89497 0.15006 0.99185 0.0
C1993 C 0.90353 0.1238 0.88261 0.0
H1994 H 0.88131 0.17125 0.82934 0.0
C1995 C 0.89852 0.13477 0.68752 0.0
C1996 C 0.9025 0.15376 0.67023 0.0
C1997 C 0.89678 0.13161 0.73443 0.0
C1998 C 0.88782 0.15802 0.84365 0.0
H1999 H 0.88303 0.09748 0.03663 0.0
H2000 H 0.88569 0.10312 0.95511 0.0
H2001 H 0.8787 0.1659 0.91103 0.0
H2002 H 0.90738 0.18441 0.68924 0.0
H2003 H 0.90482 0.17884 0.77072 0.0
H2004 H 0.91272 0.11594 0.8153 0.0
C2005 C 0.888 0.11549 0.97794 0.0
C2006 C 0.88631 0.15495 0.8906 0.0
C2007 C 0.88623 0.1123 0.02476 0.0
C2008 C 0.90458 0.16952 0.7012 0.0
C2009 C 0.90285 0.16637 0.74805 0.0
C2010 C 0.90507 0.12688 0.83567 0.0
C2011 C 0.89237 0.13442 0.96079 0.0
C2012 C 0.89413 0.13779 0.91075 0.0
C2013 C 0.89895 0.14737 0.76539 0.0
C2014 C 0.89722 0.14403 0.81548 0.0
H2015 H 0.8952 0.15927 0.0616 0.0
H2016 H 0.89855 0.16479 0.97996 0.0
H2017 H 0.91001 0.11056 0.89695 0.0
H2018 H 0.89699 0.12223 0.66484 0.0
H2019 H 0.89355 0.11681 0.74639 0.0
C2020 C 0.14893 0.11776 0.99884 0.0
C2021 C 0.13041 0.12375 0.98179 0.0
C2022 C 0.15207 0.11595 0.04573 0.0
C2023 C 0.12519 0.11026 0.15531 0.0
H2024 H 0.17484 0.12776 0.20793 0.0
C2025 C 0.13695 0.11487 0.3502 0.0
C2026 C 0.15549 0.10905 0.36744 0.0
C2027 C 0.13392 0.11674 0.30329 0.0
C2028 C 0.16096 0.12258 0.1938 0.0
H2029 H 0.10058 0.13223 1.00121 0.0
H2030 H 0.10615 0.12947 0.08266 0.0
H2031 H 0.16963 0.13065 0.12626 0.0
H2032 H 0.18548 0.101 0.34831 0.0
H2033 H 0.18007 0.10379 0.26683 0.0
H2034 H 0.11653 0.10216 0.22279 0.0
C2035 C 0.11824 0.12599 0.0598 0.0
C2036 C 0.15797 0.12424 0.14685 0.0
C2037 C 0.11511 0.12782 1.01297 0.0
C2038 C 0.17092 0.10525 0.33641 0.0
C2039 C 0.16789 0.10711 0.28956 0.0
C2040 C 0.12818 0.10859 0.20224 0.0
C2041 C 0.13675 0.12003 0.07688 0.0
C2042 C 0.14003 0.11812 0.12693 0.0
C2043 C 0.14934 0.11287 0.27228 0.0
C2044 C 0.14611 0.11473 0.22219 0.0
H2045 H 0.16112 0.11467 0.97596 0.0
H2046 H 0.16646 0.11113 0.05755 0.0
H2047 H 0.11131 0.10509 0.14117 0.0
H2048 H 0.12466 0.11775 0.37292 0.0
H2049 H 0.11949 0.12142 0.29136 0.0
C2050 C 0.11739 0.8746 0.68575 0.0
C2051 C 0.11029 0.85647 0.66875 0.0
C2052 C 0.11894 0.87784 0.73265 0.0
C2053 C 0.12182 0.85121 0.84275 0.0
H2054 H 0.10777 0.90221 0.8937 0.0
C2055 C 0.11658 0.86477 0.03709 0.0
C2056 C 0.12381 0.88289 0.05386 0.0
C2057 C 0.11494 0.86145 0.99023 0.0
C2058 C 0.11198 0.88794 0.88001 0.0
H2059 H 0.09879 0.82772 0.68822 0.0
H2060 H 0.10151 0.83335 0.76972 0.0
H2061 H 0.10487 0.89675 0.81208 0.0
H2062 H 0.13548 0.91153 0.034 0.0
H2063 H 0.13259 0.90576 0.9526 0.0
H2064 H 0.12892 0.8424 0.91071 0.0
C2065 C 0.10623 0.84496 0.7468 0.0
C2066 C 0.11031 0.8848 0.83313 0.0
C2067 C 0.10466 0.84173 0.69996 0.0
C2068 C 0.12949 0.89753 0.02246 0.0
C2069 C 0.12783 0.89423 0.97567 0.0
C2070 C 0.12348 0.85434 0.88964 0.0
C2071 C 0.11343 0.86304 0.76382 0.0
C2072 C 0.11522 0.8664 0.81383 0.0
C2073 C 0.12049 0.87616 0.95888 0.0
C2074 C 0.1186 0.87275 0.90892 0.0
H2075 H 0.12212 0.88619 0.6628 0.0
H2076 H 0.12481 0.89185 0.74445 0.0
H2077 H 0.12603 0.83694 0.82906 0.0
H2078 H 0.1118 0.85325 0.06018 0.0
H2079 H 0.10898 0.84746 0.97859 0.0
loop_
_geom_bond_atom_site_label_1
_geom_bond_atom_site_label_2
_geom_bond_distance
_geom_bond_site_symmetry_2
_ccdc_geom_bond_type
Tb0 C2 2.809 . S
Tb0 O20 2.484 . S
Tb0 O21 2.440 . S
Tb0 O22 2.658 . S
Tb0 O23 2.409 . S
Tb0 O24 2.378 . S
Tb0 O28 2.325 . S
Tb0 O31 2.341 . S
Tb1 C11 2.809 1_554 S
Tb1 O22 2.325 . S
Tb1 O25 2.341 . S
Tb1 O26 2.484 . S
Tb1 O27 2.440 . S
Tb1 O28 2.658 . S
Tb1 O29 2.409 . S
Tb1 O30 2.378 . S
C2 Tb0 2.809 . S
C2 C3 1.514 . S
C2 O20 1.248 . S
C2 O21 1.266 . S
C3 C2 1.514 . S
C3 C4 1.359 . S
C3 C8 1.348 . S
C4 C3 1.359 . S
C4 C5 1.380 . S
C4 H32 0.929 . S
C5 C4 1.380 . S
C5 C6 1.347 . S
C5 H33 0.931 . S
C6 C5 1.347 . S
C6 C7 1.369 . S
C7 C6 1.369 . S
C7 C8 1.408 . S
C7 H34 0.930 . S
C8 C3 1.348 . S
C8 C7 1.408 . S
C8 H35 0.930 . S
C9 O22 1.281 . S
C9 O23 1.254 . S
C10 O24 1.236 . S
C10 O25 1.266 . S
C11 Tb1 2.809 1_556 S
C11 C12 1.514 . S
C11 O26 1.248 1_556 S
C11 O27 1.266 1_556 S
C12 C11 1.514 . S
C12 C13 1.359 . S
C12 C17 1.348 . S
C13 C12 1.359 . S
C13 C14 1.380 . S
C13 H36 0.929 . S
C14 C13 1.380 . S
C14 C15 1.347 . S
C14 H37 0.931 . S
C15 C14 1.347 . S
C15 C16 1.369 . S
C16 C15 1.369 . S
C16 C17 1.408 . S
C16 H38 0.930 . S
C17 C12 1.348 . S
C17 C16 1.408 . S
C17 H39 0.930 . S
C18 O28 1.281 . S
C18 O29 1.254 . S
C19 O30 1.236 . S
C19 O31 1.266 . S
O20 Tb0 2.484 . S
O20 C2 1.248 . S
O21 Tb0 2.440 . S
O21 C2 1.266 . S
O22 Tb0 2.658 . S
O22 Tb1 2.325 . S
O22 C9 1.281 . S
O23 Tb0 2.409 . S
O23 C9 1.254 . S
O24 Tb0 2.378 . S
O24 C10 1.236 . S
O25 Tb1 2.341 . S
O25 C10 1.266 . S
O26 Tb1 2.484 . S
O26 C11 1.248 1_554 S
O27 Tb1 2.440 . S
O27 C11 1.266 1_554 S
O28 Tb0 2.325 . S
O28 Tb1 2.658 . S
O28 C18 1.281 . S
O29 Tb1 2.409 . S
O29 C18 1.254 . S
O30 Tb1 2.378 . S
O30 C19 1.236 . S
O31 Tb0 2.341 . S
O31 C19 1.266 . S
H32 C4 0.929 . S
H33 C5 0.931 . S
H34 C7 0.930 . S
H35 C8 0.930 . S
H36 C13 0.929 . S
H37 C14 0.931 . S
H38 C16 0.930 . S
H39 C17 0.930 . S
Tb40 C42 2.809 1_556 S
Tb40 O60 2.484 . S
Tb40 O61 2.440 . S
Tb40 O62 2.658 . S
Tb40 O63 2.409 . S
Tb40 O64 2.378 . S
Tb40 O68 2.325 . S
Tb40 O71 2.341 . S
Tb41 C51 2.809 . S
Tb41 O62 2.325 . S
Tb41 O65 2.341 . S
Tb41 O66 2.484 . S
Tb41 O67 2.440 . S
Tb41 O68 2.658 . S
Tb41 O69 2.409 . S
Tb41 O70 2.378 . S
C42 Tb40 2.809 1_554 S
C42 C43 1.514 . S
C42 O60 1.248 1_554 S
C42 O61 1.266 1_554 S
C43 C42 1.514 . S
C43 C44 1.359 . S
C43 C48 1.348 . S
C44 C43 1.359 . S
C44 C45 1.380 . S
C44 H72 0.929 . S
C45 C44 1.380 . S
C45 C46 1.347 . S
C45 H73 0.931 . S
C46 C45 1.347 . S
C46 C47 1.369 . S
C47 C46 1.369 . S
C47 C48 1.408 . S
C47 H74 0.930 . S
C48 C43 1.348 . S
C48 C47 1.408 . S
C48 H75 0.930 . S
C49 O62 1.281 . S
C49 O63 1.254 . S
C50 O64 1.236 . S
C50 O65 1.266 . S
C51 Tb41 2.809 . S
C51 C52 1.514 . S
C51 O66 1.248 . S
C51 O67 1.266 . S
C52 C51 1.514 . S
C52 C53 1.359 . S
C52 C57 1.348 . S
C53 C52 1.359 . S
C53 C54 1.380 . S
C53 H76 0.929 . S
C54 C53 1.380 . S
C54 C55 1.347 . S
C54 H77 0.931 . S
C55 C54 1.347 . S
C55 C56 1.369 . S
C56 C55 1.369 . S
C56 C57 1.408 . S
C56 H78 0.930 . S
C57 C52 1.348 . S
C57 C56 1.408 . S
C57 H79 0.930 . S
C58 O68 1.281 . S
C58 O69 1.254 . S
C59 O70 1.236 . S
C59 O71 1.266 . S
O60 Tb40 2.484 . S
O60 C42 1.248 1_556 S
O61 Tb40 2.440 . S
O61 C42 1.266 1_556 S
O62 Tb40 2.658 . S
O62 Tb41 2.325 . S
O62 C49 1.281 . S
O63 Tb40 2.409 . S
O63 C49 1.254 . S
O64 Tb40 2.378 . S
O64 C50 1.236 . S
O65 Tb41 2.341 . S
O65 C50 1.266 . S
O66 Tb41 2.484 . S
O66 C51 1.248 . S
O67 Tb41 2.440 . S
O67 C51 1.266 . S
O68 Tb40 2.325 . S
O68 Tb41 2.658 . S
O68 C58 1.281 . S
O69 Tb41 2.409 . S
O69 C58 1.254 . S
O70 Tb41 2.378 . S
O70 C59 1.236 . S
O71 Tb40 2.341 . S
O71 C59 1.266 . S
H72 C44 0.929 . S
H73 C45 0.931 . S
H74 C47 0.930 . S
H75 C48 0.930 . S
H76 C53 0.929 . S
H77 C54 0.931 . S
H78 C56 0.930 . S
H79 C57 0.930 . S
Tb80 C82 2.809 . S
Tb80 O100 2.484 . S
Tb80 O101 2.440 . S
Tb80 O102 2.658 . S
Tb80 O103 2.409 . S
Tb80 O104 2.378 . S
Tb80 O108 2.325 . S
Tb80 O111 2.341 . S
Tb81 C91 2.809 1_554 S
Tb81 O102 2.325 . S
Tb81 O105 2.341 . S
Tb81 O106 2.484 . S
Tb81 O107 2.440 . S
Tb81 O108 2.658 . S
Tb81 O109 2.409 . S
Tb81 O110 2.378 . S
C82 Tb80 2.809 . S
C82 C83 1.514 . S
C82 O100 1.248 . S
C82 O101 1.266 . S
C83 C82 1.514 . S
C83 C84 1.359 . S
C83 C88 1.348 . S
C84 C83 1.359 . S
C84 C85 1.380 . S
C84 H112 0.929 . S
C85 C84 1.380 . S
C85 C86 1.347 . S
C85 H113 0.931 . S
C86 C85 1.347 . S
C86 C87 1.369 . S
C87 C86 1.369 . S
C87 C88 1.408 . S
C87 H114 0.930 . S
C88 C83 1.348 . S
C88 C87 1.408 . S
C88 H115 0.930 . S
C89 O102 1.281 . S
C89 O103 1.254 . S
C90 O104 1.236 . S
C90 O105 1.266 . S
C91 Tb81 2.809 1_556 S
C91 C92 1.514 . S
C91 O106 1.248 1_556 S
C91 O107 1.266 1_556 S
C92 C91 1.514 . S
C92 C93 1.359 . S
C92 C97 1.348 . S
C93 C92 1.359 . S
C93 C94 1.380 . S
C93 H116 0.929 . S
C94 C93 1.380 . S
C94 C95 1.347 . S
C94 H117 0.931 . S
C95 C94 1.347 . S
C95 C96 1.369 . S
C96 C95 1.369 . S
C96 C97 1.408 . S
C96 H118 0.930 . S
C97 C92 1.348 . S
C97 C96 1.408 . S
C97 H119 0.930 . S
C98 O108 1.281 . S
C98 O109 1.254 . S
C99 O110 1.236 . S
C99 O111 1.266 . S
O100 Tb80 2.484 . S
O100 C82 1.248 . S
O101 Tb80 2.440 . S
O101 C82 1.266 . S
O102 Tb80 2.658 . S
O102 Tb81 2.325 . S
O102 C89 1.281 . S
O103 Tb80 2.409 . S
O103 C89 1.254 . S
O104 Tb80 2.378 . S
O104 C90 1.236 . S
O105 Tb81 2.341 . S
O105 C90 1.266 . S
O106 Tb81 2.484 . S
O106 C91 1.248 1_554 S
O107 Tb81 2.440 . S
O107 C91 1.266 1_554 S
O108 Tb80 2.325 . S
O108 Tb81 2.658 . S
O108 C98 1.281 . S
O109 Tb81 2.409 . S
O109 C98 1.254 . S
O110 Tb81 2.378 . S
O110 C99 1.236 . S
O111 Tb80 2.341 . S
O111 C99 1.266 . S
H112 C84 0.929 . S
H113 C85 0.931 . S
H114 C87 0.930 . S
H115 C88 0.930 . S
H116 C93 0.929 . S
H117 C94 0.931 . S
H118 C96 0.930 . S
H119 C97 0.930 . S
Tb120 C122 2.809 1_556 S
Tb120 O140 2.484 . S
Tb120 O141 2.440 . S
Tb120 O142 2.658 . S
Tb120 O143 2.409 . S
Tb120 O144 2.378 . S
Tb120 O148 2.325 . S
Tb120 O151 2.341 . S
Tb121 C131 2.809 . S
Tb121 O142 2.325 . S
Tb121 O145 2.341 . S
Tb121 O146 2.484 . S
Tb121 O147 2.440 . S
Tb121 O148 2.658 . S
Tb121 O149 2.409 . S
Tb121 O150 2.378 . S
C122 Tb120 2.809 1_554 S
C122 C123 1.514 . S
C122 O140 1.248 1_554 S
C122 O141 1.266 1_554 S
C123 C122 1.514 . S
C123 C124 1.359 . S
C123 C128 1.348 . S
C124 C123 1.359 . S
C124 C125 1.380 . S
C124 H152 0.929 . S
C125 C124 1.380 . S
C125 C126 1.347 . S
C125 H153 0.931 . S
C126 C125 1.347 . S
C126 C127 1.369 . S
C127 C126 1.369 . S
C127 C128 1.408 . S
C127 H154 0.930 . S
C128 C123 1.348 . S
C128 C127 1.408 . S
C128 H155 0.930 . S
C129 O142 1.281 . S
C129 O143 1.254 . S
C130 O144 1.236 . S
C130 O145 1.266 . S
C131 Tb121 2.809 . S
C131 C132 1.514 . S
C131 O146 1.248 . S
C131 O147 1.266 . S
C132 C131 1.514 . S
C132 C133 1.359 . S
C132 C137 1.348 . S
C133 C132 1.359 . S
C133 C134 1.380 . S
C133 H156 0.929 . S
C134 C133 1.380 . S
C134 C135 1.347 . S
C134 H157 0.931 . S
C135 C134 1.347 . S
C135 C136 1.369 . S
C136 C135 1.369 . S
C136 C137 1.408 . S
C136 H158 0.930 . S
C137 C132 1.348 . S
C137 C136 1.408 . S
C137 H159 0.930 . S
C138 O148 1.281 . S
C138 O149 1.254 . S
C139 O150 1.236 . S
C139 O151 1.266 . S
O140 Tb120 2.484 . S
O140 C122 1.248 1_556 S
O141 Tb120 2.440 . S
O141 C122 1.266 1_556 S
O142 Tb120 2.658 . S
O142 Tb121 2.325 . S
O142 C129 1.281 . S
O143 Tb120 2.409 . S
O143 C129 1.254 . S
O144 Tb120 2.378 . S
O144 C130 1.236 . S
O145 Tb121 2.341 . S
O145 C130 1.266 . S
O146 Tb121 2.484 . S
O146 C131 1.248 . S
O147 Tb121 2.440 . S
O147 C131 1.266 . S
O148 Tb120 2.325 . S
O148 Tb121 2.658 . S
O148 C138 1.281 . S
O149 Tb121 2.409 . S
O149 C138 1.254 . S
O150 Tb121 2.378 . S
O150 C139 1.236 . S
O151 Tb120 2.341 . S
O151 C139 1.266 . S
H152 C124 0.929 . S
H153 C125 0.931 . S
H154 C127 0.930 . S
H155 C128 0.930 . S
H156 C133 0.929 . S
H157 C134 0.931 . S
H158 C136 0.930 . S
H159 C137 0.930 . S
Tb160 C162 2.809 1_554 S
Tb160 O180 2.503 . S
Tb160 O181 2.440 1_554 S
Tb160 O182 2.658 . S
Tb160 O183 2.409 . S
Tb160 O184 2.378 . S
Tb160 O188 2.325 . S
Tb160 O191 2.341 . S
Tb161 C171 2.809 . S
Tb161 O182 2.325 . S
Tb161 O185 2.341 . S
Tb161 O186 2.484 . S
Tb161 O187 2.440 . S
Tb161 O188 2.658 . S
Tb161 O189 2.409 . S
Tb161 O190 2.378 . S
C162 Tb160 2.809 1_556 S
C162 C163 1.514 . S
C162 O180 1.237 1_556 S
C162 O181 1.266 . S
C163 C162 1.514 . S
C163 C164 1.359 . S
C163 C168 1.348 . S
C164 C163 1.359 . S
C164 C165 1.380 . S
C164 H192 0.929 . S
C165 C164 1.380 . S
C165 C166 1.347 . S
C165 H193 0.931 . S
C166 C165 1.347 . S
C166 C167 1.369 . S
C167 C166 1.369 . S
C167 C168 1.408 . S
C167 H194 0.930 . S
C168 C163 1.348 . S
C168 C167 1.408 . S
C168 H195 0.930 . S
C169 O182 1.281 . S
C169 O183 1.254 . S
C170 O184 1.236 . S
C170 O185 1.266 . S
C171 Tb161 2.809 . S
C171 C172 1.514 . S
C171 O186 1.248 . S
C171 O187 1.266 . S
C172 C171 1.514 . S
C172 C173 1.359 . S
C172 C177 1.348 . S
C173 C172 1.359 . S
C173 C174 1.380 . S
C173 H196 0.929 . S
C174 C173 1.380 . S
C174 C175 1.347 . S
C174 H197 0.931 . S
C175 C174 1.347 . S
C175 C176 1.369 . S
C176 C175 1.369 . S
C176 C177 1.408 . S
C176 H198 0.930 . S
C177 C172 1.348 . S
C177 C176 1.408 . S
C177 H199 0.930 . S
C178 O188 1.281 . S
C178 O189 1.254 . S
C179 O190 1.236 . S
C179 O191 1.266 . S
O180 Tb160 2.503 . S
O180 C162 1.237 1_554 S
O181 Tb160 2.440 1_556 S
O181 C162 1.266 . S
O182 Tb160 2.658 . S
O182 Tb161 2.325 . S
O182 C169 1.281 . S
O183 Tb160 2.409 . S
O183 C169 1.254 . S
O184 Tb160 2.378 . S
O184 C170 1.236 . S
O185 Tb161 2.341 . S
O185 C170 1.266 . S
O186 Tb161 2.484 . S
O186 C171 1.248 . S
O187 Tb161 2.440 . S
O187 C171 1.266 . S
O188 Tb160 2.325 . S
O188 Tb161 2.658 . S
O188 C178 1.281 . S
O189 Tb161 2.409 . S
O189 C178 1.254 . S
O190 Tb161 2.378 . S
O190 C179 1.236 . S
O191 Tb160 2.341 . S
O191 C179 1.266 . S
H192 C164 0.929 . S
H193 C165 0.931 . S
H194 C167 0.930 . S
H195 C168 0.930 . S
H196 C173 0.929 . S
H197 C174 0.931 . S
H198 C176 0.930 . S
H199 C177 0.930 . S
Tb200 C202 2.809 . S
Tb200 O220 2.484 . S
Tb200 O221 2.440 . S
Tb200 O222 2.658 . S
Tb200 O223 2.409 . S
Tb200 O224 2.378 . S
Tb200 O228 2.325 . S
Tb200 O231 2.341 . S
Tb201 C211 2.809 1_556 S
Tb201 O222 2.325 . S
Tb201 O225 2.341 . S
Tb201 O226 2.503 . S
Tb201 O227 2.440 1_556 S
Tb201 O228 2.658 . S
Tb201 O229 2.409 . S
Tb201 O230 2.378 . S
C202 Tb200 2.809 . S
C202 C203 1.514 . S
C202 O220 1.248 . S
C202 O221 1.266 . S
C203 C202 1.514 . S
C203 C204 1.359 . S
C203 C208 1.348 . S
C204 C203 1.359 . S
C204 C205 1.380 . S
C204 H232 0.929 . S
C205 C204 1.380 . S
C205 C206 1.347 . S
C205 H233 0.931 . S
C206 C205 1.347 . S
C206 C207 1.369 . S
C207 C206 1.369 . S
C207 C208 1.408 . S
C207 H234 0.930 . S
C208 C203 1.348 . S
C208 C207 1.408 . S
C208 H235 0.930 . S
C209 O222 1.281 . S
C209 O223 1.254 . S
C210 O224 1.236 . S
C210 O225 1.266 . S
C211 Tb201 2.809 1_554 S
C211 C212 1.514 . S
C211 O226 1.237 1_554 S
C211 O227 1.266 . S
C212 C211 1.514 . S
C212 C213 1.359 . S
C212 C217 1.348 . S
C213 C212 1.359 . S
C213 C214 1.380 . S
C213 H236 0.929 . S
C214 C213 1.380 . S
C214 C215 1.347 . S
C214 H237 0.931 . S
C215 C214 1.347 . S
C215 C216 1.369 . S
C216 C215 1.369 . S
C216 C217 1.408 . S
C216 H238 0.930 . S
C217 C212 1.348 . S
C217 C216 1.408 . S
C217 H239 0.930 . S
C218 O228 1.281 . S
C218 O229 1.254 . S
C219 O230 1.236 . S
C219 O231 1.266 . S
O220 Tb200 2.484 . S
O220 C202 1.248 . S
O221 Tb200 2.440 . S
O221 C202 1.266 . S
O222 Tb200 2.658 . S
O222 Tb201 2.325 . S
O222 C209 1.281 . S
O223 Tb200 2.409 . S
O223 C209 1.254 . S
O224 Tb200 2.378 . S
O224 C210 1.236 . S
O225 Tb201 2.341 . S
O225 C210 1.266 . S
O226 Tb201 2.503 . S
O226 C211 1.237 1_556 S
O227 Tb201 2.440 1_554 S
O227 C211 1.266 . S
O228 Tb200 2.325 . S
O228 Tb201 2.658 . S
O228 C218 1.281 . S
O229 Tb201 2.409 . S
O229 C218 1.254 . S
O230 Tb201 2.378 . S
O230 C219 1.236 . S
O231 Tb200 2.341 . S
O231 C219 1.266 . S
H232 C204 0.929 . S
H233 C205 0.931 . S
H234 C207 0.930 . S
H235 C208 0.930 . S
H236 C213 0.929 . S
H237 C214 0.931 . S
H238 C216 0.930 . S
H239 C217 0.930 . S
Tb240 C242 2.809 1_554 S
Tb240 O260 2.503 . S
Tb240 O261 2.440 1_554 S
Tb240 O262 2.658 . S
Tb240 O263 2.409 . S
Tb240 O264 2.378 . S
Tb240 O268 2.325 . S
Tb240 O271 2.341 . S
Tb241 C251 2.809 . S
Tb241 O262 2.325 . S
Tb241 O265 2.341 . S
Tb241 O266 2.484 . S
Tb241 O267 2.440 . S
Tb241 O268 2.658 . S
Tb241 O269 2.409 . S
Tb241 O270 2.378 . S
C242 Tb240 2.809 1_556 S
C242 C243 1.514 . S
C242 O260 1.237 1_556 S
C242 O261 1.266 . S
C243 C242 1.514 . S
C243 C244 1.359 . S
C243 C248 1.348 . S
C244 C243 1.359 . S
C244 C245 1.380 . S
C244 H272 0.929 . S
C245 C244 1.380 . S
C245 C246 1.347 . S
C245 H273 0.931 . S
C246 C245 1.347 . S
C246 C247 1.369 . S
C247 C246 1.369 . S
C247 C248 1.408 . S
C247 H274 0.930 . S
C248 C243 1.348 . S
C248 C247 1.408 . S
C248 H275 0.930 . S
C249 O262 1.281 . S
C249 O263 1.254 . S
C250 O264 1.236 . S
C250 O265 1.266 . S
C251 Tb241 2.809 . S
C251 C252 1.514 . S
C251 O266 1.248 . S
C251 O267 1.266 . S
C252 C251 1.514 . S
C252 C253 1.359 . S
C252 C257 1.348 . S
C253 C252 1.359 . S
C253 C254 1.380 . S
C253 H276 0.929 . S
C254 C253 1.380 . S
C254 C255 1.347 . S
C254 H277 0.931 . S
C255 C254 1.347 . S
C255 C256 1.369 . S
C256 C255 1.369 . S
C256 C257 1.408 . S
C256 H278 0.930 . S
C257 C252 1.348 . S
C257 C256 1.408 . S
C257 H279 0.930 . S
C258 O268 1.281 . S
C258 O269 1.254 . S
C259 O270 1.236 . S
C259 O271 1.266 . S
O260 Tb240 2.503 . S
O260 C242 1.237 1_554 S
O261 Tb240 2.440 1_556 S
O261 C242 1.266 . S
O262 Tb240 2.658 . S
O262 Tb241 2.325 . S
O262 C249 1.281 . S
O263 Tb240 2.409 . S
O263 C249 1.254 . S
O264 Tb240 2.378 . S
O264 C250 1.236 . S
O265 Tb241 2.341 . S
O265 C250 1.266 . S
O266 Tb241 2.484 . S
O266 C251 1.248 . S
O267 Tb241 2.440 . S
O267 C251 1.266 . S
O268 Tb240 2.325 . S
O268 Tb241 2.658 . S
O268 C258 1.281 . S
O269 Tb241 2.409 . S
O269 C258 1.254 . S
O270 Tb241 2.378 . S
O270 C259 1.236 . S
O271 Tb240 2.341 . S
O271 C259 1.266 . S
H272 C244 0.929 . S
H273 C245 0.931 . S
H274 C247 0.930 . S
H275 C248 0.930 . S
H276 C253 0.929 . S
H277 C254 0.931 . S
H278 C256 0.930 . S
H279 C257 0.930 . S
Tb280 C282 2.809 . S
Tb280 O300 2.484 . S
Tb280 O301 2.440 . S
Tb280 O302 2.658 . S
Tb280 O303 2.409 . S
Tb280 O304 2.378 . S
Tb280 O308 2.325 . S
Tb280 O311 2.341 . S
Tb281 C291 2.809 1_556 S
Tb281 O302 2.325 . S
Tb281 O305 2.341 . S
Tb281 O306 2.503 . S
Tb281 O307 2.440 1_556 S
Tb281 O308 2.658 . S
Tb281 O309 2.409 . S
Tb281 O310 2.378 . S
C282 Tb280 2.809 . S
C282 C283 1.514 . S
C282 O300 1.248 . S
C282 O301 1.266 . S
C283 C282 1.514 . S
C283 C284 1.359 . S
C283 C288 1.348 . S
C284 C283 1.359 . S
C284 C285 1.380 . S
C284 H312 0.929 . S
C285 C284 1.380 . S
C285 C286 1.347 . S
C285 H313 0.931 . S
C286 C285 1.347 . S
C286 C287 1.369 . S
C287 C286 1.369 . S
C287 C288 1.408 . S
C287 H314 0.930 . S
C288 C283 1.348 . S
C288 C287 1.408 . S
C288 H315 0.930 . S
C289 O302 1.281 . S
C289 O303 1.254 . S
C290 O304 1.236 . S
C290 O305 1.266 . S
C291 Tb281 2.809 1_554 S
C291 C292 1.514 . S
C291 O306 1.237 1_554 S
C291 O307 1.266 . S
C292 C291 1.514 . S
C292 C293 1.359 . S
C292 C297 1.348 . S
C293 C292 1.359 . S
C293 C294 1.380 . S
C293 H316 0.929 . S
C294 C293 1.380 . S
C294 C295 1.347 . S
C294 H317 0.931 . S
C295 C294 1.347 . S
C295 C296 1.369 . S
C296 C295 1.369 . S
C296 C297 1.408 . S
C296 H318 0.930 . S
C297 C292 1.348 . S
C297 C296 1.408 . S
C297 H319 0.930 . S
C298 O308 1.281 . S
C298 O309 1.254 . S
C299 O310 1.236 . S
C299 O311 1.266 . S
O300 Tb280 2.484 . S
O300 C282 1.248 . S
O301 Tb280 2.440 . S
O301 C282 1.266 . S
O302 Tb280 2.658 . S
O302 Tb281 2.325 . S
O302 C289 1.281 . S
O303 Tb280 2.409 . S
O303 C289 1.254 . S
O304 Tb280 2.378 . S
O304 C290 1.236 . S
O305 Tb281 2.341 . S
O305 C290 1.266 . S
O306 Tb281 2.503 . S
O306 C291 1.237 1_556 S
O307 Tb281 2.440 1_554 S
O307 C291 1.266 . S
O308 Tb280 2.325 . S
O308 Tb281 2.658 . S
O308 C298 1.281 . S
O309 Tb281 2.409 . S
O309 C298 1.254 . S
O310 Tb281 2.378 . S
O310 C299 1.236 . S
O311 Tb280 2.341 . S
O311 C299 1.266 . S
H312 C284 0.929 . S
H313 C285 0.931 . S
H314 C287 0.930 . S
H315 C288 0.930 . S
H316 C293 0.929 . S
H317 C294 0.931 . S
H318 C296 0.930 . S
H319 C297 0.930 . S
Tb320 C322 2.809 . S
Tb320 O340 2.484 . S
Tb320 O341 2.440 . S
Tb320 O342 2.658 . S
Tb320 O343 2.409 . S
Tb320 O344 2.378 . S
Tb320 O348 2.325 . S
Tb320 O351 2.341 . S
Tb321 C331 2.809 . S
Tb321 O342 2.325 . S
Tb321 O345 2.341 . S
Tb321 O346 2.484 . S
Tb321 O347 2.440 . S
Tb321 O348 2.658 . S
Tb321 O349 2.409 . S
Tb321 O350 2.378 . S
C322 Tb320 2.809 . S
C322 C323 1.514 . S
C322 O340 1.248 . S
C322 O341 1.266 . S
C323 C322 1.514 . S
C323 C324 1.359 . S
C323 C328 1.348 . S
C324 C323 1.359 . S
C324 C325 1.380 . S
C324 H352 0.929 . S
C325 C324 1.380 . S
C325 C326 1.347 . S
C325 H353 0.931 . S
C326 C325 1.347 . S
C326 C327 1.369 . S
C327 C326 1.369 . S
C327 C328 1.408 . S
C327 H354 0.930 . S
C328 C323 1.348 . S
C328 C327 1.408 . S
C328 H355 0.930 . S
C329 O342 1.281 . S
C329 O343 1.254 . S
C330 O344 1.236 . S
C330 O345 1.266 . S
C331 Tb321 2.809 . S
C331 C332 1.514 . S
C331 O346 1.248 . S
C331 O347 1.266 . S
C332 C331 1.514 . S
C332 C333 1.359 . S
C332 C337 1.348 . S
C333 C332 1.359 . S
C333 C334 1.380 . S
C333 H356 0.929 . S
C334 C333 1.380 . S
C334 C335 1.347 . S
C334 H357 0.931 . S
C335 C334 1.347 . S
C335 C336 1.369 . S
C336 C335 1.369 . S
C336 C337 1.408 . S
C336 H358 0.930 . S
C337 C332 1.348 . S
C337 C336 1.408 . S
C337 H359 0.930 . S
C338 O348 1.281 . S
C338 O349 1.254 . S
C339 O350 1.236 . S
C339 O351 1.266 . S
O340 Tb320 2.484 . S
O340 C322 1.248 . S
O341 Tb320 2.440 . S
O341 C322 1.266 . S
O342 Tb320 2.658 . S
O342 Tb321 2.325 . S
O342 C329 1.281 . S
O343 Tb320 2.409 . S
O343 C329 1.254 . S
O344 Tb320 2.378 . S
O344 C330 1.236 . S
O345 Tb321 2.341 . S
O345 C330 1.266 . S
O346 Tb321 2.484 . S
O346 C331 1.248 . S
O347 Tb321 2.440 . S
O347 C331 1.266 . S
O348 Tb320 2.325 . S
O348 Tb321 2.658 . S
O348 C338 1.281 . S
O349 Tb321 2.409 . S
O349 C338 1.254 . S
O350 Tb321 2.378 . S
O350 C339 1.236 . S
O351 Tb320 2.341 . S
O351 C339 1.266 . S
H352 C324 0.929 . S
H353 C325 0.931 . S
H354 C327 0.930 . S
H355 C328 0.930 . S
H356 C333 0.929 . S
H357 C334 0.931 . S
H358 C336 0.930 . S
H359 C337 0.930 . S
Tb360 C362 2.809 . S
Tb360 O380 2.484 . S
Tb360 O381 2.440 . S
Tb360 O382 2.658 . S
Tb360 O383 2.409 . S
Tb360 O384 2.378 . S
Tb360 O388 2.325 . S
Tb360 O391 2.341 . S
Tb361 C371 2.809 . S
Tb361 O382 2.325 . S
Tb361 O385 2.341 . S
Tb361 O386 2.484 . S
Tb361 O387 2.440 . S
Tb361 O388 2.658 . S
Tb361 O389 2.409 . S
Tb361 O390 2.378 . S
C362 Tb360 2.809 . S
C362 C363 1.514 . S
C362 O380 1.248 . S
C362 O381 1.266 . S
C363 C362 1.514 . S
C363 C364 1.359 . S
C363 C368 1.348 . S
C364 C363 1.359 . S
C364 C365 1.380 . S
C364 H392 0.929 . S
C365 C364 1.380 . S
C365 C366 1.347 . S
C365 H393 0.931 . S
C366 C365 1.347 . S
C366 C367 1.369 . S
C367 C366 1.369 . S
C367 C368 1.408 . S
C367 H394 0.930 . S
C368 C363 1.348 . S
C368 C367 1.408 . S
C368 H395 0.930 . S
C369 O382 1.281 . S
C369 O383 1.254 . S
C370 O384 1.236 . S
C370 O385 1.266 . S
C371 Tb361 2.809 . S
C371 C372 1.514 . S
C371 O386 1.248 . S
C371 O387 1.266 . S
C372 C371 1.514 . S
C372 C373 1.359 . S
C372 C377 1.348 . S
C373 C372 1.359 . S
C373 C374 1.380 . S
C373 H396 0.929 . S
C374 C373 1.380 . S
C374 C375 1.347 . S
C374 H397 0.931 . S
C375 C374 1.347 . S
C375 C376 1.369 . S
C376 C375 1.369 . S
C376 C377 1.408 . S
C376 H398 0.930 . S
C377 C372 1.348 . S
C377 C376 1.408 . S
C377 H399 0.930 . S
C378 O388 1.281 . S
C378 O389 1.254 . S
C379 O390 1.236 . S
C379 O391 1.266 . S
O380 Tb360 2.484 . S
O380 C362 1.248 . S
O381 Tb360 2.440 . S
O381 C362 1.266 . S
O382 Tb360 2.658 . S
O382 Tb361 2.325 . S
O382 C369 1.281 . S
O383 Tb360 2.409 . S
O383 C369 1.254 . S
O384 Tb360 2.378 . S
O384 C370 1.236 . S
O385 Tb361 2.341 . S
O385 C370 1.266 . S
O386 Tb361 2.484 . S
O386 C371 1.248 . S
O387 Tb361 2.440 . S
O387 C371 1.266 . S
O388 Tb360 2.325 . S
O388 Tb361 2.658 . S
O388 C378 1.281 . S
O389 Tb361 2.409 . S
O389 C378 1.254 . S
O390 Tb361 2.378 . S
O390 C379 1.236 . S
O391 Tb360 2.341 . S
O391 C379 1.266 . S
H392 C364 0.929 . S
H393 C365 0.931 . S
H394 C367 0.930 . S
H395 C368 0.930 . S
H396 C373 0.929 . S
H397 C374 0.931 . S
H398 C376 0.930 . S
H399 C377 0.930 . S
Tb400 C402 2.809 . S
Tb400 O420 2.484 . S
Tb400 O421 2.440 . S
Tb400 O422 2.658 . S
Tb400 O423 2.409 . S
Tb400 O424 2.378 . S
Tb400 O428 2.325 . S
Tb400 O431 2.341 . S
Tb401 C411 2.809 . S
Tb401 O422 2.325 . S
Tb401 O425 2.341 . S
Tb401 O426 2.484 . S
Tb401 O427 2.440 . S
Tb401 O428 2.658 . S
Tb401 O429 2.409 . S
Tb401 O430 2.378 . S
C402 Tb400 2.809 . S
C402 C403 1.514 . S
C402 O420 1.248 . S
C402 O421 1.266 . S
C403 C402 1.514 . S
C403 C404 1.359 . S
C403 C408 1.348 . S
C404 C403 1.359 . S
C404 C405 1.380 . S
C404 H432 0.929 . S
C405 C404 1.380 . S
C405 C406 1.347 . S
C405 H433 0.931 . S
C406 C405 1.347 . S
C406 C407 1.369 . S
C407 C406 1.369 . S
C407 C408 1.408 . S
C407 H434 0.930 . S
C408 C403 1.348 . S
C408 C407 1.408 . S
C408 H435 0.930 . S
C409 O422 1.281 . S
C409 O423 1.254 . S
C410 O424 1.236 . S
C410 O425 1.266 . S
C411 Tb401 2.809 . S
C411 C412 1.514 . S
C411 O426 1.248 . S
C411 O427 1.266 . S
C412 C411 1.514 . S
C412 C413 1.359 . S
C412 C417 1.348 . S
C413 C412 1.359 . S
C413 C414 1.380 . S
C413 H436 0.929 . S
C414 C413 1.380 . S
C414 C415 1.347 . S
C414 H437 0.931 . S
C415 C414 1.347 . S
C415 C416 1.369 . S
C416 C415 1.369 . S
C416 C417 1.408 . S
C416 H438 0.930 . S
C417 C412 1.348 . S
C417 C416 1.408 . S
C417 H439 0.930 . S
C418 O428 1.281 . S
C418 O429 1.254 . S
C419 O430 1.236 . S
C419 O431 1.266 . S
O420 Tb400 2.484 . S
O420 C402 1.248 . S
O421 Tb400 2.440 . S
O421 C402 1.266 . S
O422 Tb400 2.658 . S
O422 Tb401 2.325 . S
O422 C409 1.281 . S
O423 Tb400 2.409 . S
O423 C409 1.254 . S
O424 Tb400 2.378 . S
O424 C410 1.236 . S
O425 Tb401 2.341 . S
O425 C410 1.266 . S
O426 Tb401 2.484 . S
O426 C411 1.248 . S
O427 Tb401 2.440 . S
O427 C411 1.266 . S
O428 Tb400 2.325 . S
O428 Tb401 2.658 . S
O428 C418 1.281 . S
O429 Tb401 2.409 . S
O429 C418 1.254 . S
O430 Tb401 2.378 . S
O430 C419 1.236 . S
O431 Tb400 2.341 . S
O431 C419 1.266 . S
H432 C404 0.929 . S
H433 C405 0.931 . S
H434 C407 0.930 . S
H435 C408 0.930 . S
H436 C413 0.929 . S
H437 C414 0.931 . S
H438 C416 0.930 . S
H439 C417 0.930 . S
Tb440 C442 2.809 . S
Tb440 O460 2.484 . S
Tb440 O461 2.440 . S
Tb440 O462 2.658 . S
Tb440 O463 2.409 . S
Tb440 O464 2.378 . S
Tb440 O468 2.325 . S
Tb440 O471 2.341 . S
Tb441 C451 2.809 . S
Tb441 O462 2.325 . S
Tb441 O465 2.341 . S
Tb441 O466 2.484 . S
Tb441 O467 2.440 . S
Tb441 O468 2.658 . S
Tb441 O469 2.409 . S
Tb441 O470 2.378 . S
C442 Tb440 2.809 . S
C442 C443 1.514 . S
C442 O460 1.248 . S
C442 O461 1.266 . S
C443 C442 1.514 . S
C443 C444 1.359 . S
C443 C448 1.348 . S
C444 C443 1.359 . S
C444 C445 1.380 . S
C444 H472 0.929 . S
C445 C444 1.380 . S
C445 C446 1.347 . S
C445 H473 0.931 . S
C446 C445 1.347 . S
C446 C447 1.369 . S
C447 C446 1.369 . S
C447 C448 1.408 . S
C447 H474 0.930 . S
C448 C443 1.348 . S
C448 C447 1.408 . S
C448 H475 0.930 . S
C449 O462 1.281 . S
C449 O463 1.254 . S
C450 O464 1.236 . S
C450 O465 1.266 . S
C451 Tb441 2.809 . S
C451 C452 1.514 . S
C451 O466 1.248 . S
C451 O467 1.266 . S
C452 C451 1.514 . S
C452 C453 1.359 . S
C452 C457 1.348 . S
C453 C452 1.359 . S
C453 C454 1.380 . S
C453 H476 0.929 . S
C454 C453 1.380 . S
C454 C455 1.347 . S
C454 H477 0.931 . S
C455 C454 1.347 . S
C455 C456 1.369 . S
C456 C455 1.369 . S
C456 C457 1.408 . S
C456 H478 0.930 . S
C457 C452 1.348 . S
C457 C456 1.408 . S
C457 H479 0.930 . S
C458 O468 1.281 . S
C458 O469 1.254 . S
C459 O470 1.236 . S
C459 O471 1.266 . S
O460 Tb440 2.484 . S
O460 C442 1.248 . S
O461 Tb440 2.440 . S
O461 C442 1.266 . S
O462 Tb440 2.658 . S
O462 Tb441 2.325 . S
O462 C449 1.281 . S
O463 Tb440 2.409 . S
O463 C449 1.254 . S
O464 Tb440 2.378 . S
O464 C450 1.236 . S
O465 Tb441 2.341 . S
O465 C450 1.266 . S
O466 Tb441 2.484 . S
O466 C451 1.248 . S
O467 Tb441 2.440 . S
O467 C451 1.266 . S
O468 Tb440 2.325 . S
O468 Tb441 2.658 . S
O468 C458 1.281 . S
O469 Tb441 2.409 . S
O469 C458 1.254 . S
O470 Tb441 2.378 . S
O470 C459 1.236 . S
O471 Tb440 2.341 . S
O471 C459 1.266 . S
H472 C444 0.929 . S
H473 C445 0.931 . S
H474 C447 0.930 . S
H475 C448 0.930 . S
H476 C453 0.929 . S
H477 C454 0.931 . S
H478 C456 0.930 . S
H479 C457 0.930 . S
Tb480 C482 2.809 . S
Tb480 O500 2.484 . S
Tb480 O501 2.440 . S
Tb480 O502 2.658 . S
Tb480 O503 2.409 . S
Tb480 O504 2.378 . S
Tb480 O508 2.325 . S
Tb480 O511 2.341 . S
Tb481 C491 2.809 . S
Tb481 O502 2.325 . S
Tb481 O505 2.341 . S
Tb481 O506 2.484 . S
Tb481 O507 2.440 . S
Tb481 O508 2.658 . S
Tb481 O509 2.409 . S
Tb481 O510 2.378 . S
C482 Tb480 2.809 . S
C482 C483 1.514 . S
C482 O500 1.248 . S
C482 O501 1.266 . S
C483 C482 1.514 . S
C483 C484 1.359 . S
C483 C488 1.348 . S
C484 C483 1.359 . S
C484 C485 1.380 . S
C484 H512 0.929 . S
C485 C484 1.380 . S
C485 C486 1.347 . S
C485 H513 0.931 . S
C486 C485 1.347 . S
C486 C487 1.369 . S
C487 C486 1.369 . S
C487 C488 1.408 . S
C487 H514 0.930 . S
C488 C483 1.348 . S
C488 C487 1.408 . S
C488 H515 0.930 . S
C489 O502 1.281 . S
C489 O503 1.254 . S
C490 O504 1.236 . S
C490 O505 1.266 . S
C491 Tb481 2.809 . S
C491 C492 1.514 . S
C491 O506 1.248 . S
C491 O507 1.266 . S
C492 C491 1.514 . S
C492 C493 1.359 . S
C492 C497 1.348 . S
C493 C492 1.359 . S
C493 C494 1.380 . S
C493 H516 0.929 . S
C494 C493 1.380 . S
C494 C495 1.347 . S
C494 H517 0.931 . S
C495 C494 1.347 . S
C495 C496 1.369 . S
C496 C495 1.369 . S
C496 C497 1.408 . S
C496 H518 0.930 . S
C497 C492 1.348 . S
C497 C496 1.408 . S
C497 H519 0.930 . S
C498 O508 1.281 . S
C498 O509 1.254 . S
C499 O510 1.236 . S
C499 O511 1.266 . S
O500 Tb480 2.484 . S
O500 C482 1.248 . S
O501 Tb480 2.440 . S
O501 C482 1.266 . S
O502 Tb480 2.658 . S
O502 Tb481 2.325 . S
O502 C489 1.281 . S
O503 Tb480 2.409 . S
O503 C489 1.254 . S
O504 Tb480 2.378 . S
O504 C490 1.236 . S
O505 Tb481 2.341 . S
O505 C490 1.266 . S
O506 Tb481 2.484 . S
O506 C491 1.248 . S
O507 Tb481 2.440 . S
O507 C491 1.266 . S
O508 Tb480 2.325 . S
O508 Tb481 2.658 . S
O508 C498 1.281 . S
O509 Tb481 2.409 . S
O509 C498 1.254 . S
O510 Tb481 2.378 . S
O510 C499 1.236 . S
O511 Tb480 2.341 . S
O511 C499 1.266 . S
H512 C484 0.929 . S
H513 C485 0.931 . S
H514 C487 0.930 . S
H515 C488 0.930 . S
H516 C493 0.929 . S
H517 C494 0.931 . S
H518 C496 0.930 . S
H519 C497 0.930 . S
Tb520 C522 2.809 . S
Tb520 O540 2.484 . S
Tb520 O541 2.440 . S
Tb520 O542 2.658 . S
Tb520 O543 2.409 . S
Tb520 O544 2.378 . S
Tb520 O548 2.325 . S
Tb520 O551 2.341 . S
Tb521 C531 2.809 . S
Tb521 O542 2.325 . S
Tb521 O545 2.341 . S
Tb521 O546 2.484 . S
Tb521 O547 2.440 . S
Tb521 O548 2.658 . S
Tb521 O549 2.409 . S
Tb521 O550 2.378 . S
C522 Tb520 2.809 . S
C522 C523 1.514 . S
C522 O540 1.248 . S
C522 O541 1.266 . S
C523 C522 1.514 . S
C523 C524 1.359 . S
C523 C528 1.348 . S
C524 C523 1.359 . S
C524 C525 1.380 . S
C524 H552 0.929 . S
C525 C524 1.380 . S
C525 C526 1.347 . S
C525 H553 0.931 . S
C526 C525 1.347 . S
C526 C527 1.369 . S
C527 C526 1.369 . S
C527 C528 1.408 . S
C527 H554 0.930 . S
C528 C523 1.348 . S
C528 C527 1.408 . S
C528 H555 0.930 . S
C529 O542 1.281 . S
C529 O543 1.254 . S
C530 O544 1.236 . S
C530 O545 1.266 . S
C531 Tb521 2.809 . S
C531 C532 1.514 . S
C531 O546 1.248 . S
C531 O547 1.266 . S
C532 C531 1.514 . S
C532 C533 1.359 . S
C532 C537 1.348 . S
C533 C532 1.359 . S
C533 C534 1.380 . S
C533 H556 0.929 . S
C534 C533 1.380 . S
C534 C535 1.347 . S
C534 H557 0.931 . S
C535 C534 1.347 . S
C535 C536 1.369 . S
C536 C535 1.369 . S
C536 C537 1.408 . S
C536 H558 0.930 . S
C537 C532 1.348 . S
C537 C536 1.408 . S
C537 H559 0.930 . S
C538 O548 1.281 . S
C538 O549 1.254 . S
C539 O550 1.236 . S
C539 O551 1.266 . S
O540 Tb520 2.484 . S
O540 C522 1.248 . S
O541 Tb520 2.440 . S
O541 C522 1.266 . S
O542 Tb520 2.658 . S
O542 Tb521 2.325 . S
O542 C529 1.281 . S
O543 Tb520 2.409 . S
O543 C529 1.254 . S
O544 Tb520 2.378 . S
O544 C530 1.236 . S
O545 Tb521 2.341 . S
O545 C530 1.266 . S
O546 Tb521 2.484 . S
O546 C531 1.248 . S
O547 Tb521 2.440 . S
O547 C531 1.266 . S
O548 Tb520 2.325 . S
O548 Tb521 2.658 . S
O548 C538 1.281 . S
O549 Tb521 2.409 . S
O549 C538 1.254 . S
O550 Tb521 2.378 . S
O550 C539 1.236 . S
O551 Tb520 2.341 . S
O551 C539 1.266 . S
H552 C524 0.929 . S
H553 C525 0.931 . S
H554 C527 0.930 . S
H555 C528 0.930 . S
H556 C533 0.929 . S
H557 C534 0.931 . S
H558 C536 0.930 . S
H559 C537 0.930 . S
Tb560 C562 2.809 . S
Tb560 O580 2.484 . S
Tb560 O581 2.440 . S
Tb560 O582 2.658 . S
Tb560 O583 2.409 . S
Tb560 O584 2.378 . S
Tb560 O588 2.325 . S
Tb560 O591 2.341 . S
Tb561 C571 2.809 . S
Tb561 O582 2.325 . S
Tb561 O585 2.341 . S
Tb561 O586 2.484 . S
Tb561 O587 2.440 . S
Tb561 O588 2.658 . S
Tb561 O589 2.409 . S
Tb561 O590 2.378 . S
C562 Tb560 2.809 . S
C562 C563 1.514 . S
C562 O580 1.248 . S
C562 O581 1.266 . S
C563 C562 1.514 . S
C563 C564 1.359 . S
C563 C568 1.348 . S
C564 C563 1.359 . S
C564 C565 1.380 . S
C564 H592 0.929 . S
C565 C564 1.380 . S
C565 C566 1.347 . S
C565 H593 0.931 . S
C566 C565 1.347 . S
C566 C567 1.369 . S
C567 C566 1.369 . S
C567 C568 1.408 . S
C567 H594 0.930 . S
C568 C563 1.348 . S
C568 C567 1.408 . S
C568 H595 0.930 . S
C569 O582 1.281 . S
C569 O583 1.254 . S
C570 O584 1.236 . S
C570 O585 1.266 . S
C571 Tb561 2.809 . S
C571 C572 1.514 . S
C571 O586 1.248 . S
C571 O587 1.266 . S
C572 C571 1.514 . S
C572 C573 1.359 . S
C572 C577 1.348 . S
C573 C572 1.359 . S
C573 C574 1.380 . S
C573 H596 0.929 . S
C574 C573 1.380 . S
C574 C575 1.347 . S
C574 H597 0.931 . S
C575 C574 1.347 . S
C575 C576 1.369 . S
C576 C575 1.369 . S
C576 C577 1.408 . S
C576 H598 0.930 . S
C577 C572 1.348 . S
C577 C576 1.408 . S
C577 H599 0.930 . S
C578 O588 1.281 . S
C578 O589 1.254 . S
C579 O590 1.236 . S
C579 O591 1.266 . S
O580 Tb560 2.484 . S
O580 C562 1.248 . S
O581 Tb560 2.440 . S
O581 C562 1.266 . S
O582 Tb560 2.658 . S
O582 Tb561 2.325 . S
O582 C569 1.281 . S
O583 Tb560 2.409 . S
O583 C569 1.254 . S
O584 Tb560 2.378 . S
O584 C570 1.236 . S
O585 Tb561 2.341 . S
O585 C570 1.266 . S
O586 Tb561 2.484 . S
O586 C571 1.248 . S
O587 Tb561 2.440 . S
O587 C571 1.266 . S
O588 Tb560 2.325 . S
O588 Tb561 2.658 . S
O588 C578 1.281 . S
O589 Tb561 2.409 . S
O589 C578 1.254 . S
O590 Tb561 2.378 . S
O590 C579 1.236 . S
O591 Tb560 2.341 . S
O591 C579 1.266 . S
H592 C564 0.929 . S
H593 C565 0.931 . S
H594 C567 0.930 . S
H595 C568 0.930 . S
H596 C573 0.929 . S
H597 C574 0.931 . S
H598 C576 0.930 . S
H599 C577 0.930 . S
Tb600 C602 2.809 . S
Tb600 O620 2.484 . S
Tb600 O621 2.440 . S
Tb600 O622 2.658 . S
Tb600 O623 2.409 . S
Tb600 O624 2.378 . S
Tb600 O628 2.325 . S
Tb600 O631 2.341 . S
Tb601 C611 2.809 . S
Tb601 O622 2.325 . S
Tb601 O625 2.341 . S
Tb601 O626 2.484 . S
Tb601 O627 2.440 . S
Tb601 O628 2.658 . S
Tb601 O629 2.409 . S
Tb601 O630 2.378 . S
C602 Tb600 2.809 . S
C602 C603 1.514 . S
C602 O620 1.248 . S
C602 O621 1.266 . S
C603 C602 1.514 . S
C603 C604 1.359 . S
C603 C608 1.348 . S
C604 C603 1.359 . S
C604 C605 1.380 . S
C604 H632 0.929 . S
C605 C604 1.380 . S
C605 C606 1.347 . S
C605 H633 0.931 . S
C606 C605 1.347 . S
C606 C607 1.369 . S
C607 C606 1.369 . S
C607 C608 1.408 . S
C607 H634 0.930 . S
C608 C603 1.348 . S
C608 C607 1.408 . S
C608 H635 0.930 . S
C609 O622 1.281 . S
C609 O623 1.254 . S
C610 O624 1.236 . S
C610 O625 1.266 . S
C611 Tb601 2.809 . S
C611 C612 1.514 . S
C611 O626 1.248 . S
C611 O627 1.266 . S
C612 C611 1.514 . S
C612 C613 1.359 . S
C612 C617 1.348 . S
C613 C612 1.359 . S
C613 C614 1.380 . S
C613 H636 0.929 . S
C614 C613 1.380 . S
C614 C615 1.347 . S
C614 H637 0.931 . S
C615 C614 1.347 . S
C615 C616 1.369 . S
C616 C615 1.369 . S
C616 C617 1.408 . S
C616 H638 0.930 . S
C617 C612 1.348 . S
C617 C616 1.408 . S
C617 H639 0.930 . S
C618 O628 1.281 . S
C618 O629 1.254 . S
C619 O630 1.236 . S
C619 O631 1.266 . S
O620 Tb600 2.484 . S
O620 C602 1.248 . S
O621 Tb600 2.440 . S
O621 C602 1.266 . S
O622 Tb600 2.658 . S
O622 Tb601 2.325 . S
O622 C609 1.281 . S
O623 Tb600 2.409 . S
O623 C609 1.254 . S
O624 Tb600 2.378 . S
O624 C610 1.236 . S
O625 Tb601 2.341 . S
O625 C610 1.266 . S
O626 Tb601 2.484 . S
O626 C611 1.248 . S
O627 Tb601 2.440 . S
O627 C611 1.266 . S
O628 Tb600 2.325 . S
O628 Tb601 2.658 . S
O628 C618 1.281 . S
O629 Tb601 2.409 . S
O629 C618 1.254 . S
O630 Tb601 2.378 . S
O630 C619 1.236 . S
O631 Tb600 2.341 . S
O631 C619 1.266 . S
H632 C604 0.929 . S
H633 C605 0.931 . S
H634 C607 0.930 . S
H635 C608 0.930 . S
H636 C613 0.929 . S
H637 C614 0.931 . S
H638 C616 0.930 . S
H639 C617 0.930 . S
C640 C641 1.349 . S
C640 C642 1.327 . S
C640 H665 0.950 . S
C641 C640 1.349 . S
C641 C657 1.349 . S
C642 C640 1.327 . S
C642 C661 1.429 . S
C642 H666 0.950 . S
C643 C660 1.574 . S
C643 C662 1.368 . S
C643 H667 0.949 . S
H644 C648 0.949 1_545 S
C645 C646 1.349 . S
C645 C647 1.327 . S
C645 H668 0.950 . S
C646 C645 1.349 . S
C646 C658 1.349 . S
C647 C645 1.327 . S
C647 C663 1.429 . S
C647 H669 0.950 . S
C648 H644 0.949 1_565 S
C648 C656 1.574 . S
C648 C664 1.368 . S
H649 C657 0.950 . S
H650 C655 0.950 . S
H651 C656 0.949 . S
H652 C658 0.950 . S
H653 C659 0.950 . S
H654 C660 0.949 . S
C655 H650 0.950 . S
C655 C657 1.327 . S
C655 C661 1.429 . S
C656 C648 1.574 . S
C656 H651 0.949 . S
C656 C662 1.368 . S
C657 C641 1.349 . S
C657 H649 0.950 . S
C657 C655 1.327 . S
C658 C646 1.349 . S
C658 H652 0.950 . S
C658 C659 1.327 . S
C659 H653 0.950 . S
C659 C658 1.327 . S
C659 C663 1.429 . S
C660 C643 1.574 . S
C660 H654 0.949 . S
C660 C664 1.368 . S
C661 C642 1.429 . S
C661 C655 1.429 . S
C661 C662 1.523 . S
C662 C643 1.368 . S
C662 C656 1.368 . S
C662 C661 1.523 . S
C663 C647 1.429 . S
C663 C659 1.429 . S
C663 C664 1.523 1_545 S
C664 C648 1.368 . S
C664 C660 1.368 . S
C664 C663 1.523 1_565 S
H665 C640 0.950 . S
H666 C642 0.950 . S
H667 C643 0.949 . S
H668 C645 0.950 . S
H669 C647 0.950 . S
C670 C671 1.349 . S
C670 C672 1.327 . S
C670 H695 0.950 . S
C671 C670 1.349 . S
C671 C687 1.349 . S
C672 C670 1.327 . S
C672 C691 1.429 . S
C672 H696 0.950 . S
C673 C690 1.574 . S
C673 C692 1.368 . S
C673 H697 0.949 . S
H674 C678 0.949 1_455 S
C675 C676 1.349 . S
C675 C677 1.327 . S
C675 H698 0.950 . S
C676 C675 1.349 . S
C676 C688 1.349 . S
C677 C675 1.327 . S
C677 C693 1.429 . S
C677 H699 0.950 . S
C678 H674 0.949 1_655 S
C678 C686 1.574 . S
C678 C694 1.368 . S
H679 C687 0.950 . S
H680 C685 0.950 . S
H681 C686 0.949 . S
H682 C688 0.950 . S
H683 C689 0.950 . S
H684 C690 0.949 . S
C685 H680 0.950 . S
C685 C687 1.327 . S
C685 C691 1.429 . S
C686 C678 1.574 . S
C686 H681 0.949 . S
C686 C692 1.368 . S
C687 C671 1.349 . S
C687 H679 0.950 . S
C687 C685 1.327 . S
C688 C676 1.349 . S
C688 H682 0.950 . S
C688 C689 1.327 . S
C689 H683 0.950 . S
C689 C688 1.327 . S
C689 C693 1.429 . S
C690 C673 1.574 . S
C690 H684 0.949 . S
C690 C694 1.368 . S
C691 C672 1.429 . S
C691 C685 1.429 . S
C691 C692 1.523 . S
C692 C673 1.368 . S
C692 C686 1.368 . S
C692 C691 1.523 . S
C693 C677 1.429 . S
C693 C689 1.429 . S
C693 C694 1.523 1_455 S
C694 C678 1.368 . S
C694 C690 1.368 . S
C694 C693 1.523 1_655 S
H695 C670 0.950 . S
H696 C672 0.950 . S
H697 C673 0.949 . S
H698 C675 0.950 . S
H699 C677 0.950 . S
C700 C701 1.349 . S
C700 C702 1.327 . S
C700 H725 0.950 . S
C701 C700 1.349 . S
C701 C717 1.349 . S
C702 C700 1.327 . S
C702 C721 1.429 . S
C702 H726 0.950 . S
C703 C720 1.574 . S
C703 C722 1.368 . S
C703 H727 0.949 1_545 S
H704 C708 0.949 . S
C705 C706 1.349 . S
C705 C707 1.327 . S
C705 H728 0.950 . S
C706 C705 1.349 . S
C706 C718 1.349 . S
C707 C705 1.327 . S
C707 C723 1.429 . S
C707 H729 0.950 . S
C708 H704 0.949 . S
C708 C716 1.574 . S
C708 C724 1.368 . S
H709 C717 0.950 . S
H710 C715 0.950 . S
H711 C716 0.949 . S
H712 C718 0.950 . S
H713 C719 0.950 . S
H714 C720 0.949 . S
C715 H710 0.950 . S
C715 C717 1.327 . S
C715 C721 1.429 . S
C716 C708 1.574 . S
C716 H711 0.949 . S
C716 C722 1.368 . S
C717 C701 1.349 . S
C717 H709 0.950 . S
C717 C715 1.327 . S
C718 C706 1.349 . S
C718 H712 0.950 . S
C718 C719 1.327 . S
C719 H713 0.950 . S
C719 C718 1.327 . S
C719 C723 1.429 . S
C720 C703 1.574 . S
C720 H714 0.949 . S
C720 C724 1.368 . S
C721 C702 1.429 . S
C721 C715 1.429 . S
C721 C722 1.523 1_565 S
C722 C703 1.368 . S
C722 C716 1.368 . S
C722 C721 1.523 1_545 S
C723 C707 1.429 . S
C723 C719 1.429 . S
C723 C724 1.523 . S
C724 C708 1.368 . S
C724 C720 1.368 . S
C724 C723 1.523 . S
H725 C700 0.950 . S
H726 C702 0.950 . S
H727 C703 0.949 1_565 S
H728 C705 0.950 . S
H729 C707 0.950 . S
C730 C731 1.349 . S
C730 C732 1.327 . S
C730 H755 0.950 . S
C731 C730 1.349 . S
C731 C747 1.349 . S
C732 C730 1.327 . S
C732 C751 1.429 . S
C732 H756 0.950 . S
C733 C750 1.574 . S
C733 C752 1.368 . S
C733 H757 0.949 1_455 S
H734 C738 0.949 . S
C735 C736 1.349 . S
C735 C737 1.327 . S
C735 H758 0.950 . S
C736 C735 1.349 . S
C736 C748 1.349 . S
C737 C735 1.327 . S
C737 C753 1.429 . S
C737 H759 0.950 . S
C738 H734 0.949 . S
C738 C746 1.574 . S
C738 C754 1.368 . S
H739 C747 0.950 . S
H740 C745 0.950 . S
H741 C746 0.949 . S
H742 C748 0.950 . S
H743 C749 0.950 . S
H744 C750 0.949 . S
C745 H740 0.950 . S
C745 C747 1.327 . S
C745 C751 1.429 . S
C746 C738 1.574 . S
C746 H741 0.949 . S
C746 C752 1.368 . S
C747 C731 1.349 . S
C747 H739 0.950 . S
C747 C745 1.327 . S
C748 C736 1.349 . S
C748 H742 0.950 . S
C748 C749 1.327 . S
C749 H743 0.950 . S
C749 C748 1.327 . S
C749 C753 1.429 . S
C750 C733 1.574 . S
C750 H744 0.949 . S
C750 C754 1.368 . S
C751 C732 1.429 . S
C751 C745 1.429 . S
C751 C752 1.523 1_655 S
C752 C733 1.368 . S
C752 C746 1.368 . S
C752 C751 1.523 1_455 S
C753 C737 1.429 . S
C753 C749 1.429 . S
C753 C754 1.523 . S
C754 C738 1.368 . S
C754 C750 1.368 . S
C754 C753 1.523 . S
H755 C730 0.950 . S
H756 C732 0.950 . S
H757 C733 0.949 1_655 S
H758 C735 0.950 . S
H759 C737 0.950 . S
C760 C761 1.349 . S
C760 C762 1.327 . S
C760 H785 0.950 . S
C761 C760 1.349 . S
C761 C777 1.349 . S
C762 C760 1.327 . S
C762 C781 1.429 . S
C762 H786 0.950 . S
C763 C780 1.574 . S
C763 C782 1.368 . S
C763 H787 0.949 . S
H764 C768 0.949 . S
C765 C766 1.349 . S
C765 C767 1.327 1_556 S
C765 H788 0.950 1_556 S
C766 C765 1.349 . S
C766 C778 1.349 . S
C767 C765 1.327 1_554 S
C767 C783 1.429 1_554 S
C767 H789 0.950 . S
C768 H764 0.949 . S
C768 C776 1.574 . S
C768 C784 1.368 1_556 S
H769 C777 0.950 . S
H770 C775 0.950 . S
H771 C776 0.949 . S
H772 C778 0.950 . S
H773 C779 0.950 . S
H774 C780 0.949 . S
C775 H770 0.950 . S
C775 C777 1.327 . S
C775 C781 1.429 . S
C776 C768 1.574 . S
C776 H771 0.949 . S
C776 C782 1.368 1_556 S
C777 C761 1.349 . S
C777 H769 0.950 . S
C777 C775 1.327 . S
C778 C766 1.349 . S
C778 H772 0.950 . S
C778 C779 1.327 . S
C779 H773 0.950 . S
C779 C778 1.327 . S
C779 C783 1.429 . S
C780 C763 1.574 . S
C780 H774 0.949 . S
C780 C784 1.368 . S
C781 C762 1.429 . S
C781 C775 1.429 . S
C781 C782 1.523 . S
C782 C763 1.368 . S
C782 C776 1.368 1_554 S
C782 C781 1.523 . S
C783 C767 1.429 1_556 S
C783 C779 1.429 . S
C783 C784 1.523 1_556 S
C784 C768 1.368 1_554 S
C784 C780 1.368 . S
C784 C783 1.523 1_554 S
H785 C760 0.950 . S
H786 C762 0.950 . S
H787 C763 0.949 . S
H788 C765 0.950 1_554 S
H789 C767 0.950 . S
C790 C791 1.349 . S
C790 C792 1.327 . S
C790 H815 0.950 . S
C791 C790 1.349 . S
C791 C807 1.349 . S
C792 C790 1.327 . S
C792 C811 1.429 . S
C792 H816 0.950 1_554 S
C793 C810 1.574 1_554 S
C793 C812 1.368 1_554 S
C793 H817 0.949 . S
H794 C798 0.949 . S
C795 C796 1.349 . S
C795 C797 1.327 . S
C795 H818 0.950 . S
C796 C795 1.349 . S
C796 C808 1.349 . S
C797 C795 1.327 . S
C797 C813 1.429 . S
C797 H819 0.950 . S
C798 H794 0.949 . S
C798 C806 1.574 . S
C798 C814 1.368 . S
H799 C807 0.950 . S
H800 C805 0.950 . S
H801 C806 0.949 . S
H802 C808 0.950 . S
H803 C809 0.950 . S
H804 C810 0.949 . S
C805 H800 0.950 . S
C805 C807 1.327 . S
C805 C811 1.429 . S
C806 C798 1.574 . S
C806 H801 0.949 . S
C806 C812 1.368 . S
C807 C791 1.349 . S
C807 H799 0.950 . S
C807 C805 1.327 . S
C808 C796 1.349 . S
C808 H802 0.950 . S
C808 C809 1.327 . S
C809 H803 0.950 . S
C809 C808 1.327 . S
C809 C813 1.429 . S
C810 C793 1.574 1_556 S
C810 H804 0.949 . S
C810 C814 1.368 . S
C811 C792 1.429 . S
C811 C805 1.429 . S
C811 C812 1.523 1_554 S
C812 C793 1.368 1_556 S
C812 C806 1.368 . S
C812 C811 1.523 1_556 S
C813 C797 1.429 . S
C813 C809 1.429 . S
C813 C814 1.523 . S
C814 C798 1.368 . S
C814 C810 1.368 . S
C814 C813 1.523 . S
H815 C790 0.950 . S
H816 C792 0.950 1_556 S
H817 C793 0.949 . S
H818 C795 0.950 . S
H819 C797 0.950 . S
C820 C821 1.349 . S
C820 C822 1.327 . S
C820 H845 0.950 . S
C821 C820 1.349 . S
C821 C837 1.349 . S
C822 C820 1.327 . S
C822 C841 1.429 . S
C822 H846 0.950 . S
C823 C840 1.574 1_554 S
C823 C842 1.368 . S
C823 H847 0.949 1_554 S
H824 C828 0.949 . S
C825 C826 1.349 . S
C825 C827 1.327 . S
C825 H848 0.950 . S
C826 C825 1.349 . S
C826 C838 1.349 . S
C827 C825 1.327 . S
C827 C843 1.429 . S
C827 H849 0.950 . S
C828 H824 0.949 . S
C828 C836 1.574 . S
C828 C844 1.368 . S
H829 C837 0.950 . S
H830 C835 0.950 . S
H831 C836 0.949 . S
H832 C838 0.944 1_554 S
H833 C839 0.950 . S
H834 C840 0.949 . S
C835 H830 0.950 . S
C835 C837 1.327 . S
C835 C841 1.429 . S
C836 C828 1.574 . S
C836 H831 0.949 . S
C836 C842 1.368 . S
C837 C821 1.349 . S
C837 H829 0.950 . S
C837 C835 1.327 . S
C838 C826 1.349 . S
C838 H832 0.944 1_556 S
C838 C839 1.327 1_556 S
C839 H833 0.950 . S
C839 C838 1.327 1_554 S
C839 C843 1.429 1_554 S
C840 C823 1.574 1_556 S
C840 H834 0.949 . S
C840 C844 1.368 1_556 S
C841 C822 1.429 . S
C841 C835 1.429 . S
C841 C842 1.523 . S
C842 C823 1.368 . S
C842 C836 1.368 . S
C842 C841 1.523 . S
C843 C827 1.429 . S
C843 C839 1.429 1_556 S
C843 C844 1.523 1_556 S
C844 C828 1.368 . S
C844 C840 1.368 1_554 S
C844 C843 1.523 1_554 S
H845 C820 0.950 . S
H846 C822 0.950 . S
H847 C823 0.949 1_556 S
H848 C825 0.950 . S
H849 C827 0.950 . S
C850 C851 1.349 . S
C850 C852 1.327 . S
C850 H875 0.950 . S
C851 C850 1.349 . S
C851 C867 1.349 . S
C852 C850 1.327 . S
C852 C871 1.429 . S
C852 H876 0.950 . S
C853 C870 1.574 . S
C853 C872 1.368 . S
C853 H877 0.951 . S
H854 C858 0.949 . S
C855 C856 1.349 . S
C855 C857 1.327 . S
C855 H878 0.950 . S
C856 C855 1.349 . S
C856 C868 1.349 . S
C857 C855 1.327 . S
C857 C873 1.429 . S
C857 H879 0.950 . S
C858 H854 0.949 . S
C858 C866 1.574 . S
C858 C874 1.368 . S
H859 C867 0.950 . S
H860 C865 0.950 . S
H861 C866 0.949 . S
H862 C868 0.950 . S
H863 C869 0.950 . S
H864 C870 0.949 . S
C865 H860 0.950 . S
C865 C867 1.327 . S
C865 C871 1.429 . S
C866 C858 1.574 . S
C866 H861 0.949 . S
C866 C872 1.368 . S
C867 C851 1.349 . S
C867 H859 0.950 . S
C867 C865 1.327 . S
C868 C856 1.349 . S
C868 H862 0.950 . S
C868 C869 1.327 . S
C869 H863 0.950 . S
C869 C868 1.327 . S
C869 C873 1.429 . S
C870 C853 1.574 . S
C870 H864 0.949 . S
C870 C874 1.368 . S
C871 C852 1.429 . S
C871 C865 1.429 . S
C871 C872 1.523 1_554 S
C872 C853 1.368 . S
C872 C866 1.368 . S
C872 C871 1.523 1_556 S
C873 C857 1.429 . S
C873 C869 1.429 . S
C873 C874 1.523 . S
C874 C858 1.368 . S
C874 C870 1.368 . S
C874 C873 1.523 . S
H875 C850 0.950 . S
H876 C852 0.950 . S
H877 C853 0.951 . S
H878 C855 0.950 . S
H879 C857 0.950 . S
C880 C881 1.349 . S
C880 C882 1.327 . S
C880 H905 0.950 . S
C881 C880 1.349 . S
C881 C897 1.349 . S
C882 C880 1.327 . S
C882 C901 1.429 . S
C882 H906 0.950 . S
C883 C900 1.574 . S
C883 C902 1.368 . S
C883 H907 0.949 . S
H884 C888 0.949 . S
C885 C886 1.349 . S
C885 C887 1.327 . S
C885 H908 0.950 . S
C886 C885 1.349 . S
C886 C898 1.349 . S
C887 C885 1.327 . S
C887 C903 1.429 . S
C887 H909 0.950 . S
C888 H884 0.949 . S
C888 C896 1.574 . S
C888 C904 1.368 . S
H889 C897 0.950 . S
H890 C895 0.950 . S
H891 C896 0.949 . S
H892 C898 0.950 . S
H893 C899 0.950 . S
H894 C900 0.949 . S
C895 H890 0.950 . S
C895 C897 1.327 . S
C895 C901 1.429 . S
C896 C888 1.574 . S
C896 H891 0.949 . S
C896 C902 1.368 . S
C897 C881 1.349 . S
C897 H889 0.950 . S
C897 C895 1.327 . S
C898 C886 1.349 . S
C898 H892 0.950 . S
C898 C899 1.327 . S
C899 H893 0.950 . S
C899 C898 1.327 . S
C899 C903 1.429 . S
C900 C883 1.574 . S
C900 H894 0.949 . S
C900 C904 1.368 . S
C901 C882 1.429 . S
C901 C895 1.429 . S
C901 C902 1.523 . S
C902 C883 1.368 . S
C902 C896 1.368 . S
C902 C901 1.523 . S
C903 C887 1.429 . S
C903 C899 1.429 . S
C903 C904 1.523 . S
C904 C888 1.368 . S
C904 C900 1.368 . S
C904 C903 1.523 . S
H905 C880 0.950 . S
H906 C882 0.950 . S
H907 C883 0.949 . S
H908 C885 0.950 . S
H909 C887 0.950 . S
C910 C911 1.349 . S
C910 C912 1.327 . S
C910 H935 0.950 . S
C911 C910 1.349 . S
C911 C927 1.349 . S
C912 C910 1.327 . S
C912 C931 1.429 . S
C912 H936 0.950 . S
C913 C930 1.574 . S
C913 C932 1.368 . S
C913 H937 0.949 . S
H914 C918 0.949 . S
C915 C916 1.349 . S
C915 C917 1.327 . S
C915 H938 0.950 . S
C916 C915 1.349 . S
C916 C928 1.349 . S
C917 C915 1.327 . S
C917 C933 1.429 . S
C917 H939 0.950 . S
C918 H914 0.949 . S
C918 C926 1.574 . S
C918 C934 1.368 . S
H919 C927 0.950 . S
H920 C925 0.950 . S
H921 C926 0.949 . S
H922 C928 0.950 . S
H923 C929 0.950 . S
H924 C930 0.949 . S
C925 H920 0.950 . S
C925 C927 1.327 . S
C925 C931 1.429 . S
C926 C918 1.574 . S
C926 H921 0.949 . S
C926 C932 1.368 . S
C927 C911 1.349 . S
C927 H919 0.950 . S
C927 C925 1.327 . S
C928 C916 1.349 . S
C928 H922 0.950 . S
C928 C929 1.327 . S
C929 H923 0.950 . S
C929 C928 1.327 . S
C929 C933 1.429 . S
C930 C913 1.574 . S
C930 H924 0.949 . S
C930 C934 1.368 . S
C931 C912 1.429 . S
C931 C925 1.429 . S
C931 C932 1.523 . S
C932 C913 1.368 . S
C932 C926 1.368 . S
C932 C931 1.523 . S
C933 C917 1.429 . S
C933 C929 1.429 . S
C933 C934 1.523 . S
C934 C918 1.368 . S
C934 C930 1.368 . S
C934 C933 1.523 . S
H935 C910 0.950 . S
H936 C912 0.950 . S
H937 C913 0.949 . S
H938 C915 0.950 . S
H939 C917 0.950 . S
C940 C941 1.349 . S
C940 C942 1.327 . S
C940 H965 0.950 . S
C941 C940 1.349 . S
C941 C957 1.349 . S
C942 C940 1.327 . S
C942 C961 1.429 . S
C942 H966 0.950 . S
C943 C960 1.574 . S
C943 C962 1.368 . S
C943 H967 0.949 . S
H944 C948 0.949 . S
C945 C946 1.349 . S
C945 C947 1.327 . S
C945 H968 0.950 . S
C946 C945 1.349 . S
C946 C958 1.349 . S
C947 C945 1.327 . S
C947 C963 1.429 . S
C947 H969 0.950 . S
C948 H944 0.949 . S
C948 C956 1.574 . S
C948 C964 1.368 . S
H949 C957 0.950 . S
H950 C955 0.950 . S
H951 C956 0.949 . S
H952 C958 0.950 . S
H953 C959 0.950 . S
H954 C960 0.949 . S
C955 H950 0.950 . S
C955 C957 1.327 . S
C955 C961 1.429 . S
C956 C948 1.574 . S
C956 H951 0.949 . S
C956 C962 1.368 . S
C957 C941 1.349 . S
C957 H949 0.950 . S
C957 C955 1.327 . S
C958 C946 1.349 . S
C958 H952 0.950 . S
C958 C959 1.327 . S
C959 H953 0.950 . S
C959 C958 1.327 . S
C959 C963 1.429 . S
C960 C943 1.574 . S
C960 H954 0.949 . S
C960 C964 1.368 . S
C961 C942 1.429 . S
C961 C955 1.429 . S
C961 C962 1.523 . S
C962 C943 1.368 . S
C962 C956 1.368 . S
C962 C961 1.523 . S
C963 C947 1.429 . S
C963 C959 1.429 . S
C963 C964 1.523 . S
C964 C948 1.368 . S
C964 C960 1.368 . S
C964 C963 1.523 . S
H965 C940 0.950 . S
H966 C942 0.950 . S
H967 C943 0.949 . S
H968 C945 0.950 . S
H969 C947 0.950 . S
C970 C971 1.349 . S
C970 C972 1.327 . S
C970 H995 0.950 . S
C971 C970 1.349 . S
C971 C987 1.349 . S
C972 C970 1.327 . S
C972 C991 1.429 . S
C972 H996 0.950 . S
C973 C990 1.574 . S
C973 C992 1.368 . S
C973 H997 0.949 . S
H974 C978 0.949 . S
C975 C976 1.349 . S
C975 C977 1.327 . S
C975 H998 0.950 . S
C976 C975 1.349 . S
C976 C988 1.349 . S
C977 C975 1.327 . S
C977 C993 1.429 . S
C977 H999 0.950 . S
C978 H974 0.949 . S
C978 C986 1.574 . S
C978 C994 1.368 . S
H979 C987 0.950 . S
H980 C985 0.950 . S
H981 C986 0.949 . S
H982 C988 0.950 . S
H983 C989 0.950 . S
H984 C990 0.949 . S
C985 H980 0.950 . S
C985 C987 1.327 . S
C985 C991 1.429 . S
C986 C978 1.574 . S
C986 H981 0.949 . S
C986 C992 1.368 . S
C987 C971 1.349 . S
C987 H979 0.950 . S
C987 C985 1.327 . S
C988 C976 1.349 . S
C988 H982 0.950 . S
C988 C989 1.327 . S
C989 H983 0.950 . S
C989 C988 1.327 . S
C989 C993 1.429 . S
C990 C973 1.574 . S
C990 H984 0.949 . S
C990 C994 1.368 . S
C991 C972 1.429 . S
C991 C985 1.429 . S
C991 C992 1.523 . S
C992 C973 1.368 . S
C992 C986 1.368 . S
C992 C991 1.523 . S
C993 C977 1.429 . S
C993 C989 1.429 . S
C993 C994 1.523 . S
C994 C978 1.368 . S
C994 C990 1.368 . S
C994 C993 1.523 . S
H995 C970 0.950 . S
H996 C972 0.950 . S
H997 C973 0.949 . S
H998 C975 0.950 . S
H999 C977 0.950 . S
C1000 C1001 1.349 . S
C1000 C1002 1.327 . S
C1000 H1025 0.950 . S
C1001 C1000 1.349 . S
C1001 C1017 1.349 . S
C1002 C1000 1.327 . S
C1002 C1021 1.429 . S
C1002 H1026 0.950 . S
C1003 C1020 1.574 . S
C1003 C1022 1.368 . S
C1003 H1027 0.949 . S
H1004 C1008 0.949 . S
C1005 C1006 1.349 . S
C1005 C1007 1.327 . S
C1005 H1028 0.950 . S
C1006 C1005 1.349 . S
C1006 C1018 1.349 . S
C1007 C1005 1.327 . S
C1007 C1023 1.429 . S
C1007 H1029 0.950 . S
C1008 H1004 0.949 . S
C1008 C1016 1.574 . S
C1008 C1024 1.368 . S
H1009 C1017 0.950 . S
H1010 C1015 0.950 . S
H1011 C1016 0.949 . S
H1012 C1018 0.950 . S
H1013 C1019 0.950 . S
H1014 C1020 0.949 . S
C1015 H1010 0.950 . S
C1015 C1017 1.327 . S
C1015 C1021 1.429 . S
C1016 C1008 1.574 . S
C1016 H1011 0.949 . S
C1016 C1022 1.368 . S
C1017 C1001 1.349 . S
C1017 H1009 0.950 . S
C1017 C1015 1.327 . S
C1018 C1006 1.349 . S
C1018 H1012 0.950 . S
C1018 C1019 1.327 . S
C1019 H1013 0.950 . S
C1019 C1018 1.327 . S
C1019 C1023 1.429 . S
C1020 C1003 1.574 . S
C1020 H1014 0.949 . S
C1020 C1024 1.368 . S
C1021 C1002 1.429 . S
C1021 C1015 1.429 . S
C1021 C1022 1.523 1_565 S
C1022 C1003 1.368 . S
C1022 C1016 1.368 . S
C1022 C1021 1.523 1_545 S
C1023 C1007 1.429 . S
C1023 C1019 1.429 . S
C1023 C1024 1.523 . S
C1024 C1008 1.368 . S
C1024 C1020 1.368 . S
C1024 C1023 1.523 . S
H1025 C1000 0.950 . S
H1026 C1002 0.950 . S
H1027 C1003 0.949 . S
H1028 C1005 0.950 . S
H1029 C1007 0.950 . S
C1030 C1031 1.349 . S
C1030 C1032 1.327 . S
C1030 H1055 0.950 . S
C1031 C1030 1.349 . S
C1031 C1047 1.349 . S
C1032 C1030 1.327 . S
C1032 C1051 1.429 . S
C1032 H1056 0.950 . S
C1033 C1050 1.574 . S
C1033 C1052 1.368 . S
C1033 H1057 0.949 . S
H1034 C1038 0.949 . S
C1035 C1036 1.349 . S
C1035 C1037 1.327 . S
C1035 H1058 0.950 . S
C1036 C1035 1.349 . S
C1036 C1048 1.349 . S
C1037 C1035 1.327 . S
C1037 C1053 1.429 . S
C1037 H1059 0.950 . S
C1038 H1034 0.949 . S
C1038 C1046 1.574 . S
C1038 C1054 1.368 . S
H1039 C1047 0.950 . S
H1040 C1045 0.950 . S
H1041 C1046 0.949 . S
H1042 C1048 0.950 . S
H1043 C1049 0.950 . S
H1044 C1050 0.949 1_655 S
C1045 H1040 0.950 . S
C1045 C1047 1.327 . S
C1045 C1051 1.429 . S
C1046 C1038 1.574 . S
C1046 H1041 0.949 . S
C1046 C1052 1.368 . S
C1047 C1031 1.349 . S
C1047 H1039 0.950 . S
C1047 C1045 1.327 . S
C1048 C1036 1.349 . S
C1048 H1042 0.950 . S
C1048 C1049 1.327 . S
C1049 H1043 0.950 . S
C1049 C1048 1.327 . S
C1049 C1053 1.429 . S
C1050 C1033 1.574 . S
C1050 H1044 0.949 1_455 S
C1050 C1054 1.368 . S
C1051 C1032 1.429 . S
C1051 C1045 1.429 . S
C1051 C1052 1.523 . S
C1052 C1033 1.368 . S
C1052 C1046 1.368 . S
C1052 C1051 1.523 . S
C1053 C1037 1.429 . S
C1053 C1049 1.429 . S
C1053 C1054 1.523 1_655 S
C1054 C1038 1.368 . S
C1054 C1050 1.368 . S
C1054 C1053 1.523 1_455 S
H1055 C1030 0.950 . S
H1056 C1032 0.950 . S
H1057 C1033 0.949 . S
H1058 C1035 0.950 . S
H1059 C1037 0.950 . S
C1060 C1061 1.349 . S
C1060 C1062 1.327 . S
C1060 H1085 0.950 . S
C1061 C1060 1.349 . S
C1061 C1077 1.349 . S
C1062 C1060 1.327 . S
C1062 C1081 1.429 . S
C1062 H1086 0.950 . S
C1063 C1080 1.574 . S
C1063 C1082 1.368 . S
C1063 H1087 0.949 . S
H1064 C1068 0.949 1_545 S
C1065 C1066 1.349 . S
C1065 C1067 1.327 . S
C1065 H1088 0.950 . S
C1066 C1065 1.349 . S
C1066 C1078 1.349 . S
C1067 C1065 1.327 . S
C1067 C1083 1.429 . S
C1067 H1089 0.950 . S
C1068 H1064 0.949 1_565 S
C1068 C1076 1.574 . S
C1068 C1084 1.368 . S
H1069 C1077 0.950 . S
H1070 C1075 0.950 . S
H1071 C1076 0.949 . S
H1072 C1078 0.950 . S
H1073 C1079 0.950 . S
H1074 C1080 0.949 . S
C1075 H1070 0.950 . S
C1075 C1077 1.327 . S
C1075 C1081 1.429 . S
C1076 C1068 1.574 . S
C1076 H1071 0.949 . S
C1076 C1082 1.368 . S
C1077 C1061 1.349 . S
C1077 H1069 0.950 . S
C1077 C1075 1.327 . S
C1078 C1066 1.349 . S
C1078 H1072 0.950 . S
C1078 C1079 1.327 . S
C1079 H1073 0.950 . S
C1079 C1078 1.327 . S
C1079 C1083 1.429 . S
C1080 C1063 1.574 . S
C1080 H1074 0.949 . S
C1080 C1084 1.368 . S
C1081 C1062 1.429 . S
C1081 C1075 1.429 . S
C1081 C1082 1.523 . S
C1082 C1063 1.368 . S
C1082 C1076 1.368 . S
C1082 C1081 1.523 . S
C1083 C1067 1.429 . S
C1083 C1079 1.429 . S
C1083 C1084 1.523 1_545 S
C1084 C1068 1.368 . S
C1084 C1080 1.368 . S
C1084 C1083 1.523 1_565 S
H1085 C1060 0.950 . S
H1086 C1062 0.950 . S
H1087 C1063 0.949 . S
H1088 C1065 0.950 . S
H1089 C1067 0.950 . S
C1090 C1091 1.349 . S
C1090 C1092 1.327 . S
C1090 H1115 0.950 . S
C1091 C1090 1.349 . S
C1091 C1107 1.349 . S
C1092 C1090 1.327 . S
C1092 C1111 1.429 . S
C1092 H1116 0.950 . S
C1093 C1110 1.574 . S
C1093 C1112 1.368 . S
C1093 H1117 0.949 . S
H1094 C1098 0.949 . S
C1095 C1096 1.349 . S
C1095 C1097 1.327 . S
C1095 H1118 0.950 . S
C1096 C1095 1.349 . S
C1096 C1108 1.349 . S
C1097 C1095 1.327 . S
C1097 C1113 1.429 . S
C1097 H1119 0.950 . S
C1098 H1094 0.949 . S
C1098 C1106 1.574 . S
C1098 C1114 1.368 . S
H1099 C1107 0.950 . S
H1100 C1105 0.950 . S
H1101 C1106 0.949 1_455 S
H1102 C1108 0.950 . S
H1103 C1109 0.950 . S
H1104 C1110 0.949 . S
C1105 H1100 0.950 . S
C1105 C1107 1.327 . S
C1105 C1111 1.429 . S
C1106 C1098 1.574 . S
C1106 H1101 0.949 1_655 S
C1106 C1112 1.368 . S
C1107 C1091 1.349 . S
C1107 H1099 0.950 . S
C1107 C1105 1.327 . S
C1108 C1096 1.349 . S
C1108 H1102 0.950 . S
C1108 C1109 1.327 . S
C1109 H1103 0.950 . S
C1109 C1108 1.327 . S
C1109 C1113 1.429 . S
C1110 C1093 1.574 . S
C1110 H1104 0.949 . S
C1110 C1114 1.368 . S
C1111 C1092 1.429 . S
C1111 C1105 1.429 . S
C1111 C1112 1.523 1_455 S
C1112 C1093 1.368 . S
C1112 C1106 1.368 . S
C1112 C1111 1.523 1_655 S
C1113 C1097 1.429 . S
C1113 C1109 1.429 . S
C1113 C1114 1.523 . S
C1114 C1098 1.368 . S
C1114 C1110 1.368 . S
C1114 C1113 1.523 . S
H1115 C1090 0.950 . S
H1116 C1092 0.950 . S
H1117 C1093 0.949 . S
H1118 C1095 0.950 . S
H1119 C1097 0.950 . S
C1120 C1121 1.349 . S
C1120 C1122 1.327 . S
C1120 H1145 0.950 . S
C1121 C1120 1.349 . S
C1121 C1137 1.349 . S
C1122 C1120 1.327 . S
C1122 C1141 1.429 . S
C1122 H1146 0.950 . S
C1123 C1140 1.574 . S
C1123 C1142 1.368 . S
C1123 H1147 0.949 . S
H1124 C1128 0.949 . S
C1125 C1126 1.349 . S
C1125 C1127 1.327 . S
C1125 H1148 0.950 . S
C1126 C1125 1.349 . S
C1126 C1138 1.349 . S
C1127 C1125 1.327 . S
C1127 C1143 1.429 . S
C1127 H1149 0.950 . S
C1128 H1124 0.949 . S
C1128 C1136 1.574 . S
C1128 C1144 1.368 . S
H1129 C1137 0.950 . S
H1130 C1135 0.950 . S
H1131 C1136 0.949 . S
H1132 C1138 0.950 . S
H1133 C1139 0.950 . S
H1134 C1140 0.949 . S
C1135 H1130 0.950 . S
C1135 C1137 1.327 . S
C1135 C1141 1.429 . S
C1136 C1128 1.574 . S
C1136 H1131 0.949 . S
C1136 C1142 1.368 . S
C1137 C1121 1.349 . S
C1137 H1129 0.950 . S
C1137 C1135 1.327 . S
C1138 C1126 1.349 . S
C1138 H1132 0.950 . S
C1138 C1139 1.327 . S
C1139 H1133 0.950 . S
C1139 C1138 1.327 . S
C1139 C1143 1.429 . S
C1140 C1123 1.574 . S
C1140 H1134 0.949 . S
C1140 C1144 1.368 . S
C1141 C1122 1.429 . S
C1141 C1135 1.429 . S
C1141 C1142 1.523 . S
C1142 C1123 1.368 . S
C1142 C1136 1.368 . S
C1142 C1141 1.523 . S
C1143 C1127 1.429 . S
C1143 C1139 1.429 . S
C1143 C1144 1.523 . S
C1144 C1128 1.368 . S
C1144 C1140 1.368 . S
C1144 C1143 1.523 . S
H1145 C1120 0.950 . S
H1146 C1122 0.950 . S
H1147 C1123 0.949 . S
H1148 C1125 0.950 . S
H1149 C1127 0.950 . S
C1150 C1151 1.349 . S
C1150 C1152 1.327 . S
C1150 H1175 0.950 . S
C1151 C1150 1.349 . S
C1151 C1167 1.349 . S
C1152 C1150 1.327 . S
C1152 C1171 1.429 . S
C1152 H1176 0.950 . S
C1153 C1170 1.574 . S
C1153 C1172 1.368 . S
C1153 H1177 0.949 . S
H1154 C1158 0.949 . S
C1155 C1156 1.349 . S
C1155 C1157 1.327 . S
C1155 H1178 0.950 . S
C1156 C1155 1.349 . S
C1156 C1168 1.349 . S
C1157 C1155 1.327 . S
C1157 C1173 1.429 . S
C1157 H1179 0.950 . S
C1158 H1154 0.949 . S
C1158 C1166 1.574 . S
C1158 C1174 1.368 . S
H1159 C1167 0.950 . S
H1160 C1165 0.950 . S
H1161 C1166 0.949 . S
H1162 C1168 0.950 . S
H1163 C1169 0.950 . S
H1164 C1170 0.949 . S
C1165 H1160 0.950 . S
C1165 C1167 1.327 . S
C1165 C1171 1.429 . S
C1166 C1158 1.574 . S
C1166 H1161 0.949 . S
C1166 C1172 1.368 . S
C1167 C1151 1.349 . S
C1167 H1159 0.950 . S
C1167 C1165 1.327 . S
C1168 C1156 1.349 . S
C1168 H1162 0.950 . S
C1168 C1169 1.327 . S
C1169 H1163 0.950 . S
C1169 C1168 1.327 . S
C1169 C1173 1.429 . S
C1170 C1153 1.574 . S
C1170 H1164 0.949 . S
C1170 C1174 1.368 . S
C1171 C1152 1.429 . S
C1171 C1165 1.429 . S
C1171 C1172 1.523 . S
C1172 C1153 1.368 . S
C1172 C1166 1.368 . S
C1172 C1171 1.523 . S
C1173 C1157 1.429 . S
C1173 C1169 1.429 . S
C1173 C1174 1.523 . S
C1174 C1158 1.368 . S
C1174 C1170 1.368 . S
C1174 C1173 1.523 . S
H1175 C1150 0.950 . S
H1176 C1152 0.950 . S
H1177 C1153 0.949 . S
H1178 C1155 0.950 . S
H1179 C1157 0.950 . S
C1180 C1181 1.349 . S
C1180 C1182 1.327 . S
C1180 H1205 0.950 . S
C1181 C1180 1.349 . S
C1181 C1197 1.349 . S
C1182 C1180 1.327 . S
C1182 C1201 1.429 . S
C1182 H1206 0.950 . S
C1183 C1200 1.574 . S
C1183 C1202 1.368 . S
C1183 H1207 0.949 . S
H1184 C1188 0.949 . S
C1185 C1186 1.349 . S
C1185 C1187 1.327 . S
C1185 H1208 0.950 . S
C1186 C1185 1.349 . S
C1186 C1198 1.349 . S
C1187 C1185 1.327 . S
C1187 C1203 1.429 . S
C1187 H1209 0.950 . S
C1188 H1184 0.949 . S
C1188 C1196 1.574 . S
C1188 C1204 1.368 . S
H1189 C1197 0.950 . S
H1190 C1195 0.950 . S
H1191 C1196 0.949 . S
H1192 C1198 0.950 . S
H1193 C1199 0.950 . S
H1194 C1200 0.949 . S
C1195 H1190 0.950 . S
C1195 C1197 1.327 . S
C1195 C1201 1.429 . S
C1196 C1188 1.574 . S
C1196 H1191 0.949 . S
C1196 C1202 1.368 . S
C1197 C1181 1.349 . S
C1197 H1189 0.950 . S
C1197 C1195 1.327 . S
C1198 C1186 1.349 . S
C1198 H1192 0.950 . S
C1198 C1199 1.327 . S
C1199 H1193 0.950 . S
C1199 C1198 1.327 . S
C1199 C1203 1.429 . S
C1200 C1183 1.574 . S
C1200 H1194 0.949 . S
C1200 C1204 1.368 . S
C1201 C1182 1.429 . S
C1201 C1195 1.429 . S
C1201 C1202 1.523 . S
C1202 C1183 1.368 . S
C1202 C1196 1.368 . S
C1202 C1201 1.523 . S
C1203 C1187 1.429 . S
C1203 C1199 1.429 . S
C1203 C1204 1.523 . S
C1204 C1188 1.368 . S
C1204 C1200 1.368 . S
C1204 C1203 1.523 . S
H1205 C1180 0.950 . S
H1206 C1182 0.950 . S
H1207 C1183 0.949 . S
H1208 C1185 0.950 . S
H1209 C1187 0.950 . S
C1210 C1211 1.349 . S
C1210 C1212 1.327 . S
C1210 H1235 0.950 . S
C1211 C1210 1.349 . S
C1211 C1227 1.349 . S
C1212 C1210 1.327 . S
C1212 C1231 1.429 . S
C1212 H1236 0.950 . S
C1213 C1230 1.574 . S
C1213 C1232 1.368 . S
C1213 H1237 0.949 . S
H1214 C1218 0.949 . S
C1215 C1216 1.349 . S
C1215 C1217 1.327 . S
C1215 H1238 0.950 . S
C1216 C1215 1.349 . S
C1216 C1228 1.349 . S
C1217 C1215 1.327 . S
C1217 C1233 1.429 . S
C1217 H1239 0.950 . S
C1218 H1214 0.949 . S
C1218 C1226 1.574 . S
C1218 C1234 1.368 . S
H1219 C1227 0.950 . S
H1220 C1225 0.950 . S
H1221 C1226 0.949 . S
H1222 C1228 0.950 . S
H1223 C1229 0.950 . S
H1224 C1230 0.949 . S
C1225 H1220 0.950 . S
C1225 C1227 1.327 . S
C1225 C1231 1.429 . S
C1226 C1218 1.574 . S
C1226 H1221 0.949 . S
C1226 C1232 1.368 . S
C1227 C1211 1.349 . S
C1227 H1219 0.950 . S
C1227 C1225 1.327 . S
C1228 C1216 1.349 . S
C1228 H1222 0.950 . S
C1228 C1229 1.327 . S
C1229 H1223 0.950 . S
C1229 C1228 1.327 . S
C1229 C1233 1.429 . S
C1230 C1213 1.574 . S
C1230 H1224 0.949 . S
C1230 C1234 1.368 . S
C1231 C1212 1.429 . S
C1231 C1225 1.429 . S
C1231 C1232 1.523 . S
C1232 C1213 1.368 . S
C1232 C1226 1.368 . S
C1232 C1231 1.523 . S
C1233 C1217 1.429 . S
C1233 C1229 1.429 . S
C1233 C1234 1.523 . S
C1234 C1218 1.368 . S
C1234 C1230 1.368 . S
C1234 C1233 1.523 . S
H1235 C1210 0.950 . S
H1236 C1212 0.950 . S
H1237 C1213 0.949 . S
H1238 C1215 0.950 . S
H1239 C1217 0.950 . S
C1240 C1241 1.349 . S
C1240 C1242 1.327 . S
C1240 H1265 0.950 . S
C1241 C1240 1.349 . S
C1241 C1257 1.349 . S
C1242 C1240 1.327 . S
C1242 C1261 1.429 . S
C1242 H1266 0.950 . S
C1243 C1260 1.574 . S
C1243 C1262 1.368 . S
C1243 H1267 0.949 . S
H1244 C1248 0.949 . S
C1245 C1246 1.349 . S
C1245 C1247 1.327 . S
C1245 H1268 0.950 . S
C1246 C1245 1.349 . S
C1246 C1258 1.349 . S
C1247 C1245 1.327 . S
C1247 C1263 1.429 . S
C1247 H1269 0.950 . S
C1248 H1244 0.949 . S
C1248 C1256 1.574 . S
C1248 C1264 1.368 . S
H1249 C1257 0.950 . S
H1250 C1255 0.950 . S
H1251 C1256 0.949 . S
H1252 C1258 0.950 . S
H1253 C1259 0.950 . S
H1254 C1260 0.949 . S
C1255 H1250 0.950 . S
C1255 C1257 1.327 . S
C1255 C1261 1.429 . S
C1256 C1248 1.574 . S
C1256 H1251 0.949 . S
C1256 C1262 1.368 . S
C1257 C1241 1.349 . S
C1257 H1249 0.950 . S
C1257 C1255 1.327 . S
C1258 C1246 1.349 . S
C1258 H1252 0.950 . S
C1258 C1259 1.327 . S
C1259 H1253 0.950 . S
C1259 C1258 1.327 . S
C1259 C1263 1.429 . S
C1260 C1243 1.574 . S
C1260 H1254 0.949 . S
C1260 C1264 1.368 . S
C1261 C1242 1.429 . S
C1261 C1255 1.429 . S
C1261 C1262 1.523 . S
C1262 C1243 1.368 . S
C1262 C1256 1.368 . S
C1262 C1261 1.523 . S
C1263 C1247 1.429 . S
C1263 C1259 1.429 . S
C1263 C1264 1.523 . S
C1264 C1248 1.368 . S
C1264 C1260 1.368 . S
C1264 C1263 1.523 . S
H1265 C1240 0.950 . S
H1266 C1242 0.950 . S
H1267 C1243 0.949 . S
H1268 C1245 0.950 . S
H1269 C1247 0.950 . S
C1270 C1271 1.349 . S
C1270 C1272 1.327 . S
C1270 H1295 0.950 . S
C1271 C1270 1.349 . S
C1271 C1287 1.349 . S
C1272 C1270 1.327 . S
C1272 C1291 1.429 . S
C1272 H1296 0.950 . S
C1273 C1290 1.574 . S
C1273 C1292 1.368 . S
C1273 H1297 0.949 . S
H1274 C1278 0.949 . S
C1275 C1276 1.349 . S
C1275 C1277 1.327 . S
C1275 H1298 0.950 . S
C1276 C1275 1.349 . S
C1276 C1288 1.349 . S
C1277 C1275 1.327 . S
C1277 C1293 1.429 . S
C1277 H1299 0.950 . S
C1278 H1274 0.949 . S
C1278 C1286 1.574 . S
C1278 C1294 1.368 . S
H1279 C1287 0.950 . S
H1280 C1285 0.950 . S
H1281 C1286 0.949 . S
H1282 C1288 0.950 . S
H1283 C1289 0.950 . S
H1284 C1290 0.949 . S
C1285 H1280 0.950 . S
C1285 C1287 1.327 . S
C1285 C1291 1.429 . S
C1286 C1278 1.574 . S
C1286 H1281 0.949 . S
C1286 C1292 1.368 . S
C1287 C1271 1.349 . S
C1287 H1279 0.950 . S
C1287 C1285 1.327 . S
C1288 C1276 1.349 . S
C1288 H1282 0.950 . S
C1288 C1289 1.327 . S
C1289 H1283 0.950 . S
C1289 C1288 1.327 . S
C1289 C1293 1.429 . S
C1290 C1273 1.574 . S
C1290 H1284 0.949 . S
C1290 C1294 1.368 . S
C1291 C1272 1.429 . S
C1291 C1285 1.429 . S
C1291 C1292 1.523 . S
C1292 C1273 1.368 . S
C1292 C1286 1.368 . S
C1292 C1291 1.523 . S
C1293 C1277 1.429 . S
C1293 C1289 1.429 . S
C1293 C1294 1.523 . S
C1294 C1278 1.368 . S
C1294 C1290 1.368 . S
C1294 C1293 1.523 . S
H1295 C1270 0.950 . S
H1296 C1272 0.950 . S
H1297 C1273 0.949 . S
H1298 C1275 0.950 . S
H1299 C1277 0.950 . S
C1300 C1301 1.349 . S
C1300 C1302 1.327 . S
C1300 H1325 0.950 . S
C1301 C1300 1.349 . S
C1301 C1317 1.349 . S
C1302 C1300 1.327 . S
C1302 C1321 1.429 . S
C1302 H1326 0.950 . S
C1303 C1320 1.574 . S
C1303 C1322 1.368 . S
C1303 H1327 0.949 . S
H1304 C1308 0.949 . S
C1305 C1306 1.349 . S
C1305 C1307 1.327 . S
C1305 H1328 0.950 . S
C1306 C1305 1.349 . S
C1306 C1318 1.349 . S
C1307 C1305 1.327 . S
C1307 C1323 1.429 . S
C1307 H1329 0.950 . S
C1308 H1304 0.949 . S
C1308 C1316 1.574 . S
C1308 C1324 1.368 . S
H1309 C1317 0.950 . S
H1310 C1315 0.950 . S
H1311 C1316 0.949 . S
H1312 C1318 0.950 . S
H1313 C1319 0.950 . S
H1314 C1320 0.949 . S
C1315 H1310 0.950 . S
C1315 C1317 1.327 . S
C1315 C1321 1.429 . S
C1316 C1308 1.574 . S
C1316 H1311 0.949 . S
C1316 C1322 1.368 . S
C1317 C1301 1.349 . S
C1317 H1309 0.950 . S
C1317 C1315 1.327 . S
C1318 C1306 1.349 . S
C1318 H1312 0.950 . S
C1318 C1319 1.327 . S
C1319 H1313 0.950 . S
C1319 C1318 1.327 . S
C1319 C1323 1.429 . S
C1320 C1303 1.574 . S
C1320 H1314 0.949 . S
C1320 C1324 1.368 . S
C1321 C1302 1.429 . S
C1321 C1315 1.429 . S
C1321 C1322 1.523 . S
C1322 C1303 1.368 . S
C1322 C1316 1.368 . S
C1322 C1321 1.523 . S
C1323 C1307 1.429 . S
C1323 C1319 1.429 . S
C1323 C1324 1.523 . S
C1324 C1308 1.368 . S
C1324 C1320 1.368 . S
C1324 C1323 1.523 . S
H1325 C1300 0.950 . S
H1326 C1302 0.950 . S
H1327 C1303 0.949 . S
H1328 C1305 0.950 . S
H1329 C1307 0.950 . S
C1330 C1331 1.349 . S
C1330 C1332 1.327 . S
C1330 H1355 0.950 . S
C1331 C1330 1.349 . S
C1331 C1347 1.349 . S
C1332 C1330 1.327 . S
C1332 C1351 1.429 . S
C1332 H1356 0.950 . S
C1333 C1350 1.574 . S
C1333 C1352 1.368 . S
C1333 H1357 0.949 . S
H1334 C1338 0.949 . S
C1335 C1336 1.349 . S
C1335 C1337 1.327 . S
C1335 H1358 0.950 . S
C1336 C1335 1.349 . S
C1336 C1348 1.349 . S
C1337 C1335 1.327 . S
C1337 C1353 1.429 . S
C1337 H1359 0.950 . S
C1338 H1334 0.949 . S
C1338 C1346 1.574 . S
C1338 C1354 1.368 . S
H1339 C1347 0.950 . S
H1340 C1345 0.950 . S
H1341 C1346 0.949 . S
H1342 C1348 0.950 . S
H1343 C1349 0.950 . S
H1344 C1350 0.949 . S
C1345 H1340 0.950 . S
C1345 C1347 1.327 . S
C1345 C1351 1.429 . S
C1346 C1338 1.574 . S
C1346 H1341 0.949 . S
C1346 C1352 1.368 . S
C1347 C1331 1.349 . S
C1347 H1339 0.950 . S
C1347 C1345 1.327 . S
C1348 C1336 1.349 . S
C1348 H1342 0.950 . S
C1348 C1349 1.327 . S
C1349 H1343 0.950 . S
C1349 C1348 1.327 . S
C1349 C1353 1.429 . S
C1350 C1333 1.574 . S
C1350 H1344 0.949 . S
C1350 C1354 1.368 . S
C1351 C1332 1.429 . S
C1351 C1345 1.429 . S
C1351 C1352 1.523 . S
C1352 C1333 1.368 . S
C1352 C1346 1.368 . S
C1352 C1351 1.523 . S
C1353 C1337 1.429 . S
C1353 C1349 1.429 . S
C1353 C1354 1.523 . S
C1354 C1338 1.368 . S
C1354 C1350 1.368 . S
C1354 C1353 1.523 . S
H1355 C1330 0.950 . S
H1356 C1332 0.950 . S
H1357 C1333 0.949 . S
H1358 C1335 0.950 . S
H1359 C1337 0.950 . S
C1360 C1361 1.349 . S
C1360 C1362 1.327 . S
C1360 H1385 0.950 . S
C1361 C1360 1.349 . S
C1361 C1377 1.349 . S
C1362 C1360 1.327 . S
C1362 C1381 1.429 . S
C1362 H1386 0.950 . S
C1363 C1380 1.574 . S
C1363 C1382 1.368 . S
C1363 H1387 0.949 . S
H1364 C1368 0.949 . S
C1365 C1366 1.349 1_556 S
C1365 C1367 1.327 . S
C1365 H1388 0.950 . S
C1366 C1365 1.349 1_554 S
C1366 C1378 1.349 . S
C1367 C1365 1.327 . S
C1367 C1383 1.429 . S
C1367 H1389 0.950 . S
C1368 H1364 0.949 . S
C1368 C1376 1.574 . S
C1368 C1384 1.368 . S
H1369 C1377 0.950 . S
H1370 C1375 0.950 . S
H1371 C1376 0.949 . S
H1372 C1378 0.950 . S
H1373 C1379 0.950 . S
H1374 C1380 0.949 . S
C1375 H1370 0.950 . S
C1375 C1377 1.327 . S
C1375 C1381 1.429 . S
C1376 C1368 1.574 . S
C1376 H1371 0.949 . S
C1376 C1382 1.368 . S
C1377 C1361 1.349 . S
C1377 H1369 0.950 . S
C1377 C1375 1.327 . S
C1378 C1366 1.349 . S
C1378 H1372 0.950 . S
C1378 C1379 1.327 1_554 S
C1379 H1373 0.950 . S
C1379 C1378 1.327 1_556 S
C1379 C1383 1.429 . S
C1380 C1363 1.574 . S
C1380 H1374 0.949 . S
C1380 C1384 1.368 . S
C1381 C1362 1.429 . S
C1381 C1375 1.429 . S
C1381 C1382 1.523 . S
C1382 C1363 1.368 . S
C1382 C1376 1.368 . S
C1382 C1381 1.523 . S
C1383 C1367 1.429 . S
C1383 C1379 1.429 . S
C1383 C1384 1.523 . S
C1384 C1368 1.368 . S
C1384 C1380 1.368 . S
C1384 C1383 1.523 . S
H1385 C1360 0.950 . S
H1386 C1362 0.950 . S
H1387 C1363 0.949 . S
H1388 C1365 0.950 . S
H1389 C1367 0.950 . S
C1390 C1391 1.349 . S
C1390 C1392 1.327 1_556 S
C1390 H1415 0.950 . S
C1391 C1390 1.349 . S
C1391 C1407 1.349 . S
C1392 C1390 1.327 1_554 S
C1392 C1411 1.429 . S
C1392 H1416 0.950 . S
C1393 C1410 1.574 . S
C1393 C1412 1.368 . S
C1393 H1417 0.949 . S
H1394 C1398 0.949 . S
C1395 C1396 1.349 . S
C1395 C1397 1.327 . S
C1395 H1418 0.950 . S
C1396 C1395 1.349 . S
C1396 C1408 1.349 . S
C1397 C1395 1.327 . S
C1397 C1413 1.429 . S
C1397 H1419 0.950 . S
C1398 H1394 0.949 . S
C1398 C1406 1.574 . S
C1398 C1414 1.368 . S
H1399 C1407 0.950 . S
H1400 C1405 0.950 . S
H1401 C1406 0.949 . S
H1402 C1408 0.950 . S
H1403 C1409 0.950 . S
H1404 C1410 0.949 . S
C1405 H1400 0.950 . S
C1405 C1407 1.327 1_554 S
C1405 C1411 1.429 . S
C1406 C1398 1.574 . S
C1406 H1401 0.949 . S
C1406 C1412 1.368 . S
C1407 C1391 1.349 . S
C1407 H1399 0.950 . S
C1407 C1405 1.327 1_556 S
C1408 C1396 1.349 . S
C1408 H1402 0.950 . S
C1408 C1409 1.327 . S
C1409 H1403 0.950 . S
C1409 C1408 1.327 . S
C1409 C1413 1.429 . S
C1410 C1393 1.574 . S
C1410 H1404 0.949 . S
C1410 C1414 1.368 . S
C1411 C1392 1.429 . S
C1411 C1405 1.429 . S
C1411 C1412 1.523 . S
C1412 C1393 1.368 . S
C1412 C1406 1.368 . S
C1412 C1411 1.523 . S
C1413 C1397 1.429 . S
C1413 C1409 1.429 . S
C1413 C1414 1.523 . S
C1414 C1398 1.368 . S
C1414 C1410 1.368 . S
C1414 C1413 1.523 . S
H1415 C1390 0.950 . S
H1416 C1392 0.950 . S
H1417 C1393 0.949 . S
H1418 C1395 0.950 . S
H1419 C1397 0.950 . S
C1420 C1421 1.349 1_556 S
C1420 C1422 1.327 . S
C1420 H1445 0.950 . S
C1421 C1420 1.349 1_554 S
C1421 C1437 1.349 . S
C1422 C1420 1.327 . S
C1422 C1441 1.429 . S
C1422 H1446 0.950 . S
C1423 C1440 1.574 . S
C1423 C1442 1.368 . S
C1423 H1447 0.949 . S
H1424 C1428 0.949 . S
C1425 C1426 1.349 . S
C1425 C1427 1.327 . S
C1425 H1448 0.950 . S
C1426 C1425 1.349 . S
C1426 C1438 1.349 . S
C1427 C1425 1.327 . S
C1427 C1443 1.429 . S
C1427 H1449 0.950 . S
C1428 H1424 0.949 . S
C1428 C1436 1.574 . S
C1428 C1444 1.368 . S
H1429 C1437 0.950 . S
H1430 C1435 0.950 . S
H1431 C1436 0.949 . S
H1432 C1438 0.950 . S
H1433 C1439 0.950 . S
H1434 C1440 0.949 . S
C1435 H1430 0.950 . S
C1435 C1437 1.327 1_556 S
C1435 C1441 1.429 . S
C1436 C1428 1.574 . S
C1436 H1431 0.949 . S
C1436 C1442 1.368 . S
C1437 C1421 1.349 . S
C1437 H1429 0.950 . S
C1437 C1435 1.327 1_554 S
C1438 C1426 1.349 . S
C1438 H1432 0.950 . S
C1438 C1439 1.327 . S
C1439 H1433 0.950 . S
C1439 C1438 1.327 . S
C1439 C1443 1.429 . S
C1440 C1423 1.574 . S
C1440 H1434 0.949 . S
C1440 C1444 1.368 . S
C1441 C1422 1.429 . S
C1441 C1435 1.429 . S
C1441 C1442 1.523 . S
C1442 C1423 1.368 . S
C1442 C1436 1.368 . S
C1442 C1441 1.523 . S
C1443 C1427 1.429 . S
C1443 C1439 1.429 . S
C1443 C1444 1.523 . S
C1444 C1428 1.368 . S
C1444 C1440 1.368 . S
C1444 C1443 1.523 . S
H1445 C1420 0.950 . S
H1446 C1422 0.950 . S
H1447 C1423 0.949 . S
H1448 C1425 0.950 . S
H1449 C1427 0.950 . S
C1450 C1451 1.349 . S
C1450 C1452 1.327 1_556 S
C1450 H1475 0.950 . S
C1451 C1450 1.349 . S
C1451 C1467 1.349 . S
C1452 C1450 1.327 1_554 S
C1452 C1471 1.429 . S
C1452 H1476 0.950 . S
C1453 C1470 1.574 . S
C1453 C1472 1.368 . S
C1453 H1477 0.949 . S
H1454 C1458 0.949 . S
C1455 C1456 1.349 . S
C1455 C1457 1.327 . S
C1455 H1478 0.950 . S
C1456 C1455 1.349 . S
C1456 C1468 1.349 . S
C1457 C1455 1.327 . S
C1457 C1473 1.429 . S
C1457 H1479 0.950 . S
C1458 H1454 0.949 . S
C1458 C1466 1.574 . S
C1458 C1474 1.368 . S
H1459 C1467 0.950 . S
H1460 C1465 0.950 . S
H1461 C1466 0.949 . S
H1462 C1468 0.950 . S
H1463 C1469 0.950 . S
H1464 C1470 0.949 . S
C1465 H1460 0.950 . S
C1465 C1467 1.327 1_554 S
C1465 C1471 1.429 . S
C1466 C1458 1.574 . S
C1466 H1461 0.949 . S
C1466 C1472 1.368 . S
C1467 C1451 1.349 . S
C1467 H1459 0.950 . S
C1467 C1465 1.327 1_556 S
C1468 C1456 1.349 . S
C1468 H1462 0.950 . S
C1468 C1469 1.327 . S
C1469 H1463 0.950 . S
C1469 C1468 1.327 . S
C1469 C1473 1.429 . S
C1470 C1453 1.574 . S
C1470 H1464 0.949 . S
C1470 C1474 1.368 . S
C1471 C1452 1.429 . S
C1471 C1465 1.429 . S
C1471 C1472 1.523 . S
C1472 C1453 1.368 . S
C1472 C1466 1.368 . S
C1472 C1471 1.523 . S
C1473 C1457 1.429 . S
C1473 C1469 1.429 . S
C1473 C1474 1.523 . S
C1474 C1458 1.368 . S
C1474 C1470 1.368 . S
C1474 C1473 1.523 . S
H1475 C1450 0.950 . S
H1476 C1452 0.950 . S
H1477 C1453 0.949 . S
H1478 C1455 0.950 . S
H1479 C1457 0.950 . S
C1480 C1481 1.349 . S
C1480 C1482 1.327 . S
C1480 H1505 0.950 . S
C1481 C1480 1.349 . S
C1481 C1497 1.349 . S
C1482 C1480 1.327 . S
C1482 C1501 1.429 . S
C1482 H1506 0.950 . S
C1483 C1500 1.574 . S
C1483 C1502 1.368 . S
C1483 H1507 0.949 . S
H1484 C1488 0.949 . S
C1485 C1486 1.349 . S
C1485 C1487 1.327 . S
C1485 H1508 0.950 . S
C1486 C1485 1.349 . S
C1486 C1498 1.349 . S
C1487 C1485 1.327 . S
C1487 C1503 1.429 . S
C1487 H1509 0.950 . S
C1488 H1484 0.949 . S
C1488 C1496 1.574 . S
C1488 C1504 1.368 . S
H1489 C1497 0.950 . S
H1490 C1495 0.950 . S
H1491 C1496 0.949 . S
H1492 C1498 0.950 . S
H1493 C1499 0.950 . S
H1494 C1500 0.949 . S
C1495 H1490 0.950 . S
C1495 C1497 1.327 . S
C1495 C1501 1.429 . S
C1496 C1488 1.574 . S
C1496 H1491 0.949 . S
C1496 C1502 1.368 . S
C1497 C1481 1.349 . S
C1497 H1489 0.950 . S
C1497 C1495 1.327 . S
C1498 C1486 1.349 . S
C1498 H1492 0.950 . S
C1498 C1499 1.327 . S
C1499 H1493 0.950 . S
C1499 C1498 1.327 . S
C1499 C1503 1.429 . S
C1500 C1483 1.574 . S
C1500 H1494 0.949 . S
C1500 C1504 1.368 . S
C1501 C1482 1.429 . S
C1501 C1495 1.429 . S
C1501 C1502 1.523 . S
C1502 C1483 1.368 . S
C1502 C1496 1.368 . S
C1502 C1501 1.523 . S
C1503 C1487 1.429 . S
C1503 C1499 1.429 . S
C1503 C1504 1.523 . S
C1504 C1488 1.368 . S
C1504 C1500 1.368 . S
C1504 C1503 1.523 . S
H1505 C1480 0.950 . S
H1506 C1482 0.950 . S
H1507 C1483 0.949 . S
H1508 C1485 0.950 . S
H1509 C1487 0.950 . S
C1510 C1511 1.349 . S
C1510 C1512 1.327 . S
C1510 H1535 0.950 . S
C1511 C1510 1.349 . S
C1511 C1527 1.349 . S
C1512 C1510 1.327 . S
C1512 C1531 1.429 . S
C1512 H1536 0.950 . S
C1513 C1530 1.574 . S
C1513 C1532 1.368 . S
C1513 H1537 0.949 . S
H1514 C1518 0.949 . S
C1515 C1516 1.349 . S
C1515 C1517 1.327 . S
C1515 H1538 0.950 . S
C1516 C1515 1.349 . S
C1516 C1528 1.349 . S
C1517 C1515 1.327 . S
C1517 C1533 1.429 . S
C1517 H1539 0.950 . S
C1518 H1514 0.949 . S
C1518 C1526 1.574 . S
C1518 C1534 1.368 . S
H1519 C1527 0.950 . S
H1520 C1525 0.950 . S
H1521 C1526 0.949 . S
H1522 C1528 0.950 . S
H1523 C1529 0.950 . S
H1524 C1530 0.949 . S
C1525 H1520 0.950 . S
C1525 C1527 1.327 . S
C1525 C1531 1.429 . S
C1526 C1518 1.574 . S
C1526 H1521 0.949 . S
C1526 C1532 1.368 . S
C1527 C1511 1.349 . S
C1527 H1519 0.950 . S
C1527 C1525 1.327 . S
C1528 C1516 1.349 . S
C1528 H1522 0.950 . S
C1528 C1529 1.327 . S
C1529 H1523 0.950 . S
C1529 C1528 1.327 . S
C1529 C1533 1.429 . S
C1530 C1513 1.574 . S
C1530 H1524 0.949 . S
C1530 C1534 1.368 . S
C1531 C1512 1.429 . S
C1531 C1525 1.429 . S
C1531 C1532 1.523 . S
C1532 C1513 1.368 . S
C1532 C1526 1.368 . S
C1532 C1531 1.523 . S
C1533 C1517 1.429 . S
C1533 C1529 1.429 . S
C1533 C1534 1.523 . S
C1534 C1518 1.368 . S
C1534 C1530 1.368 . S
C1534 C1533 1.523 . S
H1535 C1510 0.950 . S
H1536 C1512 0.950 . S
H1537 C1513 0.949 . S
H1538 C1515 0.950 . S
H1539 C1517 0.950 . S
C1540 C1541 1.349 . S
C1540 C1542 1.327 . S
C1540 H1565 0.950 . S
C1541 C1540 1.349 . S
C1541 C1557 1.349 . S
C1542 C1540 1.327 . S
C1542 C1561 1.429 . S
C1542 H1566 0.950 . S
C1543 C1560 1.574 . S
C1543 C1562 1.368 . S
C1543 H1567 0.949 . S
H1544 C1548 0.949 . S
C1545 C1546 1.349 . S
C1545 C1547 1.327 . S
C1545 H1568 0.950 . S
C1546 C1545 1.349 . S
C1546 C1558 1.349 . S
C1547 C1545 1.327 . S
C1547 C1563 1.429 . S
C1547 H1569 0.950 . S
C1548 H1544 0.949 . S
C1548 C1556 1.574 . S
C1548 C1564 1.368 . S
H1549 C1557 0.950 . S
H1550 C1555 0.950 . S
H1551 C1556 0.949 . S
H1552 C1558 0.950 . S
H1553 C1559 0.950 . S
H1554 C1560 0.949 . S
C1555 H1550 0.950 . S
C1555 C1557 1.327 . S
C1555 C1561 1.429 . S
C1556 C1548 1.574 . S
C1556 H1551 0.949 . S
C1556 C1562 1.368 . S
C1557 C1541 1.349 . S
C1557 H1549 0.950 . S
C1557 C1555 1.327 . S
C1558 C1546 1.349 . S
C1558 H1552 0.950 . S
C1558 C1559 1.327 . S
C1559 H1553 0.950 . S
C1559 C1558 1.327 . S
C1559 C1563 1.429 . S
C1560 C1543 1.574 . S
C1560 H1554 0.949 . S
C1560 C1564 1.368 . S
C1561 C1542 1.429 . S
C1561 C1555 1.429 . S
C1561 C1562 1.523 . S
C1562 C1543 1.368 . S
C1562 C1556 1.368 . S
C1562 C1561 1.523 . S
C1563 C1547 1.429 . S
C1563 C1559 1.429 . S
C1563 C1564 1.523 . S
C1564 C1548 1.368 . S
C1564 C1560 1.368 . S
C1564 C1563 1.523 . S
H1565 C1540 0.950 . S
H1566 C1542 0.950 . S
H1567 C1543 0.949 . S
H1568 C1545 0.950 . S
H1569 C1547 0.950 . S
C1570 C1571 1.349 . S
C1570 C1572 1.327 . S
C1570 H1595 0.950 . S
C1571 C1570 1.349 . S
C1571 C1587 1.349 . S
C1572 C1570 1.327 . S
C1572 C1591 1.429 . S
C1572 H1596 0.950 . S
C1573 C1590 1.574 . S
C1573 C1592 1.368 . S
C1573 H1597 0.949 . S
H1574 C1578 0.949 . S
C1575 C1576 1.349 . S
C1575 C1577 1.327 . S
C1575 H1598 0.950 . S
C1576 C1575 1.349 . S
C1576 C1588 1.349 . S
C1577 C1575 1.327 . S
C1577 C1593 1.429 . S
C1577 H1599 0.950 . S
C1578 H1574 0.949 . S
C1578 C1586 1.574 . S
C1578 C1594 1.368 . S
H1579 C1587 0.950 . S
H1580 C1585 0.950 . S
H1581 C1586 0.949 . S
H1582 C1588 0.950 . S
H1583 C1589 0.950 . S
H1584 C1590 0.949 . S
C1585 H1580 0.950 . S
C1585 C1587 1.327 . S
C1585 C1591 1.429 . S
C1586 C1578 1.574 . S
C1586 H1581 0.949 . S
C1586 C1592 1.368 . S
C1587 C1571 1.349 . S
C1587 H1579 0.950 . S
C1587 C1585 1.327 . S
C1588 C1576 1.349 . S
C1588 H1582 0.950 . S
C1588 C1589 1.327 . S
C1589 H1583 0.950 . S
C1589 C1588 1.327 . S
C1589 C1593 1.429 . S
C1590 C1573 1.574 . S
C1590 H1584 0.949 . S
C1590 C1594 1.368 . S
C1591 C1572 1.429 . S
C1591 C1585 1.429 . S
C1591 C1592 1.523 . S
C1592 C1573 1.368 . S
C1592 C1586 1.368 . S
C1592 C1591 1.523 . S
C1593 C1577 1.429 . S
C1593 C1589 1.429 . S
C1593 C1594 1.523 . S
C1594 C1578 1.368 . S
C1594 C1590 1.368 . S
C1594 C1593 1.523 . S
H1595 C1570 0.950 . S
H1596 C1572 0.950 . S
H1597 C1573 0.949 . S
H1598 C1575 0.950 . S
H1599 C1577 0.950 . S
C1600 C1601 1.349 . S
C1600 C1602 1.327 . S
C1600 H1625 0.950 . S
C1601 C1600 1.349 . S
C1601 C1617 1.349 . S
C1602 C1600 1.327 . S
C1602 C1621 1.429 . S
C1602 H1626 0.950 . S
C1603 C1620 1.574 . S
C1603 C1622 1.368 . S
C1603 H1627 0.949 . S
H1604 C1608 0.949 . S
C1605 C1606 1.349 . S
C1605 C1607 1.327 . S
C1605 H1628 0.950 . S
C1606 C1605 1.349 . S
C1606 C1618 1.349 . S
C1607 C1605 1.327 . S
C1607 C1623 1.429 . S
C1607 H1629 0.950 . S
C1608 H1604 0.949 . S
C1608 C1616 1.574 . S
C1608 C1624 1.368 . S
H1609 C1617 0.950 . S
H1610 C1615 0.950 . S
H1611 C1616 0.949 . S
H1612 C1618 0.950 . S
H1613 C1619 0.950 . S
H1614 C1620 0.949 . S
C1615 H1610 0.950 . S
C1615 C1617 1.327 . S
C1615 C1621 1.429 . S
C1616 C1608 1.574 . S
C1616 H1611 0.949 . S
C1616 C1622 1.368 . S
C1617 C1601 1.349 . S
C1617 H1609 0.950 . S
C1617 C1615 1.327 . S
C1618 C1606 1.349 . S
C1618 H1612 0.950 . S
C1618 C1619 1.327 . S
C1619 H1613 0.950 . S
C1619 C1618 1.327 . S
C1619 C1623 1.429 . S
C1620 C1603 1.574 . S
C1620 H1614 0.949 . S
C1620 C1624 1.368 . S
C1621 C1602 1.429 . S
C1621 C1615 1.429 . S
C1621 C1622 1.523 . S
C1622 C1603 1.368 . S
C1622 C1616 1.368 . S
C1622 C1621 1.523 . S
C1623 C1607 1.429 . S
C1623 C1619 1.429 . S
C1623 C1624 1.523 . S
C1624 C1608 1.368 . S
C1624 C1620 1.368 . S
C1624 C1623 1.523 . S
H1625 C1600 0.950 . S
H1626 C1602 0.950 . S
H1627 C1603 0.949 . S
H1628 C1605 0.950 . S
H1629 C1607 0.950 . S
C1630 C1631 1.349 . S
C1630 C1632 1.327 . S
C1630 H1655 0.950 . S
C1631 C1630 1.349 . S
C1631 C1647 1.349 . S
C1632 C1630 1.327 . S
C1632 C1651 1.429 . S
C1632 H1656 0.950 . S
C1633 C1650 1.574 . S
C1633 C1652 1.368 . S
C1633 H1657 0.949 . S
H1634 C1638 0.949 . S
C1635 C1636 1.349 . S
C1635 C1637 1.327 . S
C1635 H1658 0.950 . S
C1636 C1635 1.349 . S
C1636 C1648 1.349 . S
C1637 C1635 1.327 . S
C1637 C1653 1.429 . S
C1637 H1659 0.950 . S
C1638 H1634 0.949 . S
C1638 C1646 1.574 . S
C1638 C1654 1.368 . S
H1639 C1647 0.950 . S
H1640 C1645 0.950 . S
H1641 C1646 0.949 . S
H1642 C1648 0.950 . S
H1643 C1649 0.950 . S
H1644 C1650 0.949 . S
C1645 H1640 0.950 . S
C1645 C1647 1.327 . S
C1645 C1651 1.429 . S
C1646 C1638 1.574 . S
C1646 H1641 0.949 . S
C1646 C1652 1.368 . S
C1647 C1631 1.349 . S
C1647 H1639 0.950 . S
C1647 C1645 1.327 . S
C1648 C1636 1.349 . S
C1648 H1642 0.950 . S
C1648 C1649 1.327 . S
C1649 H1643 0.950 . S
C1649 C1648 1.327 . S
C1649 C1653 1.429 . S
C1650 C1633 1.574 . S
C1650 H1644 0.949 . S
C1650 C1654 1.368 . S
C1651 C1632 1.429 . S
C1651 C1645 1.429 . S
C1651 C1652 1.523 . S
C1652 C1633 1.368 . S
C1652 C1646 1.368 . S
C1652 C1651 1.523 . S
C1653 C1637 1.429 . S
C1653 C1649 1.429 . S
C1653 C1654 1.523 . S
C1654 C1638 1.368 . S
C1654 C1650 1.368 . S
C1654 C1653 1.523 . S
H1655 C1630 0.950 . S
H1656 C1632 0.950 . S
H1657 C1633 0.949 . S
H1658 C1635 0.950 . S
H1659 C1637 0.950 . S
C1660 C1661 1.349 . S
C1660 C1662 1.327 . S
C1660 H1685 0.950 . S
C1661 C1660 1.349 . S
C1661 C1677 1.349 . S
C1662 C1660 1.327 . S
C1662 C1681 1.429 . S
C1662 H1686 0.950 . S
C1663 C1680 1.574 . S
C1663 C1682 1.368 . S
C1663 H1687 0.949 . S
H1664 C1668 0.949 . S
C1665 C1666 1.349 . S
C1665 C1667 1.327 . S
C1665 H1688 0.950 . S
C1666 C1665 1.349 . S
C1666 C1678 1.349 . S
C1667 C1665 1.327 . S
C1667 C1683 1.429 . S
C1667 H1689 0.950 . S
C1668 H1664 0.949 . S
C1668 C1676 1.574 . S
C1668 C1684 1.368 . S
H1669 C1677 0.950 . S
H1670 C1675 0.950 . S
H1671 C1676 0.949 . S
H1672 C1678 0.950 . S
H1673 C1679 0.950 . S
H1674 C1680 0.949 . S
C1675 H1670 0.950 . S
C1675 C1677 1.327 . S
C1675 C1681 1.429 . S
C1676 C1668 1.574 . S
C1676 H1671 0.949 . S
C1676 C1682 1.368 . S
C1677 C1661 1.349 . S
C1677 H1669 0.950 . S
C1677 C1675 1.327 . S
C1678 C1666 1.349 . S
C1678 H1672 0.950 . S
C1678 C1679 1.327 . S
C1679 H1673 0.950 . S
C1679 C1678 1.327 . S
C1679 C1683 1.429 . S
C1680 C1663 1.574 . S
C1680 H1674 0.949 . S
C1680 C1684 1.368 . S
C1681 C1662 1.429 . S
C1681 C1675 1.429 . S
C1681 C1682 1.523 . S
C1682 C1663 1.368 . S
C1682 C1676 1.368 . S
C1682 C1681 1.523 . S
C1683 C1667 1.429 . S
C1683 C1679 1.429 . S
C1683 C1684 1.523 . S
C1684 C1668 1.368 . S
C1684 C1680 1.368 . S
C1684 C1683 1.523 . S
H1685 C1660 0.950 . S
H1686 C1662 0.950 . S
H1687 C1663 0.949 . S
H1688 C1665 0.950 . S
H1689 C1667 0.950 . S
C1690 C1691 1.349 . S
C1690 C1692 1.327 . S
C1690 H1715 0.950 . S
C1691 C1690 1.349 . S
C1691 C1707 1.349 . S
C1692 C1690 1.327 . S
C1692 C1711 1.429 . S
C1692 H1716 0.950 . S
C1693 C1710 1.574 . S
C1693 C1712 1.368 . S
C1693 H1717 0.949 . S
H1694 C1698 0.949 . S
C1695 C1696 1.349 . S
C1695 C1697 1.327 . S
C1695 H1718 0.950 . S
C1696 C1695 1.349 . S
C1696 C1708 1.349 . S
C1697 C1695 1.327 . S
C1697 C1713 1.429 . S
C1697 H1719 0.950 . S
C1698 H1694 0.949 . S
C1698 C1706 1.574 . S
C1698 C1714 1.368 . S
H1699 C1707 0.950 . S
H1700 C1705 0.950 . S
H1701 C1706 0.949 . S
H1702 C1708 0.950 . S
H1703 C1709 0.950 . S
H1704 C1710 0.949 . S
C1705 H1700 0.950 . S
C1705 C1707 1.327 . S
C1705 C1711 1.429 . S
C1706 C1698 1.574 . S
C1706 H1701 0.949 . S
C1706 C1712 1.368 . S
C1707 C1691 1.349 . S
C1707 H1699 0.950 . S
C1707 C1705 1.327 . S
C1708 C1696 1.349 . S
C1708 H1702 0.950 . S
C1708 C1709 1.327 . S
C1709 H1703 0.950 . S
C1709 C1708 1.327 . S
C1709 C1713 1.429 . S
C1710 C1693 1.574 . S
C1710 H1704 0.949 . S
C1710 C1714 1.368 . S
C1711 C1692 1.429 . S
C1711 C1705 1.429 . S
C1711 C1712 1.523 . S
C1712 C1693 1.368 . S
C1712 C1706 1.368 . S
C1712 C1711 1.523 . S
C1713 C1697 1.429 . S
C1713 C1709 1.429 . S
C1713 C1714 1.523 . S
C1714 C1698 1.368 . S
C1714 C1710 1.368 . S
C1714 C1713 1.523 . S
H1715 C1690 0.950 . S
H1716 C1692 0.950 . S
H1717 C1693 0.949 . S
H1718 C1695 0.950 . S
H1719 C1697 0.950 . S
C1720 C1721 1.349 . S
C1720 C1722 1.327 . S
C1720 H1745 0.950 . S
C1721 C1720 1.349 . S
C1721 C1737 1.349 . S
C1722 C1720 1.327 . S
C1722 C1741 1.429 . S
C1722 H1746 0.950 . S
C1723 C1740 1.574 . S
C1723 C1742 1.368 . S
C1723 H1747 0.949 . S
H1724 C1728 0.949 . S
C1725 C1726 1.349 . S
C1725 C1727 1.327 . S
C1725 H1748 0.950 . S
C1726 C1725 1.349 . S
C1726 C1738 1.349 . S
C1727 C1725 1.327 . S
C1727 C1743 1.429 . S
C1727 H1749 0.950 . S
C1728 H1724 0.949 . S
C1728 C1736 1.574 . S
C1728 C1744 1.368 . S
H1729 C1737 0.950 . S
H1730 C1735 0.950 . S
H1731 C1736 0.949 . S
H1732 C1738 0.950 . S
H1733 C1739 0.950 . S
H1734 C1740 0.949 . S
C1735 H1730 0.950 . S
C1735 C1737 1.327 . S
C1735 C1741 1.429 . S
C1736 C1728 1.574 . S
C1736 H1731 0.949 . S
C1736 C1742 1.368 . S
C1737 C1721 1.349 . S
C1737 H1729 0.950 . S
C1737 C1735 1.327 . S
C1738 C1726 1.349 . S
C1738 H1732 0.950 . S
C1738 C1739 1.327 . S
C1739 H1733 0.950 . S
C1739 C1738 1.327 . S
C1739 C1743 1.429 . S
C1740 C1723 1.574 . S
C1740 H1734 0.949 . S
C1740 C1744 1.368 . S
C1741 C1722 1.429 . S
C1741 C1735 1.429 . S
C1741 C1742 1.523 . S
C1742 C1723 1.368 . S
C1742 C1736 1.368 . S
C1742 C1741 1.523 . S
C1743 C1727 1.429 . S
C1743 C1739 1.429 . S
C1743 C1744 1.523 . S
C1744 C1728 1.368 . S
C1744 C1740 1.368 . S
C1744 C1743 1.523 . S
H1745 C1720 0.950 . S
H1746 C1722 0.950 . S
H1747 C1723 0.949 . S
H1748 C1725 0.950 . S
H1749 C1727 0.950 . S
C1750 C1751 1.349 . S
C1750 C1752 1.327 . S
C1750 H1775 0.950 . S
C1751 C1750 1.349 . S
C1751 C1767 1.349 . S
C1752 C1750 1.327 . S
C1752 C1771 1.429 . S
C1752 H1776 0.950 . S
C1753 C1770 1.574 . S
C1753 C1772 1.368 . S
C1753 H1777 0.949 . S
H1754 C1758 0.949 . S
C1755 C1756 1.349 . S
C1755 C1757 1.327 . S
C1755 H1778 0.950 . S
C1756 C1755 1.349 . S
C1756 C1768 1.349 . S
C1757 C1755 1.327 . S
C1757 C1773 1.429 . S
C1757 H1779 0.950 . S
C1758 H1754 0.949 . S
C1758 C1766 1.574 . S
C1758 C1774 1.368 . S
H1759 C1767 0.950 . S
H1760 C1765 0.950 . S
H1761 C1766 0.949 . S
H1762 C1768 0.950 . S
H1763 C1769 0.950 . S
H1764 C1770 0.949 . S
C1765 H1760 0.950 . S
C1765 C1767 1.327 . S
C1765 C1771 1.429 . S
C1766 C1758 1.574 . S
C1766 H1761 0.949 . S
C1766 C1772 1.368 . S
C1767 C1751 1.349 . S
C1767 H1759 0.950 . S
C1767 C1765 1.327 . S
C1768 C1756 1.349 . S
C1768 H1762 0.950 . S
C1768 C1769 1.327 . S
C1769 H1763 0.950 . S
C1769 C1768 1.327 . S
C1769 C1773 1.429 . S
C1770 C1753 1.574 . S
C1770 H1764 0.949 . S
C1770 C1774 1.368 . S
C1771 C1752 1.429 . S
C1771 C1765 1.429 . S
C1771 C1772 1.523 . S
C1772 C1753 1.368 . S
C1772 C1766 1.368 . S
C1772 C1771 1.523 . S
C1773 C1757 1.429 . S
C1773 C1769 1.429 . S
C1773 C1774 1.523 . S
C1774 C1758 1.368 . S
C1774 C1770 1.368 . S
C1774 C1773 1.523 . S
H1775 C1750 0.950 . S
H1776 C1752 0.950 . S
H1777 C1753 0.949 . S
H1778 C1755 0.950 . S
H1779 C1757 0.950 . S
C1780 C1781 1.349 . S
C1780 C1782 1.327 . S
C1780 H1805 0.950 . S
C1781 C1780 1.349 . S
C1781 C1797 1.349 . S
C1782 C1780 1.327 . S
C1782 C1801 1.429 . S
C1782 H1806 0.950 . S
C1783 C1800 1.574 . S
C1783 C1802 1.368 . S
C1783 H1807 0.949 . S
H1784 C1788 0.949 . S
C1785 C1786 1.349 . S
C1785 C1787 1.327 . S
C1785 H1808 0.950 . S
C1786 C1785 1.349 . S
C1786 C1798 1.349 . S
C1787 C1785 1.327 . S
C1787 C1803 1.429 . S
C1787 H1809 0.950 . S
C1788 H1784 0.949 . S
C1788 C1796 1.574 . S
C1788 C1804 1.368 . S
H1789 C1797 0.950 . S
H1790 C1795 0.950 . S
H1791 C1796 0.949 . S
H1792 C1798 0.950 . S
H1793 C1799 0.950 . S
H1794 C1800 0.949 . S
C1795 H1790 0.950 . S
C1795 C1797 1.327 . S
C1795 C1801 1.429 . S
C1796 C1788 1.574 . S
C1796 H1791 0.949 . S
C1796 C1802 1.368 . S
C1797 C1781 1.349 . S
C1797 H1789 0.950 . S
C1797 C1795 1.327 . S
C1798 C1786 1.349 . S
C1798 H1792 0.950 . S
C1798 C1799 1.327 . S
C1799 H1793 0.950 . S
C1799 C1798 1.327 . S
C1799 C1803 1.429 . S
C1800 C1783 1.574 . S
C1800 H1794 0.949 . S
C1800 C1804 1.368 . S
C1801 C1782 1.429 . S
C1801 C1795 1.429 . S
C1801 C1802 1.523 . S
C1802 C1783 1.368 . S
C1802 C1796 1.368 . S
C1802 C1801 1.523 . S
C1803 C1787 1.429 . S
C1803 C1799 1.429 . S
C1803 C1804 1.523 . S
C1804 C1788 1.368 . S
C1804 C1800 1.368 . S
C1804 C1803 1.523 . S
H1805 C1780 0.950 . S
H1806 C1782 0.950 . S
H1807 C1783 0.949 . S
H1808 C1785 0.950 . S
H1809 C1787 0.950 . S
C1810 C1811 1.349 . S
C1810 C1812 1.327 . S
C1810 H1835 0.950 . S
C1811 C1810 1.349 . S
C1811 C1827 1.349 . S
C1812 C1810 1.327 . S
C1812 C1831 1.429 . S
C1812 H1836 0.950 . S
C1813 C1830 1.574 . S
C1813 C1832 1.368 . S
C1813 H1837 0.949 . S
H1814 C1818 0.949 . S
C1815 C1816 1.349 . S
C1815 C1817 1.327 . S
C1815 H1838 0.950 . S
C1816 C1815 1.349 . S
C1816 C1828 1.349 . S
C1817 C1815 1.327 . S
C1817 C1833 1.429 . S
C1817 H1839 0.950 . S
C1818 H1814 0.949 . S
C1818 C1826 1.574 . S
C1818 C1834 1.368 . S
H1819 C1827 0.950 . S
H1820 C1825 0.950 . S
H1821 C1826 0.949 . S
H1822 C1828 0.950 . S
H1823 C1829 0.950 . S
H1824 C1830 0.949 . S
C1825 H1820 0.950 . S
C1825 C1827 1.327 . S
C1825 C1831 1.429 . S
C1826 C1818 1.574 . S
C1826 H1821 0.949 . S
C1826 C1832 1.368 . S
C1827 C1811 1.349 . S
C1827 H1819 0.950 . S
C1827 C1825 1.327 . S
C1828 C1816 1.349 . S
C1828 H1822 0.950 . S
C1828 C1829 1.327 . S
C1829 H1823 0.950 . S
C1829 C1828 1.327 . S
C1829 C1833 1.429 . S
C1830 C1813 1.574 . S
C1830 H1824 0.949 . S
C1830 C1834 1.368 . S
C1831 C1812 1.429 . S
C1831 C1825 1.429 . S
C1831 C1832 1.523 . S
C1832 C1813 1.368 . S
C1832 C1826 1.368 . S
C1832 C1831 1.523 . S
C1833 C1817 1.429 . S
C1833 C1829 1.429 . S
C1833 C1834 1.523 . S
C1834 C1818 1.368 . S
C1834 C1830 1.368 . S
C1834 C1833 1.523 . S
H1835 C1810 0.950 . S
H1836 C1812 0.950 . S
H1837 C1813 0.949 . S
H1838 C1815 0.950 . S
H1839 C1817 0.950 . S
C1840 C1841 1.349 . S
C1840 C1842 1.327 1_556 S
C1840 H1865 0.950 . S
C1841 C1840 1.349 . S
C1841 C1857 1.349 . S
C1842 C1840 1.327 1_554 S
C1842 C1861 1.429 . S
C1842 H1866 0.950 . S
C1843 C1860 1.574 . S
C1843 C1862 1.368 . S
C1843 H1867 0.949 . S
H1844 C1848 0.949 . S
C1845 C1846 1.349 . S
C1845 C1847 1.327 . S
C1845 H1868 0.950 . S
C1846 C1845 1.349 . S
C1846 C1858 1.349 . S
C1847 C1845 1.327 . S
C1847 C1863 1.429 . S
C1847 H1869 0.950 . S
C1848 H1844 0.949 . S
C1848 C1856 1.574 . S
C1848 C1864 1.368 . S
H1849 C1857 0.950 . S
H1850 C1855 0.950 . S
H1851 C1856 0.949 . S
H1852 C1858 0.950 . S
H1853 C1859 0.950 . S
H1854 C1860 0.949 . S
C1855 H1850 0.950 . S
C1855 C1857 1.327 1_554 S
C1855 C1861 1.429 . S
C1856 C1848 1.574 . S
C1856 H1851 0.949 . S
C1856 C1862 1.368 . S
C1857 C1841 1.349 . S
C1857 H1849 0.950 . S
C1857 C1855 1.327 1_556 S
C1858 C1846 1.349 . S
C1858 H1852 0.950 . S
C1858 C1859 1.327 . S
C1859 H1853 0.950 . S
C1859 C1858 1.327 . S
C1859 C1863 1.429 . S
C1860 C1843 1.574 . S
C1860 H1854 0.949 . S
C1860 C1864 1.368 . S
C1861 C1842 1.429 . S
C1861 C1855 1.429 . S
C1861 C1862 1.523 . S
C1862 C1843 1.368 . S
C1862 C1856 1.368 . S
C1862 C1861 1.523 . S
C1863 C1847 1.429 . S
C1863 C1859 1.429 . S
C1863 C1864 1.523 . S
C1864 C1848 1.368 . S
C1864 C1860 1.368 . S
C1864 C1863 1.523 . S
H1865 C1840 0.950 . S
H1866 C1842 0.950 . S
H1867 C1843 0.949 . S
H1868 C1845 0.950 . S
H1869 C1847 0.950 . S
C1870 C1871 1.349 . S
C1870 C1872 1.327 . S
C1870 H1895 0.950 . S
C1871 C1870 1.349 . S
C1871 C1887 1.349 . S
C1872 C1870 1.327 . S
C1872 C1891 1.429 . S
C1872 H1896 0.950 . S
C1873 C1890 1.574 . S
C1873 C1892 1.368 . S
C1873 H1897 0.949 . S
H1874 C1878 0.949 . S
C1875 C1876 1.349 . S
C1875 C1877 1.327 1_554 S
C1875 H1898 0.950 . S
C1876 C1875 1.349 . S
C1876 C1888 1.349 . S
C1877 C1875 1.327 1_556 S
C1877 C1893 1.429 . S
C1877 H1899 0.950 . S
C1878 H1874 0.949 . S
C1878 C1886 1.574 . S
C1878 C1894 1.368 . S
H1879 C1887 0.950 . S
H1880 C1885 0.950 . S
H1881 C1886 0.949 . S
H1882 C1888 0.950 . S
H1883 C1889 0.950 . S
H1884 C1890 0.949 . S
C1885 H1880 0.950 . S
C1885 C1887 1.327 . S
C1885 C1891 1.429 . S
C1886 C1878 1.574 . S
C1886 H1881 0.949 . S
C1886 C1892 1.368 . S
C1887 C1871 1.349 . S
C1887 H1879 0.950 . S
C1887 C1885 1.327 . S
C1888 C1876 1.349 . S
C1888 H1882 0.950 . S
C1888 C1889 1.327 1_554 S
C1889 H1883 0.950 . S
C1889 C1888 1.327 1_556 S
C1889 C1893 1.429 . S
C1890 C1873 1.574 . S
C1890 H1884 0.949 . S
C1890 C1894 1.368 . S
C1891 C1872 1.429 . S
C1891 C1885 1.429 . S
C1891 C1892 1.523 . S
C1892 C1873 1.368 . S
C1892 C1886 1.368 . S
C1892 C1891 1.523 . S
C1893 C1877 1.429 . S
C1893 C1889 1.429 . S
C1893 C1894 1.523 . S
C1894 C1878 1.368 . S
C1894 C1890 1.368 . S
C1894 C1893 1.523 . S
H1895 C1870 0.950 . S
H1896 C1872 0.950 . S
H1897 C1873 0.949 . S
H1898 C1875 0.950 . S
H1899 C1877 0.950 . S
C1900 C1901 1.349 . S
C1900 C1902 1.327 . S
C1900 H1925 0.950 . S
C1901 C1900 1.349 . S
C1901 C1917 1.349 . S
C1902 C1900 1.327 . S
C1902 C1921 1.429 . S
C1902 H1926 0.950 . S
C1903 C1920 1.574 . S
C1903 C1922 1.368 . S
C1903 H1927 0.949 . S
H1904 C1908 0.949 . S
C1905 C1906 1.349 . S
C1905 C1907 1.327 1_556 S
C1905 H1928 0.950 . S
C1906 C1905 1.349 . S
C1906 C1918 1.349 . S
C1907 C1905 1.327 1_554 S
C1907 C1923 1.429 . S
C1907 H1929 0.950 . S
C1908 H1904 0.949 . S
C1908 C1916 1.574 . S
C1908 C1924 1.368 . S
H1909 C1917 0.950 . S
H1910 C1915 0.950 . S
H1911 C1916 0.949 . S
H1912 C1918 0.950 . S
H1913 C1919 0.950 . S
H1914 C1920 0.949 . S
C1915 H1910 0.950 . S
C1915 C1917 1.327 . S
C1915 C1921 1.429 . S
C1916 C1908 1.574 . S
C1916 H1911 0.949 . S
C1916 C1922 1.368 . S
C1917 C1901 1.349 . S
C1917 H1909 0.950 . S
C1917 C1915 1.327 . S
C1918 C1906 1.349 . S
C1918 H1912 0.950 . S
C1918 C1919 1.327 1_556 S
C1919 H1913 0.950 . S
C1919 C1918 1.327 1_554 S
C1919 C1923 1.429 . S
C1920 C1903 1.574 . S
C1920 H1914 0.949 . S
C1920 C1924 1.368 . S
C1921 C1902 1.429 . S
C1921 C1915 1.429 . S
C1921 C1922 1.523 . S
C1922 C1903 1.368 . S
C1922 C1916 1.368 . S
C1922 C1921 1.523 . S
C1923 C1907 1.429 . S
C1923 C1919 1.429 . S
C1923 C1924 1.523 . S
C1924 C1908 1.368 . S
C1924 C1920 1.368 . S
C1924 C1923 1.523 . S
H1925 C1900 0.950 . S
H1926 C1902 0.950 . S
H1927 C1903 0.949 . S
H1928 C1905 0.950 . S
H1929 C1907 0.950 . S
C1930 C1931 1.349 . S
C1930 C1932 1.327 1_554 S
C1930 H1955 0.950 . S
C1931 C1930 1.349 . S
C1931 C1947 1.349 . S
C1932 C1930 1.327 1_556 S
C1932 C1951 1.429 . S
C1932 H1956 0.950 . S
C1933 C1950 1.574 . S
C1933 C1952 1.368 . S
C1933 H1957 0.949 . S
H1934 C1938 0.949 . S
C1935 C1936 1.349 . S
C1935 C1937 1.327 . S
C1935 H1958 0.950 . S
C1936 C1935 1.349 . S
C1936 C1948 1.349 . S
C1937 C1935 1.327 . S
C1937 C1953 1.429 . S
C1937 H1959 0.950 . S
C1938 H1934 0.949 . S
C1938 C1946 1.574 . S
C1938 C1954 1.368 . S
H1939 C1947 0.950 . S
H1940 C1945 0.950 . S
H1941 C1946 0.949 . S
H1942 C1948 0.950 . S
H1943 C1949 0.950 . S
H1944 C1950 0.949 . S
C1945 H1940 0.950 . S
C1945 C1947 1.327 1_556 S
C1945 C1951 1.429 . S
C1946 C1938 1.574 . S
C1946 H1941 0.949 . S
C1946 C1952 1.368 . S
C1947 C1931 1.349 . S
C1947 H1939 0.950 . S
C1947 C1945 1.327 1_554 S
C1948 C1936 1.349 . S
C1948 H1942 0.950 . S
C1948 C1949 1.327 . S
C1949 H1943 0.950 . S
C1949 C1948 1.327 . S
C1949 C1953 1.429 . S
C1950 C1933 1.574 . S
C1950 H1944 0.949 . S
C1950 C1954 1.368 . S
C1951 C1932 1.429 . S
C1951 C1945 1.429 . S
C1951 C1952 1.523 . S
C1952 C1933 1.368 . S
C1952 C1946 1.368 . S
C1952 C1951 1.523 . S
C1953 C1937 1.429 . S
C1953 C1949 1.429 . S
C1953 C1954 1.523 . S
C1954 C1938 1.368 . S
C1954 C1950 1.368 . S
C1954 C1953 1.523 . S
H1955 C1930 0.950 . S
H1956 C1932 0.950 . S
H1957 C1933 0.949 . S
H1958 C1935 0.950 . S
H1959 C1937 0.950 . S
C1960 C1961 1.349 . S
C1960 C1962 1.327 . S
C1960 H1985 0.950 . S
C1961 C1960 1.349 . S
C1961 C1977 1.349 . S
C1962 C1960 1.327 . S
C1962 C1981 1.429 . S
C1962 H1986 0.950 . S
C1963 C1980 1.574 . S
C1963 C1982 1.368 . S
C1963 H1987 0.949 . S
H1964 C1968 0.949 . S
C1965 C1966 1.349 . S
C1965 C1967 1.327 1_556 S
C1965 H1988 0.950 . S
C1966 C1965 1.349 . S
C1966 C1978 1.349 . S
C1967 C1965 1.327 1_554 S
C1967 C1983 1.429 . S
C1967 H1989 0.950 . S
C1968 H1964 0.949 . S
C1968 C1976 1.574 . S
C1968 C1984 1.368 . S
H1969 C1977 0.950 . S
H1970 C1975 0.950 . S
H1971 C1976 0.949 . S
H1972 C1978 0.950 . S
H1973 C1979 0.950 . S
H1974 C1980 0.949 . S
C1975 H1970 0.950 . S
C1975 C1977 1.327 . S
C1975 C1981 1.429 . S
C1976 C1968 1.574 . S
C1976 H1971 0.949 . S
C1976 C1982 1.368 . S
C1977 C1961 1.349 . S
C1977 H1969 0.950 . S
C1977 C1975 1.327 . S
C1978 C1966 1.349 . S
C1978 H1972 0.950 . S
C1978 C1979 1.327 1_556 S
C1979 H1973 0.950 . S
C1979 C1978 1.327 1_554 S
C1979 C1983 1.429 . S
C1980 C1963 1.574 . S
C1980 H1974 0.949 . S
C1980 C1984 1.368 . S
C1981 C1962 1.429 . S
C1981 C1975 1.429 . S
C1981 C1982 1.523 . S
C1982 C1963 1.368 . S
C1982 C1976 1.368 . S
C1982 C1981 1.523 . S
C1983 C1967 1.429 . S
C1983 C1979 1.429 . S
C1983 C1984 1.523 . S
C1984 C1968 1.368 . S
C1984 C1980 1.368 . S
C1984 C1983 1.523 . S
H1985 C1960 0.950 . S
H1986 C1962 0.950 . S
H1987 C1963 0.949 . S
H1988 C1965 0.950 . S
H1989 C1967 0.950 . S
C1990 C1991 1.349 . S
C1990 C1992 1.327 1_554 S
C1990 H2015 0.950 . S
C1991 C1990 1.349 . S
C1991 C2007 1.349 . S
C1992 C1990 1.327 1_556 S
C1992 C2011 1.429 . S
C1992 H2016 0.950 . S
C1993 C2010 1.574 . S
C1993 C2012 1.368 . S
C1993 H2017 0.949 . S
H1994 C1998 0.949 . S
C1995 C1996 1.349 . S
C1995 C1997 1.327 . S
C1995 H2018 0.950 . S
C1996 C1995 1.349 . S
C1996 C2008 1.349 . S
C1997 C1995 1.327 . S
C1997 C2013 1.429 . S
C1997 H2019 0.950 . S
C1998 H1994 0.949 . S
C1998 C2006 1.574 . S
C1998 C2014 1.368 . S
H1999 C2007 0.950 . S
H2000 C2005 0.950 . S
H2001 C2006 0.949 . S
H2002 C2008 0.950 . S
H2003 C2009 0.950 . S
H2004 C2010 0.949 . S
C2005 H2000 0.950 . S
C2005 C2007 1.327 1_556 S
C2005 C2011 1.429 . S
C2006 C1998 1.574 . S
C2006 H2001 0.949 . S
C2006 C2012 1.368 . S
C2007 C1991 1.349 . S
C2007 H1999 0.950 . S
C2007 C2005 1.327 1_554 S
C2008 C1996 1.349 . S
C2008 H2002 0.950 . S
C2008 C2009 1.327 . S
C2009 H2003 0.950 . S
C2009 C2008 1.327 . S
C2009 C2013 1.429 . S
C2010 C1993 1.574 . S
C2010 H2004 0.949 . S
C2010 C2014 1.368 . S
C2011 C1992 1.429 . S
C2011 C2005 1.429 . S
C2011 C2012 1.523 . S
C2012 C1993 1.368 . S
C2012 C2006 1.368 . S
C2012 C2011 1.523 . S
C2013 C1997 1.429 . S
C2013 C2009 1.429 . S
C2013 C2014 1.523 . S
C2014 C1998 1.368 . S
C2014 C2010 1.368 . S
C2014 C2013 1.523 . S
H2015 C1990 0.950 . S
H2016 C1992 0.950 . S
H2017 C1993 0.949 . S
H2018 C1995 0.950 . S
H2019 C1997 0.950 . S
C2020 C2021 1.349 . S
C2020 C2022 1.327 1_556 S
C2020 H2045 0.950 . S
C2021 C2020 1.349 . S
C2021 C2037 1.349 . S
C2022 C2020 1.327 1_554 S
C2022 C2041 1.429 . S
C2022 H2046 0.950 . S
C2023 C2040 1.574 . S
C2023 C2042 1.368 . S
C2023 H2047 0.949 . S
H2024 C2028 0.949 . S
C2025 C2026 1.349 . S
C2025 C2027 1.327 . S
C2025 H2048 0.950 . S
C2026 C2025 1.349 . S
C2026 C2038 1.349 . S
C2027 C2025 1.327 . S
C2027 C2043 1.429 . S
C2027 H2049 0.950 . S
C2028 H2024 0.949 . S
C2028 C2036 1.574 . S
C2028 C2044 1.368 . S
H2029 C2037 0.950 . S
H2030 C2035 0.950 . S
H2031 C2036 0.949 . S
H2032 C2038 0.950 . S
H2033 C2039 0.950 . S
H2034 C2040 0.949 . S
C2035 H2030 0.950 . S
C2035 C2037 1.327 1_554 S
C2035 C2041 1.429 . S
C2036 C2028 1.574 . S
C2036 H2031 0.949 . S
C2036 C2042 1.368 . S
C2037 C2021 1.349 . S
C2037 H2029 0.950 . S
C2037 C2035 1.327 1_556 S
C2038 C2026 1.349 . S
C2038 H2032 0.950 . S
C2038 C2039 1.327 . S
C2039 H2033 0.950 . S
C2039 C2038 1.327 . S
C2039 C2043 1.429 . S
C2040 C2023 1.574 . S
C2040 H2034 0.949 . S
C2040 C2044 1.368 . S
C2041 C2022 1.429 . S
C2041 C2035 1.429 . S
C2041 C2042 1.523 . S
C2042 C2023 1.368 . S
C2042 C2036 1.368 . S
C2042 C2041 1.523 . S
C2043 C2027 1.429 . S
C2043 C2039 1.429 . S
C2043 C2044 1.523 . S
C2044 C2028 1.368 . S
C2044 C2040 1.368 . S
C2044 C2043 1.523 . S
H2045 C2020 0.950 . S
H2046 C2022 0.950 . S
H2047 C2023 0.949 . S
H2048 C2025 0.950 . S
H2049 C2027 0.950 . S
C2050 C2051 1.349 . S
C2050 C2052 1.327 . S
C2050 H2075 0.950 . S
C2051 C2050 1.349 . S
C2051 C2067 1.349 . S
C2052 C2050 1.327 . S
C2052 C2071 1.429 . S
C2052 H2076 0.950 . S
C2053 C2070 1.574 . S
C2053 C2072 1.368 . S
C2053 H2077 0.949 . S
H2054 C2058 0.949 . S
C2055 C2056 1.349 . S
C2055 C2057 1.327 1_554 S
C2055 H2078 0.950 . S
C2056 C2055 1.349 . S
C2056 C2068 1.349 . S
C2057 C2055 1.327 1_556 S
C2057 C2073 1.429 . S
C2057 H2079 0.950 . S
C2058 H2054 0.949 . S
C2058 C2066 1.574 . S
C2058 C2074 1.368 . S
H2059 C2067 0.950 . S
H2060 C2065 0.950 . S
H2061 C2066 0.949 . S
H2062 C2068 0.950 . S
H2063 C2069 0.950 . S
H2064 C2070 0.949 . S
C2065 H2060 0.950 . S
C2065 C2067 1.327 . S
C2065 C2071 1.429 . S
C2066 C2058 1.574 . S
C2066 H2061 0.949 . S
C2066 C2072 1.368 . S
C2067 C2051 1.349 . S
C2067 H2059 0.950 . S
C2067 C2065 1.327 . S
C2068 C2056 1.349 . S
C2068 H2062 0.950 . S
C2068 C2069 1.327 1_554 S
C2069 H2063 0.950 . S
C2069 C2068 1.327 1_556 S
C2069 C2073 1.429 . S
C2070 C2053 1.574 . S
C2070 H2064 0.949 . S
C2070 C2074 1.368 . S
C2071 C2052 1.429 . S
C2071 C2065 1.429 . S
C2071 C2072 1.523 . S
C2072 C2053 1.368 . S
C2072 C2066 1.368 . S
C2072 C2071 1.523 . S
C2073 C2057 1.429 . S
C2073 C2069 1.429 . S
C2073 C2074 1.523 . S
C2074 C2058 1.368 . S
C2074 C2070 1.368 . S
C2074 C2073 1.523 . S
H2075 C2050 0.950 . S
H2076 C2052 0.950 . S
H2077 C2053 0.949 . S
H2078 C2055 0.950 . S
H2079 C2057 0.950 . S
C641 C459 1.717 . S
C646 C18 1.705 . S
C671 C330 1.717 . S
C676 C49 1.705 . S
C701 C98 1.705 . S
C706 C379 1.717 . S
C731 C129 1.705 . S
C736 C410 1.717 . S
C761 C178 1.705 . S
C766 C219 1.717 . S
C791 C250 1.717 . S
C796 C209 1.705 . S
C821 C258 1.705 . S
C826 C299 1.717 . S
C851 C170 1.717 . S
C856 C289 1.705 . S
C881 C139 1.717 . S
C886 C338 1.705 . S
C911 C369 1.705 . S
C916 C10 1.717 . S
C941 C59 1.717 . S
C946 C418 1.705 . S
C971 C90 1.717 . S
C976 C449 1.705 . S
C1001 C498 1.705 . S
C1006 C539 1.717 . S
C1031 C570 1.717 . S
C1036 C529 1.705 . S
C1061 C619 1.717 . S
C1066 C578 1.705 . S
C1091 C609 1.705 . S
C1096 C490 1.717 . S
C1121 C9 1.155 . S
C1126 C169 1.155 . S
C1151 C218 1.155 . S
C1156 C58 1.155 . S
C1181 C89 1.155 . S
C1186 C249 1.155 . S
C1211 C138 1.155 . S
C1216 C298 1.155 . S
C1241 C329 1.155 . S
C1246 C489 1.155 . S
C1271 C538 1.155 . S
C1276 C378 1.155 . S
C1301 C409 1.155 . S
C1306 C569 1.155 . S
C1331 C458 1.155 . S
C1336 C618 1.155 . S
C1361 C579 2.220 . S
C1366 C19 2.220 . S
C1391 C50 2.220 . S
C1396 C610 2.220 . S
C1421 C99 2.220 . S
C1426 C499 2.220 . S
C1451 C130 2.220 . S
C1456 C530 2.220 . S
C1481 C179 2.220 . S
C1486 C419 2.220 . S
C1511 C210 2.220 . S
C1516 C450 2.220 . S
C1541 C259 2.220 . S
C1546 C339 2.220 . S
C1571 C370 2.220 . S
C1576 C290 2.220 . S
C1601 C6 1.099 . S
C1606 C15 1.099 . S
C1631 C55 1.099 . S
C1636 C46 1.099 . S
C1661 C86 1.099 . S
C1666 C95 1.099 . S
C1691 C126 1.099 . S
C1696 C135 1.099 . S
C1721 C175 1.099 . S
C1726 C166 1.099 . S
C1751 C215 1.099 . S
C1756 C206 1.099 . S
C1781 C246 1.099 . S
C1786 C255 1.099 . S
C1811 C286 1.099 . S
C1816 C295 1.099 . S
C1841 C326 1.099 . S
C1846 C335 1.099 . S
C1871 C366 1.099 . S
C1876 C375 1.099 . S
C1901 C415 1.099 . S
C1906 C406 1.099 . S
C1931 C455 1.099 . S
C1936 C446 1.099 . S
C1961 C486 1.099 . S
C1966 C495 1.099 . S
C1991 C526 1.099 . S
C1996 C535 1.099 . S
C2021 C575 1.099 . S
C2026 C566 1.099 . S
C2051 C615 1.099 . S
C2056 C606 1.099 . S
