# Generated by pormake.
# Topology smd, (6)-cn, num edge types: 1
# Building blocks:
#     Node 0, Type 0, BuildingBlock: BETDEL_clean_sbu_0, # of connection points: 6
#     Node 1, Type 0, BuildingBlock: BETDEL_clean_sbu_0, # of connection points: 6
#     Node 2, Type 0, BuildingBlock: BETDEL_clean_sbu_0, # of connection points: 6
#     Node 3, Type 0, BuildingBlock: BETDEL_clean_sbu_0, # of connection points: 6
#     Node 4, Type 0, BuildingBlock: BETDEL_clean_sbu_0, # of connection points: 6
#     Node 5, Type 0, BuildingBlock: BETDEL_clean_sbu_0, # of connection points: 6
#     Node 6, Type 0, BuildingBlock: BETDEL_clean_sbu_0, # of connection points: 6
#     Node 7, Type 0, BuildingBlock: BETDEL_clean_sbu_0, # of connection points: 6
#     Node 8, Type 0, BuildingBlock: BETDEL_clean_sbu_0, # of connection points: 6
#     Node 9, Type 0, BuildingBlock: BETDEL_clean_sbu_0, # of connection points: 6
#     Node 10, Type 0, BuildingBlock: BETDEL_clean_sbu_0, # of connection points: 6
#     Node 11, Type 0, BuildingBlock: BETDEL_clean_sbu_0, # of connection points: 6
#     Node 12, Type 0, BuildingBlock: BETDEL_clean_sbu_0, # of connection points: 6
#     Node 13, Type 0, BuildingBlock: BETDEL_clean_sbu_0, # of connection points: 6
#     Node 14, Type 0, BuildingBlock: BETDEL_clean_sbu_0, # of connection points: 6
#     Node 15, Type 0, BuildingBlock: BETDEL_clean_sbu_0, # of connection points: 6
#     Node 16, Type 0, BuildingBlock: BETDEL_clean_sbu_0, # of connection points: 6
#     Node 17, Type 0, BuildingBlock: BETDEL_clean_sbu_0, # of connection points: 6
#     Edge 18, Type (0, 0), BuildingBlock: TEMPAE_clean_linker_10, # of connection points: 2
#     Edge 19, Type (0, 0), BuildingBlock: TEMPAE_clean_linker_10, # of connection points: 2
#     Edge 20, Type (0, 0), BuildingBlock: TEMPAE_clean_linker_10, # of connection points: 2
#     Edge 21, Type (0, 0), BuildingBlock: TEMPAE_clean_linker_10, # of connection points: 2
#     Edge 22, Type (0, 0), BuildingBlock: TEMPAE_clean_linker_10, # of connection points: 2
#     Edge 23, Type (0, 0), BuildingBlock: TEMPAE_clean_linker_10, # of connection points: 2
#     Edge 24, Type (0, 0), BuildingBlock: TEMPAE_clean_linker_10, # of connection points: 2
#     Edge 25, Type (0, 0), BuildingBlock: TEMPAE_clean_linker_10, # of connection points: 2
#     Edge 26, Type (0, 0), BuildingBlock: TEMPAE_clean_linker_10, # of connection points: 2
#     Edge 27, Type (0, 0), BuildingBlock: TEMPAE_clean_linker_10, # of connection points: 2
#     Edge 28, Type (0, 0), BuildingBlock: TEMPAE_clean_linker_10, # of connection points: 2
#     Edge 29, Type (0, 0), BuildingBlock: TEMPAE_clean_linker_10, # of connection points: 2
#     Edge 30, Type (0, 0), BuildingBlock: TEMPAE_clean_linker_10, # of connection points: 2
#     Edge 31, Type (0, 0), BuildingBlock: TEMPAE_clean_linker_10, # of connection points: 2
#     Edge 32, Type (0, 0), BuildingBlock: TEMPAE_clean_linker_10, # of connection points: 2
#     Edge 33, Type (0, 0), BuildingBlock: TEMPAE_clean_linker_10, # of connection points: 2
#     Edge 34, Type (0, 0), BuildingBlock: TEMPAE_clean_linker_10, # of connection points: 2
#     Edge 35, Type (0, 0), BuildingBlock: TEMPAE_clean_linker_10, # of connection points: 2
#     Edge 36, Type (0, 0), BuildingBlock: TEMPAE_clean_linker_10, # of connection points: 2
#     Edge 37, Type (0, 0), BuildingBlock: TEMPAE_clean_linker_10, # of connection points: 2
#     Edge 38, Type (0, 0), BuildingBlock: TEMPAE_clean_linker_10, # of connection points: 2
#     Edge 39, Type (0, 0), BuildingBlock: TEMPAE_clean_linker_10, # of connection points: 2
#     Edge 40, Type (0, 0), BuildingBlock: TEMPAE_clean_linker_10, # of connection points: 2
#     Edge 41, Type (0, 0), BuildingBlock: TEMPAE_clean_linker_10, # of connection points: 2
#     Edge 42, Type (0, 0), BuildingBlock: TEMPAE_clean_linker_10, # of connection points: 2
#     Edge 43, Type (0, 0), BuildingBlock: TEMPAE_clean_linker_10, # of connection points: 2
#     Edge 44, Type (0, 0), BuildingBlock: TEMPAE_clean_linker_10, # of connection points: 2
#     Edge 45, Type (0, 0), BuildingBlock: TEMPAE_clean_linker_10, # of connection points: 2
#     Edge 46, Type (0, 0), BuildingBlock: TEMPAE_clean_linker_10, # of connection points: 2
#     Edge 47, Type (0, 0), BuildingBlock: TEMPAE_clean_linker_10, # of connection points: 2
#     Edge 48, Type (0, 0), BuildingBlock: TEMPAE_clean_linker_10, # of connection points: 2
#     Edge 49, Type (0, 0), BuildingBlock: TEMPAE_clean_linker_10, # of connection points: 2
#     Edge 50, Type (0, 0), BuildingBlock: TEMPAE_clean_linker_10, # of connection points: 2
#     Edge 51, Type (0, 0), BuildingBlock: TEMPAE_clean_linker_10, # of connection points: 2
#     Edge 52, Type (0, 0), BuildingBlock: TEMPAE_clean_linker_10, # of connection points: 2
#     Edge 53, Type (0, 0), BuildingBlock: TEMPAE_clean_linker_10, # of connection points: 2
#     Edge 54, Type (0, 0), BuildingBlock: TEMPAE_clean_linker_10, # of connection points: 2
#     Edge 55, Type (0, 0), BuildingBlock: TEMPAE_clean_linker_10, # of connection points: 2
#     Edge 56, Type (0, 0), BuildingBlock: TEMPAE_clean_linker_10, # of connection points: 2
#     Edge 57, Type (0, 0), BuildingBlock: TEMPAE_clean_linker_10, # of connection points: 2
#     Edge 58, Type (0, 0), BuildingBlock: TEMPAE_clean_linker_10, # of connection points: 2
#     Edge 59, Type (0, 0), BuildingBlock: TEMPAE_clean_linker_10, # of connection points: 2
#     Edge 60, Type (0, 0), BuildingBlock: TEMPAE_clean_linker_10, # of connection points: 2
#     Edge 61, Type (0, 0), BuildingBlock: TEMPAE_clean_linker_10, # of connection points: 2
#     Edge 62, Type (0, 0), BuildingBlock: TEMPAE_clean_linker_10, # of connection points: 2
#     Edge 63, Type (0, 0), BuildingBlock: TEMPAE_clean_linker_10, # of connection points: 2
#     Edge 64, Type (0, 0), BuildingBlock: TEMPAE_clean_linker_10, # of connection points: 2
#     Edge 65, Type (0, 0), BuildingBlock: TEMPAE_clean_linker_10, # of connection points: 2
#     Edge 66, Type (0, 0), BuildingBlock: TEMPAE_clean_linker_10, # of connection points: 2
#     Edge 67, Type (0, 0), BuildingBlock: TEMPAE_clean_linker_10, # of connection points: 2
#     Edge 68, Type (0, 0), BuildingBlock: TEMPAE_clean_linker_10, # of connection points: 2
#     Edge 69, Type (0, 0), BuildingBlock: TEMPAE_clean_linker_10, # of connection points: 2
#     Edge 70, Type (0, 0), BuildingBlock: TEMPAE_clean_linker_10, # of connection points: 2
#     Edge 71, Type (0, 0), BuildingBlock: TEMPAE_clean_linker_10, # of connection points: 2
# Relax obj value: 0.243
# Max RMSD: 0.294
# Mean RMSD: 0.266
data_MOF--net-smd--node1-BETDEL_clean_sbu_0--edge1-TEMPAE_clean_linker_10
_symmetry_space_group_name_H-M    P1
_symmetry_Int_Tables_number       1
_symmetry_cell_setting            triclinic
loop_
_symmetry_equiv_pos_as_xyz
'x, y, z'
_cell_length_a     67.94009
_cell_length_b     68.307364
_cell_length_c     18.380916
_cell_angle_alpha  92.889758
_cell_angle_beta   92.866853
_cell_angle_gamma 119.99233
loop_
_atom_site_label
_atom_site_type_symbol
_atom_site_fract_x
_atom_site_fract_y
_atom_site_fract_z
_atom_type_partial_charge
Dy0 Dy 0.02314 0.24279 0.60525 0.0
C1 C 1.00704 0.23473 0.28975 0.0
C2 C 0.02025 0.24996 0.75037 0.0
Dy3 Dy 0.00873 0.23338 0.43783 0.0
O4 O 0.03925 0.2585 0.71882 0.0
O5 O 1.00301 0.23802 0.70231 0.0
O6 O 0.04791 0.23038 0.61394 0.0
O7 O 0.03182 0.22837 0.51182 0.0
C8 C 0.04635 0.22463 0.54454 0.0
C9 C 0.98557 0.24722 0.52213 0.0
O10 O 0.9875 0.19806 0.46793 0.0
O11 O 0.99101 0.20808 0.59276 0.0
O12 O 1.00697 0.24952 0.33663 0.0
O13 O 1.00761 0.2187 0.32365 0.0
O14 O 0.97628 0.23335 0.46355 0.0
O15 O 1.00649 0.25383 0.52864 0.0
O16 O 0.04524 0.27745 0.56468 0.0
O17 O 0.04376 0.26356 0.44551 0.0
C18 C 0.98124 0.193 0.53475 0.0
C19 C 0.05272 0.28028 0.49816 0.0
Dy20 Dy 0.79299 0.78913 0.44897 0.0
C21 C 0.78589 0.79557 0.76061 0.0
C22 C 0.78347 0.78286 0.30166 0.0
Dy23 Dy 0.78823 0.79696 0.61368 0.0
O24 O 0.79194 0.77262 0.33875 0.0
O25 O 0.78 0.79619 0.34519 0.0
O26 O 0.83002 0.7998 0.45113 0.0
O27 O 0.81623 0.80151 0.5488 0.0
C28 C 0.83429 0.8048 0.52123 0.0
C29 C 0.75167 0.78597 0.5194 0.0
O30 O 0.80223 0.83257 0.58574 0.0
O31 O 0.79616 0.82396 0.45952 0.0
O32 O 0.80335 0.81063 0.72958 0.0
O33 O 0.76989 0.78171 0.71149 0.0
O34 O 0.75664 0.79894 0.57953 0.0
O35 O 0.76518 0.77853 0.51695 0.0
O36 O 0.77632 0.75336 0.48546 0.0
O37 O 0.78869 0.76447 0.60818 0.0
C38 C 0.801 0.83826 0.51851 0.0
C39 C 0.77953 0.74858 0.55296 0.0
Dy40 Dy 0.23118 0.00564 0.56285 0.0
C41 C 0.23369 0.01447 0.2608 0.0
C42 C 0.23639 0.00752 0.71236 0.0
Dy43 Dy 0.23324 0.01515 0.40974 0.0
O44 O 0.22406 0.98924 0.66916 0.0
O45 O 0.24617 0.02479 0.67387 0.0
O46 O 0.20259 0.97074 0.53909 0.0
O47 O 0.20331 0.99588 0.47461 0.0
C48 C 0.19289 0.97469 0.48396 0.0
C49 C 0.27211 0.04275 0.49686 0.0
O50 O 0.221 0.0385 0.44028 0.0
O51 O 0.22531 0.03595 0.56448 0.0
O52 O 0.24975 0.01612 0.30615 0.0
O53 O 0.21719 0.0133 0.29674 0.0
O54 O 0.26479 0.04968 0.4431 0.0
O55 O 0.2594 0.02178 0.49767 0.0
O56 O 0.25059 0.98894 0.51903 0.0
O57 O 0.23189 0.98197 0.40573 0.0
C58 C 0.22141 0.0456 0.50855 0.0
C59 C 0.24495 0.97841 0.45196 0.0
Dy60 Dy 0.01581 0.79784 0.5812 0.0
C61 C 1.00531 0.77873 0.27022 0.0
C62 C 0.01875 0.79754 0.73025 0.0
Dy63 Dy 1.00079 0.78486 0.41523 0.0
O64 O 0.0142 0.81112 0.69505 0.0
O65 O 0.02222 0.78482 0.68408 0.0
O66 O 0.05061 0.80417 0.55207 0.0
O67 O 0.021 0.77849 0.49366 0.0
C68 C 0.04233 0.78858 0.49777 0.0
C69 C 0.97267 0.79767 0.47237 0.0
O70 O 0.98428 0.7502 0.46001 0.0
O71 O 0.98392 0.76414 0.5772 0.0
O72 O 0.98623 0.76812 0.301 0.0
O73 O 0.02177 0.79199 0.31916 0.0
O74 O 0.97166 0.79121 0.40396 0.0
O75 O 0.98921 0.79735 0.50674 0.0
O76 O 0.03288 0.83292 0.54685 0.0
O77 O 0.03015 0.82151 0.42369 0.0
C78 C 0.97741 0.74695 0.52733 0.0
C79 C 0.0389 0.8375 0.47957 0.0
Dy80 Dy 0.23126 0.23154 0.41782 0.0
C81 C 0.23003 0.24403 0.72456 0.0
C82 C 0.22663 0.22851 0.26793 0.0
Dy83 Dy 0.23002 0.24306 0.57534 0.0
O84 O 0.23776 0.2212 0.30665 0.0
O85 O 0.2175 0.2367 0.31107 0.0
O86 O 0.26444 0.2314 0.44387 0.0
O87 O 0.25736 0.25293 0.50585 0.0
C88 C 0.27099 0.24573 0.50129 0.0
C89 C 0.19298 0.23586 0.49371 0.0
O90 O 0.2462 0.27875 0.53929 0.0
O91 O 0.23669 0.26655 0.41591 0.0
O92 O 0.21293 0.23057 0.67811 0.0
O93 O 0.24728 0.25752 0.68956 0.0
O94 O 0.20282 0.25077 0.54944 0.0
O95 O 0.20251 0.2239 0.48554 0.0
O96 O 0.21394 0.19647 0.45252 0.0
O97 O 0.23033 0.20985 0.57003 0.0
C98 C 0.24412 0.28275 0.4699 0.0
C99 C 0.22004 0.19295 0.51765 0.0
Dy100 Dy 0.78859 0.01448 0.59477 0.0
C101 C 0.79088 0.02462 0.29139 0.0
C102 C 0.79245 0.01612 0.74385 0.0
Dy103 Dy 0.7908 0.02489 0.44004 0.0
O104 O 0.78201 0.99764 0.70028 0.0
O105 O 0.80109 0.0336 0.70597 0.0
O106 O 0.75546 0.98069 0.563 0.0
O107 O 0.76308 0.00878 0.50707 0.0
C108 C 0.74931 0.98809 0.50775 0.0
C109 C 0.82762 0.05572 0.52466 0.0
O110 O 0.77401 0.04462 0.47925 0.0
O111 O 0.78314 0.04421 0.60211 0.0
O112 O 0.7738 0.02156 0.32769 0.0
O113 O 0.80783 0.02802 0.33623 0.0
O114 O 0.81791 0.06017 0.47073 0.0
O115 O 0.81793 0.03437 0.52986 0.0
O116 O 0.80699 0.99715 0.5579 0.0
O117 O 0.7903 0.9912 0.44119 0.0
C118 C 0.77561 0.05185 0.54917 0.0
C119 C 0.80082 0.98591 0.49281 0.0
Dy120 Dy 0.67203 0.56276 0.72105 0.0
C121 C 0.68767 0.56732 0.03738 0.0
C122 C 0.67597 0.56801 0.57679 0.0
Dy123 Dy 0.68402 0.56886 0.89053 0.0
O124 O 0.67573 0.55157 0.60976 0.0
O125 O 0.67328 0.58158 0.62241 0.0
O126 O 0.6418 0.52743 0.70959 0.0
O127 O 0.65892 0.542 0.81172 0.0
C128 C 0.64226 0.52431 0.77863 0.0
C129 C 0.7033 0.60648 0.81605 0.0
O130 O 0.7036 0.55216 0.85716 0.0
O131 O 0.70301 0.55875 0.73426 0.0
O132 O 0.70423 0.58096 1.0003 0.0
O133 O 0.6696 0.5541 0.99389 0.0
O134 O 0.69729 0.6066 0.88203 0.0
O135 O 0.6998 0.58709 0.79668 0.0
O136 O 0.65192 0.5788 0.76348 0.0
O137 O 0.65128 0.5682 0.88208 0.0
C138 C 0.71079 0.55259 0.79128 0.0
C139 C 0.64379 0.57576 0.82914 0.0
Dy140 Dy 0.46183 0.12841 0.75392 0.0
C141 C 0.45408 0.13403 0.06567 0.0
C142 C 0.45124 0.1197 0.6068 0.0
Dy143 Dy 0.45722 0.13668 0.91905 0.0
O144 O 0.4632 0.11303 0.64456 0.0
O145 O 0.44472 0.13067 0.64975 0.0
O146 O 0.49961 0.14336 0.75397 0.0
O147 O 0.48538 0.14383 0.8519 0.0
C148 C 0.50386 0.14902 0.82383 0.0
C149 C 0.41936 0.12154 0.82615 0.0
O150 O 0.46957 0.1717 0.88923 0.0
O151 O 0.46297 0.16227 0.7631 0.0
O152 O 0.44025 0.11852 0.01531 0.0
O153 O 0.46975 0.15142 0.03603 0.0
O154 O 0.42388 0.13506 0.88454 0.0
O155 O 0.43422 0.11577 0.82395 0.0
O156 O 0.45151 0.09429 0.79694 0.0
O157 O 0.46557 0.10916 0.91636 0.0
C158 C 0.46776 0.17677 0.82155 0.0
C159 C 0.45774 0.09228 0.86479 0.0
Dy160 Dy 0.92068 0.36466 0.75888 0.0
C161 C 0.91354 0.35417 0.06034 0.0
C162 C 0.92378 0.36203 0.61097 0.0
Dy163 Dy 0.91254 0.35471 0.9113 0.0
O164 O 0.93052 0.38056 0.65236 0.0
O165 O 0.91557 0.34491 0.65047 0.0
O166 O 0.92818 0.39976 0.77757 0.0
O167 O 0.90373 0.37528 0.83987 0.0
C168 C 0.91519 0.3964 0.83027 0.0
C169 C 0.92199 0.32641 0.8302 0.0
O170 O 0.87613 0.33589 0.87216 0.0
O171 O 0.88354 0.33568 0.75078 0.0
O172 O 0.89823 0.35556 0.01929 0.0
O173 O 0.92801 0.35294 0.01996 0.0
O174 O 0.90712 0.31951 0.87841 0.0
O175 O 0.93138 0.34752 0.83091 0.0
O176 O 0.95678 0.38138 0.81389 0.0
O177 O 0.94491 0.38763 0.92264 0.0
C178 C 0.86924 0.32852 0.80305 0.0
C179 C 0.96152 0.39165 0.88113 0.0
Dy180 Dy 0.68599 0.14558 0.91538 0.0
C181 C 0.67153 0.13299 0.60388 0.0
C182 C 0.68971 0.14811 0.06472 0.0
Dy183 Dy 0.67395 0.14076 0.75255 0.0
O184 O 0.68999 0.13272 0.02137 0.0
O185 O 0.68833 0.16301 0.02649 0.0
O186 O 0.69859 0.12074 0.89631 0.0
O187 O 0.70227 0.14314 0.81862 0.0
C188 C 0.70499 0.1268 0.83205 0.0
C189 C 0.65323 0.15899 0.8311 0.0
O190 O 0.65363 0.10441 0.78514 0.0
O191 O 0.65087 0.11612 0.90154 0.0
O192 O 0.65585 0.13387 0.63926 0.0
O193 O 0.68783 0.1355 0.64992 0.0
O194 O 0.66026 0.16433 0.76663 0.0
O195 O 0.65699 0.14341 0.84863 0.0
O196 O 0.71111 0.18128 0.89149 0.0
O197 O 0.70526 0.17551 0.76458 0.0
C198 C 0.64455 0.09979 0.84896 0.0
C199 C 0.71646 0.18852 0.82558 0.0
Dy200 Dy 0.90871 0.57526 0.9034 0.0
C201 C 0.91296 0.57079 0.59721 0.0
C202 C 0.90743 0.57618 0.05138 0.0
Dy203 Dy 0.90784 0.56632 0.74278 0.0
O204 O 0.92306 0.59183 0.01667 0.0
O205 O 0.89206 0.5601 0.00513 0.0
O206 O 0.9314 0.61298 0.89007 0.0
O207 O 0.906 0.59213 0.80891 0.0
C208 C 0.92221 0.61189 0.82535 0.0
C209 C 0.89286 0.52827 0.81296 0.0
O210 O 0.94566 0.5858 0.78438 0.0
O211 O 0.93881 0.57134 0.89566 0.0
O212 O 0.91658 0.55698 0.63415 0.0
O213 O 0.90682 0.58205 0.63985 0.0
O214 O 0.88519 0.52912 0.74767 0.0
O215 O 0.90921 0.5478 0.8362 0.0
O216 O 0.87158 0.56165 0.87417 0.0
O217 O 0.87203 0.55987 0.74773 0.0
C218 C 0.95325 0.58223 0.8475 0.0
C219 C 0.86129 0.55794 0.80769 0.0
Dy220 Dy 0.45603 0.35072 0.92402 0.0
C221 C 0.44809 0.36092 0.61676 0.0
C222 C 0.45292 0.35011 0.07116 0.0
Dy223 Dy 0.45874 0.36376 0.76315 0.0
O224 O 0.43847 0.35065 0.02372 0.0
O225 O 0.46921 0.34956 0.03818 0.0
O226 O 0.42446 0.31724 0.88388 0.0
O227 O 0.43162 0.34643 0.83317 0.0
C228 C 0.41834 0.32535 0.83055 0.0
C229 C 0.50092 0.38775 0.83244 0.0
O230 O 0.44567 0.38517 0.81814 0.0
O231 O 0.46189 0.38572 0.93211 0.0
O232 O 0.45793 0.37967 0.65953 0.0
O233 O 0.44364 0.3438 0.6544 0.0
O234 O 0.49609 0.38919 0.76449 0.0
O235 O 0.48293 0.37331 0.85859 0.0
O236 O 0.47274 0.33221 0.8829 0.0
O237 O 0.46152 0.33183 0.76073 0.0
C238 C 0.45143 0.39303 0.88839 0.0
C239 C 0.4696 0.32438 0.81352 0.0
Dy240 Dy 0.36685 0.9175 0.24664 0.0
C241 C 0.34839 0.90643 0.92968 0.0
C242 C 0.36386 0.92569 0.3914 0.0
Dy243 Dy 0.3508 0.90483 0.07787 0.0
O244 O 0.38291 0.9333 0.36044 0.0
O245 O 0.34666 0.91429 0.34275 0.0
O246 O 0.39281 0.90645 0.25453 0.0
O247 O 0.37481 0.90222 0.15448 0.0
C248 C 0.39034 0.89967 0.18556 0.0
C249 C 0.32745 0.91791 0.16313 0.0
O250 O 0.33104 0.87017 0.11423 0.0
O251 O 0.33559 0.8822 0.23834 0.0
O252 O 0.34792 0.92077 0.97752 0.0
O253 O 0.3496 0.89053 0.96272 0.0
O254 O 0.3178 0.90282 0.10757 0.0
O255 O 0.34857 0.92578 0.16668 0.0
O256 O 0.38727 0.9513 0.19921 0.0
O257 O 0.38569 0.9351 0.0834 0.0
C258 C 0.3255 0.86631 0.18239 0.0
C259 C 0.39428 0.95288 0.13214 0.0
Dy260 Dy 0.1431 0.46419 0.15103 0.0
C261 C 0.13623 0.4744 0.46438 0.0
C262 C 0.13193 0.45659 1.00397 0.0
Dy263 Dy 0.13995 0.47573 0.31755 0.0
O264 O 0.1421 0.44777 0.04036 0.0
O265 O 0.12753 0.46906 0.04824 0.0
O266 O 0.18013 0.47479 0.15444 0.0
O267 O 0.1665 0.47912 0.24856 0.0
C268 C 0.18454 0.48156 0.22371 0.0
C269 C 0.10319 0.46236 0.22146 0.0
O270 O 0.15574 0.51072 0.28261 0.0
O271 O 0.1461 0.49897 0.15803 0.0
O272 O 0.12077 0.46046 0.41405 0.0
O273 O 0.15391 0.48968 0.43456 0.0
O274 O 0.10846 0.47725 0.27669 0.0
O275 O 0.11682 0.45513 0.22386 0.0
O276 O 0.12857 0.42989 0.19703 0.0
O277 O 0.14291 0.44458 0.31696 0.0
C278 C 0.15308 0.51477 0.2141 0.0
C279 C 0.13343 0.42732 0.26593 0.0
Dy280 Dy 0.57013 0.68353 0.22632 0.0
C281 C 0.57544 0.69408 0.92046 0.0
C282 C 0.57738 0.68187 0.37267 0.0
Dy283 Dy 0.57341 0.69416 0.06852 0.0
O284 O 0.56316 0.66453 0.32769 0.0
O285 O 0.5879 0.69976 0.33715 0.0
O286 O 0.53357 0.67445 0.21877 0.0
O287 O 0.54646 0.66739 0.12743 0.0
C288 C 0.52863 0.6658 0.15146 0.0
C289 C 0.61191 0.71938 0.15969 0.0
O290 O 0.55684 0.71312 0.10734 0.0
O291 O 0.57256 0.71786 0.22553 0.0
O292 O 0.58995 0.69328 0.96695 0.0
O293 O 0.55981 0.69544 0.95495 0.0
O294 O 0.606 0.7276 0.10629 0.0
O295 O 0.59787 0.69864 0.15843 0.0
O296 O 0.57939 0.658 0.17894 0.0
O297 O 0.56918 0.65989 0.05829 0.0
C298 C 0.56263 0.72364 0.17362 0.0
C299 C 0.57542 0.65045 0.10836 0.0
Dy300 Dy 0.36224 0.47794 0.29283 0.0
C301 C 0.34464 0.45846 0.98014 0.0
C302 C 0.36484 0.4775 0.44188 0.0
Dy303 Dy 0.3451 0.46721 0.12712 0.0
O304 O 0.36661 0.46357 0.39562 0.0
O305 O 0.3626 0.49249 0.40678 0.0
O306 O 0.39527 0.48037 0.25924 0.0
O307 O 0.36423 0.45821 0.20051 0.0
C308 C 0.38524 0.46592 0.2022 0.0
C309 C 0.32948 0.49078 0.20383 0.0
O310 O 0.32208 0.43267 0.16685 0.0
O311 O 0.32963 0.445 0.29126 0.0
O312 O 0.32671 0.45485 0.0135 0.0
O313 O 0.36219 0.46594 0.02758 0.0
O314 O 0.33267 0.49197 0.13464 0.0
O315 O 0.33325 0.47571 0.22639 0.0
O316 O 0.3807 0.51297 0.2575 0.0
O317 O 0.37788 0.50104 0.13487 0.0
C318 C 0.31815 0.42912 0.23678 0.0
C319 C 0.38696 0.51707 0.19025 0.0
Dy320 Dy 0.57577 0.90945 0.04065 0.0
C321 C 0.57973 0.92589 0.35328 0.0
C322 C 0.57937 0.91132 0.89414 0.0
Dy323 Dy 0.57003 0.91884 0.20571 0.0
O324 O 0.56285 0.8947 0.924 0.0
O325 O 0.59387 0.92644 0.94428 0.0
O326 O 0.60802 0.90951 0.0795 0.0
O327 O 0.59806 0.92961 0.13779 0.0
C328 C 0.61226 0.92294 0.138 0.0
C329 C 0.52903 0.90008 0.12871 0.0
O330 O 0.58267 0.95323 0.16159 0.0
O331 O 0.56961 0.93843 0.04128 0.0
O332 O 0.56964 0.93461 0.31595 0.0
O333 O 0.58468 0.9137 0.30984 0.0
O334 O 0.53243 0.90631 0.19832 0.0
O335 O 0.54781 0.90402 0.10585 0.0
O336 O 0.5616 0.87441 0.07234 0.0
O337 O 0.56728 0.88428 0.1983 0.0
C338 C 0.57756 0.95544 0.09259 0.0
C339 C 0.56259 0.86952 0.14076 0.0
Dy340 Dy 0.13276 0.69195 0.27942 0.0
C341 C 0.13624 0.69911 0.97549 0.0
C342 C 0.13283 0.69074 0.42729 0.0
Dy343 Dy 0.13993 0.69772 0.12342 0.0
O344 O 0.11711 0.69081 0.38459 0.0
O345 O 0.14852 0.69093 0.38914 0.0
O346 O 0.09475 0.67753 0.2496 0.0
O347 O 0.11412 0.67116 0.17882 0.0
C348 C 0.09471 0.66832 0.18619 0.0
C349 C 0.17928 0.7208 0.20953 0.0
O350 O 0.12216 0.7178 0.15407 0.0
O351 O 0.13736 0.72607 0.27273 0.0
O352 O 0.15091 0.71592 0.0209 0.0
O353 O 0.12359 0.68187 0.01097 0.0
O354 O 0.17684 0.70983 0.14693 0.0
O355 O 0.16034 0.719 0.2232 0.0
O356 O 0.14477 0.66718 0.25898 0.0
O357 O 0.14419 0.66711 0.13268 0.0
C358 C 0.12658 0.72967 0.21848 0.0
C359 C 0.14673 0.65902 0.19454 0.0
C360 C 0.13679 0.40228 0.35385 0.0
C361 C 0.12528 0.40449 0.29201 0.0
C362 C 0.12716 0.38229 0.39001 0.0
C363 C 0.10523 0.36408 0.36463 0.0
C364 C 0.09392 0.36584 0.30032 0.0
C365 C 0.10416 0.38597 0.26443 0.0
C366 C 0.14011 0.38102 0.45705 0.0
C367 C 0.07049 0.34687 0.27144 0.0
C368 C 0.08385 0.30437 0.42184 0.0
C369 C 0.06947 0.30294 0.47616 0.0
C370 C 0.09623 0.32439 0.38718 0.0
C371 C 0.09392 0.34343 0.40617 0.0
C372 C 0.08023 0.34244 0.46339 0.0
C373 C 0.06829 0.32224 0.49814 0.0
C374 C 0.11104 0.32479 0.32804 0.0
C375 C 0.07722 0.36233 0.48526 0.0
H376 H 0.15313 0.41655 0.37553 0.0
H377 H 0.09501 0.38769 0.21749 0.0
H378 H 0.13103 0.38049 0.50606 0.0
H379 H 0.141 0.36522 0.45222 0.0
H380 H 0.15775 0.39577 0.46595 0.0
H381 H 0.06428 0.35052 0.21965 0.0
H382 H 0.07064 0.33079 0.26173 0.0
H383 H 0.05819 0.34416 0.31275 0.0
H384 H 0.08478 0.28946 0.40452 0.0
H385 H 0.0569 0.32111 0.5391 0.0
H386 H 0.12832 0.34 0.338 0.0
H387 H 0.10357 0.32583 0.27433 0.0
H388 H 0.11275 0.30942 0.32465 0.0
H389 H 0.09407 0.37784 0.49935 0.0
H390 H 0.06684 0.35927 0.53271 0.0
H391 H 0.06872 0.36573 0.43848 0.0
C392 C 0.72989 0.76638 0.39946 0.0
C393 C 0.732 0.77905 0.46481 0.0
C394 C 0.71121 0.75909 0.34738 0.0
C395 C 0.69356 0.76364 0.36225 0.0
C396 C 0.69562 0.77651 0.42817 0.0
C397 C 0.71498 0.78435 0.47821 0.0
C398 C 0.71013 0.74594 0.27724 0.0
C399 C 0.67693 0.78122 0.44721 0.0
C400 C 0.64958 0.75395 0.20521 0.0
C401 C 0.63256 0.73151 0.21214 0.0
C402 C 0.66951 0.7648 0.25393 0.0
C403 C 0.67214 0.75311 0.31196 0.0
C404 C 0.65464 0.73067 0.32005 0.0
C405 C 0.6354 0.72004 0.26926 0.0
C406 C 0.68802 0.78851 0.24223 0.0
C407 C 0.65633 0.71767 0.38184 0.0
H408 H 0.74279 0.76193 0.38921 0.0
H409 H 0.71645 0.79401 0.52886 0.0
H410 H 0.69626 0.72804 0.27709 0.0
H411 H 0.70614 0.75306 0.2295 0.0
H412 H 0.72639 0.74618 0.27017 0.0
H413 H 0.68171 0.79266 0.49812 0.0
H414 H 0.67272 0.789 0.40192 0.0
H415 H 0.66123 0.765 0.45466 0.0
H416 H 0.64755 0.76283 0.16082 0.0
H417 H 0.62255 0.70256 0.27424 0.0
H418 H 0.70383 0.78839 0.23053 0.0
H419 H 0.69211 0.79996 0.29259 0.0
H420 H 0.6831 0.79558 0.19621 0.0
H421 H 0.6705 0.71426 0.37484 0.0
H422 H 0.64035 0.70121 0.38437 0.0
H423 H 0.66021 0.72787 0.43497 0.0
C424 C 0.2604 0.9687 0.34543 0.0
C425 C 0.25707 0.96734 0.42028 0.0
C426 C 0.27223 0.95943 0.31157 0.0
C427 C 0.2806 0.94779 0.35273 0.0
C428 C 0.27719 0.94605 0.42836 0.0
C429 C 0.26574 0.9562 0.46169 0.0
C430 C 0.27601 0.96246 0.2315 0.0
C431 C 0.28543 0.93329 0.47358 0.0
C432 C 0.2923 0.91027 0.22374 0.0
C433 C 0.31569 0.92418 0.21733 0.0
C434 C 0.28098 0.91681 0.27299 0.0
C435 C 0.29321 0.93804 0.31522 0.0
C436 C 0.31706 0.95163 0.31106 0.0
C437 C 0.32802 0.94442 0.26274 0.0
C438 C 0.25569 0.90149 0.27711 0.0
C439 C 0.33077 0.97458 0.35356 0.0
H440 H 0.25416 0.97758 0.31286 0.0
H441 H 0.26325 0.9551 0.51944 0.0
H442 H 0.29452 0.9709 0.22417 0.0
H443 H 0.26766 0.94567 0.19958 0.0
H444 H 0.26915 0.97275 0.20808 0.0
H445 H 0.28133 0.93329 0.53133 0.0
H446 H 0.27747 0.91547 0.44969 0.0
H447 H 0.30415 0.9409 0.47267 0.0
H448 H 0.28281 0.8944 0.18969 0.0
H449 H 0.34616 0.95513 0.25834 0.0
H450 H 0.2463 0.9087 0.24856 0.0
H451 H 0.25146 0.90032 0.33486 0.0
H452 H 0.24953 0.88413 0.25125 0.0
H453 H 0.32603 0.98652 0.3305 0.0
H454 H 0.34942 0.98176 0.35132 0.0
H455 H 0.32692 0.9735 0.41161 0.0
C456 C 0.31045 0.07802 0.52883 0.0
C457 C 0.29382 0.0562 0.54403 0.0
C458 C 0.33143 0.09012 0.57224 0.0
C459 C 0.33567 0.08032 0.63303 0.0
C460 C 0.31865 0.05848 0.64928 0.0
C461 C 0.29812 0.04665 0.60427 0.0
C462 C 0.34922 0.11319 0.55233 0.0
C463 C 0.32216 0.04746 0.71404 0.0
C464 C 0.39579 0.09802 0.71223 0.0
C465 C 0.39856 0.11218 0.77453 0.0
C466 C 0.3759 0.08844 0.66392 0.0
C467 C 0.35796 0.09253 0.67926 0.0
C468 C 0.36079 0.10703 0.74179 0.0
C469 C 0.38112 0.11683 0.78825 0.0
C470 C 0.37388 0.07347 0.59734 0.0
C471 C 0.34203 0.11161 0.76094 0.0
H472 H 0.30725 0.08544 0.48218 0.0
H473 H 0.28537 0.02978 0.61636 0.0
H474 H 0.35398 0.12604 0.59924 0.0
H475 H 0.36492 0.11293 0.53994 0.0
H476 H 0.34323 0.11862 0.50419 0.0
H477 H 0.30682 0.0309 0.72134 0.0
H478 H 0.33671 0.04466 0.70688 0.0
H479 H 0.32647 0.05882 0.76483 0.0
H480 H 0.40913 0.09423 0.7015 0.0
H481 H 0.38313 0.12773 0.83639 0.0
H482 H 0.36863 0.07886 0.54762 0.0
H483 H 0.36052 0.0557 0.60319 0.0
H484 H 0.39017 0.07386 0.58912 0.0
H485 H 0.33679 0.11805 0.71393 0.0
H486 H 0.34728 0.12414 0.80924 0.0
H487 H 0.32682 0.09556 0.77287 0.0
C488 C 0.94291 0.32229 0.72822 0.0
C489 C 0.92893 0.31255 0.78494 0.0
C490 C 0.95038 0.31013 0.68496 0.0
C491 C 0.94446 0.28781 0.70014 0.0
C492 C 0.93035 0.27782 0.75755 0.0
C493 C 0.92249 0.2902 0.79865 0.0
C494 C 0.9649 0.32139 0.6235 0.0
C495 C 0.92408 0.2543 0.77679 0.0
C496 C 0.9521 0.25182 0.54995 0.0
C497 C 0.97425 0.25623 0.56958 0.0
C498 C 0.94194 0.26154 0.59265 0.0
C499 C 0.95397 0.27553 0.65765 0.0
C500 C 0.97601 0.27927 0.67896 0.0
C501 C 0.98601 0.26999 0.63403 0.0
C502 C 0.91868 0.25753 0.56675 0.0
C503 C 0.98934 0.29357 0.74845 0.0
H504 H 0.94814 0.33961 0.71754 0.0
H505 H 0.91182 0.28262 0.8427 0.0
H506 H 0.98229 0.32411 0.63576 0.0
H507 H 0.95759 0.31027 0.57174 0.0
H508 H 0.96636 0.33803 0.61485 0.0
H509 H 0.9125 0.24866 0.82142 0.0
H510 H 0.91568 0.24195 0.72809 0.0
H511 H 0.93978 0.25396 0.79425 0.0
H512 H 0.94295 0.24131 0.5 0.0
H513 H 1.00323 0.27372 0.64919 0.0
H514 H 0.92005 0.27384 0.55375 0.0
H515 H 0.90695 0.25099 0.61064 0.0
H516 H 0.91103 0.24532 0.51733 0.0
H517 H 0.99445 0.31155 0.74272 0.0
H518 H 1.00497 0.29262 0.76169 0.0
H519 H 0.97859 0.28802 0.79511 0.0
C520 C 0.78101 0.71971 0.62703 0.0
C521 C 0.76946 0.72482 0.57264 0.0
C522 C 0.77 0.69923 0.66039 0.0
C523 C 0.74658 0.6836 0.64049 0.0
C524 C 0.73509 0.6882 0.58311 0.0
C525 C 0.74673 0.70867 0.54939 0.0
C526 C 0.7832 0.69487 0.71961 0.0
C527 C 0.7101 0.67221 0.56059 0.0
C528 C 0.72209 0.624 0.70416 0.0
C529 C 0.71338 0.62599 0.7701 0.0
C530 C 0.73241 0.64235 0.66056 0.0
C531 C 0.734 0.66328 0.683 0.0
C532 C 0.72467 0.66518 0.74869 0.0
C533 C 0.71461 0.64657 0.79161 0.0
C534 C 0.74219 0.63948 0.59153 0.0
C535 C 0.72561 0.68701 0.77423 0.0
H536 H 0.79854 0.73222 0.64559 0.0
H537 H 0.73757 0.71275 0.50858 0.0
H538 H 0.77667 0.69563 0.7732 0.0
H539 H 0.7808 0.67764 0.70934 0.0
H540 H 0.80174 0.70748 0.72342 0.0
H541 H 0.70418 0.67707 0.51086 0.0
H542 H 0.70659 0.65458 0.55006 0.0
H543 H 0.6999 0.67229 0.60582 0.0
H544 H 0.72121 0.60814 0.6871 0.0
H545 H 0.70776 0.64817 0.84216 0.0
H546 H 0.76098 0.65091 0.59707 0.0
H547 H 0.73531 0.64436 0.54423 0.0
H548 H 0.73837 0.62176 0.57937 0.0
H549 H 0.74363 0.70062 0.78742 0.0
H550 H 0.71621 0.68529 0.82347 0.0
H551 H 0.71827 0.69253 0.72998 0.0
C552 C 0.95112 0.72069 0.61221 0.0
C553 C 0.96481 0.72396 0.55406 0.0
C554 C 0.94331 0.70145 0.65166 0.0
C555 C 0.94937 0.6849 0.63314 0.0
C556 C 0.96213 0.68741 0.57183 0.0
C557 C 0.96966 0.70691 0.53283 0.0
C558 C 0.92947 0.69943 0.71563 0.0
C559 C 0.96887 0.67014 0.5499 0.0
C560 C 0.95059 0.6507 0.79029 0.0
C561 C 0.92951 0.6306 0.77638 0.0
C562 C 0.95756 0.66823 0.743 0.0
C563 C 0.94309 0.66562 0.68024 0.0
C564 C 0.92188 0.64521 0.6658 0.0
C565 C 0.91533 0.62808 0.71415 0.0
C566 C 0.98029 0.68969 0.76077 0.0
C567 C 0.90587 0.64162 0.59995 0.0
H568 H 0.9473 0.73379 0.62903 0.0
H569 H 0.98053 0.70945 0.48884 0.0
H570 H 0.91361 0.68263 0.71089 0.0
H571 H 0.93941 0.70074 0.76724 0.0
H572 H 0.92479 0.71285 0.71964 0.0
H573 H 0.97707 0.67346 0.49761 0.0
H574 H 0.981 0.67046 0.59332 0.0
H575 H 0.95372 0.6528 0.54418 0.0
H576 H 0.96168 0.65271 0.83807 0.0
H577 H 0.89885 0.61273 0.70358 0.0
H578 H 0.9776 0.70423 0.77248 0.0
H579 H 0.99062 0.69338 0.7131 0.0
H580 H 0.99016 0.68856 0.80881 0.0
H581 H 0.9005 0.65452 0.6037 0.0
H582 H 0.89037 0.62448 0.59492 0.0
H583 H 0.91471 0.64384 0.54929 0.0
C584 C 0.31036 0.25128 0.52947 0.0
C585 C 0.29303 0.2557 0.54723 0.0
C586 C 0.33152 0.26172 0.57223 0.0
C587 C 0.33519 0.27646 0.6352 0.0
C588 C 0.3175 0.28053 0.65385 0.0
C589 C 0.29691 0.27045 0.60911 0.0
C590 C 0.35011 0.25738 0.54927 0.0
C591 C 0.32032 0.2957 0.721 0.0
C592 C 0.38146 0.28979 0.7882 0.0
C593 C 0.39778 0.31225 0.77802 0.0
C594 C 0.36127 0.27771 0.74116 0.0
C595 C 0.35756 0.28811 0.68119 0.0
C596 C 0.37449 0.31048 0.66907 0.0
C597 C 0.39411 0.3224 0.71839 0.0
C598 C 0.3435 0.25415 0.75738 0.0
C599 C 0.37167 0.3221 0.60495 0.0
H600 H 0.30757 0.24005 0.48139 0.0
H601 H 0.28379 0.27424 0.62261 0.0
H602 H 0.36528 0.27362 0.5384 0.0
H603 H 0.35553 0.25036 0.59406 0.0
H604 H 0.34458 0.2454 0.49939 0.0
H605 H 0.30438 0.29584 0.73071 0.0
H606 H 0.32556 0.29 0.77003 0.0
H607 H 0.33398 0.31333 0.71499 0.0
H608 H 0.38415 0.28186 0.83433 0.0
H609 H 0.40653 0.33981 0.7105 0.0
H610 H 0.33888 0.24203 0.70845 0.0
H611 H 0.32775 0.25412 0.77106 0.0
H612 H 0.34941 0.248 0.8037 0.0
H613 H 0.36663 0.31075 0.55378 0.0
H614 H 0.38756 0.33819 0.59772 0.0
H615 H 0.35786 0.32596 0.61328 0.0
C616 C 0.72624 0.12809 0.72311 0.0
C617 C 0.7147 0.11665 0.78236 0.0
C618 C 0.73579 0.11886 0.67589 0.0
C619 C 0.73385 0.09768 0.68828 0.0
C620 C 0.72181 0.08588 0.74736 0.0
C621 C 0.71249 0.09555 0.79382 0.0
C622 C 0.74847 0.13206 0.6139 0.0
C623 C 0.71917 0.0632 0.76245 0.0
C624 C 0.74551 0.063 0.54479 0.0
C625 C 0.76689 0.06696 0.57268 0.0
C626 C 0.73482 0.0736 0.57994 0.0
C627 C 0.74593 0.08866 0.64376 0.0
C628 C 0.76821 0.09383 0.6687 0.0
C629 C 0.77828 0.0828 0.63331 0.0
C630 C 0.71105 0.06753 0.55162 0.0
C631 C 0.78095 0.11005 0.73548 0.0
H632 H 0.72821 0.14453 0.71445 0.0
H633 H 0.70346 0.08659 0.83924 0.0
H634 H 0.76668 0.13688 0.62222 0.0
H635 H 0.74142 0.12137 0.56129 0.0
H636 H 0.74751 0.14772 0.60942 0.0
H637 H 0.70797 0.05545 0.80705 0.0
H638 H 0.71192 0.05129 0.71234 0.0
H639 H 0.73615 0.0653 0.77815 0.0
H640 H 0.73649 0.05049 0.49868 0.0
H641 H 0.79482 0.08588 0.65504 0.0
H642 H 0.70982 0.08305 0.54775 0.0
H643 H 0.69877 0.05708 0.59047 0.0
H644 H 0.70585 0.0578 0.49708 0.0
H645 H 0.78092 0.12618 0.73107 0.0
H646 H 0.79891 0.11395 0.74347 0.0
H647 H 0.77229 0.10254 0.78483 0.0
C648 C 0.64738 0.92309 0.18837 0.0
C649 C 0.63096 0.92957 0.19627 0.0
C650 C 0.66578 0.93027 0.24189 0.0
C651 C 0.66737 0.94361 0.30604 0.0
C652 C 0.65019 0.94927 0.31561 0.0
C653 C 0.63263 0.94277 0.25975 0.0
C654 C 0.68411 0.92454 0.22805 0.0
C655 C 0.65069 0.96279 0.38396 0.0
C656 C 0.71075 0.95369 0.46626 0.0
C657 C 0.72821 0.97577 0.45714 0.0
C658 C 0.69065 0.94292 0.41799 0.0
C659 C 0.68842 0.95422 0.35806 0.0
C660 C 0.70627 0.97633 0.34832 0.0
C661 C 0.7255 0.98694 0.39886 0.0
C662 C 0.67162 0.91971 0.43195 0.0
C663 C 0.70506 0.98896 0.2846 0.0
H664 H 0.64627 0.91301 0.1392 0.0
H665 H 0.62027 0.94822 0.26564 0.0
H666 H 0.70032 0.94034 0.22122 0.0
H667 H 0.68729 0.91679 0.27552 0.0
H668 H 0.67959 0.9127 0.17828 0.0
H669 H 0.63463 0.96325 0.38715 0.0
H670 H 0.65345 0.95545 0.43329 0.0
H671 H 0.66509 0.98047 0.38517 0.0
H672 H 0.71258 0.94507 0.51178 0.0
H673 H 0.7385 1.00422 0.39271 0.0
H674 H 0.66749 0.90756 0.38345 0.0
H675 H 0.65598 0.92047 0.44104 0.0
H676 H 0.67603 0.91307 0.48028 0.0
H677 H 0.70135 0.97836 0.23241 0.0
H678 H 0.72118 1.00526 0.28168 0.0
H679 H 0.691 0.99264 0.28938 0.0
C680 C 0.06936 0.7978 0.39993 0.0
C681 C 0.05545 0.78262 0.4485 0.0
C682 C 0.0806 0.79144 0.34951 0.0
C683 C 0.07862 0.76974 0.34991 0.0
C684 C 0.06445 0.75441 0.39912 0.0
C685 C 0.05268 0.76088 0.44654 0.0
C686 C 0.09452 0.80786 0.29571 0.0
C687 C 0.06221 0.73137 0.40331 0.0
C688 C 0.09585 0.74024 0.20488 0.0
C689 C 0.11686 0.7444 0.23753 0.0
C690 C 0.0839 0.74994 0.23749 0.0
C691 C 0.09295 0.76366 0.3049 0.0
C692 C 0.11495 0.76925 0.3345 0.0
C693 C 0.12667 0.75986 0.30002 0.0
C694 C 0.06091 0.74426 0.20235 0.0
C695 C 0.12533 0.78351 0.40642 0.0
H696 H 0.07098 0.81443 0.40019 0.0
H697 H 0.04164 0.74907 0.48351 0.0
H698 H 0.11273 0.81289 0.3059 0.0
H699 H 0.08875 0.79955 0.2392 0.0
H700 H 0.09315 0.82342 0.29915 0.0
H701 H 0.05042 0.72142 0.44415 0.0
H702 H 0.05586 0.72151 0.34917 0.0
H703 H 0.0792 0.73339 0.41831 0.0
H704 H 0.08805 0.72829 0.15683 0.0
H705 H 0.14302 0.76342 0.3253 0.0
H706 H 0.05873 0.75932 0.20618 0.0
H707 H 0.04727 0.73089 0.23143 0.0
H708 H 0.05854 0.73787 0.14393 0.0
H709 H 0.12494 0.79953 0.40587 0.0
H710 H 0.14327 0.78777 0.41919 0.0
H711 H 0.11518 0.77412 0.45119 0.0
C712 C 0.30241 0.38722 0.23476 0.0
C713 C 0.30166 0.40655 0.25936 0.0
C714 C 0.29157 0.36723 0.27115 0.0
C715 C 0.27952 0.36656 0.33284 0.0
C716 C 0.27756 0.38563 0.35467 0.0
C717 C 0.2888 0.4054 0.31812 0.0
C718 C 0.29409 0.34728 0.24608 0.0
C719 C 0.26448 0.38555 0.41881 0.0
C720 C 0.23845 0.30799 0.39018 0.0
C721 C 0.25143 0.30574 0.44749 0.0
C722 C 0.24703 0.32795 0.3543 0.0
C723 C 0.26936 0.3461 0.37537 0.0
C724 C 0.28216 0.34437 0.43571 0.0
C725 C 0.27297 0.32419 0.47143 0.0
C726 C 0.23255 0.32918 0.29163 0.0
C727 C 0.30604 0.36335 0.46 0.0
H728 H 0.31274 0.38822 0.19046 0.0
H729 H 0.28836 0.42042 0.33761 0.0
H730 H 0.30373 0.34409 0.28989 0.0
H731 H 0.27708 0.33173 0.23557 0.0
H732 H 0.30316 0.35011 0.19561 0.0
H733 H 0.26279 0.4009 0.42446 0.0
H734 H 0.24717 0.3703 0.41292 0.0
H735 H 0.27337 0.38482 0.47001 0.0
H736 H 0.2218 0.29366 0.37138 0.0
H737 H 0.2832 0.32233 0.51474 0.0
H738 H 0.24029 0.32951 0.23964 0.0
H739 H 0.23186 0.34505 0.29895 0.0
H740 H 0.21485 0.3145 0.28645 0.0
H741 H 0.31728 0.36586 0.41537 0.0
H742 H 0.31334 0.35984 0.50969 0.0
H743 H 0.30613 0.37949 0.47151 0.0
C744 C 0.9872 0.39938 0.99164 0.0
C745 C 0.9848 0.40359 0.91877 0.0
C746 C 1.00815 0.41107 0.03347 0.0
C747 C 0.02746 0.42778 1.0022 0.0
C748 C 0.0254 0.43199 0.92804 0.0
C749 C 1.004 0.41964 0.88669 0.0
C750 C 0.00951 0.40545 0.11148 0.0
C751 C 0.04564 0.4498 0.89316 0.0
C752 C 0.07246 0.46639 0.1538 0.0
C753 C 0.08536 0.45569 0.16058 0.0
C754 C 0.05467 0.45878 0.09774 0.0
C755 C 0.04965 0.43996 0.04804 0.0
C756 C 0.0636 0.43006 0.05232 0.0
C757 C 0.08115 0.43796 0.10865 0.0
C758 C 0.04039 0.47001 0.09438 0.0
C759 C 0.05897 0.40998 1.00095 0.0
H760 H 0.97249 0.38674 0.01646 0.0
H761 H 1.00214 0.423 0.83052 0.0
H762 H 0.02227 0.39994 0.119 0.0
H763 H 0.01518 0.42074 0.1497 0.0
H764 H 0.99288 0.39177 0.12706 0.0
H765 H 0.04154 0.45037 0.83432 0.0
H766 H 0.05153 0.46672 0.922 0.0
H767 H 0.06008 0.44656 0.89851 0.0
H768 H 0.07589 0.48032 0.19319 0.0
H769 H 0.09121 0.42971 0.11321 0.0
H770 H 0.02359 0.45874 0.11494 0.0
H771 H 0.03717 0.47277 0.03707 0.0
H772 H 0.04866 0.48654 0.12801 0.0
H773 H 0.04355 0.39461 0.01574 0.0
H774 H 0.07345 0.40672 1.00365 0.0
H775 H 0.05558 0.41262 0.94371 0.0
C776 C 0.61095 0.56853 0.89786 0.0
C777 C 0.62697 0.58214 0.85051 0.0
C778 C 0.59999 0.57697 0.94119 0.0
C779 C 0.60491 0.59953 0.93633 0.0
C780 C 0.61954 0.61271 0.88379 0.0
C781 C 0.63056 0.60388 0.84156 0.0
C782 C 0.58451 0.56226 0.99599 0.0
C783 C 0.62468 0.63665 0.87552 0.0
C784 C 0.56649 0.61903 0.01589 0.0
C785 C 0.57982 0.6326 0.07904 0.0
C786 C 0.57412 0.60767 0.97002 0.0
C787 C 0.5955 0.60958 0.98827 0.0
C788 C 0.60814 0.62164 0.05533 0.0
C789 C 0.60017 0.63312 0.09999 0.0
C790 C 0.56004 0.595 0.89945 0.0
C791 C 0.63076 0.62355 0.07764 0.0
H792 H 0.60825 0.55172 0.90504 0.0
H793 H 0.64322 0.61456 0.80603 0.0
H794 H 0.59274 0.56927 0.05213 0.0
H795 H 0.56815 0.56225 0.99224 0.0
H796 H 0.58075 0.54445 0.98803 0.0
H797 H 0.63465 0.64386 0.82796 0.0
H798 H 0.60861 0.63713 0.86882 0.0
H799 H 0.63459 0.64764 0.92573 0.0
H800 H 0.55072 0.61864 0.99949 0.0
H801 H 0.61068 0.64387 0.14803 0.0
H802 H 0.55795 0.57782 0.89273 0.0
H803 H 0.56899 0.60421 0.8526 0.0
H804 H 0.54287 0.59328 0.89673 0.0
H805 H 0.62903 0.60649 0.07485 0.0
H806 H 0.63754 0.63185 0.13388 0.0
H807 H 0.64338 0.63362 0.03907 0.0
C808 C 0.46726 0.07016 0.94795 0.0
C809 C 0.45296 0.07022 0.89022 0.0
C810 C 0.4603 0.05132 0.98884 0.0
C811 C 0.43837 0.03204 0.97208 0.0
C812 C 0.42444 0.03139 0.91063 0.0
C813 C 0.43196 0.05051 0.87017 0.0
C814 C 0.47592 0.05261 0.05264 0.0
C815 C 0.40102 0.01105 0.89038 0.0
C816 C 0.42274 0.97558 0.04654 0.0
C817 C 0.40963 0.97501 0.104 0.0
C818 C 0.43283 0.99431 0.00482 0.0
C819 C 0.42965 0.01298 0.02048 0.0
C820 C 0.41758 0.01311 0.08127 0.0
C821 C 0.40776 0.99412 0.12256 0.0
C822 C 0.44589 0.99357 0.94163 0.0
C823 C 0.41398 0.0328 0.10023 0.0
H824 H 0.48352 0.08541 0.96375 0.0
H825 H 0.4207 0.05063 0.82647 0.0
H826 H 0.46865 0.05352 0.10457 0.0
H827 H 0.4774 0.03714 0.05074 0.0
H828 H 0.49328 0.0677 0.05356 0.0
H829 H 0.39294 0.01256 0.83855 0.0
H830 H 0.40201 0.99532 0.88453 0.0
H831 H 0.38985 0.00915 0.93473 0.0
H832 H 0.42424 0.96083 0.03192 0.0
H833 H 0.39736 0.99363 0.16607 0.0
H834 H 0.46267 0.00942 0.94386 0.0
H835 H 0.43627 0.99229 0.88932 0.0
H836 H 0.44874 0.9789 0.94121 0.0
H837 H 0.43057 0.04894 0.10697 0.0
H838 H 0.40531 0.03089 0.15123 0.0
H839 H 0.40348 0.0342 0.05482 0.0
C840 C 0.63353 0.05895 0.85166 0.0
C841 C 0.62912 0.07652 0.86868 0.0
C842 C 0.62342 0.03902 0.88862 0.0
C843 C 0.6086 0.03674 0.94362 0.0
C844 C 0.60302 0.05387 0.95729 0.0
C845 C 0.61332 0.07348 0.9197 0.0
C846 C 0.62954 0.02097 0.87168 0.0
C847 C 0.58717 0.0521 0.01461 0.0
C848 C 0.57047 0.97779 1.00346 0.0
C849 C 0.58308 0.97762 0.06616 0.0
C850 C 0.57832 0.997 0.96407 0.0
C851 C 0.5993 0.01672 0.98801 0.0
C852 C 0.61143 0.0172 0.05397 0.0
C853 C 0.60316 0.99759 0.09238 0.0
C854 C 0.56467 0.99577 0.89479 0.0
C855 C 0.63369 0.03807 0.08202 0.0
H856 H 0.64606 0.06142 0.81341 0.0
H857 H 0.60995 0.0871 0.93325 0.0
H858 H 0.63913 0.01975 0.92022 0.0
H859 H 0.61385 1.00417 0.85936 0.0
H860 H 0.64013 0.0246 0.82458 0.0
H861 H 0.5832 0.06603 0.01464 0.0
H862 H 0.57094 0.03565 0.00563 0.0
H863 H 0.59513 0.05273 0.06953 0.0
H864 H 0.55487 0.96239 0.983 0.0
H865 H 0.61313 0.99747 0.14012 0.0
H866 H 0.57446 0.99694 0.84706 0.0
H867 H 0.56161 0.01028 0.89597 0.0
H868 H 0.54795 0.97975 0.8864 0.0
H869 H 0.6466 0.04151 0.04231 0.0
H870 H 0.64041 0.03617 0.13595 0.0
H871 H 0.63148 0.05309 0.08727 0.0
C872 C 0.05459 0.6558 0.13691 0.0
C873 C 0.07529 0.65641 0.1293 0.0
C874 C 0.0363 0.64443 0.08233 0.0
C875 C 0.03895 0.63381 0.0181 0.0
C876 C 0.06002 0.63485 0.0097 0.0
C877 C 0.07771 0.64572 0.06593 0.0
C878 C 0.01392 0.64325 0.0943 0.0
C879 C 0.06378 0.62418 0.94179 0.0
C880 C 0.98434 0.58368 0.9275 0.0
C881 C 0.97768 0.59367 0.87405 0.0
C882 C 1.00465 0.59636 0.97268 0.0
C883 C 0.01898 0.61966 0.96359 0.0
C884 C 0.01338 0.62941 0.90541 0.0
C885 C 0.99265 0.61629 0.86136 0.0
C886 C 0.00985 0.58518 0.03372 0.0
C887 C 0.0285 0.65403 0.89274 0.0
H888 H 0.05262 0.66399 0.18582 0.0
H889 H 0.09347 0.64564 0.06049 0.0
H890 H 0.00863 0.64978 0.04769 0.0
H891 H 1.00041 0.62531 0.0969 0.0
H892 H 0.01488 0.65313 0.14558 0.0
H893 H 0.08141 0.62706 0.94283 0.0
H894 H 0.05162 0.60564 0.93583 0.0
H895 H 0.0605 0.63127 0.89266 0.0
H896 H 0.97278 0.56618 0.9375 0.0
H897 H 0.98743 0.6242 0.82094 0.0
H898 H 0.00908 0.59293 0.08726 0.0
H899 H 0.02735 0.58794 0.03214 0.0
H900 H 0.99764 0.56663 0.03073 0.0
H901 H 0.02745 0.66489 0.93753 0.0
H902 H 0.02344 0.65821 0.83993 0.0
H903 H 0.04657 0.65833 0.89333 0.0
C904 C 0.3824 0.43874 0.10144 0.0
C905 C 0.39602 0.45884 0.14657 0.0
C906 C 0.39187 0.43071 0.05008 0.0
C907 C 0.4156 0.44324 0.04268 0.0
C908 C 0.42924 0.46428 0.08516 0.0
C909 C 0.41934 0.47171 0.1374 0.0
C910 C 0.37666 0.40799 0.00755 0.0
C911 C 0.45449 0.47845 0.07763 0.0
C912 C 0.44236 0.40737 1.00116 0.0
C913 C 0.44356 0.40756 0.92495 0.0
C914 C 0.4337 0.41918 0.03944 0.0
C915 C 0.42646 0.43226 1.00145 0.0
C916 C 0.42819 0.43325 0.92479 0.0
C917 C 0.43642 0.42056 0.88705 0.0
C918 C 0.43153 0.41686 0.12055 0.0
C919 C 0.42107 0.44743 0.88273 0.0
H920 H 0.3643 0.42878 0.10799 0.0
H921 H 0.42983 0.48746 0.1713 0.0
H922 H 0.37931 0.40912 0.94856 0.0
H923 H 0.38109 0.39543 0.02694 0.0
H924 H 0.3583 0.40152 0.01399 0.0
H925 H 0.46186 0.49591 0.10436 0.0
H926 H 0.46344 0.47036 0.10331 0.0
H927 H 0.45786 0.47947 0.01907 0.0
H928 H 0.44748 0.39722 0.03153 0.0
H929 H 0.43728 0.42085 0.82838 0.0
H930 H 0.41339 0.40948 0.1319 0.0
H931 H 0.44125 0.43378 0.15154 0.0
H932 H 0.43786 0.40587 0.14178 0.0
H933 H 0.40231 0.4399 0.88097 0.0
H934 H 0.426 0.44865 0.82568 0.0
H935 H 0.42892 0.46479 0.91055 0.0
C936 C 0.07658 0.2147 0.56136 0.0
C937 C 0.06288 0.21903 0.5128 0.0
C938 C 0.09572 0.21403 0.53947 0.0
C939 C 0.10124 0.21718 0.46606 0.0
C940 C 0.08625 0.21947 0.41483 0.0
C941 C 0.06735 0.22067 0.43898 0.0
C942 C 0.11111 0.2119 0.59694 0.0
C943 C 0.09074 0.22195 0.33541 0.0
C944 C 0.16538 0.24845 0.4655 0.0
C945 C 0.17004 0.23061 0.46286 0.0
C946 C 0.14296 0.24439 0.45907 0.0
C947 C 0.12447 0.2218 0.44829 0.0
C948 C 0.12916 0.20385 0.43626 0.0
C949 C 0.15196 0.20841 0.44455 0.0
C950 C 0.13914 0.26421 0.47198 0.0
C951 C 0.11006 0.17967 0.42012 0.0
H952 H 0.07311 0.21312 0.61837 0.0
H953 H 0.05682 0.22391 0.40089 0.0
H954 H 0.11404 0.19786 0.57972 0.0
H955 H 0.12795 0.22777 0.60378 0.0
H956 H 0.10392 0.20871 0.65093 0.0
H957 H 0.07451 0.21495 0.30013 0.0
H958 H 0.10123 0.24021 0.32693 0.0
H959 H 0.10004 0.21329 0.31759 0.0
H960 H 0.17936 0.26571 0.47839 0.0
H961 H 0.15539 0.19452 0.44183 0.0
H962 H 0.13152 0.26314 0.52472 0.0
H963 H 0.12703 0.26373 0.42826 0.0
H964 H 0.15524 0.2808 0.47389 0.0
H965 H 0.10306 0.17253 0.47191 0.0
H966 H 0.11612 0.1689 0.39361 0.0
H967 H 0.09598 0.17881 0.38413 0.0
C968 C 0.82189 0.96512 0.51612 0.0
C969 C 0.80304 0.96536 0.48235 0.0
C970 C 0.82296 0.94503 0.51543 0.0
C971 C 0.80432 0.92436 0.48261 0.0
C972 C 0.78545 0.92464 0.44685 0.0
C973 C 0.78521 0.94518 0.44616 0.0
C974 C 0.84375 0.94582 0.55215 0.0
C975 C 0.76489 0.90301 0.41304 0.0
C976 C 0.81043 0.8719 0.44595 0.0
C977 C 0.80284 0.8607 0.50951 0.0
C978 C 0.81137 0.89276 0.43676 0.0
C979 C 0.80378 0.90231 0.49119 0.0
C980 C 0.7958 0.89085 0.55492 0.0
C981 C 0.79577 0.87047 0.56374 0.0
C982 C 0.82068 0.90468 0.36908 0.0
C983 C 0.78692 0.89992 0.61356 0.0
H984 H 0.83574 0.98067 0.54416 0.0
H985 H 0.77043 0.94518 0.42097 0.0
H986 H 0.83924 0.9369 0.60279 0.0
H987 H 0.84993 0.93694 0.5158 0.0
H988 H 0.85787 0.96349 0.56687 0.0
H989 H 0.75222 0.9062 0.38359 0.0
H990 H 0.77013 0.89385 0.37427 0.0
H991 H 0.75648 0.89165 0.4565 0.0
H992 H 0.81591 0.86448 0.40375 0.0
H993 H 0.78951 0.8618 0.6125 0.0
H994 H 0.8352 0.92205 0.38485 0.0
H995 H 0.8074 0.90647 0.33754 0.0
H996 H 0.82656 0.89545 0.33295 0.0
H997 H 0.80071 0.91678 0.63779 0.0
H998 H 0.7803 0.88847 0.6581 0.0
H999 H 0.77302 0.90226 0.58931 0.0
C1000 C 0.06544 0.8665 0.39813 0.0
C1001 C 0.05829 0.86058 0.46824 0.0
C1002 C 0.08566 0.88689 0.38829 0.0
C1003 C 0.09942 0.90164 0.44999 0.0
C1004 C 0.09168 0.89628 0.52048 0.0
C1005 C 0.07125 0.87603 0.52862 0.0
C1006 C 0.09288 0.89201 0.31201 0.0
C1007 C 0.10578 0.91121 0.58814 0.0
C1008 C 0.1641 0.93431 0.45363 0.0
C1009 C 0.16929 0.95698 0.45599 0.0
C1010 C 0.1415 0.91622 0.4474 0.0
C1011 C 0.12328 0.9207 0.44286 0.0
C1012 C 0.12835 0.94351 0.43936 0.0
C1013 C 0.15135 0.96146 0.44631 0.0
C1014 C 0.13723 0.89237 0.45144 0.0
C1015 C 0.10951 0.94906 0.43279 0.0
H1016 H 0.05563 0.85486 0.35082 0.0
H1017 H 0.06606 0.87181 0.58314 0.0
H1018 H 0.09925 0.91016 0.30428 0.0
H1019 H 0.10704 0.8887 0.30348 0.0
H1020 H 0.07866 0.88136 0.26963 0.0
H1021 H 0.09659 0.90582 0.63821 0.0
H1022 H 0.12178 0.91061 0.59568 0.0
H1023 H 0.11064 0.9291 0.58208 0.0
H1024 H 0.17792 0.93075 0.46111 0.0
H1025 H 0.15519 0.97892 0.44891 0.0
H1026 H 0.12495 0.8809 0.40562 0.0
H1027 H 0.12959 0.88579 0.50308 0.0
H1028 H 0.15314 0.89158 0.44966 0.0
H1029 H 0.09568 0.93702 0.39136 0.0
H1030 H 0.11585 0.96665 0.41761 0.0
H1031 H 0.10199 0.94737 0.48592 0.0
C1032 C 0.20088 0.15072 0.48791 0.0
C1033 C 0.21769 0.17044 0.52927 0.0
C1034 C 0.19983 0.12972 0.4933 0.0
C1035 C 0.21644 0.12841 0.53947 0.0
C1036 C 0.23305 0.14817 0.58299 0.0
C1037 C 0.23328 0.16882 0.57809 0.0
C1038 C 0.18147 0.10908 0.44719 0.0
C1039 C 0.25149 0.14786 0.63138 0.0
C1040 C 0.20889 0.07022 0.57676 0.0
C1041 C 0.22032 0.06676 0.52052 0.0
C1042 C 0.20734 0.09014 0.58383 0.0
C1043 C 0.21811 0.10726 0.53507 0.0
C1044 C 0.23032 0.10403 0.48002 0.0
C1045 C 0.23098 0.08382 0.47288 0.0
C1046 C 0.19371 0.09262 0.64215 0.0
C1047 C 0.24269 0.12195 0.4281 0.0
H1048 H 0.18865 0.15177 0.45048 0.0
H1049 H 0.24645 0.18399 0.60988 0.0
H1050 H 0.18917 0.10436 0.4027 0.0
H1051 H 0.17329 0.09441 0.48069 0.0
H1052 H 0.1681 0.11209 0.42213 0.0
H1053 H 0.26181 0.16393 0.66683 0.0
H1054 H 0.24398 0.13357 0.66653 0.0
H1055 H 0.26305 0.14523 0.59683 0.0
H1056 H 0.2006 0.05711 0.61366 0.0
H1057 H 0.24018 0.08145 0.42999 0.0
H1058 H 0.17935 0.09393 0.61622 0.0
H1059 H 0.20449 0.10848 0.67795 0.0
H1060 H 0.1867 0.07808 0.67656 0.0
H1061 H 0.23025 0.1243 0.39383 0.0
H1062 H 0.25261 0.11746 0.39141 0.0
H1063 H 0.25454 0.13847 0.45933 0.0
C1064 C 0.8558 0.09581 0.56179 0.0
C1065 C 0.85098 0.07327 0.55418 0.0
C1066 C 0.8783 0.11407 0.5689 0.0
C1067 C 0.89666 0.1098 0.56862 0.0
C1068 C 0.89195 0.08702 0.56713 0.0
C1069 C 0.86907 0.06893 0.5597 0.0
C1070 C 0.88227 0.13792 0.57054 0.0
C1071 C 0.91098 0.0817 0.56819 0.0
C1072 C 0.94758 0.15578 0.48286 0.0
C1073 C 0.96125 0.17021 0.54419 0.0
C1074 C 0.92718 0.13548 0.49035 0.0
C1075 C 0.92022 0.12912 0.561 0.0
C1076 C 0.93459 0.14291 0.62323 0.0
C1077 C 0.9548 0.16333 0.61415 0.0
C1078 C 0.91239 0.1215 0.42229 0.0
C1079 C 0.9281 0.13664 0.6995 0.0
H1080 H 0.84181 0.09919 0.5575 0.0
H1081 H 0.86544 0.05155 0.55302 0.0
H1082 H 0.8951 0.14889 0.61596 0.0
H1083 H 0.88911 0.14528 0.51879 0.0
H1084 H 0.86637 0.13844 0.57702 0.0
H1085 H 0.90496 0.06389 0.58015 0.0
H1086 H 0.918 0.08425 0.51404 0.0
H1087 H 0.92509 0.0933 0.60953 0.0
H1088 H 0.9523 0.16077 0.42851 0.0
H1089 H 0.96526 0.17417 0.66208 0.0
H1090 H 0.89631 0.12204 0.41912 0.0
H1091 H 0.90771 0.10349 0.4244 0.0
H1092 H 0.92096 0.12773 0.37162 0.0
H1093 H 0.9137 0.13926 0.71151 0.0
H1094 H 0.94252 0.14704 0.74153 0.0
H1095 H 0.92229 0.11845 0.70414 0.0
C1096 C 0.95482 0.80875 0.57441 0.0
C1097 C 0.95411 0.80062 0.50205 0.0
C1098 C 0.93661 0.81135 0.59838 0.0
C1099 C 0.91723 0.80541 0.54915 0.0
C1100 C 0.91647 0.7968 0.47672 0.0
C1101 C 0.9348 0.79471 0.45431 0.0
C1102 C 0.93828 0.82079 0.67577 0.0
C1103 C 0.89626 0.78991 0.42191 0.0
C1104 C 0.85696 0.79052 0.58659 0.0
C1105 C 0.85596 0.80879 0.55885 0.0
C1106 C 0.87764 0.79024 0.5924 0.0
C1107 C 0.89783 0.8087 0.57003 0.0
C1108 C 0.89728 0.82825 0.55033 0.0
C1109 C 0.87635 0.8279 0.54393 0.0
C1110 C 0.87715 0.76899 0.61377 0.0
C1111 C 0.91825 0.84852 0.52717 0.0
H1112 H 0.96961 0.81332 0.61177 0.0
H1113 H 0.93386 0.78825 0.3984 0.0
H1114 H 0.93957 0.83763 0.67528 0.0
H1115 H 0.92265 0.8096 0.70243 0.0
H1116 H 0.95336 0.82275 0.70911 0.0
H1117 H 0.89786 0.78259 0.36871 0.0
H1118 H 0.8803 0.77718 0.44382 0.0
H1119 H 0.89453 0.80488 0.41178 0.0
H1120 H 0.84118 0.77545 0.59642 0.0
H1121 H 0.87563 0.84188 0.52103 0.0
H1122 H 0.89292 0.77315 0.64775 0.0
H1123 H 0.87616 0.75867 0.56362 0.0
H1124 H 0.86215 0.75851 0.6443 0.0
H1125 H 0.93361 0.85237 0.56294 0.0
H1126 H 0.91643 0.86382 0.52847 0.0
H1127 H 0.92103 0.84472 0.47045 0.0
C1128 C 0.82184 0.53996 0.74411 0.0
C1129 C 0.83787 0.55423 0.80131 0.0
C1130 C 0.79973 0.53696 0.73805 0.0
C1131 C 0.79394 0.54924 0.78867 0.0
C1132 C 0.81025 0.56384 0.846 0.0
C1133 C 0.83183 0.56583 0.85232 0.0
C1134 C 0.78257 0.52066 0.67771 0.0
C1135 C 0.80513 0.57786 0.89972 0.0
C1136 C 0.74737 0.56271 0.73812 0.0
C1137 C 0.73053 0.54931 0.7834 0.0
C1138 C 0.76782 0.56231 0.73739 0.0
C1139 C 0.77117 0.54756 0.78115 0.0
C1140 C 0.75357 0.53294 0.82346 0.0
C1141 C 0.73363 0.53432 0.82523 0.0
C1142 C 0.78639 0.57874 0.69346 0.0
C1143 C 0.75615 0.51644 0.86895 0.0
H1144 H 0.82649 0.53093 0.70482 0.0
H1145 H 0.84432 0.57712 0.89606 0.0
H1146 H 0.76677 0.50819 0.70113 0.0
H1147 H 0.77776 0.53001 0.63982 0.0
H1148 H 0.78925 0.51133 0.64581 0.0
H1149 H 0.81993 0.58889 0.9398 0.0
H1150 H 0.80025 0.58874 0.86992 0.0
H1151 H 0.79049 0.5666 0.9302 0.0
H1152 H 0.74513 0.57452 0.70632 0.0
H1153 H 0.72055 0.52384 0.85993 0.0
H1154 H 0.79248 0.56969 0.65768 0.0
H1155 H 0.80119 0.59126 0.73112 0.0
H1156 H 0.78059 0.5881 0.65894 0.0
H1157 H 0.76248 0.50695 0.83625 0.0
H1158 H 0.73982 0.50411 0.89013 0.0
H1159 H 0.76891 0.52586 0.91618 0.0
C1160 C 0.45526 0.2854 0.75422 0.0
C1161 C 0.47237 0.30451 0.79706 0.0
C1162 C 0.45527 0.26477 0.75025 0.0
C1163 C 0.47322 0.26346 0.78824 0.0
C1164 C 0.49142 0.28327 0.82704 0.0
C1165 C 0.49053 0.30341 0.83219 0.0
C1166 C 0.4352 0.24399 0.71006 0.0
C1167 C 0.51125 0.28289 0.86639 0.0
C1168 C 0.46125 0.20812 0.8641 0.0
C1169 C 0.46938 0.19893 0.81175 0.0
C1170 C 0.46192 0.22876 0.85592 0.0
C1171 C 0.47166 0.241 0.79496 0.0
C1172 C 0.48013 0.23192 0.74212 0.0
C1173 C 0.47852 0.21077 0.75048 0.0
C1174 C 0.45206 0.2374 0.91255 0.0
C1175 C 0.49125 0.24473 0.67761 0.0
H1176 H 0.44102 0.28613 0.72793 0.0
H1177 H 0.5038 0.31821 0.86528 0.0
H1178 H 0.44107 0.235 0.67306 0.0
H1179 H 0.42508 0.23205 0.75016 0.0
H1180 H 0.42384 0.24824 0.67744 0.0
H1181 H 0.52552 0.30025 0.88438 0.0
H1182 H 0.50555 0.27329 0.91535 0.0
H1183 H 0.5177 0.27416 0.83057 0.0
H1184 H 0.45385 0.19888 0.91101 0.0
H1185 H 0.48488 0.20373 0.70998 0.0
H1186 H 0.4392 0.2408 0.8857 0.0
H1187 H 0.46573 0.25365 0.94098 0.0
H1188 H 0.44385 0.22519 0.95416 0.0
H1189 H 0.47916 0.24795 0.64483 0.0
H1190 H 0.49705 0.23542 0.6415 0.0
H1191 H 0.50618 0.26151 0.69723 0.0
C1192 C 0.75481 0.22084 0.87557 0.0
C1193 C 0.73723 0.21086 0.81883 0.0
C1194 C 0.77565 0.24053 0.86667 0.0
C1195 C 0.77891 0.2509 0.79993 0.0
C1196 C 0.76093 0.24135 0.74338 0.0
C1197 C 0.74045 0.22135 0.75317 0.0
C1198 C 0.79445 0.24988 0.92807 0.0
C1199 C 0.76341 0.25213 0.67217 0.0
C1200 C 0.82768 0.31222 0.81471 0.0
C1201 C 0.84535 0.30994 0.78706 0.0
C1202 C 0.80558 0.29337 0.81482 0.0
C1203 C 0.80127 0.27153 0.78949 0.0
C1204 C 0.81894 0.26931 0.75918 0.0
C1205 C 0.84071 0.28862 0.75744 0.0
C1206 C 0.78715 0.29672 0.84534 0.0
C1207 C 0.81534 0.24634 0.73321 0.0
H1208 H 0.75263 0.21276 0.92617 0.0
H1209 H 0.72696 0.21383 0.70901 0.0
H1210 H 0.80977 0.25014 0.90857 0.0
H1211 H 0.79945 0.26764 0.94584 0.0
H1212 H 0.78932 0.23975 0.97619 0.0
H1213 H 0.74741 0.24341 0.63531 0.0
H1214 H 0.76842 0.27022 0.68293 0.0
H1215 H 0.77716 0.25166 0.64342 0.0
H1216 H 0.83136 0.32868 0.83843 0.0
H1217 H 0.85453 0.28677 0.73775 0.0
H1218 H 0.78314 0.28931 0.89867 0.0
H1219 H 0.77126 0.28781 0.8081 0.0
H1220 H 0.79235 0.31495 0.8537 0.0
H1221 H 0.81227 0.23595 0.78041 0.0
H1222 H 0.83026 0.2476 0.70695 0.0
H1223 H 0.80003 0.23718 0.69365 0.0
C1224 C 0.88057 0.48733 0.78622 0.0
C1225 C 0.89087 0.50678 0.83585 0.0
C1226 C 0.88199 0.46801 0.79998 0.0
C1227 C 0.89334 0.46767 0.8663 0.0
C1228 C 0.9018 0.48641 0.91978 0.0
C1229 C 0.90086 0.50593 0.90341 0.0
C1230 C 0.87308 0.44878 0.74046 0.0
C1231 C 0.91302 0.48641 0.99267 0.0
C1232 C 0.89011 0.4104 0.88398 0.0
C1233 C 0.91041 0.41459 0.8548 0.0
C1234 C 0.88492 0.42799 0.89388 0.0
C1235 C 0.90011 0.44996 0.87235 0.0
C1236 C 0.92119 0.45438 0.84725 0.0
C1237 C 0.92615 0.43684 0.84007 0.0
C1238 C 0.86273 0.42275 0.92405 0.0
C1239 C 0.93792 0.47726 0.82251 0.0
H1240 H 0.87259 0.48767 0.73411 0.0
H1241 H 0.90856 0.52074 0.94258 0.0
H1242 H 0.88763 0.44795 0.7187 0.0
H1243 H 0.86196 0.43234 0.76268 0.0
H1244 H 0.86325 0.45087 0.69439 0.0
H1245 H 0.91325 0.49898 0.03399 0.0
H1246 H 0.90408 0.46934 0.01335 0.0
H1247 H 0.93091 0.49088 0.98646 0.0
H1248 H 0.87793 0.39332 0.89613 0.0
H1249 H 0.94211 0.44037 0.81885 0.0
H1250 H 0.84976 0.41899 0.87825 0.0
H1251 H 0.86476 0.43744 0.95922 0.0
H1252 H 0.85618 0.40771 0.95627 0.0
H1253 H 0.92986 0.48101 0.77535 0.0
H1254 H 0.95376 0.47803 0.80579 0.0
H1255 H 0.94269 0.49083 0.86694 0.0
C1256 C 0.52521 0.42549 0.89949 0.0
C1257 C 0.52284 0.40483 0.87209 0.0
C1258 C 0.54662 0.44561 0.90582 0.0
C1259 C 0.56607 0.44497 0.88421 0.0
C1260 C 0.56412 0.42361 0.86604 0.0
C1261 C 0.54246 0.40383 0.85904 0.0
C1262 C 0.54771 0.46784 0.92581 0.0
C1263 C 0.58438 0.42191 0.84444 0.0
C1264 C 0.60375 0.4902 0.76322 0.0
C1265 C 0.62333 0.50465 0.8099 0.0
C1266 C 0.58513 0.47121 0.78758 0.0
C1267 C 0.58595 0.46602 0.86091 0.0
C1268 C 0.60562 0.48061 0.90904 0.0
C1269 C 0.62411 0.49988 0.883 0.0
C1270 C 0.56454 0.45659 0.73401 0.0
C1271 C 0.60736 0.4756 0.98727 0.0
H1272 H 0.51001 0.4264 0.90815 0.0
H1273 H 0.54063 0.38796 0.83662 0.0
H1274 H 0.56379 0.47979 0.95934 0.0
H1275 H 0.54729 0.47581 0.87504 0.0
H1276 H 0.53303 0.46537 0.95629 0.0
H1277 H 0.58144 0.40446 0.84771 0.0
H1278 H 0.58748 0.42635 0.78724 0.0
H1279 H 0.59998 0.43397 0.87988 0.0
H1280 H 0.60285 0.49378 0.70674 0.0
H1281 H 0.6392 0.51093 0.91932 0.0
H1282 H 0.54895 0.45506 0.7559 0.0
H1283 H 0.56201 0.43925 0.72591 0.0
H1284 H 0.56627 0.46352 0.67981 0.0
H1285 H 0.59144 0.47131 0.01313 0.0
H1286 H 0.62199 0.49013 0.02034 0.0
H1287 H 0.60967 0.46064 0.98852 0.0
C1288 C 0.61262 0.14683 0.79837 0.0
C1289 C 0.63189 0.15842 0.84855 0.0
C1290 C 0.59218 0.1464 0.81065 0.0
C1291 C 0.59092 0.15811 0.87456 0.0
C1292 C 0.61023 0.16941 0.92655 0.0
C1293 C 0.6305 0.16931 0.91312 0.0
C1294 C 0.57209 0.13385 0.75393 0.0
C1295 C 0.60968 0.18216 0.9951 0.0
C1296 C 0.54567 0.17408 0.83609 0.0
C1297 C 0.52642 0.15588 0.86116 0.0
C1298 C 0.56738 0.17638 0.84722 0.0
C1299 C 0.56985 0.15968 0.88269 0.0
C1300 C 0.55076 0.14234 0.91375 0.0
C1301 C 0.52924 0.14069 0.90281 0.0
C1302 C 0.58715 0.19537 0.81404 0.0
C1303 C 0.55244 0.12411 0.95178 0.0
H1304 H 0.61361 0.13815 0.74882 0.0
H1305 H 0.64539 0.17817 0.95214 0.0
H1306 H 0.55674 0.12167 0.77994 0.0
H1307 H 0.56814 0.14605 0.72876 0.0
H1308 H 0.57535 0.12438 0.70979 0.0
H1309 H 0.62521 0.18823 0.03319 0.0
H1310 H 0.60834 0.19703 0.98039 0.0
H1311 H 0.59445 0.17122 0.02389 0.0
H1312 H 0.54345 0.1856 0.80271 0.0
H1313 H 0.5143 0.12625 0.92063 0.0
H1314 H 0.5907 0.18848 0.76357 0.0
H1315 H 0.6028 0.20303 0.85228 0.0
H1316 H 0.5835 0.2089 0.79949 0.0
H1317 H 0.55271 0.1119 0.91022 0.0
H1318 H 0.53773 0.11462 0.98457 0.0
H1319 H 0.56847 0.13146 0.98809 0.0
C1320 C 0.48896 0.87577 0.07571 0.0
C1321 C 0.50871 0.8972 0.08561 0.0
C1322 C 0.4672 0.87362 0.06712 0.0
C1323 C 0.46524 0.89337 0.07176 0.0
C1324 C 0.48528 0.9149 0.07243 0.0
C1325 C 0.50677 0.91652 0.07902 0.0
C1326 C 0.44634 0.85029 0.06217 0.0
C1327 C 0.48423 0.93647 0.07689 0.0
C1328 C 0.40896 0.89391 0.07619 0.0
C1329 C 0.40697 0.89471 0.15175 0.0
C1330 C 0.42718 0.89229 0.04804 0.0
C1331 C 0.44396 0.89204 0.09684 0.0
C1332 C 0.44135 0.89204 0.17284 0.0
C1333 C 0.42285 0.89306 0.19885 0.0
C1334 C 0.42879 0.89172 0.96657 0.0
C1335 C 0.45871 0.89203 0.22773 0.0
H1336 H 0.49037 0.86079 0.08161 0.0
H1337 H 0.52203 0.93313 0.08768 0.0
H1338 H 0.44028 0.84628 0.11738 0.0
H1339 H 0.43231 0.84954 0.0262 0.0
H1340 H 0.45011 0.83711 0.04095 0.0
H1341 H 0.50064 0.95138 0.06546 0.0
H1342 H 0.47048 0.93493 0.0377 0.0
H1343 H 0.48029 0.93961 0.1327 0.0
H1344 H 0.39678 0.89523 0.0394 0.0
H1345 H 0.42137 0.89349 0.2573 0.0
H1346 H 0.43679 0.88175 0.94874 0.0
H1347 H 0.43942 0.90929 0.95118 0.0
H1348 H 0.41168 0.88439 0.93643 0.0
H1349 H 0.45998 0.87662 0.21659 0.0
H1350 H 0.45435 0.89252 0.28499 0.0
H1351 H 0.4758 0.90698 0.22297 0.0
C1352 C 0.13935 0.62273 0.24341 0.0
C1353 C 0.14943 0.6387 0.19212 0.0
C1354 C 0.14085 0.60293 0.24176 0.0
C1355 C 0.15341 0.59923 0.18899 0.0
C1356 C 0.16396 0.61548 0.13762 0.0
C1357 C 0.16149 0.63483 0.13894 0.0
C1358 C 0.12869 0.58582 0.29612 0.0
C1359 C 0.17807 0.61256 0.08193 0.0
C1360 C 0.17143 0.55688 0.24277 0.0
C1361 C 0.15519 0.53699 0.20094 0.0
C1362 C 0.17197 0.57759 0.2359 0.0
C1363 C 0.1553 0.57827 0.18819 0.0
C1364 C 0.13913 0.55827 0.14476 0.0
C1365 C 0.13952 0.538 0.1508 0.0
C1366 C 0.18995 0.59858 0.28156 0.0
C1367 C 0.12056 0.55792 0.09506 0.0
H1368 H 0.12973 0.62545 0.28406 0.0
H1369 H 0.16937 0.64715 0.09934 0.0
H1370 H 0.11689 0.56894 0.26685 0.0
H1371 H 0.14123 0.58399 0.33176 0.0
H1372 H 0.11875 0.59071 0.33133 0.0
H1373 H 0.18576 0.62702 0.04733 0.0
H1374 H 0.19194 0.61092 0.11009 0.0
H1375 H 0.16736 0.59672 0.04594 0.0
H1376 H 0.18362 0.55619 0.28142 0.0
H1377 H 0.12672 0.52259 0.11909 0.0
H1378 H 0.18191 0.60342 0.32458 0.0
H1379 H 0.19813 0.61302 0.24715 0.0
H1380 H 0.20337 0.59597 0.30845 0.0
H1381 H 0.10915 0.56117 0.12839 0.0
H1382 H 0.11012 0.54141 0.06189 0.0
H1383 H 0.12801 0.57159 0.05759 0.0
C1384 C 0.48631 0.6453 0.15361 0.0
C1385 C 0.5059 0.64535 0.13294 0.0
C1386 C 0.46544 0.62487 0.15391 0.0
C1387 C 0.46436 0.60393 0.13552 0.0
C1388 C 0.48381 0.604 0.1106 0.0
C1389 C 0.50425 0.62473 0.10863 0.0
C1390 C 0.44495 0.62566 0.17829 0.0
C1391 C 0.48366 0.58215 0.09186 0.0
C1392 C 0.42301 0.55316 0.23314 0.0
C1393 C 0.40597 0.53983 0.17703 0.0
C1394 C 0.44204 0.57397 0.22016 0.0
C1395 C 0.44382 0.58205 0.14981 0.0
C1396 C 0.4263 0.56897 0.09348 0.0
C1397 C 0.40777 0.54787 0.10745 0.0
C1398 C 0.46055 0.58705 0.28142 0.0
C1399 C 0.42718 0.57723 0.01843 0.0
H1400 H 0.48757 0.6612 0.17278 0.0
H1401 H 0.51941 0.62459 0.09357 0.0
H1402 H 0.4295 0.61404 0.14147 0.0
H1403 H 0.4417 0.6199 0.23405 0.0
H1404 H 0.44748 0.64305 0.17944 0.0
H1405 H 0.49939 0.58507 0.06697 0.0
H1406 H 0.48229 0.57344 0.14235 0.0
H1407 H 0.46867 0.57051 0.05351 0.0
H1408 H 0.42186 0.54695 0.28678 0.0
H1409 H 0.3946 0.53769 0.0639 0.0
H1410 H 0.46263 0.60409 0.29344 0.0
H1411 H 0.47708 0.5896 0.26459 0.0
H1412 H 0.45683 0.57824 0.33244 0.0
H1413 H 0.4292 0.59442 0.0229 0.0
H1414 H 0.41159 0.56571 0.98189 0.0
H1415 H 0.44219 0.57864 0.99263 0.0
C1416 C 0.57784 0.76377 0.22329 0.0
C1417 C 0.56011 0.74376 0.18624 0.0
C1418 C 0.57739 0.78415 0.22382 0.0
C1419 C 0.55843 0.78426 0.18826 0.0
C1420 C 0.53974 0.76365 0.15559 0.0
C1421 C 0.541 0.74374 0.15382 0.0
C1422 C 0.59792 0.8058 0.25769 0.0
C1423 C 0.51892 0.76284 0.11902 0.0
C1424 C 0.55283 0.83695 0.2176 0.0
C1425 C 0.56062 0.84736 0.153 0.0
C1426 C 0.55173 0.81624 0.22979 0.0
C1427 C 0.55929 0.80616 0.17718 0.0
C1428 C 0.56747 0.81684 0.11242 0.0
C1429 C 0.56772 0.83709 0.10072 0.0
C1430 C 0.54231 0.80505 0.29848 0.0
C1431 C 0.57622 0.80702 0.05564 0.0
H1432 H 0.59273 0.76382 0.2477 0.0
H1433 H 0.52721 0.7282 0.12551 0.0
H1434 H 0.60683 0.81676 0.21387 0.0
H1435 H 0.59262 0.81541 0.2943 0.0
H1436 H 0.61019 0.80254 0.28941 0.0
H1437 H 0.50462 0.74516 0.10599 0.0
H1438 H 0.51305 0.77219 0.15455 0.0
H1439 H 0.52327 0.77122 0.06736 0.0
H1440 H 0.54733 0.84484 0.25817 0.0
H1441 H 0.57412 0.84524 0.05123 0.0
H1442 H 0.55536 0.8031 0.33078 0.0
H1443 H 0.52749 0.78777 0.28393 0.0
H1444 H 0.53682 0.81488 0.33344 0.0
H1445 H 0.58993 0.80463 0.0813 0.0
H1446 H 0.58306 0.81801 0.01009 0.0
H1447 H 0.56228 0.7901 0.03245 0.0
C1448 C 0.30157 0.83724 0.26709 0.0
C1449 C 0.30561 0.84403 0.19586 0.0
C1450 C 0.28185 0.817 0.28074 0.0
C1451 C 0.26552 0.80342 0.22201 0.0
C1452 C 0.26959 0.81014 0.15001 0.0
C1453 C 0.28963 0.83018 0.13778 0.0
C1454 C 0.27841 0.81023 0.35801 0.0
C1455 C 0.25253 0.79638 0.08579 0.0
C1456 C 0.22167 0.74082 0.22308 0.0
C1457 C 0.20159 0.74143 0.23155 0.0
C1458 C 0.24293 0.76091 0.22557 0.0
C1459 C 0.24406 0.78218 0.23487 0.0
C1460 C 0.224 0.78285 0.24809 0.0
C1461 C 0.20302 0.76243 0.24701 0.0
C1462 C 0.26391 0.75933 0.2132 0.0
C1463 C 0.22432 0.80509 0.25737 0.0
H1464 H 0.3138 0.8478 0.3124 0.0
H1465 H 0.29239 0.83534 0.08267 0.0
H1466 H 0.2628 0.8097 0.37581 0.0
H1467 H 0.27586 0.79293 0.36047 0.0
H1468 H 0.2931 0.82214 0.39721 0.0
H1469 H 0.25803 0.80411 0.03345 0.0
H1470 H 0.24996 0.77899 0.08044 0.0
H1471 H 0.23577 0.79476 0.09496 0.0
H1472 H 0.22059 0.72459 0.21089 0.0
H1473 H 0.18751 0.76302 0.25268 0.0
H1474 H 0.27834 0.77125 0.25307 0.0
H1475 H 0.26913 0.76422 0.15768 0.0
H1476 H 0.26085 0.74189 0.21792 0.0
H1477 H 0.23847 0.81719 0.29769 0.0
H1478 H 0.20802 0.80288 0.27544 0.0
H1479 H 0.22728 0.81284 0.20446 0.0
C1480 C 0.30485 0.48959 0.30346 0.0
C1481 C 0.31237 0.49567 0.23399 0.0
C1482 C 0.28549 0.49004 0.32568 0.0
C1483 C 0.27296 0.4959 0.27621 0.0
C1484 C 0.28152 0.50357 0.20816 0.0
C1485 C 0.3013 0.50376 0.18865 0.0
C1486 C 0.2778 0.48285 0.40021 0.0
C1487 C 0.26869 0.50966 0.15277 0.0
C1488 C 0.20878 0.46541 0.25216 0.0
C1489 C 0.20464 0.48336 0.26481 0.0
C1490 C 0.23083 0.46871 0.26297 0.0
C1491 C 0.24921 0.4905 0.28835 0.0
C1492 C 0.24455 0.50789 0.31054 0.0
C1493 C 0.22226 0.50425 0.29728 0.0
C1494 C 0.23473 0.44955 0.23858 0.0
C1495 C 0.2634 0.53092 0.34213 0.0
H1496 H 0.3135 0.48359 0.33928 0.0
H1497 H 0.30713 0.50875 0.13523 0.0
H1498 H 0.26853 0.49111 0.42191 0.0
H1499 H 0.2662 0.46421 0.39647 0.0
H1500 H 0.29258 0.48702 0.43963 0.0
H1501 H 0.27808 0.5161 0.10361 0.0
H1502 H 0.25187 0.49446 0.13495 0.0
H1503 H 0.26544 0.5228 0.1775 0.0
H1504 H 0.19508 0.44927 0.22687 0.0
H1505 H 0.21912 0.5182 0.30666 0.0
H1506 H 0.24516 0.44715 0.28159 0.0
H1507 H 0.24426 0.45379 0.18897 0.0
H1508 H 0.21848 0.43324 0.22557 0.0
H1509 H 0.27615 0.52939 0.3779 0.0
H1510 H 0.25659 0.54011 0.37412 0.0
H1511 H 0.27233 0.54125 0.29717 0.0
C1512 C 0.00889 0.22093 0.16298 0.0
C1513 C 1.00813 0.23716 0.21051 0.0
C1514 C 0.01086 0.22379 0.08798 0.0
C1515 C 0.01216 0.24338 0.0603 0.0
C1516 C 0.0113 0.25975 0.10822 0.0
C1517 C 0.00925 0.25641 0.18273 0.0
C1518 C 0.01166 0.20594 0.03843 0.0
C1519 C 0.0127 0.28086 0.0809 0.0
C1520 C 0.038 0.25995 0.87894 0.0
C1521 C 0.01843 0.25063 0.82993 0.0
C1522 C 0.03623 0.2581 0.9544 0.0
C1523 C 0.01437 0.2467 0.98111 0.0
C1524 C 0.99459 0.23802 0.93191 0.0
C1525 C 0.99687 0.2401 0.85684 0.0
C1526 C 0.05772 0.26774 0.00528 0.0
C1527 C 0.97099 0.22595 0.95827 0.0
H1528 H 1.0081 0.20609 0.18446 0.0
H1529 H 0.00876 0.26905 0.21948 0.0
H1530 H 0.99752 0.19907 0.99442 0.0
H1531 H 0.02786 0.21363 0.01169 0.0
H1532 H 0.01032 0.19166 0.06841 0.0
H1533 H 0.01177 0.29193 0.12535 0.0
H1534 H 0.02893 0.29077 0.05539 0.0
H1535 H 0.99859 0.27613 0.03813 0.0
H1536 H 0.05468 0.26807 0.85813 0.0
H1537 H 0.9817 0.23295 0.81896 0.0
H1538 H 0.05833 0.25383 0.03199 0.0
H1539 H 0.05775 0.2795 0.04925 0.0
H1540 H 0.07337 0.27701 0.97628 0.0
H1541 H 0.96811 0.21033 0.98295 0.0
H1542 H 0.9574 0.22116 0.91338 0.0
H1543 H 0.96937 0.23688 1.00141 0.0
C1544 C 0.78932 0.77077 0.1784 0.0
C1545 C 0.78085 0.7819 0.22149 0.0
C1546 C 0.78934 0.77211 0.1025 0.0
C1547 C 0.78061 0.78482 0.06945 0.0
C1548 C 0.7712 0.79531 0.11256 0.0
C1549 C 0.77144 0.79373 0.18825 0.0
C1550 C 0.79935 0.76056 0.05804 0.0
C1551 C 0.76153 0.80881 0.07913 0.0
C1552 C 0.8025 0.80883 0.88981 0.0
C1553 C 0.78454 0.79334 0.83964 0.0
C1554 C 0.80142 0.80626 0.96503 0.0
C1555 C 0.78196 0.78774 0.99012 0.0
C1556 C 0.76377 0.7721 0.9395 0.0
C1557 C 0.76528 0.77512 0.86477 0.0
C1558 C 0.82111 0.8233 0.01764 0.0
C1559 C 0.74279 0.75213 0.96422 0.0
H1560 H 0.79658 0.76162 0.20424 0.0
H1561 H 0.76477 0.80223 0.22166 0.0
H1562 H 0.78688 0.74923 0.01232 0.0
H1563 H 0.81465 0.77348 0.03358 0.0
H1564 H 0.80435 0.75039 0.09149 0.0
H1565 H 0.75374 0.81486 0.11969 0.0
H1566 H 0.77528 0.82375 0.05567 0.0
H1567 H 0.7484 0.79837 0.03372 0.0
H1568 H 0.8174 0.82288 0.87026 0.0
H1569 H 0.75139 0.76307 0.82589 0.0
H1570 H 0.82829 0.81457 0.04941 0.0
H1571 H 0.81504 0.83145 0.05733 0.0
H1572 H 0.83497 0.83675 0.98928 0.0
H1573 H 0.7477 0.74138 0.99465 0.0
H1574 H 0.73021 0.74145 0.91769 0.0
H1575 H 0.7344 0.7582 1.00218 0.0
C1576 C 0.21754 0.01445 0.13543 0.0
C1577 C 0.2343 0.01367 0.18059 0.0
C1578 C 0.21821 0.01377 0.05906 0.0
C1579 C 0.23595 0.01204 0.0274 0.0
C1580 C 0.25284 0.01112 0.073 0.0
C1581 C 0.25185 0.01205 0.14907 0.0
C1582 C 0.19996 0.01489 0.01224 0.0
C1583 C 0.27188 0.00903 0.04145 0.0
C1584 C 0.22552 0.98878 0.82832 0.0
C1585 C 0.23735 0.00866 0.79297 0.0
C1586 C 0.2251 0.98962 0.90466 0.0
C1587 C 0.23669 0.01089 0.94652 0.0
C1588 C 0.24893 0.03101 0.91107 0.0
C1589 C 0.24916 0.02965 0.83461 0.0
C1590 C 0.21205 0.96777 0.94045 0.0
C1591 C 0.26149 0.054 0.9538 0.0
H1592 H 0.20397 0.01573 0.1598 0.0
H1593 H 0.26479 0.01133 0.18395 0.0
H1594 H 0.2079 0.02955 0.97862 0.0
H1595 H 0.19054 0.99936 0.97398 0.0
H1596 H 0.18756 0.01656 0.04535 0.0
H1597 H 0.28353 0.0083 0.08444 0.0
H1598 H 0.26466 0.99348 1.0033 0.0
H1599 H 0.28199 0.02369 0.00952 0.0
H1600 H 0.21638 0.97252 0.79618 0.0
H1601 H 0.25829 0.04505 0.80731 0.0
H1602 H 0.19822 0.96792 0.96964 0.0
H1603 H 0.22353 0.96617 0.98174 0.0
H1604 H 0.20437 0.95261 0.90028 0.0
H1605 H 0.24933 0.05701 0.98369 0.0
H1606 H 0.27039 0.06799 0.9181 0.0
H1607 H 0.27426 0.05457 0.99522 0.0
C1608 C 0.01412 0.80925 0.85705 0.0
C1609 C 0.01787 0.79493 0.80977 0.0
C1610 C 0.0123 0.80603 0.93203 0.0
C1611 C 0.01406 0.78794 0.96015 0.0
C1612 C 0.01788 0.77348 0.91244 0.0
C1613 C 0.01983 0.77722 0.83802 0.0
C1614 C 0.00835 0.82189 0.98115 0.0
C1615 C 0.0197 0.75392 0.93984 0.0
C1616 C 0.02913 0.79213 0.16487 0.0
C1617 C 1.00762 0.77891 0.19056 0.0
C1618 C 0.03152 0.7949 0.09 0.0
C1619 C 0.01191 0.78415 0.03943 0.0
C1620 C 0.99022 0.77012 0.0649 0.0
C1621 C 0.98833 0.76768 0.14024 0.0
C1622 C 0.05497 0.80986 0.06532 0.0
C1623 C 0.96893 0.75816 0.01276 0.0
H1624 H 0.01251 0.8229 0.83538 0.0
H1625 H 0.02258 0.76598 0.8016 0.0
H1626 H 0.99209 0.81216 0.00666 0.0
H1627 H 0.0222 0.83018 0.02609 0.0
H1628 H 1.00763 0.83527 0.95111 0.0
H1629 H 0.02257 0.74416 0.8956 0.0
H1630 H 0.03396 0.7603 0.98327 0.0
H1631 H 1.00384 0.74219 0.96454 0.0
H1632 H 0.04411 0.80082 0.20361 0.0
H1633 H 0.97167 0.75749 0.15992 0.0
H1634 H 0.0556 0.82464 0.04067 0.0
H1635 H 0.05868 0.8004 0.02255 0.0
H1636 H 0.06857 0.8162 0.11109 0.0
H1637 H 0.96613 0.77086 0.98595 0.0
H1638 H 0.95353 0.74705 0.04074 0.0
H1639 H 0.97096 0.74768 0.96896 0.0
C1640 C 0.23632 0.22013 0.14487 0.0
C1641 C 0.22681 0.23021 0.18807 0.0
C1642 C 0.23749 0.22267 0.06946 0.0
C1643 C 0.22924 0.23586 0.03688 0.0
C1644 C 0.21976 0.24618 0.08058 0.0
C1645 C 0.21852 0.24309 0.1555 0.0
C1646 C 0.24745 0.21116 0.02457 0.0
C1647 C 0.21097 0.26053 0.04823 0.0
C1648 C 0.24886 0.25802 0.8521 0.0
C1649 C 0.22999 0.24259 0.80455 0.0
C1650 C 0.24889 0.2561 0.92802 0.0
C1651 C 0.2297 0.23819 0.95663 0.0
C1652 C 0.21067 0.22255 0.90855 0.0
C1653 C 0.21101 0.22503 0.83325 0.0
C1654 C 0.2694 0.27325 0.97761 0.0
C1655 C 0.18996 0.20311 0.93659 0.0
H1656 H 0.24283 0.21025 0.17003 0.0
H1657 H 0.21136 0.25111 0.18891 0.0
H1658 H 0.23452 0.19921 0.98079 0.0
H1659 H 0.26215 0.22394 0.99745 0.0
H1660 H 0.25324 0.20162 0.05818 0.0
H1661 H 0.20485 0.26804 0.09013 0.0
H1662 H 0.22464 0.27448 0.02097 0.0
H1663 H 0.19671 0.2501 0.00589 0.0
H1664 H 0.26358 0.27157 0.82997 0.0
H1665 H 0.19642 0.21297 0.79661 0.0
H1666 H 0.27673 0.26455 0.00867 0.0
H1667 H 0.26417 0.28199 0.01815 0.0
H1668 H 0.28289 0.28621 0.94687 0.0
H1669 H 0.19505 0.19249 0.96701 0.0
H1670 H 0.17676 0.19217 0.89183 0.0
H1671 H 0.18226 0.20977 0.97534 0.0
C1672 C 0.77208 0.02045 0.16687 0.0
C1673 C 0.79094 0.0235 0.21122 0.0
C1674 C 0.77202 0.01912 0.09037 0.0
C1675 C 0.7912 0.02072 0.05793 0.0
C1676 C 0.81022 0.0237 0.1027 0.0
C1677 C 0.80989 0.02515 0.1789 0.0
C1678 C 0.7515 0.01609 0.0443 0.0
C1679 C 0.8309 0.02531 0.07011 0.0
C1680 C 0.78367 0.99737 0.86027 0.0
C1681 C 0.79274 0.01725 0.82413 0.0
C1682 C 0.78305 0.99823 0.93653 0.0
C1683 C 0.79153 0.01947 0.97713 0.0
C1684 C 0.8007 0.03959 0.9407 0.0
C1685 C 0.8013 0.03824 0.86455 0.0
C1686 C 0.77336 0.97645 0.97364 0.0
C1687 C 0.80976 0.06252 0.98212 0.0
H1688 H 0.75741 0.01913 0.19196 0.0
H1689 H 0.82445 0.02743 0.21323 0.0
H1690 H 0.7567 0.03045 0.00967 0.0
H1691 H 0.7442 1.00035 0.007 0.0
H1692 H 0.73797 0.01513 0.07804 0.0
H1693 H 0.84414 0.0273 0.11259 0.0
H1694 H 0.8258 0.00984 0.03338 0.0
H1695 H 0.83856 0.03998 0.03647 0.0
H1696 H 0.77701 0.98113 0.82891 0.0
H1697 H 0.80819 0.05362 0.83651 0.0
H1698 H 0.75872 0.97418 1.00378 0.0
H1699 H 0.78644 0.97726 0.01432 0.0
H1700 H 0.76754 0.96135 0.93419 0.0
H1701 H 0.7962 0.06268 0.01291 0.0
H1702 H 0.81599 0.07649 0.94541 0.0
H1703 H 0.82401 0.06594 0.02266 0.0
C1704 C 0.66744 0.5561 0.14949 0.0
C1705 C 0.68784 0.56893 0.11732 0.0
C1706 C 0.66659 0.55837 0.22508 0.0
C1707 C 0.68673 0.57363 0.26946 0.0
C1708 C 0.70742 0.58669 0.23728 0.0
C1709 C 0.70771 0.58424 0.16115 0.0
C1710 C 0.6442 0.54418 0.2575 0.0
C1711 C 0.72924 0.6029 0.28332 0.0
C1712 C 0.67789 0.5874 0.46336 0.0
C1713 C 0.68004 0.57093 0.49944 0.0
C1714 C 0.68088 0.58916 0.38842 0.0
C1715 C 0.68633 0.57424 0.34989 0.0
C1716 C 0.68948 0.55829 0.38721 0.0
C1717 C 0.68617 0.55677 0.46148 0.0
C1718 C 0.67734 0.60631 0.34999 0.0
C1719 C 0.69553 0.54225 0.34819 0.0
H1720 H 0.652 0.54441 0.11544 0.0
H1721 H 0.72344 0.59428 0.13597 0.0
H1722 H 0.64558 0.53221 0.29314 0.0
H1723 H 0.64008 0.55521 0.29212 0.0
H1724 H 0.62983 0.53423 0.21488 0.0
H1725 H 0.74357 0.61273 0.2495 0.0
H1726 H 0.72669 0.61495 0.3187 0.0
H1727 H 0.73413 0.59331 0.31992 0.0
H1728 H 0.67337 0.59849 0.49316 0.0
H1729 H 0.68816 0.54422 0.4897 0.0
H1730 H 0.66172 0.59734 0.31157 0.0
H1731 H 0.69184 0.61634 0.31718 0.0
H1732 H 0.67548 0.61814 0.38898 0.0
H1733 H 0.68116 0.53028 0.30822 0.0
H1734 H 0.69927 0.53222 0.38653 0.0
H1735 H 0.71063 0.55181 0.31714 0.0
C1736 C 0.4357 0.12659 0.49161 0.0
C1737 C 0.44862 0.1184 0.52636 0.0
C1738 C 0.4354 0.12826 0.41585 0.0
C1739 C 0.44844 0.12167 0.37418 0.0
C1740 C 0.46081 0.11256 0.40872 0.0
C1741 C 0.4607 0.11098 0.48455 0.0
C1742 C 0.42176 0.13777 0.38085 0.0
C1743 C 0.47482 0.10526 0.36602 0.0
C1744 C 0.43552 0.11091 0.16814 0.0
C1745 C 0.45253 0.13132 0.1446 0.0
C1746 C 0.43395 0.10753 0.2427 0.0
C1747 C 0.44976 0.12503 0.29491 0.0
C1748 C 0.46694 0.14573 0.2714 0.0
C1749 C 0.46813 0.14863 0.19631 0.0
C1750 C 0.41545 0.08521 0.26554 0.0
C1751 C 0.48413 0.16475 0.32557 0.0
H1752 H 0.42627 0.13225 0.52395 0.0
H1753 H 0.47073 0.10468 0.51144 0.0
H1754 H 0.43347 0.15409 0.35878 0.0
H1755 H 0.41018 0.12601 0.33421 0.0
H1756 H 0.41142 0.14076 0.42009 0.0
H1757 H 0.48248 0.09743 0.40035 0.0
H1758 H 0.4641 0.09289 0.31932 0.0
H1759 H 0.48875 0.12016 0.34303 0.0
H1760 H 0.42347 0.09744 0.12815 0.0
H1761 H 0.48131 0.16438 0.17808 0.0
H1762 H 0.40449 0.0882 0.30196 0.0
H1763 H 0.42317 0.07693 0.29707 0.0
H1764 H 0.40451 0.07334 0.218 0.0
H1765 H 0.47521 0.17005 0.36391 0.0
H1766 H 0.49635 0.17978 0.29842 0.0
H1767 H 0.49388 0.15877 0.35866 0.0
C1768 C 0.89746 0.3538 0.18002 0.0
C1769 C 0.91496 0.35461 0.14083 0.0
C1770 C 0.89892 0.35446 0.25673 0.0
C1771 C 0.91846 0.35619 0.2949 0.0
C1772 C 0.93617 0.357 0.25535 0.0
C1773 C 0.93415 0.3561 0.17874 0.0
C1774 C 0.87964 0.35344 0.29698 0.0
C1775 C 0.95736 0.35907 0.29395 0.0
C1776 C 0.93198 0.38026 0.49362 0.0
C1777 C 0.9236 0.36055 0.53053 0.0
C1778 C 0.93064 0.3791 0.41693 0.0
C1779 C 0.92061 0.35767 0.37629 0.0
C1780 C 0.91247 0.33772 0.41343 0.0
C1781 C 0.9141 0.33941 0.49025 0.0
C1782 C 0.9397 0.40077 0.3794 0.0
C1783 C 0.90169 0.31458 0.37204 0.0
H1784 H 0.8826 0.35262 0.1507 0.0
H1785 H 0.94776 0.35682 0.14849 0.0
H1786 H 0.87292 0.33897 0.33158 0.0
H1787 H 0.88601 0.36913 0.33393 0.0
H1788 H 0.8654 0.35154 0.25919 0.0
H1789 H 0.96953 0.35943 0.25513 0.0
H1790 H 0.96616 0.37483 0.33142 0.0
H1791 H 0.95266 0.34462 0.32784 0.0
H1792 H 0.93934 0.39664 0.52472 0.0
H1793 H 0.90762 0.32414 0.51877 0.0
H1794 H 0.92565 0.40056 0.34522 0.0
H1795 H 0.95265 0.40213 0.34237 0.0
H1796 H 0.94756 0.41609 0.41893 0.0
H1797 H 0.8863 0.31137 0.33761 0.0
H1798 H 0.89666 0.30078 0.40907 0.0
H1799 H 0.91372 0.3139 0.33479 0.0
C1800 C 0.69098 0.16471 0.19109 0.0
C1801 C 0.68745 0.14629 0.14397 0.0
C1802 C 0.68811 0.16244 0.26613 0.0
C1803 C 0.68092 0.14108 0.29389 0.0
C1804 C 0.677 0.12238 0.24599 0.0
C1805 C 0.68061 0.1253 0.17192 0.0
C1806 C 0.69294 0.18289 0.31584 0.0
C1807 C 0.66885 0.09921 0.2728 0.0
C1808 C 0.69363 0.13831 0.49554 0.0
C1809 C 0.67301 0.13332 0.52399 0.0
C1810 C 0.69648 0.1411 0.421 0.0
C1811 C 0.67809 0.13836 0.37332 0.0
C1812 C 0.65698 0.13265 0.40142 0.0
C1813 C 0.65476 0.13043 0.47673 0.0
C1814 C 0.71933 0.1474 0.39358 0.0
C1815 C 0.63679 0.12898 0.35199 0.0
H1816 H 0.69621 0.18091 0.16943 0.0
H1817 H 0.67756 0.11091 0.13541 0.0
H1818 H 0.67741 0.1795 0.34275 0.0
H1819 H 0.70638 0.18634 0.35973 0.0
H1820 H 0.69863 0.19832 0.28595 0.0
H1821 H 0.66544 0.08617 0.22771 0.0
H1822 H 0.68184 0.09995 0.31365 0.0
H1823 H 0.65298 0.09373 0.30046 0.0
H1824 H 0.70784 0.14069 0.53202 0.0
H1825 H 0.63882 0.12659 0.49869 0.0
H1826 H 0.72621 0.16364 0.36773 0.0
H1827 H 0.71735 0.13427 0.35112 0.0
H1828 H 0.73199 0.14924 0.43805 0.0
H1829 H 0.64101 0.14477 0.32596 0.0
H1830 H 0.62137 0.12392 0.38194 0.0
H1831 H 0.63271 0.1156 0.30742 0.0
C1832 C 0.92827 0.59168 0.17434 0.0
C1833 C 0.90834 0.57591 0.13147 0.0
C1834 C 0.92999 0.59112 0.25042 0.0
C1835 C 0.91119 0.57461 0.28432 0.0
C1836 C 0.89093 0.55878 0.24124 0.0
C1837 C 0.88981 0.55951 0.16504 0.0
C1838 C 0.95196 0.60811 0.29444 0.0
C1839 C 0.87042 0.54114 0.27568 0.0
C1840 C 0.92032 0.55959 0.4745 0.0
C1841 C 0.91378 0.57245 0.51779 0.0
C1842 C 0.91991 0.56038 0.39826 0.0
C1843 C 0.91256 0.57417 0.36503 0.0
C1844 C 0.90624 0.58742 0.40888 0.0
C1845 C 0.90705 0.58648 0.48482 0.0
C1846 C 0.92713 0.54633 0.3532 0.0
C1847 C 0.89822 0.60226 0.37555 0.0
H1848 H 0.94269 0.60426 0.14826 0.0
H1849 H 0.87442 0.54731 0.13176 0.0
H1850 H 0.94871 0.61871 0.33425 0.0
H1851 H 0.95881 0.59912 0.32629 0.0
H1852 H 0.96519 0.61947 0.25942 0.0
H1853 H 0.85592 0.53018 0.23453 0.0
H1854 H 0.87507 0.53023 0.30622 0.0
H1855 H 0.8647 0.54958 0.31561 0.0
H1856 H 0.92557 0.54878 0.50013 0.0
H1857 H 0.902 0.59647 0.51834 0.0
H1858 H 0.941 0.55735 0.31963 0.0
H1859 H 0.9126 0.53372 0.31493 0.0
H1860 H 0.93319 0.53715 0.38764 0.0
H1861 H 0.9115 0.61469 0.34309 0.0
H1862 H 0.89417 0.6117 0.41753 0.0
H1863 H 0.88274 0.59169 0.33756 0.0
C1864 C 0.46778 0.35122 0.19952 0.0
C1865 C 0.45128 0.35121 0.1508 0.0
C1866 C 0.46643 0.35287 0.27542 0.0
C1867 C 0.44812 0.35453 0.30283 0.0
C1868 C 0.4314 0.35448 0.25363 0.0
C1869 C 0.4332 0.35284 0.1782 0.0
C1870 C 0.48462 0.35297 0.3263 0.0
C1871 C 0.41164 0.3562 0.28064 0.0
C1872 C 0.4346 0.33823 0.49614 0.0
C1873 C 0.44576 0.35949 0.53624 0.0
C1874 C 0.43474 0.33638 0.41983 0.0
C1875 C 0.44646 0.35628 0.38302 0.0
C1876 C 0.45706 0.37784 0.4231 0.0
C1877 C 0.45651 0.37918 0.49939 0.0
C1878 C 0.42295 0.31311 0.3789 0.0
C1879 C 0.46966 0.39944 0.38573 0.0
H1880 H 0.4818 0.35005 0.17834 0.0
H1881 H 0.42046 0.35295 0.14057 0.0
H1882 H 0.49315 0.36881 0.36339 0.0
H1883 H 0.47675 0.33858 0.36104 0.0
H1884 H 0.49776 0.35164 0.2963 0.0
H1885 H 0.40007 0.35588 0.23511 0.0
H1886 H 0.40162 0.34195 0.31419 0.0
H1887 H 0.4181 0.37216 0.31626 0.0
H1888 H 0.4262 0.32297 0.52463 0.0
H1889 H 0.46521 0.39563 0.53043 0.0
H1890 H 0.43574 0.31004 0.35345 0.0
H1891 H 0.4108 0.31204 0.33411 0.0
H1892 H 0.41351 0.29942 0.41509 0.0
H1893 H 0.48437 0.39994 0.36042 0.0
H1894 H 0.47608 0.41485 0.42426 0.0
H1895 H 0.45834 0.39995 0.34114 0.0
C1896 C 0.34013 0.91657 0.49744 0.0
C1897 C 0.36178 0.92615 0.47111 0.0
C1898 C 0.33744 0.91397 0.57225 0.0
C1899 C 0.35687 0.92108 0.62196 0.0
C1900 C 0.37886 0.93161 0.59593 0.0
C1901 C 0.38105 0.93402 0.52073 0.0
C1902 C 0.31372 0.90294 0.59771 0.0
C1903 C 0.40003 0.93966 0.6472 0.0
C1904 C 0.35195 0.92947 0.82505 0.0
C1905 C 0.34964 0.90946 0.85054 0.0
C1906 C 0.35431 0.93348 0.75095 0.0
C1907 C 0.35416 0.91698 0.70081 0.0
C1908 C 0.35157 0.89661 0.72614 0.0
C1909 C 0.34945 0.89313 0.80088 0.0
C1910 C 0.35726 0.95552 0.72656 0.0
C1911 C 0.3512 0.87854 0.67433 0.0
H1912 H 0.32518 0.91053 0.45921 0.0
H1913 H 0.3978 0.94139 0.50052 0.0
H1914 H 0.30969 0.88678 0.62091 0.0
H1915 H 0.31277 0.91407 0.64177 0.0
H1916 H 0.30051 0.89928 0.55267 0.0
H1917 H 0.41591 0.94857 0.61901 0.0
H1918 H 0.40063 0.95132 0.69268 0.0
H1919 H 0.39958 0.92496 0.6718 0.0
H1920 H 0.35227 0.94225 0.86336 0.0
H1921 H 0.34774 0.8777 0.82046 0.0
H1922 H 0.34357 0.95203 0.6836 0.0
H1923 H 0.37376 0.965 0.70218 0.0
H1924 H 0.35686 0.96653 0.77237 0.0
H1925 H 0.33727 0.87289 0.63011 0.0
H1926 H 0.34871 0.86353 0.70236 0.0
H1927 H 0.36747 0.88562 0.64806 0.0
C1928 C 0.13929 0.44672 0.87954 0.0
C1929 C 0.12917 0.45591 0.92364 0.0
C1930 C 0.1395 0.44891 0.80395 0.0
C1931 C 0.12932 0.46054 0.77206 0.0
C1932 C 0.11817 0.46893 0.81605 0.0
C1933 C 0.11824 0.46652 0.89139 0.0
C1934 C 0.15129 0.43946 0.75866 0.0
C1935 C 0.10687 0.48117 0.78406 0.0
C1936 C 0.15129 0.48746 0.59547 0.0
C1937 C 0.1343 0.47162 0.5433 0.0
C1938 C 0.14975 0.48417 0.67034 0.0
C1939 C 0.13091 0.46448 0.69313 0.0
C1940 C 0.11368 0.44851 0.64047 0.0
C1941 C 0.11555 0.45233 0.56624 0.0
C1942 C 0.16837 0.50165 0.72503 0.0
C1943 C 0.09343 0.42725 0.66241 0.0
H1944 H 0.14775 0.43852 0.90446 0.0
H1945 H 0.11029 0.47353 0.92544 0.0
H1946 H 0.13959 0.42815 0.71146 0.0
H1947 H 0.16624 0.45354 0.73631 0.0
H1948 H 0.15721 0.42976 0.79091 0.0
H1949 H 0.09778 0.48545 0.82486 0.0
H1950 H 0.11993 0.4971 0.76309 0.0
H1951 H 0.09449 0.47061 0.73713 0.0
H1952 H 0.1658 0.50234 0.57776 0.0
H1953 H 0.10242 0.43997 0.52593 0.0
H1954 H 0.17663 0.49373 0.75583 0.0
H1955 H 0.16096 0.5082 0.76534 0.0
H1956 H 0.18167 0.51619 0.69858 0.0
H1957 H 0.09934 0.41701 0.69138 0.0
H1958 H 0.08148 0.41656 0.61465 0.0
H1959 H 0.08397 0.43177 0.70091 0.0
C1960 C 0.59135 0.68627 0.81094 0.0
C1961 C 0.57605 0.692 0.84035 0.0
C1962 C 0.59204 0.68364 0.73509 0.0
C1963 C 0.57726 0.68712 0.68744 0.0
C1964 C 0.56177 0.69293 0.71691 0.0
C1965 C 0.56125 0.69516 0.79317 0.0
C1966 C 0.6086 0.67717 0.706 0.0
C1967 C 0.54587 0.69695 0.66787 0.0
C1968 C 0.59355 0.70281 0.49531 0.0
C1969 C 0.57891 0.68235 0.45323 0.0
C1970 C 0.59342 0.7045 0.57166 0.0
C1971 C 0.57838 0.6852 0.60682 0.0
C1972 C 0.56414 0.66427 0.56475 0.0
C1973 C 0.56453 0.66311 0.48828 0.0
C1974 C 0.6089 0.72711 0.61443 0.0
C1975 C 0.54811 0.64325 0.60037 0.0
H1976 H 0.6027 0.68361 0.84734 0.0
H1977 H 0.54938 0.69954 0.81587 0.0
H1978 H 0.59934 0.66157 0.66796 0.0
H1979 H 0.62095 0.69084 0.67451 0.0
H1980 H 0.61825 0.67415 0.75033 0.0
H1981 H 0.53477 0.70122 0.69932 0.0
H1982 H 0.55591 0.71104 0.6338 0.0
H1983 H 0.53488 0.68161 0.63008 0.0
H1984 H 0.60473 0.71773 0.46835 0.0
H1985 H 0.55318 0.64728 0.45581 0.0
H1986 H 0.61976 0.72533 0.65759 0.0
H1987 H 0.59849 0.7331 0.64215 0.0
H1988 H 0.62013 0.74028 0.57909 0.0
H1989 H 0.55766 0.63983 0.64378 0.0
H1990 H 0.53905 0.62804 0.56047 0.0
H1991 H 0.53524 0.64594 0.62693 0.0
C1992 C 0.32752 0.4525 0.85065 0.0
C1993 C 0.34636 0.45814 0.89998 0.0
C1994 C 0.32995 0.45469 0.77527 0.0
C1995 C 0.35179 0.46305 0.74889 0.0
C1996 C 0.37072 0.46824 0.7985 0.0
C1997 C 0.36773 0.46553 0.87313 0.0
C1998 C 0.30924 0.44849 0.72403 0.0
C1999 C 0.3943 0.47724 0.77312 0.0
C2000 C 0.35779 0.45368 0.54689 0.0
C2001 C 0.36231 0.47437 0.52082 0.0
C2002 C 0.35388 0.4496 0.62046 0.0
C2003 C 0.35502 0.46682 0.66981 0.0
C2004 C 0.35985 0.48786 0.64387 0.0
C2005 C 0.36318 0.49129 0.56948 0.0
C2006 C 0.34835 0.42678 0.64519 0.0
C2007 C 0.36166 0.50682 0.69486 0.0
H2008 H 0.31099 0.44679 0.87112 0.0
H2009 H 0.38238 0.46988 0.91093 0.0
H2010 H 0.31134 0.46384 0.6993 0.0
H2011 H 0.30744 0.43622 0.67862 0.0
H2012 H 0.29329 0.44096 0.75225 0.0
H2013 H 0.4074 0.48142 0.8191 0.0
H2014 H 0.39439 0.46447 0.7336 0.0
H2015 H 0.39923 0.49273 0.74438 0.0
H2016 H 0.3568 0.44042 0.50928 0.0
H2017 H 0.36658 0.50726 0.54947 0.0
H2018 H 0.33197 0.41906 0.67096 0.0
H2019 H 0.36174 0.42889 0.68712 0.0
H2020 H 0.34701 0.41483 0.59931 0.0
H2021 H 0.34538 0.5011 0.72019 0.0
H2022 H 0.36571 0.52221 0.66641 0.0
H2023 H 0.37516 0.51146 0.73983 0.0
C2024 C 0.59841 0.93391 0.79115 0.0
C2025 C 0.58082 0.91395 0.81516 0.0
C2026 C 0.59965 0.93738 0.7166 0.0
C2027 C 0.58293 0.92043 0.66492 0.0
C2028 C 0.56523 0.90012 0.68887 0.0
C2029 C 0.56436 0.89714 0.76392 0.0
C2030 C 0.61873 0.95926 0.69325 0.0
C2031 C 0.54712 0.88164 0.63523 0.0
C2032 C 0.57176 0.93545 0.47706 0.0
C2033 C 0.5827 0.92707 0.43357 0.0
C2034 C 0.57216 0.93391 0.55297 0.0
C2035 C 0.58388 0.92387 0.5857 0.0
C2036 C 0.59583 0.91634 0.54221 0.0
C2037 C 0.59504 0.91798 0.46654 0.0
C2038 C 0.55937 0.94229 0.59771 0.0
C2039 C 0.60879 0.90582 0.57516 0.0
H2040 H 0.61112 0.94699 0.8308 0.0
H2041 H 0.55073 0.88174 0.78251 0.0
H2042 H 0.62884 0.95557 0.65508 0.0
H2043 H 0.61155 0.96833 0.66345 0.0
H2044 H 0.63038 0.97073 0.7404 0.0
H2045 H 0.53461 0.86684 0.66267 0.0
H2046 H 0.53781 0.8884 0.60377 0.0
H2047 H 0.55519 0.87573 0.59538 0.0
H2048 H 0.56221 0.94248 0.45149 0.0
H2049 H 0.60367 0.91165 0.43288 0.0
H2050 H 0.57079 0.95434 0.64408 0.0
H2051 H 0.54514 0.92779 0.62129 0.0
H2052 H 0.55223 0.95084 0.5647 0.0
H2053 H 0.62091 0.91719 0.62148 0.0
H2054 H 0.61846 0.90229 0.53462 0.0
H2055 H 0.59669 0.88964 0.59721 0.0
C2056 C 0.11796 0.6965 0.54214 0.0
C2057 C 0.13331 0.69192 0.50752 0.0
C2058 C 0.11845 0.6984 0.61852 0.0
C2059 C 0.13445 0.69528 0.66104 0.0
C2060 C 0.14991 0.6905 0.62626 0.0
C2061 C 0.14927 0.68905 0.54965 0.0
C2062 C 0.10189 0.70379 0.65367 0.0
C2063 C 0.16698 0.68675 0.66997 0.0
C2064 C 0.14913 0.71816 0.86081 0.0
C2065 C 0.13522 0.69864 0.89529 0.0
C2066 C 0.14891 0.71739 0.78429 0.0
C2067 C 0.13465 0.69654 0.7419 0.0
C2068 C 0.12045 0.67684 0.7767 0.0
C2069 C 0.12081 0.67817 0.85305 0.0
C2070 C 0.16397 0.73882 0.74884 0.0
C2071 C 0.10512 0.65427 0.73341 0.0
H2072 H 0.10571 0.69888 0.50947 0.0
H2073 H 0.16114 0.68551 0.52271 0.0
H2074 H 0.09067 0.68976 0.68624 0.0
H2075 H 0.11134 0.71933 0.69188 0.0
H2076 H 0.091 0.7064 0.61275 0.0
H2077 H 0.17777 0.68315 0.63456 0.0
H2078 H 0.17823 0.70196 0.70794 0.0
H2079 H 0.15792 0.67231 0.70379 0.0
H2080 H 0.16024 0.73399 0.89362 0.0
H2081 H 0.11008 0.66304 0.8798 0.0
H2082 H 0.15347 0.74242 0.7096 0.0
H2083 H 0.17631 0.73656 0.71733 0.0
H2084 H 0.17362 0.75375 0.7895 0.0
H2085 H 0.09305 0.65569 0.69413 0.0
H2086 H 0.09514 0.64058 0.76899 0.0
H2087 H 0.11551 0.64927 0.70105 0.0
loop_
_geom_bond_atom_site_label_1
_geom_bond_atom_site_label_2
_geom_bond_distance
_geom_bond_site_symmetry_2
_ccdc_geom_bond_type
Dy0 O4 2.398 . S
Dy0 O5 2.491 1_455 S
Dy0 O6 2.403 . S
Dy0 O7 2.664 . S
Dy0 O11 2.329 . S
Dy0 O15 2.310 1_455 S
Dy0 O16 2.351 . S
C1 O12 1.185 1_455 S
C1 O13 1.355 . S
C2 O4 1.185 . S
C2 O5 1.355 1_455 S
Dy3 O7 2.310 1_655 S
Dy3 O10 2.351 . S
Dy3 O12 2.398 . S
Dy3 O13 2.491 1_655 S
Dy3 O14 2.403 . S
Dy3 O15 2.664 . S
Dy3 O17 2.326 1_655 S
O4 Dy0 2.398 . S
O4 C2 1.185 . S
O5 Dy0 2.491 1_655 S
O5 C2 1.355 1_655 S
O6 Dy0 2.403 . S
O6 C8 1.254 . S
O7 Dy0 2.664 . S
O7 Dy3 2.310 1_455 S
O7 C8 1.268 . S
C8 O6 1.254 . S
C8 O7 1.268 . S
C9 O14 1.254 . S
C9 O15 1.268 . S
O10 Dy3 2.351 . S
O10 C18 1.249 . S
O11 Dy0 2.329 . S
O11 C18 1.253 1_455 S
O12 C1 1.185 1_655 S
O12 Dy3 2.398 . S
O13 C1 1.355 . S
O13 Dy3 2.491 1_455 S
O14 Dy3 2.403 . S
O14 C9 1.254 . S
O15 Dy0 2.310 1_655 S
O15 Dy3 2.664 . S
O15 C9 1.268 . S
O16 Dy0 2.351 . S
O16 C19 1.249 . S
O17 Dy3 2.326 1_455 S
O17 C19 1.267 . S
C18 O10 1.249 . S
C18 O11 1.253 1_655 S
C19 O16 1.249 . S
C19 O17 1.267 . S
Dy20 O24 2.398 . S
Dy20 O25 2.491 . S
Dy20 O26 2.403 . S
Dy20 O27 2.664 . S
Dy20 O31 2.326 . S
Dy20 O35 2.310 . S
Dy20 O36 2.351 . S
C21 O32 1.185 . S
C21 O33 1.355 . S
C22 O24 1.185 . S
C22 O25 1.355 . S
Dy23 O27 2.310 . S
Dy23 O30 2.351 . S
Dy23 O32 2.398 . S
Dy23 O33 2.491 . S
Dy23 O34 2.403 . S
Dy23 O35 2.664 . S
Dy23 O37 2.326 . S
O24 Dy20 2.398 . S
O24 C22 1.185 . S
O25 Dy20 2.491 . S
O25 C22 1.355 . S
O26 Dy20 2.403 . S
O26 C28 1.254 . S
O27 Dy20 2.664 . S
O27 Dy23 2.310 . S
O27 C28 1.268 . S
C28 O26 1.254 . S
C28 O27 1.268 . S
C29 O34 1.254 . S
C29 O35 1.268 . S
O30 Dy23 2.351 . S
O30 C38 1.249 . S
O31 Dy20 2.326 . S
O31 C38 1.267 . S
O32 C21 1.185 . S
O32 Dy23 2.398 . S
O33 C21 1.355 . S
O33 Dy23 2.491 . S
O34 Dy23 2.403 . S
O34 C29 1.254 . S
O35 Dy20 2.310 . S
O35 Dy23 2.664 . S
O35 C29 1.268 . S
O36 Dy20 2.351 . S
O36 C39 1.249 . S
O37 Dy23 2.326 . S
O37 C39 1.267 . S
C38 O30 1.249 . S
C38 O31 1.267 . S
C39 O36 1.249 . S
C39 O37 1.267 . S
Dy40 O44 2.398 1_545 S
Dy40 O45 2.491 . S
Dy40 O46 2.403 1_545 S
Dy40 O47 2.664 1_545 S
Dy40 O51 2.326 . S
Dy40 O55 2.310 . S
Dy40 O56 2.351 1_545 S
C41 O52 1.185 . S
C41 O53 1.355 1_545 S
C42 O44 1.186 1_545 S
C42 O45 1.355 . S
Dy43 O47 2.310 1_545 S
Dy43 O50 2.351 . S
Dy43 O52 2.398 . S
Dy43 O53 2.491 1_545 S
Dy43 O54 2.403 . S
Dy43 O55 2.664 . S
Dy43 O57 2.326 . S
O44 Dy40 2.398 1_565 S
O44 C42 1.186 1_565 S
O45 Dy40 2.491 . S
O45 C42 1.355 . S
O46 Dy40 2.403 1_565 S
O46 C48 1.254 . S
O47 Dy40 2.664 1_565 S
O47 Dy43 2.310 1_565 S
O47 C48 1.268 . S
C48 O46 1.254 . S
C48 O47 1.268 . S
C49 O54 1.254 . S
C49 O55 1.268 . S
O50 Dy43 2.351 . S
O50 C58 1.249 . S
O51 Dy40 2.326 . S
O51 C58 1.267 . S
O52 C41 1.185 . S
O52 Dy43 2.398 . S
O53 C41 1.355 1_565 S
O53 Dy43 2.491 1_565 S
O54 Dy43 2.403 . S
O54 C49 1.254 . S
O55 Dy40 2.310 . S
O55 Dy43 2.664 . S
O55 C49 1.268 . S
O56 Dy40 2.351 1_565 S
O56 C59 1.249 . S
O57 Dy43 2.326 . S
O57 C59 1.267 1_545 S
C58 O50 1.249 . S
C58 O51 1.267 . S
C59 O56 1.249 . S
C59 O57 1.267 1_565 S
Dy60 O64 2.398 . S
Dy60 O65 2.491 1_455 S
Dy60 O66 2.403 . S
Dy60 O67 2.664 . S
Dy60 O71 2.326 . S
Dy60 O75 2.310 1_455 S
Dy60 O76 2.351 . S
C61 O72 1.185 1_455 S
C61 O73 1.355 . S
C62 O64 1.185 . S
C62 O65 1.355 1_455 S
Dy63 O67 2.310 1_655 S
Dy63 O70 2.351 . S
Dy63 O72 2.398 . S
Dy63 O73 2.491 1_655 S
Dy63 O74 2.403 . S
Dy63 O75 2.664 . S
Dy63 O77 2.326 1_655 S
O64 Dy60 2.398 . S
O64 C62 1.185 . S
O65 Dy60 2.491 1_655 S
O65 C62 1.355 1_655 S
O66 Dy60 2.403 . S
O66 C68 1.254 . S
O67 Dy60 2.664 . S
O67 Dy63 2.310 1_455 S
O67 C68 1.268 . S
C68 O66 1.254 . S
C68 O67 1.268 . S
C69 O74 1.254 . S
C69 O75 1.268 . S
O70 Dy63 2.351 . S
O70 C78 1.249 . S
O71 Dy60 2.326 . S
O71 C78 1.270 1_455 S
O72 C61 1.185 1_655 S
O72 Dy63 2.398 . S
O73 C61 1.355 . S
O73 Dy63 2.491 1_455 S
O74 Dy63 2.403 . S
O74 C69 1.254 . S
O75 Dy60 2.310 1_655 S
O75 Dy63 2.664 . S
O75 C69 1.268 . S
O76 Dy60 2.351 . S
O76 C79 1.249 . S
O77 Dy63 2.326 1_455 S
O77 C79 1.267 . S
C78 O70 1.249 . S
C78 O71 1.270 1_655 S
C79 O76 1.249 . S
C79 O77 1.267 . S
Dy80 O84 2.398 . S
Dy80 O85 2.491 . S
Dy80 O86 2.403 . S
Dy80 O87 2.664 . S
Dy80 O91 2.326 . S
Dy80 O95 2.310 . S
Dy80 O96 2.351 . S
C81 O92 1.185 . S
C81 O93 1.355 . S
C82 O84 1.185 . S
C82 O85 1.355 . S
Dy83 O87 2.310 . S
Dy83 O90 2.351 . S
Dy83 O92 2.398 . S
Dy83 O93 2.491 . S
Dy83 O94 2.403 . S
Dy83 O95 2.664 . S
Dy83 O97 2.326 . S
O84 Dy80 2.398 . S
O84 C82 1.185 . S
O85 Dy80 2.491 . S
O85 C82 1.355 . S
O86 Dy80 2.403 . S
O86 C88 1.254 . S
O87 Dy80 2.664 . S
O87 Dy83 2.310 . S
O87 C88 1.268 . S
C88 O86 1.254 . S
C88 O87 1.268 . S
C89 O94 1.254 . S
C89 O95 1.268 . S
O90 Dy83 2.351 . S
O90 C98 1.249 . S
O91 Dy80 2.326 . S
O91 C98 1.267 . S
O92 C81 1.185 . S
O92 Dy83 2.398 . S
O93 C81 1.355 . S
O93 Dy83 2.491 . S
O94 Dy83 2.403 . S
O94 C89 1.254 . S
O95 Dy80 2.310 . S
O95 Dy83 2.664 . S
O95 C89 1.268 . S
O96 Dy80 2.351 . S
O96 C99 1.249 . S
O97 Dy83 2.326 . S
O97 C99 1.267 . S
C98 O90 1.249 . S
C98 O91 1.267 . S
C99 O96 1.249 . S
C99 O97 1.267 . S
Dy100 O104 2.398 . S
Dy100 O105 2.491 . S
Dy100 O106 2.403 1_545 S
Dy100 O107 2.664 1_545 S
Dy100 O111 2.326 . S
Dy100 O115 2.310 . S
Dy100 O116 2.351 1_545 S
C101 O112 1.185 . S
C101 O113 1.355 1_545 S
C102 O104 1.185 . S
C102 O105 1.355 . S
Dy103 O107 2.310 1_545 S
Dy103 O110 2.351 . S
Dy103 O112 2.398 . S
Dy103 O113 2.491 1_545 S
Dy103 O114 2.403 . S
Dy103 O115 2.664 . S
Dy103 O117 2.326 . S
O104 Dy100 2.398 . S
O104 C102 1.185 . S
O105 Dy100 2.491 . S
O105 C102 1.355 . S
O106 Dy100 2.403 1_565 S
O106 C108 1.254 . S
O107 Dy100 2.664 1_565 S
O107 Dy103 2.310 1_565 S
O107 C108 1.268 . S
C108 O106 1.254 . S
C108 O107 1.268 . S
C109 O114 1.254 . S
C109 O115 1.268 . S
O110 Dy103 2.351 . S
O110 C118 1.249 . S
O111 Dy100 2.326 . S
O111 C118 1.267 . S
O112 C101 1.185 . S
O112 Dy103 2.398 . S
O113 C101 1.355 1_565 S
O113 Dy103 2.491 1_565 S
O114 Dy103 2.403 . S
O114 C109 1.254 . S
O115 Dy100 2.310 . S
O115 Dy103 2.664 . S
O115 C109 1.268 . S
O116 Dy100 2.351 1_565 S
O116 C119 1.249 . S
O117 Dy103 2.326 . S
O117 C119 1.267 1_545 S
C118 O110 1.249 . S
C118 O111 1.267 . S
C119 O116 1.249 . S
C119 O117 1.267 1_565 S
Dy120 O124 2.398 . S
Dy120 O125 2.491 . S
Dy120 O126 2.403 . S
Dy120 O127 2.664 . S
Dy120 O131 2.326 . S
Dy120 O135 2.310 . S
Dy120 O136 2.351 . S
C121 O132 1.185 1_554 S
C121 O133 1.355 1_554 S
C122 O124 1.185 . S
C122 O125 1.355 . S
Dy123 O127 2.310 . S
Dy123 O130 2.351 . S
Dy123 O132 2.398 . S
Dy123 O133 2.491 . S
Dy123 O134 2.403 . S
Dy123 O135 2.664 . S
Dy123 O137 2.326 . S
O124 Dy120 2.398 . S
O124 C122 1.185 . S
O125 Dy120 2.491 . S
O125 C122 1.355 . S
O126 Dy120 2.403 . S
O126 C128 1.254 . S
O127 Dy120 2.664 . S
O127 Dy123 2.310 . S
O127 C128 1.268 . S
C128 O126 1.254 . S
C128 O127 1.268 . S
C129 O134 1.254 . S
C129 O135 1.268 . S
O130 Dy123 2.351 . S
O130 C138 1.249 . S
O131 Dy120 2.326 . S
O131 C138 1.267 . S
O132 C121 1.185 1_556 S
O132 Dy123 2.398 . S
O133 C121 1.355 1_556 S
O133 Dy123 2.491 . S
O134 Dy123 2.403 . S
O134 C129 1.254 . S
O135 Dy120 2.310 . S
O135 Dy123 2.664 . S
O135 C129 1.268 . S
O136 Dy120 2.351 . S
O136 C139 1.249 . S
O137 Dy123 2.326 . S
O137 C139 1.267 . S
C138 O130 1.249 . S
C138 O131 1.267 . S
C139 O136 1.249 . S
C139 O137 1.267 . S
Dy140 O144 2.398 . S
Dy140 O145 2.491 . S
Dy140 O146 2.403 . S
Dy140 O147 2.664 . S
Dy140 O151 2.326 . S
Dy140 O155 2.310 . S
Dy140 O156 2.351 . S
C141 O152 1.185 . S
C141 O153 1.355 . S
C142 O144 1.185 . S
C142 O145 1.355 . S
Dy143 O147 2.310 . S
Dy143 O150 2.351 . S
Dy143 O152 2.398 . S
Dy143 O153 2.491 . S
Dy143 O154 2.403 . S
Dy143 O155 2.664 . S
Dy143 O157 2.326 . S
O144 Dy140 2.398 . S
O144 C142 1.185 . S
O145 Dy140 2.491 . S
O145 C142 1.355 . S
O146 Dy140 2.403 . S
O146 C148 1.254 . S
O147 Dy140 2.664 . S
O147 Dy143 2.310 . S
O147 C148 1.268 . S
C148 O146 1.254 . S
C148 O147 1.268 . S
C149 O154 1.254 . S
C149 O155 1.268 . S
O150 Dy143 2.351 . S
O150 C158 1.249 . S
O151 Dy140 2.326 . S
O151 C158 1.267 . S
O152 C141 1.185 . S
O152 Dy143 2.398 . S
O153 C141 1.355 . S
O153 Dy143 2.491 . S
O154 Dy143 2.403 . S
O154 C149 1.254 . S
O155 Dy140 2.310 . S
O155 Dy143 2.664 . S
O155 C149 1.268 . S
O156 Dy140 2.351 . S
O156 C159 1.249 . S
O157 Dy143 2.326 . S
O157 C159 1.267 . S
C158 O150 1.249 . S
C158 O151 1.267 . S
C159 O156 1.249 . S
C159 O157 1.267 . S
Dy160 O164 2.398 . S
Dy160 O165 2.491 . S
Dy160 O166 2.403 . S
Dy160 O167 2.664 . S
Dy160 O171 2.326 . S
Dy160 O175 2.310 . S
Dy160 O176 2.351 . S
C161 O172 1.185 1_554 S
C161 O173 1.355 1_554 S
C162 O164 1.185 . S
C162 O165 1.355 . S
Dy163 O167 2.310 . S
Dy163 O170 2.351 . S
Dy163 O172 2.398 . S
Dy163 O173 2.491 . S
Dy163 O174 2.403 . S
Dy163 O175 2.664 . S
Dy163 O177 2.326 . S
O164 Dy160 2.398 . S
O164 C162 1.185 . S
O165 Dy160 2.491 . S
O165 C162 1.355 . S
O166 Dy160 2.403 . S
O166 C168 1.254 . S
O167 Dy160 2.664 . S
O167 Dy163 2.310 . S
O167 C168 1.268 . S
C168 O166 1.254 . S
C168 O167 1.268 . S
C169 O174 1.254 . S
C169 O175 1.268 . S
O170 Dy163 2.351 . S
O170 C178 1.249 . S
O171 Dy160 2.326 . S
O171 C178 1.267 . S
O172 C161 1.185 1_556 S
O172 Dy163 2.398 . S
O173 C161 1.355 1_556 S
O173 Dy163 2.491 . S
O174 Dy163 2.403 . S
O174 C169 1.254 . S
O175 Dy160 2.310 . S
O175 Dy163 2.664 . S
O175 C169 1.268 . S
O176 Dy160 2.351 . S
O176 C179 1.249 . S
O177 Dy163 2.326 . S
O177 C179 1.267 . S
C178 O170 1.249 . S
C178 O171 1.267 . S
C179 O176 1.249 . S
C179 O177 1.267 . S
Dy180 O184 2.398 1_556 S
Dy180 O185 2.491 . S
Dy180 O186 2.403 . S
Dy180 O187 2.664 . S
Dy180 O191 2.326 . S
Dy180 O195 2.310 . S
Dy180 O196 2.351 . S
C181 O192 1.185 . S
C181 O193 1.355 . S
C182 O184 1.185 . S
C182 O185 1.355 1_554 S
Dy183 O187 2.310 . S
Dy183 O190 2.351 . S
Dy183 O192 2.398 . S
Dy183 O193 2.491 . S
Dy183 O194 2.403 . S
Dy183 O195 2.664 . S
Dy183 O197 2.326 . S
O184 Dy180 2.398 1_554 S
O184 C182 1.185 . S
O185 Dy180 2.491 . S
O185 C182 1.355 1_556 S
O186 Dy180 2.403 . S
O186 C188 1.254 . S
O187 Dy180 2.664 . S
O187 Dy183 2.310 . S
O187 C188 1.268 . S
C188 O186 1.254 . S
C188 O187 1.268 . S
C189 O194 1.254 . S
C189 O195 1.268 . S
O190 Dy183 2.351 . S
O190 C198 1.249 . S
O191 Dy180 2.326 . S
O191 C198 1.267 . S
O192 C181 1.185 . S
O192 Dy183 2.398 . S
O193 C181 1.355 . S
O193 Dy183 2.491 . S
O194 Dy183 2.403 . S
O194 C189 1.254 . S
O195 Dy180 2.310 . S
O195 Dy183 2.664 . S
O195 C189 1.268 . S
O196 Dy180 2.351 . S
O196 C199 1.249 . S
O197 Dy183 2.326 . S
O197 C199 1.267 . S
C198 O190 1.249 . S
C198 O191 1.267 . S
C199 O196 1.249 . S
C199 O197 1.267 . S
Dy200 O204 2.398 1_556 S
Dy200 O205 2.491 1_556 S
Dy200 O206 2.403 . S
Dy200 O207 2.664 . S
Dy200 O211 2.326 . S
Dy200 O215 2.310 . S
Dy200 O216 2.351 . S
C201 O212 1.185 . S
C201 O213 1.355 . S
C202 O204 1.185 . S
C202 O205 1.355 . S
Dy203 O207 2.310 . S
Dy203 O210 2.351 . S
Dy203 O212 2.398 . S
Dy203 O213 2.491 . S
Dy203 O214 2.403 . S
Dy203 O215 2.664 . S
Dy203 O217 2.326 . S
O204 Dy200 2.398 1_554 S
O204 C202 1.185 . S
O205 Dy200 2.491 1_554 S
O205 C202 1.355 . S
O206 Dy200 2.403 . S
O206 C208 1.254 . S
O207 Dy200 2.664 . S
O207 Dy203 2.310 . S
O207 C208 1.268 . S
C208 O206 1.254 . S
C208 O207 1.268 . S
C209 O214 1.254 . S
C209 O215 1.268 . S
O210 Dy203 2.351 . S
O210 C218 1.249 . S
O211 Dy200 2.326 . S
O211 C218 1.267 . S
O212 C201 1.185 . S
O212 Dy203 2.398 . S
O213 C201 1.355 . S
O213 Dy203 2.491 . S
O214 Dy203 2.403 . S
O214 C209 1.254 . S
O215 Dy200 2.310 . S
O215 Dy203 2.664 . S
O215 C209 1.268 . S
O216 Dy200 2.351 . S
O216 C219 1.249 . S
O217 Dy203 2.326 . S
O217 C219 1.267 . S
C218 O210 1.249 . S
C218 O211 1.267 . S
C219 O216 1.249 . S
C219 O217 1.267 . S
Dy220 O224 2.398 1_556 S
Dy220 O225 2.491 . S
Dy220 O226 2.403 . S
Dy220 O227 2.664 . S
Dy220 O231 2.326 . S
Dy220 O235 2.310 . S
Dy220 O236 2.351 . S
C221 O232 1.185 . S
C221 O233 1.355 . S
C222 O224 1.185 . S
C222 O225 1.355 1_554 S
Dy223 O227 2.310 . S
Dy223 O230 2.351 . S
Dy223 O232 2.398 . S
Dy223 O233 2.491 . S
Dy223 O234 2.403 . S
Dy223 O235 2.664 . S
Dy223 O237 2.326 . S
O224 Dy220 2.398 1_554 S
O224 C222 1.185 . S
O225 Dy220 2.491 . S
O225 C222 1.355 1_556 S
O226 Dy220 2.403 . S
O226 C228 1.254 . S
O227 Dy220 2.664 . S
O227 Dy223 2.310 . S
O227 C228 1.268 . S
C228 O226 1.254 . S
C228 O227 1.268 . S
C229 O234 1.254 . S
C229 O235 1.268 . S
O230 Dy223 2.351 . S
O230 C238 1.249 . S
O231 Dy220 2.326 . S
O231 C238 1.267 . S
O232 C221 1.185 . S
O232 Dy223 2.398 . S
O233 C221 1.355 . S
O233 Dy223 2.491 . S
O234 Dy223 2.403 . S
O234 C229 1.254 . S
O235 Dy220 2.310 . S
O235 Dy223 2.664 . S
O235 C229 1.268 . S
O236 Dy220 2.351 . S
O236 C239 1.249 . S
O237 Dy223 2.326 . S
O237 C239 1.267 . S
C238 O230 1.249 . S
C238 O231 1.267 . S
C239 O236 1.249 . S
C239 O237 1.267 . S
Dy240 O244 2.398 . S
Dy240 O245 2.491 . S
Dy240 O246 2.403 . S
Dy240 O247 2.664 . S
Dy240 O251 2.326 . S
Dy240 O255 2.310 . S
Dy240 O256 2.351 . S
C241 O252 1.185 . S
C241 O253 1.355 . S
C242 O244 1.185 . S
C242 O245 1.355 . S
Dy243 O247 2.310 . S
Dy243 O250 2.351 . S
Dy243 O252 2.398 1_554 S
Dy243 O253 2.491 1_554 S
Dy243 O254 2.403 . S
Dy243 O255 2.664 . S
Dy243 O257 2.326 . S
O244 Dy240 2.398 . S
O244 C242 1.185 . S
O245 Dy240 2.491 . S
O245 C242 1.355 . S
O246 Dy240 2.403 . S
O246 C248 1.254 . S
O247 Dy240 2.664 . S
O247 Dy243 2.310 . S
O247 C248 1.268 . S
C248 O246 1.254 . S
C248 O247 1.268 . S
C249 O254 1.254 . S
C249 O255 1.268 . S
O250 Dy243 2.351 . S
O250 C258 1.249 . S
O251 Dy240 2.326 . S
O251 C258 1.267 . S
O252 C241 1.185 . S
O252 Dy243 2.398 1_556 S
O253 C241 1.355 . S
O253 Dy243 2.491 1_556 S
O254 Dy243 2.403 . S
O254 C249 1.254 . S
O255 Dy240 2.310 . S
O255 Dy243 2.664 . S
O255 C249 1.268 . S
O256 Dy240 2.351 . S
O256 C259 1.249 . S
O257 Dy243 2.326 . S
O257 C259 1.267 . S
C258 O250 1.249 . S
C258 O251 1.267 . S
C259 O256 1.249 . S
C259 O257 1.267 . S
Dy260 O264 2.398 1_554 S
Dy260 O265 2.491 1_554 S
Dy260 O266 2.403 . S
Dy260 O267 2.664 . S
Dy260 O271 2.326 . S
Dy260 O275 2.310 . S
Dy260 O276 2.351 . S
C261 O272 1.185 . S
C261 O273 1.355 . S
C262 O264 1.185 . S
C262 O265 1.355 . S
Dy263 O267 2.310 . S
Dy263 O270 2.351 . S
Dy263 O272 2.398 . S
Dy263 O273 2.491 . S
Dy263 O274 2.403 . S
Dy263 O275 2.664 . S
Dy263 O277 2.326 . S
O264 Dy260 2.398 1_556 S
O264 C262 1.185 . S
O265 Dy260 2.491 1_556 S
O265 C262 1.355 . S
O266 Dy260 2.403 . S
O266 C268 1.254 . S
O267 Dy260 2.664 . S
O267 Dy263 2.310 . S
O267 C268 1.268 . S
C268 O266 1.254 . S
C268 O267 1.268 . S
C269 O274 1.254 . S
C269 O275 1.268 . S
O270 Dy263 2.351 . S
O270 C278 1.249 . S
O271 Dy260 2.326 . S
O271 C278 1.267 . S
O272 C261 1.185 . S
O272 Dy263 2.398 . S
O273 C261 1.355 . S
O273 Dy263 2.491 . S
O274 Dy263 2.403 . S
O274 C269 1.254 . S
O275 Dy260 2.310 . S
O275 Dy263 2.664 . S
O275 C269 1.268 . S
O276 Dy260 2.351 . S
O276 C279 1.249 . S
O277 Dy263 2.326 . S
O277 C279 1.267 . S
C278 O270 1.249 . S
C278 O271 1.267 . S
C279 O276 1.249 . S
C279 O277 1.267 . S
Dy280 O284 2.398 . S
Dy280 O285 2.491 . S
Dy280 O286 2.403 . S
Dy280 O287 2.664 . S
Dy280 O291 2.326 . S
Dy280 O295 2.310 . S
Dy280 O296 2.351 . S
C281 O292 1.185 . S
C281 O293 1.355 . S
C282 O284 1.185 . S
C282 O285 1.355 . S
Dy283 O287 2.310 . S
Dy283 O290 2.351 . S
Dy283 O292 2.398 1_554 S
Dy283 O293 2.491 1_554 S
Dy283 O294 2.403 . S
Dy283 O295 2.664 . S
Dy283 O297 2.326 . S
O284 Dy280 2.398 . S
O284 C282 1.185 . S
O285 Dy280 2.491 . S
O285 C282 1.355 . S
O286 Dy280 2.403 . S
O286 C288 1.254 . S
O287 Dy280 2.664 . S
O287 Dy283 2.310 . S
O287 C288 1.268 . S
C288 O286 1.254 . S
C288 O287 1.268 . S
C289 O294 1.254 . S
C289 O295 1.268 . S
O290 Dy283 2.351 . S
O290 C298 1.249 . S
O291 Dy280 2.326 . S
O291 C298 1.267 . S
O292 C281 1.185 . S
O292 Dy283 2.398 1_556 S
O293 C281 1.355 . S
O293 Dy283 2.491 1_556 S
O294 Dy283 2.403 . S
O294 C289 1.254 . S
O295 Dy280 2.310 . S
O295 Dy283 2.664 . S
O295 C289 1.268 . S
O296 Dy280 2.351 . S
O296 C299 1.249 . S
O297 Dy283 2.326 . S
O297 C299 1.267 . S
C298 O290 1.249 . S
C298 O291 1.267 . S
C299 O296 1.249 . S
C299 O297 1.267 . S
Dy300 O304 2.398 . S
Dy300 O305 2.491 . S
Dy300 O306 2.403 . S
Dy300 O307 2.664 . S
Dy300 O311 2.326 . S
Dy300 O315 2.310 . S
Dy300 O316 2.351 . S
C301 O312 1.185 . S
C301 O313 1.355 . S
C302 O304 1.185 . S
C302 O305 1.355 . S
Dy303 O307 2.310 . S
Dy303 O310 2.351 . S
Dy303 O312 2.398 1_554 S
Dy303 O313 2.491 1_554 S
Dy303 O314 2.403 . S
Dy303 O315 2.664 . S
Dy303 O317 2.326 . S
O304 Dy300 2.398 . S
O304 C302 1.185 . S
O305 Dy300 2.491 . S
O305 C302 1.355 . S
O306 Dy300 2.403 . S
O306 C308 1.254 . S
O307 Dy300 2.664 . S
O307 Dy303 2.310 . S
O307 C308 1.268 . S
C308 O306 1.254 . S
C308 O307 1.268 . S
C309 O314 1.254 . S
C309 O315 1.268 . S
O310 Dy303 2.351 . S
O310 C318 1.249 . S
O311 Dy300 2.326 . S
O311 C318 1.267 . S
O312 C301 1.185 . S
O312 Dy303 2.398 1_556 S
O313 C301 1.355 . S
O313 Dy303 2.491 1_556 S
O314 Dy303 2.403 . S
O314 C309 1.254 . S
O315 Dy300 2.310 . S
O315 Dy303 2.664 . S
O315 C309 1.268 . S
O316 Dy300 2.351 . S
O316 C319 1.249 . S
O317 Dy303 2.326 . S
O317 C319 1.267 . S
C318 O310 1.249 . S
C318 O311 1.267 . S
C319 O316 1.249 . S
C319 O317 1.267 . S
Dy320 O324 2.398 . S
Dy320 O325 2.491 . S
Dy320 O326 2.403 . S
Dy320 O327 2.664 . S
Dy320 O331 2.326 . S
Dy320 O335 2.310 . S
Dy320 O336 2.351 . S
C321 O332 1.185 . S
C321 O333 1.355 . S
C322 O324 1.185 1_556 S
C322 O325 1.355 1_556 S
Dy323 O327 2.310 . S
Dy323 O330 2.351 . S
Dy323 O332 2.398 . S
Dy323 O333 2.491 . S
Dy323 O334 2.403 . S
Dy323 O335 2.664 . S
Dy323 O337 2.326 . S
O324 Dy320 2.398 . S
O324 C322 1.185 1_554 S
O325 Dy320 2.491 . S
O325 C322 1.355 1_554 S
O326 Dy320 2.403 . S
O326 C328 1.254 . S
O327 Dy320 2.664 . S
O327 Dy323 2.310 . S
O327 C328 1.268 . S
C328 O326 1.254 . S
C328 O327 1.268 . S
C329 O334 1.254 . S
C329 O335 1.268 . S
O330 Dy323 2.351 . S
O330 C338 1.249 . S
O331 Dy320 2.326 . S
O331 C338 1.267 . S
O332 C321 1.185 . S
O332 Dy323 2.398 . S
O333 C321 1.355 . S
O333 Dy323 2.491 . S
O334 Dy323 2.403 . S
O334 C329 1.254 . S
O335 Dy320 2.310 . S
O335 Dy323 2.664 . S
O335 C329 1.268 . S
O336 Dy320 2.351 . S
O336 C339 1.249 . S
O337 Dy323 2.326 . S
O337 C339 1.267 . S
C338 O330 1.249 . S
C338 O331 1.267 . S
C339 O336 1.249 . S
C339 O337 1.267 . S
Dy340 O344 2.398 . S
Dy340 O345 2.491 . S
Dy340 O346 2.403 . S
Dy340 O347 2.664 . S
Dy340 O351 2.326 . S
Dy340 O355 2.310 . S
Dy340 O356 2.351 . S
C341 O352 1.185 1_556 S
C341 O353 1.355 1_556 S
C342 O344 1.185 . S
C342 O345 1.355 . S
Dy343 O347 2.310 . S
Dy343 O350 2.351 . S
Dy343 O352 2.398 . S
Dy343 O353 2.491 . S
Dy343 O354 2.403 . S
Dy343 O355 2.664 . S
Dy343 O357 2.326 . S
O344 Dy340 2.398 . S
O344 C342 1.185 . S
O345 Dy340 2.491 . S
O345 C342 1.355 . S
O346 Dy340 2.403 . S
O346 C348 1.254 . S
O347 Dy340 2.664 . S
O347 Dy343 2.310 . S
O347 C348 1.268 . S
C348 O346 1.254 . S
C348 O347 1.268 . S
C349 O354 1.254 . S
C349 O355 1.268 . S
O350 Dy343 2.351 . S
O350 C358 1.249 . S
O351 Dy340 2.326 . S
O351 C358 1.267 . S
O352 C341 1.185 1_554 S
O352 Dy343 2.398 . S
O353 C341 1.355 1_554 S
O353 Dy343 2.491 . S
O354 Dy343 2.403 . S
O354 C349 1.254 . S
O355 Dy340 2.310 . S
O355 Dy343 2.664 . S
O355 C349 1.268 . S
O356 Dy340 2.351 . S
O356 C359 1.249 . S
O357 Dy343 2.326 . S
O357 C359 1.267 . S
C358 O350 1.249 . S
C358 O351 1.267 . S
C359 O356 1.249 . S
C359 O357 1.267 . S
C360 C361 1.391 . S
C360 C362 1.394 . S
C360 H376 0.931 . S
C361 C360 1.391 . S
C361 C365 1.376 . S
C362 C360 1.394 . S
C362 C363 1.369 . S
C362 C366 1.531 . S
C363 C362 1.369 . S
C363 C364 1.410 . S
C363 C371 1.503 . S
C364 C363 1.410 . S
C364 C365 1.392 . S
C364 C367 1.511 . S
C365 C361 1.376 . S
C365 C364 1.392 . S
C365 H377 0.929 . S
C366 C362 1.531 . S
C366 H378 0.960 . S
C366 H379 0.962 . S
C366 H380 0.960 . S
C367 C364 1.511 . S
C367 H381 0.961 . S
C367 H382 0.961 . S
C367 H383 0.961 . S
C368 C369 1.370 . S
C368 C370 1.363 . S
C368 H384 0.931 . S
C369 C368 1.370 . S
C369 C373 1.408 . S
C370 C368 1.363 . S
C370 C371 1.370 . S
C370 C374 1.524 . S
C371 C363 1.503 . S
C371 C370 1.370 . S
C371 C372 1.403 . S
C372 C371 1.403 . S
C372 C373 1.404 . S
C372 C375 1.539 . S
C373 C369 1.408 . S
C373 C372 1.404 . S
C373 H385 0.930 . S
C374 C370 1.524 . S
C374 H386 0.956 . S
C374 H387 0.961 . S
C374 H388 0.961 . S
C375 C372 1.539 . S
C375 H389 0.958 . S
C375 H390 0.961 . S
C375 H391 0.960 . S
H376 C360 0.931 . S
H377 C365 0.929 . S
H378 C366 0.960 . S
H379 C366 0.962 . S
H380 C366 0.960 . S
H381 C367 0.961 . S
H382 C367 0.961 . S
H383 C367 0.961 . S
H384 C368 0.931 . S
H385 C373 0.930 . S
H386 C374 0.956 . S
H387 C374 0.961 . S
H388 C374 0.961 . S
H389 C375 0.958 . S
H390 C375 0.961 . S
H391 C375 0.960 . S
C392 C393 1.391 . S
C392 C394 1.394 . S
C392 H408 0.931 . S
C393 C392 1.391 . S
C393 C397 1.376 . S
C394 C392 1.394 . S
C394 C395 1.369 . S
C394 C398 1.531 . S
C395 C394 1.369 . S
C395 C396 1.410 . S
C395 C403 1.503 . S
C396 C395 1.410 . S
C396 C397 1.392 . S
C396 C399 1.511 . S
C397 C393 1.376 . S
C397 C396 1.392 . S
C397 H409 0.929 . S
C398 C394 1.531 . S
C398 H410 0.960 . S
C398 H411 0.962 . S
C398 H412 0.960 . S
C399 C396 1.511 . S
C399 H413 0.961 . S
C399 H414 0.961 . S
C399 H415 0.961 . S
C400 C401 1.370 . S
C400 C402 1.363 . S
C400 H416 0.931 . S
C401 C400 1.370 . S
C401 C405 1.408 . S
C402 C400 1.363 . S
C402 C403 1.370 . S
C402 C406 1.524 . S
C403 C395 1.503 . S
C403 C402 1.370 . S
C403 C404 1.403 . S
C404 C403 1.403 . S
C404 C405 1.404 . S
C404 C407 1.539 . S
C405 C401 1.408 . S
C405 C404 1.404 . S
C405 H417 0.930 . S
C406 C402 1.524 . S
C406 H418 0.956 . S
C406 H419 0.961 . S
C406 H420 0.961 . S
C407 C404 1.539 . S
C407 H421 0.958 . S
C407 H422 0.961 . S
C407 H423 0.960 . S
H408 C392 0.931 . S
H409 C397 0.929 . S
H410 C398 0.960 . S
H411 C398 0.962 . S
H412 C398 0.960 . S
H413 C399 0.961 . S
H414 C399 0.961 . S
H415 C399 0.961 . S
H416 C400 0.931 . S
H417 C405 0.930 . S
H418 C406 0.956 . S
H419 C406 0.961 . S
H420 C406 0.961 . S
H421 C407 0.958 . S
H422 C407 0.961 . S
H423 C407 0.960 . S
C424 C425 1.391 . S
C424 C426 1.394 . S
C424 H440 0.931 . S
C425 C424 1.391 . S
C425 C429 1.376 . S
C426 C424 1.394 . S
C426 C427 1.369 . S
C426 C430 1.531 . S
C427 C426 1.369 . S
C427 C428 1.410 . S
C427 C435 1.503 . S
C428 C427 1.410 . S
C428 C429 1.392 . S
C428 C431 1.511 . S
C429 C425 1.376 . S
C429 C428 1.392 . S
C429 H441 0.929 . S
C430 C426 1.531 . S
C430 H442 0.960 . S
C430 H443 0.962 . S
C430 H444 0.960 . S
C431 C428 1.511 . S
C431 H445 0.961 . S
C431 H446 0.961 . S
C431 H447 0.961 . S
C432 C433 1.370 . S
C432 C434 1.363 . S
C432 H448 0.931 . S
C433 C432 1.370 . S
C433 C437 1.408 . S
C434 C432 1.363 . S
C434 C435 1.370 . S
C434 C438 1.524 . S
C435 C427 1.503 . S
C435 C434 1.370 . S
C435 C436 1.403 . S
C436 C435 1.403 . S
C436 C437 1.404 . S
C436 C439 1.539 . S
C437 C433 1.408 . S
C437 C436 1.404 . S
C437 H449 0.930 . S
C438 C434 1.524 . S
C438 H450 0.956 . S
C438 H451 0.961 . S
C438 H452 0.961 . S
C439 C436 1.539 . S
C439 H453 0.958 . S
C439 H454 0.961 . S
C439 H455 0.960 . S
H440 C424 0.931 . S
H441 C429 0.929 . S
H442 C430 0.960 . S
H443 C430 0.962 . S
H444 C430 0.960 . S
H445 C431 0.961 . S
H446 C431 0.961 . S
H447 C431 0.961 . S
H448 C432 0.931 . S
H449 C437 0.930 . S
H450 C438 0.956 . S
H451 C438 0.961 . S
H452 C438 0.961 . S
H453 C439 0.958 . S
H454 C439 0.961 . S
H455 C439 0.960 . S
C456 C457 1.391 . S
C456 C458 1.394 . S
C456 H472 0.931 . S
C457 C456 1.391 . S
C457 C461 1.376 . S
C458 C456 1.394 . S
C458 C459 1.369 . S
C458 C462 1.531 . S
C459 C458 1.369 . S
C459 C460 1.410 . S
C459 C467 1.503 . S
C460 C459 1.410 . S
C460 C461 1.392 . S
C460 C463 1.511 . S
C461 C457 1.376 . S
C461 C460 1.392 . S
C461 H473 0.929 . S
C462 C458 1.531 . S
C462 H474 0.960 . S
C462 H475 0.962 . S
C462 H476 0.960 . S
C463 C460 1.511 . S
C463 H477 0.961 . S
C463 H478 0.961 . S
C463 H479 0.961 . S
C464 C465 1.370 . S
C464 C466 1.363 . S
C464 H480 0.931 . S
C465 C464 1.370 . S
C465 C469 1.408 . S
C466 C464 1.363 . S
C466 C467 1.370 . S
C466 C470 1.524 . S
C467 C459 1.503 . S
C467 C466 1.370 . S
C467 C468 1.403 . S
C468 C467 1.403 . S
C468 C469 1.404 . S
C468 C471 1.539 . S
C469 C465 1.408 . S
C469 C468 1.404 . S
C469 H481 0.930 . S
C470 C466 1.524 . S
C470 H482 0.956 . S
C470 H483 0.961 . S
C470 H484 0.961 . S
C471 C468 1.539 . S
C471 H485 0.958 . S
C471 H486 0.961 . S
C471 H487 0.960 . S
H472 C456 0.931 . S
H473 C461 0.929 . S
H474 C462 0.960 . S
H475 C462 0.962 . S
H476 C462 0.960 . S
H477 C463 0.961 . S
H478 C463 0.961 . S
H479 C463 0.961 . S
H480 C464 0.931 . S
H481 C469 0.930 . S
H482 C470 0.956 . S
H483 C470 0.961 . S
H484 C470 0.961 . S
H485 C471 0.958 . S
H486 C471 0.961 . S
H487 C471 0.960 . S
C488 C489 1.391 . S
C488 C490 1.394 . S
C488 H504 0.931 . S
C489 C488 1.391 . S
C489 C493 1.376 . S
C490 C488 1.394 . S
C490 C491 1.369 . S
C490 C494 1.531 . S
C491 C490 1.369 . S
C491 C492 1.410 . S
C491 C499 1.503 . S
C492 C491 1.410 . S
C492 C493 1.392 . S
C492 C495 1.511 . S
C493 C489 1.376 . S
C493 C492 1.392 . S
C493 H505 0.929 . S
C494 C490 1.531 . S
C494 H506 0.960 . S
C494 H507 0.962 . S
C494 H508 0.960 . S
C495 C492 1.511 . S
C495 H509 0.961 . S
C495 H510 0.961 . S
C495 H511 0.961 . S
C496 C497 1.370 . S
C496 C498 1.363 . S
C496 H512 0.931 . S
C497 C496 1.370 . S
C497 C501 1.408 . S
C498 C496 1.363 . S
C498 C499 1.370 . S
C498 C502 1.524 . S
C499 C491 1.503 . S
C499 C498 1.370 . S
C499 C500 1.403 . S
C500 C499 1.403 . S
C500 C501 1.404 . S
C500 C503 1.539 . S
C501 C497 1.408 . S
C501 C500 1.404 . S
C501 H513 0.930 . S
C502 C498 1.524 . S
C502 H514 0.956 . S
C502 H515 0.961 . S
C502 H516 0.961 . S
C503 C500 1.539 . S
C503 H517 0.958 . S
C503 H518 0.946 1_655 S
C503 H519 0.960 . S
H504 C488 0.931 . S
H505 C493 0.929 . S
H506 C494 0.960 . S
H507 C494 0.962 . S
H508 C494 0.960 . S
H509 C495 0.961 . S
H510 C495 0.961 . S
H511 C495 0.961 . S
H512 C496 0.931 . S
H513 C501 0.930 . S
H514 C502 0.956 . S
H515 C502 0.961 . S
H516 C502 0.961 . S
H517 C503 0.958 . S
H518 C503 0.946 1_455 S
H519 C503 0.960 . S
C520 C521 1.391 . S
C520 C522 1.394 . S
C520 H536 0.931 . S
C521 C520 1.391 . S
C521 C525 1.376 . S
C522 C520 1.394 . S
C522 C523 1.369 . S
C522 C526 1.531 . S
C523 C522 1.369 . S
C523 C524 1.410 . S
C523 C531 1.503 . S
C524 C523 1.410 . S
C524 C525 1.392 . S
C524 C527 1.511 . S
C525 C521 1.376 . S
C525 C524 1.392 . S
C525 H537 0.929 . S
C526 C522 1.531 . S
C526 H538 0.960 . S
C526 H539 0.962 . S
C526 H540 0.960 . S
C527 C524 1.511 . S
C527 H541 0.961 . S
C527 H542 0.961 . S
C527 H543 0.961 . S
C528 C529 1.370 . S
C528 C530 1.363 . S
C528 H544 0.931 . S
C529 C528 1.370 . S
C529 C533 1.408 . S
C530 C528 1.363 . S
C530 C531 1.370 . S
C530 C534 1.524 . S
C531 C523 1.503 . S
C531 C530 1.370 . S
C531 C532 1.403 . S
C532 C531 1.403 . S
C532 C533 1.404 . S
C532 C535 1.539 . S
C533 C529 1.408 . S
C533 C532 1.404 . S
C533 H545 0.930 . S
C534 C530 1.524 . S
C534 H546 0.956 . S
C534 H547 0.961 . S
C534 H548 0.961 . S
C535 C532 1.539 . S
C535 H549 0.958 . S
C535 H550 0.961 . S
C535 H551 0.960 . S
H536 C520 0.931 . S
H537 C525 0.929 . S
H538 C526 0.960 . S
H539 C526 0.962 . S
H540 C526 0.960 . S
H541 C527 0.961 . S
H542 C527 0.961 . S
H543 C527 0.961 . S
H544 C528 0.931 . S
H545 C533 0.930 . S
H546 C534 0.956 . S
H547 C534 0.961 . S
H548 C534 0.961 . S
H549 C535 0.958 . S
H550 C535 0.961 . S
H551 C535 0.960 . S
C552 C553 1.391 . S
C552 C554 1.394 . S
C552 H568 0.931 . S
C553 C552 1.391 . S
C553 C557 1.376 . S
C554 C552 1.394 . S
C554 C555 1.369 . S
C554 C558 1.531 . S
C555 C554 1.369 . S
C555 C556 1.410 . S
C555 C563 1.503 . S
C556 C555 1.410 . S
C556 C557 1.392 . S
C556 C559 1.511 . S
C557 C553 1.376 . S
C557 C556 1.392 . S
C557 H569 0.929 . S
C558 C554 1.531 . S
C558 H570 0.960 . S
C558 H571 0.962 . S
C558 H572 0.960 . S
C559 C556 1.511 . S
C559 H573 0.961 . S
C559 H574 0.961 . S
C559 H575 0.961 . S
C560 C561 1.370 . S
C560 C562 1.363 . S
C560 H576 0.931 . S
C561 C560 1.370 . S
C561 C565 1.408 . S
C562 C560 1.363 . S
C562 C563 1.370 . S
C562 C566 1.524 . S
C563 C555 1.503 . S
C563 C562 1.370 . S
C563 C564 1.403 . S
C564 C563 1.403 . S
C564 C565 1.404 . S
C564 C567 1.539 . S
C565 C561 1.408 . S
C565 C564 1.404 . S
C565 H577 0.930 . S
C566 C562 1.524 . S
C566 H578 0.956 . S
C566 H579 0.961 . S
C566 H580 0.961 . S
C567 C564 1.539 . S
C567 H581 0.958 . S
C567 H582 0.961 . S
C567 H583 0.960 . S
H568 C552 0.931 . S
H569 C557 0.929 . S
H570 C558 0.960 . S
H571 C558 0.962 . S
H572 C558 0.960 . S
H573 C559 0.961 . S
H574 C559 0.961 . S
H575 C559 0.961 . S
H576 C560 0.931 . S
H577 C565 0.930 . S
H578 C566 0.956 . S
H579 C566 0.961 . S
H580 C566 0.961 . S
H581 C567 0.958 . S
H582 C567 0.961 . S
H583 C567 0.960 . S
C584 C585 1.391 . S
C584 C586 1.394 . S
C584 H600 0.931 . S
C585 C584 1.391 . S
C585 C589 1.376 . S
C586 C584 1.394 . S
C586 C587 1.369 . S
C586 C590 1.531 . S
C587 C586 1.369 . S
C587 C588 1.410 . S
C587 C595 1.503 . S
C588 C587 1.410 . S
C588 C589 1.392 . S
C588 C591 1.511 . S
C589 C585 1.376 . S
C589 C588 1.392 . S
C589 H601 0.929 . S
C590 C586 1.531 . S
C590 H602 0.960 . S
C590 H603 0.962 . S
C590 H604 0.960 . S
C591 C588 1.511 . S
C591 H605 0.961 . S
C591 H606 0.961 . S
C591 H607 0.961 . S
C592 C593 1.370 . S
C592 C594 1.363 . S
C592 H608 0.931 . S
C593 C592 1.370 . S
C593 C597 1.408 . S
C594 C592 1.363 . S
C594 C595 1.370 . S
C594 C598 1.524 . S
C595 C587 1.503 . S
C595 C594 1.370 . S
C595 C596 1.403 . S
C596 C595 1.403 . S
C596 C597 1.404 . S
C596 C599 1.539 . S
C597 C593 1.408 . S
C597 C596 1.404 . S
C597 H609 0.930 . S
C598 C594 1.524 . S
C598 H610 0.956 . S
C598 H611 0.961 . S
C598 H612 0.961 . S
C599 C596 1.539 . S
C599 H613 0.958 . S
C599 H614 0.961 . S
C599 H615 0.960 . S
H600 C584 0.931 . S
H601 C589 0.929 . S
H602 C590 0.960 . S
H603 C590 0.962 . S
H604 C590 0.960 . S
H605 C591 0.961 . S
H606 C591 0.961 . S
H607 C591 0.961 . S
H608 C592 0.931 . S
H609 C597 0.930 . S
H610 C598 0.956 . S
H611 C598 0.961 . S
H612 C598 0.961 . S
H613 C599 0.958 . S
H614 C599 0.961 . S
H615 C599 0.960 . S
C616 C617 1.391 . S
C616 C618 1.394 . S
C616 H632 0.931 . S
C617 C616 1.391 . S
C617 C621 1.376 . S
C618 C616 1.394 . S
C618 C619 1.369 . S
C618 C622 1.531 . S
C619 C618 1.369 . S
C619 C620 1.410 . S
C619 C627 1.503 . S
C620 C619 1.410 . S
C620 C621 1.392 . S
C620 C623 1.511 . S
C621 C617 1.376 . S
C621 C620 1.392 . S
C621 H633 0.929 . S
C622 C618 1.531 . S
C622 H634 0.960 . S
C622 H635 0.962 . S
C622 H636 0.960 . S
C623 C620 1.511 . S
C623 H637 0.961 . S
C623 H638 0.961 . S
C623 H639 0.961 . S
C624 C625 1.370 . S
C624 C626 1.363 . S
C624 H640 0.931 . S
C625 C624 1.370 . S
C625 C629 1.408 . S
C626 C624 1.363 . S
C626 C627 1.370 . S
C626 C630 1.524 . S
C627 C619 1.503 . S
C627 C626 1.370 . S
C627 C628 1.403 . S
C628 C627 1.403 . S
C628 C629 1.404 . S
C628 C631 1.539 . S
C629 C625 1.408 . S
C629 C628 1.404 . S
C629 H641 0.930 . S
C630 C626 1.524 . S
C630 H642 0.956 . S
C630 H643 0.961 . S
C630 H644 0.961 . S
C631 C628 1.539 . S
C631 H645 0.958 . S
C631 H646 0.961 . S
C631 H647 0.960 . S
H632 C616 0.931 . S
H633 C621 0.929 . S
H634 C622 0.960 . S
H635 C622 0.962 . S
H636 C622 0.960 . S
H637 C623 0.961 . S
H638 C623 0.961 . S
H639 C623 0.961 . S
H640 C624 0.931 . S
H641 C629 0.930 . S
H642 C630 0.956 . S
H643 C630 0.961 . S
H644 C630 0.961 . S
H645 C631 0.958 . S
H646 C631 0.961 . S
H647 C631 0.960 . S
C648 C649 1.391 . S
C648 C650 1.394 . S
C648 H664 0.931 . S
C649 C648 1.391 . S
C649 C653 1.376 . S
C650 C648 1.394 . S
C650 C651 1.369 . S
C650 C654 1.531 . S
C651 C650 1.369 . S
C651 C652 1.410 . S
C651 C659 1.503 . S
C652 C651 1.410 . S
C652 C653 1.392 . S
C652 C655 1.511 . S
C653 C649 1.376 . S
C653 C652 1.392 . S
C653 H665 0.929 . S
C654 C650 1.531 . S
C654 H666 0.960 . S
C654 H667 0.962 . S
C654 H668 0.960 . S
C655 C652 1.511 . S
C655 H669 0.961 . S
C655 H670 0.961 . S
C655 H671 0.961 . S
C656 C657 1.370 . S
C656 C658 1.363 . S
C656 H672 0.931 . S
C657 C656 1.370 . S
C657 C661 1.408 . S
C658 C656 1.363 . S
C658 C659 1.370 . S
C658 C662 1.524 . S
C659 C651 1.503 . S
C659 C658 1.370 . S
C659 C660 1.403 . S
C660 C659 1.403 . S
C660 C661 1.404 . S
C660 C663 1.539 . S
C661 C657 1.408 . S
C661 C660 1.404 . S
C661 H673 0.954 . S
C662 C658 1.524 . S
C662 H674 0.956 . S
C662 H675 0.961 . S
C662 H676 0.961 . S
C663 C660 1.539 . S
C663 H677 0.958 . S
C663 H678 0.961 1_565 S
C663 H679 0.960 . S
H664 C648 0.931 . S
H665 C653 0.929 . S
H666 C654 0.960 . S
H667 C654 0.962 . S
H668 C654 0.960 . S
H669 C655 0.961 . S
H670 C655 0.961 . S
H671 C655 0.961 . S
H672 C656 0.931 . S
H673 C661 0.954 . S
H674 C662 0.956 . S
H675 C662 0.961 . S
H676 C662 0.961 . S
H677 C663 0.958 . S
H678 C663 0.961 1_545 S
H679 C663 0.960 . S
C680 C681 1.391 . S
C680 C682 1.394 . S
C680 H696 0.931 . S
C681 C680 1.391 . S
C681 C685 1.376 . S
C682 C680 1.394 . S
C682 C683 1.369 . S
C682 C686 1.531 . S
C683 C682 1.369 . S
C683 C684 1.410 . S
C683 C691 1.503 . S
C684 C683 1.410 . S
C684 C685 1.392 . S
C684 C687 1.511 . S
C685 C681 1.376 . S
C685 C684 1.392 . S
C685 H697 0.929 . S
C686 C682 1.531 . S
C686 H698 0.960 . S
C686 H699 0.962 . S
C686 H700 0.960 . S
C687 C684 1.511 . S
C687 H701 0.961 . S
C687 H702 0.961 . S
C687 H703 0.961 . S
C688 C689 1.370 . S
C688 C690 1.363 . S
C688 H704 0.931 . S
C689 C688 1.370 . S
C689 C693 1.408 . S
C690 C688 1.363 . S
C690 C691 1.370 . S
C690 C694 1.524 . S
C691 C683 1.503 . S
C691 C690 1.370 . S
C691 C692 1.403 . S
C692 C691 1.403 . S
C692 C693 1.404 . S
C692 C695 1.539 . S
C693 C689 1.408 . S
C693 C692 1.404 . S
C693 H705 0.930 . S
C694 C690 1.524 . S
C694 H706 0.956 . S
C694 H707 0.961 . S
C694 H708 0.961 . S
C695 C692 1.539 . S
C695 H709 0.958 . S
C695 H710 0.961 . S
C695 H711 0.960 . S
H696 C680 0.931 . S
H697 C685 0.929 . S
H698 C686 0.960 . S
H699 C686 0.962 . S
H700 C686 0.960 . S
H701 C687 0.961 . S
H702 C687 0.961 . S
H703 C687 0.961 . S
H704 C688 0.931 . S
H705 C693 0.930 . S
H706 C694 0.956 . S
H707 C694 0.961 . S
H708 C694 0.961 . S
H709 C695 0.958 . S
H710 C695 0.961 . S
H711 C695 0.960 . S
C712 C713 1.391 . S
C712 C714 1.394 . S
C712 H728 0.931 . S
C713 C712 1.391 . S
C713 C717 1.376 . S
C714 C712 1.394 . S
C714 C715 1.369 . S
C714 C718 1.531 . S
C715 C714 1.369 . S
C715 C716 1.410 . S
C715 C723 1.503 . S
C716 C715 1.410 . S
C716 C717 1.392 . S
C716 C719 1.511 . S
C717 C713 1.376 . S
C717 C716 1.392 . S
C717 H729 0.929 . S
C718 C714 1.531 . S
C718 H730 0.960 . S
C718 H731 0.962 . S
C718 H732 0.960 . S
C719 C716 1.511 . S
C719 H733 0.961 . S
C719 H734 0.961 . S
C719 H735 0.961 . S
C720 C721 1.370 . S
C720 C722 1.363 . S
C720 H736 0.931 . S
C721 C720 1.370 . S
C721 C725 1.408 . S
C722 C720 1.363 . S
C722 C723 1.370 . S
C722 C726 1.524 . S
C723 C715 1.503 . S
C723 C722 1.370 . S
C723 C724 1.403 . S
C724 C723 1.403 . S
C724 C725 1.404 . S
C724 C727 1.539 . S
C725 C721 1.408 . S
C725 C724 1.404 . S
C725 H737 0.930 . S
C726 C722 1.524 . S
C726 H738 0.956 . S
C726 H739 0.961 . S
C726 H740 0.961 . S
C727 C724 1.539 . S
C727 H741 0.958 . S
C727 H742 0.961 . S
C727 H743 0.960 . S
H728 C712 0.931 . S
H729 C717 0.929 . S
H730 C718 0.960 . S
H731 C718 0.962 . S
H732 C718 0.960 . S
H733 C719 0.961 . S
H734 C719 0.961 . S
H735 C719 0.961 . S
H736 C720 0.931 . S
H737 C725 0.930 . S
H738 C726 0.956 . S
H739 C726 0.961 . S
H740 C726 0.961 . S
H741 C727 0.958 . S
H742 C727 0.961 . S
H743 C727 0.960 . S
C744 C745 1.391 . S
C744 C746 1.394 . S
C744 H760 0.931 . S
C745 C744 1.391 . S
C745 C749 1.376 . S
C746 C744 1.394 . S
C746 C747 1.369 . S
C746 C750 1.531 1_556 S
C747 C746 1.369 . S
C747 C748 1.410 . S
C747 C755 1.503 1_655 S
C748 C747 1.410 . S
C748 C749 1.392 . S
C748 C751 1.511 1_655 S
C749 C745 1.376 . S
C749 C748 1.392 . S
C749 H761 0.929 . S
C750 C746 1.531 1_554 S
C750 H762 0.960 1_655 S
C750 H763 0.962 . S
C750 H764 0.960 1_554 S
C751 C748 1.511 1_455 S
C751 H765 0.961 . S
C751 H766 0.961 . S
C751 H767 0.961 . S
C752 C753 1.370 . S
C752 C754 1.363 . S
C752 H768 0.931 . S
C753 C752 1.370 . S
C753 C757 1.408 . S
C754 C752 1.363 . S
C754 C755 1.370 1_554 S
C754 C758 1.524 . S
C755 C747 1.503 1_455 S
C755 C754 1.370 1_556 S
C755 C756 1.403 . S
C756 C755 1.403 . S
C756 C757 1.404 1_556 S
C756 C759 1.539 . S
C757 C753 1.408 . S
C757 C756 1.404 1_554 S
C757 H769 0.931 . S
C758 C754 1.524 . S
C758 H770 0.956 1_455 S
C758 H771 0.961 1_455 S
C758 H772 0.961 . S
C759 C756 1.539 . S
C759 H773 0.958 . S
C759 H774 0.961 . S
C759 H775 0.960 . S
H760 C744 0.931 . S
H761 C749 0.929 . S
H762 C750 0.960 1_455 S
H763 C750 0.962 . S
H764 C750 0.960 1_556 S
H765 C751 0.961 . S
H766 C751 0.961 . S
H767 C751 0.961 . S
H768 C752 0.931 . S
H769 C757 0.931 . S
H770 C758 0.956 1_655 S
H771 C758 0.961 1_655 S
H772 C758 0.961 . S
H773 C759 0.958 . S
H774 C759 0.961 . S
H775 C759 0.960 . S
C776 C777 1.391 . S
C776 C778 1.394 . S
C776 H792 0.931 . S
C777 C776 1.391 . S
C777 C781 1.376 . S
C778 C776 1.394 . S
C778 C779 1.369 . S
C778 C782 1.531 1_556 S
C779 C778 1.369 . S
C779 C780 1.410 . S
C779 C787 1.503 1_556 S
C780 C779 1.410 . S
C780 C781 1.392 . S
C780 C783 1.511 . S
C781 C777 1.376 . S
C781 C780 1.392 . S
C781 H793 0.929 . S
C782 C778 1.531 1_554 S
C782 H794 0.960 . S
C782 H795 0.962 . S
C782 H796 0.960 . S
C783 C780 1.511 . S
C783 H797 0.961 . S
C783 H798 0.961 . S
C783 H799 0.961 . S
C784 C785 1.370 . S
C784 C786 1.363 . S
C784 H800 0.931 . S
C785 C784 1.370 . S
C785 C789 1.408 . S
C786 C784 1.363 . S
C786 C787 1.370 . S
C786 C790 1.524 1_554 S
C787 C779 1.503 1_554 S
C787 C786 1.370 . S
C787 C788 1.403 . S
C788 C787 1.403 . S
C788 C789 1.404 . S
C788 C791 1.539 . S
C789 C785 1.408 . S
C789 C788 1.404 . S
C789 H801 0.930 . S
C790 C786 1.524 1_556 S
C790 H802 0.956 . S
C790 H803 0.961 . S
C790 H804 0.961 . S
C791 C788 1.539 . S
C791 H805 0.958 . S
C791 H806 0.961 . S
C791 H807 0.960 . S
H792 C776 0.931 . S
H793 C781 0.929 . S
H794 C782 0.960 . S
H795 C782 0.962 . S
H796 C782 0.960 . S
H797 C783 0.961 . S
H798 C783 0.961 . S
H799 C783 0.961 . S
H800 C784 0.931 . S
H801 C789 0.930 . S
H802 C790 0.956 . S
H803 C790 0.961 . S
H804 C790 0.961 . S
H805 C791 0.958 . S
H806 C791 0.961 . S
H807 C791 0.960 . S
C808 C809 1.391 . S
C808 C810 1.394 . S
C808 H824 0.931 . S
C809 C808 1.391 . S
C809 C813 1.376 . S
C810 C808 1.394 . S
C810 C811 1.369 . S
C810 C814 1.531 . S
C811 C810 1.369 . S
C811 C812 1.410 . S
C811 C819 1.503 . S
C812 C811 1.410 . S
C812 C813 1.392 . S
C812 C815 1.511 . S
C813 C809 1.376 . S
C813 C812 1.392 . S
C813 H825 0.929 . S
C814 C810 1.531 . S
C814 H826 0.960 1_556 S
C814 H827 0.962 . S
C814 H828 0.960 . S
C815 C812 1.511 . S
C815 H829 0.961 . S
C815 H830 0.961 . S
C815 H831 0.961 . S
C816 C817 1.370 1_556 S
C816 C818 1.363 . S
C816 H832 0.931 . S
C817 C816 1.370 1_554 S
C817 C821 1.408 . S
C818 C816 1.363 . S
C818 C819 1.370 1_565 S
C818 C822 1.524 . S
C819 C811 1.503 . S
C819 C818 1.370 1_545 S
C819 C820 1.403 1_556 S
C820 C819 1.403 1_554 S
C820 C821 1.404 1_545 S
C820 C823 1.539 . S
C821 C817 1.408 . S
C821 C820 1.404 1_565 S
C821 H833 0.930 . S
C822 C818 1.524 . S
C822 H834 0.956 . S
C822 H835 0.961 . S
C822 H836 0.961 . S
C823 C820 1.539 . S
C823 H837 0.958 . S
C823 H838 0.961 . S
C823 H839 0.960 . S
H824 C808 0.931 . S
H825 C813 0.929 . S
H826 C814 0.960 1_554 S
H827 C814 0.962 . S
H828 C814 0.960 . S
H829 C815 0.961 . S
H830 C815 0.961 . S
H831 C815 0.961 . S
H832 C816 0.931 . S
H833 C821 0.930 . S
H834 C822 0.956 . S
H835 C822 0.961 . S
H836 C822 0.961 . S
H837 C823 0.958 . S
H838 C823 0.961 . S
H839 C823 0.960 . S
C840 C841 1.391 . S
C840 C842 1.394 . S
C840 H856 0.931 . S
C841 C840 1.391 . S
C841 C845 1.376 . S
C842 C840 1.394 . S
C842 C843 1.369 . S
C842 C846 1.531 1_545 S
C843 C842 1.369 . S
C843 C844 1.410 1_556 S
C843 C851 1.503 1_556 S
C844 C843 1.410 1_554 S
C844 C845 1.392 1_554 S
C844 C847 1.511 . S
C845 C841 1.376 . S
C845 C844 1.392 1_556 S
C845 H857 0.929 . S
C846 C842 1.531 1_565 S
C846 H858 0.960 . S
C846 H859 0.962 . S
C846 H860 0.960 . S
C847 C844 1.511 . S
C847 H861 0.961 . S
C847 H862 0.961 . S
C847 H863 0.961 . S
C848 C849 1.370 . S
C848 C850 1.366 1_565 S
C848 H864 0.931 . S
C849 C848 1.370 . S
C849 C853 1.408 . S
C850 C848 1.366 1_545 S
C850 C851 1.371 . S
C850 C854 1.521 . S
C851 C843 1.503 1_554 S
C851 C850 1.371 . S
C851 C852 1.403 1_545 S
C852 C851 1.403 1_565 S
C852 C853 1.404 . S
C852 C855 1.539 1_565 S
C853 C849 1.408 . S
C853 C852 1.404 . S
C853 H865 0.930 . S
C854 C850 1.521 . S
C854 H866 0.956 1_554 S
C854 H867 0.961 . S
C854 H868 0.961 . S
C855 C852 1.539 1_545 S
C855 H869 0.958 1_544 S
C855 H870 0.961 1_545 S
C855 H871 0.960 . S
H856 C840 0.931 . S
H857 C845 0.929 . S
H858 C846 0.960 . S
H859 C846 0.962 . S
H860 C846 0.960 . S
H861 C847 0.961 . S
H862 C847 0.961 . S
H863 C847 0.961 . S
H864 C848 0.931 . S
H865 C853 0.930 . S
H866 C854 0.956 1_556 S
H867 C854 0.961 . S
H868 C854 0.961 . S
H869 C855 0.958 1_566 S
H870 C855 0.961 1_565 S
H871 C855 0.960 . S
C872 C873 1.391 . S
C872 C874 1.394 . S
C872 H888 0.931 . S
C873 C872 1.391 . S
C873 C877 1.376 . S
C874 C872 1.394 . S
C874 C875 1.369 . S
C874 C878 1.502 1_455 S
C875 C874 1.369 . S
C875 C876 1.410 . S
C875 C883 1.464 1_455 S
C876 C875 1.410 . S
C876 C877 1.392 . S
C876 C879 1.511 1_554 S
C877 C873 1.376 . S
C877 C876 1.392 . S
C877 H889 0.929 . S
C878 C874 1.502 1_655 S
C878 H890 0.988 . S
C878 H891 0.958 . S
C878 H892 0.966 1_655 S
C879 C876 1.511 1_556 S
C879 H893 0.961 . S
C879 H894 0.961 . S
C879 H895 0.961 . S
C880 C881 1.370 . S
C880 C882 1.363 1_556 S
C880 H896 0.931 . S
C881 C880 1.370 . S
C881 C885 1.408 . S
C882 C880 1.363 1_554 S
C882 C883 1.366 . S
C882 C886 1.524 1_655 S
C883 C875 1.464 1_655 S
C883 C882 1.366 . S
C883 C884 1.450 1_554 S
C884 C883 1.450 1_556 S
C884 C885 1.404 . S
C884 C887 1.539 1_556 S
C885 C881 1.408 . S
C885 C884 1.404 . S
C885 H897 0.930 . S
C886 C882 1.524 1_455 S
C886 H898 0.956 . S
C886 H899 0.961 . S
C886 H900 0.961 1_455 S
C887 C884 1.539 1_554 S
C887 H901 0.958 . S
C887 H902 0.961 1_554 S
C887 H903 0.960 1_655 S
H888 C872 0.931 . S
H889 C877 0.929 . S
H890 C878 0.988 . S
H891 C878 0.958 . S
H892 C878 0.966 1_455 S
H893 C879 0.961 . S
H894 C879 0.961 . S
H895 C879 0.961 . S
H896 C880 0.931 . S
H897 C885 0.930 . S
H898 C886 0.956 . S
H899 C886 0.961 . S
H900 C886 0.961 1_655 S
H901 C887 0.958 . S
H902 C887 0.961 1_556 S
H903 C887 0.960 1_455 S
C904 C905 1.391 . S
C904 C906 1.394 . S
C904 H920 0.931 . S
C905 C904 1.391 . S
C905 C909 1.376 . S
C906 C904 1.394 . S
C906 C907 1.369 . S
C906 C910 1.531 1_554 S
C907 C906 1.369 . S
C907 C908 1.410 . S
C907 C915 1.503 1_554 S
C908 C907 1.410 . S
C908 C909 1.392 . S
C908 C911 1.511 . S
C909 C905 1.376 . S
C909 C908 1.392 . S
C909 H921 0.929 . S
C910 C906 1.531 1_556 S
C910 H922 0.960 . S
C910 H923 0.962 . S
C910 H924 0.960 . S
C911 C908 1.511 . S
C911 H925 0.961 . S
C911 H926 0.961 . S
C911 H927 0.961 . S
C912 C913 1.370 . S
C912 C914 1.363 . S
C912 H928 0.931 . S
C913 C912 1.370 . S
C913 C917 1.408 . S
C914 C912 1.363 . S
C914 C915 1.370 . S
C914 C918 1.524 1_556 S
C915 C907 1.503 1_556 S
C915 C914 1.370 . S
C915 C916 1.403 . S
C916 C915 1.403 . S
C916 C917 1.404 . S
C916 C919 1.539 . S
C917 C913 1.408 . S
C917 C916 1.404 . S
C917 H929 0.930 . S
C918 C914 1.524 1_554 S
C918 H930 0.956 1_554 S
C918 H931 0.961 . S
C918 H932 0.961 . S
C919 C916 1.539 . S
C919 H933 0.958 . S
C919 H934 0.961 . S
C919 H935 0.960 1_556 S
H920 C904 0.931 . S
H921 C909 0.929 . S
H922 C910 0.960 . S
H923 C910 0.962 . S
H924 C910 0.960 . S
H925 C911 0.961 . S
H926 C911 0.961 . S
H927 C911 0.961 . S
H928 C912 0.931 . S
H929 C917 0.930 . S
H930 C918 0.956 1_556 S
H931 C918 0.961 . S
H932 C918 0.961 . S
H933 C919 0.958 . S
H934 C919 0.961 . S
H935 C919 0.960 1_554 S
C936 C937 1.391 . S
C936 C938 1.394 . S
C936 H952 0.931 . S
C937 C936 1.391 . S
C937 C941 1.376 . S
C938 C936 1.394 . S
C938 C939 1.369 . S
C938 C942 1.531 . S
C939 C938 1.369 . S
C939 C940 1.410 . S
C939 C947 1.503 . S
C940 C939 1.410 . S
C940 C941 1.392 . S
C940 C943 1.511 . S
C941 C937 1.376 . S
C941 C940 1.392 . S
C941 H953 0.929 . S
C942 C938 1.531 . S
C942 H954 0.960 . S
C942 H955 0.962 . S
C942 H956 0.960 . S
C943 C940 1.511 . S
C943 H957 0.961 . S
C943 H958 0.961 . S
C943 H959 0.961 . S
C944 C945 1.370 . S
C944 C946 1.363 . S
C944 H960 0.931 . S
C945 C944 1.370 . S
C945 C949 1.408 . S
C946 C944 1.363 . S
C946 C947 1.370 . S
C946 C950 1.524 . S
C947 C939 1.503 . S
C947 C946 1.370 . S
C947 C948 1.403 . S
C948 C947 1.403 . S
C948 C949 1.404 . S
C948 C951 1.539 . S
C949 C945 1.408 . S
C949 C948 1.404 . S
C949 H961 0.930 . S
C950 C946 1.524 . S
C950 H962 0.956 . S
C950 H963 0.961 . S
C950 H964 0.961 . S
C951 C948 1.539 . S
C951 H965 0.958 . S
C951 H966 0.961 . S
C951 H967 0.960 . S
H952 C936 0.931 . S
H953 C941 0.929 . S
H954 C942 0.960 . S
H955 C942 0.962 . S
H956 C942 0.960 . S
H957 C943 0.961 . S
H958 C943 0.961 . S
H959 C943 0.961 . S
H960 C944 0.931 . S
H961 C949 0.930 . S
H962 C950 0.956 . S
H963 C950 0.961 . S
H964 C950 0.961 . S
H965 C951 0.958 . S
H966 C951 0.961 . S
H967 C951 0.960 . S
C968 C969 1.391 . S
C968 C970 1.394 . S
C968 H984 0.931 . S
C969 C968 1.391 . S
C969 C973 1.376 . S
C970 C968 1.394 . S
C970 C971 1.369 . S
C970 C974 1.531 . S
C971 C970 1.369 . S
C971 C972 1.410 . S
C971 C979 1.503 . S
C972 C971 1.410 . S
C972 C973 1.392 . S
C972 C975 1.511 . S
C973 C969 1.376 . S
C973 C972 1.392 . S
C973 H985 0.929 . S
C974 C970 1.531 . S
C974 H986 0.960 . S
C974 H987 0.962 . S
C974 H988 0.960 . S
C975 C972 1.511 . S
C975 H989 0.961 . S
C975 H990 0.961 . S
C975 H991 0.961 . S
C976 C977 1.370 . S
C976 C978 1.363 . S
C976 H992 0.931 . S
C977 C976 1.370 . S
C977 C981 1.408 . S
C978 C976 1.363 . S
C978 C979 1.370 . S
C978 C982 1.524 . S
C979 C971 1.503 . S
C979 C978 1.370 . S
C979 C980 1.403 . S
C980 C979 1.403 . S
C980 C981 1.404 . S
C980 C983 1.539 . S
C981 C977 1.408 . S
C981 C980 1.404 . S
C981 H993 0.930 . S
C982 C978 1.524 . S
C982 H994 0.956 . S
C982 H995 0.961 . S
C982 H996 0.961 . S
C983 C980 1.539 . S
C983 H997 0.958 . S
C983 H998 0.961 . S
C983 H999 0.960 . S
H984 C968 0.931 . S
H985 C973 0.929 . S
H986 C974 0.960 . S
H987 C974 0.962 . S
H988 C974 0.960 . S
H989 C975 0.961 . S
H990 C975 0.961 . S
H991 C975 0.961 . S
H992 C976 0.931 . S
H993 C981 0.930 . S
H994 C982 0.956 . S
H995 C982 0.961 . S
H996 C982 0.961 . S
H997 C983 0.958 . S
H998 C983 0.961 . S
H999 C983 0.960 . S
C1000 C1001 1.391 . S
C1000 C1002 1.394 . S
C1000 H1016 0.931 . S
C1001 C1000 1.391 . S
C1001 C1005 1.376 . S
C1002 C1000 1.394 . S
C1002 C1003 1.369 . S
C1002 C1006 1.531 . S
C1003 C1002 1.369 . S
C1003 C1004 1.410 . S
C1003 C1011 1.503 . S
C1004 C1003 1.410 . S
C1004 C1005 1.392 . S
C1004 C1007 1.511 . S
C1005 C1001 1.376 . S
C1005 C1004 1.392 . S
C1005 H1017 0.929 . S
C1006 C1002 1.531 . S
C1006 H1018 0.960 . S
C1006 H1019 0.962 . S
C1006 H1020 0.960 . S
C1007 C1004 1.511 . S
C1007 H1021 0.961 . S
C1007 H1022 0.961 . S
C1007 H1023 0.961 . S
C1008 C1009 1.370 . S
C1008 C1010 1.363 . S
C1008 H1024 0.931 . S
C1009 C1008 1.370 . S
C1009 C1013 1.408 . S
C1010 C1008 1.363 . S
C1010 C1011 1.370 . S
C1010 C1014 1.524 . S
C1011 C1003 1.503 . S
C1011 C1010 1.370 . S
C1011 C1012 1.403 . S
C1012 C1011 1.403 . S
C1012 C1013 1.404 . S
C1012 C1015 1.539 . S
C1013 C1009 1.408 . S
C1013 C1012 1.404 . S
C1013 H1025 0.930 . S
C1014 C1010 1.524 . S
C1014 H1026 0.956 . S
C1014 H1027 0.961 . S
C1014 H1028 0.961 . S
C1015 C1012 1.539 . S
C1015 H1029 0.958 . S
C1015 H1030 0.961 . S
C1015 H1031 0.960 . S
H1016 C1000 0.931 . S
H1017 C1005 0.929 . S
H1018 C1006 0.960 . S
H1019 C1006 0.962 . S
H1020 C1006 0.960 . S
H1021 C1007 0.961 . S
H1022 C1007 0.961 . S
H1023 C1007 0.961 . S
H1024 C1008 0.931 . S
H1025 C1013 0.930 . S
H1026 C1014 0.956 . S
H1027 C1014 0.961 . S
H1028 C1014 0.961 . S
H1029 C1015 0.958 . S
H1030 C1015 0.961 . S
H1031 C1015 0.960 . S
C1032 C1033 1.391 . S
C1032 C1034 1.394 . S
C1032 H1048 0.931 . S
C1033 C1032 1.391 . S
C1033 C1037 1.376 . S
C1034 C1032 1.394 . S
C1034 C1035 1.369 . S
C1034 C1038 1.531 . S
C1035 C1034 1.369 . S
C1035 C1036 1.410 . S
C1035 C1043 1.503 . S
C1036 C1035 1.410 . S
C1036 C1037 1.392 . S
C1036 C1039 1.511 . S
C1037 C1033 1.376 . S
C1037 C1036 1.392 . S
C1037 H1049 0.929 . S
C1038 C1034 1.531 . S
C1038 H1050 0.960 . S
C1038 H1051 0.962 . S
C1038 H1052 0.960 . S
C1039 C1036 1.511 . S
C1039 H1053 0.961 . S
C1039 H1054 0.961 . S
C1039 H1055 0.961 . S
C1040 C1041 1.370 . S
C1040 C1042 1.363 . S
C1040 H1056 0.931 . S
C1041 C1040 1.370 . S
C1041 C1045 1.408 . S
C1042 C1040 1.363 . S
C1042 C1043 1.370 . S
C1042 C1046 1.524 . S
C1043 C1035 1.503 . S
C1043 C1042 1.370 . S
C1043 C1044 1.403 . S
C1044 C1043 1.403 . S
C1044 C1045 1.404 . S
C1044 C1047 1.539 . S
C1045 C1041 1.408 . S
C1045 C1044 1.404 . S
C1045 H1057 0.930 . S
C1046 C1042 1.524 . S
C1046 H1058 0.956 . S
C1046 H1059 0.961 . S
C1046 H1060 0.961 . S
C1047 C1044 1.539 . S
C1047 H1061 0.958 . S
C1047 H1062 0.961 . S
C1047 H1063 0.960 . S
H1048 C1032 0.931 . S
H1049 C1037 0.929 . S
H1050 C1038 0.960 . S
H1051 C1038 0.962 . S
H1052 C1038 0.960 . S
H1053 C1039 0.961 . S
H1054 C1039 0.961 . S
H1055 C1039 0.961 . S
H1056 C1040 0.931 . S
H1057 C1045 0.930 . S
H1058 C1046 0.956 . S
H1059 C1046 0.961 . S
H1060 C1046 0.961 . S
H1061 C1047 0.958 . S
H1062 C1047 0.961 . S
H1063 C1047 0.960 . S
C1064 C1065 1.391 . S
C1064 C1066 1.394 . S
C1064 H1080 0.931 . S
C1065 C1064 1.391 . S
C1065 C1069 1.376 . S
C1066 C1064 1.394 . S
C1066 C1067 1.369 . S
C1066 C1070 1.531 . S
C1067 C1066 1.369 . S
C1067 C1068 1.410 . S
C1067 C1075 1.503 . S
C1068 C1067 1.410 . S
C1068 C1069 1.392 . S
C1068 C1071 1.511 . S
C1069 C1065 1.376 . S
C1069 C1068 1.392 . S
C1069 H1081 0.929 . S
C1070 C1066 1.531 . S
C1070 H1082 0.960 . S
C1070 H1083 0.962 . S
C1070 H1084 0.960 . S
C1071 C1068 1.511 . S
C1071 H1085 0.961 . S
C1071 H1086 0.961 . S
C1071 H1087 0.961 . S
C1072 C1073 1.370 . S
C1072 C1074 1.363 . S
C1072 H1088 0.931 . S
C1073 C1072 1.370 . S
C1073 C1077 1.408 . S
C1074 C1072 1.363 . S
C1074 C1075 1.370 . S
C1074 C1078 1.524 . S
C1075 C1067 1.503 . S
C1075 C1074 1.370 . S
C1075 C1076 1.403 . S
C1076 C1075 1.403 . S
C1076 C1077 1.404 . S
C1076 C1079 1.539 . S
C1077 C1073 1.408 . S
C1077 C1076 1.404 . S
C1077 H1089 0.930 . S
C1078 C1074 1.524 . S
C1078 H1090 0.956 . S
C1078 H1091 0.961 . S
C1078 H1092 0.961 . S
C1079 C1076 1.539 . S
C1079 H1093 0.958 . S
C1079 H1094 0.961 . S
C1079 H1095 0.960 . S
H1080 C1064 0.931 . S
H1081 C1069 0.929 . S
H1082 C1070 0.960 . S
H1083 C1070 0.962 . S
H1084 C1070 0.960 . S
H1085 C1071 0.961 . S
H1086 C1071 0.961 . S
H1087 C1071 0.961 . S
H1088 C1072 0.931 . S
H1089 C1077 0.930 . S
H1090 C1078 0.956 . S
H1091 C1078 0.961 . S
H1092 C1078 0.961 . S
H1093 C1079 0.958 . S
H1094 C1079 0.961 . S
H1095 C1079 0.960 . S
C1096 C1097 1.391 . S
C1096 C1098 1.394 . S
C1096 H1112 0.931 . S
C1097 C1096 1.391 . S
C1097 C1101 1.376 . S
C1098 C1096 1.394 . S
C1098 C1099 1.369 . S
C1098 C1102 1.531 . S
C1099 C1098 1.369 . S
C1099 C1100 1.410 . S
C1099 C1107 1.503 . S
C1100 C1099 1.410 . S
C1100 C1101 1.392 . S
C1100 C1103 1.511 . S
C1101 C1097 1.376 . S
C1101 C1100 1.392 . S
C1101 H1113 0.929 . S
C1102 C1098 1.531 . S
C1102 H1114 0.960 . S
C1102 H1115 0.962 . S
C1102 H1116 0.960 . S
C1103 C1100 1.511 . S
C1103 H1117 0.961 . S
C1103 H1118 0.961 . S
C1103 H1119 0.961 . S
C1104 C1105 1.370 . S
C1104 C1106 1.363 . S
C1104 H1120 0.931 . S
C1105 C1104 1.370 . S
C1105 C1109 1.408 . S
C1106 C1104 1.363 . S
C1106 C1107 1.370 . S
C1106 C1110 1.524 . S
C1107 C1099 1.503 . S
C1107 C1106 1.370 . S
C1107 C1108 1.403 . S
C1108 C1107 1.403 . S
C1108 C1109 1.404 . S
C1108 C1111 1.539 . S
C1109 C1105 1.408 . S
C1109 C1108 1.404 . S
C1109 H1121 0.930 . S
C1110 C1106 1.524 . S
C1110 H1122 0.956 . S
C1110 H1123 0.961 . S
C1110 H1124 0.961 . S
C1111 C1108 1.539 . S
C1111 H1125 0.958 . S
C1111 H1126 0.961 . S
C1111 H1127 0.960 . S
H1112 C1096 0.931 . S
H1113 C1101 0.929 . S
H1114 C1102 0.960 . S
H1115 C1102 0.962 . S
H1116 C1102 0.960 . S
H1117 C1103 0.961 . S
H1118 C1103 0.961 . S
H1119 C1103 0.961 . S
H1120 C1104 0.931 . S
H1121 C1109 0.930 . S
H1122 C1110 0.956 . S
H1123 C1110 0.961 . S
H1124 C1110 0.961 . S
H1125 C1111 0.958 . S
H1126 C1111 0.961 . S
H1127 C1111 0.960 . S
C1128 C1129 1.391 . S
C1128 C1130 1.394 . S
C1128 H1144 0.931 . S
C1129 C1128 1.391 . S
C1129 C1133 1.376 . S
C1130 C1128 1.394 . S
C1130 C1131 1.369 . S
C1130 C1134 1.531 . S
C1131 C1130 1.369 . S
C1131 C1132 1.410 . S
C1131 C1139 1.503 . S
C1132 C1131 1.410 . S
C1132 C1133 1.392 . S
C1132 C1135 1.511 . S
C1133 C1129 1.376 . S
C1133 C1132 1.392 . S
C1133 H1145 0.929 . S
C1134 C1130 1.531 . S
C1134 H1146 0.960 . S
C1134 H1147 0.962 . S
C1134 H1148 0.960 . S
C1135 C1132 1.511 . S
C1135 H1149 0.961 . S
C1135 H1150 0.961 . S
C1135 H1151 0.961 . S
C1136 C1137 1.370 . S
C1136 C1138 1.363 . S
C1136 H1152 0.931 . S
C1137 C1136 1.370 . S
C1137 C1141 1.408 . S
C1138 C1136 1.363 . S
C1138 C1139 1.370 . S
C1138 C1142 1.524 . S
C1139 C1131 1.503 . S
C1139 C1138 1.370 . S
C1139 C1140 1.403 . S
C1140 C1139 1.403 . S
C1140 C1141 1.404 . S
C1140 C1143 1.539 . S
C1141 C1137 1.408 . S
C1141 C1140 1.404 . S
C1141 H1153 0.930 . S
C1142 C1138 1.524 . S
C1142 H1154 0.956 . S
C1142 H1155 0.961 . S
C1142 H1156 0.961 . S
C1143 C1140 1.539 . S
C1143 H1157 0.958 . S
C1143 H1158 0.961 . S
C1143 H1159 0.960 . S
H1144 C1128 0.931 . S
H1145 C1133 0.929 . S
H1146 C1134 0.960 . S
H1147 C1134 0.962 . S
H1148 C1134 0.960 . S
H1149 C1135 0.961 . S
H1150 C1135 0.961 . S
H1151 C1135 0.961 . S
H1152 C1136 0.931 . S
H1153 C1141 0.930 . S
H1154 C1142 0.956 . S
H1155 C1142 0.961 . S
H1156 C1142 0.961 . S
H1157 C1143 0.958 . S
H1158 C1143 0.961 . S
H1159 C1143 0.960 . S
C1160 C1161 1.391 . S
C1160 C1162 1.394 . S
C1160 H1176 0.931 . S
C1161 C1160 1.391 . S
C1161 C1165 1.376 . S
C1162 C1160 1.394 . S
C1162 C1163 1.369 . S
C1162 C1166 1.531 . S
C1163 C1162 1.369 . S
C1163 C1164 1.410 . S
C1163 C1171 1.503 . S
C1164 C1163 1.410 . S
C1164 C1165 1.392 . S
C1164 C1167 1.511 . S
C1165 C1161 1.376 . S
C1165 C1164 1.392 . S
C1165 H1177 0.929 . S
C1166 C1162 1.531 . S
C1166 H1178 0.960 . S
C1166 H1179 0.962 . S
C1166 H1180 0.960 . S
C1167 C1164 1.511 . S
C1167 H1181 0.961 . S
C1167 H1182 0.961 . S
C1167 H1183 0.961 . S
C1168 C1169 1.370 . S
C1168 C1170 1.363 . S
C1168 H1184 0.931 . S
C1169 C1168 1.370 . S
C1169 C1173 1.408 . S
C1170 C1168 1.363 . S
C1170 C1171 1.370 . S
C1170 C1174 1.524 . S
C1171 C1163 1.503 . S
C1171 C1170 1.370 . S
C1171 C1172 1.403 . S
C1172 C1171 1.403 . S
C1172 C1173 1.404 . S
C1172 C1175 1.539 . S
C1173 C1169 1.408 . S
C1173 C1172 1.404 . S
C1173 H1185 0.930 . S
C1174 C1170 1.524 . S
C1174 H1186 0.956 . S
C1174 H1187 0.961 . S
C1174 H1188 0.961 . S
C1175 C1172 1.539 . S
C1175 H1189 0.958 . S
C1175 H1190 0.961 . S
C1175 H1191 0.960 . S
H1176 C1160 0.931 . S
H1177 C1165 0.929 . S
H1178 C1166 0.960 . S
H1179 C1166 0.962 . S
H1180 C1166 0.960 . S
H1181 C1167 0.961 . S
H1182 C1167 0.961 . S
H1183 C1167 0.961 . S
H1184 C1168 0.931 . S
H1185 C1173 0.930 . S
H1186 C1174 0.956 . S
H1187 C1174 0.961 . S
H1188 C1174 0.961 . S
H1189 C1175 0.958 . S
H1190 C1175 0.961 . S
H1191 C1175 0.960 . S
C1192 C1193 1.391 . S
C1192 C1194 1.394 . S
C1192 H1208 0.931 . S
C1193 C1192 1.391 . S
C1193 C1197 1.376 . S
C1194 C1192 1.394 . S
C1194 C1195 1.369 . S
C1194 C1198 1.531 . S
C1195 C1194 1.369 . S
C1195 C1196 1.410 . S
C1195 C1203 1.503 . S
C1196 C1195 1.410 . S
C1196 C1197 1.392 . S
C1196 C1199 1.511 . S
C1197 C1193 1.376 . S
C1197 C1196 1.392 . S
C1197 H1209 0.929 . S
C1198 C1194 1.531 . S
C1198 H1210 0.960 . S
C1198 H1211 0.962 . S
C1198 H1212 0.960 . S
C1199 C1196 1.511 . S
C1199 H1213 0.961 . S
C1199 H1214 0.961 . S
C1199 H1215 0.961 . S
C1200 C1201 1.370 . S
C1200 C1202 1.363 . S
C1200 H1216 0.931 . S
C1201 C1200 1.370 . S
C1201 C1205 1.408 . S
C1202 C1200 1.363 . S
C1202 C1203 1.370 . S
C1202 C1206 1.524 . S
C1203 C1195 1.503 . S
C1203 C1202 1.370 . S
C1203 C1204 1.403 . S
C1204 C1203 1.403 . S
C1204 C1205 1.404 . S
C1204 C1207 1.539 . S
C1205 C1201 1.408 . S
C1205 C1204 1.404 . S
C1205 H1217 0.930 . S
C1206 C1202 1.524 . S
C1206 H1218 0.956 . S
C1206 H1219 0.961 . S
C1206 H1220 0.961 . S
C1207 C1204 1.539 . S
C1207 H1221 0.958 . S
C1207 H1222 0.961 . S
C1207 H1223 0.960 . S
H1208 C1192 0.931 . S
H1209 C1197 0.929 . S
H1210 C1198 0.960 . S
H1211 C1198 0.962 . S
H1212 C1198 0.960 . S
H1213 C1199 0.961 . S
H1214 C1199 0.961 . S
H1215 C1199 0.961 . S
H1216 C1200 0.931 . S
H1217 C1205 0.930 . S
H1218 C1206 0.956 . S
H1219 C1206 0.961 . S
H1220 C1206 0.961 . S
H1221 C1207 0.958 . S
H1222 C1207 0.961 . S
H1223 C1207 0.960 . S
C1224 C1225 1.391 . S
C1224 C1226 1.394 . S
C1224 H1240 0.931 . S
C1225 C1224 1.391 . S
C1225 C1229 1.376 . S
C1226 C1224 1.394 . S
C1226 C1227 1.369 . S
C1226 C1230 1.531 . S
C1227 C1226 1.369 . S
C1227 C1228 1.410 . S
C1227 C1235 1.503 . S
C1228 C1227 1.410 . S
C1228 C1229 1.392 . S
C1228 C1231 1.511 . S
C1229 C1225 1.376 . S
C1229 C1228 1.392 . S
C1229 H1241 0.929 . S
C1230 C1226 1.531 . S
C1230 H1242 0.960 . S
C1230 H1243 0.962 . S
C1230 H1244 0.960 . S
C1231 C1228 1.511 . S
C1231 H1245 0.961 . S
C1231 H1246 0.961 . S
C1231 H1247 0.961 . S
C1232 C1233 1.370 . S
C1232 C1234 1.363 . S
C1232 H1248 0.931 . S
C1233 C1232 1.370 . S
C1233 C1237 1.408 . S
C1234 C1232 1.363 . S
C1234 C1235 1.370 . S
C1234 C1238 1.524 . S
C1235 C1227 1.503 . S
C1235 C1234 1.370 . S
C1235 C1236 1.403 . S
C1236 C1235 1.403 . S
C1236 C1237 1.404 . S
C1236 C1239 1.539 . S
C1237 C1233 1.408 . S
C1237 C1236 1.404 . S
C1237 H1249 0.930 . S
C1238 C1234 1.524 . S
C1238 H1250 0.956 . S
C1238 H1251 0.961 . S
C1238 H1252 0.961 . S
C1239 C1236 1.539 . S
C1239 H1253 0.958 . S
C1239 H1254 0.961 . S
C1239 H1255 0.960 . S
H1240 C1224 0.931 . S
H1241 C1229 0.929 . S
H1242 C1230 0.960 . S
H1243 C1230 0.962 . S
H1244 C1230 0.960 . S
H1245 C1231 0.961 . S
H1246 C1231 0.961 . S
H1247 C1231 0.961 . S
H1248 C1232 0.931 . S
H1249 C1237 0.930 . S
H1250 C1238 0.956 . S
H1251 C1238 0.961 . S
H1252 C1238 0.961 . S
H1253 C1239 0.958 . S
H1254 C1239 0.961 . S
H1255 C1239 0.960 . S
C1256 C1257 1.391 . S
C1256 C1258 1.394 . S
C1256 H1272 0.931 . S
C1257 C1256 1.391 . S
C1257 C1261 1.376 . S
C1258 C1256 1.394 . S
C1258 C1259 1.369 . S
C1258 C1262 1.531 . S
C1259 C1258 1.369 . S
C1259 C1260 1.410 . S
C1259 C1267 1.503 . S
C1260 C1259 1.410 . S
C1260 C1261 1.392 . S
C1260 C1263 1.511 . S
C1261 C1257 1.376 . S
C1261 C1260 1.392 . S
C1261 H1273 0.929 . S
C1262 C1258 1.531 . S
C1262 H1274 0.960 . S
C1262 H1275 0.962 . S
C1262 H1276 0.960 . S
C1263 C1260 1.511 . S
C1263 H1277 0.961 . S
C1263 H1278 0.961 . S
C1263 H1279 0.961 . S
C1264 C1265 1.370 . S
C1264 C1266 1.363 . S
C1264 H1280 0.931 . S
C1265 C1264 1.370 . S
C1265 C1269 1.408 . S
C1266 C1264 1.363 . S
C1266 C1267 1.370 . S
C1266 C1270 1.524 . S
C1267 C1259 1.503 . S
C1267 C1266 1.370 . S
C1267 C1268 1.403 . S
C1268 C1267 1.403 . S
C1268 C1269 1.404 . S
C1268 C1271 1.539 . S
C1269 C1265 1.408 . S
C1269 C1268 1.404 . S
C1269 H1281 0.930 . S
C1270 C1266 1.524 . S
C1270 H1282 0.956 . S
C1270 H1283 0.961 . S
C1270 H1284 0.961 . S
C1271 C1268 1.539 . S
C1271 H1285 0.958 . S
C1271 H1286 0.961 . S
C1271 H1287 0.960 . S
H1272 C1256 0.931 . S
H1273 C1261 0.929 . S
H1274 C1262 0.960 . S
H1275 C1262 0.962 . S
H1276 C1262 0.960 . S
H1277 C1263 0.961 . S
H1278 C1263 0.961 . S
H1279 C1263 0.961 . S
H1280 C1264 0.931 . S
H1281 C1269 0.930 . S
H1282 C1270 0.956 . S
H1283 C1270 0.961 . S
H1284 C1270 0.961 . S
H1285 C1271 0.958 . S
H1286 C1271 0.961 . S
H1287 C1271 0.960 . S
C1288 C1289 1.391 . S
C1288 C1290 1.394 . S
C1288 H1304 0.931 . S
C1289 C1288 1.391 . S
C1289 C1293 1.376 . S
C1290 C1288 1.394 . S
C1290 C1291 1.369 . S
C1290 C1294 1.531 . S
C1291 C1290 1.369 . S
C1291 C1292 1.410 . S
C1291 C1299 1.503 . S
C1292 C1291 1.410 . S
C1292 C1293 1.392 . S
C1292 C1295 1.511 . S
C1293 C1289 1.376 . S
C1293 C1292 1.392 . S
C1293 H1305 0.929 . S
C1294 C1290 1.531 . S
C1294 H1306 0.960 . S
C1294 H1307 0.962 . S
C1294 H1308 0.960 . S
C1295 C1292 1.511 . S
C1295 H1309 0.961 . S
C1295 H1310 0.961 . S
C1295 H1311 0.961 . S
C1296 C1297 1.370 . S
C1296 C1298 1.363 . S
C1296 H1312 0.931 . S
C1297 C1296 1.370 . S
C1297 C1301 1.408 . S
C1298 C1296 1.363 . S
C1298 C1299 1.370 . S
C1298 C1302 1.524 . S
C1299 C1291 1.503 . S
C1299 C1298 1.370 . S
C1299 C1300 1.403 . S
C1300 C1299 1.403 . S
C1300 C1301 1.404 . S
C1300 C1303 1.539 . S
C1301 C1297 1.408 . S
C1301 C1300 1.404 . S
C1301 H1313 0.930 . S
C1302 C1298 1.524 . S
C1302 H1314 0.956 . S
C1302 H1315 0.961 . S
C1302 H1316 0.961 . S
C1303 C1300 1.539 . S
C1303 H1317 0.958 . S
C1303 H1318 0.961 . S
C1303 H1319 0.960 . S
H1304 C1288 0.931 . S
H1305 C1293 0.929 . S
H1306 C1294 0.960 . S
H1307 C1294 0.962 . S
H1308 C1294 0.960 . S
H1309 C1295 0.961 . S
H1310 C1295 0.961 . S
H1311 C1295 0.961 . S
H1312 C1296 0.931 . S
H1313 C1301 0.930 . S
H1314 C1302 0.956 . S
H1315 C1302 0.961 . S
H1316 C1302 0.961 . S
H1317 C1303 0.958 . S
H1318 C1303 0.961 . S
H1319 C1303 0.960 . S
C1320 C1321 1.391 . S
C1320 C1322 1.394 . S
C1320 H1336 0.931 . S
C1321 C1320 1.391 . S
C1321 C1325 1.376 . S
C1322 C1320 1.394 . S
C1322 C1323 1.369 . S
C1322 C1326 1.531 . S
C1323 C1322 1.369 . S
C1323 C1324 1.410 . S
C1323 C1331 1.503 . S
C1324 C1323 1.410 . S
C1324 C1325 1.392 . S
C1324 C1327 1.511 . S
C1325 C1321 1.376 . S
C1325 C1324 1.392 . S
C1325 H1337 0.929 . S
C1326 C1322 1.531 . S
C1326 H1338 0.960 . S
C1326 H1339 0.962 . S
C1326 H1340 0.960 . S
C1327 C1324 1.511 . S
C1327 H1341 0.961 . S
C1327 H1342 0.961 . S
C1327 H1343 0.961 . S
C1328 C1329 1.370 . S
C1328 C1330 1.363 . S
C1328 H1344 0.931 . S
C1329 C1328 1.370 . S
C1329 C1333 1.408 . S
C1330 C1328 1.363 . S
C1330 C1331 1.370 . S
C1330 C1334 1.524 . S
C1331 C1323 1.503 . S
C1331 C1330 1.370 . S
C1331 C1332 1.403 . S
C1332 C1331 1.403 . S
C1332 C1333 1.404 . S
C1332 C1335 1.539 . S
C1333 C1329 1.408 . S
C1333 C1332 1.404 . S
C1333 H1345 0.930 . S
C1334 C1330 1.524 . S
C1334 H1346 0.956 . S
C1334 H1347 0.961 . S
C1334 H1348 0.961 1_554 S
C1335 C1332 1.539 . S
C1335 H1349 0.958 . S
C1335 H1350 0.961 . S
C1335 H1351 0.960 . S
H1336 C1320 0.931 . S
H1337 C1325 0.929 . S
H1338 C1326 0.960 . S
H1339 C1326 0.962 . S
H1340 C1326 0.960 . S
H1341 C1327 0.961 . S
H1342 C1327 0.961 . S
H1343 C1327 0.961 . S
H1344 C1328 0.931 . S
H1345 C1333 0.930 . S
H1346 C1334 0.956 . S
H1347 C1334 0.961 . S
H1348 C1334 0.961 1_556 S
H1349 C1335 0.958 . S
H1350 C1335 0.961 . S
H1351 C1335 0.960 . S
C1352 C1353 1.391 . S
C1352 C1354 1.394 . S
C1352 H1368 0.931 . S
C1353 C1352 1.391 . S
C1353 C1357 1.376 . S
C1354 C1352 1.394 . S
C1354 C1355 1.369 . S
C1354 C1358 1.531 . S
C1355 C1354 1.369 . S
C1355 C1356 1.410 . S
C1355 C1363 1.503 . S
C1356 C1355 1.410 . S
C1356 C1357 1.392 . S
C1356 C1359 1.511 1_554 S
C1357 C1353 1.376 . S
C1357 C1356 1.392 . S
C1357 H1369 0.929 . S
C1358 C1354 1.531 . S
C1358 H1370 0.960 . S
C1358 H1371 0.962 . S
C1358 H1372 0.960 . S
C1359 C1356 1.511 1_556 S
C1359 H1373 0.961 . S
C1359 H1374 0.961 . S
C1359 H1375 0.961 . S
C1360 C1361 1.370 . S
C1360 C1362 1.363 . S
C1360 H1376 0.931 . S
C1361 C1360 1.370 . S
C1361 C1365 1.408 . S
C1362 C1360 1.363 . S
C1362 C1363 1.370 . S
C1362 C1366 1.524 . S
C1363 C1355 1.503 . S
C1363 C1362 1.370 . S
C1363 C1364 1.403 . S
C1364 C1363 1.403 . S
C1364 C1365 1.404 . S
C1364 C1367 1.539 . S
C1365 C1361 1.408 . S
C1365 C1364 1.404 . S
C1365 H1377 0.930 . S
C1366 C1362 1.524 . S
C1366 H1378 0.956 . S
C1366 H1379 0.961 . S
C1366 H1380 0.961 . S
C1367 C1364 1.539 . S
C1367 H1381 0.958 . S
C1367 H1382 0.961 . S
C1367 H1383 0.960 . S
H1368 C1352 0.931 . S
H1369 C1357 0.929 . S
H1370 C1358 0.960 . S
H1371 C1358 0.962 . S
H1372 C1358 0.960 . S
H1373 C1359 0.961 . S
H1374 C1359 0.961 . S
H1375 C1359 0.961 . S
H1376 C1360 0.931 . S
H1377 C1365 0.930 . S
H1378 C1366 0.956 . S
H1379 C1366 0.961 . S
H1380 C1366 0.961 . S
H1381 C1367 0.958 . S
H1382 C1367 0.961 . S
H1383 C1367 0.960 . S
C1384 C1385 1.391 . S
C1384 C1386 1.394 . S
C1384 H1400 0.931 . S
C1385 C1384 1.391 . S
C1385 C1389 1.376 . S
C1386 C1384 1.394 . S
C1386 C1387 1.369 . S
C1386 C1390 1.531 . S
C1387 C1386 1.369 . S
C1387 C1388 1.410 . S
C1387 C1395 1.503 . S
C1388 C1387 1.410 . S
C1388 C1389 1.392 . S
C1388 C1391 1.511 . S
C1389 C1385 1.376 . S
C1389 C1388 1.392 . S
C1389 H1401 0.929 . S
C1390 C1386 1.531 . S
C1390 H1402 0.960 . S
C1390 H1403 0.962 . S
C1390 H1404 0.960 . S
C1391 C1388 1.511 . S
C1391 H1405 0.961 . S
C1391 H1406 0.961 . S
C1391 H1407 0.961 . S
C1392 C1393 1.370 . S
C1392 C1394 1.363 . S
C1392 H1408 0.931 . S
C1393 C1392 1.370 . S
C1393 C1397 1.408 . S
C1394 C1392 1.363 . S
C1394 C1395 1.370 . S
C1394 C1398 1.524 . S
C1395 C1387 1.503 . S
C1395 C1394 1.370 . S
C1395 C1396 1.403 . S
C1396 C1395 1.403 . S
C1396 C1397 1.404 . S
C1396 C1399 1.539 . S
C1397 C1393 1.408 . S
C1397 C1396 1.404 . S
C1397 H1409 0.930 . S
C1398 C1394 1.524 . S
C1398 H1410 0.956 . S
C1398 H1411 0.961 . S
C1398 H1412 0.961 . S
C1399 C1396 1.539 . S
C1399 H1413 0.958 1_554 S
C1399 H1414 0.961 . S
C1399 H1415 0.960 . S
H1400 C1384 0.931 . S
H1401 C1389 0.929 . S
H1402 C1390 0.960 . S
H1403 C1390 0.962 . S
H1404 C1390 0.960 . S
H1405 C1391 0.961 . S
H1406 C1391 0.961 . S
H1407 C1391 0.961 . S
H1408 C1392 0.931 . S
H1409 C1397 0.930 . S
H1410 C1398 0.956 . S
H1411 C1398 0.961 . S
H1412 C1398 0.961 . S
H1413 C1399 0.958 1_556 S
H1414 C1399 0.961 . S
H1415 C1399 0.960 . S
C1416 C1417 1.391 . S
C1416 C1418 1.394 . S
C1416 H1432 0.931 . S
C1417 C1416 1.391 . S
C1417 C1421 1.376 . S
C1418 C1416 1.394 . S
C1418 C1419 1.369 . S
C1418 C1422 1.531 . S
C1419 C1418 1.369 . S
C1419 C1420 1.410 . S
C1419 C1427 1.503 . S
C1420 C1419 1.410 . S
C1420 C1421 1.392 . S
C1420 C1423 1.511 . S
C1421 C1417 1.376 . S
C1421 C1420 1.392 . S
C1421 H1433 0.929 . S
C1422 C1418 1.531 . S
C1422 H1434 0.960 . S
C1422 H1435 0.962 . S
C1422 H1436 0.960 . S
C1423 C1420 1.511 . S
C1423 H1437 0.961 . S
C1423 H1438 0.961 . S
C1423 H1439 0.961 . S
C1424 C1425 1.370 . S
C1424 C1426 1.363 . S
C1424 H1440 0.931 . S
C1425 C1424 1.370 . S
C1425 C1429 1.408 . S
C1426 C1424 1.363 . S
C1426 C1427 1.370 . S
C1426 C1430 1.524 . S
C1427 C1419 1.503 . S
C1427 C1426 1.370 . S
C1427 C1428 1.403 . S
C1428 C1427 1.403 . S
C1428 C1429 1.404 . S
C1428 C1431 1.539 . S
C1429 C1425 1.408 . S
C1429 C1428 1.404 . S
C1429 H1441 0.930 . S
C1430 C1426 1.524 . S
C1430 H1442 0.956 . S
C1430 H1443 0.961 . S
C1430 H1444 0.961 . S
C1431 C1428 1.539 . S
C1431 H1445 0.958 . S
C1431 H1446 0.961 . S
C1431 H1447 0.960 . S
H1432 C1416 0.931 . S
H1433 C1421 0.929 . S
H1434 C1422 0.960 . S
H1435 C1422 0.962 . S
H1436 C1422 0.960 . S
H1437 C1423 0.961 . S
H1438 C1423 0.961 . S
H1439 C1423 0.961 . S
H1440 C1424 0.931 . S
H1441 C1429 0.930 . S
H1442 C1430 0.956 . S
H1443 C1430 0.961 . S
H1444 C1430 0.961 . S
H1445 C1431 0.958 . S
H1446 C1431 0.961 . S
H1447 C1431 0.960 . S
C1448 C1449 1.391 . S
C1448 C1450 1.394 . S
C1448 H1464 0.931 . S
C1449 C1448 1.391 . S
C1449 C1453 1.376 . S
C1450 C1448 1.394 . S
C1450 C1451 1.369 . S
C1450 C1454 1.531 . S
C1451 C1450 1.369 . S
C1451 C1452 1.410 . S
C1451 C1459 1.503 . S
C1452 C1451 1.410 . S
C1452 C1453 1.392 . S
C1452 C1455 1.511 . S
C1453 C1449 1.376 . S
C1453 C1452 1.392 . S
C1453 H1465 0.929 . S
C1454 C1450 1.531 . S
C1454 H1466 0.960 . S
C1454 H1467 0.962 . S
C1454 H1468 0.960 . S
C1455 C1452 1.511 . S
C1455 H1469 0.961 . S
C1455 H1470 0.961 . S
C1455 H1471 0.961 . S
C1456 C1457 1.370 . S
C1456 C1458 1.363 . S
C1456 H1472 0.931 . S
C1457 C1456 1.370 . S
C1457 C1461 1.408 . S
C1458 C1456 1.363 . S
C1458 C1459 1.370 . S
C1458 C1462 1.524 . S
C1459 C1451 1.503 . S
C1459 C1458 1.370 . S
C1459 C1460 1.403 . S
C1460 C1459 1.403 . S
C1460 C1461 1.404 . S
C1460 C1463 1.539 . S
C1461 C1457 1.408 . S
C1461 C1460 1.404 . S
C1461 H1473 0.930 . S
C1462 C1458 1.524 . S
C1462 H1474 0.956 . S
C1462 H1475 0.961 . S
C1462 H1476 0.961 . S
C1463 C1460 1.539 . S
C1463 H1477 0.958 . S
C1463 H1478 0.961 . S
C1463 H1479 0.960 . S
H1464 C1448 0.931 . S
H1465 C1453 0.929 . S
H1466 C1454 0.960 . S
H1467 C1454 0.962 . S
H1468 C1454 0.960 . S
H1469 C1455 0.961 . S
H1470 C1455 0.961 . S
H1471 C1455 0.961 . S
H1472 C1456 0.931 . S
H1473 C1461 0.930 . S
H1474 C1462 0.956 . S
H1475 C1462 0.961 . S
H1476 C1462 0.961 . S
H1477 C1463 0.958 . S
H1478 C1463 0.961 . S
H1479 C1463 0.960 . S
C1480 C1481 1.391 . S
C1480 C1482 1.394 . S
C1480 H1496 0.931 . S
C1481 C1480 1.391 . S
C1481 C1485 1.376 . S
C1482 C1480 1.394 . S
C1482 C1483 1.369 . S
C1482 C1486 1.531 . S
C1483 C1482 1.369 . S
C1483 C1484 1.410 . S
C1483 C1491 1.503 . S
C1484 C1483 1.410 . S
C1484 C1485 1.392 . S
C1484 C1487 1.511 . S
C1485 C1481 1.376 . S
C1485 C1484 1.392 . S
C1485 H1497 0.929 . S
C1486 C1482 1.531 . S
C1486 H1498 0.960 . S
C1486 H1499 0.962 . S
C1486 H1500 0.960 . S
C1487 C1484 1.511 . S
C1487 H1501 0.961 . S
C1487 H1502 0.961 . S
C1487 H1503 0.961 . S
C1488 C1489 1.370 . S
C1488 C1490 1.363 . S
C1488 H1504 0.931 . S
C1489 C1488 1.370 . S
C1489 C1493 1.408 . S
C1490 C1488 1.363 . S
C1490 C1491 1.370 . S
C1490 C1494 1.524 . S
C1491 C1483 1.503 . S
C1491 C1490 1.370 . S
C1491 C1492 1.403 . S
C1492 C1491 1.403 . S
C1492 C1493 1.404 . S
C1492 C1495 1.539 . S
C1493 C1489 1.408 . S
C1493 C1492 1.404 . S
C1493 H1505 0.930 . S
C1494 C1490 1.524 . S
C1494 H1506 0.956 . S
C1494 H1507 0.961 . S
C1494 H1508 0.961 . S
C1495 C1492 1.539 . S
C1495 H1509 0.958 . S
C1495 H1510 0.961 . S
C1495 H1511 0.960 . S
H1496 C1480 0.931 . S
H1497 C1485 0.929 . S
H1498 C1486 0.960 . S
H1499 C1486 0.962 . S
H1500 C1486 0.960 . S
H1501 C1487 0.961 . S
H1502 C1487 0.961 . S
H1503 C1487 0.961 . S
H1504 C1488 0.931 . S
H1505 C1493 0.930 . S
H1506 C1494 0.956 . S
H1507 C1494 0.961 . S
H1508 C1494 0.961 . S
H1509 C1495 0.958 . S
H1510 C1495 0.961 . S
H1511 C1495 0.960 . S
C1512 C1513 1.391 . S
C1512 C1514 1.394 . S
C1512 H1528 0.931 . S
C1513 C1512 1.391 . S
C1513 C1517 1.376 . S
C1514 C1512 1.394 . S
C1514 C1515 1.369 . S
C1514 C1518 1.531 1_455 S
C1515 C1514 1.369 . S
C1515 C1516 1.410 . S
C1515 C1523 1.503 1_554 S
C1516 C1515 1.410 . S
C1516 C1517 1.392 . S
C1516 C1519 1.511 . S
C1517 C1513 1.376 . S
C1517 C1516 1.392 . S
C1517 H1529 0.929 . S
C1518 C1514 1.531 1_655 S
C1518 H1530 0.960 . S
C1518 H1531 0.962 1_655 S
C1518 H1532 0.960 . S
C1519 C1516 1.511 . S
C1519 H1533 0.961 . S
C1519 H1534 0.961 . S
C1519 H1535 0.961 1_455 S
C1520 C1521 1.370 . S
C1520 C1522 1.363 . S
C1520 H1536 0.931 . S
C1521 C1520 1.370 . S
C1521 C1525 1.408 1_455 S
C1522 C1520 1.363 . S
C1522 C1523 1.370 . S
C1522 C1526 1.524 1_556 S
C1523 C1515 1.503 1_556 S
C1523 C1522 1.370 . S
C1523 C1524 1.403 1_455 S
C1524 C1523 1.403 1_655 S
C1524 C1525 1.404 . S
C1524 C1527 1.539 . S
C1525 C1521 1.408 1_655 S
C1525 C1524 1.404 . S
C1525 H1537 0.930 . S
C1526 C1522 1.524 1_554 S
C1526 H1538 0.956 . S
C1526 H1539 0.961 . S
C1526 H1540 0.961 1_554 S
C1527 C1524 1.539 . S
C1527 H1541 0.958 . S
C1527 H1542 0.961 . S
C1527 H1543 0.960 1_556 S
H1528 C1512 0.931 . S
H1529 C1517 0.929 . S
H1530 C1518 0.960 . S
H1531 C1518 0.962 1_455 S
H1532 C1518 0.960 . S
H1533 C1519 0.961 . S
H1534 C1519 0.961 . S
H1535 C1519 0.961 1_655 S
H1536 C1520 0.931 . S
H1537 C1525 0.930 . S
H1538 C1526 0.956 . S
H1539 C1526 0.961 . S
H1540 C1526 0.961 1_556 S
H1541 C1527 0.958 . S
H1542 C1527 0.961 . S
H1543 C1527 0.960 1_554 S
C1544 C1545 1.391 . S
C1544 C1546 1.394 . S
C1544 H1560 0.931 . S
C1545 C1544 1.391 . S
C1545 C1549 1.376 . S
C1546 C1544 1.394 . S
C1546 C1547 1.369 . S
C1546 C1550 1.531 . S
C1547 C1546 1.369 . S
C1547 C1548 1.410 . S
C1547 C1555 1.503 1_554 S
C1548 C1547 1.410 . S
C1548 C1549 1.392 . S
C1548 C1551 1.511 . S
C1549 C1545 1.376 . S
C1549 C1548 1.392 . S
C1549 H1561 0.929 . S
C1550 C1546 1.531 . S
C1550 H1562 0.960 1_554 S
C1550 H1563 0.962 . S
C1550 H1564 0.960 . S
C1551 C1548 1.511 . S
C1551 H1565 0.961 . S
C1551 H1566 0.961 1_554 S
C1551 H1567 0.961 . S
C1552 C1553 1.370 . S
C1552 C1554 1.363 . S
C1552 H1568 0.931 . S
C1553 C1552 1.370 . S
C1553 C1557 1.408 . S
C1554 C1552 1.363 . S
C1554 C1555 1.370 . S
C1554 C1558 1.524 . S
C1555 C1547 1.503 1_556 S
C1555 C1554 1.370 . S
C1555 C1556 1.403 . S
C1556 C1555 1.403 . S
C1556 C1557 1.404 . S
C1556 C1559 1.539 . S
C1557 C1553 1.408 . S
C1557 C1556 1.404 . S
C1557 H1569 0.930 . S
C1558 C1554 1.524 . S
C1558 H1570 0.956 . S
C1558 H1571 0.961 . S
C1558 H1572 0.961 . S
C1559 C1556 1.539 . S
C1559 H1573 0.958 . S
C1559 H1574 0.961 . S
C1559 H1575 0.960 . S
H1560 C1544 0.931 . S
H1561 C1549 0.929 . S
H1562 C1550 0.960 1_556 S
H1563 C1550 0.962 . S
H1564 C1550 0.960 . S
H1565 C1551 0.961 . S
H1566 C1551 0.961 1_556 S
H1567 C1551 0.961 . S
H1568 C1552 0.931 . S
H1569 C1557 0.930 . S
H1570 C1558 0.956 . S
H1571 C1558 0.961 . S
H1572 C1558 0.961 . S
H1573 C1559 0.958 . S
H1574 C1559 0.961 . S
H1575 C1559 0.960 . S
C1576 C1577 1.391 . S
C1576 C1578 1.394 . S
C1576 H1592 0.931 . S
C1577 C1576 1.391 . S
C1577 C1581 1.376 . S
C1578 C1576 1.394 . S
C1578 C1579 1.369 . S
C1578 C1582 1.531 . S
C1579 C1578 1.369 . S
C1579 C1580 1.410 . S
C1579 C1587 1.503 1_554 S
C1580 C1579 1.410 . S
C1580 C1581 1.392 . S
C1580 C1583 1.511 . S
C1581 C1577 1.376 . S
C1581 C1580 1.392 . S
C1581 H1593 0.929 . S
C1582 C1578 1.531 . S
C1582 H1594 0.960 1_554 S
C1582 H1595 0.962 1_545 S
C1582 H1596 0.960 . S
C1583 C1580 1.511 . S
C1583 H1597 0.961 . S
C1583 H1598 0.961 1_554 S
C1583 H1599 0.961 . S
C1584 C1585 1.370 . S
C1584 C1586 1.359 1_545 S
C1584 H1600 0.931 1_545 S
C1585 C1584 1.370 . S
C1585 C1589 1.408 . S
C1586 C1584 1.359 1_565 S
C1586 C1587 1.353 1_565 S
C1586 C1590 1.546 . S
C1587 C1579 1.503 1_556 S
C1587 C1586 1.353 1_545 S
C1587 C1588 1.403 . S
C1588 C1587 1.403 . S
C1588 C1589 1.404 . S
C1588 C1591 1.539 . S
C1589 C1585 1.408 . S
C1589 C1588 1.404 . S
C1589 H1601 0.930 . S
C1590 C1586 1.546 . S
C1590 H1602 0.956 . S
C1590 H1603 0.961 . S
C1590 H1604 0.961 . S
C1591 C1588 1.539 . S
C1591 H1605 0.958 . S
C1591 H1606 0.961 . S
C1591 H1607 0.960 1_556 S
H1592 C1576 0.931 . S
H1593 C1581 0.929 . S
H1594 C1582 0.960 1_556 S
H1595 C1582 0.962 1_565 S
H1596 C1582 0.960 . S
H1597 C1583 0.961 . S
H1598 C1583 0.961 1_556 S
H1599 C1583 0.961 . S
H1600 C1584 0.931 1_565 S
H1601 C1589 0.930 . S
H1602 C1590 0.956 . S
H1603 C1590 0.961 . S
H1604 C1590 0.961 . S
H1605 C1591 0.958 . S
H1606 C1591 0.961 . S
H1607 C1591 0.960 1_554 S
C1608 C1609 1.391 . S
C1608 C1610 1.394 . S
C1608 H1624 0.931 . S
C1609 C1608 1.391 . S
C1609 C1613 1.376 1_455 S
C1610 C1608 1.394 . S
C1610 C1611 1.369 1_556 S
C1610 C1614 1.531 1_556 S
C1611 C1610 1.369 1_554 S
C1611 C1612 1.410 1_454 S
C1611 C1619 1.503 . S
C1612 C1611 1.410 1_656 S
C1612 C1613 1.392 . S
C1612 C1615 1.511 1_556 S
C1613 C1609 1.376 1_655 S
C1613 C1612 1.392 . S
C1613 H1625 0.929 . S
C1614 C1610 1.531 1_554 S
C1614 H1626 0.960 . S
C1614 H1627 0.962 . S
C1614 H1628 0.960 1_554 S
C1615 C1612 1.511 1_554 S
C1615 H1629 0.961 1_554 S
C1615 H1630 0.961 . S
C1615 H1631 0.961 . S
C1616 C1617 1.370 . S
C1616 C1618 1.363 . S
C1616 H1632 0.931 . S
C1617 C1616 1.370 . S
C1617 C1621 1.408 1_455 S
C1618 C1616 1.363 . S
C1618 C1619 1.370 . S
C1618 C1622 1.524 . S
C1619 C1611 1.503 . S
C1619 C1618 1.370 . S
C1619 C1620 1.403 1_455 S
C1620 C1619 1.403 1_655 S
C1620 C1621 1.404 . S
C1620 C1623 1.539 . S
C1621 C1617 1.408 1_655 S
C1621 C1620 1.404 . S
C1621 H1633 0.930 . S
C1622 C1618 1.524 . S
C1622 H1634 0.956 . S
C1622 H1635 0.961 . S
C1622 H1636 0.961 . S
C1623 C1620 1.539 . S
C1623 H1637 0.958 . S
C1623 H1638 0.961 . S
C1623 H1639 0.960 . S
H1624 C1608 0.931 . S
H1625 C1613 0.929 . S
H1626 C1614 0.960 . S
H1627 C1614 0.962 . S
H1628 C1614 0.960 1_556 S
H1629 C1615 0.961 1_556 S
H1630 C1615 0.961 . S
H1631 C1615 0.961 . S
H1632 C1616 0.931 . S
H1633 C1621 0.930 . S
H1634 C1622 0.956 . S
H1635 C1622 0.961 . S
H1636 C1622 0.961 . S
H1637 C1623 0.958 . S
H1638 C1623 0.961 . S
H1639 C1623 0.960 . S
C1640 C1641 1.391 . S
C1640 C1642 1.394 . S
C1640 H1656 0.931 . S
C1641 C1640 1.391 . S
C1641 C1645 1.376 . S
C1642 C1640 1.394 . S
C1642 C1643 1.369 . S
C1642 C1646 1.531 . S
C1643 C1642 1.369 . S
C1643 C1644 1.410 . S
C1643 C1651 1.503 . S
C1644 C1643 1.410 . S
C1644 C1645 1.392 . S
C1644 C1647 1.511 . S
C1645 C1641 1.376 . S
C1645 C1644 1.392 . S
C1645 H1657 0.929 . S
C1646 C1642 1.531 . S
C1646 H1658 0.960 . S
C1646 H1659 0.962 . S
C1646 H1660 0.960 . S
C1647 C1644 1.511 . S
C1647 H1661 0.961 . S
C1647 H1662 0.961 . S
C1647 H1663 0.961 . S
C1648 C1649 1.370 . S
C1648 C1650 1.363 . S
C1648 H1664 0.931 . S
C1649 C1648 1.370 . S
C1649 C1653 1.408 . S
C1650 C1648 1.363 . S
C1650 C1651 1.370 1_556 S
C1650 C1654 1.524 1_556 S
C1651 C1643 1.503 . S
C1651 C1650 1.370 1_554 S
C1651 C1652 1.403 1_554 S
C1652 C1651 1.403 1_556 S
C1652 C1653 1.404 . S
C1652 C1655 1.539 1_556 S
C1653 C1649 1.408 . S
C1653 C1652 1.404 . S
C1653 H1665 0.930 . S
C1654 C1650 1.524 1_554 S
C1654 H1666 0.956 . S
C1654 H1667 0.961 . S
C1654 H1668 0.961 . S
C1655 C1652 1.539 1_554 S
C1655 H1669 0.958 . S
C1655 H1670 0.961 1_554 S
C1655 H1671 0.960 . S
H1656 C1640 0.931 . S
H1657 C1645 0.929 . S
H1658 C1646 0.960 . S
H1659 C1646 0.962 . S
H1660 C1646 0.960 . S
H1661 C1647 0.961 . S
H1662 C1647 0.961 . S
H1663 C1647 0.961 . S
H1664 C1648 0.931 . S
H1665 C1653 0.930 . S
H1666 C1654 0.956 . S
H1667 C1654 0.961 . S
H1668 C1654 0.961 . S
H1669 C1655 0.958 . S
H1670 C1655 0.961 1_556 S
H1671 C1655 0.960 . S
C1672 C1673 1.391 . S
C1672 C1674 1.394 . S
C1672 H1688 0.931 . S
C1673 C1672 1.391 . S
C1673 C1677 1.376 . S
C1674 C1672 1.394 . S
C1674 C1675 1.369 . S
C1674 C1678 1.531 . S
C1675 C1674 1.369 . S
C1675 C1676 1.410 . S
C1675 C1683 1.503 1_554 S
C1676 C1675 1.410 . S
C1676 C1677 1.392 . S
C1676 C1679 1.511 1_545 S
C1677 C1673 1.376 . S
C1677 C1676 1.392 . S
C1677 H1689 0.929 1_545 S
C1678 C1674 1.531 . S
C1678 H1690 0.960 . S
C1678 H1691 0.962 . S
C1678 H1692 0.960 . S
C1679 C1676 1.511 1_565 S
C1679 H1693 0.961 . S
C1679 H1694 0.961 1_554 S
C1679 H1695 0.961 1_565 S
C1680 C1681 1.370 . S
C1680 C1682 1.363 . S
C1680 H1696 0.931 1_545 S
C1681 C1680 1.370 . S
C1681 C1685 1.408 . S
C1682 C1680 1.363 . S
C1682 C1683 1.370 . S
C1682 C1686 1.524 1_545 S
C1683 C1675 1.503 1_556 S
C1683 C1682 1.370 . S
C1683 C1684 1.403 . S
C1684 C1683 1.403 . S
C1684 C1685 1.404 . S
C1684 C1687 1.539 . S
C1685 C1681 1.408 . S
C1685 C1684 1.404 . S
C1685 H1697 0.930 . S
C1686 C1682 1.524 1_565 S
C1686 H1698 0.956 1_556 S
C1686 H1699 0.957 1_556 S
C1686 H1700 0.961 . S
C1687 C1684 1.539 . S
C1687 H1701 0.958 1_556 S
C1687 H1702 0.961 . S
C1687 H1703 0.960 1_556 S
H1688 C1672 0.931 . S
H1689 C1677 0.929 1_565 S
H1690 C1678 0.960 . S
H1691 C1678 0.962 . S
H1692 C1678 0.960 . S
H1693 C1679 0.961 . S
H1694 C1679 0.961 1_556 S
H1695 C1679 0.961 1_545 S
H1696 C1680 0.931 1_565 S
H1697 C1685 0.930 . S
H1698 C1686 0.956 1_554 S
H1699 C1686 0.957 1_554 S
H1700 C1686 0.961 . S
H1701 C1687 0.958 1_554 S
H1702 C1687 0.961 . S
H1703 C1687 0.960 1_554 S
C1704 C1705 1.391 . S
C1704 C1706 1.394 . S
C1704 H1720 0.931 . S
C1705 C1704 1.391 . S
C1705 C1709 1.376 . S
C1706 C1704 1.394 . S
C1706 C1707 1.369 . S
C1706 C1710 1.531 . S
C1707 C1706 1.369 . S
C1707 C1708 1.410 . S
C1707 C1715 1.503 . S
C1708 C1707 1.410 . S
C1708 C1709 1.392 . S
C1708 C1711 1.511 . S
C1709 C1705 1.376 . S
C1709 C1708 1.392 . S
C1709 H1721 0.929 . S
C1710 C1706 1.531 . S
C1710 H1722 0.960 . S
C1710 H1723 0.962 . S
C1710 H1724 0.960 . S
C1711 C1708 1.511 . S
C1711 H1725 0.961 . S
C1711 H1726 0.961 . S
C1711 H1727 0.961 . S
C1712 C1713 1.370 . S
C1712 C1714 1.363 . S
C1712 H1728 0.931 . S
C1713 C1712 1.370 . S
C1713 C1717 1.408 . S
C1714 C1712 1.363 . S
C1714 C1715 1.370 . S
C1714 C1718 1.524 . S
C1715 C1707 1.503 . S
C1715 C1714 1.370 . S
C1715 C1716 1.403 . S
C1716 C1715 1.403 . S
C1716 C1717 1.404 . S
C1716 C1719 1.539 . S
C1717 C1713 1.408 . S
C1717 C1716 1.404 . S
C1717 H1729 0.930 . S
C1718 C1714 1.524 . S
C1718 H1730 0.956 . S
C1718 H1731 0.961 . S
C1718 H1732 0.961 . S
C1719 C1716 1.539 . S
C1719 H1733 0.958 . S
C1719 H1734 0.961 . S
C1719 H1735 0.960 . S
H1720 C1704 0.931 . S
H1721 C1709 0.929 . S
H1722 C1710 0.960 . S
H1723 C1710 0.962 . S
H1724 C1710 0.960 . S
H1725 C1711 0.961 . S
H1726 C1711 0.961 . S
H1727 C1711 0.961 . S
H1728 C1712 0.931 . S
H1729 C1717 0.930 . S
H1730 C1718 0.956 . S
H1731 C1718 0.961 . S
H1732 C1718 0.961 . S
H1733 C1719 0.958 . S
H1734 C1719 0.961 . S
H1735 C1719 0.960 . S
C1736 C1737 1.391 . S
C1736 C1738 1.394 . S
C1736 H1752 0.931 . S
C1737 C1736 1.391 . S
C1737 C1741 1.376 . S
C1738 C1736 1.394 . S
C1738 C1739 1.369 . S
C1738 C1742 1.531 . S
C1739 C1738 1.369 . S
C1739 C1740 1.410 . S
C1739 C1747 1.503 . S
C1740 C1739 1.410 . S
C1740 C1741 1.392 . S
C1740 C1743 1.511 . S
C1741 C1737 1.376 . S
C1741 C1740 1.392 . S
C1741 H1753 0.929 . S
C1742 C1738 1.531 . S
C1742 H1754 0.960 . S
C1742 H1755 0.962 . S
C1742 H1756 0.960 . S
C1743 C1740 1.511 . S
C1743 H1757 0.961 . S
C1743 H1758 0.961 . S
C1743 H1759 0.961 . S
C1744 C1745 1.370 . S
C1744 C1746 1.363 . S
C1744 H1760 0.931 . S
C1745 C1744 1.370 . S
C1745 C1749 1.408 . S
C1746 C1744 1.363 . S
C1746 C1747 1.370 . S
C1746 C1750 1.524 . S
C1747 C1739 1.503 . S
C1747 C1746 1.370 . S
C1747 C1748 1.403 . S
C1748 C1747 1.403 . S
C1748 C1749 1.404 . S
C1748 C1751 1.539 . S
C1749 C1745 1.408 . S
C1749 C1748 1.404 . S
C1749 H1761 0.930 . S
C1750 C1746 1.524 . S
C1750 H1762 0.956 . S
C1750 H1763 0.961 . S
C1750 H1764 0.961 . S
C1751 C1748 1.539 . S
C1751 H1765 0.958 . S
C1751 H1766 0.961 . S
C1751 H1767 0.960 . S
H1752 C1736 0.931 . S
H1753 C1741 0.929 . S
H1754 C1742 0.960 . S
H1755 C1742 0.962 . S
H1756 C1742 0.960 . S
H1757 C1743 0.961 . S
H1758 C1743 0.961 . S
H1759 C1743 0.961 . S
H1760 C1744 0.931 . S
H1761 C1749 0.930 . S
H1762 C1750 0.956 . S
H1763 C1750 0.961 . S
H1764 C1750 0.961 . S
H1765 C1751 0.958 . S
H1766 C1751 0.961 . S
H1767 C1751 0.960 . S
C1768 C1769 1.391 . S
C1768 C1770 1.394 . S
C1768 H1784 0.931 . S
C1769 C1768 1.391 . S
C1769 C1773 1.376 . S
C1770 C1768 1.394 . S
C1770 C1771 1.369 . S
C1770 C1774 1.531 . S
C1771 C1770 1.369 . S
C1771 C1772 1.410 . S
C1771 C1779 1.503 . S
C1772 C1771 1.410 . S
C1772 C1773 1.392 . S
C1772 C1775 1.511 . S
C1773 C1769 1.376 . S
C1773 C1772 1.392 . S
C1773 H1785 0.929 . S
C1774 C1770 1.531 . S
C1774 H1786 0.960 . S
C1774 H1787 0.962 . S
C1774 H1788 0.960 . S
C1775 C1772 1.511 . S
C1775 H1789 0.961 . S
C1775 H1790 0.961 . S
C1775 H1791 0.961 . S
C1776 C1777 1.370 . S
C1776 C1778 1.363 . S
C1776 H1792 0.931 . S
C1777 C1776 1.370 . S
C1777 C1781 1.408 . S
C1778 C1776 1.363 . S
C1778 C1779 1.370 . S
C1778 C1782 1.524 . S
C1779 C1771 1.503 . S
C1779 C1778 1.370 . S
C1779 C1780 1.403 . S
C1780 C1779 1.403 . S
C1780 C1781 1.404 . S
C1780 C1783 1.539 . S
C1781 C1777 1.408 . S
C1781 C1780 1.404 . S
C1781 H1793 0.930 . S
C1782 C1778 1.524 . S
C1782 H1794 0.956 . S
C1782 H1795 0.961 . S
C1782 H1796 0.961 . S
C1783 C1780 1.539 . S
C1783 H1797 0.958 . S
C1783 H1798 0.961 . S
C1783 H1799 0.960 . S
H1784 C1768 0.931 . S
H1785 C1773 0.929 . S
H1786 C1774 0.960 . S
H1787 C1774 0.962 . S
H1788 C1774 0.960 . S
H1789 C1775 0.961 . S
H1790 C1775 0.961 . S
H1791 C1775 0.961 . S
H1792 C1776 0.931 . S
H1793 C1781 0.930 . S
H1794 C1782 0.956 . S
H1795 C1782 0.961 . S
H1796 C1782 0.961 . S
H1797 C1783 0.958 . S
H1798 C1783 0.961 . S
H1799 C1783 0.960 . S
C1800 C1801 1.391 . S
C1800 C1802 1.394 . S
C1800 H1816 0.931 . S
C1801 C1800 1.391 . S
C1801 C1805 1.376 . S
C1802 C1800 1.394 . S
C1802 C1803 1.369 . S
C1802 C1806 1.531 . S
C1803 C1802 1.369 . S
C1803 C1804 1.410 . S
C1803 C1811 1.503 . S
C1804 C1803 1.410 . S
C1804 C1805 1.392 . S
C1804 C1807 1.511 . S
C1805 C1801 1.376 . S
C1805 C1804 1.392 . S
C1805 H1817 0.929 . S
C1806 C1802 1.531 . S
C1806 H1818 0.960 . S
C1806 H1819 0.962 . S
C1806 H1820 0.960 . S
C1807 C1804 1.511 . S
C1807 H1821 0.961 . S
C1807 H1822 0.961 . S
C1807 H1823 0.961 . S
C1808 C1809 1.370 . S
C1808 C1810 1.363 . S
C1808 H1824 0.931 . S
C1809 C1808 1.370 . S
C1809 C1813 1.408 . S
C1810 C1808 1.363 . S
C1810 C1811 1.370 . S
C1810 C1814 1.524 . S
C1811 C1803 1.503 . S
C1811 C1810 1.370 . S
C1811 C1812 1.403 . S
C1812 C1811 1.403 . S
C1812 C1813 1.404 . S
C1812 C1815 1.539 . S
C1813 C1809 1.408 . S
C1813 C1812 1.404 . S
C1813 H1825 0.930 . S
C1814 C1810 1.524 . S
C1814 H1826 0.956 . S
C1814 H1827 0.961 . S
C1814 H1828 0.961 . S
C1815 C1812 1.539 . S
C1815 H1829 0.958 . S
C1815 H1830 0.961 . S
C1815 H1831 0.960 . S
H1816 C1800 0.931 . S
H1817 C1805 0.929 . S
H1818 C1806 0.960 . S
H1819 C1806 0.962 . S
H1820 C1806 0.960 . S
H1821 C1807 0.961 . S
H1822 C1807 0.961 . S
H1823 C1807 0.961 . S
H1824 C1808 0.931 . S
H1825 C1813 0.930 . S
H1826 C1814 0.956 . S
H1827 C1814 0.961 . S
H1828 C1814 0.961 . S
H1829 C1815 0.958 . S
H1830 C1815 0.961 . S
H1831 C1815 0.960 . S
C1832 C1833 1.391 . S
C1832 C1834 1.394 . S
C1832 H1848 0.931 . S
C1833 C1832 1.391 . S
C1833 C1837 1.376 . S
C1834 C1832 1.394 . S
C1834 C1835 1.369 . S
C1834 C1838 1.531 . S
C1835 C1834 1.369 . S
C1835 C1836 1.410 . S
C1835 C1843 1.503 . S
C1836 C1835 1.410 . S
C1836 C1837 1.392 . S
C1836 C1839 1.511 . S
C1837 C1833 1.376 . S
C1837 C1836 1.392 . S
C1837 H1849 0.929 . S
C1838 C1834 1.531 . S
C1838 H1850 0.960 . S
C1838 H1851 0.962 . S
C1838 H1852 0.960 . S
C1839 C1836 1.511 . S
C1839 H1853 0.961 . S
C1839 H1854 0.961 . S
C1839 H1855 0.961 . S
C1840 C1841 1.370 . S
C1840 C1842 1.363 . S
C1840 H1856 0.931 . S
C1841 C1840 1.370 . S
C1841 C1845 1.408 . S
C1842 C1840 1.363 . S
C1842 C1843 1.370 . S
C1842 C1846 1.524 . S
C1843 C1835 1.503 . S
C1843 C1842 1.370 . S
C1843 C1844 1.403 . S
C1844 C1843 1.403 . S
C1844 C1845 1.404 . S
C1844 C1847 1.539 . S
C1845 C1841 1.408 . S
C1845 C1844 1.404 . S
C1845 H1857 0.930 . S
C1846 C1842 1.524 . S
C1846 H1858 0.956 . S
C1846 H1859 0.961 . S
C1846 H1860 0.961 . S
C1847 C1844 1.539 . S
C1847 H1861 0.958 . S
C1847 H1862 0.961 . S
C1847 H1863 0.960 . S
H1848 C1832 0.931 . S
H1849 C1837 0.929 . S
H1850 C1838 0.960 . S
H1851 C1838 0.962 . S
H1852 C1838 0.960 . S
H1853 C1839 0.961 . S
H1854 C1839 0.961 . S
H1855 C1839 0.961 . S
H1856 C1840 0.931 . S
H1857 C1845 0.930 . S
H1858 C1846 0.956 . S
H1859 C1846 0.961 . S
H1860 C1846 0.961 . S
H1861 C1847 0.958 . S
H1862 C1847 0.961 . S
H1863 C1847 0.960 . S
C1864 C1865 1.391 . S
C1864 C1866 1.394 . S
C1864 H1880 0.931 . S
C1865 C1864 1.391 . S
C1865 C1869 1.376 . S
C1866 C1864 1.394 . S
C1866 C1867 1.369 . S
C1866 C1870 1.531 . S
C1867 C1866 1.369 . S
C1867 C1868 1.410 . S
C1867 C1875 1.503 . S
C1868 C1867 1.410 . S
C1868 C1869 1.392 . S
C1868 C1871 1.511 . S
C1869 C1865 1.376 . S
C1869 C1868 1.392 . S
C1869 H1881 0.929 . S
C1870 C1866 1.531 . S
C1870 H1882 0.960 . S
C1870 H1883 0.962 . S
C1870 H1884 0.960 . S
C1871 C1868 1.511 . S
C1871 H1885 0.961 . S
C1871 H1886 0.961 . S
C1871 H1887 0.961 . S
C1872 C1873 1.370 . S
C1872 C1874 1.363 . S
C1872 H1888 0.931 . S
C1873 C1872 1.370 . S
C1873 C1877 1.408 . S
C1874 C1872 1.363 . S
C1874 C1875 1.370 . S
C1874 C1878 1.524 . S
C1875 C1867 1.503 . S
C1875 C1874 1.370 . S
C1875 C1876 1.403 . S
C1876 C1875 1.403 . S
C1876 C1877 1.404 . S
C1876 C1879 1.539 . S
C1877 C1873 1.408 . S
C1877 C1876 1.404 . S
C1877 H1889 0.930 . S
C1878 C1874 1.524 . S
C1878 H1890 0.956 . S
C1878 H1891 0.961 . S
C1878 H1892 0.961 . S
C1879 C1876 1.539 . S
C1879 H1893 0.958 . S
C1879 H1894 0.961 . S
C1879 H1895 0.960 . S
H1880 C1864 0.931 . S
H1881 C1869 0.929 . S
H1882 C1870 0.960 . S
H1883 C1870 0.962 . S
H1884 C1870 0.960 . S
H1885 C1871 0.961 . S
H1886 C1871 0.961 . S
H1887 C1871 0.961 . S
H1888 C1872 0.931 . S
H1889 C1877 0.930 . S
H1890 C1878 0.956 . S
H1891 C1878 0.961 . S
H1892 C1878 0.961 . S
H1893 C1879 0.958 . S
H1894 C1879 0.961 . S
H1895 C1879 0.960 . S
C1896 C1897 1.391 . S
C1896 C1898 1.394 . S
C1896 H1912 0.931 . S
C1897 C1896 1.391 . S
C1897 C1901 1.376 . S
C1898 C1896 1.394 . S
C1898 C1899 1.369 . S
C1898 C1902 1.531 . S
C1899 C1898 1.369 . S
C1899 C1900 1.410 . S
C1899 C1907 1.503 . S
C1900 C1899 1.410 . S
C1900 C1901 1.392 . S
C1900 C1903 1.511 . S
C1901 C1897 1.376 . S
C1901 C1900 1.392 . S
C1901 H1913 0.929 . S
C1902 C1898 1.531 . S
C1902 H1914 0.960 . S
C1902 H1915 0.962 . S
C1902 H1916 0.960 . S
C1903 C1900 1.511 . S
C1903 H1917 0.961 . S
C1903 H1918 0.961 . S
C1903 H1919 0.961 . S
C1904 C1905 1.370 . S
C1904 C1906 1.363 . S
C1904 H1920 0.931 . S
C1905 C1904 1.370 . S
C1905 C1909 1.408 . S
C1906 C1904 1.363 . S
C1906 C1907 1.370 . S
C1906 C1910 1.524 . S
C1907 C1899 1.503 . S
C1907 C1906 1.370 . S
C1907 C1908 1.403 . S
C1908 C1907 1.403 . S
C1908 C1909 1.404 . S
C1908 C1911 1.539 . S
C1909 C1905 1.408 . S
C1909 C1908 1.404 . S
C1909 H1921 0.930 . S
C1910 C1906 1.524 . S
C1910 H1922 0.956 . S
C1910 H1923 0.961 . S
C1910 H1924 0.961 . S
C1911 C1908 1.539 . S
C1911 H1925 0.958 . S
C1911 H1926 0.961 . S
C1911 H1927 0.960 . S
H1912 C1896 0.931 . S
H1913 C1901 0.929 . S
H1914 C1902 0.960 . S
H1915 C1902 0.962 . S
H1916 C1902 0.960 . S
H1917 C1903 0.961 . S
H1918 C1903 0.961 . S
H1919 C1903 0.961 . S
H1920 C1904 0.931 . S
H1921 C1909 0.930 . S
H1922 C1910 0.956 . S
H1923 C1910 0.961 . S
H1924 C1910 0.961 . S
H1925 C1911 0.958 . S
H1926 C1911 0.961 . S
H1927 C1911 0.960 . S
C1928 C1929 1.391 . S
C1928 C1930 1.394 . S
C1928 H1944 0.931 . S
C1929 C1928 1.391 . S
C1929 C1933 1.376 . S
C1930 C1928 1.394 . S
C1930 C1931 1.369 . S
C1930 C1934 1.531 . S
C1931 C1930 1.369 . S
C1931 C1932 1.410 . S
C1931 C1939 1.503 . S
C1932 C1931 1.410 . S
C1932 C1933 1.392 . S
C1932 C1935 1.511 . S
C1933 C1929 1.376 . S
C1933 C1932 1.392 . S
C1933 H1945 0.929 . S
C1934 C1930 1.531 . S
C1934 H1946 0.960 . S
C1934 H1947 0.962 . S
C1934 H1948 0.960 . S
C1935 C1932 1.511 . S
C1935 H1949 0.961 . S
C1935 H1950 0.961 . S
C1935 H1951 0.961 . S
C1936 C1937 1.370 . S
C1936 C1938 1.363 . S
C1936 H1952 0.931 . S
C1937 C1936 1.370 . S
C1937 C1941 1.408 . S
C1938 C1936 1.363 . S
C1938 C1939 1.370 . S
C1938 C1942 1.524 . S
C1939 C1931 1.503 . S
C1939 C1938 1.370 . S
C1939 C1940 1.403 . S
C1940 C1939 1.403 . S
C1940 C1941 1.404 . S
C1940 C1943 1.539 . S
C1941 C1937 1.408 . S
C1941 C1940 1.404 . S
C1941 H1953 0.930 . S
C1942 C1938 1.524 . S
C1942 H1954 0.956 . S
C1942 H1955 0.961 . S
C1942 H1956 0.961 . S
C1943 C1940 1.539 . S
C1943 H1957 0.958 . S
C1943 H1958 0.961 . S
C1943 H1959 0.960 . S
H1944 C1928 0.931 . S
H1945 C1933 0.929 . S
H1946 C1934 0.960 . S
H1947 C1934 0.962 . S
H1948 C1934 0.960 . S
H1949 C1935 0.961 . S
H1950 C1935 0.961 . S
H1951 C1935 0.961 . S
H1952 C1936 0.931 . S
H1953 C1941 0.930 . S
H1954 C1942 0.956 . S
H1955 C1942 0.961 . S
H1956 C1942 0.961 . S
H1957 C1943 0.958 . S
H1958 C1943 0.961 . S
H1959 C1943 0.960 . S
C1960 C1961 1.391 . S
C1960 C1962 1.394 . S
C1960 H1976 0.931 . S
C1961 C1960 1.391 . S
C1961 C1965 1.376 . S
C1962 C1960 1.394 . S
C1962 C1963 1.369 . S
C1962 C1966 1.531 . S
C1963 C1962 1.369 . S
C1963 C1964 1.410 . S
C1963 C1971 1.503 . S
C1964 C1963 1.410 . S
C1964 C1965 1.392 . S
C1964 C1967 1.511 . S
C1965 C1961 1.376 . S
C1965 C1964 1.392 . S
C1965 H1977 0.929 . S
C1966 C1962 1.531 . S
C1966 H1978 0.960 . S
C1966 H1979 0.962 . S
C1966 H1980 0.960 . S
C1967 C1964 1.511 . S
C1967 H1981 0.961 . S
C1967 H1982 0.961 . S
C1967 H1983 0.961 . S
C1968 C1969 1.370 . S
C1968 C1970 1.363 . S
C1968 H1984 0.931 . S
C1969 C1968 1.370 . S
C1969 C1973 1.408 . S
C1970 C1968 1.363 . S
C1970 C1971 1.370 . S
C1970 C1974 1.524 . S
C1971 C1963 1.503 . S
C1971 C1970 1.370 . S
C1971 C1972 1.403 . S
C1972 C1971 1.403 . S
C1972 C1973 1.404 . S
C1972 C1975 1.539 . S
C1973 C1969 1.408 . S
C1973 C1972 1.404 . S
C1973 H1985 0.930 . S
C1974 C1970 1.524 . S
C1974 H1986 0.956 . S
C1974 H1987 0.961 . S
C1974 H1988 0.961 . S
C1975 C1972 1.539 . S
C1975 H1989 0.958 . S
C1975 H1990 0.961 . S
C1975 H1991 0.960 . S
H1976 C1960 0.931 . S
H1977 C1965 0.929 . S
H1978 C1966 0.960 . S
H1979 C1966 0.962 . S
H1980 C1966 0.960 . S
H1981 C1967 0.961 . S
H1982 C1967 0.961 . S
H1983 C1967 0.961 . S
H1984 C1968 0.931 . S
H1985 C1973 0.930 . S
H1986 C1974 0.956 . S
H1987 C1974 0.961 . S
H1988 C1974 0.961 . S
H1989 C1975 0.958 . S
H1990 C1975 0.961 . S
H1991 C1975 0.960 . S
C1992 C1993 1.391 . S
C1992 C1994 1.394 . S
C1992 H2008 0.931 . S
C1993 C1992 1.391 . S
C1993 C1997 1.376 . S
C1994 C1992 1.394 . S
C1994 C1995 1.369 . S
C1994 C1998 1.531 . S
C1995 C1994 1.369 . S
C1995 C1996 1.410 . S
C1995 C2003 1.503 . S
C1996 C1995 1.410 . S
C1996 C1997 1.392 . S
C1996 C1999 1.511 . S
C1997 C1993 1.376 . S
C1997 C1996 1.392 . S
C1997 H2009 0.929 . S
C1998 C1994 1.531 . S
C1998 H2010 0.960 . S
C1998 H2011 0.962 . S
C1998 H2012 0.960 . S
C1999 C1996 1.511 . S
C1999 H2013 0.961 . S
C1999 H2014 0.961 . S
C1999 H2015 0.961 . S
C2000 C2001 1.370 . S
C2000 C2002 1.363 . S
C2000 H2016 0.931 . S
C2001 C2000 1.370 . S
C2001 C2005 1.408 . S
C2002 C2000 1.363 . S
C2002 C2003 1.370 . S
C2002 C2006 1.524 . S
C2003 C1995 1.503 . S
C2003 C2002 1.370 . S
C2003 C2004 1.403 . S
C2004 C2003 1.403 . S
C2004 C2005 1.404 . S
C2004 C2007 1.539 . S
C2005 C2001 1.408 . S
C2005 C2004 1.404 . S
C2005 H2017 0.930 . S
C2006 C2002 1.524 . S
C2006 H2018 0.956 . S
C2006 H2019 0.961 . S
C2006 H2020 0.961 . S
C2007 C2004 1.539 . S
C2007 H2021 0.958 . S
C2007 H2022 0.961 . S
C2007 H2023 0.960 . S
H2008 C1992 0.931 . S
H2009 C1997 0.929 . S
H2010 C1998 0.960 . S
H2011 C1998 0.962 . S
H2012 C1998 0.960 . S
H2013 C1999 0.961 . S
H2014 C1999 0.961 . S
H2015 C1999 0.961 . S
H2016 C2000 0.931 . S
H2017 C2005 0.930 . S
H2018 C2006 0.956 . S
H2019 C2006 0.961 . S
H2020 C2006 0.961 . S
H2021 C2007 0.958 . S
H2022 C2007 0.961 . S
H2023 C2007 0.960 . S
C2024 C2025 1.391 . S
C2024 C2026 1.394 . S
C2024 H2040 0.931 . S
C2025 C2024 1.391 . S
C2025 C2029 1.376 . S
C2026 C2024 1.394 . S
C2026 C2027 1.369 . S
C2026 C2030 1.531 . S
C2027 C2026 1.369 . S
C2027 C2028 1.410 . S
C2027 C2035 1.503 . S
C2028 C2027 1.410 . S
C2028 C2029 1.392 . S
C2028 C2031 1.511 . S
C2029 C2025 1.376 . S
C2029 C2028 1.392 . S
C2029 H2041 0.929 . S
C2030 C2026 1.531 . S
C2030 H2042 0.960 . S
C2030 H2043 0.962 . S
C2030 H2044 0.960 . S
C2031 C2028 1.511 . S
C2031 H2045 0.961 . S
C2031 H2046 0.961 . S
C2031 H2047 0.961 . S
C2032 C2033 1.370 . S
C2032 C2034 1.363 . S
C2032 H2048 0.931 . S
C2033 C2032 1.370 . S
C2033 C2037 1.408 . S
C2034 C2032 1.363 . S
C2034 C2035 1.370 . S
C2034 C2038 1.524 . S
C2035 C2027 1.503 . S
C2035 C2034 1.370 . S
C2035 C2036 1.403 . S
C2036 C2035 1.403 . S
C2036 C2037 1.404 . S
C2036 C2039 1.539 . S
C2037 C2033 1.408 . S
C2037 C2036 1.404 . S
C2037 H2049 0.930 . S
C2038 C2034 1.524 . S
C2038 H2050 0.956 . S
C2038 H2051 0.961 . S
C2038 H2052 0.961 . S
C2039 C2036 1.539 . S
C2039 H2053 0.958 . S
C2039 H2054 0.961 . S
C2039 H2055 0.960 . S
H2040 C2024 0.931 . S
H2041 C2029 0.929 . S
H2042 C2030 0.960 . S
H2043 C2030 0.962 . S
H2044 C2030 0.960 . S
H2045 C2031 0.961 . S
H2046 C2031 0.961 . S
H2047 C2031 0.961 . S
H2048 C2032 0.931 . S
H2049 C2037 0.930 . S
H2050 C2038 0.956 . S
H2051 C2038 0.961 . S
H2052 C2038 0.961 . S
H2053 C2039 0.958 . S
H2054 C2039 0.961 . S
H2055 C2039 0.960 . S
C2056 C2057 1.391 . S
C2056 C2058 1.394 . S
C2056 H2072 0.931 . S
C2057 C2056 1.391 . S
C2057 C2061 1.376 . S
C2058 C2056 1.394 . S
C2058 C2059 1.369 . S
C2058 C2062 1.531 . S
C2059 C2058 1.369 . S
C2059 C2060 1.410 . S
C2059 C2067 1.503 . S
C2060 C2059 1.410 . S
C2060 C2061 1.392 . S
C2060 C2063 1.511 . S
C2061 C2057 1.376 . S
C2061 C2060 1.392 . S
C2061 H2073 0.929 . S
C2062 C2058 1.531 . S
C2062 H2074 0.960 . S
C2062 H2075 0.962 . S
C2062 H2076 0.960 . S
C2063 C2060 1.511 . S
C2063 H2077 0.961 . S
C2063 H2078 0.961 . S
C2063 H2079 0.961 . S
C2064 C2065 1.370 . S
C2064 C2066 1.363 . S
C2064 H2080 0.931 . S
C2065 C2064 1.370 . S
C2065 C2069 1.408 . S
C2066 C2064 1.363 . S
C2066 C2067 1.370 . S
C2066 C2070 1.524 . S
C2067 C2059 1.503 . S
C2067 C2066 1.370 . S
C2067 C2068 1.403 . S
C2068 C2067 1.403 . S
C2068 C2069 1.404 . S
C2068 C2071 1.539 . S
C2069 C2065 1.408 . S
C2069 C2068 1.404 . S
C2069 H2081 0.930 . S
C2070 C2066 1.524 . S
C2070 H2082 0.956 . S
C2070 H2083 0.961 . S
C2070 H2084 0.961 . S
C2071 C2068 1.539 . S
C2071 H2085 0.958 . S
C2071 H2086 0.961 . S
C2071 H2087 0.960 . S
H2072 C2056 0.931 . S
H2073 C2061 0.929 . S
H2074 C2062 0.960 . S
H2075 C2062 0.962 . S
H2076 C2062 0.960 . S
H2077 C2063 0.961 . S
H2078 C2063 0.961 . S
H2079 C2063 0.961 . S
H2080 C2064 0.931 . S
H2081 C2069 0.930 . S
H2082 C2070 0.956 . S
H2083 C2070 0.961 . S
H2084 C2070 0.961 . S
H2085 C2071 0.958 . S
H2086 C2071 0.961 . S
H2087 C2071 0.960 . S
C361 C279 1.895 . S
C369 C19 1.909 . S
C393 C29 1.489 . S
C401 C289 1.503 . S
C425 C59 1.685 . S
C433 C249 1.765 . S
C457 C49 1.410 . S
C465 C149 1.403 . S
C489 C169 1.611 . S
C497 C9 1.622 . S
C521 C39 1.761 . S
C529 C129 1.814 . S
C553 C78 1.717 . S
C561 C208 1.763 . S
C585 C88 1.327 . S
C593 C228 1.329 . S
C617 C188 1.552 . S
C625 C118 1.526 . S
C649 C328 1.501 . S
C657 C108 1.506 . S
C681 C68 1.751 . S
C689 C358 1.720 . S
C713 C318 1.915 . S
C721 C98 1.908 . S
C745 C179 1.608 . S
C753 C269 1.673 . S
C777 C139 1.813 . S
C785 C299 1.821 . S
C809 C159 2.005 . S
C817 C259 2.028 . S
C841 C198 2.077 . S
C849 C338 2.086 . S
C873 C348 1.758 . S
C881 C218 1.716 . S
C905 C308 1.958 . S
C913 C238 1.921 . S
C937 C8 1.427 . S
C945 C89 1.416 . S
C969 C119 1.665 . S
C977 C38 1.679 . S
C1001 C79 1.535 . S
C1009 C48 1.426 . S
C1033 C99 1.684 . S
C1041 C58 1.735 . S
C1065 C109 1.544 . S
C1073 C18 1.600 . S
C1097 C69 1.459 . S
C1105 C28 1.495 . S
C1129 C219 1.750 . S
C1137 C138 1.743 . S
C1161 C239 1.817 . S
C1169 C158 1.801 . S
C1193 C199 1.787 . S
C1201 C178 1.743 . S
C1225 C209 1.420 . S
C1233 C168 1.442 . S
C1257 C229 1.437 . S
C1265 C128 1.472 . S
C1289 C189 1.398 . S
C1297 C148 1.418 . S
C1321 C329 1.452 . S
C1329 C248 1.433 . S
C1353 C359 1.721 . S
C1361 C278 1.702 . S
C1385 C288 1.524 . S
C1393 C319 1.590 . S
C1417 C298 1.802 . S
C1425 C339 1.818 . S
C1449 C258 1.640 . S
C1457 C349 1.517 . S
C1481 C309 1.462 . S
C1489 C268 1.463 . S
C1513 C1 1.335 . S
C1521 C2 1.359 . S
C1545 C22 1.349 . S
C1553 C21 1.402 . S
C1577 C41 1.342 . S
C1585 C42 1.390 . S
C1609 C62 1.370 . S
C1617 C61 1.373 . S
C1641 C82 1.336 . S
C1649 C81 1.368 . S
C1673 C101 1.398 . S
C1681 C102 1.415 . S
C1705 C121 1.399 . S
C1713 C122 1.449 . S
C1737 C142 1.364 . S
C1745 C141 1.347 1_554 S
C1769 C161 1.440 . S
C1777 C162 1.453 . S
C1801 C182 1.361 . S
C1809 C181 1.336 . S
C1833 C202 1.399 . S
C1841 C201 1.436 . S
C1865 C222 1.395 . S
C1873 C221 1.353 . S
C1897 C242 1.374 . S
C1905 C241 1.340 . S
C1929 C262 1.355 . S
C1937 C261 1.389 . S
C1961 C281 1.393 . S
C1969 C282 1.353 . S
C1993 C301 1.392 . S
C2001 C302 1.383 . S
C2025 C322 1.362 . S
C2033 C321 1.349 . S
C2057 C342 1.350 . S
C2065 C341 1.400 . S
