# Generated by pormake.
# Topology wkh, (6)-cn, num edge types: 1
# Building blocks:
#     Node 0, Type 0, BuildingBlock: IZENUY_clean_sbu_0, # of connection points: 6
#     Node 1, Type 0, BuildingBlock: IZENUY_clean_sbu_0, # of connection points: 6
#     Node 2, Type 0, BuildingBlock: IZENUY_clean_sbu_0, # of connection points: 6
#     Node 3, Type 0, BuildingBlock: IZENUY_clean_sbu_0, # of connection points: 6
#     Node 4, Type 0, BuildingBlock: IZENUY_clean_sbu_0, # of connection points: 6
#     Node 5, Type 0, BuildingBlock: IZENUY_clean_sbu_0, # of connection points: 6
#     Node 6, Type 0, BuildingBlock: IZENUY_clean_sbu_0, # of connection points: 6
#     Node 7, Type 0, BuildingBlock: IZENUY_clean_sbu_0, # of connection points: 6
#     Node 8, Type 0, BuildingBlock: IZENUY_clean_sbu_0, # of connection points: 6
#     Node 9, Type 0, BuildingBlock: IZENUY_clean_sbu_0, # of connection points: 6
#     Node 10, Type 0, BuildingBlock: IZENUY_clean_sbu_0, # of connection points: 6
#     Node 11, Type 0, BuildingBlock: IZENUY_clean_sbu_0, # of connection points: 6
#     Edge 12, Type (0, 0), BuildingBlock: AJUNOK_clean_linker_0, # of connection points: 2
#     Edge 13, Type (0, 0), BuildingBlock: AJUNOK_clean_linker_0, # of connection points: 2
#     Edge 14, Type (0, 0), BuildingBlock: AJUNOK_clean_linker_0, # of connection points: 2
#     Edge 15, Type (0, 0), BuildingBlock: AJUNOK_clean_linker_0, # of connection points: 2
#     Edge 16, Type (0, 0), BuildingBlock: AJUNOK_clean_linker_0, # of connection points: 2
#     Edge 17, Type (0, 0), BuildingBlock: AJUNOK_clean_linker_0, # of connection points: 2
#     Edge 18, Type (0, 0), BuildingBlock: AJUNOK_clean_linker_0, # of connection points: 2
#     Edge 19, Type (0, 0), BuildingBlock: AJUNOK_clean_linker_0, # of connection points: 2
#     Edge 20, Type (0, 0), BuildingBlock: AJUNOK_clean_linker_0, # of connection points: 2
#     Edge 21, Type (0, 0), BuildingBlock: AJUNOK_clean_linker_0, # of connection points: 2
#     Edge 22, Type (0, 0), BuildingBlock: AJUNOK_clean_linker_0, # of connection points: 2
#     Edge 23, Type (0, 0), BuildingBlock: AJUNOK_clean_linker_0, # of connection points: 2
#     Edge 24, Type (0, 0), BuildingBlock: AJUNOK_clean_linker_0, # of connection points: 2
#     Edge 25, Type (0, 0), BuildingBlock: AJUNOK_clean_linker_0, # of connection points: 2
#     Edge 26, Type (0, 0), BuildingBlock: AJUNOK_clean_linker_0, # of connection points: 2
#     Edge 27, Type (0, 0), BuildingBlock: AJUNOK_clean_linker_0, # of connection points: 2
#     Edge 28, Type (0, 0), BuildingBlock: AJUNOK_clean_linker_0, # of connection points: 2
#     Edge 29, Type (0, 0), BuildingBlock: AJUNOK_clean_linker_0, # of connection points: 2
#     Edge 30, Type (0, 0), BuildingBlock: AJUNOK_clean_linker_0, # of connection points: 2
#     Edge 31, Type (0, 0), BuildingBlock: AJUNOK_clean_linker_0, # of connection points: 2
#     Edge 32, Type (0, 0), BuildingBlock: AJUNOK_clean_linker_0, # of connection points: 2
#     Edge 33, Type (0, 0), BuildingBlock: AJUNOK_clean_linker_0, # of connection points: 2
#     Edge 34, Type (0, 0), BuildingBlock: AJUNOK_clean_linker_0, # of connection points: 2
#     Edge 35, Type (0, 0), BuildingBlock: AJUNOK_clean_linker_0, # of connection points: 2
#     Edge 36, Type (0, 0), BuildingBlock: AJUNOK_clean_linker_0, # of connection points: 2
#     Edge 37, Type (0, 0), BuildingBlock: AJUNOK_clean_linker_0, # of connection points: 2
#     Edge 38, Type (0, 0), BuildingBlock: AJUNOK_clean_linker_0, # of connection points: 2
#     Edge 39, Type (0, 0), BuildingBlock: AJUNOK_clean_linker_0, # of connection points: 2
#     Edge 40, Type (0, 0), BuildingBlock: AJUNOK_clean_linker_0, # of connection points: 2
#     Edge 41, Type (0, 0), BuildingBlock: AJUNOK_clean_linker_0, # of connection points: 2
#     Edge 42, Type (0, 0), BuildingBlock: AJUNOK_clean_linker_0, # of connection points: 2
#     Edge 43, Type (0, 0), BuildingBlock: AJUNOK_clean_linker_0, # of connection points: 2
#     Edge 44, Type (0, 0), BuildingBlock: AJUNOK_clean_linker_0, # of connection points: 2
#     Edge 45, Type (0, 0), BuildingBlock: AJUNOK_clean_linker_0, # of connection points: 2
#     Edge 46, Type (0, 0), BuildingBlock: AJUNOK_clean_linker_0, # of connection points: 2
#     Edge 47, Type (0, 0), BuildingBlock: AJUNOK_clean_linker_0, # of connection points: 2
# Relax obj value: 0.285
# Max RMSD: 0.257
# Mean RMSD: 0.257
data_MOF--net-wkh--node1-IZENUY_clean_sbu_0--edge1-AJUNOK_clean_linker_0
_symmetry_space_group_name_H-M    P1
_symmetry_Int_Tables_number       1
_symmetry_cell_setting            triclinic
loop_
_symmetry_equiv_pos_as_xyz
'x, y, z'
_cell_length_a     19.822563
_cell_length_b     19.69318
_cell_length_c     57.299579
_cell_angle_alpha  89.930186
_cell_angle_beta   90.126273
_cell_angle_gamma 119.78622
loop_
_atom_site_label
_atom_site_type_symbol
_atom_site_fract_x
_atom_site_fract_y
_atom_site_fract_z
_atom_type_partial_charge
Fe0 Fe 0.25182 0.33065 1.03937 0.0
Fe1 Fe 0.37945 0.28722 1.04387 0.0
O2 O 0.33952 0.3458 0.05253 0.0
Fe3 Fe 0.38681 0.41853 0.07431 0.0
O4 O 0.30193 0.37286 0.09288 0.0
O5 O 0.21404 0.35373 0.06616 0.0
O6 O 0.19915 0.23171 1.04927 0.0
C7 C 0.21973 0.18234 1.04536 0.0
C8 C 0.3168 0.48404 1.04369 0.0
O9 O 0.2859 0.20118 1.03734 0.0
C10 C 0.51484 0.43468 0.05111 0.0
O11 O 0.27227 0.30097 1.01045 0.0
O12 O 0.39165 0.32283 1.01422 0.0
O13 O 0.35306 0.48511 0.06227 0.0
O14 O 0.30001 0.43016 1.02918 0.0
C15 C 0.399 0.2889 0.09101 0.0
O16 O 0.4802 0.36122 1.04915 0.0
O17 O 0.47812 0.46916 0.0576 0.0
C18 C 0.3349 0.30994 1.00138 0.0
O19 O 0.36939 0.24844 0.07294 0.0
O20 O 0.4231 0.36208 0.09089 0.0
C21 C 0.23388 0.35681 0.08742 0.0
Fe22 Fe 0.96181 0.36432 0.23986 0.0
Fe23 Fe 0.96249 0.2405 0.20693 0.0
O24 O 1.01197 0.33186 0.22142 0.0
Fe25 Fe 0.11443 0.38947 0.21863 0.0
O26 O 0.13213 0.43323 0.24766 0.0
O27 O 1.02066 0.36664 0.26495 0.0
O28 O 0.8898 0.26665 0.24999 0.0
C29 C 0.88861 0.20183 0.24983 0.0
C30 C 0.08249 0.50637 0.21778 0.0
O31 O 0.92626 0.18751 0.23465 0.0
C32 C 0.0673 0.32896 0.17302 0.0
O33 O 0.89377 0.35653 0.2165 0.0
O34 O 0.87456 0.24362 0.20276 0.0
O35 O 0.10586 0.46843 0.20592 0.0
O36 O 0.02926 0.47081 0.23313 0.0
C37 C 0.09395 0.24396 0.22421 0.0
O38 O 0.99588 0.28632 0.17804 0.0
O39 O 0.11755 0.35734 0.18908 0.0
C40 C 0.85218 0.29271 0.20529 0.0
O41 O 0.04155 0.22123 0.20904 0.0
O42 O 0.12816 0.31338 0.23139 0.0
C43 C 0.09391 0.40118 0.26579 0.0
Fe44 Fe 0.71703 0.92525 0.37137 0.0
Fe45 Fe 0.76218 0.09733 0.37571 0.0
O46 O 0.70222 0.99904 0.38428 0.0
Fe47 Fe 0.62902 0.97526 0.40564 0.0
O48 O 0.67062 0.93135 0.42455 0.0
O49 O 0.69118 0.86329 0.39786 0.0
O50 O 0.81475 0.9696 0.38208 0.0
C51 C 0.86449 0.03923 0.3782 0.0
C52 C 0.56335 0.84084 0.3744 0.0
O53 O 0.84664 0.0869 0.36948 0.0
C54 C 0.61767 0.09252 0.38266 0.0
O55 O 0.74864 0.97531 0.34257 0.0
O56 O 0.72753 0.07427 0.34604 0.0
O57 O 0.56168 0.87655 0.39286 0.0
O58 O 0.61898 0.87578 0.36042 0.0
C59 C 0.75961 0.11494 0.4228 0.0
O60 O 0.69061 0.1281 0.38069 0.0
O61 O 0.58167 0.02075 0.38882 0.0
C62 C 0.7398 0.02924 0.33336 0.0
O63 O 0.79992 0.12504 0.40482 0.0
O64 O 0.68676 0.06654 0.42274 0.0
C65 C 0.6869 0.8791 0.41906 0.0
Fe66 Fe 0.66286 0.61543 0.57624 0.0
Fe67 Fe 0.78947 0.69633 0.53869 0.0
O68 O 0.70526 0.68436 0.55327 0.0
Fe69 Fe 0.66364 0.74136 0.5448 0.0
O70 O 0.67891 0.78439 0.5734 0.0
O71 O 0.62809 0.67355 0.59272 0.0
O72 O 0.75128 0.66666 0.59318 0.0
C73 C 0.81836 0.68258 0.58671 0.0
C74 C 0.53034 0.59434 0.5544 0.0
O75 O 0.83252 0.6775 0.56531 0.0
C76 C 0.7003 0.71473 0.50183 0.0
O77 O 0.69617 0.54744 0.56461 0.0
O78 O 0.73745 0.59534 0.53013 0.0
O79 O 0.56401 0.6676 0.55169 0.0
O80 O 0.56865 0.56124 0.5609 0.0
C81 C 0.82407 0.84585 0.54283 0.0
O82 O 0.76368 0.7219 0.50977 0.0
O83 O 0.64607 0.70149 0.51572 0.0
C84 C 0.72702 0.54505 0.54525 0.0
O85 O 0.84501 0.79676 0.54686 0.0
O86 O 0.75582 0.82644 0.53656 0.0
C87 C 0.65156 0.74663 0.592 0.0
Fe88 Fe 0.08371 0.66762 0.73955 0.0
Fe89 Fe 0.09249 0.79375 0.70548 0.0
O90 O 0.03887 0.70166 0.71943 0.0
Fe91 Fe 0.93737 0.64474 0.71446 0.0
O92 O 0.91276 0.60019 0.74346 0.0
O93 O 1.01978 0.66568 0.76312 0.0
O94 O 0.15509 0.76426 0.75048 0.0
C95 C 0.15832 0.8299 0.74966 0.0
C96 C 0.96672 0.52673 0.7161 0.0
O97 O 0.12447 0.84557 0.73352 0.0
C98 C 0.99408 0.71066 0.66968 0.0
O99 O 0.15558 0.67437 0.71791 0.0
O100 O 0.17922 0.78788 0.7032 0.0
O101 O 0.94775 0.56555 0.70286 0.0
O102 O 1.01676 0.562 0.7323 0.0
C103 C 0.95773 0.79038 0.71917 0.0
O104 O 0.06432 0.75049 0.67618 0.0
O105 O 0.9405 0.67863 0.68459 0.0
C106 C 0.19971 0.73783 0.7069 0.0
O107 O 1.01501 0.8156 0.70578 0.0
O108 O 0.92269 0.72076 0.72616 0.0
C109 C 0.94637 0.6313 0.76229 0.0
Fe110 Fe 0.33305 0.10766 0.87109 0.0
Fe111 Fe 0.28712 0.93588 0.8757 0.0
O112 O 0.34608 0.03393 0.88456 0.0
Fe113 Fe 0.41736 0.05843 0.9067 0.0
O114 O 0.37188 0.10018 0.92487 0.0
O115 O 0.35795 0.17058 0.89749 0.0
O116 O 0.2343 0.06402 0.88094 0.0
C117 C 0.18428 0.99498 0.87611 0.0
C118 C 0.48532 0.19204 0.87516 0.0
O119 O 0.20295 0.94648 0.86849 0.0
C120 C 0.43175 0.94172 0.88463 0.0
O121 O 0.30288 0.05774 0.84229 0.0
O122 O 0.32374 0.95894 0.84613 0.0
O123 O 0.48574 0.15859 0.89433 0.0
O124 O 0.43157 0.15405 0.8609 0.0
C125 C 0.28629 0.91828 0.92298 0.0
O126 O 0.35903 0.9058 0.88156 0.0
O127 O 0.46685 1.01378 0.89065 0.0
C128 C 0.31086 1.00324 0.83322 0.0
O129 O 0.24715 0.90782 0.90462 0.0
O130 O 0.35904 0.96673 0.92341 0.0
C131 C 0.3575 0.1533 0.91885 0.0
Fe132 Fe 0.76178 0.67112 0.88673 0.0
Fe133 Fe 0.63471 0.66805 0.85573 0.0
O134 O 0.70262 0.71085 0.87881 0.0
Fe135 Fe 0.71138 0.79292 0.89426 0.0
O136 O 0.81127 0.85186 0.88624 0.0
O137 O 0.84386 0.76428 0.89618 0.0
O138 O 0.80637 0.69136 0.85828 0.0
C139 C 0.76941 0.66328 0.8396 0.0
C140 C 0.73018 0.7004 0.93004 0.0
O141 O 0.6962 0.6379 0.83881 0.0
C142 C 0.56023 0.72654 0.88744 0.0
O143 O 0.69183 0.57058 0.87869 0.0
O144 O 0.58405 0.57203 0.87055 0.0
O145 O 0.73697 0.76494 0.92288 0.0
O146 O 0.71993 0.64847 0.91546 0.0
C147 C 0.69351 0.82409 0.84657 0.0
O148 O 0.56371 0.6967 0.86793 0.0
O149 O 0.6107 0.73814 0.90259 0.0
C150 C 0.61889 0.53466 0.87627 0.0
O151 O 0.68167 0.75862 0.83927 0.0
O152 O 0.69099 0.83671 0.86823 0.0
C153 C 0.86161 0.83281 0.89023 0.0
Fe154 Fe 0.10977 0.74815 0.05415 0.0
Fe155 Fe 0.98372 0.61959 1.0239 0.0
O156 O 1.01091 0.69128 1.04612 0.0
Fe157 Fe 0.9405 0.70725 0.06038 0.0
O158 O 0.98773 0.80796 0.05154 0.0
O159 O 0.10378 0.83387 0.06273 0.0
O160 O 0.1356 0.78981 1.0252 0.0
C161 C 0.1217 0.7499 1.00678 0.0
C162 C 0.04745 0.72313 0.09725 0.0
O163 O 0.07406 0.67664 1.00691 0.0
C164 C 0.85072 0.55367 0.05481 0.0
O165 O 0.13615 0.67443 1.04719 0.0
O166 O 0.02584 0.56741 1.03964 0.0
O167 O 0.99219 0.73211 0.08922 0.0
O168 O 0.08864 0.70938 0.08343 0.0
C169 C 0.89164 0.68354 1.01258 0.0
O170 O 0.88556 0.55287 1.03622 0.0
O171 O 0.88752 0.60656 0.06963 0.0
C172 C 0.0971 0.60105 1.04564 0.0
O173 O 0.94231 0.66629 1.00628 0.0
O174 O 0.87859 0.68826 1.03406 0.0
C175 C 0.0569 0.85594 0.05643 0.0
Fe176 Fe 0.38974 0.10326 0.22086 0.0
Fe177 Fe 0.38548 0.97383 0.18991 0.0
O178 O 0.34399 1.00407 0.21229 0.0
Fe179 Fe 0.25641 0.93577 0.22657 0.0
O180 O 0.20675 0.98697 0.21739 0.0
O181 O 0.30093 0.10085 0.22895 0.0
O182 O 0.37856 0.1334 0.19207 0.0
C183 C 0.40244 0.11831 0.17346 0.0
C184 C 0.34806 0.03899 0.26375 0.0
O185 O 0.42007 0.06442 0.17258 0.0
C186 C 0.31569 0.84146 0.22173 0.0
O187 O 0.48701 0.12627 0.21415 0.0
O188 O 0.48089 1.0152 0.20486 0.0
O189 O 0.28314 0.98707 0.25534 0.0
O190 O 0.40405 0.07844 0.25014 0.0
C191 C 0.22932 0.8855 0.17901 0.0
O192 O 0.35135 0.87448 0.20285 0.0
O193 O 0.30133 0.8806 0.23615 0.0
C194 C 0.52005 0.08712 0.21074 0.0
O195 O 0.29735 0.93383 0.17249 0.0
O196 O 0.21228 0.87322 0.2005 0.0
C197 C 0.23383 0.05859 0.22098 0.0
Fe198 Fe 0.40935 0.36382 0.35551 0.0
Fe199 Fe 0.33675 0.24018 0.39478 0.0
O200 O 0.34584 0.32312 0.37958 0.0
Fe201 Fe 0.29109 0.36576 0.38903 0.0
O202 O 0.23997 0.34529 0.36166 0.0
O203 O 0.34522 0.39362 0.33985 0.0
O204 O 0.35867 0.27235 0.33963 0.0
C205 C 0.34808 0.20704 0.34668 0.0
C206 C 0.43249 0.49974 0.37619 0.0
O207 O 0.35247 0.19469 0.3683 0.0
C208 C 0.32487 0.33521 0.43133 0.0
O209 O 0.48112 0.33499 0.36667 0.0
O210 O 0.43884 0.29197 0.40186 0.0
O211 O 0.3604 0.46525 0.38002 0.0
O212 O 0.4647 0.46114 0.36939 0.0
C213 C 0.18757 0.20503 0.39316 0.0
O214 O 0.31533 0.2695 0.42413 0.0
O215 O 0.34109 0.38817 0.41659 0.0
C216 C 0.4875 0.30522 0.38589 0.0
O217 O 0.23557 0.18404 0.38778 0.0
O218 O 0.20935 0.27408 0.39967 0.0
C219 C 0.27254 0.36912 0.34217 0.0
Fe220 Fe 0.06085 0.40943 0.52485 0.0
Fe221 Fe 0.10214 0.31859 0.5606 0.0
O222 O 0.03249 0.3363 0.54654 0.0
Fe223 Fe 0.9337 0.28005 0.55429 0.0
O224 O 0.9075 0.24036 0.52518 0.0
O225 O 0.97025 0.35482 0.50762 0.0
O226 O 0.09968 0.36124 0.507 0.0
C227 C 0.15118 0.34462 0.51288 0.0
C228 C 0.94833 0.4287 0.54682 0.0
O229 O 0.16514 0.33982 0.53432 0.0
C230 C 0.99626 0.30296 0.59735 0.0
O231 O 0.16017 0.47419 0.5375 0.0
O232 O 0.15393 0.41801 0.57073 0.0
O233 O 0.90854 0.3552 0.54792 0.0
O234 O 1.01988 0.46191 0.54104 0.0
C235 C 0.98546 0.17131 0.55534 0.0
O236 O 0.04978 0.29145 0.58927 0.0
O237 O 0.95542 0.31737 0.58358 0.0
C238 C 0.19294 0.47171 0.55647 0.0
O239 O 0.05493 0.21912 0.55089 0.0
O240 O 0.93905 0.19328 0.56221 0.0
C241 C 0.92185 0.28171 0.50707 0.0
Fe242 Fe 0.65575 0.93023 0.7224 0.0
Fe243 Fe 0.6598 0.059 0.69118 0.0
O244 O 0.70223 0.02875 0.71326 0.0
Fe245 Fe 0.79205 0.09579 0.72652 0.0
O246 O 0.83767 0.04092 0.71665 0.0
O247 O 0.74372 0.93215 0.73057 0.0
O248 O 0.66544 0.8989 0.6935 0.0
C249 C 0.64234 0.91478 0.67479 0.0
C250 C 0.70256 0.99817 0.76464 0.0
O251 O 0.62234 0.96708 0.67427 0.0
C252 C 0.73449 0.19217 0.72255 0.0
O253 O 0.55918 0.90841 0.71583 0.0
O254 O 0.56643 0.02027 0.70704 0.0
O255 O 0.76725 0.04654 0.75538 0.0
O256 O 0.64417 0.95744 0.75179 0.0
C257 C 0.81505 0.14334 0.67892 0.0
O258 O 0.69696 0.15926 0.70385 0.0
O259 O 0.75042 0.15319 0.7366 0.0
C260 C 0.52738 0.94908 0.71359 0.0
O261 O 0.74591 0.09645 0.67297 0.0
O262 O 0.83418 0.1568 0.70022 0.0
C263 C 0.80788 0.96898 0.72059 0.0
C264 C 0.72579 0.53986 0.07121 0.0
C265 C 0.76366 0.51895 0.05406 0.0
C266 C 0.64656 0.51818 0.06933 0.0
C267 C 0.60133 0.47441 1.05024 0.0
H268 H 0.75772 0.57405 0.08625 0.0
H269 H 0.61986 0.53311 0.0834 0.0
S270 S 0.66996 0.40539 1.00021 0.0
N271 N 0.74759 0.45226 1.01696 0.0
N272 N 0.59969 0.4115 1.0137 0.0
C273 C 0.63804 0.45355 1.03291 0.0
C274 C 0.71854 0.47556 1.03475 0.0
C275 C 0.24822 0.7097 0.20148 0.0
C276 C 0.26151 0.75414 0.22198 0.0
C277 C 0.18747 0.63148 0.19992 0.0
C278 C 0.13656 0.59325 0.21876 0.0
H279 H 0.28404 0.7359 0.18623 0.0
H280 H 0.18092 0.60024 0.18376 0.0
S281 S 0.14857 0.68062 0.27708 0.0
N282 N 0.21967 0.75165 0.26209 0.0
N283 N 0.1064 0.60553 0.25906 0.0
C284 C 0.14963 0.63644 0.23949 0.0
C285 C 0.21183 0.71608 0.24115 0.0
C286 C 0.48903 0.18153 0.39764 0.0
C287 C 0.52407 0.25371 0.38537 0.0
C288 C 0.51596 0.12735 0.39571 0.0
C289 C 0.5799 0.14275 0.38156 0.0
H290 H 0.43911 0.16575 0.40868 0.0
H291 H 0.48785 0.07415 0.40596 0.0
S292 S 0.6934 0.32265 0.34582 0.0
N293 N 0.62648 0.33655 0.3585 0.0
N294 N 0.67734 0.2362 0.35481 0.0
C295 C 0.61514 0.21443 0.36905 0.0
C296 C 0.5874 0.26928 0.37097 0.0
C297 C 0.32637 0.55132 0.53822 0.0
C298 C 0.28004 0.50565 0.55697 0.0
C299 C 0.40615 0.57532 0.53689 0.0
C300 C 0.44355 0.55352 0.5539 0.0
H301 H 0.30087 0.56857 0.52433 0.0
H302 H 0.43943 0.61257 0.52248 0.0
S303 S 0.35097 0.43551 0.60676 0.0
N304 N 0.27982 0.44061 0.59334 0.0
N305 N 0.42862 0.48476 0.59026 0.0
C306 C 0.39837 0.50734 0.57257 0.0
C307 C 0.31732 0.48395 0.57426 0.0
C308 C 0.78777 0.32638 0.70444 0.0
C309 C 0.78759 0.27952 0.72301 0.0
C310 C 0.84781 0.40443 0.70177 0.0
C311 C 0.91033 0.44042 0.71778 0.0
H312 H 0.74192 0.30209 0.69149 0.0
H313 H 0.84445 0.43706 0.68702 0.0
S314 S 0.93364 0.34681 0.77116 0.0
N315 N 0.85335 0.27786 0.75891 0.0
N316 N 0.96484 0.42362 0.75389 0.0
C317 C 0.90944 0.3952 0.73694 0.0
C318 C 0.84835 0.31564 0.73966 0.0
C319 C 0.45958 0.7638 0.87479 0.0
C320 C 0.52614 0.78052 0.88789 0.0
C321 C 0.43189 0.81745 0.87332 0.0
C322 C 0.46984 0.89155 0.8845 0.0
H323 H 0.42882 0.70895 0.86541 0.0
H324 H 0.3797 0.80035 0.86317 0.0
S325 S 0.64724 0.96563 0.92097 0.0
N326 N 0.62964 0.87824 0.91249 0.0
N327 N 0.57793 0.97793 0.90925 0.0
C328 C 0.53674 0.90939 0.89752 0.0
C329 C 0.56443 0.85431 0.89939 0.0
C330 C 0.61288 0.41009 0.88996 0.0
C331 C 0.57962 0.44703 0.87678 0.0
C332 C 0.58406 0.32863 0.88895 0.0
C333 C 0.52142 0.28 0.87433 0.0
H334 H 0.66204 0.44467 0.90129 0.0
H335 H 0.61082 0.30358 0.89986 0.0
S336 S 0.41459 0.34781 0.83562 0.0
N337 N 0.48103 0.42844 0.8485 0.0
N338 N 0.42723 0.27673 0.846 0.0
C339 C 0.48809 0.31668 0.86082 0.0
C340 C 0.51675 0.39944 0.86225 0.0
C341 C 0.1509 0.52243 1.02711 0.0
C342 C 0.14323 0.56026 1.04684 0.0
C343 C 0.20966 0.50195 1.02582 0.0
C344 C 0.26363 0.51831 1.04421 0.0
H345 H 0.11338 0.51155 1.01214 0.0
H346 H 0.21236 0.47246 1.01021 0.0
S347 S 0.26664 0.61612 0.1 0.0
N348 N 0.19375 0.61328 0.08519 0.0
N349 N 0.30296 0.57436 0.08309 0.0
C350 C 0.25574 0.55586 0.06413 0.0
C351 C 0.19601 0.57669 0.06536 0.0
C352 C 0.64415 0.20083 0.22455 0.0
C353 C 0.60618 0.13594 0.2093 0.0
C354 C 0.72235 0.25899 0.2215 0.0
C355 C 0.76619 0.2555 0.20284 0.0
H356 H 0.61277 0.20662 0.23917 0.0
H357 H 0.74983 0.3038 0.23474 0.0
S358 S 0.69149 0.10588 0.15561 0.0
N359 N 0.61644 0.07748 0.17327 0.0
N360 N 0.76292 0.18631 0.16726 0.0
C361 C 0.72725 0.19386 0.18652 0.0
C362 C 0.64797 0.13399 0.18989 0.0
C363 C 0.51404 0.63228 0.35736 0.0
C364 C 0.47318 0.58717 0.37682 0.0
C365 C 0.5388 0.71304 0.35616 0.0
C366 C 0.52383 0.75263 0.37435 0.0
H367 H 0.52489 0.60458 0.34264 0.0
H368 H 0.57096 0.74491 0.34086 0.0
S369 S 0.42 0.66022 0.42938 0.0
N370 N 0.41991 0.58794 0.41481 0.0
N371 N 0.46519 0.73811 0.41256 0.0
C372 C 0.48271 0.7075 0.39384 0.0
C373 C 0.45801 0.62563 0.39507 0.0
C374 C 0.84535 0.44908 0.56529 0.0
C375 C 0.90253 0.47013 0.54781 0.0
C376 C 0.78773 0.47116 0.56408 0.0
C377 C 0.78298 0.51377 0.54498 0.0
H378 H 0.8441 0.41341 0.57988 0.0
H379 H 0.74648 0.45442 0.57827 0.0
S380 S 0.91764 0.5808 0.49395 0.0
N381 N 0.95021 0.53501 0.51069 0.0
N382 N 0.84215 0.57538 0.50779 0.0
C383 C 0.8401 0.53485 0.52725 0.0
C384 C 0.89966 0.51359 0.52884 0.0
C385 C 0.40143 0.89456 0.69233 0.0
C386 C 0.44163 0.90139 0.71313 0.0
C387 C 0.32532 0.83233 0.68891 0.0
C388 C 0.28557 0.77452 0.70623 0.0
H389 H 0.42977 0.93605 0.67829 0.0
H390 H 0.29518 0.83209 0.67308 0.0
S391 S 0.36981 0.76037 0.76257 0.0
N392 N 0.43939 0.84064 0.75034 0.0
N393 N 0.29601 0.72529 0.7441 0.0
C394 C 0.32678 0.77867 0.72659 0.0
C395 C 0.4042 0.84197 0.73009 0.0
C396 C 0.27332 0.20617 0.97075 0.0
C397 C 0.33459 0.28003 0.97752 0.0
C398 C 0.2803 0.1666 0.95127 0.0
C399 C 0.34758 0.20035 0.93736 0.0
H400 H 0.22191 0.17618 0.98154 0.0
H401 H 0.23391 0.10794 0.94759 0.0
S402 S 0.52273 0.39402 0.94675 0.0
N403 N 0.46404 0.38596 0.96833 0.0
N404 N 0.47521 0.31315 0.93115 0.0
C405 C 0.4075 0.27566 0.94321 0.0
C406 C 0.40141 0.31512 0.96339 0.0
C407 C 0.17246 0.40496 0.14447 0.0
C408 C 0.09817 0.34012 0.14873 0.0
C409 C 0.21367 0.41115 0.12407 0.0
C410 C 0.18215 0.35376 0.1066 0.0
H411 H 0.20109 0.44999 0.15761 0.0
H412 H 0.2721 0.46026 0.12232 0.0
S413 S 0.98709 0.17626 0.10756 0.0
N414 N 0.9925 0.21966 0.13274 0.0
N415 N 0.06977 0.23276 0.09384 0.0
C416 C 0.10582 0.29137 0.10964 0.0
C417 C 0.06377 0.28429 0.13079 0.0
C418 C 0.86613 0.09599 0.27892 0.0
C419 C 0.8405 0.14308 0.26786 0.0
C420 C 0.82898 0.05283 0.29921 0.0
C421 C 0.76477 0.0551 0.30896 0.0
H422 H 0.91826 0.09678 0.27287 0.0
H423 H 0.8542 0.02232 0.30821 0.0
S424 S 0.66749 0.15836 0.2844 0.0
N425 N 0.74124 0.18119 0.26669 0.0
N426 N 0.67164 0.09994 0.30428 0.0
C427 C 0.73505 0.09656 0.29689 0.0
C428 C 0.77287 0.14061 0.27651 0.0
C429 C 0.62507 0.78808 0.45243 0.0
C430 C 0.68967 0.82864 0.43785 0.0
C431 C 0.62741 0.74561 0.47175 0.0
C432 C 0.69579 0.74429 0.47805 0.0
H433 H 0.5727 0.79093 0.44924 0.0
H434 H 0.57593 0.71709 0.48257 0.0
S435 S 0.88124 0.84084 0.44491 0.0
N436 N 0.82297 0.86256 0.43 0.0
N437 N 0.82951 0.78618 0.46709 0.0
C438 C 0.76044 0.78293 0.46305 0.0
C439 C 0.757 0.82453 0.44287 0.0
C440 C 0.92152 0.66381 0.60704 0.0
C441 C 0.87827 0.7028 0.60515 0.0
C442 C 0.96579 0.67156 0.62731 0.0
C443 C 0.96941 0.71986 0.64596 0.0
H444 H 0.91671 0.62299 0.5936 0.0
H445 H 0.99308 0.63588 0.629 0.0
S446 S 0.87366 0.84067 0.64832 0.0
N447 N 0.84708 0.79579 0.62285 0.0
N448 N 0.93074 0.81141 0.6603 0.0
C449 C 0.9307 0.76296 0.64341 0.0
C450 C 0.88512 0.75426 0.62316 0.0
C451 C 0.30719 0.92802 0.79775 0.0
C452 C 0.28317 0.97584 0.80899 0.0
C453 C 0.26934 0.88541 0.77769 0.0
C454 C 0.20567 0.88835 0.76786 0.0
H455 H 0.3532 0.92021 0.8052 0.0
H456 H 0.28809 0.84703 0.77037 0.0
S457 S 0.12338 1.0095 0.78921 0.0
N458 N 0.19467 0.02815 0.80768 0.0
N459 N 0.12368 0.94746 0.76989 0.0
C460 C 0.18423 0.93997 0.77787 0.0
C461 C 0.22294 0.9838 0.79844 0.0
C462 C 0.76655 0.62702 0.95837 0.0
C463 C 0.75702 0.69238 0.95385 0.0
C464 C 0.80769 0.62409 0.97785 0.0
C465 C 0.83905 0.68482 0.9943 0.0
H466 H 0.746 0.57904 0.94607 0.0
H467 H 0.81691 0.57452 0.9797 0.0
S468 S 0.81931 0.86236 0.99346 0.0
N469 N 0.77589 0.81583 0.96917 0.0
N470 N 0.84966 0.80764 1.00663 0.0
C471 C 0.82427 0.74719 0.99136 0.0
C472 C 0.78405 0.75153 0.97099 0.0
C473 C 0.14367 0.74286 0.12872 0.0
C474 C 0.0804 0.75145 0.12117 0.0
C475 C 0.18947 0.78426 0.14797 0.0
C476 C 0.17296 0.83441 0.16105 0.0
H477 H 0.16104 0.70714 0.11889 0.0
H478 H 0.23996 0.77898 0.15216 0.0
S479 S 1.01098 0.87358 0.15054 0.0
N480 N 1.00156 0.81179 0.12961 0.0
N481 N 0.08659 0.88721 0.16632 0.0
C482 C 0.10729 0.84003 0.15486 0.0
C483 C 0.06108 0.79889 0.13489 0.0
C484 C 0.28418 0.04489 0.30141 0.0
C485 C 0.35215 0.07052 0.28786 0.0
C486 C 0.28373 0.08597 0.32155 0.0
C487 C 0.35107 0.15418 0.32881 0.0
H488 H 0.22981 0.9954 0.29573 0.0
H489 H 0.22952 0.06671 0.33071 0.0
S490 S 0.54536 0.24236 0.30131 0.0
N491 N 0.49045 0.16526 0.28501 0.0
N492 N 0.48796 0.24268 0.32205 0.0
C493 C 0.41996 0.17775 0.31634 0.0
C494 C 0.421 0.13577 0.29615 0.0
C495 C 0.26848 0.28673 0.47215 0.0
C496 C 0.29004 0.34231 0.45397 0.0
C497 C 0.22686 0.2891 0.49198 0.0
C498 C 0.20405 0.34625 0.4941 0.0
H499 H 0.28205 0.23998 0.47077 0.0
H500 H 0.20949 0.24404 0.50517 0.0
S501 S 0.24545 0.50569 0.45221 0.0
N502 N 0.28499 0.45755 0.44039 0.0
N503 N 0.20842 0.46087 0.47707 0.0
C504 C 0.22701 0.403 0.47653 0.0
C505 C 0.26942 0.40135 0.45667 0.0
C506 C 0.97691 0.22189 0.63361 0.0
C507 C 0.96401 0.27655 0.62128 0.0
C508 C 0.93103 0.18126 0.6531 0.0
C509 C 0.87021 0.19319 0.66066 0.0
H510 H 1.0194 0.20689 0.62737 0.0
H511 H 0.94053 0.13744 0.66154 0.0
S512 S 0.81785 0.3353 0.63642 0.0
N513 N 0.8914 0.34649 0.62022 0.0
N514 N 0.8028 0.26629 0.65548 0.0
C515 C 0.85935 0.25002 0.6493 0.0
C516 C 0.90707 0.2929 0.63005 0.0
C517 C 0.7681 0.92754 0.81701 0.0
C518 C 0.6983 0.88139 0.82905 0.0
C519 C 0.77045 0.97116 0.79728 0.0
C520 C 0.70258 0.96881 0.78859 0.0
H521 H 0.82043 0.92704 0.82223 0.0
H522 H 0.82481 1.00244 0.78787 0.0
S523 S 0.50665 0.86163 0.81522 0.0
N524 N 0.56122 0.83993 0.83199 0.0
N525 N 0.5651 0.92119 0.7949 0.0
C526 C 0.63341 0.92608 0.80131 0.0
C527 C 0.63136 0.88237 0.8215 0.0
C528 C 0.38653 0.128 0.13068 0.0
C529 C 0.4104 0.16513 0.15242 0.0
C530 C 0.38486 0.16914 0.11093 0.0
C531 C 0.40776 0.24941 0.11205 0.0
H532 H 0.3661 0.06594 0.12909 0.0
H533 H 0.36389 0.13695 0.09474 0.0
S534 S 0.48463 0.37546 0.16461 0.0
N535 N 0.46384 0.28763 0.17376 0.0
N536 N 0.46138 0.36554 0.13663 0.0
C537 C 0.43538 0.28801 0.13356 0.0
C538 C 0.43647 0.24574 0.15373 0.0
C539 C 0.21827 0.44368 0.28783 0.0
C540 C 0.13652 0.39665 0.28672 0.0
C541 C 0.26202 0.43388 0.30551 0.0
C542 C 0.22595 0.37687 0.32296 0.0
H543 H 0.24924 0.48792 0.27467 0.0
H544 H 0.32453 0.47173 0.30557 0.0
S545 S 1.01402 0.23582 0.32768 0.0
N546 N 1.0217 0.28916 0.30452 0.0
N547 N 0.10338 0.27106 0.33773 0.0
C548 C 0.14418 0.32954 0.32217 0.0
C549 C 0.09965 0.33943 0.30413 0.0
C550 C 0.76509 0.13718 0.46607 0.0
C551 C 0.79873 0.16233 0.44389 0.0
C552 C 0.80464 0.17701 0.48638 0.0
C553 C 0.87876 0.24438 0.4853 0.0
H554 H 0.70887 0.08485 0.46784 0.0
H555 H 0.77717 0.15431 0.50311 0.0
S556 S 0.99186 0.33614 0.4316 0.0
N557 N 0.91048 0.26056 0.42214 0.0
N558 N 0.98378 0.3352 0.46027 0.0
C559 C 0.91216 0.27153 0.46325 0.0
C560 C 0.87247 0.23056 0.44259 0.0
C561 C 0.62691 0.75296 0.63487 0.0
C562 C 0.6439 0.78841 0.61268 0.0
C563 C 0.62434 0.79339 0.65475 0.0
C564 C 0.63808 0.87067 0.65329 0.0
H565 H 0.61709 0.69408 0.63702 0.0
H566 H 0.61173 0.76388 0.67145 0.0
S567 S 0.6836 0.9902 0.59946 0.0
N568 N 0.673 0.9058 0.59054 0.0
N569 N 0.66837 0.98085 0.62787 0.0
C570 C 0.6533 0.90623 0.63121 0.0
C571 C 0.65636 0.86546 0.61097 0.0
C572 C 0.9358 0.67434 0.80293 0.0
C573 C 0.89916 0.63322 0.78244 0.0
C574 C 0.89339 0.68364 0.82108 0.0
C575 C 0.81196 0.65243 0.81963 0.0
H576 H 0.99837 0.7011 0.80489 0.0
H577 H 0.92518 0.71635 0.83629 0.0
S578 S 0.68702 0.53889 0.76979 0.0
N579 N 0.7754 0.56001 0.76194 0.0
N580 N 0.69646 0.57788 0.79591 0.0
C581 C 0.77439 0.61068 0.79933 0.0
C582 C 0.81748 0.60082 0.78083 0.0
C583 C 0.23692 0.85887 0.98656 0.0
C584 C 0.16504 0.78881 0.98519 0.0
C585 C 0.27708 0.89897 0.96638 0.0
C586 C 0.2463 0.87136 0.94402 0.0
H587 H 0.26231 0.88332 1.0034 0.0
H588 H 0.33154 0.95322 0.96837 0.0
S589 S 0.06019 0.69023 0.93082 0.0
N590 N 0.06535 0.69298 0.95959 0.0
N591 N 0.13993 0.76839 0.92172 0.0
C592 C 0.17482 0.80082 0.9424 0.0
C593 C 0.13451 0.75954 0.96294 0.0
C594 C 0.17906 0.0676 0.06977 0.0
C595 C 0.1664 0.10138 1.04999 0.0
C596 C 0.13824 0.987 0.07267 0.0
C597 C 0.08429 0.93902 0.05576 0.0
H598 H 0.22318 0.10334 0.08245 0.0
H599 H 0.15169 0.96182 0.08758 0.0
S600 S 0.02794 1.0022 1.00185 0.0
N601 N 0.09415 0.08424 1.01421 0.0
N602 N 1.0169 0.93083 1.01943 0.0
C603 C 0.06766 0.97288 1.03667 0.0
C604 C 0.10932 0.05512 1.03378 0.0
C605 C 0.13286 0.08198 0.2366 0.0
C606 C 0.18669 0.0945 0.21898 0.0
C607 C 0.10544 0.13434 0.23939 0.0
C608 C 0.13386 0.20063 0.22509 0.0
H609 H 0.11464 0.03378 0.24874 0.0
H610 H 0.06202 0.12311 0.25259 0.0
S611 S 0.26914 0.25419 0.17534 0.0
N612 N 0.26222 0.17304 0.186 0.0
N613 N 0.21298 0.27354 0.19198 0.0
C614 C 0.18622 0.21255 0.20721 0.0
C615 C 0.21205 0.1585 0.20393 0.0
C616 C 0.05463 0.15451 0.40766 0.0
C617 C 0.10515 0.14977 0.39151 0.0
C618 C 0.97485 0.11315 0.40394 0.0
C619 C 0.94445 0.06681 0.38397 0.0
H620 H 0.07708 0.19296 0.42267 0.0
H621 H 0.93708 0.12048 0.41608 0.0
S622 S 0.05173 0.0336 0.33692 0.0
N623 N 0.11951 0.0932 0.35537 0.0
N624 N 0.96799 1.01552 0.34836 0.0
C625 C 0.99349 0.05836 0.36829 0.0
C626 C 0.07477 0.09997 0.37212 0.0
C627 C 0.90611 0.03942 0.57098 0.0
C628 C 0.958 0.08854 0.55391 0.0
C629 C 0.86619 0.95906 0.56777 0.0
C630 C 0.87713 0.92678 0.5474 0.0
H631 H 0.89383 0.06346 0.58636 0.0
H632 H 0.82399 0.92229 0.58073 0.0
S633 S 1.01013 0.0299 0.49845 0.0
N634 N 1.02247 0.09986 0.51681 0.0
N635 N 0.94543 0.94678 0.5107 0.0
C636 C 0.93198 0.97433 0.53086 0.0
C637 C 0.97334 0.05635 0.53419 0.0
C638 C 0.9632 0.9161 0.72423 0.0
C639 C 0.91928 0.83515 0.72032 0.0
C640 C 0.92817 0.96205 0.72283 0.0
C641 C 0.84925 0.92717 0.71724 0.0
H642 H 1.02447 0.94352 0.72855 0.0
H643 H 0.96173 0.02377 0.72701 0.0
S644 S 0.71373 0.71911 0.70213 0.0
N645 N 0.79675 0.72318 0.70849 0.0
N646 N 0.73021 0.8092 0.70557 0.0
C647 C 0.80621 0.84677 0.71213 0.0
C648 C 0.84141 0.80041 0.71389 0.0
C649 C 0.05198 0.92941 0.86022 0.0
C650 C 0.10272 0.96974 0.87867 0.0
C651 C 0.97208 0.88953 0.86381 0.0
C652 C 0.942 0.88837 0.88599 0.0
H653 H 0.07432 0.92558 0.84332 0.0
H654 H 0.93395 0.85564 0.84962 0.0
S655 S 0.05068 0.9869 0.93946 0.0
N656 N 0.11814 1.00963 0.91933 0.0
N657 N 0.96649 0.93215 0.92624 0.0
C658 C 0.99157 0.93124 0.90425 0.0
C659 C 0.07287 0.97297 0.9005 0.0
loop_
_geom_bond_atom_site_label_1
_geom_bond_atom_site_label_2
_geom_bond_distance
_geom_bond_site_symmetry_2
_ccdc_geom_bond_type
Fe0 O2 1.918 1_556 S
Fe0 O5 1.997 1_556 S
Fe0 O6 2.003 . S
Fe0 O11 1.976 . S
Fe0 O14 1.996 . S
Fe1 O2 1.918 . S
Fe1 O9 1.997 . S
Fe1 O12 1.996 1_554 S
Fe1 O16 1.977 . S
Fe1 O19 2.002 . S
O2 Fe0 1.918 1_554 S
O2 Fe1 1.918 . S
O2 Fe3 1.918 . S
Fe3 O2 1.918 . S
Fe3 O4 2.002 . S
Fe3 O13 1.976 . S
Fe3 O17 1.996 . S
Fe3 O20 1.997 . S
O4 Fe3 2.002 . S
O4 C21 1.295 . S
O5 Fe0 1.997 1_554 S
O5 C21 1.235 . S
O6 Fe0 2.003 . S
O6 C7 1.294 1_556 S
C7 O6 1.294 1_554 S
C7 O9 1.235 . S
C8 O13 1.287 . S
C8 O14 1.255 1_554 S
O9 Fe1 1.997 . S
O9 C7 1.235 . S
C10 O16 1.295 . S
C10 O17 1.255 . S
O11 Fe0 1.976 . S
O11 C18 1.287 . S
O12 Fe1 1.996 1_556 S
O12 C18 1.255 . S
O13 Fe3 1.976 . S
O13 C8 1.287 . S
O14 Fe0 1.996 . S
O14 C8 1.255 1_556 S
C15 O19 1.295 . S
C15 O20 1.235 . S
O16 Fe1 1.977 . S
O16 C10 1.295 . S
O17 Fe3 1.996 . S
O17 C10 1.255 . S
C18 O11 1.287 . S
C18 O12 1.255 . S
O19 Fe1 2.002 . S
O19 C15 1.295 . S
O20 Fe3 1.997 . S
O20 C15 1.235 . S
C21 O4 1.295 . S
C21 O5 1.235 . S
Fe22 O24 1.918 . S
Fe22 O27 1.997 1_655 S
Fe22 O28 2.002 . S
Fe22 O33 1.976 . S
Fe22 O36 1.996 . S
Fe23 O24 1.918 . S
Fe23 O31 1.997 . S
Fe23 O34 1.996 . S
Fe23 O38 1.976 . S
Fe23 O41 2.002 . S
O24 Fe22 1.918 . S
O24 Fe23 1.918 . S
O24 Fe25 1.918 1_655 S
Fe25 O24 1.918 1_455 S
Fe25 O26 2.002 . S
Fe25 O35 1.976 . S
Fe25 O39 1.996 . S
Fe25 O42 1.997 . S
O26 Fe25 2.002 . S
O26 C43 1.295 . S
O27 Fe22 1.997 1_455 S
O27 C43 1.235 . S
O28 Fe22 2.002 . S
O28 C29 1.295 . S
C29 O28 1.295 . S
C29 O31 1.235 . S
C30 O35 1.287 . S
C30 O36 1.255 1_455 S
O31 Fe23 1.997 . S
O31 C29 1.235 . S
C32 O38 1.287 . S
C32 O39 1.255 1_655 S
O33 Fe22 1.976 . S
O33 C40 1.287 . S
O34 Fe23 1.996 . S
O34 C40 1.255 . S
O35 Fe25 1.976 . S
O35 C30 1.287 . S
O36 Fe22 1.996 . S
O36 C30 1.255 1_655 S
C37 O41 1.295 1_455 S
C37 O42 1.235 . S
O38 Fe23 1.976 . S
O38 C32 1.287 . S
O39 Fe25 1.996 . S
O39 C32 1.255 1_455 S
C40 O33 1.287 . S
C40 O34 1.255 . S
O41 Fe23 2.002 . S
O41 C37 1.295 1_655 S
O42 Fe25 1.997 . S
O42 C37 1.235 . S
C43 O26 1.295 . S
C43 O27 1.235 . S
Fe44 O46 1.918 . S
Fe44 O49 1.997 . S
Fe44 O50 2.002 . S
Fe44 O55 1.976 . S
Fe44 O58 1.996 . S
Fe45 O46 1.918 1_545 S
Fe45 O53 1.997 . S
Fe45 O56 1.996 . S
Fe45 O60 1.976 . S
Fe45 O63 2.002 . S
O46 Fe44 1.918 . S
O46 Fe45 1.918 1_565 S
O46 Fe47 1.918 . S
Fe47 O46 1.918 . S
Fe47 O48 2.002 . S
Fe47 O57 1.976 . S
Fe47 O61 1.996 . S
Fe47 O64 1.997 1_565 S
O48 Fe47 2.002 . S
O48 C65 1.295 . S
O49 Fe44 1.997 . S
O49 C65 1.235 . S
O50 Fe44 2.002 . S
O50 C51 1.295 1_565 S
C51 O50 1.295 1_545 S
C51 O53 1.235 . S
C52 O57 1.287 . S
C52 O58 1.255 . S
O53 Fe45 1.997 . S
O53 C51 1.235 . S
C54 O60 1.287 . S
C54 O61 1.255 1_545 S
O55 Fe44 1.976 . S
O55 C62 1.287 . S
O56 Fe45 1.996 . S
O56 C62 1.255 1_545 S
O57 Fe47 1.976 . S
O57 C52 1.287 . S
O58 Fe44 1.996 . S
O58 C52 1.255 . S
C59 O63 1.295 . S
C59 O64 1.235 . S
O60 Fe45 1.976 . S
O60 C54 1.287 . S
O61 Fe47 1.996 . S
O61 C54 1.255 1_565 S
C62 O55 1.287 . S
C62 O56 1.255 1_565 S
O63 Fe45 2.002 . S
O63 C59 1.295 . S
O64 Fe47 1.997 1_545 S
O64 C59 1.235 . S
C65 O48 1.295 . S
C65 O49 1.235 . S
Fe66 O68 1.918 . S
Fe66 O71 1.997 . S
Fe66 O72 2.002 . S
Fe66 O77 1.976 . S
Fe66 O80 1.996 . S
Fe67 O68 1.918 . S
Fe67 O75 1.997 . S
Fe67 O78 1.996 . S
Fe67 O82 1.976 . S
Fe67 O85 2.002 . S
O68 Fe66 1.918 . S
O68 Fe67 1.918 . S
O68 Fe69 1.918 . S
Fe69 O68 1.918 . S
Fe69 O70 2.002 . S
Fe69 O79 1.976 . S
Fe69 O83 1.996 . S
Fe69 O86 1.997 . S
O70 Fe69 2.002 . S
O70 C87 1.295 . S
O71 Fe66 1.997 . S
O71 C87 1.235 . S
O72 Fe66 2.002 . S
O72 C73 1.295 . S
C73 O72 1.295 . S
C73 O75 1.235 . S
C74 O79 1.287 . S
C74 O80 1.255 . S
O75 Fe67 1.997 . S
O75 C73 1.235 . S
C76 O82 1.287 . S
C76 O83 1.255 . S
O77 Fe66 1.976 . S
O77 C84 1.287 . S
O78 Fe67 1.996 . S
O78 C84 1.255 . S
O79 Fe69 1.976 . S
O79 C74 1.287 . S
O80 Fe66 1.996 . S
O80 C74 1.255 . S
C81 O85 1.295 . S
C81 O86 1.235 . S
O82 Fe67 1.976 . S
O82 C76 1.287 . S
O83 Fe69 1.996 . S
O83 C76 1.255 . S
C84 O77 1.287 . S
C84 O78 1.255 . S
O85 Fe67 2.002 . S
O85 C81 1.295 . S
O86 Fe69 1.997 . S
O86 C81 1.235 . S
C87 O70 1.295 . S
C87 O71 1.235 . S
Fe88 O90 1.918 . S
Fe88 O93 1.997 1_455 S
Fe88 O94 2.002 . S
Fe88 O99 1.976 . S
Fe88 O102 1.996 . S
Fe89 O90 1.918 . S
Fe89 O97 1.997 . S
Fe89 O100 1.996 . S
Fe89 O104 1.976 . S
Fe89 O107 2.002 . S
O90 Fe88 1.918 . S
O90 Fe89 1.918 . S
O90 Fe91 1.918 1_455 S
Fe91 O90 1.918 1_655 S
Fe91 O92 2.002 . S
Fe91 O101 1.976 . S
Fe91 O105 1.996 . S
Fe91 O108 1.997 . S
O92 Fe91 2.002 . S
O92 C109 1.295 . S
O93 Fe88 1.997 1_655 S
O93 C109 1.235 . S
O94 Fe88 2.002 . S
O94 C95 1.295 . S
C95 O94 1.295 . S
C95 O97 1.235 . S
C96 O101 1.287 . S
C96 O102 1.255 1_655 S
O97 Fe89 1.997 . S
O97 C95 1.235 . S
C98 O104 1.287 . S
C98 O105 1.255 1_455 S
O99 Fe88 1.976 . S
O99 C106 1.287 . S
O100 Fe89 1.996 . S
O100 C106 1.255 . S
O101 Fe91 1.976 . S
O101 C96 1.287 . S
O102 Fe88 1.996 . S
O102 C96 1.255 1_455 S
C103 O107 1.295 1_655 S
C103 O108 1.235 . S
O104 Fe89 1.976 . S
O104 C98 1.287 . S
O105 Fe91 1.996 . S
O105 C98 1.255 1_655 S
C106 O99 1.287 . S
C106 O100 1.255 . S
O107 Fe89 2.002 . S
O107 C103 1.295 1_455 S
O108 Fe91 1.997 . S
O108 C103 1.235 . S
C109 O92 1.295 . S
C109 O93 1.235 . S
Fe110 O112 1.918 . S
Fe110 O115 1.997 . S
Fe110 O116 2.002 . S
Fe110 O121 1.976 . S
Fe110 O124 1.996 . S
Fe111 O112 1.918 1_565 S
Fe111 O119 1.997 . S
Fe111 O122 1.996 . S
Fe111 O126 1.976 . S
Fe111 O129 2.002 . S
O112 Fe110 1.918 . S
O112 Fe111 1.918 1_545 S
O112 Fe113 1.918 . S
Fe113 O112 1.918 . S
Fe113 O114 2.002 . S
Fe113 O123 1.976 . S
Fe113 O127 1.996 . S
Fe113 O130 1.997 1_545 S
O114 Fe113 2.002 . S
O114 C131 1.295 . S
O115 Fe110 1.997 . S
O115 C131 1.235 . S
O116 Fe110 2.002 . S
O116 C117 1.295 1_545 S
C117 O116 1.295 1_565 S
C117 O119 1.235 . S
C118 O123 1.287 . S
C118 O124 1.255 . S
O119 Fe111 1.997 . S
O119 C117 1.235 . S
C120 O126 1.287 . S
C120 O127 1.255 1_565 S
O121 Fe110 1.976 . S
O121 C128 1.287 . S
O122 Fe111 1.996 . S
O122 C128 1.255 1_565 S
O123 Fe113 1.976 . S
O123 C118 1.287 . S
O124 Fe110 1.996 . S
O124 C118 1.255 . S
C125 O129 1.295 . S
C125 O130 1.235 . S
O126 Fe111 1.976 . S
O126 C120 1.287 . S
O127 Fe113 1.996 . S
O127 C120 1.255 1_545 S
C128 O121 1.287 . S
C128 O122 1.255 1_545 S
O129 Fe111 2.002 . S
O129 C125 1.295 . S
O130 Fe113 1.997 1_565 S
O130 C125 1.235 . S
C131 O114 1.295 . S
C131 O115 1.235 . S
Fe132 O134 1.918 . S
Fe132 O137 1.997 . S
Fe132 O138 2.002 . S
Fe132 O143 1.976 . S
Fe132 O146 1.996 . S
Fe133 O134 1.918 . S
Fe133 O141 1.997 . S
Fe133 O144 1.996 . S
Fe133 O148 1.976 . S
Fe133 O151 2.002 . S
O134 Fe132 1.918 . S
O134 Fe133 1.918 . S
O134 Fe135 1.918 . S
Fe135 O134 1.918 . S
Fe135 O136 2.002 . S
Fe135 O145 1.976 . S
Fe135 O149 1.996 . S
Fe135 O152 1.997 . S
O136 Fe135 2.002 . S
O136 C153 1.295 . S
O137 Fe132 1.997 . S
O137 C153 1.235 . S
O138 Fe132 2.002 . S
O138 C139 1.295 . S
C139 O138 1.295 . S
C139 O141 1.235 . S
C140 O145 1.287 . S
C140 O146 1.255 . S
O141 Fe133 1.997 . S
O141 C139 1.235 . S
C142 O148 1.287 . S
C142 O149 1.255 . S
O143 Fe132 1.976 . S
O143 C150 1.287 . S
O144 Fe133 1.996 . S
O144 C150 1.255 . S
O145 Fe135 1.976 . S
O145 C140 1.287 . S
O146 Fe132 1.996 . S
O146 C140 1.255 . S
C147 O151 1.295 . S
C147 O152 1.235 . S
O148 Fe133 1.976 . S
O148 C142 1.287 . S
O149 Fe135 1.996 . S
O149 C142 1.255 . S
C150 O143 1.287 . S
C150 O144 1.255 . S
O151 Fe133 2.002 . S
O151 C147 1.295 . S
O152 Fe135 1.997 . S
O152 C147 1.235 . S
C153 O136 1.295 . S
C153 O137 1.235 . S
Fe154 O156 1.918 1_455 S
Fe154 O159 1.997 . S
Fe154 O160 2.002 . S
Fe154 O165 1.976 . S
Fe154 O168 1.996 1_556 S
Fe155 O156 1.918 . S
Fe155 O163 1.997 1_655 S
Fe155 O166 1.996 . S
Fe155 O170 1.976 . S
Fe155 O173 2.002 . S
O156 Fe154 1.918 1_655 S
O156 Fe155 1.918 . S
O156 Fe157 1.912 1_556 S
Fe157 O156 1.912 1_554 S
Fe157 O158 2.001 1_554 S
Fe157 O167 1.990 . S
Fe157 O171 1.998 . S
Fe157 O174 1.983 1_554 S
O158 Fe157 2.001 1_556 S
O158 C175 1.295 1_655 S
O159 Fe154 1.997 . S
O159 C175 1.235 . S
O160 Fe154 2.002 . S
O160 C161 1.295 . S
C161 O160 1.295 . S
C161 O163 1.235 . S
C162 O167 1.287 . S
C162 O168 1.255 1_655 S
O163 Fe155 1.997 1_455 S
O163 C161 1.235 . S
C164 O170 1.287 . S
C164 O171 1.255 1_556 S
O165 Fe154 1.976 . S
O165 C172 1.287 . S
O166 Fe155 1.996 . S
O166 C172 1.255 1_655 S
O167 Fe157 1.990 . S
O167 C162 1.287 . S
O168 Fe154 1.996 1_554 S
O168 C162 1.255 1_455 S
C169 O173 1.295 . S
C169 O174 1.235 . S
O170 Fe155 1.976 . S
O170 C164 1.287 . S
O171 Fe157 1.998 . S
O171 C164 1.255 1_554 S
C172 O165 1.287 . S
C172 O166 1.255 1_455 S
O173 Fe155 2.002 . S
O173 C169 1.295 . S
O174 Fe157 1.983 1_556 S
O174 C169 1.235 . S
C175 O158 1.295 1_455 S
C175 O159 1.235 . S
Fe176 O178 1.918 1_545 S
Fe176 O181 1.997 . S
Fe176 O182 2.002 . S
Fe176 O187 1.976 . S
Fe176 O190 1.996 . S
Fe177 O178 1.918 . S
Fe177 O185 1.997 1_565 S
Fe177 O188 1.996 . S
Fe177 O192 1.976 . S
Fe177 O195 2.002 . S
O178 Fe176 1.918 1_565 S
O178 Fe177 1.918 . S
O178 Fe179 1.918 . S
Fe179 O178 1.918 . S
Fe179 O180 2.002 . S
Fe179 O189 1.976 . S
Fe179 O193 1.996 . S
Fe179 O196 1.997 . S
O180 Fe179 2.002 . S
O180 C197 1.295 1_565 S
O181 Fe176 1.997 . S
O181 C197 1.235 . S
O182 Fe176 2.002 . S
O182 C183 1.295 . S
C183 O182 1.295 . S
C183 O185 1.235 . S
C184 O189 1.287 . S
C184 O190 1.255 1_565 S
O185 Fe177 1.997 1_545 S
O185 C183 1.235 . S
C186 O192 1.287 . S
C186 O193 1.255 . S
O187 Fe176 1.976 . S
O187 C194 1.287 . S
O188 Fe177 1.996 . S
O188 C194 1.255 1_565 S
O189 Fe179 1.976 . S
O189 C184 1.287 . S
O190 Fe176 1.996 . S
O190 C184 1.255 1_545 S
C191 O195 1.295 . S
C191 O196 1.235 . S
O192 Fe177 1.976 . S
O192 C186 1.287 . S
O193 Fe179 1.996 . S
O193 C186 1.255 . S
C194 O187 1.287 . S
C194 O188 1.255 1_545 S
O195 Fe177 2.002 . S
O195 C191 1.295 . S
O196 Fe179 1.997 . S
O196 C191 1.235 . S
C197 O180 1.295 1_545 S
C197 O181 1.235 . S
Fe198 O200 1.918 . S
Fe198 O203 1.997 . S
Fe198 O204 2.002 . S
Fe198 O209 1.976 . S
Fe198 O212 1.996 . S
Fe199 O200 1.918 . S
Fe199 O207 1.997 . S
Fe199 O210 1.996 . S
Fe199 O214 1.976 . S
Fe199 O217 2.002 . S
O200 Fe198 1.918 . S
O200 Fe199 1.918 . S
O200 Fe201 1.918 . S
Fe201 O200 1.918 . S
Fe201 O202 2.002 . S
Fe201 O211 1.976 . S
Fe201 O215 1.996 . S
Fe201 O218 1.997 . S
O202 Fe201 2.002 . S
O202 C219 1.295 . S
O203 Fe198 1.997 . S
O203 C219 1.235 . S
O204 Fe198 2.002 . S
O204 C205 1.295 . S
C205 O204 1.295 . S
C205 O207 1.235 . S
C206 O211 1.287 . S
C206 O212 1.255 . S
O207 Fe199 1.997 . S
O207 C205 1.235 . S
C208 O214 1.287 . S
C208 O215 1.255 . S
O209 Fe198 1.976 . S
O209 C216 1.287 . S
O210 Fe199 1.996 . S
O210 C216 1.255 . S
O211 Fe201 1.976 . S
O211 C206 1.287 . S
O212 Fe198 1.996 . S
O212 C206 1.255 . S
C213 O217 1.295 . S
C213 O218 1.235 . S
O214 Fe199 1.976 . S
O214 C208 1.287 . S
O215 Fe201 1.996 . S
O215 C208 1.255 . S
C216 O209 1.287 . S
C216 O210 1.255 . S
O217 Fe199 2.002 . S
O217 C213 1.295 . S
O218 Fe201 1.997 . S
O218 C213 1.235 . S
C219 O202 1.295 . S
C219 O203 1.235 . S
Fe220 O222 1.918 . S
Fe220 O225 1.997 1_455 S
Fe220 O226 2.002 . S
Fe220 O231 1.976 . S
Fe220 O234 1.996 . S
Fe221 O222 1.918 . S
Fe221 O229 1.997 . S
Fe221 O232 1.996 . S
Fe221 O236 1.976 . S
Fe221 O239 2.002 . S
O222 Fe220 1.918 . S
O222 Fe221 1.918 . S
O222 Fe223 1.918 1_455 S
Fe223 O222 1.918 1_655 S
Fe223 O224 2.002 . S
Fe223 O233 1.976 . S
Fe223 O237 1.996 . S
Fe223 O240 1.997 . S
O224 Fe223 2.002 . S
O224 C241 1.295 . S
O225 Fe220 1.997 1_655 S
O225 C241 1.235 . S
O226 Fe220 2.002 . S
O226 C227 1.295 . S
C227 O226 1.295 . S
C227 O229 1.235 . S
C228 O233 1.287 . S
C228 O234 1.255 1_655 S
O229 Fe221 1.997 . S
O229 C227 1.235 . S
C230 O236 1.287 . S
C230 O237 1.255 1_455 S
O231 Fe220 1.976 . S
O231 C238 1.287 . S
O232 Fe221 1.996 . S
O232 C238 1.255 . S
O233 Fe223 1.976 . S
O233 C228 1.287 . S
O234 Fe220 1.996 . S
O234 C228 1.255 1_455 S
C235 O239 1.295 1_655 S
C235 O240 1.235 . S
O236 Fe221 1.976 . S
O236 C230 1.287 . S
O237 Fe223 1.996 . S
O237 C230 1.255 1_655 S
C238 O231 1.287 . S
C238 O232 1.255 . S
O239 Fe221 2.002 . S
O239 C235 1.295 1_455 S
O240 Fe223 1.997 . S
O240 C235 1.235 . S
C241 O224 1.295 . S
C241 O225 1.235 . S
Fe242 O244 1.918 1_565 S
Fe242 O247 1.997 . S
Fe242 O248 2.002 . S
Fe242 O253 1.976 . S
Fe242 O256 1.996 . S
Fe243 O244 1.918 . S
Fe243 O251 1.997 1_545 S
Fe243 O254 1.996 . S
Fe243 O258 1.976 . S
Fe243 O261 2.002 . S
O244 Fe242 1.918 1_545 S
O244 Fe243 1.918 . S
O244 Fe245 1.918 . S
Fe245 O244 1.918 . S
Fe245 O246 2.002 . S
Fe245 O255 1.976 . S
Fe245 O259 1.996 . S
Fe245 O262 1.997 . S
O246 Fe245 2.002 . S
O246 C263 1.295 1_545 S
O247 Fe242 1.997 . S
O247 C263 1.235 . S
O248 Fe242 2.002 . S
O248 C249 1.295 . S
C249 O248 1.295 . S
C249 O251 1.235 . S
C250 O255 1.287 . S
C250 O256 1.255 1_545 S
O251 Fe243 1.997 1_565 S
O251 C249 1.235 . S
C252 O258 1.287 . S
C252 O259 1.255 . S
O253 Fe242 1.976 . S
O253 C260 1.287 . S
O254 Fe243 1.996 . S
O254 C260 1.255 1_545 S
O255 Fe245 1.976 . S
O255 C250 1.287 . S
O256 Fe242 1.996 . S
O256 C250 1.255 1_565 S
C257 O261 1.295 . S
C257 O262 1.235 . S
O258 Fe243 1.976 . S
O258 C252 1.287 . S
O259 Fe245 1.996 . S
O259 C252 1.255 . S
C260 O253 1.287 . S
C260 O254 1.255 1_565 S
O261 Fe243 2.002 . S
O261 C257 1.295 . S
O262 Fe245 1.997 . S
O262 C257 1.235 . S
C263 O246 1.295 1_565 S
C263 O247 1.235 . S
C264 C265 1.369 1_556 S
C264 C266 1.419 . S
C264 H268 0.930 . S
C265 C264 1.369 1_554 S
C265 C274 1.429 . S
C266 C264 1.419 . S
C266 C267 1.363 1_556 S
C266 H269 0.929 . S
C267 C266 1.363 1_554 S
C267 C273 1.428 . S
H268 C264 0.930 . S
H269 C266 0.929 . S
S270 N271 1.613 . S
S270 N272 1.610 . S
N271 S270 1.613 . S
N271 C274 1.350 . S
N272 S270 1.610 . S
N272 C273 1.351 . S
C273 C267 1.428 . S
C273 N272 1.351 . S
C273 C274 1.434 . S
C274 C265 1.429 . S
C274 N271 1.350 . S
C274 C273 1.434 . S
C275 C276 1.369 . S
C275 C277 1.419 . S
C275 H279 0.930 . S
C276 C275 1.369 . S
C276 C285 1.429 . S
C277 C275 1.419 . S
C277 C278 1.363 . S
C277 H280 0.929 . S
C278 C277 1.363 . S
C278 C284 1.428 . S
H279 C275 0.930 . S
H280 C277 0.929 . S
S281 N282 1.613 . S
S281 N283 1.610 . S
N282 S281 1.613 . S
N282 C285 1.350 . S
N283 S281 1.610 . S
N283 C284 1.351 . S
C284 C278 1.428 . S
C284 N283 1.351 . S
C284 C285 1.434 . S
C285 C276 1.429 . S
C285 N282 1.350 . S
C285 C284 1.434 . S
C286 C287 1.369 . S
C286 C288 1.419 . S
C286 H290 0.930 . S
C287 C286 1.369 . S
C287 C296 1.429 . S
C288 C286 1.419 . S
C288 C289 1.363 . S
C288 H291 0.929 . S
C289 C288 1.363 . S
C289 C295 1.428 . S
H290 C286 0.930 . S
H291 C288 0.929 . S
S292 N293 1.613 . S
S292 N294 1.610 . S
N293 S292 1.613 . S
N293 C296 1.350 . S
N294 S292 1.610 . S
N294 C295 1.351 . S
C295 C289 1.428 . S
C295 N294 1.351 . S
C295 C296 1.434 . S
C296 C287 1.429 . S
C296 N293 1.350 . S
C296 C295 1.434 . S
C297 C298 1.369 . S
C297 C299 1.419 . S
C297 H301 0.930 . S
C298 C297 1.369 . S
C298 C307 1.429 . S
C299 C297 1.419 . S
C299 C300 1.363 . S
C299 H302 0.929 . S
C300 C299 1.363 . S
C300 C306 1.428 . S
H301 C297 0.930 . S
H302 C299 0.929 . S
S303 N304 1.613 . S
S303 N305 1.610 . S
N304 S303 1.613 . S
N304 C307 1.350 . S
N305 S303 1.610 . S
N305 C306 1.351 . S
C306 C300 1.428 . S
C306 N305 1.351 . S
C306 C307 1.434 . S
C307 C298 1.429 . S
C307 N304 1.350 . S
C307 C306 1.434 . S
C308 C309 1.369 . S
C308 C310 1.419 . S
C308 H312 0.930 . S
C309 C308 1.369 . S
C309 C318 1.429 . S
C310 C308 1.419 . S
C310 C311 1.363 . S
C310 H313 0.929 . S
C311 C310 1.363 . S
C311 C317 1.428 . S
H312 C308 0.930 . S
H313 C310 0.929 . S
S314 N315 1.613 1_455 S
S314 N316 1.610 . S
N315 S314 1.613 1_655 S
N315 C318 1.350 . S
N316 S314 1.610 . S
N316 C317 1.351 1_455 S
C317 C311 1.428 . S
C317 N316 1.351 1_655 S
C317 C318 1.434 . S
C318 C309 1.429 . S
C318 N315 1.350 . S
C318 C317 1.434 . S
C319 C320 1.369 . S
C319 C321 1.419 . S
C319 H323 0.930 . S
C320 C319 1.369 . S
C320 C329 1.429 . S
C321 C319 1.419 . S
C321 C322 1.363 . S
C321 H324 0.929 . S
C322 C321 1.363 . S
C322 C328 1.428 . S
H323 C319 0.930 . S
H324 C321 0.929 . S
S325 N326 1.613 . S
S325 N327 1.610 . S
N326 S325 1.613 . S
N326 C329 1.350 . S
N327 S325 1.610 . S
N327 C328 1.351 . S
C328 C322 1.428 . S
C328 N327 1.351 . S
C328 C329 1.434 . S
C329 C320 1.429 . S
C329 N326 1.350 . S
C329 C328 1.434 . S
C330 C331 1.369 . S
C330 C332 1.419 . S
C330 H334 0.930 . S
C331 C330 1.369 . S
C331 C340 1.429 . S
C332 C330 1.419 . S
C332 C333 1.363 . S
C332 H335 0.929 . S
C333 C332 1.363 . S
C333 C339 1.428 . S
H334 C330 0.930 . S
H335 C332 0.929 . S
S336 N337 1.613 . S
S336 N338 1.610 . S
N337 S336 1.613 . S
N337 C340 1.350 . S
N338 S336 1.610 . S
N338 C339 1.351 . S
C339 C333 1.428 . S
C339 N338 1.351 . S
C339 C340 1.434 . S
C340 C331 1.429 . S
C340 N337 1.350 . S
C340 C339 1.434 . S
C341 C342 1.369 1_554 S
C341 C343 1.419 . S
C341 H345 0.930 . S
C342 C341 1.369 1_556 S
C342 C351 1.429 . S
C343 C341 1.419 . S
C343 C344 1.363 1_554 S
C343 H346 0.929 . S
C344 C343 1.363 1_556 S
C344 C350 1.428 . S
H345 C341 0.930 . S
H346 C343 0.929 . S
S347 N348 1.613 . S
S347 N349 1.610 . S
N348 S347 1.613 . S
N348 C351 1.350 . S
N349 S347 1.610 . S
N349 C350 1.351 . S
C350 C344 1.428 . S
C350 N349 1.351 . S
C350 C351 1.434 . S
C351 C342 1.429 . S
C351 N348 1.350 . S
C351 C350 1.434 . S
C352 C353 1.369 . S
C352 C354 1.419 . S
C352 H356 0.930 . S
C353 C352 1.369 . S
C353 C362 1.429 . S
C354 C352 1.419 . S
C354 C355 1.363 . S
C354 H357 0.929 . S
C355 C354 1.363 . S
C355 C361 1.428 . S
H356 C352 0.930 . S
H357 C354 0.929 . S
S358 N359 1.613 . S
S358 N360 1.610 . S
N359 S358 1.613 . S
N359 C362 1.350 . S
N360 S358 1.610 . S
N360 C361 1.351 . S
C361 C355 1.428 . S
C361 N360 1.351 . S
C361 C362 1.434 . S
C362 C353 1.429 . S
C362 N359 1.350 . S
C362 C361 1.434 . S
C363 C364 1.369 . S
C363 C365 1.419 . S
C363 H367 0.930 . S
C364 C363 1.369 . S
C364 C373 1.429 . S
C365 C363 1.419 . S
C365 C366 1.363 . S
C365 H368 0.929 . S
C366 C365 1.363 . S
C366 C372 1.428 . S
H367 C363 0.930 . S
H368 C365 0.929 . S
S369 N370 1.613 . S
S369 N371 1.610 . S
N370 S369 1.613 . S
N370 C373 1.350 . S
N371 S369 1.610 . S
N371 C372 1.351 . S
C372 C366 1.428 . S
C372 N371 1.351 . S
C372 C373 1.434 . S
C373 C364 1.429 . S
C373 N370 1.350 . S
C373 C372 1.434 . S
C374 C375 1.369 . S
C374 C376 1.419 . S
C374 H378 0.930 . S
C375 C374 1.369 . S
C375 C384 1.429 . S
C376 C374 1.419 . S
C376 C377 1.363 . S
C376 H379 0.929 . S
C377 C376 1.363 . S
C377 C383 1.428 . S
H378 C374 0.930 . S
H379 C376 0.929 . S
S380 N381 1.613 . S
S380 N382 1.610 . S
N381 S380 1.613 . S
N381 C384 1.350 . S
N382 S380 1.610 . S
N382 C383 1.351 . S
C383 C377 1.428 . S
C383 N382 1.351 . S
C383 C384 1.434 . S
C384 C375 1.429 . S
C384 N381 1.350 . S
C384 C383 1.434 . S
C385 C386 1.369 . S
C385 C387 1.419 . S
C385 H389 0.930 . S
C386 C385 1.369 . S
C386 C395 1.429 . S
C387 C385 1.419 . S
C387 C388 1.363 . S
C387 H390 0.929 . S
C388 C387 1.363 . S
C388 C394 1.428 . S
H389 C385 0.930 . S
H390 C387 0.929 . S
S391 N392 1.613 . S
S391 N393 1.610 . S
N392 S391 1.613 . S
N392 C395 1.350 . S
N393 S391 1.610 . S
N393 C394 1.351 . S
C394 C388 1.428 . S
C394 N393 1.351 . S
C394 C395 1.434 . S
C395 C386 1.429 . S
C395 N392 1.350 . S
C395 C394 1.434 . S
C396 C397 1.369 . S
C396 C398 1.419 . S
C396 H400 0.930 . S
C397 C396 1.369 . S
C397 C406 1.429 . S
C398 C396 1.419 . S
C398 C399 1.363 . S
C398 H401 0.929 . S
C399 C398 1.363 . S
C399 C405 1.428 . S
H400 C396 0.930 . S
H401 C398 0.929 . S
S402 N403 1.613 . S
S402 N404 1.610 . S
N403 S402 1.613 . S
N403 C406 1.350 . S
N404 S402 1.610 . S
N404 C405 1.351 . S
C405 C399 1.428 . S
C405 N404 1.351 . S
C405 C406 1.434 . S
C406 C397 1.429 . S
C406 N403 1.350 . S
C406 C405 1.434 . S
C407 C408 1.369 . S
C407 C409 1.419 . S
C407 H411 0.930 . S
C408 C407 1.369 . S
C408 C417 1.429 1_455 S
C409 C407 1.419 . S
C409 C410 1.363 . S
C409 H412 0.929 . S
C410 C409 1.363 . S
C410 C416 1.428 . S
H411 C407 0.930 . S
H412 C409 0.929 . S
S413 N414 1.613 . S
S413 N415 1.610 . S
N414 S413 1.613 . S
N414 C417 1.350 . S
N415 S413 1.610 . S
N415 C416 1.351 1_655 S
C416 C410 1.428 . S
C416 N415 1.351 1_455 S
C416 C417 1.434 1_455 S
C417 C408 1.429 1_655 S
C417 N414 1.350 . S
C417 C416 1.434 1_655 S
C418 C419 1.369 . S
C418 C420 1.419 1_545 S
C418 H422 0.930 1_545 S
C419 C418 1.369 . S
C419 C428 1.429 . S
C420 C418 1.419 1_565 S
C420 C421 1.363 1_565 S
C420 H423 0.929 . S
C421 C420 1.363 1_545 S
C421 C427 1.428 . S
H422 C418 0.930 1_565 S
H423 C420 0.929 . S
S424 N425 1.613 . S
S424 N426 1.610 . S
N425 S424 1.613 . S
N425 C428 1.350 . S
N426 S424 1.610 . S
N426 C427 1.351 . S
C427 C421 1.428 . S
C427 N426 1.351 . S
C427 C428 1.434 . S
C428 C419 1.429 . S
C428 N425 1.350 . S
C428 C427 1.434 . S
C429 C430 1.369 . S
C429 C431 1.419 . S
C429 H433 0.930 . S
C430 C429 1.369 . S
C430 C439 1.429 . S
C431 C429 1.419 . S
C431 C432 1.363 . S
C431 H434 0.929 . S
C432 C431 1.363 . S
C432 C438 1.428 . S
H433 C429 0.930 . S
H434 C431 0.929 . S
S435 N436 1.613 . S
S435 N437 1.610 . S
N436 S435 1.613 . S
N436 C439 1.350 . S
N437 S435 1.610 . S
N437 C438 1.351 . S
C438 C432 1.428 . S
C438 N437 1.351 . S
C438 C439 1.434 . S
C439 C430 1.429 . S
C439 N436 1.350 . S
C439 C438 1.434 . S
C440 C441 1.369 . S
C440 C442 1.419 1_655 S
C440 H444 0.930 . S
C441 C440 1.369 . S
C441 C450 1.429 . S
C442 C440 1.419 1_455 S
C442 C443 1.363 1_455 S
C442 H445 0.929 . S
C443 C442 1.363 1_655 S
C443 C449 1.428 . S
H444 C440 0.930 . S
H445 C442 0.929 . S
S446 N447 1.613 . S
S446 N448 1.610 . S
N447 S446 1.613 . S
N447 C450 1.350 . S
N448 S446 1.610 . S
N448 C449 1.351 . S
C449 C443 1.428 . S
C449 N448 1.351 . S
C449 C450 1.434 . S
C450 C441 1.429 . S
C450 N447 1.350 . S
C450 C449 1.434 . S
C451 C452 1.369 1_545 S
C451 C453 1.419 1_545 S
C451 H455 0.930 . S
C452 C451 1.369 1_565 S
C452 C461 1.429 . S
C453 C451 1.419 1_565 S
C453 C454 1.363 . S
C453 H456 0.929 . S
C454 C453 1.363 . S
C454 C460 1.428 . S
H455 C451 0.930 . S
H456 C453 0.929 . S
S457 N458 1.613 . S
S457 N459 1.610 . S
N458 S457 1.613 . S
N458 C461 1.350 . S
N459 S457 1.610 . S
N459 C460 1.351 . S
C460 C454 1.428 . S
C460 N459 1.351 . S
C460 C461 1.434 . S
C461 C452 1.429 . S
C461 N458 1.350 . S
C461 C460 1.434 . S
C462 C463 1.369 . S
C462 C464 1.419 . S
C462 H466 0.930 . S
C463 C462 1.369 . S
C463 C472 1.429 . S
C464 C462 1.419 . S
C464 C465 1.363 . S
C464 H467 0.929 . S
C465 C464 1.363 . S
C465 C471 1.428 . S
H466 C462 0.930 . S
H467 C464 0.929 . S
S468 N469 1.613 . S
S468 N470 1.610 . S
N469 S468 1.613 . S
N469 C472 1.350 . S
N470 S468 1.610 . S
N470 C471 1.351 . S
C471 C465 1.428 . S
C471 N470 1.351 . S
C471 C472 1.434 . S
C472 C463 1.429 . S
C472 N469 1.350 . S
C472 C471 1.434 . S
C473 C474 1.369 . S
C473 C475 1.419 . S
C473 H477 0.930 . S
C474 C473 1.369 . S
C474 C483 1.429 1_455 S
C475 C473 1.419 . S
C475 C476 1.363 . S
C475 H478 0.929 . S
C476 C475 1.363 . S
C476 C482 1.422 1_455 S
H477 C473 0.930 . S
H478 C475 0.929 . S
S479 N480 1.613 . S
S479 N481 1.610 . S
N480 S479 1.613 . S
N480 C483 1.350 . S
N481 S479 1.610 . S
N481 C482 1.356 . S
C482 C476 1.422 1_655 S
C482 N481 1.356 . S
C482 C483 1.436 . S
C483 C474 1.429 1_655 S
C483 N480 1.350 . S
C483 C482 1.436 . S
C484 C485 1.369 1_565 S
C484 C486 1.419 1_565 S
C484 H488 0.930 . S
C485 C484 1.369 1_545 S
C485 C494 1.429 . S
C486 C484 1.419 1_545 S
C486 C487 1.363 . S
C486 H489 0.929 1_545 S
C487 C486 1.363 . S
C487 C493 1.428 . S
H488 C484 0.930 . S
H489 C486 0.929 1_565 S
S490 N491 1.613 . S
S490 N492 1.610 . S
N491 S490 1.613 . S
N491 C494 1.350 . S
N492 S490 1.610 . S
N492 C493 1.351 . S
C493 C487 1.428 . S
C493 N492 1.351 . S
C493 C494 1.434 . S
C494 C485 1.429 . S
C494 N491 1.350 . S
C494 C493 1.434 . S
C495 C496 1.369 . S
C495 C497 1.419 . S
C495 H499 0.930 . S
C496 C495 1.369 . S
C496 C505 1.429 . S
C497 C495 1.419 . S
C497 C498 1.363 . S
C497 H500 0.929 . S
C498 C497 1.363 . S
C498 C504 1.428 . S
H499 C495 0.930 . S
H500 C497 0.929 . S
S501 N502 1.613 . S
S501 N503 1.610 . S
N502 S501 1.613 . S
N502 C505 1.350 . S
N503 S501 1.610 . S
N503 C504 1.351 . S
C504 C498 1.428 . S
C504 N503 1.351 . S
C504 C505 1.434 . S
C505 C496 1.429 . S
C505 N502 1.350 . S
C505 C504 1.434 . S
C506 C507 1.369 . S
C506 C508 1.419 . S
C506 H510 0.930 1_655 S
C507 C506 1.369 . S
C507 C516 1.429 . S
C508 C506 1.419 . S
C508 C509 1.363 . S
C508 H511 0.929 . S
C509 C508 1.363 . S
C509 C515 1.428 . S
H510 C506 0.930 1_455 S
H511 C508 0.929 . S
S512 N513 1.613 . S
S512 N514 1.610 . S
N513 S512 1.613 . S
N513 C516 1.350 . S
N514 S512 1.610 . S
N514 C515 1.351 . S
C515 C509 1.428 . S
C515 N514 1.351 . S
C515 C516 1.434 . S
C516 C507 1.429 . S
C516 N513 1.350 . S
C516 C515 1.434 . S
C517 C518 1.369 . S
C517 C519 1.419 . S
C517 H521 0.930 . S
C518 C517 1.369 . S
C518 C527 1.429 . S
C519 C517 1.419 . S
C519 C520 1.363 . S
C519 H522 0.929 1_565 S
C520 C519 1.363 . S
C520 C526 1.428 . S
H521 C517 0.930 . S
H522 C519 0.929 1_545 S
S523 N524 1.613 . S
S523 N525 1.610 . S
N524 S523 1.613 . S
N524 C527 1.350 . S
N525 S523 1.610 . S
N525 C526 1.351 . S
C526 C520 1.428 . S
C526 N525 1.351 . S
C526 C527 1.434 . S
C527 C518 1.429 . S
C527 N524 1.350 . S
C527 C526 1.434 . S
C528 C529 1.369 . S
C528 C530 1.419 . S
C528 H532 0.930 . S
C529 C528 1.369 . S
C529 C538 1.429 . S
C530 C528 1.419 . S
C530 C531 1.363 . S
C530 H533 0.929 . S
C531 C530 1.363 . S
C531 C537 1.428 . S
H532 C528 0.930 . S
H533 C530 0.929 . S
S534 N535 1.613 . S
S534 N536 1.610 . S
N535 S534 1.613 . S
N535 C538 1.350 . S
N536 S534 1.610 . S
N536 C537 1.351 . S
C537 C531 1.428 . S
C537 N536 1.351 . S
C537 C538 1.434 . S
C538 C529 1.429 . S
C538 N535 1.350 . S
C538 C537 1.434 . S
C539 C540 1.369 . S
C539 C541 1.419 . S
C539 H543 0.930 . S
C540 C539 1.369 . S
C540 C549 1.429 . S
C541 C539 1.419 . S
C541 C542 1.363 . S
C541 H544 0.929 . S
C542 C541 1.363 . S
C542 C548 1.428 . S
H543 C539 0.930 . S
H544 C541 0.929 . S
S545 N546 1.613 . S
S545 N547 1.610 . S
N546 S545 1.613 . S
N546 C549 1.350 . S
N547 S545 1.610 . S
N547 C548 1.351 . S
C548 C542 1.428 . S
C548 N547 1.351 . S
C548 C549 1.434 . S
C549 C540 1.429 . S
C549 N546 1.350 . S
C549 C548 1.434 . S
C550 C551 1.369 . S
C550 C552 1.419 . S
C550 H554 0.930 . S
C551 C550 1.369 . S
C551 C560 1.429 . S
C552 C550 1.419 . S
C552 C553 1.363 . S
C552 H555 0.929 . S
C553 C552 1.363 . S
C553 C559 1.428 . S
H554 C550 0.930 . S
H555 C552 0.929 . S
S556 N557 1.613 . S
S556 N558 1.610 . S
N557 S556 1.613 . S
N557 C560 1.350 . S
N558 S556 1.610 . S
N558 C559 1.351 . S
C559 C553 1.428 . S
C559 N558 1.351 . S
C559 C560 1.434 . S
C560 C551 1.429 . S
C560 N557 1.350 . S
C560 C559 1.434 . S
C561 C562 1.369 . S
C561 C563 1.419 . S
C561 H565 0.930 . S
C562 C561 1.369 . S
C562 C571 1.429 . S
C563 C561 1.419 . S
C563 C564 1.363 . S
C563 H566 0.929 . S
C564 C563 1.363 . S
C564 C570 1.428 . S
H565 C561 0.930 . S
H566 C563 0.929 . S
S567 N568 1.613 . S
S567 N569 1.610 . S
N568 S567 1.613 . S
N568 C571 1.350 . S
N569 S567 1.610 . S
N569 C570 1.351 . S
C570 C564 1.428 . S
C570 N569 1.351 . S
C570 C571 1.434 . S
C571 C562 1.429 . S
C571 N568 1.350 . S
C571 C570 1.434 . S
C572 C573 1.369 . S
C572 C574 1.419 . S
C572 H576 0.930 . S
C573 C572 1.369 . S
C573 C582 1.429 . S
C574 C572 1.419 . S
C574 C575 1.363 . S
C574 H577 0.929 . S
C575 C574 1.363 . S
C575 C581 1.428 . S
H576 C572 0.930 . S
H577 C574 0.929 . S
S578 N579 1.613 . S
S578 N580 1.610 . S
N579 S578 1.613 . S
N579 C582 1.350 . S
N580 S578 1.610 . S
N580 C581 1.351 . S
C581 C575 1.428 . S
C581 N580 1.351 . S
C581 C582 1.434 . S
C582 C573 1.429 . S
C582 N579 1.350 . S
C582 C581 1.434 . S
C583 C584 1.369 . S
C583 C585 1.419 . S
C583 H587 0.930 . S
C584 C583 1.369 . S
C584 C593 1.429 . S
C585 C583 1.419 . S
C585 C586 1.363 . S
C585 H588 0.929 . S
C586 C585 1.363 . S
C586 C592 1.428 . S
H587 C583 0.930 . S
H588 C585 0.929 . S
S589 N590 1.613 . S
S589 N591 1.610 . S
N590 S589 1.613 . S
N590 C593 1.350 . S
N591 S589 1.610 . S
N591 C592 1.351 . S
C592 C586 1.428 . S
C592 N591 1.351 . S
C592 C593 1.434 . S
C593 C584 1.429 . S
C593 N590 1.350 . S
C593 C592 1.434 . S
C594 C595 1.369 . S
C594 C596 1.419 1_545 S
C594 H598 0.930 . S
C595 C594 1.369 . S
C595 C604 1.429 1_554 S
C596 C594 1.419 1_565 S
C596 C597 1.363 1_554 S
C596 H599 0.929 . S
C597 C596 1.363 1_556 S
C597 C603 1.428 . S
H598 C594 0.930 . S
H599 C596 0.929 . S
S600 N601 1.613 . S
S600 N602 1.610 1_545 S
N601 S600 1.613 . S
N601 C604 1.350 . S
N602 S600 1.610 1_565 S
N602 C603 1.351 . S
C603 C597 1.428 . S
C603 N602 1.351 . S
C603 C604 1.434 1_565 S
C604 C595 1.429 1_556 S
C604 N601 1.350 . S
C604 C603 1.434 1_545 S
C605 C606 1.369 . S
C605 C607 1.419 . S
C605 H609 0.930 1_545 S
C606 C605 1.369 . S
C606 C615 1.429 . S
C607 C605 1.419 . S
C607 C608 1.363 . S
C607 H610 0.929 1_455 S
C608 C607 1.363 . S
C608 C614 1.428 . S
H609 C605 0.930 1_565 S
H610 C607 0.929 1_655 S
S611 N612 1.613 . S
S611 N613 1.610 . S
N612 S611 1.613 . S
N612 C615 1.350 . S
N613 S611 1.610 . S
N613 C614 1.351 . S
C614 C608 1.428 . S
C614 N613 1.351 . S
C614 C615 1.434 . S
C615 C606 1.429 . S
C615 N612 1.350 . S
C615 C614 1.434 . S
C616 C617 1.369 . S
C616 C618 1.419 1_455 S
C616 H620 0.930 . S
C617 C616 1.369 . S
C617 C626 1.429 . S
C618 C616 1.419 1_655 S
C618 C619 1.363 . S
C618 H621 0.929 . S
C619 C618 1.363 . S
C619 C625 1.428 . S
H620 C616 0.930 . S
H621 C618 0.929 . S
S622 N623 1.613 1_655 S
S622 N624 1.610 . S
N623 S622 1.613 1_455 S
N623 C626 1.350 . S
N624 S622 1.610 . S
N624 C625 1.351 . S
C625 C619 1.428 . S
C625 N624 1.351 . S
C625 C626 1.434 1_655 S
C626 C617 1.429 . S
C626 N623 1.350 . S
C626 C625 1.434 1_455 S
C627 C628 1.369 . S
C627 C629 1.419 1_545 S
C627 H631 0.930 . S
C628 C627 1.369 . S
C628 C637 1.429 . S
C629 C627 1.419 1_565 S
C629 C630 1.363 . S
C629 H632 0.929 . S
C630 C629 1.363 . S
C630 C636 1.428 . S
H631 C627 0.930 . S
H632 C629 0.929 . S
S633 N634 1.613 1_565 S
S633 N635 1.610 1_455 S
N634 S633 1.613 1_545 S
N634 C637 1.350 1_455 S
N635 S633 1.610 1_655 S
N635 C636 1.351 . S
C636 C630 1.428 . S
C636 N635 1.351 . S
C636 C637 1.434 1_565 S
C637 C628 1.429 . S
C637 N634 1.350 1_655 S
C637 C636 1.434 1_545 S
C638 C639 1.369 . S
C638 C640 1.419 . S
C638 H642 0.930 1_655 S
C639 C638 1.369 . S
C639 C648 1.429 . S
C640 C638 1.419 . S
C640 C641 1.363 . S
C640 H643 0.929 1_565 S
C641 C640 1.363 . S
C641 C647 1.428 . S
H642 C638 0.930 1_455 S
H643 C640 0.929 1_545 S
S644 N645 1.613 . S
S644 N646 1.610 . S
N645 S644 1.613 . S
N645 C648 1.350 . S
N646 S644 1.610 . S
N646 C647 1.351 . S
C647 C641 1.428 . S
C647 N646 1.351 . S
C647 C648 1.434 . S
C648 C639 1.429 . S
C648 N645 1.350 . S
C648 C647 1.434 . S
C649 C650 1.369 . S
C649 C651 1.419 1_455 S
C649 H653 0.930 . S
C650 C649 1.369 . S
C650 C659 1.429 . S
C651 C649 1.419 1_655 S
C651 C652 1.363 . S
C651 H654 0.929 . S
C652 C651 1.363 . S
C652 C658 1.428 . S
H653 C649 0.930 . S
H654 C651 0.929 . S
S655 N656 1.613 1_655 S
S655 N657 1.610 1_545 S
N656 S655 1.613 1_455 S
N656 C659 1.350 1_545 S
N657 S655 1.610 1_565 S
N657 C658 1.351 . S
C658 C652 1.428 . S
C658 N657 1.351 . S
C658 C659 1.434 1_655 S
C659 C650 1.429 . S
C659 N656 1.350 1_565 S
C659 C658 1.434 1_455 S
C265 C164 1.743 1_554 S
C267 C10 1.797 . S
C276 C186 1.738 . S
C278 C30 1.799 . S
C287 C216 1.741 . S
C289 C54 1.797 . S
C298 C238 1.735 . S
C300 C74 1.801 . S
C309 C252 1.735 . S
C311 C96 1.801 . S
C320 C142 1.742 . S
C322 C120 1.797 . S
C331 C150 1.802 . S
C333 C118 1.735 . S
C342 C172 1.797 . S
C344 C8 1.741 1_556 S
C353 C194 1.799 . S
C355 C40 1.739 . S
C364 C206 1.800 . S
C366 C52 1.737 . S
C375 C228 1.799 . S
C377 C84 1.739 . S
C386 C260 1.796 . S
C388 C106 1.742 . S
C397 C18 1.498 . S
C399 C131 1.501 . S
C408 C32 1.499 1_455 S
C410 C21 1.505 . S
C419 C29 1.500 . S
C421 C62 1.498 1_545 S
C430 C65 1.507 . S
C432 C76 1.502 . S
C441 C73 1.503 . S
C443 C98 1.497 1_655 S
C452 C128 1.496 1_565 S
C454 C95 1.502 . S
C463 C140 1.497 . S
C465 C169 1.503 . S
C474 C162 1.502 1_455 S
C476 C191 1.506 . S
C485 C184 1.497 1_545 S
C487 C205 1.501 . S
C496 C208 1.497 . S
C498 C227 1.501 . S
C507 C230 1.501 1_655 S
C509 C257 1.503 . S
C518 C147 1.501 . S
C520 C250 1.498 1_565 S
C529 C183 1.326 . S
C531 C15 1.327 . S
C540 C43 1.330 . S
C542 C219 1.327 . S
C551 C59 1.325 . S
C553 C241 1.327 . S
C562 C87 1.325 . S
C564 C249 1.329 . S
C573 C109 1.328 . S
C575 C139 1.329 . S
C584 C161 1.328 . S
C586 C125 1.326 . S
C595 C7 0.613 . S
C597 C175 0.622 . S
C606 C197 0.615 . S
C608 C37 0.616 . S
C617 C213 0.623 . S
C619 C51 0.611 . S
C628 C235 0.625 . S
C630 C81 0.613 . S
C639 C103 0.611 . S
C641 C263 0.621 . S
C650 C117 0.624 . S
C652 C153 0.614 . S
