# Generated by pormake.
# Topology fnr, (5)-cn, num edge types: 1
# Building blocks:
#     Node 0, Type 0, BuildingBlock: XOMCOT_clean_sbu_0, # of connection points: 5
#     Node 1, Type 0, BuildingBlock: XOMCOT_clean_sbu_0, # of connection points: 5
#     Node 2, Type 0, BuildingBlock: XOMCOT_clean_sbu_0, # of connection points: 5
#     Node 3, Type 0, BuildingBlock: XOMCOT_clean_sbu_0, # of connection points: 5
#     Node 4, Type 0, BuildingBlock: XOMCOT_clean_sbu_0, # of connection points: 5
#     Node 5, Type 0, BuildingBlock: XOMCOT_clean_sbu_0, # of connection points: 5
#     Node 6, Type 0, BuildingBlock: XOMCOT_clean_sbu_0, # of connection points: 5
#     Node 7, Type 0, BuildingBlock: XOMCOT_clean_sbu_0, # of connection points: 5
#     Node 8, Type 0, BuildingBlock: XOMCOT_clean_sbu_0, # of connection points: 5
#     Node 9, Type 0, BuildingBlock: XOMCOT_clean_sbu_0, # of connection points: 5
#     Node 10, Type 0, BuildingBlock: XOMCOT_clean_sbu_0, # of connection points: 5
#     Node 11, Type 0, BuildingBlock: XOMCOT_clean_sbu_0, # of connection points: 5
#     Edge 12, Type (0, 0), BuildingBlock: EZIPEK_clean_linker_0, # of connection points: 2
#     Edge 13, Type (0, 0), BuildingBlock: EZIPEK_clean_linker_0, # of connection points: 2
#     Edge 14, Type (0, 0), BuildingBlock: EZIPEK_clean_linker_0, # of connection points: 2
#     Edge 15, Type (0, 0), BuildingBlock: EZIPEK_clean_linker_0, # of connection points: 2
#     Edge 16, Type (0, 0), BuildingBlock: EZIPEK_clean_linker_0, # of connection points: 2
#     Edge 17, Type (0, 0), BuildingBlock: EZIPEK_clean_linker_0, # of connection points: 2
#     Edge 18, Type (0, 0), BuildingBlock: EZIPEK_clean_linker_0, # of connection points: 2
#     Edge 19, Type (0, 0), BuildingBlock: EZIPEK_clean_linker_0, # of connection points: 2
#     Edge 20, Type (0, 0), BuildingBlock: EZIPEK_clean_linker_0, # of connection points: 2
#     Edge 21, Type (0, 0), BuildingBlock: EZIPEK_clean_linker_0, # of connection points: 2
#     Edge 22, Type (0, 0), BuildingBlock: EZIPEK_clean_linker_0, # of connection points: 2
#     Edge 23, Type (0, 0), BuildingBlock: EZIPEK_clean_linker_0, # of connection points: 2
#     Edge 24, Type (0, 0), BuildingBlock: EZIPEK_clean_linker_0, # of connection points: 2
#     Edge 25, Type (0, 0), BuildingBlock: EZIPEK_clean_linker_0, # of connection points: 2
#     Edge 26, Type (0, 0), BuildingBlock: EZIPEK_clean_linker_0, # of connection points: 2
#     Edge 27, Type (0, 0), BuildingBlock: EZIPEK_clean_linker_0, # of connection points: 2
#     Edge 28, Type (0, 0), BuildingBlock: EZIPEK_clean_linker_0, # of connection points: 2
#     Edge 29, Type (0, 0), BuildingBlock: EZIPEK_clean_linker_0, # of connection points: 2
#     Edge 30, Type (0, 0), BuildingBlock: EZIPEK_clean_linker_0, # of connection points: 2
#     Edge 31, Type (0, 0), BuildingBlock: EZIPEK_clean_linker_0, # of connection points: 2
#     Edge 32, Type (0, 0), BuildingBlock: EZIPEK_clean_linker_0, # of connection points: 2
#     Edge 33, Type (0, 0), BuildingBlock: EZIPEK_clean_linker_0, # of connection points: 2
#     Edge 34, Type (0, 0), BuildingBlock: EZIPEK_clean_linker_0, # of connection points: 2
#     Edge 35, Type (0, 0), BuildingBlock: EZIPEK_clean_linker_0, # of connection points: 2
#     Edge 36, Type (0, 0), BuildingBlock: EZIPEK_clean_linker_0, # of connection points: 2
#     Edge 37, Type (0, 0), BuildingBlock: EZIPEK_clean_linker_0, # of connection points: 2
#     Edge 38, Type (0, 0), BuildingBlock: EZIPEK_clean_linker_0, # of connection points: 2
#     Edge 39, Type (0, 0), BuildingBlock: EZIPEK_clean_linker_0, # of connection points: 2
#     Edge 40, Type (0, 0), BuildingBlock: EZIPEK_clean_linker_0, # of connection points: 2
#     Edge 41, Type (0, 0), BuildingBlock: EZIPEK_clean_linker_0, # of connection points: 2
# Relax obj value: 0.300
# Max RMSD: 0.218
# Mean RMSD: 0.218
data_MOF--net-fnr--node1-XOMCOT_clean_sbu_0--edge1-EZIPEK_clean_linker_0
_symmetry_space_group_name_H-M    P1
_symmetry_Int_Tables_number       1
_symmetry_cell_setting            triclinic
loop_
_symmetry_equiv_pos_as_xyz
'x, y, z'
_cell_length_a     30.669148
_cell_length_b     30.822091
_cell_length_c     40.213575
_cell_angle_alpha  90.06033
_cell_angle_beta   90.011974
_cell_angle_gamma 120.19785
loop_
_atom_site_label
_atom_site_type_symbol
_atom_site_fract_x
_atom_site_fract_y
_atom_site_fract_z
_atom_type_partial_charge
Co0 Co 0.40943 0.15833 0.07415 0.0
C1 C 0.33568 0.17197 0.03252 0.0
C2 C 0.34627 0.20488 0.08096 0.0
C3 C 0.31661 0.21763 0.06278 0.0
N4 N 0.35776 0.17529 0.06248 0.0
N5 N 0.31015 0.19729 0.03238 0.0
H6 H 0.34061 0.15434 0.0107 0.0
H7 H 0.3613 0.2198 0.10527 0.0
C8 C 0.50659 0.26285 0.07301 0.0
O9 O 0.53462 0.24549 0.08448 0.0
N10 N 0.46111 0.14132 0.08535 0.0
C11 C 0.46013 0.11411 0.11195 0.0
C12 C 0.50332 0.11088 0.11218 0.0
C13 C 0.50351 0.15136 0.06861 0.0
N14 N 0.53088 0.13508 0.08526 0.0
C15 C 0.35487 0.13806 0.1346 0.0
C16 C 0.43486 0.19974 0.17544 0.0
C17 C 0.38719 0.16914 0.18934 0.0
C18 C 0.34669 0.13845 0.16863 0.0
C19 C 0.44133 0.1985 0.14121 0.0
N20 N 0.40157 0.16815 0.12112 0.0
H21 H 0.32346 0.11341 0.11887 0.0
H22 H 0.4787 0.22025 0.13144 0.0
H23 H 0.43073 0.09893 0.13057 0.0
H24 H 0.51574 0.17295 0.04583 0.0
O25 O 0.36132 0.08774 0.07365 0.0
O26 O 0.40483 0.13021 0.02957 0.0
O27 O 0.45945 0.23358 0.06732 0.0
C28 C 0.37195 0.08703 0.04268 0.0
H29 H 0.30348 0.24277 0.07052 0.0
H30 H 0.51507 0.09466 0.1316 0.0
H31 H 0.46697 0.22354 0.19105 0.0
H32 H 0.30937 0.1144 0.17879 0.0
Co33 Co 0.26371 0.41547 0.57376 0.0
C34 C 0.16904 0.35678 0.53739 0.0
C35 C 0.1733 0.31407 0.57815 0.0
C36 C 0.12712 0.28618 0.56277 0.0
N37 N 0.19899 0.35863 0.56251 0.0
N38 N 0.12461 0.31319 0.53723 0.0
H39 H 0.17886 0.38741 0.52025 0.0
H40 H 0.18657 0.30304 0.59966 0.0
C41 C 0.2436 0.49782 0.59187 0.0
O42 O 0.27645 0.50902 0.61601 0.0
N43 N 0.32931 0.47379 0.58336 0.0
C44 C 0.36037 0.48522 0.60989 0.0
C45 C 0.4001 0.53335 0.60634 0.0
C46 C 0.35176 0.51484 0.5637 0.0
N47 N 0.39423 0.55193 0.57753 0.0
C48 C 0.27397 0.38106 0.63781 0.0
C49 C 0.20174 0.39343 0.67036 0.0
C50 C 0.2322 0.38023 0.68859 0.0
C51 C 0.26736 0.37222 0.67188 0.0
C52 C 0.20962 0.40176 0.63613 0.0
N53 N 0.24836 0.39974 0.62084 0.0
H54 H 0.30193 0.37537 0.62547 0.0
H55 H 0.1847 0.41002 0.62208 0.0
H56 H 0.35501 0.46197 0.63111 0.0
H57 H 0.33608 0.51842 0.54045 0.0
O58 O 0.29513 0.37598 0.56607 0.0
O59 O 0.28381 0.42073 0.52739 0.0
O60 O 0.23253 0.46024 0.57285 0.0
C61 C 0.30076 0.39096 0.5355 0.0
H62 H 0.0972 0.24934 0.57015 0.0
H63 H 0.43037 0.55378 0.62398 0.0
H64 H 0.17279 0.39799 0.68255 0.0
H65 H 0.2905 0.36066 0.68523 0.0
Co66 Co 0.85206 0.24331 0.07265 0.0
C67 C 0.82196 0.15082 0.03338 0.0
C68 C 0.8237 0.13634 0.08536 0.0
C69 C 0.8073 0.09224 0.06809 0.0
N70 N 0.83236 0.1733 0.0637 0.0
N71 N 0.80594 0.10122 0.03544 0.0
H72 H 0.82554 0.1701 0.01021 0.0
H73 H 0.82667 0.13984 0.11205 0.0
C74 C 0.73899 0.18693 0.08047 0.0
O75 O 0.74432 0.15532 0.09945 0.0
N76 N 0.87216 0.31309 0.08017 0.0
C77 C 0.91782 0.34933 0.09087 0.0
C78 C 0.92048 0.39506 0.08808 0.0
C79 C 0.84746 0.33732 0.07146 0.0
N80 N 0.87582 0.38739 0.07659 0.0
C81 C 0.8853 0.22949 0.13624 0.0
C82 C 0.81625 0.23929 0.17471 0.0
C83 C 0.85465 0.23511 0.19064 0.0
C84 C 0.89003 0.23113 0.17083 0.0
C85 C 0.815 0.24094 0.14 0.0
N86 N 0.84772 0.23372 0.12096 0.0
H87 H 0.91251 0.22525 0.12174 0.0
H88 H 0.7885 0.24943 0.12878 0.0
H89 H 0.94784 0.34328 0.09925 0.0
H90 H 0.81036 0.31927 0.06037 0.0
O91 O 0.92189 0.26226 0.06831 0.0
O92 O 0.87421 0.2605 0.02647 0.0
O93 O 0.7781 0.22492 0.06795 0.0
C94 C 0.91847 0.27032 0.03717 0.0
H95 H 0.7965 0.05595 0.07873 0.0
H96 H 0.95257 0.43124 0.09439 0.0
H97 H 0.78866 0.24346 0.18902 0.0
H98 H 0.92094 0.22886 0.18205 0.0
Co99 Co 0.62046 0.86078 0.56971 0.0
C100 C 0.71117 0.84697 0.55757 0.0
C101 C 0.65917 0.82697 0.51686 0.0
C102 C 0.69592 0.81655 0.50788 0.0
N103 N 0.6682 0.84601 0.54792 0.0
N104 N 0.72855 0.82876 0.5333 0.0
H105 H 0.72877 0.85947 0.58165 0.0
H106 H 0.62691 0.81987 0.50192 0.0
C107 C 0.5245 0.7592 0.57255 0.0
O108 O 0.50949 0.77301 0.59892 0.0
N109 N 0.57016 0.87442 0.58921 0.0
C110 C 0.57009 0.89395 0.61922 0.0
C111 C 0.52409 0.89151 0.62365 0.0
C112 C 0.52505 0.86224 0.57541 0.0
N113 N 0.49554 0.87064 0.59629 0.0
C114 C 0.67914 0.88328 0.62939 0.0
C115 C 0.61311 0.79999 0.66549 0.0
C116 C 0.65265 0.8406 0.68232 0.0
C117 C 0.68788 0.88114 0.66331 0.0
C118 C 0.60805 0.80213 0.63107 0.0
N119 N 0.63766 0.84539 0.6138 0.0
H120 H 0.70559 0.91649 0.61605 0.0
H121 H 0.5803 0.76865 0.61914 0.0
H122 H 0.60015 0.90682 0.63731 0.0
H123 H 0.51259 0.84397 0.5515 0.0
O124 O 0.66897 0.93152 0.56995 0.0
O125 O 0.61581 0.89187 0.52864 0.0
O126 O 0.56714 0.78878 0.55927 0.0
C127 C 0.65236 0.93359 0.54081 0.0
H128 H 0.698 0.79995 0.48461 0.0
H129 H 0.51123 0.90089 0.64614 0.0
H130 H 0.58621 0.76662 0.67882 0.0
H131 H 0.72048 0.91231 0.67494 0.0
Co132 Co 0.77319 0.60334 0.06877 0.0
C133 C 0.87794 0.69372 0.05816 0.0
C134 C 0.84193 0.65094 0.01432 0.0
C135 C 0.8903 0.68613 1.00632 0.0
N136 N 0.83342 0.65537 0.04671 0.0
N137 N 0.91334 0.71282 0.03375 0.0
H138 H 0.88547 0.70555 0.08385 0.0
H139 H 0.81611 0.62126 0.99799 0.0
C140 C 0.79333 0.51525 0.07368 0.0
O141 O 0.75893 0.49322 0.0968 0.0
N142 N 0.71209 0.5492 0.08828 0.0
C143 C 0.68917 0.54798 0.1169 0.0
C144 C 0.64718 0.50086 0.1202 0.0
C145 C 0.68214 0.50401 0.07397 0.0
N146 N 0.64466 0.47116 0.09434 0.0
C147 C 0.80455 0.66848 0.12549 0.0
C148 C 0.82596 0.61096 0.1674 0.0
C149 C 0.82229 0.65082 0.18081 0.0
C150 C 0.81283 0.68073 0.1593 0.0
C151 C 0.81559 0.59898 0.13379 0.0
N152 N 0.80354 0.62652 0.1131 0.0
H153 H 0.79679 0.69196 0.10962 0.0
H154 H 0.81491 0.56603 0.12569 0.0
H155 H 0.70129 0.57929 0.1338 0.0
H156 H 0.68878 0.49595 0.04897 0.0
O157 O 0.74178 0.64377 0.06638 0.0
O158 O 0.73522 0.59118 0.02716 0.0
O159 O 0.80369 0.55805 0.06189 0.0
C160 C 0.7238 0.62432 0.03762 0.0
H161 H 0.90843 0.68983 0.98253 0.0
H162 H 0.61996 0.49091 0.13992 0.0
H163 H 0.83345 0.58708 0.1833 0.0
H164 H 0.81011 0.71221 0.16874 0.0
Co165 Co 0.17578 0.77041 0.57479 0.0
C166 C 0.22258 0.87047 0.54262 0.0
C167 C 0.17295 0.86392 0.5825 0.0
C168 C 0.1921 0.91067 0.56834 0.0
N169 N 0.19235 0.83893 0.56656 0.0
N170 N 0.22317 0.91459 0.54341 0.0
H171 H 0.24336 0.86133 0.52493 0.0
H172 H 0.14636 0.84895 0.60285 0.0
C173 C 0.27868 0.78564 0.59019 0.0
O174 O 0.25765 0.7599 0.61738 0.0
N175 N 0.15794 0.70021 0.58139 0.0
C176 C 0.11256 0.66138 0.5907 0.0
C177 C 0.1146 0.61782 0.59107 0.0
C178 C 0.18559 0.67835 0.57395 0.0
N179 N 0.1607 0.62877 0.58081 0.0
C180 C 0.14764 0.75474 0.64351 0.0
C181 C 0.23199 0.83867 0.66827 0.0
C182 C 0.19441 0.80582 0.69017 0.0
C183 C 0.15161 0.76396 0.67753 0.0
C184 C 0.22642 0.82802 0.63421 0.0
N185 N 0.18561 0.78509 0.62233 0.0
H186 H 0.11316 0.72383 0.6343 0.0
H187 H 0.25516 0.85401 0.61738 0.0
H188 H 0.07945 0.66377 0.59649 0.0
H189 H 0.22274 0.69759 0.56312 0.0
O190 O 0.1052 0.75002 0.57389 0.0
O191 O 0.14876 0.75254 0.52949 0.0
O192 O 0.25083 0.79158 0.56869 0.0
C193 C 0.10538 0.74261 0.54226 0.0
H194 H 0.1839 0.93962 0.57567 0.0
H195 H 0.08497 0.5811 0.59889 0.0
H196 H 0.26512 0.87202 0.67743 0.0
H197 H 0.12132 0.73873 0.69387 0.0
Co198 Co 0.84412 0.6272 0.4377 0.0
C199 C 0.84486 0.71602 0.47222 0.0
C200 C 0.77158 0.65824 0.45661 0.0
C201 C 0.76602 0.69341 0.47353 0.0
N202 N 0.82096 0.67189 0.45506 0.0
N203 N 0.81162 0.72956 0.48366 0.0
H204 H 0.88494 0.73682 0.47719 0.0
H205 H 0.74019 0.6238 0.44744 0.0
C206 C 0.74782 0.53685 0.41481 0.0
O207 O 0.77163 0.53779 0.38745 0.0
N208 N 0.86302 0.57839 0.42268 0.0
C209 C 0.88212 0.57173 0.39397 0.0
C210 C 0.88255 0.52725 0.39571 0.0
C211 C 0.85209 0.53736 0.44108 0.0
N212 N 0.86356 0.50585 0.42532 0.0
C213 C 0.88196 0.6695 0.37341 0.0
C214 C 0.79232 0.65169 0.34563 0.0
C215 C 0.83391 0.66556 0.32483 0.0
C216 C 0.87988 0.67696 0.33936 0.0
C217 C 0.79575 0.64265 0.37937 0.0
N218 N 0.83903 0.64706 0.3922 0.0
H219 H 0.91769 0.67774 0.38399 0.0
H220 H 0.76271 0.62975 0.39446 0.0
H221 H 0.89357 0.59536 0.37239 0.0
H222 H 0.83474 0.52996 0.46537 0.0
O223 O 0.91442 0.67736 0.44441 0.0
O224 O 0.8674 0.62193 0.48241 0.0
O225 O 0.7711 0.56918 0.43795 0.0
C226 C 0.91189 0.65822 0.4734 0.0
H227 H 0.73064 0.69155 0.47938 0.0
H228 H 0.89414 0.51088 0.37626 0.0
H229 H 0.7566 0.64457 0.33546 0.0
H230 H 0.91342 0.68951 0.32432 0.0
Co231 Co 0.24092 0.82556 0.94612 0.0
C232 C 0.14826 0.81823 0.97872 0.0
C233 C 0.13784 0.74701 0.96336 0.0
C234 C 0.09498 0.7389 0.9791 0.0
N235 N 0.17185 0.79675 0.96288 0.0
N236 N 0.10136 0.78332 0.98902 0.0
H237 H 0.16486 0.85804 0.98297 0.0
H238 H 0.14331 0.71741 0.95379 0.0
C239 C 0.24245 0.73387 0.92028 0.0
O240 O 0.26931 0.76114 0.89503 0.0
N241 N 0.31027 0.85236 0.93061 0.0
C242 C 0.34026 0.89335 0.91203 0.0
C243 C 0.38654 0.89667 0.90786 0.0
C244 C 0.33998 0.83316 0.93873 0.0
N245 N 0.38586 0.85859 0.92458 0.0
C246 C 0.23211 0.86563 0.88396 0.0
C247 C 0.17365 0.77564 0.85156 0.0
C248 C 0.19724 0.82008 0.83317 0.0
C249 C 0.22445 0.86573 0.84984 0.0
C250 C 0.183 0.77734 0.8857 0.0
N251 N 0.21609 0.82168 0.90081 0.0
H252 H 0.25269 0.90123 0.89646 0.0
H253 H 0.16559 0.74255 0.89924 0.0
H254 H 0.33046 0.91991 0.90244 0.0
H255 H 0.32801 0.80034 0.95411 0.0
O256 O 0.25533 0.89281 0.9559 0.0
O257 O 0.26845 0.84574 0.99128 0.0
O258 O 0.23017 0.7544 0.94349 0.0
C259 C 0.27254 0.88911 0.98445 0.0
H260 H 0.06192 0.70272 0.984 0.0
H261 H 0.41775 0.92402 0.89304 0.0
H262 H 0.15055 0.73982 0.83936 0.0
H263 H 0.24134 0.90094 0.83641 0.0
Co264 Co 0.414 0.24111 0.44083 0.0
C265 C 0.3473 0.13405 0.45974 0.0
C266 C 0.33369 0.18279 0.49054 0.0
C267 C 0.30583 0.13487 0.50263 0.0
N268 N 0.35967 0.1827 0.46336 0.0
N269 N 0.31455 0.1044 0.48344 0.0
H270 H 0.36386 0.12101 0.44141 0.0
H271 H 0.33654 0.21544 0.50252 0.0
C272 C 0.50508 0.22841 0.44422 0.0
O273 O 0.52382 0.25786 0.41833 0.0
N274 N 0.46889 0.30023 0.41936 0.0
C275 C 0.47542 0.3111 0.38665 0.0
C276 C 0.52134 0.35413 0.38206 0.0
C277 C 0.51016 0.33827 0.43431 0.0
N278 N 0.54333 0.37122 0.41199 0.0
C279 C 0.35221 0.19685 0.38398 0.0
C280 C 0.41623 0.17522 0.34891 0.0
C281 C 0.37657 0.17574 0.33225 0.0
C282 C 0.34229 0.18338 0.35051 0.0
C283 C 0.42418 0.18796 0.38252 0.0
N284 N 0.39515 0.20322 0.39894 0.0
H285 H 0.32644 0.2047 0.3973 0.0
H286 H 0.45461 0.1867 0.39414 0.0
H287 H 0.44942 0.2889 0.36725 0.0
H288 H 0.51703 0.34036 0.46082 0.0
O289 O 0.37275 0.27134 0.43512 0.0
O290 O 0.42056 0.28301 0.47912 0.0
O291 O 0.46115 0.21593 0.45524 0.0
C292 C 0.38847 0.29229 0.46385 0.0
H293 H 0.28309 0.12357 0.52499 0.0
H294 H 0.53767 0.37145 0.35841 0.0
H295 H 0.44216 0.16717 0.33572 0.0
H296 H 0.31004 0.18212 0.33852 0.0
Co297 Co 0.18527 0.39807 0.94271 0.0
C298 C 0.20622 0.31199 0.95242 0.0
C299 C 0.22211 0.3609 0.99442 0.0
C300 C 0.23605 0.3265 1.00236 0.0
N301 N 0.20337 0.35226 0.96325 0.0
N302 N 0.2264 0.29597 0.97613 0.0
H303 H 0.19565 0.29596 0.92777 0.0
H304 H 0.22715 0.39168 0.01002 0.0
C305 C 0.28984 0.4841 0.92855 0.0
O306 O 0.27438 0.48677 0.89858 0.0
N307 N 0.16805 0.44691 0.92483 0.0
C308 C 0.12389 0.43825 0.9113 0.0
C309 C 0.12474 0.48318 0.9076 0.0
C310 C 0.19372 0.49704 0.93042 0.0
N311 N 0.16889 0.51998 0.91962 0.0
C312 C 0.16004 0.36682 0.87543 0.0
C313 C 0.2519 0.37993 0.8553 0.0
C314 C 0.21481 0.37052 0.83149 0.0
C315 C 0.16778 0.36173 0.84197 0.0
C316 C 0.24218 0.38434 0.88882 0.0
N317 N 0.19816 0.38194 0.89808 0.0
H318 H 0.12333 0.3594 0.88289 0.0
H319 H 0.27044 0.39129 0.90705 0.0
H320 H 0.09159 0.40176 0.90631 0.0
H321 H 0.22878 0.51664 0.94352 0.0
O322 O 0.115 0.34756 0.94417 0.0
O323 O 0.15552 0.40164 0.98486 0.0
O324 O 0.25878 0.4529 0.94976 0.0
C325 C 0.11339 0.36445 0.97333 0.0
H326 H 0.25385 0.32504 0.02527 0.0
H327 H 0.09489 0.48838 0.89766 0.0
H328 H 0.28826 0.38531 0.84796 0.0
H329 H 0.13775 0.35263 0.82424 0.0
Co330 Co 0.79119 0.20024 0.44634 0.0
C331 C 0.90076 0.23002 0.45847 0.0
C332 C 0.85895 0.22538 0.50251 0.0
C333 C 0.90734 0.2404 0.51167 0.0
N334 N 0.8542 0.21866 0.46921 0.0
N335 N 0.93368 0.24355 0.48422 0.0
H336 H 0.91092 0.23011 0.43272 0.0
H337 H 0.82983 0.22204 0.51919 0.0
C338 C 0.83895 0.31332 0.45814 0.0
O339 O 0.88176 0.31718 0.46722 0.0
N340 N 0.72697 0.18354 0.42643 0.0
C341 C 0.70883 0.17561 0.39493 0.0
C342 C 0.66346 0.175 0.3949 0.0
C343 C 0.6928 0.18856 0.44447 0.0
N344 N 0.65389 0.18319 0.42621 0.0
C345 C 0.80858 0.17399 0.38192 0.0
C346 C 0.87322 0.26877 0.35768 0.0
C347 C 0.85155 0.22826 0.33534 0.0
C348 C 0.82026 0.1802 0.34819 0.0
C349 C 0.85819 0.26117 0.39113 0.0
N350 N 0.82373 0.2144 0.40251 0.0
H351 H 0.78246 0.13656 0.39045 0.0
H352 H 0.87402 0.29321 0.40721 0.0
H353 H 0.72723 0.17299 0.37291 0.0
H354 H 0.69753 0.19885 0.47051 0.0
O355 O 0.77254 0.13033 0.44868 0.0
O356 O 0.75437 0.16917 0.4876 0.0
O357 O 0.80127 0.27042 0.45094 0.0
C358 C 0.75098 0.12774 0.47681 0.0
H359 H 0.92288 0.25058 0.53653 0.0
H360 H 0.64026 0.17076 0.37347 0.0
H361 H 0.89933 0.30635 0.34898 0.0
H362 H 0.80324 0.14762 0.33204 0.0
Co363 Co 0.61273 0.77387 0.93783 0.0
C364 C 0.69405 0.88157 0.95263 0.0
C365 C 0.64229 0.84297 0.99253 0.0
C366 C 0.67418 0.89128 1.00245 0.0
N367 N 0.6545 0.8363 0.96148 0.0
N368 N 0.70655 0.91557 0.97756 0.0
H369 H 0.71198 0.89009 0.92848 0.0
H370 H 0.61057 0.81501 1.00662 0.0
C371 C 0.52508 0.78469 0.91592 0.0
O372 O 0.52958 0.76857 0.88664 0.0
N373 N 0.56634 0.70936 0.91721 0.0
C374 C 0.55708 0.69393 0.88519 0.0
C375 C 0.51097 0.64986 0.88342 0.0
C376 C 0.5264 0.67348 0.93423 0.0
N377 N 0.4918 0.63765 0.91438 0.0
C378 C 0.66666 0.79316 0.8765 0.0
C379 C 0.63465 0.85344 0.84765 0.0
C380 C 0.65788 0.8335 0.82754 0.0
C381 C 0.67813 0.80703 0.84325 0.0
C382 C 0.62811 0.84231 0.88174 0.0
N383 N 0.63789 0.80704 0.89461 0.0
H384 H 0.67762 0.76768 0.88661 0.0
H385 H 0.61154 0.85906 0.89694 0.0
H386 H 0.57923 0.71474 0.86408 0.0
H387 H 0.52 0.67561 0.96046 0.0
O388 O 0.66256 0.75394 0.94414 0.0
O389 O 0.60156 0.73714 0.97967 0.0
O390 O 0.55508 0.78864 0.93948 0.0
C391 C 0.6394 0.73151 0.97115 0.0
H392 H 0.67258 0.90813 0.02573 0.0
H393 H 0.49187 0.62973 0.86104 0.0
H394 H 0.62024 0.87602 0.83702 0.0
H395 H 0.69852 0.79297 0.82913 0.0
C396 C 0.64843 0.13195 0.06215 0.0
C397 C 0.68673 0.17841 0.0758 0.0
C398 C 0.62112 0.19542 0.09587 0.0
C399 C 0.58349 0.1509 0.08047 0.0
N400 N 0.56072 0.08025 0.04504 0.0
N401 N 0.7089 0.25959 0.09876 0.0
C402 C 0.59715 0.12045 0.06215 0.0
C403 C 0.67292 0.21199 0.09018 0.0
N404 N 0.66083 0.09805 0.0502 0.0
N405 N 0.60736 0.22034 0.11772 0.0
H406 H 0.74711 0.27329 0.09551 0.0
H407 H 0.70054 0.28708 0.10595 0.0
H408 H 0.56987 0.20812 0.1236 0.0
H409 H 0.63299 0.24996 0.13258 0.0
H410 H 0.63436 0.0615 0.04333 0.0
H411 H 0.69788 0.10551 0.04897 0.0
H412 H 0.56831 0.05903 0.02836 0.0
H413 H 0.52284 0.07041 0.04591 0.0
C414 C 0.40697 0.63606 0.56364 0.0
C415 C 0.4259 0.60259 0.56601 0.0
C416 C 0.51255 0.67287 0.56245 0.0
C417 C 0.49345 0.70642 0.56164 0.0
N418 N 0.42426 0.7195 0.54901 0.0
N419 N 0.49371 0.58669 0.55642 0.0
C420 C 0.4411 0.68761 0.55773 0.0
C421 C 0.47788 0.6204 0.56143 0.0
N422 N 0.35728 0.61963 0.56957 0.0
N423 N 0.56294 0.6904 0.5666 0.0
H424 H 0.4684 0.54809 0.55533 0.0
H425 H 0.5306 0.59704 0.55006 0.0
H426 H 0.59025 0.72827 0.56664 0.0
H427 H 0.57764 0.66715 0.57174 0.0
H428 H 0.34236 0.6433 0.57136 0.0
H429 H 0.33135 0.58265 0.57523 0.0
H430 H 0.38678 0.70751 0.54319 0.0
H431 H 0.44895 0.75743 0.54417 0.0
C432 C 0.87142 0.46089 0.09773 0.0
C433 C 0.86088 0.42478 0.07239 0.0
C434 C 0.81355 0.45706 0.04203 0.0
C435 C 0.8264 0.49403 0.06694 0.0
N436 N 0.88675 0.54442 0.10869 0.0
N437 N 0.83573 0.40012 0.01541 0.0
C438 C 0.86184 0.50041 0.09155 0.0
C439 C 0.83606 0.4263 0.04286 0.0
N440 N 0.8868 0.45569 0.12856 0.0
N441 N 0.77947 0.4509 0.01802 0.0
H442 H 0.85507 0.38036 0.01457 0.0
H443 H 0.82127 0.40274 0.99253 0.0
H444 H 0.76478 0.47487 0.01598 0.0
H445 H 0.76439 0.42092 1.00135 0.0
H446 H 0.89141 0.47976 0.14821 0.0
H447 H 0.88829 0.42399 0.13572 0.0
H448 H 0.91499 0.5517 0.12598 0.0
H449 H 0.88421 0.57563 0.10163 0.0
C450 C 0.40787 0.80202 0.6068 0.0
C451 C 0.44143 0.84979 0.59326 0.0
C452 C 0.36838 0.85677 0.57516 0.0
C453 C 0.33475 0.80654 0.586 0.0
N454 N 0.32638 0.72706 0.60223 0.0
N455 N 0.45425 0.91941 0.55965 0.0
C456 C 0.35579 0.77788 0.59868 0.0
C457 C 0.42176 0.87588 0.57558 0.0
N458 N 0.42522 0.78015 0.6285 0.0
N459 N 0.35027 0.88762 0.56669 0.0
H460 H 0.49331 0.93506 0.56097 0.0
H461 H 0.44241 0.93771 0.54337 0.0
H462 H 0.31222 0.87649 0.56715 0.0
H463 H 0.37346 0.92581 0.56205 0.0
H464 H 0.40146 0.74734 0.64148 0.0
H465 H 0.46252 0.79774 0.63651 0.0
H466 H 0.34084 0.70415 0.60903 0.0
H467 H 0.28889 0.7071 0.59459 0.0
C468 C 0.56993 0.38807 0.11198 0.0
C469 C 0.60924 0.4171 0.08889 0.0
C470 C 0.57085 0.34479 0.05037 0.0
C471 C 0.53025 0.31838 0.07243 0.0
N472 N 0.48432 0.32015 0.12018 0.0
N473 N 0.65903 0.40505 0.04719 0.0
C474 C 0.5273 0.34225 0.10161 0.0
C475 C 0.61296 0.39131 0.06039 0.0
N476 N 0.57778 0.39804 0.14517 0.0
N477 N 0.56984 0.32419 0.02012 0.0
H478 H 0.69208 0.42873 0.05998 0.0
H479 H 0.66454 0.38587 0.02781 0.0
H480 H 0.53933 0.28975 0.01268 0.0
H481 H 0.59633 0.34356 1.00156 0.0
H482 H 0.55155 0.37616 0.16326 0.0
H483 H 0.6139 0.42107 0.15473 0.0
H484 H 0.47892 0.33768 0.14068 0.0
H485 H 0.45232 0.28714 0.11257 0.0
C486 C 0.2164 0.5484 0.55626 0.0
C487 C 0.21898 0.52884 0.58788 0.0
C488 C 0.18947 0.5812 0.61443 0.0
C489 C 0.18162 0.59614 0.58286 0.0
N490 N 0.18007 0.58869 0.52347 0.0
N491 N 0.19568 0.51817 0.64611 0.0
C492 C 0.19282 0.57808 0.55365 0.0
C493 C 0.20203 0.54287 0.61672 0.0
N494 N 0.23888 0.54133 0.52911 0.0
N495 N 0.1865 0.60493 0.6423 0.0
H496 H 0.20182 0.48809 0.64873 0.0
H497 H 0.17883 0.52378 0.6669 0.0
H498 H 0.17869 0.63417 0.64137 0.0
H499 H 0.19697 0.59923 0.66583 0.0
H500 H 0.24265 0.5592 0.50644 0.0
H501 H 0.25809 0.52153 0.52986 0.0
H502 H 0.18232 0.57237 0.50132 0.0
H503 H 0.16328 0.61075 0.52106 0.0
C504 C 0.87653 0.45077 0.46405 0.0
C505 C 0.852 0.45654 0.43607 0.0
C506 C 0.81433 0.36712 0.42313 0.0
C507 C 0.83733 0.36048 0.45216 0.0
N508 N 0.87625 0.39378 0.50551 0.0
N509 N 0.78492 0.41803 0.39617 0.0
C510 C 0.86409 0.4017 0.47429 0.0
C511 C 0.81676 0.4139 0.41797 0.0
N512 N 0.91311 0.4922 0.48009 0.0
N513 N 0.79322 0.33087 0.39913 0.0
H514 H 0.78521 0.45169 0.39255 0.0
H515 H 0.75483 0.38711 0.3847 0.0
H516 H 0.79127 0.29633 0.40017 0.0
H517 H 0.7816 0.33708 0.37615 0.0
H518 H 0.93602 0.49044 0.49855 0.0
H519 H 0.9234 0.52862 0.47294 0.0
H520 H 0.89207 0.42185 0.52354 0.0
H521 H 0.86506 0.358 0.51463 0.0
C522 C 0.46404 0.86163 0.94354 0.0
C523 C 0.42184 0.84179 0.9222 0.0
C524 C 0.44265 0.78007 0.90117 0.0
C525 C 0.48874 0.80347 0.91967 0.0
N526 N 0.5484 0.87674 0.95172 0.0
N527 N 0.37837 0.79155 0.87464 0.0
C528 C 0.5009 0.84695 0.93927 0.0
C529 C 0.41344 0.80386 0.89918 0.0
N530 N 0.46894 0.89469 0.96785 0.0
N531 N 0.42525 0.73429 0.88637 0.0
H532 H 0.35803 0.81007 0.87175 0.0
H533 H 0.37381 0.76739 0.85509 0.0
H534 H 0.44355 0.71367 0.88748 0.0
H535 H 0.38936 0.71397 0.87592 0.0
H536 H 0.49608 0.90647 0.98657 0.0
H537 H 0.44312 0.907 0.97068 0.0
H538 H 0.55969 0.91097 0.96342 0.0
H539 H 0.57855 0.87123 0.94703 0.0
C540 C 0.65615 0.49834 0.39753 0.0
C541 C 0.69347 0.49762 0.41822 0.0
C542 C 0.6308 0.41271 0.43615 0.0
C543 C 0.5926 0.4153 0.41767 0.0
N544 N 0.56706 0.46813 0.39021 0.0
N545 N 0.71197 0.45812 0.46354 0.0
C546 C 0.60477 0.4607 0.40147 0.0
C547 C 0.67918 0.45641 0.43991 0.0
N548 N 0.66945 0.53332 0.37305 0.0
N549 N 0.62284 0.36791 0.4478 0.0
H550 H 0.74787 0.48903 0.46677 0.0
H551 H 0.70158 0.43094 0.48199 0.0
H552 H 0.58941 0.33457 0.44405 0.0
H553 H 0.6515 0.3633 0.45787 0.0
H554 H 0.64389 0.53229 0.35553 0.0
H555 H 0.70663 0.55978 0.36789 0.0
H556 H 0.5737 0.50229 0.38052 0.0
H557 H 0.52904 0.4421 0.3943 0.0
C558 C 0.22167 0.65306 0.95042 0.0
C559 C 0.22341 0.67838 0.92036 0.0
C560 C 0.19546 0.59937 0.88979 0.0
C561 C 0.18695 0.57325 0.92008 0.0
N562 N 0.18358 0.57354 0.97975 0.0
N563 N 0.19952 0.67025 0.86195 0.0
C564 C 0.19759 0.59964 0.95059 0.0
C565 C 0.20699 0.65012 0.89013 0.0
N566 N 0.24536 0.67976 0.97839 0.0
N567 N 0.19416 0.57614 0.86057 0.0
H568 H 0.20438 0.706 0.86072 0.0
H569 H 0.18272 0.64917 0.8406 0.0
H570 H 0.18714 0.53935 0.85953 0.0
H571 H 0.20538 0.59506 0.83794 0.0
H572 H 0.2491 0.66311 0.9999 0.0
H573 H 0.26633 0.71881 0.97902 0.0
H574 H 0.18587 0.59034 1.00268 0.0
H575 H 0.16508 0.53443 0.98055 0.0
C576 C 0.52214 0.15791 0.44083 0.0
C577 C 0.53305 0.20394 0.45563 0.0
C578 C 0.62267 0.23296 0.45548 0.0
C579 C 0.61275 0.18879 0.43806 0.0
N580 N 0.55351 0.1026 0.42466 0.0
N581 N 0.58801 0.2721 0.49084 0.0
C582 C 0.56241 0.1489 0.43411 0.0
C583 C 0.58157 0.23652 0.46813 0.0
N584 N 0.4737 0.12411 0.43213 0.0
N585 N 0.67062 0.27296 0.45751 0.0
H586 H 0.55739 0.27499 0.49942 0.0
H587 H 0.62212 0.29492 0.50298 0.0
H588 H 0.70103 0.27431 0.44502 0.0
H589 H 0.67943 0.30681 0.46879 0.0
H590 H 0.4636 0.09251 0.41753 0.0
H591 H 0.44371 0.12879 0.43938 0.0
H592 H 0.51765 0.07094 0.42366 0.0
H593 H 0.58263 0.09498 0.42074 0.0
C594 C 0.38068 0.50733 0.92743 0.0
C595 C 0.34361 0.51916 0.93712 0.0
C596 C 0.40677 0.60833 0.93895 0.0
C597 C 0.44256 0.59744 0.92427 0.0
N598 N 0.46656 0.53705 0.90863 0.0
N599 N 0.32617 0.57557 0.96712 0.0
C600 C 0.43038 0.54686 0.91989 0.0
C601 C 0.35811 0.56821 0.94744 0.0
N602 N 0.36877 0.45835 0.92802 0.0
N603 N 0.41822 0.65684 0.94334 0.0
H604 H 0.29346 0.54529 0.97677 0.0
H605 H 0.33509 0.60993 0.97765 0.0
H606 H 0.45342 0.68751 0.93821 0.0
H607 H 0.39176 0.66704 0.94993 0.0
H608 H 0.39347 0.44574 0.92195 0.0
H609 H 0.3353 0.431 0.93888 0.0
H610 H 0.45964 0.50159 0.9018 0.0
H611 H 0.50411 0.56514 0.90558 0.0
C612 C 0.36416 0.12699 0.27972 0.0
C613 C 0.37368 0.17209 0.29547 0.0
C614 C 0.38256 0.21148 0.2411 0.0
C615 C 0.38 0.16893 0.22572 0.0
N616 N 0.37512 0.08849 0.23032 0.0
N617 N 0.39985 0.26026 0.29141 0.0
C618 C 0.37235 0.12709 0.24496 0.0
C619 C 0.3847 0.21514 0.27626 0.0
N620 N 0.34643 0.08394 0.29791 0.0
N621 N 0.38205 0.24801 0.22211 0.0
H622 H 0.40237 0.26512 0.31709 0.0
H623 H 0.41413 0.29393 0.27844 0.0
H624 H 0.38044 0.24655 0.19619 0.0
H625 H 0.37844 0.27725 0.23209 0.0
H626 H 0.33412 0.04882 0.28729 0.0
H627 H 0.33954 0.08258 0.3234 0.0
H628 H 0.37538 0.05972 0.24372 0.0
H629 H 0.38147 0.08731 0.20494 0.0
C630 C 0.25457 0.42251 0.74416 0.0
C631 C 0.22959 0.37746 0.72537 0.0
C632 C 0.20508 0.32793 0.7767 0.0
C633 C 0.22509 0.37301 0.79535 0.0
N634 N 0.26385 0.46325 0.79733 0.0
N635 N 0.17717 0.28743 0.72288 0.0
C636 C 0.2488 0.42039 0.77924 0.0
C637 C 0.20395 0.33009 0.7414 0.0
N638 N 0.28477 0.46723 0.72849 0.0
N639 N 0.18783 0.28324 0.79287 0.0
H640 H 0.17588 0.2877 0.69696 0.0
H641 H 0.15329 0.25225 0.7331 0.0
H642 H 0.18822 0.28067 0.81874 0.0
H643 H 0.17715 0.24944 0.78082 0.0
H644 H 0.30847 0.50046 0.74109 0.0
H645 H 0.28938 0.47054 0.70274 0.0
H646 H 0.27544 0.49814 0.78663 0.0
H647 H 0.26155 0.46361 0.8232 0.0
C648 C 0.8718 0.20382 0.28008 0.0
C649 C 0.859 0.23516 0.2985 0.0
C650 C 0.85662 0.2747 0.24623 0.0
C651 C 0.85847 0.23628 0.22782 0.0
N652 N 0.85613 0.15652 0.22934 0.0
N653 N 0.82701 0.29293 0.2969 0.0
C654 C 0.86308 0.19869 0.24528 0.0
C655 C 0.84824 0.26885 0.28107 0.0
N656 N 0.8928 0.17937 0.29565 0.0
N657 N 0.86404 0.31735 0.23083 0.0
H658 H 0.81607 0.28694 0.32177 0.0
H659 H 0.81481 0.31437 0.28418 0.0
H660 H 0.87347 0.32457 0.20573 0.0
H661 H 0.86676 0.34784 0.24393 0.0
H662 H 0.90619 0.15912 0.28268 0.0
H663 H 0.90199 0.1842 0.32089 0.0
H664 H 0.85509 0.12646 0.24194 0.0
H665 H 0.84546 0.14889 0.20445 0.0
C666 C 0.64276 0.7927 0.77067 0.0
C667 C 0.65792 0.83658 0.79024 0.0
C668 C 0.66346 0.88202 0.73898 0.0
C669 C 0.65684 0.84047 0.71949 0.0
N670 N 0.65664 0.76187 0.71901 0.0
N671 N 0.69664 0.92706 0.79057 0.0
C672 C 0.65173 0.79755 0.736 0.0
C673 C 0.67257 0.88261 0.7737 0.0
N674 N 0.61706 0.746 0.7845 0.0
N675 N 0.65837 0.91963 0.72508 0.0
H676 H 0.70716 0.92948 0.81546 0.0
H677 H 0.71125 0.96168 0.77869 0.0
H678 H 0.64737 0.91887 0.70047 0.0
H679 H 0.65907 0.94838 0.73919 0.0
H680 H 0.60244 0.71326 0.77032 0.0
H681 H 0.60455 0.73998 0.80903 0.0
H682 H 0.65656 0.73177 0.73091 0.0
H683 H 0.66681 0.7657 0.69397 0.0
C684 C 0.86087 0.70183 0.23322 0.0
C685 C 0.82315 0.65733 0.2176 0.0
C686 C 0.7942 0.61778 0.27204 0.0
C687 C 0.82851 0.66375 0.2879 0.0
N688 N 0.88634 0.75285 0.28319 0.0
N689 N 0.74447 0.57894 0.22286 0.0
C690 C 0.85939 0.7069 0.26835 0.0
C691 C 0.78678 0.61721 0.23726 0.0
N692 N 0.89931 0.73828 0.21488 0.0
N693 N 0.7708 0.57393 0.28965 0.0
H694 H 0.73654 0.57803 0.19755 0.0
H695 H 0.71474 0.55121 0.23666 0.0
H696 H 0.77729 0.57157 0.31484 0.0
H697 H 0.7493 0.53896 0.27835 0.0
H698 H 0.93053 0.76906 0.22554 0.0
H699 H 0.90237 0.73548 0.18924 0.0
H700 H 0.90582 0.78619 0.26982 0.0
H701 H 0.885 0.75809 0.30872 0.0
C702 C 0.16722 0.83185 0.77763 0.0
C703 C 0.19792 0.81863 0.7964 0.0
C704 C 0.228 0.79882 0.74537 0.0
C705 C 0.19918 0.81434 0.72652 0.0
N706 N 0.1486 0.85384 0.72364 0.0
N707 N 0.26512 0.7994 0.79865 0.0
C708 C 0.17099 0.83344 0.74237 0.0
C709 C 0.23061 0.80504 0.78041 0.0
N710 N 0.13336 0.8412 0.79348 0.0
N711 N 0.25131 0.77641 0.7299 0.0
H712 H 0.26815 0.80334 0.82445 0.0
H713 H 0.29363 0.79498 0.78806 0.0
H714 H 0.25131 0.7722 0.70416 0.0
H715 H 0.26764 0.75875 0.74264 0.0
H716 H 0.10611 0.84578 0.78115 0.0
H717 H 0.12997 0.84071 0.81932 0.0
H718 H 0.13168 0.87289 0.7337 0.0
H719 H 0.15063 0.85545 0.69772 0.0
C720 C 0.35304 0.96725 1.00047 0.0
C721 C 0.30043 0.93517 1.00536 0.0
C722 C 0.29467 1.00551 0.02875 0.0
C723 C 0.34766 0.03767 0.02501 0.0
N724 N 0.42865 0.04733 0.01102 0.0
N725 N 0.22527 0.91981 0.03344 0.0
C726 C 0.37727 0.01816 0.01163 0.0
C727 C 0.27247 0.95325 0.02225 0.0
N728 N 0.37983 0.94871 0.98509 0.0
N729 N 0.26521 0.02529 0.03759 0.0
H730 H 0.21066 0.88116 0.03143 0.0
H731 H 0.20385 0.9298 0.04825 0.0
H732 H 0.27984 0.06363 0.04143 0.0
H733 H 0.22594 1.00458 0.03772 0.0
H734 H 0.416 0.97092 0.97555 0.0
H735 H 0.36493 0.91032 0.98181 0.0
H736 H 0.45273 0.03383 1.00524 0.0
H737 H 0.44783 0.08502 0.01772 0.0
C738 C 0.29472 0.33312 0.49037 0.0
C739 C 0.32529 0.37368 0.51162 0.0
C740 C 0.39914 0.3676 0.49572 0.0
C741 C 0.36701 0.32142 0.47932 0.0
N742 N 0.28134 0.25624 0.4656 0.0
N743 N 0.40637 0.429 0.5363 0.0
C744 C 0.31405 0.30332 0.47743 0.0
C745 C 0.37751 0.39085 0.51476 0.0
N746 N 0.24686 0.3225 0.48294 0.0
N747 N 0.45023 0.39058 0.49188 0.0
H748 H 0.39258 0.44914 0.54893 0.0
H749 H 0.44308 0.43888 0.54288 0.0
H750 H 0.46735 0.37612 0.47674 0.0
H751 H 0.47518 0.42656 0.50064 0.0
H752 H 0.22447 0.29645 0.46492 0.0
H753 H 0.23155 0.34352 0.49221 0.0
H754 H 0.24229 0.2395 0.46754 0.0
H755 H 0.29217 0.23127 0.45703 0.0
C756 C 0.99091 0.26527 0.01324 0.0
C757 C 0.96473 0.29216 0.01641 0.0
C758 C 0.03922 0.36882 0.99593 0.0
C759 C 0.06471 0.34142 0.99157 0.0
N760 N 0.06491 0.26333 0.99387 0.0
N761 N 0.96037 0.36706 0.00677 0.0
C762 C 0.04044 0.2895 0.99955 0.0
C763 C 0.9878 0.3432 1.00643 0.0
N764 N 0.96852 0.21663 0.02403 0.0
N765 N 0.06445 0.41949 0.99047 0.0
H766 H 0.923 0.34984 0.01464 0.0
H767 H 0.97288 0.40257 0.99688 0.0
H768 H 0.10163 0.43934 0.98222 0.0
H769 H 0.05022 0.44286 0.99638 0.0
H770 H 0.98719 0.19649 0.02663 0.0
H771 H 0.93093 0.19643 0.03157 0.0
H772 H 0.04765 0.22442 0.99487 0.0
H773 H 0.10277 0.28055 0.98699 0.0
C774 C 0.64884 1.00758 0.51826 0.0
C775 C 0.67572 0.98175 0.52266 0.0
C776 C 0.75322 0.05541 0.50295 0.0
C777 C 0.7254 0.07959 0.49542 0.0
N778 N 0.64473 0.07539 0.49143 0.0
N779 N 0.75111 0.97721 0.51414 0.0
C780 C 0.67268 0.0549 0.502 0.0
C781 C 0.72728 1.00462 0.51358 0.0
N782 N 0.6011 0.98781 0.53068 0.0
N783 N 0.80473 0.08161 0.50109 0.0
H784 H 0.73312 0.9397 0.5214 0.0
H785 H 0.78701 0.99001 0.50443 0.0
H786 H 0.82526 0.11921 0.49406 0.0
H787 H 0.82741 0.06773 0.50962 0.0
H788 H 0.58196 1.00769 0.53204 0.0
H789 H 0.58188 0.95269 0.54196 0.0
H790 H 0.60544 0.05622 0.49148 0.0
H791 H 0.6607 0.11034 0.48033 0.0
C792 C 0.66446 0.65788 0.03778 0.0
C793 C 0.69241 0.64092 0.01898 0.0
C794 C 0.66743 0.66771 0.96872 0.0
C795 C 0.65249 0.69657 0.98825 0.0
N796 N 0.64267 0.72269 0.04319 0.0
N797 N 0.72399 0.63521 0.96462 0.0
C798 C 0.65209 0.69237 0.02334 0.0
C799 C 0.69458 0.64681 0.98384 0.0
N800 N 0.64852 0.6401 0.06917 0.0
N801 N 0.65409 0.6584 0.93595 0.0
H802 H 0.74508 0.62006 0.97372 0.0
H803 H 0.73063 0.64475 0.93951 0.0
H804 H 0.6306 0.66929 0.92451 0.0
H805 H 0.66068 0.63414 0.92153 0.0
H806 H 0.62501 0.64874 0.08288 0.0
H807 H 0.65324 0.61171 0.07955 0.0
H808 H 0.64674 0.72366 0.06897 0.0
H809 H 0.63607 0.75042 0.03399 0.0
C810 C 0.99556 0.66206 0.48304 0.0
C811 C 0.95921 0.67531 0.49319 0.0
C812 C 0.02272 0.73897 0.53025 0.0
C813 C 0.0569 0.72155 0.52314 0.0
N814 N 0.06863 0.65635 0.49882 0.0
N815 N 0.93543 0.7188 0.53231 0.0
C816 C 0.04142 0.68028 0.50118 0.0
C817 C 0.97187 0.71121 0.51878 0.0
N818 N 0.98705 0.63271 0.45567 0.0
N819 N 0.03939 0.78353 0.54647 0.0
H820 H 0.89769 0.69789 0.52513 0.0
H821 H 0.94166 0.74162 0.55299 0.0
H822 H 0.07706 0.80689 0.55301 0.0
H823 H 1.01727 0.80009 0.54973 0.0
H824 H 1.01456 0.62665 0.44509 0.0
H825 H 0.95393 0.61779 0.44204 0.0
H826 H 0.05579 0.62278 0.48585 0.0
H827 H 0.10118 0.66664 0.51257 0.0
C828 C 0.74626 0.04888 0.99035 0.0
C829 C 0.79078 0.0638 0.00935 0.0
C830 C 0.78924 0.98603 0.99377 0.0
C831 C 0.74193 0.96874 0.97839 0.0
N832 N 0.68244 0.98684 0.95311 0.0
N833 N 0.86333 0.05566 0.0194 0.0
C834 C 0.72332 1.00184 0.97335 0.0
C835 C 0.81532 0.0353 0.00747 0.0
N836 N 0.72429 0.07788 0.99025 0.0
N837 N 0.80713 0.95373 0.99718 0.0
H838 H 0.88281 0.09212 0.02895 0.0
H839 H 0.8851 0.03862 0.01714 0.0
H840 H 0.78878 0.91804 0.9864 0.0
H841 H 0.83866 0.96144 0.01132 0.0
H842 H 0.68867 0.06641 0.98053 0.0
H843 H 0.74128 0.1136 1.00056 0.0
H844 H 0.66794 1.00961 0.94622 0.0
H845 H 0.66557 0.95223 0.94092 0.0
C846 C 0.79409 0.75485 0.53712 0.0
C847 C 0.81765 0.76928 0.50566 0.0
C848 C 0.80623 0.84235 0.50667 0.0
C849 C 0.77048 0.81966 0.53259 0.0
N850 N 0.73405 0.75706 0.57546 0.0
N851 N 0.85377 0.83059 0.46255 0.0
C852 C 0.76692 0.77772 0.54958 0.0
C853 C 0.82769 0.8154 0.4917 0.0
N854 N 0.79497 0.71658 0.55345 0.0
N855 N 0.81675 0.88832 0.49542 0.0
H856 H 0.87007 0.8112 0.45192 0.0
H857 H 0.85832 0.86115 0.44876 0.0
H858 H 0.80025 0.90742 0.50627 0.0
H859 H 0.8441 0.90879 0.47762 0.0
H860 H 0.78113 0.70523 0.57743 0.0
H861 H 0.81385 0.69921 0.54354 0.0
H862 H 0.72514 0.72307 0.58652 0.0
H863 H 0.71435 0.77345 0.58532 0.0
C864 C 0.98585 0.78789 0.01085 0.0
C865 C 0.96685 0.74879 0.03472 0.0
C866 C 0.05169 0.76065 0.04009 0.0
C867 C 0.06547 0.78775 0.00989 0.0
N868 N 0.04841 0.83233 0.96785 0.0
N869 N 0.98317 0.6994 0.074 0.0
C870 C 0.03401 0.80443 0.99625 0.0
C871 C 1.00062 0.73679 0.05086 0.0
N872 N 0.95598 0.80658 1.00102 0.0
N873 N 0.08737 0.75561 0.05707 0.0
H874 H 0.94634 0.68123 0.08282 0.0
H875 H 1.00473 0.68476 0.0834 0.0
H876 H 0.12461 0.77253 0.04867 0.0
H877 H 0.08132 0.73923 0.08051 0.0
H878 H 0.96801 0.83712 0.9851 0.0
H879 H 0.92037 0.79372 0.01148 0.0
H880 H 0.02488 0.84111 0.95438 0.0
H881 H 0.08379 0.84525 0.95717 0.0
C882 C 0.30055 0.99552 0.53254 0.0
C883 C 0.25139 0.9582 0.52277 0.0
C884 C 0.24967 0.01479 0.48061 0.0
C885 C 0.29789 0.05278 0.49137 0.0
N886 N 0.37409 0.07744 0.52179 0.0
N887 N 0.1825 0.92741 0.48427 0.0
C888 C 0.3251 0.04216 0.5153 0.0
C889 C 0.22723 0.96627 0.49545 0.0
N890 N 0.32215 0.98718 0.55964 0.0
N891 N 0.22473 0.02638 0.45733 0.0
H892 H 0.16556 0.89194 0.49526 0.0
H893 H 0.16389 0.92905 0.46311 0.0
H894 H 0.24151 0.06134 0.44564 0.0
H895 H 0.18746 1.00247 0.4503 0.0
H896 H 0.35586 0.01424 0.57037 0.0
H897 H 0.30464 0.95331 0.57262 0.0
H898 H 0.39783 0.07125 0.53704 0.0
H899 H 0.39223 0.11204 0.50967 0.0
C900 C 0.29348 0.2759 0.96895 0.0
C901 C 0.24196 0.25897 0.97489 0.0
C902 C 0.23389 0.18595 1.00467 0.0
C903 C 0.28706 0.20898 1.00519 0.0
N904 N 0.36811 0.27264 0.98548 0.0
N905 N 0.16091 0.19547 0.99388 0.0
C906 C 0.31698 0.25223 0.98565 0.0
C907 C 0.21117 0.2122 0.99051 0.0
N908 N 0.31994 0.3164 0.94873 0.0
N909 N 0.20596 0.14009 0.01927 0.0
H910 H 0.14431 0.21441 0.98298 0.0
H911 H 0.1361 0.16397 0.00754 0.0
H912 H 0.22296 0.12132 0.02986 0.0
H913 H 0.16674 0.1194 0.01895 0.0
H914 H 0.35724 0.33009 0.94168 0.0
H915 H 0.30262 0.33394 0.93691 0.0
H916 H 0.39316 0.30695 0.97465 0.0
H917 H 0.38571 0.25534 0.99717 0.0
C918 C 0.0602 0.33114 0.51398 0.0
C919 C 0.08131 0.29947 0.51627 0.0
C920 C 1.00825 0.23325 0.4864 0.0
C921 C 0.9876 0.26506 0.48445 0.0
N922 N 1.00182 0.34872 0.48467 0.0
N923 N 0.0831 0.22697 0.49581 0.0
C924 C 1.01701 0.31588 0.49385 0.0
C925 C 0.05781 0.25256 0.49944 0.0
N926 N 0.07804 0.37316 0.53329 0.0
N927 N 0.97934 0.18405 0.47756 0.0
H928 H 0.1201 0.24145 0.50415 0.0
H929 H 0.06937 0.19425 0.48176 0.0
H930 H 0.94347 0.16985 0.46723 0.0
H931 H 0.99 0.15734 0.48186 0.0
H932 H 0.0608 0.39488 0.53446 0.0
H933 H 0.10623 0.38326 0.55105 0.0
H934 H 0.02321 0.38726 0.48896 0.0
H935 H 0.97071 0.3375 0.46917 0.0
loop_
_geom_bond_atom_site_label_1
_geom_bond_atom_site_label_2
_geom_bond_distance
_geom_bond_site_symmetry_2
_ccdc_geom_bond_type
Co0 N4 2.148 . S
Co0 N10 2.128 . S
Co0 N20 2.194 . S
Co0 O25 2.351 . S
Co0 O26 2.155 . S
Co0 O27 2.096 . S
C1 N4 1.301 . S
C1 N5 1.328 . S
C1 H6 0.930 . S
C2 C3 1.333 . S
C2 N4 1.317 . S
C2 H7 0.930 . S
C3 C2 1.333 . S
C3 N5 1.350 . S
C3 H29 0.931 . S
N4 Co0 2.148 . S
N4 C1 1.301 . S
N4 C2 1.317 . S
N5 C1 1.328 . S
N5 C3 1.350 . S
H6 C1 0.930 . S
H7 C2 0.930 . S
C8 O9 1.224 . S
C8 O27 1.247 . S
O9 C8 1.224 . S
N10 Co0 2.128 . S
N10 C11 1.355 . S
N10 C13 1.311 . S
C11 N10 1.355 . S
C11 C12 1.363 . S
C11 H23 0.929 . S
C12 C11 1.363 . S
C12 N14 1.375 . S
C12 H30 0.931 . S
C13 N10 1.311 . S
C13 N14 1.347 . S
C13 H24 0.929 . S
N14 C12 1.375 . S
N14 C13 1.347 . S
C15 C18 1.365 . S
C15 N20 1.328 . S
C15 H21 0.929 . S
C16 C17 1.362 . S
C16 C19 1.378 . S
C16 H31 0.929 . S
C17 C16 1.362 . S
C17 C18 1.366 . S
C18 C15 1.365 . S
C18 C17 1.366 . S
C18 H32 0.930 . S
C19 C16 1.378 . S
C19 N20 1.315 . S
C19 H22 0.930 . S
N20 Co0 2.194 . S
N20 C15 1.328 . S
N20 C19 1.315 . S
H21 C15 0.929 . S
H22 C19 0.930 . S
H23 C11 0.929 . S
H24 C13 0.929 . S
O25 Co0 2.351 . S
O25 C28 1.244 . S
O26 Co0 2.155 . S
O26 C28 1.240 . S
O27 Co0 2.096 . S
O27 C8 1.247 . S
C28 O25 1.244 . S
C28 O26 1.240 . S
H29 C3 0.931 . S
H30 C12 0.931 . S
H31 C16 0.929 . S
H32 C18 0.930 . S
Co33 N37 2.148 . S
Co33 N43 2.128 . S
Co33 N53 2.194 . S
Co33 O58 2.351 . S
Co33 O59 2.155 . S
Co33 O60 2.096 . S
C34 N37 1.301 . S
C34 N38 1.328 . S
C34 H39 0.930 . S
C35 C36 1.333 . S
C35 N37 1.317 . S
C35 H40 0.930 . S
C36 C35 1.333 . S
C36 N38 1.350 . S
C36 H62 0.931 . S
N37 Co33 2.148 . S
N37 C34 1.301 . S
N37 C35 1.317 . S
N38 C34 1.328 . S
N38 C36 1.350 . S
H39 C34 0.930 . S
H40 C35 0.930 . S
C41 O42 1.224 . S
C41 O60 1.247 . S
O42 C41 1.224 . S
N43 Co33 2.128 . S
N43 C44 1.355 . S
N43 C46 1.311 . S
C44 N43 1.355 . S
C44 C45 1.363 . S
C44 H56 0.929 . S
C45 C44 1.363 . S
C45 N47 1.375 . S
C45 H63 0.931 . S
C46 N43 1.311 . S
C46 N47 1.347 . S
C46 H57 0.929 . S
N47 C45 1.375 . S
N47 C46 1.347 . S
C48 C51 1.365 . S
C48 N53 1.328 . S
C48 H54 0.929 . S
C49 C50 1.362 . S
C49 C52 1.378 . S
C49 H64 0.929 . S
C50 C49 1.362 . S
C50 C51 1.366 . S
C51 C48 1.365 . S
C51 C50 1.366 . S
C51 H65 0.930 . S
C52 C49 1.378 . S
C52 N53 1.315 . S
C52 H55 0.930 . S
N53 Co33 2.194 . S
N53 C48 1.328 . S
N53 C52 1.315 . S
H54 C48 0.929 . S
H55 C52 0.930 . S
H56 C44 0.929 . S
H57 C46 0.929 . S
O58 Co33 2.351 . S
O58 C61 1.244 . S
O59 Co33 2.155 . S
O59 C61 1.240 . S
O60 Co33 2.096 . S
O60 C41 1.247 . S
C61 O58 1.244 . S
C61 O59 1.240 . S
H62 C36 0.931 . S
H63 C45 0.931 . S
H64 C49 0.929 . S
H65 C51 0.930 . S
Co66 N70 2.148 . S
Co66 N76 2.128 . S
Co66 N86 2.194 . S
Co66 O91 2.351 . S
Co66 O92 2.155 . S
Co66 O93 2.096 . S
C67 N70 1.301 . S
C67 N71 1.328 . S
C67 H72 0.930 . S
C68 C69 1.333 . S
C68 N70 1.317 . S
C68 H73 0.930 . S
C69 C68 1.333 . S
C69 N71 1.350 . S
C69 H95 0.931 . S
N70 Co66 2.148 . S
N70 C67 1.301 . S
N70 C68 1.317 . S
N71 C67 1.328 . S
N71 C69 1.350 . S
H72 C67 0.930 . S
H73 C68 0.930 . S
C74 O75 1.224 . S
C74 O93 1.247 . S
O75 C74 1.224 . S
N76 Co66 2.128 . S
N76 C77 1.355 . S
N76 C79 1.311 . S
C77 N76 1.355 . S
C77 C78 1.363 . S
C77 H89 0.929 . S
C78 C77 1.363 . S
C78 N80 1.375 . S
C78 H96 0.931 . S
C79 N76 1.311 . S
C79 N80 1.347 . S
C79 H90 0.929 . S
N80 C78 1.375 . S
N80 C79 1.347 . S
C81 C84 1.365 . S
C81 N86 1.328 . S
C81 H87 0.929 . S
C82 C83 1.362 . S
C82 C85 1.378 . S
C82 H97 0.929 . S
C83 C82 1.362 . S
C83 C84 1.366 . S
C84 C81 1.365 . S
C84 C83 1.366 . S
C84 H98 0.930 . S
C85 C82 1.378 . S
C85 N86 1.315 . S
C85 H88 0.930 . S
N86 Co66 2.194 . S
N86 C81 1.328 . S
N86 C85 1.315 . S
H87 C81 0.929 . S
H88 C85 0.930 . S
H89 C77 0.929 . S
H90 C79 0.929 . S
O91 Co66 2.351 . S
O91 C94 1.244 . S
O92 Co66 2.155 . S
O92 C94 1.240 . S
O93 Co66 2.096 . S
O93 C74 1.247 . S
C94 O91 1.244 . S
C94 O92 1.240 . S
H95 C69 0.931 . S
H96 C78 0.931 . S
H97 C82 0.929 . S
H98 C84 0.930 . S
Co99 N103 2.148 . S
Co99 N109 2.128 . S
Co99 N119 2.194 . S
Co99 O124 2.351 . S
Co99 O125 2.155 . S
Co99 O126 2.096 . S
C100 N103 1.301 . S
C100 N104 1.328 . S
C100 H105 0.930 . S
C101 C102 1.333 . S
C101 N103 1.317 . S
C101 H106 0.930 . S
C102 C101 1.333 . S
C102 N104 1.350 . S
C102 H128 0.931 . S
N103 Co99 2.148 . S
N103 C100 1.301 . S
N103 C101 1.317 . S
N104 C100 1.328 . S
N104 C102 1.350 . S
H105 C100 0.930 . S
H106 C101 0.930 . S
C107 O108 1.224 . S
C107 O126 1.247 . S
O108 C107 1.224 . S
N109 Co99 2.128 . S
N109 C110 1.355 . S
N109 C112 1.311 . S
C110 N109 1.355 . S
C110 C111 1.363 . S
C110 H122 0.929 . S
C111 C110 1.363 . S
C111 N113 1.375 . S
C111 H129 0.931 . S
C112 N109 1.311 . S
C112 N113 1.347 . S
C112 H123 0.929 . S
N113 C111 1.375 . S
N113 C112 1.347 . S
C114 C117 1.365 . S
C114 N119 1.328 . S
C114 H120 0.929 . S
C115 C116 1.362 . S
C115 C118 1.378 . S
C115 H130 0.929 . S
C116 C115 1.362 . S
C116 C117 1.366 . S
C117 C114 1.365 . S
C117 C116 1.366 . S
C117 H131 0.930 . S
C118 C115 1.378 . S
C118 N119 1.315 . S
C118 H121 0.930 . S
N119 Co99 2.194 . S
N119 C114 1.328 . S
N119 C118 1.315 . S
H120 C114 0.929 . S
H121 C118 0.930 . S
H122 C110 0.929 . S
H123 C112 0.929 . S
O124 Co99 2.351 . S
O124 C127 1.244 . S
O125 Co99 2.155 . S
O125 C127 1.240 . S
O126 Co99 2.096 . S
O126 C107 1.247 . S
C127 O124 1.244 . S
C127 O125 1.240 . S
H128 C102 0.931 . S
H129 C111 0.931 . S
H130 C115 0.929 . S
H131 C117 0.930 . S
Co132 N136 2.148 . S
Co132 N142 2.128 . S
Co132 N152 2.194 . S
Co132 O157 2.351 . S
Co132 O158 2.155 . S
Co132 O159 2.096 . S
C133 N136 1.301 . S
C133 N137 1.328 . S
C133 H138 0.930 . S
C134 C135 1.333 . S
C134 N136 1.317 . S
C134 H139 0.930 . S
C135 C134 1.333 . S
C135 N137 1.350 . S
C135 H161 0.931 . S
N136 Co132 2.148 . S
N136 C133 1.301 . S
N136 C134 1.317 . S
N137 C133 1.328 . S
N137 C135 1.350 . S
H138 C133 0.930 . S
H139 C134 0.930 . S
C140 O141 1.224 . S
C140 O159 1.247 . S
O141 C140 1.224 . S
N142 Co132 2.128 . S
N142 C143 1.355 . S
N142 C145 1.311 . S
C143 N142 1.355 . S
C143 C144 1.363 . S
C143 H155 0.929 . S
C144 C143 1.363 . S
C144 N146 1.375 . S
C144 H162 0.931 . S
C145 N142 1.311 . S
C145 N146 1.347 . S
C145 H156 0.929 . S
N146 C144 1.375 . S
N146 C145 1.347 . S
C147 C150 1.365 . S
C147 N152 1.328 . S
C147 H153 0.929 . S
C148 C149 1.362 . S
C148 C151 1.378 . S
C148 H163 0.929 . S
C149 C148 1.362 . S
C149 C150 1.366 . S
C150 C147 1.365 . S
C150 C149 1.366 . S
C150 H164 0.930 . S
C151 C148 1.378 . S
C151 N152 1.315 . S
C151 H154 0.930 . S
N152 Co132 2.194 . S
N152 C147 1.328 . S
N152 C151 1.315 . S
H153 C147 0.929 . S
H154 C151 0.930 . S
H155 C143 0.929 . S
H156 C145 0.929 . S
O157 Co132 2.351 . S
O157 C160 1.244 . S
O158 Co132 2.155 . S
O158 C160 1.240 . S
O159 Co132 2.096 . S
O159 C140 1.247 . S
C160 O157 1.244 . S
C160 O158 1.240 . S
H161 C135 0.931 . S
H162 C144 0.931 . S
H163 C148 0.929 . S
H164 C150 0.930 . S
Co165 N169 2.148 . S
Co165 N175 2.128 . S
Co165 N185 2.194 . S
Co165 O190 2.351 . S
Co165 O191 2.155 . S
Co165 O192 2.096 . S
C166 N169 1.301 . S
C166 N170 1.328 . S
C166 H171 0.930 . S
C167 C168 1.333 . S
C167 N169 1.317 . S
C167 H172 0.930 . S
C168 C167 1.333 . S
C168 N170 1.350 . S
C168 H194 0.931 . S
N169 Co165 2.148 . S
N169 C166 1.301 . S
N169 C167 1.317 . S
N170 C166 1.328 . S
N170 C168 1.350 . S
H171 C166 0.930 . S
H172 C167 0.930 . S
C173 O174 1.224 . S
C173 O192 1.247 . S
O174 C173 1.224 . S
N175 Co165 2.128 . S
N175 C176 1.355 . S
N175 C178 1.311 . S
C176 N175 1.355 . S
C176 C177 1.363 . S
C176 H188 0.929 . S
C177 C176 1.363 . S
C177 N179 1.375 . S
C177 H195 0.931 . S
C178 N175 1.311 . S
C178 N179 1.347 . S
C178 H189 0.929 . S
N179 C177 1.375 . S
N179 C178 1.347 . S
C180 C183 1.365 . S
C180 N185 1.328 . S
C180 H186 0.929 . S
C181 C182 1.362 . S
C181 C184 1.378 . S
C181 H196 0.929 . S
C182 C181 1.362 . S
C182 C183 1.366 . S
C183 C180 1.365 . S
C183 C182 1.366 . S
C183 H197 0.930 . S
C184 C181 1.378 . S
C184 N185 1.315 . S
C184 H187 0.930 . S
N185 Co165 2.194 . S
N185 C180 1.328 . S
N185 C184 1.315 . S
H186 C180 0.929 . S
H187 C184 0.930 . S
H188 C176 0.929 . S
H189 C178 0.929 . S
O190 Co165 2.351 . S
O190 C193 1.244 . S
O191 Co165 2.155 . S
O191 C193 1.240 . S
O192 Co165 2.096 . S
O192 C173 1.247 . S
C193 O190 1.244 . S
C193 O191 1.240 . S
H194 C168 0.931 . S
H195 C177 0.931 . S
H196 C181 0.929 . S
H197 C183 0.930 . S
Co198 N202 2.148 . S
Co198 N208 2.128 . S
Co198 N218 2.194 . S
Co198 O223 2.351 . S
Co198 O224 2.155 . S
Co198 O225 2.096 . S
C199 N202 1.301 . S
C199 N203 1.328 . S
C199 H204 0.930 . S
C200 C201 1.333 . S
C200 N202 1.317 . S
C200 H205 0.930 . S
C201 C200 1.333 . S
C201 N203 1.350 . S
C201 H227 0.931 . S
N202 Co198 2.148 . S
N202 C199 1.301 . S
N202 C200 1.317 . S
N203 C199 1.328 . S
N203 C201 1.350 . S
H204 C199 0.930 . S
H205 C200 0.930 . S
C206 O207 1.224 . S
C206 O225 1.247 . S
O207 C206 1.224 . S
N208 Co198 2.128 . S
N208 C209 1.355 . S
N208 C211 1.311 . S
C209 N208 1.355 . S
C209 C210 1.363 . S
C209 H221 0.929 . S
C210 C209 1.363 . S
C210 N212 1.375 . S
C210 H228 0.931 . S
C211 N208 1.311 . S
C211 N212 1.347 . S
C211 H222 0.929 . S
N212 C210 1.375 . S
N212 C211 1.347 . S
C213 C216 1.365 . S
C213 N218 1.328 . S
C213 H219 0.929 . S
C214 C215 1.362 . S
C214 C217 1.378 . S
C214 H229 0.929 . S
C215 C214 1.362 . S
C215 C216 1.366 . S
C216 C213 1.365 . S
C216 C215 1.366 . S
C216 H230 0.930 . S
C217 C214 1.378 . S
C217 N218 1.315 . S
C217 H220 0.930 . S
N218 Co198 2.194 . S
N218 C213 1.328 . S
N218 C217 1.315 . S
H219 C213 0.929 . S
H220 C217 0.930 . S
H221 C209 0.929 . S
H222 C211 0.929 . S
O223 Co198 2.351 . S
O223 C226 1.244 . S
O224 Co198 2.155 . S
O224 C226 1.240 . S
O225 Co198 2.096 . S
O225 C206 1.247 . S
C226 O223 1.244 . S
C226 O224 1.240 . S
H227 C201 0.931 . S
H228 C210 0.931 . S
H229 C214 0.929 . S
H230 C216 0.930 . S
Co231 N235 2.148 . S
Co231 N241 2.128 . S
Co231 N251 2.194 . S
Co231 O256 2.351 . S
Co231 O257 2.155 . S
Co231 O258 2.096 . S
C232 N235 1.301 . S
C232 N236 1.328 . S
C232 H237 0.930 . S
C233 C234 1.333 . S
C233 N235 1.317 . S
C233 H238 0.930 . S
C234 C233 1.333 . S
C234 N236 1.350 . S
C234 H260 0.931 . S
N235 Co231 2.148 . S
N235 C232 1.301 . S
N235 C233 1.317 . S
N236 C232 1.328 . S
N236 C234 1.350 . S
H237 C232 0.930 . S
H238 C233 0.930 . S
C239 O240 1.224 . S
C239 O258 1.247 . S
O240 C239 1.224 . S
N241 Co231 2.128 . S
N241 C242 1.355 . S
N241 C244 1.311 . S
C242 N241 1.355 . S
C242 C243 1.363 . S
C242 H254 0.929 . S
C243 C242 1.363 . S
C243 N245 1.375 . S
C243 H261 0.931 . S
C244 N241 1.311 . S
C244 N245 1.347 . S
C244 H255 0.929 . S
N245 C243 1.375 . S
N245 C244 1.347 . S
C246 C249 1.365 . S
C246 N251 1.328 . S
C246 H252 0.929 . S
C247 C248 1.362 . S
C247 C250 1.378 . S
C247 H262 0.929 . S
C248 C247 1.362 . S
C248 C249 1.366 . S
C249 C246 1.365 . S
C249 C248 1.366 . S
C249 H263 0.930 . S
C250 C247 1.378 . S
C250 N251 1.315 . S
C250 H253 0.930 . S
N251 Co231 2.194 . S
N251 C246 1.328 . S
N251 C250 1.315 . S
H252 C246 0.929 . S
H253 C250 0.930 . S
H254 C242 0.929 . S
H255 C244 0.929 . S
O256 Co231 2.351 . S
O256 C259 1.244 . S
O257 Co231 2.155 . S
O257 C259 1.240 . S
O258 Co231 2.096 . S
O258 C239 1.247 . S
C259 O256 1.244 . S
C259 O257 1.240 . S
H260 C234 0.931 . S
H261 C243 0.931 . S
H262 C247 0.929 . S
H263 C249 0.930 . S
Co264 N268 2.148 . S
Co264 N274 2.128 . S
Co264 N284 2.194 . S
Co264 O289 2.351 . S
Co264 O290 2.155 . S
Co264 O291 2.096 . S
C265 N268 1.301 . S
C265 N269 1.328 . S
C265 H270 0.930 . S
C266 C267 1.333 . S
C266 N268 1.317 . S
C266 H271 0.930 . S
C267 C266 1.333 . S
C267 N269 1.350 . S
C267 H293 0.931 . S
N268 Co264 2.148 . S
N268 C265 1.301 . S
N268 C266 1.317 . S
N269 C265 1.328 . S
N269 C267 1.350 . S
H270 C265 0.930 . S
H271 C266 0.930 . S
C272 O273 1.224 . S
C272 O291 1.247 . S
O273 C272 1.224 . S
N274 Co264 2.128 . S
N274 C275 1.355 . S
N274 C277 1.311 . S
C275 N274 1.355 . S
C275 C276 1.363 . S
C275 H287 0.929 . S
C276 C275 1.363 . S
C276 N278 1.375 . S
C276 H294 0.931 . S
C277 N274 1.311 . S
C277 N278 1.347 . S
C277 H288 0.929 . S
N278 C276 1.375 . S
N278 C277 1.347 . S
C279 C282 1.365 . S
C279 N284 1.328 . S
C279 H285 0.929 . S
C280 C281 1.362 . S
C280 C283 1.378 . S
C280 H295 0.929 . S
C281 C280 1.362 . S
C281 C282 1.366 . S
C282 C279 1.365 . S
C282 C281 1.366 . S
C282 H296 0.930 . S
C283 C280 1.378 . S
C283 N284 1.315 . S
C283 H286 0.930 . S
N284 Co264 2.194 . S
N284 C279 1.328 . S
N284 C283 1.315 . S
H285 C279 0.929 . S
H286 C283 0.930 . S
H287 C275 0.929 . S
H288 C277 0.929 . S
O289 Co264 2.351 . S
O289 C292 1.244 . S
O290 Co264 2.155 . S
O290 C292 1.240 . S
O291 Co264 2.096 . S
O291 C272 1.247 . S
C292 O289 1.244 . S
C292 O290 1.240 . S
H293 C267 0.931 . S
H294 C276 0.931 . S
H295 C280 0.929 . S
H296 C282 0.930 . S
Co297 N301 2.148 . S
Co297 N307 2.128 . S
Co297 N317 2.194 . S
Co297 O322 2.351 . S
Co297 O323 2.155 . S
Co297 O324 2.096 . S
C298 N301 1.301 . S
C298 N302 1.328 . S
C298 H303 0.930 . S
C299 C300 1.333 . S
C299 N301 1.317 . S
C299 H304 0.930 . S
C300 C299 1.333 . S
C300 N302 1.350 . S
C300 H326 0.931 . S
N301 Co297 2.148 . S
N301 C298 1.301 . S
N301 C299 1.317 . S
N302 C298 1.328 . S
N302 C300 1.350 . S
H303 C298 0.930 . S
H304 C299 0.930 . S
C305 O306 1.224 . S
C305 O324 1.247 . S
O306 C305 1.224 . S
N307 Co297 2.128 . S
N307 C308 1.355 . S
N307 C310 1.311 . S
C308 N307 1.355 . S
C308 C309 1.363 . S
C308 H320 0.929 . S
C309 C308 1.363 . S
C309 N311 1.375 . S
C309 H327 0.931 . S
C310 N307 1.311 . S
C310 N311 1.347 . S
C310 H321 0.929 . S
N311 C309 1.375 . S
N311 C310 1.347 . S
C312 C315 1.365 . S
C312 N317 1.328 . S
C312 H318 0.929 . S
C313 C314 1.362 . S
C313 C316 1.378 . S
C313 H328 0.929 . S
C314 C313 1.362 . S
C314 C315 1.366 . S
C315 C312 1.365 . S
C315 C314 1.366 . S
C315 H329 0.930 . S
C316 C313 1.378 . S
C316 N317 1.315 . S
C316 H319 0.930 . S
N317 Co297 2.194 . S
N317 C312 1.328 . S
N317 C316 1.315 . S
H318 C312 0.929 . S
H319 C316 0.930 . S
H320 C308 0.929 . S
H321 C310 0.929 . S
O322 Co297 2.351 . S
O322 C325 1.244 . S
O323 Co297 2.155 . S
O323 C325 1.240 . S
O324 Co297 2.096 . S
O324 C305 1.247 . S
C325 O322 1.244 . S
C325 O323 1.240 . S
H326 C300 0.931 . S
H327 C309 0.931 . S
H328 C313 0.929 . S
H329 C315 0.930 . S
Co330 N334 2.148 . S
Co330 N340 2.128 . S
Co330 N350 2.194 . S
Co330 O355 2.351 . S
Co330 O356 2.155 . S
Co330 O357 2.096 . S
C331 N334 1.301 . S
C331 N335 1.328 . S
C331 H336 0.930 . S
C332 C333 1.333 . S
C332 N334 1.317 . S
C332 H337 0.930 . S
C333 C332 1.333 . S
C333 N335 1.350 . S
C333 H359 0.931 . S
N334 Co330 2.148 . S
N334 C331 1.301 . S
N334 C332 1.317 . S
N335 C331 1.328 . S
N335 C333 1.350 . S
H336 C331 0.930 . S
H337 C332 0.930 . S
C338 O339 1.224 . S
C338 O357 1.247 . S
O339 C338 1.224 . S
N340 Co330 2.128 . S
N340 C341 1.355 . S
N340 C343 1.311 . S
C341 N340 1.355 . S
C341 C342 1.363 . S
C341 H353 0.929 . S
C342 C341 1.363 . S
C342 N344 1.375 . S
C342 H360 0.931 . S
C343 N340 1.311 . S
C343 N344 1.347 . S
C343 H354 0.929 . S
N344 C342 1.375 . S
N344 C343 1.347 . S
C345 C348 1.365 . S
C345 N350 1.328 . S
C345 H351 0.929 . S
C346 C347 1.362 . S
C346 C349 1.378 . S
C346 H361 0.929 . S
C347 C346 1.362 . S
C347 C348 1.366 . S
C348 C345 1.365 . S
C348 C347 1.366 . S
C348 H362 0.930 . S
C349 C346 1.378 . S
C349 N350 1.315 . S
C349 H352 0.930 . S
N350 Co330 2.194 . S
N350 C345 1.328 . S
N350 C349 1.315 . S
H351 C345 0.929 . S
H352 C349 0.930 . S
H353 C341 0.929 . S
H354 C343 0.929 . S
O355 Co330 2.351 . S
O355 C358 1.244 . S
O356 Co330 2.155 . S
O356 C358 1.240 . S
O357 Co330 2.096 . S
O357 C338 1.247 . S
C358 O355 1.244 . S
C358 O356 1.240 . S
H359 C333 0.931 . S
H360 C342 0.931 . S
H361 C346 0.929 . S
H362 C348 0.930 . S
Co363 N367 2.148 . S
Co363 N373 2.128 . S
Co363 N383 2.194 . S
Co363 O388 2.351 . S
Co363 O389 2.155 . S
Co363 O390 2.096 . S
C364 N367 1.301 . S
C364 N368 1.328 . S
C364 H369 0.930 . S
C365 C366 1.333 . S
C365 N367 1.317 . S
C365 H370 0.930 . S
C366 C365 1.333 . S
C366 N368 1.350 . S
C366 H392 0.931 . S
N367 Co363 2.148 . S
N367 C364 1.301 . S
N367 C365 1.317 . S
N368 C364 1.328 . S
N368 C366 1.350 . S
H369 C364 0.930 . S
H370 C365 0.930 . S
C371 O372 1.224 . S
C371 O390 1.247 . S
O372 C371 1.224 . S
N373 Co363 2.128 . S
N373 C374 1.355 . S
N373 C376 1.311 . S
C374 N373 1.355 . S
C374 C375 1.363 . S
C374 H386 0.929 . S
C375 C374 1.363 . S
C375 N377 1.375 . S
C375 H393 0.931 . S
C376 N373 1.311 . S
C376 N377 1.347 . S
C376 H387 0.929 . S
N377 C375 1.375 . S
N377 C376 1.347 . S
C378 C381 1.365 . S
C378 N383 1.328 . S
C378 H384 0.929 . S
C379 C380 1.362 . S
C379 C382 1.378 . S
C379 H394 0.929 . S
C380 C379 1.362 . S
C380 C381 1.366 . S
C381 C378 1.365 . S
C381 C380 1.366 . S
C381 H395 0.930 . S
C382 C379 1.378 . S
C382 N383 1.315 . S
C382 H385 0.930 . S
N383 Co363 2.194 . S
N383 C378 1.328 . S
N383 C382 1.315 . S
H384 C378 0.929 . S
H385 C382 0.930 . S
H386 C374 0.929 . S
H387 C376 0.929 . S
O388 Co363 2.351 . S
O388 C391 1.244 . S
O389 Co363 2.155 . S
O389 C391 1.240 . S
O390 Co363 2.096 . S
O390 C371 1.247 . S
C391 O388 1.244 . S
C391 O389 1.240 . S
H392 C366 0.931 . S
H393 C375 0.931 . S
H394 C379 0.929 . S
H395 C381 0.930 . S
C396 C397 1.363 . S
C396 C402 1.379 . S
C396 N404 1.356 . S
C397 C396 1.363 . S
C397 C403 1.363 . S
C398 C399 1.363 . S
C398 C403 1.379 . S
C398 N405 1.356 . S
C399 C398 1.363 . S
C399 C402 1.363 . S
N400 C402 1.356 . S
N400 H412 0.984 . S
N400 H413 0.985 . S
N401 C403 1.356 . S
N401 H406 0.984 . S
N401 H407 0.985 . S
C402 C396 1.379 . S
C402 C399 1.363 . S
C402 N400 1.356 . S
C403 C397 1.363 . S
C403 C398 1.379 . S
C403 N401 1.356 . S
N404 C396 1.356 . S
N404 H410 0.997 . S
N404 H411 0.984 . S
N405 C398 1.356 . S
N405 H408 0.984 . S
N405 H409 0.985 . S
H406 N401 0.984 . S
H407 N401 0.985 . S
H408 N405 0.984 . S
H409 N405 0.985 . S
H410 N404 0.997 . S
H411 N404 0.984 . S
H412 N400 0.984 . S
H413 N400 0.985 . S
C414 C415 1.363 . S
C414 C420 1.379 . S
C414 N422 1.356 . S
C415 C414 1.363 . S
C415 C421 1.363 . S
C416 C417 1.363 . S
C416 C421 1.379 . S
C416 N423 1.356 . S
C417 C416 1.363 . S
C417 C420 1.363 . S
N418 C420 1.356 . S
N418 H430 0.984 . S
N418 H431 0.985 . S
N419 C421 1.356 . S
N419 H424 0.984 . S
N419 H425 0.985 . S
C420 C414 1.379 . S
C420 C417 1.363 . S
C420 N418 1.356 . S
C421 C415 1.363 . S
C421 C416 1.379 . S
C421 N419 1.356 . S
N422 C414 1.356 . S
N422 H428 0.984 . S
N422 H429 0.984 . S
N423 C416 1.356 . S
N423 H426 0.984 . S
N423 H427 0.985 . S
H424 N419 0.984 . S
H425 N419 0.985 . S
H426 N423 0.984 . S
H427 N423 0.985 . S
H428 N422 0.984 . S
H429 N422 0.984 . S
H430 N418 0.984 . S
H431 N418 0.985 . S
C432 C433 1.363 . S
C432 C438 1.379 . S
C432 N440 1.356 . S
C433 C432 1.363 . S
C433 C439 1.363 . S
C434 C435 1.363 . S
C434 C439 1.379 . S
C434 N441 1.356 . S
C435 C434 1.363 . S
C435 C438 1.363 . S
N436 C438 1.356 . S
N436 H448 0.984 . S
N436 H449 0.985 . S
N437 C439 1.356 . S
N437 H442 0.984 . S
N437 H443 0.985 . S
C438 C432 1.379 . S
C438 C435 1.363 . S
C438 N436 1.356 . S
C439 C433 1.363 . S
C439 C434 1.379 . S
C439 N437 1.356 . S
N440 C432 1.356 . S
N440 H446 0.984 . S
N440 H447 0.984 . S
N441 C434 1.356 . S
N441 H444 0.984 . S
N441 H445 0.985 . S
H442 N437 0.984 . S
H443 N437 0.985 . S
H444 N441 0.984 . S
H445 N441 0.985 . S
H446 N440 0.984 . S
H447 N440 0.984 . S
H448 N436 0.984 . S
H449 N436 0.985 . S
C450 C451 1.363 . S
C450 C456 1.379 . S
C450 N458 1.356 . S
C451 C450 1.363 . S
C451 C457 1.363 . S
C452 C453 1.363 . S
C452 C457 1.379 . S
C452 N459 1.356 . S
C453 C452 1.363 . S
C453 C456 1.363 . S
N454 C456 1.356 . S
N454 H466 0.984 . S
N454 H467 0.985 . S
N455 C457 1.356 . S
N455 H460 0.984 . S
N455 H461 0.985 . S
C456 C450 1.379 . S
C456 C453 1.363 . S
C456 N454 1.356 . S
C457 C451 1.363 . S
C457 C452 1.379 . S
C457 N455 1.356 . S
N458 C450 1.356 . S
N458 H464 0.984 . S
N458 H465 0.984 . S
N459 C452 1.356 . S
N459 H462 0.984 . S
N459 H463 0.985 . S
H460 N455 0.984 . S
H461 N455 0.985 . S
H462 N459 0.984 . S
H463 N459 0.985 . S
H464 N458 0.984 . S
H465 N458 0.984 . S
H466 N454 0.984 . S
H467 N454 0.985 . S
C468 C469 1.363 . S
C468 C474 1.379 . S
C468 N476 1.356 . S
C469 C468 1.363 . S
C469 C475 1.363 . S
C470 C471 1.363 . S
C470 C475 1.379 . S
C470 N477 1.356 . S
C471 C470 1.363 . S
C471 C474 1.363 . S
N472 C474 1.356 . S
N472 H484 0.984 . S
N472 H485 0.985 . S
N473 C475 1.356 . S
N473 H478 0.984 . S
N473 H479 0.985 . S
C474 C468 1.379 . S
C474 C471 1.363 . S
C474 N472 1.356 . S
C475 C469 1.363 . S
C475 C470 1.379 . S
C475 N473 1.356 . S
N476 C468 1.356 . S
N476 H482 0.984 . S
N476 H483 0.984 . S
N477 C470 1.356 . S
N477 H480 0.984 . S
N477 H481 0.985 . S
H478 N473 0.984 . S
H479 N473 0.985 . S
H480 N477 0.984 . S
H481 N477 0.985 . S
H482 N476 0.984 . S
H483 N476 0.984 . S
H484 N472 0.984 . S
H485 N472 0.985 . S
C486 C487 1.363 . S
C486 C492 1.379 . S
C486 N494 1.356 . S
C487 C486 1.363 . S
C487 C493 1.363 . S
C488 C489 1.363 . S
C488 C493 1.379 . S
C488 N495 1.356 . S
C489 C488 1.363 . S
C489 C492 1.363 . S
N490 C492 1.356 . S
N490 H502 0.984 . S
N490 H503 0.985 . S
N491 C493 1.356 . S
N491 H496 0.984 . S
N491 H497 0.985 . S
C492 C486 1.379 . S
C492 C489 1.363 . S
C492 N490 1.356 . S
C493 C487 1.363 . S
C493 C488 1.379 . S
C493 N491 1.356 . S
N494 C486 1.356 . S
N494 H500 0.984 . S
N494 H501 0.984 . S
N495 C488 1.356 . S
N495 H498 0.984 . S
N495 H499 0.985 . S
H496 N491 0.984 . S
H497 N491 0.985 . S
H498 N495 0.984 . S
H499 N495 0.985 . S
H500 N494 0.984 . S
H501 N494 0.984 . S
H502 N490 0.984 . S
H503 N490 0.985 . S
C504 C505 1.363 . S
C504 C510 1.379 . S
C504 N512 1.356 . S
C505 C504 1.363 . S
C505 C511 1.363 . S
C506 C507 1.363 . S
C506 C511 1.379 . S
C506 N513 1.356 . S
C507 C506 1.363 . S
C507 C510 1.363 . S
N508 C510 1.356 . S
N508 H520 0.984 . S
N508 H521 0.985 . S
N509 C511 1.356 . S
N509 H514 0.984 . S
N509 H515 0.985 . S
C510 C504 1.379 . S
C510 C507 1.363 . S
C510 N508 1.356 . S
C511 C505 1.363 . S
C511 C506 1.379 . S
C511 N509 1.356 . S
N512 C504 1.356 . S
N512 H518 0.984 . S
N512 H519 0.984 . S
N513 C506 1.356 . S
N513 H516 0.984 . S
N513 H517 0.985 . S
H514 N509 0.984 . S
H515 N509 0.985 . S
H516 N513 0.984 . S
H517 N513 0.985 . S
H518 N512 0.984 . S
H519 N512 0.984 . S
H520 N508 0.984 . S
H521 N508 0.985 . S
C522 C523 1.363 . S
C522 C528 1.379 . S
C522 N530 1.356 . S
C523 C522 1.363 . S
C523 C529 1.363 . S
C524 C525 1.363 . S
C524 C529 1.379 . S
C524 N531 1.356 . S
C525 C524 1.363 . S
C525 C528 1.363 . S
N526 C528 1.356 . S
N526 H538 0.984 . S
N526 H539 0.985 . S
N527 C529 1.356 . S
N527 H532 0.984 . S
N527 H533 0.985 . S
C528 C522 1.379 . S
C528 C525 1.363 . S
C528 N526 1.356 . S
C529 C523 1.363 . S
C529 C524 1.379 . S
C529 N527 1.356 . S
N530 C522 1.356 . S
N530 H536 0.984 . S
N530 H537 0.984 . S
N531 C524 1.356 . S
N531 H534 0.984 . S
N531 H535 0.985 . S
H532 N527 0.984 . S
H533 N527 0.985 . S
H534 N531 0.984 . S
H535 N531 0.985 . S
H536 N530 0.984 . S
H537 N530 0.984 . S
H538 N526 0.984 . S
H539 N526 0.985 . S
C540 C541 1.363 . S
C540 C546 1.379 . S
C540 N548 1.356 . S
C541 C540 1.363 . S
C541 C547 1.363 . S
C542 C543 1.363 . S
C542 C547 1.379 . S
C542 N549 1.356 . S
C543 C542 1.363 . S
C543 C546 1.363 . S
N544 C546 1.356 . S
N544 H556 0.984 . S
N544 H557 0.985 . S
N545 C547 1.356 . S
N545 H550 0.984 . S
N545 H551 0.985 . S
C546 C540 1.379 . S
C546 C543 1.363 . S
C546 N544 1.356 . S
C547 C541 1.363 . S
C547 C542 1.379 . S
C547 N545 1.356 . S
N548 C540 1.356 . S
N548 H554 0.984 . S
N548 H555 0.984 . S
N549 C542 1.356 . S
N549 H552 0.984 . S
N549 H553 0.985 . S
H550 N545 0.984 . S
H551 N545 0.985 . S
H552 N549 0.984 . S
H553 N549 0.985 . S
H554 N548 0.984 . S
H555 N548 0.984 . S
H556 N544 0.984 . S
H557 N544 0.985 . S
C558 C559 1.363 . S
C558 C564 1.379 . S
C558 N566 1.356 . S
C559 C558 1.363 . S
C559 C565 1.363 . S
C560 C561 1.363 . S
C560 C565 1.379 . S
C560 N567 1.356 . S
C561 C560 1.363 . S
C561 C564 1.363 . S
N562 C564 1.356 . S
N562 H574 0.984 . S
N562 H575 0.985 . S
N563 C565 1.356 . S
N563 H568 0.984 . S
N563 H569 0.985 . S
C564 C558 1.379 . S
C564 C561 1.363 . S
C564 N562 1.356 . S
C565 C559 1.363 . S
C565 C560 1.379 . S
C565 N563 1.356 . S
N566 C558 1.356 . S
N566 H572 0.984 . S
N566 H573 0.984 . S
N567 C560 1.356 . S
N567 H570 0.984 . S
N567 H571 0.985 . S
H568 N563 0.984 . S
H569 N563 0.985 . S
H570 N567 0.984 . S
H571 N567 0.985 . S
H572 N566 0.984 . S
H573 N566 0.984 . S
H574 N562 0.984 . S
H575 N562 0.985 . S
C576 C577 1.363 . S
C576 C582 1.379 . S
C576 N584 1.356 . S
C577 C576 1.363 . S
C577 C583 1.363 . S
C578 C579 1.363 . S
C578 C583 1.379 . S
C578 N585 1.356 . S
C579 C578 1.363 . S
C579 C582 1.363 . S
N580 C582 1.356 . S
N580 H592 0.984 . S
N580 H593 0.985 . S
N581 C583 1.356 . S
N581 H586 0.984 . S
N581 H587 0.985 . S
C582 C576 1.379 . S
C582 C579 1.363 . S
C582 N580 1.356 . S
C583 C577 1.363 . S
C583 C578 1.379 . S
C583 N581 1.356 . S
N584 C576 1.356 . S
N584 H590 0.984 . S
N584 H591 0.984 . S
N585 C578 1.356 . S
N585 H588 0.984 . S
N585 H589 0.985 . S
H586 N581 0.984 . S
H587 N581 0.985 . S
H588 N585 0.984 . S
H589 N585 0.985 . S
H590 N584 0.984 . S
H591 N584 0.984 . S
H592 N580 0.984 . S
H593 N580 0.985 . S
C594 C595 1.363 . S
C594 C600 1.379 . S
C594 N602 1.356 . S
C595 C594 1.363 . S
C595 C601 1.363 . S
C596 C597 1.363 . S
C596 C601 1.379 . S
C596 N603 1.356 . S
C597 C596 1.363 . S
C597 C600 1.363 . S
N598 C600 1.356 . S
N598 H610 0.984 . S
N598 H611 0.985 . S
N599 C601 1.356 . S
N599 H604 0.984 . S
N599 H605 0.985 . S
C600 C594 1.379 . S
C600 C597 1.363 . S
C600 N598 1.356 . S
C601 C595 1.363 . S
C601 C596 1.379 . S
C601 N599 1.356 . S
N602 C594 1.356 . S
N602 H608 0.984 . S
N602 H609 0.984 . S
N603 C596 1.356 . S
N603 H606 0.984 . S
N603 H607 0.985 . S
H604 N599 0.984 . S
H605 N599 0.985 . S
H606 N603 0.984 . S
H607 N603 0.985 . S
H608 N602 0.984 . S
H609 N602 0.984 . S
H610 N598 0.984 . S
H611 N598 0.985 . S
C612 C613 1.363 . S
C612 C618 1.379 . S
C612 N620 1.356 . S
C613 C612 1.363 . S
C613 C619 1.363 . S
C614 C615 1.363 . S
C614 C619 1.379 . S
C614 N621 1.356 . S
C615 C614 1.363 . S
C615 C618 1.363 . S
N616 C618 1.356 . S
N616 H628 0.984 . S
N616 H629 0.985 . S
N617 C619 1.356 . S
N617 H622 0.984 . S
N617 H623 0.985 . S
C618 C612 1.379 . S
C618 C615 1.363 . S
C618 N616 1.356 . S
C619 C613 1.363 . S
C619 C614 1.379 . S
C619 N617 1.356 . S
N620 C612 1.356 . S
N620 H626 0.984 . S
N620 H627 0.984 . S
N621 C614 1.356 . S
N621 H624 0.984 . S
N621 H625 0.985 . S
H622 N617 0.984 . S
H623 N617 0.985 . S
H624 N621 0.984 . S
H625 N621 0.985 . S
H626 N620 0.984 . S
H627 N620 0.984 . S
H628 N616 0.984 . S
H629 N616 0.985 . S
C630 C631 1.363 . S
C630 C636 1.379 . S
C630 N638 1.356 . S
C631 C630 1.363 . S
C631 C637 1.363 . S
C632 C633 1.363 . S
C632 C637 1.379 . S
C632 N639 1.356 . S
C633 C632 1.363 . S
C633 C636 1.363 . S
N634 C636 1.356 . S
N634 H646 0.984 . S
N634 H647 0.985 . S
N635 C637 1.356 . S
N635 H640 0.984 . S
N635 H641 0.985 . S
C636 C630 1.379 . S
C636 C633 1.363 . S
C636 N634 1.356 . S
C637 C631 1.363 . S
C637 C632 1.379 . S
C637 N635 1.356 . S
N638 C630 1.356 . S
N638 H644 0.984 . S
N638 H645 0.984 . S
N639 C632 1.356 . S
N639 H642 0.984 . S
N639 H643 0.985 . S
H640 N635 0.984 . S
H641 N635 0.985 . S
H642 N639 0.984 . S
H643 N639 0.985 . S
H644 N638 0.984 . S
H645 N638 0.984 . S
H646 N634 0.984 . S
H647 N634 0.985 . S
C648 C649 1.363 . S
C648 C654 1.379 . S
C648 N656 1.356 . S
C649 C648 1.363 . S
C649 C655 1.363 . S
C650 C651 1.363 . S
C650 C655 1.379 . S
C650 N657 1.356 . S
C651 C650 1.363 . S
C651 C654 1.363 . S
N652 C654 1.356 . S
N652 H664 0.984 . S
N652 H665 0.985 . S
N653 C655 1.356 . S
N653 H658 0.984 . S
N653 H659 0.985 . S
C654 C648 1.379 . S
C654 C651 1.363 . S
C654 N652 1.356 . S
C655 C649 1.363 . S
C655 C650 1.379 . S
C655 N653 1.356 . S
N656 C648 1.356 . S
N656 H662 0.984 . S
N656 H663 0.984 . S
N657 C650 1.356 . S
N657 H660 0.984 . S
N657 H661 0.985 . S
H658 N653 0.984 . S
H659 N653 0.985 . S
H660 N657 0.984 . S
H661 N657 0.985 . S
H662 N656 0.984 . S
H663 N656 0.984 . S
H664 N652 0.984 . S
H665 N652 0.985 . S
C666 C667 1.363 . S
C666 C672 1.379 . S
C666 N674 1.356 . S
C667 C666 1.363 . S
C667 C673 1.363 . S
C668 C669 1.363 . S
C668 C673 1.379 . S
C668 N675 1.356 . S
C669 C668 1.363 . S
C669 C672 1.363 . S
N670 C672 1.356 . S
N670 H682 0.984 . S
N670 H683 0.985 . S
N671 C673 1.356 . S
N671 H676 0.984 . S
N671 H677 0.985 . S
C672 C666 1.379 . S
C672 C669 1.363 . S
C672 N670 1.356 . S
C673 C667 1.363 . S
C673 C668 1.379 . S
C673 N671 1.356 . S
N674 C666 1.356 . S
N674 H680 0.984 . S
N674 H681 0.984 . S
N675 C668 1.356 . S
N675 H678 0.984 . S
N675 H679 0.985 . S
H676 N671 0.984 . S
H677 N671 0.985 . S
H678 N675 0.984 . S
H679 N675 0.985 . S
H680 N674 0.984 . S
H681 N674 0.984 . S
H682 N670 0.984 . S
H683 N670 0.985 . S
C684 C685 1.363 . S
C684 C690 1.379 . S
C684 N692 1.356 . S
C685 C684 1.363 . S
C685 C691 1.363 . S
C686 C687 1.363 . S
C686 C691 1.379 . S
C686 N693 1.356 . S
C687 C686 1.363 . S
C687 C690 1.363 . S
N688 C690 1.356 . S
N688 H700 0.984 . S
N688 H701 0.985 . S
N689 C691 1.356 . S
N689 H694 0.984 . S
N689 H695 0.985 . S
C690 C684 1.379 . S
C690 C687 1.363 . S
C690 N688 1.356 . S
C691 C685 1.363 . S
C691 C686 1.379 . S
C691 N689 1.356 . S
N692 C684 1.356 . S
N692 H698 0.984 . S
N692 H699 0.984 . S
N693 C686 1.356 . S
N693 H696 0.984 . S
N693 H697 0.985 . S
H694 N689 0.984 . S
H695 N689 0.985 . S
H696 N693 0.984 . S
H697 N693 0.985 . S
H698 N692 0.984 . S
H699 N692 0.984 . S
H700 N688 0.984 . S
H701 N688 0.985 . S
C702 C703 1.363 . S
C702 C708 1.379 . S
C702 N710 1.356 . S
C703 C702 1.363 . S
C703 C709 1.363 . S
C704 C705 1.363 . S
C704 C709 1.379 . S
C704 N711 1.356 . S
C705 C704 1.363 . S
C705 C708 1.363 . S
N706 C708 1.356 . S
N706 H718 0.984 . S
N706 H719 0.985 . S
N707 C709 1.356 . S
N707 H712 0.984 . S
N707 H713 0.985 . S
C708 C702 1.379 . S
C708 C705 1.363 . S
C708 N706 1.356 . S
C709 C703 1.363 . S
C709 C704 1.379 . S
C709 N707 1.356 . S
N710 C702 1.356 . S
N710 H716 0.984 . S
N710 H717 0.984 . S
N711 C704 1.356 . S
N711 H714 0.984 . S
N711 H715 0.985 . S
H712 N707 0.984 . S
H713 N707 0.985 . S
H714 N711 0.984 . S
H715 N711 0.985 . S
H716 N710 0.984 . S
H717 N710 0.984 . S
H718 N706 0.984 . S
H719 N706 0.985 . S
C720 C721 1.363 . S
C720 C726 1.379 1_565 S
C720 N728 1.356 . S
C721 C720 1.363 . S
C721 C727 1.363 1_556 S
C722 C723 1.363 . S
C722 C727 1.379 1_545 S
C722 N729 1.356 . S
C723 C722 1.363 . S
C723 C726 1.363 1_554 S
N724 C726 1.356 . S
N724 H736 0.984 . S
N724 H737 0.985 . S
N725 C727 1.356 . S
N725 H730 0.984 . S
N725 H731 0.985 . S
C726 C720 1.379 1_545 S
C726 C723 1.363 1_556 S
C726 N724 1.356 . S
C727 C721 1.363 1_554 S
C727 C722 1.379 1_565 S
C727 N725 1.356 . S
N728 C720 1.356 . S
N728 H734 0.984 . S
N728 H735 0.984 . S
N729 C722 1.356 . S
N729 H732 0.984 . S
N729 H733 0.985 . S
H730 N725 0.984 . S
H731 N725 0.985 . S
H732 N729 0.984 . S
H733 N729 0.985 . S
H734 N728 0.984 . S
H735 N728 0.984 . S
H736 N724 0.984 . S
H737 N724 0.985 . S
C738 C739 1.363 . S
C738 C744 1.379 . S
C738 N746 1.356 . S
C739 C738 1.363 . S
C739 C745 1.363 . S
C740 C741 1.363 . S
C740 C745 1.379 . S
C740 N747 1.356 . S
C741 C740 1.363 . S
C741 C744 1.363 . S
N742 C744 1.356 . S
N742 H754 0.984 . S
N742 H755 0.985 . S
N743 C745 1.356 . S
N743 H748 0.984 . S
N743 H749 0.985 . S
C744 C738 1.379 . S
C744 C741 1.363 . S
C744 N742 1.356 . S
C745 C739 1.363 . S
C745 C740 1.379 . S
C745 N743 1.356 . S
N746 C738 1.356 . S
N746 H752 0.984 . S
N746 H753 0.984 . S
N747 C740 1.356 . S
N747 H750 0.984 . S
N747 H751 0.985 . S
H748 N743 0.984 . S
H749 N743 0.985 . S
H750 N747 0.984 . S
H751 N747 0.985 . S
H752 N746 0.984 . S
H753 N746 0.984 . S
H754 N742 0.984 . S
H755 N742 0.985 . S
C756 C757 1.363 1_556 S
C756 C762 1.379 1_655 S
C756 N764 1.356 . S
C757 C756 1.363 1_554 S
C757 C763 1.363 . S
C758 C759 1.363 1_554 S
C758 C763 1.379 1_455 S
C758 N765 1.356 . S
C759 C758 1.363 1_556 S
C759 C762 1.363 . S
N760 C762 1.356 . S
N760 H772 0.984 . S
N760 H773 0.985 . S
N761 C763 1.356 . S
N761 H766 0.984 . S
N761 H767 0.985 . S
C762 C756 1.379 1_455 S
C762 C759 1.363 . S
C762 N760 1.356 . S
C763 C757 1.363 . S
C763 C758 1.379 1_655 S
C763 N761 1.356 . S
N764 C756 1.356 . S
N764 H770 0.984 . S
N764 H771 0.984 . S
N765 C758 1.356 . S
N765 H768 0.984 . S
N765 H769 0.985 . S
H766 N761 0.984 . S
H767 N761 0.985 . S
H768 N765 0.984 . S
H769 N765 0.985 . S
H770 N764 0.984 . S
H771 N764 0.984 . S
H772 N760 0.984 . S
H773 N760 0.985 . S
C774 C775 1.363 . S
C774 C780 1.379 1_565 S
C774 N782 1.356 . S
C775 C774 1.363 . S
C775 C781 1.363 . S
C776 C777 1.363 . S
C776 C781 1.379 1_545 S
C776 N783 1.356 . S
C777 C776 1.363 . S
C777 C780 1.363 . S
N778 C780 1.356 . S
N778 H790 0.984 . S
N778 H791 0.985 . S
N779 C781 1.356 . S
N779 H784 0.984 . S
N779 H785 0.985 . S
C780 C774 1.379 1_545 S
C780 C777 1.363 . S
C780 N778 1.356 . S
C781 C775 1.363 . S
C781 C776 1.379 1_565 S
C781 N779 1.356 . S
N782 C774 1.356 . S
N782 H788 0.984 . S
N782 H789 0.984 . S
N783 C776 1.356 . S
N783 H786 0.984 . S
N783 H787 0.985 . S
H784 N779 0.984 . S
H785 N779 0.985 . S
H786 N783 0.984 . S
H787 N783 0.985 . S
H788 N782 0.984 . S
H789 N782 0.984 . S
H790 N778 0.984 . S
H791 N778 0.985 . S
C792 C793 1.363 . S
C792 C798 1.379 . S
C792 N800 1.356 . S
C793 C792 1.363 . S
C793 C799 1.363 1_554 S
C794 C795 1.363 . S
C794 C799 1.379 . S
C794 N801 1.356 . S
C795 C794 1.363 . S
C795 C798 1.363 1_556 S
N796 C798 1.356 . S
N796 H808 0.984 . S
N796 H809 0.985 . S
N797 C799 1.356 . S
N797 H802 0.984 . S
N797 H803 0.985 . S
C798 C792 1.379 . S
C798 C795 1.363 1_554 S
C798 N796 1.356 . S
C799 C793 1.363 1_556 S
C799 C794 1.379 . S
C799 N797 1.356 . S
N800 C792 1.356 . S
N800 H806 0.984 . S
N800 H807 0.984 . S
N801 C794 1.356 . S
N801 H804 0.984 . S
N801 H805 0.985 . S
H802 N797 0.984 . S
H803 N797 0.985 . S
H804 N801 0.984 . S
H805 N801 0.985 . S
H806 N800 0.984 . S
H807 N800 0.984 . S
H808 N796 0.984 . S
H809 N796 0.985 . S
C810 C811 1.363 . S
C810 C816 1.379 1_655 S
C810 N818 1.356 . S
C811 C810 1.363 . S
C811 C817 1.363 . S
C812 C813 1.363 . S
C812 C817 1.379 1_455 S
C812 N819 1.356 . S
C813 C812 1.363 . S
C813 C816 1.363 . S
N814 C816 1.356 . S
N814 H826 0.984 . S
N814 H827 0.985 . S
N815 C817 1.356 . S
N815 H820 0.984 . S
N815 H821 0.985 . S
C816 C810 1.379 1_455 S
C816 C813 1.363 . S
C816 N814 1.356 . S
C817 C811 1.363 . S
C817 C812 1.379 1_655 S
C817 N815 1.356 . S
N818 C810 1.356 . S
N818 H824 0.984 . S
N818 H825 0.984 . S
N819 C812 1.356 . S
N819 H822 0.984 . S
N819 H823 0.985 . S
H820 N815 0.984 . S
H821 N815 0.985 . S
H822 N819 0.984 . S
H823 N819 0.985 . S
H824 N818 0.984 . S
H825 N818 0.984 . S
H826 N814 0.984 . S
H827 N814 0.985 . S
C828 C829 1.361 1_556 S
C828 C834 1.382 1_545 S
C828 N836 1.356 1_556 S
C829 C828 1.361 1_554 S
C829 C835 1.360 . S
C830 C831 1.361 1_554 S
C830 C835 1.383 1_565 S
C830 N837 1.356 1_554 S
C831 C830 1.361 1_556 S
C831 C834 1.360 . S
N832 C834 1.356 . S
N832 H844 0.984 1_565 S
N832 H845 0.985 . S
N833 C835 1.356 . S
N833 H838 0.984 . S
N833 H839 0.985 1_545 S
C834 C828 1.382 1_565 S
C834 C831 1.360 . S
C834 N832 1.356 . S
C835 C829 1.360 . S
C835 C830 1.383 1_545 S
C835 N833 1.356 . S
N836 C828 1.356 1_554 S
N836 H842 0.984 1_554 S
N836 H843 0.984 . S
N837 C830 1.356 1_556 S
N837 H840 0.984 . S
N837 H841 0.985 1_556 S
H838 N833 0.984 . S
H839 N833 0.985 1_565 S
H840 N837 0.984 . S
H841 N837 0.985 1_554 S
H842 N836 0.984 1_556 S
H843 N836 0.984 . S
H844 N832 0.984 1_545 S
H845 N832 0.985 . S
C846 C847 1.363 . S
C846 C852 1.379 . S
C846 N854 1.356 . S
C847 C846 1.363 . S
C847 C853 1.363 . S
C848 C849 1.363 . S
C848 C853 1.379 . S
C848 N855 1.356 . S
C849 C848 1.363 . S
C849 C852 1.363 . S
N850 C852 1.356 . S
N850 H862 0.984 . S
N850 H863 0.985 . S
N851 C853 1.356 . S
N851 H856 0.984 . S
N851 H857 0.985 . S
C852 C846 1.379 . S
C852 C849 1.363 . S
C852 N850 1.356 . S
C853 C847 1.363 . S
C853 C848 1.379 . S
C853 N851 1.356 . S
N854 C846 1.356 . S
N854 H860 0.984 . S
N854 H861 0.984 . S
N855 C848 1.356 . S
N855 H858 0.984 . S
N855 H859 0.985 . S
H856 N851 0.984 . S
H857 N851 0.985 . S
H858 N855 0.984 . S
H859 N855 0.985 . S
H860 N854 0.984 . S
H861 N854 0.984 . S
H862 N850 0.984 . S
H863 N850 0.985 . S
C864 C865 1.363 1_556 S
C864 C870 1.379 . S
C864 N872 1.356 . S
C865 C864 1.363 1_554 S
C865 C871 1.363 1_655 S
C866 C867 1.363 1_554 S
C866 C871 1.379 . S
C866 N873 1.356 . S
C867 C866 1.363 1_556 S
C867 C870 1.363 1_455 S
N868 C870 1.356 . S
N868 H880 0.984 . S
N868 H881 0.985 1_655 S
N869 C871 1.356 . S
N869 H874 0.984 1_455 S
N869 H875 0.985 . S
C870 C864 1.379 . S
C870 C867 1.363 1_655 S
C870 N868 1.356 . S
C871 C865 1.363 1_455 S
C871 C866 1.379 . S
C871 N869 1.356 . S
N872 C864 1.356 . S
N872 H878 0.984 . S
N872 H879 0.984 1_556 S
N873 C866 1.356 . S
N873 H876 0.984 1_554 S
N873 H877 0.985 . S
H874 N869 0.984 1_655 S
H875 N869 0.985 . S
H876 N873 0.984 1_556 S
H877 N873 0.985 . S
H878 N872 0.984 . S
H879 N872 0.984 1_554 S
H880 N868 0.984 . S
H881 N868 0.985 1_455 S
C882 C883 1.363 . S
C882 C888 1.379 . S
C882 N890 1.356 . S
C883 C882 1.363 . S
C883 C889 1.363 1_565 S
C884 C885 1.363 . S
C884 C889 1.379 . S
C884 N891 1.356 . S
C885 C884 1.363 . S
C885 C888 1.363 1_545 S
N886 C888 1.356 . S
N886 H898 0.984 . S
N886 H899 0.985 1_565 S
N887 C889 1.356 . S
N887 H892 0.984 1_545 S
N887 H893 0.985 . S
C888 C882 1.379 . S
C888 C885 1.363 1_565 S
C888 N886 1.356 . S
C889 C883 1.363 1_545 S
C889 C884 1.379 . S
C889 N887 1.356 . S
N890 C882 1.356 . S
N890 H896 0.984 . S
N890 H897 0.984 . S
N891 C884 1.356 . S
N891 H894 0.984 . S
N891 H895 0.985 . S
H892 N887 0.984 1_565 S
H893 N887 0.985 . S
H894 N891 0.984 . S
H895 N891 0.985 . S
H896 N890 0.984 . S
H897 N890 0.984 . S
H898 N886 0.984 . S
H899 N886 0.985 1_545 S
C900 C901 1.363 . S
C900 C906 1.379 . S
C900 N908 1.356 . S
C901 C900 1.363 . S
C901 C907 1.363 1_556 S
C902 C903 1.363 . S
C902 C907 1.379 . S
C902 N909 1.356 . S
C903 C902 1.363 . S
C903 C906 1.363 1_554 S
N904 C906 1.356 . S
N904 H916 0.984 . S
N904 H917 0.985 1_556 S
N905 C907 1.356 . S
N905 H910 0.984 1_554 S
N905 H911 0.985 . S
C906 C900 1.379 . S
C906 C903 1.363 1_556 S
C906 N904 1.356 . S
C907 C901 1.363 1_554 S
C907 C902 1.379 . S
C907 N905 1.356 . S
N908 C900 1.356 . S
N908 H914 0.984 . S
N908 H915 0.984 . S
N909 C902 1.356 . S
N909 H912 0.984 . S
N909 H913 0.985 . S
H910 N905 0.984 1_556 S
H911 N905 0.985 . S
H912 N909 0.984 . S
H913 N909 0.985 . S
H914 N908 0.984 . S
H915 N908 0.984 . S
H916 N904 0.984 . S
H917 N904 0.985 1_554 S
C918 C919 1.363 . S
C918 C924 1.379 1_455 S
C918 N926 1.356 . S
C919 C918 1.363 . S
C919 C925 1.363 . S
C920 C921 1.363 . S
C920 C925 1.379 1_655 S
C920 N927 1.356 . S
C921 C920 1.363 . S
C921 C924 1.363 . S
N922 C924 1.356 . S
N922 H934 0.984 . S
N922 H935 0.985 . S
N923 C925 1.356 . S
N923 H928 0.984 . S
N923 H929 0.985 . S
C924 C918 1.379 1_655 S
C924 C921 1.363 . S
C924 N922 1.356 . S
C925 C919 1.363 . S
C925 C920 1.379 1_455 S
C925 N923 1.356 . S
N926 C918 1.356 . S
N926 H932 0.984 . S
N926 H933 0.984 . S
N927 C920 1.356 . S
N927 H930 0.984 . S
N927 H931 0.985 . S
H928 N923 0.984 . S
H929 N923 0.985 . S
H930 N927 0.984 . S
H931 N927 0.985 . S
H932 N926 0.984 . S
H933 N926 0.984 . S
H934 N922 0.984 . S
H935 N922 0.985 . S
C397 C74 1.686 . S
C399 N14 1.762 . S
C415 N47 1.762 . S
C417 C107 1.686 . S
C433 N80 1.762 . S
C435 C140 1.686 . S
C451 N113 1.762 . S
C453 C173 1.686 . S
C469 N146 1.762 . S
C471 C8 1.686 . S
C487 C41 1.686 . S
C489 N179 1.762 . S
C505 N212 1.762 . S
C507 C338 1.686 . S
C523 N245 1.762 . S
C525 C371 1.686 . S
C541 C206 1.686 . S
C543 N278 1.762 . S
C559 C239 1.686 . S
C561 N311 1.762 . S
C577 C272 1.686 . S
C579 N344 1.762 . S
C595 C305 1.686 . S
C597 N377 1.762 . S
C613 C281 1.459 . S
C615 C17 1.459 . S
C631 C50 1.459 . S
C633 C314 1.459 . S
C649 C347 1.459 . S
C651 C83 1.459 . S
C667 C380 1.459 . S
C669 C116 1.459 . S
C685 C149 1.459 . S
C687 C215 1.459 . S
C703 C248 1.459 . S
C705 C182 1.459 . S
C721 C259 1.493 . S
C723 C28 1.493 . S
C739 C61 1.493 . S
C741 C292 1.493 . S
C757 C94 1.493 . S
C759 C325 1.493 . S
C775 C127 1.493 . S
C777 C358 1.493 . S
C793 C160 1.493 . S
C795 C391 1.493 . S
C811 C226 1.493 . S
C813 C193 1.493 . S
C829 N71 1.487 . S
C831 N368 1.487 . S
C847 N203 1.487 . S
C849 N104 1.487 . S
C865 N137 1.487 . S
C867 N236 1.487 . S
C883 N170 1.487 . S
C885 N269 1.487 . S
C901 N302 1.487 . S
C903 N5 1.487 . S
C919 N38 1.487 . S
C921 N335 1.487 . S
