# Generated by pormake.
# Topology vby, (6)-cn, num edge types: 1
# Building blocks:
#     Node 0, Type 0, BuildingBlock: MIFKUJ_clean_sbu_0, # of connection points: 6
#     Node 1, Type 0, BuildingBlock: MIFKUJ_clean_sbu_0, # of connection points: 6
#     Node 2, Type 0, BuildingBlock: MIFKUJ_clean_sbu_0, # of connection points: 6
#     Node 3, Type 0, BuildingBlock: MIFKUJ_clean_sbu_0, # of connection points: 6
#     Node 4, Type 0, BuildingBlock: MIFKUJ_clean_sbu_0, # of connection points: 6
#     Node 5, Type 0, BuildingBlock: MIFKUJ_clean_sbu_0, # of connection points: 6
#     Node 6, Type 0, BuildingBlock: MIFKUJ_clean_sbu_0, # of connection points: 6
#     Node 7, Type 0, BuildingBlock: MIFKUJ_clean_sbu_0, # of connection points: 6
#     Edge 8, Type (0, 0), BuildingBlock: ZUJKAS_clean_linker_0, # of connection points: 2
#     Edge 9, Type (0, 0), BuildingBlock: ZUJKAS_clean_linker_0, # of connection points: 2
#     Edge 10, Type (0, 0), BuildingBlock: ZUJKAS_clean_linker_0, # of connection points: 2
#     Edge 11, Type (0, 0), BuildingBlock: ZUJKAS_clean_linker_0, # of connection points: 2
#     Edge 12, Type (0, 0), BuildingBlock: ZUJKAS_clean_linker_0, # of connection points: 2
#     Edge 13, Type (0, 0), BuildingBlock: ZUJKAS_clean_linker_0, # of connection points: 2
#     Edge 14, Type (0, 0), BuildingBlock: ZUJKAS_clean_linker_0, # of connection points: 2
#     Edge 15, Type (0, 0), BuildingBlock: ZUJKAS_clean_linker_0, # of connection points: 2
#     Edge 16, Type (0, 0), BuildingBlock: ZUJKAS_clean_linker_0, # of connection points: 2
#     Edge 17, Type (0, 0), BuildingBlock: ZUJKAS_clean_linker_0, # of connection points: 2
#     Edge 18, Type (0, 0), BuildingBlock: ZUJKAS_clean_linker_0, # of connection points: 2
#     Edge 19, Type (0, 0), BuildingBlock: ZUJKAS_clean_linker_0, # of connection points: 2
#     Edge 20, Type (0, 0), BuildingBlock: ZUJKAS_clean_linker_0, # of connection points: 2
#     Edge 21, Type (0, 0), BuildingBlock: ZUJKAS_clean_linker_0, # of connection points: 2
#     Edge 22, Type (0, 0), BuildingBlock: ZUJKAS_clean_linker_0, # of connection points: 2
#     Edge 23, Type (0, 0), BuildingBlock: ZUJKAS_clean_linker_0, # of connection points: 2
#     Edge 24, Type (0, 0), BuildingBlock: ZUJKAS_clean_linker_0, # of connection points: 2
#     Edge 25, Type (0, 0), BuildingBlock: ZUJKAS_clean_linker_0, # of connection points: 2
#     Edge 26, Type (0, 0), BuildingBlock: ZUJKAS_clean_linker_0, # of connection points: 2
#     Edge 27, Type (0, 0), BuildingBlock: ZUJKAS_clean_linker_0, # of connection points: 2
#     Edge 28, Type (0, 0), BuildingBlock: ZUJKAS_clean_linker_0, # of connection points: 2
#     Edge 29, Type (0, 0), BuildingBlock: ZUJKAS_clean_linker_0, # of connection points: 2
#     Edge 30, Type (0, 0), BuildingBlock: ZUJKAS_clean_linker_0, # of connection points: 2
#     Edge 31, Type (0, 0), BuildingBlock: ZUJKAS_clean_linker_0, # of connection points: 2
# Relax obj value: 0.106
# Max RMSD: 0.156
# Mean RMSD: 0.156
data_MOF--net-vby--node1-MIFKUJ_clean_sbu_0--edge1-ZUJKAS_clean_linker_0
_symmetry_space_group_name_H-M    P1
_symmetry_Int_Tables_number       1
_symmetry_cell_setting            triclinic
loop_
_symmetry_equiv_pos_as_xyz
'x, y, z'
_cell_length_a     22.031609
_cell_length_b     89.730351
_cell_length_c     36.977002
_cell_angle_alpha  89.985469
_cell_angle_beta   89.985416
_cell_angle_gamma 90.156287
loop_
_atom_site_label
_atom_site_type_symbol
_atom_site_fract_x
_atom_site_fract_y
_atom_site_fract_z
_atom_type_partial_charge
Zn0 Zn 0.13951 0.35392 0.99348 0.0
Zn1 Zn 0.0284 0.38863 0.98924 0.0
C2 C 0.26255 0.35593 0.96973 0.0
O3 O 0.2438 0.3447 0.9498 0.0
C4 C 0.90065 0.38986 0.99464 0.0
O5 O 0.91721 0.39937 0.01982 0.0
O6 O 0.14908 0.33162 -0.00464 0.0
O7 O 0.10078 0.35984 0.04075 0.0
O8 O 0.04302 0.38012 0.03859 0.0
C9 C 0.1711 0.3253 0.02314 0.0
O10 O 0.18627 0.33347 0.05121 0.0
O11 O 0.22477 0.36236 0.99054 0.0
C12 C 0.02193 0.41897 0.96555 0.0
O13 O 0.01083 0.41234 0.93455 0.0
O14 O 0.03227 0.41103 0.99333 0.0
O15 O 0.08519 0.3825 0.94949 0.0
O16 O 0.0944 0.35804 0.94734 0.0
O17 O 0.94161 0.38335 0.97626 0.0
C18 C 0.06767 0.36955 0.05609 0.0
C19 C 0.07909 0.37026 0.93272 0.0
Zn20 Zn 0.86162 0.64268 -0.0019 0.0
Zn21 Zn 0.97891 0.60894 0.99347 0.0
C22 C 0.74792 0.63451 0.96546 0.0
O23 O 0.77012 0.64262 0.93895 0.0
C24 C 0.10526 0.61114 0.00208 0.0
O25 O 0.08785 0.6053 0.033 0.0
O26 O 0.84031 0.66447 0.00136 0.0
O27 O 0.90235 0.63663 0.04513 0.0
O28 O 0.96608 0.61735 0.04337 0.0
C29 C 0.86091 0.67342 0.02502 0.0
O30 O 0.8995 0.66854 0.04934 0.0
O31 O 0.78068 0.63215 0.9932 0.0
C32 C 0.9978 0.57896 0.97049 0.0
O33 O 0.02302 0.58605 0.94325 0.0
O34 O 0.97427 0.58649 -0.00399 0.0
O35 O 0.91727 0.6164 0.95825 0.0
O36 O 0.91265 0.64061 0.95331 0.0
O37 O 0.06503 0.6142 0.97854 0.0
C38 C 0.93856 0.62759 0.06064 0.0
C39 C 0.93011 0.62817 0.94092 0.0
Zn40 Zn 0.13681 0.64072 0.50094 0.0
Zn41 Zn 0.02355 0.6075 0.49765 0.0
C42 C 0.25929 0.63305 0.51383 0.0
O43 O 0.24387 0.63898 0.54499 0.0
C44 C 0.90247 0.61326 0.46514 0.0
O45 O 0.92612 0.6082 0.43496 0.0
O46 O 0.15375 0.66274 0.50387 0.0
O47 O 0.07873 0.63867 0.45888 0.0
O48 O 0.07189 0.61424 0.45428 0.0
C49 C 0.16804 0.66928 0.47456 0.0
O50 O 0.17029 0.66148 0.44452 0.0
O51 O 0.21894 0.63171 0.4894 0.0
C52 C 0.97852 0.57688 0.50051 0.0
O53 O 0.92527 0.58332 0.50317 0.0
O54 O 0.02598 0.58492 0.49799 0.0
O55 O 0.0502 0.61423 0.54689 0.0
O56 O 0.10989 0.63416 0.55058 0.0
O57 O 0.93556 0.61414 0.49327 0.0
C58 C 0.06508 0.62712 0.44075 0.0
C59 C 0.07927 0.6238 0.56543 0.0
Zn60 Zn 0.85204 0.3534 0.49693 0.0
Zn61 Zn 0.97048 0.38661 0.50334 0.0
C62 C 0.73744 0.3601 0.52742 0.0
O63 O 0.75713 0.35012 0.55061 0.0
C64 C 0.09657 0.3859 0.49433 0.0
O65 O 0.07845 0.39323 0.46553 0.0
O66 O 0.82823 0.33178 0.49261 0.0
O67 O 0.89319 0.35903 0.44986 0.0
O68 O 0.95693 0.37828 0.45371 0.0
C69 C 0.86114 0.32205 0.47727 0.0
O70 O 0.91391 0.32603 0.46377 0.0
O71 O 0.77249 0.36426 0.50197 0.0
C72 C 0.99694 0.41707 0.52188 0.0
O73 O 0.0303 0.41055 0.54667 0.0
O74 O 0.96596 0.40905 0.50029 0.0
O75 O 0.91104 0.37949 0.5404 0.0
O76 O 0.90149 0.35516 0.54246 0.0
O77 O 0.05682 0.38132 0.51672 0.0
C78 C 0.93003 0.36824 0.43542 0.0
C79 C 0.92013 0.36723 0.5565 0.0
Zn80 Zn 0.6357 0.85482 0.99443 0.0
Zn81 Zn 0.52269 0.88873 0.98999 0.0
C82 C 0.75301 0.862 0.96471 0.0
O83 O 0.73026 0.85494 0.93667 0.0
C84 C 0.3965 0.88477 0.0012 0.0
O85 O 0.41425 0.88952 0.03311 0.0
O86 O 0.65068 0.83274 -0.00405 0.0
O87 O 0.59607 0.85983 0.04188 0.0
O88 O 0.53742 0.87991 0.03902 0.0
C89 C 0.68288 0.82744 0.02137 0.0
O90 O 0.70434 0.83653 0.04617 0.0
O91 O 0.71957 0.86409 0.9923 0.0
C92 C 0.53727 0.91963 0.96942 0.0
O93 O 0.55305 0.91367 0.93843 0.0
O94 O 0.52372 0.91114 -0.00426 0.0
O95 O 0.58083 0.88299 0.95014 0.0
O96 O 0.58913 0.85853 0.94847 0.0
O97 O 0.43603 0.88325 0.97634 0.0
C98 C 0.56201 0.86943 0.05683 0.0
C99 C 0.57573 0.87076 0.93317 0.0
Zn100 Zn 0.37632 0.14256 0.99415 0.0
Zn101 Zn 0.48972 0.10943 0.99254 0.0
C102 C 0.26021 0.13403 0.9644 0.0
O103 O 0.28337 0.14029 0.93536 0.0
C104 C 0.61604 0.11372 0.00269 0.0
O105 O 0.59879 0.10945 0.0351 0.0
O106 O 0.35885 0.16454 0.99397 0.0
O107 O 0.4156 0.13846 0.04255 0.0
O108 O 0.47521 0.11855 0.04137 0.0
C109 C 0.32495 0.16977 0.0187 0.0
O110 O 0.30386 0.16072 0.04368 0.0
O111 O 0.29302 0.1329 0.99259 0.0
C112 C 0.51002 0.07925 0.97341 0.0
O113 O 0.53176 0.08589 0.94449 0.0
O114 O 0.48857 0.08718 -0.00117 0.0
O115 O 0.43029 0.11407 0.95258 0.0
O116 O 0.42327 0.13846 0.94813 0.0
O117 O 0.57612 0.11488 0.97795 0.0
C118 C 0.45009 0.12917 0.05838 0.0
C119 C 0.43496 0.12589 0.93395 0.0
Zn120 Zn 0.6276 0.14357 0.49367 0.0
Zn121 Zn 0.50248 0.1077 0.50879 0.0
C122 C 0.74982 0.1452 0.50916 0.0
O123 O 0.72687 0.15613 0.52842 0.0
C124 C 0.39358 0.12394 0.51367 0.0
O125 O 0.42812 0.13395 0.49779 0.0
O126 O 0.62483 0.16532 0.47973 0.0
O127 O 0.5737 0.1305 0.46077 0.0
O128 O 0.50892 0.11171 0.4554 0.0
C129 C 0.66002 0.17012 0.45504 0.0
O130 O 0.69211 0.1605 0.43636 0.0
O131 O 0.71441 0.1373 0.48994 0.0
C132 C 0.48297 0.07709 0.51099 0.0
O133 O 0.43231 0.08224 0.49708 0.0
O134 O 0.52457 0.08631 0.51951 0.0
O135 O 0.55417 0.12327 0.5299 0.0
O136 O 0.60793 0.14192 0.54728 0.0
O137 O 0.41649 0.11152 0.52268 0.0
C138 C 0.53992 0.12221 0.44109 0.0
C139 C 0.57343 0.13118 0.5557 0.0
Zn140 Zn 0.36552 0.85257 0.49912 0.0
Zn141 Zn 0.48048 0.88716 0.50562 0.0
C142 C 0.24582 0.85538 0.52741 0.0
O143 O 0.26673 0.84476 0.54845 0.0
C144 C 0.6061 0.88406 0.49609 0.0
O145 O 0.58959 0.89145 0.46703 0.0
O146 O 0.35272 0.8305 0.4943 0.0
O147 O 0.40517 0.86008 0.45297 0.0
O148 O 0.46623 0.87998 0.45481 0.0
C149 C 0.32761 0.82465 0.46681 0.0
O150 O 0.31154 0.8332 0.43962 0.0
O151 O 0.28139 0.86128 0.50435 0.0
C152 C 0.51722 0.91728 0.52419 0.0
O153 O 0.559 0.91028 0.54294 0.0
O154 O 0.47823 0.90974 0.50651 0.0
O155 O 0.41721 0.87926 0.53895 0.0
O156 O 0.41406 0.85509 0.54452 0.0
O157 O 0.5655 0.88041 0.51897 0.0
C158 C 0.4392 0.86966 0.43741 0.0
C159 C 0.4305 0.86766 0.55667 0.0
H160 H 0.35557 0.34237 0.93376 0.0
H161 H 0.46368 0.34837 0.93646 0.0
H162 H 0.42549 0.38523 0.00763 0.0
H163 H 0.31713 0.37912 0.0057 0.0
H164 H 0.52679 0.37378 0.91771 0.0
H165 H 0.55236 0.36209 0.06427 0.0
H166 H 0.48579 0.35665 0.03906 0.0
H167 H 0.49486 0.37559 0.0541 0.0
C168 C 0.37002 0.35178 0.94996 0.0
C169 C 0.32765 0.36021 0.96974 0.0
C170 C 0.43192 0.3552 0.95144 0.0
C171 C 0.45284 0.36708 0.97275 0.0
C172 C 0.41054 0.37579 0.99169 0.0
H173 H 0.80413 0.40427 0.02443 0.0
H174 H 0.69647 0.39869 0.01689 0.0
C175 C 0.34855 0.37235 0.99036 0.0
C176 C 0.51892 0.37029 0.97513 0.0
H177 H 0.63689 0.37302 0.03467 0.0
C178 C 0.55098 0.37357 0.94325 0.0
C179 C 0.55046 0.36992 0.00845 0.0
C180 C 0.51932 0.36574 0.04339 0.0
C181 C 0.6134 0.37687 0.9439 0.0
C182 C 0.64477 0.37665 0.97729 0.0
C183 C 0.61277 0.37324 0.0091 0.0
C184 C 0.71048 0.38025 0.98018 0.0
C185 C 0.64477 0.38095 0.90899 0.0
C186 C 0.7544 0.37172 0.96203 0.0
C187 C 0.8163 0.37496 0.96611 0.0
C188 C 0.83534 0.38666 0.98878 0.0
C189 C 0.79115 0.39516 0.00682 0.0
C190 C 0.72948 0.39198 0.00256 0.0
H191 H 0.61185 0.38434 0.88779 0.0
H192 H 0.67771 0.39018 0.91319 0.0
H193 H 0.67003 0.37113 0.8988 0.0
H194 H 0.74091 0.36241 0.94524 0.0
H195 H 0.8492 0.36813 0.95203 0.0
H196 H 0.16076 0.61912 0.9382 0.0
H197 H 0.27014 0.62191 0.92702 0.0
H198 H 0.30662 0.61174 0.03888 0.0
H199 H 0.19831 0.60871 0.05012 0.0
H200 H 0.35497 0.64107 0.95895 0.0
H201 H 0.41518 0.58223 0.9862 0.0
H202 H 0.3379 0.58817 0.97895 0.0
H203 H 0.37335 0.59069 0.02237 0.0
C204 C 0.19215 0.61748 0.96038 0.0
C205 C 0.17082 0.61355 -0.00503 0.0
C206 C 0.25459 0.61906 0.95394 0.0
C207 C 0.29664 0.6167 0.98193 0.0
C208 C 0.27521 0.6132 0.01664 0.0
H209 H 0.68043 0.6232 0.02138 0.0
H210 H 0.57104 0.61852 0.02239 0.0
C211 C 0.2131 0.61156 0.02305 0.0
C212 C 0.36294 0.61816 0.97538 0.0
H213 H 0.49738 0.59961 0.98418 0.0
C214 C 0.38613 0.63197 0.96401 0.0
C215 C 0.40351 0.60626 0.98207 0.0
C216 C 0.38124 0.59096 0.99274 0.0
C217 C 0.44895 0.63439 0.96059 0.0
C218 C 0.48963 0.62257 0.96802 0.0
C219 C 0.46627 0.60867 0.97859 0.0
C220 C 0.55662 0.62456 0.96638 0.0
C221 C 0.47118 0.64977 0.9505 0.0
C222 C 0.58531 0.62907 0.93427 0.0
C223 C 0.64785 0.63185 0.93366 0.0
C224 C 0.6831 0.62997 0.96505 0.0
C225 C 0.6547 0.62476 -0.00328 0.0
C226 C 0.59209 0.62211 -0.00264 0.0
H227 H 0.43568 0.65836 0.95474 0.0
H228 H 0.51189 0.65289 0.96652 0.0
H229 H 0.48377 0.64989 0.92144 0.0
H230 H 0.55921 0.63064 0.90976 0.0
H231 H 0.66836 0.63571 0.90873 0.0
H232 H 0.81867 0.61344 0.41029 0.0
H233 H 0.70892 0.61732 0.41519 0.0
H234 H 0.72691 0.62357 0.53031 0.0
H235 H 0.83641 0.62 0.52561 0.0
H236 H 0.62569 0.60088 0.45386 0.0
H237 H 0.62564 0.65931 0.50211 0.0
H238 H 0.69221 0.65064 0.48306 0.0
H239 H 0.67163 0.6473 0.52947 0.0
C240 C 0.79936 0.6158 0.4366 0.0
C241 C 0.83648 0.61647 0.46753 0.0
C242 C 0.73658 0.61799 0.43935 0.0
C243 C 0.70969 0.62094 0.47303 0.0
C244 C 0.74669 0.62166 0.5039 0.0
H245 H 0.35207 0.63195 0.56249 0.0
H246 H 0.45991 0.6283 0.55042 0.0
C247 C 0.80939 0.61954 0.50117 0.0
C248 C 0.64274 0.62263 0.47627 0.0
H249 H 0.5324 0.64593 0.50779 0.0
C250 C 0.60518 0.61079 0.46531 0.0
C251 C 0.61599 0.63557 0.49119 0.0
C252 C 0.6534 0.64899 0.50181 0.0
C253 C 0.54186 0.6113 0.47009 0.0
C254 C 0.51529 0.62411 0.48573 0.0
C255 C 0.55278 0.63607 0.496 0.0
C256 C 0.44897 0.62527 0.49275 0.0
C257 C 0.50425 0.59792 0.4595 0.0
C258 C 0.40661 0.62465 0.46437 0.0
C259 C 0.34456 0.62663 0.47123 0.0
C260 C 0.32386 0.62945 0.50657 0.0
C261 C 0.36636 0.62983 0.53494 0.0
C262 C 0.42815 0.62777 0.52809 0.0
H263 H 0.53249 0.58776 0.45643 0.0
H264 H 0.46833 0.59567 0.47988 0.0
H265 H 0.48186 0.60014 0.43318 0.0
H266 H 0.42165 0.62303 0.43677 0.0
H267 H 0.3131 0.62641 0.44873 0.0
H268 H 0.6506 0.35251 0.57695 0.0
H269 H 0.54171 0.35756 0.57392 0.0
H270 H 0.56893 0.38314 0.47652 0.0
H271 H 0.67793 0.37804 0.47907 0.0
H272 H 0.47441 0.3847 0.57106 0.0
H273 H 0.44583 0.35051 0.44698 0.0
H274 H 0.5132 0.34968 0.47468 0.0
H275 H 0.50249 0.36488 0.44368 0.0
C276 C 0.63361 0.35933 0.55504 0.0
C277 C 0.67294 0.36474 0.52803 0.0
C278 C 0.57133 0.36221 0.55339 0.0
C279 C 0.54719 0.37048 0.52464 0.0
C280 C 0.58659 0.37649 0.49856 0.0
H281 H 0.19032 0.39469 0.45124 0.0
H282 H 0.29863 0.39088 0.46081 0.0
C283 C 0.64891 0.37364 0.5002 0.0
C284 C 0.48061 0.37238 0.52128 0.0
H285 H 0.3602 0.36417 0.46664 0.0
C286 C 0.44927 0.38018 0.54834 0.0
C287 C 0.44802 0.36636 0.49171 0.0
C288 C 0.47886 0.35727 0.46273 0.0
C289 C 0.38631 0.38251 0.54604 0.0
C290 C 0.35387 0.37664 0.51622 0.0
C291 C 0.38519 0.36868 0.48944 0.0
C292 C 0.28777 0.37907 0.51142 0.0
C293 C 0.35538 0.3916 0.57496 0.0
C294 C 0.24549 0.37358 0.53659 0.0
C295 C 0.18318 0.37577 0.53123 0.0
C296 C 0.16221 0.38341 0.50047 0.0
C297 C 0.2048 0.38878 0.47526 0.0
C298 C 0.26683 0.38661 0.48065 0.0
H299 H 0.38844 0.39817 0.59114 0.0
H300 H 0.3218 0.39935 0.56289 0.0
H301 H 0.33081 0.384 0.59361 0.0
H302 H 0.26061 0.36747 0.56017 0.0
H303 H 0.15154 0.37145 0.55108 0.0
H304 H 0.8208 0.87065 0.02318 0.0
H305 H 0.93074 0.87462 0.02566 0.0
H306 H 0.94385 0.86573 0.91138 0.0
H307 H 0.83398 0.86168 0.9086 0.0
H308 H 0.02038 0.85213 0.00312 0.0
H309 H 0.04057 0.90561 0.92775 0.0
H310 H 0.97054 0.89964 0.94875 0.0
H311 H 0.99505 0.89122 0.90725 0.0
C312 C 0.84687 0.86974 -0.00155 0.0
C313 C 0.81853 0.86586 0.96567 0.0
C314 C 0.90973 0.87196 -4e-05 0.0
C315 C 0.94534 0.87055 0.96868 0.0
C316 C 0.9171 0.86703 0.93576 0.0
H317 H 0.33903 0.87892 0.93661 0.0
H318 H 0.23009 0.87453 0.92688 0.0
C319 C 0.85431 0.86468 0.93426 0.0
C320 C 0.01234 0.87201 0.97091 0.0
H321 H 0.13188 0.89395 0.94537 0.0
C322 C 0.04481 0.86127 0.99051 0.0
C323 C 0.04405 0.88385 0.95411 0.0
C324 C 0.011 0.89583 0.93343 0.0
C325 C 0.10824 0.86208 0.99386 0.0
C326 C 0.1399 0.87412 0.97779 0.0
C327 C 0.10754 0.88472 0.95761 0.0
C328 C 0.20605 0.87637 0.98343 0.0
C329 C 0.14091 0.84997 0.01435 0.0
C330 C 0.2285 0.87897 0.01835 0.0
C331 C 0.29034 0.88152 0.02396 0.0
C332 C 0.33126 0.88156 0.99474 0.0
C333 C 0.30878 0.8789 0.95971 0.0
C334 C 0.24658 0.87642 0.95409 0.0
H335 H 0.11332 0.83961 0.01597 0.0
H336 H 0.18512 0.84732 0.00147 0.0
H337 H 0.14987 0.85384 0.04236 0.0
H338 H 0.19796 0.87923 0.04131 0.0
H339 H 0.30597 0.88355 0.0513 0.0
H340 H 0.19081 0.12763 0.02392 0.0
H341 H 0.08073 0.12388 0.02626 0.0
H342 H 0.07081 0.12824 0.91033 0.0
H343 H 0.18085 0.13208 0.90767 0.0
H344 H 0.99274 0.14579 -0.00308 0.0
H345 H 0.97169 0.08929 0.93596 0.0
H346 H 0.04118 0.09585 0.95655 0.0
H347 H 0.01924 0.10256 0.91278 0.0
C348 C 0.16542 0.12756 -0.00116 0.0
C349 C 0.1947 0.13015 0.96559 0.0
C350 C 0.10248 0.12548 0.00026 0.0
C351 C 0.06772 0.12571 0.96846 0.0
C352 C 0.0969 0.12787 0.93514 0.0
H353 H 0.67345 0.11711 0.93704 0.0
H354 H 0.78258 0.12088 0.92633 0.0
C355 C 0.15978 0.1301 0.93371 0.0
C356 C 1.0006 0.12453 0.97044 0.0
H357 H 0.88064 0.10179 0.95026 0.0
C358 C 0.96819 0.13618 0.9867 0.0
C359 C 0.96873 0.11206 0.95673 0.0
C360 C 1.00172 0.09914 0.93968 0.0
C361 C 0.90467 0.13565 0.98984 0.0
C362 C 0.87284 0.12301 0.97699 0.0
C363 C 0.90513 0.11148 0.96003 0.0
C364 C 0.80661 0.12114 0.98305 0.0
C365 C 0.87206 0.14868 0.00672 0.0
C366 C 0.78411 0.11994 0.01841 0.0
C367 C 0.7222 0.11773 0.02458 0.0
C368 C 0.68125 0.11667 -0.0045 0.0
C369 C 0.70375 0.11797 0.96001 0.0
C370 C 0.76604 0.12007 0.95385 0.0
H371 H 0.90012 0.15898 0.00594 0.0
H372 H 0.82837 0.15086 0.99273 0.0
H373 H 0.86205 0.14609 0.03545 0.0
H374 H 0.81467 0.12051 0.04132 0.0
H375 H 0.70653 0.11677 0.05225 0.0
H376 H 0.32886 0.14831 0.4924 0.0
H377 H 0.21868 0.15141 0.49379 0.0
H378 H 0.19915 0.10815 0.54335 0.0
H379 H 0.30926 0.10498 0.54251 0.0
H380 H 0.13411 0.1326 0.45943 0.0
H381 H 0.09573 0.13548 0.60781 0.0
H382 H 0.16967 0.13807 0.58765 0.0
H383 H 0.13871 0.11965 0.59285 0.0
C384 C 0.30122 0.13953 0.50405 0.0
C385 C 0.32772 0.12641 0.51737 0.0
C386 C 0.23835 0.14131 0.50471 0.0
C387 C 0.20106 0.13005 0.5189 0.0
C388 C 0.22735 0.11705 0.5328 0.0
H389 H 0.8116 0.12184 0.47899 0.0
H390 H 0.92123 0.1174 0.48096 0.0
C391 C 0.29022 0.11526 0.53217 0.0
C392 C 0.13449 0.13166 0.51762 0.0
H393 H 0.00831 0.13403 0.57066 0.0
C394 C 0.10647 0.13293 0.4837 0.0
C395 C 0.09897 0.13215 0.5494 0.0
C396 C 0.12719 0.13139 0.58654 0.0
C397 C 0.04351 0.13473 0.48068 0.0
C398 C 0.00784 0.135 0.51245 0.0
C399 C 0.0359 0.13369 0.54637 0.0
C400 C 0.94163 0.13743 0.51128 0.0
C401 C 0.01598 0.1367 0.44361 0.0
C402 C 0.91694 0.14997 0.52835 0.0
C403 C 0.85457 0.15245 0.5276 0.0
C404 C 0.81573 0.14242 0.50972 0.0
C405 C 0.84049 0.12981 0.49274 0.0
C406 C 0.90304 0.12729 0.49371 0.0
H407 H 0.05072 0.13972 0.42307 0.0
H408 H 0.99438 0.12608 0.43509 0.0
H409 H 0.98052 0.14547 0.44393 0.0
H410 H 0.94606 0.1579 0.54208 0.0
H411 H 0.83692 0.16228 0.5409 0.0
H412 H 0.65807 0.86844 0.55214 0.0
H413 H 0.76668 0.86369 0.56192 0.0
H414 H 0.80934 0.88752 0.46389 0.0
H415 H 0.70177 0.89229 0.45386 0.0
H416 H 0.85202 0.84913 0.51179 0.0
H417 H 0.91597 0.90759 0.54347 0.0
H418 H 0.83872 0.90087 0.54628 0.0
H419 H 0.87159 0.90524 0.50308 0.0
C420 C 0.69063 0.87266 0.53271 0.0
C421 C 0.67122 0.8808 0.50231 0.0
C422 C 0.75257 0.86995 0.53833 0.0
C423 C 0.79599 0.87546 0.51389 0.0
C424 C 0.77664 0.8834 0.48338 0.0
H425 H 0.18407 0.87432 0.48237 0.0
H426 H 0.07464 0.87898 0.48105 0.0
C427 C 0.71499 0.88605 0.47764 0.0
C428 C 0.86166 0.87277 0.51961 0.0
H429 H 0.99685 0.89071 0.53254 0.0
C430 C 0.88372 0.85817 0.51674 0.0
C431 C 0.9028 0.88462 0.52579 0.0
C432 C 0.88122 0.90046 0.53016 0.0
C433 C 0.94622 0.85516 0.51874 0.0
C434 C 0.98751 0.86705 0.5246 0.0
C435 C 0.96521 0.88162 0.52801 0.0
C436 C 0.05412 0.86463 0.52652 0.0
C437 C 0.96759 0.83936 0.51319 0.0
C438 C 0.07914 0.85533 0.55308 0.0
C439 C 0.1416 0.85261 0.55386 0.0
C440 C 0.18044 0.85927 0.52827 0.0
C441 C 0.1555 0.869 0.50245 0.0
C442 C 0.09294 0.87167 0.50163 0.0
H443 H 0.93243 0.83237 0.49982 0.0
H444 H 0.00954 0.83907 0.49655 0.0
H445 H 0.97788 0.83428 0.53985 0.0
H446 H 0.05028 0.85007 0.57311 0.0
H447 H 0.15929 0.84514 0.57429 0.0
H448 H 0.96947 0.56076 0.02765 0.0
H449 H 0.97566 0.53351 0.02996 0.0
H450 H 0.03262 0.53271 0.91836 0.0
H451 H 0.0282 0.55987 0.91613 0.0
H452 H 0.91675 0.51213 0.99204 0.0
H453 H 0.16343 0.50811 0.96516 0.0
H454 H 0.12704 0.52552 0.97617 0.0
H455 H 0.12439 0.51837 0.93069 0.0
C456 C 0.98341 0.55477 0.00363 0.0
C457 C 0.99887 0.56248 0.97179 0.0
C458 C 0.98696 0.53921 0.005 0.0
C459 C 0.00593 0.53109 0.97458 0.0
C460 C 0.01965 0.53875 0.9425 0.0
H461 H 0.01297 0.43908 0.91035 0.0
H462 H 0.00893 0.46628 0.91479 0.0
C463 C 0.01667 0.55429 0.94119 0.0
C464 C 0.01029 0.5146 0.97604 0.0
H465 H 0.10625 0.4855 0.95963 0.0
C466 C 0.95836 0.50632 0.98534 0.0
C467 C 0.06478 0.50701 0.96753 0.0
C468 C 0.12322 0.51521 0.9597 0.0
C469 C 0.95898 0.49067 0.98515 0.0
C470 C 0.01276 0.48316 0.97539 0.0
C471 C 0.06498 0.49137 0.96681 0.0
C472 C 0.01523 0.46674 0.97311 0.0
C473 C 0.90194 0.48218 0.99454 0.0
C474 C 0.02061 0.45809 0.0045 0.0
C475 C 0.02337 0.44254 0.00209 0.0
C476 C 0.02049 0.43543 0.96821 0.0
C477 C 0.01522 0.4442 0.93684 0.0
C478 C 0.01292 0.45973 0.93928 0.0
H479 H 0.86262 0.48968 -0.0009 0.0
H480 H 0.89055 0.47426 0.97248 0.0
H481 H 0.90965 0.47555 0.01945 0.0
H482 H 0.02274 0.46337 0.03082 0.0
H483 H 0.02727 0.43611 0.02677 0.0
H484 H 0.06074 0.43716 0.56247 0.0
H485 H 0.06006 0.46436 0.5574 0.0
H486 H 0.9329 0.46146 0.46913 0.0
H487 H 0.93294 0.43422 0.47395 0.0
H488 H 0.05282 0.48169 0.46383 0.0
H489 H 0.89653 0.49062 0.58037 0.0
H490 H 0.95602 0.47696 0.58454 0.0
H491 H 0.89465 0.47375 0.5537 0.0
C492 C 0.03252 0.44228 0.54198 0.0
C493 C 0.99663 0.43352 0.51872 0.0
C494 C 0.03233 0.45781 0.53912 0.0
C495 C 0.99636 0.46482 0.51297 0.0
C496 C 0.96099 0.45617 0.48944 0.0
H497 H 0.88602 0.55673 0.49523 0.0
H498 H 0.89275 0.52957 0.4967 0.0
C499 C 0.96098 0.44063 0.49232 0.0
C500 C 0.99487 0.48124 0.51064 0.0
H501 H 0.93523 0.51197 0.55144 0.0
C502 C 0.02723 0.48837 0.48292 0.0
C503 C 0.9611 0.48979 0.53552 0.0
C504 C 0.92475 0.48249 0.56524 0.0
C505 C 0.02674 0.50396 0.47944 0.0
C506 C 0.99346 0.51257 0.50464 0.0
C507 C 0.9609 0.50536 0.53225 0.0
C508 C 0.99046 0.52905 0.50247 0.0
C509 C 0.06076 0.51104 0.44843 0.0
C510 C 0.04319 0.53779 0.50537 0.0
C511 C 0.03955 0.55335 0.50429 0.0
C512 C 0.98298 0.56043 0.50079 0.0
C513 C 0.93028 0.55163 0.49805 0.0
C514 C 0.93403 0.5361 0.49887 0.0
H515 H 0.07053 0.50287 0.42662 0.0
H516 H 0.03473 0.52046 0.43674 0.0
H517 H 0.10476 0.51544 0.45845 0.0
H518 H 0.08707 0.53259 0.50901 0.0
H519 H 0.08093 0.55981 0.50675 0.0
H520 H 0.50436 0.93584 0.02916 0.0
H521 H 0.49397 0.96297 0.03369 0.0
H522 H 0.55009 0.96752 0.9225 0.0
H523 H 0.56006 0.94053 0.91756 0.0
H524 H 0.58227 0.98536 0.02196 0.0
H525 H 0.38989 0.99072 0.9263 0.0
H526 H 0.41185 0.9731 0.9459 0.0
H527 H 0.45297 0.9806 0.90797 0.0
C528 C 0.51446 0.94262 0.00567 0.0
C529 C 0.53277 0.93602 0.97294 0.0
C530 C 0.50847 0.95811 0.00832 0.0
C531 C 0.52023 0.9672 0.97825 0.0
C532 C 0.53954 0.96066 0.9458 0.0
H533 H 0.54495 0.05933 0.92178 0.0
H534 H 0.54536 0.03216 0.92592 0.0
C535 C 0.54559 0.94523 0.94312 0.0
C536 C 0.51367 0.98358 0.98073 0.0
H537 H 0.44223 0.0132 0.94163 0.0
C538 C 0.55115 0.99146 0.00477 0.0
C539 C 0.47281 0.99147 0.95833 0.0
C540 C 0.42914 0.98354 0.93341 0.0
C541 C 0.55074 0.00711 0.00584 0.0
C542 C 0.51131 0.01499 0.98256 0.0
C543 C 0.47264 0.00709 0.95928 0.0
C544 C 0.5113 0.03145 0.98075 0.0
C545 C 0.59401 0.01512 0.03082 0.0
C546 C 0.49154 0.04002 0.01019 0.0
C547 C 0.49109 0.05558 0.00791 0.0
C548 C 0.51039 0.0628 0.97611 0.0
C549 C 0.52997 0.05414 0.94668 0.0
C550 C 0.53016 0.03861 0.94896 0.0
H551 H 0.6289 0.00752 0.04216 0.0
H552 H 0.61724 0.02437 0.01639 0.0
H553 H 0.56814 0.02001 0.05366 0.0
H554 H 0.47601 0.03467 0.03478 0.0
H555 H 0.47562 0.06194 0.03102 0.0
H556 H 0.39692 0.05555 0.50333 0.0
H557 H 0.40975 0.02863 0.50716 0.0
H558 H 0.59979 0.03462 0.53117 0.0
H559 H 0.58715 0.06177 0.52792 0.0
H560 H 0.48689 0.01144 0.464 0.0
H561 H 0.54274 0.00544 0.61 0.0
H562 H 0.50947 0.02219 0.59166 0.0
H563 H 0.58865 0.0184 0.58489 0.0
C564 C 0.44147 0.0512 0.50969 0.0
C565 C 0.49109 0.06081 0.51529 0.0
C566 C 0.44866 0.03579 0.51185 0.0
C567 C 0.50555 0.02963 0.5197 0.0
C568 C 0.55524 0.03916 0.52568 0.0
H569 H 0.60931 0.93627 0.54216 0.0
H570 H 0.60934 0.9635 0.53936 0.0
C571 C 0.54801 0.05465 0.52368 0.0
C572 C 0.51259 0.01321 0.52 0.0
H573 H 0.54329 0.98355 0.57476 0.0
C574 C 0.49937 0.00532 0.48818 0.0
C575 C 0.52933 0.0053 0.5515 0.0
C576 C 0.54298 0.01321 0.58659 0.0
C577 C 0.50212 0.98971 0.48699 0.0
C578 C 0.517 0.98174 0.51881 0.0
C579 C 0.53155 0.98966 0.55044 0.0
C580 C 0.51691 0.96519 0.52001 0.0
C581 C 0.48988 0.98198 0.45147 0.0
C582 C 0.4647 0.95706 0.51047 0.0
C583 C 0.46484 0.94149 0.51154 0.0
C584 C 0.51676 0.93375 0.523 0.0
C585 C 0.56853 0.94191 0.53329 0.0
C586 C 0.56865 0.95747 0.5317 0.0
H587 H 0.49862 0.9895 0.42815 0.0
H588 H 0.51833 0.97187 0.44837 0.0
H589 H 0.44143 0.9786 0.45037 0.0
H590 H 0.42361 0.96277 0.50244 0.0
H591 H 0.42404 0.93552 0.50386 0.0
H592 H 0.21577 0.30825 0.07832 0.0
H593 H 0.23942 0.28162 0.07706 0.0
H594 H 0.17632 0.27894 0.96691 0.0
H595 H 0.1523 0.30555 0.96783 0.0
H596 H 0.13426 0.2553 0.01636 0.0
H597 H 0.38437 0.264 0.01692 0.0
H598 H 0.34218 0.27399 0.05074 0.0
H599 H 0.33166 0.27841 0.00382 0.0
C600 C 0.20676 0.30201 0.05383 0.0
C601 C 0.18253 0.30905 0.02309 0.0
C602 C 0.22044 0.28681 0.05316 0.0
C603 C 0.21026 0.27841 0.02176 0.0
C604 C 0.18464 0.28528 0.99135 0.0
H605 H 0.35609 0.19124 0.96938 0.0
H606 H 0.32637 0.2175 0.96945 0.0
C607 C 0.17101 0.30048 0.99195 0.0
C608 C 0.22726 0.26249 0.02047 0.0
H609 H 0.34933 0.23917 0.02229 0.0
C610 C 0.18122 0.25173 0.01762 0.0
C611 C 0.28862 0.25796 0.02162 0.0
C612 C 0.33979 0.26915 0.02316 0.0
C613 C 0.19496 0.23647 0.01655 0.0
C614 C 0.2563 0.23191 0.01874 0.0
C615 C 0.30235 0.2427 0.02091 0.0
C616 C 0.27374 0.21598 0.01873 0.0
C617 C 0.14385 0.22536 0.01259 0.0
C618 C 0.25465 0.2065 0.04668 0.0
C619 C 0.27149 0.1915 0.04673 0.0
C620 C 0.3081 0.18573 0.01891 0.0
C621 C 0.32781 0.19532 0.99118 0.0
C622 C 0.31088 0.21032 0.99116 0.0
H623 H 0.10187 0.23068 0.00215 0.0
H624 H 0.15683 0.21615 0.9941 0.0
H625 H 0.13336 0.22046 0.03945 0.0
H626 H 0.22702 0.21072 0.06862 0.0
H627 H 0.25583 0.18444 0.0686 0.0
H628 H 0.7516 0.81276 0.07146 0.0
H629 H 0.77946 0.7864 0.07185 0.0
H630 H 0.67545 0.77935 0.97454 0.0
H631 H 0.6479 0.80574 0.97362 0.0
H632 H 0.70486 0.76092 0.07399 0.0
H633 H 0.84347 0.76286 0.94853 0.0
H634 H 0.8202 0.77946 0.97228 0.0
H635 H 0.76745 0.76975 0.94361 0.0
C636 C 0.73463 0.80562 0.05011 0.0
C637 C 0.69788 0.81138 0.02236 0.0
C638 C 0.75055 0.79056 0.05042 0.0
C639 C 0.7303 0.781 0.02292 0.0
C640 C 0.69254 0.78662 -0.00438 0.0
H641 H 0.78523 0.68722 0.977 0.0
H642 H 0.75207 0.7132 0.97744 0.0
C643 C 0.67659 0.80169 -0.00474 0.0
C644 C 0.74868 0.76514 0.02294 0.0
H645 H 0.82628 0.73905 0.97431 0.0
C646 C 0.73155 0.75613 0.05228 0.0
C647 C 0.78348 0.75895 0.99454 0.0
C648 C 0.80527 0.76826 0.96308 0.0
C649 C 0.74764 0.74102 0.05374 0.0
C650 C 0.78254 0.73485 0.02537 0.0
C651 C 0.79947 0.74384 -0.00402 0.0
C652 C 0.80216 0.71909 0.02568 0.0
C653 C 0.72626 0.7317 0.08526 0.0
C654 C 0.84185 0.71386 0.05247 0.0
C655 C 0.86104 0.69902 0.0523 0.0
C656 C 0.84097 0.68916 0.02522 0.0
C657 C 0.80146 0.69449 -0.0017 0.0
C658 C 0.78245 0.70933 -0.00153 0.0
H659 H 0.68819 0.73708 0.09997 0.0
H660 H 0.71131 0.72049 0.07605 0.0
H661 H 0.76432 0.7302 0.10455 0.0
H662 H 0.85843 0.7213 0.07334 0.0
H663 H 0.89162 0.69529 0.07335 0.0
H664 H 0.18446 0.68709 0.41555 0.0
H665 H 0.2116 0.71354 0.41458 0.0
H666 H 0.21319 0.71431 0.53112 0.0
H667 H 0.18564 0.68782 0.53249 0.0
H668 H 0.14365 0.7384 0.45372 0.0
H669 H 0.38515 0.73066 0.49389 0.0
H670 H 0.34084 0.71592 0.47349 0.0
H671 H 0.3281 0.72097 0.51977 0.0
C672 C 0.19053 0.69286 0.44101 0.0
C673 C 0.18309 0.68535 0.47412 0.0
C674 C 0.20592 0.70797 0.44036 0.0
C675 C 0.21479 0.71577 0.47275 0.0
C676 C 0.20695 0.70839 0.50586 0.0
H677 H 0.33596 0.80511 0.52318 0.0
H678 H 0.30738 0.7788 0.52391 0.0
C679 C 0.19105 0.69329 0.50657 0.0
C680 C 0.2322 0.73167 0.4718 0.0
H681 H 0.35095 0.75534 0.48669 0.0
C682 C 0.18893 0.74216 0.46085 0.0
C683 C 0.29122 0.73642 0.48128 0.0
C684 C 0.33939 0.72546 0.49261 0.0
C685 C 0.20291 0.75743 0.45967 0.0
C686 C 0.26232 0.76221 0.4687 0.0
C687 C 0.30554 0.75166 0.47966 0.0
C688 C 0.28031 0.77814 0.46768 0.0
C689 C 0.15344 0.76828 0.44972 0.0
C690 C 0.27563 0.78646 0.43562 0.0
C691 C 0.29145 0.80156 0.43518 0.0
C692 C 0.31317 0.80854 0.46666 0.0
C693 C 0.31941 0.80007 0.49844 0.0
C694 C 0.30306 0.78503 0.49893 0.0
H695 H 0.10758 0.76337 0.45371 0.0
H696 H 0.15681 0.77864 0.46602 0.0
H697 H 0.15795 0.77131 0.42074 0.0
H698 H 0.25974 0.78127 0.41092 0.0
H699 H 0.28666 0.80775 0.41019 0.0
H700 H 0.7548 0.31026 0.50277 0.0
H701 H 0.71877 0.28457 0.49736 0.0
H702 H 0.88119 0.27293 0.43883 0.0
H703 H 0.91812 0.29856 0.44457 0.0
H704 H 0.69522 0.26812 0.43564 0.0
H705 H 0.87499 0.24135 0.51803 0.0
H706 H 0.86256 0.26122 0.51806 0.0
H707 H 0.9038 0.25261 0.4817 0.0
C708 C 0.78308 0.30223 0.4889 0.0
C709 C 0.83953 0.30645 0.47425 0.0
C710 C 0.76232 0.28756 0.48578 0.0
C711 C 0.79764 0.2768 0.46813 0.0
C712 C 0.85375 0.28099 0.45321 0.0
H713 H 0.74883 0.18359 0.41508 0.0
H714 H 0.77889 0.20984 0.41632 0.0
C715 C 0.87464 0.29566 0.45635 0.0
C716 C 0.77514 0.26128 0.46473 0.0
H717 H 0.80931 0.22517 0.48543 0.0
C718 C 0.71999 0.25873 0.44666 0.0
C719 C 0.80746 0.24906 0.47926 0.0
C720 C 0.86519 0.25116 0.50066 0.0
C721 C 0.69688 0.24425 0.44217 0.0
C722 C 0.72963 0.23206 0.45628 0.0
C723 C 0.7846 0.23458 0.47443 0.0
C724 C 0.70747 0.21655 0.45291 0.0
C725 C 0.63818 0.242 0.4219 0.0
C726 C 0.65684 0.21171 0.47275 0.0
C727 C 0.63962 0.1967 0.47226 0.0
C728 C 0.67277 0.18628 0.45186 0.0
C729 C 0.72214 0.19131 0.43097 0.0
C730 C 0.73956 0.20629 0.43171 0.0
H731 H 0.62387 0.25224 0.40735 0.0
H732 H 0.64269 0.23277 0.40209 0.0
H733 H 0.60185 0.2389 0.4413 0.0
H734 H 0.63191 0.21946 0.48956 0.0
H735 H 0.6015 0.19318 0.48872 0.0
H736 H 0.02145 0.39089 0.10079 0.0
H737 H 0.99946 0.38878 0.16527 0.0
H738 H 0.06233 0.3433 0.16455 0.0
H739 H 0.08621 0.34543 0.10014 0.0
H740 H 0.92112 0.37029 0.19926 0.0
H741 H 0.1555 0.36041 0.24903 0.0
H742 H 0.13991 0.36659 0.20354 0.0
H743 H 0.13013 0.34731 0.21558 0.0
C744 C 0.03104 0.38046 0.11436 0.0
C745 C 0.05591 0.36835 0.09537 0.0
C746 C 0.01834 0.37927 0.15121 0.0
C747 C 0.02993 0.36595 0.16981 0.0
C748 C 0.05435 0.35379 0.15093 0.0
H749 H 0.88163 0.34866 0.38608 0.0
H750 H 0.90483 0.34696 0.32144 0.0
C751 C 0.06774 0.35502 0.11408 0.0
C752 C 0.0149 0.36481 0.20876 0.0
H753 H 0.0765 0.35894 0.29225 0.0
C754 C 0.95503 0.36776 0.21961 0.0
C755 C 0.05937 0.36159 0.23522 0.0
C756 C 0.12495 0.35892 0.22539 0.0
C757 C 0.93855 0.36779 0.25624 0.0
C758 C 0.98291 0.36449 0.28263 0.0
C759 C 0.04258 0.36135 0.27182 0.0
C760 C 0.96927 0.3652 0.32174 0.0
C761 C 0.87439 0.37186 0.2665 0.0
C762 C 0.99865 0.37583 0.34331 0.0
C763 C 0.98569 0.37683 0.38014 0.0
C764 C 0.9432 0.36714 0.39622 0.0
C765 C 0.91427 0.35636 0.37455 0.0
C766 C 0.9273 0.35539 0.3376 0.0
H767 H 0.84947 0.37705 0.24364 0.0
H768 H 0.84951 0.36164 0.27473 0.0
H769 H 0.87415 0.3797 0.28973 0.0
H770 H 0.03128 0.38348 0.33153 0.0
H771 H 0.00909 0.38522 0.39596 0.0
H772 H 0.01886 0.61191 0.10216 0.0
H773 H 0.03674 0.61422 0.16704 0.0
H774 H 0.90281 0.64906 0.17338 0.0
H775 H 0.884 0.6468 0.10837 0.0
H776 H 0.07319 0.64023 0.20722 0.0
H777 H 0.84855 0.61772 0.24988 0.0
H778 H 0.87796 0.61522 0.20471 0.0
H779 H 0.84754 0.63291 0.21815 0.0
C780 C 0.99298 0.62006 0.11725 0.0
C781 C 0.94966 0.62911 0.1 0.0
C782 C 1.00348 0.62139 0.15432 0.0
C783 C 0.97069 0.6317 0.17495 0.0
C784 C 0.92799 0.6409 0.15792 0.0
H785 H 0.05626 0.65282 0.40091 0.0
H786 H 0.03188 0.65513 0.33657 0.0
C787 C 0.91749 0.63961 0.12075 0.0
C788 C 0.9812 0.63265 0.21438 0.0
H789 H 0.91597 0.62503 0.29609 0.0
C790 C 0.03875 0.63703 0.22673 0.0
C791 C 0.93616 0.62835 0.23958 0.0
C792 C 0.87413 0.62317 0.2276 0.0
C793 C 0.05277 0.63706 0.26375 0.0
C794 C 0.00787 0.63265 0.28891 0.0
C795 C 0.95008 0.62846 0.27661 0.0
C796 C 0.02122 0.63143 0.32796 0.0
C797 C 0.11599 0.6413 0.27565 0.0
C798 C 0.02226 0.61736 0.3444 0.0
C799 C 0.03632 0.61597 0.38104 0.0
C800 C 0.04904 0.62867 0.40204 0.0
C801 C 0.04693 0.6428 0.38553 0.0
C802 C 0.03318 0.64416 0.34877 0.0
H803 H 0.14805 0.64204 0.25251 0.0
H804 H 0.11465 0.65233 0.28921 0.0
H805 H 0.13371 0.63307 0.29542 0.0
H806 H 0.01298 0.60741 0.3287 0.0
H807 H 0.03741 0.60492 0.39285 0.0
H808 H 0.96782 0.65132 0.89838 0.0
H809 H 0.00479 0.65007 0.83605 0.0
H810 H 0.99316 0.60214 0.83893 0.0
H811 H 0.95512 0.60323 0.90109 0.0
H812 H 0.10843 0.61844 0.804 0.0
H813 H 0.8778 0.63369 0.75451 0.0
H814 H 0.9094 0.64431 0.79135 0.0
H815 H 0.8898 0.62511 0.79812 0.0
C816 C 0.97375 0.64049 0.88595 0.0
C817 C 0.95839 0.62736 0.90468 0.0
C818 C 0.99505 0.63982 0.85041 0.0
C819 C 1.00153 0.62603 0.8331 0.0
C820 C 0.98871 0.61287 0.85207 0.0
H821 H 0.00988 0.6049 0.60621 0.0
H822 H 0.99659 0.60498 0.6717 0.0
C823 C 0.9671 0.61353 0.88758 0.0
C824 C 0.01651 0.62542 0.79424 0.0
H825 H 0.95437 0.63072 0.71079 0.0
C826 C 0.07499 0.62115 0.78352 0.0
C827 C 0.97239 0.62884 0.76784 0.0
C828 C 0.90861 0.63318 0.77826 0.0
C829 C 0.09063 0.62031 0.74671 0.0
C830 C 0.04657 0.62388 0.72032 0.0
C831 C 0.98803 0.62805 0.73117 0.0
C832 C 0.05945 0.62312 0.68113 0.0
C833 C 0.1536 0.61539 0.73622 0.0
C834 C 0.0995 0.63327 0.66482 0.0
C835 C 0.10709 0.63333 0.62724 0.0
C836 C 0.07461 0.62323 0.6054 0.0
C837 C 0.03561 0.61285 0.6221 0.0
C838 C 0.02793 0.61286 0.65955 0.0
H839 H 0.17843 0.6104 0.75937 0.0
H840 H 0.15154 0.60713 0.71388 0.0
H841 H 0.17981 0.62517 0.72645 0.0
H842 H 0.12358 0.64141 0.68104 0.0
H843 H 0.13752 0.64145 0.61531 0.0
H844 H 0.00681 0.38506 0.58602 0.0
H845 H 0.04196 0.38533 0.64882 0.0
H846 H 0.91208 0.35085 0.67512 0.0
H847 H 0.88033 0.34984 0.61189 0.0
H848 H 0.99122 0.39236 0.70748 0.0
H849 H 0.0547 0.33324 0.72167 0.0
H850 H 0.03564 0.34126 0.6785 0.0
H851 H 0.97678 0.33465 0.7085 0.0
C852 C 0.98657 0.37741 0.60521 0.0
C853 C 0.94159 0.36729 0.59417 0.0
C854 C 0.00647 0.37758 0.64109 0.0
C855 C 0.98074 0.36786 0.66671 0.0
C856 C 0.9345 0.35803 0.65573 0.0
H857 H 0.98792 0.38461 0.89812 0.0
H858 H 0.96556 0.38432 0.83327 0.0
C859 C 0.91598 0.35754 0.61965 0.0
C860 C 1.00031 0.36846 0.70516 0.0
H861 H 0.03911 0.34666 0.77706 0.0
C862 C 1.00251 0.38237 0.72255 0.0
C863 C 0.01636 0.3555 0.7248 0.0
C864 C 0.02144 0.34037 0.70722 0.0
C865 C 0.01893 0.38366 0.75908 0.0
C866 C 0.03038 0.37058 0.7794 0.0
C867 C 0.02946 0.35671 0.76179 0.0
C868 C 0.04371 0.37092 0.81882 0.0
C869 C 0.02515 0.39908 0.77503 0.0
C870 C 0.09335 0.36294 0.83269 0.0
C871 C 0.10451 0.36259 0.86984 0.0
C872 C 0.06708 0.37052 0.89368 0.0
C873 C 0.01782 0.37861 0.88002 0.0
C874 C 0.00547 0.37856 0.84295 0.0
H875 H 0.03677 0.40741 0.75388 0.0
H876 H 0.98117 0.40245 0.7871 0.0
H877 H 0.06068 0.39948 0.79629 0.0
H878 H 0.12349 0.35692 0.81477 0.0
H879 H 0.14292 0.35632 0.8799 0.0
H880 H 0.5834 0.84566 0.1015 0.0
H881 H 0.55815 0.84348 0.16574 0.0
H882 H 0.48778 0.88829 0.16495 0.0
H883 H 0.51107 0.89043 0.10069 0.0
H884 H 0.59791 0.85914 0.22275 0.0
H885 H 0.34918 0.86599 0.21098 0.0
H886 H 0.39712 0.86273 0.17221 0.0
H887 H 0.38961 0.8812 0.19067 0.0
C888 C 0.56238 0.85504 0.11499 0.0
C889 C 0.54885 0.86818 0.09593 0.0
C890 C 0.54789 0.85376 0.15166 0.0
C891 C 0.51984 0.8656 0.16991 0.0
C892 C 0.50765 0.87885 0.15115 0.0
H893 H 0.51544 0.88648 0.39553 0.0
H894 H 0.53427 0.88411 0.33079 0.0
C895 C 0.52148 0.88009 0.11446 0.0
C896 C 0.50538 0.86437 0.20891 0.0
H897 H 0.39142 0.86917 0.27036 0.0
C898 C 0.55262 0.86117 0.23313 0.0
C899 C 0.44604 0.86676 0.22238 0.0
C900 C 0.39249 0.8692 0.19765 0.0
C901 C 0.54264 0.86092 0.27057 0.0
C902 C 0.48421 0.86426 0.28408 0.0
C903 C 0.43639 0.86683 0.25987 0.0
C904 C 0.4723 0.86563 0.32327 0.0
C905 C 0.59473 0.85709 0.29535 0.0
C906 C 0.42988 0.85628 0.34025 0.0
C907 C 0.41867 0.85764 0.3773 0.0
C908 C 0.44937 0.86848 0.39793 0.0
C909 C 0.49107 0.87799 0.38057 0.0
C910 C 0.50229 0.87659 0.34359 0.0
H911 H 0.63061 0.85075 0.28093 0.0
H912 H 0.61538 0.86753 0.30576 0.0
H913 H 0.5789 0.8504 0.31882 0.0
H914 H 0.40593 0.84783 0.32488 0.0
H915 H 0.38614 0.85016 0.38973 0.0
H916 H 0.41276 0.15155 0.10394 0.0
H917 H 0.43349 0.15401 0.16873 0.0
H918 H 0.53408 0.11285 0.16662 0.0
H919 H 0.51485 0.11044 0.10202 0.0
H920 H 0.40076 0.13584 0.22323 0.0
H921 H 0.65103 0.13977 0.21957 0.0
H922 H 0.60485 0.14187 0.17957 0.0
H923 H 0.62425 0.12359 0.19595 0.0
C924 C 0.43967 0.14307 0.1172 0.0
C925 C 0.4623 0.13082 0.09766 0.0
C926 C 0.45155 0.14451 0.15423 0.0
C927 C 0.48642 0.13378 0.17239 0.0
C928 C 0.50859 0.1215 0.15302 0.0
H929 H 0.47927 0.10532 0.3915 0.0
H930 H 0.46732 0.11001 0.32702 0.0
C931 C 0.49702 0.12008 0.11606 0.0
C932 C 0.49662 0.13483 0.21201 0.0
H933 H 0.60682 0.13265 0.27677 0.0
C934 C 0.44588 0.13536 0.23491 0.0
C935 C 0.55551 0.13451 0.22733 0.0
C936 C 0.61199 0.13507 0.20429 0.0
C937 C 0.45227 0.13475 0.27264 0.0
C938 C 0.51089 0.13324 0.28783 0.0
C939 C 0.56184 0.13356 0.26507 0.0
C940 C 0.5198 0.13043 0.32701 0.0
C941 C 0.39604 0.13561 0.29585 0.0
C942 C 0.55533 0.14005 0.34825 0.0
C943 C 0.56284 0.13732 0.38529 0.0
C944 C 0.53515 0.12486 0.40161 0.0
C945 C 0.50085 0.11508 0.37996 0.0
C946 C 0.49355 0.1178 0.34307 0.0
H947 H 0.35865 0.14147 0.28162 0.0
H948 H 0.38014 0.12415 0.30213 0.0
H949 H 0.40535 0.14146 0.32173 0.0
H950 H 0.57648 0.14979 0.33628 0.0
H951 H 0.58957 0.14506 0.40118 0.0
H952 H 0.4621 0.10098 0.89437 0.0
H953 H 0.48092 0.09934 0.82927 0.0
H954 H 0.45076 0.14659 0.81881 0.0
H955 H 0.43213 0.1484 0.88389 0.0
H956 H 0.38827 0.12685 0.76561 0.0
H957 H 0.63689 0.11709 0.77876 0.0
H958 H 0.58718 0.10555 0.80549 0.0
H959 H 0.59235 0.12513 0.81477 0.0
C960 C 0.45959 0.11105 0.8783 0.0
C961 C 0.44599 0.12485 0.89446 0.0
C962 C 0.47034 0.11007 0.8411 0.0
C963 C 0.46751 0.12286 0.81938 0.0
C964 C 0.45312 0.1366 0.83522 0.0
H965 H 0.60674 0.14754 0.61422 0.0
H966 H 0.57746 0.14389 0.67713 0.0
C967 C 0.44273 0.13761 0.87243 0.0
C968 C 0.48071 0.12203 0.78018 0.0
H969 H 0.59674 0.11793 0.71988 0.0
C970 C 0.43367 0.12477 0.75549 0.0
C971 C 0.54005 0.11936 0.76726 0.0
C972 C 0.59233 0.1167 0.7928 0.0
C973 C 0.44473 0.12519 0.71806 0.0
C974 C 0.50432 0.12274 0.70518 0.0
C975 C 0.55104 0.1197 0.72989 0.0
C976 C 0.5205 0.12472 0.66658 0.0
C977 C 0.39326 0.1288 0.69266 0.0
C978 C 0.49818 0.11509 0.6397 0.0
C979 C 0.51487 0.11716 0.60343 0.0
C980 C 0.55415 0.12888 0.59365 0.0
C981 C 0.57628 0.13844 0.62076 0.0
C982 C 0.55973 0.13635 0.65679 0.0
H983 H 0.35218 0.13266 0.70732 0.0
H984 H 0.40726 0.13756 0.67311 0.0
H985 H 0.38102 0.11869 0.677 0.0
H986 H 0.46845 0.10592 0.6468 0.0
H987 H 0.49746 0.10955 0.5832 0.0
H988 H 0.45723 0.89294 0.59514 0.0
H989 H 0.49026 0.89439 0.65824 0.0
H990 H 0.49925 0.84642 0.66323 0.0
H991 H 0.46525 0.84483 0.60058 0.0
H992 H 0.42936 0.85875 0.71723 0.0
H993 H 0.6531 0.88727 0.70836 0.0
H994 H 0.5922 0.89666 0.68557 0.0
H995 H 0.61693 0.87875 0.66967 0.0
C996 C 0.46711 0.88271 0.60952 0.0
C997 C 0.45797 0.86876 0.59302 0.0
C998 C 0.48636 0.88357 0.64549 0.0
C999 C 0.49746 0.87051 0.66529 0.0
C1000 C 0.49086 0.85662 0.64837 0.0
H1001 H 0.59659 0.84838 0.88447 0.0
H1002 H 0.57812 0.84882 0.8192 0.0
C1003 C 0.47142 0.85574 0.61256 0.0
C1004 C 0.51048 0.87116 0.70449 0.0
H1005 H 0.61167 0.88394 0.76728 0.0
C1006 C 0.46937 0.8642 0.72814 0.0
C1007 C 0.56254 0.87836 0.71858 0.0
C1008 C 0.60908 0.88558 0.69427 0.0
C1009 C 0.47892 0.86424 0.76558 0.0
C1010 C 0.53091 0.87138 0.7796 0.0
C1011 C 0.57184 0.87848 0.75616 0.0
C1012 C 0.54356 0.87134 0.8187 0.0
C1013 C 0.43335 0.85676 0.79009 0.0
C1014 C 0.52999 0.88388 0.8397 0.0
C1015 C 0.54006 0.88364 0.87698 0.0
C1016 C 0.56426 0.87091 0.89376 0.0
C1017 C 0.57777 0.85836 0.87245 0.0
C1018 C 0.56755 0.8586 0.83518 0.0
H1019 H 0.39234 0.85295 0.7752 0.0
H1020 H 0.45468 0.84695 0.80318 0.0
H1021 H 0.41923 0.86453 0.81187 0.0
H1022 H 0.51086 0.89375 0.82731 0.0
H1023 H 0.52812 0.89336 0.89265 0.0
loop_
_geom_bond_atom_site_label_1
_geom_bond_atom_site_label_2
_geom_bond_distance
_geom_bond_site_symmetry_2
_ccdc_geom_bond_type
Zn0 O6 1.969 . S
Zn0 O7 1.965 1_556 S
Zn0 O11 2.024 1_556 S
Zn0 O16 1.969 . S
Zn1 O8 1.969 1_655 S
Zn1 O14 1.969 1_655 S
Zn1 O15 1.965 1_654 S
Zn1 O17 2.024 1_554 S
C2 O3 1.229 . S
C2 O11 1.058 1_556 S
O3 C2 1.229 . S
C4 O5 1.229 . S
C4 O17 1.058 1_554 S
O5 C4 1.229 . S
O6 Zn0 1.969 . S
O6 C9 1.267 1_556 S
O7 Zn0 1.965 1_554 S
O7 C18 1.260 . S
O8 Zn1 1.969 1_455 S
O8 C18 1.258 . S
C9 O6 1.267 1_554 S
C9 O10 1.228 . S
O10 C9 1.228 . S
O11 Zn0 2.024 1_554 S
O11 C2 1.058 1_554 S
C12 O13 1.228 . S
C12 O14 1.267 1_656 S
O13 C12 1.228 . S
O14 Zn1 1.969 1_455 S
O14 C12 1.267 1_454 S
O15 Zn1 1.965 1_456 S
O15 C19 1.260 . S
O16 Zn0 1.969 . S
O16 C19 1.258 . S
O17 Zn1 2.024 1_556 S
O17 C4 1.058 1_556 S
C18 O7 1.260 . S
C18 O8 1.258 . S
C19 O15 1.260 . S
C19 O16 1.258 . S
Zn20 O26 1.969 . S
Zn20 O27 1.965 1_556 S
Zn20 O31 2.024 1_556 S
Zn20 O36 1.969 . S
Zn21 O28 1.969 1_455 S
Zn21 O34 1.969 1_455 S
Zn21 O35 1.965 1_454 S
Zn21 O37 2.024 1_554 S
C22 O23 1.229 . S
C22 O31 1.058 1_556 S
O23 C22 1.229 . S
C24 O25 1.229 . S
C24 O37 1.058 1_554 S
O25 C24 1.229 . S
O26 Zn20 1.969 . S
O26 C29 1.267 1_556 S
O27 Zn20 1.965 1_554 S
O27 C38 1.260 . S
O28 Zn21 1.969 1_655 S
O28 C38 1.258 . S
C29 O26 1.267 1_554 S
C29 O30 1.228 . S
O30 C29 1.228 . S
O31 Zn20 2.024 1_554 S
O31 C22 1.058 1_554 S
C32 O33 1.228 . S
C32 O34 1.267 1_456 S
O33 C32 1.228 . S
O34 Zn21 1.969 1_655 S
O34 C32 1.267 1_654 S
O35 Zn21 1.965 1_656 S
O35 C39 1.260 . S
O36 Zn20 1.969 . S
O36 C39 1.258 . S
O37 Zn21 2.024 1_556 S
O37 C24 1.058 1_556 S
C38 O27 1.260 . S
C38 O28 1.258 . S
C39 O35 1.260 . S
C39 O36 1.258 . S
Zn40 O46 1.969 . S
Zn40 O47 1.965 . S
Zn40 O51 2.024 . S
Zn40 O56 1.969 . S
Zn41 O48 1.969 1_655 S
Zn41 O54 1.969 1_655 S
Zn41 O55 1.965 1_655 S
Zn41 O57 2.024 . S
C42 O43 1.229 . S
C42 O51 1.058 . S
O43 C42 1.229 . S
C44 O45 1.229 . S
C44 O57 1.058 . S
O45 C44 1.229 . S
O46 Zn40 1.969 . S
O46 C49 1.267 . S
O47 Zn40 1.965 . S
O47 C58 1.260 . S
O48 Zn41 1.969 1_455 S
O48 C58 1.258 . S
C49 O46 1.267 . S
C49 O50 1.228 . S
O50 C49 1.228 . S
O51 Zn40 2.024 . S
O51 C42 1.058 . S
C52 O53 1.228 . S
C52 O54 1.267 1_655 S
O53 C52 1.228 . S
O54 Zn41 1.969 1_455 S
O54 C52 1.267 1_455 S
O55 Zn41 1.965 1_455 S
O55 C59 1.260 . S
O56 Zn40 1.969 . S
O56 C59 1.258 . S
O57 Zn41 2.024 . S
O57 C44 1.058 . S
C58 O47 1.260 . S
C58 O48 1.258 . S
C59 O55 1.260 . S
C59 O56 1.258 . S
Zn60 O66 1.969 . S
Zn60 O67 1.965 . S
Zn60 O71 2.024 . S
Zn60 O76 1.969 . S
Zn61 O68 1.969 1_455 S
Zn61 O74 1.969 1_455 S
Zn61 O75 1.965 1_455 S
Zn61 O77 2.024 . S
C62 O63 1.229 . S
C62 O71 1.058 . S
O63 C62 1.229 . S
C64 O65 1.229 . S
C64 O77 1.058 . S
O65 C64 1.229 . S
O66 Zn60 1.969 . S
O66 C69 1.267 . S
O67 Zn60 1.965 . S
O67 C78 1.260 . S
O68 Zn61 1.969 1_655 S
O68 C78 1.258 . S
C69 O66 1.267 . S
C69 O70 1.228 . S
O70 C69 1.228 . S
O71 Zn60 2.024 . S
O71 C62 1.058 . S
C72 O73 1.228 . S
C72 O74 1.267 1_455 S
O73 C72 1.228 . S
O74 Zn61 1.969 1_655 S
O74 C72 1.267 1_655 S
O75 Zn61 1.965 1_655 S
O75 C79 1.260 . S
O76 Zn60 1.969 . S
O76 C79 1.258 . S
O77 Zn61 2.024 . S
O77 C64 1.058 . S
C78 O67 1.260 . S
C78 O68 1.258 . S
C79 O75 1.260 . S
C79 O76 1.258 . S
Zn80 O86 1.969 . S
Zn80 O87 1.965 1_556 S
Zn80 O91 2.024 1_556 S
Zn80 O96 1.969 . S
Zn81 O88 1.969 . S
Zn81 O94 1.969 . S
Zn81 O95 1.965 1_554 S
Zn81 O97 2.024 1_554 S
C82 O83 1.229 . S
C82 O91 1.058 1_556 S
O83 C82 1.229 . S
C84 O85 1.229 . S
C84 O97 1.058 1_554 S
O85 C84 1.229 . S
O86 Zn80 1.969 . S
O86 C89 1.267 1_556 S
O87 Zn80 1.965 1_554 S
O87 C98 1.260 . S
O88 Zn81 1.969 . S
O88 C98 1.258 . S
C89 O86 1.267 1_554 S
C89 O90 1.228 . S
O90 C89 1.228 . S
O91 Zn80 2.024 1_554 S
O91 C82 1.058 1_554 S
C92 O93 1.228 . S
C92 O94 1.267 1_556 S
O93 C92 1.228 . S
O94 Zn81 1.969 . S
O94 C92 1.267 1_554 S
O95 Zn81 1.965 1_556 S
O95 C99 1.260 . S
O96 Zn80 1.969 . S
O96 C99 1.258 . S
O97 Zn81 2.024 1_556 S
O97 C84 1.058 1_556 S
C98 O87 1.260 . S
C98 O88 1.258 . S
C99 O95 1.260 . S
C99 O96 1.258 . S
Zn100 O106 1.969 . S
Zn100 O107 1.965 1_556 S
Zn100 O111 2.024 1_556 S
Zn100 O116 1.969 . S
Zn101 O108 1.969 . S
Zn101 O114 1.969 . S
Zn101 O115 1.965 1_554 S
Zn101 O117 2.024 1_554 S
C102 O103 1.229 . S
C102 O111 1.058 1_556 S
O103 C102 1.229 . S
C104 O105 1.229 . S
C104 O117 1.058 1_554 S
O105 C104 1.229 . S
O106 Zn100 1.969 . S
O106 C109 1.267 1_556 S
O107 Zn100 1.965 1_554 S
O107 C118 1.260 . S
O108 Zn101 1.969 . S
O108 C118 1.258 . S
C109 O106 1.267 1_554 S
C109 O110 1.228 . S
O110 C109 1.228 . S
O111 Zn100 2.024 1_554 S
O111 C102 1.058 1_554 S
C112 O113 1.228 . S
C112 O114 1.267 1_556 S
O113 C112 1.228 . S
O114 Zn101 1.969 . S
O114 C112 1.267 1_554 S
O115 Zn101 1.965 1_556 S
O115 C119 1.260 . S
O116 Zn100 1.969 . S
O116 C119 1.258 . S
O117 Zn101 2.024 1_556 S
O117 C104 1.058 1_556 S
C118 O107 1.260 . S
C118 O108 1.258 . S
C119 O115 1.260 . S
C119 O116 1.258 . S
Zn120 O126 1.969 . S
Zn120 O127 1.965 . S
Zn120 O131 2.024 . S
Zn120 O136 1.969 . S
Zn121 O128 1.969 . S
Zn121 O134 1.969 . S
Zn121 O135 1.965 . S
Zn121 O137 2.024 . S
C122 O123 1.229 . S
C122 O131 1.058 . S
O123 C122 1.229 . S
C124 O125 1.229 . S
C124 O137 1.058 . S
O125 C124 1.229 . S
O126 Zn120 1.969 . S
O126 C129 1.267 . S
O127 Zn120 1.965 . S
O127 C138 1.260 . S
O128 Zn121 1.969 . S
O128 C138 1.258 . S
C129 O126 1.267 . S
C129 O130 1.228 . S
O130 C129 1.228 . S
O131 Zn120 2.024 . S
O131 C122 1.058 . S
C132 O133 1.228 . S
C132 O134 1.267 . S
O133 C132 1.228 . S
O134 Zn121 1.969 . S
O134 C132 1.267 . S
O135 Zn121 1.965 . S
O135 C139 1.260 . S
O136 Zn120 1.969 . S
O136 C139 1.258 . S
O137 Zn121 2.024 . S
O137 C124 1.058 . S
C138 O127 1.260 . S
C138 O128 1.258 . S
C139 O135 1.260 . S
C139 O136 1.258 . S
Zn140 O146 1.969 . S
Zn140 O147 1.965 . S
Zn140 O151 2.024 . S
Zn140 O156 1.969 . S
Zn141 O148 1.969 . S
Zn141 O154 1.969 . S
Zn141 O155 1.965 . S
Zn141 O157 2.024 . S
C142 O143 1.229 . S
C142 O151 1.058 . S
O143 C142 1.229 . S
C144 O145 1.229 . S
C144 O157 1.058 . S
O145 C144 1.229 . S
O146 Zn140 1.969 . S
O146 C149 1.267 . S
O147 Zn140 1.965 . S
O147 C158 1.260 . S
O148 Zn141 1.969 . S
O148 C158 1.258 . S
C149 O146 1.267 . S
C149 O150 1.228 . S
O150 C149 1.228 . S
O151 Zn140 2.024 . S
O151 C142 1.058 . S
C152 O153 1.228 . S
C152 O154 1.267 . S
O153 C152 1.228 . S
O154 Zn141 1.969 . S
O154 C152 1.267 . S
O155 Zn141 1.965 . S
O155 C159 1.260 . S
O156 Zn140 1.969 . S
O156 C159 1.258 . S
O157 Zn141 2.024 . S
O157 C144 1.058 . S
C158 O147 1.260 . S
C158 O148 1.258 . S
C159 O155 1.260 . S
C159 O156 1.258 . S
H160 C168 0.929 . S
H161 C170 0.930 . S
H162 C172 0.930 . S
H163 C175 0.929 . S
H164 C178 0.930 . S
H165 C180 0.960 . S
H166 C180 0.960 . S
H167 C180 0.960 . S
C168 H160 0.929 . S
C168 C169 1.377 . S
C168 C170 1.384 . S
C169 C168 1.377 . S
C169 C175 1.390 1_556 S
C170 H161 0.930 . S
C170 C168 1.384 . S
C170 C171 1.375 . S
C171 C170 1.375 . S
C171 C172 1.397 1_556 S
C171 C176 1.491 . S
C172 H162 0.930 . S
C172 C171 1.397 1_554 S
C172 C175 1.386 . S
H173 C189 0.928 1_554 S
H174 C190 0.931 . S
C175 H163 0.929 . S
C175 C169 1.390 1_554 S
C175 C172 1.386 . S
C176 C171 1.491 . S
C176 C178 1.395 . S
C176 C179 1.403 1_556 S
H177 C183 0.930 . S
C178 H164 0.930 . S
C178 C176 1.395 . S
C178 C181 1.403 . S
C179 C176 1.403 1_554 S
C179 C180 1.524 . S
C179 C183 1.400 . S
C180 H165 0.960 . S
C180 H166 0.960 . S
C180 H167 0.960 . S
C180 C179 1.524 . S
C181 C178 1.403 . S
C181 C182 1.392 . S
C181 C185 1.495 . S
C182 C181 1.392 . S
C182 C183 1.385 1_556 S
C182 C184 1.478 . S
C183 H177 0.930 . S
C183 C179 1.400 . S
C183 C182 1.385 1_554 S
C184 C182 1.478 . S
C184 C186 1.381 . S
C184 C190 1.383 . S
C185 C181 1.495 . S
C185 H191 0.959 . S
C185 H192 0.961 . S
C185 H193 0.960 . S
C186 C184 1.381 . S
C186 C187 1.394 . S
C186 H194 0.930 . S
C187 C186 1.394 . S
C187 C188 1.385 . S
C187 H195 0.929 . S
C188 C187 1.385 . S
C188 C189 1.377 . S
C189 H173 0.928 1_556 S
C189 C188 1.377 . S
C189 C190 1.381 . S
C190 H174 0.931 . S
C190 C184 1.383 . S
C190 C189 1.381 . S
H191 C185 0.959 . S
H192 C185 0.961 . S
H193 C185 0.960 . S
H194 C186 0.930 . S
H195 C187 0.929 . S
H196 C204 0.929 . S
H197 C206 0.930 . S
H198 C208 0.930 . S
H199 C211 0.929 . S
H200 C214 0.930 . S
H201 C216 0.960 . S
H202 C216 0.960 . S
H203 C216 0.960 . S
C204 H196 0.929 . S
C204 C205 1.377 1_556 S
C204 C206 1.384 . S
C205 C204 1.377 1_554 S
C205 C211 1.390 . S
C206 H197 0.930 . S
C206 C204 1.384 . S
C206 C207 1.393 . S
C207 C206 1.393 . S
C207 C208 1.378 1_556 S
C207 C212 1.491 . S
C208 H198 0.930 . S
C208 C207 1.378 1_554 S
C208 C211 1.386 . S
H209 C225 0.930 . S
H210 C226 0.931 . S
C211 H199 0.929 . S
C211 C205 1.390 . S
C211 C208 1.386 . S
C212 C207 1.491 . S
C212 C214 1.395 . S
C212 C215 1.403 1_556 S
H213 C219 0.930 . S
C214 H200 0.930 . S
C214 C212 1.395 . S
C214 C217 1.403 . S
C215 C212 1.403 1_554 S
C215 C216 1.524 . S
C215 C219 1.400 . S
C216 H201 0.960 . S
C216 H202 0.960 . S
C216 H203 0.960 . S
C216 C215 1.524 . S
C217 C214 1.403 . S
C217 C218 1.392 . S
C217 C221 1.495 . S
C218 C217 1.392 . S
C218 C219 1.385 1_556 S
C218 C220 1.478 . S
C219 H213 0.930 . S
C219 C215 1.400 . S
C219 C218 1.385 1_554 S
C220 C218 1.478 . S
C220 C222 1.381 . S
C220 C226 1.383 1_556 S
C221 C217 1.495 . S
C221 H227 0.959 . S
C221 H228 0.961 . S
C221 H229 0.960 . S
C222 C220 1.381 . S
C222 C223 1.394 . S
C222 H230 0.930 . S
C223 C222 1.394 . S
C223 C224 1.383 . S
C223 H231 0.929 . S
C224 C223 1.383 . S
C224 C225 1.377 1_556 S
C225 H209 0.930 . S
C225 C224 1.377 1_554 S
C225 C226 1.379 . S
C226 H210 0.931 . S
C226 C220 1.383 1_554 S
C226 C225 1.379 . S
H227 C221 0.959 . S
H228 C221 0.961 . S
H229 C221 0.960 . S
H230 C222 0.930 . S
H231 C223 0.929 . S
H232 C240 0.929 . S
H233 C242 0.930 . S
H234 C244 0.930 . S
H235 C247 0.929 . S
H236 C250 0.930 . S
H237 C252 0.960 . S
H238 C252 0.960 . S
H239 C252 0.960 . S
C240 H232 0.929 . S
C240 C241 1.377 . S
C240 C242 1.384 . S
C241 C240 1.377 . S
C241 C247 1.390 . S
C242 H233 0.930 . S
C242 C240 1.384 . S
C242 C243 1.372 . S
C243 C242 1.372 . S
C243 C244 1.400 . S
C243 C248 1.490 . S
C244 H234 0.930 . S
C244 C243 1.400 . S
C244 C247 1.386 . S
H245 C261 0.930 . S
H246 C262 0.931 . S
C247 H235 0.929 . S
C247 C241 1.390 . S
C247 C244 1.386 . S
C248 C243 1.490 . S
C248 C250 1.395 . S
C248 C251 1.403 . S
H249 C255 0.930 . S
C250 H236 0.930 . S
C250 C248 1.395 . S
C250 C253 1.403 . S
C251 C248 1.403 . S
C251 C252 1.524 . S
C251 C255 1.400 . S
C252 H237 0.960 . S
C252 H238 0.960 . S
C252 H239 0.960 . S
C252 C251 1.524 . S
C253 C250 1.403 . S
C253 C254 1.392 . S
C253 C257 1.495 . S
C254 C253 1.392 . S
C254 C255 1.385 . S
C254 C256 1.478 . S
C255 H249 0.930 . S
C255 C251 1.400 . S
C255 C254 1.385 . S
C256 C254 1.478 . S
C256 C258 1.381 . S
C256 C262 1.383 . S
C257 C253 1.495 . S
C257 H263 0.959 . S
C257 H264 0.961 . S
C257 H265 0.960 . S
C258 C256 1.381 . S
C258 C259 1.394 . S
C258 H266 0.930 . S
C259 C258 1.394 . S
C259 C260 1.383 . S
C259 H267 0.929 . S
C260 C259 1.383 . S
C260 C261 1.377 . S
C261 H245 0.930 . S
C261 C260 1.377 . S
C261 C262 1.379 . S
C262 H246 0.931 . S
C262 C256 1.383 . S
C262 C261 1.379 . S
H263 C257 0.959 . S
H264 C257 0.961 . S
H265 C257 0.960 . S
H266 C258 0.930 . S
H267 C259 0.929 . S
H268 C276 0.929 . S
H269 C278 0.930 . S
H270 C280 0.930 . S
H271 C283 0.929 . S
H272 C286 0.930 . S
H273 C288 0.960 . S
H274 C288 0.960 . S
H275 C288 0.960 . S
C276 H268 0.929 . S
C276 C277 1.377 . S
C276 C278 1.384 . S
C277 C276 1.377 . S
C277 C283 1.390 . S
C278 H269 0.930 . S
C278 C276 1.384 . S
C278 C279 1.372 . S
C279 C278 1.372 . S
C279 C280 1.400 . S
C279 C284 1.490 . S
C280 H270 0.930 . S
C280 C279 1.400 . S
C280 C283 1.386 . S
H281 C297 0.930 . S
H282 C298 0.931 . S
C283 H271 0.929 . S
C283 C277 1.390 . S
C283 C280 1.386 . S
C284 C279 1.490 . S
C284 C286 1.395 . S
C284 C287 1.403 . S
H285 C291 0.930 . S
C286 H272 0.930 . S
C286 C284 1.395 . S
C286 C289 1.403 . S
C287 C284 1.403 . S
C287 C288 1.524 . S
C287 C291 1.400 . S
C288 H273 0.960 . S
C288 H274 0.960 . S
C288 H275 0.960 . S
C288 C287 1.524 . S
C289 C286 1.403 . S
C289 C290 1.392 . S
C289 C293 1.495 . S
C290 C289 1.392 . S
C290 C291 1.385 . S
C290 C292 1.478 . S
C291 H285 0.930 . S
C291 C287 1.400 . S
C291 C290 1.385 . S
C292 C290 1.478 . S
C292 C294 1.381 . S
C292 C298 1.383 . S
C293 C289 1.495 . S
C293 H299 0.959 . S
C293 H300 0.961 . S
C293 H301 0.960 . S
C294 C292 1.381 . S
C294 C295 1.394 . S
C294 H302 0.930 . S
C295 C294 1.394 . S
C295 C296 1.383 . S
C295 H303 0.929 . S
C296 C295 1.383 . S
C296 C297 1.377 . S
C297 H281 0.930 . S
C297 C296 1.377 . S
C297 C298 1.379 . S
C298 H282 0.931 . S
C298 C292 1.383 . S
C298 C297 1.379 . S
H299 C293 0.959 . S
H300 C293 0.961 . S
H301 C293 0.960 . S
H302 C294 0.930 . S
H303 C295 0.929 . S
H304 C312 0.929 . S
H305 C314 0.930 . S
H306 C316 0.930 . S
H307 C319 0.929 . S
H308 C322 0.930 . S
H309 C324 0.960 1_455 S
H310 C324 0.960 1_554 S
H311 C324 0.960 . S
C312 H304 0.929 . S
C312 C313 1.377 1_554 S
C312 C314 1.384 . S
C313 C312 1.377 1_556 S
C313 C319 1.390 . S
C314 H305 0.930 . S
C314 C312 1.384 . S
C314 C315 1.372 . S
C315 C314 1.372 . S
C315 C316 1.400 1_554 S
C315 C320 1.510 . S
C316 H306 0.930 . S
C316 C315 1.400 1_556 S
C316 C319 1.386 . S
H317 C333 0.930 . S
H318 C334 0.931 . S
C319 H307 0.929 . S
C319 C313 1.390 . S
C319 C316 1.386 . S
C320 C315 1.510 . S
C320 C322 1.385 1_655 S
C320 C323 1.393 1_654 S
H321 C327 0.930 . S
C322 H308 0.930 . S
C322 C320 1.385 1_455 S
C322 C325 1.403 . S
C323 C320 1.393 1_456 S
C323 C324 1.524 1_455 S
C323 C327 1.400 . S
C324 H309 0.960 1_655 S
C324 H310 0.960 1_556 S
C324 H311 0.960 . S
C324 C323 1.524 1_655 S
C325 C322 1.403 . S
C325 C326 1.392 . S
C325 C329 1.495 . S
C326 C325 1.392 . S
C326 C327 1.385 1_554 S
C326 C328 1.478 . S
C327 H321 0.930 . S
C327 C323 1.400 . S
C327 C326 1.385 1_556 S
C328 C326 1.478 . S
C328 C330 1.381 . S
C328 C334 1.383 1_554 S
C329 C325 1.495 . S
C329 H335 0.959 . S
C329 H336 0.961 1_554 S
C329 H337 0.960 . S
C330 C328 1.381 . S
C330 C331 1.394 . S
C330 H338 0.930 . S
C331 C330 1.394 . S
C331 C332 1.383 . S
C331 H339 0.929 . S
C332 C331 1.383 . S
C332 C333 1.377 1_554 S
C333 H317 0.930 . S
C333 C332 1.377 1_556 S
C333 C334 1.379 . S
C334 H318 0.931 . S
C334 C328 1.383 1_556 S
C334 C333 1.379 . S
H335 C329 0.959 . S
H336 C329 0.961 1_556 S
H337 C329 0.960 . S
H338 C330 0.930 . S
H339 C331 0.929 . S
H340 C348 0.929 . S
H341 C350 0.930 . S
H342 C352 0.930 . S
H343 C355 0.929 . S
H344 C358 0.932 . S
H345 C360 0.960 1_655 S
H346 C360 0.960 . S
H347 C360 0.960 1_556 S
C348 H340 0.929 . S
C348 C349 1.377 1_554 S
C348 C350 1.384 . S
C349 C348 1.377 1_556 S
C349 C355 1.390 . S
C350 H341 0.930 . S
C350 C348 1.384 . S
C350 C351 1.372 . S
C351 C350 1.372 . S
C351 C352 1.400 1_554 S
C351 C356 1.508 . S
C352 H342 0.930 . S
C352 C351 1.400 1_556 S
C352 C355 1.386 . S
H353 C369 0.930 . S
H354 C370 0.931 . S
C355 H343 0.929 . S
C355 C349 1.390 . S
C355 C352 1.386 . S
C356 C351 1.508 . S
C356 C358 1.383 1_454 S
C356 C359 1.394 1_455 S
H357 C363 0.930 . S
C358 H344 0.932 . S
C358 C356 1.383 1_656 S
C358 C361 1.404 . S
C359 C356 1.394 1_655 S
C359 C360 1.524 1_655 S
C359 C363 1.400 . S
C360 H345 0.960 1_455 S
C360 H346 0.960 . S
C360 H347 0.960 1_554 S
C360 C359 1.524 1_455 S
C361 C358 1.404 . S
C361 C362 1.392 1_556 S
C361 C365 1.495 . S
C362 C361 1.392 1_554 S
C362 C363 1.385 . S
C362 C364 1.478 . S
C363 H357 0.930 . S
C363 C359 1.400 . S
C363 C362 1.385 . S
C364 C362 1.478 . S
C364 C366 1.392 . S
C364 C370 1.372 1_554 S
C365 C361 1.495 . S
C365 H371 0.959 . S
C365 H372 0.961 . S
C365 H373 0.960 1_556 S
C366 C364 1.392 . S
C366 C367 1.394 . S
C366 H374 0.930 . S
C367 C366 1.394 . S
C367 C368 1.383 . S
C367 H375 0.929 . S
C368 C367 1.383 . S
C368 C369 1.377 1_554 S
C369 H353 0.930 . S
C369 C368 1.377 1_556 S
C369 C370 1.379 . S
C370 H354 0.931 . S
C370 C364 1.372 1_556 S
C370 C369 1.379 . S
H371 C365 0.959 . S
H372 C365 0.961 . S
H373 C365 0.960 1_554 S
H374 C366 0.930 . S
H375 C367 0.929 . S
H376 C384 0.929 . S
H377 C386 0.930 . S
H378 C388 0.930 . S
H379 C391 0.929 . S
H380 C394 0.930 . S
H381 C396 0.960 . S
H382 C396 0.960 . S
H383 C396 0.960 . S
C384 H376 0.929 . S
C384 C385 1.377 . S
C384 C386 1.384 . S
C385 C384 1.377 . S
C385 C391 1.390 . S
C386 H377 0.930 . S
C386 C384 1.384 . S
C386 C387 1.372 . S
C387 C386 1.372 . S
C387 C388 1.400 . S
C387 C392 1.490 . S
C388 H378 0.930 . S
C388 C387 1.400 . S
C388 C391 1.386 . S
H389 C405 0.930 . S
H390 C406 0.931 . S
C391 H379 0.929 . S
C391 C385 1.390 . S
C391 C388 1.386 . S
C392 C387 1.490 . S
C392 C394 1.395 . S
C392 C395 1.403 . S
H393 C399 0.930 . S
C394 H380 0.930 . S
C394 C392 1.395 . S
C394 C397 1.403 . S
C395 C392 1.403 . S
C395 C396 1.524 . S
C395 C399 1.400 . S
C396 H381 0.960 . S
C396 H382 0.960 . S
C396 H383 0.960 . S
C396 C395 1.524 . S
C397 C394 1.403 . S
C397 C398 1.392 1_455 S
C397 C401 1.495 . S
C398 C397 1.392 1_655 S
C398 C399 1.385 1_655 S
C398 C400 1.478 . S
C399 H393 0.930 . S
C399 C395 1.400 . S
C399 C398 1.385 1_455 S
C400 C398 1.478 . S
C400 C402 1.381 . S
C400 C406 1.383 . S
C401 C397 1.495 . S
C401 H407 0.959 . S
C401 H408 0.961 1_455 S
C401 H409 0.960 1_455 S
C402 C400 1.381 . S
C402 C403 1.394 . S
C402 H410 0.930 . S
C403 C402 1.394 . S
C403 C404 1.383 . S
C403 H411 0.929 . S
C404 C403 1.383 . S
C404 C405 1.377 . S
C405 H389 0.930 . S
C405 C404 1.377 . S
C405 C406 1.379 . S
C406 H390 0.931 . S
C406 C400 1.383 . S
C406 C405 1.379 . S
H407 C401 0.959 . S
H408 C401 0.961 1_655 S
H409 C401 0.960 1_655 S
H410 C402 0.930 . S
H411 C403 0.929 . S
H412 C420 0.929 . S
H413 C422 0.930 . S
H414 C424 0.930 . S
H415 C427 0.929 . S
H416 C430 0.930 . S
H417 C432 0.960 . S
H418 C432 0.960 . S
H419 C432 0.960 . S
C420 H412 0.929 . S
C420 C421 1.377 . S
C420 C422 1.384 . S
C421 C420 1.377 . S
C421 C427 1.390 . S
C422 H413 0.930 . S
C422 C420 1.384 . S
C422 C423 1.372 . S
C423 C422 1.372 . S
C423 C424 1.400 . S
C423 C428 1.490 . S
C424 H414 0.930 . S
C424 C423 1.400 . S
C424 C427 1.386 . S
H425 C441 0.930 . S
H426 C442 0.931 . S
C427 H415 0.929 . S
C427 C421 1.390 . S
C427 C424 1.386 . S
C428 C423 1.490 . S
C428 C430 1.395 . S
C428 C431 1.403 . S
H429 C435 0.930 1_455 S
C430 H416 0.930 . S
C430 C428 1.395 . S
C430 C433 1.403 . S
C431 C428 1.403 . S
C431 C432 1.524 . S
C431 C435 1.400 . S
C432 H417 0.960 . S
C432 H418 0.960 . S
C432 H419 0.960 . S
C432 C431 1.524 . S
C433 C430 1.403 . S
C433 C434 1.392 1_655 S
C433 C437 1.495 . S
C434 C433 1.392 1_455 S
C434 C435 1.385 1_455 S
C434 C436 1.478 . S
C435 H429 0.930 1_655 S
C435 C431 1.400 . S
C435 C434 1.385 1_655 S
C436 C434 1.478 . S
C436 C438 1.381 . S
C436 C442 1.383 . S
C437 C433 1.495 . S
C437 H443 0.959 . S
C437 H444 0.961 1_655 S
C437 H445 0.960 1_655 S
C438 C436 1.381 . S
C438 C439 1.394 . S
C438 H446 0.930 . S
C439 C438 1.394 . S
C439 C440 1.383 . S
C439 H447 0.929 . S
C440 C439 1.383 . S
C440 C441 1.377 . S
C441 H425 0.930 . S
C441 C440 1.377 . S
C441 C442 1.379 . S
C442 H426 0.931 . S
C442 C436 1.383 . S
C442 C441 1.379 . S
H443 C437 0.959 . S
H444 C437 0.961 1_455 S
H445 C437 0.960 1_455 S
H446 C438 0.930 . S
H447 C439 0.929 . S
H448 C456 0.929 . S
H449 C458 0.928 1_655 S
H450 C460 0.930 . S
H451 C463 0.929 . S
H452 C466 0.930 . S
H453 C468 0.960 . S
H454 C468 0.960 . S
H455 C468 0.960 . S
C456 H448 0.929 . S
C456 C457 1.377 1_554 S
C456 C458 1.385 . S
C457 C456 1.377 1_556 S
C457 C463 1.390 . S
C458 H449 0.928 1_455 S
C458 C456 1.385 . S
C458 C459 1.373 1_554 S
C459 C458 1.373 1_556 S
C459 C460 1.400 . S
C459 C464 1.490 . S
C460 H450 0.930 . S
C460 C459 1.400 . S
C460 C463 1.386 . S
H461 C477 0.930 . S
H462 C478 0.931 . S
C463 H451 0.929 . S
C463 C457 1.390 . S
C463 C460 1.386 . S
C464 C459 1.490 . S
C464 C466 1.395 1_456 S
C464 C467 1.403 . S
H465 C471 0.930 . S
C466 H452 0.930 . S
C466 C464 1.395 1_654 S
C466 C469 1.403 . S
C467 C464 1.403 . S
C467 C468 1.524 . S
C467 C471 1.400 . S
C468 H453 0.960 . S
C468 H454 0.960 . S
C468 H455 0.960 . S
C468 C467 1.524 . S
C469 C466 1.403 . S
C469 C470 1.392 1_554 S
C469 C473 1.495 . S
C470 C469 1.392 1_556 S
C470 C471 1.385 1_655 S
C470 C472 1.478 . S
C471 H465 0.930 . S
C471 C467 1.400 . S
C471 C470 1.385 1_455 S
C472 C470 1.478 . S
C472 C474 1.381 1_556 S
C472 C478 1.383 . S
C473 C469 1.495 . S
C473 H479 0.959 . S
C473 H480 0.961 1_554 S
C473 H481 0.960 . S
C474 C472 1.381 1_554 S
C474 C475 1.394 . S
C474 H482 0.930 . S
C475 C474 1.394 . S
C475 C476 1.383 1_554 S
C475 H483 0.929 . S
C476 C475 1.383 1_556 S
C476 C477 1.377 . S
C477 H461 0.930 . S
C477 C476 1.377 . S
C477 C478 1.379 . S
C478 H462 0.931 . S
C478 C472 1.383 . S
C478 C477 1.379 . S
H479 C473 0.959 . S
H480 C473 0.961 1_556 S
H481 C473 0.960 . S
H482 C474 0.930 . S
H483 C475 0.929 . S
H484 C492 0.929 . S
H485 C494 0.930 . S
H486 C496 0.930 . S
H487 C499 0.929 . S
H488 C502 0.930 . S
H489 C504 0.960 . S
H490 C504 0.960 . S
H491 C504 0.960 . S
C492 H484 0.929 . S
C492 C493 1.377 . S
C492 C494 1.384 . S
C493 C492 1.377 . S
C493 C499 1.390 1_455 S
C494 H485 0.930 . S
C494 C492 1.384 . S
C494 C495 1.372 . S
C495 C494 1.372 . S
C495 C496 1.400 1_455 S
C495 C500 1.490 . S
C496 H486 0.930 . S
C496 C495 1.400 1_655 S
C496 C499 1.386 . S
H497 C513 0.930 . S
H498 C514 0.931 . S
C499 H487 0.929 . S
C499 C493 1.390 1_655 S
C499 C496 1.386 . S
C500 C495 1.490 . S
C500 C502 1.395 . S
C500 C503 1.403 1_455 S
H501 C507 0.930 . S
C502 H488 0.930 . S
C502 C500 1.395 . S
C502 C505 1.403 . S
C503 C500 1.403 1_655 S
C503 C504 1.524 . S
C503 C507 1.400 . S
C504 H489 0.960 . S
C504 H490 0.960 . S
C504 H491 0.960 . S
C504 C503 1.524 . S
C505 C502 1.403 . S
C505 C506 1.392 . S
C505 C509 1.495 . S
C506 C505 1.392 . S
C506 C507 1.385 1_455 S
C506 C508 1.479 . S
C507 H501 0.930 . S
C507 C503 1.400 . S
C507 C506 1.385 1_655 S
C508 C506 1.479 . S
C508 C510 1.391 . S
C508 C514 1.371 1_455 S
C509 C505 1.495 . S
C509 H515 0.959 . S
C509 H516 0.961 . S
C509 H517 0.960 . S
C510 C508 1.391 . S
C510 C511 1.394 . S
C510 H518 0.930 . S
C511 C510 1.394 . S
C511 C512 1.383 1_455 S
C511 H519 0.929 . S
C512 C511 1.383 1_655 S
C512 C513 1.377 . S
C513 H497 0.930 . S
C513 C512 1.377 . S
C513 C514 1.379 . S
C514 H498 0.931 . S
C514 C508 1.371 1_655 S
C514 C513 1.379 . S
H515 C509 0.959 . S
H516 C509 0.961 . S
H517 C509 0.960 . S
H518 C510 0.930 . S
H519 C511 0.929 . S
H520 C528 0.929 . S
H521 C530 0.930 . S
H522 C532 0.930 . S
H523 C535 0.929 . S
H524 C538 0.930 . S
H525 C540 0.960 . S
H526 C540 0.960 . S
H527 C540 0.960 . S
C528 H520 0.929 . S
C528 C529 1.377 1_554 S
C528 C530 1.384 . S
C529 C528 1.377 1_556 S
C529 C535 1.390 . S
C530 H521 0.930 . S
C530 C528 1.384 . S
C530 C531 1.372 1_554 S
C531 C530 1.372 1_556 S
C531 C532 1.400 . S
C531 C536 1.490 . S
C532 H522 0.930 . S
C532 C531 1.400 . S
C532 C535 1.386 . S
H533 C549 0.930 . S
H534 C550 0.931 . S
C535 H523 0.929 . S
C535 C529 1.390 . S
C535 C532 1.386 . S
C536 C531 1.490 . S
C536 C538 1.395 1_556 S
C536 C539 1.403 . S
H537 C543 0.930 . S
C538 H524 0.930 . S
C538 C536 1.395 1_554 S
C538 C541 1.403 1_565 S
C539 C536 1.403 . S
C539 C540 1.524 . S
C539 C543 1.400 1_565 S
C540 H525 0.960 . S
C540 H526 0.960 . S
C540 H527 0.960 . S
C540 C539 1.524 . S
C541 C538 1.403 1_545 S
C541 C542 1.392 1_554 S
C541 C545 1.495 . S
C542 C541 1.392 1_556 S
C542 C543 1.385 . S
C542 C544 1.478 . S
C543 H537 0.930 . S
C543 C539 1.400 1_545 S
C543 C542 1.385 . S
C544 C542 1.478 . S
C544 C546 1.381 1_556 S
C544 C550 1.383 . S
C545 C541 1.495 . S
C545 H551 0.959 . S
C545 H552 0.961 . S
C545 H553 0.960 . S
C546 C544 1.381 1_554 S
C546 C547 1.394 . S
C546 H554 0.930 . S
C547 C546 1.394 . S
C547 C548 1.383 1_554 S
C547 H555 0.929 . S
C548 C547 1.383 1_556 S
C548 C549 1.377 . S
C549 H533 0.930 . S
C549 C548 1.377 . S
C549 C550 1.379 . S
C550 H534 0.931 . S
C550 C544 1.383 . S
C550 C549 1.379 . S
H551 C545 0.959 . S
H552 C545 0.961 . S
H553 C545 0.960 . S
H554 C546 0.930 . S
H555 C547 0.929 . S
H556 C564 0.929 . S
H557 C566 0.930 . S
H558 C568 0.930 . S
H559 C571 0.929 . S
H560 C574 0.930 . S
H561 C576 0.960 . S
H562 C576 0.960 . S
H563 C576 0.960 . S
C564 H556 0.929 . S
C564 C565 1.377 . S
C564 C566 1.384 . S
C565 C564 1.377 . S
C565 C571 1.390 . S
C566 H557 0.930 . S
C566 C564 1.384 . S
C566 C567 1.372 . S
C567 C566 1.372 . S
C567 C568 1.400 . S
C567 C572 1.490 . S
C568 H558 0.930 . S
C568 C567 1.400 . S
C568 C571 1.386 . S
H569 C585 0.930 . S
H570 C586 0.931 . S
C571 H559 0.929 . S
C571 C565 1.390 . S
C571 C568 1.386 . S
C572 C567 1.490 . S
C572 C574 1.395 . S
C572 C575 1.403 . S
H573 C579 0.930 . S
C574 H560 0.930 . S
C574 C572 1.395 . S
C574 C577 1.403 1_545 S
C575 C572 1.403 . S
C575 C576 1.524 . S
C575 C579 1.400 1_545 S
C576 H561 0.960 . S
C576 H562 0.960 . S
C576 H563 0.960 . S
C576 C575 1.524 . S
C577 C574 1.403 1_565 S
C577 C578 1.392 . S
C577 C581 1.495 . S
C578 C577 1.392 . S
C578 C579 1.385 . S
C578 C580 1.478 . S
C579 H573 0.930 . S
C579 C575 1.400 1_565 S
C579 C578 1.385 . S
C580 C578 1.478 . S
C580 C582 1.381 . S
C580 C586 1.383 . S
C581 C577 1.495 . S
C581 H587 0.959 . S
C581 H588 0.961 . S
C581 H589 0.960 . S
C582 C580 1.381 . S
C582 C583 1.394 . S
C582 H590 0.930 . S
C583 C582 1.394 . S
C583 C584 1.383 . S
C583 H591 0.929 . S
C584 C583 1.383 . S
C584 C585 1.377 . S
C585 H569 0.930 . S
C585 C584 1.377 . S
C585 C586 1.379 . S
C586 H570 0.931 . S
C586 C580 1.383 . S
C586 C585 1.379 . S
H587 C581 0.959 . S
H588 C581 0.961 . S
H589 C581 0.960 . S
H590 C582 0.930 . S
H591 C583 0.929 . S
H592 C600 0.929 . S
H593 C602 0.930 . S
H594 C604 0.930 . S
H595 C607 0.929 . S
H596 C610 0.930 . S
H597 C612 0.960 . S
H598 C612 0.960 . S
H599 C612 0.960 . S
C600 H592 0.929 . S
C600 C601 1.377 . S
C600 C602 1.384 . S
C601 C600 1.377 . S
C601 C607 1.390 1_554 S
C602 H593 0.930 . S
C602 C600 1.384 . S
C602 C603 1.372 . S
C603 C602 1.372 . S
C603 C604 1.400 1_554 S
C603 C608 1.490 . S
C604 H594 0.930 . S
C604 C603 1.400 1_556 S
C604 C607 1.386 . S
H605 C621 0.930 . S
H606 C622 0.931 . S
C607 H595 0.929 . S
C607 C601 1.390 1_556 S
C607 C604 1.386 . S
C608 C603 1.490 . S
C608 C610 1.395 . S
C608 C611 1.403 . S
H609 C615 0.930 . S
C610 H596 0.930 . S
C610 C608 1.395 . S
C610 C613 1.403 . S
C611 C608 1.403 . S
C611 C612 1.524 . S
C611 C615 1.400 . S
C612 H597 0.960 . S
C612 H598 0.960 . S
C612 H599 0.960 . S
C612 C611 1.524 . S
C613 C610 1.403 . S
C613 C614 1.392 . S
C613 C617 1.495 . S
C614 C613 1.392 . S
C614 C615 1.385 . S
C614 C616 1.478 . S
C615 H609 0.930 . S
C615 C611 1.400 . S
C615 C614 1.385 . S
C616 C614 1.478 . S
C616 C618 1.381 . S
C616 C622 1.383 1_554 S
C617 C613 1.495 . S
C617 H623 0.959 1_554 S
C617 H624 0.961 1_554 S
C617 H625 0.960 . S
C618 C616 1.381 . S
C618 C619 1.394 . S
C618 H626 0.930 . S
C619 C618 1.394 . S
C619 C620 1.383 . S
C619 H627 0.929 . S
C620 C619 1.383 . S
C620 C621 1.377 1_554 S
C621 H605 0.930 . S
C621 C620 1.377 1_556 S
C621 C622 1.379 . S
C622 H606 0.931 . S
C622 C616 1.383 1_556 S
C622 C621 1.379 . S
H623 C617 0.959 1_556 S
H624 C617 0.961 1_556 S
H625 C617 0.960 . S
H626 C618 0.930 . S
H627 C619 0.929 . S
H628 C636 0.929 . S
H629 C638 0.930 . S
H630 C640 0.930 . S
H631 C643 0.929 . S
H632 C646 0.930 . S
H633 C648 0.960 . S
H634 C648 0.960 . S
H635 C648 0.960 . S
C636 H628 0.929 . S
C636 C637 1.377 . S
C636 C638 1.384 . S
C637 C636 1.377 . S
C637 C643 1.390 1_554 S
C638 H629 0.930 . S
C638 C636 1.384 . S
C638 C639 1.372 . S
C639 C638 1.372 . S
C639 C640 1.400 1_554 S
C639 C644 1.490 . S
C640 H630 0.930 . S
C640 C639 1.400 1_556 S
C640 C643 1.386 . S
H641 C657 0.930 . S
H642 C658 0.931 . S
C643 H631 0.929 . S
C643 C637 1.390 1_556 S
C643 C640 1.386 . S
C644 C639 1.490 . S
C644 C646 1.395 . S
C644 C647 1.403 1_554 S
H645 C651 0.930 . S
C646 H632 0.930 . S
C646 C644 1.395 . S
C646 C649 1.403 . S
C647 C644 1.403 1_556 S
C647 C648 1.524 . S
C647 C651 1.400 . S
C648 H633 0.960 . S
C648 H634 0.960 . S
C648 H635 0.960 . S
C648 C647 1.524 . S
C649 C646 1.403 . S
C649 C650 1.392 . S
C649 C653 1.495 . S
C650 C649 1.392 . S
C650 C651 1.385 1_554 S
C650 C652 1.478 . S
C651 H645 0.930 . S
C651 C647 1.400 . S
C651 C650 1.385 1_556 S
C652 C650 1.478 . S
C652 C654 1.381 . S
C652 C658 1.383 1_554 S
C653 C649 1.495 . S
C653 H659 0.959 . S
C653 H660 0.961 . S
C653 H661 0.960 . S
C654 C652 1.381 . S
C654 C655 1.394 . S
C654 H662 0.930 . S
C655 C654 1.394 . S
C655 C656 1.383 . S
C655 H663 0.929 . S
C656 C655 1.383 . S
C656 C657 1.377 1_554 S
C657 H641 0.930 . S
C657 C656 1.377 1_556 S
C657 C658 1.379 . S
C658 H642 0.931 . S
C658 C652 1.383 1_556 S
C658 C657 1.379 . S
H659 C653 0.959 . S
H660 C653 0.961 . S
H661 C653 0.960 . S
H662 C654 0.930 . S
H663 C655 0.929 . S
H664 C672 0.929 . S
H665 C674 0.930 . S
H666 C676 0.930 . S
H667 C679 0.929 . S
H668 C682 0.930 . S
H669 C684 0.960 . S
H670 C684 0.960 . S
H671 C684 0.960 . S
C672 H664 0.929 . S
C672 C673 1.377 . S
C672 C674 1.384 . S
C673 C672 1.377 . S
C673 C679 1.390 . S
C674 H665 0.930 . S
C674 C672 1.384 . S
C674 C675 1.372 . S
C675 C674 1.372 . S
C675 C676 1.400 . S
C675 C680 1.490 . S
C676 H666 0.930 . S
C676 C675 1.400 . S
C676 C679 1.386 . S
H677 C693 0.930 . S
H678 C694 0.931 . S
C679 H667 0.929 . S
C679 C673 1.390 . S
C679 C676 1.386 . S
C680 C675 1.490 . S
C680 C682 1.395 . S
C680 C683 1.403 . S
H681 C687 0.930 . S
C682 H668 0.930 . S
C682 C680 1.395 . S
C682 C685 1.403 . S
C683 C680 1.403 . S
C683 C684 1.524 . S
C683 C687 1.400 . S
C684 H669 0.960 . S
C684 H670 0.960 . S
C684 H671 0.960 . S
C684 C683 1.524 . S
C685 C682 1.403 . S
C685 C686 1.392 . S
C685 C689 1.495 . S
C686 C685 1.392 . S
C686 C687 1.385 . S
C686 C688 1.478 . S
C687 H681 0.930 . S
C687 C683 1.400 . S
C687 C686 1.385 . S
C688 C686 1.478 . S
C688 C690 1.381 . S
C688 C694 1.383 . S
C689 C685 1.495 . S
C689 H695 0.959 . S
C689 H696 0.961 . S
C689 H697 0.960 . S
C690 C688 1.381 . S
C690 C691 1.394 . S
C690 H698 0.930 . S
C691 C690 1.394 . S
C691 C692 1.383 . S
C691 H699 0.929 . S
C692 C691 1.383 . S
C692 C693 1.377 . S
C693 H677 0.930 . S
C693 C692 1.377 . S
C693 C694 1.379 . S
C694 H678 0.931 . S
C694 C688 1.383 . S
C694 C693 1.379 . S
H695 C689 0.959 . S
H696 C689 0.961 . S
H697 C689 0.960 . S
H698 C690 0.930 . S
H699 C691 0.929 . S
H700 C708 0.929 . S
H701 C710 0.930 . S
H702 C712 0.930 . S
H703 C715 0.929 . S
H704 C718 0.930 . S
H705 C720 0.960 . S
H706 C720 0.960 . S
H707 C720 0.960 . S
C708 H700 0.929 . S
C708 C709 1.377 . S
C708 C710 1.384 . S
C709 C708 1.377 . S
C709 C715 1.390 . S
C710 H701 0.930 . S
C710 C708 1.384 . S
C710 C711 1.372 . S
C711 C710 1.372 . S
C711 C712 1.400 . S
C711 C716 1.490 . S
C712 H702 0.930 . S
C712 C711 1.400 . S
C712 C715 1.386 . S
H713 C729 0.930 . S
H714 C730 0.931 . S
C715 H703 0.929 . S
C715 C709 1.390 . S
C715 C712 1.386 . S
C716 C711 1.490 . S
C716 C718 1.395 . S
C716 C719 1.403 . S
H717 C723 0.930 . S
C718 H704 0.930 . S
C718 C716 1.395 . S
C718 C721 1.403 . S
C719 C716 1.403 . S
C719 C720 1.524 . S
C719 C723 1.400 . S
C720 H705 0.960 . S
C720 H706 0.960 . S
C720 H707 0.960 . S
C720 C719 1.524 . S
C721 C718 1.403 . S
C721 C722 1.392 . S
C721 C725 1.495 . S
C722 C721 1.392 . S
C722 C723 1.385 . S
C722 C724 1.478 . S
C723 H717 0.930 . S
C723 C719 1.400 . S
C723 C722 1.385 . S
C724 C722 1.478 . S
C724 C726 1.381 . S
C724 C730 1.383 . S
C725 C721 1.495 . S
C725 H731 0.959 . S
C725 H732 0.961 . S
C725 H733 0.960 . S
C726 C724 1.381 . S
C726 C727 1.394 . S
C726 H734 0.930 . S
C727 C726 1.394 . S
C727 C728 1.383 . S
C727 H735 0.929 . S
C728 C727 1.383 . S
C728 C729 1.377 . S
C729 H713 0.930 . S
C729 C728 1.377 . S
C729 C730 1.379 . S
C730 H714 0.931 . S
C730 C724 1.383 . S
C730 C729 1.379 . S
H731 C725 0.959 . S
H732 C725 0.961 . S
H733 C725 0.960 . S
H734 C726 0.930 . S
H735 C727 0.929 . S
H736 C744 0.929 . S
H737 C746 0.930 . S
H738 C748 0.930 . S
H739 C751 0.929 . S
H740 C754 0.930 . S
H741 C756 0.960 . S
H742 C756 0.960 . S
H743 C756 0.960 . S
C744 H736 0.929 . S
C744 C745 1.377 . S
C744 C746 1.384 . S
C745 C744 1.377 . S
C745 C751 1.390 . S
C746 H737 0.930 . S
C746 C744 1.384 . S
C746 C747 1.372 . S
C747 C746 1.372 . S
C747 C748 1.400 . S
C747 C752 1.490 . S
C748 H738 0.930 . S
C748 C747 1.400 . S
C748 C751 1.386 . S
H749 C765 0.930 . S
H750 C766 0.931 . S
C751 H739 0.929 . S
C751 C745 1.390 . S
C751 C748 1.386 . S
C752 C747 1.490 . S
C752 C754 1.395 1_455 S
C752 C755 1.403 . S
H753 C759 0.930 . S
C754 H740 0.930 . S
C754 C752 1.395 1_655 S
C754 C757 1.403 . S
C755 C752 1.403 . S
C755 C756 1.524 . S
C755 C759 1.400 . S
C756 H741 0.960 . S
C756 H742 0.960 . S
C756 H743 0.960 . S
C756 C755 1.524 . S
C757 C754 1.403 . S
C757 C758 1.392 . S
C757 C761 1.495 . S
C758 C757 1.392 . S
C758 C759 1.385 1_655 S
C758 C760 1.478 . S
C759 H753 0.930 . S
C759 C755 1.400 . S
C759 C758 1.385 1_455 S
C760 C758 1.478 . S
C760 C762 1.381 . S
C760 C766 1.383 . S
C761 C757 1.495 . S
C761 H767 0.959 . S
C761 H768 0.961 . S
C761 H769 0.960 . S
C762 C760 1.381 . S
C762 C763 1.394 . S
C762 H770 0.930 . S
C763 C762 1.394 . S
C763 C764 1.383 . S
C763 H771 0.929 . S
C764 C763 1.383 . S
C764 C765 1.377 . S
C765 H749 0.930 . S
C765 C764 1.377 . S
C765 C766 1.379 . S
C766 H750 0.931 . S
C766 C760 1.383 . S
C766 C765 1.379 . S
H767 C761 0.959 . S
H768 C761 0.961 . S
H769 C761 0.960 . S
H770 C762 0.930 . S
H771 C763 0.929 . S
H772 C780 0.929 1_455 S
H773 C782 0.930 . S
H774 C784 0.930 . S
H775 C787 0.929 . S
H776 C790 0.930 . S
H777 C792 0.960 . S
H778 C792 0.960 . S
H779 C792 0.960 . S
C780 H772 0.929 1_655 S
C780 C781 1.377 . S
C780 C782 1.384 1_655 S
C781 C780 1.377 . S
C781 C787 1.390 . S
C782 H773 0.930 . S
C782 C780 1.384 1_455 S
C782 C783 1.372 1_455 S
C783 C782 1.372 1_655 S
C783 C784 1.400 . S
C783 C788 1.490 . S
C784 H774 0.930 . S
C784 C783 1.400 . S
C784 C787 1.386 . S
H785 C801 0.930 1_655 S
H786 C802 0.931 1_655 S
C787 H775 0.929 . S
C787 C781 1.390 . S
C787 C784 1.386 . S
C788 C783 1.490 . S
C788 C790 1.395 1_655 S
C788 C791 1.403 . S
H789 C795 0.930 . S
C790 H776 0.930 . S
C790 C788 1.395 1_455 S
C790 C793 1.403 . S
C791 C788 1.403 . S
C791 C792 1.524 . S
C791 C795 1.400 . S
C792 H777 0.960 . S
C792 H778 0.960 . S
C792 H779 0.960 . S
C792 C791 1.524 . S
C793 C790 1.403 . S
C793 C794 1.392 . S
C793 C797 1.495 . S
C794 C793 1.392 . S
C794 C795 1.385 1_455 S
C794 C796 1.478 . S
C795 H789 0.930 . S
C795 C791 1.400 . S
C795 C794 1.385 1_655 S
C796 C794 1.478 . S
C796 C798 1.381 . S
C796 C802 1.383 . S
C797 C793 1.495 . S
C797 H803 0.959 . S
C797 H804 0.961 . S
C797 H805 0.960 . S
C798 C796 1.381 . S
C798 C799 1.394 . S
C798 H806 0.930 . S
C799 C798 1.394 . S
C799 C800 1.383 . S
C799 H807 0.929 . S
C800 C799 1.383 . S
C800 C801 1.377 . S
C801 H785 0.930 1_455 S
C801 C800 1.377 . S
C801 C802 1.379 . S
C802 H786 0.931 1_455 S
C802 C796 1.383 . S
C802 C801 1.379 . S
H803 C797 0.959 . S
H804 C797 0.961 . S
H805 C797 0.960 . S
H806 C798 0.930 . S
H807 C799 0.929 . S
H808 C816 0.929 1_455 S
H809 C818 0.930 . S
H810 C820 0.930 . S
H811 C823 0.929 . S
H812 C826 0.930 . S
H813 C828 0.960 . S
H814 C828 0.960 . S
H815 C828 0.960 . S
C816 H808 0.929 1_655 S
C816 C817 1.377 . S
C816 C818 1.384 1_655 S
C817 C816 1.377 . S
C817 C823 1.390 . S
C818 H809 0.930 . S
C818 C816 1.384 1_455 S
C818 C819 1.372 1_455 S
C819 C818 1.372 1_655 S
C819 C820 1.400 . S
C819 C824 1.490 . S
C820 H810 0.930 . S
C820 C819 1.400 . S
C820 C823 1.386 . S
H821 C837 0.930 1_655 S
H822 C838 0.931 1_655 S
C823 H811 0.929 . S
C823 C817 1.390 . S
C823 C820 1.386 . S
C824 C819 1.490 . S
C824 C826 1.395 1_655 S
C824 C827 1.403 . S
H825 C831 0.930 . S
C826 H812 0.930 . S
C826 C824 1.395 1_455 S
C826 C829 1.403 . S
C827 C824 1.403 . S
C827 C828 1.524 . S
C827 C831 1.400 . S
C828 H813 0.960 . S
C828 H814 0.960 . S
C828 H815 0.960 . S
C828 C827 1.524 . S
C829 C826 1.403 . S
C829 C830 1.392 . S
C829 C833 1.495 . S
C830 C829 1.392 . S
C830 C831 1.385 1_455 S
C830 C832 1.478 . S
C831 H825 0.930 . S
C831 C827 1.400 . S
C831 C830 1.385 1_655 S
C832 C830 1.478 . S
C832 C834 1.381 . S
C832 C838 1.383 . S
C833 C829 1.495 . S
C833 H839 0.959 . S
C833 H840 0.961 . S
C833 H841 0.960 . S
C834 C832 1.381 . S
C834 C835 1.394 . S
C834 H842 0.930 . S
C835 C834 1.394 . S
C835 C836 1.383 . S
C835 H843 0.929 . S
C836 C835 1.383 . S
C836 C837 1.377 . S
C837 H821 0.930 1_455 S
C837 C836 1.377 . S
C837 C838 1.379 . S
C838 H822 0.931 1_455 S
C838 C832 1.383 . S
C838 C837 1.379 . S
H839 C833 0.959 . S
H840 C833 0.961 . S
H841 C833 0.960 . S
H842 C834 0.930 . S
H843 C835 0.929 . S
H844 C852 0.929 . S
H845 C854 0.930 . S
H846 C856 0.930 . S
H847 C859 0.929 . S
H848 C862 0.930 . S
H849 C864 0.960 . S
H850 C864 0.960 . S
H851 C864 0.960 . S
C852 H844 0.929 . S
C852 C853 1.377 1_455 S
C852 C854 1.384 . S
C853 C852 1.377 1_655 S
C853 C859 1.390 . S
C854 H845 0.930 . S
C854 C852 1.384 . S
C854 C855 1.372 1_455 S
C855 C854 1.372 1_655 S
C855 C856 1.400 . S
C855 C860 1.490 . S
C856 H846 0.930 . S
C856 C855 1.400 . S
C856 C859 1.386 . S
H857 C873 0.930 . S
H858 C874 0.931 . S
C859 H847 0.929 . S
C859 C853 1.390 . S
C859 C856 1.386 . S
C860 C855 1.490 . S
C860 C862 1.395 1_655 S
C860 C863 1.403 . S
H861 C867 0.930 . S
C862 H848 0.930 . S
C862 C860 1.395 1_455 S
C862 C865 1.403 . S
C863 C860 1.403 . S
C863 C864 1.524 . S
C863 C867 1.400 . S
C864 H849 0.960 . S
C864 H850 0.960 . S
C864 H851 0.960 . S
C864 C863 1.524 . S
C865 C862 1.403 . S
C865 C866 1.392 . S
C865 C869 1.495 . S
C866 C865 1.392 . S
C866 C867 1.385 1_455 S
C866 C868 1.478 . S
C867 H861 0.930 . S
C867 C863 1.400 . S
C867 C866 1.385 1_655 S
C868 C866 1.478 . S
C868 C870 1.381 . S
C868 C874 1.383 1_455 S
C869 C865 1.495 . S
C869 H875 0.959 . S
C869 H876 0.961 . S
C869 H877 0.960 . S
C870 C868 1.381 . S
C870 C871 1.394 . S
C870 H878 0.930 . S
C871 C870 1.394 . S
C871 C872 1.383 . S
C871 H879 0.929 . S
C872 C871 1.383 . S
C872 C873 1.377 1_455 S
C873 H857 0.930 . S
C873 C872 1.377 1_655 S
C873 C874 1.379 . S
C874 H858 0.931 . S
C874 C868 1.383 1_655 S
C874 C873 1.379 . S
H875 C869 0.959 . S
H876 C869 0.961 . S
H877 C869 0.960 . S
H878 C870 0.930 . S
H879 C871 0.929 . S
H880 C888 0.929 . S
H881 C890 0.930 . S
H882 C892 0.930 . S
H883 C895 0.929 . S
H884 C898 0.930 . S
H885 C900 0.960 . S
H886 C900 0.960 . S
H887 C900 0.960 . S
C888 H880 0.929 . S
C888 C889 1.377 . S
C888 C890 1.384 . S
C889 C888 1.377 . S
C889 C895 1.390 . S
C890 H881 0.930 . S
C890 C888 1.384 . S
C890 C891 1.372 . S
C891 C890 1.372 . S
C891 C892 1.400 . S
C891 C896 1.490 . S
C892 H882 0.930 . S
C892 C891 1.400 . S
C892 C895 1.386 . S
H893 C909 0.930 . S
H894 C910 0.931 . S
C895 H883 0.929 . S
C895 C889 1.390 . S
C895 C892 1.386 . S
C896 C891 1.490 . S
C896 C898 1.395 . S
C896 C899 1.403 . S
H897 C903 0.930 . S
C898 H884 0.930 . S
C898 C896 1.395 . S
C898 C901 1.403 . S
C899 C896 1.403 . S
C899 C900 1.524 . S
C899 C903 1.400 . S
C900 H885 0.960 . S
C900 H886 0.960 . S
C900 H887 0.960 . S
C900 C899 1.524 . S
C901 C898 1.403 . S
C901 C902 1.392 . S
C901 C905 1.495 . S
C902 C901 1.392 . S
C902 C903 1.385 . S
C902 C904 1.478 . S
C903 H897 0.930 . S
C903 C899 1.400 . S
C903 C902 1.385 . S
C904 C902 1.478 . S
C904 C906 1.381 . S
C904 C910 1.383 . S
C905 C901 1.495 . S
C905 H911 0.959 . S
C905 H912 0.961 . S
C905 H913 0.960 . S
C906 C904 1.381 . S
C906 C907 1.394 . S
C906 H914 0.930 . S
C907 C906 1.394 . S
C907 C908 1.383 . S
C907 H915 0.929 . S
C908 C907 1.383 . S
C908 C909 1.377 . S
C909 H893 0.930 . S
C909 C908 1.377 . S
C909 C910 1.379 . S
C910 H894 0.931 . S
C910 C904 1.383 . S
C910 C909 1.379 . S
H911 C905 0.959 . S
H912 C905 0.961 . S
H913 C905 0.960 . S
H914 C906 0.930 . S
H915 C907 0.929 . S
H916 C924 0.929 . S
H917 C926 0.930 . S
H918 C928 0.930 . S
H919 C931 0.929 . S
H920 C934 0.930 . S
H921 C936 0.960 . S
H922 C936 0.960 . S
H923 C936 0.960 . S
C924 H916 0.929 . S
C924 C925 1.377 . S
C924 C926 1.384 . S
C925 C924 1.377 . S
C925 C931 1.390 . S
C926 H917 0.930 . S
C926 C924 1.384 . S
C926 C927 1.372 . S
C927 C926 1.372 . S
C927 C928 1.400 . S
C927 C932 1.490 . S
C928 H918 0.930 . S
C928 C927 1.400 . S
C928 C931 1.386 . S
H929 C945 0.930 . S
H930 C946 0.931 . S
C931 H919 0.929 . S
C931 C925 1.390 . S
C931 C928 1.386 . S
C932 C927 1.490 . S
C932 C934 1.395 . S
C932 C935 1.403 . S
H933 C939 0.930 . S
C934 H920 0.930 . S
C934 C932 1.395 . S
C934 C937 1.403 . S
C935 C932 1.403 . S
C935 C936 1.524 . S
C935 C939 1.400 . S
C936 H921 0.960 . S
C936 H922 0.960 . S
C936 H923 0.960 . S
C936 C935 1.524 . S
C937 C934 1.403 . S
C937 C938 1.392 . S
C937 C941 1.495 . S
C938 C937 1.392 . S
C938 C939 1.385 . S
C938 C940 1.478 . S
C939 H933 0.930 . S
C939 C935 1.400 . S
C939 C938 1.385 . S
C940 C938 1.478 . S
C940 C942 1.381 . S
C940 C946 1.383 . S
C941 C937 1.495 . S
C941 H947 0.959 . S
C941 H948 0.961 . S
C941 H949 0.960 . S
C942 C940 1.381 . S
C942 C943 1.394 . S
C942 H950 0.930 . S
C943 C942 1.394 . S
C943 C944 1.383 . S
C943 H951 0.929 . S
C944 C943 1.383 . S
C944 C945 1.377 . S
C945 H929 0.930 . S
C945 C944 1.377 . S
C945 C946 1.379 . S
C946 H930 0.931 . S
C946 C940 1.383 . S
C946 C945 1.379 . S
H947 C941 0.959 . S
H948 C941 0.961 . S
H949 C941 0.960 . S
H950 C942 0.930 . S
H951 C943 0.929 . S
H952 C960 0.929 . S
H953 C962 0.930 . S
H954 C964 0.930 . S
H955 C967 0.929 . S
H956 C970 0.930 . S
H957 C972 0.960 . S
H958 C972 0.960 . S
H959 C972 0.960 . S
C960 H952 0.929 . S
C960 C961 1.377 . S
C960 C962 1.384 . S
C961 C960 1.377 . S
C961 C967 1.390 . S
C962 H953 0.930 . S
C962 C960 1.384 . S
C962 C963 1.372 . S
C963 C962 1.372 . S
C963 C964 1.400 . S
C963 C968 1.490 . S
C964 H954 0.930 . S
C964 C963 1.400 . S
C964 C967 1.386 . S
H965 C981 0.930 . S
H966 C982 0.931 . S
C967 H955 0.929 . S
C967 C961 1.390 . S
C967 C964 1.386 . S
C968 C963 1.490 . S
C968 C970 1.395 . S
C968 C971 1.403 . S
H969 C975 0.930 . S
C970 H956 0.930 . S
C970 C968 1.395 . S
C970 C973 1.403 . S
C971 C968 1.403 . S
C971 C972 1.524 . S
C971 C975 1.400 . S
C972 H957 0.960 . S
C972 H958 0.960 . S
C972 H959 0.960 . S
C972 C971 1.524 . S
C973 C970 1.403 . S
C973 C974 1.392 . S
C973 C977 1.495 . S
C974 C973 1.392 . S
C974 C975 1.385 . S
C974 C976 1.478 . S
C975 H969 0.930 . S
C975 C971 1.400 . S
C975 C974 1.385 . S
C976 C974 1.478 . S
C976 C978 1.381 . S
C976 C982 1.383 . S
C977 C973 1.495 . S
C977 H983 0.959 . S
C977 H984 0.961 . S
C977 H985 0.960 . S
C978 C976 1.381 . S
C978 C979 1.394 . S
C978 H986 0.930 . S
C979 C978 1.394 . S
C979 C980 1.383 . S
C979 H987 0.929 . S
C980 C979 1.383 . S
C980 C981 1.377 . S
C981 H965 0.930 . S
C981 C980 1.377 . S
C981 C982 1.379 . S
C982 H966 0.931 . S
C982 C976 1.383 . S
C982 C981 1.379 . S
H983 C977 0.959 . S
H984 C977 0.961 . S
H985 C977 0.960 . S
H986 C978 0.930 . S
H987 C979 0.929 . S
H988 C996 0.929 . S
H989 C998 0.930 . S
H990 C1000 0.930 . S
H991 C1003 0.929 . S
H992 C1006 0.930 . S
H993 C1008 0.960 . S
H994 C1008 0.960 . S
H995 C1008 0.960 . S
C996 H988 0.929 . S
C996 C997 1.377 . S
C996 C998 1.384 . S
C997 C996 1.377 . S
C997 C1003 1.390 . S
C998 H989 0.930 . S
C998 C996 1.384 . S
C998 C999 1.372 . S
C999 C998 1.372 . S
C999 C1000 1.400 . S
C999 C1004 1.490 . S
C1000 H990 0.930 . S
C1000 C999 1.400 . S
C1000 C1003 1.386 . S
H1001 C1017 0.930 . S
H1002 C1018 0.931 . S
C1003 H991 0.929 . S
C1003 C997 1.390 . S
C1003 C1000 1.386 . S
C1004 C999 1.490 . S
C1004 C1006 1.395 . S
C1004 C1007 1.403 . S
H1005 C1011 0.930 . S
C1006 H992 0.930 . S
C1006 C1004 1.395 . S
C1006 C1009 1.403 . S
C1007 C1004 1.403 . S
C1007 C1008 1.524 . S
C1007 C1011 1.400 . S
C1008 H993 0.960 . S
C1008 H994 0.960 . S
C1008 H995 0.960 . S
C1008 C1007 1.524 . S
C1009 C1006 1.403 . S
C1009 C1010 1.392 . S
C1009 C1013 1.495 . S
C1010 C1009 1.392 . S
C1010 C1011 1.385 . S
C1010 C1012 1.478 . S
C1011 H1005 0.930 . S
C1011 C1007 1.400 . S
C1011 C1010 1.385 . S
C1012 C1010 1.478 . S
C1012 C1014 1.381 . S
C1012 C1018 1.383 . S
C1013 C1009 1.495 . S
C1013 H1019 0.959 . S
C1013 H1020 0.961 . S
C1013 H1021 0.960 . S
C1014 C1012 1.381 . S
C1014 C1015 1.394 . S
C1014 H1022 0.930 . S
C1015 C1014 1.394 . S
C1015 C1016 1.383 . S
C1015 H1023 0.929 . S
C1016 C1015 1.383 . S
C1016 C1017 1.377 . S
C1017 H1001 0.930 . S
C1017 C1016 1.377 . S
C1017 C1018 1.379 . S
C1018 H1002 0.931 . S
C1018 C1012 1.383 . S
C1018 C1017 1.379 . S
H1019 C1013 0.959 . S
H1020 C1013 0.961 . S
H1021 C1013 0.960 . S
H1022 C1014 0.930 . S
H1023 C1015 0.929 . S
C169 C2 1.583 . S
C188 C4 1.590 1_556 S
C205 C24 1.581 . S
C224 C22 1.562 . S
C241 C44 1.589 . S
C260 C42 1.604 . S
C277 C62 1.581 . S
C296 C64 1.574 . S
C313 C82 1.589 . S
C332 C84 1.605 . S
C349 C102 1.588 . S
C368 C104 1.606 . S
C385 C124 1.590 . S
C404 C122 1.588 . S
C421 C144 1.586 . S
C440 C142 1.563 . S
C457 C32 1.804 . S
C476 C12 1.799 . S
C493 C72 1.803 . S
C512 C52 1.804 . S
C529 C92 1.804 . S
C548 C112 1.801 . S
C565 C132 1.803 . S
C584 C152 1.804 . S
C601 C9 1.540 . S
C620 C109 1.517 . S
C637 C89 1.537 . S
C656 C29 1.522 . S
C673 C49 1.538 . S
C692 C149 1.515 . S
C709 C69 1.541 . S
C728 C129 1.549 . S
C745 C18 1.565 . S
C764 C78 1.569 . S
C781 C38 1.559 . S
C800 C58 1.578 . S
C817 C39 1.609 . S
C836 C59 1.607 . S
C853 C79 1.610 . S
C872 C19 1.613 . S
C889 C98 1.555 . S
C908 C158 1.542 . S
C925 C118 1.558 . S
C944 C138 1.528 . S
C961 C119 1.611 . S
C980 C139 1.615 . S
C997 C159 1.611 . S
C1016 C99 1.611 . S
