# Generated by pormake.
# Topology ukk, (4)-cn, num edge types: 1
# Building blocks:
#     Node 0, Type 0, BuildingBlock: MUDLON_clean_sbu_0, # of connection points: 4
#     Node 1, Type 0, BuildingBlock: MUDLON_clean_sbu_0, # of connection points: 4
#     Node 2, Type 0, BuildingBlock: MUDLON_clean_sbu_0, # of connection points: 4
#     Node 3, Type 0, BuildingBlock: MUDLON_clean_sbu_0, # of connection points: 4
#     Node 4, Type 0, BuildingBlock: MUDLON_clean_sbu_0, # of connection points: 4
#     Node 5, Type 0, BuildingBlock: MUDLON_clean_sbu_0, # of connection points: 4
#     Node 6, Type 0, BuildingBlock: MUDLON_clean_sbu_0, # of connection points: 4
#     Node 7, Type 0, BuildingBlock: MUDLON_clean_sbu_0, # of connection points: 4
#     Node 8, Type 0, BuildingBlock: MUDLON_clean_sbu_0, # of connection points: 4
#     Node 9, Type 0, BuildingBlock: MUDLON_clean_sbu_0, # of connection points: 4
#     Node 10, Type 0, BuildingBlock: MUDLON_clean_sbu_0, # of connection points: 4
#     Node 11, Type 0, BuildingBlock: MUDLON_clean_sbu_0, # of connection points: 4
#     Node 12, Type 0, BuildingBlock: MUDLON_clean_sbu_0, # of connection points: 4
#     Node 13, Type 0, BuildingBlock: MUDLON_clean_sbu_0, # of connection points: 4
#     Node 14, Type 0, BuildingBlock: MUDLON_clean_sbu_0, # of connection points: 4
#     Node 15, Type 0, BuildingBlock: MUDLON_clean_sbu_0, # of connection points: 4
#     Edge 16, Type (0, 0), BuildingBlock: MIFKUJ_clean_linker_0, # of connection points: 2
#     Edge 17, Type (0, 0), BuildingBlock: MIFKUJ_clean_linker_0, # of connection points: 2
#     Edge 18, Type (0, 0), BuildingBlock: MIFKUJ_clean_linker_0, # of connection points: 2
#     Edge 19, Type (0, 0), BuildingBlock: MIFKUJ_clean_linker_0, # of connection points: 2
#     Edge 20, Type (0, 0), BuildingBlock: MIFKUJ_clean_linker_0, # of connection points: 2
#     Edge 21, Type (0, 0), BuildingBlock: MIFKUJ_clean_linker_0, # of connection points: 2
#     Edge 22, Type (0, 0), BuildingBlock: MIFKUJ_clean_linker_0, # of connection points: 2
#     Edge 23, Type (0, 0), BuildingBlock: MIFKUJ_clean_linker_0, # of connection points: 2
#     Edge 24, Type (0, 0), BuildingBlock: MIFKUJ_clean_linker_0, # of connection points: 2
#     Edge 25, Type (0, 0), BuildingBlock: MIFKUJ_clean_linker_0, # of connection points: 2
#     Edge 26, Type (0, 0), BuildingBlock: MIFKUJ_clean_linker_0, # of connection points: 2
#     Edge 27, Type (0, 0), BuildingBlock: MIFKUJ_clean_linker_0, # of connection points: 2
#     Edge 28, Type (0, 0), BuildingBlock: MIFKUJ_clean_linker_0, # of connection points: 2
#     Edge 29, Type (0, 0), BuildingBlock: MIFKUJ_clean_linker_0, # of connection points: 2
#     Edge 30, Type (0, 0), BuildingBlock: MIFKUJ_clean_linker_0, # of connection points: 2
#     Edge 31, Type (0, 0), BuildingBlock: MIFKUJ_clean_linker_0, # of connection points: 2
#     Edge 32, Type (0, 0), BuildingBlock: MIFKUJ_clean_linker_0, # of connection points: 2
#     Edge 33, Type (0, 0), BuildingBlock: MIFKUJ_clean_linker_0, # of connection points: 2
#     Edge 34, Type (0, 0), BuildingBlock: MIFKUJ_clean_linker_0, # of connection points: 2
#     Edge 35, Type (0, 0), BuildingBlock: MIFKUJ_clean_linker_0, # of connection points: 2
#     Edge 36, Type (0, 0), BuildingBlock: MIFKUJ_clean_linker_0, # of connection points: 2
#     Edge 37, Type (0, 0), BuildingBlock: MIFKUJ_clean_linker_0, # of connection points: 2
#     Edge 38, Type (0, 0), BuildingBlock: MIFKUJ_clean_linker_0, # of connection points: 2
#     Edge 39, Type (0, 0), BuildingBlock: MIFKUJ_clean_linker_0, # of connection points: 2
#     Edge 40, Type (0, 0), BuildingBlock: MIFKUJ_clean_linker_0, # of connection points: 2
#     Edge 41, Type (0, 0), BuildingBlock: MIFKUJ_clean_linker_0, # of connection points: 2
#     Edge 42, Type (0, 0), BuildingBlock: MIFKUJ_clean_linker_0, # of connection points: 2
#     Edge 43, Type (0, 0), BuildingBlock: MIFKUJ_clean_linker_0, # of connection points: 2
#     Edge 44, Type (0, 0), BuildingBlock: MIFKUJ_clean_linker_0, # of connection points: 2
#     Edge 45, Type (0, 0), BuildingBlock: MIFKUJ_clean_linker_0, # of connection points: 2
#     Edge 46, Type (0, 0), BuildingBlock: MIFKUJ_clean_linker_0, # of connection points: 2
#     Edge 47, Type (0, 0), BuildingBlock: MIFKUJ_clean_linker_0, # of connection points: 2
# Relax obj value: 0.000
# Max RMSD: 0.071
# Mean RMSD: 0.071
data_MOF--net-ukk--node1-MUDLON_clean_sbu_0--edge1-MIFKUJ_clean_linker_0
_symmetry_space_group_name_H-M    P1
_symmetry_Int_Tables_number       1
_symmetry_cell_setting            triclinic
loop_
_symmetry_equiv_pos_as_xyz
'x, y, z'
_cell_length_a     78.019212
_cell_length_b     78.445992
_cell_length_c     11.739422
_cell_angle_alpha  89.970813
_cell_angle_beta   89.950192
_cell_angle_gamma 90.014886
loop_
_atom_site_label
_atom_site_type_symbol
_atom_site_fract_x
_atom_site_fract_y
_atom_site_fract_z
_atom_type_partial_charge
Mg0 Mg 0.3857 0.12941 0.12801 0.0
C1 C 0.38687 0.16629 0.09516 0.0
O2 O 0.39084 0.15946 0.99642 0.0
C3 C 0.39067 0.09465 0.19757 0.0
O4 O 0.39214 0.09553 0.08617 0.0
C5 C 0.35425 0.12772 0.95214 0.0
O6 O 0.36412 0.13382 0.8711 0.0
O7 O 0.36057 0.12462 0.04991 0.0
O8 O 0.38374 0.15635 0.17871 0.0
O9 O 0.41071 0.12768 0.04059 0.0
C10 C 0.42225 0.13567 0.09622 0.0
O11 O 0.41768 0.14395 0.18862 0.0
O12 O 0.38766 0.10844 0.25169 0.0
Mg13 Mg 0.13081 0.63182 0.8741 0.0
C14 C 0.16743 0.62451 0.7783 0.0
O15 O 0.16155 0.60909 0.75919 0.0
C16 C 0.10335 0.63187 0.66599 0.0
O17 O 0.11532 0.6281 0.59138 0.0
C18 C 0.12608 0.66744 0.92668 0.0
O19 O 0.12636 0.66581 0.81526 0.0
O20 O 0.12764 0.65397 0.98691 0.0
O21 O 0.15713 0.63607 0.81202 0.0
O22 O 0.13 0.60551 0.94103 0.0
C23 C 0.12662 0.59477 0.86256 0.0
O24 O 0.12395 0.60064 0.7593 0.0
O25 O 0.10734 0.63394 0.77026 0.0
Mg26 Mg 0.63274 0.88667 0.10638 0.0
C27 C 0.64163 0.85017 0.09177 0.0
O28 O 0.64545 0.85648 0.99123 0.0
C29 C 0.62164 0.91583 0.27536 0.0
O30 O 0.60638 0.90876 0.27266 0.0
C31 C 0.66851 0.89639 0.04902 0.0
O32 O 0.66683 0.90045 0.15694 0.0
O33 O 0.65546 0.89053 0.99629 0.0
O34 O 0.63607 0.86033 0.16837 0.0
O35 O 0.60655 0.88607 0.0356 0.0
C36 C 0.59704 0.89901 0.01774 0.0
O37 O 0.60378 0.91432 0.025 0.0
O38 O 0.63408 0.90847 0.22494 0.0
Mg39 Mg 0.88953 0.38177 0.86589 0.0
C40 C 0.85211 0.37507 0.88829 0.0
O41 O 0.85851 0.37021 0.98654 0.0
C42 C 0.91858 0.3934 0.70997 0.0
O43 O 0.91265 0.40831 0.74217 0.0
C44 C 0.88744 0.34518 0.92161 0.0
O45 O 0.87959 0.3468 0.82325 0.0
O46 O 0.89359 0.35852 0.96851 0.0
O47 O 0.86235 0.38074 0.81224 0.0
O48 O 0.89313 0.4072 0.94288 0.0
C49 C 0.88051 0.4169 0.96691 0.0
O50 O 0.86493 0.4106 0.96371 0.0
O51 O 0.91029 0.38004 0.73835 0.0
Mg52 Mg 0.38271 0.38671 0.12559 0.0
C53 C 0.37465 0.35011 0.1343 0.0
O54 O 0.36877 0.35648 0.2301 0.0
C55 C 0.39492 0.41998 0.02691 0.0
O56 O 0.40551 0.41762 0.11226 0.0
C57 C 0.35094 0.393 0.29922 0.0
O58 O 0.36134 0.3952 0.38591 0.0
O59 O 0.35707 0.39005 0.20069 0.0
O60 O 0.38143 0.3603 0.06227 0.0
O61 O 0.40699 0.38796 0.22305 0.0
C62 C 0.41702 0.37513 0.22757 0.0
O63 O 0.41129 0.36022 0.19416 0.0
O64 O 0.38407 0.40828 0.00411 0.0
Mg65 Mg 0.38765 0.63421 0.8599 0.0
C66 C 0.35104 0.62548 0.94581 0.0
O67 O 0.35741 0.61014 0.96074 0.0
C68 C 0.42314 0.64109 0.94264 0.0
O69 O 0.42311 0.64697 0.83789 0.0
C70 C 0.39146 0.67061 0.81684 0.0
O71 O 0.39032 0.6687 0.92783 0.0
O72 O 0.39091 0.65726 0.75473 0.0
O73 O 0.361 0.6376 0.9168 0.0
O74 O 0.38798 0.6085 0.78338 0.0
C75 C 0.40072 0.59871 0.8021 0.0
O76 O 0.4144 0.60516 0.85086 0.0
O77 O 0.40923 0.6349 0.9827 0.0
Mg78 Mg 0.63624 0.62929 0.14438 0.0
C79 C 0.63416 0.66616 0.15612 0.0
O80 O 0.62946 0.66014 0.25585 0.0
C81 C 0.63873 0.59307 0.08603 0.0
O82 O 0.64192 0.59424 0.19568 0.0
C83 C 0.67287 0.62278 0.18373 0.0
O84 O 0.67026 0.62004 0.07473 0.0
O85 O 0.66002 0.62687 0.24549 0.0
O86 O 0.63832 0.65552 0.07857 0.0
O87 O 0.61032 0.62997 0.22138 0.0
C88 C 0.59969 0.6176 0.22272 0.0
O89 O 0.60498 0.6023 0.19443 0.0
O90 O 0.63604 0.60683 0.0308 0.0
Mg91 Mg 0.63022 0.37882 0.8931 0.0
C92 C 0.66726 0.38592 0.88601 0.0
O93 O 0.66085 0.39341 0.79547 0.0
C94 C 0.5945 0.37297 0.96021 0.0
O95 O 0.59523 0.37012 0.85003 0.0
C96 C 0.62989 0.34232 0.84564 0.0
O97 O 0.63233 0.34407 0.95578 0.0
O98 O 0.62833 0.35582 0.78576 0.0
O99 O 0.65696 0.37835 0.95386 0.0
O100 O 0.62702 0.40483 0.82489 0.0
C101 C 0.62547 0.41544 0.90667 0.0
O102 O 0.62549 0.40943 0.01121 0.0
O103 O 0.6084 0.37663 0.01196 0.0
Mg104 Mg 0.88444 0.62853 0.60644 0.0
C105 C 0.8896 0.66554 0.60048 0.0
O106 O 0.89777 0.65942 0.51159 0.0
C107 C 0.89056 0.59384 0.69274 0.0
O108 O 0.89896 0.59479 0.59593 0.0
C109 C 0.85254 0.63682 0.46493 0.0
O110 O 0.85725 0.65236 0.49181 0.0
O111 O 0.86243 0.62443 0.49063 0.0
O112 O 0.88207 0.65504 0.66692 0.0
O113 O 0.91172 0.6276 0.55707 0.0
C114 C 0.92062 0.62468 0.46824 0.0
O115 O 0.91295 0.62089 0.37195 0.0
O116 O 0.88249 0.60704 0.72715 0.0
Mg117 Mg 0.63323 0.13326 0.36254 0.0
C118 C 0.67011 0.14298 0.37731 0.0
O119 O 0.66359 0.14876 0.47293 0.0
C120 C 0.60364 0.12193 0.20607 0.0
O121 O 0.60889 0.10666 0.23575 0.0
C122 C 0.62796 0.16965 0.40669 0.0
O123 O 0.62918 0.16799 0.29558 0.0
O124 O 0.62877 0.15618 0.46759 0.0
O125 O 0.66008 0.13593 0.30555 0.0
O126 O 0.63102 0.10748 0.43749 0.0
C127 C 0.64145 0.09637 0.39853 0.0
O128 O 0.65331 0.10138 0.32649 0.0
O129 O 0.61236 0.13488 0.23695 0.0
Mg130 Mg 0.13543 0.38228 0.6195 0.0
C131 C 0.14111 0.3455 0.60092 0.0
O132 O 0.14474 0.35192 0.50045 0.0
C133 C 0.13991 0.41756 0.69282 0.0
O134 O 0.14492 0.41676 0.58606 0.0
C135 C 0.16663 0.38459 0.43644 0.0
O136 O 0.15642 0.38045 0.35193 0.0
O137 O 0.1606 0.38593 0.53685 0.0
O138 O 0.13656 0.35571 0.68002 0.0
O139 O 0.11036 0.38312 0.53128 0.0
C140 C 0.10058 0.39612 0.53803 0.0
O141 O 0.10679 0.41032 0.58017 0.0
O142 O 0.13499 0.40379 0.74084 0.0
Mg143 Mg 0.38697 0.88171 0.38534 0.0
C144 C 0.34944 0.8724 0.2837 0.0
O145 O 0.35615 0.86159 0.2108 0.0
C146 C 0.41608 0.89401 0.22907 0.0
O147 O 0.41106 0.90884 0.26853 0.0
C148 C 0.39024 0.84502 0.42013 0.0
O149 O 0.38786 0.84737 0.31045 0.0
O150 O 0.39108 0.85817 0.48392 0.0
O151 O 0.35919 0.88094 0.3493 0.0
O152 O 0.38979 0.90698 0.46645 0.0
C153 C 0.38038 0.91824 0.41892 0.0
O154 O 0.37028 0.9134 0.3355 0.0
O155 O 0.40727 0.88078 0.25347 0.0
Mg156 Mg 0.88183 0.88493 0.63021 0.0
C157 C 0.87308 0.8486 0.63128 0.0
O158 O 0.86861 0.85436 0.73205 0.0
C159 C 0.8794 0.92127 0.57888 0.0
O160 O 0.87674 0.91954 0.68887 0.0
C161 C 0.84534 0.89284 0.67711 0.0
O162 O 0.84736 0.89618 0.56826 0.0
O163 O 0.85834 0.88792 0.73438 0.0
O164 O 0.87902 0.85918 0.55855 0.0
O165 O 0.90776 0.88343 0.70707 0.0
C166 C 0.91826 0.89591 0.70583 0.0
O167 O 0.91277 0.91095 0.67347 0.0
O168 O 0.88194 0.90781 0.52021 0.0
Mg169 Mg 0.89198 0.13646 0.37301 0.0
C170 C 0.85479 0.13182 0.36463 0.0
O171 O 0.86091 0.12479 0.27155 0.0
C172 C 0.92693 0.12958 0.45636 0.0
O173 O 0.92614 0.12247 0.3552 0.0
C174 C 0.90549 0.1701 0.28337 0.0
O175 O 0.91586 0.16748 0.36963 0.0
O176 O 0.89475 0.15847 0.25725 0.0
O177 O 0.86536 0.13849 0.43461 0.0
O178 O 0.89285 0.11005 0.30875 0.0
C179 C 0.89247 0.0997 0.39262 0.0
O180 O 0.89189 0.10613 0.49594 0.0
O181 O 0.91366 0.13725 0.4941 0.0
Mg182 Mg 0.13838 0.12445 0.63176 0.0
C183 C 0.13357 0.16138 0.65238 0.0
O184 O 0.12885 0.15489 0.75071 0.0
C185 C 0.14675 0.09013 0.53689 0.0
O186 O 0.15602 0.09106 0.62994 0.0
C187 C 0.17005 0.1285 0.80395 0.0
O188 O 0.16042 0.13775 0.87176 0.0
O189 O 0.16358 0.12201 0.7144 0.0
O190 O 0.13841 0.15117 0.57399 0.0
O191 O 0.11381 0.12261 0.72471 0.0
C192 C 0.10293 0.11135 0.69482 0.0
O193 O 0.10788 0.0992 0.62531 0.0
O194 O 0.13799 0.10316 0.5075 0.0
Mg195 Mg 0.12912 0.87732 0.37669 0.0
C196 C 0.16627 0.88227 0.48301 0.0
O197 O 0.16019 0.89545 0.53897 0.0
C198 C 0.10011 0.88888 0.53381 0.0
O199 O 0.106 0.90388 0.50309 0.0
C200 C 0.12607 0.84123 0.33529 0.0
O201 O 0.12946 0.8435 0.44391 0.0
O202 O 0.12454 0.85446 0.27266 0.0
O203 O 0.15614 0.87321 0.42329 0.0
O204 O 0.12706 0.9032 0.30312 0.0
C205 C 0.14042 0.91206 0.28263 0.0
O206 O 0.15545 0.90454 0.2858 0.0
O207 O 0.10838 0.8756 0.50382 0.0
H208 H 0.35827 0.94304 0.35462 0.0
H209 H 0.3621 0.97368 0.36501 0.0
H210 H 0.40917 0.96662 0.55187 0.0
H211 H 0.4056 0.93551 0.53859 0.0
H212 H 0.36426 0.9978 0.51435 0.0
H213 H 0.43737 0.9977 0.46715 0.0
H214 H 0.46059 0.97859 0.40281 0.0
H215 H 0.42593 0.95391 0.17157 0.0
H216 H 0.4026 0.97302 0.23352 0.0
H217 H 0.38569 0.08609 0.42477 0.0
H218 H 0.38653 0.05733 0.50885 0.0
H219 H 0.39906 0.03626 0.17977 0.0
H220 H 0.39865 0.06455 0.09706 0.0
H221 H 0.41692 0.0203 0.33133 0.0
H222 H 0.35719 0.03627 0.29012 0.0
H223 H 0.33196 0.0545 0.32475 0.0
H224 H 0.33666 0.0461 0.6849 0.0
H225 H 0.36202 0.02791 0.65225 0.0
C226 C 0.36938 0.94792 0.39926 0.0
C227 C 0.38175 0.93676 0.44443 0.0
C228 C 0.37149 0.96555 0.40586 0.0
C229 C 0.38603 0.9726 0.45788 0.0
C230 C 0.39794 0.96153 0.50976 0.0
C231 C 0.39585 0.94374 0.50279 0.0
C232 C 0.38915 0.99134 0.44718 0.0
C233 C 0.37591 1.00273 0.47615 0.0
C234 C 0.40421 0.99791 0.3958 0.0
C235 C 0.41823 0.98663 0.35608 0.0
C236 C 0.43474 0.98822 0.40234 0.0
C237 C 0.44792 0.97739 0.3663 0.0
C238 C 0.44472 0.965 0.28349 0.0
C239 C 0.42838 0.96348 0.23598 0.0
C240 C 0.41518 0.9743 0.27151 0.0
C241 C 0.38879 0.07531 0.37093 0.0
C242 C 0.39198 0.07768 0.25396 0.0
C243 C 0.38922 0.05886 0.41892 0.0
C244 C 0.39276 0.0445 0.35062 0.0
C245 C 0.3964 0.04702 0.23482 0.0
C246 C 0.39603 0.06331 0.18731 0.0
C247 C 0.39184 0.02669 0.39566 0.0
C248 C 0.40549 0.01547 0.37309 0.0
C249 C 0.37692 0.02018 0.44912 0.0
C250 C 0.3616 0.03093 0.46891 0.0
C251 C 0.35288 0.03839 0.37671 0.0
C252 C 0.33855 0.0487 0.39594 0.0
C253 C 0.33274 0.05151 0.50696 0.0
C254 C 0.34119 0.04394 0.59896 0.0
C255 C 0.35554 0.03363 0.58015 0.0
H256 H 0.32168 0.05953 0.52157 0.0
H257 H 0.45492 0.9566 0.25594 0.0
H258 H 0.08896 0.62535 0.4558 0.0
H259 H 0.05839 0.62397 0.40781 0.0
H260 H 0.04541 0.63763 0.75304 0.0
H261 H 0.07574 0.63888 0.8017 0.0
H262 H 0.02676 0.61111 0.68554 0.0
H263 H 0.04148 0.66603 0.53009 0.0
H264 H 0.05775 0.68606 0.40934 0.0
H265 H 0.04198 0.6588 0.11014 0.0
H266 H 0.02579 0.63846 0.22932 0.0
H267 H 0.93987 0.63309 0.65406 0.0
H268 H 0.97093 0.63396 0.67152 0.0
H269 H 0.97609 0.61887 0.32005 0.0
H270 H 0.94472 0.61817 0.30111 0.0
H271 H 0.99903 0.64396 0.37512 0.0
H272 H 0.98267 0.59011 0.53143 0.0
H273 H 0.96612 0.57049 0.65337 0.0
H274 H 0.98503 0.5958 0.95213 0.0
H275 H 1.0015 0.61575 0.83195 0.0
C276 C 0.0796 0.62821 0.52126 0.0
C277 C 0.08489 0.6322 0.63277 0.0
C278 C 0.06209 0.62745 0.49359 0.0
C279 C 0.04951 0.63073 0.57669 0.0
C280 C 0.05481 0.63496 0.6874 0.0
C281 C 0.07223 0.63573 0.71502 0.0
C282 C 0.03081 0.62927 0.5505 0.0
C283 C 0.0207 0.61844 0.61831 0.0
C284 C 0.02289 0.63839 0.46051 0.0
C285 C 0.03259 0.65061 0.38874 0.0
C286 C 0.04161 0.66422 0.43862 0.0
C287 C 0.05078 0.67565 0.37045 0.0
C288 C 0.05094 0.67367 0.25217 0.0
C289 C 0.04187 0.6603 0.20179 0.0
C290 C 0.03268 0.64882 0.2696 0.0
C291 C 0.94752 0.62994 0.5801 0.0
C292 C 0.93969 0.62543 0.47628 0.0
C293 C 0.96536 0.63039 0.59038 0.0
C294 C 0.97594 0.62622 0.4977 0.0
C295 C 0.96823 0.62208 0.39299 0.0
C296 C 0.95028 0.62163 0.38248 0.0
C297 C 0.99498 0.62607 0.51174 0.0
C298 C 1.00513 0.63654 0.44167 0.0
C299 C 1.00299 0.61662 0.59979 0.0
C300 C 0.99323 0.60452 0.67252 0.0
C301 C 0.98321 0.59157 0.6231 0.0
C302 C 0.97385 0.58038 0.69193 0.0
C303 C 0.97449 0.58191 0.81042 0.0
C304 C 0.98453 0.59463 0.86033 0.0
C305 C 0.9939 0.60587 0.79189 0.0
H306 H 0.96723 0.57323 0.86355 0.0
H307 H 0.05807 0.68253 0.19956 0.0
H308 H 0.6503 0.93605 0.26622 0.0
H309 H 0.65275 0.96611 0.31651 0.0
H310 H 0.60037 0.96609 0.43428 0.0
H311 H 0.59768 0.93602 0.3813 0.0
H312 H 0.60553 0.99296 0.30618 0.0
H313 H 0.63555 0.96868 0.62172 0.0
H314 H 0.65682 0.95031 0.7169 0.0
H315 H 0.69764 0.97692 0.54761 0.0
H316 H 0.67661 0.99533 0.45026 0.0
H317 H 0.61377 0.07935 0.49206 0.0
H318 H 0.60959 0.04834 0.50357 0.0
H319 H 0.66006 0.04045 0.36321 0.0
H320 H 0.66438 0.07116 0.35302 0.0
H321 H 0.65388 0.01744 0.52609 0.0
H322 H 0.62394 0.03923 0.19611 0.0
H323 H 0.60299 0.0577 0.0986 0.0
H324 H 0.56218 0.03552 0.29467 0.0
H325 H 0.58295 0.01709 0.39464 0.0
C326 C 0.63935 0.94232 0.30441 0.0
C327 C 0.62379 0.93352 0.31978 0.0
C328 C 0.64079 0.95958 0.3336 0.0
C329 C 0.62681 0.96847 0.38049 0.0
C330 C 0.61137 0.9596 0.39835 0.0
C331 C 0.60988 0.94234 0.36854 0.0
C332 C 0.62806 0.98716 0.405 0.0
C333 C 0.61592 0.99824 0.35639 0.0
C334 C 0.64177 0.99424 0.46867 0.0
C335 C 0.65448 0.98332 0.52809 0.0
C336 C 0.64906 0.97056 0.60427 0.0
C337 C 0.66107 0.96014 0.65868 0.0
C338 C 0.67857 0.96243 0.63816 0.0
C339 C 0.68408 0.97517 0.56341 0.0
C340 C 0.67212 0.98561 0.50873 0.0
C341 C 0.62408 0.07099 0.46564 0.0
C342 C 0.63937 0.07778 0.42094 0.0
C343 C 0.62164 0.05325 0.4715 0.0
C344 C 0.63443 0.04197 0.43272 0.0
C345 C 0.64998 0.04879 0.39351 0.0
C346 C 0.65239 0.06643 0.38734 0.0
C347 C 0.63147 0.02315 0.42622 0.0
C348 C 0.64334 0.01208 0.47768 0.0
C349 C 0.61754 0.01607 0.36505 0.0
C350 C 0.60502 0.02693 0.30375 0.0
C351 C 0.61051 0.03837 0.21892 0.0
C352 C 0.59867 0.04882 0.16318 0.0
C353 C 0.58127 0.04782 0.19068 0.0
C354 C 0.57567 0.03631 0.27365 0.0
C355 C 0.58747 0.02586 0.32986 0.0
H356 H 0.57213 0.05594 0.14752 0.0
H357 H 0.68784 0.95435 0.68037 0.0
H358 H 0.07723 0.42191 0.52382 0.0
H359 H 0.04607 0.41977 0.52967 0.0
H360 H 0.04964 0.36493 0.52502 0.0
H361 H 0.08102 0.36698 0.51686 0.0
H362 H 0.02195 0.37524 0.40461 0.0
H363 H 0.04373 0.38565 0.7769 0.0
H364 H 0.06049 0.39984 0.92754 0.0
H365 H 0.03347 0.44662 0.86637 0.0
H366 H 0.01661 0.43274 0.7146 0.0
H367 H 0.93789 0.36467 0.66453 0.0
H368 H 0.96829 0.36357 0.61116 0.0
H369 H 0.96964 0.41845 0.59309 0.0
H370 H 0.93945 0.41967 0.64616 0.0
H371 H 0.99495 0.4061 0.72692 0.0
H372 H 0.97235 0.39386 0.35309 0.0
H373 H 0.95508 0.37781 0.21367 0.0
H374 H 0.98346 0.33231 0.28934 0.0
H375 H 1.00075 0.34804 0.43034 0.0
C376 C 0.07144 0.40936 0.52195 0.0
C377 C 0.0817 0.39461 0.52079 0.0
C378 C 0.05355 0.40816 0.526 0.0
C379 C 0.04542 0.39218 0.53063 0.0
C380 C 0.05556 0.37741 0.52226 0.0
C381 C 0.07353 0.3786 0.51739 0.0
C382 C 0.02652 0.39107 0.55137 0.0
C383 C 0.01607 0.38183 0.47584 0.0
C384 C 0.01872 0.39967 0.64406 0.0
C385 C 0.029 0.40818 0.73389 0.0
C386 C 0.04145 0.399 0.79497 0.0
C387 C 0.05093 0.40697 0.88074 0.0
C388 C 0.04801 0.4241 0.90667 0.0
C389 C 0.03567 0.43333 0.84641 0.0
C390 C 0.02613 0.42542 0.7606 0.0
C391 C 0.94456 0.37649 0.64695 0.0
C392 C 0.93616 0.39227 0.66028 0.0
C393 C 0.96198 0.37584 0.61637 0.0
C394 C 0.97134 0.39094 0.59827 0.0
C395 C 0.96277 0.40662 0.60707 0.0
C396 C 0.94543 0.40728 0.63715 0.0
C397 C 0.99028 0.39065 0.57867 0.0
C398 C 1.00079 0.39956 0.65532 0.0
C399 C 0.99807 0.38153 0.48816 0.0
C400 C 0.98772 0.37209 0.40313 0.0
C401 C 0.97481 0.3804 0.3407 0.0
C402 C 0.96504 0.37137 0.26123 0.0
C403 C 0.96814 0.35404 0.2429 0.0
C404 C 0.98105 0.34572 0.30375 0.0
C405 C 0.99086 0.35469 0.38336 0.0
H406 H 0.96056 0.34707 0.18136 0.0
H407 H 0.05528 0.43021 0.97367 0.0
H408 H 0.42 0.44392 0.02963 0.0
H409 H 0.41838 0.47343 0.96682 0.0
H410 H 0.36747 0.46473 0.83677 0.0
H411 H 0.36907 0.43477 0.8992 0.0
H412 H 0.38655 0.4866 0.69654 0.0
H413 H 0.37111 0.4836 0.08855 0.0
H414 H 0.37356 0.47525 0.29045 0.0
H415 H 0.42172 0.50146 0.31473 0.0
H416 H 0.41964 0.50985 0.11264 0.0
H417 H 0.37288 0.57962 0.73115 0.0
H418 H 0.36977 0.54844 0.74058 0.0
H419 H 0.42191 0.5441 0.85784 0.0
H420 H 0.42522 0.57492 0.84734 0.0
H421 H 0.3974 0.52885 0.00251 0.0
H422 H 0.4125 0.5308 0.60238 0.0
H423 H 0.4088 0.53931 0.40169 0.0
H424 H 0.35927 0.5155 0.39513 0.0
H425 H 0.36255 0.50706 0.59647 0.0
C426 C 0.4085 0.44814 0.98631 0.0
C427 C 0.39459 0.43698 0.97057 0.0
C428 C 0.40758 0.46509 0.95071 0.0
C429 C 0.39266 0.47146 0.89934 0.0
C430 C 0.37908 0.46014 0.87695 0.0
C431 C 0.38002 0.44302 0.91241 0.0
C432 C 0.39122 0.49011 0.87583 0.0
C433 C 0.38861 0.49586 0.7637 0.0
C434 C 0.39394 0.50226 0.96329 0.0
C435 C 0.39529 0.49721 0.085 0.0
C436 C 0.3823 0.48746 0.13664 0.0
C437 C 0.38361 0.48274 0.25117 0.0
C438 C 0.39784 0.48773 0.31516 0.0
C439 C 0.41075 0.49753 0.26486 0.0
C440 C 0.40949 0.50232 0.15042 0.0
C441 C 0.3838 0.57199 0.7565 0.0
C442 C 0.39927 0.57985 0.78921 0.0
C443 C 0.38199 0.55416 0.76189 0.0
C444 C 0.39559 0.54393 0.80056 0.0
C445 C 0.41122 0.55172 0.82821 0.0
C446 C 0.41309 0.56941 0.82193 0.0
C447 C 0.39333 0.52535 0.82274 0.0
C448 C 0.39516 0.51962 0.93534 0.0
C449 C 0.38967 0.51335 0.73591 0.0
C450 C 0.38765 0.51855 0.61517 0.0
C451 C 0.40071 0.52759 0.5587 0.0
C452 C 0.3987 0.53237 0.44474 0.0
C453 C 0.38374 0.52809 0.38602 0.0
C454 C 0.37079 0.51893 0.44099 0.0
C455 C 0.37273 0.51412 0.55498 0.0
H456 H 0.38226 0.53172 0.2976 0.0
H457 H 0.3988 0.48413 0.40395 0.0
H458 H 0.43337 0.61868 0.11112 0.0
H459 H 0.46253 0.61514 0.18695 0.0
H460 H 0.4794 0.65842 0.98941 0.0
H461 H 0.45066 0.66162 0.91173 0.0
H462 H 0.50022 0.63396 0.95383 0.0
H463 H 0.47579 0.65837 0.2909 0.0
H464 H 0.45561 0.66114 0.45161 0.0
H465 H 0.47052 0.61179 0.57498 0.0
H466 H 0.49063 0.60862 0.41402 0.0
H467 H 0.58269 0.64777 0.19013 0.0
H468 H 0.55172 0.65192 0.17036 0.0
H469 H 0.54312 0.59918 0.25549 0.0
H470 H 0.57416 0.59476 0.27223 0.0
H471 H 0.5183 0.62706 0.35622 0.0
H472 H 0.54206 0.6031 0.00874 0.0
H473 H 0.5629 0.60189 0.85092 0.0
H474 H 0.54913 0.65272 0.75062 0.0
H475 H 0.52841 0.65433 0.90932 0.0
C476 C 0.44325 0.62763 0.08595 0.0
C477 C 0.43971 0.64038 0.00505 0.0
C478 C 0.45995 0.62561 0.12933 0.0
C479 C 0.47332 0.63649 0.09395 0.0
C480 C 0.46947 0.64972 0.01753 0.0
C481 C 0.45295 0.65159 0.97338 0.0
C482 C 0.49157 0.63351 0.12846 0.0
C483 C 0.50407 0.63267 0.0422 0.0
C484 C 0.49679 0.63139 0.24343 0.0
C485 C 0.48457 0.63317 0.33956 0.0
C486 C 0.47464 0.64803 0.35161 0.0
C487 C 0.46324 0.64969 0.44292 0.0
C488 C 0.46174 0.63662 0.52327 0.0
C489 C 0.47167 0.62189 0.51255 0.0
C490 C 0.48308 0.62016 0.42133 0.0
C491 C 0.57423 0.63713 0.20734 0.0
C492 C 0.58095 0.62091 0.23253 0.0
C493 C 0.55651 0.63952 0.19573 0.0
C494 C 0.54511 0.62585 0.2113 0.0
C495 C 0.55167 0.60992 0.24366 0.0
C496 C 0.56943 0.60741 0.25292 0.0
C497 C 0.52665 0.62782 0.18166 0.0
C498 C 0.51424 0.62837 0.2683 0.0
C499 C 0.52144 0.62986 0.06721 0.0
C500 C 0.53386 0.62891 0.97176 0.0
C501 C 0.54363 0.61409 0.95386 0.0
C502 C 0.55538 0.61331 0.86407 0.0
C503 C 0.55738 0.62724 0.791 0.0
C504 C 0.54759 0.64196 0.80744 0.0
C505 C 0.53584 0.64281 0.89728 0.0
H506 H 0.56647 0.62661 0.72144 0.0
H507 H 0.45293 0.63794 0.59399 0.0
H508 H 0.6329 0.43447 0.71347 0.0
H509 H 0.63341 0.46581 0.69761 0.0
H510 H 0.61669 0.4699 0.04689 0.0
H511 H 0.61595 0.43906 0.06252 0.0
H512 H 0.60045 0.49265 0.92284 0.0
H513 H 0.65941 0.47375 0.96591 0.0
H514 H 0.68537 0.458 0.90823 0.0
H515 H 0.68655 0.48532 0.59126 0.0
H516 H 0.66045 0.50108 0.64658 0.0
H517 H 0.63541 0.56302 0.19791 0.0
H518 H 0.63158 0.53461 0.11953 0.0
H519 H 0.63408 0.55497 0.77897 0.0
H520 H 0.63764 0.58397 0.85763 0.0
H521 H 0.65553 0.52198 0.84351 0.0
H522 H 0.59864 0.545 0.82855 0.0
H523 H 0.57407 0.56115 0.90487 0.0
H524 H 0.56993 0.52597 0.18392 0.0
H525 H 0.59467 0.50979 0.1104 0.0
C526 C 0.62913 0.4421 0.78613 0.0
C527 C 0.62447 0.43422 0.8894 0.0
C528 C 0.62951 0.46001 0.77727 0.0
C529 C 0.62521 0.47031 0.87144 0.0
C530 C 0.62003 0.46235 0.97283 0.0
C531 C 0.6197 0.44462 0.98177 0.0
C532 C 0.62663 0.48932 0.86877 0.0
C533 C 0.61247 0.49903 0.90446 0.0
C534 C 0.64219 0.49784 0.84273 0.0
C535 C 0.65786 0.48841 0.80963 0.0
C536 C 0.66513 0.47629 0.88351 0.0
C537 C 0.67988 0.46738 0.85134 0.0
C538 C 0.68757 0.47061 0.74596 0.0
C539 C 0.68055 0.4828 0.67271 0.0
C540 C 0.66578 0.49172 0.70441 0.0
C541 C 0.63523 0.56159 0.10616 0.0
C542 C 0.63684 0.57585 0.03409 0.0
C543 C 0.63302 0.54527 0.06154 0.0
C544 C 0.63254 0.54265 0.94358 0.0
C545 C 0.63446 0.55673 0.87042 0.0
C546 C 0.63642 0.57327 0.91539 0.0
C547 C 0.62948 0.52509 0.90016 0.0
C548 C 0.64334 0.51564 0.85732 0.0
C549 C 0.61371 0.51674 0.92075 0.0
C550 C 0.59858 0.52623 0.96417 0.0
C551 C 0.59256 0.54077 0.90659 0.0
C552 C 0.57859 0.54992 0.94932 0.0
C553 C 0.57046 0.5446 0.04926 0.0
C554 C 0.57624 0.53008 0.10649 0.0
C555 C 0.59023 0.5209 0.06422 0.0
H556 H 0.55966 0.55172 0.08228 0.0
H557 H 0.69898 0.46371 0.7212 0.0
H558 H 0.44087 0.35036 0.26694 0.0
H559 H 0.47201 0.353 0.25733 0.0
H560 H 0.46718 0.40735 0.213 0.0
H561 H 0.43589 0.4048 0.22242 0.0
H562 H 0.48704 0.39418 0.05138 0.0
H563 H 0.48494 0.39097 0.45249 0.0
H564 H 0.47692 0.38003 0.64198 0.0
H565 H 0.50314 0.33308 0.57233 0.0
H566 H 0.51099 0.34354 0.38122 0.0
H567 H 0.58548 0.38646 0.16998 0.0
H568 H 0.5563 0.38951 0.24785 0.0
H569 H 0.53595 0.36298 0.95625 0.0
H570 H 0.56468 0.36009 0.8782 0.0
H571 H 0.52998 0.36788 0.30885 0.0
H572 H 0.5006 0.38168 0.86331 0.0
H573 H 0.50949 0.39484 0.68148 0.0
H574 H 0.54683 0.42516 0.85706 0.0
H575 H 0.53807 0.4124 0.04003 0.0
C576 C 0.4464 0.36295 0.25779 0.0
C577 C 0.43581 0.37736 0.24509 0.0
C578 C 0.46428 0.36445 0.25259 0.0
C579 C 0.47204 0.38038 0.2344 0.0
C580 C 0.46153 0.39491 0.22698 0.0
C581 C 0.44361 0.39344 0.23315 0.0
C582 C 0.49088 0.38151 0.21218 0.0
C583 C 0.49639 0.38853 0.10832 0.0
C584 C 0.50325 0.37446 0.28716 0.0
C585 C 0.49845 0.36801 0.40184 0.0
C586 C 0.48884 0.37823 0.4769 0.0
C587 C 0.48431 0.37211 0.58469 0.0
C588 C 0.48949 0.35586 0.61911 0.0
C589 C 0.49914 0.34567 0.54558 0.0
C590 C 0.50362 0.35168 0.43743 0.0
C591 C 0.57478 0.3811 0.12342 0.0
C592 C 0.57743 0.37319 0.01721 0.0
C593 C 0.55811 0.38287 0.16792 0.0
C594 C 0.54384 0.37679 0.10682 0.0
C595 C 0.54665 0.36812 0.00394 0.0
C596 C 0.56316 0.36643 0.95951 0.0
C597 C 0.5259 0.37991 0.14642 0.0
C598 C 0.52059 0.37368 0.25295 0.0
C599 C 0.5137 0.38797 0.07503 0.0
C600 C 0.51874 0.39599 0.96538 0.0
C601 C 0.51063 0.39124 0.86326 0.0
C602 C 0.51566 0.3986 0.75997 0.0
C603 C 0.52872 0.41078 0.75774 0.0
C604 C 0.53675 0.41569 0.85885 0.0
C605 C 0.53177 0.40838 0.96236 0.0
H606 H 0.5326 0.41644 0.67765 0.0
H607 H 0.48606 0.35119 0.70285 0.0
H608 H 0.85765 0.44039 0.0477 0.0
H609 H 0.85957 0.47143 0.03568 0.0
H610 H 0.91011 0.46714 0.88918 0.0
H611 H 0.90852 0.43608 0.90525 0.0
H612 H 0.90944 0.49408 0.01778 0.0
H613 H 0.87264 0.47257 0.72382 0.0
H614 H 0.84817 0.45663 0.64417 0.0
H615 H 0.8132 0.48785 0.83462 0.0
H616 H 0.83749 0.50383 0.91659 0.0
H617 H 0.91325 0.56785 0.67266 0.0
H618 H 0.91147 0.53931 0.75337 0.0
H619 H 0.86506 0.55314 0.93029 0.0
H620 H 0.8668 0.58206 0.84896 0.0
H621 H 0.86227 0.52263 0.80828 0.0
H622 H 0.90104 0.54661 0.08118 0.0
H623 H 0.92656 0.56284 0.1409 0.0
H624 H 0.95911 0.52703 0.9686 0.0
H625 H 0.93377 0.51068 0.90665 0.0
C626 C 0.86931 0.44605 0.01477 0.0
C627 C 0.88287 0.43569 0.97656 0.0
C628 C 0.87035 0.46385 0.0071 0.0
C629 C 0.8848 0.47174 0.95854 0.0
C630 C 0.89876 0.46145 0.92633 0.0
C631 C 0.89783 0.44363 0.93561 0.0
C632 C 0.88502 0.49052 0.93558 0.0
C633 C 0.89915 0.50027 0.97148 0.0
C634 C 0.87151 0.49882 0.87659 0.0
C635 C 0.85688 0.48925 0.82737 0.0
C636 C 0.85973 0.47595 0.74936 0.0
C637 C 0.8459 0.46692 0.7037 0.0
C638 C 0.82914 0.47119 0.7346 0.0
C639 C 0.82618 0.48453 0.81097 0.0
C640 C 0.83998 0.49358 0.85703 0.0
C641 C 0.90274 0.56495 0.72988 0.0
C642 C 0.89014 0.57727 0.75424 0.0
C643 C 0.90179 0.54859 0.77647 0.0
C644 C 0.8882 0.54404 0.84864 0.0
C645 C 0.87571 0.55638 0.87513 0.0
C646 C 0.87676 0.57292 0.82921 0.0
C647 C 0.8867 0.5261 0.88984 0.0
C648 C 0.87238 0.51649 0.8566 0.0
C649 C 0.90018 0.51789 0.9493 0.0
C650 C 0.91548 0.52746 0.98877 0.0
C651 C 0.91363 0.54223 0.0556 0.0
C652 C 0.92807 0.55145 0.0899 0.0
C653 C 0.94444 0.54599 0.05838 0.0
C654 C 0.94642 0.53125 0.99296 0.0
C655 C 0.93202 0.52197 0.95844 0.0
H656 H 0.9556 0.55317 0.08475 0.0
H657 H 0.81845 0.46419 0.69915 0.0
H658 H 0.58304 0.09758 0.10948 0.0
H659 H 0.5527 0.10023 0.05832 0.0
H660 H 0.55398 0.15354 0.14666 0.0
H661 H 0.58434 0.15109 0.19613 0.0
H662 H 0.52845 0.1341 0.26126 0.0
H663 H 0.54915 0.14384 0.88091 0.0
H664 H 0.56537 0.13723 0.70614 0.0
H665 H 0.53657 0.09102 0.66404 0.0
H666 H 0.52033 0.09723 0.83963 0.0
H667 H 0.4459 0.16011 0.13536 0.0
H668 H 0.47698 0.15766 0.12376 0.0
H669 H 0.47193 0.10694 0.98611 0.0
H670 H 0.44047 0.10957 0.99486 0.0
H671 H 0.49944 0.12337 0.89212 0.0
H672 H 0.47915 0.1125 0.26798 0.0
H673 H 0.46307 0.11763 0.44554 0.0
H674 H 0.4915 0.16373 0.50179 0.0
H675 H 0.50758 0.15902 0.32353 0.0
C676 C 0.57698 0.10996 0.11562 0.0
C677 C 0.58616 0.12412 0.15725 0.0
C678 C 0.55962 0.11145 0.08615 0.0
C679 C 0.55105 0.12707 0.0988 0.0
C680 C 0.56034 0.14136 0.13612 0.0
C681 C 0.57774 0.13995 0.16395 0.0
C682 C 0.53211 0.12818 0.08405 0.0
C683 C 0.52213 0.13201 0.18011 0.0
C684 C 0.52381 0.12473 0.97927 0.0
C685 C 0.53366 0.1209 0.87426 0.0
C686 C 0.5464 0.13217 0.83516 0.0
C687 C 0.55557 0.12852 0.73573 0.0
C688 C 0.55204 0.11369 0.67421 0.0
C689 C 0.53931 0.10249 0.71189 0.0
C690 C 0.53011 0.10608 0.81132 0.0
C691 C 0.45137 0.14854 0.10045 0.0
C692 C 0.44074 0.13497 0.0669 0.0
C693 C 0.46918 0.14712 0.09441 0.0
C694 C 0.47688 0.13194 0.05707 0.0
C695 C 0.46631 0.11874 0.0161 0.0
C696 C 0.44834 0.12026 0.02074 0.0
C697 C 0.49581 0.12967 0.06905 0.0
C698 C 0.50576 0.12549 0.97316 0.0
C699 C 0.50416 0.13254 0.17461 0.0
C700 C 0.49446 0.13548 0.28173 0.0
C701 C 0.48187 0.12381 0.31767 0.0
C702 C 0.47277 0.12663 0.41854 0.0
C703 C 0.47623 0.14102 0.48477 0.0
C704 C 0.48882 0.1526 0.45032 0.0
C705 C 0.49794 0.14986 0.34939 0.0
H706 H 0.46918 0.14317 0.56292 0.0
H707 H 0.55914 0.1109 0.59719 0.0
H708 H 0.13469 0.57637 0.05757 0.0
H709 H 0.13523 0.54511 0.07834 0.0
H710 H 0.11882 0.53977 0.72933 0.0
H711 H 0.1179 0.57047 0.70908 0.0
H712 H 0.1024 0.51768 0.85226 0.0
H713 H 0.16153 0.53626 0.81885 0.0
H714 H 0.18747 0.55178 0.87879 0.0
H715 H 0.18762 0.52455 0.19626 0.0
H716 H 0.16142 0.50912 0.139 0.0
H717 H 0.14296 0.44833 0.58955 0.0
H718 H 0.13918 0.47655 0.67065 0.0
H719 H 0.12977 0.45443 0.0008 0.0
H720 H 0.13317 0.42562 0.91892 0.0
H721 H 0.15684 0.48814 0.94485 0.0
H722 H 0.09862 0.46632 0.95254 0.0
H723 H 0.07474 0.45011 0.86851 0.0
H724 H 0.07451 0.48351 0.57877 0.0
H725 H 0.09874 0.49969 0.65989 0.0
C726 C 0.13106 0.56848 0.98587 0.0
C727 C 0.12632 0.57599 0.88158 0.0
C728 C 0.13143 0.55061 -0.00239 0.0
C729 C 0.12715 0.53998 0.90512 0.0
C730 C 0.12209 0.54757 0.80231 0.0
C731 C 0.12168 0.56525 0.79071 0.0
C732 C 0.12837 0.52097 0.91105 0.0
C733 C 0.11427 0.51126 0.87407 0.0
C734 C 0.14373 0.51239 0.94086 0.0
C735 C 0.15939 0.52173 0.97541 0.0
C736 C 0.167 0.53371 0.90191 0.0
C737 C 0.18177 0.54247 0.93533 0.0
C738 C 0.18918 0.53917 0.04139 0.0
C739 C 0.18183 0.52712 0.11426 0.0
C740 C 0.16701 0.51839 0.08146 0.0
C741 C 0.14019 0.4493 0.67971 0.0
C742 C 0.13834 0.43461 0.74763 0.0
C743 C 0.13805 0.46553 0.72588 0.0
C744 C 0.13421 0.46759 0.84148 0.0
C745 C 0.13276 0.45307 0.91118 0.0
C746 C 0.13466 0.43665 0.86431 0.0
C747 C 0.131 0.48511 0.88466 0.0
C748 C 0.14477 0.49455 0.92854 0.0
C749 C 0.11543 0.49352 0.85982 0.0
C750 C 0.10058 0.48412 0.81195 0.0
C751 C 0.09358 0.47012 0.87046 0.0
C752 C 0.07996 0.46094 0.82341 0.0
C753 C 0.0731 0.46575 0.71833 0.0
C754 C 0.07984 0.47979 0.66018 0.0
C755 C 0.09352 0.48897 0.70668 0.0
H756 H 0.06255 0.45861 0.68208 0.0
H757 H 0.20065 0.5459 0.06704 0.0
H758 H 0.43605 0.91979 0.14589 0.0
H759 H 0.46591 0.91834 0.08445 0.0
H760 H 0.4656 0.86385 0.13227 0.0
H761 H 0.43557 0.86519 0.19418 0.0
H762 H 0.49299 0.87861 0.23633 0.0
H763 H 0.46801 0.88052 0.86613 0.0
H764 H 0.44933 0.89126 0.71284 0.0
H765 H 0.47554 0.93939 0.7194 0.0
H766 H 0.49424 0.92901 0.87393 0.0
H767 H 0.57815 0.86949 0.03207 0.0
H768 H 0.54696 0.8667 0.04354 0.0
H769 H 0.54158 0.921 -0.00051 0.0
H770 H 0.57275 0.9239 0.98709 0.0
H771 H 0.5168 0.90406 0.88306 0.0
H772 H 0.53981 0.90322 0.2627 0.0
H773 H 0.55838 0.89301 0.41833 0.0
H774 H 0.53553 0.84332 0.39593 0.0
H775 H 0.51699 0.85318 0.23889 0.0
C776 C 0.44219 0.90742 0.14139 0.0
C777 C 0.43333 0.89259 0.17493 0.0
C778 C 0.45932 0.90662 0.1059 0.0
C779 C 0.46808 0.89098 0.10314 0.0
C780 C 0.45914 0.87607 0.13349 0.0
C781 C 0.44192 0.87684 0.16816 0.0
C782 C 0.48682 0.89046 0.07605 0.0
C783 C 0.49814 0.88385 0.15792 0.0
C784 C 0.49368 0.8977 0.97518 0.0
C785 C 0.48244 0.90402 0.88239 0.0
C786 C 0.4697 0.89344 0.83561 0.0
C787 C 0.45912 0.89946 0.74832 0.0
C788 C 0.46122 0.91601 0.70658 0.0
C789 C 0.47392 0.92657 0.7519 0.0
C790 C 0.48453 0.92062 0.83925 0.0
C791 C 0.57035 0.88083 0.02309 0.0
C792 C 0.57806 0.89695 0.00927 0.0
C793 C 0.55248 0.87922 0.03035 0.0
C794 C 0.54185 0.89367 0.02423 0.0
C795 C 0.54945 0.90965 0.00483 0.0
C796 C 0.56733 0.91129 -0.00212 0.0
C797 C 0.52293 0.89228 0.04359 0.0
C798 C 0.51161 0.89861 0.9607 0.0
C799 C 0.51604 0.88484 0.14376 0.0
C800 C 0.52716 0.87888 0.23815 0.0
C801 C 0.53885 0.89008 0.29029 0.0
C802 C 0.54935 0.88436 0.37887 0.0
C803 C 0.54817 0.86752 0.41676 0.0
C804 C 0.53645 0.85636 0.36632 0.0
C805 C 0.52594 0.86201 0.27755 0.0
H806 H 0.5563 0.86312 0.4854 0.0
H807 H 0.45302 0.92064 0.63898 0.0
H808 H 0.87853 0.93155 0.35243 0.0
H809 H 0.87925 0.96107 0.28009 0.0
H810 H 0.88404 0.97965 0.62452 0.0
H811 H 0.88286 0.95073 0.69615 0.0
H812 H 0.86094 0.99736 0.5199 0.0
H813 H 0.91852 0.97722 0.42351 0.0
H814 H 0.93892 0.95843 0.32339 0.0
H815 H 0.91793 0.97383 0.00133 0.0
H816 H 0.89728 0.99259 0.09977 0.0
H817 H 0.89847 0.07612 0.55604 0.0
H818 H 0.8951 0.0454 0.54525 0.0
H819 H 0.8822 0.04929 0.18921 0.0
H820 H 0.88568 0.08054 0.19916 0.0
H821 H 0.90446 0.02007 0.25147 0.0
H822 H 0.85039 0.04437 0.35406 0.0
H823 H 0.83127 0.0638 0.45962 0.0
H824 H 0.84626 0.04048 0.77515 0.0
H825 H 0.86568 0.02109 0.6717 0.0
C826 C 0.87977 0.94198 0.41224 0.0
C827 C 0.88049 0.93875 0.53012 0.0
C828 C 0.88024 0.95885 0.37089 0.0
C829 C 0.88169 0.97269 0.44679 0.0
C830 C 0.88272 0.96931 0.56395 0.0
C831 C 0.88207 0.95266 0.60493 0.0
C832 C 0.88183 0.99085 0.40796 0.0
C833 C 0.87047 1.00226 0.46103 0.0
C834 C 0.89379 0.99733 0.32777 0.0
C835 C 0.90624 0.98613 0.26896 0.0
C836 C 0.91818 0.9765 0.33139 0.0
C837 C 0.9298 0.96588 0.27496 0.0
C838 C 0.92968 0.96489 0.1561 0.0
C839 C 0.91798 0.97458 0.0934 0.0
C840 C 0.90633 0.98521 0.14944 0.0
C841 C 0.89504 0.07055 0.47479 0.0
C842 C 0.89213 0.08087 0.37873 0.0
C843 C 0.89314 0.05291 0.46885 0.0
C844 C 0.88814 0.04504 0.36699 0.0
C845 C 0.88602 0.05512 0.26885 0.0
C846 C 0.88798 0.07295 0.27467 0.0
C847 C 0.88417 0.02646 0.36822 0.0
C848 C 0.89469 0.01505 0.30807 0.0
C849 C 0.87148 0.0199 0.44252 0.0
C850 C 0.85954 0.03131 0.505 0.0
C851 C 0.84967 0.04344 0.446 0.0
C852 C 0.83878 0.05444 0.50548 0.0
C853 C 0.83756 0.05338 0.62402 0.0
C854 C 0.84721 0.04128 0.68332 0.0
C855 C 0.85814 0.03026 0.62426 0.0
H856 H 0.82913 0.06192 0.66992 0.0
H857 H 0.93869 0.95666 0.11257 0.0
H858 H 0.9509 0.10481 0.44117 0.0
H859 H 0.97919 0.10387 0.52871 0.0
H860 H 0.96889 0.15125 0.70165 0.0
H861 H 0.94012 0.15215 0.61443 0.0
H862 H 1.00107 0.15016 0.58087 0.0
H863 H 0.97138 0.11768 0.86088 0.0
H864 H 0.95157 0.09562 0.93203 0.0
H865 H 0.98239 0.05665 0.77712 0.0
H866 H 1.00227 0.07849 0.70358 0.0
H867 H 0.08628 0.13886 0.79133 0.0
H868 H 0.05525 0.14393 0.79738 0.0
H869 H 0.04643 0.09434 0.64993 0.0
H870 H 0.07716 0.08905 0.6465 0.0
H871 H 0.02247 0.10041 0.79959 0.0
H872 H 0.04802 0.13233 0.48833 0.0
H873 H 0.06753 0.15367 0.40425 0.0
H874 H 0.04426 0.19294 0.60676 0.0
H875 H 0.02474 0.17177 0.69305 0.0
C876 C 0.95452 0.11496 0.49896 0.0
C877 C 0.94325 0.12856 0.52096 0.0
C878 C 0.97071 0.11437 0.54928 0.0
C879 C 0.97618 0.12743 0.62222 0.0
C880 C 0.96491 0.14099 0.64591 0.0
C881 C 0.94847 0.14144 0.59672 0.0
C882 C 0.99402 0.12703 0.66763 0.0
C883 C 1.00568 0.13954 0.63144 0.0
C884 C 1.00014 0.11298 0.73149 0.0
C885 C 0.98829 0.09975 0.77625 0.0
C886 C 0.97388 0.10441 0.84132 0.0
C887 C 0.96265 0.09194 0.88219 0.0
C888 C 0.96571 0.07474 0.859 0.0
C889 C 0.98004 0.06998 0.79506 0.0
C890 C 0.99132 0.0824 0.75393 0.0
C891 C 0.0777 0.12889 0.76259 0.0
C892 C 0.08427 0.11358 0.71765 0.0
C893 C 0.05994 0.13187 0.76512 0.0
C894 C 0.04841 0.11966 0.722 0.0
C895 C 0.05496 0.10402 0.68341 0.0
C896 C 0.07262 0.10102 0.68125 0.0
C897 C 0.02967 0.12328 0.70989 0.0
C898 C 0.01783 0.11131 0.75182 0.0
C899 C 0.02342 0.13773 0.65018 0.0
C900 C 0.0351 0.15045 0.59819 0.0
C901 C 0.04716 0.1455 0.5155 0.0
C902 C 0.0582 0.15756 0.46737 0.0
C903 C 0.05717 0.17464 0.50046 0.0
C904 C 0.04506 0.1797 0.58145 0.0
C905 C 0.03401 0.16768 0.62998 0.0
H906 H 0.06573 0.18396 0.46311 0.0
H907 H 0.95699 0.06511 0.89068 0.0
H908 H 0.11188 0.93262 0.25992 0.0
H909 H 0.11069 0.96388 0.2763 0.0
H910 H 0.16553 0.96552 0.31689 0.0
H911 H 0.16695 0.93459 0.29755 0.0
H912 H 0.14171 0.98127 0.50117 0.0
H913 H 0.15546 0.97967 0.09685 0.0
H914 H 0.15009 0.97172 0.89691 0.0
H915 H 0.10211 0.99847 0.90454 0.0
H916 H 0.10704 1.00629 0.10549 0.0
H917 H 0.16994 0.06447 0.5405 0.0
H918 H 0.16633 0.03527 0.47475 0.0
H919 H 0.11658 0.04797 0.33939 0.0
H920 H 0.1203 0.07763 0.40397 0.0
H921 H 0.13331 0.02505 0.201 0.0
H922 H 0.119 0.02815 0.59423 0.0
H923 H 0.12247 0.03591 0.79646 0.0
H924 H 0.16857 1.00617 0.81436 0.0
H925 H 0.16547 0.99834 0.61189 0.0
C926 C 0.12372 0.93968 0.26991 0.0
C927 C 0.13951 0.93103 0.2773 0.0
C928 C 0.123 0.95753 0.27926 0.0
C929 C 0.13803 0.96701 0.29772 0.0
C930 C 0.15379 0.95847 0.30223 0.0
C931 C 0.15456 0.94074 0.29082 0.0
C932 C 0.13737 0.98561 0.32263 0.0
C933 C 0.13998 0.99085 0.43546 0.0
C934 C 0.13446 0.99807 0.23753 0.0
C935 C 0.13147 0.99328 0.11697 0.0
C936 C 0.14363 0.98361 0.05659 0.0
C937 C 0.14068 0.97916 0.94297 0.0
C938 C 0.12569 0.98444 0.8884 0.0
C939 C 0.11365 0.99427 0.94719 0.0
C940 C 0.11652 0.99872 0.06094 0.0
C941 C 0.1583 0.06118 0.49522 0.0
C942 C 0.14535 0.07338 0.47834 0.0
C943 C 0.15622 0.0444 0.45811 0.0
C944 C 0.14099 0.03923 0.40464 0.0
C945 C 0.12839 0.05159 0.38125 0.0
C946 C 0.13055 0.06856 0.4178 0.0
C947 C 0.13819 0.02076 0.3794 0.0
C948 C 0.13486 0.0155 0.26704 0.0
C949 C 0.14017 0.00819 0.46533 0.0
C950 C 0.14208 0.0128 0.58745 0.0
C951 C 0.12995 0.02337 0.64102 0.0
C952 C 0.13185 0.02778 0.75572 0.0
C953 C 0.1458 0.02164 0.81798 0.0
C954 C 0.15782 0.011 0.76582 0.0
C955 C 0.15597 1.00653 0.65118 0.0
H956 H 0.1472 0.025 0.90691 0.0
H957 H 0.12349 0.98108 0.80019 0.0
H958 H 0.93652 0.86585 0.69671 0.0
H959 H 0.96776 0.86263 0.68858 0.0
H960 H 0.9737 0.91676 0.73999 0.0
H961 H 0.94263 0.92008 0.74514 0.0
H962 H 0.992 0.90741 0.5661 0.0
H963 H 0.98472 0.88536 0.94769 0.0
H964 H 0.9726 0.86615 0.09337 0.0
H965 H 0.99263 0.82279 0.91429 0.0
H966 H 1.00472 0.84174 0.76687 0.0
H967 H 0.08064 0.91443 0.62441 0.0
H968 H 0.05034 0.9135 0.67583 0.0
H969 H 0.04899 0.85967 0.60213 0.0
H970 H 0.07953 0.86044 0.55249 0.0
H971 H 0.02843 0.86705 0.78315 0.0
H972 H 0.03558 0.88821 0.4041 0.0
H973 H 0.04751 0.90667 0.25357 0.0
H974 H 0.02706 0.95085 0.42133 0.0
H975 H 0.01519 0.93266 0.57377 0.0
C976 C 0.9445 0.87701 0.70875 0.0
C977 C 0.93703 0.89324 0.72125 0.0
C978 C 0.96241 0.87515 0.70412 0.0
C979 C 0.97323 0.88946 0.71367 0.0
C980 C 0.96573 0.90552 0.73157 0.0
C981 C 0.9479 0.90739 0.73503 0.0
C982 C 0.99221 0.88809 0.69661 0.0
C983 C 0.99994 0.89876 0.61518 0.0
C984 C 1.00264 0.87634 0.7568 0.0
C985 C 0.99549 0.86496 0.84574 0.0
C986 C 0.98644 0.87172 0.939 0.0
C987 C 0.9796 0.86088 0.02196 0.0
C988 C 0.98181 0.84326 0.01293 0.0
C989 C 0.99092 0.83644 0.92111 0.0
C990 C 0.99779 0.84722 0.83793 0.0
C991 C 0.07402 0.90231 0.62089 0.0
C992 C 0.08255 0.88755 0.58316 0.0
C993 C 0.05662 0.90181 0.64988 0.0
C994 C 0.0472 0.8866 0.64041 0.0
C995 C 0.05591 0.87159 0.60958 0.0
C996 C 0.07341 0.87206 0.58124 0.0
C997 C 0.02815 0.88673 0.65521 0.0
C998 C 0.02043 0.87575 0.73489 0.0
C999 C 0.01763 0.89811 0.59285 0.0
C1000 C 0.02463 0.90908 0.50088 0.0
C1001 C 0.03373 0.90187 0.40929 0.0
C1002 C 0.04047 0.91229 0.32357 0.0
C1003 C 0.03808 0.92993 0.32804 0.0
C1004 C 0.02891 0.93718 0.41807 0.0
C1005 C 0.02216 0.92683 0.5041 0.0
H1006 H 0.04331 0.93797 0.26161 0.0
H1007 H 0.97649 0.83489 0.07721 0.0
H1008 H 0.35792 0.32658 0.26313 0.0
H1009 H 0.36004 0.29565 0.25445 0.0
H1010 H 0.39412 0.29964 0.96626 0.0
H1011 H 0.39191 0.33089 0.97375 0.0
H1012 H 0.3711 0.27419 0.93768 0.0
H1013 H 0.40919 0.29174 0.23571 0.0
H1014 H 0.41775 0.30617 0.41327 0.0
H1015 H 0.38119 0.27645 0.60162 0.0
H1016 H 0.37218 0.26204 0.42484 0.0
H1017 H 0.40106 0.18952 0.95176 0.0
H1018 H 0.39878 0.22044 0.95738 0.0
H1019 H 0.36815 0.21704 0.26279 0.0
H1020 H 0.37094 0.18583 0.25964 0.0
H1021 H 0.38936 0.24236 0.28213 0.0
H1022 H 0.35091 0.22496 0.98688 0.0
H1023 H 0.34175 0.21064 0.81022 0.0
H1024 H 0.37808 0.24005 0.61786 0.0
H1025 H 0.38767 0.25436 0.79363 0.0
C1026 C 0.36583 0.32095 0.19727 0.0
C1027 C 0.37486 0.33128 0.11955 0.0
C1028 C 0.36709 0.3032 0.19293 0.0
C1029 C 0.37754 0.29526 0.11143 0.0
C1030 C 0.38608 0.30547 0.03062 0.0
C1031 C 0.38478 0.32333 0.03474 0.0
C1032 C 0.37952 0.27634 0.11147 0.0
C1033 C 0.37535 0.26724 0.01243 0.0
C1034 C 0.38455 0.26719 0.2102 0.0
C1035 C 0.38987 0.27595 0.31662 0.0
C1036 C 0.40284 0.2884 0.31474 0.0
C1037 C 0.4078 0.29656 0.41533 0.0
C1038 C 0.39998 0.29227 0.5186 0.0
C1039 C 0.38721 0.27979 0.52153 0.0
C1040 C 0.38217 0.27162 0.42114 0.0
C1041 C 0.39384 0.19531 0.02048 0.0
C1042 C 0.38606 0.18517 0.10487 0.0
C1043 C 0.39244 0.21305 0.02306 0.0
C1044 C 0.3829 0.22118 0.10866 0.0
C1045 C 0.37548 0.21111 0.19512 0.0
C1046 C 0.37708 0.19327 0.19345 0.0
C1047 C 0.38092 0.24014 0.10825 0.0
C1048 C 0.38509 0.24927 0.20727 0.0
C1049 C 0.37579 0.24931 0.00964 0.0
C1050 C 0.37014 0.2406 0.90381 0.0
C1051 C 0.35706 0.22826 0.90712 0.0
C1052 C 0.35178 0.22016 0.80707 0.0
C1053 C 0.35936 0.22439 0.70295 0.0
C1054 C 0.37224 0.23676 0.69861 0.0
C1055 C 0.3776 0.24487 0.79843 0.0
H1056 H 0.35523 0.21812 0.62558 0.0
H1057 H 0.40386 0.29858 0.59639 0.0
H1058 H 0.19263 0.60815 0.65808 0.0
H1059 H 0.22366 0.61044 0.68431 0.0
H1060 H 0.21575 0.64843 0.94508 0.0
H1061 H 0.18487 0.64702 0.91288 0.0
H1062 H 0.24265 0.65659 0.85059 0.0
H1063 H 0.224 0.60318 0.99686 0.0
H1064 H 0.2101 0.57497 0.99683 0.0
H1065 H 0.24433 0.558 0.73362 0.0
H1066 H 0.25824 0.58625 0.73062 0.0
H1067 H 0.32641 0.60787 0.06347 0.0
H1068 H 0.29527 0.61001 0.04305 0.0
H1069 H 0.30194 0.64923 0.78855 0.0
H1070 H 0.3329 0.64797 0.8155 0.0
H1071 H 0.27528 0.60273 0.89138 0.0
H1072 H 0.26752 0.67347 0.74829 0.0
H1073 H 0.28041 0.70156 0.7882 0.0
H1074 H 0.29729 0.68376 0.11534 0.0
H1075 H 0.28432 0.65564 0.078 0.0
C1076 C 0.19756 0.61721 0.71947 0.0
C1077 C 0.18627 0.62738 0.78336 0.0
C1078 C 0.21534 0.61838 0.73559 0.0
C1079 C 0.22224 0.62924 0.81944 0.0
C1080 C 0.21094 0.63989 0.88007 0.0
C1081 C 0.19321 0.63908 0.86153 0.0
C1082 C 0.24107 0.62917 0.84652 0.0
C1083 C 0.24975 0.64478 0.85952 0.0
C1084 C 0.25046 0.61385 0.86198 0.0
C1085 C 0.24205 0.59688 0.86278 0.0
C1086 C 0.22847 0.59347 0.93835 0.0
C1087 C 0.22061 0.57746 0.93894 0.0
C1088 C 0.22633 0.56469 0.86524 0.0
C1089 C 0.23991 0.56791 0.7906 0.0
C1090 C 0.24778 0.58392 0.78938 0.0
C1091 C 0.32117 0.61722 0.00517 0.0
C1092 C 0.33213 0.62789 0.94225 0.0
C1093 C 0.30333 0.61836 0.99267 0.0
C1094 C 0.29597 0.62992 0.9148 0.0
C1095 C 0.30701 0.64057 0.85192 0.0
C1096 C 0.32481 0.63979 0.86699 0.0
C1097 C 0.27692 0.63015 0.89527 0.0
C1098 C 0.26821 0.61456 0.88304 0.0
C1099 C 0.26735 0.64548 0.88627 0.0
C1100 C 0.27509 0.6624 0.90976 0.0
C1101 C 0.27393 0.67557 0.82889 0.0
C1102 C 0.28126 0.69149 0.85104 0.0
C1103 C 0.28972 0.69442 0.95408 0.0
C1104 C 0.2908 0.68145 0.03537 0.0
C1105 C 0.28348 0.66552 0.0137 0.0
H1106 H 0.29539 0.70675 0.97102 0.0
H1107 H 0.22029 0.55227 0.86611 0.0
H1108 H 0.65969 0.82743 0.96496 0.0
H1109 H 0.65933 0.79643 0.97609 0.0
H1110 H 0.62505 0.79901 0.26407 0.0
H1111 H 0.62575 0.83031 0.25513 0.0
H1112 H 0.64771 0.77456 0.29612 0.0
H1113 H 0.61111 0.79006 0.98373 0.0
H1114 H 0.60344 0.80392 0.80222 0.0
H1115 H 0.64292 0.77579 0.63006 0.0
H1116 H 0.65096 0.76189 0.81083 0.0
H1117 H 0.61809 0.69012 0.28375 0.0
H1118 H 0.62035 0.72097 0.27139 0.0
H1119 H 0.65427 0.71611 0.98287 0.0
H1120 H 0.65163 0.68487 0.99302 0.0
H1121 H 0.63285 0.74161 0.94927 0.0
H1122 H 0.66902 0.72554 0.26014 0.0
H1123 H 0.67671 0.7116 0.44132 0.0
H1124 H 0.63825 0.74073 0.61613 0.0
H1125 H 0.63019 0.75473 0.43577 0.0
C1126 C 0.65215 0.82145 0.03141 0.0
C1127 C 0.64263 0.83139 0.10869 0.0
C1128 C 0.65186 0.80365 0.03708 0.0
C1129 C 0.64179 0.79525 0.11885 0.0
C1130 C 0.63281 0.80514 0.19938 0.0
C1131 C 0.63325 0.82305 0.1945 0.0
C1132 C 0.6406 0.77622 0.11942 0.0
C1133 C 0.64422 0.76739 0.22063 0.0
C1134 C 0.63656 0.76671 0.02005 0.0
C1135 C 0.63176 0.77507 0.9112 0.0
C1136 C 0.61825 0.78693 0.90738 0.0
C1137 C 0.61381 0.79477 0.80455 0.0
C1138 C 0.62271 0.79076 0.70473 0.0
C1139 C 0.63604 0.77888 0.70748 0.0
C1140 C 0.64054 0.77101 0.81008 0.0
C1141 C 0.62603 0.69555 0.21719 0.0
C1142 C 0.63482 0.68497 0.1399 0.0
C1143 C 0.6274 0.71327 0.21079 0.0
C1144 C 0.63787 0.72098 0.12833 0.0
C1145 C 0.64623 0.7105 0.04817 0.0
C1146 C 0.6447 0.69264 0.05376 0.0
C1147 C 0.63986 0.73995 0.12618 0.0
C1148 C 0.6364 0.74877 0.02469 0.0
C1149 C 0.64406 0.74946 0.22528 0.0
C1150 C 0.64889 0.74106 0.33405 0.0
C1151 C 0.66211 0.72889 0.33702 0.0
C1152 C 0.66656 0.721 0.43965 0.0
C1153 C 0.65795 0.72526 0.54012 0.0
C1154 C 0.6449 0.73745 0.53823 0.0
C1155 C 0.6404 0.74537 0.43582 0.0
H1156 H 0.66142 0.71914 0.61948 0.0
H1157 H 0.61926 0.79684 0.62521 0.0
H1158 H 0.68689 0.3644 0.01936 0.0
H1159 H 0.71831 0.36216 0.02142 0.0
H1160 H 0.72173 0.4044 0.787 0.0
H1161 H 0.69062 0.40643 0.78291 0.0
H1162 H 0.74124 0.37995 0.71446 0.0
H1163 H 0.7329 0.4072 0.07858 0.0
H1164 H 0.72168 0.41055 0.27379 0.0
H1165 H 0.74488 0.36312 0.37135 0.0
H1166 H 0.75612 0.35941 0.17646 0.0
H1167 H 0.83204 0.39497 0.74767 0.0
H1168 H 0.80059 0.39648 0.74534 0.0
H1169 H 0.7982 0.3557 0.99179 0.0
H1170 H 0.82939 0.35463 -0.00277 0.0
H1171 H 0.77803 0.379 0.05815 0.0
H1172 H 0.78653 0.35161 0.69589 0.0
H1173 H 0.79767 0.34792 0.50075 0.0
H1174 H 0.77412 0.39499 0.39932 0.0
H1175 H 0.76295 0.39904 0.59406 0.0
C1176 C 0.69438 0.37335 0.96972 0.0
C1177 C 0.68621 0.38554 0.90064 0.0
C1178 C 0.71236 0.37208 0.97092 0.0
C1179 C 0.72251 0.38312 0.90426 0.0
C1180 C 0.71429 0.39562 0.83847 0.0
C1181 C 0.69643 0.3968 0.83657 0.0
C1182 C 0.74158 0.38132 0.89779 0.0
C1183 C 0.74929 0.37996 0.78975 0.0
C1184 C 0.75216 0.38083 0.9957 0.0
C1185 C 0.74516 0.38292 0.11244 0.0
C1186 C 0.73546 0.3974 0.14132 0.0
C1187 C 0.72914 0.39939 0.25204 0.0
C1188 C 0.73252 0.38703 0.33481 0.0
C1189 C 0.74222 0.37265 0.30704 0.0
C1190 C 0.7486 0.37062 0.19655 0.0
C1191 C 0.82476 0.38616 0.79979 0.0
C1192 C 0.83321 0.37472 0.87281 0.0
C1193 C 0.80675 0.387 0.7984 0.0
C1194 C 0.79686 0.37615 0.86823 0.0
C1195 C 0.8054 0.36431 0.93775 0.0
C1196 C 0.82329 0.36367 0.94043 0.0
C1197 C 0.77774 0.37762 0.87469 0.0
C1198 C 0.77 0.37894 0.98275 0.0
C1199 C 0.76713 0.37801 0.77677 0.0
C1200 C 0.77408 0.37573 0.66004 0.0
C1201 C 0.78387 0.36126 0.63228 0.0
C1202 C 0.79014 0.35908 0.52162 0.0
C1203 C 0.78665 0.37124 0.43779 0.0
C1204 C 0.77687 0.38561 0.46444 0.0
C1205 C 0.77053 0.38783 0.57487 0.0
H1206 H 0.79147 0.3695 0.35208 0.0
H1207 H 0.72767 0.38862 0.42057 0.0
H1208 H 0.86869 0.68408 0.74515 0.0
H1209 H 0.86524 0.71523 0.75033 0.0
H1210 H 0.90352 0.72046 0.4873 0.0
H1211 H 0.90724 0.68971 0.48323 0.0
H1212 H 0.90811 0.74428 0.64156 0.0
H1213 H 0.86016 0.72253 0.42917 0.0
H1214 H 0.83456 0.70467 0.39849 0.0
H1215 H 0.80936 0.72901 0.68012 0.0
H1216 H 0.83493 0.74684 0.71361 0.0
H1217 H 0.89099 0.82977 0.47221 0.0
H1218 H 0.893 0.79852 0.46192 0.0
H1219 H 0.85661 0.79409 0.73707 0.0
H1220 H 0.85449 0.82505 0.74729 0.0
H1221 H 0.85083 0.76995 0.57693 0.0
H1222 H 0.89902 0.79147 0.78936 0.0
H1223 H 0.92471 0.80921 0.81965 0.0
H1224 H 0.94947 0.78517 0.53513 0.0
H1225 H 0.92381 0.76745 0.50218 0.0
C1226 C 0.87649 0.69191 0.68951 0.0
C1227 C 0.88817 0.68435 0.61343 0.0
C1228 C 0.87443 0.70971 0.69186 0.0
C1229 C 0.88396 0.72025 0.61795 0.0
C1230 C 0.89599 0.71269 0.54499 0.0
C1231 C 0.89805 0.69502 0.54259 0.0
C1232 C 0.88131 0.73909 0.61379 0.0
C1233 C 0.89559 0.74985 0.62618 0.0
C1234 C 0.86497 0.74647 0.5953 0.0
C1235 C 0.84953 0.73589 0.57464 0.0
C1236 C 0.84921 0.72399 0.48507 0.0
C1237 C 0.8347 0.71388 0.46711 0.0
C1238 C 0.82036 0.71567 0.5375 0.0
C1239 C 0.82049 0.72762 0.62579 0.0
C1240 C 0.83498 0.73773 0.64428 0.0
C1241 C 0.88319 0.82211 0.5289 0.0
C1242 C 0.87267 0.82991 0.61104 0.0
C1243 C 0.88444 0.80426 0.52359 0.0
C1244 C 0.87513 0.79392 0.59995 0.0
C1245 C 0.86395 0.80173 0.67754 0.0
C1246 C 0.8628 0.81948 0.68343 0.0
C1247 C 0.87763 0.77508 0.60406 0.0
C1248 C 0.86333 0.76434 0.59199 0.0
C1249 C 0.89396 0.7677 0.6225 0.0
C1250 C 0.90943 0.77827 0.64255 0.0
C1251 C 0.90989 0.79006 0.73272 0.0
C1252 C 0.92446 0.8001 0.75046 0.0
C1253 C 0.9387 0.79836 0.67915 0.0
C1254 C 0.93842 0.78653 0.59016 0.0
C1255 C 0.92387 0.77648 0.57195 0.0
H1256 H 0.94996 0.80614 0.69303 0.0
H1257 H 0.80915 0.70783 0.52348 0.0
H1258 H 0.83559 0.15318 0.50217 0.0
H1259 H 0.80417 0.15567 0.50706 0.0
H1260 H 0.80006 0.11402 0.26871 0.0
H1261 H 0.83113 0.11179 0.26164 0.0
H1262 H 0.7808 0.13866 0.1995 0.0
H1263 H 0.78927 0.11076 0.56089 0.0
H1264 H 0.80056 0.10689 0.75536 0.0
H1265 H 0.77764 0.1542 0.85829 0.0
H1266 H 0.76633 0.15843 0.66414 0.0
H1267 H 0.69026 0.12301 0.23782 0.0
H1268 H 0.72169 0.12171 0.23444 0.0
H1269 H 0.72398 0.16286 0.47779 0.0
H1270 H 0.69278 0.16382 0.4839 0.0
H1271 H 0.74426 0.13926 0.54483 0.0
H1272 H 0.7354 0.16693 0.1837 0.0
H1273 H 0.72407 0.1707 0.98923 0.0
H1274 H 0.74772 0.12378 0.88558 0.0
H1275 H 0.75908 0.11966 0.07965 0.0
C1276 C 0.82794 0.14443 0.45223 0.0
C1277 C 0.83589 0.13237 0.38101 0.0
C1278 C 0.80997 0.14583 0.45507 0.0
C1279 C 0.79964 0.13503 0.38806 0.0
C1280 C 0.80764 0.12262 0.3204 0.0
C1281 C 0.82548 0.12133 0.31674 0.0
C1282 C 0.78059 0.13701 0.38277 0.0
C1283 C 0.77281 0.13858 0.27516 0.0
C1284 C 0.77009 0.1374 0.48121 0.0
C1285 C 0.77715 0.13502 0.59746 0.0
C1286 C 0.78679 0.12043 0.62463 0.0
C1287 C 0.79315 0.11815 0.73494 0.0
C1288 C 0.78987 0.13032 0.81903 0.0
C1289 C 0.78022 0.14481 0.79297 0.0
C1290 C 0.77381 0.14714 0.68288 0.0
C1291 C 0.6975 0.13195 0.289 0.0
C1292 C 0.689 0.14348 0.36127 0.0
C1293 C 0.7155 0.13123 0.28702 0.0
C1294 C 0.72534 0.14223 0.3557 0.0
C1295 C 0.71679 0.15414 0.42457 0.0
C1296 C 0.69889 0.15472 0.42761 0.0
C1297 C 0.74445 0.14084 0.36146 0.0
C1298 C 0.75225 0.13939 0.46915 0.0
C1299 C 0.75497 0.14055 0.26306 0.0
C1300 C 0.74792 0.14289 0.1467 0.0
C1301 C 0.73804 0.15733 0.11976 0.0
C1302 C 0.73166 0.15956 0.00947 0.0
C1303 C 0.73513 0.14746 0.92519 0.0
C1304 C 0.745 0.13312 0.95103 0.0
C1305 C 0.75144 0.13085 0.06108 0.0
H1306 H 0.73022 0.14923 0.83978 0.0
H1307 H 0.79475 0.12851 0.90447 0.0
H1308 H 0.1576 0.32255 0.46698 0.0
H1309 H 0.15677 0.29158 0.47693 0.0
H1310 H 0.12454 0.29443 0.77507 0.0
H1311 H 0.12574 0.32574 0.76727 0.0
H1312 H 0.14724 0.26969 0.79929 0.0
H1313 H 0.10861 0.2858 0.49948 0.0
H1314 H 0.09974 0.29984 0.32102 0.0
H1315 H 0.13751 0.27132 0.13533 0.0
H1316 H 0.14679 0.2573 0.31295 0.0
H1317 H 0.1181 0.1848 0.78829 0.0
H1318 H 0.11999 0.21572 0.77938 0.0
H1319 H 0.15201 0.21202 0.48069 0.0
H1320 H 0.14981 0.18076 0.48769 0.0
H1321 H 0.12987 0.23713 0.45599 0.0
H1322 H 0.16849 0.22087 0.75267 0.0
H1323 H 0.17783 0.20683 0.93004 0.0
H1324 H 0.14071 0.23552 0.1203 0.0
H1325 H 0.13097 0.24956 0.94382 0.0
C1326 C 0.15038 0.31665 0.53527 0.0
C1327 C 0.1416 0.32667 0.61586 0.0
C1328 C 0.14983 0.29886 0.54031 0.0
C1329 C 0.14021 0.29055 0.62479 0.0
C1330 C 0.13193 0.3005 0.70827 0.0
C1331 C 0.13265 0.31841 0.70399 0.0
C1332 C 0.13882 0.27154 0.62523 0.0
C1333 C 0.14318 0.2626 0.72471 0.0
C1334 C 0.13405 0.26215 0.52681 0.0
C1335 C 0.12852 0.27063 0.41988 0.0
C1336 C 0.11513 0.28263 0.42079 0.0
C1337 C 0.11001 0.29057 0.31972 0.0
C1338 C 0.11809 0.28651 0.21697 0.0
C1339 C 0.13128 0.27448 0.21501 0.0
C1340 C 0.13647 0.26653 0.31587 0.0
C1341 C 0.12553 0.1905 0.72022 0.0
C1342 C 0.13392 0.18024 0.63909 0.0
C1343 C 0.12669 0.20825 0.71579 0.0
C1344 C 0.13651 0.2163 0.63121 0.0
C1345 C 0.14448 0.20614 0.54755 0.0
C1346 C 0.14319 0.18827 0.55138 0.0
C1347 C 0.13823 0.23529 0.63016 0.0
C1348 C 0.13394 0.24422 0.53057 0.0
C1349 C 0.14312 0.24466 0.72834 0.0
C1350 C 0.14888 0.23614 0.83465 0.0
C1351 C 0.16221 0.22407 0.83213 0.0
C1352 C 0.1676 0.21614 0.93258 0.0
C1353 C 0.15983 0.22025 0.03631 0.0
C1354 C 0.14669 0.23233 0.03986 0.0
C1355 C 0.14124 0.24029 0.93963 0.0
H1356 H 0.16403 0.2141 0.11399 0.0
H1357 H 0.1141 0.29266 0.13881 0.0
H1358 H 0.19212 0.89694 0.60856 0.0
H1359 H 0.22306 0.89462 0.57701 0.0
H1360 H 0.21403 0.8603 0.29629 0.0
H1361 H 0.18326 0.86197 0.33061 0.0
H1362 H 0.24055 0.84979 0.40046 0.0
H1363 H 0.22347 0.90465 0.26345 0.0
H1364 H 0.21008 0.93308 0.27495 0.0
H1365 H 0.24487 0.94717 0.54209 0.0
H1366 H 0.2583 0.91872 0.5334 0.0
H1367 H 0.32399 0.85765 0.15408 0.0
H1368 H 0.29295 0.85909 0.18465 0.0
H1369 H 0.30093 0.89115 0.47826 0.0
H1370 H 0.33178 0.89024 0.44609 0.0
H1371 H 0.27485 0.90273 0.36322 0.0
H1372 H 0.29182 0.84617 0.49172 0.0
H1373 H 0.30447 0.81757 0.46766 0.0
H1374 H 0.26914 0.8069 0.1966 0.0
H1375 H 0.25643 0.8355 0.2181 0.0
C1376 C 0.19674 0.88874 0.54098 0.0
C1377 C 0.18514 0.87971 0.47199 0.0
C1378 C 0.21447 0.88753 0.52223 0.0
C1379 C 0.22101 0.87759 0.43227 0.0
C1380 C 0.20944 0.86812 0.36595 0.0
C1381 C 0.19177 0.8691 0.38578 0.0
C1382 C 0.2398 0.87723 0.40561 0.0
C1383 C 0.24797 0.86141 0.39114 0.0
C1384 C 0.24969 0.89231 0.39399 0.0
C1385 C 0.24178 0.9095 0.39851 0.0
C1386 C 0.2282 0.91378 0.32512 0.0
C1387 C 0.2206 0.92989 0.3311 0.0
C1388 C 0.22659 0.94191 0.40938 0.0
C1389 C 0.24022 0.93784 0.48161 0.0
C1390 C 0.24784 0.92173 0.47616 0.0
C1391 C 0.31913 0.86508 0.22478 0.0
C1392 C 0.33047 0.87376 0.29775 0.0
C1393 C 0.30134 0.8658 0.24277 0.0
C1394 C 0.29448 0.87498 0.33528 0.0
C1395 C 0.30579 0.88394 0.40651 0.0
C1396 C 0.32351 0.88337 0.38797 0.0
C1397 C 0.27561 0.87529 0.35897 0.0
C1398 C 0.26742 0.89113 0.37273 0.0
C1399 C 0.26565 0.86023 0.368 0.0
C1400 C 0.27328 0.84302 0.35587 0.0
C1401 C 0.28683 0.83776 0.42655 0.0
C1402 C 0.294 0.82154 0.41339 0.0
C1403 C 0.28763 0.81044 0.33043 0.0
C1404 C 0.27407 0.81552 0.26068 0.0
C1405 C 0.26687 0.83171 0.27337 0.0
H1406 H 0.29315 0.79789 0.32013 0.0
H1407 H 0.2207 0.95437 0.41392 0.0
H1408 H 0.18814 0.13516 0.0001 0.0
H1409 H 0.21922 0.13375 0.02781 0.0
H1410 H 0.22562 0.11793 0.67831 0.0
H1411 H 0.19464 0.11847 0.65219 0.0
H1412 H 0.24692 0.10118 0.79468 0.0
H1413 H 0.23323 0.16064 0.78098 0.0
H1414 H 0.2182 0.18703 0.83632 0.0
H1415 H 0.23812 0.18264 0.17591 0.0
H1416 H 0.25309 0.15609 0.123 0.0
H1417 H 0.33617 0.12659 0.75081 0.0
H1418 H 0.30488 0.12547 0.7267 0.0
H1419 H 0.2984 0.12512 0.09126 0.0
H1420 H 0.32948 0.1258 0.11618 0.0
H1421 H 0.27767 0.15011 0.96712 0.0
H1422 H 0.29171 0.09017 0.97085 0.0
H1423 H 0.30676 0.06427 0.90654 0.0
H1424 H 0.28662 0.07109 0.56933 0.0
H1425 H 0.27161 0.09719 0.63133 0.0
C1426 C 0.19618 0.13127 0.92946 0.0
C1427 C 0.18885 0.12698 0.82389 0.0
C1428 C 0.214 0.1306 0.94502 0.0
C1429 C 0.22497 0.12609 0.85447 0.0
C1430 C 0.21758 0.12148 0.74977 0.0
C1431 C 0.19978 0.12183 0.73486 0.0
C1432 C 0.24408 0.12624 0.86783 0.0
C1433 C 0.25359 0.11202 0.831 0.0
C1434 C 0.25299 0.14024 0.91646 0.0
C1435 C 0.24414 0.15628 0.94831 0.0
C1436 C 0.23432 0.16525 0.86764 0.0
C1437 C 0.22582 0.18024 0.89855 0.0
C1438 C 0.22716 0.18648 0.00964 0.0
C1439 C 0.23707 0.17778 0.08995 0.0
C1440 C 0.24557 0.16276 0.05953 0.0
C1441 C 0.32808 0.12614 0.82577 0.0
C1442 C 0.33538 0.12623 0.93538 0.0
C1443 C 0.31021 0.1255 0.81188 0.0
C1444 C 0.2993 0.12524 0.90727 0.0
C1445 C 0.30655 0.12534 0.01651 0.0
C1446 C 0.32436 0.12564 0.03046 0.0
C1447 C 0.28031 0.12513 0.89376 0.0
C1448 C 0.27089 0.13935 0.93052 0.0
C1449 C 0.27153 0.1113 0.84322 0.0
C1450 C 0.28069 0.09573 0.80545 0.0
C1451 C 0.29064 0.08626 0.88268 0.0
C1452 C 0.29912 0.07152 0.84674 0.0
C1453 C 0.29766 0.06605 0.73392 0.0
C1454 C 0.28774 0.07534 0.6567 0.0
C1455 C 0.27924 0.09011 0.69221 0.0
H1456 H 0.30414 0.05457 0.70653 0.0
H1457 H 0.22056 0.19808 0.03342 0.0
H1458 H 0.12901 0.81178 0.45574 0.0
H1459 H 0.12797 0.7826 0.3871 0.0
H1460 H 0.11922 0.80069 0.04524 0.0
H1461 H 0.12015 0.83034 0.11409 0.0
H1462 H 0.09842 0.77311 0.1013 0.0
H1463 H 0.15828 0.7865 0.11934 0.0
H1464 H 0.18486 0.79699 0.20867 0.0
H1465 H 0.18075 0.75858 0.46799 0.0
H1466 H 0.154 0.74801 0.38111 0.0
H1467 H 0.11901 0.69685 0.81388 0.0
H1468 H 0.11774 0.72571 0.88811 0.0
H1469 H 0.12819 0.7069 0.22618 0.0
H1470 H 0.12967 0.6776 0.15144 0.0
H1471 H 0.14776 0.73473 0.17496 0.0
H1472 H 0.08827 0.72092 0.15641 0.0
H1473 H 0.06165 0.71033 0.06822 0.0
H1474 H 0.0649 0.74927 0.81191 0.0
H1475 H 0.09168 0.75997 0.89767 0.0
C1476 C 0.12684 0.80969 0.36573 0.0
C1477 C 0.12477 0.82351 0.29032 0.0
C1478 C 0.12631 0.7929 0.32658 0.0
C1479 C 0.12378 0.78938 0.21074 0.0
C1480 C 0.12127 0.80309 0.13505 0.0
C1481 C 0.12184 0.82002 0.17438 0.0
C1482 C 0.12391 0.77135 0.17008 0.0
C1483 C 0.10931 0.76479 0.11579 0.0
C1484 C 0.13791 0.76029 0.19212 0.0
C1485 C 0.15404 0.76657 0.24427 0.0
C1486 C 0.16297 0.78038 0.19592 0.0
C1487 C 0.17808 0.78632 0.24603 0.0
C1488 C 0.18446 0.77848 0.3441 0.0
C1489 C 0.17578 0.76465 0.39209 0.0
C1490 C 0.16065 0.75867 0.34239 0.0
C1491 C 0.12096 0.69872 0.90434 0.0
C1492 C 0.12445 0.68481 0.97669 0.0
C1493 C 0.12013 0.71532 0.94679 0.0
C1494 C 0.12267 0.71855 0.06302 0.0
C1495 C 0.12612 0.70473 0.13613 0.0
C1496 C 0.1269 0.68798 0.0935 0.0
C1497 C 0.12227 0.73647 0.10597 0.0
C1498 C 0.13684 0.74302 0.16065 0.0
C1499 C 0.10823 0.74749 0.08448 0.0
C1500 C 0.09207 0.74116 0.03296 0.0
C1501 C 0.08338 0.72715 0.08074 0.0
C1502 C 0.06825 0.72114 0.03128 0.0
C1503 C 0.06161 0.7291 0.93438 0.0
C1504 C 0.07007 0.74311 0.88692 0.0
C1505 C 0.08521 0.74917 0.93602 0.0
H1506 H 0.0499 0.72442 0.89619 0.0
H1507 H 0.19616 0.78311 0.38276 0.0
H1508 H 0.69463 0.91714 0.11156 0.0
H1509 H 0.72418 0.91693 0.04473 0.0
H1510 H 0.71177 0.87684 0.80696 0.0
H1511 H 0.6818 0.87753 0.87122 0.0
H1512 H 0.74736 0.89489 0.06192 0.0
H1513 H 0.7404 0.87654 0.58517 0.0
H1514 H 0.72031 0.8808 0.42542 0.0
H1515 H 0.70127 0.92641 0.58299 0.0
H1516 H 0.7214 0.92255 0.74281 0.0
H1517 H 0.83075 0.87364 0.84826 0.0
H1518 H 0.80064 0.87395 0.90938 0.0
H1519 H 0.79068 0.91587 0.68038 0.0
H1520 H 0.82032 0.91489 0.61526 0.0
H1521 H 0.76615 0.89613 0.65875 0.0
H1522 H 0.79376 0.91899 0.98984 0.0
H1523 H 0.81399 0.91987 0.1511 0.0
H1524 H 0.79189 0.87405 0.2874 0.0
H1525 H 0.77168 0.87277 0.12606 0.0
C1526 C 0.6981 0.90846 0.04363 0.0
C1527 C 0.68582 0.8974 0.99638 0.0
C1528 C 0.7151 0.90826 0.00593 0.0
C1529 C 0.72041 0.89685 0.9207 0.0
C1530 C 0.70807 0.88597 0.87156 0.0
C1531 C 0.6909 0.88637 0.90821 0.0
C1532 C 0.73895 0.89612 0.88723 0.0
C1533 C 0.75143 0.89516 0.97356 0.0
C1534 C 0.74446 0.8967 0.77226 0.0
C1535 C 0.73226 0.89911 0.67669 0.0
C1536 C 0.73194 0.88748 0.58564 0.0
C1537 C 0.72055 0.88983 0.49507 0.0
C1538 C 0.70947 0.90383 0.49432 0.0
C1539 C 0.7098 0.91553 0.58397 0.0
C1540 C 0.72118 0.91326 0.67464 0.0
C1541 C 0.82215 0.88306 0.81245 0.0
C1542 C 0.82792 0.89428 0.7273 0.0
C1543 C 0.8049 0.88325 0.8474 0.0
C1544 C 0.7932 0.89502 0.80028 0.0
C1545 C 0.79923 0.90654 0.7177 0.0
C1546 C 0.81627 0.90606 0.68103 0.0
C1547 C 0.77461 0.89518 0.83355 0.0
C1548 C 0.7621 0.89586 0.74715 0.0
C1549 C 0.76909 0.89503 0.94865 0.0
C1550 C 0.78134 0.89567 0.04514 0.0
C1551 C 0.79332 0.90902 0.05367 0.0
C1552 C 0.80476 0.90961 0.14518 0.0
C1553 C 0.80426 0.897 0.22926 0.0
C1554 C 0.79229 0.88379 0.22208 0.0
C1555 C 0.78084 0.88312 0.13064 0.0
H1556 H 0.81311 0.89749 0.30013 0.0
H1557 H 0.70067 0.90563 0.42411 0.0
H1558 H 0.92921 0.1955 0.301 0.0
H1559 H 0.92674 0.225 0.23742 0.0
H1560 H 0.87769 0.21375 0.08601 0.0
H1561 H 0.88025 0.18395 0.14764 0.0
H1562 H 0.89574 0.23524 0.953 0.0
H1563 H 0.88092 0.23292 0.35149 0.0
H1564 H 0.88607 0.22519 0.55226 0.0
H1565 H 0.93126 0.25643 0.55641 0.0
H1566 H 0.92649 0.26419 0.35515 0.0
H1567 H 0.86552 0.31872 0.89505 0.0
H1568 H 0.86889 0.28938 0.95928 0.0
H1569 H 0.91649 0.30274 0.12337 0.0
H1570 H 0.91271 0.33256 0.06291 0.0
H1571 H 0.89999 0.28018 0.24928 0.0
H1572 H 0.91486 0.28273 0.8519 0.0
H1573 H 0.90989 0.29045 0.65087 0.0
H1574 H 0.86503 0.25876 0.64386 0.0
H1575 H 0.86964 0.25098 0.84522 0.0
C1576 C 0.91796 0.1992 0.25295 0.0
C1577 C 0.90486 0.18734 0.23025 0.0
C1578 C 0.91652 0.21615 0.2172 0.0
C1579 C 0.90183 0.22178 0.15928 0.0
C1580 C 0.8891 0.20978 0.13132 0.0
C1581 C 0.89059 0.19272 0.16641 0.0
C1582 C 0.89956 0.24025 0.13145 0.0
C1583 C 0.89647 0.24503 0.01805 0.0
C1584 C 0.9009 0.25316 0.21567 0.0
C1585 C 0.90346 0.24898 0.33784 0.0
C1586 C 0.89201 0.23806 0.39503 0.0
C1587 C 0.89488 0.23364 0.50881 0.0
C1588 C 0.90908 0.24017 0.56667 0.0
C1589 C 0.92034 0.25127 0.51117 0.0
C1590 C 0.91754 0.25572 0.39734 0.0
C1591 C 0.87665 0.31547 0.94577 0.0
C1592 C 0.88895 0.32793 0.9729 0.0
C1593 C 0.87863 0.29862 0.98187 0.0
C1594 C 0.89323 0.2936 0.04318 0.0
C1595 C 0.90518 0.30619 0.07515 0.0
C1596 C 0.90302 0.32324 0.04076 0.0
C1597 C 0.89611 0.27519 0.07073 0.0
C1598 C 0.89931 0.27041 0.18408 0.0
C1599 C 0.89493 0.26227 0.98637 0.0
C1600 C 0.8925 0.26641 0.86399 0.0
C1601 C 0.9039 0.27746 0.8076 0.0
C1602 C 0.90112 0.28188 0.6937 0.0
C1603 C 0.88706 0.27524 0.635 0.0
C1604 C 0.87584 0.26401 0.68973 0.0
C1605 C 0.87857 0.25954 0.80362 0.0
H1606 H 0.88497 0.27863 0.54671 0.0
H1607 H 0.91125 0.23679 0.65491 0.0
H1608 H 0.19076 0.39439 0.59228 0.0
H1609 H 0.22169 0.39663 0.56676 0.0
H1610 H 0.21639 0.38194 0.21466 0.0
H1611 H 0.18527 0.37944 0.23994 0.0
H1612 H 0.24236 0.36492 0.31377 0.0
H1613 H 0.22514 0.42335 0.28991 0.0
H1614 H 0.21061 0.44968 0.35184 0.0
H1615 H 0.24069 0.45032 0.65792 0.0
H1616 H 0.25525 0.42385 0.59853 0.0
H1617 H 0.32635 0.3866 0.139 0.0
H1618 H 0.29533 0.38596 0.16319 0.0
H1619 H 0.3011 0.39889 0.51799 0.0
H1620 H 0.33237 0.39967 0.49434 0.0
H1621 H 0.27497 0.41694 0.41785 0.0
H1622 H 0.29214 0.35846 0.44131 0.0
H1623 H 0.30679 0.33226 0.37831 0.0
H1624 H 0.27677 0.3318 0.07197 0.0
H1625 H 0.26211 0.35816 0.13234 0.0
C1626 C 0.1961 0.39171 0.50902 0.0
C1627 C 0.18543 0.38675 0.41807 0.0
C1628 C 0.21385 0.39307 0.49446 0.0
C1629 C 0.22145 0.38963 0.38845 0.0
C1630 C 0.21086 0.3847 0.29729 0.0
C1631 C 0.19304 0.38334 0.31175 0.0
C1632 C 0.24046 0.39077 0.37404 0.0
C1633 C 0.24943 0.3764 0.33486 0.0
C1634 C 0.24985 0.40557 0.40441 0.0
C1635 C 0.24117 0.42152 0.44024 0.0
C1636 C 0.22856 0.42903 0.37085 0.0
C1637 C 0.22034 0.44399 0.40542 0.0
C1638 C 0.2247 0.45164 0.50889 0.0
C1639 C 0.23732 0.44437 0.57786 0.0
C1640 C 0.24557 0.42939 0.54373 0.0
C1641 C 0.3211 0.38936 0.22238 0.0
C1642 C 0.33196 0.39313 0.31489 0.0
C1643 C 0.3033 0.38892 0.23614 0.0
C1644 C 0.29582 0.39216 0.34274 0.0
C1645 C 0.30655 0.39629 0.43493 0.0
C1646 C 0.32444 0.39668 0.42132 0.0
C1647 C 0.27682 0.39111 0.35737 0.0
C1648 C 0.26787 0.40548 0.39669 0.0
C1649 C 0.26744 0.37631 0.32707 0.0
C1650 C 0.27614 0.36038 0.29088 0.0
C1651 C 0.28875 0.35285 0.3601 0.0
C1652 C 0.29704 0.33795 0.32492 0.0
C1653 C 0.29274 0.33039 0.22107 0.0
C1654 C 0.2801 0.33769 0.15233 0.0
C1655 C 0.27178 0.3526 0.18702 0.0
H1656 H 0.29919 0.31887 0.19397 0.0
H1657 H 0.21831 0.46322 0.53551 0.0
H1658 H 0.38499 0.81563 0.30247 0.0
H1659 H 0.38609 0.78642 0.37125 0.0
H1660 H 0.39878 0.80438 0.70779 0.0
H1661 H 0.39771 0.83403 0.63892 0.0
H1662 H 0.41875 0.77664 0.64143 0.0
H1663 H 0.35928 0.79045 0.65708 0.0
H1664 H 0.33137 0.80091 0.5878 0.0
H1665 H 0.33129 0.76268 0.32619 0.0
H1666 H 0.35934 0.75215 0.39274 0.0
H1667 H 0.39976 0.6995 0.9318 0.0
H1668 H 0.4009 0.72865 0.86098 0.0
H1669 H 0.38812 0.71099 0.52382 0.0
H1670 H 0.38693 0.68147 0.59479 0.0
H1671 H 0.36849 0.7386 0.59106 0.0
H1672 H 0.42807 0.72452 0.57965 0.0
H1673 H 0.45547 0.71371 0.6551 0.0
H1674 H 0.45502 0.75229 0.91437 0.0
H1675 H 0.42747 0.76319 0.8415 0.0
C1676 C 0.38804 0.81349 0.39132 0.0
C1677 C 0.39122 0.82728 0.46522 0.0
C1678 C 0.38859 0.7967 0.43061 0.0
C1679 C 0.39233 0.79314 0.54498 0.0
C1680 C 0.39581 0.80681 0.61913 0.0
C1681 C 0.39515 0.82375 0.57982 0.0
C1682 C 0.39253 0.7751 0.58559 0.0
C1683 C 0.40768 0.7684 0.63203 0.0
C1684 C 0.37824 0.76416 0.5707 0.0
C1685 C 0.3615 0.77062 0.52925 0.0
C1686 C 0.3534 0.78439 0.58401 0.0
C1687 C 0.33754 0.7903 0.5454 0.0
C1688 C 0.32959 0.78247 0.45261 0.0
C1689 C 0.33748 0.76874 0.39802 0.0
C1690 C 0.35336 0.76278 0.43618 0.0
C1691 C 0.39729 0.70172 0.84222 0.0
C1692 C 0.39321 0.6881 0.76896 0.0
C1693 C 0.39804 0.71845 0.80175 0.0
C1694 C 0.39473 0.72207 0.68687 0.0
C1695 C 0.39077 0.70851 0.61284 0.0
C1696 C 0.39016 0.69164 0.65329 0.0
C1697 C 0.39473 0.74011 0.64635 0.0
C1698 C 0.37959 0.74683 0.60011 0.0
C1699 C 0.40901 0.75105 0.66191 0.0
C1700 C 0.42562 0.74458 0.70569 0.0
C1701 C 0.43374 0.73062 0.65333 0.0
C1702 C 0.44931 0.72449 0.69553 0.0
C1703 C 0.45696 0.73228 0.78964 0.0
C1704 C 0.44907 0.74626 0.84155 0.0
C1705 C 0.43348 0.75243 0.79975 0.0
H1706 H 0.46902 0.72752 0.82219 0.0
H1707 H 0.31728 0.78699 0.4233 0.0
H1708 H 0.68652 0.63768 0.37729 0.0
H1709 H 0.71703 0.63922 0.43021 0.0
H1710 H 0.72991 0.60743 0.14303 0.0
H1711 H 0.69983 0.60621 0.08885 0.0
H1712 H 0.74261 0.61741 0.48586 0.0
H1713 H 0.76535 0.6205 0.01702 0.0
H1714 H 0.75431 0.63008 0.83046 0.0
H1715 H 0.72183 0.66655 0.99668 0.0
H1716 H 0.73263 0.65723 0.18401 0.0
H1717 H 0.83376 0.60704 0.4668 0.0
H1718 H 0.80314 0.60372 0.42387 0.0
H1719 H 0.80025 0.65681 0.33072 0.0
H1720 H 0.83068 0.66021 0.37331 0.0
H1721 H 0.78228 0.63764 0.18381 0.0
H1722 H 0.78671 0.64391 0.58798 0.0
H1723 H 0.79706 0.63701 0.78097 0.0
H1724 H 0.77476 0.58711 0.7566 0.0
H1725 H 0.76452 0.5936 0.56254 0.0
C1726 C 0.69586 0.63085 0.32654 0.0
C1727 C 0.69074 0.62201 0.22803 0.0
C1728 C 0.71331 0.63174 0.35674 0.0
C1729 C 0.72589 0.62376 0.28916 0.0
C1730 C 0.72059 0.61407 0.19507 0.0
C1731 C 0.70331 0.61333 0.1644 0.0
C1732 C 0.74461 0.62612 0.31237 0.0
C1733 C 0.75128 0.62179 0.41974 0.0
C1734 C 0.75599 0.63215 0.22705 0.0
C1735 C 0.74972 0.63808 0.11451 0.0
C1736 C 0.75592 0.63063 0.01367 0.0
C1737 C 0.74969 0.63599 0.90785 0.0
C1738 C 0.73741 0.64891 0.90178 0.0
C1739 C 0.73132 0.65652 0.0015 0.0
C1740 C 0.73745 0.65117 0.10752 0.0
C1741 C 0.82667 0.61793 0.4353 0.0
C1742 C 0.83472 0.63389 0.42355 0.0
C1743 C 0.80911 0.61605 0.41179 0.0
C1744 C 0.79927 0.63007 0.37541 0.0
C1745 C 0.80749 0.64581 0.35893 0.0
C1746 C 0.82494 0.64772 0.38332 0.0
C1747 C 0.78038 0.62856 0.35649 0.0
C1748 C 0.77366 0.63311 0.24979 0.0
C1749 C 0.76896 0.62309 0.44324 0.0
C1750 C 0.77504 0.61916 0.56008 0.0
C1751 C 0.78417 0.6314 0.62328 0.0
C1752 C 0.79001 0.62757 0.73288 0.0
C1753 C 0.78667 0.61159 0.78072 0.0
C1754 C 0.77741 0.59945 0.71923 0.0
C1755 C 0.77158 0.6032 0.60943 0.0
H1756 H 0.79116 0.60867 0.86573 0.0
H1757 H 0.73261 0.65303 0.81978 0.0
H1758 H 0.6303 0.1796 0.63242 0.0
H1759 H 0.62985 0.20884 0.70743 0.0
H1760 H 0.62213 0.2283 0.36762 0.0
H1761 H 0.62284 0.19941 0.29262 0.0
H1762 H 0.64575 0.24649 0.46894 0.0
H1763 H 0.58937 0.22683 0.5704 0.0
H1764 H 0.56832 0.20751 0.65953 0.0
H1765 H 0.5904 0.21715 0.98817 0.0
H1766 H 0.61174 0.23637 0.90075 0.0
H1767 H 0.62496 0.33262 0.62112 0.0
H1768 H 0.62364 0.30343 0.54533 0.0
H1769 H 0.63172 0.28337 0.88314 0.0
H1770 H 0.63278 0.31218 0.95896 0.0
H1771 H 0.60759 0.26558 0.78174 0.0
H1772 H 0.66417 0.28476 0.68081 0.0
H1773 H 0.68546 0.30391 0.59253 0.0
H1774 H 0.66315 0.29499 0.26363 0.0
H1775 H 0.64158 0.27595 0.35024 0.0
C1776 C 0.62837 0.19011 0.574 0.0
C1777 C 0.62662 0.18709 0.45646 0.0
C1778 C 0.62808 0.20685 0.61693 0.0
C1779 C 0.62588 0.22089 0.54333 0.0
C1780 C 0.62394 0.2178 0.42636 0.0
C1781 C 0.62429 0.20117 0.3836 0.0
C1782 C 0.62595 0.23885 0.58648 0.0
C1783 C 0.63722 0.25068 0.53638 0.0
C1784 C 0.61512 0.24438 0.67606 0.0
C1785 C 0.60226 0.2329 0.72886 0.0
C1786 C 0.58982 0.22473 0.66157 0.0
C1787 C 0.57782 0.21382 0.71179 0.0
C1788 C 0.57805 0.21107 0.82939 0.0
C1789 C 0.59025 0.21927 0.89707 0.0
C1790 C 0.60229 0.23019 0.84724 0.0
C1791 C 0.62644 0.32198 0.67906 0.0
C1792 C 0.62902 0.32483 0.79614 0.0
C1793 C 0.62575 0.30528 0.63566 0.0
C1794 C 0.62771 0.29109 0.70832 0.0
C1795 C 0.63012 0.29399 0.8251 0.0
C1796 C 0.63079 0.31058 0.8683 0.0
C1797 C 0.62737 0.27321 0.66404 0.0
C1798 C 0.61607 0.26138 0.71404 0.0
C1799 C 0.63819 0.26767 0.57443 0.0
C1800 C 0.65115 0.27909 0.52218 0.0
C1801 C 0.66372 0.28699 0.58979 0.0
C1802 C 0.67585 0.29781 0.54004 0.0
C1803 C 0.67563 0.30071 0.42259 0.0
C1804 C 0.66329 0.29276 0.35461 0.0
C1805 C 0.65112 0.28195 0.40397 0.0
H1806 H 0.68503 0.30908 0.38423 0.0
H1807 H 0.56876 0.20262 0.86811 0.0
loop_
_geom_bond_atom_site_label_1
_geom_bond_atom_site_label_2
_geom_bond_distance
_geom_bond_site_symmetry_2
_ccdc_geom_bond_type
Mg0 O7 2.141 . S
Mg0 O8 2.048 . S
Mg0 O9 2.048 . S
Mg0 O12 2.141 . S
C1 O2 1.313 . S
C1 O8 1.195 . S
O2 C1 1.313 . S
C3 O4 1.245 . S
C3 O12 1.289 . S
O4 C3 1.245 . S
C5 O6 1.245 1_554 S
C5 O7 1.289 . S
O6 C5 1.245 1_556 S
O7 Mg0 2.141 . S
O7 C5 1.289 . S
O8 Mg0 2.048 . S
O8 C1 1.195 . S
O9 Mg0 2.048 . S
O9 C10 1.195 . S
C10 O9 1.195 . S
C10 O11 1.313 . S
O11 C10 1.313 . S
O12 Mg0 2.141 . S
O12 C3 1.289 . S
Mg13 O20 2.141 . S
Mg13 O21 2.048 . S
Mg13 O22 2.048 . S
Mg13 O25 2.141 . S
C14 O15 1.313 . S
C14 O21 1.195 . S
O15 C14 1.313 . S
C16 O17 1.245 . S
C16 O25 1.289 . S
O17 C16 1.245 . S
C18 O19 1.245 . S
C18 O20 1.289 . S
O19 C18 1.245 . S
O20 Mg13 2.141 . S
O20 C18 1.289 . S
O21 Mg13 2.048 . S
O21 C14 1.195 . S
O22 Mg13 2.048 . S
O22 C23 1.195 . S
C23 O22 1.195 . S
C23 O24 1.313 . S
O24 C23 1.313 . S
O25 Mg13 2.141 . S
O25 C16 1.289 . S
Mg26 O33 2.141 . S
Mg26 O34 2.048 . S
Mg26 O35 2.048 . S
Mg26 O38 2.141 . S
C27 O28 1.313 . S
C27 O34 1.195 . S
O28 C27 1.313 . S
C29 O30 1.245 . S
C29 O38 1.289 . S
O30 C29 1.245 . S
C31 O32 1.245 1_554 S
C31 O33 1.289 . S
O32 C31 1.245 1_556 S
O33 Mg26 2.141 . S
O33 C31 1.289 . S
O34 Mg26 2.048 . S
O34 C27 1.195 . S
O35 Mg26 2.048 . S
O35 C36 1.195 . S
C36 O35 1.195 . S
C36 O37 1.313 . S
O37 C36 1.313 . S
O38 Mg26 2.141 . S
O38 C29 1.289 . S
Mg39 O46 2.141 . S
Mg39 O47 2.048 . S
Mg39 O48 2.048 . S
Mg39 O51 2.141 . S
C40 O41 1.313 . S
C40 O47 1.195 . S
O41 C40 1.313 . S
C42 O43 1.245 . S
C42 O51 1.289 . S
O43 C42 1.245 . S
C44 O45 1.245 . S
C44 O46 1.289 . S
O45 C44 1.245 . S
O46 Mg39 2.141 . S
O46 C44 1.289 . S
O47 Mg39 2.048 . S
O47 C40 1.195 . S
O48 Mg39 2.048 . S
O48 C49 1.195 . S
C49 O48 1.195 . S
C49 O50 1.313 . S
O50 C49 1.313 . S
O51 Mg39 2.141 . S
O51 C42 1.289 . S
Mg52 O59 2.141 . S
Mg52 O60 2.048 . S
Mg52 O61 2.048 . S
Mg52 O64 2.141 . S
C53 O54 1.313 . S
C53 O60 1.195 . S
O54 C53 1.313 . S
C55 O56 1.245 . S
C55 O64 1.289 . S
O56 C55 1.245 . S
C57 O58 1.245 . S
C57 O59 1.289 . S
O58 C57 1.245 . S
O59 Mg52 2.141 . S
O59 C57 1.289 . S
O60 Mg52 2.048 . S
O60 C53 1.195 . S
O61 Mg52 2.048 . S
O61 C62 1.195 . S
C62 O61 1.195 . S
C62 O63 1.313 . S
O63 C62 1.313 . S
O64 Mg52 2.141 . S
O64 C55 1.289 . S
Mg65 O72 2.141 . S
Mg65 O73 2.048 . S
Mg65 O74 2.048 . S
Mg65 O77 2.141 . S
C66 O67 1.313 . S
C66 O73 1.195 . S
O67 C66 1.313 . S
C68 O69 1.245 1_556 S
C68 O77 1.289 . S
O69 C68 1.245 1_554 S
C70 O71 1.245 . S
C70 O72 1.289 . S
O71 C70 1.245 . S
O72 Mg65 2.141 . S
O72 C70 1.289 . S
O73 Mg65 2.048 . S
O73 C66 1.195 . S
O74 Mg65 2.048 . S
O74 C75 1.195 . S
C75 O74 1.195 . S
C75 O76 1.313 1_556 S
O76 C75 1.313 1_554 S
O77 Mg65 2.141 . S
O77 C68 1.289 . S
Mg78 O85 2.141 . S
Mg78 O86 2.048 . S
Mg78 O87 2.048 . S
Mg78 O90 2.141 . S
C79 O80 1.313 . S
C79 O86 1.195 . S
O80 C79 1.313 . S
C81 O82 1.245 . S
C81 O90 1.289 . S
O82 C81 1.245 . S
C83 O84 1.245 . S
C83 O85 1.289 . S
O84 C83 1.245 . S
O85 Mg78 2.141 . S
O85 C83 1.289 . S
O86 Mg78 2.048 . S
O86 C79 1.195 . S
O87 Mg78 2.048 . S
O87 C88 1.195 . S
C88 O87 1.195 . S
C88 O89 1.313 . S
O89 C88 1.313 . S
O90 Mg78 2.141 . S
O90 C81 1.289 . S
Mg91 O98 2.141 . S
Mg91 O99 2.048 . S
Mg91 O100 2.048 . S
Mg91 O103 2.141 . S
C92 O93 1.313 . S
C92 O99 1.195 . S
O93 C92 1.313 . S
C94 O95 1.245 1_556 S
C94 O103 1.289 . S
O95 C94 1.245 1_554 S
C96 O97 1.245 . S
C96 O98 1.289 . S
O97 C96 1.245 . S
O98 Mg91 2.141 . S
O98 C96 1.289 . S
O99 Mg91 2.048 . S
O99 C92 1.195 . S
O100 Mg91 2.048 . S
O100 C101 1.195 . S
C101 O100 1.195 . S
C101 O102 1.313 1_556 S
O102 C101 1.313 1_554 S
O103 Mg91 2.141 . S
O103 C94 1.289 . S
Mg104 O111 2.141 . S
Mg104 O112 2.048 . S
Mg104 O113 2.048 . S
Mg104 O116 2.141 . S
C105 O106 1.313 . S
C105 O112 1.195 . S
O106 C105 1.313 . S
C107 O108 1.245 . S
C107 O116 1.289 . S
O108 C107 1.245 . S
C109 O110 1.245 . S
C109 O111 1.289 . S
O110 C109 1.245 . S
O111 Mg104 2.141 . S
O111 C109 1.289 . S
O112 Mg104 2.048 . S
O112 C105 1.195 . S
O113 Mg104 2.048 . S
O113 C114 1.195 . S
C114 O113 1.195 . S
C114 O115 1.313 . S
O115 C114 1.313 . S
O116 Mg104 2.141 . S
O116 C107 1.289 . S
Mg117 O124 2.141 . S
Mg117 O125 2.048 . S
Mg117 O126 2.048 . S
Mg117 O129 2.141 . S
C118 O119 1.313 . S
C118 O125 1.195 . S
O119 C118 1.313 . S
C120 O121 1.245 . S
C120 O129 1.289 . S
O121 C120 1.245 . S
C122 O123 1.245 . S
C122 O124 1.289 . S
O123 C122 1.245 . S
O124 Mg117 2.141 . S
O124 C122 1.289 . S
O125 Mg117 2.048 . S
O125 C118 1.195 . S
O126 Mg117 2.048 . S
O126 C127 1.195 . S
C127 O126 1.195 . S
C127 O128 1.313 . S
O128 C127 1.313 . S
O129 Mg117 2.141 . S
O129 C120 1.289 . S
Mg130 O137 2.141 . S
Mg130 O138 2.048 . S
Mg130 O139 2.048 . S
Mg130 O142 2.141 . S
C131 O132 1.313 . S
C131 O138 1.195 . S
O132 C131 1.313 . S
C133 O134 1.245 . S
C133 O142 1.289 . S
O134 C133 1.245 . S
C135 O136 1.245 . S
C135 O137 1.289 . S
O136 C135 1.245 . S
O137 Mg130 2.141 . S
O137 C135 1.289 . S
O138 Mg130 2.048 . S
O138 C131 1.195 . S
O139 Mg130 2.048 . S
O139 C140 1.195 . S
C140 O139 1.195 . S
C140 O141 1.313 . S
O141 C140 1.313 . S
O142 Mg130 2.141 . S
O142 C133 1.289 . S
Mg143 O150 2.141 . S
Mg143 O151 2.048 . S
Mg143 O152 2.048 . S
Mg143 O155 2.141 . S
C144 O145 1.313 . S
C144 O151 1.195 . S
O145 C144 1.313 . S
C146 O147 1.245 . S
C146 O155 1.289 . S
O147 C146 1.245 . S
C148 O149 1.245 . S
C148 O150 1.289 . S
O149 C148 1.245 . S
O150 Mg143 2.141 . S
O150 C148 1.289 . S
O151 Mg143 2.048 . S
O151 C144 1.195 . S
O152 Mg143 2.048 . S
O152 C153 1.195 . S
C153 O152 1.195 . S
C153 O154 1.313 . S
O154 C153 1.313 . S
O155 Mg143 2.141 . S
O155 C146 1.289 . S
Mg156 O163 2.141 . S
Mg156 O164 2.048 . S
Mg156 O165 2.048 . S
Mg156 O168 2.141 . S
C157 O158 1.313 . S
C157 O164 1.195 . S
O158 C157 1.313 . S
C159 O160 1.245 . S
C159 O168 1.289 . S
O160 C159 1.245 . S
C161 O162 1.245 . S
C161 O163 1.289 . S
O162 C161 1.245 . S
O163 Mg156 2.141 . S
O163 C161 1.289 . S
O164 Mg156 2.048 . S
O164 C157 1.195 . S
O165 Mg156 2.048 . S
O165 C166 1.195 . S
C166 O165 1.195 . S
C166 O167 1.313 . S
O167 C166 1.313 . S
O168 Mg156 2.141 . S
O168 C159 1.289 . S
Mg169 O176 2.141 . S
Mg169 O177 2.048 . S
Mg169 O178 2.048 . S
Mg169 O181 2.141 . S
C170 O171 1.313 . S
C170 O177 1.195 . S
O171 C170 1.313 . S
C172 O173 1.245 . S
C172 O181 1.289 . S
O173 C172 1.245 . S
C174 O175 1.245 . S
C174 O176 1.289 . S
O175 C174 1.245 . S
O176 Mg169 2.141 . S
O176 C174 1.289 . S
O177 Mg169 2.048 . S
O177 C170 1.195 . S
O178 Mg169 2.048 . S
O178 C179 1.195 . S
C179 O178 1.195 . S
C179 O180 1.313 . S
O180 C179 1.313 . S
O181 Mg169 2.141 . S
O181 C172 1.289 . S
Mg182 O189 2.141 . S
Mg182 O190 2.048 . S
Mg182 O191 2.048 . S
Mg182 O194 2.141 . S
C183 O184 1.313 . S
C183 O190 1.195 . S
O184 C183 1.313 . S
C185 O186 1.245 . S
C185 O194 1.289 . S
O186 C185 1.245 . S
C187 O188 1.245 . S
C187 O189 1.289 . S
O188 C187 1.245 . S
O189 Mg182 2.141 . S
O189 C187 1.289 . S
O190 Mg182 2.048 . S
O190 C183 1.195 . S
O191 Mg182 2.048 . S
O191 C192 1.195 . S
C192 O191 1.195 . S
C192 O193 1.313 . S
O193 C192 1.313 . S
O194 Mg182 2.141 . S
O194 C185 1.289 . S
Mg195 O202 2.141 . S
Mg195 O203 2.048 . S
Mg195 O204 2.048 . S
Mg195 O207 2.141 . S
C196 O197 1.313 . S
C196 O203 1.195 . S
O197 C196 1.313 . S
C198 O199 1.245 . S
C198 O207 1.289 . S
O199 C198 1.245 . S
C200 O201 1.245 . S
C200 O202 1.289 . S
O201 C200 1.245 . S
O202 Mg195 2.141 . S
O202 C200 1.289 . S
O203 Mg195 2.048 . S
O203 C196 1.195 . S
O204 Mg195 2.048 . S
O204 C205 1.195 . S
C205 O204 1.195 . S
C205 O206 1.313 . S
O206 C205 1.313 . S
O207 Mg195 2.141 . S
O207 C198 1.289 . S
H208 C226 0.951 . S
H209 C228 0.951 . S
H210 C230 0.950 . S
H211 C231 0.950 . S
H212 C233 0.950 . S
H213 C236 0.950 . S
H214 C237 0.950 . S
H215 C239 0.950 . S
H216 C240 0.950 . S
H217 C241 0.951 . S
H218 C243 0.951 . S
H219 C245 0.950 . S
H220 C246 0.950 . S
H221 C248 0.950 . S
H222 C251 0.950 . S
H223 C252 0.950 . S
H224 C254 0.950 . S
H225 C255 0.950 . S
C226 H208 0.951 . S
C226 C227 1.366 . S
C226 C228 1.388 . S
C227 C226 1.366 . S
C227 C231 1.385 . S
C228 H209 0.951 . S
C228 C226 1.388 . S
C228 C229 1.366 . S
C229 C228 1.366 . S
C229 C230 1.414 . S
C229 C232 1.499 . S
C230 H210 0.950 . S
C230 C229 1.414 . S
C230 C231 1.374 . S
C231 H211 0.950 . S
C231 C227 1.385 . S
C231 C230 1.374 . S
C232 C229 1.499 . S
C232 C233 1.373 . S
C232 C234 1.389 . S
C233 H212 0.950 . S
C233 C232 1.373 . S
C233 C249 1.377 1_565 S
C234 C232 1.389 . S
C234 C235 1.524 . S
C234 C248 1.377 1_565 S
C235 C234 1.524 . S
C235 C236 1.397 . S
C235 C240 1.363 . S
C236 H213 0.950 . S
C236 C235 1.397 . S
C236 C237 1.334 . S
C237 H214 0.950 . S
C237 C236 1.334 . S
C237 C238 1.287 . S
C238 C237 1.287 . S
C238 C239 1.524 . S
C238 H257 0.913 . S
C239 H215 0.950 . S
C239 C238 1.524 . S
C239 C240 1.415 . S
C240 H216 0.950 . S
C240 C235 1.363 . S
C240 C239 1.415 . S
C241 H217 0.951 . S
C241 C242 1.366 . S
C241 C243 1.388 . S
C242 C241 1.366 . S
C242 C246 1.385 . S
C243 H218 0.951 . S
C243 C241 1.388 . S
C243 C244 1.366 . S
C244 C243 1.366 . S
C244 C245 1.414 . S
C244 C247 1.499 . S
C245 H219 0.950 . S
C245 C244 1.414 . S
C245 C246 1.374 . S
C246 H220 0.950 . S
C246 C242 1.385 . S
C246 C245 1.374 . S
C247 C244 1.499 . S
C247 C248 1.373 . S
C247 C249 1.389 . S
C248 H221 0.950 . S
C248 C234 1.377 1_545 S
C248 C247 1.373 . S
C249 C233 1.377 1_545 S
C249 C247 1.389 . S
C249 C250 1.524 . S
C250 C249 1.524 . S
C250 C251 1.397 . S
C250 C255 1.363 . S
C251 H222 0.950 . S
C251 C250 1.397 . S
C251 C252 1.334 . S
C252 H223 0.950 . S
C252 C251 1.334 . S
C252 C253 1.287 . S
C253 C252 1.287 . S
C253 C254 1.524 . S
C253 H256 0.999 . S
C254 H224 0.950 . S
C254 C253 1.524 . S
C254 C255 1.415 . S
C255 H225 0.950 . S
C255 C250 1.363 . S
C255 C254 1.415 . S
H256 C253 0.999 . S
H257 C238 0.913 . S
H258 C276 0.951 . S
H259 C278 0.951 . S
H260 C280 0.950 . S
H261 C281 0.950 . S
H262 C283 0.950 . S
H263 C286 0.950 . S
H264 C287 0.950 . S
H265 C289 0.950 . S
H266 C290 0.950 . S
H267 C291 0.951 . S
H268 C293 0.951 . S
H269 C295 0.950 . S
H270 C296 0.950 . S
H271 C298 0.950 . S
H272 C301 0.950 . S
H273 C302 0.950 . S
H274 C304 0.950 . S
H275 C305 0.950 1_554 S
C276 H258 0.951 . S
C276 C277 1.366 . S
C276 C278 1.388 . S
C277 C276 1.366 . S
C277 C281 1.385 . S
C278 H259 0.951 . S
C278 C276 1.388 . S
C278 C279 1.366 . S
C279 C278 1.366 . S
C279 C280 1.414 . S
C279 C282 1.499 . S
C280 H260 0.950 . S
C280 C279 1.414 . S
C280 C281 1.374 . S
C281 H261 0.950 . S
C281 C277 1.385 . S
C281 C280 1.374 . S
C282 C279 1.499 . S
C282 C283 1.373 . S
C282 C284 1.389 . S
C283 H262 0.950 . S
C283 C282 1.373 . S
C283 C299 1.377 1_455 S
C284 C282 1.389 . S
C284 C285 1.524 . S
C284 C298 1.377 1_455 S
C285 C284 1.524 . S
C285 C286 1.397 . S
C285 C290 1.363 . S
C286 H263 0.950 . S
C286 C285 1.397 . S
C286 C287 1.334 . S
C287 H264 0.950 . S
C287 C286 1.334 . S
C287 C288 1.287 . S
C288 C287 1.287 . S
C288 C289 1.524 . S
C288 H307 0.913 . S
C289 H265 0.950 . S
C289 C288 1.524 . S
C289 C290 1.415 . S
C290 H266 0.950 . S
C290 C285 1.363 . S
C290 C289 1.415 . S
C291 H267 0.951 . S
C291 C292 1.366 . S
C291 C293 1.388 . S
C292 C291 1.366 . S
C292 C296 1.385 . S
C293 H268 0.951 . S
C293 C291 1.388 . S
C293 C294 1.366 . S
C294 C293 1.366 . S
C294 C295 1.414 . S
C294 C297 1.499 . S
C295 H269 0.950 . S
C295 C294 1.414 . S
C295 C296 1.374 . S
C296 H270 0.950 . S
C296 C292 1.385 . S
C296 C295 1.374 . S
C297 C294 1.499 . S
C297 C298 1.373 . S
C297 C299 1.389 . S
C298 H271 0.950 . S
C298 C284 1.377 1_655 S
C298 C297 1.373 . S
C299 C283 1.377 1_655 S
C299 C297 1.389 . S
C299 C300 1.524 . S
C300 C299 1.524 . S
C300 C301 1.397 . S
C300 C305 1.363 . S
C301 H272 0.950 . S
C301 C300 1.397 . S
C301 C302 1.334 . S
C302 H273 0.950 . S
C302 C301 1.334 . S
C302 C303 1.287 . S
C303 C302 1.287 . S
C303 C304 1.524 1_556 S
C303 H306 0.999 . S
C304 H274 0.950 . S
C304 C303 1.524 1_554 S
C304 C305 1.415 1_554 S
C305 H275 0.950 1_556 S
C305 C300 1.363 . S
C305 C304 1.415 1_556 S
H306 C303 0.999 . S
H307 C288 0.913 . S
H308 C326 0.951 . S
H309 C328 0.951 . S
H310 C330 0.950 . S
H311 C331 0.950 . S
H312 C333 0.950 . S
H313 C336 0.950 . S
H314 C337 0.950 . S
H315 C339 0.950 . S
H316 C340 0.950 . S
H317 C341 0.951 . S
H318 C343 0.951 . S
H319 C345 0.950 . S
H320 C346 0.950 . S
H321 C348 0.950 . S
H322 C351 0.950 . S
H323 C352 0.950 . S
H324 C354 0.950 . S
H325 C355 0.950 . S
C326 H308 0.951 . S
C326 C327 1.366 . S
C326 C328 1.388 . S
C327 C326 1.366 . S
C327 C331 1.385 . S
C328 H309 0.951 . S
C328 C326 1.388 . S
C328 C329 1.366 . S
C329 C328 1.366 . S
C329 C330 1.414 . S
C329 C332 1.499 . S
C330 H310 0.950 . S
C330 C329 1.414 . S
C330 C331 1.374 . S
C331 H311 0.950 . S
C331 C327 1.385 . S
C331 C330 1.374 . S
C332 C329 1.499 . S
C332 C333 1.373 . S
C332 C334 1.389 . S
C333 H312 0.950 . S
C333 C332 1.373 . S
C333 C349 1.377 1_565 S
C334 C332 1.389 . S
C334 C335 1.524 . S
C334 C348 1.377 1_565 S
C335 C334 1.524 . S
C335 C336 1.397 . S
C335 C340 1.363 . S
C336 H313 0.950 . S
C336 C335 1.397 . S
C336 C337 1.334 . S
C337 H314 0.950 . S
C337 C336 1.334 . S
C337 C338 1.287 . S
C338 C337 1.287 . S
C338 C339 1.524 . S
C338 H357 0.913 . S
C339 H315 0.950 . S
C339 C338 1.524 . S
C339 C340 1.415 . S
C340 H316 0.950 . S
C340 C335 1.363 . S
C340 C339 1.415 . S
C341 H317 0.951 . S
C341 C342 1.366 . S
C341 C343 1.388 . S
C342 C341 1.366 . S
C342 C346 1.385 . S
C343 H318 0.951 . S
C343 C341 1.388 . S
C343 C344 1.366 . S
C344 C343 1.366 . S
C344 C345 1.414 . S
C344 C347 1.499 . S
C345 H319 0.950 . S
C345 C344 1.414 . S
C345 C346 1.374 . S
C346 H320 0.950 . S
C346 C342 1.385 . S
C346 C345 1.374 . S
C347 C344 1.499 . S
C347 C348 1.373 . S
C347 C349 1.389 . S
C348 H321 0.950 . S
C348 C334 1.377 1_545 S
C348 C347 1.373 . S
C349 C333 1.377 1_545 S
C349 C347 1.389 . S
C349 C350 1.524 . S
C350 C349 1.524 . S
C350 C351 1.397 . S
C350 C355 1.363 . S
C351 H322 0.950 . S
C351 C350 1.397 . S
C351 C352 1.334 1_554 S
C352 H323 0.950 . S
C352 C351 1.334 1_556 S
C352 C353 1.287 . S
C353 C352 1.287 . S
C353 C354 1.524 1_556 S
C353 H356 0.999 . S
C354 H324 0.950 . S
C354 C353 1.524 1_554 S
C354 C355 1.415 . S
C355 H325 0.950 . S
C355 C350 1.363 . S
C355 C354 1.415 . S
H356 C353 0.999 . S
H357 C338 0.913 . S
H358 C376 0.951 . S
H359 C378 0.951 . S
H360 C380 0.950 . S
H361 C381 0.950 . S
H362 C383 0.950 . S
H363 C386 0.950 . S
H364 C387 0.950 . S
H365 C389 0.950 . S
H366 C390 0.950 . S
H367 C391 0.951 . S
H368 C393 0.951 . S
H369 C395 0.950 . S
H370 C396 0.950 . S
H371 C398 0.950 . S
H372 C401 0.950 . S
H373 C402 0.950 . S
H374 C404 0.950 . S
H375 C405 0.950 1_455 S
C376 H358 0.951 . S
C376 C377 1.366 . S
C376 C378 1.388 . S
C377 C376 1.366 . S
C377 C381 1.385 . S
C378 H359 0.951 . S
C378 C376 1.388 . S
C378 C379 1.366 . S
C379 C378 1.366 . S
C379 C380 1.414 . S
C379 C382 1.499 . S
C380 H360 0.950 . S
C380 C379 1.414 . S
C380 C381 1.374 . S
C381 H361 0.950 . S
C381 C377 1.385 . S
C381 C380 1.374 . S
C382 C379 1.499 . S
C382 C383 1.373 . S
C382 C384 1.389 . S
C383 H362 0.950 . S
C383 C382 1.373 . S
C383 C399 1.377 1_455 S
C384 C382 1.389 . S
C384 C385 1.524 . S
C384 C398 1.377 1_455 S
C385 C384 1.524 . S
C385 C386 1.397 . S
C385 C390 1.363 . S
C386 H363 0.950 . S
C386 C385 1.397 . S
C386 C387 1.334 . S
C387 H364 0.950 . S
C387 C386 1.334 . S
C387 C388 1.287 . S
C388 C387 1.287 . S
C388 C389 1.524 . S
C388 H407 0.913 . S
C389 H365 0.950 . S
C389 C388 1.524 . S
C389 C390 1.415 . S
C390 H366 0.950 . S
C390 C385 1.363 . S
C390 C389 1.415 . S
C391 H367 0.951 . S
C391 C392 1.366 . S
C391 C393 1.388 . S
C392 C391 1.366 . S
C392 C396 1.385 . S
C393 H368 0.951 . S
C393 C391 1.388 . S
C393 C394 1.366 . S
C394 C393 1.366 . S
C394 C395 1.414 . S
C394 C397 1.499 . S
C395 H369 0.950 . S
C395 C394 1.414 . S
C395 C396 1.374 . S
C396 H370 0.950 . S
C396 C392 1.385 . S
C396 C395 1.374 . S
C397 C394 1.499 . S
C397 C398 1.373 . S
C397 C399 1.389 . S
C398 H371 0.950 . S
C398 C384 1.377 1_655 S
C398 C397 1.373 . S
C399 C383 1.377 1_655 S
C399 C397 1.389 . S
C399 C400 1.524 . S
C400 C399 1.524 . S
C400 C401 1.397 . S
C400 C405 1.363 . S
C401 H372 0.950 . S
C401 C400 1.397 . S
C401 C402 1.334 . S
C402 H373 0.950 . S
C402 C401 1.334 . S
C402 C403 1.287 . S
C403 C402 1.287 . S
C403 C404 1.524 . S
C403 H406 0.999 . S
C404 H374 0.950 . S
C404 C403 1.524 . S
C404 C405 1.415 . S
C405 H375 0.950 1_655 S
C405 C400 1.363 . S
C405 C404 1.415 . S
H406 C403 0.999 . S
H407 C388 0.913 . S
H408 C426 0.951 . S
H409 C428 0.951 . S
H410 C430 0.950 . S
H411 C431 0.950 1_556 S
H412 C433 0.950 . S
H413 C436 0.950 . S
H414 C437 0.950 . S
H415 C439 0.950 . S
H416 C440 0.950 . S
H417 C441 0.951 . S
H418 C443 0.951 . S
H419 C445 0.950 . S
H420 C446 0.950 . S
H421 C448 0.950 . S
H422 C451 0.950 . S
H423 C452 0.950 . S
H424 C454 0.950 . S
H425 C455 0.950 . S
C426 H408 0.951 . S
C426 C427 1.366 . S
C426 C428 1.388 . S
C427 C426 1.366 . S
C427 C431 1.385 . S
C428 H409 0.951 . S
C428 C426 1.388 . S
C428 C429 1.366 . S
C429 C428 1.366 . S
C429 C430 1.414 1_554 S
C429 C432 1.499 . S
C430 H410 0.950 . S
C430 C429 1.414 1_556 S
C430 C431 1.374 1_556 S
C431 H411 0.950 1_554 S
C431 C427 1.385 . S
C431 C430 1.374 1_554 S
C432 C429 1.499 . S
C432 C433 1.373 1_554 S
C432 C434 1.389 . S
C433 H412 0.950 . S
C433 C432 1.373 1_556 S
C433 C449 1.377 . S
C434 C432 1.389 . S
C434 C435 1.524 . S
C434 C448 1.377 . S
C435 C434 1.524 . S
C435 C436 1.397 . S
C435 C440 1.363 . S
C436 H413 0.950 . S
C436 C435 1.397 . S
C436 C437 1.334 . S
C437 H414 0.950 . S
C437 C436 1.334 . S
C437 C438 1.287 . S
C438 C437 1.287 . S
C438 C439 1.524 . S
C438 H457 0.913 . S
C439 H415 0.950 . S
C439 C438 1.524 . S
C439 C440 1.415 . S
C440 H416 0.950 . S
C440 C435 1.363 . S
C440 C439 1.415 . S
C441 H417 0.951 . S
C441 C442 1.366 . S
C441 C443 1.388 . S
C442 C441 1.366 . S
C442 C446 1.385 1_556 S
C443 H418 0.951 . S
C443 C441 1.388 . S
C443 C444 1.366 . S
C444 C443 1.366 . S
C444 C445 1.414 1_556 S
C444 C447 1.499 1_556 S
C445 H419 0.950 . S
C445 C444 1.414 1_554 S
C445 C446 1.374 . S
C446 H420 0.950 . S
C446 C442 1.385 1_554 S
C446 C445 1.374 . S
C447 C444 1.499 1_554 S
C447 C448 1.373 . S
C447 C449 1.389 1_554 S
C448 H421 0.950 . S
C448 C434 1.377 . S
C448 C447 1.373 . S
C449 C433 1.377 . S
C449 C447 1.389 1_556 S
C449 C450 1.524 . S
C450 C449 1.524 . S
C450 C451 1.397 . S
C450 C455 1.363 . S
C451 H422 0.950 . S
C451 C450 1.397 . S
C451 C452 1.334 . S
C452 H423 0.950 . S
C452 C451 1.334 . S
C452 C453 1.287 . S
C453 C452 1.287 . S
C453 C454 1.524 . S
C453 H456 0.999 . S
C454 H424 0.950 . S
C454 C453 1.524 . S
C454 C455 1.415 . S
C455 H425 0.950 . S
C455 C450 1.363 . S
C455 C454 1.415 . S
H456 C453 0.999 . S
H457 C438 0.913 . S
H458 C476 0.951 . S
H459 C478 0.951 . S
H460 C480 0.950 . S
H461 C481 0.950 . S
H462 C483 0.950 . S
H463 C486 0.950 . S
H464 C487 0.950 . S
H465 C489 0.950 . S
H466 C490 0.950 . S
H467 C491 0.951 . S
H468 C493 0.951 . S
H469 C495 0.950 . S
H470 C496 0.950 . S
H471 C498 0.950 . S
H472 C501 0.950 . S
H473 C502 0.950 . S
H474 C504 0.950 . S
H475 C505 0.950 . S
C476 H458 0.951 . S
C476 C477 1.366 1_554 S
C476 C478 1.388 . S
C477 C476 1.366 1_556 S
C477 C481 1.385 . S
C478 H459 0.951 . S
C478 C476 1.388 . S
C478 C479 1.366 1_554 S
C479 C478 1.366 1_556 S
C479 C480 1.414 . S
C479 C482 1.499 . S
C480 H460 0.950 . S
C480 C479 1.414 . S
C480 C481 1.374 . S
C481 H461 0.950 . S
C481 C477 1.385 . S
C481 C480 1.374 . S
C482 C479 1.499 . S
C482 C483 1.373 . S
C482 C484 1.389 1_556 S
C483 H462 0.950 . S
C483 C482 1.373 . S
C483 C499 1.377 . S
C484 C482 1.389 1_554 S
C484 C485 1.524 . S
C484 C498 1.377 . S
C485 C484 1.524 . S
C485 C486 1.397 . S
C485 C490 1.363 . S
C486 H463 0.950 . S
C486 C485 1.397 . S
C486 C487 1.334 . S
C487 H464 0.950 . S
C487 C486 1.334 . S
C487 C488 1.287 . S
C488 C487 1.287 . S
C488 C489 1.524 . S
C488 H507 0.913 . S
C489 H465 0.950 . S
C489 C488 1.524 . S
C489 C490 1.415 . S
C490 H466 0.950 . S
C490 C485 1.363 . S
C490 C489 1.415 . S
C491 H467 0.951 . S
C491 C492 1.366 1_556 S
C491 C493 1.388 . S
C492 C491 1.366 1_554 S
C492 C496 1.385 . S
C493 H468 0.951 . S
C493 C491 1.388 . S
C493 C494 1.366 1_556 S
C494 C493 1.366 1_554 S
C494 C495 1.414 . S
C494 C497 1.499 1_554 S
C495 H469 0.950 . S
C495 C494 1.414 . S
C495 C496 1.374 . S
C496 H470 0.950 . S
C496 C492 1.385 . S
C496 C495 1.374 . S
C497 C494 1.499 1_556 S
C497 C498 1.373 1_556 S
C497 C499 1.389 . S
C498 H471 0.950 . S
C498 C484 1.377 . S
C498 C497 1.373 1_554 S
C499 C483 1.377 . S
C499 C497 1.389 . S
C499 C500 1.524 . S
C500 C499 1.524 . S
C500 C501 1.397 . S
C500 C505 1.363 . S
C501 H472 0.950 . S
C501 C500 1.397 . S
C501 C502 1.334 . S
C502 H473 0.950 . S
C502 C501 1.334 . S
C502 C503 1.287 . S
C503 C502 1.287 . S
C503 C504 1.524 . S
C503 H506 0.999 . S
C504 H474 0.950 . S
C504 C503 1.524 . S
C504 C505 1.415 . S
C505 H475 0.950 . S
C505 C500 1.363 . S
C505 C504 1.415 . S
H506 C503 0.999 . S
H507 C488 0.913 . S
H508 C526 0.951 . S
H509 C528 0.951 . S
H510 C530 0.950 . S
H511 C531 0.950 . S
H512 C533 0.950 1_556 S
H513 C536 0.950 . S
H514 C537 0.950 . S
H515 C539 0.950 1_556 S
H516 C540 0.950 . S
H517 C541 0.951 . S
H518 C543 0.951 . S
H519 C545 0.950 . S
H520 C546 0.949 1_556 S
H521 C548 0.950 . S
H522 C551 0.950 . S
H523 C552 0.950 . S
H524 C554 0.950 . S
H525 C555 0.950 . S
C526 H508 0.951 . S
C526 C527 1.366 . S
C526 C528 1.388 . S
C527 C526 1.366 . S
C527 C531 1.385 1_556 S
C528 H509 0.951 . S
C528 C526 1.388 . S
C528 C529 1.366 . S
C529 C528 1.366 . S
C529 C530 1.414 1_556 S
C529 C532 1.499 1_556 S
C530 H510 0.950 . S
C530 C529 1.414 1_554 S
C530 C531 1.374 . S
C531 H511 0.950 . S
C531 C527 1.385 1_554 S
C531 C530 1.374 . S
C532 C529 1.499 1_554 S
C532 C533 1.373 . S
C532 C534 1.389 . S
C533 H512 0.950 1_554 S
C533 C532 1.373 . S
C533 C549 1.377 . S
C534 C532 1.389 . S
C534 C535 1.524 . S
C534 C548 1.377 . S
C535 C534 1.524 . S
C535 C536 1.397 . S
C535 C540 1.363 1_554 S
C536 H513 0.950 . S
C536 C535 1.397 . S
C536 C537 1.334 . S
C537 H514 0.950 . S
C537 C536 1.334 . S
C537 C538 1.287 . S
C538 C537 1.287 . S
C538 C539 1.524 . S
C538 H557 0.913 . S
C539 H515 0.950 1_554 S
C539 C538 1.524 . S
C539 C540 1.415 1_554 S
C540 H516 0.950 . S
C540 C535 1.363 1_556 S
C540 C539 1.415 1_556 S
C541 H517 0.951 . S
C541 C542 1.366 . S
C541 C543 1.388 . S
C542 C541 1.366 . S
C542 C546 1.386 . S
C543 H518 0.951 . S
C543 C541 1.388 . S
C543 C544 1.366 . S
C544 C543 1.366 . S
C544 C545 1.414 1_554 S
C544 C547 1.499 . S
C545 H519 0.950 . S
C545 C544 1.414 1_556 S
C545 C546 1.373 1_556 S
C546 H520 0.949 1_554 S
C546 C542 1.386 . S
C546 C545 1.373 1_554 S
C547 C544 1.499 . S
C547 C548 1.373 . S
C547 C549 1.389 . S
C548 H521 0.950 . S
C548 C534 1.377 . S
C548 C547 1.373 . S
C549 C533 1.377 . S
C549 C547 1.389 . S
C549 C550 1.524 1_554 S
C550 C549 1.524 1_556 S
C550 C551 1.397 . S
C550 C555 1.363 1_556 S
C551 H522 0.950 . S
C551 C550 1.397 . S
C551 C552 1.334 . S
C552 H523 0.950 . S
C552 C551 1.334 . S
C552 C553 1.287 . S
C553 C552 1.287 . S
C553 C554 1.524 1_556 S
C553 H556 0.999 . S
C554 H524 0.950 . S
C554 C553 1.524 1_554 S
C554 C555 1.415 . S
C555 H525 0.950 . S
C555 C550 1.363 1_554 S
C555 C554 1.415 . S
H556 C553 0.999 . S
H557 C538 0.913 . S
H558 C576 0.951 . S
H559 C578 0.951 . S
H560 C580 0.950 . S
H561 C581 0.950 . S
H562 C583 0.950 . S
H563 C586 0.950 . S
H564 C587 0.950 . S
H565 C589 0.950 . S
H566 C590 0.950 . S
H567 C591 0.951 . S
H568 C593 0.951 . S
H569 C595 0.950 . S
H570 C596 0.950 1_554 S
H571 C598 0.950 . S
H572 C601 0.950 . S
H573 C602 0.950 . S
H574 C604 0.950 . S
H575 C605 0.950 . S
C576 H558 0.951 . S
C576 C577 1.366 . S
C576 C578 1.388 . S
C577 C576 1.366 . S
C577 C581 1.385 1_554 S
C578 H559 0.951 . S
C578 C576 1.388 . S
C578 C579 1.366 . S
C579 C578 1.366 . S
C579 C580 1.414 1_554 S
C579 C582 1.499 1_554 S
C580 H560 0.950 . S
C580 C579 1.414 1_556 S
C580 C581 1.374 . S
C581 H561 0.950 . S
C581 C577 1.385 1_556 S
C581 C580 1.374 . S
C582 C579 1.499 1_556 S
C582 C583 1.373 . S
C582 C584 1.389 1_556 S
C583 H562 0.950 . S
C583 C582 1.373 . S
C583 C599 1.377 . S
C584 C582 1.389 1_554 S
C584 C585 1.524 . S
C584 C598 1.377 . S
C585 C584 1.524 . S
C585 C586 1.397 . S
C585 C590 1.363 . S
C586 H563 0.950 . S
C586 C585 1.397 . S
C586 C587 1.334 . S
C587 H564 0.950 . S
C587 C586 1.334 . S
C587 C588 1.287 . S
C588 C587 1.287 . S
C588 C589 1.524 . S
C588 H607 0.913 . S
C589 H565 0.950 . S
C589 C588 1.524 . S
C589 C590 1.415 . S
C590 H566 0.950 . S
C590 C585 1.363 . S
C590 C589 1.415 . S
C591 H567 0.951 . S
C591 C592 1.366 . S
C591 C593 1.388 . S
C592 C591 1.366 . S
C592 C596 1.385 . S
C593 H568 0.951 . S
C593 C591 1.388 . S
C593 C594 1.366 . S
C594 C593 1.366 . S
C594 C595 1.414 1_556 S
C594 C597 1.499 . S
C595 H569 0.950 . S
C595 C594 1.414 1_554 S
C595 C596 1.374 1_554 S
C596 H570 0.950 1_556 S
C596 C592 1.385 . S
C596 C595 1.374 1_556 S
C597 C594 1.499 . S
C597 C598 1.373 1_556 S
C597 C599 1.389 . S
C598 H571 0.950 . S
C598 C584 1.377 . S
C598 C597 1.373 1_554 S
C599 C583 1.377 . S
C599 C597 1.389 . S
C599 C600 1.524 . S
C600 C599 1.524 . S
C600 C601 1.397 . S
C600 C605 1.363 . S
C601 H572 0.950 . S
C601 C600 1.397 . S
C601 C602 1.334 . S
C602 H573 0.950 . S
C602 C601 1.334 . S
C602 C603 1.287 . S
C603 C602 1.287 . S
C603 C604 1.524 . S
C603 H606 0.999 . S
C604 H574 0.950 . S
C604 C603 1.524 . S
C604 C605 1.415 . S
C605 H575 0.950 . S
C605 C600 1.363 . S
C605 C604 1.415 . S
H606 C603 0.999 . S
H607 C588 0.913 . S
H608 C626 0.951 . S
H609 C628 0.951 . S
H610 C630 0.950 . S
H611 C631 0.950 . S
H612 C633 0.950 . S
H613 C636 0.950 . S
H614 C637 0.950 . S
H615 C639 0.950 . S
H616 C640 0.950 . S
H617 C641 0.951 . S
H618 C643 0.951 . S
H619 C645 0.950 . S
H620 C646 0.950 . S
H621 C648 0.950 . S
H622 C651 0.950 . S
H623 C652 0.950 1_554 S
H624 C654 0.950 . S
H625 C655 0.950 . S
C626 H608 0.951 . S
C626 C627 1.366 . S
C626 C628 1.388 . S
C627 C626 1.366 . S
C627 C631 1.385 . S
C628 H609 0.951 . S
C628 C626 1.388 . S
C628 C629 1.366 . S
C629 C628 1.366 . S
C629 C630 1.414 . S
C629 C632 1.499 . S
C630 H610 0.950 . S
C630 C629 1.414 . S
C630 C631 1.374 . S
C631 H611 0.950 . S
C631 C627 1.385 . S
C631 C630 1.374 . S
C632 C629 1.499 . S
C632 C633 1.373 . S
C632 C634 1.389 . S
C633 H612 0.950 . S
C633 C632 1.373 . S
C633 C649 1.377 . S
C634 C632 1.389 . S
C634 C635 1.524 . S
C634 C648 1.377 . S
C635 C634 1.524 . S
C635 C636 1.397 . S
C635 C640 1.363 . S
C636 H613 0.950 . S
C636 C635 1.397 . S
C636 C637 1.334 . S
C637 H614 0.950 . S
C637 C636 1.334 . S
C637 C638 1.287 . S
C638 C637 1.287 . S
C638 C639 1.524 . S
C638 H657 0.913 . S
C639 H615 0.950 . S
C639 C638 1.524 . S
C639 C640 1.415 . S
C640 H616 0.950 . S
C640 C635 1.363 . S
C640 C639 1.415 . S
C641 H617 0.951 . S
C641 C642 1.366 . S
C641 C643 1.388 . S
C642 C641 1.366 . S
C642 C646 1.385 . S
C643 H618 0.951 . S
C643 C641 1.388 . S
C643 C644 1.366 . S
C644 C643 1.366 . S
C644 C645 1.414 . S
C644 C647 1.499 . S
C645 H619 0.950 . S
C645 C644 1.414 . S
C645 C646 1.374 . S
C646 H620 0.950 . S
C646 C642 1.385 . S
C646 C645 1.374 . S
C647 C644 1.499 . S
C647 C648 1.373 . S
C647 C649 1.389 . S
C648 H621 0.950 . S
C648 C634 1.377 . S
C648 C647 1.373 . S
C649 C633 1.377 . S
C649 C647 1.389 . S
C649 C650 1.524 . S
C650 C649 1.524 . S
C650 C651 1.397 . S
C650 C655 1.363 . S
C651 H622 0.950 . S
C651 C650 1.397 . S
C651 C652 1.334 . S
C652 H623 0.950 1_556 S
C652 C651 1.334 . S
C652 C653 1.287 . S
C653 C652 1.287 . S
C653 C654 1.524 . S
C653 H656 0.999 1_556 S
C654 H624 0.950 . S
C654 C653 1.524 . S
C654 C655 1.415 . S
C655 H625 0.950 . S
C655 C650 1.363 . S
C655 C654 1.415 . S
H656 C653 0.999 1_554 S
H657 C638 0.913 . S
H658 C676 0.951 . S
H659 C678 0.951 . S
H660 C680 0.950 . S
H661 C681 0.950 . S
H662 C683 0.950 . S
H663 C686 0.950 . S
H664 C687 0.950 . S
H665 C689 0.950 . S
H666 C690 0.950 . S
H667 C691 0.951 . S
H668 C693 0.951 . S
H669 C695 0.950 . S
H670 C696 0.950 . S
H671 C698 0.950 . S
H672 C701 0.950 . S
H673 C702 0.950 . S
H674 C704 0.950 . S
H675 C705 0.950 . S
C676 H658 0.951 . S
C676 C677 1.366 . S
C676 C678 1.388 . S
C677 C676 1.366 . S
C677 C681 1.385 . S
C678 H659 0.951 . S
C678 C676 1.388 . S
C678 C679 1.366 . S
C679 C678 1.366 . S
C679 C680 1.414 . S
C679 C682 1.499 . S
C680 H660 0.950 . S
C680 C679 1.414 . S
C680 C681 1.374 . S
C681 H661 0.950 . S
C681 C677 1.385 . S
C681 C680 1.374 . S
C682 C679 1.499 . S
C682 C683 1.373 . S
C682 C684 1.389 . S
C683 H662 0.950 . S
C683 C682 1.373 . S
C683 C699 1.377 . S
C684 C682 1.389 . S
C684 C685 1.524 . S
C684 C698 1.377 . S
C685 C684 1.524 . S
C685 C686 1.397 . S
C685 C690 1.363 . S
C686 H663 0.950 . S
C686 C685 1.397 . S
C686 C687 1.334 1_554 S
C687 H664 0.950 . S
C687 C686 1.334 1_556 S
C687 C688 1.287 . S
C688 C687 1.287 . S
C688 C689 1.524 . S
C688 H707 0.913 . S
C689 H665 0.950 . S
C689 C688 1.524 . S
C689 C690 1.415 1_556 S
C690 H666 0.950 . S
C690 C685 1.363 . S
C690 C689 1.415 1_554 S
C691 H667 0.951 . S
C691 C692 1.366 . S
C691 C693 1.388 . S
C692 C691 1.366 . S
C692 C696 1.385 . S
C693 H668 0.951 . S
C693 C691 1.388 . S
C693 C694 1.366 . S
C694 C693 1.366 . S
C694 C695 1.414 . S
C694 C697 1.499 . S
C695 H669 0.950 . S
C695 C694 1.414 . S
C695 C696 1.374 . S
C696 H670 0.950 . S
C696 C692 1.385 . S
C696 C695 1.374 . S
C697 C694 1.499 . S
C697 C698 1.373 . S
C697 C699 1.389 . S
C698 H671 0.950 . S
C698 C684 1.377 . S
C698 C697 1.373 . S
C699 C683 1.377 . S
C699 C697 1.389 . S
C699 C700 1.524 . S
C700 C699 1.524 . S
C700 C701 1.397 . S
C700 C705 1.363 . S
C701 H672 0.950 . S
C701 C700 1.397 . S
C701 C702 1.334 . S
C702 H673 0.950 . S
C702 C701 1.334 . S
C702 C703 1.287 . S
C703 C702 1.287 . S
C703 C704 1.524 . S
C703 H706 0.999 . S
C704 H674 0.950 . S
C704 C703 1.524 . S
C704 C705 1.415 . S
C705 H675 0.950 . S
C705 C700 1.363 . S
C705 C704 1.415 . S
H706 C703 0.999 . S
H707 C688 0.913 . S
H708 C726 0.951 . S
H709 C728 0.951 . S
H710 C730 0.950 . S
H711 C731 0.950 . S
H712 C733 0.950 . S
H713 C736 0.950 . S
H714 C737 0.950 . S
H715 C739 0.950 . S
H716 C740 0.950 . S
H717 C741 0.951 . S
H718 C743 0.951 . S
H719 C745 0.950 . S
H720 C746 0.950 . S
H721 C748 0.950 . S
H722 C751 0.950 . S
H723 C752 0.950 . S
H724 C754 0.950 . S
H725 C755 0.950 . S
C726 H708 0.951 . S
C726 C727 1.366 . S
C726 C728 1.388 . S
C727 C726 1.366 . S
C727 C731 1.385 . S
C728 H709 0.951 . S
C728 C726 1.388 . S
C728 C729 1.366 . S
C729 C728 1.366 . S
C729 C730 1.414 . S
C729 C732 1.499 . S
C730 H710 0.950 . S
C730 C729 1.414 . S
C730 C731 1.374 . S
C731 H711 0.950 . S
C731 C727 1.385 . S
C731 C730 1.374 . S
C732 C729 1.499 . S
C732 C733 1.373 . S
C732 C734 1.389 . S
C733 H712 0.950 . S
C733 C732 1.373 . S
C733 C749 1.377 . S
C734 C732 1.389 . S
C734 C735 1.524 . S
C734 C748 1.377 . S
C735 C734 1.524 . S
C735 C736 1.397 . S
C735 C740 1.363 . S
C736 H713 0.950 . S
C736 C735 1.397 . S
C736 C737 1.334 . S
C737 H714 0.950 . S
C737 C736 1.334 . S
C737 C738 1.287 . S
C738 C737 1.287 . S
C738 C739 1.524 . S
C738 H757 0.913 . S
C739 H715 0.950 . S
C739 C738 1.524 . S
C739 C740 1.415 . S
C740 H716 0.950 . S
C740 C735 1.363 . S
C740 C739 1.415 . S
C741 H717 0.951 . S
C741 C742 1.366 . S
C741 C743 1.388 . S
C742 C741 1.366 . S
C742 C746 1.385 . S
C743 H718 0.951 . S
C743 C741 1.388 . S
C743 C744 1.366 . S
C744 C743 1.366 . S
C744 C745 1.414 . S
C744 C747 1.499 . S
C745 H719 0.950 . S
C745 C744 1.414 . S
C745 C746 1.374 . S
C746 H720 0.950 . S
C746 C742 1.385 . S
C746 C745 1.374 . S
C747 C744 1.499 . S
C747 C748 1.373 . S
C747 C749 1.389 . S
C748 H721 0.950 . S
C748 C734 1.377 . S
C748 C747 1.373 . S
C749 C733 1.377 . S
C749 C747 1.389 . S
C749 C750 1.524 . S
C750 C749 1.524 . S
C750 C751 1.397 . S
C750 C755 1.363 . S
C751 H722 0.950 . S
C751 C750 1.397 . S
C751 C752 1.334 . S
C752 H723 0.950 . S
C752 C751 1.334 . S
C752 C753 1.287 . S
C753 C752 1.287 . S
C753 C754 1.524 . S
C753 H756 0.999 . S
C754 H724 0.950 . S
C754 C753 1.524 . S
C754 C755 1.415 . S
C755 H725 0.950 . S
C755 C750 1.363 . S
C755 C754 1.415 . S
H756 C753 0.999 . S
H757 C738 0.913 . S
H758 C776 0.951 . S
H759 C778 0.951 . S
H760 C780 0.950 . S
H761 C781 0.950 . S
H762 C783 0.950 . S
H763 C786 0.950 . S
H764 C787 0.950 . S
H765 C789 0.950 . S
H766 C790 0.950 1_556 S
H767 C791 0.951 . S
H768 C793 0.951 . S
H769 C795 0.950 . S
H770 C796 0.950 . S
H771 C798 0.950 . S
H772 C801 0.950 . S
H773 C802 0.950 . S
H774 C804 0.950 . S
H775 C805 0.950 . S
C776 H758 0.951 . S
C776 C777 1.366 . S
C776 C778 1.388 . S
C777 C776 1.366 . S
C777 C781 1.385 . S
C778 H759 0.951 . S
C778 C776 1.388 . S
C778 C779 1.366 . S
C779 C778 1.366 . S
C779 C780 1.414 . S
C779 C782 1.499 . S
C780 H760 0.950 . S
C780 C779 1.414 . S
C780 C781 1.374 . S
C781 H761 0.950 . S
C781 C777 1.385 . S
C781 C780 1.374 . S
C782 C779 1.499 . S
C782 C783 1.373 . S
C782 C784 1.389 . S
C783 H762 0.950 . S
C783 C782 1.373 . S
C783 C799 1.377 . S
C784 C782 1.389 . S
C784 C785 1.524 . S
C784 C798 1.377 . S
C785 C784 1.524 . S
C785 C786 1.397 . S
C785 C790 1.363 . S
C786 H763 0.950 . S
C786 C785 1.397 . S
C786 C787 1.334 . S
C787 H764 0.950 . S
C787 C786 1.334 . S
C787 C788 1.287 1_554 S
C788 C787 1.287 1_556 S
C788 C789 1.524 . S
C788 H807 0.913 . S
C789 H765 0.950 . S
C789 C788 1.524 . S
C789 C790 1.415 1_556 S
C790 H766 0.950 1_554 S
C790 C785 1.363 . S
C790 C789 1.415 1_554 S
C791 H767 0.951 . S
C791 C792 1.366 . S
C791 C793 1.388 . S
C792 C791 1.366 . S
C792 C796 1.385 . S
C793 H768 0.951 . S
C793 C791 1.388 . S
C793 C794 1.366 . S
C794 C793 1.366 . S
C794 C795 1.414 . S
C794 C797 1.499 . S
C795 H769 0.950 . S
C795 C794 1.414 . S
C795 C796 1.374 . S
C796 H770 0.950 . S
C796 C792 1.385 . S
C796 C795 1.374 . S
C797 C794 1.499 . S
C797 C798 1.373 . S
C797 C799 1.389 . S
C798 H771 0.950 . S
C798 C784 1.377 . S
C798 C797 1.373 . S
C799 C783 1.377 . S
C799 C797 1.389 . S
C799 C800 1.524 . S
C800 C799 1.524 . S
C800 C801 1.397 . S
C800 C805 1.363 . S
C801 H772 0.950 . S
C801 C800 1.397 . S
C801 C802 1.334 . S
C802 H773 0.950 . S
C802 C801 1.334 . S
C802 C803 1.287 . S
C803 C802 1.287 . S
C803 C804 1.524 . S
C803 H806 0.999 . S
C804 H774 0.950 . S
C804 C803 1.524 . S
C804 C805 1.415 . S
C805 H775 0.950 . S
C805 C800 1.363 . S
C805 C804 1.415 . S
H806 C803 0.999 . S
H807 C788 0.913 . S
H808 C826 0.951 . S
H809 C828 0.951 . S
H810 C830 0.950 . S
H811 C831 0.950 . S
H812 C833 0.950 . S
H813 C836 0.950 . S
H814 C837 0.950 . S
H815 C839 0.950 . S
H816 C840 0.950 . S
H817 C841 0.951 . S
H818 C843 0.951 . S
H819 C845 0.950 . S
H820 C846 0.950 . S
H821 C848 0.950 . S
H822 C851 0.950 . S
H823 C852 0.950 . S
H824 C854 0.950 . S
H825 C855 0.950 . S
C826 H808 0.951 . S
C826 C827 1.366 . S
C826 C828 1.388 . S
C827 C826 1.366 . S
C827 C831 1.385 . S
C828 H809 0.951 . S
C828 C826 1.388 . S
C828 C829 1.366 . S
C829 C828 1.366 . S
C829 C830 1.414 . S
C829 C832 1.499 . S
C830 H810 0.950 . S
C830 C829 1.414 . S
C830 C831 1.374 . S
C831 H811 0.950 . S
C831 C827 1.385 . S
C831 C830 1.374 . S
C832 C829 1.499 . S
C832 C833 1.373 . S
C832 C834 1.389 . S
C833 H812 0.950 . S
C833 C832 1.373 . S
C833 C849 1.377 1_565 S
C834 C832 1.389 . S
C834 C835 1.524 . S
C834 C848 1.377 1_565 S
C835 C834 1.524 . S
C835 C836 1.397 . S
C835 C840 1.363 . S
C836 H813 0.950 . S
C836 C835 1.397 . S
C836 C837 1.334 . S
C837 H814 0.950 . S
C837 C836 1.334 . S
C837 C838 1.287 . S
C838 C837 1.287 . S
C838 C839 1.524 . S
C838 H857 0.913 . S
C839 H815 0.950 . S
C839 C838 1.524 . S
C839 C840 1.415 . S
C840 H816 0.950 . S
C840 C835 1.363 . S
C840 C839 1.415 . S
C841 H817 0.951 . S
C841 C842 1.366 . S
C841 C843 1.388 . S
C842 C841 1.366 . S
C842 C846 1.385 . S
C843 H818 0.951 . S
C843 C841 1.388 . S
C843 C844 1.366 . S
C844 C843 1.366 . S
C844 C845 1.414 . S
C844 C847 1.499 . S
C845 H819 0.950 . S
C845 C844 1.414 . S
C845 C846 1.374 . S
C846 H820 0.950 . S
C846 C842 1.385 . S
C846 C845 1.374 . S
C847 C844 1.499 . S
C847 C848 1.373 . S
C847 C849 1.389 . S
C848 H821 0.950 . S
C848 C834 1.377 1_545 S
C848 C847 1.373 . S
C849 C833 1.377 1_545 S
C849 C847 1.389 . S
C849 C850 1.524 . S
C850 C849 1.524 . S
C850 C851 1.397 . S
C850 C855 1.363 . S
C851 H822 0.950 . S
C851 C850 1.397 . S
C851 C852 1.334 . S
C852 H823 0.950 . S
C852 C851 1.334 . S
C852 C853 1.287 . S
C853 C852 1.287 . S
C853 C854 1.524 . S
C853 H856 0.999 . S
C854 H824 0.950 . S
C854 C853 1.524 . S
C854 C855 1.415 . S
C855 H825 0.950 . S
C855 C850 1.363 . S
C855 C854 1.415 . S
H856 C853 0.999 . S
H857 C838 0.913 . S
H858 C876 0.951 . S
H859 C878 0.951 . S
H860 C880 0.950 . S
H861 C881 0.950 . S
H862 C883 0.950 . S
H863 C886 0.950 . S
H864 C887 0.950 . S
H865 C889 0.950 . S
H866 C890 0.950 . S
H867 C891 0.951 . S
H868 C893 0.951 . S
H869 C895 0.950 . S
H870 C896 0.950 . S
H871 C898 0.950 . S
H872 C901 0.950 . S
H873 C902 0.950 . S
H874 C904 0.950 . S
H875 C905 0.950 . S
C876 H858 0.951 . S
C876 C877 1.366 . S
C876 C878 1.388 . S
C877 C876 1.366 . S
C877 C881 1.385 . S
C878 H859 0.951 . S
C878 C876 1.388 . S
C878 C879 1.366 . S
C879 C878 1.366 . S
C879 C880 1.414 . S
C879 C882 1.499 . S
C880 H860 0.950 . S
C880 C879 1.414 . S
C880 C881 1.374 . S
C881 H861 0.950 . S
C881 C877 1.385 . S
C881 C880 1.374 . S
C882 C879 1.499 . S
C882 C883 1.373 . S
C882 C884 1.389 . S
C883 H862 0.950 . S
C883 C882 1.373 . S
C883 C899 1.377 1_655 S
C884 C882 1.389 . S
C884 C885 1.524 . S
C884 C898 1.377 1_655 S
C885 C884 1.524 . S
C885 C886 1.397 . S
C885 C890 1.363 . S
C886 H863 0.950 . S
C886 C885 1.397 . S
C886 C887 1.334 . S
C887 H864 0.950 . S
C887 C886 1.334 . S
C887 C888 1.287 . S
C888 C887 1.287 . S
C888 C889 1.524 . S
C888 H907 0.913 . S
C889 H865 0.950 . S
C889 C888 1.524 . S
C889 C890 1.415 . S
C890 H866 0.950 . S
C890 C885 1.363 . S
C890 C889 1.415 . S
C891 H867 0.951 . S
C891 C892 1.366 . S
C891 C893 1.388 . S
C892 C891 1.366 . S
C892 C896 1.385 . S
C893 H868 0.951 . S
C893 C891 1.388 . S
C893 C894 1.366 . S
C894 C893 1.366 . S
C894 C895 1.414 . S
C894 C897 1.499 . S
C895 H869 0.950 . S
C895 C894 1.414 . S
C895 C896 1.374 . S
C896 H870 0.950 . S
C896 C892 1.385 . S
C896 C895 1.374 . S
C897 C894 1.499 . S
C897 C898 1.373 . S
C897 C899 1.389 . S
C898 H871 0.950 . S
C898 C884 1.377 1_455 S
C898 C897 1.373 . S
C899 C883 1.377 1_455 S
C899 C897 1.389 . S
C899 C900 1.524 . S
C900 C899 1.524 . S
C900 C901 1.397 . S
C900 C905 1.363 . S
C901 H872 0.950 . S
C901 C900 1.397 . S
C901 C902 1.334 . S
C902 H873 0.950 . S
C902 C901 1.334 . S
C902 C903 1.287 . S
C903 C902 1.287 . S
C903 C904 1.524 . S
C903 H906 0.999 . S
C904 H874 0.950 . S
C904 C903 1.524 . S
C904 C905 1.415 . S
C905 H875 0.950 . S
C905 C900 1.363 . S
C905 C904 1.415 . S
H906 C903 0.999 . S
H907 C888 0.913 . S
H908 C926 0.951 . S
H909 C928 0.951 . S
H910 C930 0.950 . S
H911 C931 0.950 . S
H912 C933 0.950 . S
H913 C936 0.950 . S
H914 C937 0.950 . S
H915 C939 0.950 . S
H916 C940 0.950 . S
H917 C941 0.951 . S
H918 C943 0.951 . S
H919 C945 0.950 . S
H920 C946 0.950 . S
H921 C948 0.950 . S
H922 C951 0.950 . S
H923 C952 0.950 . S
H924 C954 0.950 . S
H925 C955 0.950 1_565 S
C926 H908 0.951 . S
C926 C927 1.366 . S
C926 C928 1.388 . S
C927 C926 1.366 . S
C927 C931 1.385 . S
C928 H909 0.951 . S
C928 C926 1.388 . S
C928 C929 1.366 . S
C929 C928 1.366 . S
C929 C930 1.414 . S
C929 C932 1.499 . S
C930 H910 0.950 . S
C930 C929 1.414 . S
C930 C931 1.374 . S
C931 H911 0.950 . S
C931 C927 1.385 . S
C931 C930 1.374 . S
C932 C929 1.499 . S
C932 C933 1.373 . S
C932 C934 1.389 . S
C933 H912 0.950 . S
C933 C932 1.373 . S
C933 C949 1.377 1_565 S
C934 C932 1.389 . S
C934 C935 1.524 . S
C934 C948 1.377 1_565 S
C935 C934 1.524 . S
C935 C936 1.397 . S
C935 C940 1.363 . S
C936 H913 0.950 . S
C936 C935 1.397 . S
C936 C937 1.334 . S
C937 H914 0.950 . S
C937 C936 1.334 . S
C937 C938 1.287 . S
C938 C937 1.287 . S
C938 C939 1.524 . S
C938 H957 0.913 . S
C939 H915 0.950 . S
C939 C938 1.524 . S
C939 C940 1.415 . S
C940 H916 0.950 . S
C940 C935 1.363 . S
C940 C939 1.415 . S
C941 H917 0.951 . S
C941 C942 1.366 . S
C941 C943 1.388 . S
C942 C941 1.366 . S
C942 C946 1.385 . S
C943 H918 0.951 . S
C943 C941 1.388 . S
C943 C944 1.366 . S
C944 C943 1.366 . S
C944 C945 1.414 . S
C944 C947 1.499 . S
C945 H919 0.950 . S
C945 C944 1.414 . S
C945 C946 1.374 . S
C946 H920 0.950 . S
C946 C942 1.385 . S
C946 C945 1.374 . S
C947 C944 1.499 . S
C947 C948 1.373 . S
C947 C949 1.389 . S
C948 H921 0.950 . S
C948 C934 1.377 1_545 S
C948 C947 1.373 . S
C949 C933 1.377 1_545 S
C949 C947 1.389 . S
C949 C950 1.524 . S
C950 C949 1.524 . S
C950 C951 1.397 . S
C950 C955 1.363 . S
C951 H922 0.950 . S
C951 C950 1.397 . S
C951 C952 1.334 . S
C952 H923 0.950 . S
C952 C951 1.334 . S
C952 C953 1.287 . S
C953 C952 1.287 . S
C953 C954 1.524 . S
C953 H956 0.999 1_556 S
C954 H924 0.950 . S
C954 C953 1.524 . S
C954 C955 1.415 . S
C955 H925 0.950 1_545 S
C955 C950 1.363 . S
C955 C954 1.415 . S
H956 C953 0.999 1_554 S
H957 C938 0.913 . S
H958 C976 0.951 . S
H959 C978 0.951 . S
H960 C980 0.950 . S
H961 C981 0.950 . S
H962 C983 0.950 . S
H963 C986 0.950 . S
H964 C987 0.950 . S
H965 C989 0.950 . S
H966 C990 0.950 . S
H967 C991 0.951 . S
H968 C993 0.951 . S
H969 C995 0.950 . S
H970 C996 0.950 . S
H971 C998 0.950 . S
H972 C1001 0.950 . S
H973 C1002 0.950 . S
H974 C1004 0.950 . S
H975 C1005 0.950 . S
C976 H958 0.951 . S
C976 C977 1.366 . S
C976 C978 1.388 . S
C977 C976 1.366 . S
C977 C981 1.385 . S
C978 H959 0.951 . S
C978 C976 1.388 . S
C978 C979 1.366 . S
C979 C978 1.366 . S
C979 C980 1.414 . S
C979 C982 1.499 . S
C980 H960 0.950 . S
C980 C979 1.414 . S
C980 C981 1.374 . S
C981 H961 0.950 . S
C981 C977 1.385 . S
C981 C980 1.374 . S
C982 C979 1.499 . S
C982 C983 1.373 . S
C982 C984 1.389 . S
C983 H962 0.950 . S
C983 C982 1.373 . S
C983 C999 1.377 1_655 S
C984 C982 1.389 . S
C984 C985 1.524 . S
C984 C998 1.377 1_655 S
C985 C984 1.524 . S
C985 C986 1.397 . S
C985 C990 1.363 . S
C986 H963 0.950 . S
C986 C985 1.397 . S
C986 C987 1.334 . S
C987 H964 0.950 . S
C987 C986 1.334 . S
C987 C988 1.287 . S
C988 C987 1.287 . S
C988 C989 1.524 . S
C988 H1007 0.913 . S
C989 H965 0.950 . S
C989 C988 1.524 . S
C989 C990 1.415 . S
C990 H966 0.950 . S
C990 C985 1.363 . S
C990 C989 1.415 . S
C991 H967 0.951 . S
C991 C992 1.366 . S
C991 C993 1.388 . S
C992 C991 1.366 . S
C992 C996 1.385 . S
C993 H968 0.951 . S
C993 C991 1.388 . S
C993 C994 1.366 . S
C994 C993 1.366 . S
C994 C995 1.414 . S
C994 C997 1.499 . S
C995 H969 0.950 . S
C995 C994 1.414 . S
C995 C996 1.374 . S
C996 H970 0.950 . S
C996 C992 1.385 . S
C996 C995 1.374 . S
C997 C994 1.499 . S
C997 C998 1.373 . S
C997 C999 1.389 . S
C998 H971 0.950 . S
C998 C984 1.377 1_455 S
C998 C997 1.373 . S
C999 C983 1.377 1_455 S
C999 C997 1.389 . S
C999 C1000 1.524 . S
C1000 C999 1.524 . S
C1000 C1001 1.397 . S
C1000 C1005 1.363 . S
C1001 H972 0.950 . S
C1001 C1000 1.397 . S
C1001 C1002 1.334 . S
C1002 H973 0.950 . S
C1002 C1001 1.334 . S
C1002 C1003 1.287 . S
C1003 C1002 1.287 . S
C1003 C1004 1.524 . S
C1003 H1006 0.999 . S
C1004 H974 0.950 . S
C1004 C1003 1.524 . S
C1004 C1005 1.415 . S
C1005 H975 0.950 . S
C1005 C1000 1.363 . S
C1005 C1004 1.415 . S
H1006 C1003 0.999 . S
H1007 C988 0.913 . S
H1008 C1026 0.951 . S
H1009 C1028 0.951 . S
H1010 C1030 0.950 1_556 S
H1011 C1031 0.950 1_556 S
H1012 C1033 0.950 . S
H1013 C1036 0.950 . S
H1014 C1037 0.950 . S
H1015 C1039 0.950 . S
H1016 C1040 0.950 . S
H1017 C1041 0.951 1_556 S
H1018 C1043 0.951 1_556 S
H1019 C1045 0.950 . S
H1020 C1046 0.950 . S
H1021 C1048 0.950 . S
H1022 C1051 0.950 . S
H1023 C1052 0.950 1_554 S
H1024 C1054 0.950 . S
H1025 C1055 0.950 . S
C1026 H1008 0.951 . S
C1026 C1027 1.366 . S
C1026 C1028 1.388 . S
C1027 C1026 1.366 . S
C1027 C1031 1.385 . S
C1028 H1009 0.951 . S
C1028 C1026 1.388 . S
C1028 C1029 1.366 . S
C1029 C1028 1.366 . S
C1029 C1030 1.414 . S
C1029 C1032 1.499 . S
C1030 H1010 0.950 1_554 S
C1030 C1029 1.414 . S
C1030 C1031 1.374 . S
C1031 H1011 0.950 1_554 S
C1031 C1027 1.385 . S
C1031 C1030 1.374 . S
C1032 C1029 1.499 . S
C1032 C1033 1.373 . S
C1032 C1034 1.389 . S
C1033 H1012 0.950 . S
C1033 C1032 1.373 . S
C1033 C1049 1.377 . S
C1034 C1032 1.389 . S
C1034 C1035 1.524 . S
C1034 C1048 1.377 . S
C1035 C1034 1.524 . S
C1035 C1036 1.397 . S
C1035 C1040 1.363 . S
C1036 H1013 0.950 . S
C1036 C1035 1.397 . S
C1036 C1037 1.334 . S
C1037 H1014 0.950 . S
C1037 C1036 1.334 . S
C1037 C1038 1.287 . S
C1038 C1037 1.287 . S
C1038 C1039 1.524 . S
C1038 H1057 0.913 . S
C1039 H1015 0.950 . S
C1039 C1038 1.524 . S
C1039 C1040 1.415 . S
C1040 H1016 0.950 . S
C1040 C1035 1.363 . S
C1040 C1039 1.415 . S
C1041 H1017 0.951 1_554 S
C1041 C1042 1.366 . S
C1041 C1043 1.388 . S
C1042 C1041 1.366 . S
C1042 C1046 1.385 . S
C1043 H1018 0.951 1_554 S
C1043 C1041 1.388 . S
C1043 C1044 1.366 . S
C1044 C1043 1.366 . S
C1044 C1045 1.414 . S
C1044 C1047 1.499 . S
C1045 H1019 0.950 . S
C1045 C1044 1.414 . S
C1045 C1046 1.374 . S
C1046 H1020 0.950 . S
C1046 C1042 1.385 . S
C1046 C1045 1.374 . S
C1047 C1044 1.499 . S
C1047 C1048 1.373 . S
C1047 C1049 1.389 . S
C1048 H1021 0.950 . S
C1048 C1034 1.377 . S
C1048 C1047 1.373 . S
C1049 C1033 1.377 . S
C1049 C1047 1.389 . S
C1049 C1050 1.524 1_554 S
C1050 C1049 1.524 1_556 S
C1050 C1051 1.397 1_556 S
C1050 C1055 1.363 . S
C1051 H1022 0.950 . S
C1051 C1050 1.397 1_554 S
C1051 C1052 1.334 1_554 S
C1052 H1023 0.950 1_556 S
C1052 C1051 1.334 1_556 S
C1052 C1053 1.287 . S
C1053 C1052 1.287 . S
C1053 C1054 1.524 . S
C1053 H1056 0.999 . S
C1054 H1024 0.950 . S
C1054 C1053 1.524 . S
C1054 C1055 1.415 . S
C1055 H1025 0.950 . S
C1055 C1050 1.363 . S
C1055 C1054 1.415 . S
H1056 C1053 0.999 . S
H1057 C1038 0.913 . S
H1058 C1076 0.951 . S
H1059 C1078 0.951 . S
H1060 C1080 0.950 1_554 S
H1061 C1081 0.950 1_554 S
H1062 C1083 0.950 . S
H1063 C1086 0.950 . S
H1064 C1087 0.950 . S
H1065 C1089 0.950 . S
H1066 C1090 0.950 . S
H1067 C1091 0.951 1_554 S
H1068 C1093 0.951 1_554 S
H1069 C1095 0.950 . S
H1070 C1096 0.950 . S
H1071 C1098 0.950 . S
H1072 C1101 0.950 . S
H1073 C1102 0.950 1_556 S
H1074 C1104 0.950 . S
H1075 C1105 0.950 . S
C1076 H1058 0.951 . S
C1076 C1077 1.366 . S
C1076 C1078 1.388 . S
C1077 C1076 1.366 . S
C1077 C1081 1.385 . S
C1078 H1059 0.951 . S
C1078 C1076 1.388 . S
C1078 C1079 1.366 . S
C1079 C1078 1.366 . S
C1079 C1080 1.414 . S
C1079 C1082 1.499 . S
C1080 H1060 0.950 1_556 S
C1080 C1079 1.414 . S
C1080 C1081 1.374 . S
C1081 H1061 0.950 1_556 S
C1081 C1077 1.385 . S
C1081 C1080 1.374 . S
C1082 C1079 1.499 . S
C1082 C1083 1.373 . S
C1082 C1084 1.389 . S
C1083 H1062 0.950 . S
C1083 C1082 1.373 . S
C1083 C1099 1.377 . S
C1084 C1082 1.389 . S
C1084 C1085 1.524 . S
C1084 C1098 1.377 . S
C1085 C1084 1.524 . S
C1085 C1086 1.397 . S
C1085 C1090 1.363 . S
C1086 H1063 0.950 . S
C1086 C1085 1.397 . S
C1086 C1087 1.334 . S
C1087 H1064 0.950 . S
C1087 C1086 1.334 . S
C1087 C1088 1.287 . S
C1088 C1087 1.287 . S
C1088 C1089 1.524 . S
C1088 H1107 0.913 . S
C1089 H1065 0.950 . S
C1089 C1088 1.524 . S
C1089 C1090 1.415 . S
C1090 H1066 0.950 . S
C1090 C1085 1.363 . S
C1090 C1089 1.415 . S
C1091 H1067 0.951 1_556 S
C1091 C1092 1.366 . S
C1091 C1093 1.388 . S
C1092 C1091 1.366 . S
C1092 C1096 1.385 . S
C1093 H1068 0.951 1_556 S
C1093 C1091 1.388 . S
C1093 C1094 1.366 . S
C1094 C1093 1.366 . S
C1094 C1095 1.414 . S
C1094 C1097 1.499 . S
C1095 H1069 0.950 . S
C1095 C1094 1.414 . S
C1095 C1096 1.374 . S
C1096 H1070 0.950 . S
C1096 C1092 1.385 . S
C1096 C1095 1.374 . S
C1097 C1094 1.499 . S
C1097 C1098 1.373 . S
C1097 C1099 1.389 . S
C1098 H1071 0.950 . S
C1098 C1084 1.377 . S
C1098 C1097 1.373 . S
C1099 C1083 1.377 . S
C1099 C1097 1.389 . S
C1099 C1100 1.524 1_556 S
C1100 C1099 1.524 1_554 S
C1100 C1101 1.397 1_554 S
C1100 C1105 1.363 . S
C1101 H1072 0.950 . S
C1101 C1100 1.397 1_556 S
C1101 C1102 1.334 1_556 S
C1102 H1073 0.950 1_554 S
C1102 C1101 1.334 1_554 S
C1102 C1103 1.287 . S
C1103 C1102 1.287 . S
C1103 C1104 1.524 . S
C1103 H1106 0.999 . S
C1104 H1074 0.950 . S
C1104 C1103 1.524 . S
C1104 C1105 1.415 . S
C1105 H1075 0.950 . S
C1105 C1100 1.363 . S
C1105 C1104 1.415 . S
H1106 C1103 0.999 . S
H1107 C1088 0.913 . S
H1108 C1126 0.951 1_556 S
H1109 C1128 0.951 1_556 S
H1110 C1130 0.950 . S
H1111 C1131 0.950 . S
H1112 C1133 0.950 . S
H1113 C1136 0.950 1_554 S
H1114 C1137 0.950 . S
H1115 C1139 0.950 . S
H1116 C1140 0.950 . S
H1117 C1141 0.951 . S
H1118 C1143 0.951 . S
H1119 C1145 0.950 1_556 S
H1120 C1146 0.950 1_556 S
H1121 C1148 0.950 1_556 S
H1122 C1151 0.950 . S
H1123 C1152 0.950 . S
H1124 C1154 0.950 . S
H1125 C1155 0.950 . S
C1126 H1108 0.951 1_554 S
C1126 C1127 1.366 . S
C1126 C1128 1.388 . S
C1127 C1126 1.366 . S
C1127 C1131 1.385 . S
C1128 H1109 0.951 1_554 S
C1128 C1126 1.388 . S
C1128 C1129 1.366 . S
C1129 C1128 1.366 . S
C1129 C1130 1.414 . S
C1129 C1132 1.499 . S
C1130 H1110 0.950 . S
C1130 C1129 1.414 . S
C1130 C1131 1.374 . S
C1131 H1111 0.950 . S
C1131 C1127 1.385 . S
C1131 C1130 1.374 . S
C1132 C1129 1.499 . S
C1132 C1133 1.373 . S
C1132 C1134 1.389 . S
C1133 H1112 0.950 . S
C1133 C1132 1.373 . S
C1133 C1149 1.377 . S
C1134 C1132 1.389 . S
C1134 C1135 1.524 1_554 S
C1134 C1148 1.377 . S
C1135 C1134 1.524 1_556 S
C1135 C1136 1.397 . S
C1135 C1140 1.363 . S
C1136 H1113 0.950 1_556 S
C1136 C1135 1.397 . S
C1136 C1137 1.334 . S
C1137 H1114 0.950 . S
C1137 C1136 1.334 . S
C1137 C1138 1.287 . S
C1138 C1137 1.287 . S
C1138 C1139 1.524 . S
C1138 H1157 0.913 . S
C1139 H1115 0.950 . S
C1139 C1138 1.524 . S
C1139 C1140 1.415 . S
C1140 H1116 0.950 . S
C1140 C1135 1.363 . S
C1140 C1139 1.415 . S
C1141 H1117 0.951 . S
C1141 C1142 1.366 . S
C1141 C1143 1.388 . S
C1142 C1141 1.366 . S
C1142 C1146 1.385 . S
C1143 H1118 0.951 . S
C1143 C1141 1.388 . S
C1143 C1144 1.366 . S
C1144 C1143 1.366 . S
C1144 C1145 1.414 . S
C1144 C1147 1.499 . S
C1145 H1119 0.950 1_554 S
C1145 C1144 1.414 . S
C1145 C1146 1.374 . S
C1146 H1120 0.950 1_554 S
C1146 C1142 1.385 . S
C1146 C1145 1.374 . S
C1147 C1144 1.499 . S
C1147 C1148 1.373 . S
C1147 C1149 1.389 . S
C1148 H1121 0.950 1_554 S
C1148 C1134 1.377 . S
C1148 C1147 1.373 . S
C1149 C1133 1.377 . S
C1149 C1147 1.389 . S
C1149 C1150 1.524 . S
C1150 C1149 1.524 . S
C1150 C1151 1.397 . S
C1150 C1155 1.363 . S
C1151 H1122 0.950 . S
C1151 C1150 1.397 . S
C1151 C1152 1.334 . S
C1152 H1123 0.950 . S
C1152 C1151 1.334 . S
C1152 C1153 1.287 . S
C1153 C1152 1.287 . S
C1153 C1154 1.524 . S
C1153 H1156 0.999 . S
C1154 H1124 0.950 . S
C1154 C1153 1.524 . S
C1154 C1155 1.415 . S
C1155 H1125 0.950 . S
C1155 C1150 1.363 . S
C1155 C1154 1.415 . S
H1156 C1153 0.999 . S
H1157 C1138 0.913 . S
H1158 C1176 0.951 . S
H1159 C1178 0.951 . S
H1160 C1180 0.950 . S
H1161 C1181 0.950 . S
H1162 C1183 0.950 . S
H1163 C1186 0.950 . S
H1164 C1187 0.950 . S
H1165 C1189 0.950 . S
H1166 C1190 0.950 . S
H1167 C1191 0.951 . S
H1168 C1193 0.951 . S
H1169 C1195 0.950 . S
H1170 C1196 0.950 . S
H1171 C1198 0.950 . S
H1172 C1201 0.950 . S
H1173 C1202 0.950 . S
H1174 C1204 0.950 . S
H1175 C1205 0.950 . S
C1176 H1158 0.951 . S
C1176 C1177 1.366 . S
C1176 C1178 1.388 . S
C1177 C1176 1.366 . S
C1177 C1181 1.385 . S
C1178 H1159 0.951 . S
C1178 C1176 1.388 . S
C1178 C1179 1.366 . S
C1179 C1178 1.366 . S
C1179 C1180 1.414 . S
C1179 C1182 1.499 . S
C1180 H1160 0.950 . S
C1180 C1179 1.414 . S
C1180 C1181 1.374 . S
C1181 H1161 0.950 . S
C1181 C1177 1.385 . S
C1181 C1180 1.374 . S
C1182 C1179 1.499 . S
C1182 C1183 1.373 . S
C1182 C1184 1.389 . S
C1183 H1162 0.950 . S
C1183 C1182 1.373 . S
C1183 C1199 1.377 . S
C1184 C1182 1.389 . S
C1184 C1185 1.524 . S
C1184 C1198 1.377 . S
C1185 C1184 1.524 . S
C1185 C1186 1.397 1_556 S
C1185 C1190 1.363 . S
C1186 H1163 0.950 . S
C1186 C1185 1.397 1_554 S
C1186 C1187 1.334 . S
C1187 H1164 0.950 . S
C1187 C1186 1.334 . S
C1187 C1188 1.287 . S
C1188 C1187 1.287 . S
C1188 C1189 1.524 . S
C1188 H1207 0.913 . S
C1189 H1165 0.950 . S
C1189 C1188 1.524 . S
C1189 C1190 1.415 1_554 S
C1190 H1166 0.950 . S
C1190 C1185 1.363 . S
C1190 C1189 1.415 1_556 S
C1191 H1167 0.951 . S
C1191 C1192 1.366 . S
C1191 C1193 1.388 . S
C1192 C1191 1.366 . S
C1192 C1196 1.385 . S
C1193 H1168 0.951 . S
C1193 C1191 1.388 . S
C1193 C1194 1.366 . S
C1194 C1193 1.366 . S
C1194 C1195 1.414 . S
C1194 C1197 1.499 . S
C1195 H1169 0.950 . S
C1195 C1194 1.414 . S
C1195 C1196 1.374 . S
C1196 H1170 0.950 . S
C1196 C1192 1.385 . S
C1196 C1195 1.374 . S
C1197 C1194 1.499 . S
C1197 C1198 1.373 . S
C1197 C1199 1.389 . S
C1198 H1171 0.950 . S
C1198 C1184 1.377 . S
C1198 C1197 1.373 . S
C1199 C1183 1.377 . S
C1199 C1197 1.389 . S
C1199 C1200 1.524 . S
C1200 C1199 1.524 . S
C1200 C1201 1.397 . S
C1200 C1205 1.363 . S
C1201 H1172 0.950 . S
C1201 C1200 1.397 . S
C1201 C1202 1.334 . S
C1202 H1173 0.950 . S
C1202 C1201 1.334 . S
C1202 C1203 1.287 . S
C1203 C1202 1.287 . S
C1203 C1204 1.524 . S
C1203 H1206 0.999 . S
C1204 H1174 0.950 . S
C1204 C1203 1.524 . S
C1204 C1205 1.415 . S
C1205 H1175 0.950 . S
C1205 C1200 1.363 . S
C1205 C1204 1.415 . S
H1206 C1203 0.999 . S
H1207 C1188 0.913 . S
H1208 C1226 0.951 . S
H1209 C1228 0.951 . S
H1210 C1230 0.950 . S
H1211 C1231 0.950 . S
H1212 C1233 0.950 . S
H1213 C1236 0.950 . S
H1214 C1237 0.950 . S
H1215 C1239 0.950 . S
H1216 C1240 0.950 . S
H1217 C1241 0.951 . S
H1218 C1243 0.951 . S
H1219 C1245 0.950 . S
H1220 C1246 0.950 . S
H1221 C1248 0.950 . S
H1222 C1251 0.950 . S
H1223 C1252 0.950 . S
H1224 C1254 0.950 . S
H1225 C1255 0.950 . S
C1226 H1208 0.951 . S
C1226 C1227 1.366 . S
C1226 C1228 1.388 . S
C1227 C1226 1.366 . S
C1227 C1231 1.385 . S
C1228 H1209 0.951 . S
C1228 C1226 1.388 . S
C1228 C1229 1.366 . S
C1229 C1228 1.366 . S
C1229 C1230 1.414 . S
C1229 C1232 1.499 . S
C1230 H1210 0.950 . S
C1230 C1229 1.414 . S
C1230 C1231 1.374 . S
C1231 H1211 0.950 . S
C1231 C1227 1.385 . S
C1231 C1230 1.374 . S
C1232 C1229 1.499 . S
C1232 C1233 1.373 . S
C1232 C1234 1.389 . S
C1233 H1212 0.950 . S
C1233 C1232 1.373 . S
C1233 C1249 1.377 . S
C1234 C1232 1.389 . S
C1234 C1235 1.524 . S
C1234 C1248 1.377 . S
C1235 C1234 1.524 . S
C1235 C1236 1.397 . S
C1235 C1240 1.363 . S
C1236 H1213 0.950 . S
C1236 C1235 1.397 . S
C1236 C1237 1.334 . S
C1237 H1214 0.950 . S
C1237 C1236 1.334 . S
C1237 C1238 1.287 . S
C1238 C1237 1.287 . S
C1238 C1239 1.524 . S
C1238 H1257 0.913 . S
C1239 H1215 0.950 . S
C1239 C1238 1.524 . S
C1239 C1240 1.415 . S
C1240 H1216 0.950 . S
C1240 C1235 1.363 . S
C1240 C1239 1.415 . S
C1241 H1217 0.951 . S
C1241 C1242 1.366 . S
C1241 C1243 1.388 . S
C1242 C1241 1.366 . S
C1242 C1246 1.385 . S
C1243 H1218 0.951 . S
C1243 C1241 1.388 . S
C1243 C1244 1.366 . S
C1244 C1243 1.366 . S
C1244 C1245 1.414 . S
C1244 C1247 1.499 . S
C1245 H1219 0.950 . S
C1245 C1244 1.414 . S
C1245 C1246 1.374 . S
C1246 H1220 0.950 . S
C1246 C1242 1.385 . S
C1246 C1245 1.374 . S
C1247 C1244 1.499 . S
C1247 C1248 1.373 . S
C1247 C1249 1.389 . S
C1248 H1221 0.950 . S
C1248 C1234 1.377 . S
C1248 C1247 1.373 . S
C1249 C1233 1.377 . S
C1249 C1247 1.389 . S
C1249 C1250 1.524 . S
C1250 C1249 1.524 . S
C1250 C1251 1.397 . S
C1250 C1255 1.363 . S
C1251 H1222 0.950 . S
C1251 C1250 1.397 . S
C1251 C1252 1.334 . S
C1252 H1223 0.950 . S
C1252 C1251 1.334 . S
C1252 C1253 1.287 . S
C1253 C1252 1.287 . S
C1253 C1254 1.524 . S
C1253 H1256 0.999 . S
C1254 H1224 0.950 . S
C1254 C1253 1.524 . S
C1254 C1255 1.415 . S
C1255 H1225 0.950 . S
C1255 C1250 1.363 . S
C1255 C1254 1.415 . S
H1256 C1253 0.999 . S
H1257 C1238 0.913 . S
H1258 C1276 0.951 . S
H1259 C1278 0.951 . S
H1260 C1280 0.950 . S
H1261 C1281 0.950 . S
H1262 C1283 0.950 . S
H1263 C1286 0.950 . S
H1264 C1287 0.950 . S
H1265 C1289 0.950 . S
H1266 C1290 0.950 . S
H1267 C1291 0.951 . S
H1268 C1293 0.951 . S
H1269 C1295 0.950 . S
H1270 C1296 0.950 . S
H1271 C1298 0.950 . S
H1272 C1301 0.950 . S
H1273 C1302 0.950 . S
H1274 C1304 0.950 . S
H1275 C1305 0.950 . S
C1276 H1258 0.951 . S
C1276 C1277 1.366 . S
C1276 C1278 1.388 . S
C1277 C1276 1.366 . S
C1277 C1281 1.385 . S
C1278 H1259 0.951 . S
C1278 C1276 1.388 . S
C1278 C1279 1.366 . S
C1279 C1278 1.366 . S
C1279 C1280 1.414 . S
C1279 C1282 1.499 . S
C1280 H1260 0.950 . S
C1280 C1279 1.414 . S
C1280 C1281 1.374 . S
C1281 H1261 0.950 . S
C1281 C1277 1.385 . S
C1281 C1280 1.374 . S
C1282 C1279 1.499 . S
C1282 C1283 1.373 . S
C1282 C1284 1.389 . S
C1283 H1262 0.950 . S
C1283 C1282 1.373 . S
C1283 C1299 1.377 . S
C1284 C1282 1.389 . S
C1284 C1285 1.524 . S
C1284 C1298 1.377 . S
C1285 C1284 1.524 . S
C1285 C1286 1.397 . S
C1285 C1290 1.363 . S
C1286 H1263 0.950 . S
C1286 C1285 1.397 . S
C1286 C1287 1.334 . S
C1287 H1264 0.950 . S
C1287 C1286 1.334 . S
C1287 C1288 1.287 . S
C1288 C1287 1.287 . S
C1288 C1289 1.524 . S
C1288 H1307 0.913 . S
C1289 H1265 0.950 . S
C1289 C1288 1.524 . S
C1289 C1290 1.415 . S
C1290 H1266 0.950 . S
C1290 C1285 1.363 . S
C1290 C1289 1.415 . S
C1291 H1267 0.951 . S
C1291 C1292 1.366 . S
C1291 C1293 1.388 . S
C1292 C1291 1.366 . S
C1292 C1296 1.385 . S
C1293 H1268 0.951 . S
C1293 C1291 1.388 . S
C1293 C1294 1.366 . S
C1294 C1293 1.366 . S
C1294 C1295 1.414 . S
C1294 C1297 1.499 . S
C1295 H1269 0.950 . S
C1295 C1294 1.414 . S
C1295 C1296 1.374 . S
C1296 H1270 0.950 . S
C1296 C1292 1.385 . S
C1296 C1295 1.374 . S
C1297 C1294 1.499 . S
C1297 C1298 1.373 . S
C1297 C1299 1.389 . S
C1298 H1271 0.950 . S
C1298 C1284 1.377 . S
C1298 C1297 1.373 . S
C1299 C1283 1.377 . S
C1299 C1297 1.389 . S
C1299 C1300 1.524 . S
C1300 C1299 1.524 . S
C1300 C1301 1.397 . S
C1300 C1305 1.363 . S
C1301 H1272 0.950 . S
C1301 C1300 1.397 . S
C1301 C1302 1.334 . S
C1302 H1273 0.950 . S
C1302 C1301 1.334 . S
C1302 C1303 1.287 . S
C1303 C1302 1.287 . S
C1303 C1304 1.524 . S
C1303 H1306 0.999 . S
C1304 H1274 0.950 . S
C1304 C1303 1.524 . S
C1304 C1305 1.415 . S
C1305 H1275 0.950 . S
C1305 C1300 1.363 . S
C1305 C1304 1.415 . S
H1306 C1303 0.999 . S
H1307 C1288 0.913 . S
H1308 C1326 0.951 . S
H1309 C1328 0.951 . S
H1310 C1330 0.950 . S
H1311 C1331 0.950 . S
H1312 C1333 0.950 . S
H1313 C1336 0.950 . S
H1314 C1337 0.950 . S
H1315 C1339 0.950 . S
H1316 C1340 0.950 . S
H1317 C1341 0.951 . S
H1318 C1343 0.951 . S
H1319 C1345 0.950 . S
H1320 C1346 0.950 . S
H1321 C1348 0.950 . S
H1322 C1351 0.950 . S
H1323 C1352 0.950 . S
H1324 C1354 0.950 . S
H1325 C1355 0.950 . S
C1326 H1308 0.951 . S
C1326 C1327 1.366 . S
C1326 C1328 1.388 . S
C1327 C1326 1.366 . S
C1327 C1331 1.385 . S
C1328 H1309 0.951 . S
C1328 C1326 1.388 . S
C1328 C1329 1.366 . S
C1329 C1328 1.366 . S
C1329 C1330 1.414 . S
C1329 C1332 1.499 . S
C1330 H1310 0.950 . S
C1330 C1329 1.414 . S
C1330 C1331 1.374 . S
C1331 H1311 0.950 . S
C1331 C1327 1.385 . S
C1331 C1330 1.374 . S
C1332 C1329 1.499 . S
C1332 C1333 1.373 . S
C1332 C1334 1.389 . S
C1333 H1312 0.950 . S
C1333 C1332 1.373 . S
C1333 C1349 1.377 . S
C1334 C1332 1.389 . S
C1334 C1335 1.524 . S
C1334 C1348 1.377 . S
C1335 C1334 1.524 . S
C1335 C1336 1.397 . S
C1335 C1340 1.363 . S
C1336 H1313 0.950 . S
C1336 C1335 1.397 . S
C1336 C1337 1.334 . S
C1337 H1314 0.950 . S
C1337 C1336 1.334 . S
C1337 C1338 1.287 . S
C1338 C1337 1.287 . S
C1338 C1339 1.524 . S
C1338 H1357 0.913 . S
C1339 H1315 0.950 . S
C1339 C1338 1.524 . S
C1339 C1340 1.415 . S
C1340 H1316 0.950 . S
C1340 C1335 1.363 . S
C1340 C1339 1.415 . S
C1341 H1317 0.951 . S
C1341 C1342 1.366 . S
C1341 C1343 1.388 . S
C1342 C1341 1.366 . S
C1342 C1346 1.385 . S
C1343 H1318 0.951 . S
C1343 C1341 1.388 . S
C1343 C1344 1.366 . S
C1344 C1343 1.366 . S
C1344 C1345 1.414 . S
C1344 C1347 1.499 . S
C1345 H1319 0.950 . S
C1345 C1344 1.414 . S
C1345 C1346 1.374 . S
C1346 H1320 0.950 . S
C1346 C1342 1.385 . S
C1346 C1345 1.374 . S
C1347 C1344 1.499 . S
C1347 C1348 1.373 . S
C1347 C1349 1.389 . S
C1348 H1321 0.950 . S
C1348 C1334 1.377 . S
C1348 C1347 1.373 . S
C1349 C1333 1.377 . S
C1349 C1347 1.389 . S
C1349 C1350 1.524 . S
C1350 C1349 1.524 . S
C1350 C1351 1.397 . S
C1350 C1355 1.363 . S
C1351 H1322 0.950 . S
C1351 C1350 1.397 . S
C1351 C1352 1.334 . S
C1352 H1323 0.950 . S
C1352 C1351 1.334 . S
C1352 C1353 1.287 1_556 S
C1353 C1352 1.287 1_554 S
C1353 C1354 1.524 . S
C1353 H1356 0.999 . S
C1354 H1324 0.950 . S
C1354 C1353 1.524 . S
C1354 C1355 1.415 1_554 S
C1355 H1325 0.950 . S
C1355 C1350 1.363 . S
C1355 C1354 1.415 1_556 S
H1356 C1353 0.999 . S
H1357 C1338 0.913 . S
H1358 C1376 0.951 . S
H1359 C1378 0.951 . S
H1360 C1380 0.950 . S
H1361 C1381 0.950 . S
H1362 C1383 0.950 . S
H1363 C1386 0.950 . S
H1364 C1387 0.950 . S
H1365 C1389 0.950 . S
H1366 C1390 0.950 . S
H1367 C1391 0.951 . S
H1368 C1393 0.951 . S
H1369 C1395 0.950 . S
H1370 C1396 0.950 . S
H1371 C1398 0.950 . S
H1372 C1401 0.950 . S
H1373 C1402 0.950 . S
H1374 C1404 0.950 . S
H1375 C1405 0.950 . S
C1376 H1358 0.951 . S
C1376 C1377 1.366 . S
C1376 C1378 1.388 . S
C1377 C1376 1.366 . S
C1377 C1381 1.385 . S
C1378 H1359 0.951 . S
C1378 C1376 1.388 . S
C1378 C1379 1.366 . S
C1379 C1378 1.366 . S
C1379 C1380 1.414 . S
C1379 C1382 1.499 . S
C1380 H1360 0.950 . S
C1380 C1379 1.414 . S
C1380 C1381 1.374 . S
C1381 H1361 0.950 . S
C1381 C1377 1.385 . S
C1381 C1380 1.374 . S
C1382 C1379 1.499 . S
C1382 C1383 1.373 . S
C1382 C1384 1.389 . S
C1383 H1362 0.950 . S
C1383 C1382 1.373 . S
C1383 C1399 1.377 . S
C1384 C1382 1.389 . S
C1384 C1385 1.524 . S
C1384 C1398 1.377 . S
C1385 C1384 1.524 . S
C1385 C1386 1.397 . S
C1385 C1390 1.363 . S
C1386 H1363 0.950 . S
C1386 C1385 1.397 . S
C1386 C1387 1.334 . S
C1387 H1364 0.950 . S
C1387 C1386 1.334 . S
C1387 C1388 1.287 . S
C1388 C1387 1.287 . S
C1388 C1389 1.524 . S
C1388 H1407 0.913 . S
C1389 H1365 0.950 . S
C1389 C1388 1.524 . S
C1389 C1390 1.415 . S
C1390 H1366 0.950 . S
C1390 C1385 1.363 . S
C1390 C1389 1.415 . S
C1391 H1367 0.951 . S
C1391 C1392 1.366 . S
C1391 C1393 1.388 . S
C1392 C1391 1.366 . S
C1392 C1396 1.385 . S
C1393 H1368 0.951 . S
C1393 C1391 1.388 . S
C1393 C1394 1.366 . S
C1394 C1393 1.366 . S
C1394 C1395 1.414 . S
C1394 C1397 1.499 . S
C1395 H1369 0.950 . S
C1395 C1394 1.414 . S
C1395 C1396 1.374 . S
C1396 H1370 0.950 . S
C1396 C1392 1.385 . S
C1396 C1395 1.374 . S
C1397 C1394 1.499 . S
C1397 C1398 1.373 . S
C1397 C1399 1.389 . S
C1398 H1371 0.950 . S
C1398 C1384 1.377 . S
C1398 C1397 1.373 . S
C1399 C1383 1.377 . S
C1399 C1397 1.389 . S
C1399 C1400 1.524 . S
C1400 C1399 1.524 . S
C1400 C1401 1.397 . S
C1400 C1405 1.363 . S
C1401 H1372 0.950 . S
C1401 C1400 1.397 . S
C1401 C1402 1.334 . S
C1402 H1373 0.950 . S
C1402 C1401 1.334 . S
C1402 C1403 1.287 . S
C1403 C1402 1.287 . S
C1403 C1404 1.524 . S
C1403 H1406 0.999 . S
C1404 H1374 0.950 . S
C1404 C1403 1.524 . S
C1404 C1405 1.415 . S
C1405 H1375 0.950 . S
C1405 C1400 1.363 . S
C1405 C1404 1.415 . S
H1406 C1403 0.999 . S
H1407 C1388 0.913 . S
H1408 C1426 0.951 . S
H1409 C1428 0.951 . S
H1410 C1430 0.950 . S
H1411 C1431 0.950 . S
H1412 C1433 0.950 . S
H1413 C1436 0.950 . S
H1414 C1437 0.950 . S
H1415 C1439 0.950 . S
H1416 C1440 0.950 . S
H1417 C1441 0.951 . S
H1418 C1443 0.951 . S
H1419 C1445 0.950 . S
H1420 C1446 0.950 . S
H1421 C1448 0.950 1_554 S
H1422 C1451 0.950 . S
H1423 C1452 0.950 . S
H1424 C1454 0.950 . S
H1425 C1455 0.950 . S
C1426 H1408 0.951 . S
C1426 C1427 1.366 . S
C1426 C1428 1.388 . S
C1427 C1426 1.366 . S
C1427 C1431 1.385 . S
C1428 H1409 0.951 . S
C1428 C1426 1.388 . S
C1428 C1429 1.366 . S
C1429 C1428 1.366 . S
C1429 C1430 1.414 . S
C1429 C1432 1.499 . S
C1430 H1410 0.950 . S
C1430 C1429 1.414 . S
C1430 C1431 1.374 . S
C1431 H1411 0.950 . S
C1431 C1427 1.385 . S
C1431 C1430 1.374 . S
C1432 C1429 1.499 . S
C1432 C1433 1.373 . S
C1432 C1434 1.389 . S
C1433 H1412 0.950 . S
C1433 C1432 1.373 . S
C1433 C1449 1.377 . S
C1434 C1432 1.389 . S
C1434 C1435 1.524 . S
C1434 C1448 1.377 . S
C1435 C1434 1.524 . S
C1435 C1436 1.397 . S
C1435 C1440 1.363 1_556 S
C1436 H1413 0.950 . S
C1436 C1435 1.397 . S
C1436 C1437 1.334 . S
C1437 H1414 0.950 . S
C1437 C1436 1.334 . S
C1437 C1438 1.287 1_556 S
C1438 C1437 1.287 1_554 S
C1438 C1439 1.524 . S
C1438 H1457 0.913 . S
C1439 H1415 0.950 . S
C1439 C1438 1.524 . S
C1439 C1440 1.415 . S
C1440 H1416 0.950 . S
C1440 C1435 1.363 1_554 S
C1440 C1439 1.415 . S
C1441 H1417 0.951 . S
C1441 C1442 1.366 1_556 S
C1441 C1443 1.388 . S
C1442 C1441 1.366 1_554 S
C1442 C1446 1.385 . S
C1443 H1418 0.951 . S
C1443 C1441 1.388 . S
C1443 C1444 1.366 . S
C1444 C1443 1.366 . S
C1444 C1445 1.414 1_556 S
C1444 C1447 1.499 . S
C1445 H1419 0.950 . S
C1445 C1444 1.414 1_554 S
C1445 C1446 1.374 . S
C1446 H1420 0.950 . S
C1446 C1442 1.385 . S
C1446 C1445 1.374 . S
C1447 C1444 1.499 . S
C1447 C1448 1.373 . S
C1447 C1449 1.389 . S
C1448 H1421 0.950 1_556 S
C1448 C1434 1.377 . S
C1448 C1447 1.373 . S
C1449 C1433 1.377 . S
C1449 C1447 1.389 . S
C1449 C1450 1.524 . S
C1450 C1449 1.524 . S
C1450 C1451 1.397 . S
C1450 C1455 1.363 . S
C1451 H1422 0.950 . S
C1451 C1450 1.397 . S
C1451 C1452 1.334 . S
C1452 H1423 0.950 . S
C1452 C1451 1.334 . S
C1452 C1453 1.287 . S
C1453 C1452 1.287 . S
C1453 C1454 1.524 . S
C1453 H1456 0.999 . S
C1454 H1424 0.950 . S
C1454 C1453 1.524 . S
C1454 C1455 1.415 . S
C1455 H1425 0.950 . S
C1455 C1450 1.363 . S
C1455 C1454 1.415 . S
H1456 C1453 0.999 . S
H1457 C1438 0.913 . S
H1458 C1476 0.951 . S
H1459 C1478 0.951 . S
H1460 C1480 0.950 . S
H1461 C1481 0.950 . S
H1462 C1483 0.950 . S
H1463 C1486 0.950 . S
H1464 C1487 0.950 . S
H1465 C1489 0.950 . S
H1466 C1490 0.950 . S
H1467 C1491 0.951 . S
H1468 C1493 0.951 . S
H1469 C1495 0.950 . S
H1470 C1496 0.950 . S
H1471 C1498 0.950 . S
H1472 C1501 0.950 . S
H1473 C1502 0.950 1_554 S
H1474 C1504 0.950 . S
H1475 C1505 0.950 . S
C1476 H1458 0.951 . S
C1476 C1477 1.366 . S
C1476 C1478 1.388 . S
C1477 C1476 1.366 . S
C1477 C1481 1.385 . S
C1478 H1459 0.951 . S
C1478 C1476 1.388 . S
C1478 C1479 1.366 . S
C1479 C1478 1.366 . S
C1479 C1480 1.414 . S
C1479 C1482 1.499 . S
C1480 H1460 0.950 . S
C1480 C1479 1.414 . S
C1480 C1481 1.374 . S
C1481 H1461 0.950 . S
C1481 C1477 1.385 . S
C1481 C1480 1.374 . S
C1482 C1479 1.499 . S
C1482 C1483 1.373 . S
C1482 C1484 1.389 . S
C1483 H1462 0.950 . S
C1483 C1482 1.373 . S
C1483 C1499 1.377 . S
C1484 C1482 1.389 . S
C1484 C1485 1.524 . S
C1484 C1498 1.377 . S
C1485 C1484 1.524 . S
C1485 C1486 1.397 . S
C1485 C1490 1.363 . S
C1486 H1463 0.950 . S
C1486 C1485 1.397 . S
C1486 C1487 1.334 . S
C1487 H1464 0.950 . S
C1487 C1486 1.334 . S
C1487 C1488 1.287 . S
C1488 C1487 1.287 . S
C1488 C1489 1.524 . S
C1488 H1507 0.913 . S
C1489 H1465 0.950 . S
C1489 C1488 1.524 . S
C1489 C1490 1.415 . S
C1490 H1466 0.950 . S
C1490 C1485 1.363 . S
C1490 C1489 1.415 . S
C1491 H1467 0.951 . S
C1491 C1492 1.366 . S
C1491 C1493 1.388 . S
C1492 C1491 1.366 . S
C1492 C1496 1.385 1_556 S
C1493 H1468 0.951 . S
C1493 C1491 1.388 . S
C1493 C1494 1.366 1_556 S
C1494 C1493 1.366 1_554 S
C1494 C1495 1.414 . S
C1494 C1497 1.499 . S
C1495 H1469 0.950 . S
C1495 C1494 1.414 . S
C1495 C1496 1.374 . S
C1496 H1470 0.950 . S
C1496 C1492 1.385 1_554 S
C1496 C1495 1.374 . S
C1497 C1494 1.499 . S
C1497 C1498 1.373 . S
C1497 C1499 1.389 . S
C1498 H1471 0.950 . S
C1498 C1484 1.377 . S
C1498 C1497 1.373 . S
C1499 C1483 1.377 . S
C1499 C1497 1.389 . S
C1499 C1500 1.524 1_554 S
C1500 C1499 1.524 1_556 S
C1500 C1501 1.397 1_556 S
C1500 C1505 1.363 . S
C1501 H1472 0.950 . S
C1501 C1500 1.397 1_554 S
C1501 C1502 1.334 1_554 S
C1502 H1473 0.950 1_556 S
C1502 C1501 1.334 1_556 S
C1502 C1503 1.287 . S
C1503 C1502 1.287 . S
C1503 C1504 1.524 . S
C1503 H1506 0.999 . S
C1504 H1474 0.950 . S
C1504 C1503 1.524 . S
C1504 C1505 1.415 . S
C1505 H1475 0.950 . S
C1505 C1500 1.363 . S
C1505 C1504 1.415 . S
H1506 C1503 0.999 . S
H1507 C1488 0.913 . S
H1508 C1526 0.951 . S
H1509 C1528 0.951 . S
H1510 C1530 0.950 . S
H1511 C1531 0.950 . S
H1512 C1533 0.950 1_554 S
H1513 C1536 0.950 . S
H1514 C1537 0.950 . S
H1515 C1539 0.950 . S
H1516 C1540 0.950 . S
H1517 C1541 0.951 . S
H1518 C1543 0.951 . S
H1519 C1545 0.950 . S
H1520 C1546 0.950 . S
H1521 C1548 0.950 . S
H1522 C1551 0.950 . S
H1523 C1552 0.950 . S
H1524 C1554 0.950 . S
H1525 C1555 0.950 . S
C1526 H1508 0.951 . S
C1526 C1527 1.366 1_556 S
C1526 C1528 1.388 . S
C1527 C1526 1.366 1_554 S
C1527 C1531 1.385 . S
C1528 H1509 0.951 . S
C1528 C1526 1.388 . S
C1528 C1529 1.366 . S
C1529 C1528 1.366 . S
C1529 C1530 1.414 1_556 S
C1529 C1532 1.499 . S
C1530 H1510 0.950 . S
C1530 C1529 1.414 1_554 S
C1530 C1531 1.374 . S
C1531 H1511 0.950 . S
C1531 C1527 1.385 . S
C1531 C1530 1.374 . S
C1532 C1529 1.499 . S
C1532 C1533 1.373 . S
C1532 C1534 1.389 . S
C1533 H1512 0.950 1_556 S
C1533 C1532 1.373 . S
C1533 C1549 1.377 . S
C1534 C1532 1.389 . S
C1534 C1535 1.524 . S
C1534 C1548 1.377 . S
C1535 C1534 1.524 . S
C1535 C1536 1.397 . S
C1535 C1540 1.363 . S
C1536 H1513 0.950 . S
C1536 C1535 1.397 . S
C1536 C1537 1.334 . S
C1537 H1514 0.950 . S
C1537 C1536 1.334 . S
C1537 C1538 1.287 . S
C1538 C1537 1.287 . S
C1538 C1539 1.524 . S
C1538 H1557 0.913 . S
C1539 H1515 0.950 . S
C1539 C1538 1.524 . S
C1539 C1540 1.415 . S
C1540 H1516 0.950 . S
C1540 C1535 1.363 . S
C1540 C1539 1.415 . S
C1541 H1517 0.951 . S
C1541 C1542 1.366 . S
C1541 C1543 1.388 . S
C1542 C1541 1.366 . S
C1542 C1546 1.385 . S
C1543 H1518 0.951 . S
C1543 C1541 1.388 . S
C1543 C1544 1.366 . S
C1544 C1543 1.366 . S
C1544 C1545 1.414 . S
C1544 C1547 1.499 . S
C1545 H1519 0.950 . S
C1545 C1544 1.414 . S
C1545 C1546 1.374 . S
C1546 H1520 0.950 . S
C1546 C1542 1.385 . S
C1546 C1545 1.374 . S
C1547 C1544 1.499 . S
C1547 C1548 1.373 . S
C1547 C1549 1.389 . S
C1548 H1521 0.950 . S
C1548 C1534 1.377 . S
C1548 C1547 1.373 . S
C1549 C1533 1.377 . S
C1549 C1547 1.389 . S
C1549 C1550 1.524 1_556 S
C1550 C1549 1.524 1_554 S
C1550 C1551 1.397 1_554 S
C1550 C1555 1.363 . S
C1551 H1522 0.950 . S
C1551 C1550 1.397 1_556 S
C1551 C1552 1.334 1_556 S
C1552 H1523 0.950 . S
C1552 C1551 1.334 1_554 S
C1552 C1553 1.287 . S
C1553 C1552 1.287 . S
C1553 C1554 1.524 . S
C1553 H1556 0.999 . S
C1554 H1524 0.950 . S
C1554 C1553 1.524 . S
C1554 C1555 1.415 . S
C1555 H1525 0.950 . S
C1555 C1550 1.363 . S
C1555 C1554 1.415 . S
H1556 C1553 0.999 . S
H1557 C1538 0.913 . S
H1558 C1576 0.951 . S
H1559 C1578 0.951 . S
H1560 C1580 0.950 . S
H1561 C1581 0.950 . S
H1562 C1583 0.950 . S
H1563 C1586 0.950 . S
H1564 C1587 0.950 . S
H1565 C1589 0.950 . S
H1566 C1590 0.950 . S
H1567 C1591 0.951 . S
H1568 C1593 0.951 . S
H1569 C1595 0.950 . S
H1570 C1596 0.950 . S
H1571 C1598 0.950 . S
H1572 C1601 0.950 . S
H1573 C1602 0.950 . S
H1574 C1604 0.950 . S
H1575 C1605 0.950 . S
C1576 H1558 0.951 . S
C1576 C1577 1.366 . S
C1576 C1578 1.388 . S
C1577 C1576 1.366 . S
C1577 C1581 1.385 . S
C1578 H1559 0.951 . S
C1578 C1576 1.388 . S
C1578 C1579 1.366 . S
C1579 C1578 1.366 . S
C1579 C1580 1.414 . S
C1579 C1582 1.499 . S
C1580 H1560 0.950 . S
C1580 C1579 1.414 . S
C1580 C1581 1.374 . S
C1581 H1561 0.950 . S
C1581 C1577 1.385 . S
C1581 C1580 1.374 . S
C1582 C1579 1.499 . S
C1582 C1583 1.373 . S
C1582 C1584 1.389 . S
C1583 H1562 0.950 . S
C1583 C1582 1.373 . S
C1583 C1599 1.377 . S
C1584 C1582 1.389 . S
C1584 C1585 1.524 . S
C1584 C1598 1.377 . S
C1585 C1584 1.524 . S
C1585 C1586 1.397 . S
C1585 C1590 1.363 . S
C1586 H1563 0.950 . S
C1586 C1585 1.397 . S
C1586 C1587 1.334 . S
C1587 H1564 0.950 . S
C1587 C1586 1.334 . S
C1587 C1588 1.287 . S
C1588 C1587 1.287 . S
C1588 C1589 1.524 . S
C1588 H1607 0.913 . S
C1589 H1565 0.950 . S
C1589 C1588 1.524 . S
C1589 C1590 1.415 . S
C1590 H1566 0.950 . S
C1590 C1585 1.363 . S
C1590 C1589 1.415 . S
C1591 H1567 0.951 . S
C1591 C1592 1.366 . S
C1591 C1593 1.388 . S
C1592 C1591 1.366 . S
C1592 C1596 1.385 1_556 S
C1593 H1568 0.951 . S
C1593 C1591 1.388 . S
C1593 C1594 1.366 1_556 S
C1594 C1593 1.366 1_554 S
C1594 C1595 1.414 . S
C1594 C1597 1.499 . S
C1595 H1569 0.950 . S
C1595 C1594 1.414 . S
C1595 C1596 1.374 . S
C1596 H1570 0.950 . S
C1596 C1592 1.385 1_554 S
C1596 C1595 1.374 . S
C1597 C1594 1.499 . S
C1597 C1598 1.373 . S
C1597 C1599 1.389 . S
C1598 H1571 0.950 . S
C1598 C1584 1.377 . S
C1598 C1597 1.373 . S
C1599 C1583 1.377 . S
C1599 C1597 1.389 . S
C1599 C1600 1.524 1_554 S
C1600 C1599 1.524 1_556 S
C1600 C1601 1.397 . S
C1600 C1605 1.363 . S
C1601 H1572 0.950 . S
C1601 C1600 1.397 . S
C1601 C1602 1.334 . S
C1602 H1573 0.950 . S
C1602 C1601 1.334 . S
C1602 C1603 1.287 . S
C1603 C1602 1.287 . S
C1603 C1604 1.524 . S
C1603 H1606 0.999 . S
C1604 H1574 0.950 . S
C1604 C1603 1.524 . S
C1604 C1605 1.415 . S
C1605 H1575 0.950 . S
C1605 C1600 1.363 . S
C1605 C1604 1.415 . S
H1606 C1603 0.999 . S
H1607 C1588 0.913 . S
H1608 C1626 0.951 . S
H1609 C1628 0.951 . S
H1610 C1630 0.950 . S
H1611 C1631 0.950 . S
H1612 C1633 0.950 . S
H1613 C1636 0.950 . S
H1614 C1637 0.950 . S
H1615 C1639 0.950 . S
H1616 C1640 0.950 . S
H1617 C1641 0.951 . S
H1618 C1643 0.951 . S
H1619 C1645 0.950 . S
H1620 C1646 0.950 . S
H1621 C1648 0.950 . S
H1622 C1651 0.950 . S
H1623 C1652 0.950 . S
H1624 C1654 0.950 . S
H1625 C1655 0.950 . S
C1626 H1608 0.951 . S
C1626 C1627 1.366 . S
C1626 C1628 1.388 . S
C1627 C1626 1.366 . S
C1627 C1631 1.385 . S
C1628 H1609 0.951 . S
C1628 C1626 1.388 . S
C1628 C1629 1.366 . S
C1629 C1628 1.366 . S
C1629 C1630 1.414 . S
C1629 C1632 1.499 . S
C1630 H1610 0.950 . S
C1630 C1629 1.414 . S
C1630 C1631 1.374 . S
C1631 H1611 0.950 . S
C1631 C1627 1.385 . S
C1631 C1630 1.374 . S
C1632 C1629 1.499 . S
C1632 C1633 1.373 . S
C1632 C1634 1.389 . S
C1633 H1612 0.950 . S
C1633 C1632 1.373 . S
C1633 C1649 1.377 . S
C1634 C1632 1.389 . S
C1634 C1635 1.524 . S
C1634 C1648 1.377 . S
C1635 C1634 1.524 . S
C1635 C1636 1.397 . S
C1635 C1640 1.363 . S
C1636 H1613 0.950 . S
C1636 C1635 1.397 . S
C1636 C1637 1.334 . S
C1637 H1614 0.950 . S
C1637 C1636 1.334 . S
C1637 C1638 1.287 . S
C1638 C1637 1.287 . S
C1638 C1639 1.524 . S
C1638 H1657 0.913 . S
C1639 H1615 0.950 . S
C1639 C1638 1.524 . S
C1639 C1640 1.415 . S
C1640 H1616 0.950 . S
C1640 C1635 1.363 . S
C1640 C1639 1.415 . S
C1641 H1617 0.951 . S
C1641 C1642 1.366 . S
C1641 C1643 1.388 . S
C1642 C1641 1.366 . S
C1642 C1646 1.385 . S
C1643 H1618 0.951 . S
C1643 C1641 1.388 . S
C1643 C1644 1.366 . S
C1644 C1643 1.366 . S
C1644 C1645 1.414 . S
C1644 C1647 1.499 . S
C1645 H1619 0.950 . S
C1645 C1644 1.414 . S
C1645 C1646 1.374 . S
C1646 H1620 0.950 . S
C1646 C1642 1.385 . S
C1646 C1645 1.374 . S
C1647 C1644 1.499 . S
C1647 C1648 1.373 . S
C1647 C1649 1.389 . S
C1648 H1621 0.950 . S
C1648 C1634 1.377 . S
C1648 C1647 1.373 . S
C1649 C1633 1.377 . S
C1649 C1647 1.389 . S
C1649 C1650 1.524 . S
C1650 C1649 1.524 . S
C1650 C1651 1.397 . S
C1650 C1655 1.363 . S
C1651 H1622 0.950 . S
C1651 C1650 1.397 . S
C1651 C1652 1.334 . S
C1652 H1623 0.950 . S
C1652 C1651 1.334 . S
C1652 C1653 1.287 . S
C1653 C1652 1.287 . S
C1653 C1654 1.524 . S
C1653 H1656 0.999 . S
C1654 H1624 0.950 . S
C1654 C1653 1.524 . S
C1654 C1655 1.415 . S
C1655 H1625 0.950 . S
C1655 C1650 1.363 . S
C1655 C1654 1.415 . S
H1656 C1653 0.999 . S
H1657 C1638 0.913 . S
H1658 C1676 0.951 . S
H1659 C1678 0.951 . S
H1660 C1680 0.950 . S
H1661 C1681 0.950 . S
H1662 C1683 0.950 . S
H1663 C1686 0.950 . S
H1664 C1687 0.950 . S
H1665 C1689 0.950 . S
H1666 C1690 0.950 . S
H1667 C1691 0.951 . S
H1668 C1693 0.951 . S
H1669 C1695 0.950 . S
H1670 C1696 0.950 . S
H1671 C1698 0.950 . S
H1672 C1701 0.950 . S
H1673 C1702 0.950 . S
H1674 C1704 0.950 . S
H1675 C1705 0.950 . S
C1676 H1658 0.951 . S
C1676 C1677 1.366 . S
C1676 C1678 1.388 . S
C1677 C1676 1.366 . S
C1677 C1681 1.385 . S
C1678 H1659 0.951 . S
C1678 C1676 1.388 . S
C1678 C1679 1.366 . S
C1679 C1678 1.366 . S
C1679 C1680 1.414 . S
C1679 C1682 1.499 . S
C1680 H1660 0.950 . S
C1680 C1679 1.414 . S
C1680 C1681 1.374 . S
C1681 H1661 0.950 . S
C1681 C1677 1.385 . S
C1681 C1680 1.374 . S
C1682 C1679 1.499 . S
C1682 C1683 1.373 . S
C1682 C1684 1.389 . S
C1683 H1662 0.950 . S
C1683 C1682 1.373 . S
C1683 C1699 1.377 . S
C1684 C1682 1.389 . S
C1684 C1685 1.524 . S
C1684 C1698 1.377 . S
C1685 C1684 1.524 . S
C1685 C1686 1.397 . S
C1685 C1690 1.363 . S
C1686 H1663 0.950 . S
C1686 C1685 1.397 . S
C1686 C1687 1.334 . S
C1687 H1664 0.950 . S
C1687 C1686 1.334 . S
C1687 C1688 1.287 . S
C1688 C1687 1.287 . S
C1688 C1689 1.524 . S
C1688 H1707 0.913 . S
C1689 H1665 0.950 . S
C1689 C1688 1.524 . S
C1689 C1690 1.415 . S
C1690 H1666 0.950 . S
C1690 C1685 1.363 . S
C1690 C1689 1.415 . S
C1691 H1667 0.951 . S
C1691 C1692 1.366 . S
C1691 C1693 1.388 . S
C1692 C1691 1.366 . S
C1692 C1696 1.385 . S
C1693 H1668 0.951 . S
C1693 C1691 1.388 . S
C1693 C1694 1.366 . S
C1694 C1693 1.366 . S
C1694 C1695 1.414 . S
C1694 C1697 1.499 . S
C1695 H1669 0.950 . S
C1695 C1694 1.414 . S
C1695 C1696 1.374 . S
C1696 H1670 0.950 . S
C1696 C1692 1.385 . S
C1696 C1695 1.374 . S
C1697 C1694 1.499 . S
C1697 C1698 1.373 . S
C1697 C1699 1.389 . S
C1698 H1671 0.950 . S
C1698 C1684 1.377 . S
C1698 C1697 1.373 . S
C1699 C1683 1.377 . S
C1699 C1697 1.389 . S
C1699 C1700 1.524 . S
C1700 C1699 1.524 . S
C1700 C1701 1.397 . S
C1700 C1705 1.363 . S
C1701 H1672 0.950 . S
C1701 C1700 1.397 . S
C1701 C1702 1.334 . S
C1702 H1673 0.950 . S
C1702 C1701 1.334 . S
C1702 C1703 1.287 . S
C1703 C1702 1.287 . S
C1703 C1704 1.524 . S
C1703 H1706 0.999 . S
C1704 H1674 0.950 . S
C1704 C1703 1.524 . S
C1704 C1705 1.415 . S
C1705 H1675 0.950 . S
C1705 C1700 1.363 . S
C1705 C1704 1.415 . S
H1706 C1703 0.999 . S
H1707 C1688 0.913 . S
H1708 C1726 0.951 . S
H1709 C1728 0.951 . S
H1710 C1730 0.950 . S
H1711 C1731 0.950 . S
H1712 C1733 0.950 . S
H1713 C1736 0.950 . S
H1714 C1737 0.950 . S
H1715 C1739 0.950 . S
H1716 C1740 0.950 . S
H1717 C1741 0.951 . S
H1718 C1743 0.951 . S
H1719 C1745 0.950 . S
H1720 C1746 0.950 . S
H1721 C1748 0.950 . S
H1722 C1751 0.950 . S
H1723 C1752 0.950 . S
H1724 C1754 0.950 . S
H1725 C1755 0.950 . S
C1726 H1708 0.951 . S
C1726 C1727 1.366 . S
C1726 C1728 1.388 . S
C1727 C1726 1.366 . S
C1727 C1731 1.385 . S
C1728 H1709 0.951 . S
C1728 C1726 1.388 . S
C1728 C1729 1.366 . S
C1729 C1728 1.366 . S
C1729 C1730 1.414 . S
C1729 C1732 1.499 . S
C1730 H1710 0.950 . S
C1730 C1729 1.414 . S
C1730 C1731 1.374 . S
C1731 H1711 0.950 . S
C1731 C1727 1.385 . S
C1731 C1730 1.374 . S
C1732 C1729 1.499 . S
C1732 C1733 1.373 . S
C1732 C1734 1.389 . S
C1733 H1712 0.950 . S
C1733 C1732 1.373 . S
C1733 C1749 1.377 . S
C1734 C1732 1.389 . S
C1734 C1735 1.524 . S
C1734 C1748 1.377 . S
C1735 C1734 1.524 . S
C1735 C1736 1.397 . S
C1735 C1740 1.363 . S
C1736 H1713 0.950 . S
C1736 C1735 1.397 . S
C1736 C1737 1.334 1_554 S
C1737 H1714 0.950 . S
C1737 C1736 1.334 1_556 S
C1737 C1738 1.287 . S
C1738 C1737 1.287 . S
C1738 C1739 1.524 1_556 S
C1738 H1757 0.913 . S
C1739 H1715 0.950 . S
C1739 C1738 1.524 1_554 S
C1739 C1740 1.415 . S
C1740 H1716 0.950 . S
C1740 C1735 1.363 . S
C1740 C1739 1.415 . S
C1741 H1717 0.951 . S
C1741 C1742 1.366 . S
C1741 C1743 1.388 . S
C1742 C1741 1.366 . S
C1742 C1746 1.385 . S
C1743 H1718 0.951 . S
C1743 C1741 1.388 . S
C1743 C1744 1.366 . S
C1744 C1743 1.366 . S
C1744 C1745 1.414 . S
C1744 C1747 1.499 . S
C1745 H1719 0.950 . S
C1745 C1744 1.414 . S
C1745 C1746 1.374 . S
C1746 H1720 0.950 . S
C1746 C1742 1.385 . S
C1746 C1745 1.374 . S
C1747 C1744 1.499 . S
C1747 C1748 1.373 . S
C1747 C1749 1.389 . S
C1748 H1721 0.950 . S
C1748 C1734 1.377 . S
C1748 C1747 1.373 . S
C1749 C1733 1.377 . S
C1749 C1747 1.389 . S
C1749 C1750 1.524 . S
C1750 C1749 1.524 . S
C1750 C1751 1.397 . S
C1750 C1755 1.363 . S
C1751 H1722 0.950 . S
C1751 C1750 1.397 . S
C1751 C1752 1.334 . S
C1752 H1723 0.950 . S
C1752 C1751 1.334 . S
C1752 C1753 1.287 . S
C1753 C1752 1.287 . S
C1753 C1754 1.524 . S
C1753 H1756 0.999 . S
C1754 H1724 0.950 . S
C1754 C1753 1.524 . S
C1754 C1755 1.415 . S
C1755 H1725 0.950 . S
C1755 C1750 1.363 . S
C1755 C1754 1.415 . S
H1756 C1753 0.999 . S
H1757 C1738 0.913 . S
H1758 C1776 0.951 . S
H1759 C1778 0.951 . S
H1760 C1780 0.950 . S
H1761 C1781 0.950 . S
H1762 C1783 0.950 . S
H1763 C1786 0.950 . S
H1764 C1787 0.950 . S
H1765 C1789 0.950 . S
H1766 C1790 0.950 . S
H1767 C1791 0.951 . S
H1768 C1793 0.951 . S
H1769 C1795 0.950 . S
H1770 C1796 0.950 . S
H1771 C1798 0.950 . S
H1772 C1801 0.950 . S
H1773 C1802 0.950 . S
H1774 C1804 0.950 . S
H1775 C1805 0.950 . S
C1776 H1758 0.951 . S
C1776 C1777 1.366 . S
C1776 C1778 1.388 . S
C1777 C1776 1.366 . S
C1777 C1781 1.385 . S
C1778 H1759 0.951 . S
C1778 C1776 1.388 . S
C1778 C1779 1.366 . S
C1779 C1778 1.366 . S
C1779 C1780 1.414 . S
C1779 C1782 1.499 . S
C1780 H1760 0.950 . S
C1780 C1779 1.414 . S
C1780 C1781 1.374 . S
C1781 H1761 0.950 . S
C1781 C1777 1.385 . S
C1781 C1780 1.374 . S
C1782 C1779 1.499 . S
C1782 C1783 1.373 . S
C1782 C1784 1.389 . S
C1783 H1762 0.950 . S
C1783 C1782 1.373 . S
C1783 C1799 1.377 . S
C1784 C1782 1.389 . S
C1784 C1785 1.524 . S
C1784 C1798 1.377 . S
C1785 C1784 1.524 . S
C1785 C1786 1.397 . S
C1785 C1790 1.363 . S
C1786 H1763 0.950 . S
C1786 C1785 1.397 . S
C1786 C1787 1.334 . S
C1787 H1764 0.950 . S
C1787 C1786 1.334 . S
C1787 C1788 1.287 . S
C1788 C1787 1.287 . S
C1788 C1789 1.524 . S
C1788 H1807 0.913 . S
C1789 H1765 0.950 . S
C1789 C1788 1.524 . S
C1789 C1790 1.415 . S
C1790 H1766 0.950 . S
C1790 C1785 1.363 . S
C1790 C1789 1.415 . S
C1791 H1767 0.951 . S
C1791 C1792 1.366 . S
C1791 C1793 1.388 . S
C1792 C1791 1.366 . S
C1792 C1796 1.385 . S
C1793 H1768 0.951 . S
C1793 C1791 1.388 . S
C1793 C1794 1.366 . S
C1794 C1793 1.366 . S
C1794 C1795 1.414 . S
C1794 C1797 1.499 . S
C1795 H1769 0.950 . S
C1795 C1794 1.414 . S
C1795 C1796 1.374 . S
C1796 H1770 0.950 . S
C1796 C1792 1.385 . S
C1796 C1795 1.374 . S
C1797 C1794 1.499 . S
C1797 C1798 1.373 . S
C1797 C1799 1.389 . S
C1798 H1771 0.950 . S
C1798 C1784 1.377 . S
C1798 C1797 1.373 . S
C1799 C1783 1.377 . S
C1799 C1797 1.389 . S
C1799 C1800 1.524 . S
C1800 C1799 1.524 . S
C1800 C1801 1.397 . S
C1800 C1805 1.363 . S
C1801 H1772 0.950 . S
C1801 C1800 1.397 . S
C1801 C1802 1.334 . S
C1802 H1773 0.950 . S
C1802 C1801 1.334 . S
C1802 C1803 1.287 . S
C1803 C1802 1.287 . S
C1803 C1804 1.524 . S
C1803 H1806 0.999 . S
C1804 H1774 0.950 . S
C1804 C1803 1.524 . S
C1804 C1805 1.415 . S
C1805 H1775 0.950 . S
C1805 C1800 1.363 . S
C1805 C1804 1.415 . S
H1806 C1803 0.999 . S
H1807 C1788 0.913 . S
C227 C153 1.526 . S
C242 C3 1.521 . S
C277 C16 1.513 . S
C292 C114 1.512 . S
C327 C29 1.520 . S
C342 C127 1.526 . S
C377 C140 1.512 . S
C392 C42 1.513 . S
C427 C55 1.521 . S
C442 C75 1.526 . S
C477 C68 1.513 . S
C492 C88 1.512 . S
C527 C101 1.526 . S
C542 C81 1.520 . S
C577 C62 1.512 . S
C592 C94 1.513 . S
C627 C49 1.526 . S
C642 C107 1.520 . S
C677 C120 1.513 . S
C692 C10 1.512 . S
C727 C23 1.526 . S
C742 C133 1.520 . S
C777 C146 1.513 . S
C792 C36 1.512 . S
C827 C159 1.520 . S
C842 C179 1.526 . S
C877 C172 1.513 . S
C892 C192 1.512 . S
C927 C205 1.526 . S
C942 C185 1.521 . S
C977 C166 1.512 . S
C992 C198 1.513 . S
C1027 C53 1.513 . S
C1042 C1 1.512 . S
C1077 C14 1.502 . S
C1092 C66 1.502 . S
C1127 C27 1.513 . S
C1142 C79 1.513 . S
C1177 C92 1.502 . S
C1192 C40 1.502 . S
C1227 C105 1.513 . S
C1242 C157 1.513 . S
C1277 C170 1.502 . S
C1292 C118 1.502 . S
C1327 C131 1.513 . S
C1342 C183 1.513 . S
C1377 C196 1.502 . S
C1392 C144 1.502 . S
C1427 C187 1.525 . S
C1442 C5 1.525 . S
C1477 C200 1.551 . S
C1492 C18 1.551 . S
C1527 C31 1.525 . S
C1542 C161 1.525 . S
C1577 C174 1.551 . S
C1592 C44 1.551 . S
C1627 C135 1.525 . S
C1642 C57 1.525 . S
C1677 C148 1.550 . S
C1692 C70 1.550 . S
C1727 C83 1.525 . S
C1742 C109 1.525 . S
C1777 C122 1.551 . S
C1792 C96 1.551 . S
