# Generated by pormake.
# Topology umg, (4)-cn, num edge types: 1
# Building blocks:
#     Node 0, Type 0, BuildingBlock: ESEHIV_clean_sbu_0, # of connection points: 4
#     Node 1, Type 0, BuildingBlock: ESEHIV_clean_sbu_0, # of connection points: 4
#     Node 2, Type 0, BuildingBlock: ESEHIV_clean_sbu_0, # of connection points: 4
#     Node 3, Type 0, BuildingBlock: ESEHIV_clean_sbu_0, # of connection points: 4
#     Node 4, Type 0, BuildingBlock: ESEHIV_clean_sbu_0, # of connection points: 4
#     Node 5, Type 0, BuildingBlock: ESEHIV_clean_sbu_0, # of connection points: 4
#     Node 6, Type 0, BuildingBlock: ESEHIV_clean_sbu_0, # of connection points: 4
#     Node 7, Type 0, BuildingBlock: ESEHIV_clean_sbu_0, # of connection points: 4
#     Node 8, Type 0, BuildingBlock: ESEHIV_clean_sbu_0, # of connection points: 4
#     Node 9, Type 0, BuildingBlock: ESEHIV_clean_sbu_0, # of connection points: 4
#     Node 10, Type 0, BuildingBlock: ESEHIV_clean_sbu_0, # of connection points: 4
#     Node 11, Type 0, BuildingBlock: ESEHIV_clean_sbu_0, # of connection points: 4
#     Edge 12, Type (0, 0), BuildingBlock: XUDNAN_clean_linker_2, # of connection points: 2
#     Edge 13, Type (0, 0), BuildingBlock: XUDNAN_clean_linker_2, # of connection points: 2
#     Edge 14, Type (0, 0), BuildingBlock: XUDNAN_clean_linker_2, # of connection points: 2
#     Edge 15, Type (0, 0), BuildingBlock: XUDNAN_clean_linker_2, # of connection points: 2
#     Edge 16, Type (0, 0), BuildingBlock: XUDNAN_clean_linker_2, # of connection points: 2
#     Edge 17, Type (0, 0), BuildingBlock: XUDNAN_clean_linker_2, # of connection points: 2
#     Edge 18, Type (0, 0), BuildingBlock: XUDNAN_clean_linker_2, # of connection points: 2
#     Edge 19, Type (0, 0), BuildingBlock: XUDNAN_clean_linker_2, # of connection points: 2
#     Edge 20, Type (0, 0), BuildingBlock: XUDNAN_clean_linker_2, # of connection points: 2
#     Edge 21, Type (0, 0), BuildingBlock: XUDNAN_clean_linker_2, # of connection points: 2
#     Edge 22, Type (0, 0), BuildingBlock: XUDNAN_clean_linker_2, # of connection points: 2
#     Edge 23, Type (0, 0), BuildingBlock: XUDNAN_clean_linker_2, # of connection points: 2
#     Edge 24, Type (0, 0), BuildingBlock: XUDNAN_clean_linker_2, # of connection points: 2
#     Edge 25, Type (0, 0), BuildingBlock: XUDNAN_clean_linker_2, # of connection points: 2
#     Edge 26, Type (0, 0), BuildingBlock: XUDNAN_clean_linker_2, # of connection points: 2
#     Edge 27, Type (0, 0), BuildingBlock: XUDNAN_clean_linker_2, # of connection points: 2
#     Edge 28, Type (0, 0), BuildingBlock: XUDNAN_clean_linker_2, # of connection points: 2
#     Edge 29, Type (0, 0), BuildingBlock: XUDNAN_clean_linker_2, # of connection points: 2
#     Edge 30, Type (0, 0), BuildingBlock: XUDNAN_clean_linker_2, # of connection points: 2
#     Edge 31, Type (0, 0), BuildingBlock: XUDNAN_clean_linker_2, # of connection points: 2
#     Edge 32, Type (0, 0), BuildingBlock: XUDNAN_clean_linker_2, # of connection points: 2
#     Edge 33, Type (0, 0), BuildingBlock: XUDNAN_clean_linker_2, # of connection points: 2
#     Edge 34, Type (0, 0), BuildingBlock: XUDNAN_clean_linker_2, # of connection points: 2
#     Edge 35, Type (0, 0), BuildingBlock: XUDNAN_clean_linker_2, # of connection points: 2
# Relax obj value: 0.031
# Max RMSD: 0.108
# Mean RMSD: 0.084
data_MOF--net-umg--node1-ESEHIV_clean_sbu_0--edge1-XUDNAN_clean_linker_2
_symmetry_space_group_name_H-M    P1
_symmetry_Int_Tables_number       1
_symmetry_cell_setting            triclinic
loop_
_symmetry_equiv_pos_as_xyz
'x, y, z'
_cell_length_a     28.910583
_cell_length_b     34.084643
_cell_length_c     90.265935
_cell_angle_alpha  89.928004
_cell_angle_beta   90.122984
_cell_angle_gamma 115.06787
loop_
_atom_site_label
_atom_site_type_symbol
_atom_site_fract_x
_atom_site_fract_y
_atom_site_fract_z
_atom_type_partial_charge
Cu0 Cu 0.332 0.59417 0.1076 0.0
N1 N 0.34228 0.61931 0.08881 0.0
N2 N 0.34819 0.6277 0.0642 0.0
C3 C 0.34316 0.60072 0.07571 0.0
C4 C 0.35043 0.66454 0.07038 0.0
C5 C 0.34657 0.65918 0.08551 0.0
O6 O 0.37177 0.55958 0.1085 0.0
C7 C 0.23137 0.54638 0.12102 0.0
O8 O 0.25465 0.54306 0.13314 0.0
H9 H 0.3398 0.56799 0.07468 0.0
H10 H 0.34572 0.68238 0.09354 0.0
N11 N 0.36017 0.63942 0.12139 0.0
N12 N 0.37965 0.67893 0.14219 0.0
C13 C 0.34518 0.64333 0.13526 0.0
C14 C 0.40542 0.67367 0.11954 0.0
C15 C 0.41743 0.6981 0.13226 0.0
C16 C 0.3952 0.5583 0.12035 0.0
O17 O 0.38446 0.57315 0.13267 0.0
H18 H 0.31046 0.62028 0.1403 0.0
H19 H 0.42897 0.67955 0.10976 0.0
O20 O 0.25761 0.56389 0.10955 0.0
H21 H 0.35298 0.69291 0.06439 0.0
H22 H 0.45241 0.72674 0.13425 0.0
Cu23 Cu 0.7607 0.29866 0.43415 0.0
N24 N 0.73828 0.23886 0.43245 0.0
N25 N 0.68204 0.16981 0.42954 0.0
C26 C 0.68942 0.21166 0.42963 0.0
C27 C 0.72838 0.17079 0.43247 0.0
C28 C 0.76308 0.21353 0.43424 0.0
O29 O 0.73415 0.30613 0.45317 0.0
C30 C 0.74174 0.35017 0.41054 0.0
O31 O 0.77266 0.38634 0.41699 0.0
H32 H 0.65963 0.22257 0.42807 0.0
H33 H 0.80329 0.22517 0.43678 0.0
N34 N 0.83219 0.32679 0.43508 0.0
N35 N 0.9119 0.37896 0.4339 0.0
C36 C 0.86466 0.36255 0.42785 0.0
C37 C 0.86023 0.32008 0.44587 0.0
C38 C 0.90927 0.35212 0.44519 0.0
C39 C 0.75291 0.33973 0.46132 0.0
O40 O 0.78765 0.37601 0.45591 0.0
H41 H 0.85337 0.37798 0.419 0.0
H42 H 0.84509 0.2952 0.45426 0.0
O43 O 0.7322 0.31388 0.41664 0.0
H44 H 0.73674 0.14276 0.43322 0.0
H45 H 0.93999 0.35645 0.45282 0.0
Cu46 Cu 0.4304 0.74923 0.74647 0.0
N47 N 0.39757 0.68847 0.74799 0.0
N48 N 0.39227 0.62116 0.75042 0.0
C49 C 0.42349 0.66368 0.74893 0.0
C50 C 0.34457 0.61906 0.75041 0.0
C51 C 0.34795 0.66065 0.74903 0.0
O52 O 0.46698 0.767 0.76519 0.0
C53 C 0.44605 0.74357 0.71703 0.0
O54 O 0.39717 0.71825 0.71849 0.0
H55 H 0.46474 0.67682 0.74852 0.0
H56 H 0.31645 0.66976 0.7491 0.0
N57 N 0.38732 0.77773 0.74442 0.0
N58 N 0.36155 0.83122 0.74497 0.0
C59 C 0.4006 0.82007 0.74733 0.0
C60 C 0.3385 0.76185 0.73979 0.0
C61 C 0.32242 0.7946 0.74024 0.0
C62 C 0.43836 0.76513 0.77615 0.0
O63 O 0.38993 0.75531 0.77365 0.0
H64 H 0.43782 0.84198 0.75145 0.0
H65 H 0.31614 0.72892 0.73623 0.0
O66 O 0.47151 0.76213 0.72855 0.0
H67 H 0.30981 0.58974 0.75171 0.0
H68 H 0.28488 0.79176 0.73721 0.0
Cu69 Cu 0.76185 0.45478 0.10505 0.0
N70 N 0.75231 0.42803 0.0864 0.0
N71 N 0.74848 0.41808 0.06179 0.0
C72 C 0.75482 0.44636 0.07298 0.0
C73 C 0.74168 0.38059 0.06851 0.0
C74 C 0.7442 0.38687 0.08363 0.0
O75 O 0.72532 0.49168 0.10621 0.0
C76 C 0.87128 0.48652 0.10147 0.0
O77 O 0.86103 0.4735 0.08767 0.0
H78 H 0.76157 0.47986 0.0715 0.0
H79 H 0.7415 0.36332 0.09201 0.0
N80 N 0.73289 0.41401 0.12008 0.0
N81 N 0.71498 0.38899 0.14332 0.0
C82 C 0.74666 0.42104 0.13443 0.0
C83 C 0.69095 0.37619 0.11977 0.0
C84 C 0.68 0.36052 0.13408 0.0
C85 C 0.67997 0.47801 0.10105 0.0
O86 O 0.66103 0.44156 0.09355 0.0
H87 H 0.77867 0.44987 0.13826 0.0
H88 H 0.6686 0.36201 0.10996 0.0
O89 O 0.83496 0.48407 0.11 0.0
H90 H 0.73692 0.35104 0.06293 0.0
H91 H 0.64739 0.33146 0.13744 0.0
Cu92 Cu 0.33753 0.76354 0.43101 0.0
N93 N 0.34335 0.81992 0.42944 0.0
N94 N 0.38052 0.89212 0.42746 0.0
C95 C 0.38779 0.85572 0.42904 0.0
C96 C 0.32932 0.87849 0.42686 0.0
C97 C 0.30649 0.83391 0.42811 0.0
O98 O 0.37747 0.76483 0.44845 0.0
C99 C 0.35876 0.71811 0.40616 0.0
O100 O 0.33259 0.68087 0.41274 0.0
H101 H 0.42474 0.85484 0.42956 0.0
H102 H 0.26598 0.81316 0.42796 0.0
N103 N 0.26922 0.72538 0.43459 0.0
N104 N 0.19356 0.66764 0.43484 0.0
C105 C 0.23716 0.68974 0.42719 0.0
C106 C 0.24445 0.72619 0.4471 0.0
C107 C 0.19801 0.69068 0.44732 0.0
C108 C 0.36821 0.73343 0.45736 0.0
O109 O 0.33436 0.69448 0.45375 0.0
H110 H 0.24622 0.67909 0.41678 0.0
H111 H 0.2602 0.7501 0.45577 0.0
O112 O 0.36512 0.75336 0.41249 0.0
H113 H 0.30966 0.89918 0.42569 0.0
H114 H 0.17016 0.68194 0.45616 0.0
Cu115 Cu 0.49547 0.26081 0.74977 0.0
N116 N 0.46554 0.29951 0.7461 0.0
N117 N 0.4449 0.35607 0.74624 0.0
C118 C 0.47042 0.33593 0.75325 0.0
C119 C 0.42329 0.33127 0.73429 0.0
C120 C 0.4362 0.29679 0.73421 0.0
O121 O 0.52797 0.26941 0.76924 0.0
C122 C 0.56503 0.30041 0.72606 0.0
O123 O 0.56239 0.33609 0.73049 0.0
H124 H 0.4925 0.34766 0.76328 0.0
H125 H 0.42597 0.27186 0.72583 0.0
N126 N 0.44378 0.20385 0.74952 0.0
N127 N 0.40151 0.1313 0.75043 0.0
C128 C 0.44785 0.16577 0.75055 0.0
C129 C 0.39342 0.19301 0.74867 0.0
C130 C 0.36745 0.14867 0.74917 0.0
C131 C 0.56105 0.30422 0.77494 0.0
O132 O 0.57852 0.34025 0.7672 0.0
H133 H 0.48391 0.1635 0.75169 0.0
H134 H 0.37655 0.21582 0.7479 0.0
O135 O 0.54183 0.26561 0.73344 0.0
H136 H 0.40133 0.33839 0.72584 0.0
H137 H 0.3264 0.13068 0.74856 0.0
Cu138 Cu 0.56329 0.78734 0.58158 0.0
N139 N 0.60817 0.84411 0.57705 0.0
N140 N 0.6337 0.91509 0.57319 0.0
C141 C 0.59419 0.87705 0.57652 0.0
C142 C 0.67424 0.9055 0.57153 0.0
C143 C 0.65836 0.86164 0.57395 0.0
O144 O 0.50485 0.77595 0.56875 0.0
C145 C 0.51489 0.7587 0.61008 0.0
O146 O 0.47996 0.7252 0.60325 0.0
H147 H 0.55542 0.87286 0.57842 0.0
H148 H 0.68175 0.84392 0.57359 0.0
N149 N 0.59141 0.74827 0.57742 0.0
N150 N 0.60165 0.68683 0.5778 0.0
C151 C 0.58301 0.71176 0.58499 0.0
C152 C 0.61658 0.74657 0.56509 0.0
C153 C 0.62289 0.70865 0.56528 0.0
C154 C 0.48502 0.74341 0.56015 0.0
O155 O 0.49599 0.71008 0.562 0.0
H156 H 0.56098 0.70243 0.59511 0.0
H157 H 0.62733 0.77023 0.55626 0.0
O158 O 0.55056 0.78731 0.60266 0.0
H159 H 0.7128 0.92856 0.569 0.0
H160 H 0.64061 0.69751 0.55672 0.0
Cu161 Cu 0.77035 0.43686 0.90945 0.0
N162 N 0.76015 0.41361 0.92876 0.0
N163 N 0.75363 0.40825 0.95355 0.0
C164 C 0.7628 0.43469 0.94163 0.0
C165 C 0.7445 0.369 0.94788 0.0
C166 C 0.74838 0.37238 0.93269 0.0
O167 O 0.84403 0.4672 0.90567 0.0
C168 C 0.68524 0.45449 0.9118 0.0
O169 O 0.66752 0.41578 0.91783 0.0
H170 H 0.77087 0.46868 0.94218 0.0
H171 H 0.74293 0.34636 0.92509 0.0
N172 N 0.74561 0.39231 0.89532 0.0
N173 N 0.70872 0.35339 0.87513 0.0
C174 C 0.71579 0.38865 0.88336 0.0
C175 C 0.75854 0.35884 0.89438 0.0
C176 C 0.73546 0.33458 0.88209 0.0
C177 C 0.87807 0.48948 0.91506 0.0
O178 O 0.86392 0.49809 0.928 0.0
H179 H 0.69994 0.41144 0.8807 0.0
H180 H 0.78427 0.35318 0.90189 0.0
O181 O 0.73137 0.47156 0.90723 0.0
H182 H 0.73652 0.3399 0.95422 0.0
H183 H 0.73939 0.30604 0.87827 0.0
Cu184 Cu 0.33187 0.7659 0.27428 0.0
N185 N 0.26162 0.73439 0.27728 0.0
N186 N 0.18357 0.67981 0.27747 0.0
C187 C 0.22879 0.69821 0.27034 0.0
C188 C 0.18783 0.70564 0.28919 0.0
C189 C 0.23588 0.73932 0.28899 0.0
O190 O 0.35341 0.75429 0.25502 0.0
C191 C 0.34971 0.72216 0.29902 0.0
O192 O 0.30823 0.68912 0.29453 0.0
H193 H 0.23869 0.68409 0.26085 0.0
H194 H 0.25209 0.76433 0.2973 0.0
N195 N 0.34767 0.82494 0.27377 0.0
N196 N 0.39445 0.89647 0.27488 0.0
C197 C 0.3884 0.85734 0.28 0.0
C198 C 0.32722 0.84427 0.2645 0.0
C199 C 0.35611 0.88843 0.26512 0.0
C200 C 0.34668 0.7189 0.24872 0.0
O201 O 0.32435 0.68207 0.2559 0.0
H202 H 0.41512 0.85221 0.28729 0.0
H203 H 0.2954 0.82722 0.25714 0.0
O204 O 0.36809 0.75637 0.29112 0.0
H205 H 0.1589 0.69974 0.29757 0.0
H206 H 0.35056 0.91266 0.25854 0.0
Cu207 Cu 0.62238 0.30238 0.59102 0.0
N208 N 0.58704 0.24424 0.58581 0.0
N209 N 0.57724 0.17763 0.57962 0.0
C210 C 0.61007 0.21974 0.58091 0.0
C211 C 0.53151 0.17555 0.58391 0.0
C212 C 0.53769 0.2168 0.58772 0.0
O213 O 0.68076 0.32257 0.57761 0.0
C214 C 0.6584 0.33179 0.62127 0.0
O215 O 0.67821 0.37205 0.61661 0.0
H216 H 0.65083 0.23231 0.57912 0.0
H217 H 0.50874 0.22587 0.59206 0.0
N218 N 0.58235 0.33269 0.58747 0.0
N219 N 0.56072 0.38831 0.58603 0.0
C220 C 0.5894 0.37149 0.59307 0.0
C221 C 0.54749 0.32455 0.57661 0.0
C222 C 0.53422 0.3589 0.57565 0.0
C223 C 0.68857 0.35104 0.56756 0.0
O224 O 0.66635 0.37746 0.56858 0.0
H225 H 0.61785 0.38875 0.60131 0.0
H226 H 0.53501 0.29683 0.56929 0.0
O227 O 0.63716 0.30093 0.6121 0.0
H228 H 0.49637 0.14629 0.58451 0.0
H229 H 0.5086 0.36271 0.5676 0.0
Cu230 Cu 0.35623 0.60604 0.91239 0.0
N231 N 0.37473 0.62643 0.9317 0.0
N232 N 0.37904 0.63162 0.95641 0.0
C233 C 0.35394 0.60734 0.94463 0.0
C234 C 0.41703 0.66714 0.95058 0.0
C235 C 0.41429 0.66379 0.93538 0.0
O236 O 0.28204 0.57195 0.91065 0.0
C237 C 0.40922 0.55164 0.91496 0.0
O238 O 0.38681 0.54077 0.92792 0.0
H239 H 0.32103 0.57641 0.94534 0.0
H240 H 0.4398 0.68672 0.92753 0.0
N241 N 0.37448 0.65368 0.8998 0.0
N242 N 0.40476 0.69693 0.88015 0.0
C243 C 0.3987 0.65941 0.8867 0.0
C244 C 0.36514 0.6888 0.90167 0.0
C245 C 0.38361 0.71549 0.88953 0.0
C246 C 0.25191 0.58557 0.91685 0.0
O247 O 0.27152 0.6209 0.92493 0.0
H248 H 0.41022 0.63588 0.88187 0.0
H249 H 0.34585 0.69439 0.91113 0.0
O250 O 0.39792 0.57617 0.90645 0.0
H251 H 0.44564 0.69333 0.95681 0.0
H252 H 0.38148 0.74608 0.88774 0.0
Cu253 Cu 0.75029 0.31246 0.27635 0.0
N254 N 0.82098 0.33975 0.27885 0.0
N255 N 0.90026 0.39231 0.2782 0.0
C256 C 0.85323 0.37636 0.27207 0.0
C257 C 0.89758 0.36455 0.28919 0.0
C258 C 0.84861 0.33204 0.28953 0.0
O259 O 0.73423 0.33889 0.25904 0.0
C260 C 0.73981 0.35221 0.30304 0.0
O261 O 0.78074 0.38538 0.29835 0.0
H262 H 0.84152 0.39259 0.26353 0.0
H263 H 0.83339 0.30599 0.29752 0.0
N264 N 0.72966 0.2533 0.27296 0.0
N265 N 0.68157 0.18189 0.2731 0.0
C266 C 0.69102 0.22016 0.27963 0.0
C267 C 0.74554 0.23528 0.26198 0.0
C268 C 0.71566 0.19121 0.26198 0.0
C269 C 0.70337 0.31735 0.24884 0.0
O270 O 0.67532 0.27573 0.25071 0.0
H271 H 0.66851 0.22429 0.28855 0.0
H272 H 0.77516 0.25325 0.25411 0.0
O273 O 0.71886 0.31916 0.2947 0.0
H274 H 0.92832 0.36831 0.29674 0.0
H275 H 0.71804 0.16791 0.25423 0.0
H276 H 0.40529 0.68902 0.97928 0.0
H277 H 0.32909 0.55186 0.96902 0.0
H278 H 0.31293 0.53546 0.99568 0.0
H279 H 0.46806 0.67803 0.01236 0.0
H280 H 0.46063 0.72148 0.02186 0.0
H281 H 0.46525 0.72216 1.00196 0.0
H282 H 0.37933 0.72868 0.99989 0.0
H283 H 0.37443 0.72802 0.01978 0.0
H284 H 0.32341 0.68899 1.00887 0.0
H285 H 0.30612 0.53436 0.02378 0.0
H286 H 0.30713 0.54882 0.05062 0.0
H287 H 0.39029 0.68654 0.04214 0.0
C288 C 0.38558 0.65546 0.98257 0.0
C289 C 0.36859 0.62177 0.97196 0.0
C290 C 0.34204 0.57835 0.97686 0.0
C291 C 0.33296 0.56867 0.99201 0.0
C292 C 0.35065 0.60274 1.00214 0.0
C293 C 0.37632 0.64526 0.9976 0.0
C294 C 0.39139 0.67605 1.01064 0.0
C295 C 0.4498 0.70088 0.01177 0.0
C296 C 0.36558 0.70726 1.00974 0.0
C297 C 0.3701 0.64426 0.02327 0.0
C298 C 0.34684 0.60211 0.01819 0.0
C299 C 0.32436 0.56726 0.02787 0.0
C300 C 0.32543 0.57579 0.04313 0.0
C301 C 0.34874 0.61886 0.04857 0.0
C302 C 0.37156 0.65332 0.03841 0.0
H303 H 0.78885 0.40963 0.38862 0.0
H304 H 0.6571 0.28884 0.39738 0.0
H305 H 0.63551 0.28148 0.37076 0.0
H306 H 0.73268 0.44661 0.35681 0.0
H307 H 0.79243 0.4678 0.34692 0.0
H308 H 0.79216 0.4678 0.3669 0.0
H309 H 0.84818 0.42529 0.36703 0.0
H310 H 0.84835 0.4249 0.34712 0.0
H311 H 0.82656 0.37459 0.3572 0.0
H312 H 0.63479 0.28184 0.34303 0.0
H313 H 0.65542 0.28974 0.31635 0.0
H314 H 0.7884 0.40976 0.32536 0.0
C315 C 0.75437 0.38255 0.38499 0.0
C316 C 0.72417 0.35015 0.3951 0.0
C317 C 0.68045 0.31426 0.38985 0.0
C318 C 0.66783 0.30984 0.37474 0.0
C319 C 0.69932 0.34155 0.36497 0.0
C320 C 0.74158 0.37737 0.36988 0.0
C321 C 0.77229 0.40415 0.35693 0.0
C322 C 0.77237 0.44927 0.35689 0.0
C323 C 0.82706 0.40739 0.35708 0.0
C324 C 0.74168 0.37706 0.34402 0.0
C325 C 0.69931 0.34144 0.34889 0.0
C326 C 0.66735 0.31003 0.33907 0.0
C327 C 0.67943 0.31476 0.32392 0.0
C328 C 0.7233 0.35052 0.3187 0.0
C329 C 0.7541 0.38242 0.32892 0.0
H330 H 0.40324 0.6986 0.6919 0.0
H331 H 0.53982 0.8057 0.70814 0.0
H332 H 0.57334 0.82048 0.68248 0.0
H333 H 0.46553 0.66216 0.66363 0.0
H334 H 0.41292 0.64803 0.65085 0.0
H335 H 0.40143 0.64512 0.67051 0.0
H336 H 0.35617 0.69605 0.66762 0.0
H337 H 0.36782 0.6994 0.64798 0.0
H338 H 0.38958 0.74816 0.65892 0.0
H339 H 0.589 0.82571 0.65473 0.0
H340 H 0.58818 0.81911 0.62752 0.0
H341 H 0.44127 0.70755 0.62976 0.0
C342 C 0.44044 0.72502 0.69013 0.0
C343 C 0.46893 0.75111 0.70203 0.0
C344 C 0.51745 0.78522 0.6992 0.0
C345 C 0.53667 0.79388 0.68466 0.0
C346 C 0.50704 0.76789 0.67316 0.0
C347 C 0.46017 0.73389 0.67579 0.0
C348 C 0.43531 0.71109 0.66156 0.0
C349 C 0.42841 0.6638 0.66165 0.0
C350 C 0.3842 0.71387 0.65887 0.0
C351 C 0.47516 0.73793 0.65041 0.0
C352 C 0.51625 0.77053 0.65731 0.0
C353 C 0.55719 0.80011 0.64925 0.0
C354 C 0.55623 0.79613 0.63376 0.0
C355 C 0.51465 0.76272 0.62645 0.0
C356 C 0.47369 0.73331 0.63497 0.0
H357 H 0.70566 0.35909 0.03972 0.0
H358 H 0.79818 0.49576 0.04782 0.0
H359 H 0.80616 0.50902 0.02084 0.0
H360 H 0.77622 0.34919 1.00902 0.0
H361 H 0.72107 0.31179 0.99907 0.0
H362 H 0.72002 0.31369 0.01899 0.0
H363 H 0.63857 0.32754 0.01795 0.0
H364 H 0.63932 0.3256 0.99801 0.0
H365 H 0.639 0.37236 1.00724 0.0
H366 H 0.80782 0.50643 0.99268 0.0
H367 H 0.80254 0.48833 0.96607 0.0
H368 H 0.70829 0.35344 0.9766 0.0
C369 C 0.72764 0.39185 0.03587 0.0
C370 C 0.75126 0.42635 0.046 0.0
C371 C 0.77912 0.4688 0.04038 0.0
C372 C 0.7841 0.47664 0.02503 0.0
C373 C 0.76079 0.44176 0.0154 0.0
C374 C 0.73291 0.40024 0.02062 0.0
C375 C 0.71261 0.36815 1.00799 0.0
C376 C 0.73376 0.33368 1.00882 0.0
C377 C 0.65389 0.34719 1.00779 0.0
C378 C 0.73417 0.39794 0.99483 0.0
C379 C 0.76161 0.44032 0.9993 0.0
C380 C 0.78602 0.47337 0.98907 0.0
C381 C 0.78257 0.46276 0.97393 0.0
C382 C 0.75498 0.41939 0.96909 0.0
C383 C 0.73017 0.38683 0.9798 0.0
H384 H 0.30667 0.66183 0.32098 0.0
H385 H 0.43462 0.78511 0.31193 0.0
H386 H 0.45815 0.79209 0.3384 0.0
H387 H 0.26908 0.69269 0.35312 0.0
H388 H 0.25073 0.64206 0.36283 0.0
H389 H 0.24917 0.64271 0.34292 0.0
H390 H 0.30884 0.60362 0.34189 0.0
H391 H 0.31039 0.6026 0.36186 0.0
H392 H 0.36916 0.62641 0.35154 0.0
H393 H 0.45936 0.79166 0.36606 0.0
H394 H 0.43971 0.78269 0.3928 0.0
H395 H 0.31241 0.6589 0.38415 0.0
C396 C 0.34065 0.68962 0.32446 0.0
C397 C 0.36899 0.72279 0.31432 0.0
C398 C 0.41248 0.75913 0.31944 0.0
C399 C 0.42621 0.76335 0.33447 0.0
C400 C 0.39641 0.73079 0.34426 0.0
C401 C 0.35484 0.69436 0.33944 0.0
C402 C 0.32623 0.66616 0.3524 0.0
C403 C 0.27053 0.66062 0.35284 0.0
C404 C 0.32883 0.62208 0.35189 0.0
C405 C 0.35698 0.69328 0.36528 0.0
C406 C 0.39763 0.73021 0.36033 0.0
C407 C 0.42845 0.76238 0.37008 0.0
C408 C 0.41694 0.75706 0.38524 0.0
C409 C 0.37512 0.71978 0.39055 0.0
C410 C 0.34555 0.68708 0.38045 0.0
H411 H 0.60614 0.36634 0.70574 0.0
H412 H 0.57552 0.2317 0.71317 0.0
H413 H 0.60495 0.22754 0.68781 0.0
H414 H 0.56049 0.35362 0.66962 0.0
H415 H 0.6078 0.40451 0.66281 0.0
H416 H 0.59065 0.39869 0.68209 0.0
H417 H 0.68544 0.42249 0.68939 0.0
H418 H 0.70296 0.42857 0.67009 0.0
H419 H 0.72026 0.39406 0.68183 0.0
H420 H 0.62779 0.23541 0.66078 0.0
H421 H 0.64421 0.25518 0.63435 0.0
H422 H 0.66182 0.38516 0.64449 0.0
C423 C 0.60674 0.33624 0.70219 0.0
C424 C 0.58869 0.29938 0.71153 0.0
C425 C 0.58936 0.26045 0.70629 0.0
C426 C 0.60609 0.25778 0.69188 0.0
C427 C 0.62243 0.2944 0.68285 0.0
C428 C 0.62333 0.33302 0.68784 0.0
C429 C 0.63931 0.36672 0.67559 0.0
C430 C 0.59704 0.38174 0.67234 0.0
C431 C 0.69001 0.40524 0.67946 0.0
C432 C 0.64587 0.34067 0.66282 0.0
C433 C 0.6363 0.29911 0.66728 0.0
C434 C 0.63624 0.26808 0.65723 0.0
C435 C 0.64551 0.27959 0.64223 0.0
C436 C 0.65491 0.32186 0.63736 0.0
C437 C 0.65595 0.35291 0.6479 0.0
H438 H 0.31682 0.65076 0.22884 0.0
H439 H 0.40662 0.78974 0.23255 0.0
H440 H 0.42407 0.79396 0.20579 0.0
H441 H 0.39643 0.63219 0.20071 0.0
H442 H 0.34277 0.59193 0.19102 0.0
H443 H 0.339 0.59922 0.21067 0.0
H444 H 0.25736 0.61148 0.20663 0.0
H445 H 0.26119 0.60468 0.18695 0.0
H446 H 0.25919 0.65331 0.19408 0.0
H447 H 0.42939 0.78438 0.1787 0.0
H448 H 0.42531 0.76086 0.15276 0.0
H449 H 0.33274 0.62796 0.16605 0.0
C450 C 0.34075 0.68195 0.22405 0.0
C451 C 0.36042 0.71991 0.23285 0.0
C452 C 0.39104 0.76019 0.22609 0.0
C453 C 0.40119 0.76297 0.21087 0.0
C454 C 0.38046 0.72522 0.20248 0.0
C455 C 0.35116 0.6854 0.20878 0.0
C456 C 0.33279 0.65006 0.19707 0.0
C457 C 0.35403 0.61637 0.20005 0.0
C458 C 0.27415 0.62863 0.19613 0.0
C459 C 0.35623 0.6764 0.18325 0.0
C460 C 0.38354 0.71966 0.18668 0.0
C461 C 0.40845 0.75053 0.17587 0.0
C462 C 0.40605 0.7368 0.16116 0.0
C463 C 0.379 0.69254 0.15731 0.0
C464 C 0.35336 0.66206 0.16856 0.0
H465 H 0.75176 0.40047 0.48141 0.0
H466 H 0.7345 0.26802 0.4778 0.0
H467 H 0.72587 0.25995 0.50492 0.0
H468 H 0.82102 0.42745 0.5163 0.0
H469 H 0.78755 0.45765 0.52335 0.0
H470 H 0.79589 0.45465 0.50367 0.0
H471 H 0.69808 0.42451 0.4997 0.0
H472 H 0.6896 0.42808 0.51932 0.0
H473 H 0.65629 0.3772 0.50986 0.0
H474 H 0.72096 0.26621 0.53234 0.0
H475 H 0.70434 0.28162 0.55791 0.0
H476 H 0.71752 0.408 0.54404 0.0
C477 C 0.74616 0.36985 0.48637 0.0
C478 C 0.7439 0.3349 0.4775 0.0
C479 C 0.73598 0.29513 0.48436 0.0
C480 C 0.73157 0.29035 0.49978 0.0
C481 C 0.73439 0.32543 0.50823 0.0
C482 C 0.74035 0.36411 0.50179 0.0
C483 C 0.7379 0.39536 0.51341 0.0
C484 C 0.78862 0.4362 0.51422 0.0
C485 C 0.69278 0.40695 0.51039 0.0
C486 C 0.72935 0.36804 0.52732 0.0
C487 C 0.72871 0.32823 0.52408 0.0
C488 C 0.72122 0.29724 0.53502 0.0
C489 C 0.71214 0.30647 0.54957 0.0
C490 C 0.70954 0.34604 0.55304 0.0
C491 C 0.71949 0.37755 0.54178 0.0
H492 H 0.39866 0.78689 0.80019 0.0
H493 H 0.51286 0.7428 0.78712 0.0
H494 H 0.52437 0.72789 0.81344 0.0
H495 H 0.45729 0.83475 0.83697 0.0
H496 H 0.3951 0.81687 0.84532 0.0
H497 H 0.40362 0.83156 0.826 0.0
H498 H 0.33217 0.75642 0.81923 0.0
H499 H 0.32396 0.7412 0.83844 0.0
H500 H 0.33781 0.70812 0.82519 0.0
H501 H 0.51107 0.70541 0.84055 0.0
H502 H 0.48006 0.68362 0.86615 0.0
H503 H 0.37526 0.74345 0.86108 0.0
C504 C 0.42745 0.77556 0.80292 0.0
C505 C 0.45515 0.76625 0.79168 0.0
C506 C 0.49191 0.75084 0.79561 0.0
C507 C 0.49842 0.74206 0.81052 0.0
C508 C 0.46854 0.74966 0.8213 0.0
C509 C 0.43455 0.76697 0.81767 0.0
C510 C 0.40362 0.76867 0.83096 0.0
C511 C 0.41565 0.81577 0.83505 0.0
C512 C 0.34602 0.74201 0.82829 0.0
C513 C 0.42378 0.74784 0.84255 0.0
C514 C 0.46149 0.73737 0.83685 0.0
C515 C 0.48241 0.71436 0.84519 0.0
C516 C 0.46426 0.70177 0.85967 0.0
C517 C 0.42557 0.71219 0.86565 0.0
C518 C 0.40576 0.736 0.85697 0.0
H519 H 0.67208 0.31741 0.16099 0.0
H520 H 0.76007 0.45698 0.1623 0.0
H521 H 0.76306 0.45424 0.18949 0.0
H522 H 0.59619 0.31011 0.19391 0.0
H523 H 0.59639 0.25972 0.19991 0.0
H524 H 0.60022 0.27263 0.18046 0.0
H525 H 0.68361 0.26205 0.17838 0.0
H526 H 0.67992 0.24898 0.1978 0.0
H527 H 0.73655 0.29222 0.19046 0.0
H528 H 0.75943 0.43617 0.21666 0.0
H529 H 0.74991 0.40366 0.2416 0.0
H530 H 0.66156 0.27643 0.22272 0.0
C531 C 0.69148 0.34751 0.16695 0.0
C532 C 0.71606 0.38737 0.15934 0.0
C533 C 0.74164 0.42586 0.16771 0.0
C534 C 0.74319 0.42474 0.18323 0.0
C535 C 0.71872 0.38494 0.19034 0.0
C536 C 0.69325 0.34702 0.18248 0.0
C537 C 0.67108 0.30836 0.1928 0.0
C538 C 0.61249 0.28642 0.1917 0.0
C539 C 0.69419 0.27601 0.18967 0.0
C540 C 0.68852 0.33044 0.20766 0.0
C541 C 0.71585 0.37464 0.20601 0.0
C542 C 0.73768 0.40163 0.21811 0.0
C543 C 0.73203 0.38287 0.23224 0.0
C544 C 0.70461 0.33755 0.23418 0.0
C545 C 0.68207 0.31125 0.22169 0.0
H546 H 0.43744 0.68116 0.53888 0.0
H547 H 0.47937 0.81634 0.54941 0.0
H548 H 0.45366 0.82776 0.52434 0.0
H549 H 0.48168 0.69621 0.50242 0.0
H550 H 0.42993 0.64909 0.49483 0.0
H551 H 0.44738 0.64983 0.51402 0.0
H552 H 0.35487 0.63289 0.52203 0.0
H553 H 0.33684 0.63128 0.50284 0.0
H554 H 0.32531 0.66689 0.51555 0.0
H555 H 0.43377 0.82705 0.49744 0.0
H556 H 0.40767 0.81172 0.47132 0.0
H557 H 0.37355 0.67608 0.4782 0.0
C558 C 0.44011 0.71292 0.53604 0.0
C559 C 0.46055 0.74784 0.54616 0.0
C560 C 0.46365 0.78896 0.54193 0.0
C561 C 0.44941 0.79589 0.52766 0.0
C562 C 0.43132 0.76125 0.51779 0.0
C563 C 0.42539 0.72031 0.52187 0.0
C564 C 0.40544 0.68886 0.50901 0.0
C565 C 0.44338 0.6699 0.50483 0.0
C566 C 0.35246 0.65285 0.51257 0.0
C567 C 0.40229 0.71881 0.49699 0.0
C568 C 0.41782 0.76048 0.50231 0.0
C569 C 0.42075 0.79442 0.4932 0.0
C570 C 0.40625 0.7854 0.47832 0.0
C571 C 0.38842 0.74265 0.4727 0.0
C572 C 0.38673 0.70902 0.48219 0.0
H573 H 0.70105 0.40294 0.85227 0.0
H574 H 0.65284 0.27044 0.86708 0.0
H575 H 0.60867 0.24385 0.84324 0.0
H576 H 0.5855 0.38542 0.83108 0.0
H577 H 0.62012 0.42201 0.81644 0.0
H578 H 0.64546 0.43082 0.83501 0.0
H579 H 0.72949 0.43037 0.82533 0.0
H580 H 0.7043 0.42127 0.80675 0.0
H581 H 0.72707 0.38443 0.81491 0.0
H582 H 0.57143 0.23131 0.8178 0.0
H583 H 0.54386 0.23329 0.79209 0.0
H584 H 0.61788 0.37392 0.79293 0.0
C585 C 0.68044 0.3684 0.85054 0.0
C586 C 0.68017 0.33867 0.86154 0.0
C587 C 0.6537 0.29368 0.85877 0.0
C588 C 0.62839 0.2783 0.84529 0.0
C589 C 0.63007 0.30831 0.83458 0.0
C590 C 0.65537 0.35242 0.83699 0.0
C591 C 0.65287 0.37751 0.82331 0.0
C592 C 0.62428 0.4056 0.82666 0.0
C593 C 0.70663 0.40501 0.81722 0.0
C594 C 0.62241 0.34058 0.81286 0.0
C595 C 0.60943 0.301 0.81966 0.0
C596 C 0.58131 0.26211 0.81235 0.0
C597 C 0.56582 0.26361 0.79772 0.0
C598 C 0.57872 0.30372 0.79041 0.0
C599 C 0.60758 0.34271 0.79814 0.0
H600 H 0.95978 0.5053 0.08583 0.0
H601 H 0.9013 0.49399 0.13063 0.0
H602 H 0.98631 0.50659 0.1405 0.0
H603 H 0.04034 0.45183 0.09186 0.0
H604 H 0.09099 0.48724 0.08002 0.0
H605 H 1.02605 0.47857 0.07645 0.0
H606 H 0.05252 0.56124 0.07766 0.0
H607 H 0.11766 0.5702 0.08107 0.0
H608 H 0.08572 0.59118 0.09379 0.0
H609 H 0.0771 0.5162 0.14543 0.0
H610 H 0.16807 0.52961 0.14511 0.0
H611 H 0.16814 0.53733 0.09711 0.0
C612 C 0.9649 0.50589 0.09773 0.0
C613 C 0.92364 0.49862 0.10745 0.0
C614 C 0.93221 0.49971 0.12294 0.0
C615 C 0.98037 0.50661 0.12866 0.0
C616 C 1.01988 0.51282 0.11875 0.0
C617 C 1.01285 0.51318 0.10362 0.0
C618 C 0.06167 0.52103 0.09536 0.0
C619 C 0.0543 0.48236 0.08533 0.0
C620 C 0.08051 0.56344 0.08644 0.0
C621 C 0.09722 0.52467 0.10819 0.0
C622 C 0.07229 0.51948 0.1216 0.0
C623 C 0.09702 0.52061 0.13499 0.0
C624 C 0.14871 0.528 0.13469 0.0
C625 C 0.17549 0.53459 0.1211 0.0
C626 C 0.14897 0.53256 0.1077 0.0
H627 H 0.65478 0.08727 0.4396 0.0
H628 H 0.60024 0.16712 0.41398 0.0
H629 H 0.51703 0.10465 0.41081 0.0
H630 H 0.5908 0.98937 0.41777 0.0
H631 H 0.57635 0.95392 0.4336 0.0
H632 H 0.63206 1.00494 0.43377 0.0
H633 H 0.60054 0.02626 0.458 0.0
H634 H 0.54465 0.97539 0.45787 0.0
H635 H 0.53784 0.02553 0.45852 0.0
H636 H 0.43892 0.03398 0.41079 0.0
H637 H 0.37234 0.95928 0.41328 0.0
H638 H 0.47731 0.9248 0.4387 0.0
C639 C 0.62561 0.09154 0.43317 0.0
C640 C 0.6342 0.13241 0.42713 0.0
C641 C 0.59454 0.13652 0.41895 0.0
C642 C 0.54712 0.10109 0.417 0.0
C643 C 0.53976 0.06153 0.42325 0.0
C644 C 0.57793 0.05643 0.43111 0.0
C645 C 0.55982 1.01039 0.43677 0.0
C646 C 0.59165 0.98836 0.43007 0.0
C647 C 0.56077 1.00935 0.4538 0.0
C648 C 0.50555 0.99051 0.43087 0.0
C649 C 0.49475 1.02061 0.42314 0.0
C650 C 0.44694 1.01009 0.41682 0.0
C651 C 0.40921 0.9676 0.41838 0.0
C652 C 0.41939 0.93598 0.42617 0.0
C653 C 0.46837 0.9479 0.4325 0.0
H654 H 0.37042 0.38203 0.73919 0.0
H655 H 0.51728 0.4239 0.76112 0.0
H656 H 0.51828 0.49588 0.76542 0.0
H657 H 0.39665 0.48044 0.7203 0.0
H658 H 0.33324 0.47738 0.72244 0.0
H659 H 0.34268 0.42848 0.7219 0.0
H660 H 0.29699 0.40497 0.7472 0.0
H661 H 0.28725 0.45377 0.7478 0.0
H662 H 0.31948 0.44092 0.76287 0.0
H663 H 0.50572 0.56515 0.76579 0.0
H664 H 0.47881 0.62465 0.76336 0.0
H665 H 0.33988 0.53753 0.74126 0.0
C666 C 0.40278 0.40623 0.74494 0.0
C667 C 0.44386 0.39711 0.74979 0.0
C668 C 0.4851 0.42974 0.75744 0.0
C669 C 0.48613 0.47087 0.75986 0.0
C670 C 0.44542 0.4789 0.75468 0.0
C671 C 0.40428 0.44732 0.7475 0.0
C672 C 0.36575 0.46437 0.7428 0.0
C673 C 0.35922 0.46256 0.72586 0.0
C674 C 0.31433 0.43953 0.75064 0.0
C675 C 0.39192 0.51072 0.74826 0.0
C676 C 0.43786 0.51846 0.75508 0.0
C677 C 0.46968 0.5593 0.76056 0.0
C678 C 0.45421 0.59302 0.75903 0.0
C679 C 0.4072 0.58588 0.75212 0.0
C680 C 0.37565 0.54395 0.74677 0.0
H681 H 0.53112 0.09403 0.58931 0.0
H682 H 0.65346 0.18142 0.56141 0.0
H683 H 0.6804 0.12305 0.55629 0.0
H684 H 0.60059 0.04083 0.60553 0.0
H685 H 0.54761 0.98804 0.60588 0.0
H686 H 0.53612 0.03594 0.60671 0.0
H687 H 0.4768 1.00992 0.58378 0.0
H688 H 0.4879 0.96179 0.58292 0.0
H689 H 0.50052 0.99662 0.56696 0.0
H690 H 0.69627 0.05587 0.55504 0.0
H691 H 0.69842 0.98445 0.55727 0.0
H692 H 0.56617 0.94116 0.58615 0.0
C693 C 0.56297 0.10067 0.58191 0.0
C694 C 0.59021 0.14241 0.57578 0.0
C695 C 0.63235 0.1499 0.56637 0.0
C696 C 0.64779 0.11688 0.56334 0.0
C697 C 0.6207 0.07638 0.56977 0.0
C698 C 0.57902 0.06808 0.57881 0.0
C699 C 0.55749 1.02211 0.5847 0.0
C700 C 0.56067 1.02173 0.60171 0.0
C701 C 0.50241 0.99607 0.57926 0.0
C702 C 0.59379 1.00601 0.57766 0.0
C703 C 0.6299 0.03776 0.56907 0.0
C704 C 0.66805 0.0307 0.56171 0.0
C705 C 0.6692 0.99008 0.56312 0.0
C706 C 0.63246 0.95692 0.57185 0.0
C707 C 0.59436 0.96534 0.57919 0.0
H708 H 0.43508 0.49116 0.9283 0.0
H709 H 0.48155 0.58743 0.89327 0.0
H710 H 0.55796 0.57411 0.88869 0.0
H711 H 0.55835 0.51553 0.94271 0.0
H712 H 0.54603 0.45998 0.94638 0.0
H713 H 0.49428 0.47615 0.9466 0.0
H714 H 0.44554 0.41762 0.92698 0.0
H715 H 0.49691 0.40095 0.92683 0.0
H716 H 0.47659 0.41652 0.90979 0.0
H717 H 0.63311 0.55319 0.88912 0.0
H718 H 0.69487 0.52103 0.89283 0.0
H719 H 0.59671 0.43673 0.9268 0.0
C720 C 0.46102 0.50916 0.91956 0.0
C721 C 0.4522 0.54039 0.91116 0.0
C722 C 0.4872 0.56316 0.89981 0.0
C723 C 0.53093 0.55598 0.89718 0.0
C724 C 0.53896 0.52554 0.90586 0.0
C725 C 0.50449 0.50202 0.91666 0.0
C726 C 0.52156 0.47088 0.92437 0.0
C727 C 0.5306 0.48128 0.941 0.0
C728 C 0.48285 0.4237 0.92184 0.0
C729 C 0.5713 0.48086 0.91636 0.0
C730 C 0.58102 0.5127 0.90578 0.0
C731 C 0.62558 0.52796 0.89729 0.0
C732 C 0.66061 0.50971 0.89952 0.0
C733 C 0.65059 0.47625 0.91005 0.0
C734 C 0.60538 0.46201 0.91858 0.0
H735 H 0.12741 0.61955 0.29762 0.0
H736 H 0.1473 0.64568 0.25052 0.0
H737 H 0.07647 0.57383 0.24535 0.0
H738 H 0.1017 0.50688 0.29508 0.0
H739 H 0.05572 0.49053 0.30992 0.0
H740 H 0.10684 0.54425 0.30979 0.0
H741 H 0.04102 0.57723 0.31132 0.0
H742 H 0.98972 0.52362 0.31152 0.0
H743 H 0.99072 0.56222 0.29771 0.0
H744 H 1.00066 0.49996 0.2456 0.0
H745 H 0.93013 0.42832 0.25115 0.0
H746 H 0.96398 0.44955 0.29801 0.0
C747 C 0.11647 0.61028 0.28623 0.0
C748 C 0.14227 0.63824 0.27444 0.0
C749 C 0.12783 0.62462 0.25967 0.0
C750 C 0.08767 0.58401 0.25666 0.0
C751 C 0.06295 0.55719 0.26856 0.0
C752 C 0.07718 0.56966 0.28304 0.0
C753 C 0.04565 0.53448 0.29384 0.0
C754 C 0.07951 0.51807 0.30267 0.0
C755 C 1.01496 0.55035 0.30421 0.0
C756 C 1.01102 0.50035 0.2832 0.0
C757 C 1.02125 0.51413 0.26866 0.0
C758 C 0.9927 0.48871 0.25693 0.0
C759 C 0.95272 0.44822 0.26016 0.0
C760 C 0.94216 0.43332 0.27496 0.0
C761 C 0.97195 0.45977 0.28657 0.0
H762 H 0.59123 0.46966 0.08734 0.0
H763 H 0.69027 0.53174 0.1246 0.0
H764 H 0.62755 0.55784 0.13357 0.0
H765 H 0.54715 0.5553 0.08156 0.0
H766 H 0.48356 0.51743 0.07642 0.0
H767 H 0.53706 0.50494 0.0727 0.0
H768 H 0.49259 0.43302 0.08721 0.0
H769 H 0.43929 0.44555 0.09115 0.0
H770 H 0.47325 0.43426 0.10612 0.0
H771 H 0.55088 0.57138 0.13969 0.0
H772 H 0.47124 0.58088 0.14088 0.0
H773 H 0.4231 0.51431 0.09877 0.0
C774 C 0.60005 0.48929 0.09727 0.0
C775 C 0.64578 0.49867 0.10528 0.0
C776 C 0.65584 0.52444 0.11822 0.0
C777 C 0.62022 0.53915 0.12345 0.0
C778 C 0.57503 0.52844 0.1155 0.0
C779 C 0.56529 0.5049 0.10251 0.0
C780 C 0.51396 0.49834 0.096 0.0
C781 C 0.52086 0.52032 0.08077 0.0
C782 C 0.47764 0.44991 0.09507 0.0
C783 C 0.49594 0.52125 0.10749 0.0
C784 C 0.53163 0.53793 0.11871 0.0
C785 C 0.52299 0.55893 0.13088 0.0
C786 C 0.47729 0.56387 0.13149 0.0
C787 C 0.4407 0.54844 0.11991 0.0
C788 C 0.45027 0.52664 0.10777 0.0
H789 H 0.97685 0.43507 0.45374 0.0
H790 H 0.94011 0.41718 0.40696 0.0
H791 H 1.01028 0.48935 0.40173 0.0
H792 H 1.00334 0.54689 0.45488 0.0
H793 H 0.05427 0.5606 0.46823 0.0
H794 H 1.00312 0.50693 0.46802 0.0
H795 H 0.0687 0.47404 0.46518 0.0
H796 H 0.12009 0.52762 0.46544 0.0
H797 H 0.11396 0.49174 0.45017 0.0
H798 H 0.08619 0.56416 0.40188 0.0
H799 H 0.15654 0.63589 0.40756 0.0
H800 H 0.13975 0.60426 0.45434 0.0
C801 C 0.98407 0.44599 0.44237 0.0
C802 C 0.95352 0.42032 0.43071 0.0
C803 C 0.96321 0.43638 0.41602 0.0
C804 C 1.00302 0.4772 0.41297 0.0
C805 C 1.03239 0.50174 0.42475 0.0
C806 C 1.02302 0.48674 0.43917 0.0
C807 C 0.05832 0.51986 0.44998 0.0
C808 C 1.02794 0.53442 0.46092 0.0
C809 C 0.09228 0.50226 0.45817 0.0
C810 C 0.0892 0.55594 0.43942 0.0
C811 C 0.07416 0.54489 0.4249 0.0
C812 C 0.09805 0.57313 0.41323 0.0
C813 C 0.13803 0.61369 0.41653 0.0
C814 C 0.15322 0.62581 0.43138 0.0
C815 C 0.1284 0.59629 0.4429 0.0
H816 H 0.4617 0.08954 0.74319 0.0
H817 H 0.31359 0.06844 0.76104 0.0
H818 H 0.28917 0.99024 0.76196 0.0
H819 H 0.4184 0.99533 0.72038 0.0
H820 H 0.47217 0.98299 0.72396 0.0
H821 H 0.47966 0.03813 0.72504 0.0
H822 H 0.5139 0.04387 0.75185 0.0
H823 H 0.50667 0.98875 0.75083 0.0
H824 H 0.47625 1.00486 0.76552 0.0
H825 H 0.27774 0.91414 0.75973 0.0
H826 H 0.28208 0.84425 0.75561 0.0
H827 H 0.43816 0.91203 0.74028 0.0
C828 C 0.42443 0.06854 0.74747 0.0
C829 C 0.3894 0.08556 0.75184 0.0
C830 C 0.34083 0.05659 0.75728 0.0
C831 C 0.32662 1.01192 0.75797 0.0
C832 C 0.36142 0.9962 0.75333 0.0
C833 C 0.40952 1.02348 0.74832 0.0
C834 C 0.43908 0.99751 0.74385 0.0
C835 C 0.45314 1.00388 0.72733 0.0
C836 C 0.48681 1.00947 0.7536 0.0
C837 C 0.39974 0.95155 0.74698 0.0
C838 C 0.35523 0.95176 0.75242 0.0
C839 C 0.31253 0.91354 0.75559 0.0
C840 C 0.31522 0.87396 0.75314 0.0
C841 C 0.36037 0.87259 0.74766 0.0
C842 C 0.40336 0.91208 0.74466 0.0
H843 H 0.58726 0.61945 0.55944 0.0
H844 H 0.60182 0.65728 0.60565 0.0
H845 H 0.5908 0.58379 0.61295 0.0
H846 H 0.4899 0.51104 0.56487 0.0
H847 H 0.51455 0.48756 0.55081 0.0
H848 H 0.52417 0.54319 0.54926 0.0
H849 H 0.62191 0.56759 0.54738 0.0
H850 H 0.61257 0.51204 0.54884 0.0
H851 H 0.65441 0.55186 0.56165 0.0
H852 H 0.58173 0.50689 0.61504 0.0
H853 H 0.57149 0.43146 0.61184 0.0
H854 H 0.559 0.44302 0.56435 0.0
C855 C 0.58856 0.61235 0.57108 0.0
C856 C 0.59575 0.64413 0.582 0.0
C857 C 0.59616 0.63333 0.59714 0.0
C858 C 0.59008 0.59175 0.60136 0.0
C859 C 0.58298 0.56116 0.59032 0.0
C860 C 0.58183 0.57086 0.57549 0.0
C861 C 0.57281 0.53196 0.56581 0.0
C862 C 0.52235 0.5176 0.55718 0.0
C863 C 0.61813 0.54144 0.5553 0.0
C864 C 0.56959 0.49896 0.5775 0.0
C865 C 0.57582 0.5165 0.59156 0.0
C866 C 0.57636 0.49273 0.60409 0.0
C867 C 0.57064 0.45003 0.60218 0.0
C868 C 0.56389 0.43136 0.58789 0.0
C869 C 0.563 0.45617 0.57543 0.0
H870 H 0.17781 0.59686 0.93275 0.0
H871 H 0.1986 0.52659 0.89522 0.0
H872 H 0.10562 0.49596 0.89016 0.0
H873 H 0.05742 0.5123 0.94487 0.0
H874 H 1.032 0.54993 0.95053 0.0
H875 H 0.09985 0.56584 0.95106 0.0
H876 H 0.11405 0.63203 0.93446 0.0
H877 H 0.0462 0.61608 0.93375 0.0
H878 H 0.08193 0.6237 0.91682 0.0
H879 H 1.00986 0.47542 0.8887 0.0
H880 H 0.91942 0.4613 0.8923 0.0
H881 H 0.96153 0.54333 0.93134 0.0
C882 C 0.16289 0.57487 0.92349 0.0
C883 C 0.19569 0.56425 0.91435 0.0
C884 C 0.17434 0.53511 0.90242 0.0
C885 C 0.12156 0.51773 0.89942 0.0
C886 C 0.09048 0.52944 0.90853 0.0
C887 C 0.11036 0.55692 0.92045 0.0
C888 C 0.06884 0.56382 0.92876 0.0
C889 C 0.06426 0.54696 0.94475 0.0
C890 C 0.07834 0.61175 0.92842 0.0
C891 C 1.02237 0.53616 0.91961 0.0
C892 C 1.03564 0.51685 0.90793 0.0
C893 C 0.99914 0.49024 0.89787 0.0
C894 C 0.94779 0.48259 0.89997 0.0
C895 C 0.93309 0.50115 0.91211 0.0
C896 C 0.97127 0.52857 0.92195 0.0
H897 H 0.44834 0.95694 0.25456 0.0
H898 H 0.43659 0.92819 0.30149 0.0
H899 H 0.50907 0.99942 0.3064 0.0
H900 H 0.58596 1.0084 0.25368 0.0
H901 H 0.58898 0.04782 0.23994 0.0
H902 H 0.53515 0.9956 0.24034 0.0
H903 H 0.47366 0.03283 0.24233 0.0
H904 H 0.5273 0.08516 0.24194 0.0
H905 H 0.48245 0.0711 0.25704 0.0
H906 H 0.58053 0.07571 0.30604 0.0
H907 H 0.65063 0.14748 0.30028 0.0
H908 H 0.61964 0.12313 0.25342 0.0
C909 C 0.4609 0.96592 0.26586 0.0
C910 C 0.43671 0.93758 0.27771 0.0
C911 C 0.45475 0.94973 0.29233 0.0
C912 C 0.49566 0.99005 0.29519 0.0
C913 C 0.51866 1.0174 0.28325 0.0
C914 C 0.50235 1.00553 0.26885 0.0
C915 C 0.53492 0.03982 0.25791 0.0
C916 C 0.56291 1.02183 0.24735 0.0
C917 C 0.50265 0.05832 0.2493 0.0
C918 C 0.57182 0.0731 0.26839 0.0
C919 C 0.56148 0.05987 0.28298 0.0
C920 C 0.58927 0.08614 0.29466 0.0
C921 C 0.6288 0.1268 0.29131 0.0
C922 C 0.64072 0.14039 0.27644 0.0
C923 C 0.61182 0.11308 0.26487 0.0
loop_
_geom_bond_atom_site_label_1
_geom_bond_atom_site_label_2
_geom_bond_distance
_geom_bond_site_symmetry_2
_ccdc_geom_bond_type
Cu0 N1 1.999 . S
Cu0 O6 1.974 . S
Cu0 N11 1.985 . S
Cu0 O20 1.959 . S
N1 Cu0 1.999 . S
N1 C3 1.263 . S
N1 C5 1.389 . S
N2 C3 1.358 . S
N2 C4 1.400 . S
C3 N1 1.263 . S
C3 N2 1.358 . S
C3 H9 0.930 . S
C4 N2 1.400 . S
C4 C5 1.351 . S
C4 H21 0.930 . S
C5 N1 1.389 . S
C5 C4 1.351 . S
C5 H10 0.930 . S
O6 Cu0 1.974 . S
O6 C16 1.282 . S
C7 O8 1.261 . S
C7 O20 1.251 . S
O8 C7 1.261 . S
H9 C3 0.930 . S
H10 C5 0.930 . S
N11 Cu0 1.985 . S
N11 C13 1.335 . S
N11 C14 1.390 . S
N12 C13 1.345 . S
N12 C15 1.336 . S
C13 N11 1.335 . S
C13 N12 1.345 . S
C13 H18 0.930 . S
C14 N11 1.390 . S
C14 C15 1.346 . S
C14 H19 0.930 . S
C15 N12 1.336 . S
C15 C14 1.346 . S
C15 H22 0.929 . S
C16 O6 1.282 . S
C16 O17 1.216 . S
O17 C16 1.216 . S
H18 C13 0.930 . S
H19 C14 0.930 . S
O20 Cu0 1.959 . S
O20 C7 1.251 . S
H21 C4 0.930 . S
H22 C15 0.929 . S
Cu23 N24 1.999 . S
Cu23 O29 1.974 . S
Cu23 N34 1.985 . S
Cu23 O43 1.959 . S
N24 Cu23 1.999 . S
N24 C26 1.263 . S
N24 C28 1.389 . S
N25 C26 1.358 . S
N25 C27 1.400 . S
C26 N24 1.263 . S
C26 N25 1.358 . S
C26 H32 0.930 . S
C27 N25 1.400 . S
C27 C28 1.351 . S
C27 H44 0.930 . S
C28 N24 1.389 . S
C28 C27 1.351 . S
C28 H33 0.930 . S
O29 Cu23 1.974 . S
O29 C39 1.282 . S
C30 O31 1.261 . S
C30 O43 1.251 . S
O31 C30 1.261 . S
H32 C26 0.930 . S
H33 C28 0.930 . S
N34 Cu23 1.985 . S
N34 C36 1.335 . S
N34 C37 1.390 . S
N35 C36 1.345 . S
N35 C38 1.336 . S
C36 N34 1.335 . S
C36 N35 1.345 . S
C36 H41 0.930 . S
C37 N34 1.390 . S
C37 C38 1.346 . S
C37 H42 0.930 . S
C38 N35 1.336 . S
C38 C37 1.346 . S
C38 H45 0.929 . S
C39 O29 1.282 . S
C39 O40 1.216 . S
O40 C39 1.216 . S
H41 C36 0.930 . S
H42 C37 0.930 . S
O43 Cu23 1.959 . S
O43 C30 1.251 . S
H44 C27 0.930 . S
H45 C38 0.929 . S
Cu46 N47 1.999 . S
Cu46 O52 1.974 . S
Cu46 N57 1.985 . S
Cu46 O66 1.959 . S
N47 Cu46 1.999 . S
N47 C49 1.263 . S
N47 C51 1.389 . S
N48 C49 1.358 . S
N48 C50 1.400 . S
C49 N47 1.263 . S
C49 N48 1.358 . S
C49 H55 0.930 . S
C50 N48 1.400 . S
C50 C51 1.351 . S
C50 H67 0.930 . S
C51 N47 1.389 . S
C51 C50 1.351 . S
C51 H56 0.930 . S
O52 Cu46 1.974 . S
O52 C62 1.282 . S
C53 O54 1.261 . S
C53 O66 1.251 . S
O54 C53 1.261 . S
H55 C49 0.930 . S
H56 C51 0.930 . S
N57 Cu46 1.985 . S
N57 C59 1.335 . S
N57 C60 1.390 . S
N58 C59 1.345 . S
N58 C61 1.336 . S
C59 N57 1.335 . S
C59 N58 1.345 . S
C59 H64 0.930 . S
C60 N57 1.390 . S
C60 C61 1.346 . S
C60 H65 0.930 . S
C61 N58 1.336 . S
C61 C60 1.346 . S
C61 H68 0.929 . S
C62 O52 1.282 . S
C62 O63 1.216 . S
O63 C62 1.216 . S
H64 C59 0.930 . S
H65 C60 0.930 . S
O66 Cu46 1.959 . S
O66 C53 1.251 . S
H67 C50 0.930 . S
H68 C61 0.929 . S
Cu69 N70 1.999 . S
Cu69 O75 1.974 . S
Cu69 N80 1.985 . S
Cu69 O89 1.959 . S
N70 Cu69 1.999 . S
N70 C72 1.263 . S
N70 C74 1.389 . S
N71 C72 1.358 . S
N71 C73 1.400 . S
C72 N70 1.263 . S
C72 N71 1.358 . S
C72 H78 0.930 . S
C73 N71 1.400 . S
C73 C74 1.351 . S
C73 H90 0.930 . S
C74 N70 1.389 . S
C74 C73 1.351 . S
C74 H79 0.930 . S
O75 Cu69 1.974 . S
O75 C85 1.282 . S
C76 O77 1.261 . S
C76 O89 1.251 . S
O77 C76 1.261 . S
H78 C72 0.930 . S
H79 C74 0.930 . S
N80 Cu69 1.985 . S
N80 C82 1.335 . S
N80 C83 1.390 . S
N81 C82 1.345 . S
N81 C84 1.336 . S
C82 N80 1.335 . S
C82 N81 1.345 . S
C82 H87 0.930 . S
C83 N80 1.390 . S
C83 C84 1.346 . S
C83 H88 0.930 . S
C84 N81 1.336 . S
C84 C83 1.346 . S
C84 H91 0.929 . S
C85 O75 1.282 . S
C85 O86 1.216 . S
O86 C85 1.216 . S
H87 C82 0.930 . S
H88 C83 0.930 . S
O89 Cu69 1.959 . S
O89 C76 1.251 . S
H90 C73 0.930 . S
H91 C84 0.929 . S
Cu92 N93 1.999 . S
Cu92 O98 1.974 . S
Cu92 N103 1.985 . S
Cu92 O112 1.959 . S
N93 Cu92 1.999 . S
N93 C95 1.263 . S
N93 C97 1.389 . S
N94 C95 1.358 . S
N94 C96 1.400 . S
C95 N93 1.263 . S
C95 N94 1.358 . S
C95 H101 0.930 . S
C96 N94 1.400 . S
C96 C97 1.351 . S
C96 H113 0.930 . S
C97 N93 1.389 . S
C97 C96 1.351 . S
C97 H102 0.930 . S
O98 Cu92 1.974 . S
O98 C108 1.282 . S
C99 O100 1.261 . S
C99 O112 1.251 . S
O100 C99 1.261 . S
H101 C95 0.930 . S
H102 C97 0.930 . S
N103 Cu92 1.985 . S
N103 C105 1.335 . S
N103 C106 1.390 . S
N104 C105 1.345 . S
N104 C107 1.336 . S
C105 N103 1.335 . S
C105 N104 1.345 . S
C105 H110 0.930 . S
C106 N103 1.390 . S
C106 C107 1.346 . S
C106 H111 0.930 . S
C107 N104 1.336 . S
C107 C106 1.346 . S
C107 H114 0.929 . S
C108 O98 1.282 . S
C108 O109 1.216 . S
O109 C108 1.216 . S
H110 C105 0.930 . S
H111 C106 0.930 . S
O112 Cu92 1.959 . S
O112 C99 1.251 . S
H113 C96 0.930 . S
H114 C107 0.929 . S
Cu115 N116 1.999 . S
Cu115 O121 1.974 . S
Cu115 N126 1.985 . S
Cu115 O135 1.959 . S
N116 Cu115 1.999 . S
N116 C118 1.263 . S
N116 C120 1.389 . S
N117 C118 1.358 . S
N117 C119 1.400 . S
C118 N116 1.263 . S
C118 N117 1.358 . S
C118 H124 0.930 . S
C119 N117 1.400 . S
C119 C120 1.351 . S
C119 H136 0.930 . S
C120 N116 1.389 . S
C120 C119 1.351 . S
C120 H125 0.930 . S
O121 Cu115 1.974 . S
O121 C131 1.282 . S
C122 O123 1.261 . S
C122 O135 1.251 . S
O123 C122 1.261 . S
H124 C118 0.930 . S
H125 C120 0.930 . S
N126 Cu115 1.985 . S
N126 C128 1.335 . S
N126 C129 1.390 . S
N127 C128 1.345 . S
N127 C130 1.336 . S
C128 N126 1.335 . S
C128 N127 1.345 . S
C128 H133 0.930 . S
C129 N126 1.390 . S
C129 C130 1.346 . S
C129 H134 0.930 . S
C130 N127 1.336 . S
C130 C129 1.346 . S
C130 H137 0.929 . S
C131 O121 1.282 . S
C131 O132 1.216 . S
O132 C131 1.216 . S
H133 C128 0.930 . S
H134 C129 0.930 . S
O135 Cu115 1.959 . S
O135 C122 1.251 . S
H136 C119 0.930 . S
H137 C130 0.929 . S
Cu138 N139 1.999 . S
Cu138 O144 1.974 . S
Cu138 N149 1.985 . S
Cu138 O158 1.959 . S
N139 Cu138 1.999 . S
N139 C141 1.263 . S
N139 C143 1.389 . S
N140 C141 1.358 . S
N140 C142 1.400 . S
C141 N139 1.263 . S
C141 N140 1.358 . S
C141 H147 0.930 . S
C142 N140 1.400 . S
C142 C143 1.351 . S
C142 H159 0.930 . S
C143 N139 1.389 . S
C143 C142 1.351 . S
C143 H148 0.930 . S
O144 Cu138 1.974 . S
O144 C154 1.282 . S
C145 O146 1.261 . S
C145 O158 1.251 . S
O146 C145 1.261 . S
H147 C141 0.930 . S
H148 C143 0.930 . S
N149 Cu138 1.985 . S
N149 C151 1.335 . S
N149 C152 1.390 . S
N150 C151 1.345 . S
N150 C153 1.336 . S
C151 N149 1.335 . S
C151 N150 1.345 . S
C151 H156 0.930 . S
C152 N149 1.390 . S
C152 C153 1.346 . S
C152 H157 0.930 . S
C153 N150 1.336 . S
C153 C152 1.346 . S
C153 H160 0.929 . S
C154 O144 1.282 . S
C154 O155 1.216 . S
O155 C154 1.216 . S
H156 C151 0.930 . S
H157 C152 0.930 . S
O158 Cu138 1.959 . S
O158 C145 1.251 . S
H159 C142 0.930 . S
H160 C153 0.929 . S
Cu161 N162 1.999 . S
Cu161 O167 1.974 . S
Cu161 N172 1.985 . S
Cu161 O181 1.959 . S
N162 Cu161 1.999 . S
N162 C164 1.263 . S
N162 C166 1.389 . S
N163 C164 1.358 . S
N163 C165 1.400 . S
C164 N162 1.263 . S
C164 N163 1.358 . S
C164 H170 0.930 . S
C165 N163 1.400 . S
C165 C166 1.351 . S
C165 H182 0.930 . S
C166 N162 1.389 . S
C166 C165 1.351 . S
C166 H171 0.930 . S
O167 Cu161 1.974 . S
O167 C177 1.282 . S
C168 O169 1.261 . S
C168 O181 1.251 . S
O169 C168 1.261 . S
H170 C164 0.930 . S
H171 C166 0.930 . S
N172 Cu161 1.985 . S
N172 C174 1.335 . S
N172 C175 1.390 . S
N173 C174 1.345 . S
N173 C176 1.336 . S
C174 N172 1.335 . S
C174 N173 1.345 . S
C174 H179 0.930 . S
C175 N172 1.390 . S
C175 C176 1.346 . S
C175 H180 0.930 . S
C176 N173 1.336 . S
C176 C175 1.346 . S
C176 H183 0.929 . S
C177 O167 1.282 . S
C177 O178 1.216 . S
O178 C177 1.216 . S
H179 C174 0.930 . S
H180 C175 0.930 . S
O181 Cu161 1.959 . S
O181 C168 1.251 . S
H182 C165 0.930 . S
H183 C176 0.929 . S
Cu184 N185 1.999 . S
Cu184 O190 1.974 . S
Cu184 N195 1.985 . S
Cu184 O204 1.959 . S
N185 Cu184 1.999 . S
N185 C187 1.263 . S
N185 C189 1.389 . S
N186 C187 1.358 . S
N186 C188 1.400 . S
C187 N185 1.263 . S
C187 N186 1.358 . S
C187 H193 0.930 . S
C188 N186 1.400 . S
C188 C189 1.351 . S
C188 H205 0.930 . S
C189 N185 1.389 . S
C189 C188 1.351 . S
C189 H194 0.930 . S
O190 Cu184 1.974 . S
O190 C200 1.282 . S
C191 O192 1.261 . S
C191 O204 1.251 . S
O192 C191 1.261 . S
H193 C187 0.930 . S
H194 C189 0.930 . S
N195 Cu184 1.985 . S
N195 C197 1.335 . S
N195 C198 1.390 . S
N196 C197 1.345 . S
N196 C199 1.336 . S
C197 N195 1.335 . S
C197 N196 1.345 . S
C197 H202 0.930 . S
C198 N195 1.390 . S
C198 C199 1.346 . S
C198 H203 0.930 . S
C199 N196 1.336 . S
C199 C198 1.346 . S
C199 H206 0.929 . S
C200 O190 1.282 . S
C200 O201 1.216 . S
O201 C200 1.216 . S
H202 C197 0.930 . S
H203 C198 0.930 . S
O204 Cu184 1.959 . S
O204 C191 1.251 . S
H205 C188 0.930 . S
H206 C199 0.929 . S
Cu207 N208 1.999 . S
Cu207 O213 1.974 . S
Cu207 N218 1.985 . S
Cu207 O227 1.959 . S
N208 Cu207 1.999 . S
N208 C210 1.263 . S
N208 C212 1.389 . S
N209 C210 1.358 . S
N209 C211 1.400 . S
C210 N208 1.263 . S
C210 N209 1.358 . S
C210 H216 0.930 . S
C211 N209 1.400 . S
C211 C212 1.351 . S
C211 H228 0.930 . S
C212 N208 1.389 . S
C212 C211 1.351 . S
C212 H217 0.930 . S
O213 Cu207 1.974 . S
O213 C223 1.282 . S
C214 O215 1.261 . S
C214 O227 1.251 . S
O215 C214 1.261 . S
H216 C210 0.930 . S
H217 C212 0.930 . S
N218 Cu207 1.985 . S
N218 C220 1.335 . S
N218 C221 1.390 . S
N219 C220 1.345 . S
N219 C222 1.336 . S
C220 N218 1.335 . S
C220 N219 1.345 . S
C220 H225 0.930 . S
C221 N218 1.390 . S
C221 C222 1.346 . S
C221 H226 0.930 . S
C222 N219 1.336 . S
C222 C221 1.346 . S
C222 H229 0.929 . S
C223 O213 1.282 . S
C223 O224 1.216 . S
O224 C223 1.216 . S
H225 C220 0.930 . S
H226 C221 0.930 . S
O227 Cu207 1.959 . S
O227 C214 1.251 . S
H228 C211 0.930 . S
H229 C222 0.929 . S
Cu230 N231 1.999 . S
Cu230 O236 1.974 . S
Cu230 N241 1.985 . S
Cu230 O250 1.959 . S
N231 Cu230 1.999 . S
N231 C233 1.263 . S
N231 C235 1.389 . S
N232 C233 1.358 . S
N232 C234 1.400 . S
C233 N231 1.263 . S
C233 N232 1.358 . S
C233 H239 0.930 . S
C234 N232 1.400 . S
C234 C235 1.351 . S
C234 H251 0.930 . S
C235 N231 1.389 . S
C235 C234 1.351 . S
C235 H240 0.930 . S
O236 Cu230 1.974 . S
O236 C246 1.282 . S
C237 O238 1.261 . S
C237 O250 1.251 . S
O238 C237 1.261 . S
H239 C233 0.930 . S
H240 C235 0.930 . S
N241 Cu230 1.985 . S
N241 C243 1.335 . S
N241 C244 1.390 . S
N242 C243 1.345 . S
N242 C245 1.336 . S
C243 N241 1.335 . S
C243 N242 1.345 . S
C243 H248 0.930 . S
C244 N241 1.390 . S
C244 C245 1.346 . S
C244 H249 0.930 . S
C245 N242 1.336 . S
C245 C244 1.346 . S
C245 H252 0.929 . S
C246 O236 1.282 . S
C246 O247 1.216 . S
O247 C246 1.216 . S
H248 C243 0.930 . S
H249 C244 0.930 . S
O250 Cu230 1.959 . S
O250 C237 1.251 . S
H251 C234 0.930 . S
H252 C245 0.929 . S
Cu253 N254 1.999 . S
Cu253 O259 1.974 . S
Cu253 N264 1.985 . S
Cu253 O273 1.959 . S
N254 Cu253 1.999 . S
N254 C256 1.263 . S
N254 C258 1.389 . S
N255 C256 1.358 . S
N255 C257 1.400 . S
C256 N254 1.263 . S
C256 N255 1.358 . S
C256 H262 0.930 . S
C257 N255 1.400 . S
C257 C258 1.351 . S
C257 H274 0.930 . S
C258 N254 1.389 . S
C258 C257 1.351 . S
C258 H263 0.930 . S
O259 Cu253 1.974 . S
O259 C269 1.282 . S
C260 O261 1.261 . S
C260 O273 1.251 . S
O261 C260 1.261 . S
H262 C256 0.930 . S
H263 C258 0.930 . S
N264 Cu253 1.985 . S
N264 C266 1.335 . S
N264 C267 1.390 . S
N265 C266 1.345 . S
N265 C268 1.336 . S
C266 N264 1.335 . S
C266 N265 1.345 . S
C266 H271 0.930 . S
C267 N264 1.390 . S
C267 C268 1.346 . S
C267 H272 0.930 . S
C268 N265 1.336 . S
C268 C267 1.346 . S
C268 H275 0.929 . S
C269 O259 1.282 . S
C269 O270 1.216 . S
O270 C269 1.216 . S
H271 C266 0.930 . S
H272 C267 0.930 . S
O273 Cu253 1.959 . S
O273 C260 1.251 . S
H274 C257 0.930 . S
H275 C268 0.929 . S
H276 C288 0.930 . S
H277 C290 0.930 . S
H278 C291 0.930 . S
H279 C295 0.959 . S
H280 C295 0.959 1_554 S
H281 C295 0.961 . S
H282 C296 0.960 1_556 S
H283 C296 0.961 . S
H284 C296 0.959 . S
H285 C299 0.929 . S
H286 C300 0.931 . S
H287 C302 0.930 . S
C288 H276 0.930 . S
C288 C289 1.399 . S
C288 C293 1.399 . S
C289 C288 1.399 . S
C289 C290 1.376 . S
C290 H277 0.930 . S
C290 C289 1.376 . S
C290 C291 1.388 . S
C291 H278 0.930 . S
C291 C290 1.388 . S
C291 C292 1.390 . S
C292 C291 1.390 . S
C292 C293 1.394 . S
C292 C298 1.465 1_556 S
C293 C288 1.399 . S
C293 C292 1.394 . S
C293 C294 1.559 . S
C294 C293 1.559 . S
C294 C295 1.507 . S
C294 C296 1.559 1_556 S
C294 C297 1.480 1_556 S
C295 H279 0.959 . S
C295 H280 0.959 1_556 S
C295 H281 0.961 . S
C295 C294 1.507 . S
C296 H282 0.960 1_554 S
C296 H283 0.961 . S
C296 H284 0.959 . S
C296 C294 1.559 1_554 S
C297 C294 1.480 1_554 S
C297 C298 1.396 . S
C297 C302 1.390 . S
C298 C292 1.465 1_554 S
C298 C297 1.396 . S
C298 C299 1.399 . S
C299 H285 0.929 . S
C299 C298 1.399 . S
C299 C300 1.385 . S
C300 H286 0.931 . S
C300 C299 1.385 . S
C300 C301 1.389 . S
C301 C300 1.389 . S
C301 C302 1.387 . S
C302 H287 0.930 . S
C302 C297 1.390 . S
C302 C301 1.387 . S
H303 C315 0.930 . S
H304 C317 0.930 . S
H305 C318 0.930 . S
H306 C322 0.959 . S
H307 C322 0.959 . S
H308 C322 0.961 . S
H309 C323 0.960 . S
H310 C323 0.961 . S
H311 C323 0.959 . S
H312 C326 0.929 . S
H313 C327 0.931 . S
H314 C329 0.930 . S
C315 H303 0.930 . S
C315 C316 1.399 . S
C315 C320 1.399 . S
C316 C315 1.399 . S
C316 C317 1.376 . S
C317 H304 0.930 . S
C317 C316 1.376 . S
C317 C318 1.388 . S
C318 H305 0.930 . S
C318 C317 1.388 . S
C318 C319 1.390 . S
C319 C318 1.390 . S
C319 C320 1.394 . S
C319 C325 1.465 . S
C320 C315 1.399 . S
C320 C319 1.394 . S
C320 C321 1.516 . S
C321 C320 1.516 . S
C321 C322 1.502 . S
C321 C323 1.561 . S
C321 C324 1.526 . S
C322 H306 0.959 . S
C322 H307 0.959 . S
C322 H308 0.961 . S
C322 C321 1.502 . S
C323 H309 0.960 . S
C323 H310 0.961 . S
C323 H311 0.959 . S
C323 C321 1.561 . S
C324 C321 1.526 . S
C324 C325 1.396 . S
C324 C329 1.390 . S
C325 C319 1.465 . S
C325 C324 1.396 . S
C325 C326 1.399 . S
C326 H312 0.929 . S
C326 C325 1.399 . S
C326 C327 1.385 . S
C327 H313 0.931 . S
C327 C326 1.385 . S
C327 C328 1.389 . S
C328 C327 1.389 . S
C328 C329 1.387 . S
C329 H314 0.930 . S
C329 C324 1.390 . S
C329 C328 1.387 . S
H330 C342 0.930 . S
H331 C344 0.930 . S
H332 C345 0.930 . S
H333 C349 0.959 . S
H334 C349 0.959 . S
H335 C349 0.961 . S
H336 C350 0.960 . S
H337 C350 0.961 . S
H338 C350 0.959 . S
H339 C353 0.929 . S
H340 C354 0.931 . S
H341 C356 0.930 . S
C342 H330 0.930 . S
C342 C343 1.399 . S
C342 C347 1.399 . S
C343 C342 1.399 . S
C343 C344 1.376 . S
C344 H331 0.930 . S
C344 C343 1.376 . S
C344 C345 1.388 . S
C345 H332 0.930 . S
C345 C344 1.388 . S
C345 C346 1.390 . S
C346 C345 1.390 . S
C346 C347 1.394 . S
C346 C352 1.465 . S
C347 C342 1.399 . S
C347 C346 1.394 . S
C347 C348 1.516 . S
C348 C347 1.516 . S
C348 C349 1.502 . S
C348 C350 1.561 . S
C348 C351 1.526 . S
C349 H333 0.959 . S
C349 H334 0.959 . S
C349 H335 0.961 . S
C349 C348 1.502 . S
C350 H336 0.960 . S
C350 H337 0.961 . S
C350 H338 0.959 . S
C350 C348 1.561 . S
C351 C348 1.526 . S
C351 C352 1.396 . S
C351 C356 1.390 . S
C352 C346 1.465 . S
C352 C351 1.396 . S
C352 C353 1.399 . S
C353 H339 0.929 . S
C353 C352 1.399 . S
C353 C354 1.385 . S
C354 H340 0.931 . S
C354 C353 1.385 . S
C354 C355 1.389 . S
C355 C354 1.389 . S
C355 C356 1.387 . S
C356 H341 0.930 . S
C356 C351 1.390 . S
C356 C355 1.387 . S
H357 C369 0.930 . S
H358 C371 0.930 . S
H359 C372 0.930 . S
H360 C376 0.959 . S
H361 C376 0.959 . S
H362 C376 0.961 1_554 S
H363 C377 0.960 1_554 S
H364 C377 0.961 . S
H365 C377 0.963 . S
H366 C380 0.929 . S
H367 C381 0.931 . S
H368 C383 0.930 . S
C369 H357 0.930 . S
C369 C370 1.399 . S
C369 C374 1.399 . S
C370 C369 1.399 . S
C370 C371 1.376 . S
C371 H358 0.930 . S
C371 C370 1.376 . S
C371 C372 1.388 . S
C372 H359 0.930 . S
C372 C371 1.388 . S
C372 C373 1.390 . S
C373 C372 1.390 . S
C373 C374 1.394 . S
C373 C379 1.465 1_554 S
C374 C369 1.399 . S
C374 C373 1.394 . S
C374 C375 1.516 1_554 S
C375 C374 1.516 1_556 S
C375 C376 1.502 . S
C375 C377 1.561 . S
C375 C378 1.526 . S
C376 H360 0.959 . S
C376 H361 0.959 . S
C376 H362 0.961 1_556 S
C376 C375 1.502 . S
C377 H363 0.960 1_556 S
C377 H364 0.961 . S
C377 H365 0.963 . S
C377 C375 1.561 . S
C378 C375 1.526 . S
C378 C379 1.396 . S
C378 C383 1.390 . S
C379 C373 1.465 1_556 S
C379 C378 1.396 . S
C379 C380 1.399 . S
C380 H366 0.929 . S
C380 C379 1.399 . S
C380 C381 1.385 . S
C381 H367 0.931 . S
C381 C380 1.385 . S
C381 C382 1.389 . S
C382 C381 1.389 . S
C382 C383 1.387 . S
C383 H368 0.930 . S
C383 C378 1.390 . S
C383 C382 1.387 . S
H384 C396 0.930 . S
H385 C398 0.930 . S
H386 C399 0.930 . S
H387 C403 0.959 . S
H388 C403 0.959 . S
H389 C403 0.961 . S
H390 C404 0.960 . S
H391 C404 0.961 . S
H392 C404 0.959 . S
H393 C407 0.929 . S
H394 C408 0.931 . S
H395 C410 0.930 . S
C396 H384 0.930 . S
C396 C397 1.399 . S
C396 C401 1.399 . S
C397 C396 1.399 . S
C397 C398 1.376 . S
C398 H385 0.930 . S
C398 C397 1.376 . S
C398 C399 1.388 . S
C399 H386 0.930 . S
C399 C398 1.388 . S
C399 C400 1.390 . S
C400 C399 1.390 . S
C400 C401 1.394 . S
C400 C406 1.465 . S
C401 C396 1.399 . S
C401 C400 1.394 . S
C401 C402 1.516 . S
C402 C401 1.516 . S
C402 C403 1.502 . S
C402 C404 1.561 . S
C402 C405 1.526 . S
C403 H387 0.959 . S
C403 H388 0.959 . S
C403 H389 0.961 . S
C403 C402 1.502 . S
C404 H390 0.960 . S
C404 H391 0.961 . S
C404 H392 0.959 . S
C404 C402 1.561 . S
C405 C402 1.526 . S
C405 C406 1.396 . S
C405 C410 1.390 . S
C406 C400 1.465 . S
C406 C405 1.396 . S
C406 C407 1.399 . S
C407 H393 0.929 . S
C407 C406 1.399 . S
C407 C408 1.385 . S
C408 H394 0.931 . S
C408 C407 1.385 . S
C408 C409 1.389 . S
C409 C408 1.389 . S
C409 C410 1.387 . S
C410 H395 0.930 . S
C410 C405 1.390 . S
C410 C409 1.387 . S
H411 C423 0.930 . S
H412 C425 0.930 . S
H413 C426 0.930 . S
H414 C430 0.959 . S
H415 C430 0.959 . S
H416 C430 0.961 . S
H417 C431 0.960 . S
H418 C431 0.961 . S
H419 C431 0.959 . S
H420 C434 0.929 . S
H421 C435 0.931 . S
H422 C437 0.930 . S
C423 H411 0.930 . S
C423 C424 1.399 . S
C423 C428 1.399 . S
C424 C423 1.399 . S
C424 C425 1.376 . S
C425 H412 0.930 . S
C425 C424 1.376 . S
C425 C426 1.388 . S
C426 H413 0.930 . S
C426 C425 1.388 . S
C426 C427 1.390 . S
C427 C426 1.390 . S
C427 C428 1.394 . S
C427 C433 1.465 . S
C428 C423 1.399 . S
C428 C427 1.394 . S
C428 C429 1.516 . S
C429 C428 1.516 . S
C429 C430 1.502 . S
C429 C431 1.561 . S
C429 C432 1.526 . S
C430 H414 0.959 . S
C430 H415 0.959 . S
C430 H416 0.961 . S
C430 C429 1.502 . S
C431 H417 0.960 . S
C431 H418 0.961 . S
C431 H419 0.959 . S
C431 C429 1.561 . S
C432 C429 1.526 . S
C432 C433 1.396 . S
C432 C437 1.390 . S
C433 C427 1.465 . S
C433 C432 1.396 . S
C433 C434 1.399 . S
C434 H420 0.929 . S
C434 C433 1.399 . S
C434 C435 1.385 . S
C435 H421 0.931 . S
C435 C434 1.385 . S
C435 C436 1.389 . S
C436 C435 1.389 . S
C436 C437 1.387 . S
C437 H422 0.930 . S
C437 C432 1.390 . S
C437 C436 1.387 . S
H438 C450 0.930 . S
H439 C452 0.930 . S
H440 C453 0.930 . S
H441 C457 0.959 . S
H442 C457 0.959 . S
H443 C457 0.961 . S
H444 C458 0.960 . S
H445 C458 0.961 . S
H446 C458 0.959 . S
H447 C461 0.929 . S
H448 C462 0.931 . S
H449 C464 0.930 . S
C450 H438 0.930 . S
C450 C451 1.399 . S
C450 C455 1.399 . S
C451 C450 1.399 . S
C451 C452 1.376 . S
C452 H439 0.930 . S
C452 C451 1.376 . S
C452 C453 1.388 . S
C453 H440 0.930 . S
C453 C452 1.388 . S
C453 C454 1.390 . S
C454 C453 1.390 . S
C454 C455 1.394 . S
C454 C460 1.465 . S
C455 C450 1.399 . S
C455 C454 1.394 . S
C455 C456 1.516 . S
C456 C455 1.516 . S
C456 C457 1.502 . S
C456 C458 1.561 . S
C456 C459 1.526 . S
C457 H441 0.959 . S
C457 H442 0.959 . S
C457 H443 0.961 . S
C457 C456 1.502 . S
C458 H444 0.960 . S
C458 H445 0.961 . S
C458 H446 0.959 . S
C458 C456 1.561 . S
C459 C456 1.526 . S
C459 C460 1.396 . S
C459 C464 1.390 . S
C460 C454 1.465 . S
C460 C459 1.396 . S
C460 C461 1.399 . S
C461 H447 0.929 . S
C461 C460 1.399 . S
C461 C462 1.385 . S
C462 H448 0.931 . S
C462 C461 1.385 . S
C462 C463 1.389 . S
C463 C462 1.389 . S
C463 C464 1.387 . S
C464 H449 0.930 . S
C464 C459 1.390 . S
C464 C463 1.387 . S
H465 C477 0.930 . S
H466 C479 0.930 . S
H467 C480 0.930 . S
H468 C484 0.959 . S
H469 C484 0.959 . S
H470 C484 0.961 . S
H471 C485 0.960 . S
H472 C485 0.961 . S
H473 C485 0.959 . S
H474 C488 0.929 . S
H475 C489 0.931 . S
H476 C491 0.930 . S
C477 H465 0.930 . S
C477 C478 1.399 . S
C477 C482 1.399 . S
C478 C477 1.399 . S
C478 C479 1.376 . S
C479 H466 0.930 . S
C479 C478 1.376 . S
C479 C480 1.388 . S
C480 H467 0.930 . S
C480 C479 1.388 . S
C480 C481 1.390 . S
C481 C480 1.390 . S
C481 C482 1.394 . S
C481 C487 1.465 . S
C482 C477 1.399 . S
C482 C481 1.394 . S
C482 C483 1.516 . S
C483 C482 1.516 . S
C483 C484 1.502 . S
C483 C485 1.561 . S
C483 C486 1.526 . S
C484 H468 0.959 . S
C484 H469 0.959 . S
C484 H470 0.961 . S
C484 C483 1.502 . S
C485 H471 0.960 . S
C485 H472 0.961 . S
C485 H473 0.959 . S
C485 C483 1.561 . S
C486 C483 1.526 . S
C486 C487 1.396 . S
C486 C491 1.390 . S
C487 C481 1.465 . S
C487 C486 1.396 . S
C487 C488 1.399 . S
C488 H474 0.929 . S
C488 C487 1.399 . S
C488 C489 1.385 . S
C489 H475 0.931 . S
C489 C488 1.385 . S
C489 C490 1.389 . S
C490 C489 1.389 . S
C490 C491 1.387 . S
C491 H476 0.930 . S
C491 C486 1.390 . S
C491 C490 1.387 . S
H492 C504 0.930 . S
H493 C506 0.930 . S
H494 C507 0.930 . S
H495 C511 0.959 . S
H496 C511 0.959 . S
H497 C511 0.961 . S
H498 C512 0.960 . S
H499 C512 0.961 . S
H500 C512 0.959 . S
H501 C515 0.929 . S
H502 C516 0.931 . S
H503 C518 0.930 . S
C504 H492 0.930 . S
C504 C505 1.399 . S
C504 C509 1.399 . S
C505 C504 1.399 . S
C505 C506 1.376 . S
C506 H493 0.930 . S
C506 C505 1.376 . S
C506 C507 1.388 . S
C507 H494 0.930 . S
C507 C506 1.388 . S
C507 C508 1.390 . S
C508 C507 1.390 . S
C508 C509 1.394 . S
C508 C514 1.465 . S
C509 C504 1.399 . S
C509 C508 1.394 . S
C509 C510 1.516 . S
C510 C509 1.516 . S
C510 C511 1.502 . S
C510 C512 1.561 . S
C510 C513 1.526 . S
C511 H495 0.959 . S
C511 H496 0.959 . S
C511 H497 0.961 . S
C511 C510 1.502 . S
C512 H498 0.960 . S
C512 H499 0.961 . S
C512 H500 0.959 . S
C512 C510 1.561 . S
C513 C510 1.526 . S
C513 C514 1.396 . S
C513 C518 1.390 . S
C514 C508 1.465 . S
C514 C513 1.396 . S
C514 C515 1.399 . S
C515 H501 0.929 . S
C515 C514 1.399 . S
C515 C516 1.385 . S
C516 H502 0.931 . S
C516 C515 1.385 . S
C516 C517 1.389 . S
C517 C516 1.389 . S
C517 C518 1.387 . S
C518 H503 0.930 . S
C518 C513 1.390 . S
C518 C517 1.387 . S
H519 C531 0.930 . S
H520 C533 0.930 . S
H521 C534 0.930 . S
H522 C538 0.959 . S
H523 C538 0.959 . S
H524 C538 0.961 . S
H525 C539 0.960 . S
H526 C539 0.961 . S
H527 C539 0.959 . S
H528 C542 0.929 . S
H529 C543 0.931 . S
H530 C545 0.930 . S
C531 H519 0.930 . S
C531 C532 1.399 . S
C531 C536 1.399 . S
C532 C531 1.399 . S
C532 C533 1.376 . S
C533 H520 0.930 . S
C533 C532 1.376 . S
C533 C534 1.388 . S
C534 H521 0.930 . S
C534 C533 1.388 . S
C534 C535 1.390 . S
C535 C534 1.390 . S
C535 C536 1.394 . S
C535 C541 1.465 . S
C536 C531 1.399 . S
C536 C535 1.394 . S
C536 C537 1.516 . S
C537 C536 1.516 . S
C537 C538 1.502 . S
C537 C539 1.561 . S
C537 C540 1.526 . S
C538 H522 0.959 . S
C538 H523 0.959 . S
C538 H524 0.961 . S
C538 C537 1.502 . S
C539 H525 0.960 . S
C539 H526 0.961 . S
C539 H527 0.959 . S
C539 C537 1.561 . S
C540 C537 1.526 . S
C540 C541 1.396 . S
C540 C545 1.390 . S
C541 C535 1.465 . S
C541 C540 1.396 . S
C541 C542 1.399 . S
C542 H528 0.929 . S
C542 C541 1.399 . S
C542 C543 1.385 . S
C543 H529 0.931 . S
C543 C542 1.385 . S
C543 C544 1.389 . S
C544 C543 1.389 . S
C544 C545 1.387 . S
C545 H530 0.930 . S
C545 C540 1.390 . S
C545 C544 1.387 . S
H546 C558 0.930 . S
H547 C560 0.930 . S
H548 C561 0.930 . S
H549 C565 0.959 . S
H550 C565 0.959 . S
H551 C565 0.961 . S
H552 C566 0.960 . S
H553 C566 0.961 . S
H554 C566 0.959 . S
H555 C569 0.929 . S
H556 C570 0.931 . S
H557 C572 0.930 . S
C558 H546 0.930 . S
C558 C559 1.399 . S
C558 C563 1.399 . S
C559 C558 1.399 . S
C559 C560 1.376 . S
C560 H547 0.930 . S
C560 C559 1.376 . S
C560 C561 1.388 . S
C561 H548 0.930 . S
C561 C560 1.388 . S
C561 C562 1.390 . S
C562 C561 1.390 . S
C562 C563 1.394 . S
C562 C568 1.465 . S
C563 C558 1.399 . S
C563 C562 1.394 . S
C563 C564 1.516 . S
C564 C563 1.516 . S
C564 C565 1.502 . S
C564 C566 1.561 . S
C564 C567 1.526 . S
C565 H549 0.959 . S
C565 H550 0.959 . S
C565 H551 0.961 . S
C565 C564 1.502 . S
C566 H552 0.960 . S
C566 H553 0.961 . S
C566 H554 0.959 . S
C566 C564 1.561 . S
C567 C564 1.526 . S
C567 C568 1.396 . S
C567 C572 1.390 . S
C568 C562 1.465 . S
C568 C567 1.396 . S
C568 C569 1.399 . S
C569 H555 0.929 . S
C569 C568 1.399 . S
C569 C570 1.385 . S
C570 H556 0.931 . S
C570 C569 1.385 . S
C570 C571 1.389 . S
C571 C570 1.389 . S
C571 C572 1.387 . S
C572 H557 0.930 . S
C572 C567 1.390 . S
C572 C571 1.387 . S
H573 C585 0.930 . S
H574 C587 0.930 . S
H575 C588 0.930 . S
H576 C592 0.959 . S
H577 C592 0.959 . S
H578 C592 0.961 . S
H579 C593 0.960 . S
H580 C593 0.961 . S
H581 C593 0.959 . S
H582 C596 0.929 . S
H583 C597 0.931 . S
H584 C599 0.930 . S
C585 H573 0.930 . S
C585 C586 1.399 . S
C585 C590 1.399 . S
C586 C585 1.399 . S
C586 C587 1.376 . S
C587 H574 0.930 . S
C587 C586 1.376 . S
C587 C588 1.388 . S
C588 H575 0.930 . S
C588 C587 1.388 . S
C588 C589 1.390 . S
C589 C588 1.390 . S
C589 C590 1.394 . S
C589 C595 1.465 . S
C590 C585 1.399 . S
C590 C589 1.394 . S
C590 C591 1.516 . S
C591 C590 1.516 . S
C591 C592 1.502 . S
C591 C593 1.561 . S
C591 C594 1.526 . S
C592 H576 0.959 . S
C592 H577 0.959 . S
C592 H578 0.961 . S
C592 C591 1.502 . S
C593 H579 0.960 . S
C593 H580 0.961 . S
C593 H581 0.959 . S
C593 C591 1.561 . S
C594 C591 1.526 . S
C594 C595 1.396 . S
C594 C599 1.390 . S
C595 C589 1.465 . S
C595 C594 1.396 . S
C595 C596 1.399 . S
C596 H582 0.929 . S
C596 C595 1.399 . S
C596 C597 1.385 . S
C597 H583 0.931 . S
C597 C596 1.385 . S
C597 C598 1.389 . S
C598 C597 1.389 . S
C598 C599 1.387 . S
C599 H584 0.930 . S
C599 C594 1.390 . S
C599 C598 1.387 . S
H600 C612 0.930 . S
H601 C614 0.930 . S
H602 C615 0.930 . S
H603 C619 0.959 . S
H604 C619 0.959 1_455 S
H605 C619 0.961 . S
H606 C620 0.960 1_655 S
H607 C620 0.961 . S
H608 C620 0.959 . S
H609 C623 0.929 . S
H610 C624 0.931 . S
H611 C626 0.930 . S
C612 H600 0.930 . S
C612 C613 1.399 . S
C612 C617 1.399 . S
C613 C612 1.399 . S
C613 C614 1.376 . S
C614 H601 0.930 . S
C614 C613 1.376 . S
C614 C615 1.388 . S
C615 H602 0.930 . S
C615 C614 1.388 . S
C615 C616 1.390 . S
C616 C615 1.390 . S
C616 C617 1.394 . S
C616 C622 1.465 1_655 S
C617 C612 1.399 . S
C617 C616 1.394 . S
C617 C618 1.516 1_655 S
C618 C617 1.516 1_455 S
C618 C619 1.502 1_455 S
C618 C620 1.561 . S
C618 C621 1.526 . S
C619 H603 0.959 . S
C619 H604 0.959 1_655 S
C619 H605 0.961 . S
C619 C618 1.502 1_655 S
C620 H606 0.960 1_455 S
C620 H607 0.961 . S
C620 H608 0.959 . S
C620 C618 1.561 . S
C621 C618 1.526 . S
C621 C622 1.396 . S
C621 C626 1.390 . S
C622 C616 1.465 1_455 S
C622 C621 1.396 . S
C622 C623 1.399 . S
C623 H609 0.929 . S
C623 C622 1.399 . S
C623 C624 1.385 . S
C624 H610 0.931 . S
C624 C623 1.385 . S
C624 C625 1.389 . S
C625 C624 1.389 . S
C625 C626 1.387 . S
C626 H611 0.930 . S
C626 C621 1.390 . S
C626 C625 1.387 . S
H627 C639 0.930 . S
H628 C641 0.930 . S
H629 C642 0.930 . S
H630 C646 0.959 . S
H631 C646 0.959 . S
H632 C646 0.961 . S
H633 C647 0.960 . S
H634 C647 0.961 1_565 S
H635 C647 0.959 . S
H636 C650 0.929 . S
H637 C651 0.931 . S
H638 C653 0.930 . S
C639 H627 0.930 . S
C639 C640 1.399 . S
C639 C644 1.399 . S
C640 C639 1.399 . S
C640 C641 1.376 . S
C641 H628 0.930 . S
C641 C640 1.376 . S
C641 C642 1.388 . S
C642 H629 0.930 . S
C642 C641 1.388 . S
C642 C643 1.390 . S
C643 C642 1.390 . S
C643 C644 1.394 . S
C643 C649 1.465 1_545 S
C644 C639 1.399 . S
C644 C643 1.394 . S
C644 C645 1.516 1_545 S
C645 C644 1.516 1_565 S
C645 C646 1.502 . S
C645 C647 1.561 1_565 S
C645 C648 1.526 . S
C646 H630 0.959 . S
C646 H631 0.959 . S
C646 H632 0.961 . S
C646 C645 1.502 . S
C647 H633 0.960 . S
C647 H634 0.961 1_545 S
C647 H635 0.959 . S
C647 C645 1.561 1_545 S
C648 C645 1.526 . S
C648 C649 1.396 . S
C648 C653 1.390 . S
C649 C643 1.465 1_565 S
C649 C648 1.396 . S
C649 C650 1.399 . S
C650 H636 0.929 . S
C650 C649 1.399 . S
C650 C651 1.385 . S
C651 H637 0.931 . S
C651 C650 1.385 . S
C651 C652 1.389 . S
C652 C651 1.389 . S
C652 C653 1.387 . S
C653 H638 0.930 . S
C653 C648 1.390 . S
C653 C652 1.387 . S
H654 C666 0.930 . S
H655 C668 0.930 . S
H656 C669 0.930 . S
H657 C673 0.959 . S
H658 C673 0.959 . S
H659 C673 0.961 . S
H660 C674 0.960 . S
H661 C674 0.961 . S
H662 C674 0.959 . S
H663 C677 0.929 . S
H664 C678 0.931 . S
H665 C680 0.930 . S
C666 H654 0.930 . S
C666 C667 1.399 . S
C666 C671 1.399 . S
C667 C666 1.399 . S
C667 C668 1.376 . S
C668 H655 0.930 . S
C668 C667 1.376 . S
C668 C669 1.388 . S
C669 H656 0.930 . S
C669 C668 1.388 . S
C669 C670 1.390 . S
C670 C669 1.390 . S
C670 C671 1.394 . S
C670 C676 1.465 . S
C671 C666 1.399 . S
C671 C670 1.394 . S
C671 C672 1.516 . S
C672 C671 1.516 . S
C672 C673 1.502 . S
C672 C674 1.561 . S
C672 C675 1.526 . S
C673 H657 0.959 . S
C673 H658 0.959 . S
C673 H659 0.961 . S
C673 C672 1.502 . S
C674 H660 0.960 . S
C674 H661 0.961 . S
C674 H662 0.959 . S
C674 C672 1.561 . S
C675 C672 1.526 . S
C675 C676 1.396 . S
C675 C680 1.390 . S
C676 C670 1.465 . S
C676 C675 1.396 . S
C676 C677 1.399 . S
C677 H663 0.929 . S
C677 C676 1.399 . S
C677 C678 1.385 . S
C678 H664 0.931 . S
C678 C677 1.385 . S
C678 C679 1.389 . S
C679 C678 1.389 . S
C679 C680 1.387 . S
C680 H665 0.930 . S
C680 C675 1.390 . S
C680 C679 1.387 . S
H681 C693 0.930 . S
H682 C695 0.930 . S
H683 C696 0.930 . S
H684 C700 0.959 . S
H685 C700 0.959 . S
H686 C700 0.961 . S
H687 C701 0.960 1_545 S
H688 C701 0.961 . S
H689 C701 0.959 1_545 S
H690 C704 0.929 . S
H691 C705 0.931 . S
H692 C707 0.930 . S
C693 H681 0.930 . S
C693 C694 1.399 . S
C693 C698 1.399 . S
C694 C693 1.399 . S
C694 C695 1.376 . S
C695 H682 0.930 . S
C695 C694 1.376 . S
C695 C696 1.388 . S
C696 H683 0.930 . S
C696 C695 1.388 . S
C696 C697 1.390 . S
C697 C696 1.390 . S
C697 C698 1.394 . S
C697 C703 1.465 1_545 S
C698 C693 1.399 . S
C698 C697 1.394 . S
C698 C699 1.516 1_545 S
C699 C698 1.516 1_565 S
C699 C700 1.502 . S
C699 C701 1.561 . S
C699 C702 1.526 . S
C700 H684 0.959 . S
C700 H685 0.959 . S
C700 H686 0.961 . S
C700 C699 1.502 . S
C701 H687 0.960 1_565 S
C701 H688 0.961 . S
C701 H689 0.959 1_565 S
C701 C699 1.561 . S
C702 C699 1.526 . S
C702 C703 1.396 . S
C702 C707 1.390 . S
C703 C697 1.465 1_565 S
C703 C702 1.396 . S
C703 C704 1.399 . S
C704 H690 0.929 . S
C704 C703 1.399 . S
C704 C705 1.385 . S
C705 H691 0.931 . S
C705 C704 1.385 . S
C705 C706 1.389 . S
C706 C705 1.389 . S
C706 C707 1.387 . S
C707 H692 0.930 . S
C707 C702 1.390 . S
C707 C706 1.387 . S
H708 C720 0.930 . S
H709 C722 0.930 . S
H710 C723 0.930 . S
H711 C727 0.959 . S
H712 C727 0.959 . S
H713 C727 0.961 . S
H714 C728 0.960 . S
H715 C728 0.961 . S
H716 C728 0.959 . S
H717 C731 0.929 . S
H718 C732 0.931 . S
H719 C734 0.930 . S
C720 H708 0.930 . S
C720 C721 1.399 . S
C720 C725 1.399 . S
C721 C720 1.399 . S
C721 C722 1.376 . S
C722 H709 0.930 . S
C722 C721 1.376 . S
C722 C723 1.388 . S
C723 H710 0.930 . S
C723 C722 1.388 . S
C723 C724 1.390 . S
C724 C723 1.390 . S
C724 C725 1.394 . S
C724 C730 1.465 . S
C725 C720 1.399 . S
C725 C724 1.394 . S
C725 C726 1.516 . S
C726 C725 1.516 . S
C726 C727 1.502 . S
C726 C728 1.561 . S
C726 C729 1.526 . S
C727 H711 0.959 . S
C727 H712 0.959 . S
C727 H713 0.961 . S
C727 C726 1.502 . S
C728 H714 0.960 . S
C728 H715 0.961 . S
C728 H716 0.959 . S
C728 C726 1.561 . S
C729 C726 1.526 . S
C729 C730 1.396 . S
C729 C734 1.390 . S
C730 C724 1.465 . S
C730 C729 1.396 . S
C730 C731 1.399 . S
C731 H717 0.929 . S
C731 C730 1.399 . S
C731 C732 1.385 . S
C732 H718 0.931 . S
C732 C731 1.385 . S
C732 C733 1.389 . S
C733 C732 1.389 . S
C733 C734 1.387 . S
C734 H719 0.930 . S
C734 C729 1.390 . S
C734 C733 1.387 . S
H735 C747 0.930 . S
H736 C749 0.930 . S
H737 C750 0.930 . S
H738 C754 0.959 . S
H739 C754 0.959 . S
H740 C754 0.961 . S
H741 C755 0.960 1_455 S
H742 C755 0.961 . S
H743 C755 0.959 . S
H744 C758 0.929 . S
H745 C759 0.931 . S
H746 C761 0.930 . S
C747 H735 0.930 . S
C747 C748 1.399 . S
C747 C752 1.399 . S
C748 C747 1.399 . S
C748 C749 1.376 . S
C749 H736 0.930 . S
C749 C748 1.376 . S
C749 C750 1.388 . S
C750 H737 0.930 . S
C750 C749 1.388 . S
C750 C751 1.390 . S
C751 C750 1.390 . S
C751 C752 1.394 . S
C751 C757 1.465 1_455 S
C752 C747 1.399 . S
C752 C751 1.394 . S
C752 C753 1.516 . S
C753 C752 1.516 . S
C753 C754 1.502 . S
C753 C755 1.561 1_455 S
C753 C756 1.526 1_455 S
C754 H738 0.959 . S
C754 H739 0.959 . S
C754 H740 0.961 . S
C754 C753 1.502 . S
C755 H741 0.960 1_655 S
C755 H742 0.961 . S
C755 H743 0.959 . S
C755 C753 1.561 1_655 S
C756 C753 1.526 1_655 S
C756 C757 1.396 . S
C756 C761 1.390 . S
C757 C751 1.465 1_655 S
C757 C756 1.396 . S
C757 C758 1.399 . S
C758 H744 0.929 . S
C758 C757 1.399 . S
C758 C759 1.385 . S
C759 H745 0.931 . S
C759 C758 1.385 . S
C759 C760 1.389 . S
C760 C759 1.389 . S
C760 C761 1.387 . S
C761 H746 0.930 . S
C761 C756 1.390 . S
C761 C760 1.387 . S
H762 C774 0.930 . S
H763 C776 0.930 . S
H764 C777 0.930 . S
H765 C781 0.959 . S
H766 C781 0.959 . S
H767 C781 0.961 . S
H768 C782 0.960 . S
H769 C782 0.961 . S
H770 C782 0.959 . S
H771 C785 0.929 . S
H772 C786 0.931 . S
H773 C788 0.930 . S
C774 H762 0.930 . S
C774 C775 1.399 . S
C774 C779 1.399 . S
C775 C774 1.399 . S
C775 C776 1.376 . S
C776 H763 0.930 . S
C776 C775 1.376 . S
C776 C777 1.388 . S
C777 H764 0.930 . S
C777 C776 1.388 . S
C777 C778 1.390 . S
C778 C777 1.390 . S
C778 C779 1.394 . S
C778 C784 1.465 . S
C779 C774 1.399 . S
C779 C778 1.394 . S
C779 C780 1.516 . S
C780 C779 1.516 . S
C780 C781 1.502 . S
C780 C782 1.561 . S
C780 C783 1.526 . S
C781 H765 0.959 . S
C781 H766 0.959 . S
C781 H767 0.961 . S
C781 C780 1.502 . S
C782 H768 0.960 . S
C782 H769 0.961 . S
C782 H770 0.959 . S
C782 C780 1.561 . S
C783 C780 1.526 . S
C783 C784 1.396 . S
C783 C788 1.390 . S
C784 C778 1.465 . S
C784 C783 1.396 . S
C784 C785 1.399 . S
C785 H771 0.929 . S
C785 C784 1.399 . S
C785 C786 1.385 . S
C786 H772 0.931 . S
C786 C785 1.385 . S
C786 C787 1.389 . S
C787 C786 1.389 . S
C787 C788 1.387 . S
C788 H773 0.930 . S
C788 C783 1.390 . S
C788 C787 1.387 . S
H789 C801 0.930 . S
H790 C803 0.930 . S
H791 C804 0.930 . S
H792 C808 0.959 . S
H793 C808 0.959 . S
H794 C808 0.961 . S
H795 C809 0.957 1_655 S
H796 C809 0.961 . S
H797 C809 0.959 . S
H798 C812 0.929 . S
H799 C813 0.931 . S
H800 C815 0.930 . S
C801 H789 0.930 . S
C801 C802 1.399 . S
C801 C806 1.399 . S
C802 C801 1.399 . S
C802 C803 1.376 . S
C803 H790 0.930 . S
C803 C802 1.376 . S
C803 C804 1.388 . S
C804 H791 0.930 . S
C804 C803 1.388 . S
C804 C805 1.390 . S
C805 C804 1.390 . S
C805 C806 1.394 . S
C805 C811 1.465 1_655 S
C806 C801 1.399 . S
C806 C805 1.394 . S
C806 C807 1.516 . S
C807 C806 1.516 . S
C807 C808 1.502 . S
C807 C809 1.561 1_655 S
C807 C810 1.526 1_655 S
C808 H792 0.959 . S
C808 H793 0.959 . S
C808 H794 0.961 . S
C808 C807 1.502 . S
C809 H795 0.957 1_455 S
C809 H796 0.961 . S
C809 H797 0.959 . S
C809 C807 1.561 1_455 S
C810 C807 1.526 1_455 S
C810 C811 1.396 . S
C810 C815 1.390 . S
C811 C805 1.465 1_455 S
C811 C810 1.396 . S
C811 C812 1.399 . S
C812 H798 0.929 . S
C812 C811 1.399 . S
C812 C813 1.385 . S
C813 H799 0.931 . S
C813 C812 1.385 . S
C813 C814 1.389 . S
C814 C813 1.389 . S
C814 C815 1.387 . S
C815 H800 0.930 . S
C815 C810 1.390 . S
C815 C814 1.387 . S
H816 C828 0.930 . S
H817 C830 0.930 . S
H818 C831 0.930 . S
H819 C835 0.959 1_565 S
H820 C835 0.959 1_565 S
H821 C835 0.961 . S
H822 C836 0.960 . S
H823 C836 0.961 . S
H824 C836 0.959 . S
H825 C839 0.929 . S
H826 C840 0.931 . S
H827 C842 0.930 . S
C828 H816 0.930 . S
C828 C829 1.399 . S
C828 C833 1.399 . S
C829 C828 1.399 . S
C829 C830 1.376 . S
C830 H817 0.930 . S
C830 C829 1.376 . S
C830 C831 1.388 . S
C831 H818 0.930 . S
C831 C830 1.388 . S
C831 C832 1.390 . S
C832 C831 1.390 . S
C832 C833 1.394 . S
C832 C838 1.465 1_545 S
C833 C828 1.399 . S
C833 C832 1.394 . S
C833 C834 1.516 . S
C834 C833 1.516 . S
C834 C835 1.502 . S
C834 C836 1.561 . S
C834 C837 1.526 1_545 S
C835 H819 0.959 1_545 S
C835 H820 0.959 1_545 S
C835 H821 0.961 . S
C835 C834 1.502 . S
C836 H822 0.960 . S
C836 H823 0.961 . S
C836 H824 0.959 . S
C836 C834 1.561 . S
C837 C834 1.526 1_565 S
C837 C838 1.396 . S
C837 C842 1.390 . S
C838 C832 1.465 1_565 S
C838 C837 1.396 . S
C838 C839 1.399 . S
C839 H825 0.929 . S
C839 C838 1.399 . S
C839 C840 1.385 . S
C840 H826 0.931 . S
C840 C839 1.385 . S
C840 C841 1.389 . S
C841 C840 1.389 . S
C841 C842 1.387 . S
C842 H827 0.930 . S
C842 C837 1.390 . S
C842 C841 1.387 . S
H843 C855 0.930 . S
H844 C857 0.930 . S
H845 C858 0.930 . S
H846 C862 0.959 . S
H847 C862 0.959 . S
H848 C862 0.961 . S
H849 C863 0.960 . S
H850 C863 0.961 . S
H851 C863 0.959 . S
H852 C866 0.929 . S
H853 C867 0.931 . S
H854 C869 0.930 . S
C855 H843 0.930 . S
C855 C856 1.399 . S
C855 C860 1.399 . S
C856 C855 1.399 . S
C856 C857 1.376 . S
C857 H844 0.930 . S
C857 C856 1.376 . S
C857 C858 1.388 . S
C858 H845 0.930 . S
C858 C857 1.388 . S
C858 C859 1.390 . S
C859 C858 1.390 . S
C859 C860 1.394 . S
C859 C865 1.465 . S
C860 C855 1.399 . S
C860 C859 1.394 . S
C860 C861 1.516 . S
C861 C860 1.516 . S
C861 C862 1.502 . S
C861 C863 1.561 . S
C861 C864 1.526 . S
C862 H846 0.959 . S
C862 H847 0.959 . S
C862 H848 0.961 . S
C862 C861 1.502 . S
C863 H849 0.960 . S
C863 H850 0.961 . S
C863 H851 0.959 . S
C863 C861 1.561 . S
C864 C861 1.526 . S
C864 C865 1.396 . S
C864 C869 1.390 . S
C865 C859 1.465 . S
C865 C864 1.396 . S
C865 C866 1.399 . S
C866 H852 0.929 . S
C866 C865 1.399 . S
C866 C867 1.385 . S
C867 H853 0.931 . S
C867 C866 1.385 . S
C867 C868 1.389 . S
C868 C867 1.389 . S
C868 C869 1.387 . S
C869 H854 0.930 . S
C869 C864 1.390 . S
C869 C868 1.387 . S
H870 C882 0.930 . S
H871 C884 0.930 . S
H872 C885 0.930 . S
H873 C889 0.959 . S
H874 C889 0.959 . S
H875 C889 0.961 1_455 S
H876 C890 0.960 . S
H877 C890 0.961 1_655 S
H878 C890 0.959 . S
H879 C893 0.929 . S
H880 C894 0.931 . S
H881 C896 0.930 . S
C882 H870 0.930 . S
C882 C883 1.399 . S
C882 C887 1.399 . S
C883 C882 1.399 . S
C883 C884 1.376 . S
C884 H871 0.930 . S
C884 C883 1.376 . S
C884 C885 1.388 . S
C885 H872 0.930 . S
C885 C884 1.388 . S
C885 C886 1.390 . S
C886 C885 1.390 . S
C886 C887 1.394 . S
C886 C892 1.465 1_455 S
C887 C882 1.399 . S
C887 C886 1.394 . S
C887 C888 1.516 1_455 S
C888 C887 1.516 1_655 S
C888 C889 1.502 . S
C888 C890 1.561 1_655 S
C888 C891 1.526 . S
C889 H873 0.959 . S
C889 H874 0.959 . S
C889 H875 0.961 1_655 S
C889 C888 1.502 . S
C890 H876 0.960 . S
C890 H877 0.961 1_455 S
C890 H878 0.959 . S
C890 C888 1.561 1_455 S
C891 C888 1.526 . S
C891 C892 1.396 . S
C891 C896 1.390 . S
C892 C886 1.465 1_655 S
C892 C891 1.396 . S
C892 C893 1.399 . S
C893 H879 0.929 . S
C893 C892 1.399 . S
C893 C894 1.385 . S
C894 H880 0.931 . S
C894 C893 1.385 . S
C894 C895 1.389 . S
C895 C894 1.389 . S
C895 C896 1.387 . S
C896 H881 0.930 . S
C896 C891 1.390 . S
C896 C895 1.387 . S
H897 C909 0.930 . S
H898 C911 0.930 . S
H899 C912 0.930 . S
H900 C916 0.959 . S
H901 C916 0.959 . S
H902 C916 0.961 . S
H903 C917 0.960 1_565 S
H904 C917 0.961 . S
H905 C917 0.959 . S
H906 C920 0.929 . S
H907 C921 0.931 . S
H908 C923 0.930 . S
C909 H897 0.930 . S
C909 C910 1.399 . S
C909 C914 1.399 . S
C910 C909 1.399 . S
C910 C911 1.376 . S
C911 H898 0.930 . S
C911 C910 1.376 . S
C911 C912 1.388 . S
C912 H899 0.930 . S
C912 C911 1.388 . S
C912 C913 1.390 . S
C913 C912 1.390 . S
C913 C914 1.394 . S
C913 C919 1.465 1_565 S
C914 C909 1.399 . S
C914 C913 1.394 . S
C914 C915 1.516 . S
C915 C914 1.516 . S
C915 C916 1.502 . S
C915 C917 1.561 1_565 S
C915 C918 1.526 1_565 S
C916 H900 0.959 . S
C916 H901 0.959 . S
C916 H902 0.961 . S
C916 C915 1.502 . S
C917 H903 0.960 1_545 S
C917 H904 0.961 . S
C917 H905 0.959 . S
C917 C915 1.561 1_545 S
C918 C915 1.526 1_545 S
C918 C919 1.396 . S
C918 C923 1.390 . S
C919 C913 1.465 1_545 S
C919 C918 1.396 . S
C919 C920 1.399 . S
C920 H906 0.929 . S
C920 C919 1.399 . S
C920 C921 1.385 . S
C921 H907 0.931 . S
C921 C920 1.385 . S
C921 C922 1.389 . S
C922 C921 1.389 . S
C922 C923 1.387 . S
C923 H908 0.930 . S
C923 C918 1.390 . S
C923 C922 1.387 . S
C289 N232 1.643 . S
C301 N2 1.595 . S
C316 C30 1.644 . S
C328 C260 1.662 . S
C343 C53 1.657 . S
C355 C145 1.615 . S
C370 N71 1.551 . S
C382 N163 1.611 . S
C397 C191 1.655 . S
C409 C99 1.614 . S
C424 C122 1.657 . S
C436 C214 1.616 . S
C451 C200 1.664 . S
C463 N12 1.647 . S
C478 C39 1.612 . S
C490 C223 1.649 . S
C505 C62 1.665 . S
C517 N242 1.654 . S
C532 N81 1.668 . S
C544 C269 1.652 . S
C559 C154 1.616 . S
C571 C108 1.647 . S
C586 N173 1.620 . S
C598 C131 1.643 . S
C613 C76 1.201 . S
C625 C7 1.203 . S
C640 N25 1.127 . S
C652 N94 1.103 . S
C667 N117 1.088 . S
C679 N48 1.120 . S
C694 N209 1.149 . S
C706 N140 1.099 . S
C721 C237 1.188 . S
C733 C168 1.176 . S
C748 N186 1.088 . S
C760 N255 1.120 . S
C775 C85 1.943 . S
C787 C16 1.908 . S
C802 N35 1.831 . S
C814 N104 1.813 . S
C829 N127 1.817 . S
C841 N58 1.814 . S
C856 N150 1.830 . S
C868 N219 1.809 . S
C883 C246 1.924 . S
C895 C177 1.908 . S
C910 N196 1.871 . S
C922 N265 1.854 . S
